# Generated by pormake.
# Topology wjf, (4)-cn, num edge types: 1
# Building blocks:
#     Node 0, Type 0, BuildingBlock: QUQFOY_clean_sbu_1, # of connection points: 4
#     Node 1, Type 0, BuildingBlock: QUQFOY_clean_sbu_1, # of connection points: 4
#     Node 2, Type 0, BuildingBlock: QUQFOY_clean_sbu_1, # of connection points: 4
#     Node 3, Type 0, BuildingBlock: QUQFOY_clean_sbu_1, # of connection points: 4
#     Node 4, Type 0, BuildingBlock: QUQFOY_clean_sbu_1, # of connection points: 4
#     Node 5, Type 0, BuildingBlock: QUQFOY_clean_sbu_1, # of connection points: 4
#     Node 6, Type 0, BuildingBlock: QUQFOY_clean_sbu_1, # of connection points: 4
#     Node 7, Type 0, BuildingBlock: QUQFOY_clean_sbu_1, # of connection points: 4
#     Node 8, Type 0, BuildingBlock: QUQFOY_clean_sbu_1, # of connection points: 4
#     Node 9, Type 0, BuildingBlock: QUQFOY_clean_sbu_1, # of connection points: 4
#     Node 10, Type 0, BuildingBlock: QUQFOY_clean_sbu_1, # of connection points: 4
#     Node 11, Type 0, BuildingBlock: QUQFOY_clean_sbu_1, # of connection points: 4
#     Edge 12, Type (0, 0), BuildingBlock: TEMPAE_clean_linker_10, # of connection points: 2
#     Edge 13, Type (0, 0), BuildingBlock: TEMPAE_clean_linker_10, # of connection points: 2
#     Edge 14, Type (0, 0), BuildingBlock: TEMPAE_clean_linker_10, # of connection points: 2
#     Edge 15, Type (0, 0), BuildingBlock: TEMPAE_clean_linker_10, # of connection points: 2
#     Edge 16, Type (0, 0), BuildingBlock: TEMPAE_clean_linker_10, # of connection points: 2
#     Edge 17, Type (0, 0), BuildingBlock: TEMPAE_clean_linker_10, # of connection points: 2
#     Edge 18, Type (0, 0), BuildingBlock: TEMPAE_clean_linker_10, # of connection points: 2
#     Edge 19, Type (0, 0), BuildingBlock: TEMPAE_clean_linker_10, # of connection points: 2
#     Edge 20, Type (0, 0), BuildingBlock: TEMPAE_clean_linker_10, # of connection points: 2
#     Edge 21, Type (0, 0), BuildingBlock: TEMPAE_clean_linker_10, # of connection points: 2
#     Edge 22, Type (0, 0), BuildingBlock: TEMPAE_clean_linker_10, # of connection points: 2
#     Edge 23, Type (0, 0), BuildingBlock: TEMPAE_clean_linker_10, # of connection points: 2
#     Edge 24, Type (0, 0), BuildingBlock: TEMPAE_clean_linker_10, # of connection points: 2
#     Edge 25, Type (0, 0), BuildingBlock: TEMPAE_clean_linker_10, # of connection points: 2
#     Edge 26, Type (0, 0), BuildingBlock: TEMPAE_clean_linker_10, # of connection points: 2
#     Edge 27, Type (0, 0), BuildingBlock: TEMPAE_clean_linker_10, # of connection points: 2
#     Edge 28, Type (0, 0), BuildingBlock: TEMPAE_clean_linker_10, # of connection points: 2
#     Edge 29, Type (0, 0), BuildingBlock: TEMPAE_clean_linker_10, # of connection points: 2
#     Edge 30, Type (0, 0), BuildingBlock: TEMPAE_clean_linker_10, # of connection points: 2
#     Edge 31, Type (0, 0), BuildingBlock: TEMPAE_clean_linker_10, # of connection points: 2
#     Edge 32, Type (0, 0), BuildingBlock: TEMPAE_clean_linker_10, # of connection points: 2
#     Edge 33, Type (0, 0), BuildingBlock: TEMPAE_clean_linker_10, # of connection points: 2
#     Edge 34, Type (0, 0), BuildingBlock: TEMPAE_clean_linker_10, # of connection points: 2
#     Edge 35, Type (0, 0), BuildingBlock: TEMPAE_clean_linker_10, # of connection points: 2
# Relax obj value: 0.018
# Max RMSD: 0.065
# Mean RMSD: 0.065
data_MOF--net-wjf--node1-QUQFOY_clean_sbu_1--edge1-TEMPAE_clean_linker_10
_symmetry_space_group_name_H-M    P1
_symmetry_Int_Tables_number       1
_symmetry_cell_setting            triclinic
loop_
_symmetry_equiv_pos_as_xyz
'x, y, z'
_cell_length_a     54.598731
_cell_length_b     54.577374
_cell_length_c     29.020016
_cell_angle_alpha  89.961258
_cell_angle_beta   90.052772
_cell_angle_gamma 119.98724
loop_
_atom_site_label
_atom_site_type_symbol
_atom_site_fract_x
_atom_site_fract_y
_atom_site_fract_z
_atom_type_partial_charge
O0 O 0.34223 0.39565 1.00259 0.0
Cd1 Cd 0.34319 0.41907 0.05823 0.0
Cd2 Cd 0.34958 0.37659 0.09997 0.0
O3 O 0.33633 0.35672 0.03608 0.0
O4 O 0.32983 0.44371 0.03025 0.0
O5 O 0.30579 0.41183 0.08374 0.0
C6 C 0.30718 0.4304 0.05459 0.0
C7 C 0.33572 0.35256 0.17045 0.0
C8 C 0.33754 0.37046 0.99983 0.0
C9 C 0.39917 0.43743 0.09892 0.0
O10 O 0.3901 0.41114 0.10416 0.0
O11 O 0.38278 0.44605 0.08452 0.0
O12 O 0.35292 0.34997 0.14324 0.0
O13 O 0.32444 0.3671 0.15609 0.0
O14 O 0.94989 0.33375 0.34951 0.0
Cd15 Cd 0.92922 0.33986 0.40311 0.0
Cd16 Cd 0.98047 0.34845 0.4444 0.0
O17 O 0.98652 0.33375 0.38171 0.0
O18 O 0.8924 0.32894 0.37261 0.0
O19 O 0.89633 0.30464 0.43006 0.0
C20 C 0.88081 0.30691 0.39863 0.0
C21 C 0.99057 0.33579 0.51589 0.0
C22 C 0.97133 0.33058 0.34642 0.0
C23 C 0.96905 0.3978 0.43828 0.0
O24 O 0.98612 0.38879 0.44581 0.0
O25 O 0.9441 0.38115 0.42391 0.0
O26 O 0.01041 0.35254 0.48829 0.0
O27 O 0.96476 0.32431 0.50146 0.0
O28 O 0.60224 0.94339 0.66877 0.0
Cd29 Cd 0.57906 0.91983 0.72382 0.0
Cd30 Cd 0.61951 0.9701 0.76672 0.0
O31 O 0.63972 0.97814 0.7028 0.0
O32 O 0.55588 0.88193 0.69471 0.0
O33 O 0.58744 0.89029 0.74903 0.0
C34 C 0.56947 0.87301 0.71934 0.0
C35 C 0.64353 0.98175 0.83751 0.0
C36 C 0.6267 0.9651 0.66637 0.0
C37 C 0.55731 0.95478 0.7643 0.0
O38 O 0.58319 0.97313 0.77047 0.0
O39 O 0.5503 0.93025 0.74935 0.0
O40 O 0.64472 1.00091 0.81014 0.0
O41 O 0.63048 0.95587 0.82318 0.0
O42 O 0.67276 0.61562 0.01637 0.0
Cd43 Cd 0.6678 0.58914 0.06996 0.0
Cd44 Cd 0.65742 0.63072 0.11166 0.0
O45 O 0.67112 0.65139 0.04863 0.0
O46 O 0.68012 0.56427 0.03966 0.0
O47 O 0.70368 0.593 0.09701 0.0
C48 C 0.70214 0.57544 0.06574 0.0
C49 C 0.66925 0.65387 0.18289 0.0
C50 C 0.67479 0.63977 0.01328 0.0
C51 C 0.60963 0.56912 0.10576 0.0
O52 O 0.61783 0.595 0.11356 0.0
O53 O 0.62681 0.56163 0.09088 0.0
O54 O 0.65194 0.6559 0.15508 0.0
O55 O 0.68176 0.64046 0.16879 0.0
O56 O 0.06208 0.66401 0.33582 0.0
Cd57 Cd 0.08603 0.66428 0.39023 0.0
Cd58 Cd 0.03786 0.65791 0.4348 0.0
O59 O 0.03022 0.67085 0.37134 0.0
O60 O 0.12369 0.67835 0.36064 0.0
O61 O 0.11592 0.70219 0.41457 0.0
C62 C 0.1329 0.70111 0.38469 0.0
C63 C 0.0273 0.67115 0.50557 0.0
C64 C 0.0417 0.66893 0.33438 0.0
C65 C 0.04986 0.60868 0.43264 0.0
O66 O 0.03259 0.61761 0.43873 0.0
O67 O 0.07456 0.62511 0.41716 0.0
O68 O 0.00768 0.6537 0.47831 0.0
O69 O 0.05311 0.683 0.49115 0.0
O70 O 0.37832 0.05192 0.67851 0.0
Cd71 Cd 0.40562 0.07139 0.73206 0.0
Cd72 Cd 0.36321 0.02146 0.77341 0.0
O73 O 0.34131 0.01665 0.71224 0.0
O74 O 0.43246 0.10807 0.70193 0.0
O75 O 0.40481 0.10495 0.7597 0.0
C76 C 0.42269 0.12018 0.7282 0.0
C77 C 0.34466 0.01799 0.84701 0.0
C78 C 0.35314 0.03138 0.67652 0.0
C79 C 0.42182 0.02924 0.76501 0.0
O80 O 0.39565 0.01237 0.77222 0.0
O81 O 0.4306 0.05461 0.7522 0.0
O82 O 0.33595 0.99598 0.82109 0.0
O83 O 0.36254 0.04238 0.82989 0.0
O84 O 0.60496 0.65886 0.69014 0.0
Cd85 Cd 0.58175 0.65801 0.63421 0.0
Cd86 Cd 0.62441 0.65263 0.59266 0.0
O87 O 0.64428 0.66615 0.65648 0.0
O88 O 0.55721 0.6717 0.66124 0.0
O89 O 0.58951 0.69546 0.60816 0.0
C90 C 0.57085 0.6943 0.63684 0.0
C91 C 0.64837 0.66702 0.52228 0.0
C92 C 0.63038 0.66429 0.6928 0.0
C93 C 0.56401 0.60234 0.59329 0.0
O94 O 0.59037 0.61178 0.58832 0.0
O95 O 0.55504 0.61845 0.60759 0.0
O96 O 0.65137 0.64999 0.54938 0.0
O97 O 0.63343 0.67782 0.53668 0.0
O98 O 0.94963 0.61963 1.01265 0.0
Cd99 Cd 0.92758 0.59191 0.96071 0.0
Cd100 Cd 0.97971 0.63333 0.9165 0.0
O101 O 0.98723 0.65452 0.97916 0.0
O102 O 0.89113 0.56717 0.99316 0.0
O103 O 0.89458 0.59439 0.93444 0.0
C104 C 0.87939 0.57734 0.96689 0.0
C105 C 0.99124 0.6562 0.84491 0.0
C106 C 0.97197 0.64364 0.01481 0.0
C107 C 0.96555 0.57158 0.92435 0.0
O108 O 0.98306 0.5973 0.91511 0.0
O109 O 0.94121 0.56436 0.94047 0.0
O110 O 0.01047 0.65801 0.87277 0.0
O111 O 0.96534 0.64316 0.8591 0.0
O112 O 0.34118 0.95027 0.35299 0.0
Cd113 Cd 0.34344 0.92985 0.2956 0.0
Cd114 Cd 0.34592 0.97577 0.25693 0.0
O115 O 0.32901 0.97888 0.31967 0.0
O116 O 0.33168 0.89147 0.32043 0.0
O117 O 0.30656 0.89944 0.26909 0.0
C118 C 0.30879 0.88202 0.29662 0.0
C119 C 0.32847 0.97773 0.18453 0.0
C120 C 0.33265 0.96797 0.35595 0.0
C121 C 0.3989 0.97157 0.25777 0.0
O122 O 0.38847 0.98781 0.25531 0.0
O123 O 0.38334 0.94563 0.26843 0.0
O124 O 0.34095 0.99991 0.2103 0.0
O125 O 0.32405 0.95389 0.20128 0.0
O126 O 0.38901 0.32916 0.67669 0.0
Cd127 Cd 0.41506 0.33357 0.62283 0.0
Cd128 Cd 0.37314 0.34336 0.58107 0.0
O129 O 0.35271 0.32976 0.64436 0.0
O130 O 0.43996 0.3212 0.65306 0.0
O131 O 0.41075 0.29739 0.59635 0.0
C132 C 0.42843 0.29898 0.62746 0.0
C133 C 0.34985 0.33144 0.50987 0.0
C134 C 0.36472 0.32677 0.67985 0.0
C135 C 0.43468 0.39146 0.58625 0.0
O136 O 0.40872 0.38306 0.57886 0.0
O137 O 0.44242 0.37444 0.60106 0.0
O138 O 0.34777 0.34869 0.53773 0.0
O139 O 0.36335 0.319 0.52393 0.0
O140 O 0.05959 0.39756 0.0231 0.0
Cd141 Cd 0.08171 0.42089 0.96714 0.0
Cd142 Cd 0.03299 0.37862 0.92629 0.0
O143 O 0.02671 0.35852 0.98982 0.0
O144 O 0.11992 0.44537 0.99439 0.0
O145 O 0.11149 0.41333 0.94088 0.0
C146 C 0.12893 0.43186 0.9698 0.0
C147 C 0.02322 0.35493 0.85567 0.0
C148 C 0.03927 0.37229 0.02597 0.0
C149 C 0.04383 0.43926 0.9278 0.0
O150 O 0.02661 0.41296 0.92284 0.0
O151 O 0.06899 0.44792 0.94139 0.0
O152 O 0.00326 0.35201 0.8828 0.0
O153 O 0.04898 0.36966 0.87013 0.0
O154 O 0.66975 0.06279 0.34399 0.0
Cd155 Cd 0.66704 0.08584 0.29066 0.0
Cd156 Cd 0.65466 0.03314 0.2475 0.0
O157 O 0.66682 0.02491 0.31128 0.0
O158 O 0.68004 0.12272 0.32254 0.0
O159 O 0.70392 0.11754 0.2658 0.0
C160 C 0.70244 0.13339 0.29743 0.0
C161 C 0.66564 0.02046 0.1765 0.0
C162 C 0.67049 0.03997 0.34698 0.0
C163 C 0.60908 0.0503 0.25221 0.0
O164 O 0.61618 0.03179 0.24431 0.0
O165 O 0.62686 0.07447 0.26817 0.0
O166 O 0.64757 1.00175 0.20431 0.0
O167 O 0.67938 0.04639 0.19053 0.0
C168 C 0.30769 0.33487 0.24382 0.0
C169 C 0.33245 0.34265 0.21876 0.0
C170 C 0.30608 0.3284 0.29114 0.0
C171 C 0.33025 0.33116 0.31422 0.0
C172 C 0.35507 0.33846 0.28866 0.0
C173 C 0.35563 0.34351 0.24117 0.0
C174 C 0.27882 0.31944 0.31666 0.0
C175 C 0.3817 0.34273 0.3119 0.0
C176 C 0.3428 0.35341 0.43987 0.0
C177 C 0.34065 0.32939 0.46131 0.0
C178 C 0.33861 0.35394 0.39226 0.0
C179 C 0.3309 0.32942 0.36555 0.0
C180 C 0.3268 0.30444 0.3876 0.0
C181 C 0.33242 0.30492 0.43511 0.0
C182 C 0.34429 0.38138 0.37018 0.0
C183 C 0.31737 0.2775 0.3608 0.0
H184 H 0.28969 0.33406 0.22652 0.0
H185 H 0.37494 0.34984 0.22204 0.0
H186 H 0.27371 0.3012 0.33954 0.0
H187 H 0.28114 0.33705 0.33874 0.0
H188 H 0.26083 0.31353 0.29272 0.0
H189 H 0.39906 0.34795 0.28697 0.0
H190 H 0.38905 0.36021 0.33732 0.0
H191 H 0.37744 0.32342 0.33105 0.0
H192 H 0.34948 0.37249 0.45989 0.0
H193 H 0.33062 0.28627 0.45164 0.0
H194 H 0.32562 0.37818 0.35015 0.0
H195 H 0.36223 0.3887 0.34571 0.0
H196 H 0.34954 0.39835 0.39593 0.0
H197 H 0.29976 0.27351 0.33717 0.0
H198 H 0.31037 0.25892 0.38386 0.0
H199 H 0.3351 0.27953 0.33937 0.0
C200 C 0.0191 0.35699 0.58649 0.0
C201 C 0.99714 0.3333 0.56455 0.0
C202 C 0.02337 0.35718 0.63417 0.0
C203 C 0.00603 0.3326 0.66043 0.0
C204 C 0.98505 0.30792 0.63789 0.0
C205 C 0.98036 0.30878 0.59031 0.0
C206 C 0.04524 0.38433 0.65679 0.0
C207 C 0.96698 0.28091 0.66422 0.0
C208 C 0.03366 0.33712 0.78259 0.0
C209 C 0.01678 0.34518 0.80731 0.0
C210 C 0.02902 0.33079 0.73522 0.0
C211 C 0.00801 0.33404 0.71177 0.0
C212 C 0.99059 0.34163 0.737 0.0
C213 C 0.99482 0.34649 0.78455 0.0
C214 C 0.04715 0.32148 0.71004 0.0
C215 C 0.96868 0.34644 0.71335 0.0
H216 H 0.03191 0.37611 0.56676 0.0
H217 H 0.96345 0.29039 0.57336 0.0
H218 H 0.03469 0.39177 0.68116 0.0
H219 H 0.06037 0.3807 0.67701 0.0
H220 H 0.05735 0.4014 0.63135 0.0
H221 H 0.95544 0.2625 0.64084 0.0
H222 H 0.98018 0.27653 0.68821 0.0
H223 H 0.95123 0.28311 0.68522 0.0
H224 H 0.05057 0.33596 0.80019 0.0
H225 H 0.98194 0.35305 0.80347 0.0
H226 H 0.06281 0.33906 0.6883 0.0
H227 H 0.03397 0.30343 0.68686 0.0
H228 H 0.05879 0.31515 0.7342 0.0
H229 H 0.97919 0.36399 0.68813 0.0
H230 H 0.95657 0.35184 0.73807 0.0
H231 H 0.95357 0.32731 0.69392 0.0
C232 C 0.66152 0.97238 0.9116 0.0
C233 C 0.65348 0.98895 0.88581 0.0
C234 C 0.66801 0.97771 0.95887 0.0
C235 C 0.66511 0.99924 0.98118 0.0
C236 C 0.65759 0.01638 0.95489 0.0
C237 C 0.65243 0.01137 0.90749 0.0
C238 C 0.67712 0.95975 0.98517 0.0
C239 C 0.65327 0.03892 0.97728 0.0
C240 C 0.64332 0.99083 0.10707 0.0
C241 C 0.66744 0.01285 0.12806 0.0
C242 C 0.64261 0.98566 0.05958 0.0
C243 C 0.66701 0.0022 0.03248 0.0
C244 C 0.69207 0.02326 0.05407 0.0
C245 C 0.6918 0.02878 0.10146 0.0
C246 C 0.61513 0.96367 0.03801 0.0
C247 C 0.71887 0.04055 0.02686 0.0
H248 H 0.66249 0.95512 0.89494 0.0
H249 H 0.64594 0.02407 0.88785 0.0
H250 H 0.6955 0.97321 1.00757 0.0
H251 H 0.65966 0.9448 1.00784 0.0
H252 H 0.68287 0.94732 0.96178 0.0
H253 H 0.64801 0.05081 0.95184 0.0
H254 H 0.63581 0.029 1.00274 0.0
H255 H 0.67256 0.05416 0.99626 0.0
H256 H 0.62432 0.97863 0.12732 0.0
H257 H 0.71054 0.04574 0.11759 0.0
H258 H 0.61831 0.94807 0.01839 0.0
H259 H 0.60764 0.97403 0.01326 0.0
H260 H 0.59829 0.95213 0.06403 0.0
H261 H 0.72288 0.0267 1.00383 0.0
H262 H 0.73752 0.0525 0.04965 0.0
H263 H 0.71664 0.0559 1.00477 0.0
C264 C 0.6959 0.67151 0.2575 0.0
C265 C 0.67132 0.66301 0.23144 0.0
C266 C 0.69643 0.67707 0.30501 0.0
C267 C 0.6714 0.67264 0.3272 0.0
C268 C 0.64676 0.66469 0.30064 0.0
C269 C 0.64724 0.66057 0.25302 0.0
C270 C 0.72347 0.68678 0.33167 0.0
C271 C 0.61928 0.65866 0.32288 0.0
C272 C 0.65774 0.64759 0.45142 0.0
C273 C 0.65829 0.67056 0.47399 0.0
C274 C 0.66278 0.64834 0.40391 0.0
C275 C 0.66974 0.67316 0.37853 0.0
C276 C 0.6722 0.69715 0.40178 0.0
C277 C 0.66574 0.69533 0.4491 0.0
C278 C 0.65882 0.62188 0.38048 0.0
C279 C 0.68081 0.72441 0.37643 0.0
H280 H 0.71459 0.67354 0.24084 0.0
H281 H 0.62809 0.65369 0.23308 0.0
H282 H 0.72728 0.70428 0.35541 0.0
H283 H 0.72174 0.66911 0.35295 0.0
H284 H 0.74202 0.69406 0.3085 0.0
H285 H 0.60222 0.65326 0.29721 0.0
H286 H 0.6122 0.6407 0.34729 0.0
H287 H 0.6223 0.67722 0.34298 0.0
H288 H 0.65166 0.62827 0.47043 0.0
H289 H 0.6663 0.71316 0.46654 0.0
H290 H 0.67817 0.62643 0.36126 0.0
H291 H 0.6413 0.6144 0.35511 0.0
H292 H 0.65384 0.6045 0.40531 0.0
H293 H 0.69903 0.72977 0.35341 0.0
H294 H 0.68659 0.74232 0.40048 0.0
H295 H 0.66307 0.72194 0.35451 0.0
C296 C 0.02028 0.66313 0.77503 0.0
C297 C 0.9984 0.6653 0.79632 0.0
C298 C 0.0251 0.66738 0.72746 0.0
C299 C 0.00837 0.67516 0.70063 0.0
C300 C 0.98745 0.67923 0.72251 0.0
C301 C 0.98224 0.67358 0.76998 0.0
C302 C 0.0469 0.66175 0.70556 0.0
C303 C 0.96999 0.68868 0.69555 0.0
C304 C 0.03737 0.69887 0.57926 0.0
C305 C 0.02052 0.67418 0.55391 0.0
C306 C 0.03237 0.70028 0.62657 0.0
C307 C 0.01094 0.67598 0.64933 0.0
C308 C 0.99356 0.65124 0.62348 0.0
C309 C 0.99821 0.65087 0.57601 0.0
C310 C 0.05054 0.72745 0.65243 0.0
C311 C 0.97116 0.62449 0.64638 0.0
H312 H 0.03263 0.65642 0.79516 0.0
H313 H 0.96539 0.6754 0.78639 0.0
H314 H 0.03636 0.64385 0.68098 0.0
H315 H 0.06241 0.68047 0.68569 0.0
H316 H 0.05857 0.65646 0.73141 0.0
H317 H 0.95824 0.69551 0.71851 0.0
H318 H 0.98368 0.70643 0.6722 0.0
H319 H 0.95446 0.67102 0.6738 0.0
H320 H 0.05456 0.71698 0.56222 0.0
H321 H 0.98532 0.63161 0.55667 0.0
H322 H 0.06566 0.72502 0.67483 0.0
H323 H 0.03729 0.73251 0.67505 0.0
H324 H 0.0628 0.74553 0.62873 0.0
H325 H 0.98123 0.61705 0.67177 0.0
H326 H 0.9591 0.60722 0.62123 0.0
H327 H 0.95606 0.62866 0.6655 0.0
C328 C 0.32857 0.96535 0.10206 0.0
C329 C 0.32312 0.98056 0.13538 0.0
C330 C 0.32918 0.97161 0.05496 0.0
C331 C 0.32309 0.99286 0.04073 0.0
C332 C 0.31557 0.00686 0.07414 0.0
C333 C 0.31633 1.00101 0.12119 0.0
C334 C 0.33816 0.95676 0.02077 0.0
C335 C 0.30772 0.02872 0.06036 0.0
C336 C 0.35797 0.03086 0.92915 0.0
C337 C 0.33723 0.01462 0.8965 0.0
C338 C 0.35337 0.02444 0.97635 0.0
C339 C 0.32695 1.0019 0.99142 0.0
C340 C 0.30523 0.98675 0.95875 0.0
C341 C 0.31085 0.99285 0.91154 0.0
C342 C 0.37743 0.0406 1.00971 0.0
C343 C 0.2764 0.96344 0.97347 0.0
H344 H 0.33424 0.94983 0.11299 0.0
H345 H 0.31207 0.01278 0.14696 0.0
H346 H 0.322 0.94663 0.99337 0.0
H347 H 0.35815 0.97245 1.00382 0.0
H348 H 0.34154 0.94031 0.03727 0.0
H349 H 0.29822 0.03434 0.08941 0.0
H350 H 0.32685 0.04822 0.04858 0.0
H351 H 0.29252 0.02086 0.03121 0.0
H352 H 0.37851 0.04743 0.91755 0.0
H353 H 0.29477 0.98029 0.88629 0.0
H354 H 0.38342 0.02593 0.02601 0.0
H355 H 0.37078 0.04983 0.03767 0.0
H356 H 0.39641 0.05792 0.99263 0.0
H357 H 0.2778 0.94475 0.98475 0.0
H358 H 0.26071 0.9568 0.94505 0.0
H359 H 0.2686 0.97039 1.00319 0.0
C360 C 0.175 0.45462 1.01218 0.0
C361 C 0.15738 0.43555 0.97832 0.0
C362 C 0.20034 0.45583 0.0253 0.0
C363 C 0.20835 0.43759 1.00401 0.0
C364 C 0.19122 0.41904 0.9686 0.0
C365 C 0.16593 0.41823 0.95619 0.0
C366 C 0.21806 0.47599 0.06304 0.0
C367 C 0.19917 0.3994 0.94481 0.0
C368 C 0.28446 0.45359 1.01166 0.0
C369 C 0.28266 0.43444 0.04567 0.0
C370 C 0.26058 0.45522 0.99836 0.0
C371 C 0.23423 0.43732 0.01963 0.0
C372 C 0.23246 0.41864 0.05512 0.0
C373 C 0.25669 0.41741 0.0677 0.0
C374 C 0.26339 0.47549 0.96054 0.0
C375 C 0.20476 0.39935 0.07887 0.0
H376 H 0.1686 0.4681 0.02953 0.0
H377 H 0.15244 0.4034 0.9301 0.0
H378 H 0.21874 0.46383 0.09319 0.0
H379 H 0.24014 0.48957 0.05108 0.0
H380 H 0.20965 0.48979 0.07447 0.0
H381 H 0.1843 0.38722 0.91653 0.0
H382 H 0.22082 0.41162 0.93035 0.0
H383 H 0.1993 0.38425 0.97017 0.0
H384 H 0.30442 0.46684 0.99438 0.0
H385 H 0.25508 0.40252 0.09391 0.0
H386 H 0.25529 0.48942 0.97246 0.0
H387 H 0.25041 0.46345 0.93045 0.0
H388 H 0.28563 0.48894 0.94905 0.0
H389 H 0.19568 0.41189 0.09338 0.0
H390 H 0.20715 0.38695 0.1071 0.0
H391 H 0.18933 0.3844 0.05347 0.0
C392 C 0.84138 0.25705 0.40933 0.0
C393 C 0.85176 0.28364 0.38862 0.0
C394 C 0.81588 0.23365 0.3945 0.0
C395 C 0.80036 0.23697 0.35826 0.0
C396 C 0.81004 0.26405 0.3388 0.0
C397 C 0.83562 0.28703 0.35415 0.0
C398 C 0.80618 0.20512 0.4163 0.0
C399 C 0.79397 0.26854 0.30045 0.0
C400 C 0.75318 0.17105 0.28797 0.0
C401 C 0.72671 0.16173 0.30837 0.0
C402 C 0.77722 0.1959 0.30314 0.0
C403 C 0.77468 0.21186 0.33944 0.0
C404 C 0.74779 0.20321 0.35876 0.0
C405 C 0.72416 0.17826 0.34305 0.0
C406 C 0.80553 0.2045 0.28149 0.0
C407 C 0.74414 0.21977 0.39717 0.0
H408 H 0.85374 0.25421 0.43584 0.0
H409 H 0.84343 0.30751 0.33799 0.0
H410 H 0.78409 0.19588 0.42866 0.0
H411 H 0.80646 0.19041 0.39021 0.0
H412 H 0.81978 0.20636 0.44574 0.0
H413 H 0.80314 0.29125 0.29148 0.0
H414 H 0.79421 0.25695 0.26922 0.0
H415 H 0.77152 0.25992 0.31039 0.0
H416 H 0.75537 0.15838 0.26129 0.0
H417 H 0.70377 0.17126 0.35899 0.0
H418 H 0.81989 0.20365 0.30772 0.0
H419 H 0.81552 0.22663 0.26894 0.0
H420 H 0.80374 0.1906 0.25221 0.0
H421 H 0.75555 0.21904 0.42834 0.0
H422 H 0.72156 0.21134 0.40626 0.0
H423 H 0.75348 0.24232 0.38723 0.0
C424 C 0.54751 0.82724 0.67616 0.0
C425 C 0.56624 0.84478 0.71044 0.0
C426 C 0.54642 0.80193 0.66326 0.0
C427 C 0.56446 0.79387 0.6852 0.0
C428 C 0.58278 0.81099 0.72085 0.0
C429 C 0.58347 0.83625 0.73303 0.0
C430 C 0.52652 0.78423 0.62524 0.0
C431 C 0.60221 0.80299 0.74528 0.0
C432 C 0.54785 0.71751 0.67876 0.0
C433 C 0.56708 0.71904 0.6452 0.0
C434 C 0.54642 0.74157 0.69154 0.0
C435 C 0.56462 0.76783 0.6702 0.0
C436 C 0.5834 0.76934 0.63518 0.0
C437 C 0.58442 0.74493 0.62311 0.0
C438 C 0.52603 0.73904 0.72887 0.0
C439 C 0.603 0.79694 0.61138 0.0
H440 H 0.53411 0.83363 0.65845 0.0
H441 H 0.59804 0.84968 0.75945 0.0
H442 H 0.53884 0.78327 0.59562 0.0
H443 H 0.51264 0.76222 0.63735 0.0
H444 H 0.51302 0.79282 0.61299 0.0
H445 H 0.61437 0.81797 0.77344 0.0
H446 H 0.58982 0.78142 0.76004 0.0
H447 H 0.61737 0.80259 0.72028 0.0
H448 H 0.53437 0.69761 0.69608 0.0
H449 H 0.59939 0.74633 0.59726 0.0
H450 H 0.51226 0.74721 0.71634 0.0
H451 H 0.53796 0.75213 0.75895 0.0
H452 H 0.51243 0.71686 0.7406 0.0
H453 H 0.5907 0.80614 0.59629 0.0
H454 H 0.6155 0.79435 0.58357 0.0
H455 H 0.61786 0.81238 0.63686 0.0
C456 C 0.75262 0.58788 0.07641 0.0
C457 C 0.72611 0.57068 0.05605 0.0
C458 C 0.77653 0.58664 0.06188 0.0
C459 C 0.77383 0.56764 0.02633 0.0
C460 C 0.74688 0.54927 1.00726 0.0
C461 C 0.72337 0.55106 0.02226 0.0
C462 C 0.80491 0.60652 0.08321 0.0
C463 C 0.74304 0.5285 0.96972 0.0
C464 C 0.84012 0.58803 0.95608 0.0
C465 C 0.85055 0.57202 0.9774 0.0
C466 C 0.81478 0.58626 0.97092 0.0
C467 C 0.79943 0.56793 1.00778 0.0
C468 C 0.80918 0.55077 0.02798 0.0
C469 C 0.83462 0.55306 1.01263 0.0
C470 C 0.80503 0.60485 0.94836 0.0
C471 C 0.79329 0.53074 0.06698 0.0
H472 H 0.75496 0.60316 0.10239 0.0
H473 H 0.70296 0.53762 1.00639 0.0
H474 H 0.81491 0.59448 0.09624 0.0
H475 H 0.81921 0.62146 0.05667 0.0
H476 H 0.80322 0.61894 0.1121 0.0
H477 H 0.72041 0.51418 0.96108 0.0
H478 H 0.75423 0.54017 0.93812 0.0
H479 H 0.75247 0.51547 0.98029 0.0
H480 H 0.85231 0.60279 0.92898 0.0
H481 H 0.84247 0.54055 0.02927 0.0
H482 H 0.80533 0.6201 0.97395 0.0
H483 H 0.78293 0.59185 0.93609 0.0
H484 H 0.81858 0.61691 0.91871 0.0
H485 H 0.79366 0.543 0.09772 0.0
H486 H 0.80251 0.51734 0.07661 0.0
H487 H 0.7708 0.51678 0.05735 0.0
C488 C 0.178 0.72467 0.33968 0.0
C489 C 0.16102 0.72603 0.37478 0.0
C490 C 0.20302 0.74887 0.32569 0.0
C491 C 0.21137 0.7751 0.34737 0.0
C492 C 0.19486 0.77644 0.38389 0.0
C493 C 0.16987 0.7519 0.39714 0.0
C494 C 0.22006 0.74652 0.28675 0.0
C495 C 0.20317 0.80399 0.40812 0.0
C496 C 0.28721 0.83555 0.33778 0.0
C497 C 0.28474 0.85308 0.30488 0.0
C498 C 0.26366 0.80981 0.35117 0.0
C499 C 0.23696 0.80131 0.33111 0.0
C500 C 0.23454 0.81832 0.29652 0.0
C501 C 0.25845 0.84401 0.28383 0.0
C502 C 0.26717 0.79224 0.38801 0.0
C503 C 0.20646 0.80986 0.27403 0.0
H504 H 0.17135 0.7048 0.32213 0.0
H505 H 0.15688 0.75318 0.42419 0.0
H506 H 0.22023 0.75943 0.25708 0.0
H507 H 0.24234 0.75498 0.29763 0.0
H508 H 0.21145 0.72434 0.27498 0.0
H509 H 0.18875 0.80127 0.43711 0.0
H510 H 0.22504 0.81339 0.42169 0.0
H511 H 0.20293 0.81933 0.38325 0.0
H512 H 0.30742 0.84235 0.3543 0.0
H513 H 0.25632 0.85742 0.25849 0.0
H514 H 0.25877 0.77022 0.37578 0.0
H515 H 0.25482 0.7913 0.41898 0.0
H516 H 0.28962 0.80097 0.39826 0.0
H517 H 0.19716 0.78823 0.25948 0.0
H518 H 0.2084 0.82462 0.24605 0.0
H519 H 0.19145 0.80941 0.30023 0.0
C520 C 0.44843 0.16518 0.68323 0.0
C521 C 0.42912 0.14947 0.71819 0.0
C522 C 0.45138 0.1909 0.6677 0.0
C523 C 0.43457 0.20117 0.68748 0.0
C524 C 0.41602 0.18611 0.72427 0.0
C525 C 0.41357 0.16047 0.73926 0.0
C526 C 0.47162 0.20646 0.62879 0.0
C527 C 0.39781 0.19642 0.74644 0.0
C528 C 0.45243 0.2775 0.67157 0.0
C529 C 0.4329 0.27485 0.63762 0.0
C530 C 0.45389 0.25388 0.68707 0.0
C531 C 0.43528 0.22689 0.66834 0.0
C532 C 0.4164 0.22426 0.6326 0.0
C533 C 0.41549 0.24829 0.61758 0.0
C534 C 0.47455 0.25764 0.72481 0.0
C535 C 0.39629 0.19585 0.61158 0.0
H536 H 0.46059 0.1569 0.66676 0.0
H537 H 0.39854 0.14846 0.76615 0.0
H538 H 0.45953 0.206 0.59772 0.0
H539 H 0.48569 0.22899 0.63807 0.0
H540 H 0.48489 0.19699 0.61982 0.0
H541 H 0.3857 0.18317 0.77631 0.0
H542 H 0.41108 0.21859 0.75826 0.0
H543 H 0.38263 0.19618 0.72073 0.0
H544 H 0.46604 0.29796 0.6872 0.0
H545 H 0.40028 0.24601 0.59147 0.0
H546 H 0.48728 0.24781 0.7147 0.0
H547 H 0.46279 0.24678 0.75653 0.0
H548 H 0.48913 0.28028 0.73303 0.0
H549 H 0.40811 0.18554 0.59896 0.0
H550 H 0.38402 0.19759 0.58246 0.0
H551 H 0.38123 0.18179 0.6382 0.0
C552 C 0.32837 0.32576 0.73464 0.0
C553 C 0.35225 0.32308 0.72656 0.0
C554 C 0.32012 0.32753 0.77992 0.0
C555 C 0.33646 0.32713 0.81763 0.0
C556 C 0.35902 0.32196 0.80965 0.0
C557 C 0.36641 0.3197 0.76435 0.0
C558 C 0.29528 0.33201 0.78718 0.0
C559 C 0.3773 0.32172 0.84859 0.0
C560 C 0.34996 0.37708 0.91691 0.0
C561 C 0.33563 0.35851 0.95336 0.0
C562 C 0.34964 0.36705 0.87249 0.0
C563 C 0.33395 0.33762 0.86373 0.0
C564 C 0.31848 0.31871 0.89993 0.0
C565 C 0.3199 0.32936 0.9447 0.0
C566 C 0.36708 0.388 0.83536 0.0
C567 C 0.30083 0.2873 0.89152 0.0
H568 H 0.31701 0.32795 0.70574 0.0
H569 H 0.38454 0.31702 0.75867 0.0
H570 H 0.2827 0.31992 0.81755 0.0
H571 H 0.30308 0.35474 0.79386 0.0
H572 H 0.28126 0.32557 0.75646 0.0
H573 H 0.39169 0.314 0.83728 0.0
H574 H 0.39037 0.34352 0.8622 0.0
H575 H 0.36412 0.30823 0.87735 0.0
H576 H 0.36229 0.39963 0.92343 0.0
H577 H 0.30853 0.31498 0.97271 0.0
H578 H 0.35346 0.3862 0.80569 0.0
H579 H 0.38342 0.38327 0.82254 0.0
H580 H 0.37784 0.41021 0.84785 0.0
H581 H 0.28767 0.28308 0.86015 0.0
H582 H 0.28678 0.27606 0.92116 0.0
H583 H 0.31484 0.27832 0.88559 0.0
C584 C 0.00604 0.32868 0.29136 0.0
C585 C 0.97945 0.32583 0.2999 0.0
C586 C 0.01556 0.3299 0.24589 0.0
C587 C 0.99829 0.32876 0.20849 0.0
C588 C 0.97046 0.32314 0.21704 0.0
C589 C 0.96133 0.32146 0.26254 0.0
C590 C 0.04498 0.3348 0.23803 0.0
C591 C 0.95134 0.32202 0.17843 0.0
C592 C 0.0334 0.37878 0.10883 0.0
C593 C 0.02948 0.36029 0.07245 0.0
C594 C 0.02397 0.3687 0.15332 0.0
C595 C 0.01086 0.33931 0.1622 0.0
C596 C 0.00773 0.3205 0.12602 0.0
C597 C 0.01664 0.33119 0.08118 0.0
C598 C 0.02715 0.38954 0.19043 0.0
C599 C 0.99463 0.28915 0.13451 0.0
H600 H 0.02002 0.33158 0.31995 0.0
H601 H 0.94045 0.31856 0.26867 0.0
H602 H 0.04543 0.32259 0.20779 0.0
H603 H 0.05956 0.35754 0.23082 0.0
H604 H 0.05301 0.32879 0.26869 0.0
H605 H 0.92923 0.31376 0.19021 0.0
H606 H 0.95935 0.34364 0.16446 0.0
H607 H 0.95125 0.30855 0.1498 0.0
H608 H 0.04317 0.4013 0.10223 0.0
H609 H 0.01387 0.31688 0.05318 0.0
H610 H 0.03942 0.38821 0.21983 0.0
H611 H 0.00602 0.38429 0.20369 0.0
H612 H 0.03799 0.41172 0.17776 0.0
H613 H 0.00329 0.28518 0.16646 0.0
H614 H 0.99833 0.27825 0.1053 0.0
H615 H 0.97149 0.27961 0.1393 0.0
C616 C 0.61949 0.97152 0.58394 0.0
C617 C 0.63836 0.97593 0.62002 0.0
C618 C 0.62918 0.98174 0.53957 0.0
C619 C 0.65857 0.99617 0.53042 0.0
C620 C 0.6778 0.99987 0.56628 0.0
C621 C 0.66748 0.99013 0.61105 0.0
C622 C 0.60787 0.97798 0.5029 0.0
C623 C 0.7092 0.01436 0.55744 0.0
C624 C 0.67069 0.00382 0.40119 0.0
C625 C 0.6732 0.03038 0.39371 0.0
C626 C 0.6687 0.99333 0.44624 0.0
C627 C 0.66864 0.00954 0.48438 0.0
C628 C 0.67331 0.03716 0.47705 0.0
C629 C 0.67584 0.04731 0.432 0.0
C630 C 0.66474 0.96415 0.45281 0.0
C631 C 0.67294 0.05509 0.51642 0.0
H632 H 0.59695 0.9607 0.59075 0.0
H633 H 0.68208 0.99328 0.63878 0.0
H634 H 0.61205 0.99898 0.49059 0.0
H635 H 0.60987 0.96658 0.47283 0.0
H636 H 0.58575 0.96602 0.51564 0.0
H637 H 0.7209 0.01223 0.58708 0.0
H638 H 0.71357 0.00541 0.52626 0.0
H639 H 0.71753 0.03719 0.55087 0.0
H640 H 0.66906 0.99073 0.37196 0.0
H641 H 0.67828 0.06809 0.42687 0.0
H642 H 0.64211 0.94891 0.4597 0.0
H643 H 0.67709 0.96369 0.48286 0.0
H644 H 0.67121 0.95691 0.42174 0.0
H645 H 0.6511 0.04567 0.53017 0.0
H646 H 0.68 0.07717 0.50558 0.0
H647 H 0.68669 0.05566 0.54499 0.0
C648 C 0.67144 0.68374 0.74816 0.0
C649 C 0.6425 0.66638 0.73915 0.0
C650 C 0.68221 0.68564 0.793 0.0
C651 C 0.6637 0.66905 0.82887 0.0
C652 C 0.63449 0.65156 0.81966 0.0
C653 C 0.62428 0.65075 0.77519 0.0
C654 C 0.7133 0.70515 0.80194 0.0
C655 C 0.61402 0.63292 0.85644 0.0
C656 C 0.68403 0.6394 0.92935 0.0
C657 C 0.67877 0.65248 0.96671 0.0
C658 C 0.68174 0.64648 0.88383 0.0
C659 C 0.67454 0.6676 0.87526 0.0
C660 C 0.67233 0.6831 0.91265 0.0
C661 C 0.67424 0.6752 0.95813 0.0
C662 C 0.684 0.62914 0.84524 0.0
C663 C 0.66559 0.70643 0.90481 0.0
H664 H 0.6855 0.69609 0.72042 0.0
H665 H 0.6019 0.63717 0.76832 0.0
H666 H 0.71625 0.71884 0.83213 0.0
H667 H 0.72359 0.69259 0.8103 0.0
H668 H 0.72425 0.7188 0.77175 0.0
H669 H 0.59196 0.62061 0.8435 0.0
H670 H 0.62043 0.61783 0.86953 0.0
H671 H 0.61439 0.64595 0.886 0.0
H672 H 0.68819 0.62221 0.93551 0.0
H673 H 0.67057 0.68573 0.98672 0.0
H674 H 0.69682 0.64288 0.81641 0.0
H675 H 0.66255 0.61446 0.83158 0.0
H676 H 0.69357 0.6164 0.85698 0.0
H677 H 0.67728 0.71948 0.87455 0.0
H678 H 0.67085 0.72036 0.93546 0.0
H679 H 0.64266 0.69701 0.89764 0.0
C680 C 0.03065 0.65261 0.25368 0.0
C681 C 0.03057 0.67024 0.28865 0.0
C682 C 0.02103 0.65331 0.20933 0.0
C683 C 0.01173 0.67272 0.19911 0.0
C684 C 0.01199 0.69099 0.23409 0.0
C685 C 0.02104 0.68924 0.27887 0.0
C686 C 0.02037 0.63282 0.17362 0.0
C687 C 0.00301 0.71248 0.22403 0.0
C688 C 0.00896 0.67818 0.06951 0.0
C689 C 0.98099 0.657 0.06087 0.0
C690 C 0.01874 0.68602 0.115 0.0
C691 C 1.00018 0.67207 0.15237 0.0
C692 C 0.9713 0.65282 0.14358 0.0
C693 C 0.96205 0.64572 0.098 0.0
C694 C 0.0495 0.70732 0.12302 0.0
C695 C 0.95074 0.63725 0.18215 0.0
H696 H 0.03785 0.63778 0.26129 0.0
H697 H 0.02134 0.70312 0.30582 0.0
H698 H 0.99846 0.61932 0.16074 0.0
H699 H 0.03374 0.64458 0.14372 0.0
H700 H 0.02802 0.61885 0.18747 0.0
H701 H 0.00457 0.72522 0.25488 0.0
H702 H 0.01649 0.72697 0.19634 0.0
H703 H 0.9809 0.70178 0.21128 0.0
H704 H 0.02366 0.68731 0.04106 0.0
H705 H 0.9402 0.62979 0.0917 0.0
H706 H 0.06111 0.69604 0.13153 0.0
H707 H 0.052 0.72132 0.1525 0.0
H708 H 0.05941 0.72055 0.09199 0.0
H709 H 0.95511 0.62094 0.19636 0.0
H710 H 0.92843 0.62657 0.17014 0.0
H711 H 0.95324 0.65184 0.21064 0.0
C712 C 0.34542 0.97558 0.43867 0.0
C713 C 0.32916 0.97692 0.4024 0.0
C714 C 0.3435 0.98424 0.48315 0.0
C715 C 0.32427 0.99392 0.49216 0.0
C716 C 0.3071 0.99458 0.45605 0.0
C717 C 0.31005 0.98645 0.41122 0.0
C718 C 0.36278 0.9838 0.5202 0.0
C719 C 0.28577 0.00394 0.46479 0.0
C720 C 0.31749 0.99593 0.62137 0.0
C721 C 0.33942 0.02347 0.63062 0.0
C722 C 0.30967 0.98668 0.57565 0.0
C723 C 0.32439 0.00535 0.53876 0.0
C724 C 0.34421 0.034 0.54824 0.0
C725 C 0.35132 0.04272 0.59403 0.0
C726 C 0.28774 0.9562 0.56692 0.0
C727 C 0.36055 0.0547 0.51022 0.0
H728 H 0.36036 0.96841 0.432 0.0
H729 H 0.29723 0.98719 0.38331 0.0
H730 H 0.37653 0.0055 0.53376 0.0
H731 H 0.35009 0.97035 0.54942 0.0
H732 H 0.37651 0.97564 0.50737 0.0
H733 H 0.27281 1.00155 0.43378 0.0
H734 H 0.27149 0.9914 0.49337 0.0
H735 H 0.29673 0.02643 0.47563 0.0
H736 H 0.30789 0.98102 0.64945 0.0
H737 H 0.36782 0.06427 0.60093 0.0
H738 H 0.29847 0.94391 0.55963 0.0
H739 H 0.27455 0.95428 0.53653 0.0
H740 H 0.27376 0.94658 0.59729 0.0
H741 H 0.37677 0.05001 0.49664 0.0
H742 H 0.37146 0.07694 0.52264 0.0
H743 H 0.34647 0.05272 0.48121 0.0
C744 C 0.44561 0.45067 0.13566 0.0
C745 C 0.42958 0.4577 0.10636 0.0
C746 C 0.47498 0.46844 0.1398 0.0
C747 C 0.48875 0.49346 0.11308 0.0
C748 C 0.47259 0.5009 0.08406 0.0
C749 C 0.44315 0.4831 0.08149 0.0
C750 C 0.49134 0.46018 0.17209 0.0
C751 C 0.48653 0.52715 0.05443 0.0
C752 C 0.56254 0.55321 0.14195 0.0
C753 C 0.57926 0.54806 0.11119 0.0
C754 C 0.53318 0.53497 0.14428 0.0
C755 C 0.52013 0.51144 0.11424 0.0
C756 C 0.537 0.50578 0.08382 0.0
C757 C 0.56643 0.52398 0.08308 0.0
C758 C 0.51605 0.54128 0.17809 0.0
C759 C 0.52384 0.48117 0.05068 0.0
H760 H 0.43517 0.43112 0.15516 0.0
H761 H 0.43089 0.48848 0.05848 0.0
H762 H 0.50585 0.45557 0.15204 0.0
H763 H 0.50454 0.47796 0.1957 0.0
H764 H 0.47724 0.44124 0.19302 0.0
H765 H 0.47095 0.53012 0.03412 0.0
H766 H 0.49889 0.54614 0.07622 0.0
H767 H 0.50156 0.52583 0.03025 0.0
H768 H 0.57242 0.57173 0.16398 0.0
H769 H 0.57925 0.52006 0.05897 0.0
H770 H 0.50232 0.52221 0.19893 0.0
H771 H 0.502 0.54706 0.15915 0.0
H772 H 0.52963 0.55891 0.20177 0.0
H773 H 0.5109 0.46111 0.06972 0.0
H774 H 0.53994 0.47926 0.03006 0.0
H775 H 0.50946 0.48381 0.02673 0.0
C776 C 0.05125 0.56467 0.41403 0.0
C777 C 0.03998 0.57832 0.44009 0.0
C778 C 0.03956 0.5352 0.4164 0.0
C779 C 0.01652 0.51911 0.4464 0.0
C780 C 0.00594 0.53297 0.47439 0.0
C781 C 0.01756 0.56237 0.47045 0.0
C782 C 0.05113 0.52116 0.38542 0.0
C783 C 0.98195 0.51669 0.50773 0.0
C784 C 0.96792 0.44159 0.41663 0.0
C785 C 0.97927 0.42838 0.44364 0.0
C786 C 0.97966 0.47111 0.41758 0.0
C787 C 0.00284 0.48769 0.44709 0.0
C788 C 0.01356 0.47429 0.47593 0.0
C789 C 1.00189 0.44484 0.47342 0.0
C790 C 0.96792 0.48463 0.38573 0.0
C791 C 0.03773 0.49112 0.50876 0.0
H792 H 0.0684 0.57687 0.39021 0.0
H793 H 0.00888 0.57287 0.49085 0.0
H794 H 0.05783 0.50847 0.40621 0.0
H795 H 0.03433 0.5064 0.36154 0.0
H796 H 0.06946 0.53672 0.36471 0.0
H797 H 0.97777 0.53086 0.52971 0.0
H798 H 0.96237 0.50243 0.48842 0.0
H799 H 0.98676 0.50321 0.53031 0.0
H800 H 0.9506 0.42899 0.39329 0.0
H801 H 0.01061 0.43468 0.49461 0.0
H802 H 0.98463 0.49907 0.36144 0.0
H803 H 0.96124 0.49758 0.4058 0.0
H804 H 0.94955 0.46874 0.36547 0.0
H805 H 0.05719 0.50515 0.48902 0.0
H806 H 0.0421 0.47732 0.53141 0.0
H807 H 0.03298 0.50487 0.53069 0.0
C808 C 0.5407 0.98534 0.80089 0.0
C809 C 0.53561 0.96315 0.77088 0.0
C810 C 0.52171 0.99556 0.80389 0.0
C811 C 0.49747 0.98382 0.77525 0.0
C812 C 0.49189 0.96096 0.74566 0.0
C813 C 0.51086 0.95065 0.74428 0.0
C814 C 0.528 0.01942 0.8368 0.0
C815 C 0.46657 0.94822 0.71394 0.0
C816 C 0.43597 0.99609 0.79936 0.0
C817 C 0.44198 0.01873 0.76972 0.0
C818 C 0.45426 0.98502 0.80254 0.0
C819 C 0.4787 0.99635 0.77445 0.0
C820 C 0.48493 0.01931 0.74464 0.0
C821 C 0.46668 0.03048 0.74311 0.0
C822 C 0.44732 0.96108 0.83568 0.0
C823 C 0.51047 0.03162 0.71345 0.0
H824 H 0.55975 0.99495 0.82172 0.0
H825 H 0.50698 0.93368 0.72072 0.0
H826 H 0.53285 0.03875 0.8171 0.0
H827 H 0.50921 0.01394 0.85847 0.0
H828 H 0.54622 0.02437 0.8597 0.0
H829 H 0.46476 0.93 0.69406 0.0
H830 H 0.44685 0.94101 0.73399 0.0
H831 H 0.46818 0.96452 0.68929 0.0
H832 H 0.41698 0.98708 0.82025 0.0
H833 H 0.47128 0.04782 0.71989 0.0
H834 H 0.46557 0.96673 0.85884 0.0
H835 H 0.44328 0.9419 0.81634 0.0
H836 H 0.42846 0.95582 0.85708 0.0
H837 H 0.53004 0.03945 0.7342 0.0
H838 H 0.51225 0.04935 0.69211 0.0
H839 H 0.50928 0.01493 0.69016 0.0
C840 C 0.51876 0.5579 0.61062 0.0
C841 C 0.5441 0.57186 0.58572 0.0
C842 C 0.50133 0.52839 0.60794 0.0
C843 C 0.50908 0.51258 0.57875 0.0
C844 C 0.53402 0.52674 0.55198 0.0
C845 C 0.55143 0.55616 0.55626 0.0
C846 C 0.47516 0.51404 0.63763 0.0
C847 C 0.54259 0.51075 0.51949 0.0
C848 C 0.47966 0.43496 0.60851 0.0
C849 C 0.45551 0.42188 0.58057 0.0
C850 C 0.49755 0.46446 0.60775 0.0
C851 C 0.49151 0.48115 0.57747 0.0
C852 C 0.46793 0.46786 0.54754 0.0
C853 C 0.45 0.43843 0.54989 0.0
C854 C 0.52221 0.47787 0.64077 0.0
C855 C 0.46122 0.48479 0.51386 0.0
H856 H 0.51315 0.5699 0.63375 0.0
H857 H 0.57094 0.5669 0.53673 0.0
H858 H 0.45619 0.50151 0.61587 0.0
H859 H 0.47679 0.49909 0.66166 0.0
H860 H 0.47193 0.52939 0.65811 0.0
H861 H 0.56139 0.52511 0.49853 0.0
H862 H 0.54754 0.4964 0.53938 0.0
H863 H 0.52485 0.49738 0.49591 0.0
H864 H 0.48385 0.42228 0.63256 0.0
H865 H 0.43143 0.42837 0.528 0.0
H866 H 0.51934 0.49201 0.66489 0.0
H867 H 0.54216 0.49111 0.62167 0.0
H868 H 0.52448 0.4619 0.6612 0.0
H869 H 0.45512 0.49853 0.53293 0.0
H870 H 0.44368 0.47105 0.49015 0.0
H871 H 0.48019 0.49882 0.49307 0.0
C872 C 0.9959 0.55502 0.88701 0.0
C873 C 0.97469 0.55038 0.91886 0.0
C874 C 0.00686 0.53663 0.88435 0.0
C875 C 0.99688 0.51346 0.9151 0.0
C876 C 0.97502 0.50832 0.94667 0.0
C877 C 0.96393 0.52666 0.94777 0.0
C878 C 0.02957 0.54239 0.84935 0.0
C879 C 0.96414 0.48412 0.98056 0.0
C880 C 0.00992 0.45226 0.89307 0.0
C881 C 0.03355 0.4595 0.92106 0.0
C882 C 0.99828 0.47005 0.88962 0.0
C883 C 0.01013 0.49533 0.9157 0.0
C884 C 0.03428 0.50298 0.94342 0.0
C885 C 0.04591 0.48513 0.94532 0.0
C886 C 0.97302 0.46154 0.85872 0.0
C887 C 0.04727 0.52954 0.97232 0.0
H888 H 0.00415 0.57324 0.86436 0.0
H889 H 0.94771 0.52313 0.9727 0.0
H890 H 0.0497 0.54819 0.86727 0.0
H891 H 0.02367 0.52306 0.82886 0.0
H892 H 0.03329 0.55982 0.82542 0.0
H893 H 0.9466 0.48258 1.00208 0.0
H894 H 0.95654 0.46381 0.96205 0.0
H895 H 0.98158 0.48693 1.00363 0.0
H896 H 1.00038 0.43253 0.87403 0.0
H897 H 0.064 0.49069 0.96733 0.0
H898 H 0.9772 0.47904 0.83473 0.0
H899 H 0.95439 0.45734 0.87981 0.0
H900 H 0.96762 0.4423 0.83823 0.0
H901 H 0.05355 0.54831 0.95014 0.0
H902 H 0.06615 0.5326 0.9917 0.0
H903 H 0.03143 0.52858 0.99731 0.0
C904 C 0.56232 0.02198 0.21337 0.0
C905 C 0.57915 0.04245 0.24606 0.0
C906 C 0.53311 0.01174 0.21074 0.0
C907 C 0.52032 0.02159 0.24251 0.0
C908 C 0.53737 0.0429 0.27469 0.0
C909 C 0.56668 0.05337 0.27564 0.0
C910 C 0.51582 0.98965 0.17505 0.0
C911 C 0.52448 0.05354 0.30977 0.0
C912 C 0.4454 0.00772 0.22441 0.0
C913 C 0.42966 0.98341 0.25128 0.0
C914 C 0.47487 0.01999 0.22014 0.0
C915 C 0.48896 0.00812 0.24443 0.0
C916 C 0.47311 0.98349 0.27144 0.0
C917 C 0.44362 0.97122 0.27401 0.0
C918 C 0.49093 0.04572 0.18993 0.0
C919 C 0.48737 0.9705 0.29863 0.0
H920 H 0.57196 0.01364 0.19022 0.0
H921 H 0.5796 0.06901 0.30123 0.0
H922 H 0.50202 0.9691 0.19224 0.0
H923 H 0.50186 0.99565 0.15632 0.0
H924 H 0.52932 0.98667 0.14963 0.0
H925 H 0.54075 0.07116 0.33085 0.0
H926 H 0.51122 0.06092 0.29244 0.0
H927 H 0.51046 0.03599 0.33318 0.0
H928 H 0.43464 0.01711 0.20657 0.0
H929 H 0.43157 0.95258 0.29518 0.0
H930 H 0.50378 0.04193 0.16438 0.0
H931 H 0.50577 0.06409 0.21119 0.0
H932 H 0.47666 0.05134 0.1712 0.0
H933 H 0.4993 0.96423 0.27512 0.0
H934 H 0.47204 0.95157 0.31844 0.0
H935 H 0.50284 0.9863 0.32307 0.0
loop_
_geom_bond_atom_site_label_1
_geom_bond_atom_site_label_2
_geom_bond_distance
_geom_bond_site_symmetry_2
_ccdc_geom_bond_type
O0 Cd1 2.223 1_556 S
O0 C8 1.315 . S
Cd1 O0 2.223 1_554 S
Cd1 O4 2.293 1_554 S
Cd1 O5 2.439 . S
Cd1 O11 2.240 . S
Cd2 O3 2.240 . S
Cd2 O10 2.223 . S
Cd2 O12 2.297 . S
Cd2 O13 2.439 . S
O3 Cd2 2.240 . S
O3 C8 1.279 1_554 S
O4 Cd1 2.293 1_556 S
O4 C6 1.238 1_556 S
O5 Cd1 2.439 . S
O5 C6 1.208 . S
C6 O4 1.238 1_554 S
C6 O5 1.208 . S
C7 O12 1.247 . S
C7 O13 1.208 . S
C8 O0 1.315 . S
C8 O3 1.279 1_556 S
C9 O10 1.315 . S
C9 O11 1.279 . S
O10 Cd2 2.223 . S
O10 C9 1.315 . S
O11 Cd1 2.240 . S
O11 C9 1.279 . S
O12 Cd2 2.297 . S
O12 C7 1.247 . S
O13 Cd2 2.439 . S
O13 C7 1.208 . S
O14 Cd15 2.223 . S
O14 C22 1.315 . S
Cd15 O14 2.223 . S
Cd15 O18 2.297 . S
Cd15 O19 2.439 . S
Cd15 O25 2.240 . S
Cd16 O17 2.240 . S
Cd16 O24 2.229 1_655 S
Cd16 O26 2.297 1_655 S
Cd16 O27 2.439 . S
O17 Cd16 2.240 . S
O17 C22 1.279 . S
O18 Cd15 2.297 . S
O18 C20 1.247 . S
O19 Cd15 2.439 . S
O19 C20 1.208 . S
C20 O18 1.247 . S
C20 O19 1.208 . S
C21 O26 1.247 1_655 S
C21 O27 1.208 . S
C22 O14 1.315 . S
C22 O17 1.279 . S
C23 O24 1.299 1_655 S
C23 O25 1.279 . S
O24 Cd16 2.229 1_455 S
O24 C23 1.299 1_455 S
O25 Cd15 2.240 . S
O25 C23 1.279 . S
O26 Cd16 2.297 1_455 S
O26 C21 1.247 1_455 S
O27 Cd16 2.439 . S
O27 C21 1.208 . S
O28 Cd29 2.223 . S
O28 C36 1.315 . S
Cd29 O28 2.223 . S
Cd29 O32 2.297 . S
Cd29 O33 2.439 . S
Cd29 O39 2.240 . S
Cd30 O31 2.240 . S
Cd30 O38 2.214 1_565 S
Cd30 O40 2.297 1_565 S
Cd30 O41 2.439 . S
O31 Cd30 2.240 . S
O31 C36 1.279 . S
O32 Cd29 2.297 . S
O32 C34 1.247 . S
O33 Cd29 2.439 . S
O33 C34 1.208 . S
C34 O32 1.247 . S
C34 O33 1.208 . S
C35 O40 1.247 1_565 S
C35 O41 1.208 . S
C36 O28 1.315 . S
C36 O31 1.279 . S
C37 O38 1.306 1_565 S
C37 O39 1.279 . S
O38 Cd30 2.214 1_545 S
O38 C37 1.306 1_545 S
O39 Cd29 2.240 . S
O39 C37 1.279 . S
O40 Cd30 2.297 1_545 S
O40 C35 1.247 1_545 S
O41 Cd30 2.439 . S
O41 C35 1.208 . S
O42 Cd43 2.223 1_556 S
O42 C50 1.315 . S
Cd43 O42 2.223 1_554 S
Cd43 O46 2.293 1_554 S
Cd43 O47 2.439 . S
Cd43 O53 2.240 . S
Cd44 O45 2.240 . S
Cd44 O52 2.223 . S
Cd44 O54 2.297 . S
Cd44 O55 2.439 . S
O45 Cd44 2.240 . S
O45 C50 1.279 1_554 S
O46 Cd43 2.293 1_556 S
O46 C48 1.238 1_556 S
O47 Cd43 2.439 . S
O47 C48 1.208 . S
C48 O46 1.238 1_554 S
C48 O47 1.208 . S
C49 O54 1.247 . S
C49 O55 1.208 . S
C50 O42 1.315 . S
C50 O45 1.279 1_556 S
C51 O52 1.315 . S
C51 O53 1.279 . S
O52 Cd44 2.223 . S
O52 C51 1.315 . S
O53 Cd43 2.240 . S
O53 C51 1.279 . S
O54 Cd44 2.297 . S
O54 C49 1.247 . S
O55 Cd44 2.439 . S
O55 C49 1.208 . S
O56 Cd57 2.223 . S
O56 C64 1.315 . S
Cd57 O56 2.223 . S
Cd57 O60 2.297 . S
Cd57 O61 2.439 . S
Cd57 O67 2.240 . S
Cd58 O59 2.240 . S
Cd58 O66 2.229 1_455 S
Cd58 O68 2.297 1_455 S
Cd58 O69 2.439 . S
O59 Cd58 2.240 . S
O59 C64 1.279 . S
O60 Cd57 2.297 . S
O60 C62 1.247 . S
O61 Cd57 2.439 . S
O61 C62 1.208 . S
C62 O60 1.247 . S
C62 O61 1.208 . S
C63 O68 1.247 1_455 S
C63 O69 1.208 . S
C64 O56 1.315 . S
C64 O59 1.279 . S
C65 O66 1.299 1_455 S
C65 O67 1.279 . S
O66 Cd58 2.229 1_655 S
O66 C65 1.299 1_655 S
O67 Cd57 2.240 . S
O67 C65 1.279 . S
O68 Cd58 2.297 1_655 S
O68 C63 1.247 1_655 S
O69 Cd58 2.439 . S
O69 C63 1.208 . S
O70 Cd71 2.223 . S
O70 C78 1.315 . S
Cd71 O70 2.223 . S
Cd71 O74 2.297 . S
Cd71 O75 2.439 . S
Cd71 O81 2.240 . S
Cd72 O73 2.240 . S
Cd72 O80 2.214 1_545 S
Cd72 O82 2.297 1_545 S
Cd72 O83 2.439 . S
O73 Cd72 2.240 . S
O73 C78 1.279 . S
O74 Cd71 2.297 . S
O74 C76 1.247 . S
O75 Cd71 2.439 . S
O75 C76 1.208 . S
C76 O74 1.247 . S
C76 O75 1.208 . S
C77 O82 1.247 1_545 S
C77 O83 1.208 . S
C78 O70 1.315 . S
C78 O73 1.279 . S
C79 O80 1.306 1_545 S
C79 O81 1.279 . S
O80 Cd72 2.214 1_565 S
O80 C79 1.306 1_565 S
O81 Cd71 2.240 . S
O81 C79 1.279 . S
O82 Cd72 2.297 1_565 S
O82 C77 1.247 1_565 S
O83 Cd72 2.439 . S
O83 C77 1.208 . S
O84 Cd85 2.223 . S
O84 C92 1.315 . S
Cd85 O84 2.223 . S
Cd85 O88 2.297 . S
Cd85 O89 2.439 . S
Cd85 O95 2.240 . S
Cd86 O87 2.240 . S
Cd86 O94 2.223 . S
Cd86 O96 2.297 . S
Cd86 O97 2.439 . S
O87 Cd86 2.240 . S
O87 C92 1.279 . S
O88 Cd85 2.297 . S
O88 C90 1.247 . S
O89 Cd85 2.439 . S
O89 C90 1.208 . S
C90 O88 1.247 . S
C90 O89 1.208 . S
C91 O96 1.247 . S
C91 O97 1.208 . S
C92 O84 1.315 . S
C92 O87 1.279 . S
C93 O94 1.315 . S
C93 O95 1.279 . S
O94 Cd86 2.223 . S
O94 C93 1.315 . S
O95 Cd85 2.240 . S
O95 C93 1.279 . S
O96 Cd86 2.297 . S
O96 C91 1.247 . S
O97 Cd86 2.439 . S
O97 C91 1.208 . S
O98 Cd99 2.223 1_554 S
O98 C106 1.315 . S
Cd99 O98 2.223 1_556 S
Cd99 O102 2.293 1_556 S
Cd99 O103 2.439 . S
Cd99 O109 2.240 . S
Cd100 O101 2.240 . S
Cd100 O108 2.214 1_655 S
Cd100 O110 2.297 1_655 S
Cd100 O111 2.439 . S
O101 Cd100 2.240 . S
O101 C106 1.279 1_556 S
O102 Cd99 2.293 1_554 S
O102 C104 1.238 1_554 S
O103 Cd99 2.439 . S
O103 C104 1.208 . S
C104 O102 1.238 1_556 S
C104 O103 1.208 . S
C105 O110 1.247 1_655 S
C105 O111 1.208 . S
C106 O98 1.315 . S
C106 O101 1.279 1_554 S
C107 O108 1.306 1_655 S
C107 O109 1.279 . S
O108 Cd100 2.214 1_455 S
O108 C107 1.306 1_455 S
O109 Cd99 2.240 . S
O109 C107 1.279 . S
O110 Cd100 2.297 1_455 S
O110 C105 1.247 1_455 S
O111 Cd100 2.439 . S
O111 C105 1.208 . S
O112 Cd113 2.223 . S
O112 C120 1.315 . S
Cd113 O112 2.223 . S
Cd113 O116 2.297 . S
Cd113 O117 2.439 . S
Cd113 O123 2.240 . S
Cd114 O115 2.240 . S
Cd114 O122 2.229 1_565 S
Cd114 O124 2.297 1_565 S
Cd114 O125 2.439 . S
O115 Cd114 2.240 . S
O115 C120 1.279 . S
O116 Cd113 2.297 . S
O116 C118 1.247 . S
O117 Cd113 2.439 . S
O117 C118 1.208 . S
C118 O116 1.247 . S
C118 O117 1.208 . S
C119 O124 1.247 1_565 S
C119 O125 1.208 . S
C120 O112 1.315 . S
C120 O115 1.279 . S
C121 O122 1.299 1_565 S
C121 O123 1.279 . S
O122 Cd114 2.229 1_545 S
O122 C121 1.299 1_545 S
O123 Cd113 2.240 . S
O123 C121 1.279 . S
O124 Cd114 2.297 1_545 S
O124 C119 1.247 1_545 S
O125 Cd114 2.439 . S
O125 C119 1.208 . S
O126 Cd127 2.223 . S
O126 C134 1.315 . S
Cd127 O126 2.223 . S
Cd127 O130 2.297 . S
Cd127 O131 2.439 . S
Cd127 O137 2.240 . S
Cd128 O129 2.240 . S
Cd128 O136 2.223 . S
Cd128 O138 2.297 . S
Cd128 O139 2.439 . S
O129 Cd128 2.240 . S
O129 C134 1.279 . S
O130 Cd127 2.297 . S
O130 C132 1.247 . S
O131 Cd127 2.439 . S
O131 C132 1.208 . S
C132 O130 1.247 . S
C132 O131 1.208 . S
C133 O138 1.247 . S
C133 O139 1.208 . S
C134 O126 1.315 . S
C134 O129 1.279 . S
C135 O136 1.315 . S
C135 O137 1.279 . S
O136 Cd128 2.223 . S
O136 C135 1.315 . S
O137 Cd127 2.240 . S
O137 C135 1.279 . S
O138 Cd128 2.297 . S
O138 C133 1.247 . S
O139 Cd128 2.439 . S
O139 C133 1.208 . S
O140 Cd141 2.223 1_554 S
O140 C148 1.315 . S
Cd141 O140 2.223 1_556 S
Cd141 O144 2.293 1_556 S
Cd141 O145 2.439 . S
Cd141 O151 2.240 . S
Cd142 O143 2.240 . S
Cd142 O150 2.214 1_455 S
Cd142 O152 2.297 1_455 S
Cd142 O153 2.439 . S
O143 Cd142 2.240 . S
O143 C148 1.279 1_556 S
O144 Cd141 2.293 1_554 S
O144 C146 1.238 1_554 S
O145 Cd141 2.439 . S
O145 C146 1.208 . S
C146 O144 1.238 1_556 S
C146 O145 1.208 . S
C147 O152 1.247 1_455 S
C147 O153 1.208 . S
C148 O140 1.315 . S
C148 O143 1.279 1_554 S
C149 O150 1.306 1_455 S
C149 O151 1.279 . S
O150 Cd142 2.214 1_655 S
O150 C149 1.306 1_655 S
O151 Cd141 2.240 . S
O151 C149 1.279 . S
O152 Cd142 2.297 1_655 S
O152 C147 1.247 1_655 S
O153 Cd142 2.439 . S
O153 C147 1.208 . S
O154 Cd155 2.223 . S
O154 C162 1.315 . S
Cd155 O154 2.223 . S
Cd155 O158 2.297 . S
Cd155 O159 2.439 . S
Cd155 O165 2.240 . S
Cd156 O157 2.240 . S
Cd156 O164 2.229 1_545 S
Cd156 O166 2.297 1_545 S
Cd156 O167 2.439 . S
O157 Cd156 2.240 . S
O157 C162 1.279 . S
O158 Cd155 2.297 . S
O158 C160 1.247 . S
O159 Cd155 2.439 . S
O159 C160 1.208 . S
C160 O158 1.247 . S
C160 O159 1.208 . S
C161 O166 1.247 1_545 S
C161 O167 1.208 . S
C162 O154 1.315 . S
C162 O157 1.279 . S
C163 O164 1.299 1_545 S
C163 O165 1.279 . S
O164 Cd156 2.229 1_565 S
O164 C163 1.299 1_565 S
O165 Cd155 2.240 . S
O165 C163 1.279 . S
O166 Cd156 2.297 1_565 S
O166 C161 1.247 1_565 S
O167 Cd156 2.439 . S
O167 C161 1.208 . S
C168 C169 1.391 . S
C168 C170 1.394 . S
C168 H184 0.931 . S
C169 C168 1.391 . S
C169 C173 1.376 . S
C170 C168 1.394 . S
C170 C171 1.369 . S
C170 C174 1.531 . S
C171 C170 1.369 . S
C171 C172 1.410 . S
C171 C179 1.503 . S
C172 C171 1.410 . S
C172 C173 1.392 . S
C172 C175 1.511 . S
C173 C169 1.376 . S
C173 C172 1.392 . S
C173 H185 0.929 . S
C174 C170 1.531 . S
C174 H186 0.960 . S
C174 H187 0.962 . S
C174 H188 0.960 . S
C175 C172 1.511 . S
C175 H189 0.961 . S
C175 H190 0.961 . S
C175 H191 0.961 . S
C176 C177 1.370 . S
C176 C178 1.363 . S
C176 H192 0.931 . S
C177 C176 1.370 . S
C177 C181 1.408 . S
C178 C176 1.363 . S
C178 C179 1.370 . S
C178 C182 1.524 . S
C179 C171 1.503 . S
C179 C178 1.370 . S
C179 C180 1.403 . S
C180 C179 1.403 . S
C180 C181 1.404 . S
C180 C183 1.539 . S
C181 C177 1.408 . S
C181 C180 1.404 . S
C181 H193 0.930 . S
C182 C178 1.524 . S
C182 H194 0.956 . S
C182 H195 0.961 . S
C182 H196 0.961 . S
C183 C180 1.539 . S
C183 H197 0.958 . S
C183 H198 0.961 . S
C183 H199 0.960 . S
H184 C168 0.931 . S
H185 C173 0.929 . S
H186 C174 0.960 . S
H187 C174 0.962 . S
H188 C174 0.960 . S
H189 C175 0.961 . S
H190 C175 0.961 . S
H191 C175 0.961 . S
H192 C176 0.931 . S
H193 C181 0.930 . S
H194 C182 0.956 . S
H195 C182 0.961 . S
H196 C182 0.961 . S
H197 C183 0.958 . S
H198 C183 0.961 . S
H199 C183 0.960 . S
C200 C201 1.391 1_455 S
C200 C202 1.394 . S
C200 H216 0.931 . S
C201 C200 1.391 1_655 S
C201 C205 1.376 . S
C202 C200 1.394 . S
C202 C203 1.369 1_455 S
C202 C206 1.531 . S
C203 C202 1.369 1_655 S
C203 C204 1.410 . S
C203 C211 1.503 1_655 S
C204 C203 1.410 . S
C204 C205 1.392 . S
C204 C207 1.511 . S
C205 C201 1.376 . S
C205 C204 1.392 . S
C205 H217 0.929 . S
C206 C202 1.531 . S
C206 H218 0.960 . S
C206 H219 0.962 . S
C206 H220 0.960 . S
C207 C204 1.511 . S
C207 H221 0.961 . S
C207 H222 0.961 . S
C207 H223 0.961 . S
C208 C209 1.370 . S
C208 C210 1.363 . S
C208 H224 0.931 . S
C209 C208 1.370 . S
C209 C213 1.408 . S
C210 C208 1.363 . S
C210 C211 1.370 . S
C210 C214 1.524 . S
C211 C203 1.503 1_455 S
C211 C210 1.370 . S
C211 C212 1.403 1_455 S
C212 C211 1.403 1_655 S
C212 C213 1.404 1_655 S
C212 C215 1.539 . S
C213 C209 1.408 . S
C213 C212 1.404 1_455 S
C213 H225 0.930 . S
C214 C210 1.524 . S
C214 H226 0.956 . S
C214 H227 0.961 1_455 S
C214 H228 0.961 . S
C215 C212 1.539 . S
C215 H229 0.958 1_655 S
C215 H230 0.961 . S
C215 H231 0.960 . S
H216 C200 0.931 . S
H217 C205 0.929 . S
H218 C206 0.960 . S
H219 C206 0.962 . S
H220 C206 0.960 . S
H221 C207 0.961 . S
H222 C207 0.961 . S
H223 C207 0.961 . S
H224 C208 0.931 . S
H225 C213 0.930 . S
H226 C214 0.956 . S
H227 C214 0.961 1_655 S
H228 C214 0.961 . S
H229 C215 0.958 1_455 S
H230 C215 0.961 . S
H231 C215 0.960 . S
C232 C233 1.391 . S
C232 C234 1.394 . S
C232 H248 0.931 . S
C233 C232 1.391 . S
C233 C237 1.376 1_565 S
C234 C232 1.394 . S
C234 C235 1.369 1_565 S
C234 C238 1.531 . S
C235 C234 1.369 1_545 S
C235 C236 1.410 . S
C235 C243 1.503 1_556 S
C236 C235 1.410 . S
C236 C237 1.392 . S
C236 C239 1.511 . S
C237 C233 1.376 1_545 S
C237 C236 1.392 . S
C237 H249 0.929 . S
C238 C234 1.531 . S
C238 H250 0.960 1_556 S
C238 H251 0.962 . S
C238 H252 0.960 . S
C239 C236 1.511 . S
C239 H253 0.961 . S
C239 H254 0.961 . S
C239 H255 0.961 . S
C240 C241 1.370 1_565 S
C240 C242 1.363 . S
C240 H256 0.931 . S
C241 C240 1.370 1_545 S
C241 C245 1.408 . S
C242 C240 1.363 . S
C242 C243 1.370 1_565 S
C242 C246 1.524 . S
C243 C235 1.503 1_554 S
C243 C242 1.370 1_545 S
C243 C244 1.403 . S
C244 C243 1.403 . S
C244 C245 1.404 . S
C244 C247 1.539 . S
C245 C241 1.408 . S
C245 C244 1.404 . S
C245 H257 0.930 . S
C246 C242 1.524 . S
C246 H258 0.956 . S
C246 H259 0.961 . S
C246 H260 0.961 . S
C247 C244 1.539 . S
C247 H261 0.958 . S
C247 H262 0.961 . S
C247 H263 0.960 1_554 S
H248 C232 0.931 . S
H249 C237 0.929 . S
H250 C238 0.960 1_554 S
H251 C238 0.962 . S
H252 C238 0.960 . S
H253 C239 0.961 . S
H254 C239 0.961 . S
H255 C239 0.961 . S
H256 C240 0.931 . S
H257 C245 0.930 . S
H258 C246 0.956 . S
H259 C246 0.961 . S
H260 C246 0.961 . S
H261 C247 0.958 . S
H262 C247 0.961 . S
H263 C247 0.960 1_556 S
C264 C265 1.391 . S
C264 C266 1.394 . S
C264 H280 0.931 . S
C265 C264 1.391 . S
C265 C269 1.376 . S
C266 C264 1.394 . S
C266 C267 1.369 . S
C266 C270 1.531 . S
C267 C266 1.369 . S
C267 C268 1.410 . S
C267 C275 1.503 . S
C268 C267 1.410 . S
C268 C269 1.392 . S
C268 C271 1.511 . S
C269 C265 1.376 . S
C269 C268 1.392 . S
C269 H281 0.929 . S
C270 C266 1.531 . S
C270 H282 0.960 . S
C270 H283 0.962 . S
C270 H284 0.960 . S
C271 C268 1.511 . S
C271 H285 0.961 . S
C271 H286 0.961 . S
C271 H287 0.961 . S
C272 C273 1.370 . S
C272 C274 1.363 . S
C272 H288 0.931 . S
C273 C272 1.370 . S
C273 C277 1.408 . S
C274 C272 1.363 . S
C274 C275 1.370 . S
C274 C278 1.524 . S
C275 C267 1.503 . S
C275 C274 1.370 . S
C275 C276 1.403 . S
C276 C275 1.403 . S
C276 C277 1.404 . S
C276 C279 1.539 . S
C277 C273 1.408 . S
C277 C276 1.404 . S
C277 H289 0.930 . S
C278 C274 1.524 . S
C278 H290 0.956 . S
C278 H291 0.961 . S
C278 H292 0.961 . S
C279 C276 1.539 . S
C279 H293 0.958 . S
C279 H294 0.961 . S
C279 H295 0.960 . S
H280 C264 0.931 . S
H281 C269 0.929 . S
H282 C270 0.960 . S
H283 C270 0.962 . S
H284 C270 0.960 . S
H285 C271 0.961 . S
H286 C271 0.961 . S
H287 C271 0.961 . S
H288 C272 0.931 . S
H289 C277 0.930 . S
H290 C278 0.956 . S
H291 C278 0.961 . S
H292 C278 0.961 . S
H293 C279 0.958 . S
H294 C279 0.961 . S
H295 C279 0.960 . S
C296 C297 1.391 1_455 S
C296 C298 1.394 . S
C296 H312 0.931 . S
C297 C296 1.391 1_655 S
C297 C301 1.376 . S
C298 C296 1.394 . S
C298 C299 1.369 1_455 S
C298 C302 1.531 . S
C299 C298 1.369 1_655 S
C299 C300 1.410 . S
C299 C307 1.498 1_655 S
C300 C299 1.410 . S
C300 C301 1.392 . S
C300 C303 1.511 . S
C301 C297 1.376 . S
C301 C300 1.392 . S
C301 H313 0.929 . S
C302 C298 1.531 . S
C302 H314 0.960 . S
C302 H315 0.962 . S
C302 H316 0.960 . S
C303 C300 1.511 . S
C303 H317 0.961 . S
C303 H318 0.961 . S
C303 H319 0.961 . S
C304 C305 1.370 . S
C304 C306 1.363 . S
C304 H320 0.931 . S
C305 C304 1.370 . S
C305 C309 1.408 1_455 S
C306 C304 1.363 . S
C306 C307 1.375 . S
C306 C310 1.524 . S
C307 C299 1.498 1_455 S
C307 C306 1.375 . S
C307 C308 1.406 1_455 S
C308 C307 1.406 1_655 S
C308 C309 1.404 . S
C308 C311 1.539 . S
C309 C305 1.408 1_655 S
C309 C308 1.404 . S
C309 H321 0.930 . S
C310 C306 1.524 . S
C310 H322 0.956 . S
C310 H323 0.961 . S
C310 H324 0.961 . S
C311 C308 1.539 . S
C311 H325 0.958 . S
C311 H326 0.961 . S
C311 H327 0.960 . S
H312 C296 0.931 . S
H313 C301 0.929 . S
H314 C302 0.960 . S
H315 C302 0.962 . S
H316 C302 0.960 . S
H317 C303 0.961 . S
H318 C303 0.961 . S
H319 C303 0.961 . S
H320 C304 0.931 . S
H321 C309 0.930 . S
H322 C310 0.956 . S
H323 C310 0.961 . S
H324 C310 0.961 . S
H325 C311 0.958 . S
H326 C311 0.961 . S
H327 C311 0.960 . S
C328 C329 1.391 . S
C328 C330 1.394 . S
C328 H344 0.931 . S
C329 C328 1.391 . S
C329 C333 1.376 . S
C330 C328 1.394 . S
C330 C331 1.369 . S
C330 C334 1.531 . S
C331 C330 1.369 . S
C331 C332 1.410 1_565 S
C331 C339 1.503 1_554 S
C332 C331 1.410 1_545 S
C332 C333 1.392 1_545 S
C332 C335 1.511 . S
C333 C329 1.376 . S
C333 C332 1.392 1_565 S
C333 H345 0.929 1_565 S
C334 C330 1.531 . S
C334 H346 0.960 1_554 S
C334 H347 0.962 . S
C334 H348 0.960 . S
C335 C332 1.511 . S
C335 H349 0.961 . S
C335 H350 0.961 . S
C335 H351 0.961 . S
C336 C337 1.370 . S
C336 C338 1.363 . S
C336 H352 0.931 . S
C337 C336 1.370 . S
C337 C341 1.408 1_545 S
C338 C336 1.363 . S
C338 C339 1.370 1_545 S
C338 C342 1.524 . S
C339 C331 1.503 1_556 S
C339 C338 1.370 1_565 S
C339 C340 1.403 . S
C340 C339 1.403 . S
C340 C341 1.404 . S
C340 C343 1.539 . S
C341 C337 1.408 1_565 S
C341 C340 1.404 . S
C341 H353 0.930 . S
C342 C338 1.524 . S
C342 H354 0.956 1_556 S
C342 H355 0.961 1_556 S
C342 H356 0.961 . S
C343 C340 1.539 . S
C343 H357 0.958 . S
C343 H358 0.961 . S
C343 H359 0.960 . S
H344 C328 0.931 . S
H345 C333 0.929 1_545 S
H346 C334 0.960 1_556 S
H347 C334 0.962 . S
H348 C334 0.960 . S
H349 C335 0.961 . S
H350 C335 0.961 . S
H351 C335 0.961 . S
H352 C336 0.931 . S
H353 C341 0.930 . S
H354 C342 0.956 1_554 S
H355 C342 0.961 1_554 S
H356 C342 0.961 . S
H357 C343 0.958 . S
H358 C343 0.961 . S
H359 C343 0.960 . S
C360 C361 1.391 1_554 S
C360 C362 1.394 . S
C360 H376 0.931 . S
C361 C360 1.391 1_556 S
C361 C365 1.376 . S
C362 C360 1.394 . S
C362 C363 1.369 1_554 S
C362 C366 1.531 . S
C363 C362 1.369 1_556 S
C363 C364 1.410 . S
C363 C371 1.503 1_556 S
C364 C363 1.410 . S
C364 C365 1.392 . S
C364 C367 1.511 . S
C365 C361 1.376 . S
C365 C364 1.392 . S
C365 H377 0.929 . S
C366 C362 1.531 . S
C366 H378 0.960 . S
C366 H379 0.962 . S
C366 H380 0.960 . S
C367 C364 1.511 . S
C367 H381 0.961 . S
C367 H382 0.961 . S
C367 H383 0.961 . S
C368 C369 1.370 . S
C368 C370 1.363 . S
C368 H384 0.931 . S
C369 C368 1.370 . S
C369 C373 1.408 1_554 S
C370 C368 1.363 . S
C370 C371 1.370 . S
C370 C374 1.524 . S
C371 C363 1.503 1_554 S
C371 C370 1.370 . S
C371 C372 1.403 1_554 S
C372 C371 1.403 1_556 S
C372 C373 1.404 . S
C372 C375 1.539 . S
C373 C369 1.408 1_556 S
C373 C372 1.404 . S
C373 H385 0.930 . S
C374 C370 1.524 . S
C374 H386 0.956 . S
C374 H387 0.961 . S
C374 H388 0.961 . S
C375 C372 1.539 . S
C375 H389 0.958 . S
C375 H390 0.961 . S
C375 H391 0.960 . S
H376 C360 0.931 . S
H377 C365 0.929 . S
H378 C366 0.960 . S
H379 C366 0.962 . S
H380 C366 0.960 . S
H381 C367 0.961 . S
H382 C367 0.961 . S
H383 C367 0.961 . S
H384 C368 0.931 . S
H385 C373 0.930 . S
H386 C374 0.956 . S
H387 C374 0.961 . S
H388 C374 0.961 . S
H389 C375 0.958 . S
H390 C375 0.961 . S
H391 C375 0.960 . S
C392 C393 1.391 . S
C392 C394 1.394 . S
C392 H408 0.931 . S
C393 C392 1.391 . S
C393 C397 1.376 . S
C394 C392 1.394 . S
C394 C395 1.369 . S
C394 C398 1.531 . S
C395 C394 1.369 . S
C395 C396 1.410 . S
C395 C403 1.503 . S
C396 C395 1.410 . S
C396 C397 1.392 . S
C396 C399 1.511 . S
C397 C393 1.376 . S
C397 C396 1.392 . S
C397 H409 0.929 . S
C398 C394 1.531 . S
C398 H410 0.960 . S
C398 H411 0.962 . S
C398 H412 0.960 . S
C399 C396 1.511 . S
C399 H413 0.961 . S
C399 H414 0.961 . S
C399 H415 0.961 . S
C400 C401 1.370 . S
C400 C402 1.363 . S
C400 H416 0.931 . S
C401 C400 1.370 . S
C401 C405 1.408 . S
C402 C400 1.363 . S
C402 C403 1.370 . S
C402 C406 1.524 . S
C403 C395 1.503 . S
C403 C402 1.370 . S
C403 C404 1.403 . S
C404 C403 1.403 . S
C404 C405 1.404 . S
C404 C407 1.539 . S
C405 C401 1.408 . S
C405 C404 1.404 . S
C405 H417 0.930 . S
C406 C402 1.524 . S
C406 H418 0.956 . S
C406 H419 0.961 . S
C406 H420 0.961 . S
C407 C404 1.539 . S
C407 H421 0.958 . S
C407 H422 0.961 . S
C407 H423 0.960 . S
H408 C392 0.931 . S
H409 C397 0.929 . S
H410 C398 0.960 . S
H411 C398 0.962 . S
H412 C398 0.960 . S
H413 C399 0.961 . S
H414 C399 0.961 . S
H415 C399 0.961 . S
H416 C400 0.931 . S
H417 C405 0.930 . S
H418 C406 0.956 . S
H419 C406 0.961 . S
H420 C406 0.961 . S
H421 C407 0.958 . S
H422 C407 0.961 . S
H423 C407 0.960 . S
C424 C425 1.391 . S
C424 C426 1.394 . S
C424 H440 0.931 . S
C425 C424 1.391 . S
C425 C429 1.376 . S
C426 C424 1.394 . S
C426 C427 1.369 . S
C426 C430 1.531 . S
C427 C426 1.369 . S
C427 C428 1.410 . S
C427 C435 1.503 . S
C428 C427 1.410 . S
C428 C429 1.392 . S
C428 C431 1.511 . S
C429 C425 1.376 . S
C429 C428 1.392 . S
C429 H441 0.929 . S
C430 C426 1.531 . S
C430 H442 0.960 . S
C430 H443 0.962 . S
C430 H444 0.960 . S
C431 C428 1.511 . S
C431 H445 0.961 . S
C431 H446 0.961 . S
C431 H447 0.961 . S
C432 C433 1.370 . S
C432 C434 1.363 . S
C432 H448 0.931 . S
C433 C432 1.370 . S
C433 C437 1.408 . S
C434 C432 1.363 . S
C434 C435 1.370 . S
C434 C438 1.524 . S
C435 C427 1.503 . S
C435 C434 1.370 . S
C435 C436 1.403 . S
C436 C435 1.403 . S
C436 C437 1.404 . S
C436 C439 1.539 . S
C437 C433 1.408 . S
C437 C436 1.404 . S
C437 H449 0.930 . S
C438 C434 1.524 . S
C438 H450 0.956 . S
C438 H451 0.961 . S
C438 H452 0.961 . S
C439 C436 1.539 . S
C439 H453 0.958 . S
C439 H454 0.961 . S
C439 H455 0.960 . S
H440 C424 0.931 . S
H441 C429 0.929 . S
H442 C430 0.960 . S
H443 C430 0.962 . S
H444 C430 0.960 . S
H445 C431 0.961 . S
H446 C431 0.961 . S
H447 C431 0.961 . S
H448 C432 0.931 . S
H449 C437 0.930 . S
H450 C438 0.956 . S
H451 C438 0.961 . S
H452 C438 0.961 . S
H453 C439 0.958 . S
H454 C439 0.961 . S
H455 C439 0.960 . S
C456 C457 1.391 . S
C456 C458 1.394 . S
C456 H472 0.931 . S
C457 C456 1.391 . S
C457 C461 1.376 1_554 S
C458 C456 1.394 . S
C458 C459 1.369 . S
C458 C462 1.531 . S
C459 C458 1.369 . S
C459 C460 1.410 1_554 S
C459 C467 1.503 1_554 S
C460 C459 1.410 1_556 S
C460 C461 1.392 . S
C460 C463 1.511 . S
C461 C457 1.376 1_556 S
C461 C460 1.392 . S
C461 H473 0.929 . S
C462 C458 1.531 . S
C462 H474 0.960 . S
C462 H475 0.962 . S
C462 H476 0.960 . S
C463 C460 1.511 . S
C463 H477 0.961 . S
C463 H478 0.961 . S
C463 H479 0.961 . S
C464 C465 1.370 . S
C464 C466 1.363 . S
C464 H480 0.931 . S
C465 C464 1.370 . S
C465 C469 1.408 . S
C466 C464 1.363 . S
C466 C467 1.370 . S
C466 C470 1.524 1_556 S
C467 C459 1.503 1_556 S
C467 C466 1.370 . S
C467 C468 1.403 . S
C468 C467 1.403 . S
C468 C469 1.404 . S
C468 C471 1.539 . S
C469 C465 1.408 . S
C469 C468 1.404 . S
C469 H481 0.930 . S
C470 C466 1.524 1_554 S
C470 H482 0.956 . S
C470 H483 0.961 1_554 S
C470 H484 0.961 . S
C471 C468 1.539 . S
C471 H485 0.958 . S
C471 H486 0.961 . S
C471 H487 0.960 . S
H472 C456 0.931 . S
H473 C461 0.929 . S
H474 C462 0.960 . S
H475 C462 0.962 . S
H476 C462 0.960 . S
H477 C463 0.961 . S
H478 C463 0.961 . S
H479 C463 0.961 . S
H480 C464 0.931 . S
H481 C469 0.930 . S
H482 C470 0.956 . S
H483 C470 0.961 1_556 S
H484 C470 0.961 . S
H485 C471 0.958 . S
H486 C471 0.961 . S
H487 C471 0.960 . S
C488 C489 1.391 . S
C488 C490 1.394 . S
C488 H504 0.931 . S
C489 C488 1.391 . S
C489 C493 1.376 . S
C490 C488 1.394 . S
C490 C491 1.369 . S
C490 C494 1.531 . S
C491 C490 1.369 . S
C491 C492 1.410 . S
C491 C499 1.503 . S
C492 C491 1.410 . S
C492 C493 1.392 . S
C492 C495 1.511 . S
C493 C489 1.376 . S
C493 C492 1.392 . S
C493 H505 0.929 . S
C494 C490 1.531 . S
C494 H506 0.960 . S
C494 H507 0.962 . S
C494 H508 0.960 . S
C495 C492 1.511 . S
C495 H509 0.961 . S
C495 H510 0.961 . S
C495 H511 0.961 . S
C496 C497 1.370 . S
C496 C498 1.363 . S
C496 H512 0.931 . S
C497 C496 1.370 . S
C497 C501 1.408 . S
C498 C496 1.363 . S
C498 C499 1.370 . S
C498 C502 1.524 . S
C499 C491 1.503 . S
C499 C498 1.370 . S
C499 C500 1.403 . S
C500 C499 1.403 . S
C500 C501 1.404 . S
C500 C503 1.539 . S
C501 C497 1.408 . S
C501 C500 1.404 . S
C501 H513 0.930 . S
C502 C498 1.524 . S
C502 H514 0.956 . S
C502 H515 0.961 . S
C502 H516 0.961 . S
C503 C500 1.539 . S
C503 H517 0.958 . S
C503 H518 0.961 . S
C503 H519 0.960 . S
H504 C488 0.931 . S
H505 C493 0.929 . S
H506 C494 0.960 . S
H507 C494 0.962 . S
H508 C494 0.960 . S
H509 C495 0.961 . S
H510 C495 0.961 . S
H511 C495 0.961 . S
H512 C496 0.931 . S
H513 C501 0.930 . S
H514 C502 0.956 . S
H515 C502 0.961 . S
H516 C502 0.961 . S
H517 C503 0.958 . S
H518 C503 0.961 . S
H519 C503 0.960 . S
C520 C521 1.391 . S
C520 C522 1.394 . S
C520 H536 0.931 . S
C521 C520 1.391 . S
C521 C525 1.376 . S
C522 C520 1.394 . S
C522 C523 1.369 . S
C522 C526 1.531 . S
C523 C522 1.369 . S
C523 C524 1.410 . S
C523 C531 1.503 . S
C524 C523 1.410 . S
C524 C525 1.392 . S
C524 C527 1.511 . S
C525 C521 1.376 . S
C525 C524 1.392 . S
C525 H537 0.929 . S
C526 C522 1.531 . S
C526 H538 0.960 . S
C526 H539 0.962 . S
C526 H540 0.960 . S
C527 C524 1.511 . S
C527 H541 0.961 . S
C527 H542 0.961 . S
C527 H543 0.961 . S
C528 C529 1.370 . S
C528 C530 1.363 . S
C528 H544 0.931 . S
C529 C528 1.370 . S
C529 C533 1.408 . S
C530 C528 1.363 . S
C530 C531 1.370 . S
C530 C534 1.524 . S
C531 C523 1.503 . S
C531 C530 1.370 . S
C531 C532 1.403 . S
C532 C531 1.403 . S
C532 C533 1.404 . S
C532 C535 1.539 . S
C533 C529 1.408 . S
C533 C532 1.404 . S
C533 H545 0.930 . S
C534 C530 1.524 . S
C534 H546 0.956 . S
C534 H547 0.961 . S
C534 H548 0.961 . S
C535 C532 1.539 . S
C535 H549 0.958 . S
C535 H550 0.961 . S
C535 H551 0.960 . S
H536 C520 0.931 . S
H537 C525 0.929 . S
H538 C526 0.960 . S
H539 C526 0.962 . S
H540 C526 0.960 . S
H541 C527 0.961 . S
H542 C527 0.961 . S
H543 C527 0.961 . S
H544 C528 0.931 . S
H545 C533 0.930 . S
H546 C534 0.956 . S
H547 C534 0.961 . S
H548 C534 0.961 . S
H549 C535 0.958 . S
H550 C535 0.961 . S
H551 C535 0.960 . S
C552 C553 1.391 . S
C552 C554 1.394 . S
C552 H568 0.931 . S
C553 C552 1.391 . S
C553 C557 1.376 . S
C554 C552 1.394 . S
C554 C555 1.369 . S
C554 C558 1.531 . S
C555 C554 1.369 . S
C555 C556 1.410 . S
C555 C563 1.503 . S
C556 C555 1.410 . S
C556 C557 1.392 . S
C556 C559 1.511 . S
C557 C553 1.376 . S
C557 C556 1.392 . S
C557 H569 0.929 . S
C558 C554 1.531 . S
C558 H570 0.960 . S
C558 H571 0.962 . S
C558 H572 0.960 . S
C559 C556 1.511 . S
C559 H573 0.961 . S
C559 H574 0.961 . S
C559 H575 0.961 . S
C560 C561 1.370 . S
C560 C562 1.363 . S
C560 H576 0.931 . S
C561 C560 1.370 . S
C561 C565 1.408 . S
C562 C560 1.363 . S
C562 C563 1.370 . S
C562 C566 1.524 . S
C563 C555 1.503 . S
C563 C562 1.370 . S
C563 C564 1.403 . S
C564 C563 1.403 . S
C564 C565 1.404 . S
C564 C567 1.539 . S
C565 C561 1.408 . S
C565 C564 1.404 . S
C565 H577 0.930 . S
C566 C562 1.524 . S
C566 H578 0.956 . S
C566 H579 0.961 . S
C566 H580 0.961 . S
C567 C564 1.539 . S
C567 H581 0.958 . S
C567 H582 0.961 . S
C567 H583 0.960 . S
H568 C552 0.931 . S
H569 C557 0.929 . S
H570 C558 0.960 . S
H571 C558 0.962 . S
H572 C558 0.960 . S
H573 C559 0.961 . S
H574 C559 0.961 . S
H575 C559 0.961 . S
H576 C560 0.931 . S
H577 C565 0.930 . S
H578 C566 0.956 . S
H579 C566 0.961 . S
H580 C566 0.961 . S
H581 C567 0.958 . S
H582 C567 0.961 . S
H583 C567 0.960 . S
C584 C585 1.391 1_455 S
C584 C586 1.394 . S
C584 H600 0.931 . S
C585 C584 1.391 1_655 S
C585 C589 1.376 . S
C586 C584 1.394 . S
C586 C587 1.369 1_455 S
C586 C590 1.531 . S
C587 C586 1.369 1_655 S
C587 C588 1.410 . S
C587 C595 1.503 1_655 S
C588 C587 1.410 . S
C588 C589 1.392 . S
C588 C591 1.511 . S
C589 C585 1.376 . S
C589 C588 1.392 . S
C589 H601 0.929 . S
C590 C586 1.531 . S
C590 H602 0.960 . S
C590 H603 0.962 . S
C590 H604 0.960 . S
C591 C588 1.511 . S
C591 H605 0.961 . S
C591 H606 0.961 . S
C591 H607 0.961 . S
C592 C593 1.370 . S
C592 C594 1.363 . S
C592 H608 0.931 . S
C593 C592 1.370 . S
C593 C597 1.408 1_455 S
C594 C592 1.363 . S
C594 C595 1.370 . S
C594 C598 1.524 . S
C595 C587 1.503 1_455 S
C595 C594 1.370 . S
C595 C596 1.403 1_455 S
C596 C595 1.403 1_655 S
C596 C597 1.404 . S
C596 C599 1.539 . S
C597 C593 1.408 1_655 S
C597 C596 1.404 . S
C597 H609 0.930 . S
C598 C594 1.524 . S
C598 H610 0.956 . S
C598 H611 0.961 . S
C598 H612 0.961 . S
C599 C596 1.539 . S
C599 H613 0.958 . S
C599 H614 0.961 . S
C599 H615 0.960 . S
H600 C584 0.931 . S
H601 C589 0.929 . S
H602 C590 0.960 . S
H603 C590 0.962 . S
H604 C590 0.960 . S
H605 C591 0.961 . S
H606 C591 0.961 . S
H607 C591 0.961 . S
H608 C592 0.931 . S
H609 C597 0.930 . S
H610 C598 0.956 . S
H611 C598 0.961 . S
H612 C598 0.961 . S
H613 C599 0.958 . S
H614 C599 0.961 . S
H615 C599 0.960 . S
C616 C617 1.391 . S
C616 C618 1.394 . S
C616 H632 0.931 . S
C617 C616 1.391 . S
C617 C621 1.374 1_565 S
C618 C616 1.394 . S
C618 C619 1.369 1_565 S
C618 C622 1.531 . S
C619 C618 1.369 1_545 S
C619 C620 1.410 . S
C619 C627 1.503 . S
C620 C619 1.410 . S
C620 C621 1.398 . S
C620 C623 1.511 . S
C621 C617 1.374 1_545 S
C621 C620 1.398 . S
C621 H633 0.925 . S
C622 C618 1.531 . S
C622 H634 0.960 . S
C622 H635 0.962 . S
C622 H636 0.960 . S
C623 C620 1.511 . S
C623 H637 0.961 . S
C623 H638 0.961 . S
C623 H639 0.961 . S
C624 C625 1.370 1_565 S
C624 C626 1.363 . S
C624 H640 0.931 . S
C625 C624 1.370 1_545 S
C625 C629 1.408 . S
C626 C624 1.363 . S
C626 C627 1.370 1_565 S
C626 C630 1.524 . S
C627 C619 1.503 . S
C627 C626 1.370 1_545 S
C627 C628 1.403 . S
C628 C627 1.403 . S
C628 C629 1.404 . S
C628 C631 1.539 . S
C629 C625 1.408 . S
C629 C628 1.404 . S
C629 H641 0.930 . S
C630 C626 1.524 . S
C630 H642 0.956 . S
C630 H643 0.961 . S
C630 H644 0.961 . S
C631 C628 1.539 . S
C631 H645 0.958 . S
C631 H646 0.961 . S
C631 H647 0.960 . S
H632 C616 0.931 . S
H633 C621 0.925 . S
H634 C622 0.960 . S
H635 C622 0.962 . S
H636 C622 0.960 . S
H637 C623 0.961 . S
H638 C623 0.961 . S
H639 C623 0.961 . S
H640 C624 0.931 . S
H641 C629 0.930 . S
H642 C630 0.956 . S
H643 C630 0.961 . S
H644 C630 0.961 . S
H645 C631 0.958 . S
H646 C631 0.961 . S
H647 C631 0.960 . S
C648 C649 1.391 . S
C648 C650 1.394 . S
C648 H664 0.931 . S
C649 C648 1.391 . S
C649 C653 1.376 . S
C650 C648 1.394 . S
C650 C651 1.369 . S
C650 C654 1.531 . S
C651 C650 1.369 . S
C651 C652 1.410 . S
C651 C659 1.503 . S
C652 C651 1.410 . S
C652 C653 1.392 . S
C652 C655 1.511 . S
C653 C649 1.376 . S
C653 C652 1.392 . S
C653 H665 0.929 . S
C654 C650 1.531 . S
C654 H666 0.960 . S
C654 H667 0.962 . S
C654 H668 0.960 . S
C655 C652 1.511 . S
C655 H669 0.961 . S
C655 H670 0.961 . S
C655 H671 0.961 . S
C656 C657 1.370 . S
C656 C658 1.363 . S
C656 H672 0.931 . S
C657 C656 1.370 . S
C657 C661 1.408 . S
C658 C656 1.363 . S
C658 C659 1.370 . S
C658 C662 1.524 . S
C659 C651 1.503 . S
C659 C658 1.370 . S
C659 C660 1.403 . S
C660 C659 1.403 . S
C660 C661 1.404 . S
C660 C663 1.539 . S
C661 C657 1.408 . S
C661 C660 1.404 . S
C661 H673 0.930 . S
C662 C658 1.524 . S
C662 H674 0.956 . S
C662 H675 0.961 . S
C662 H676 0.961 . S
C663 C660 1.539 . S
C663 H677 0.958 . S
C663 H678 0.961 . S
C663 H679 0.960 . S
H664 C648 0.931 . S
H665 C653 0.929 . S
H666 C654 0.960 . S
H667 C654 0.962 . S
H668 C654 0.960 . S
H669 C655 0.961 . S
H670 C655 0.961 . S
H671 C655 0.961 . S
H672 C656 0.931 . S
H673 C661 0.930 . S
H674 C662 0.956 . S
H675 C662 0.961 . S
H676 C662 0.961 . S
H677 C663 0.958 . S
H678 C663 0.961 . S
H679 C663 0.960 . S
C680 C681 1.389 1_655 S
C680 C682 1.401 . S
C680 H696 0.926 . S
C681 C680 1.389 1_455 S
C681 C685 1.376 . S
C682 C680 1.401 . S
C682 C683 1.369 . S
C682 C686 1.531 . S
C683 C682 1.369 . S
C683 C684 1.410 1_655 S
C683 C691 1.503 . S
C684 C683 1.410 1_455 S
C684 C685 1.392 . S
C684 C687 1.511 . S
C685 C681 1.376 . S
C685 C684 1.392 . S
C685 H697 0.929 . S
C686 C682 1.531 . S
C686 H698 0.960 . S
C686 H699 0.962 . S
C686 H700 0.960 . S
C687 C684 1.511 . S
C687 H701 0.961 . S
C687 H702 0.961 . S
C687 H703 0.961 . S
C688 C689 1.370 1_455 S
C688 C690 1.363 . S
C688 H704 0.931 . S
C689 C688 1.370 1_655 S
C689 C693 1.408 . S
C690 C688 1.363 . S
C690 C691 1.370 1_455 S
C690 C694 1.524 . S
C691 C683 1.503 . S
C691 C690 1.370 1_655 S
C691 C692 1.403 . S
C692 C691 1.403 . S
C692 C693 1.404 . S
C692 C695 1.539 . S
C693 C689 1.408 . S
C693 C692 1.404 . S
C693 H705 0.930 . S
C694 C690 1.524 . S
C694 H706 0.956 . S
C694 H707 0.961 . S
C694 H708 0.961 . S
C695 C692 1.539 . S
C695 H709 0.958 . S
C695 H710 0.961 . S
C695 H711 0.960 . S
H696 C680 0.926 . S
H697 C685 0.929 . S
H698 C686 0.960 . S
H699 C686 0.962 . S
H700 C686 0.960 . S
H701 C687 0.961 . S
H702 C687 0.961 . S
H703 C687 0.961 . S
H704 C688 0.931 . S
H705 C693 0.930 . S
H706 C694 0.956 . S
H707 C694 0.961 . S
H708 C694 0.961 . S
H709 C695 0.958 . S
H710 C695 0.961 . S
H711 C695 0.960 . S
C712 C713 1.391 1_545 S
C712 C714 1.394 . S
C712 H728 0.931 . S
C713 C712 1.391 1_565 S
C713 C717 1.376 . S
C714 C712 1.394 . S
C714 C715 1.369 . S
C714 C718 1.531 . S
C715 C714 1.369 . S
C715 C716 1.410 1_545 S
C715 C723 1.503 . S
C716 C715 1.410 1_565 S
C716 C717 1.392 . S
C716 C719 1.511 . S
C717 C713 1.376 . S
C717 C716 1.392 . S
C717 H729 0.929 . S
C718 C714 1.531 . S
C718 H730 0.960 . S
C718 H731 0.962 . S
C718 H732 0.960 . S
C719 C716 1.511 . S
C719 H733 0.961 . S
C719 H734 0.961 . S
C719 H735 0.961 . S
C720 C721 1.370 1_565 S
C720 C722 1.363 . S
C720 H736 0.931 . S
C721 C720 1.370 1_545 S
C721 C725 1.408 . S
C722 C720 1.363 . S
C722 C723 1.370 1_565 S
C722 C726 1.524 . S
C723 C715 1.503 . S
C723 C722 1.370 1_545 S
C723 C724 1.403 . S
C724 C723 1.403 . S
C724 C725 1.404 . S
C724 C727 1.539 . S
C725 C721 1.408 . S
C725 C724 1.404 . S
C725 H737 0.930 . S
C726 C722 1.524 . S
C726 H738 0.956 . S
C726 H739 0.961 . S
C726 H740 0.961 . S
C727 C724 1.539 . S
C727 H741 0.958 . S
C727 H742 0.961 . S
C727 H743 0.960 . S
H728 C712 0.931 . S
H729 C717 0.929 . S
H730 C718 0.960 . S
H731 C718 0.962 . S
H732 C718 0.960 . S
H733 C719 0.961 . S
H734 C719 0.961 . S
H735 C719 0.961 . S
H736 C720 0.931 . S
H737 C725 0.930 . S
H738 C726 0.956 . S
H739 C726 0.961 . S
H740 C726 0.961 . S
H741 C727 0.958 . S
H742 C727 0.961 . S
H743 C727 0.960 . S
C744 C745 1.391 . S
C744 C746 1.394 . S
C744 H760 0.931 . S
C745 C744 1.391 . S
C745 C749 1.376 . S
C746 C744 1.394 . S
C746 C747 1.369 . S
C746 C750 1.531 . S
C747 C746 1.369 . S
C747 C748 1.410 . S
C747 C755 1.503 . S
C748 C747 1.410 . S
C748 C749 1.392 . S
C748 C751 1.511 . S
C749 C745 1.376 . S
C749 C748 1.392 . S
C749 H761 0.929 . S
C750 C746 1.531 . S
C750 H762 0.960 . S
C750 H763 0.962 . S
C750 H764 0.960 . S
C751 C748 1.511 . S
C751 H765 0.961 . S
C751 H766 0.961 . S
C751 H767 0.961 1_554 S
C752 C753 1.370 . S
C752 C754 1.363 . S
C752 H768 0.931 . S
C753 C752 1.370 . S
C753 C757 1.408 . S
C754 C752 1.363 . S
C754 C755 1.370 . S
C754 C758 1.524 . S
C755 C747 1.503 . S
C755 C754 1.370 . S
C755 C756 1.403 . S
C756 C755 1.403 . S
C756 C757 1.404 . S
C756 C759 1.539 1_554 S
C757 C753 1.408 . S
C757 C756 1.404 . S
C757 H769 0.930 1_554 S
C758 C754 1.524 . S
C758 H770 0.956 . S
C758 H771 0.961 . S
C758 H772 0.961 . S
C759 C756 1.539 1_556 S
C759 H773 0.958 . S
C759 H774 0.961 . S
C759 H775 0.960 . S
H760 C744 0.931 . S
H761 C749 0.929 . S
H762 C750 0.960 . S
H763 C750 0.962 . S
H764 C750 0.960 . S
H765 C751 0.961 . S
H766 C751 0.961 . S
H767 C751 0.961 1_556 S
H768 C752 0.931 . S
H769 C757 0.930 1_556 S
H770 C758 0.956 . S
H771 C758 0.961 . S
H772 C758 0.961 . S
H773 C759 0.958 . S
H774 C759 0.961 . S
H775 C759 0.960 . S
C776 C777 1.391 . S
C776 C778 1.394 . S
C776 H792 0.931 . S
C777 C776 1.391 . S
C777 C781 1.376 . S
C778 C776 1.394 . S
C778 C779 1.369 . S
C778 C782 1.531 . S
C779 C778 1.369 . S
C779 C780 1.410 . S
C779 C787 1.505 1_455 S
C780 C779 1.410 . S
C780 C781 1.392 . S
C780 C783 1.511 1_455 S
C781 C777 1.376 . S
C781 C780 1.392 . S
C781 H793 0.929 . S
C782 C778 1.531 . S
C782 H794 0.960 . S
C782 H795 0.962 . S
C782 H796 0.960 . S
C783 C780 1.511 1_655 S
C783 H797 0.961 . S
C783 H798 0.961 . S
C783 H799 0.961 1_655 S
C784 C785 1.370 . S
C784 C786 1.363 . S
C784 H800 0.931 . S
C785 C784 1.370 . S
C785 C789 1.408 1_655 S
C786 C784 1.363 . S
C786 C787 1.375 . S
C786 C790 1.524 . S
C787 C779 1.505 1_655 S
C787 C786 1.375 . S
C787 C788 1.397 1_655 S
C788 C787 1.397 1_455 S
C788 C789 1.404 . S
C788 C791 1.539 . S
C789 C785 1.408 1_455 S
C789 C788 1.404 . S
C789 H801 0.930 . S
C790 C786 1.524 . S
C790 H802 0.956 . S
C790 H803 0.961 . S
C790 H804 0.961 . S
C791 C788 1.539 . S
C791 H805 0.958 . S
C791 H806 0.961 . S
C791 H807 0.960 . S
H792 C776 0.931 . S
H793 C781 0.929 . S
H794 C782 0.960 . S
H795 C782 0.962 . S
H796 C782 0.960 . S
H797 C783 0.961 . S
H798 C783 0.961 . S
H799 C783 0.961 1_455 S
H800 C784 0.931 . S
H801 C789 0.930 . S
H802 C790 0.956 . S
H803 C790 0.961 . S
H804 C790 0.961 . S
H805 C791 0.958 . S
H806 C791 0.961 . S
H807 C791 0.960 . S
C808 C809 1.391 1_545 S
C808 C810 1.394 . S
C808 H824 0.931 . S
C809 C808 1.391 1_565 S
C809 C813 1.376 . S
C810 C808 1.394 . S
C810 C811 1.369 1_545 S
C810 C814 1.531 . S
C811 C810 1.369 1_565 S
C811 C812 1.410 . S
C811 C819 1.503 1_565 S
C812 C811 1.410 . S
C812 C813 1.392 . S
C812 C815 1.511 . S
C813 C809 1.376 . S
C813 C812 1.392 . S
C813 H825 0.929 . S
C814 C810 1.531 . S
C814 H826 0.960 . S
C814 H827 0.962 . S
C814 H828 0.960 . S
C815 C812 1.511 . S
C815 H829 0.961 . S
C815 H830 0.961 . S
C815 H831 0.961 . S
C816 C817 1.370 . S
C816 C818 1.363 . S
C816 H832 0.931 . S
C817 C816 1.370 . S
C817 C821 1.408 . S
C818 C816 1.363 . S
C818 C819 1.370 . S
C818 C822 1.524 . S
C819 C811 1.503 1_545 S
C819 C818 1.370 . S
C819 C820 1.403 . S
C820 C819 1.403 . S
C820 C821 1.404 . S
C820 C823 1.539 1_545 S
C821 C817 1.408 . S
C821 C820 1.404 . S
C821 H833 0.930 . S
C822 C818 1.524 . S
C822 H834 0.956 . S
C822 H835 0.961 1_545 S
C822 H836 0.961 . S
C823 C820 1.539 1_565 S
C823 H837 0.958 1_565 S
C823 H838 0.961 . S
C823 H839 0.960 . S
H824 C808 0.931 . S
H825 C813 0.929 . S
H826 C814 0.960 . S
H827 C814 0.962 . S
H828 C814 0.960 . S
H829 C815 0.961 . S
H830 C815 0.961 . S
H831 C815 0.961 . S
H832 C816 0.931 . S
H833 C821 0.930 . S
H834 C822 0.956 . S
H835 C822 0.961 1_565 S
H836 C822 0.961 . S
H837 C823 0.958 1_545 S
H838 C823 0.961 . S
H839 C823 0.960 . S
C840 C841 1.391 . S
C840 C842 1.394 . S
C840 H856 0.931 . S
C841 C840 1.391 . S
C841 C845 1.376 . S
C842 C840 1.394 . S
C842 C843 1.369 . S
C842 C846 1.531 . S
C843 C842 1.369 . S
C843 C844 1.410 . S
C843 C851 1.503 . S
C844 C843 1.410 . S
C844 C845 1.392 . S
C844 C847 1.511 . S
C845 C841 1.376 . S
C845 C844 1.392 . S
C845 H857 0.929 . S
C846 C842 1.531 . S
C846 H858 0.960 . S
C846 H859 0.962 . S
C846 H860 0.960 . S
C847 C844 1.511 . S
C847 H861 0.961 . S
C847 H862 0.961 . S
C847 H863 0.961 . S
C848 C849 1.370 . S
C848 C850 1.363 . S
C848 H864 0.931 . S
C849 C848 1.370 . S
C849 C853 1.408 . S
C850 C848 1.363 . S
C850 C851 1.370 . S
C850 C854 1.524 . S
C851 C843 1.503 . S
C851 C850 1.370 . S
C851 C852 1.403 . S
C852 C851 1.403 . S
C852 C853 1.404 . S
C852 C855 1.539 . S
C853 C849 1.408 . S
C853 C852 1.404 . S
C853 H865 0.930 . S
C854 C850 1.524 . S
C854 H866 0.956 . S
C854 H867 0.961 . S
C854 H868 0.961 . S
C855 C852 1.539 . S
C855 H869 0.958 . S
C855 H870 0.961 . S
C855 H871 0.960 . S
H856 C840 0.931 . S
H857 C845 0.929 . S
H858 C846 0.960 . S
H859 C846 0.962 . S
H860 C846 0.960 . S
H861 C847 0.961 . S
H862 C847 0.961 . S
H863 C847 0.961 . S
H864 C848 0.931 . S
H865 C853 0.930 . S
H866 C854 0.956 . S
H867 C854 0.961 . S
H868 C854 0.961 . S
H869 C855 0.958 . S
H870 C855 0.961 . S
H871 C855 0.960 . S
C872 C873 1.391 . S
C872 C874 1.394 1_655 S
C872 H888 0.931 . S
C873 C872 1.391 . S
C873 C877 1.376 . S
C874 C872 1.394 1_455 S
C874 C875 1.369 . S
C874 C878 1.531 . S
C875 C874 1.369 . S
C875 C876 1.410 1_455 S
C875 C883 1.503 . S
C876 C875 1.410 1_655 S
C876 C877 1.392 . S
C876 C879 1.511 1_556 S
C877 C873 1.376 . S
C877 C876 1.392 . S
C877 H889 0.929 1_556 S
C878 C874 1.531 . S
C878 H890 0.960 . S
C878 H891 0.962 1_455 S
C878 H892 0.960 . S
C879 C876 1.511 1_554 S
C879 H893 0.961 . S
C879 H894 0.961 . S
C879 H895 0.961 1_655 S
C880 C881 1.370 1_655 S
C880 C882 1.363 . S
C880 H896 0.931 . S
C881 C880 1.370 1_455 S
C881 C885 1.408 . S
C882 C880 1.363 . S
C882 C883 1.370 1_655 S
C882 C886 1.524 . S
C883 C875 1.503 . S
C883 C882 1.370 1_455 S
C883 C884 1.403 . S
C884 C883 1.403 . S
C884 C885 1.404 . S
C884 C887 1.539 . S
C885 C881 1.408 . S
C885 C884 1.404 . S
C885 H897 0.930 . S
C886 C882 1.524 . S
C886 H898 0.956 . S
C886 H899 0.961 . S
C886 H900 0.961 . S
C887 C884 1.539 . S
C887 H901 0.958 . S
C887 H902 0.961 . S
C887 H903 0.960 . S
H888 C872 0.931 . S
H889 C877 0.929 1_554 S
H890 C878 0.960 . S
H891 C878 0.962 1_655 S
H892 C878 0.960 . S
H893 C879 0.961 . S
H894 C879 0.961 . S
H895 C879 0.961 1_455 S
H896 C880 0.931 . S
H897 C885 0.930 . S
H898 C886 0.956 . S
H899 C886 0.961 . S
H900 C886 0.961 . S
H901 C887 0.958 . S
H902 C887 0.961 . S
H903 C887 0.960 . S
C904 C905 1.391 1_565 S
C904 C906 1.394 . S
C904 H920 0.931 . S
C905 C904 1.391 1_545 S
C905 C909 1.376 . S
C906 C904 1.394 . S
C906 C907 1.369 1_565 S
C906 C910 1.531 . S
C907 C906 1.369 1_545 S
C907 C908 1.410 . S
C907 C915 1.503 1_545 S
C908 C907 1.410 . S
C908 C909 1.392 . S
C908 C911 1.511 . S
C909 C905 1.376 . S
C909 C908 1.392 . S
C909 H921 0.929 . S
C910 C906 1.531 . S
C910 H922 0.960 . S
C910 H923 0.962 . S
C910 H924 0.960 . S
C911 C908 1.511 . S
C911 H925 0.961 . S
C911 H926 0.961 . S
C911 H927 0.961 . S
C912 C913 1.370 . S
C912 C914 1.363 . S
C912 H928 0.931 . S
C913 C912 1.370 . S
C913 C917 1.408 . S
C914 C912 1.363 . S
C914 C915 1.370 . S
C914 C918 1.524 . S
C915 C907 1.503 1_565 S
C915 C914 1.370 . S
C915 C916 1.403 . S
C916 C915 1.403 . S
C916 C917 1.404 . S
C916 C919 1.539 1_565 S
C917 C913 1.408 . S
C917 C916 1.404 . S
C917 H929 0.930 . S
C918 C914 1.524 . S
C918 H930 0.956 . S
C918 H931 0.961 1_565 S
C918 H932 0.961 . S
C919 C916 1.539 1_545 S
C919 H933 0.958 1_545 S
C919 H934 0.961 . S
C919 H935 0.960 . S
H920 C904 0.931 . S
H921 C909 0.929 . S
H922 C910 0.960 . S
H923 C910 0.962 . S
H924 C910 0.960 . S
H925 C911 0.961 . S
H926 C911 0.961 . S
H927 C911 0.961 . S
H928 C912 0.931 . S
H929 C917 0.930 . S
H930 C918 0.956 . S
H931 C918 0.961 1_545 S
H932 C918 0.961 . S
H933 C919 0.958 1_565 S
H934 C919 0.961 . S
H935 C919 0.960 . S
C169 C7 1.457 . S
C177 C133 1.459 . S
C201 C21 1.447 . S
C209 C147 1.448 . S
C233 C35 1.441 . S
C241 C161 1.462 . S
C265 C49 1.440 . S
C273 C91 1.462 . S
C297 C105 1.452 . S
C305 C63 1.447 . S
C329 C119 1.468 . S
C337 C77 1.451 . S
C361 C146 1.506 . S
C369 C6 1.487 . S
C393 C20 1.467 . S
C401 C160 1.476 . S
C425 C34 1.477 . S
C433 C90 1.495 . S
C457 C48 1.458 . S
C465 C104 1.480 . S
C489 C62 1.488 . S
C497 C118 1.496 . S
C521 C76 1.506 . S
C529 C132 1.487 . S
C553 C134 1.168 . S
C561 C8 1.178 . S
C585 C22 1.153 . S
C593 C148 1.182 . S
C617 C36 1.193 . S
C625 C162 1.150 . S
C649 C92 1.130 . S
C657 C50 1.183 . S
C681 C64 1.204 . S
C689 C106 1.157 . S
C713 C120 1.201 . S
C721 C78 1.161 . S
C745 C9 1.495 . S
C753 C51 1.505 . S
C777 C65 1.505 . S
C785 C23 1.489 . S
C809 C37 1.511 . S
C817 C79 1.499 . S
C841 C93 1.513 . S
C849 C135 1.490 . S
C873 C107 1.479 . S
C881 C149 1.507 . S
C905 C163 1.510 . S
C913 C121 1.499 . S
