# Generated by pormake.
# Topology kag, (6)-cn, num edge types: 1
# Building blocks:
#     Node 0, Type 0, BuildingBlock: KUMBUR_clean_sbu_1, # of connection points: 6
#     Node 1, Type 0, BuildingBlock: KUMBUR_clean_sbu_1, # of connection points: 6
#     Node 2, Type 0, BuildingBlock: KUMBUR_clean_sbu_1, # of connection points: 6
#     Edge 3, Type (0, 0), BuildingBlock: ZUJKAS_clean_linker_0, # of connection points: 2
#     Edge 4, Type (0, 0), BuildingBlock: ZUJKAS_clean_linker_0, # of connection points: 2
#     Edge 5, Type (0, 0), BuildingBlock: ZUJKAS_clean_linker_0, # of connection points: 2
#     Edge 6, Type (0, 0), BuildingBlock: ZUJKAS_clean_linker_0, # of connection points: 2
#     Edge 7, Type (0, 0), BuildingBlock: ZUJKAS_clean_linker_0, # of connection points: 2
#     Edge 8, Type (0, 0), BuildingBlock: ZUJKAS_clean_linker_0, # of connection points: 2
#     Edge 9, Type (0, 0), BuildingBlock: ZUJKAS_clean_linker_0, # of connection points: 2
#     Edge 10, Type (0, 0), BuildingBlock: ZUJKAS_clean_linker_0, # of connection points: 2
#     Edge 11, Type (0, 0), BuildingBlock: ZUJKAS_clean_linker_0, # of connection points: 2
# Relax obj value: 0.072
# Max RMSD: 0.169
# Mean RMSD: 0.111
data_MOF--net-kag--node1-KUMBUR_clean_sbu_1--edge1-ZUJKAS_clean_linker_0
_symmetry_space_group_name_H-M    P1
_symmetry_Int_Tables_number       1
_symmetry_cell_setting            triclinic
loop_
_symmetry_equiv_pos_as_xyz
'x, y, z'
_cell_length_a     39.512552
_cell_length_b     49.392481
_cell_length_c     19.289888
_cell_angle_alpha  108.31548
_cell_angle_beta   96.808467
_cell_angle_gamma 101.94287
loop_
_atom_site_label
_atom_site_type_symbol
_atom_site_fract_x
_atom_site_fract_y
_atom_site_fract_z
_atom_type_partial_charge
Tb0 Tb 0.05275 0.544 0.05624 0.0
C1 C 0.08332 0.42688 0.91357 0.0
N2 N 0.05757 0.43712 0.88494 0.0
C3 C 0.07441 0.42297 0.76599 0.0
C4 C 0.10634 0.41493 0.86965 0.0
C5 C 0.05242 0.43493 0.81195 0.0
C6 C 0.10159 0.41305 0.79501 0.0
C7 C 0.11407 0.41966 0.02009 0.0
C8 C 0.08729 0.42958 0.98817 0.0
C9 C 0.13741 0.40807 0.97684 0.0
C10 C 0.13354 0.40569 0.90181 0.0
Tb11 Tb 1.02336 0.45606 0.96477 0.0
N12 N 0.06463 0.44152 0.02892 0.0
C13 C 0.11615 0.42113 0.0941 0.0
C14 C 0.06458 0.44026 0.09868 0.0
C15 C 0.09084 0.43091 0.13301 0.0
H16 H 1.03117 0.44217 0.78906 0.0
H17 H 0.09104 0.43061 0.18893 0.0
H18 H 0.07664 0.56326 0.23986 0.0
H19 H 0.95983 0.5747 0.88531 0.0
H20 H 0.0437 0.44521 0.12745 0.0
H21 H 0.1363 0.41371 0.12069 0.0
H22 H 1.00606 0.5504 0.90879 0.0
H23 H 0.07038 0.42139 0.70823 0.0
H24 H 0.15832 0.40059 1.00068 0.0
H25 H 0.15167 0.39663 0.86913 0.0
H26 H 0.05706 0.59084 0.35176 0.0
H27 H 0.11873 0.40399 0.75938 0.0
H28 H 0.93767 0.60436 0.9906 0.0
N29 N 0.03839 0.56996 0.16422 0.0
C30 C 1.01306 0.58425 0.15618 0.0
C31 C 0.04421 0.58891 0.29702 0.0
C32 C 1.00182 0.60107 0.21853 0.0
C33 C 0.05472 0.57271 0.23348 0.0
C34 C 1.01748 0.603 0.28952 0.0
N35 N 1.00895 0.56452 0.02603 0.0
C36 C 0.99619 0.56254 0.95517 0.0
C37 C 0.97217 0.59656 0.07411 0.0
C38 C 0.99841 0.58202 0.08492 0.0
C39 C 0.95791 0.59356 1.00132 0.0
C40 C 0.9702 0.57667 0.9417 0.0
H41 H 1.00953 0.61566 0.33887 0.0
H42 H 0.96646 0.62847 0.25528 0.0
H43 H 0.94053 0.62453 0.12887 0.0
O44 O 0.08442 0.56789 1.0034 0.0
O45 O 0.99542 0.52392 0.04596 0.0
O46 O 0.97848 0.47598 0.95973 0.0
O47 O 0.08691 0.58534 0.12129 0.0
O48 O 0.0503 0.52361 0.93615 0.0
O49 O 1.00809 0.47862 0.89031 0.0
O50 O 0.993 0.42133 0.99006 0.0
O51 O 0.07606 0.48172 0.95972 0.0
O52 O 0.09264 0.51978 0.07101 0.0
O53 O 0.99193 0.41858 0.87651 0.0
O54 O 1.01665 0.47709 0.07916 0.0
O55 O 0.06342 0.51828 0.12581 0.0
C56 C 0.97095 0.49969 1.00323 0.0
C57 C 0.13914 0.59795 0.0787 0.0
C58 C 0.19324 0.63037 0.07101 0.0
C59 C 0.21302 0.61524 0.10345 0.0
C60 C 0.15937 0.5836 0.11241 0.0
C61 C 0.19612 0.59205 0.12409 0.0
C62 C 0.15613 0.6214 0.05841 0.0
C63 C 1.02771 0.50177 0.8813 0.0
C64 C 0.10038 0.58907 0.06578 0.0
C65 C 0.97551 0.61549 0.20805 0.0
C66 C 0.96078 0.61328 0.13606 0.0
C67 C 0.10102 0.50046 0.01566 0.0
C68 C 0.98065 0.37356 0.90039 0.0
C69 C 0.95133 0.32428 0.89662 0.0
C70 C 0.97696 0.31313 0.86027 0.0
C71 C 1.00599 0.36204 0.86409 0.0
C72 C 0.95354 0.35465 0.91673 0.0
C73 C 1.00414 0.33195 0.84442 0.0
C74 C 0.03854 0.49851 0.13567 0.0
C75 C 0.98103 0.40495 0.92054 0.0
H76 H 0.24159 0.62177 0.11446 0.0
H77 H 0.14672 0.56613 0.13046 0.0
H78 H 0.21157 0.58083 0.15002 0.0
H79 H 0.14045 0.63257 0.03265 0.0
H80 H 0.97617 0.28991 0.84471 0.0
H81 H 1.02693 0.3761 0.85034 0.0
H82 H 0.93368 0.36354 0.94378 0.0
H83 H 1.02377 0.32316 0.81649 0.0
Tb84 Tb 0.47343 0.98311 0.95123 0.0
C85 C 0.61613 0.9751 0.09433 0.0
N86 N 0.60025 0.99744 0.11653 0.0
C87 C 0.61373 -0.00061 0.243 0.0
C88 C 0.62994 0.96304 0.14514 0.0
C89 C 0.6012 0.01098 0.19059 0.0
C90 C 0.62753 0.9749 0.21993 0.0
C91 C 0.63895 0.94392 0.9967 0.0
C92 C 0.62064 0.96564 0.02132 0.0
C93 C 0.65146 0.93092 0.04622 0.0
C94 C 0.64685 0.94039 0.12024 0.0
Tb95 Tb 0.57886 0.01315 0.02444 0.0
N96 N 0.60718 0.97805 0.97442 0.0
C97 C 0.64431 0.93614 0.92326 0.0
C98 C 0.61376 0.97166 0.90388 0.0
C99 C 0.632 0.95032 0.87694 0.0
H100 H 0.59334 0.03126 0.20982 0.0
H101 H 0.6366 0.94485 0.82056 0.0
H102 H 0.46043 0.99631 0.79486 0.0
H103 H 0.40839 0.00891 0.18707 0.0
H104 H 0.60458 0.98278 0.86824 0.0
H105 H 0.65831 0.91955 0.90215 0.0
H106 H 0.43978 0.98003 0.10125 0.0
H107 H 0.61349 0.00977 0.30135 0.0
H108 H 0.66522 0.9139 0.02819 0.0
H109 H 0.65734 0.93065 0.15829 0.0
H110 H 0.43406 0.03003 0.74752 0.0
H111 H 0.63774 0.96625 0.26077 0.0
H112 H 0.38765 0.04931 0.16074 0.0
N113 N 0.44803 0.01228 0.902 0.0
C114 C 0.4307 0.0296 0.94554 0.0
C115 C 0.43316 0.03029 0.80358 0.0
C116 C 0.41529 0.04917 0.92137 0.0
C117 C 0.44805 0.01126 0.83037 0.0
C118 C 0.41723 0.04973 0.84978 0.0
N119 N 0.44065 0.00586 0.03086 0.0
C120 C 0.43248 -0.00153 0.09065 0.0
C121 C 0.40806 0.04298 0.05907 0.0
C122 C 0.42731 0.02656 0.01308 0.0
C123 C 0.40231 0.0372 0.1238 0.0
C124 C 0.41401 0.01445 0.13888 0.0
H125 H 0.40572 0.06445 0.82898 0.0
H126 H 0.38591 0.08224 0.95149 0.0
H127 H 0.3795 0.07677 0.07233 0.0
O128 O 0.42481 0.95233 0.93718 0.0
O129 O 0.50039 0.02707 0.95165 0.0
O130 O 0.54554 0.04419 0.05316 0.0
O131 O 0.45228 0.94989 0.84721 0.0
O132 O 0.49552 0.98532 0.06405 0.0
O133 O 0.54595 0.02399 0.10916 0.0
O134 O 0.6097 0.04246 0.9831 0.0
O135 O 0.55426 0.96483 0.96532 0.0
O136 O 0.50089 0.9575 1.00069 0.0
O137 O 0.6279 0.04027 0.08973 0.0
O138 O 0.55911 0.01219 0.91267 0.0
O139 O 0.50857 0.97386 0.87125 0.0
C140 C 0.52376 0.04906 0.00403 0.0
C141 C 0.42785 0.90482 0.86204 0.0
C142 C 0.40618 0.85919 0.88622 0.0
C143 C 0.43176 0.84748 0.85096 0.0
C144 C 0.45306 0.89238 0.82663 0.0
C145 C 0.45486 0.86397 0.82115 0.0
C146 C 0.40417 0.88789 0.89113 0.0
C147 C 0.51883 0.00617 0.11983 0.0
C148 C 0.42784 0.93585 0.87203 0.0
C149 C 0.39766 0.06679 0.96855 0.0
C150 C 0.39406 0.06371 0.03739 0.0
C151 C 0.52812 0.94787 0.98126 0.0
C152 C 0.64169 0.08692 0.07708 0.0
C153 C 0.67467 0.13556 0.08303 0.0
C154 C 0.65615 0.14864 0.13679 0.0
C155 C 0.62404 0.10049 0.13168 0.0
C156 C 0.667 0.10449 0.053 0.0
C157 C 0.63117 0.13118 0.16102 0.0
C158 C 0.53362 0.99291 0.85891 0.0
C159 C 0.63337 0.05452 0.04422 0.0
H160 H 0.43355 0.82533 0.84539 0.0
H161 H 0.47183 0.90466 0.80374 0.0
H162 H 0.47436 0.85475 0.79373 0.0
H163 H 0.38481 0.89726 0.91895 0.0
H164 H 0.6608 0.1724 0.1599 0.0
H165 H 0.6046 0.08732 0.1513 0.0
H166 H 0.68102 0.0939 0.01181 0.0
H167 H 0.61715 0.14149 0.20251 0.0
Tb168 Tb 0.51835 0.45505 0.97329 0.0
C169 C 0.62802 0.57181 0.1208 0.0
N170 N 0.59469 0.5644 0.13284 0.0
C171 C 0.61721 0.58371 0.26493 0.0
C172 C 0.65746 0.58406 0.18019 0.0
C173 C 0.58888 0.57228 0.20417 0.0
C174 C 0.65173 0.58902 0.25282 0.0
C175 C 0.6659 0.57931 0.03464 0.0
C176 C 0.63234 0.56942 0.04924 0.0
C177 C 0.69557 0.58997 0.09283 0.0
C178 C 0.69137 0.59222 0.16547 0.0
Tb179 Tb 0.55089 0.54392 0.02763 0.0
N180 N 0.6032 0.55815 0.99404 0.0
C181 C 0.66839 0.57877 0.96239 0.0
C182 C 0.60504 0.55914 0.92454 0.0
C183 C 0.63773 0.56913 0.90742 0.0
H184 H 0.56244 0.57023 0.21485 0.0
H185 H 0.63927 0.56928 0.8519 0.0
H186 H 0.4821 0.43368 0.79492 0.0
H187 H 0.46422 0.44325 0.21109 0.0
H188 H 0.58131 0.5518 0.8823 0.0
H189 H 0.69369 0.5863 0.9489 0.0
H190 H 0.51166 0.45092 0.14214 0.0
H191 H 0.61238 0.58899 0.32113 0.0
H192 H 0.72172 0.59723 0.08264 0.0
H193 H 0.71435 0.60132 0.21026 0.0
H194 H 0.42214 0.41272 0.71697 0.0
H195 H 0.67361 0.59834 0.30003 0.0
H196 H 0.40184 0.42843 0.14623 0.0
N197 N 0.46438 0.43625 0.89614 0.0
C198 C 0.43662 0.42932 0.92852 0.0
C199 C 0.42585 0.41754 0.77652 0.0
C200 C 0.40199 0.41738 0.88632 0.0
C201 C 0.45974 0.42965 0.82087 0.0
C202 C 0.39681 0.41163 0.80944 0.0
N203 N 0.47713 0.44598 0.04312 0.0
C204 C 0.48484 0.4471 0.11504 0.0
C205 C 0.41498 0.4288 0.04065 0.0
C206 C 0.44313 0.43514 0.00479 0.0
C207 C 0.4227 0.43301 0.11656 0.0
C208 C 0.45785 0.44159 0.15351 0.0
H209 H 0.37058 0.40246 0.77499 0.0
H210 H 0.34689 0.40305 0.89096 0.0
H211 H 0.35825 0.41298 0.02603 0.0
O212 O 0.51186 0.41395 0.98847 0.0
O213 O 0.48113 0.48168 0.9545 0.0
O214 O 0.49825 0.52677 0.04912 0.0
O215 O 0.53498 0.42098 0.89904 0.0
O216 O 0.54733 0.48169 0.08692 0.0
O217 O 0.53261 0.52635 0.11237 0.0
O218 O 0.52899 0.56694 0.96621 0.0
O219 O 0.58585 0.51545 0.98213 0.0
O220 O 0.57513 0.476 0.02291 0.0
O221 O 0.55542 0.58949 0.07941 0.0
O222 O 0.52395 0.51664 0.91296 0.0
O223 O 0.53556 0.4704 0.8842 0.0
C224 C 0.47316 0.50356 0.00422 0.0
C225 C 0.55395 0.38765 0.95268 0.0
C226 C 0.56921 0.34521 0.97798 0.0
C227 C 0.60499 0.36089 0.99616 0.0
C228 C 0.5899 0.40249 0.97113 0.0
C229 C 0.61516 0.38914 0.99244 0.0
C230 C 0.54368 0.35878 0.95551 0.0
C231 C 0.54246 0.50582 0.13389 0.0
C232 C 0.52706 0.40273 0.93451 0.0
C233 C 0.37377 0.4119 0.92225 0.0
C234 C 0.38024 0.41769 0.99926 0.0
C235 C 0.59698 0.49561 0.00468 0.0
C236 C 0.51407 0.61098 0.03094 0.0
C237 C 0.49826 0.65643 0.02804 0.0
C238 C 0.46592 0.64609 0.047 0.0
C239 C 0.48163 0.60139 0.04951 0.0
C240 C 0.52243 0.63861 0.02066 0.0
C241 C 0.45779 0.61892 0.05763 0.0
C242 C 0.53036 0.49318 0.86594 0.0
C243 C 0.53914 0.59222 0.02047 0.0
H244 H 0.6253 0.35115 0.01273 0.0
H245 H 0.59846 0.42453 0.96955 0.0
H246 H 0.64283 0.40084 0.00658 0.0
H247 H 0.51594 0.34726 0.94211 0.0
H248 H 0.44691 0.6592 0.05453 0.0
H249 H 0.47473 0.58032 0.05751 0.0
H250 H 0.54739 0.64589 0.00554 0.0
H251 H 0.4328 0.61139 0.07221 0.0
H252 H 0.07693 0.53501 0.83245 0.0
H253 H 0.07686 0.53453 0.70568 0.0
H254 H 0.97625 0.46971 0.62954 0.0
H255 H 0.97653 0.46949 0.75647 0.0
H256 H 1.02159 0.45511 0.53906 0.0
H257 H 1.02216 0.57205 0.59087 0.0
H258 H 0.05806 0.56829 0.6502 0.0
H259 H 1.01335 0.55451 0.65832 0.0
C260 C 0.05454 0.52086 0.789 0.0
C261 C 1.02661 0.50239 0.80472 0.0
C262 C 0.05449 0.52073 0.71647 0.0
C263 C 1.02622 0.50254 0.65821 0.0
C264 C 0.99825 0.48407 0.67368 0.0
H265 H 0.98103 0.47558 0.18416 0.0
H266 H 0.97756 0.47569 0.31031 0.0
C267 C 0.99842 0.48399 0.74624 0.0
C268 C 1.02661 0.50196 0.58078 0.0
H269 H 1.03532 0.5459 0.47445 0.0
C270 C 1.02424 0.47492 0.52485 0.0
C271 C 1.03008 0.52782 0.56213 0.0
C272 C 1.03069 0.55724 0.6184 0.0
C273 C 1.02607 0.47319 0.45134 0.0
C274 C 1.03024 0.49912 0.4333 0.0
C275 C 1.03234 0.5261 0.48881 0.0
C276 C 1.03244 0.49867 0.35688 0.0
C277 C 1.02427 0.44379 0.3936 0.0
C278 C 0.06444 0.51162 0.34158 0.0
C279 C 0.06657 0.51137 0.26955 0.0
C280 C 0.03655 0.49869 0.21197 0.0
C281 C 1.00457 0.4856 0.22747 0.0
C282 C 1.00253 0.48563 0.29938 0.0
H283 H 1.02676 0.4268 0.41896 0.0
H284 H 0.99857 0.4359 0.35402 0.0
H285 H 0.04546 0.44609 0.36121 0.0
H286 H 0.08783 0.52166 0.38528 0.0
H287 H 0.09178 0.52094 0.25884 0.0
H288 H 0.48942 0.96 0.16072 0.0
H289 H 0.49034 0.95873 0.28648 0.0
H290 H 0.54589 0.05096 0.37873 0.0
H291 H 0.5444 0.05259 0.25235 0.0
H292 H 0.5768 0.00993 0.43441 0.0
H293 H 0.4347 0.99747 0.44587 0.0
H294 H 0.44438 0.97317 0.36372 0.0
H295 H 0.45496 0.01219 0.38161 0.0
C296 C 0.50132 0.98019 0.20764 0.0
C297 C 0.51708 0.00638 0.1965 0.0
C298 C 0.50185 0.97938 0.27956 0.0
C299 C 0.51805 0.00476 0.34196 0.0
C300 C 0.53323 0.03112 0.33126 0.0
H301 H 0.56892 0.03715 0.81765 0.0
H302 H 0.56552 0.03979 0.69296 0.0
C303 C 0.53241 0.03201 0.25914 0.0
C304 C 0.52047 0.00326 0.41809 0.0
H305 H 0.4708 0.99169 0.54454 0.0
C306 C 0.55369 0.00615 0.45883 0.0
C307 C 0.49023 -0.00206 0.44929 0.0
C308 C 0.45401 0.9952 0.40832 0.0
C309 C 0.55744 0.00338 0.52955 0.0
C310 C 0.52721 -0.00163 0.56133 0.0
C311 C 0.49397 0.9955 0.52037 0.0
C312 C 0.52955 0.99648 0.63733 0.0
C313 C 0.59365 0.005 0.56847 0.0
C314 C 0.50971 0.97158 0.64834 0.0
C315 C 0.51134 0.9701 0.72003 0.0
C316 C 0.53281 0.99354 0.78223 0.0
C317 C 0.55257 0.01845 0.77097 0.0
C318 C 0.55074 0.01998 0.6995 0.0
H319 H 0.61139 -0.00027 0.52835 0.0
H320 H 0.60571 0.02777 0.60832 0.0
H321 H 0.59225 0.98958 0.59993 0.0
H322 H 0.49298 0.95323 0.60137 0.0
H323 H 0.49566 0.95066 0.72673 0.0
H324 H 0.50369 0.52719 0.79807 0.0
H325 H 0.50728 0.5288 0.6742 0.0
H326 H 0.56293 0.46062 0.6353 0.0
H327 H 0.55868 0.45837 0.7593 0.0
H328 H 0.56471 0.54336 0.61895 0.0
H329 H 0.48846 0.42898 0.44728 0.0
H330 H 0.48873 0.4448 0.54539 0.0
H331 H 0.52504 0.43082 0.51486 0.0
C332 C 0.51643 0.51228 0.76307 0.0
C333 C 0.5308 0.49254 0.78862 0.0
C334 C 0.51851 0.51329 0.69214 0.0
C335 C 0.53504 0.49465 0.64489 0.0
C336 C 0.54933 0.47478 0.66998 0.0
H337 H 0.58328 0.48188 0.20904 0.0
H338 H 0.58305 0.4805 0.33476 0.0
C339 C 0.54699 0.47356 0.741 0.0
C340 C 0.53822 0.49699 0.5707 0.0
H341 H 0.51768 0.45788 0.3836 0.0
C342 C 0.55432 0.52466 0.56752 0.0
C343 C 0.52463 0.47261 0.50345 0.0
C344 C 0.50544 0.44269 0.50258 0.0
C345 C 0.55737 0.52856 0.49921 0.0
C346 C 0.54389 0.5042 0.43228 0.0
C347 C 0.52807 0.47649 0.43522 0.0
C348 C 0.54577 0.507 0.3584 0.0
C349 C 0.57533 0.5586 0.4989 0.0
C350 C 0.52517 0.52268 0.33042 0.0
C351 C 0.52508 0.52338 0.25836 0.0
C352 C 0.54561 0.50839 0.21319 0.0
C353 C 0.5671 0.49356 0.24247 0.0
C354 C 0.56697 0.4927 0.31415 0.0
H355 H 0.5899 0.57374 0.55524 0.0
H356 H 0.59403 0.55666 0.46001 0.0
H357 H 0.55517 0.56861 0.47928 0.0
H358 H 0.50835 0.53362 0.36351 0.0
H359 H 0.50798 0.5347 0.23704 0.0
H360 H 0.13219 0.48098 0.8952 0.0
H361 H 0.19405 0.48037 0.89405 0.0
H362 H 0.21904 0.51996 0.13344 0.0
H363 H 0.15693 0.51935 0.13482 0.0
H364 H 0.254 0.52331 0.93533 0.0
H365 H 0.26649 0.45443 0.10932 0.0
H366 H 0.22435 0.45834 0.07248 0.0
H367 H 0.25214 0.48642 0.15535 0.0
C368 C 0.15073 0.48922 0.94779 0.0
C369 C 0.13918 0.50021 0.01512 0.0
C370 C 0.18639 0.48904 0.94707 0.0
C371 C 0.21185 0.49972 0.0137 0.0
C372 C 0.20032 0.51088 0.08102 0.0
H373 H 0.44331 0.52794 0.12313 0.0
H374 H 0.38089 0.52693 0.1248 0.0
C375 C 0.16462 0.51092 0.08174 0.0
C376 C 0.25033 0.49992 0.01244 0.0
H377 H 0.32007 0.47876 0.08506 0.0
C378 C 0.26822 0.51336 0.96786 0.0
C379 C 0.26959 0.487 0.05451 0.0
C380 C 0.25211 0.47047 0.10001 0.0
C381 C 0.30429 0.5148 0.96545 0.0
C382 C 0.32359 0.50215 0.00804 0.0
C383 C 0.30576 0.48866 0.05254 0.0
C384 C 0.36208 0.50263 0.00689 0.0
C385 C 0.3217 0.53059 0.91844 0.0
C386 C 0.37303 0.48918 0.9404 0.0
C387 C 0.40884 0.48973 0.93946 0.0
C388 C 0.43499 0.50358 0.00498 0.0
C389 C 0.42409 0.51713 0.07146 0.0
C390 C 0.38821 0.51642 0.07252 0.0
H391 H 0.30652 0.54546 0.90479 0.0
H392 H 0.34894 0.54383 0.94726 0.0
H393 H 0.32327 0.51405 0.86533 0.0
H394 H 0.35378 0.47795 0.88894 0.0
H395 H 0.4161 0.47939 0.88701 0.0
H396 H 0.68853 0.12692 0.94242 0.0
H397 H 0.73438 0.15794 0.90506 0.0
H398 H 0.7683 0.21809 0.13201 0.0
H399 H 0.72328 0.18697 0.17034 0.0
H400 H 0.75724 0.24455 0.01625 0.0
H401 H 0.84353 0.16738 0.95973 0.0
H402 H 0.79744 0.15235 0.91759 0.0
H403 H 0.81084 0.16479 0.01698 0.0
C404 C 0.70601 0.14655 0.98459 0.0
C405 C 0.70222 0.15438 0.05947 0.0
C406 C 0.73209 0.16429 0.96306 0.0
C407 C 0.75483 0.19016 0.01593 0.0
C408 C 0.75095 0.19821 0.0904 0.0
H409 H 0.92563 0.33376 0.02538 0.0
H410 H 0.87706 0.30124 0.05154 0.0
C411 C 0.72505 0.18045 0.11207 0.0
C412 C 0.78266 0.20903 0.99392 0.0
H413 H 0.86128 0.21167 0.93619 0.0
C414 C 0.77999 0.23741 0.99859 0.0
C415 C 0.81213 0.19951 0.9706 0.0
C416 C 0.81651 0.16943 0.96622 0.0
C417 C 0.80603 0.25656 0.98025 0.0
C418 C 0.836 0.24733 0.95859 0.0
C419 C 0.83837 0.21876 0.95297 0.0
C420 C 0.86548 0.26711 0.94269 0.0
C421 C 0.80083 0.28628 0.98307 0.0
C422 C 0.87594 0.25836 0.8737 0.0
C423 C 0.90395 0.2768 0.85889 0.0
C424 C 0.92207 0.30436 0.91285 0.0
C425 C 0.9118 0.3129 0.98222 0.0
C426 C 0.88396 0.29438 0.99714 0.0
H427 H 0.77253 0.28631 0.97805 0.0
H428 H 0.81528 0.30317 0.03738 0.0
H429 H 0.81109 0.29285 0.93796 0.0
H430 H 0.86219 0.23736 0.83099 0.0
H431 H 0.91105 0.26969 0.80472 0.0
H432 H 0.56885 0.91158 0.91422 0.0
H433 H 0.57004 0.86261 0.91888 0.0
H434 H 0.488 0.86567 0.04768 0.0
H435 H 0.48795 0.91475 0.04619 0.0
H436 H 0.53975 0.84619 0.10647 0.0
H437 H 0.49992 0.78388 0.80241 0.0
H438 H 0.53916 0.81374 0.82947 0.0
H439 H 0.49752 0.82147 0.84314 0.0
C440 C 0.55165 0.90208 0.94481 0.0
C441 C 0.52904 0.91767 0.98136 0.0
C442 C 0.55183 0.87374 0.94632 0.0
C443 C 0.52893 0.86007 0.98336 0.0
C444 C 0.50611 0.87555 0.01905 0.0
H445 H 0.45339 0.67898 0.95553 0.0
H446 H 0.46402 0.72791 0.94488 0.0
C447 C 0.50608 0.90377 0.01792 0.0
C448 C 0.52866 0.82997 0.98659 0.0
H449 H 0.51244 0.75686 0.87942 0.0
C450 C 0.53401 0.82672 0.05669 0.0
C451 C 0.52091 0.80431 0.92189 0.0
C452 C 0.51375 0.80582 0.84487 0.0
C453 C 0.53148 0.79882 0.06388 0.0
C454 C 0.52371 0.77318 0.99922 0.0
C455 C 0.51867 0.77642 0.92911 0.0
C456 C 0.51838 0.74273 1.00324 0.0
C457 C 0.53591 0.79692 0.14084 0.0
C458 C 0.54556 0.73417 0.03825 0.0
C459 C 0.53952 0.70598 0.04457 0.0
C460 C 0.50607 0.68566 0.01628 0.0
C461 C 0.47931 0.69408 0.97927 0.0
C462 C 0.48541 0.7221 0.97265 0.0
H463 H 0.53437 0.81755 0.18376 0.0
H464 H 0.51542 0.77818 0.1428 0.0
H465 H 0.56212 0.79314 0.15543 0.0
H466 H 0.57144 0.74938 0.06129 0.0
H467 H 0.56077 0.70043 0.07352 0.0
H468 H 0.91178 0.45528 0.91897 0.0
H469 H 0.84969 0.45329 0.92076 0.0
H470 H 0.87919 0.54037 0.08793 0.0
H471 H 0.94134 0.54131 0.09081 0.0
H472 H 0.82743 0.5117 0.12186 0.0
H473 H 0.78541 0.48559 0.82018 0.0
H474 H 0.80382 0.45754 0.83725 0.0
H475 H 0.8312 0.49469 0.86343 0.0
C476 C 0.90526 0.47418 0.95603 0.0
C477 C 0.93234 0.49893 1.00315 0.0
C478 C 0.8693 0.47314 0.95637 0.0
C479 C 0.85877 0.49709 1.00249 0.0
C480 C 0.88583 0.52159 0.05064 0.0
H481 H 0.64148 0.51438 0.92048 0.0
H482 H 0.70384 0.51606 0.92521 0.0
C483 C 0.92182 0.52236 0.05142 0.0
C484 C 0.81997 0.49634 1.00218 0.0
H485 H 0.73935 0.47968 0.88762 0.0
C486 C 0.80835 0.50484 0.07035 0.0
C487 C 0.79436 0.48798 0.93568 0.0
C488 C 0.80439 0.48127 0.86015 0.0
C489 C 0.77269 0.50496 0.07391 0.0
C490 C 0.74677 0.49509 0.00728 0.0
C491 C 0.75847 0.48685 0.93919 0.0
C492 C 0.70795 0.49438 0.00641 0.0
C493 C 0.76367 0.51684 0.14963 0.0
C494 C 0.68809 0.48136 0.04947 0.0
C495 C 0.65226 0.48148 0.04882 0.0
C496 C 0.6348 0.49411 0.00398 0.0
C497 C 0.65416 0.50572 0.95834 0.0
C498 C 0.69003 0.50619 0.96011 0.0
H499 H 0.78721 0.53205 0.19159 0.0
H500 H 0.74297 0.52891 0.14804 0.0
H501 H 0.7539 0.49822 0.16872 0.0
H502 H 0.70014 0.47087 0.08356 0.0
H503 H 0.63829 0.47184 0.08394 0.0
H504 H 0.24957 0.63415 1.00168 0.0
H505 H 0.28138 0.67677 0.97546 0.0
H506 H 0.20991 0.72644 0.06983 0.0
H507 H 0.17815 0.68397 0.09722 0.0
H508 H 0.25282 0.70855 0.88796 0.0
H509 H 0.31157 0.77844 0.18367 0.0
H510 H 0.2941 0.73893 0.15452 0.0
H511 H 0.26464 0.7624 0.16102 0.0
C512 C 0.2407 0.65418 0.01713 0.0
C513 C 0.21146 0.65575 0.05183 0.0
C514 C 0.25878 0.67844 1.0018 0.0
C515 C 0.24819 0.7048 0.02143 0.0
C516 C 0.21869 0.70636 0.05499 0.0
H517 H 0.33448 0.85021 0.86936 0.0
H518 H 0.2934 0.81522 0.90653 0.0
C519 C 0.20043 0.68202 0.06997 0.0
C520 C 0.26826 0.73056 0.00666 0.0
H521 H 0.32543 0.79888 0.09214 0.0
C522 C 0.26844 0.72844 0.93248 0.0
C523 C 0.28877 0.75632 0.06506 0.0
C524 C 0.29013 0.7593 0.14568 0.0
C525 C 0.28901 0.75128 0.91503 0.0
C526 C 0.30973 0.77696 0.9734 0.0
C527 C 0.30923 0.77925 0.04763 0.0
C528 C 0.33424 0.80051 0.95815 0.0
C529 C 0.28947 0.74734 0.83436 0.0
C530 C 0.37075 0.80455 0.97737 0.0
C531 C 0.39417 0.82449 0.95647 0.0
C532 C 0.3815 0.84089 0.91629 0.0
C533 C 0.34497 0.83793 0.90044 0.0
C534 C 0.32151 0.81782 0.9211 0.0
H535 H 0.2766 0.72429 0.79675 0.0
H536 H 0.27518 0.76215 0.81782 0.0
H537 H 0.317 0.7534 0.82618 0.0
H538 H 0.38108 0.7915 0.00629 0.0
H539 H 0.42221 0.82662 0.97035 0.0
H540 H 0.52485 0.29375 0.87529 0.0
H541 H 0.5146 0.24357 0.88063 0.0
H542 H 0.58195 0.27814 0.09802 0.0
H543 H 0.59239 0.32803 0.09289 0.0
H544 H 0.57234 0.21409 0.90526 0.0
H545 H 0.48912 0.22421 0.12029 0.0
H546 H 0.49324 0.24809 0.06573 0.0
H547 H 0.52835 0.25371 0.141 0.0
C548 C 0.537 0.2907 0.9247 0.0
C549 C 0.55947 0.31502 0.9836 0.0
C550 C 0.5313 0.26197 0.92752 0.0
C551 C 0.54735 0.25696 0.98993 0.0
C552 C 0.569 0.28132 0.04953 0.0
H553 H 0.54974 0.10206 0.12054 0.0
H554 H 0.55659 0.15212 0.11658 0.0
C555 C 0.57505 0.30988 0.04634 0.0
C556 C 0.54293 0.22631 0.99185 0.0
H557 H 0.50907 0.18082 0.08318 0.0
C558 C 0.55826 0.20673 0.94374 0.0
C559 C 0.52511 0.21676 0.04288 0.0
C560 C 0.50775 0.23662 0.09524 0.0
C561 C 0.55672 0.1782 0.946 0.0
C562 C 0.53833 0.16839 0.99621 0.0
C563 C 0.52308 0.18807 0.04448 0.0
C564 C 0.53436 0.13779 0.99886 0.0
C565 C 0.57592 0.15924 0.89617 0.0
C566 C 0.51917 0.11276 0.93459 0.0
C567 C 0.51584 0.08419 0.93662 0.0
C568 C 0.52716 0.07969 1.0032 0.0
C569 C 0.54156 0.10467 0.06798 0.0
C570 C 0.54513 0.13335 0.06586 0.0
H571 H 0.59723 0.1728 0.87919 0.0
H572 H 0.58772 0.14592 0.92421 0.0
H573 H 0.55701 0.14394 0.84482 0.0
H574 H 0.50974 0.11527 0.88251 0.0
H575 H 0.50481 0.06558 0.88549 0.0
loop_
_geom_bond_atom_site_label_1
_geom_bond_atom_site_label_2
_geom_bond_distance
_geom_bond_site_symmetry_2
_ccdc_geom_bond_type
Tb0 N29 2.617 . S
Tb0 N35 2.572 1_455 S
Tb0 O44 2.465 1_554 S
Tb0 O45 2.387 1_455 S
Tb0 O47 2.428 . S
Tb0 O48 2.308 1_554 S
Tb0 O52 2.349 . S
Tb0 O55 2.393 . S
Tb0 C64 2.802 . S
C1 N2 1.384 . S
C1 C4 1.416 . S
C1 C8 1.424 . S
N2 C1 1.384 . S
N2 C5 1.334 1_455 S
N2 Tb11 2.614 1_455 S
C3 C5 1.390 1_455 S
C3 C6 1.339 . S
C3 H23 0.927 1_455 S
C4 C1 1.416 . S
C4 C6 1.416 . S
C4 C10 1.448 . S
C5 N2 1.334 1_655 S
C5 C3 1.390 1_655 S
C5 H16 0.930 . S
C6 C3 1.339 . S
C6 C4 1.416 . S
C6 H27 0.930 . S
C7 C8 1.413 . S
C7 C9 1.427 . S
C7 C13 1.416 1_556 S
C8 C1 1.424 . S
C8 C7 1.413 . S
C8 N12 1.361 . S
C9 C7 1.427 . S
C9 C10 1.328 . S
C9 H24 0.929 . S
C10 C4 1.448 . S
C10 C9 1.328 . S
C10 H25 0.930 . S
Tb11 N2 2.614 1_655 S
Tb11 N12 2.572 1_655 S
Tb11 O46 2.349 . S
Tb11 O49 2.393 . S
Tb11 O50 2.465 1_556 S
Tb11 O51 2.387 1_655 S
Tb11 O53 2.428 . S
Tb11 O54 2.308 1_656 S
Tb11 C75 2.802 . S
N12 C8 1.361 . S
N12 Tb11 2.572 1_455 S
N12 C14 1.340 1_556 S
C13 C7 1.416 1_554 S
C13 C15 1.332 . S
C13 H21 0.931 . S
C14 N12 1.340 1_554 S
C14 C15 1.407 . S
C14 H20 0.930 . S
C15 C13 1.332 . S
C15 C14 1.407 . S
C15 H17 0.929 . S
H16 C5 0.930 . S
H17 C15 0.929 . S
H18 C33 0.930 . S
H19 C40 0.929 . S
H20 C14 0.930 . S
H21 C13 0.931 . S
H22 C36 0.930 . S
H23 C3 0.927 1_655 S
H24 C9 0.929 . S
H25 C10 0.930 . S
H26 C31 0.930 1_455 S
H27 C6 0.930 . S
H28 C39 0.931 . S
N29 Tb0 2.617 . S
N29 C30 1.379 1_455 S
N29 C33 1.334 . S
C30 N29 1.379 1_655 S
C30 C32 1.416 . S
C30 C38 1.424 . S
C31 H26 0.930 1_655 S
C31 C33 1.390 1_655 S
C31 C34 1.339 . S
C32 C30 1.416 . S
C32 C34 1.416 . S
C32 C65 1.448 . S
C33 H18 0.930 . S
C33 N29 1.334 . S
C33 C31 1.390 1_455 S
C34 C31 1.339 . S
C34 C32 1.416 . S
C34 H41 0.930 . S
N35 Tb0 2.572 1_655 S
N35 C36 1.340 1_554 S
N35 C38 1.361 . S
C36 H22 0.930 . S
C36 N35 1.340 1_556 S
C36 C40 1.407 . S
C37 C38 1.413 . S
C37 C39 1.416 1_554 S
C37 C66 1.427 . S
C38 C30 1.424 . S
C38 N35 1.361 . S
C38 C37 1.413 . S
C39 H28 0.931 . S
C39 C37 1.416 1_556 S
C39 C40 1.332 . S
C40 H19 0.929 . S
C40 C36 1.407 . S
C40 C39 1.332 . S
H41 C34 0.930 . S
H42 C65 0.930 . S
H43 C66 0.929 . S
O44 Tb0 2.465 1_556 S
O44 C64 1.264 1_556 S
O45 Tb0 2.387 1_655 S
O45 C56 1.262 1_554 S
O46 Tb11 2.349 . S
O46 C56 1.244 . S
O47 Tb0 2.428 . S
O47 C64 1.256 . S
O48 Tb0 2.308 1_556 S
O48 C63 1.266 1_455 S
O49 Tb11 2.393 . S
O49 C63 1.248 . S
O50 Tb11 2.465 1_554 S
O50 C75 1.264 1_554 S
O51 Tb11 2.387 1_455 S
O51 C67 1.264 1_556 S
O52 Tb0 2.349 . S
O52 C67 1.243 . S
O53 Tb11 2.428 . S
O53 C75 1.256 . S
O54 Tb11 2.308 1_454 S
O54 C74 1.266 . S
O55 Tb0 2.393 . S
O55 C74 1.248 . S
C56 O45 1.262 1_556 S
C56 O46 1.244 . S
C57 C60 1.399 . S
C57 C62 1.383 . S
C57 C64 1.496 . S
C58 C59 1.399 . S
C58 C62 1.389 . S
C59 C58 1.399 . S
C59 C61 1.380 . S
C59 H76 0.929 . S
C60 C57 1.399 . S
C60 C61 1.392 . S
C60 H77 0.929 . S
C61 C59 1.380 . S
C61 C60 1.392 . S
C61 H78 0.929 . S
C62 C57 1.383 . S
C62 C58 1.389 . S
C62 H79 0.931 1_554 S
C63 O48 1.266 1_655 S
C63 O49 1.248 . S
C64 Tb0 2.802 . S
C64 O44 1.264 1_554 S
C64 O47 1.256 . S
C64 C57 1.496 . S
C65 C32 1.448 . S
C65 H42 0.930 . S
C65 C66 1.328 . S
C66 C37 1.427 . S
C66 H43 0.929 . S
C66 C65 1.328 . S
C67 O51 1.264 1_554 S
C67 O52 1.243 . S
C68 C71 1.399 . S
C68 C72 1.383 . S
C68 C75 1.496 . S
C69 C70 1.399 . S
C69 C72 1.389 . S
C70 C69 1.399 . S
C70 C73 1.380 . S
C70 H80 0.929 . S
C71 C68 1.399 . S
C71 C73 1.392 . S
C71 H81 0.929 . S
C72 C68 1.383 . S
C72 C69 1.389 . S
C72 H82 0.931 1_556 S
C73 C70 1.380 . S
C73 C71 1.392 . S
C73 H83 0.929 . S
C74 O54 1.266 . S
C74 O55 1.248 . S
C75 Tb11 2.802 . S
C75 O50 1.264 1_556 S
C75 O53 1.256 . S
C75 C68 1.496 . S
H76 C59 0.929 . S
H77 C60 0.929 . S
H78 C61 0.929 . S
H79 C62 0.931 1_556 S
H80 C70 0.929 . S
H81 C71 0.929 . S
H82 C72 0.931 1_554 S
H83 C73 0.929 . S
Tb84 N113 2.617 . S
Tb84 N119 2.572 1_566 S
Tb84 O128 2.465 1_556 S
Tb84 O129 2.387 1_565 S
Tb84 O131 2.428 . S
Tb84 O132 2.308 1_566 S
Tb84 O136 2.349 . S
Tb84 O139 2.393 . S
Tb84 C148 2.802 . S
C85 N86 1.379 1_565 S
C85 C88 1.416 . S
C85 C92 1.424 . S
N86 C85 1.379 1_545 S
N86 C89 1.334 . S
N86 Tb95 2.617 . S
C87 C89 1.390 . S
C87 C90 1.339 1_545 S
C87 H107 0.930 . S
C88 C85 1.416 . S
C88 C90 1.416 . S
C88 C94 1.448 . S
C89 N86 1.334 . S
C89 C87 1.390 . S
C89 H100 0.930 . S
C90 C87 1.339 1_565 S
C90 C88 1.416 . S
C90 H111 0.930 . S
C91 C92 1.408 1_556 S
C91 C93 1.416 1_556 S
C91 C97 1.431 . S
C92 C85 1.424 . S
C92 C91 1.408 1_554 S
C92 N96 1.361 1_554 S
C93 C91 1.416 1_554 S
C93 C94 1.328 . S
C93 H108 0.929 . S
C94 C88 1.448 . S
C94 C93 1.328 . S
C94 H109 0.930 . S
Tb95 N86 2.617 . S
Tb95 N96 2.572 1_544 S
Tb95 O130 2.349 . S
Tb95 O133 2.393 . S
Tb95 O134 2.465 1_554 S
Tb95 O135 2.387 1_545 S
Tb95 O137 2.428 . S
Tb95 O138 2.308 1_544 S
Tb95 C159 2.802 . S
N96 C92 1.361 1_556 S
N96 Tb95 2.572 1_566 S
N96 C98 1.340 . S
C97 C91 1.431 . S
C97 C99 1.332 . S
C97 H105 0.931 . S
C98 N96 1.340 . S
C98 C99 1.407 . S
C98 H104 0.930 . S
C99 C97 1.332 . S
C99 C98 1.407 . S
C99 H101 0.929 . S
H100 C89 0.930 . S
H101 C99 0.929 . S
H102 C117 0.930 . S
H103 C124 0.929 . S
H104 C98 0.930 . S
H105 C97 0.931 . S
H106 C120 0.930 . S
H107 C87 0.930 . S
H108 C93 0.929 . S
H109 C94 0.930 . S
H110 C115 0.930 . S
H111 C90 0.930 . S
H112 C123 0.931 . S
N113 Tb84 2.617 . S
N113 C114 1.379 1_565 S
N113 C117 1.334 . S
C114 N113 1.379 1_545 S
C114 C116 1.416 . S
C114 C122 1.424 . S
C115 H110 0.930 . S
C115 C117 1.390 . S
C115 C118 1.339 1_565 S
C116 C114 1.416 . S
C116 C118 1.416 . S
C116 C149 1.448 . S
C117 H102 0.930 . S
C117 N113 1.334 . S
C117 C115 1.390 . S
C118 C115 1.339 1_545 S
C118 C116 1.416 . S
C118 H125 0.930 . S
N119 Tb84 2.572 1_544 S
N119 C120 1.340 . S
N119 C122 1.361 1_554 S
C120 H106 0.930 . S
C120 N119 1.340 . S
C120 C124 1.407 . S
C121 C122 1.413 1_554 S
C121 C123 1.416 . S
C121 C150 1.427 1_554 S
C122 C114 1.424 . S
C122 N119 1.361 1_556 S
C122 C121 1.413 1_556 S
C123 H112 0.931 . S
C123 C121 1.416 . S
C123 C124 1.332 . S
C124 H103 0.929 . S
C124 C120 1.407 . S
C124 C123 1.332 . S
H125 C118 0.930 . S
H126 C149 0.930 . S
H127 C150 0.929 . S
O128 Tb84 2.465 1_554 S
O128 C148 1.264 1_554 S
O129 Tb84 2.387 1_545 S
O129 C140 1.264 1_556 S
O130 Tb95 2.349 . S
O130 C140 1.243 . S
O131 Tb84 2.428 . S
O131 C148 1.256 . S
O132 Tb84 2.308 1_544 S
O132 C147 1.266 . S
O133 Tb95 2.393 . S
O133 C147 1.248 . S
O134 Tb95 2.465 1_556 S
O134 C159 1.264 1_556 S
O135 Tb95 2.387 1_565 S
O135 C151 1.264 1_554 S
O136 Tb84 2.349 . S
O136 C151 1.243 . S
O137 Tb95 2.428 . S
O137 C159 1.256 . S
O138 Tb95 2.308 1_566 S
O138 C158 1.265 . S
O139 Tb84 2.393 . S
O139 C158 1.248 . S
C140 O129 1.264 1_554 S
C140 O130 1.243 . S
C141 C144 1.399 . S
C141 C146 1.383 1_556 S
C141 C148 1.496 . S
C142 C143 1.399 1_554 S
C142 C146 1.389 . S
C143 C142 1.399 1_556 S
C143 C145 1.380 . S
C143 H160 0.929 . S
C144 C141 1.399 . S
C144 C145 1.392 . S
C144 H161 0.929 . S
C145 C143 1.380 . S
C145 C144 1.392 . S
C145 H162 0.929 . S
C146 C141 1.383 1_554 S
C146 C142 1.389 . S
C146 H163 0.931 . S
C147 O132 1.266 . S
C147 O133 1.248 . S
C148 Tb84 2.802 . S
C148 O128 1.264 1_556 S
C148 O131 1.256 . S
C148 C141 1.496 . S
C149 C116 1.448 . S
C149 H126 0.930 . S
C149 C150 1.328 . S
C150 C121 1.427 1_556 S
C150 H127 0.929 . S
C150 C149 1.328 . S
C151 O135 1.264 1_556 S
C151 O136 1.243 . S
C152 C155 1.399 . S
C152 C156 1.383 1_554 S
C152 C159 1.496 . S
C153 C154 1.399 1_556 S
C153 C156 1.389 . S
C154 C153 1.399 1_554 S
C154 C157 1.380 . S
C154 H164 0.929 . S
C155 C152 1.399 . S
C155 C157 1.392 . S
C155 H165 0.929 . S
C156 C152 1.383 1_556 S
C156 C153 1.389 . S
C156 H166 0.931 . S
C157 C154 1.380 . S
C157 C155 1.392 . S
C157 H167 0.929 . S
C158 O138 1.265 . S
C158 O139 1.248 . S
C159 Tb95 2.802 . S
C159 O134 1.264 1_554 S
C159 O137 1.256 . S
C159 C152 1.496 . S
H160 C143 0.929 . S
H161 C144 0.929 . S
H162 C145 0.929 . S
H163 C146 0.931 . S
H164 C154 0.929 . S
H165 C155 0.929 . S
H166 C156 0.931 . S
H167 C157 0.929 . S
Tb168 N197 2.617 . S
Tb168 N203 2.572 . S
Tb168 O212 2.465 1_556 S
Tb168 O213 2.387 . S
Tb168 O215 2.428 . S
Tb168 O216 2.308 1_556 S
Tb168 O220 2.349 . S
Tb168 O223 2.393 . S
Tb168 C232 2.802 . S
C169 N170 1.379 . S
C169 C172 1.416 . S
C169 C176 1.424 . S
N170 C169 1.379 . S
N170 C173 1.334 . S
N170 Tb179 2.617 . S
C171 C173 1.390 . S
C171 C174 1.339 . S
C171 H191 0.930 . S
C172 C169 1.416 . S
C172 C174 1.416 . S
C172 C178 1.448 . S
C173 N170 1.334 . S
C173 C171 1.390 . S
C173 H184 0.930 . S
C174 C171 1.339 . S
C174 C172 1.416 . S
C174 H195 0.930 . S
C175 C176 1.413 . S
C175 C177 1.427 . S
C175 C181 1.415 . S
C176 C169 1.424 . S
C176 C175 1.413 . S
C176 N180 1.361 . S
C177 C175 1.427 . S
C177 C178 1.328 . S
C177 H192 0.929 . S
C178 C172 1.448 . S
C178 C177 1.328 . S
C178 H193 0.930 . S
Tb179 N170 2.617 . S
Tb179 N180 2.572 . S
Tb179 O214 2.349 . S
Tb179 O217 2.393 . S
Tb179 O218 2.465 1_554 S
Tb179 O219 2.387 . S
Tb179 O221 2.428 . S
Tb179 O222 2.308 1_554 S
Tb179 C243 2.802 . S
N180 C176 1.361 . S
N180 Tb179 2.572 . S
N180 C182 1.340 1_554 S
C181 C175 1.415 . S
C181 C183 1.333 1_554 S
C181 H189 0.931 1_554 S
C182 N180 1.340 1_556 S
C182 C183 1.407 . S
C182 H188 0.930 . S
C183 C181 1.333 1_556 S
C183 C182 1.407 . S
C183 H185 0.929 . S
H184 C173 0.930 . S
H185 C183 0.929 . S
H186 C201 0.930 . S
H187 C208 0.929 . S
H188 C182 0.930 . S
H189 C181 0.931 1_556 S
H190 C204 0.930 . S
H191 C171 0.930 . S
H192 C177 0.929 . S
H193 C178 0.930 . S
H194 C199 0.930 . S
H195 C174 0.930 . S
H196 C207 0.931 . S
N197 Tb168 2.617 . S
N197 C198 1.379 . S
N197 C201 1.334 . S
C198 N197 1.379 . S
C198 C200 1.416 . S
C198 C206 1.424 . S
C199 H194 0.930 . S
C199 C201 1.390 . S
C199 C202 1.339 . S
C200 C198 1.416 . S
C200 C202 1.416 . S
C200 C233 1.448 . S
C201 H186 0.930 . S
C201 N197 1.334 . S
C201 C199 1.390 . S
C202 C199 1.339 . S
C202 C200 1.416 . S
C202 H209 0.930 . S
N203 Tb168 2.572 . S
N203 C204 1.340 1_556 S
N203 C206 1.361 . S
C204 H190 0.930 . S
C204 N203 1.340 1_554 S
C204 C208 1.407 . S
C205 C206 1.413 . S
C205 C207 1.416 1_556 S
C205 C234 1.427 . S
C206 C198 1.424 . S
C206 N203 1.361 . S
C206 C205 1.413 . S
C207 H196 0.931 . S
C207 C205 1.416 1_554 S
C207 C208 1.332 . S
C208 H187 0.929 . S
C208 C204 1.407 . S
C208 C207 1.332 . S
H209 C202 0.930 . S
H210 C233 0.930 . S
H211 C234 0.929 . S
O212 Tb168 2.465 1_554 S
O212 C232 1.264 1_554 S
O213 Tb168 2.387 . S
O213 C224 1.264 . S
O214 Tb179 2.349 . S
O214 C224 1.243 1_554 S
O215 Tb168 2.428 . S
O215 C232 1.256 . S
O216 Tb168 2.308 1_554 S
O216 C231 1.266 . S
O217 Tb179 2.393 . S
O217 C231 1.248 . S
O218 Tb179 2.465 1_556 S
O218 C243 1.264 1_556 S
O219 Tb179 2.387 . S
O219 C235 1.264 . S
O220 Tb168 2.349 . S
O220 C235 1.243 1_556 S
O221 Tb179 2.428 . S
O221 C243 1.256 . S
O222 Tb179 2.308 1_556 S
O222 C242 1.266 . S
O223 Tb168 2.393 . S
O223 C242 1.248 . S
C224 O213 1.264 . S
C224 O214 1.243 1_556 S
C225 C228 1.399 . S
C225 C230 1.378 1_556 S
C225 C232 1.496 . S
C226 C227 1.399 . S
C226 C230 1.391 1_556 S
C227 C226 1.399 . S
C227 C229 1.380 . S
C227 H244 0.929 . S
C228 C225 1.399 . S
C228 C229 1.392 . S
C228 H245 0.929 . S
C229 C227 1.380 . S
C229 C228 1.392 . S
C229 H246 0.929 . S
C230 C225 1.378 1_554 S
C230 C226 1.391 1_554 S
C230 H247 0.935 . S
C231 O216 1.266 . S
C231 O217 1.248 . S
C232 Tb168 2.802 . S
C232 O212 1.264 1_556 S
C232 O215 1.256 . S
C232 C225 1.496 . S
C233 C200 1.448 . S
C233 H210 0.930 . S
C233 C234 1.328 . S
C234 C205 1.427 . S
C234 H211 0.929 . S
C234 C233 1.328 . S
C235 O219 1.264 . S
C235 O220 1.243 1_554 S
C236 C239 1.399 . S
C236 C240 1.398 . S
C236 C243 1.496 . S
C237 C238 1.399 . S
C237 C240 1.386 . S
C238 C237 1.399 . S
C238 C241 1.380 . S
C238 H248 0.929 . S
C239 C236 1.399 . S
C239 C241 1.392 . S
C239 H249 0.929 . S
C240 C236 1.398 . S
C240 C237 1.386 . S
C240 H250 0.919 1_554 S
C241 C238 1.380 . S
C241 C239 1.392 . S
C241 H251 0.929 . S
C242 O222 1.266 . S
C242 O223 1.248 . S
C243 Tb179 2.802 . S
C243 O218 1.264 1_554 S
C243 O221 1.256 . S
C243 C236 1.496 . S
H244 C227 0.929 . S
H245 C228 0.929 . S
H246 C229 0.929 . S
H247 C230 0.935 . S
H248 C238 0.929 . S
H249 C239 0.929 . S
H250 C240 0.919 1_556 S
H251 C241 0.929 . S
H252 C260 0.929 . S
H253 C262 0.930 . S
H254 C264 0.930 . S
H255 C267 0.929 . S
H256 C270 0.930 . S
H257 C272 0.960 . S
H258 C272 0.960 . S
H259 C272 0.960 . S
C260 H252 0.929 . S
C260 C261 1.392 . S
C260 C262 1.384 . S
C261 C260 1.392 . S
C261 C267 1.378 1_455 S
C262 H253 0.930 . S
C262 C260 1.384 . S
C262 C263 1.372 . S
C263 C262 1.372 . S
C263 C264 1.400 1_455 S
C263 C268 1.490 . S
C264 H254 0.930 . S
C264 C263 1.400 1_655 S
C264 C267 1.386 . S
H265 C281 0.930 . S
H266 C282 0.931 . S
C267 H255 0.929 . S
C267 C261 1.378 1_655 S
C267 C264 1.386 . S
C268 C263 1.490 . S
C268 C270 1.395 1_455 S
C268 C271 1.403 . S
H269 C275 0.930 . S
C270 H256 0.930 . S
C270 C268 1.395 1_655 S
C270 C273 1.403 . S
C271 C268 1.403 . S
C271 C272 1.524 . S
C271 C275 1.400 . S
C272 H257 0.960 . S
C272 H258 0.960 . S
C272 H259 0.960 . S
C272 C271 1.524 . S
C273 C270 1.403 . S
C273 C274 1.392 . S
C273 C277 1.495 . S
C274 C273 1.392 . S
C274 C275 1.385 1_655 S
C274 C276 1.478 . S
C275 H269 0.930 . S
C275 C271 1.400 . S
C275 C274 1.385 1_455 S
C276 C274 1.478 . S
C276 C278 1.381 1_655 S
C276 C282 1.383 . S
C277 C273 1.495 . S
C277 H283 0.959 . S
C277 H284 0.961 . S
C277 H285 0.960 . S
C278 C276 1.381 1_455 S
C278 C279 1.394 . S
C278 H286 0.930 . S
C279 C278 1.394 . S
C279 C280 1.399 . S
C279 H287 0.929 . S
C280 C279 1.399 . S
C280 C281 1.358 1_455 S
C281 H265 0.930 . S
C281 C280 1.358 1_655 S
C281 C282 1.379 . S
C282 H266 0.931 . S
C282 C276 1.383 . S
C282 C281 1.379 . S
H283 C277 0.959 . S
H284 C277 0.961 . S
H285 C277 0.960 . S
H286 C278 0.930 . S
H287 C279 0.929 . S
H288 C296 0.929 . S
H289 C298 0.930 . S
H290 C300 0.930 . S
H291 C303 0.929 . S
H292 C306 0.930 . S
H293 C308 0.960 . S
H294 C308 0.960 . S
H295 C308 0.960 . S
C296 H288 0.929 . S
C296 C297 1.377 1_565 S
C296 C298 1.384 . S
C297 C296 1.377 1_545 S
C297 C303 1.390 . S
C298 H289 0.930 . S
C298 C296 1.384 . S
C298 C299 1.372 1_565 S
C299 C298 1.372 1_545 S
C299 C300 1.400 . S
C299 C304 1.490 . S
C300 H290 0.930 . S
C300 C299 1.400 . S
C300 C303 1.386 . S
H301 C317 0.930 . S
H302 C318 0.931 . S
C303 H291 0.929 . S
C303 C297 1.390 . S
C303 C300 1.386 . S
C304 C299 1.490 . S
C304 C306 1.395 . S
C304 C307 1.403 1_545 S
H305 C311 0.930 . S
C306 H292 0.930 . S
C306 C304 1.395 . S
C306 C309 1.403 . S
C307 C304 1.403 1_565 S
C307 C308 1.524 . S
C307 C311 1.400 . S
C308 H293 0.960 . S
C308 H294 0.960 . S
C308 H295 0.960 . S
C308 C307 1.524 . S
C309 C306 1.403 . S
C309 C310 1.392 . S
C309 C313 1.495 . S
C310 C309 1.392 . S
C310 C311 1.385 1_545 S
C310 C312 1.490 . S
C311 H305 0.930 . S
C311 C307 1.400 . S
C311 C310 1.385 1_565 S
C312 C310 1.490 . S
C312 C314 1.351 1_545 S
C312 C318 1.400 . S
C313 C309 1.495 . S
C313 H319 0.959 . S
C313 H320 0.961 . S
C313 H321 0.960 . S
C314 C312 1.351 1_565 S
C314 C315 1.394 . S
C314 H322 0.930 . S
C315 C314 1.394 . S
C315 C316 1.383 . S
C315 H323 0.929 . S
C316 C315 1.383 . S
C316 C317 1.377 1_565 S
C317 H301 0.930 . S
C317 C316 1.377 1_545 S
C317 C318 1.379 . S
C318 H302 0.931 . S
C318 C312 1.400 . S
C318 C317 1.379 . S
H319 C313 0.959 . S
H320 C313 0.961 . S
H321 C313 0.960 . S
H322 C314 0.930 . S
H323 C315 0.929 . S
H324 C332 0.929 . S
H325 C334 0.930 . S
H326 C336 0.930 . S
H327 C339 0.929 . S
H328 C342 0.930 . S
H329 C344 0.960 . S
H330 C344 0.960 . S
H331 C344 0.960 . S
C332 H324 0.929 . S
C332 C333 1.377 . S
C332 C334 1.384 . S
C333 C332 1.377 . S
C333 C339 1.390 . S
C334 H325 0.930 . S
C334 C332 1.384 . S
C334 C335 1.372 . S
C335 C334 1.372 . S
C335 C336 1.400 . S
C335 C340 1.490 . S
C336 H326 0.930 . S
C336 C335 1.400 . S
C336 C339 1.386 . S
H337 C353 0.930 . S
H338 C354 0.931 . S
C339 H327 0.929 . S
C339 C333 1.390 . S
C339 C336 1.386 . S
C340 C335 1.490 . S
C340 C342 1.395 . S
C340 C343 1.403 . S
H341 C347 0.930 . S
C342 H328 0.930 . S
C342 C340 1.395 . S
C342 C345 1.403 . S
C343 C340 1.403 . S
C343 C344 1.524 . S
C343 C347 1.400 . S
C344 H329 0.960 . S
C344 H330 0.960 . S
C344 H331 0.960 . S
C344 C343 1.524 . S
C345 C342 1.403 . S
C345 C346 1.392 . S
C345 C349 1.495 . S
C346 C345 1.392 . S
C346 C347 1.385 . S
C346 C348 1.478 . S
C347 H341 0.930 . S
C347 C343 1.400 . S
C347 C346 1.385 . S
C348 C346 1.478 . S
C348 C350 1.381 . S
C348 C354 1.383 . S
C349 C345 1.495 . S
C349 H355 0.959 . S
C349 H356 0.961 . S
C349 H357 0.960 . S
C350 C348 1.381 . S
C350 C351 1.394 . S
C350 H358 0.930 . S
C351 C350 1.394 . S
C351 C352 1.383 . S
C351 H359 0.929 . S
C352 C351 1.383 . S
C352 C353 1.377 . S
C353 H337 0.930 . S
C353 C352 1.377 . S
C353 C354 1.379 . S
C354 H338 0.931 . S
C354 C348 1.383 . S
C354 C353 1.379 . S
H355 C349 0.959 . S
H356 C349 0.961 . S
H357 C349 0.960 . S
H358 C350 0.930 . S
H359 C351 0.929 . S
H360 C368 0.929 . S
H361 C370 0.930 . S
H362 C372 0.930 . S
H363 C375 0.929 . S
H364 C378 0.930 . S
H365 C380 0.960 . S
H366 C380 0.960 . S
H367 C380 0.960 . S
C368 H360 0.929 . S
C368 C369 1.377 1_556 S
C368 C370 1.384 . S
C369 C368 1.377 1_554 S
C369 C375 1.390 . S
C370 H361 0.930 . S
C370 C368 1.384 . S
C370 C371 1.362 1_556 S
C371 C370 1.362 1_554 S
C371 C372 1.412 . S
C371 C376 1.488 1_554 S
C372 H362 0.930 . S
C372 C371 1.412 . S
C372 C375 1.386 . S
H373 C389 0.930 . S
H374 C390 0.931 . S
C375 H363 0.929 . S
C375 C369 1.390 . S
C375 C372 1.386 . S
C376 C371 1.488 1_556 S
C376 C378 1.395 . S
C376 C379 1.403 1_556 S
H377 C383 0.930 . S
C378 H364 0.930 . S
C378 C376 1.395 . S
C378 C381 1.403 . S
C379 C376 1.403 1_554 S
C379 C380 1.524 . S
C379 C383 1.400 . S
C380 H365 0.960 . S
C380 H366 0.960 . S
C380 H367 0.960 . S
C380 C379 1.524 . S
C381 C378 1.403 . S
C381 C382 1.392 . S
C381 C385 1.495 . S
C382 C381 1.392 . S
C382 C383 1.385 1_556 S
C382 C384 1.478 . S
C383 H377 0.930 . S
C383 C379 1.400 . S
C383 C382 1.385 1_554 S
C384 C382 1.478 . S
C384 C386 1.381 . S
C384 C390 1.383 1_556 S
C385 C381 1.495 . S
C385 H391 0.959 . S
C385 H392 0.961 . S
C385 H393 0.960 . S
C386 C384 1.381 . S
C386 C387 1.394 . S
C386 H394 0.930 . S
C387 C386 1.394 . S
C387 C388 1.383 . S
C387 H395 0.929 . S
C388 C387 1.383 . S
C388 C389 1.377 1_556 S
C389 H373 0.930 . S
C389 C388 1.377 1_554 S
C389 C390 1.379 . S
C390 H374 0.931 . S
C390 C384 1.383 1_554 S
C390 C389 1.379 . S
H391 C385 0.959 . S
H392 C385 0.961 . S
H393 C385 0.960 . S
H394 C386 0.930 . S
H395 C387 0.929 . S
H396 C404 0.929 . S
H397 C406 0.930 . S
H398 C408 0.930 . S
H399 C411 0.929 . S
H400 C414 0.930 . S
H401 C416 0.960 . S
H402 C416 0.960 1_556 S
H403 C416 0.960 . S
C404 H396 0.929 . S
C404 C405 1.377 . S
C404 C406 1.384 . S
C405 C404 1.377 . S
C405 C411 1.390 1_556 S
C406 H397 0.930 . S
C406 C404 1.384 . S
C406 C407 1.372 . S
C407 C406 1.372 . S
C407 C408 1.400 1_556 S
C407 C412 1.490 . S
C408 H398 0.930 . S
C408 C407 1.400 1_554 S
C408 C411 1.386 . S
H409 C425 0.930 . S
H410 C426 0.931 . S
C411 H399 0.929 . S
C411 C405 1.390 1_554 S
C411 C408 1.386 . S
C412 C407 1.490 . S
C412 C414 1.395 . S
C412 C415 1.403 1_556 S
H413 C419 0.930 . S
C414 H400 0.930 . S
C414 C412 1.395 . S
C414 C417 1.403 . S
C415 C412 1.403 1_554 S
C415 C416 1.524 . S
C415 C419 1.400 . S
C416 H401 0.960 . S
C416 H402 0.960 1_554 S
C416 H403 0.960 . S
C416 C415 1.524 . S
C417 C414 1.403 . S
C417 C418 1.392 . S
C417 C421 1.495 . S
C418 C417 1.392 . S
C418 C419 1.385 1_556 S
C418 C420 1.480 1_556 S
C419 H413 0.930 . S
C419 C415 1.400 . S
C419 C418 1.385 1_554 S
C420 C418 1.480 1_554 S
C420 C422 1.371 1_554 S
C420 C426 1.390 . S
C421 C417 1.495 . S
C421 H427 0.959 . S
C421 H428 0.961 . S
C421 H429 0.960 . S
C422 C420 1.371 1_556 S
C422 C423 1.394 . S
C422 H430 0.930 . S
C423 C422 1.394 . S
C423 C424 1.383 1_556 S
C423 H431 0.929 . S
C424 C423 1.383 1_554 S
C424 C425 1.377 . S
C425 H409 0.930 . S
C425 C424 1.377 . S
C425 C426 1.379 . S
C426 H410 0.931 . S
C426 C420 1.390 . S
C426 C425 1.379 . S
H427 C421 0.959 . S
H428 C421 0.961 . S
H429 C421 0.960 . S
H430 C422 0.930 . S
H431 C423 0.929 . S
H432 C440 0.929 . S
H433 C442 0.930 . S
H434 C444 0.930 . S
H435 C447 0.929 . S
H436 C450 0.930 . S
H437 C452 0.960 . S
H438 C452 0.960 . S
H439 C452 0.960 . S
C440 H432 0.929 . S
C440 C441 1.377 . S
C440 C442 1.384 . S
C441 C440 1.377 . S
C441 C447 1.390 1_556 S
C442 H433 0.930 . S
C442 C440 1.384 . S
C442 C443 1.372 . S
C443 C442 1.372 . S
C443 C444 1.400 1_556 S
C443 C448 1.490 . S
C444 H434 0.930 . S
C444 C443 1.400 1_554 S
C444 C447 1.386 . S
H445 C461 0.930 . S
H446 C462 0.931 . S
C447 H435 0.929 . S
C447 C441 1.390 1_554 S
C447 C444 1.386 . S
C448 C443 1.490 . S
C448 C450 1.395 . S
C448 C451 1.403 . S
H449 C455 0.930 . S
C450 H436 0.930 . S
C450 C448 1.395 . S
C450 C453 1.403 . S
C451 C448 1.403 . S
C451 C452 1.524 . S
C451 C455 1.400 . S
C452 H437 0.960 . S
C452 H438 0.960 . S
C452 H439 0.960 . S
C452 C451 1.524 . S
C453 C450 1.403 . S
C453 C454 1.392 . S
C453 C457 1.495 1_556 S
C454 C453 1.392 . S
C454 C455 1.385 . S
C454 C456 1.478 . S
C455 H449 0.930 . S
C455 C451 1.400 . S
C455 C454 1.385 . S
C456 C454 1.478 . S
C456 C458 1.381 . S
C456 C462 1.383 1_556 S
C457 C453 1.495 1_554 S
C457 H463 0.958 . S
C457 H464 0.964 . S
C457 H465 0.958 1_554 S
C458 C456 1.381 . S
C458 C459 1.394 . S
C458 H466 0.930 . S
C459 C458 1.394 . S
C459 C460 1.383 . S
C459 H467 0.929 . S
C460 C459 1.383 . S
C460 C461 1.377 1_556 S
C461 H445 0.930 . S
C461 C460 1.377 1_554 S
C461 C462 1.379 . S
C462 H446 0.931 . S
C462 C456 1.383 1_554 S
C462 C461 1.379 . S
H463 C457 0.958 . S
H464 C457 0.964 . S
H465 C457 0.958 1_556 S
H466 C458 0.930 . S
H467 C459 0.929 . S
H468 C476 0.929 . S
H469 C478 0.930 . S
H470 C480 0.930 . S
H471 C483 0.929 . S
H472 C486 0.930 . S
H473 C488 0.960 . S
H474 C488 0.960 . S
H475 C488 0.960 . S
C476 H468 0.929 . S
C476 C477 1.377 1_554 S
C476 C478 1.384 . S
C477 C476 1.377 1_556 S
C477 C483 1.390 . S
C478 H469 0.930 . S
C478 C476 1.384 . S
C478 C479 1.372 1_554 S
C479 C478 1.372 1_556 S
C479 C480 1.400 . S
C479 C484 1.488 1_556 S
C480 H470 0.930 . S
C480 C479 1.400 . S
C480 C483 1.386 . S
H481 C497 0.930 . S
H482 C498 0.931 . S
C483 H471 0.929 . S
C483 C477 1.390 . S
C483 C480 1.386 . S
C484 C479 1.488 1_554 S
C484 C486 1.403 . S
C484 C487 1.396 1_554 S
H485 C491 0.930 . S
C486 H472 0.930 . S
C486 C484 1.403 . S
C486 C489 1.403 . S
C487 C484 1.396 1_556 S
C487 C488 1.524 . S
C487 C491 1.400 . S
C488 H473 0.960 . S
C488 H474 0.960 . S
C488 H475 0.960 . S
C488 C487 1.524 . S
C489 C486 1.403 . S
C489 C490 1.392 . S
C489 C493 1.495 . S
C490 C489 1.392 . S
C490 C491 1.385 1_554 S
C490 C492 1.478 . S
C491 H485 0.930 . S
C491 C487 1.400 . S
C491 C490 1.385 1_556 S
C492 C490 1.478 . S
C492 C494 1.381 . S
C492 C498 1.383 . S
C493 C489 1.495 . S
C493 H499 0.959 . S
C493 H500 0.961 . S
C493 H501 0.960 . S
C494 C492 1.381 . S
C494 C495 1.394 . S
C494 H502 0.930 . S
C495 C494 1.394 . S
C495 C496 1.383 . S
C495 H503 0.929 . S
C496 C495 1.383 . S
C496 C497 1.377 . S
C497 H481 0.930 . S
C497 C496 1.377 . S
C497 C498 1.379 . S
C498 H482 0.931 . S
C498 C492 1.383 . S
C498 C497 1.379 . S
H499 C493 0.959 . S
H500 C493 0.961 . S
H501 C493 0.960 . S
H502 C494 0.930 . S
H503 C495 0.929 . S
H504 C512 0.929 . S
H505 C514 0.930 . S
H506 C516 0.930 . S
H507 C519 0.929 . S
H508 C522 0.930 . S
H509 C524 0.960 . S
H510 C524 0.960 . S
H511 C524 0.960 . S
C512 H504 0.929 . S
C512 C513 1.377 . S
C512 C514 1.384 . S
C513 C512 1.377 . S
C513 C519 1.390 . S
C514 H505 0.930 . S
C514 C512 1.384 . S
C514 C515 1.372 . S
C515 C514 1.372 . S
C515 C516 1.400 . S
C515 C520 1.490 1_556 S
C516 H506 0.930 . S
C516 C515 1.400 . S
C516 C519 1.386 . S
H517 C533 0.930 . S
H518 C534 0.931 1_556 S
C519 H507 0.929 . S
C519 C513 1.390 . S
C519 C516 1.386 . S
C520 C515 1.490 1_554 S
C520 C522 1.395 1_554 S
C520 C523 1.403 . S
H521 C527 0.930 . S
C522 H508 0.930 . S
C522 C520 1.395 1_556 S
C522 C525 1.403 . S
C523 C520 1.403 . S
C523 C524 1.524 . S
C523 C527 1.400 . S
C524 H509 0.960 . S
C524 H510 0.960 . S
C524 H511 0.960 . S
C524 C523 1.524 . S
C525 C522 1.403 . S
C525 C526 1.392 1_556 S
C525 C529 1.495 . S
C526 C525 1.392 1_554 S
C526 C527 1.385 . S
C526 C528 1.478 . S
C527 H521 0.930 . S
C527 C523 1.400 . S
C527 C526 1.385 . S
C528 C526 1.478 . S
C528 C530 1.381 . S
C528 C534 1.383 . S
C529 C525 1.495 . S
C529 H535 0.959 . S
C529 H536 0.961 . S
C529 H537 0.960 . S
C530 C528 1.381 . S
C530 C531 1.394 . S
C530 H538 0.930 . S
C531 C530 1.394 . S
C531 C532 1.383 . S
C531 H539 0.929 . S
C532 C531 1.383 . S
C532 C533 1.377 . S
C533 H517 0.930 . S
C533 C532 1.377 . S
C533 C534 1.379 . S
C534 H518 0.931 1_554 S
C534 C528 1.383 . S
C534 C533 1.379 . S
H535 C529 0.959 . S
H536 C529 0.961 . S
H537 C529 0.960 . S
H538 C530 0.930 . S
H539 C531 0.929 . S
H540 C548 0.929 . S
H541 C550 0.930 . S
H542 C552 0.930 . S
H543 C555 0.929 . S
H544 C558 0.930 . S
H545 C560 0.960 . S
H546 C560 0.960 . S
H547 C560 0.960 . S
C548 H540 0.929 . S
C548 C549 1.377 1_556 S
C548 C550 1.384 . S
C549 C548 1.377 1_554 S
C549 C555 1.390 . S
C550 H541 0.930 . S
C550 C548 1.384 . S
C550 C551 1.372 1_556 S
C551 C550 1.372 1_554 S
C551 C552 1.400 . S
C551 C556 1.490 . S
C552 H542 0.930 . S
C552 C551 1.400 . S
C552 C555 1.386 . S
H553 C569 0.930 . S
H554 C570 0.931 . S
C555 H543 0.929 . S
C555 C549 1.390 . S
C555 C552 1.386 . S
C556 C551 1.490 . S
C556 C558 1.395 1_554 S
C556 C559 1.403 . S
H557 C563 0.930 . S
C558 H544 0.930 . S
C558 C556 1.395 1_556 S
C558 C561 1.403 . S
C559 C556 1.403 . S
C559 C560 1.524 . S
C559 C563 1.400 . S
C560 H545 0.960 . S
C560 H546 0.960 . S
C560 H547 0.960 . S
C560 C559 1.524 . S
C561 C558 1.403 . S
C561 C562 1.392 1_556 S
C561 C565 1.495 . S
C562 C561 1.392 1_554 S
C562 C563 1.385 . S
C562 C564 1.478 . S
C563 H557 0.930 . S
C563 C559 1.400 . S
C563 C562 1.385 . S
C564 C562 1.478 . S
C564 C566 1.381 1_554 S
C564 C570 1.383 . S
C565 C561 1.495 . S
C565 H571 0.959 . S
C565 H572 0.961 . S
C565 H573 0.960 . S
C566 C564 1.381 1_556 S
C566 C567 1.394 . S
C566 H574 0.930 . S
C567 C566 1.394 . S
C567 C568 1.383 1_556 S
C567 H575 0.929 . S
C568 C567 1.383 1_554 S
C568 C569 1.377 . S
C569 H553 0.930 . S
C569 C568 1.377 . S
C569 C570 1.379 . S
C570 H554 0.931 . S
C570 C564 1.383 . S
C570 C569 1.379 . S
H571 C565 0.959 . S
H572 C565 0.961 . S
H573 C565 0.960 . S
H574 C566 0.930 . S
H575 C567 0.929 . S
C261 C63 1.480 1_455 S
C280 C74 1.503 . S
C297 C147 1.520 . S
C316 C158 1.531 . S
C333 C242 1.481 . S
C352 C231 1.467 . S
C369 C67 2.261 . S
C388 C224 2.272 . S
C405 C153 0.760 . S
C424 C69 0.731 1_554 S
C441 C151 1.538 . S
C460 C237 1.385 1_556 S
C477 C56 2.261 . S
C496 C235 2.268 . S
C513 C58 0.733 1_556 S
C532 C142 0.670 . S
C549 C226 1.401 1_554 S
C568 C140 1.511 . S
