# Generated by pormake.
# Topology rac, (4)-cn, num edge types: 1
# Building blocks:
#     Node 0, Type 0, BuildingBlock: QUQFOY_clean_sbu_3, # of connection points: 4
#     Node 1, Type 0, BuildingBlock: QUQFOY_clean_sbu_3, # of connection points: 4
#     Node 2, Type 0, BuildingBlock: QUQFOY_clean_sbu_3, # of connection points: 4
#     Node 3, Type 0, BuildingBlock: QUQFOY_clean_sbu_3, # of connection points: 4
#     Node 4, Type 0, BuildingBlock: QUQFOY_clean_sbu_3, # of connection points: 4
#     Node 5, Type 0, BuildingBlock: QUQFOY_clean_sbu_3, # of connection points: 4
#     Node 6, Type 0, BuildingBlock: QUQFOY_clean_sbu_3, # of connection points: 4
#     Node 7, Type 0, BuildingBlock: QUQFOY_clean_sbu_3, # of connection points: 4
#     Edge 8, Type (0, 0), BuildingBlock: ZUJKAS_clean_linker_0, # of connection points: 2
#     Edge 9, Type (0, 0), BuildingBlock: ZUJKAS_clean_linker_0, # of connection points: 2
#     Edge 10, Type (0, 0), BuildingBlock: ZUJKAS_clean_linker_0, # of connection points: 2
#     Edge 11, Type (0, 0), BuildingBlock: ZUJKAS_clean_linker_0, # of connection points: 2
#     Edge 12, Type (0, 0), BuildingBlock: ZUJKAS_clean_linker_0, # of connection points: 2
#     Edge 13, Type (0, 0), BuildingBlock: ZUJKAS_clean_linker_0, # of connection points: 2
#     Edge 14, Type (0, 0), BuildingBlock: ZUJKAS_clean_linker_0, # of connection points: 2
#     Edge 15, Type (0, 0), BuildingBlock: ZUJKAS_clean_linker_0, # of connection points: 2
#     Edge 16, Type (0, 0), BuildingBlock: ZUJKAS_clean_linker_0, # of connection points: 2
#     Edge 17, Type (0, 0), BuildingBlock: ZUJKAS_clean_linker_0, # of connection points: 2
#     Edge 18, Type (0, 0), BuildingBlock: ZUJKAS_clean_linker_0, # of connection points: 2
#     Edge 19, Type (0, 0), BuildingBlock: ZUJKAS_clean_linker_0, # of connection points: 2
#     Edge 20, Type (0, 0), BuildingBlock: ZUJKAS_clean_linker_0, # of connection points: 2
#     Edge 21, Type (0, 0), BuildingBlock: ZUJKAS_clean_linker_0, # of connection points: 2
#     Edge 22, Type (0, 0), BuildingBlock: ZUJKAS_clean_linker_0, # of connection points: 2
#     Edge 23, Type (0, 0), BuildingBlock: ZUJKAS_clean_linker_0, # of connection points: 2
# Relax obj value: 0.236
# Max RMSD: 0.071
# Mean RMSD: 0.071
data_MOF--net-rac--node1-QUQFOY_clean_sbu_3--edge1-ZUJKAS_clean_linker_0
_symmetry_space_group_name_H-M    P1
_symmetry_Int_Tables_number       1
_symmetry_cell_setting            triclinic
loop_
_symmetry_equiv_pos_as_xyz
'x, y, z'
_cell_length_a     55.938393
_cell_length_b     27.935
_cell_length_c     49.281613
_cell_angle_alpha  90.033732
_cell_angle_beta   89.905727
_cell_angle_gamma 90.114189
loop_
_atom_site_label
_atom_site_type_symbol
_atom_site_fract_x
_atom_site_fract_y
_atom_site_fract_z
_atom_type_partial_charge
C0 C 0.35161 0.23077 0.0997 0.0
O1 O 0.32922 0.2368 0.09641 0.0
Cd2 Cd 0.30706 0.25083 0.05708 0.0
O3 O 0.36625 0.2307 0.07948 0.0
Cd4 Cd 0.36755 0.24295 0.02729 0.0
C5 C 0.33447 0.15999 0.02054 0.0
O6 O 0.33674 0.30055 0.0392 0.0
O7 O 0.34508 0.30039 -0.0032 0.0
O8 O 0.40438 0.28267 0.04 0.0
C9 C 0.33316 0.31832 0.01618 0.0
O10 O 0.32957 0.19841 0.03226 0.0
C11 C 0.41236 0.28804 0.01609 0.0
O12 O 0.35524 0.15777 0.01027 0.0
O13 O 0.4012 0.26624 -0.00266 0.0
C14 C 0.12311 0.74333 0.09982 0.0
O15 O 0.1443 0.72934 0.09529 0.0
Cd16 Cd 0.15971 0.70529 0.05313 0.0
O17 O 0.10787 0.7455 0.08054 0.0
Cd18 Cd 0.10891 0.72751 0.03025 0.0
C19 C 0.14947 0.8118 0.01933 0.0
O20 O 0.12994 0.65404 0.03647 0.0
O21 O 0.13827 0.68869 -0.00105 0.0
O22 O 0.06852 0.69687 0.03767 0.0
C23 C 0.14078 0.65229 0.01405 0.0
O24 O 0.16333 0.77915 0.02792 0.0
C25 C 0.06339 0.69249 0.01275 0.0
O26 O 0.12678 0.80667 0.01988 0.0
O27 O 0.07792 0.7111 -0.00408 0.0
C28 C 0.35701 0.24543 0.37977 0.0
O29 O 0.33584 0.22919 0.38137 0.0
Cd30 Cd 0.31625 0.20145 0.42052 0.0
O31 O 0.37054 0.24754 0.40061 0.0
Cd32 Cd 0.36823 0.22759 0.45043 0.0
C33 C 0.32479 0.30721 0.4574 0.0
O34 O 0.34583 0.15783 0.44213 0.0
O35 O 0.34316 0.1818 0.48332 0.0
O36 O 0.40665 0.1957 0.43931 0.0
C37 C 0.33778 0.1506 0.46566 0.0
O38 O 0.31247 0.27541 0.44529 0.0
C39 C 0.4139 0.19152 0.46353 0.0
O40 O 0.3473 0.30283 0.46101 0.0
O41 O 0.40159 0.21224 0.48183 0.0
C42 C 0.12183 0.73249 0.38079 0.0
O43 O 0.14376 0.74425 0.38235 0.0
Cd44 Cd 0.16499 0.76682 0.42093 0.0
O45 O 0.10815 0.73176 0.4018 0.0
Cd46 Cd 0.10874 0.7474 0.45344 0.0
C47 C 0.14491 0.6651 0.4591 0.0
O48 O 0.13508 0.8123 0.44095 0.0
O49 O 0.13302 0.80105 0.48385 0.0
O50 O 0.06869 0.77853 0.44441 0.0
C51 C 0.14116 0.82567 0.46432 0.0
O52 O 0.15193 0.70078 0.44572 0.0
C53 C 0.06333 0.78507 0.46916 0.0
O54 O 0.12397 0.66638 0.46912 0.0
O55 O 0.07768 0.76815 0.48659 0.0
C56 C 0.62492 0.73849 0.88106 0.0
O57 O 0.64589 0.72225 0.88449 0.0
Cd58 Cd 0.66383 0.70507 0.92556 0.0
O59 O 0.61084 0.7463 0.90116 0.0
Cd60 Cd 0.60918 0.73374 0.95257 0.0
C61 C 0.64566 0.81409 0.95872 0.0
O62 O 0.6323 0.66297 0.94449 0.0
O63 O 0.63601 0.68886 0.98508 0.0
O64 O 0.57141 0.70047 0.93947 0.0
C65 C 0.64036 0.65612 0.96792 0.0
O66 O 0.65326 0.77698 0.94701 0.0
C67 C 0.56324 0.69426 0.96319 0.0
O68 O 0.62372 0.81582 0.96542 0.0
O69 O 0.57482 0.71364 0.98248 0.0
C70 C 0.85937 0.23932 0.88056 0.0
O71 O 0.83809 0.25453 0.88109 0.0
Cd72 Cd 0.81658 0.27578 0.91938 0.0
O73 O 0.8719 0.23551 0.90209 0.0
Cd74 Cd 0.86716 0.25149 0.95221 0.0
C75 C 0.82567 0.17039 0.95776 0.0
O76 O 0.84369 0.32165 0.94364 0.0
O77 O 0.83955 0.29394 0.98391 0.0
O78 O 0.90716 0.28242 0.9444 0.0
C79 C 0.83499 0.32683 0.96704 0.0
O80 O 0.81487 0.20274 0.94446 0.0
C81 C 0.91294 0.28586 0.96915 0.0
O82 O 0.84802 0.17354 0.96273 0.0
O83 O 0.89855 0.26779 0.98632 0.0
C84 C 0.62222 0.73166 0.60003 0.0
O85 O 0.64486 0.73642 0.59912 0.0
Cd86 Cd 0.66872 0.75155 0.56084 0.0
O87 O 0.60911 0.73366 0.57865 0.0
Cd88 Cd 0.60997 0.74485 0.52693 0.0
C89 C 0.64286 0.6624 0.52108 0.0
O90 O 0.6411 0.80187 0.53939 0.0
O91 O 0.6343 0.79909 0.49661 0.0
O92 O 0.57252 0.78316 0.53847 0.0
C93 C 0.64602 0.8173 0.51605 0.0
O94 O 0.64716 0.69941 0.5345 0.0
C95 C 0.56567 0.78949 0.51422 0.0
O96 O 0.62209 0.65973 0.51089 0.0
O97 O 0.57796 0.76946 0.49575 0.0
C98 C 0.85966 0.23787 0.59836 0.0
O99 O 0.83922 0.2183 0.59733 0.0
Cd100 Cd 0.81877 0.19701 0.55813 0.0
O101 O 0.87214 0.24552 0.57707 0.0
Cd102 Cd 0.86952 0.23017 0.52692 0.0
C103 C 0.82585 0.30823 0.52448 0.0
O104 O 0.84894 0.15778 0.53521 0.0
O105 O 0.84312 0.18419 0.49507 0.0
O106 O 0.90946 0.2026 0.53687 0.0
C107 C 0.83962 0.15121 0.5123 0.0
O108 O 0.81538 0.2736 0.53635 0.0
C109 C 0.91576 0.19686 0.51238 0.0
O110 O 0.84818 0.30665 0.51895 0.0
O111 O 0.90207 0.21446 0.49436 0.0
H112 H 0.29679 0.15289 0.05419 0.0
H113 H 0.26388 0.09636 0.05287 0.0
H114 H 0.29735 0.02235 0.98611 0.0
H115 H 0.33094 0.07989 0.98719 0.0
H116 H 0.23329 0.08058 0.00756 0.0
H117 H 0.2794 0.91606 0.04308 0.0
H118 H 0.29048 0.97563 0.04991 0.0
H119 H 0.29451 0.94956 0.01695 0.0
C120 C 0.29739 0.12448 0.03922 0.0
C121 C 0.31647 0.12106 0.02063 0.0
C122 C 0.27846 0.09221 0.03855 0.0
C123 C 0.27812 0.0553 0.01942 0.0
C124 C 0.29742 0.05055 0.0012 0.0
H125 H 0.18124 0.82892 0.97931 0.0
H126 H 0.21084 0.89362 0.97901 0.0
C127 C 0.31659 0.08323 0.00184 0.0
C128 C 0.25706 0.02306 0.01832 0.0
H129 H 0.23959 0.90721 0.02776 0.0
C130 C 0.23463 0.04262 0.0119 0.0
C131 C 0.25877 0.97402 0.02488 0.0
C132 C 0.28199 0.95237 0.03436 0.0
C133 C 0.21401 0.01384 0.01071 0.0
C134 C 0.21597 0.96432 0.01594 0.0
C135 C 0.23826 0.9451 0.02321 0.0
C136 C 0.19539 0.93118 0.01315 0.0
C137 C 0.19038 0.03618 0.00331 0.0
C138 C 0.17627 0.93218 0.03166 0.0
C139 C 0.15899 0.89577 0.0314 0.0
C140 C 0.16084 0.85778 0.01284 0.0
C141 C 0.17913 0.85852 -0.00667 0.0
C142 C 0.1962 0.89504 -0.00659 0.0
H143 H 0.19242 0.07385 -0.00353 0.0
H144 H 0.18156 0.01519 0.987 0.0
H145 H 0.17839 0.03573 0.02128 0.0
H146 H 0.17555 0.95927 0.04738 0.0
H147 H 0.14555 0.89494 0.04725 0.0
H148 H 0.1486 0.59467 0.49864 0.0
H149 H 0.18067 0.53413 0.50172 0.0
H150 H 0.20956 0.58299 0.42541 0.0
H151 H 0.17824 0.64248 0.42221 0.0
H152 H 0.19443 0.46028 0.46288 0.0
H153 H 0.26698 0.59456 0.47656 0.0
H154 H 0.23593 0.60847 0.48286 0.0
H155 H 0.24715 0.60566 0.4487 0.0
C156 C 0.16165 0.59185 0.48246 0.0
C157 C 0.16112 0.62361 0.46041 0.0
C158 C 0.18 0.5577 0.4843 0.0
C159 C 0.19784 0.55527 0.46416 0.0
C160 C 0.19644 0.58527 0.44156 0.0
H161 H 0.32103 0.38326 0.42456 0.0
H162 H 0.2895 0.44405 0.4267 0.0
C163 C 0.17837 0.61905 0.43974 0.0
C164 C 0.21789 0.52109 0.46608 0.0
H165 H 0.27884 0.51477 0.4678 0.0
C166 C 0.21287 0.47201 0.46445 0.0
C167 C 0.24195 0.53686 0.46729 0.0
C168 C 0.24841 0.58924 0.46915 0.0
C169 C 0.23135 0.43812 0.46378 0.0
C170 C 0.25536 0.45389 0.46544 0.0
C171 C 0.26038 0.50295 0.46686 0.0
C172 C 0.2756 0.42003 0.46538 0.0
C173 C 0.22514 0.38591 0.46019 0.0
C174 C 0.27878 0.38796 0.48698 0.0
C175 C 0.29693 0.3537 0.4859 0.0
C176 C 0.31231 0.35178 0.46344 0.0
C177 C 0.30992 0.38549 0.44255 0.0
C178 C 0.29171 0.41955 0.44355 0.0
H179 H 0.20601 0.38058 0.45493 0.0
H180 H 0.23636 0.36981 0.44398 0.0
H181 H 0.22881 0.36637 0.47932 0.0
H182 H 0.26669 0.38834 0.50417 0.0
H183 H 0.29802 0.32693 0.50174 0.0
H184 H 0.63769 0.91133 0.96766 0.0
H185 H 0.66884 0.97438 0.96834 0.0
H186 H 0.72331 0.86681 0.95801 0.0
H187 H 0.69323 0.80503 0.95778 0.0
H188 H 0.70882 0.97876 0.00492 0.0
H189 H 0.74007 0.96331 0.89833 0.0
H190 H 0.71084 0.94338 0.90923 0.0
H191 H 0.7367 0.90685 0.91528 0.0
C192 C 0.65633 0.90145 0.96578 0.0
C193 C 0.66297 0.85335 0.96243 0.0
C194 C 0.67401 0.93729 0.96584 0.0
C195 C 0.69823 0.92507 0.96231 0.0
C196 C 0.7047 0.8771 0.95981 0.0
H197 H 0.83637 0.07354 0.96041 0.0
H198 H 0.80645 0.00872 0.96509 0.0
C199 C 0.68737 0.84178 0.95997 0.0
C200 C 0.71746 0.96108 0.96358 0.0
H201 H 0.76631 0.0027 0.92925 0.0
C202 C 0.72125 0.98451 0.98831 0.0
C203 C 0.73386 0.96748 0.94197 0.0
C204 C 0.73011 0.94427 0.91462 0.0
C205 C 0.74125 0.01385 -0.00777 0.0
C206 C 0.75772 0.02025 0.97071 0.0
C207 C 0.75394 -0.00321 0.94591 0.0
C208 C 0.77674 0.05683 0.97217 0.0
C209 C 0.74464 0.03758 0.01946 0.0
C210 C 0.76995 0.10458 0.97537 0.0
C211 C 0.78676 0.14078 0.97327 0.0
C212 C 0.81072 0.13035 0.96714 0.0
C213 C 0.81803 0.08238 0.96538 0.0
C214 C 0.80097 0.04559 0.96775 0.0
H215 H 0.73519 0.01776 0.03582 0.0
H216 H 0.76388 0.04033 0.02475 0.0
H217 H 0.73709 0.07426 0.01874 0.0
H218 H 0.75134 0.11416 0.97809 0.0
H219 H 0.78063 0.17749 0.97474 0.0
H220 H 0.68978 0.67747 0.52828 0.0
H221 H 0.72208 0.61974 0.52804 0.0
H222 H 0.67221 0.50723 0.50813 0.0
H223 H 0.63914 0.56577 0.50831 0.0
H224 H 0.72559 0.53356 0.56113 0.0
H225 H 0.72695 0.50046 0.44963 0.0
H226 H 0.71389 0.55372 0.46418 0.0
H227 H 0.69847 0.49751 0.46661 0.0
C228 C 0.68551 0.64046 0.52377 0.0
C229 C 0.66185 0.62609 0.51835 0.0
C230 C 0.70407 0.60754 0.52374 0.0
C231 C 0.69953 0.55939 0.51815 0.0
C232 C 0.67601 0.54453 0.51234 0.0
H233 H 0.77988 0.30643 0.50986 0.0
H234 H 0.75166 0.37224 0.50993 0.0
C235 C 0.6572 0.57783 0.51232 0.0
C236 C 0.71979 0.52553 0.51815 0.0
H237 H 0.75426 0.45737 0.47621 0.0
C238 C 0.73195 0.51688 0.5426 0.0
C239 C 0.7282 0.50471 0.49386 0.0
C240 C 0.71639 0.51461 0.46697 0.0
C241 C 0.75187 0.48631 0.54347 0.0
C242 C 0.75994 0.46479 0.51917 0.0
C243 C 0.74812 0.47447 0.49471 0.0
C244 C 0.77807 0.42645 0.51903 0.0
C245 C 0.76348 0.47545 0.57038 0.0
C246 C 0.80253 0.43546 0.52342 0.0
C247 C 0.81897 0.39744 0.52326 0.0
C248 C 0.81091 0.35039 0.51881 0.0
C249 C 0.7866 0.34233 0.51333 0.0
C250 C 0.7704 0.37982 0.51353 0.0
H251 H 0.75461 0.49431 0.58751 0.0
H252 H 0.76285 0.43632 0.57428 0.0
H253 H 0.78256 0.4863 0.5698 0.0
H254 H 0.80876 0.47154 0.52733 0.0
H255 H 0.83758 0.40443 0.52789 0.0
H256 H 0.39754 0.21436 0.11929 0.0
H257 H 0.41025 0.21579 0.16733 0.0
H258 H 0.33795 0.24744 0.19167 0.0
H259 H 0.32514 0.24511 0.14502 0.0
H260 H 0.40205 0.29637 0.20883 0.0
H261 H 0.35635 0.12633 0.23549 0.0
H262 H 0.36542 0.14044 0.20117 0.0
H263 H 0.33854 0.16577 0.21517 0.0
C264 C 0.3844 0.22114 0.13498 0.0
C265 C 0.36026 0.22896 0.12818 0.0
C266 C 0.39169 0.22222 0.16232 0.0
C267 C 0.37492 0.23114 0.18299 0.0
C268 C 0.35108 0.23966 0.17609 0.0
H269 H 0.33186 0.2838 0.33843 0.0
H270 H 0.34316 0.28438 0.29058 0.0
C271 C 0.34381 0.23818 0.14921 0.0
C272 C 0.38134 0.23152 0.21213 0.0
H273 H 0.36251 0.18242 0.27181 0.0
C274 C 0.39414 0.27066 0.22268 0.0
C275 C 0.37079 0.19814 0.23011 0.0
C276 C 0.35717 0.15505 0.21993 0.0
C277 C 0.39501 0.27911 0.25086 0.0
C278 C 0.38299 0.24746 0.26854 0.0
C279 C 0.37171 0.20663 0.25808 0.0
C280 C 0.37904 0.25849 0.29751 0.0
C281 C 0.40728 0.32327 0.26159 0.0
C282 C 0.39591 0.24573 0.31726 0.0
C283 C 0.38953 0.24576 0.34479 0.0
C284 C 0.36611 0.25771 0.3526 0.0
C285 C 0.34997 0.27407 0.33289 0.0
C286 C 0.3564 0.27453 0.30559 0.0
H287 H 0.41609 0.34425 0.24524 0.0
H288 H 0.39401 0.34643 0.27202 0.0
H289 H 0.4209 0.31289 0.27685 0.0
H290 H 0.41339 0.23288 0.31129 0.0
H291 H 0.40222 0.23275 0.35963 0.0
H292 H 0.07752 0.75491 0.36043 0.0
H293 H 0.06641 0.75701 0.31207 0.0
H294 H 0.13475 0.696 0.29101 0.0
H295 H 0.14565 0.69322 0.3387 0.0
H296 H 0.09258 0.80967 0.2725 0.0
H297 H 0.08961 0.61786 0.24454 0.0
H298 H 0.08738 0.63788 0.27934 0.0
H299 H 0.11612 0.63302 0.26303 0.0
C300 C 0.08973 0.74039 0.34547 0.0
C301 C 0.11239 0.72375 0.35327 0.0
C302 C 0.08349 0.74204 0.3179 0.0
C303 C 0.09966 0.72623 0.29796 0.0
C304 C 0.12177 0.70746 0.30599 0.0
H305 H 0.15223 0.74459 0.14388 0.0
H306 H 0.14072 0.74732 0.19138 0.0
C307 C 0.12801 0.70604 0.3333 0.0
C308 C 0.09491 0.73296 0.26861 0.0
H309 H 0.09861 0.67346 0.20827 0.0
C310 C 0.09313 0.77984 0.25842 0.0
C311 C 0.0958 0.69403 0.25026 0.0
C312 C 0.09711 0.64285 0.25988 0.0
C313 C 0.09414 0.78887 0.23035 0.0
C314 C 0.09657 0.75005 0.21225 0.0
C315 C 0.09663 0.70313 0.22232 0.0
C316 C 0.10306 0.75699 0.18347 0.0
C317 C 0.09431 0.83974 0.22017 0.0
C318 C 0.08565 0.7629 0.16328 0.0
C319 C 0.09216 0.76115 0.13577 0.0
C320 C 0.11612 0.75317 0.12829 0.0
C321 C 0.13356 0.75027 0.14878 0.0
C322 C 0.12707 0.75197 0.17603 0.0
H323 H 0.09179 0.86612 0.2368 0.0
H324 H 0.11159 0.84729 0.20986 0.0
H325 H 0.07991 0.84455 0.20494 0.0
H326 H 0.067 0.76679 0.16877 0.0
H327 H 0.07835 0.76387 0.12048 0.0
H328 H 0.59044 0.79804 0.85915 0.0
H329 H 0.57782 0.80068 0.8111 0.0
H330 H 0.62735 0.68719 0.79235 0.0
H331 H 0.63989 0.68448 0.8393 0.0
H332 H 0.61062 0.81617 0.76516 0.0
H333 H 0.5649 0.64049 0.75762 0.0
H334 H 0.56919 0.67098 0.78965 0.0
H335 H 0.59327 0.63779 0.77442 0.0
C336 C 0.59839 0.77354 0.84468 0.0
C337 C 0.61624 0.74133 0.85287 0.0
C338 C 0.59119 0.775 0.81739 0.0
C339 C 0.60136 0.74343 0.79836 0.0
C340 C 0.61892 0.71114 0.80676 0.0
H341 H 0.63618 0.67358 0.64058 0.0
H342 H 0.6256 0.6805 0.68854 0.0
C343 C 0.62628 0.71011 0.83362 0.0
C344 C 0.59551 0.74569 0.76914 0.0
H345 H 0.58057 0.67317 0.71605 0.0
C346 C 0.60329 0.78567 0.75435 0.0
C347 C 0.58643 0.70529 0.75521 0.0
C348 C 0.57779 0.66134 0.77008 0.0
C349 C 0.6039 0.7849 0.72584 0.0
C350 C 0.59573 0.74365 0.71193 0.0
C351 C 0.58659 0.7049 0.72677 0.0
C352 C 0.59977 0.73704 0.68247 0.0
C353 C 0.61522 0.82632 0.71092 0.0
C354 C 0.58799 0.76521 0.66305 0.0
C355 C 0.59371 0.76058 0.63546 0.0
C356 C 0.61144 0.72812 0.62717 0.0
C357 C 0.62231 0.69853 0.64652 0.0
C358 C 0.6164 0.7027 0.67388 0.0
H359 H 0.62276 0.85356 0.72497 0.0
H360 H 0.62978 0.81317 0.69751 0.0
H361 H 0.60167 0.84392 0.69792 0.0
H362 H 0.57494 0.79161 0.66931 0.0
H363 H 0.58545 0.78439 0.62089 0.0
H364 H 0.8663 0.32024 0.62734 0.0
H365 H 0.87406 0.32419 0.67655 0.0
H366 H 0.88127 0.17039 0.67862 0.0
H367 H 0.87413 0.16676 0.62994 0.0
H368 H 0.84375 0.2786 0.71328 0.0
H369 H 0.93608 0.21065 0.72642 0.0
H370 H 0.92542 0.23439 0.69458 0.0
H371 H 0.91823 0.17402 0.70446 0.0
C372 C 0.87063 0.28779 0.6383 0.0
C373 C 0.87018 0.24329 0.62518 0.0
C374 C 0.87482 0.28993 0.66628 0.0
C375 C 0.87861 0.24758 0.68108 0.0
C376 C 0.87913 0.20354 0.6675 0.0
H377 H 0.86338 0.15945 0.84915 0.0
H378 H 0.86889 0.16012 0.79949 0.0
C379 C 0.87503 0.20146 0.63976 0.0
C380 C 0.87901 0.24787 0.71099 0.0
H381 H 0.91071 0.20759 0.76547 0.0
C382 C 0.85855 0.26386 0.72476 0.0
C383 C 0.89813 0.22759 0.72576 0.0
C384 C 0.9208 0.21107 0.71206 0.0
C385 C 0.85657 0.25931 0.75298 0.0
C386 C 0.87568 0.23881 0.76762 0.0
C387 C 0.89612 0.22298 0.75396 0.0
C388 C 0.87533 0.23648 0.79739 0.0
C389 C 0.83393 0.27541 0.76696 0.0
C390 C 0.87843 0.27863 0.81232 0.0
C391 C 0.87596 0.27799 0.84039 0.0
C392 C 0.87026 0.23526 0.85382 0.0
C393 C 0.86845 0.19244 0.83911 0.0
C394 C 0.87121 0.19298 0.81088 0.0
H395 H 0.81947 0.2838 0.75228 0.0
H396 H 0.82747 0.24726 0.7811 0.0
H397 H 0.83768 0.30803 0.7791 0.0
H398 H 0.88173 0.31236 0.80212 0.0
H399 H 0.87672 0.31154 0.85143 0.0
H400 H 0.43489 0.30769 0.96754 0.0
H401 H 0.46032 0.37735 0.95722 0.0
H402 H 0.45379 0.42497 0.04012 0.0
H403 H 0.42927 0.35545 0.05074 0.0
H404 H 0.44936 0.47736 0.96342 0.0
H405 H 0.52607 0.42369 0.02782 0.0
H406 H 0.50343 0.38191 0.01673 0.0
H407 H 0.49764 0.42146 0.04474 0.0
C408 C 0.43938 0.33246 0.98367 0.0
C409 C 0.43048 0.32539 0.01011 0.0
C410 C 0.45367 0.37246 0.97769 0.0
C411 C 0.45923 0.40595 -0.00198 0.0
C412 C 0.45025 0.39899 0.02429 0.0
H413 H 0.53827 0.67471 0.01027 0.0
H414 H 0.51256 0.60461 0.01882 0.0
C415 C 0.43629 0.35898 0.03034 0.0
C416 C 0.47441 0.44839 -0.00782 0.0
H417 H 0.5261 0.50398 0.01165 0.0
C418 C 0.46622 0.48303 0.97378 0.0
C419 C 0.49637 0.45578 0.00577 0.0
C420 C 0.50657 0.4186 0.02469 0.0
C421 C 0.47921 0.5254 0.96913 0.0
C422 C 0.50095 0.53311 0.98311 0.0
C423 C 0.50925 0.49828 0.00128 0.0
C424 C 0.5158 0.57625 0.9781 0.0
C425 C 0.4694 0.56218 0.94969 0.0
C426 C 0.52596 0.58348 0.95245 0.0
C427 C 0.54002 0.62371 0.94738 0.0
C428 C 0.54477 0.65721 0.96804 0.0
C429 C 0.53462 0.64998 -0.00616 0.0
C430 C 0.52017 0.60978 -0.00119 0.0
H431 H 0.4502 0.55593 0.94518 0.0
H432 H 0.47156 0.59888 0.95803 0.0
H433 H 0.47946 0.56034 0.93029 0.0
H434 H 0.52335 0.55747 0.93641 0.0
H435 H 0.54807 0.6273 0.92747 0.0
H436 H 0.06685 0.63046 0.97058 0.0
H437 H 0.04266 0.55838 0.96306 0.0
H438 H -0.00361 0.59887 0.02919 0.0
H439 H 0.02095 0.67043 0.03731 0.0
H440 H 0.0322 0.48393 0.00679 0.0
H441 H 0.95217 0.56937 0.96084 0.0
H442 H 0.98155 0.59631 0.9597 0.0
H443 H 0.96443 0.59803 -0.00952 0.0
C444 C 0.05107 0.62479 0.98297 0.0
C445 C 0.04548 0.65656 0.00422 0.0
C446 C 0.0375 0.58323 0.9789 0.0
C447 C 0.01775 0.57334 -0.00445 0.0
C448 C 0.01154 0.60598 0.01606 0.0
H449 H 0.91372 0.34493 0.01295 0.0
H450 H 0.94017 0.41401 0.01978 0.0
C451 C 0.0254 0.64703 0.02052 0.0
C452 C 0.00376 0.5286 -0.00812 0.0
H453 H 0.94882 0.48733 0.97261 0.0
C454 C 0.01403 0.48457 -0.00082 0.0
C455 C 0.98012 0.52956 0.98186 0.0
C456 C 0.96884 0.5757 0.97254 0.0
C457 C 0.00095 0.44159 -0.00271 0.0
C458 C 0.97717 0.44276 0.98775 0.0
C459 C 0.96701 0.48667 0.98016 0.0
C460 C 0.96263 0.39855 0.98513 0.0
C461 C 0.01231 0.39515 0.00598 0.0
C462 C 0.96683 0.36655 0.96369 0.0
C463 C 0.95166 0.32729 0.95964 0.0
C464 C 0.93228 0.319 0.97721 0.0
C465 C 0.92887 0.34972 -0.0005 0.0
C466 C 0.94377 0.38952 0.00322 0.0
H467 H 0.02992 0.40081 0.01586 0.0
H468 H 0.00033 0.37583 0.02028 0.0
H469 H 0.01489 0.37184 0.98796 0.0
H470 H 0.98125 0.37307 0.94946 0.0
H471 H 0.95447 0.30456 0.94211 0.0
H472 H 0.55333 0.82523 0.46437 0.0
H473 H 0.52798 0.89499 0.45531 0.0
H474 H 0.5123 0.90707 0.54071 0.0
H475 H 0.53747 0.83775 0.54998 0.0
H476 H 0.47814 0.90709 0.46922 0.0
H477 H 0.53571 0.04313 0.51954 0.0
H478 H 0.54724 0.987 0.5069 0.0
H479 H 0.53104 0.98884 0.53839 0.0
C480 C 0.54412 0.8422 0.48115 0.0
C481 C 0.54726 0.82572 0.50789 0.0
C482 C 0.52988 0.88232 0.47597 0.0
C483 C 0.51867 0.9066 0.49743 0.0
C484 C 0.5212 0.88937 0.52396 0.0
H485 H 0.42286 0.15031 0.51293 0.0
H486 H 0.44558 0.07666 0.52113 0.0
C487 C 0.53533 0.84933 0.52915 0.0
C488 C 0.5034 0.94874 0.4922 0.0
H489 H 0.49694 0.06729 0.50726 0.0
C490 C 0.48228 0.94225 0.47733 0.0
C491 C 0.50891 -0.00558 0.50293 0.0
C492 C 0.53204 0.00414 0.51766 0.0
C493 C 0.46623 0.98018 0.47335 0.0
C494 C 0.47166 0.02566 0.4844 0.0
C495 C 0.49277 0.03212 0.49918 0.0
C496 C 0.45672 0.06825 0.47934 0.0
C497 C 0.44338 0.97116 0.45795 0.0
C498 C 0.45623 0.08853 0.45338 0.0
C499 C 0.44384 0.13103 0.44878 0.0
C500 C 0.43154 0.15397 0.47005 0.0
C501 C 0.43255 0.13414 0.49625 0.0
C502 C 0.44511 0.09161 0.50086 0.0
H503 H 0.44033 0.9324 0.45414 0.0
H504 H 0.4279 0.98572 0.4694 0.0
H505 H 0.44417 -0.01021 0.43809 0.0
H506 H 0.46556 0.07158 0.43667 0.0
H507 H 0.44323 0.14507 0.42831 0.0
H508 H 0.95239 0.16589 0.54431 0.0
H509 H 0.97627 0.09331 0.53786 0.0
H510 H 0.94193 0.06901 0.46079 0.0
H511 H 0.91854 0.14213 0.46675 0.0
H512 H 0.96012 -0.00122 0.53124 0.0
H513 H 0.01259 0.05916 0.44174 0.0
H514 H -0.00368 0.10013 0.46321 0.0
H515 H 0.98079 0.06503 0.43824 0.0
C516 C 0.9505 0.14588 0.5256 0.0
C517 C 0.93402 0.16044 0.50573 0.0
C518 C 0.9639 0.10405 0.52212 0.0
C519 C 0.96106 0.07591 0.49875 0.0
C520 C 0.94485 0.0907 0.47871 0.0
H521 H 0.02445 0.81265 0.4396 0.0
H522 H -0.0011 0.88229 0.44814 0.0
C523 C 0.93165 0.13283 0.48201 0.0
C524 C 0.97511 0.03117 0.49534 0.0
H525 H 0.01648 0.97767 0.45435 0.0
C526 C 0.97251 -0.0058 0.51449 0.0
C527 C -0.0087 0.02526 0.47354 0.0
C528 C -0.00435 0.06459 0.45311 0.0
C529 C 0.98544 0.95122 0.51211 0.0
C530 C 0.00142 0.94521 0.49012 0.0
C531 C 0.00407 0.98222 0.47108 0.0
C532 C 0.0155 0.90066 0.48637 0.0
C533 C 0.98165 0.91216 0.53283 0.0
C534 C 0.03296 0.88731 0.50532 0.0
C535 C 0.04722 0.847 0.50076 0.0
C536 C 0.04462 0.81987 0.47687 0.0
C537 C 0.0267 0.83258 0.45829 0.0
C538 C 0.01225 0.87257 0.46303 0.0
H539 H 0.96533 0.91826 0.54522 0.0
H540 H 0.9802 0.87668 0.52277 0.0
H541 H -0.00278 0.91104 0.54673 0.0
H542 H 0.03616 0.90904 0.52317 0.0
H543 H 0.06128 0.83889 0.51514 0.0
H544 H 0.178 0.65754 0.97777 0.0
H545 H 0.21337 0.60553 0.97612 0.0
H546 H 0.18479 0.52137 0.04198 0.0
H547 H 0.14951 0.57261 0.04361 0.0
H548 H 0.24704 0.58017 0.02255 0.0
H549 H 0.19914 0.42444 0.97796 0.0
H550 H 0.18747 0.48456 0.97574 0.0
H551 H 0.18518 0.45137 0.00709 0.0
C552 C 0.17913 0.62747 -0.00842 0.0
C553 C 0.16087 0.61869 0.01059 0.0
C554 C 0.19942 0.59816 -0.00919 0.0
C555 C 0.20157 0.55938 0.00876 0.0
C556 C 0.18335 0.55072 0.02772 0.0
H557 H 0.29531 0.33383 0.04908 0.0
H558 H 0.2655 0.39664 0.04584 0.0
C559 C 0.16317 0.57995 0.02856 0.0
C560 C 0.22248 0.52691 0.00739 0.0
H561 H 0.23754 0.41111 -0.00668 0.0
C562 C 0.24505 0.54345 0.01574 0.0
C563 C 0.21997 0.47883 -0.00121 0.0
C564 C 0.19664 0.45864 0.98917 0.0
C565 C 0.26483 0.51233 0.01625 0.0
C566 C 0.26185 0.46445 0.00781 0.0
C567 C 0.23961 0.44831 -0.00071 0.0
C568 C 0.28082 0.42855 0.00982 0.0
C569 C 0.28851 0.52953 0.02686 0.0
C570 C 0.2985 0.42463 0.98974 0.0
C571 C 0.31536 0.38774 -0.0089 0.0
C572 C 0.31453 0.35476 0.01259 0.0
C573 C 0.29643 0.35862 0.03227 0.0
C574 C 0.27955 0.39481 0.03069 0.0
H575 H 0.28786 0.56747 0.03354 0.0
H576 H 0.29401 0.50682 0.04426 0.0
H577 H 0.30231 0.52561 0.0108 0.0
H578 H 0.29915 0.44991 0.9731 0.0
H579 H 0.32927 0.3857 0.97584 0.0
H580 H 0.30581 0.14556 0.50809 0.0
H581 H 0.27014 0.09404 0.51068 0.0
H582 H 0.28776 0.03299 0.43279 0.0
H583 H 0.32337 0.08283 0.43031 0.0
H584 H 0.23017 0.08284 0.46965 0.0
H585 H 0.28427 0.91824 0.48592 0.0
H586 H 0.29614 0.97754 0.49183 0.0
H587 H 0.29301 0.95526 0.45782 0.0
C588 C 0.30219 0.12061 0.49176 0.0
C589 C 0.31749 0.11767 0.46917 0.0
C590 C 0.28174 0.09178 0.49311 0.0
C591 C 0.27656 0.05969 0.47199 0.0
C592 C 0.29166 0.05724 0.44938 0.0
H593 H 0.17183 0.85625 0.42547 0.0
H594 H 0.20387 0.91472 0.42975 0.0
C595 C 0.31203 0.08561 0.44809 0.0
C596 C 0.25615 0.02652 0.47392 0.0
H597 H 0.24285 0.90754 0.47766 0.0
C598 C 0.23283 0.0446 0.47189 0.0
C599 C 0.25988 0.97668 0.47624 0.0
C600 C 0.28466 0.95562 0.47826 0.0
C601 C 0.21305 0.01357 0.47164 0.0
C602 C 0.21687 0.96384 0.47412 0.0
C603 C 0.24013 0.94591 0.47632 0.0
C604 C 0.19709 0.92933 0.47212 0.0
C605 C 0.18827 0.03351 0.46766 0.0
C606 C 0.183 0.9179 0.4948 0.0
C607 C 0.16481 0.88361 0.49261 0.0
C608 C 0.16046 0.86107 0.4676 0.0
C609 C 0.17468 0.87299 0.44502 0.0
C610 C 0.19296 0.90649 0.44734 0.0
H611 H 0.18835 0.07305 0.46529 0.0
H612 H 0.18004 0.01723 0.44933 0.0
H613 H 0.17686 0.02389 0.48529 0.0
H614 H 0.18619 0.93527 0.51412 0.0
H615 H 0.15403 0.87516 0.51025 0.0
H616 H 0.6445 0.57263 0.94136 0.0
H617 H 0.67879 0.51873 0.94049 0.0
H618 H 0.71489 0.60789 -0.00092 0.0
H619 H 0.68029 0.66212 0.00021 0.0
H620 H 0.72785 0.5396 0.92736 0.0
H621 H 0.7144 0.47106 0.03223 0.0
H622 H 0.69125 0.50148 0.01355 0.0
H623 H 0.71503 0.53516 0.02892 0.0
C624 C 0.65962 0.58034 0.95438 0.0
C625 C 0.65966 0.62098 0.97119 0.0
C626 C 0.67926 0.54986 0.95361 0.0
C627 C 0.69929 0.55939 0.96969 0.0
C628 C 0.6994 0.5998 0.98672 0.0
H629 H 0.83478 0.41525 0.98936 0.0
H630 H 0.80178 0.47337 0.98787 0.0
C631 C 0.67961 0.63037 0.9876 0.0
C632 C 0.71957 0.52565 0.96938 0.0
H633 H 0.74887 0.44497 0.00908 0.0
C634 C 0.73255 0.519 0.94521 0.0
C635 C 0.72521 0.49811 -0.00749 0.0
C636 C 0.71066 0.50129 0.01825 0.0
C637 C 0.75146 0.48602 0.94392 0.0
C638 C 0.75743 0.45969 0.9674 0.0
C639 C 0.74432 0.46595 -0.00868 0.0
C640 C 0.77721 0.4251 0.9678 0.0
C641 C 0.76495 0.47929 0.91766 0.0
C642 C 0.77374 0.37852 0.95803 0.0
C643 C 0.79224 0.34521 0.95957 0.0
C644 C 0.81444 0.35839 0.97057 0.0
C645 C 0.81768 0.40452 0.98101 0.0
C646 C 0.79906 0.43769 0.97981 0.0
H647 H 0.75923 0.50504 0.90177 0.0
H648 H 0.78444 0.48359 0.92117 0.0
H649 H 0.76197 0.44236 0.91 0.0
H650 H 0.75678 0.36806 0.94921 0.0
H651 H 0.78933 0.30953 0.95167 0.0
H652 H 0.68448 0.82809 0.54855 0.0
H653 H 0.71613 0.88735 0.54524 0.0
H654 H 0.68419 0.94406 0.47248 0.0
H655 H 0.65225 0.88325 0.47536 0.0
H656 H 0.74795 0.9021 0.49972 0.0
H657 H 0.69317 0.06094 0.52774 0.0
H658 H 0.6851 0.00059 0.53722 0.0
H659 H 0.68085 0.02028 0.50297 0.0
C660 C 0.6842 0.85272 0.53166 0.0
C661 C 0.66595 0.85099 0.51215 0.0
C662 C 0.70227 0.88673 0.52989 0.0
C663 C 0.70222 0.92033 0.50889 0.0
C664 C 0.68426 0.91855 0.48902 0.0
H665 H 0.80561 0.1446 0.47217 0.0
H666 H 0.771 0.09014 0.47144 0.0
C667 C 0.66625 0.8837 0.49052 0.0
C668 C 0.72154 0.95619 0.50778 0.0
H669 H 0.73386 0.07478 0.5172 0.0
C670 C 0.74488 0.93994 0.50324 0.0
C671 C 0.7174 0.00511 0.51332 0.0
C672 C 0.69284 0.02308 0.52081 0.0
C673 C 0.76429 0.97158 0.50359 0.0
C674 C 0.76012 0.02075 0.50823 0.0
C675 C 0.73679 0.03712 0.513 0.0
C676 C 0.78012 0.05506 0.50914 0.0
C677 C 0.78918 0.95222 0.49923 0.0
C678 C 0.79646 0.053 0.53055 0.0
C679 C 0.81623 0.08321 0.53081 0.0
C680 C 0.81989 0.11654 0.50983 0.0
C681 C 0.8034 0.11882 0.4884 0.0
C682 C 0.78354 0.08825 0.48812 0.0
H683 H 0.78895 0.91493 0.49138 0.0
H684 H 0.79929 0.97518 0.48482 0.0
H685 H 0.79891 0.9523 0.51884 0.0
H686 H 0.79396 0.0278 0.54703 0.0
H687 H 0.82852 0.08084 0.54773 0.0
loop_
_geom_bond_atom_site_label_1
_geom_bond_atom_site_label_2
_geom_bond_distance
_geom_bond_site_symmetry_2
_ccdc_geom_bond_type
C0 O1 1.306 . S
C0 O3 1.160 . S
O1 C0 1.306 . S
O1 Cd2 2.228 . S
Cd2 O1 2.228 . S
Cd2 O6 2.273 . S
Cd2 O10 2.277 . S
O3 C0 1.160 . S
O3 Cd4 2.203 . S
Cd4 O3 2.203 . S
Cd4 O6 2.411 . S
Cd4 O7 2.333 . S
Cd4 O8 2.352 . S
Cd4 O12 2.277 . S
Cd4 O13 2.356 . S
C5 O10 1.209 . S
C5 O12 1.226 . S
O6 Cd2 2.273 . S
O6 Cd4 2.411 . S
O6 C9 1.320 . S
O7 Cd4 2.333 . S
O7 C9 1.214 . S
O8 Cd4 2.352 . S
O8 C11 1.258 . S
C9 O6 1.320 . S
C9 O7 1.214 . S
O10 Cd2 2.277 . S
O10 C5 1.209 . S
C11 O8 1.258 . S
C11 O13 1.282 . S
O12 Cd4 2.277 . S
O12 C5 1.226 . S
O13 Cd4 2.356 . S
O13 C11 1.282 . S
C14 O15 1.306 . S
C14 O17 1.160 . S
O15 C14 1.306 . S
O15 Cd16 2.228 . S
Cd16 O15 2.228 . S
Cd16 O20 2.273 . S
Cd16 O24 2.277 . S
O17 C14 1.160 . S
O17 Cd18 2.203 . S
Cd18 O17 2.203 . S
Cd18 O20 2.411 . S
Cd18 O21 2.333 . S
Cd18 O22 2.352 . S
Cd18 O26 2.277 . S
Cd18 O27 2.356 . S
C19 O24 1.209 . S
C19 O26 1.226 . S
O20 Cd16 2.273 . S
O20 Cd18 2.411 . S
O20 C23 1.320 . S
O21 Cd18 2.333 . S
O21 C23 1.214 . S
O22 Cd18 2.352 . S
O22 C25 1.258 . S
C23 O20 1.320 . S
C23 O21 1.214 . S
O24 Cd16 2.277 . S
O24 C19 1.209 . S
C25 O22 1.258 . S
C25 O27 1.282 . S
O26 Cd18 2.277 . S
O26 C19 1.226 . S
O27 Cd18 2.356 . S
O27 C25 1.282 . S
C28 O29 1.306 . S
C28 O31 1.160 . S
O29 C28 1.306 . S
O29 Cd30 2.228 . S
Cd30 O29 2.228 . S
Cd30 O34 2.273 . S
Cd30 O38 2.277 . S
O31 C28 1.160 . S
O31 Cd32 2.203 . S
Cd32 O31 2.203 . S
Cd32 O34 2.411 . S
Cd32 O35 2.333 . S
Cd32 O36 2.352 . S
Cd32 O40 2.277 . S
Cd32 O41 2.356 . S
C33 O38 1.209 . S
C33 O40 1.226 . S
O34 Cd30 2.273 . S
O34 Cd32 2.411 . S
O34 C37 1.320 . S
O35 Cd32 2.333 . S
O35 C37 1.214 . S
O36 Cd32 2.352 . S
O36 C39 1.258 . S
C37 O34 1.320 . S
C37 O35 1.214 . S
O38 Cd30 2.277 . S
O38 C33 1.209 . S
C39 O36 1.258 . S
C39 O41 1.282 . S
O40 Cd32 2.277 . S
O40 C33 1.226 . S
O41 Cd32 2.356 . S
O41 C39 1.282 . S
C42 O43 1.306 . S
C42 O45 1.160 . S
O43 C42 1.306 . S
O43 Cd44 2.228 . S
Cd44 O43 2.228 . S
Cd44 O48 2.273 . S
Cd44 O52 2.277 . S
O45 C42 1.160 . S
O45 Cd46 2.203 . S
Cd46 O45 2.203 . S
Cd46 O48 2.411 . S
Cd46 O49 2.333 . S
Cd46 O50 2.352 . S
Cd46 O54 2.277 . S
Cd46 O55 2.356 . S
C47 O52 1.209 . S
C47 O54 1.226 . S
O48 Cd44 2.273 . S
O48 Cd46 2.411 . S
O48 C51 1.320 . S
O49 Cd46 2.333 . S
O49 C51 1.214 . S
O50 Cd46 2.352 . S
O50 C53 1.258 . S
C51 O48 1.320 . S
C51 O49 1.214 . S
O52 Cd44 2.277 . S
O52 C47 1.209 . S
C53 O50 1.258 . S
C53 O55 1.282 . S
O54 Cd46 2.277 . S
O54 C47 1.226 . S
O55 Cd46 2.356 . S
O55 C53 1.282 . S
C56 O57 1.306 . S
C56 O59 1.160 . S
O57 C56 1.306 . S
O57 Cd58 2.228 . S
Cd58 O57 2.228 . S
Cd58 O62 2.273 . S
Cd58 O66 2.277 . S
O59 C56 1.160 . S
O59 Cd60 2.203 . S
Cd60 O59 2.203 . S
Cd60 O62 2.411 . S
Cd60 O63 2.333 . S
Cd60 O64 2.352 . S
Cd60 O68 2.277 . S
Cd60 O69 2.356 . S
C61 O66 1.209 . S
C61 O68 1.226 . S
O62 Cd58 2.273 . S
O62 Cd60 2.411 . S
O62 C65 1.320 . S
O63 Cd60 2.333 . S
O63 C65 1.214 . S
O64 Cd60 2.352 . S
O64 C67 1.258 . S
C65 O62 1.320 . S
C65 O63 1.214 . S
O66 Cd58 2.277 . S
O66 C61 1.209 . S
C67 O64 1.258 . S
C67 O69 1.282 . S
O68 Cd60 2.277 . S
O68 C61 1.226 . S
O69 Cd60 2.356 . S
O69 C67 1.282 . S
C70 O71 1.306 . S
C70 O73 1.160 . S
O71 C70 1.306 . S
O71 Cd72 2.228 . S
Cd72 O71 2.228 . S
Cd72 O76 2.273 . S
Cd72 O80 2.277 . S
O73 C70 1.160 . S
O73 Cd74 2.203 . S
Cd74 O73 2.203 . S
Cd74 O76 2.411 . S
Cd74 O77 2.333 . S
Cd74 O78 2.352 . S
Cd74 O82 2.277 . S
Cd74 O83 2.356 . S
C75 O80 1.209 . S
C75 O82 1.226 . S
O76 Cd72 2.273 . S
O76 Cd74 2.411 . S
O76 C79 1.320 . S
O77 Cd74 2.333 . S
O77 C79 1.214 . S
O78 Cd74 2.352 . S
O78 C81 1.258 . S
C79 O76 1.320 . S
C79 O77 1.214 . S
O80 Cd72 2.277 . S
O80 C75 1.209 . S
C81 O78 1.258 . S
C81 O83 1.282 . S
O82 Cd74 2.277 . S
O82 C75 1.226 . S
O83 Cd74 2.356 . S
O83 C81 1.282 . S
C84 O85 1.306 . S
C84 O87 1.160 . S
O85 C84 1.306 . S
O85 Cd86 2.228 . S
Cd86 O85 2.228 . S
Cd86 O90 2.273 . S
Cd86 O94 2.277 . S
O87 C84 1.160 . S
O87 Cd88 2.203 . S
Cd88 O87 2.203 . S
Cd88 O90 2.411 . S
Cd88 O91 2.333 . S
Cd88 O92 2.352 . S
Cd88 O96 2.277 . S
Cd88 O97 2.356 . S
C89 O94 1.209 . S
C89 O96 1.226 . S
O90 Cd86 2.273 . S
O90 Cd88 2.411 . S
O90 C93 1.320 . S
O91 Cd88 2.333 . S
O91 C93 1.214 . S
O92 Cd88 2.352 . S
O92 C95 1.258 . S
C93 O90 1.320 . S
C93 O91 1.214 . S
O94 Cd86 2.277 . S
O94 C89 1.209 . S
C95 O92 1.258 . S
C95 O97 1.282 . S
O96 Cd88 2.277 . S
O96 C89 1.226 . S
O97 Cd88 2.356 . S
O97 C95 1.282 . S
C98 O99 1.306 . S
C98 O101 1.160 . S
O99 C98 1.306 . S
O99 Cd100 2.228 . S
Cd100 O99 2.228 . S
Cd100 O104 2.273 . S
Cd100 O108 2.277 . S
O101 C98 1.160 . S
O101 Cd102 2.203 . S
Cd102 O101 2.203 . S
Cd102 O104 2.411 . S
Cd102 O105 2.333 . S
Cd102 O106 2.352 . S
Cd102 O110 2.277 . S
Cd102 O111 2.356 . S
C103 O108 1.209 . S
C103 O110 1.226 . S
O104 Cd100 2.273 . S
O104 Cd102 2.411 . S
O104 C107 1.320 . S
O105 Cd102 2.333 . S
O105 C107 1.214 . S
O106 Cd102 2.352 . S
O106 C109 1.258 . S
C107 O104 1.320 . S
C107 O105 1.214 . S
O108 Cd100 2.277 . S
O108 C103 1.209 . S
C109 O106 1.258 . S
C109 O111 1.282 . S
O110 Cd102 2.277 . S
O110 C103 1.226 . S
O111 Cd102 2.356 . S
O111 C109 1.282 . S
H112 C120 0.929 . S
H113 C122 0.930 . S
H114 C124 0.930 . S
H115 C127 0.929 . S
H116 C130 0.930 . S
H117 C132 0.960 . S
H118 C132 0.960 . S
H119 C132 0.960 . S
C120 H112 0.929 . S
C120 C121 1.377 . S
C120 C122 1.384 . S
C121 C120 1.377 . S
C121 C127 1.390 . S
C122 H113 0.930 . S
C122 C120 1.384 . S
C122 C123 1.372 . S
C123 C122 1.372 . S
C123 C124 1.400 . S
C123 C128 1.490 . S
C124 H114 0.930 . S
C124 C123 1.400 . S
C124 C127 1.386 . S
H125 C141 0.930 1_556 S
H126 C142 0.931 1_556 S
C127 H115 0.929 . S
C127 C121 1.390 . S
C127 C124 1.386 . S
C128 C123 1.490 . S
C128 C130 1.395 . S
C128 C131 1.403 1_545 S
H129 C135 0.930 . S
C130 H116 0.930 . S
C130 C128 1.395 . S
C130 C133 1.403 . S
C131 C128 1.403 1_565 S
C131 C132 1.524 . S
C131 C135 1.400 . S
C132 H117 0.960 . S
C132 H118 0.960 . S
C132 H119 0.960 . S
C132 C131 1.524 . S
C133 C130 1.403 . S
C133 C134 1.392 1_545 S
C133 C137 1.495 . S
C134 C133 1.392 1_565 S
C134 C135 1.385 . S
C134 C136 1.478 . S
C135 H129 0.930 . S
C135 C131 1.400 . S
C135 C134 1.385 . S
C136 C134 1.478 . S
C136 C138 1.381 . S
C136 C142 1.383 . S
C137 C133 1.495 . S
C137 H143 0.959 . S
C137 H144 0.989 . S
C137 H145 0.960 . S
C138 C136 1.381 . S
C138 C139 1.394 . S
C138 H146 0.930 . S
C139 C138 1.394 . S
C139 C140 1.383 . S
C139 H147 0.929 . S
C140 C139 1.383 . S
C140 C141 1.377 . S
C141 H125 0.930 1_554 S
C141 C140 1.377 . S
C141 C142 1.379 . S
C142 H126 0.931 1_554 S
C142 C136 1.383 . S
C142 C141 1.379 . S
H143 C137 0.959 . S
H144 C137 0.989 . S
H145 C137 0.960 . S
H146 C138 0.930 . S
H147 C139 0.929 . S
H148 C156 0.929 . S
H149 C158 0.930 . S
H150 C160 0.930 . S
H151 C163 0.929 . S
H152 C166 0.930 . S
H153 C168 0.960 . S
H154 C168 0.960 . S
H155 C168 0.960 . S
C156 H148 0.929 . S
C156 C157 1.377 . S
C156 C158 1.384 . S
C157 C156 1.377 . S
C157 C163 1.390 . S
C158 H149 0.930 . S
C158 C156 1.384 . S
C158 C159 1.372 . S
C159 C158 1.372 . S
C159 C160 1.400 . S
C159 C164 1.490 . S
C160 H150 0.930 . S
C160 C159 1.400 . S
C160 C163 1.386 . S
H161 C177 0.930 . S
H162 C178 0.931 . S
C163 H151 0.929 . S
C163 C157 1.390 . S
C163 C160 1.386 . S
C164 C159 1.490 . S
C164 C166 1.395 . S
C164 C167 1.403 . S
H165 C171 0.930 . S
C166 H152 0.930 . S
C166 C164 1.395 . S
C166 C169 1.403 . S
C167 C164 1.403 . S
C167 C168 1.524 . S
C167 C171 1.400 . S
C168 H153 0.960 . S
C168 H154 0.960 . S
C168 H155 0.960 . S
C168 C167 1.524 . S
C169 C166 1.403 . S
C169 C170 1.392 . S
C169 C173 1.495 . S
C170 C169 1.392 . S
C170 C171 1.385 . S
C170 C172 1.478 . S
C171 H165 0.930 . S
C171 C167 1.400 . S
C171 C170 1.385 . S
C172 C170 1.478 . S
C172 C174 1.381 . S
C172 C178 1.383 . S
C173 C169 1.495 . S
C173 H179 0.959 . S
C173 H180 0.961 . S
C173 H181 0.960 . S
C174 C172 1.381 . S
C174 C175 1.394 . S
C174 H182 0.930 . S
C175 C174 1.394 . S
C175 C176 1.383 . S
C175 H183 0.929 . S
C176 C175 1.383 . S
C176 C177 1.377 . S
C177 H161 0.930 . S
C177 C176 1.377 . S
C177 C178 1.379 . S
C178 H162 0.931 . S
C178 C172 1.383 . S
C178 C177 1.379 . S
H179 C173 0.959 . S
H180 C173 0.961 . S
H181 C173 0.960 . S
H182 C174 0.930 . S
H183 C175 0.929 . S
H184 C192 0.929 . S
H185 C194 0.930 . S
H186 C196 0.930 . S
H187 C199 0.929 . S
H188 C202 0.930 1_554 S
H189 C204 0.960 . S
H190 C204 0.960 . S
H191 C204 0.960 . S
C192 H184 0.929 . S
C192 C193 1.377 . S
C192 C194 1.384 . S
C193 C192 1.377 . S
C193 C199 1.390 . S
C194 H185 0.930 . S
C194 C192 1.384 . S
C194 C195 1.372 . S
C195 C194 1.372 . S
C195 C196 1.400 . S
C195 C200 1.490 . S
C196 H186 0.930 . S
C196 C195 1.400 . S
C196 C199 1.386 . S
H197 C213 0.930 . S
H198 C214 0.931 . S
C199 H187 0.929 . S
C199 C193 1.390 . S
C199 C196 1.386 . S
C200 C195 1.490 . S
C200 C202 1.395 . S
C200 C203 1.403 . S
H201 C207 0.930 . S
C202 H188 0.930 1_556 S
C202 C200 1.395 . S
C202 C205 1.403 1_565 S
C203 C200 1.403 . S
C203 C204 1.524 . S
C203 C207 1.400 1_565 S
C204 H189 0.960 . S
C204 H190 0.960 . S
C204 H191 0.960 . S
C204 C203 1.524 . S
C205 C202 1.403 1_545 S
C205 C206 1.392 . S
C205 C209 1.495 1_556 S
C206 C205 1.392 . S
C206 C207 1.385 . S
C206 C208 1.478 . S
C207 H201 0.930 . S
C207 C203 1.400 1_545 S
C207 C206 1.385 . S
C208 C206 1.478 . S
C208 C210 1.381 . S
C208 C214 1.383 . S
C209 C205 1.495 1_554 S
C209 H215 0.959 . S
C209 H216 0.961 . S
C209 H217 0.960 . S
C210 C208 1.381 . S
C210 C211 1.394 . S
C210 H218 0.930 . S
C211 C210 1.394 . S
C211 C212 1.383 . S
C211 H219 0.929 . S
C212 C211 1.383 . S
C212 C213 1.377 . S
C213 H197 0.930 . S
C213 C212 1.377 . S
C213 C214 1.379 . S
C214 H198 0.931 . S
C214 C208 1.383 . S
C214 C213 1.379 . S
H215 C209 0.959 . S
H216 C209 0.961 . S
H217 C209 0.960 . S
H218 C210 0.930 . S
H219 C211 0.929 . S
H220 C228 0.929 . S
H221 C230 0.930 . S
H222 C232 0.930 . S
H223 C235 0.929 . S
H224 C238 0.930 . S
H225 C240 0.960 . S
H226 C240 0.960 . S
H227 C240 0.960 . S
C228 H220 0.929 . S
C228 C229 1.377 . S
C228 C230 1.384 . S
C229 C228 1.377 . S
C229 C235 1.390 . S
C230 H221 0.930 . S
C230 C228 1.384 . S
C230 C231 1.372 . S
C231 C230 1.372 . S
C231 C232 1.400 . S
C231 C236 1.490 . S
C232 H222 0.930 . S
C232 C231 1.400 . S
C232 C235 1.386 . S
H233 C249 0.930 . S
H234 C250 0.931 . S
C235 H223 0.929 . S
C235 C229 1.390 . S
C235 C232 1.386 . S
C236 C231 1.490 . S
C236 C238 1.395 . S
C236 C239 1.403 . S
H237 C243 0.930 . S
C238 H224 0.930 . S
C238 C236 1.395 . S
C238 C241 1.403 . S
C239 C236 1.403 . S
C239 C240 1.524 . S
C239 C243 1.400 . S
C240 H225 0.960 . S
C240 H226 0.960 . S
C240 H227 0.960 . S
C240 C239 1.524 . S
C241 C238 1.403 . S
C241 C242 1.392 . S
C241 C245 1.495 . S
C242 C241 1.392 . S
C242 C243 1.385 . S
C242 C244 1.478 . S
C243 H237 0.930 . S
C243 C239 1.400 . S
C243 C242 1.385 . S
C244 C242 1.478 . S
C244 C246 1.381 . S
C244 C250 1.383 . S
C245 C241 1.495 . S
C245 H251 0.959 . S
C245 H252 0.961 . S
C245 H253 0.960 . S
C246 C244 1.381 . S
C246 C247 1.394 . S
C246 H254 0.930 . S
C247 C246 1.394 . S
C247 C248 1.383 . S
C247 H255 0.929 . S
C248 C247 1.383 . S
C248 C249 1.377 . S
C249 H233 0.930 . S
C249 C248 1.377 . S
C249 C250 1.379 . S
C250 H234 0.931 . S
C250 C244 1.383 . S
C250 C249 1.379 . S
H251 C245 0.959 . S
H252 C245 0.961 . S
H253 C245 0.960 . S
H254 C246 0.930 . S
H255 C247 0.929 . S
H256 C264 0.929 . S
H257 C266 0.930 . S
H258 C268 0.930 . S
H259 C271 0.929 . S
H260 C274 0.930 . S
H261 C276 0.960 . S
H262 C276 0.960 . S
H263 C276 0.960 . S
C264 H256 0.929 . S
C264 C265 1.377 . S
C264 C266 1.384 . S
C265 C264 1.377 . S
C265 C271 1.390 . S
C266 H257 0.930 . S
C266 C264 1.384 . S
C266 C267 1.372 . S
C267 C266 1.372 . S
C267 C268 1.400 . S
C267 C272 1.490 . S
C268 H258 0.930 . S
C268 C267 1.400 . S
C268 C271 1.386 . S
H269 C285 0.930 . S
H270 C286 0.931 . S
C271 H259 0.929 . S
C271 C265 1.390 . S
C271 C268 1.386 . S
C272 C267 1.490 . S
C272 C274 1.395 . S
C272 C275 1.403 . S
H273 C279 0.930 . S
C274 H260 0.930 . S
C274 C272 1.395 . S
C274 C277 1.403 . S
C275 C272 1.403 . S
C275 C276 1.524 . S
C275 C279 1.400 . S
C276 H261 0.960 . S
C276 H262 0.960 . S
C276 H263 0.960 . S
C276 C275 1.524 . S
C277 C274 1.403 . S
C277 C278 1.392 . S
C277 C281 1.495 . S
C278 C277 1.392 . S
C278 C279 1.385 . S
C278 C280 1.478 . S
C279 H273 0.930 . S
C279 C275 1.400 . S
C279 C278 1.385 . S
C280 C278 1.478 . S
C280 C282 1.381 . S
C280 C286 1.383 . S
C281 C277 1.495 . S
C281 H287 0.959 . S
C281 H288 0.961 . S
C281 H289 0.960 . S
C282 C280 1.381 . S
C282 C283 1.394 . S
C282 H290 0.930 . S
C283 C282 1.394 . S
C283 C284 1.383 . S
C283 H291 0.929 . S
C284 C283 1.383 . S
C284 C285 1.377 . S
C285 H269 0.930 . S
C285 C284 1.377 . S
C285 C286 1.379 . S
C286 H270 0.931 . S
C286 C280 1.383 . S
C286 C285 1.379 . S
H287 C281 0.959 . S
H288 C281 0.961 . S
H289 C281 0.960 . S
H290 C282 0.930 . S
H291 C283 0.929 . S
H292 C300 0.929 . S
H293 C302 0.930 . S
H294 C304 0.930 . S
H295 C307 0.929 . S
H296 C310 0.930 . S
H297 C312 0.960 . S
H298 C312 0.960 . S
H299 C312 0.960 . S
C300 H292 0.929 . S
C300 C301 1.377 . S
C300 C302 1.384 . S
C301 C300 1.377 . S
C301 C307 1.390 . S
C302 H293 0.930 . S
C302 C300 1.384 . S
C302 C303 1.372 . S
C303 C302 1.372 . S
C303 C304 1.400 . S
C303 C308 1.490 . S
C304 H294 0.930 . S
C304 C303 1.400 . S
C304 C307 1.386 . S
H305 C321 0.930 . S
H306 C322 0.931 . S
C307 H295 0.929 . S
C307 C301 1.390 . S
C307 C304 1.386 . S
C308 C303 1.490 . S
C308 C310 1.395 . S
C308 C311 1.403 . S
H309 C315 0.930 . S
C310 H296 0.930 . S
C310 C308 1.395 . S
C310 C313 1.403 . S
C311 C308 1.403 . S
C311 C312 1.524 . S
C311 C315 1.400 . S
C312 H297 0.960 . S
C312 H298 0.960 . S
C312 H299 0.960 . S
C312 C311 1.524 . S
C313 C310 1.403 . S
C313 C314 1.392 . S
C313 C317 1.495 . S
C314 C313 1.392 . S
C314 C315 1.385 . S
C314 C316 1.478 . S
C315 H309 0.930 . S
C315 C311 1.400 . S
C315 C314 1.385 . S
C316 C314 1.478 . S
C316 C318 1.381 . S
C316 C322 1.383 . S
C317 C313 1.495 . S
C317 H323 0.959 . S
C317 H324 0.961 . S
C317 H325 0.960 . S
C318 C316 1.381 . S
C318 C319 1.394 . S
C318 H326 0.930 . S
C319 C318 1.394 . S
C319 C320 1.383 . S
C319 H327 0.929 . S
C320 C319 1.383 . S
C320 C321 1.377 . S
C321 H305 0.930 . S
C321 C320 1.377 . S
C321 C322 1.379 . S
C322 H306 0.931 . S
C322 C316 1.383 . S
C322 C321 1.379 . S
H323 C317 0.959 . S
H324 C317 0.961 . S
H325 C317 0.960 . S
H326 C318 0.930 . S
H327 C319 0.929 . S
H328 C336 0.929 . S
H329 C338 0.930 . S
H330 C340 0.930 . S
H331 C343 0.929 . S
H332 C346 0.930 . S
H333 C348 0.960 . S
H334 C348 0.960 . S
H335 C348 0.960 . S
C336 H328 0.929 . S
C336 C337 1.377 . S
C336 C338 1.384 . S
C337 C336 1.377 . S
C337 C343 1.390 . S
C338 H329 0.930 . S
C338 C336 1.384 . S
C338 C339 1.372 . S
C339 C338 1.372 . S
C339 C340 1.400 . S
C339 C344 1.490 . S
C340 H330 0.930 . S
C340 C339 1.400 . S
C340 C343 1.386 . S
H341 C357 0.930 . S
H342 C358 0.931 . S
C343 H331 0.929 . S
C343 C337 1.390 . S
C343 C340 1.386 . S
C344 C339 1.490 . S
C344 C346 1.395 . S
C344 C347 1.403 . S
H345 C351 0.930 . S
C346 H332 0.930 . S
C346 C344 1.395 . S
C346 C349 1.403 . S
C347 C344 1.403 . S
C347 C348 1.524 . S
C347 C351 1.400 . S
C348 H333 0.960 . S
C348 H334 0.960 . S
C348 H335 0.960 . S
C348 C347 1.524 . S
C349 C346 1.403 . S
C349 C350 1.392 . S
C349 C353 1.495 . S
C350 C349 1.392 . S
C350 C351 1.385 . S
C350 C352 1.478 . S
C351 H345 0.930 . S
C351 C347 1.400 . S
C351 C350 1.385 . S
C352 C350 1.478 . S
C352 C354 1.381 . S
C352 C358 1.383 . S
C353 C349 1.495 . S
C353 H359 0.959 . S
C353 H360 0.961 . S
C353 H361 0.960 . S
C354 C352 1.381 . S
C354 C355 1.394 . S
C354 H362 0.930 . S
C355 C354 1.394 . S
C355 C356 1.383 . S
C355 H363 0.929 . S
C356 C355 1.383 . S
C356 C357 1.377 . S
C357 H341 0.930 . S
C357 C356 1.377 . S
C357 C358 1.379 . S
C358 H342 0.931 . S
C358 C352 1.383 . S
C358 C357 1.379 . S
H359 C353 0.959 . S
H360 C353 0.961 . S
H361 C353 0.960 . S
H362 C354 0.930 . S
H363 C355 0.929 . S
H364 C372 0.929 . S
H365 C374 0.930 . S
H366 C376 0.930 . S
H367 C379 0.929 . S
H368 C382 0.930 . S
H369 C384 0.960 . S
H370 C384 0.960 . S
H371 C384 0.960 . S
C372 H364 0.929 . S
C372 C373 1.377 . S
C372 C374 1.384 . S
C373 C372 1.377 . S
C373 C379 1.390 . S
C374 H365 0.930 . S
C374 C372 1.384 . S
C374 C375 1.372 . S
C375 C374 1.372 . S
C375 C376 1.400 . S
C375 C380 1.490 . S
C376 H366 0.930 . S
C376 C375 1.400 . S
C376 C379 1.386 . S
H377 C393 0.930 . S
H378 C394 0.931 . S
C379 H367 0.929 . S
C379 C373 1.390 . S
C379 C376 1.386 . S
C380 C375 1.490 . S
C380 C382 1.395 . S
C380 C383 1.403 . S
H381 C387 0.930 . S
C382 H368 0.930 . S
C382 C380 1.395 . S
C382 C385 1.403 . S
C383 C380 1.403 . S
C383 C384 1.524 . S
C383 C387 1.400 . S
C384 H369 0.960 . S
C384 H370 0.960 . S
C384 H371 0.960 . S
C384 C383 1.524 . S
C385 C382 1.403 . S
C385 C386 1.392 . S
C385 C389 1.495 . S
C386 C385 1.392 . S
C386 C387 1.385 . S
C386 C388 1.478 . S
C387 H381 0.930 . S
C387 C383 1.400 . S
C387 C386 1.385 . S
C388 C386 1.478 . S
C388 C390 1.381 . S
C388 C394 1.383 . S
C389 C385 1.495 . S
C389 H395 0.959 . S
C389 H396 0.961 . S
C389 H397 0.960 . S
C390 C388 1.381 . S
C390 C391 1.394 . S
C390 H398 0.930 . S
C391 C390 1.394 . S
C391 C392 1.383 . S
C391 H399 0.929 . S
C392 C391 1.383 . S
C392 C393 1.377 . S
C393 H377 0.930 . S
C393 C392 1.377 . S
C393 C394 1.379 . S
C394 H378 0.931 . S
C394 C388 1.383 . S
C394 C393 1.379 . S
H395 C389 0.959 . S
H396 C389 0.961 . S
H397 C389 0.960 . S
H398 C390 0.930 . S
H399 C391 0.929 . S
H400 C408 0.929 . S
H401 C410 0.930 . S
H402 C412 0.930 . S
H403 C415 0.929 . S
H404 C418 0.930 . S
H405 C420 0.960 . S
H406 C420 0.960 . S
H407 C420 0.960 . S
C408 H400 0.929 . S
C408 C409 1.377 1_556 S
C408 C410 1.384 . S
C409 C408 1.377 1_554 S
C409 C415 1.390 . S
C410 H401 0.930 . S
C410 C408 1.384 . S
C410 C411 1.372 1_556 S
C411 C410 1.372 1_554 S
C411 C412 1.400 . S
C411 C416 1.490 . S
C412 H402 0.930 . S
C412 C411 1.400 . S
C412 C415 1.386 . S
H413 C429 0.930 . S
H414 C430 0.931 . S
C415 H403 0.929 . S
C415 C409 1.390 . S
C415 C412 1.386 . S
C416 C411 1.490 . S
C416 C418 1.395 1_554 S
C416 C419 1.403 . S
H417 C423 0.930 . S
C418 H404 0.930 . S
C418 C416 1.395 1_556 S
C418 C421 1.403 . S
C419 C416 1.403 . S
C419 C420 1.524 . S
C419 C423 1.400 . S
C420 H405 0.960 . S
C420 H406 0.960 . S
C420 H407 0.960 . S
C420 C419 1.524 . S
C421 C418 1.403 . S
C421 C422 1.392 . S
C421 C425 1.495 . S
C422 C421 1.392 . S
C422 C423 1.385 1_556 S
C422 C424 1.478 . S
C423 H417 0.930 . S
C423 C419 1.400 . S
C423 C422 1.385 1_554 S
C424 C422 1.478 . S
C424 C426 1.381 . S
C424 C430 1.383 1_556 S
C425 C421 1.495 . S
C425 H431 0.959 . S
C425 H432 0.961 . S
C425 H433 0.960 . S
C426 C424 1.381 . S
C426 C427 1.394 . S
C426 H434 0.930 . S
C427 C426 1.394 . S
C427 C428 1.383 . S
C427 H435 0.929 . S
C428 C427 1.383 . S
C428 C429 1.377 1_556 S
C429 H413 0.930 . S
C429 C428 1.377 1_554 S
C429 C430 1.379 . S
C430 H414 0.931 . S
C430 C424 1.383 1_554 S
C430 C429 1.379 . S
H431 C425 0.959 . S
H432 C425 0.961 . S
H433 C425 0.960 . S
H434 C426 0.930 . S
H435 C427 0.929 . S
H436 C444 0.929 . S
H437 C446 0.930 . S
H438 C448 0.930 . S
H439 C451 0.929 . S
H440 C454 0.930 . S
H441 C456 0.960 . S
H442 C456 0.960 . S
H443 C456 0.954 1_554 S
C444 H436 0.929 . S
C444 C445 1.377 1_556 S
C444 C446 1.384 . S
C445 C444 1.377 1_554 S
C445 C451 1.390 . S
C446 H437 0.930 . S
C446 C444 1.384 . S
C446 C447 1.372 1_556 S
C447 C446 1.372 1_554 S
C447 C448 1.400 . S
C447 C452 1.490 . S
C448 H438 0.930 . S
C448 C447 1.400 . S
C448 C451 1.386 . S
H449 C465 0.930 . S
H450 C466 0.931 . S
C451 H439 0.929 . S
C451 C445 1.390 . S
C451 C448 1.386 . S
C452 C447 1.490 . S
C452 C454 1.395 . S
C452 C455 1.403 1_454 S
H453 C459 0.930 . S
C454 H440 0.930 . S
C454 C452 1.395 . S
C454 C457 1.403 . S
C455 C452 1.403 1_656 S
C455 C456 1.524 . S
C455 C459 1.400 . S
C456 H441 0.960 . S
C456 H442 0.960 . S
C456 H443 0.954 1_556 S
C456 C455 1.524 . S
C457 C454 1.403 . S
C457 C458 1.392 1_454 S
C457 C461 1.495 . S
C458 C457 1.392 1_656 S
C458 C459 1.385 . S
C458 C460 1.478 . S
C459 H453 0.930 . S
C459 C455 1.400 . S
C459 C458 1.385 . S
C460 C458 1.478 . S
C460 C462 1.381 . S
C460 C466 1.383 1_556 S
C461 C457 1.495 . S
C461 H467 0.959 . S
C461 H468 0.961 . S
C461 H469 0.960 1_554 S
C462 C460 1.381 . S
C462 C463 1.394 . S
C462 H470 0.930 . S
C463 C462 1.394 . S
C463 C464 1.383 . S
C463 H471 0.929 . S
C464 C463 1.383 . S
C464 C465 1.377 1_556 S
C465 H449 0.930 . S
C465 C464 1.377 1_554 S
C465 C466 1.379 . S
C466 H450 0.931 . S
C466 C460 1.383 1_554 S
C466 C465 1.379 . S
H467 C461 0.959 . S
H468 C461 0.961 . S
H469 C461 0.960 1_556 S
H470 C462 0.930 . S
H471 C463 0.929 . S
H472 C480 0.929 . S
H473 C482 0.930 . S
H474 C484 0.930 . S
H475 C487 0.929 . S
H476 C490 0.930 . S
H477 C492 0.960 . S
H478 C492 0.960 . S
H479 C492 0.960 . S
C480 H472 0.929 . S
C480 C481 1.377 . S
C480 C482 1.384 . S
C481 C480 1.377 . S
C481 C487 1.390 . S
C482 H473 0.930 . S
C482 C480 1.384 . S
C482 C483 1.372 . S
C483 C482 1.372 . S
C483 C484 1.400 . S
C483 C488 1.490 . S
C484 H474 0.930 . S
C484 C483 1.400 . S
C484 C487 1.386 . S
H485 C501 0.930 . S
H486 C502 0.931 . S
C487 H475 0.929 . S
C487 C481 1.390 . S
C487 C484 1.386 . S
C488 C483 1.490 . S
C488 C490 1.395 . S
C488 C491 1.403 1_565 S
H489 C495 0.930 . S
C490 H476 0.930 . S
C490 C488 1.395 . S
C490 C493 1.403 . S
C491 C488 1.403 1_545 S
C491 C492 1.524 . S
C491 C495 1.400 . S
C492 H477 0.960 . S
C492 H478 0.960 . S
C492 H479 0.960 . S
C492 C491 1.524 . S
C493 C490 1.403 . S
C493 C494 1.392 1_565 S
C493 C497 1.495 . S
C494 C493 1.392 1_545 S
C494 C495 1.385 . S
C494 C496 1.478 . S
C495 H489 0.930 . S
C495 C491 1.400 . S
C495 C494 1.385 . S
C496 C494 1.478 . S
C496 C498 1.381 . S
C496 C502 1.383 . S
C497 C493 1.495 . S
C497 H503 0.959 . S
C497 H504 0.961 . S
C497 H505 0.960 . S
C498 C496 1.381 . S
C498 C499 1.394 . S
C498 H506 0.930 . S
C499 C498 1.394 . S
C499 C500 1.383 . S
C499 H507 0.929 . S
C500 C499 1.383 . S
C500 C501 1.377 . S
C501 H485 0.930 . S
C501 C500 1.377 . S
C501 C502 1.379 . S
C502 H486 0.931 . S
C502 C496 1.383 . S
C502 C501 1.379 . S
H503 C497 0.959 . S
H504 C497 0.961 . S
H505 C497 0.960 . S
H506 C498 0.930 . S
H507 C499 0.929 . S
H508 C516 0.929 . S
H509 C518 0.930 . S
H510 C520 0.930 . S
H511 C523 0.929 . S
H512 C526 0.930 . S
H513 C528 0.960 . S
H514 C528 0.960 . S
H515 C528 0.960 1_655 S
C516 H508 0.929 . S
C516 C517 1.377 . S
C516 C518 1.384 . S
C517 C516 1.377 . S
C517 C523 1.390 . S
C518 H509 0.930 . S
C518 C516 1.384 . S
C518 C519 1.372 . S
C519 C518 1.372 . S
C519 C520 1.400 . S
C519 C524 1.490 . S
C520 H510 0.930 . S
C520 C519 1.400 . S
C520 C523 1.386 . S
H521 C537 0.930 . S
H522 C538 0.931 . S
C523 H511 0.929 . S
C523 C517 1.390 . S
C523 C520 1.386 . S
C524 C519 1.490 . S
C524 C526 1.395 1_545 S
C524 C527 1.388 1_655 S
H525 C531 0.930 . S
C526 H512 0.930 . S
C526 C524 1.395 1_565 S
C526 C529 1.420 . S
C527 C524 1.388 1_455 S
C527 C528 1.526 . S
C527 C531 1.413 1_545 S
C528 H513 0.960 . S
C528 H514 0.960 . S
C528 H515 0.960 1_455 S
C528 C527 1.526 . S
C529 C526 1.420 . S
C529 C530 1.375 1_655 S
C529 C533 1.497 . S
C530 C529 1.375 1_455 S
C530 C531 1.385 . S
C530 C532 1.478 . S
C531 H525 0.930 . S
C531 C527 1.413 1_565 S
C531 C530 1.385 . S
C532 C530 1.478 . S
C532 C534 1.381 . S
C532 C538 1.383 . S
C533 C529 1.497 . S
C533 H539 0.959 . S
C533 H540 0.961 . S
C533 H541 0.960 1_655 S
C534 C532 1.381 . S
C534 C535 1.394 . S
C534 H542 0.930 . S
C535 C534 1.394 . S
C535 C536 1.383 . S
C535 H543 0.929 . S
C536 C535 1.383 . S
C536 C537 1.377 . S
C537 H521 0.930 . S
C537 C536 1.377 . S
C537 C538 1.379 . S
C538 H522 0.931 . S
C538 C532 1.383 . S
C538 C537 1.379 . S
H539 C533 0.959 . S
H540 C533 0.961 . S
H541 C533 0.960 1_455 S
H542 C534 0.930 . S
H543 C535 0.929 . S
H544 C552 0.929 1_556 S
H545 C554 0.930 1_556 S
H546 C556 0.930 . S
H547 C559 0.929 . S
H548 C562 0.930 . S
H549 C564 0.960 . S
H550 C564 0.960 1_556 S
H551 C564 0.960 . S
C552 H544 0.929 1_554 S
C552 C553 1.377 . S
C552 C554 1.384 . S
C553 C552 1.377 . S
C553 C559 1.390 . S
C554 H545 0.930 1_554 S
C554 C552 1.384 . S
C554 C555 1.372 . S
C555 C554 1.372 . S
C555 C556 1.400 . S
C555 C560 1.490 . S
C556 H546 0.930 . S
C556 C555 1.400 . S
C556 C559 1.386 . S
H557 C573 0.930 . S
H558 C574 0.931 . S
C559 H547 0.929 . S
C559 C553 1.390 . S
C559 C556 1.386 . S
C560 C555 1.490 . S
C560 C562 1.395 . S
C560 C563 1.403 . S
H561 C567 0.930 . S
C562 H548 0.930 . S
C562 C560 1.395 . S
C562 C565 1.403 . S
C563 C560 1.403 . S
C563 C564 1.524 . S
C563 C567 1.400 . S
C564 H549 0.960 . S
C564 H550 0.960 1_554 S
C564 H551 0.960 . S
C564 C563 1.524 . S
C565 C562 1.403 . S
C565 C566 1.392 . S
C565 C569 1.495 . S
C566 C565 1.392 . S
C566 C567 1.385 . S
C566 C568 1.478 . S
C567 H561 0.930 . S
C567 C563 1.400 . S
C567 C566 1.385 . S
C568 C566 1.478 . S
C568 C570 1.381 . S
C568 C574 1.383 . S
C569 C565 1.495 . S
C569 H575 0.959 . S
C569 H576 0.961 . S
C569 H577 0.960 . S
C570 C568 1.381 . S
C570 C571 1.394 . S
C570 H578 0.930 1_554 S
C571 C570 1.394 . S
C571 C572 1.383 . S
C571 H579 0.929 1_554 S
C572 C571 1.383 . S
C572 C573 1.377 . S
C573 H557 0.930 . S
C573 C572 1.377 . S
C573 C574 1.379 . S
C574 H558 0.931 . S
C574 C568 1.383 . S
C574 C573 1.379 . S
H575 C569 0.959 . S
H576 C569 0.961 . S
H577 C569 0.960 . S
H578 C570 0.930 1_556 S
H579 C571 0.929 1_556 S
H580 C588 0.929 . S
H581 C590 0.930 . S
H582 C592 0.930 . S
H583 C595 0.929 . S
H584 C598 0.930 . S
H585 C600 0.960 . S
H586 C600 0.960 . S
H587 C600 0.960 . S
C588 H580 0.929 . S
C588 C589 1.377 . S
C588 C590 1.384 . S
C589 C588 1.377 . S
C589 C595 1.390 . S
C590 H581 0.930 . S
C590 C588 1.384 . S
C590 C591 1.372 . S
C591 C590 1.372 . S
C591 C592 1.400 . S
C591 C596 1.490 . S
C592 H582 0.930 . S
C592 C591 1.400 . S
C592 C595 1.386 . S
H593 C609 0.930 . S
H594 C610 0.931 . S
C595 H583 0.929 . S
C595 C589 1.390 . S
C595 C592 1.386 . S
C596 C591 1.490 . S
C596 C598 1.395 . S
C596 C599 1.403 1_545 S
H597 C603 0.930 . S
C598 H584 0.930 . S
C598 C596 1.395 . S
C598 C601 1.403 . S
C599 C596 1.403 1_565 S
C599 C600 1.524 . S
C599 C603 1.400 . S
C600 H585 0.960 . S
C600 H586 0.960 . S
C600 H587 0.960 . S
C600 C599 1.524 . S
C601 C598 1.403 . S
C601 C602 1.392 1_545 S
C601 C605 1.495 . S
C602 C601 1.392 1_565 S
C602 C603 1.385 . S
C602 C604 1.478 . S
C603 H597 0.930 . S
C603 C599 1.400 . S
C603 C602 1.385 . S
C604 C602 1.478 . S
C604 C606 1.381 . S
C604 C610 1.383 . S
C605 C601 1.495 . S
C605 H611 0.959 . S
C605 H612 0.961 . S
C605 H613 0.960 . S
C606 C604 1.381 . S
C606 C607 1.394 . S
C606 H614 0.930 . S
C607 C606 1.394 . S
C607 C608 1.383 . S
C607 H615 0.929 . S
C608 C607 1.383 . S
C608 C609 1.377 . S
C609 H593 0.930 . S
C609 C608 1.377 . S
C609 C610 1.379 . S
C610 H594 0.931 . S
C610 C604 1.383 . S
C610 C609 1.379 . S
H611 C605 0.959 . S
H612 C605 0.961 . S
H613 C605 0.960 . S
H614 C606 0.930 . S
H615 C607 0.929 . S
H616 C624 0.929 . S
H617 C626 0.930 . S
H618 C628 0.930 1_554 S
H619 C631 0.929 1_554 S
H620 C634 0.930 . S
H621 C636 0.960 . S
H622 C636 0.960 . S
H623 C636 0.960 . S
C624 H616 0.929 . S
C624 C625 1.377 . S
C624 C626 1.384 . S
C625 C624 1.377 . S
C625 C631 1.390 . S
C626 H617 0.930 . S
C626 C624 1.384 . S
C626 C627 1.372 . S
C627 C626 1.372 . S
C627 C628 1.400 . S
C627 C632 1.490 . S
C628 H618 0.930 1_556 S
C628 C627 1.400 . S
C628 C631 1.386 . S
H629 C645 0.930 . S
H630 C646 0.931 . S
C631 H619 0.929 1_556 S
C631 C625 1.390 . S
C631 C628 1.386 . S
C632 C627 1.490 . S
C632 C634 1.395 . S
C632 C635 1.403 . S
H633 C639 0.930 1_554 S
C634 H620 0.930 . S
C634 C632 1.395 . S
C634 C637 1.403 . S
C635 C632 1.403 . S
C635 C636 1.524 1_556 S
C635 C639 1.400 . S
C636 H621 0.960 . S
C636 H622 0.960 . S
C636 H623 0.960 . S
C636 C635 1.524 1_554 S
C637 C634 1.403 . S
C637 C638 1.392 . S
C637 C641 1.495 . S
C638 C637 1.392 . S
C638 C639 1.385 . S
C638 C640 1.478 . S
C639 H633 0.930 1_556 S
C639 C635 1.400 . S
C639 C638 1.385 . S
C640 C638 1.478 . S
C640 C642 1.381 . S
C640 C646 1.383 . S
C641 C637 1.495 . S
C641 H647 0.959 . S
C641 H648 0.961 . S
C641 H649 0.960 . S
C642 C640 1.381 . S
C642 C643 1.394 . S
C642 H650 0.930 . S
C643 C642 1.394 . S
C643 C644 1.383 . S
C643 H651 0.929 . S
C644 C643 1.383 . S
C644 C645 1.377 . S
C645 H629 0.930 . S
C645 C644 1.377 . S
C645 C646 1.379 . S
C646 H630 0.931 . S
C646 C640 1.383 . S
C646 C645 1.379 . S
H647 C641 0.959 . S
H648 C641 0.961 . S
H649 C641 0.960 . S
H650 C642 0.930 . S
H651 C643 0.929 . S
H652 C660 0.929 . S
H653 C662 0.930 . S
H654 C664 0.930 . S
H655 C667 0.929 . S
H656 C670 0.930 . S
H657 C672 0.960 . S
H658 C672 0.960 . S
H659 C672 0.960 . S
C660 H652 0.929 . S
C660 C661 1.377 . S
C660 C662 1.384 . S
C661 C660 1.377 . S
C661 C667 1.390 . S
C662 H653 0.930 . S
C662 C660 1.384 . S
C662 C663 1.372 . S
C663 C662 1.372 . S
C663 C664 1.400 . S
C663 C668 1.490 . S
C664 H654 0.930 . S
C664 C663 1.400 . S
C664 C667 1.386 . S
H665 C681 0.930 . S
H666 C682 0.931 . S
C667 H655 0.929 . S
C667 C661 1.390 . S
C667 C664 1.386 . S
C668 C663 1.490 . S
C668 C670 1.395 . S
C668 C671 1.403 1_565 S
H669 C675 0.930 . S
C670 H656 0.930 . S
C670 C668 1.395 . S
C670 C673 1.403 . S
C671 C668 1.403 1_545 S
C671 C672 1.524 . S
C671 C675 1.400 . S
C672 H657 0.960 . S
C672 H658 0.960 . S
C672 H659 0.960 . S
C672 C671 1.524 . S
C673 C670 1.403 . S
C673 C674 1.392 1_565 S
C673 C677 1.495 . S
C674 C673 1.392 1_545 S
C674 C675 1.385 . S
C674 C676 1.478 . S
C675 H669 0.930 . S
C675 C671 1.400 . S
C675 C674 1.385 . S
C676 C674 1.478 . S
C676 C678 1.381 . S
C676 C682 1.383 . S
C677 C673 1.495 . S
C677 H683 0.959 . S
C677 H684 0.961 . S
C677 H685 0.960 . S
C678 C676 1.381 . S
C678 C679 1.394 . S
C678 H686 0.930 . S
C679 C678 1.394 . S
C679 C680 1.383 . S
C679 H687 0.929 . S
C680 C679 1.383 . S
C680 C681 1.377 . S
C681 H665 0.930 . S
C681 C680 1.377 . S
C681 C682 1.379 . S
C682 H666 0.931 . S
C682 C676 1.383 . S
C682 C681 1.379 . S
H683 C677 0.959 . S
H684 C677 0.961 . S
H685 C677 0.960 . S
H686 C678 0.930 . S
H687 C679 0.929 . S
C121 C5 1.580 . S
C140 C19 1.596 . S
C157 C47 1.583 . S
C176 C33 1.562 . S
C193 C61 1.582 . S
C212 C75 1.587 . S
C229 C89 1.581 . S
C248 C103 1.568 . S
C265 C0 1.621 . S
C284 C28 1.632 . S
C301 C42 1.622 . S
C320 C14 1.624 . S
C337 C56 1.621 . S
C356 C84 1.597 . S
C373 C98 1.621 . S
C392 C70 1.592 . S
C409 C11 1.346 . S
C428 C67 1.349 . S
C445 C25 1.343 . S
C464 C81 1.358 . S
C481 C95 1.339 . S
C500 C39 1.319 . S
C517 C109 1.345 . S
C536 C53 1.356 . S
C553 C23 0.761 . S
C572 C9 0.743 . S
C589 C37 0.761 . S
C608 C51 0.747 . S
C625 C65 0.756 . S
C644 C79 0.737 . S
C661 C93 0.754 . S
C680 C107 0.754 . S
