# Generated by pormake.
# Topology unr, (4)-cn, num edge types: 1
# Building blocks:
#     Node 0, Type 0, BuildingBlock: CEKHIL_clean_sbu_0, # of connection points: 4
#     Node 1, Type 0, BuildingBlock: CEKHIL_clean_sbu_0, # of connection points: 4
#     Node 2, Type 0, BuildingBlock: CEKHIL_clean_sbu_0, # of connection points: 4
#     Node 3, Type 0, BuildingBlock: CEKHIL_clean_sbu_0, # of connection points: 4
#     Node 4, Type 0, BuildingBlock: CEKHIL_clean_sbu_0, # of connection points: 4
#     Node 5, Type 0, BuildingBlock: CEKHIL_clean_sbu_0, # of connection points: 4
#     Node 6, Type 0, BuildingBlock: CEKHIL_clean_sbu_0, # of connection points: 4
#     Node 7, Type 0, BuildingBlock: CEKHIL_clean_sbu_0, # of connection points: 4
#     Node 8, Type 0, BuildingBlock: CEKHIL_clean_sbu_0, # of connection points: 4
#     Node 9, Type 0, BuildingBlock: CEKHIL_clean_sbu_0, # of connection points: 4
#     Node 10, Type 0, BuildingBlock: CEKHIL_clean_sbu_0, # of connection points: 4
#     Node 11, Type 0, BuildingBlock: CEKHIL_clean_sbu_0, # of connection points: 4
#     Node 12, Type 0, BuildingBlock: CEKHIL_clean_sbu_0, # of connection points: 4
#     Node 13, Type 0, BuildingBlock: CEKHIL_clean_sbu_0, # of connection points: 4
#     Node 14, Type 0, BuildingBlock: CEKHIL_clean_sbu_0, # of connection points: 4
#     Node 15, Type 0, BuildingBlock: CEKHIL_clean_sbu_0, # of connection points: 4
#     Node 16, Type 0, BuildingBlock: CEKHIL_clean_sbu_0, # of connection points: 4
#     Node 17, Type 0, BuildingBlock: CEKHIL_clean_sbu_0, # of connection points: 4
#     Node 18, Type 0, BuildingBlock: CEKHIL_clean_sbu_0, # of connection points: 4
#     Node 19, Type 0, BuildingBlock: CEKHIL_clean_sbu_0, # of connection points: 4
#     Node 20, Type 0, BuildingBlock: CEKHIL_clean_sbu_0, # of connection points: 4
#     Node 21, Type 0, BuildingBlock: CEKHIL_clean_sbu_0, # of connection points: 4
#     Node 22, Type 0, BuildingBlock: CEKHIL_clean_sbu_0, # of connection points: 4
#     Node 23, Type 0, BuildingBlock: CEKHIL_clean_sbu_0, # of connection points: 4
#     Node 24, Type 0, BuildingBlock: CEKHIL_clean_sbu_0, # of connection points: 4
#     Node 25, Type 0, BuildingBlock: CEKHIL_clean_sbu_0, # of connection points: 4
#     Node 26, Type 0, BuildingBlock: CEKHIL_clean_sbu_0, # of connection points: 4
#     Node 27, Type 0, BuildingBlock: CEKHIL_clean_sbu_0, # of connection points: 4
#     Node 28, Type 0, BuildingBlock: CEKHIL_clean_sbu_0, # of connection points: 4
#     Node 29, Type 0, BuildingBlock: CEKHIL_clean_sbu_0, # of connection points: 4
#     Node 30, Type 0, BuildingBlock: CEKHIL_clean_sbu_0, # of connection points: 4
#     Node 31, Type 0, BuildingBlock: CEKHIL_clean_sbu_0, # of connection points: 4
#     Node 32, Type 0, BuildingBlock: CEKHIL_clean_sbu_0, # of connection points: 4
#     Node 33, Type 0, BuildingBlock: CEKHIL_clean_sbu_0, # of connection points: 4
#     Node 34, Type 0, BuildingBlock: CEKHIL_clean_sbu_0, # of connection points: 4
#     Node 35, Type 0, BuildingBlock: CEKHIL_clean_sbu_0, # of connection points: 4
#     Edge 36, Type (0, 0), BuildingBlock: AJUNOK_clean_linker_0, # of connection points: 2
#     Edge 37, Type (0, 0), BuildingBlock: AJUNOK_clean_linker_0, # of connection points: 2
#     Edge 38, Type (0, 0), BuildingBlock: AJUNOK_clean_linker_0, # of connection points: 2
#     Edge 39, Type (0, 0), BuildingBlock: AJUNOK_clean_linker_0, # of connection points: 2
#     Edge 40, Type (0, 0), BuildingBlock: AJUNOK_clean_linker_0, # of connection points: 2
#     Edge 41, Type (0, 0), BuildingBlock: AJUNOK_clean_linker_0, # of connection points: 2
#     Edge 42, Type (0, 0), BuildingBlock: AJUNOK_clean_linker_0, # of connection points: 2
#     Edge 43, Type (0, 0), BuildingBlock: AJUNOK_clean_linker_0, # of connection points: 2
#     Edge 44, Type (0, 0), BuildingBlock: AJUNOK_clean_linker_0, # of connection points: 2
#     Edge 45, Type (0, 0), BuildingBlock: AJUNOK_clean_linker_0, # of connection points: 2
#     Edge 46, Type (0, 0), BuildingBlock: AJUNOK_clean_linker_0, # of connection points: 2
#     Edge 47, Type (0, 0), BuildingBlock: AJUNOK_clean_linker_0, # of connection points: 2
#     Edge 48, Type (0, 0), BuildingBlock: AJUNOK_clean_linker_0, # of connection points: 2
#     Edge 49, Type (0, 0), BuildingBlock: AJUNOK_clean_linker_0, # of connection points: 2
#     Edge 50, Type (0, 0), BuildingBlock: AJUNOK_clean_linker_0, # of connection points: 2
#     Edge 51, Type (0, 0), BuildingBlock: AJUNOK_clean_linker_0, # of connection points: 2
#     Edge 52, Type (0, 0), BuildingBlock: AJUNOK_clean_linker_0, # of connection points: 2
#     Edge 53, Type (0, 0), BuildingBlock: AJUNOK_clean_linker_0, # of connection points: 2
#     Edge 54, Type (0, 0), BuildingBlock: AJUNOK_clean_linker_0, # of connection points: 2
#     Edge 55, Type (0, 0), BuildingBlock: AJUNOK_clean_linker_0, # of connection points: 2
#     Edge 56, Type (0, 0), BuildingBlock: AJUNOK_clean_linker_0, # of connection points: 2
#     Edge 57, Type (0, 0), BuildingBlock: AJUNOK_clean_linker_0, # of connection points: 2
#     Edge 58, Type (0, 0), BuildingBlock: AJUNOK_clean_linker_0, # of connection points: 2
#     Edge 59, Type (0, 0), BuildingBlock: AJUNOK_clean_linker_0, # of connection points: 2
#     Edge 60, Type (0, 0), BuildingBlock: AJUNOK_clean_linker_0, # of connection points: 2
#     Edge 61, Type (0, 0), BuildingBlock: AJUNOK_clean_linker_0, # of connection points: 2
#     Edge 62, Type (0, 0), BuildingBlock: AJUNOK_clean_linker_0, # of connection points: 2
#     Edge 63, Type (0, 0), BuildingBlock: AJUNOK_clean_linker_0, # of connection points: 2
#     Edge 64, Type (0, 0), BuildingBlock: AJUNOK_clean_linker_0, # of connection points: 2
#     Edge 65, Type (0, 0), BuildingBlock: AJUNOK_clean_linker_0, # of connection points: 2
#     Edge 66, Type (0, 0), BuildingBlock: AJUNOK_clean_linker_0, # of connection points: 2
#     Edge 67, Type (0, 0), BuildingBlock: AJUNOK_clean_linker_0, # of connection points: 2
#     Edge 68, Type (0, 0), BuildingBlock: AJUNOK_clean_linker_0, # of connection points: 2
#     Edge 69, Type (0, 0), BuildingBlock: AJUNOK_clean_linker_0, # of connection points: 2
#     Edge 70, Type (0, 0), BuildingBlock: AJUNOK_clean_linker_0, # of connection points: 2
#     Edge 71, Type (0, 0), BuildingBlock: AJUNOK_clean_linker_0, # of connection points: 2
#     Edge 72, Type (0, 0), BuildingBlock: AJUNOK_clean_linker_0, # of connection points: 2
#     Edge 73, Type (0, 0), BuildingBlock: AJUNOK_clean_linker_0, # of connection points: 2
#     Edge 74, Type (0, 0), BuildingBlock: AJUNOK_clean_linker_0, # of connection points: 2
#     Edge 75, Type (0, 0), BuildingBlock: AJUNOK_clean_linker_0, # of connection points: 2
#     Edge 76, Type (0, 0), BuildingBlock: AJUNOK_clean_linker_0, # of connection points: 2
#     Edge 77, Type (0, 0), BuildingBlock: AJUNOK_clean_linker_0, # of connection points: 2
#     Edge 78, Type (0, 0), BuildingBlock: AJUNOK_clean_linker_0, # of connection points: 2
#     Edge 79, Type (0, 0), BuildingBlock: AJUNOK_clean_linker_0, # of connection points: 2
#     Edge 80, Type (0, 0), BuildingBlock: AJUNOK_clean_linker_0, # of connection points: 2
#     Edge 81, Type (0, 0), BuildingBlock: AJUNOK_clean_linker_0, # of connection points: 2
#     Edge 82, Type (0, 0), BuildingBlock: AJUNOK_clean_linker_0, # of connection points: 2
#     Edge 83, Type (0, 0), BuildingBlock: AJUNOK_clean_linker_0, # of connection points: 2
#     Edge 84, Type (0, 0), BuildingBlock: AJUNOK_clean_linker_0, # of connection points: 2
#     Edge 85, Type (0, 0), BuildingBlock: AJUNOK_clean_linker_0, # of connection points: 2
#     Edge 86, Type (0, 0), BuildingBlock: AJUNOK_clean_linker_0, # of connection points: 2
#     Edge 87, Type (0, 0), BuildingBlock: AJUNOK_clean_linker_0, # of connection points: 2
#     Edge 88, Type (0, 0), BuildingBlock: AJUNOK_clean_linker_0, # of connection points: 2
#     Edge 89, Type (0, 0), BuildingBlock: AJUNOK_clean_linker_0, # of connection points: 2
#     Edge 90, Type (0, 0), BuildingBlock: AJUNOK_clean_linker_0, # of connection points: 2
#     Edge 91, Type (0, 0), BuildingBlock: AJUNOK_clean_linker_0, # of connection points: 2
#     Edge 92, Type (0, 0), BuildingBlock: AJUNOK_clean_linker_0, # of connection points: 2
#     Edge 93, Type (0, 0), BuildingBlock: AJUNOK_clean_linker_0, # of connection points: 2
#     Edge 94, Type (0, 0), BuildingBlock: AJUNOK_clean_linker_0, # of connection points: 2
#     Edge 95, Type (0, 0), BuildingBlock: AJUNOK_clean_linker_0, # of connection points: 2
#     Edge 96, Type (0, 0), BuildingBlock: AJUNOK_clean_linker_0, # of connection points: 2
#     Edge 97, Type (0, 0), BuildingBlock: AJUNOK_clean_linker_0, # of connection points: 2
#     Edge 98, Type (0, 0), BuildingBlock: AJUNOK_clean_linker_0, # of connection points: 2
#     Edge 99, Type (0, 0), BuildingBlock: AJUNOK_clean_linker_0, # of connection points: 2
#     Edge 100, Type (0, 0), BuildingBlock: AJUNOK_clean_linker_0, # of connection points: 2
#     Edge 101, Type (0, 0), BuildingBlock: AJUNOK_clean_linker_0, # of connection points: 2
#     Edge 102, Type (0, 0), BuildingBlock: AJUNOK_clean_linker_0, # of connection points: 2
#     Edge 103, Type (0, 0), BuildingBlock: AJUNOK_clean_linker_0, # of connection points: 2
#     Edge 104, Type (0, 0), BuildingBlock: AJUNOK_clean_linker_0, # of connection points: 2
#     Edge 105, Type (0, 0), BuildingBlock: AJUNOK_clean_linker_0, # of connection points: 2
#     Edge 106, Type (0, 0), BuildingBlock: AJUNOK_clean_linker_0, # of connection points: 2
#     Edge 107, Type (0, 0), BuildingBlock: AJUNOK_clean_linker_0, # of connection points: 2
# Relax obj value: 0.386
# Max RMSD: 0.183
# Mean RMSD: 0.177
data_MOF--net-unr--node1-CEKHIL_clean_sbu_0--edge1-AJUNOK_clean_linker_0
_symmetry_space_group_name_H-M    P1
_symmetry_Int_Tables_number       1
_symmetry_cell_setting            triclinic
loop_
_symmetry_equiv_pos_as_xyz
'x, y, z'
_cell_length_a     35.924503
_cell_length_b     35.924653
_cell_length_c     73.156777
_cell_angle_alpha  89.992891
_cell_angle_beta   89.999943
_cell_angle_gamma 119.87173
loop_
_atom_site_label
_atom_site_type_symbol
_atom_site_fract_x
_atom_site_fract_y
_atom_site_fract_z
_atom_type_partial_charge
Co0 Co 0.19268 0.12547 0.20027 0.0
O1 O 0.24755 0.13281 0.20574 0.0
O2 O 0.2301 0.15182 0.1796 0.0
C3 C 0.18132 0.14984 0.22705 0.0
O4 O 0.13779 0.12127 0.19059 0.0
Co5 Co 0.12057 0.05459 0.22402 0.0
O6 O 0.08598 0.06199 0.20456 0.0
C7 C 0.1538 0.02838 0.19363 0.0
C8 C 0.2583 0.14766 0.18927 0.0
C9 C 0.0984 0.0918 0.19267 0.0
O10 O 0.17484 0.06793 0.18882 0.0
O11 O 0.13453 0.01643 0.20902 0.0
O12 O 0.20469 0.1768 0.21443 0.0
O13 O 0.17143 0.11056 0.22405 0.0
Co14 Co 0.85018 0.06012 0.18148 0.0
O15 O 0.87056 0.11871 0.18806 0.0
O16 O 0.85319 0.09216 0.16 0.0
C17 C 0.80313 0.03263 0.2048 0.0
O18 O 0.82789 0.00223 0.16914 0.0
Co19 Co 0.85663 0.99462 0.20682 0.0
O20 O 0.81489 0.95117 0.18968 0.0
C21 C 0.93239 0.05746 0.18516 0.0
C22 C 0.86654 0.125 0.17086 0.0
C23 C 0.81308 0.96263 0.17338 0.0
O24 O 0.91088 0.07303 0.17757 0.0
O25 O 0.91708 0.02789 0.19733 0.0
O26 O 0.79209 0.04418 0.18986 0.0
O27 O 0.84178 0.03926 0.20543 0.0
Co28 Co 0.93281 0.84032 0.1648 0.0
O29 O 0.87718 0.79321 0.17011 0.0
O30 O 0.91797 0.79691 0.14655 0.0
C31 C 0.95983 0.84888 0.19324 0.0
O32 O 0.99352 0.88266 0.15602 0.0
Co33 Co 0.95962 0.92845 0.1824 0.0
O34 O 0.01619 0.94298 0.17263 0.0
C35 C 0.89206 0.89306 0.15491 0.0
C36 C 0.88249 0.77521 0.15574 0.0
C37 C 0.02298 0.91989 0.16145 0.0
O38 O 0.90433 0.86665 0.14989 0.0
O39 O 0.90749 0.91769 0.16876 0.0
O40 O 0.95861 0.81952 0.18252 0.0
O41 O 0.94002 0.86829 0.18725 0.0
Co42 Co 0.07633 0.19702 0.31312 0.0
O43 O 0.0685 0.2458 0.31043 0.0
O44 O 0.09335 0.23005 0.33526 0.0
C45 C 0.10805 0.20159 0.28586 0.0
O46 O 0.09091 0.151 0.3204 0.0
Co47 Co 0.02847 0.1199 0.28648 0.0
O48 O 0.06362 0.09918 0.29885 0.0
C49 C 0.98137 0.14143 0.31285 0.0
C50 C 0.08266 0.25554 0.32707 0.0
C51 C 0.08587 0.11615 0.31318 0.0
O52 O 0.01553 0.16225 0.32248 0.0
O53 O 0.98154 0.12776 0.29674 0.0
O54 O 0.1308 0.22568 0.29941 0.0
O55 O 0.06734 0.1807 0.28874 0.0
Co56 Co 0.77847 0.91831 0.2925 0.0
O57 O 0.74043 0.85865 0.28794 0.0
O58 O 0.75341 0.89008 0.31514 0.0
C59 C 0.7556 0.94181 0.26879 0.0
O60 O 0.81453 0.97834 0.30271 0.0
Co61 Co 0.84616 0.97641 0.26367 0.0
O62 O 0.85335 0.02351 0.28018 0.0
C63 C 0.85641 0.91144 0.28451 0.0
C64 C 0.73343 0.85521 0.30544 0.0
C65 C 0.83965 0.01623 0.29661 0.0
O66 O 0.82729 0.9068 0.29593 0.0
O67 O 0.86526 0.93404 0.26992 0.0
O68 O 0.73475 0.93262 0.28418 0.0
O69 O 0.78705 0.93442 0.26806 0.0
Co70 Co 0.09351 0.91383 0.28605 0.0
O71 O 0.14874 0.91905 0.28387 0.0
O72 O 0.10155 0.88282 0.30571 0.0
C73 C 0.07185 0.898 0.25673 0.0
O74 O 0.0331 0.90128 0.29168 0.0
Co75 Co 0.0836 0.9841 0.26558 0.0
O76 O 0.02407 0.94925 0.27501 0.0
C77 C 0.13585 0.00695 0.29733 0.0
C78 C 0.1391 0.89549 0.29844 0.0
C79 C 0.01029 0.91724 0.28584 0.0
O80 O 0.11735 0.96709 0.30178 0.0
O81 O 0.13585 0.01851 0.28086 0.0
O82 O 0.06955 0.86827 0.26759 0.0
O83 O 0.09378 0.93649 0.26311 0.0
Co84 Co 0.79612 0.87334 0.81875 0.0
O85 O 0.74094 0.86859 0.81706 0.0
O86 O 0.75216 0.81371 0.82088 0.0
C87 C 0.82471 0.92919 0.83839 0.0
O88 O 0.84943 0.86728 0.82112 0.0
Co89 Co 0.87523 0.95789 0.80518 0.0
O90 O 0.90775 0.93235 0.81649 0.0
C91 C 0.81671 0.89371 0.7786 0.0
C92 C 0.72507 0.82755 0.81883 0.0
C93 C 0.89035 0.89282 0.82092 0.0
O94 O 0.79722 0.86685 0.79155 0.0
O95 O 0.84559 0.93285 0.78134 0.0
O96 O 0.80191 0.89035 0.84464 0.0
O97 O 0.82559 0.93274 0.82086 0.0
Co98 Co 0.1058 0.89639 0.81116 0.0
O99 O 0.10666 0.84375 0.80644 0.0
O100 O 0.14831 0.89374 0.82619 0.0
C101 C 0.03132 0.86483 0.81608 0.0
O102 O 0.11148 0.95137 0.81874 0.0
Co103 Co 0.09479 0.89487 0.78494 0.0
O104 O 0.0963 0.9523 0.78986 0.0
C105 C 0.16788 0.92392 0.7786 0.0
C106 C 0.13663 0.85675 0.81872 0.0
C107 C 0.10518 0.97048 0.80556 0.0
O108 O 0.15788 0.9329 0.79411 0.0
O109 O 0.1394 0.89064 0.77084 0.0
O110 O 0.05797 0.86548 0.82785 0.0
O111 O 0.04619 0.88072 0.8002 0.0
Co112 Co 0.04554 0.15115 0.82206 0.0
O113 O 0.09024 0.20569 0.81309 0.0
O114 O 0.05206 0.19594 0.83825 0.0
C115 C 0.08287 0.11686 0.81739 0.0
O116 O -0.00209 0.10091 0.83598 0.0
Co117 Co 0.00352 0.06636 0.79977 0.0
O118 O 0.98968 0.03982 0.82437 0.0
C119 C 0.97397 0.13049 0.79559 0.0
C120 C 0.08246 0.22222 0.82736 0.0
C121 C 0.98247 0.06011 0.83683 0.0
O122 O 0.00121 0.15656 0.80729 0.0
O123 O 0.9714 0.09499 0.79076 0.0
O124 O 0.08883 0.13876 0.83234 0.0
O125 O 0.05614 0.11756 0.80593 0.0
Co126 Co 0.90285 0.84742 0.67773 0.0
O127 O 0.8876 0.78864 0.68131 0.0
O128 O 0.85371 0.8109 0.66287 0.0
C129 C 0.97396 0.87253 0.67487 0.0
O130 O 0.90936 0.90489 0.67036 0.0
Co131 Co 0.96646 0.92029 0.7039 0.0
O132 O 0.96527 0.95903 0.68485 0.0
C133 C 0.87455 0.86438 0.71397 0.0
C134 C 0.85702 0.77913 0.66961 0.0
C135 C 0.93503 0.94511 0.67313 0.0
O136 O 0.86485 0.84435 0.6986 0.0
O137 O 0.91263 0.89254 0.71874 0.0
O138 O 0.94917 0.85642 0.66069 0.0
O139 O 0.95488 0.87034 0.69 0.0
Co140 Co 0.20576 0.10279 0.69991 0.0
O141 O 0.25993 0.1547 0.7037 0.0
O142 O 0.24743 0.10416 0.68324 0.0
C143 C 0.16182 0.13132 0.7003 0.0
O144 O 0.15531 0.04647 0.69138 0.0
Co145 Co 0.13603 0.07033 0.73019 0.0
O146 O 0.10248 0.02383 0.71235 0.0
C147 C 0.21133 0.06059 0.73508 0.0
C148 C 0.27447 0.14045 0.69081 0.0
C149 C 0.11766 0.01959 0.69723 0.0
O150 O 0.22157 0.07055 0.71821 0.0
O151 O 0.18232 0.06522 0.74311 0.0
O152 O 0.18323 0.13374 0.68558 0.0
O153 O 0.1725 0.11761 0.71451 0.0
Co154 Co 0.92264 0.13695 0.69117 0.0
O155 O 0.87496 0.14562 0.68766 0.0
O156 O 0.9432 0.19753 0.68722 0.0
C157 C 0.90092 0.0798 0.67257 0.0
O158 O 0.97987 0.13811 0.69421 0.0
Co159 Co 0.90292 0.05122 0.70971 0.0
O160 O 0.96542 0.07412 0.70597 0.0
C161 C 0.90226 0.11893 0.73155 0.0
C162 C 0.90266 0.18616 0.68636 0.0
C163 C 0.99162 0.11148 0.69984 0.0
O164 O 0.92 0.14522 0.71823 0.0
O165 O 0.88706 0.07843 0.72989 0.0
O166 O 0.92058 0.11835 0.66577 0.0
O167 O 0.89027 0.07748 0.68951 0.0
Co168 Co 0.87845 0.47201 0.52105 0.0
O169 O 0.92898 0.46764 0.51932 0.0
O170 O 0.88919 0.46456 0.49559 0.0
C171 C 0.90667 0.53034 0.53947 0.0
O172 O 0.82375 0.47597 0.51876 0.0
Co173 Co 0.83851 0.45973 0.55986 0.0
O174 O 0.80589 0.48355 0.54752 0.0
C175 C 0.82358 0.38401 0.5385 0.0
C176 C 0.92298 0.46412 0.50184 0.0
C177 C 0.80098 0.48344 0.53026 0.0
O178 O 0.84236 0.40781 0.52454 0.0
O179 O 0.82212 0.39893 0.55421 0.0
O180 O 0.91237 0.53495 0.52194 0.0
O181 O 0.88908 0.49125 0.54519 0.0
Co182 Co 0.53749 0.40748 0.51804 0.0
O183 O 0.53985 0.46042 0.51254 0.0
O184 O 0.53247 0.41245 0.49172 0.0
C185 C 0.48866 0.38887 0.54064 0.0
O186 O 0.53342 0.34851 0.52 0.0
Co187 Co 0.56681 0.39909 0.55708 0.0
O188 O 0.53856 0.33774 0.55007 0.0
C189 C 0.63135 0.44939 0.52899 0.0
C190 C 0.53454 0.44891 0.49559 0.0
C191 C 0.53112 0.32443 0.53359 0.0
O192 O 0.60215 0.43626 0.51657 0.0
O193 O 0.62321 0.44168 0.54605 0.0
O194 O 0.47618 0.38041 0.52377 0.0
O195 O 0.52955 0.4118 0.54296 0.0
Co196 Co 0.60214 0.13193 0.53333 0.0
O197 O 0.55099 0.07816 0.53105 0.0
O198 O 0.59298 0.11412 0.50775 0.0
C199 C 0.62877 0.11182 0.55695 0.0
O200 O 0.65896 0.18866 0.53188 0.0
Co201 Co 0.61487 0.18035 0.57014 0.0
O202 O 0.67453 0.21307 0.56086 0.0
C203 C 0.55924 0.18525 0.54167 0.0
C204 C 0.55992 0.07921 0.51389 0.0
C205 C 0.6848 0.21471 0.54407 0.0
O206 O 0.5695 0.16424 0.53039 0.0
O207 O 0.57088 0.19138 0.55846 0.0
O208 O 0.63397 0.10293 0.54031 0.0
O209 O 0.60369 0.12767 0.55873 0.0
Co210 Co 0.79226 0.57197 0.61269 0.0
O211 O 0.78561 0.62141 0.61491 0.0
O212 O 0.79297 0.58614 0.63817 0.0
C213 C 0.84302 0.59892 0.59059 0.0
O214 O 0.80114 0.52046 0.61549 0.0
Co215 Co 0.771 0.52215 0.57602 0.0
O216 O 0.8034 0.49655 0.58734 0.0
C217 C 0.70078 0.50828 0.60116 0.0
C218 C 0.78937 0.61849 0.6324 0.0
C219 C 0.80865 0.49688 0.60458 0.0
O220 O 0.72804 0.53235 0.61334 0.0
O221 O 0.71147 0.50341 0.58501 0.0
O222 O 0.85363 0.60835 0.60762 0.0
O223 O 0.80229 0.57758 0.58746 0.0
Co224 Co 0.46799 0.27631 0.62695 0.0
O225 O 0.42084 0.22317 0.63472 0.0
O226 O 0.46171 0.27713 0.65331 0.0
C227 C 0.43404 0.28779 0.6036 0.0
O228 O 0.5193 0.33628 0.62276 0.0
Co229 Co 0.50317 0.27891 0.58773 0.0
O230 O 0.53377 0.34166 0.59256 0.0
C231 C 0.52454 0.2381 0.61774 0.0
C232 C 0.42906 0.23861 0.65113 0.0
C233 C 0.53937 0.35816 0.60848 0.0
O234 O 0.5081 0.25238 0.62951 0.0
O235 O 0.52178 0.24146 0.60043 0.0
O236 O 0.42952 0.29794 0.62014 0.0
O237 O 0.45372 0.26615 0.60227 0.0
Co238 Co 0.76483 0.2486 0.63232 0.0
O239 O 0.8217 0.25929 0.6366 0.0
O240 O 0.77666 0.25464 0.65833 0.0
C241 C 0.74629 0.19316 0.61298 0.0
O242 O 0.70296 0.23694 0.63231 0.0
Co243 Co 0.74004 0.2589 0.59269 0.0
O244 O 0.6811 0.22747 0.60296 0.0
C245 C 0.79278 0.33539 0.61538 0.0
C246 C 0.81385 0.2592 0.65386 0.0
C247 C 0.67349 0.22581 0.62005 0.0
O248 O 0.78659 0.31192 0.62957 0.0
O249 O 0.78049 0.32034 0.59927 0.0
O250 O 0.74323 0.18673 0.6305 0.0
O251 O 0.76404 0.23276 0.608 0.0
Co252 Co 0.49912 0.22109 0.16707 0.0
O253 O 0.45003 0.22045 0.15653 0.0
O254 O 0.4481 0.17288 0.17642 0.0
C255 C 0.53196 0.29162 0.17336 0.0
O256 O 0.54253 0.21169 0.18131 0.0
Co257 Co 0.59191 0.27859 0.15325 0.0
O258 O 0.60654 0.27088 0.17863 0.0
C259 C 0.53325 0.19512 0.13492 0.0
C260 C 0.42744 0.18717 0.16675 0.0
C261 C 0.58157 0.23551 0.18654 0.0
O262 O 0.50226 0.18641 0.14607 0.0
O263 O 0.56969 0.22982 0.13538 0.0
O264 O 0.50429 0.26435 0.18488 0.0
O265 O 0.53813 0.27569 0.15868 0.0
Co266 Co 0.77605 0.2728 0.17001 0.0
O267 O 0.78175 0.22887 0.158 0.0
O268 O 0.83514 0.28655 0.17118 0.0
C269 C 0.71687 0.22703 0.18582 0.0
O270 O 0.78226 0.32471 0.18374 0.0
Co271 Co 0.69462 0.28109 0.16526 0.0
O272 O 0.71954 0.3239 0.18523 0.0
C273 C 0.7615 0.31217 0.1362 0.0
C274 C 0.8221 0.25081 0.16228 0.0
C275 C 0.75907 0.3404 0.18943 0.0
O276 O 0.78626 0.30434 0.14616 0.0
O277 O 0.7234 0.30268 0.14098 0.0
O278 O 0.75453 0.23761 0.19231 0.0
O279 O 0.71645 0.24272 0.17005 0.0
Co280 Co 0.76468 0.5234 0.16133 0.0
O281 O 0.81383 0.57595 0.15445 0.0
O282 O 0.75015 0.56809 0.16168 0.0
C283 C 0.79884 0.50187 0.18087 0.0
O284 O 0.70705 0.47433 0.16918 0.0
Co285 Co 0.76123 0.43705 0.15282 0.0
O286 O 0.70977 0.41315 0.16892 0.0
C287 C 0.74678 0.48459 0.12332 0.0
C288 C 0.78953 0.59293 0.15632 0.0
C289 C 0.69105 0.43436 0.17285 0.0
O290 O 0.74642 0.51111 0.13499 0.0
O291 O 0.75606 0.4555 0.12746 0.0
O292 O 0.78606 0.52802 0.18646 0.0
O293 O 0.79397 0.49318 0.16366 0.0
Co294 Co 0.56581 0.12289 0.02883 0.0
O295 O 0.56272 0.0687 0.03321 0.0
O296 O 0.51008 0.07699 0.02192 0.0
C297 C 0.63112 0.15523 0.01525 0.0
O298 O 0.55694 0.17262 0.02167 0.0
Co299 Co 0.63816 0.20781 0.0457 0.0
O300 O 0.61711 0.23483 0.02781 0.0
C301 C 0.56647 0.14483 0.06862 0.0
C302 C 0.52385 0.05119 0.02687 0.0
C303 C 0.58027 0.21358 0.02036 0.0
O304 O 0.54532 0.12331 0.0545 0.0
O305 O 0.6051 0.17618 0.06795 0.0
O306 O 0.59703 0.13054 0.0057 0.0
O307 O 0.62474 0.15634 0.03247 0.0
Co308 Co 0.84683 0.40026 0.0264 0.0
O309 O 0.90056 0.44914 0.03339 0.0
O310 O 0.89091 0.3846 0.02721 0.0
C311 C 0.82875 0.43544 0.00571 0.0
O312 O 0.79738 0.34252 0.01815 0.0
Co313 Co 0.75974 0.39796 0.03129 0.0
O314 O 0.73585 0.34431 0.01672 0.0
C315 C 0.80249 0.38402 0.06316 0.0
C316 C 0.91706 0.42434 0.0317 0.0
C317 C 0.75743 0.32548 0.01393 0.0
O318 O 0.83143 0.38359 0.05286 0.0
O319 O 0.77429 0.39283 0.0572 0.0
O320 O 0.85415 0.42104 0.00096 0.0
O321 O 0.81804 0.43066 0.02268 0.0
Co322 Co 0.60554 0.42041 0.02228 0.0
O323 O 0.56007 0.42681 0.03301 0.0
O324 O 0.61097 0.47435 0.01497 0.0
C325 C 0.5622 0.35188 0.01326 0.0
O326 O 0.65671 0.42545 0.00804 0.0
Co327 Co 0.6277 0.35062 0.0343 0.0
O328 O 0.66182 0.36617 0.01148 0.0
C329 C 0.66129 0.43246 0.05516 0.0
C330 C 0.57614 0.46307 0.02432 0.0
C331 C 0.67329 0.40207 0.00378 0.0
O332 O 0.64342 0.44733 0.04437 0.0
O333 O 0.65713 0.39506 0.05366 0.0
O334 O 0.5663 0.38323 0.00298 0.0
O335 O 0.58264 0.36285 0.0285 0.0
Co336 Co 0.52239 0.7639 0.86963 0.0
O337 O 0.57091 0.75819 0.86408 0.0
O338 O 0.5278 0.76184 0.8433 0.0
C339 C 0.55549 0.81724 0.89025 0.0
O340 O 0.46905 0.77027 0.87146 0.0
Co341 Co 0.4889 0.74347 0.90966 0.0
O342 O 0.45594 0.77125 0.90155 0.0
C343 C 0.47129 0.67312 0.88416 0.0
C344 C 0.56142 0.75833 0.84705 0.0
C345 C 0.44886 0.77577 0.88483 0.0
O346 O 0.48548 0.69958 0.87072 0.0
O347 O 0.47331 0.68464 0.90084 0.0
O348 O 0.55846 0.82612 0.87293 0.0
O349 O 0.53741 0.77694 0.89411 0.0
Co350 Co 0.18721 0.70585 0.87928 0.0
O351 O 0.1869 0.75773 0.87439 0.0
O352 O 0.18264 0.71189 0.85306 0.0
C353 C 0.13857 0.68304 0.90215 0.0
O354 O 0.18625 0.64847 0.88027 0.0
Co355 Co 0.21867 0.6971 0.91781 0.0
O356 O 0.19378 0.63651 0.90995 0.0
C357 C 0.28181 0.74983 0.88979 0.0
C358 C 0.1836 0.74764 0.85726 0.0
C359 C 0.18616 0.62427 0.89333 0.0
O360 O 0.25196 0.73709 0.87768 0.0
O361 O 0.27446 0.74101 0.90682 0.0
O362 O 0.12582 0.67576 0.88526 0.0
O363 O 0.17923 0.70793 0.90435 0.0
Co364 Co 0.25004 0.42647 0.87971 0.0
O365 O 0.19483 0.37692 0.87742 0.0
O366 O 0.23525 0.41484 0.85402 0.0
C367 C 0.27543 0.39738 0.90023 0.0
O368 O 0.30938 0.47969 0.87767 0.0
Co369 Co 0.2759 0.4703 0.91776 0.0
O370 O 0.33361 0.50035 0.90637 0.0
C371 C 0.21846 0.48559 0.89399 0.0
C372 C 0.19978 0.3821 0.85991 0.0
C373 C 0.33929 0.50301 0.88911 0.0
O374 O 0.22339 0.46442 0.88095 0.0
O375 O 0.23385 0.48867 0.91006 0.0
O376 O 0.27694 0.3909 0.88287 0.0
O377 O 0.25517 0.41735 0.90451 0.0
Co378 Co 0.45371 0.84294 0.97272 0.0
O379 O 0.4477 0.89181 0.97761 0.0
O380 O 0.45812 0.85375 0.99879 0.0
C381 C 0.50148 0.87343 0.94973 0.0
O382 O 0.46206 0.79073 0.97223 0.0
Co383 Co 0.42697 0.79956 0.93459 0.0
O384 O 0.45918 0.77093 0.94284 0.0
C385 C 0.36064 0.78339 0.96226 0.0
C386 C 0.45366 0.8866 0.99466 0.0
C387 C 0.46687 0.76835 0.95967 0.0
O388 O 0.38962 0.80384 0.97443 0.0
O389 O 0.36908 0.78169 0.94536 0.0
O390 O 0.51443 0.87984 0.96659 0.0
O391 O 0.46042 0.85262 0.94754 0.0
Co392 Co 0.12536 0.55074 0.98296 0.0
O393 O 0.07703 0.49665 0.98906 0.0
O394 O 0.11873 0.5456 0.00933 0.0
C395 C 0.09221 0.56889 0.96138 0.0
O396 O 0.17774 0.61079 0.98087 0.0
Co397 Co 0.16062 0.56305 0.94325 0.0
O398 O 0.19121 0.62419 0.95078 0.0
C399 C 0.18034 0.51363 0.96987 0.0
C400 C 0.08482 0.50858 0.00598 0.0
C401 C 0.19748 0.63631 0.96743 0.0
O402 O 0.16403 0.52478 0.98297 0.0
O403 O 0.17824 0.52211 0.95303 0.0
O404 O 0.08826 0.57537 0.97853 0.0
O405 O 0.11108 0.54703 0.95821 0.0
Co406 Co 0.41652 0.51292 0.97643 0.0
O407 O 0.47293 0.52147 0.97948 0.0
O408 O 0.42952 0.51474 0.00233 0.0
C409 C 0.39549 0.46022 0.95532 0.0
O410 O 0.35532 0.50306 0.97764 0.0
Co411 Co 0.39143 0.53057 0.93799 0.0
O412 O 0.3328 0.49906 0.94858 0.0
C413 C 0.44627 0.60301 0.96238 0.0
C414 C 0.46621 0.51949 0.99691 0.0
C415 C 0.32569 0.49491 0.96575 0.0
O416 O 0.44011 0.57707 0.97567 0.0
O417 O 0.43276 0.59067 0.94609 0.0
O418 O 0.39315 0.45111 0.97259 0.0
O419 O 0.41421 0.5006 0.95156 0.0
Co420 Co 0.16144 0.57327 0.48381 0.0
O421 O 0.11007 0.56331 0.47144 0.0
O422 O 0.11561 0.51565 0.48862 0.0
C423 C 0.17666 0.63777 0.49484 0.0
O424 O 0.20853 0.57194 0.49879 0.0
Co425 Co 0.25107 0.65248 0.47516 0.0
O426 O 0.26941 0.63545 0.49765 0.0
C427 C 0.21566 0.57339 0.45215 0.0
C428 C 0.09146 0.52545 0.4788 0.0
C429 C 0.2476 0.5973 0.50376 0.0
O430 O 0.1811 0.55381 0.46178 0.0
O431 O 0.24507 0.61234 0.45492 0.0
O432 O 0.14991 0.60337 0.50368 0.0
O433 O 0.19133 0.63204 0.47972 0.0
Co434 Co 0.4161 0.57311 0.46857 0.0
O435 O 0.41578 0.5194 0.46689 0.0
O436 O 0.47391 0.58254 0.47087 0.0
C437 C 0.36275 0.55108 0.49091 0.0
O438 O 0.42443 0.6318 0.47059 0.0
Co439 Co 0.36731 0.54939 0.44896 0.0
O440 O 0.37229 0.60876 0.45041 0.0
C441 C 0.42131 0.5621 0.4275 0.0
C442 C 0.45707 0.54127 0.46889 0.0
C443 C 0.39946 0.63889 0.46065 0.0
O444 O 0.43292 0.58706 0.44136 0.0
O445 O 0.38683 0.52699 0.42885 0.0
O446 O 0.40196 0.56271 0.4943 0.0
O447 O 0.35176 0.54988 0.47404 0.0
Co448 Co 0.389 0.85832 0.46857 0.0
O449 O 0.44712 0.90322 0.46332 0.0
O450 O 0.40652 0.90297 0.48631 0.0
C451 C 0.4001 0.80163 0.46538 0.0
O452 O 0.32978 0.81867 0.47942 0.0
Co453 Co 0.33242 0.7891 0.44006 0.0
O454 O 0.2913 0.76352 0.46032 0.0
C455 C 0.34895 0.87783 0.43622 0.0
C456 C 0.44281 0.92221 0.47763 0.0
C457 C 0.29599 0.78309 0.47537 0.0
O458 O 0.36668 0.88817 0.45207 0.0
O459 O 0.33659 0.84138 0.4287 0.0
O460 O 0.41018 0.82356 0.48049 0.0
O461 O 0.38755 0.81695 0.45231 0.0
Co462 Co 0.22765 0.48906 0.34722 0.0
O463 O 0.20526 0.42922 0.34991 0.0
O464 O 0.16545 0.46048 0.34718 0.0
C465 C 0.2761 0.50026 0.32527 0.0
O466 O 0.24225 0.55133 0.34421 0.0
Co467 Co 0.32346 0.54644 0.35803 0.0
O468 O 0.3135 0.59286 0.34913 0.0
C469 C 0.25769 0.51289 0.38685 0.0
C470 C 0.16759 0.42552 0.3491 0.0
C471 C 0.27684 0.58819 0.34512 0.0
O472 O 0.22843 0.49602 0.37453 0.0
O473 O 0.29782 0.53124 0.38314 0.0
O474 O 0.23624 0.48612 0.32098 0.0
O475 O 0.28339 0.50049 0.34257 0.0
Co476 Co 0.5038 0.71058 0.32861 0.0
O477 O 0.55856 0.74977 0.33855 0.0
O478 O 0.54527 0.69572 0.31994 0.0
C479 C 0.489 0.76211 0.32056 0.0
O480 O 0.45168 0.66377 0.31567 0.0
Co481 Co 0.41959 0.70374 0.34337 0.0
O482 O 0.39493 0.67254 0.32023 0.0
C483 C 0.45951 0.65868 0.36218 0.0
C484 C 0.57304 0.72903 0.32916 0.0
C485 C 0.41266 0.65368 0.31243 0.0
O486 O 0.49022 0.67212 0.35049 0.0
O487 O 0.42991 0.66869 0.36193 0.0
O488 O 0.51126 0.75242 0.30957 0.0
O489 O 0.47793 0.74192 0.33592 0.0
Co490 Co 0.29825 0.81979 0.33949 0.0
O491 O 0.24303 0.81562 0.34178 0.0
O492 O 0.29301 0.85535 0.32143 0.0
C493 C 0.27581 0.74896 0.34122 0.0
O494 O 0.35732 0.83032 0.33203 0.0
Co495 Co 0.33573 0.79112 0.37138 0.0
O496 O 0.38121 0.80234 0.35352 0.0
C497 C 0.33272 0.87107 0.37446 0.0
C498 C 0.255 0.84235 0.32815 0.0
C499 C 0.38482 0.82048 0.33816 0.0
O500 O 0.32285 0.86947 0.35747 0.0
O501 O 0.33537 0.84115 0.38273 0.0
O502 O 0.27287 0.76561 0.3259 0.0
O503 O 0.28737 0.77432 0.35517 0.0
C504 C 0.03211 0.05402 0.17493 0.0
C505 C 0.06369 0.09291 0.1826 0.0
C506 C 0.98943 0.04446 0.1738 0.0
C507 C 0.97733 0.07388 0.17997 0.0
H508 H 0.03943 0.02882 0.17192 0.0
H509 H 0.9652 0.01241 0.1697 0.0
S510 S 0.04946 0.18354 0.1974 0.0
N511 N 0.08148 0.16362 0.19361 0.0
N512 N 0.0009 0.14588 0.19113 0.0
C513 C 0.00945 0.11505 0.18525 0.0
C514 C 0.05301 0.12467 0.18655 0.0
C515 C 0.8392 0.95037 0.14412 0.0
C516 C 0.8096 0.93275 0.15866 0.0
C517 C 0.86178 0.93006 0.13823 0.0
C518 C 0.85438 0.89177 0.14657 0.0
H519 H 0.8511 0.98325 0.13983 0.0
H520 H 0.89039 0.94843 0.13005 0.0
S521 S 0.76315 0.82213 0.17655 0.0
N522 N 0.76144 0.86715 0.17495 0.0
N523 N 0.80319 0.82857 0.1633 0.0
C524 C 0.81612 0.86833 0.15644 0.0
C525 C 0.79374 0.88924 0.16282 0.0
C526 C 0.12849 0.00655 0.16191 0.0
C527 C 0.13918 0.99582 0.17892 0.0
C528 C 0.09349 0.97567 0.15183 0.0
C529 C 0.0685 0.93383 0.15868 0.0
H530 H 0.14215 0.03983 0.15785 0.0
H531 H 0.08106 0.98669 0.14087 0.0
S532 S 0.09829 0.88581 0.19662 0.0
N533 N 0.13297 0.93776 0.19803 0.0
N534 N 0.06806 0.8796 0.17857 0.0
C535 C 0.08665 0.92074 0.17249 0.0
C536 C 0.12148 0.95214 0.18309 0.0
C537 C 0.08887 0.05485 0.3264 0.0
C538 C 0.11116 0.09705 0.3197 0.0
C539 C 0.10331 0.02594 0.32255 0.0
C540 C 0.13935 0.0383 0.31123 0.0
H541 H 0.0572 0.04251 0.3323 0.0
H542 H 0.08193 0.99235 0.32567 0.0
S543 S 0.21557 0.14859 0.29566 0.0
N544 N 0.17667 0.15267 0.30582 0.0
N545 N 0.20305 0.09791 0.29793 0.0
C546 C 0.16608 0.08226 0.3077 0.0
C547 C 0.15185 0.11184 0.31197 0.0
C548 C 0.87145 0.09325 0.30427 0.0
C549 C 0.86146 0.0518 0.3097 0.0
C550 C 0.90914 0.12916 0.3104 0.0
C551 C 0.93868 0.12367 0.32102 0.0
H552 H 0.85343 0.09751 0.29343 0.0
H553 H 0.91931 0.15956 0.30361 0.0
S554 S 0.91842 0.0246 0.34477 0.0
N555 N 0.87638 0.00935 0.33128 0.0
N556 N 0.94838 0.07705 0.34202 0.0
C557 C 0.92378 0.08438 0.33006 0.0
C558 C 0.885 0.04778 0.32416 0.0
C559 C 0.91282 0.91301 0.30431 0.0
C560 C 0.8855 0.89536 0.28915 0.0
C561 C 0.95237 0.91412 0.30486 0.0
C562 C 0.96482 0.8969 0.29043 0.0
H563 H 0.90622 0.93078 0.31455 0.0
H564 H 0.97527 0.93299 0.31539 0.0
S565 S 0.90024 0.83884 0.24996 0.0
N566 N 0.87012 0.85414 0.26112 0.0
N567 N 0.94408 0.85538 0.26239 0.0
C568 C 0.93506 0.87383 0.27666 0.0
C569 C 0.89529 0.87329 0.27594 0.0
C570 C 0.95457 0.89609 0.83549 0.0
C571 C 0.91935 0.87532 0.82358 0.0
C572 C 0.98892 0.88799 0.83464 0.0
C573 C 0.9896 0.85981 0.82148 0.0
H574 H 0.95683 0.92069 0.84471 0.0
H575 H 0.01692 0.9071 0.84306 0.0
S576 S 0.90366 0.79505 0.78821 0.0
N577 N 0.88538 0.82253 0.79946 0.0
N578 N 0.95092 0.80883 0.79728 0.0
C579 C 0.95335 0.83681 0.81035 0.0
C580 C 0.91789 0.84417 0.81156 0.0
C581 C 0.10157 0.06282 0.82939 0.0
C582 C 0.09738 0.08544 0.81464 0.0
C583 C 0.10577 0.02644 0.82635 0.0
C584 C 0.10584 0.01162 0.80848 0.0
H585 H 0.09906 0.07166 0.8433 0.0
H586 H 0.10706 0.00878 0.83811 0.0
S587 S 0.10111 0.06346 0.76535 0.0
N588 N 0.09785 0.09338 0.78165 0.0
N589 N 0.10551 0.02527 0.77592 0.0
C590 C 0.10435 0.03577 0.79368 0.0
C591 C 0.10024 0.07265 0.79678 0.0
C592 C 0.89291 0.95934 0.85518 0.0
C593 C 0.8586 0.96434 0.84904 0.0
C594 C 0.93515 0.99388 0.85426 0.0
C595 C 0.94353 0.03423 0.84782 0.0
H596 H 0.8881 0.92753 0.85773 0.0
H597 H 0.9614 0.98759 0.85623 0.0
S598 S 0.86265 0.06613 0.83676 0.0
N599 N 0.83428 0.01414 0.84101 0.0
N600 N 0.91324 0.07964 0.84026 0.0
C601 C 0.90867 0.04129 0.84555 0.0
C602 C 0.86598 0.00595 0.84595 0.0
C603 C 0.94699 0.05214 0.661 0.0
C604 C 0.90551 0.04471 0.66472 0.0
C605 C 0.95618 0.01859 0.66197 0.0
C606 C 0.92364 0.97634 0.66573 0.0
H607 H 0.97337 0.08462 0.65958 0.0
H608 H 0.98938 0.02639 0.66131 0.0
S609 S 0.80784 0.93933 0.67188 0.0
N610 N 0.83065 0.99191 0.66949 0.0
N611 N 0.84693 0.92803 0.66984 0.0
C612 C 0.88096 0.96781 0.66674 0.0
C613 C 0.87207 0.00228 0.66655 0.0
C614 C 0.07931 0.94074 0.6954 0.0
C615 C 0.09124 0.98005 0.68687 0.0
C616 C 0.04461 0.90274 0.68891 0.0
C617 C 0.0202 0.90312 0.67396 0.0
H618 H 0.09452 0.9399 0.70808 0.0
H619 H 0.03344 0.87391 0.69707 0.0
S620 S 0.04514 0.99646 0.64447 0.0
N621 N 0.08178 0.01632 0.6608 0.0
N622 N 0.01545 0.94452 0.64872 0.0
C623 C 0.03556 0.94119 0.66383 0.0
C624 C 0.0713 0.98004 0.67039 0.0
C625 C 0.05458 0.11615 0.71584 0.0
C626 C 0.0376 0.12414 0.70001 0.0
C627 C 0.09585 0.12139 0.716 0.0
C628 C 0.1215 0.13349 0.70014 0.0
H629 H 0.03535 0.10475 0.72816 0.0
H630 H 0.10688 0.11417 0.72855 0.0
S631 S 0.09302 0.16164 0.65546 0.0
N632 N 0.05069 0.14854 0.6685 0.0
N633 N 0.12778 0.15635 0.66842 0.0
C634 C 0.10563 0.14347 0.68438 0.0
C635 C 0.06378 0.13924 0.68441 0.0
C636 C 0.70781 0.50173 0.53467 0.0
C637 C 0.67684 0.46889 0.52368 0.0
C638 C 0.75025 0.51033 0.53484 0.0
C639 C 0.76321 0.48619 0.52416 0.0
H640 H 0.69835 0.5182 0.54442 0.0
H641 H 0.77197 0.53312 0.54476 0.0
S642 S 0.69569 0.40127 0.49093 0.0
N643 N 0.66293 0.41604 0.50002 0.0
N644 N 0.74303 0.43205 0.50048 0.0
C645 C 0.73378 0.45674 0.51154 0.0
C646 C 0.69037 0.44807 0.5113 0.0
C647 C 0.50348 0.24963 0.54413 0.0
C648 C 0.52518 0.28103 0.53061 0.0
C649 C 0.51058 0.21493 0.54626 0.0
C650 C 0.53932 0.21005 0.53483 0.0
H651 H 0.48401 0.25412 0.55424 0.0
H652 H 0.49648 0.19399 0.55796 0.0
S653 S 0.5988 0.27954 0.49552 0.0
N654 N 0.57227 0.30203 0.50418 0.0
N655 N 0.58527 0.23634 0.50803 0.0
C656 C 0.55722 0.23827 0.51991 0.0
C657 C 0.55017 0.27393 0.51781 0.0
C658 C 0.75998 0.26823 0.5518 0.0
C659 C 0.72666 0.25172 0.53881 0.0
C660 C 0.7943 0.31022 0.55056 0.0
C661 C 0.79685 0.33715 0.53614 0.0
H662 H 0.75772 0.24973 0.56384 0.0
H663 H 0.8172 0.32274 0.56171 0.0
S664 S 0.72154 0.30744 0.49707 0.0
N665 N 0.70108 0.26381 0.5099 0.0
N666 N 0.76617 0.34295 0.50738 0.0
C667 C 0.76642 0.31964 0.52196 0.0
C668 C 0.73112 0.27674 0.52332 0.0
C669 C 0.78726 0.43457 0.62524 0.0
C670 C 0.81596 0.46303 0.61213 0.0
C671 C 0.78343 0.39414 0.62801 0.0
C672 C 0.80822 0.38134 0.61774 0.0
H673 H 0.76469 0.44169 0.63201 0.0
H674 H 0.75801 0.37132 0.63681 0.0
S675 S 0.89604 0.4487 0.58579 0.0
N676 N 0.87555 0.4791 0.59182 0.0
N677 N 0.86779 0.40286 0.59681 0.0
C678 C 0.84041 0.4114 0.60632 0.0
C679 C 0.84444 0.45245 0.60358 0.0
C680 C 0.58318 0.43113 0.59535 0.0
C681 C 0.57435 0.4032 0.61025 0.0
C682 C 0.6232 0.46826 0.59342 0.0
C683 C 0.65566 0.47917 0.60648 0.0
H684 H 0.56011 0.4225 0.5844 0.0
H685 H 0.62985 0.48678 0.58094 0.0
S686 S 0.64622 0.4208 0.64962 0.0
N687 N 0.59923 0.39192 0.63951 0.0
N688 N 0.67447 0.46233 0.63607 0.0
C689 C 0.64556 0.45432 0.62252 0.0
C690 C 0.60477 0.41613 0.62439 0.0
C691 C 0.6264 0.24784 0.6361 0.0
C692 C 0.63034 0.21774 0.62519 0.0
C693 C 0.5889 0.25091 0.6355 0.0
C694 C 0.55455 0.22398 0.62396 0.0
H695 H 0.65389 0.27205 0.64356 0.0
H696 H 0.58875 0.27739 0.64253 0.0
S697 S 0.54474 0.13247 0.59692 0.0
N698 N 0.59356 0.15504 0.60569 0.0
N699 N 0.52341 0.16102 0.60446 0.0
C700 C 0.55612 0.19038 0.61495 0.0
C701 C 0.59403 0.1872 0.6156 0.0
C702 C 0.64029 0.17739 0.18785 0.0
C703 C 0.67754 0.20852 0.19677 0.0
C704 C 0.60315 0.18085 0.18766 0.0
C705 C 0.60291 0.21559 0.19638 0.0
H706 H 0.64231 0.1554 0.1783 0.0
H707 H 0.57793 0.16102 0.1781 0.0
S708 S 0.68428 0.29061 0.22908 0.0
N709 N 0.70594 0.26348 0.22022 0.0
N710 N 0.63641 0.27088 0.21953 0.0
C711 C 0.63596 0.23986 0.20883 0.0
C712 C 0.67336 0.23571 0.20926 0.0
C713 C 0.75589 0.40038 0.2051 0.0
C714 C 0.78076 0.38479 0.19672 0.0
C715 C 0.76741 0.44375 0.20353 0.0
C716 C 0.80329 0.4719 0.19308 0.0
H717 H 0.72472 0.37817 0.21073 0.0
H718 H 0.7444 0.4532 0.20776 0.0
S719 S 0.88728 0.45107 0.17499 0.0
N720 N 0.85 0.40426 0.18305 0.0
N721 N 0.87007 0.48506 0.17933 0.0
C722 C 0.83267 0.45881 0.18814 0.0
C723 C 0.82164 0.41507 0.1901 0.0
C724 C 0.57546 0.36591 0.16312 0.0
C725 C 0.56234 0.33656 0.17769 0.0
C726 C 0.61641 0.40202 0.16289 0.0
C727 C 0.64532 0.40937 0.17715 0.0
H728 H 0.55593 0.3583 0.1509 0.0
H729 H 0.62714 0.42123 0.15054 0.0
S730 S 0.62122 0.35048 0.22094 0.0
N731 N 0.57711 0.32307 0.20867 0.0
N732 N 0.655 0.39107 0.20802 0.0
C733 C 0.63042 0.38402 0.19293 0.0
C734 C 0.58832 0.34753 0.19331 0.0
C735 C 0.57661 0.30287 0.99545 0.0
C736 C 0.54788 0.30831 0.00663 0.0
C737 C 0.58452 0.26891 0.99866 0.0
C738 C 0.5618 0.23823 0.01227 0.0
H739 H 0.59795 0.32843 0.98634 0.0
H740 H 0.61107 0.2689 0.99166 0.0
S741 S 0.47332 0.23099 0.0407 0.0
N742 N 0.49012 0.27556 0.02874 0.0
N743 N 0.50269 0.20996 0.03386 0.0
C744 C 0.52743 0.239 0.02095 0.0
C745 C 0.52053 0.27432 0.01813 0.0
C746 C 0.6967 0.26506 0.99718 0.0
C747 C 0.73348 0.2799 0.00826 0.0
C748 C 0.66573 0.22124 0.99649 0.0
C749 C 0.67006 0.19146 0.00742 0.0
H750 H 0.69006 0.28778 0.99027 0.0
H751 H 0.63578 0.21178 0.98945 0.0
S752 S 0.76472 0.2123 0.03516 0.0
N753 N 0.77638 0.25995 0.02724 0.0
N754 N 0.71721 0.1781 0.02659 0.0
C755 C 0.70927 0.20503 0.0164 0.0
C756 C 0.74123 0.24933 0.01676 0.0
C757 C 0.76927 0.40441 0.98398 0.0
C758 C 0.80079 0.44147 0.99284 0.0
C759 C 0.72605 0.39399 0.98461 0.0
C760 C 0.71413 0.42133 0.99346 0.0
H761 H 0.77637 0.37962 0.97988 0.0
H762 H 0.70166 0.36193 0.98063 0.0
S763 S 0.78831 0.5312 0.01027 0.0
N764 N 0.8198 0.51184 0.00448 0.0
N765 N 0.73903 0.49339 0.00509 0.0
C766 C 0.74678 0.46305 0.99785 0.0
C767 C 0.79048 0.47315 0.99746 0.0
C768 C 0.35943 0.7969 0.89597 0.0
C769 C 0.32704 0.76905 0.88392 0.0
C770 C 0.401 0.80325 0.89468 0.0
C771 C 0.41171 0.78189 0.88137 0.0
H772 H 0.35169 0.81083 0.90747 0.0
H773 H 0.42383 0.82196 0.90523 0.0
S774 S 0.34055 0.71191 0.84449 0.0
N775 N 0.30994 0.7251 0.85653 0.0
N776 N 0.38839 0.737 0.85421 0.0
C777 C 0.38114 0.75825 0.86786 0.0
C778 C 0.33861 0.75182 0.86913 0.0
C779 C 0.16342 0.54951 0.90251 0.0
C780 C 0.18252 0.58225 0.88933 0.0
C781 C 0.17204 0.51559 0.90299 0.0
C782 C 0.19923 0.51265 0.89 0.0
H783 H 0.14428 0.55194 0.91337 0.0
H784 H 0.15964 0.4931 0.91428 0.0
S785 S 0.25207 0.58652 0.85104 0.0
N786 N 0.22602 0.60707 0.86181 0.0
N787 N 0.24126 0.54242 0.86234 0.0
C788 C 0.21471 0.54248 0.87556 0.0
C789 C 0.20643 0.57751 0.87525 0.0
C790 C 0.37712 0.56838 0.86984 0.0
C791 C 0.37937 0.54017 0.88255 0.0
C792 C 0.41014 0.61134 0.86876 0.0
C793 C 0.44601 0.62693 0.88039 0.0
H794 H 0.34788 0.55865 0.86217 0.0
H795 H 0.40541 0.6333 0.86023 0.0
S796 S 0.4723 0.56307 0.91204 0.0
N797 N 0.42425 0.52867 0.90399 0.0
N798 N 0.48597 0.60938 0.90207 0.0
C799 C 0.45103 0.59777 0.89132 0.0
C800 C 0.41771 0.55424 0.89235 0.0
C801 C 0.44253 0.66158 0.97879 0.0
C802 C 0.46371 0.64897 0.96618 0.0
C803 C 0.44762 0.70296 0.97809 0.0
C804 C 0.47403 0.73266 0.96477 0.0
H805 H 0.41869 0.63817 0.98797 0.0
H806 H 0.42752 0.7101 0.98677 0.0
S807 S 0.54524 0.71868 0.93227 0.0
N808 N 0.5181 0.67166 0.94255 0.0
N809 N 0.52811 0.7495 0.9414 0.0
C810 C 0.49926 0.72196 0.95371 0.0
C811 C 0.49396 0.67999 0.95436 0.0
C812 C 0.24167 0.71223 0.95784 0.0
C813 C 0.23331 0.68015 0.97084 0.0
C814 C 0.28235 0.74867 0.95635 0.0
C815 C 0.31589 0.75461 0.96804 0.0
H816 H 0.21759 0.70738 0.94778 0.0
H817 H 0.28851 0.77059 0.94509 0.0
S818 S 0.30836 0.68389 0.00649 0.0
N819 N 0.26002 0.65947 0.9972 0.0
N820 N 0.33654 0.72858 0.99468 0.0
C821 C 0.3065 0.72549 0.98253 0.0
C822 C 0.26504 0.68803 0.98391 0.0
C823 C 0.24386 0.51908 0.98601 0.0
C824 C 0.20898 0.4964 0.97407 0.0
C825 C 0.28051 0.51455 0.98488 0.0
C826 C 0.28316 0.48742 0.9717 0.0
H827 H 0.24482 0.54371 0.99488 0.0
H828 H 0.3084 0.5357 0.99298 0.0
S829 S 0.19569 0.41311 0.9408 0.0
N830 N 0.1758 0.43985 0.95145 0.0
N831 N 0.24464 0.43191 0.94902 0.0
C832 C 0.24633 0.4609 0.96136 0.0
C833 C 0.20916 0.46523 0.96263 0.0
C834 C 0.25936 0.53525 0.50665 0.0
C835 C 0.27234 0.578 0.51146 0.0
C836 C 0.28995 0.52284 0.50312 0.0
C837 C 0.33398 0.55239 0.50485 0.0
H838 H 0.22647 0.51331 0.50269 0.0
H839 H 0.27948 0.49223 0.49648 0.0
S840 S 0.38224 0.66137 0.52477 0.0
N841 N 0.33041 0.64491 0.52351 0.0
N842 N 0.38783 0.62112 0.51717 0.0
C843 C 0.34624 0.59152 0.51366 0.0
C844 C 0.31521 0.60447 0.51698 0.0
C845 C 0.418 0.70803 0.47655 0.0
C846 C 0.40066 0.68085 0.46129 0.0
C847 C 0.41756 0.74686 0.47777 0.0
C848 C 0.40044 0.76048 0.46364 0.0
H849 H 0.43142 0.69894 0.48779 0.0
H850 H 0.43081 0.76635 0.48991 0.0
S851 S 0.35323 0.702 0.42023 0.0
N852 N 0.36696 0.67087 0.43149 0.0
N853 N 0.36707 0.74399 0.43354 0.0
C854 C 0.38383 0.73395 0.44812 0.0
C855 C 0.3837 0.69416 0.44701 0.0
C856 C 0.26915 0.73865 0.50313 0.0
C857 C 0.262 0.76084 0.489 0.0
C858 C 0.23529 0.69963 0.50964 0.0
C859 C 0.19437 0.68169 0.50161 0.0
H860 H 0.30165 0.74787 0.50717 0.0
H861 H 0.24305 0.68004 0.51834 0.0
S862 S 0.157 0.7357 0.46961 0.0
N863 N 0.20923 0.76885 0.4714 0.0
N864 N 0.1459 0.6953 0.48356 0.0
C865 C 0.18538 0.7084 0.49077 0.0
C866 C 0.21956 0.74795 0.48413 0.0
C867 C 0.29902 0.70044 0.35486 0.0
C868 C 0.27366 0.70683 0.34204 0.0
C869 C 0.2999 0.66209 0.35545 0.0
C870 C 0.2743 0.62783 0.34367 0.0
H871 H 0.31911 0.72541 0.36438 0.0
H872 H 0.32051 0.65909 0.36546 0.0
S873 S 0.19936 0.62665 0.30859 0.0
N874 N 0.22126 0.67528 0.31755 0.0
N875 N 0.22078 0.60161 0.31953 0.0
C876 C 0.24741 0.63294 0.33123 0.0
C877 C 0.24769 0.67286 0.33017 0.0
C878 C 0.35267 0.53694 0.31695 0.0
C879 C 0.31118 0.52928 0.31308 0.0
C880 C 0.38855 0.57668 0.31295 0.0
C881 C 0.38347 0.61011 0.30561 0.0
H882 H 0.35709 0.51431 0.32515 0.0
H883 H 0.41924 0.58311 0.31841 0.0
S884 S 0.28355 0.60023 0.28664 0.0
N885 N 0.26833 0.55321 0.2963 0.0
N886 N 0.336 0.62891 0.28963 0.0
C887 C 0.34327 0.59991 0.29849 0.0
C888 C 0.30679 0.55902 0.30211 0.0
C889 C 0.46068 0.84269 0.33341 0.0
C890 C 0.41898 0.82368 0.32621 0.0
C891 C 0.48834 0.82753 0.32848 0.0
C892 C 0.47478 0.79285 0.31636 0.0
H893 H 0.46975 0.8651 0.3447 0.0
H894 H 0.51778 0.83868 0.33619 0.0
S895 S 0.37309 0.74014 0.29033 0.0
N896 N 0.36884 0.775 0.30364 0.0
N897 N 0.42118 0.74646 0.29435 0.0
C898 C 0.43624 0.77877 0.30681 0.0
C899 C 0.40805 0.79429 0.31179 0.0
C900 C 0.1717 0.20765 0.26872 0.0
C901 C 0.12704 0.19099 0.27006 0.0
C902 C 0.18929 0.19422 0.25473 0.0
C903 C 0.16268 0.16276 0.24204 0.0
H904 H 0.19317 0.23073 0.27865 0.0
H905 H 0.22379 0.20788 0.25405 0.0
S906 S 0.04451 0.11233 0.23829 0.0
N907 N 0.05735 0.14489 0.25598 0.0
N908 N 0.09024 0.11746 0.23101 0.0
C909 C 0.11835 0.14657 0.24305 0.0
C910 C 0.10056 0.1613 0.25671 0.0
C911 C 0.75101 0.965 0.21983 0.0
C912 C 0.77362 0.01002 0.21994 0.0
C913 C 0.73877 0.94189 0.23627 0.0
C914 C 0.74822 0.96313 0.25322 0.0
H915 H 0.74701 0.94771 0.20718 0.0
H916 H 0.72608 0.90749 0.23577 0.0
S917 S 0.79938 0.08038 0.26042 0.0
N918 N 0.79975 0.07485 0.23801 0.0
N919 N 0.77533 0.03125 0.26895 0.0
C920 C 0.76579 0.00781 0.25333 0.0
C921 C 0.77895 0.03137 0.23661 0.0
C922 C 0.02498 0.84503 0.23317 0.0
C923 C 0.04448 0.88705 0.24018 0.0
C924 C 0.99703 0.83281 0.21817 0.0
C925 C 0.98634 0.8617 0.21 0.0
H926 H 0.0317 0.82143 0.23916 0.0
H927 H 0.98373 0.80044 0.21294 0.0
S928 S 0.02576 0.97437 0.22397 0.0
N929 N 0.05096 0.95755 0.23753 0.0
N930 N 0.99484 0.93303 0.2109 0.0
C931 C 0.00416 0.90316 0.21731 0.0
C932 C 0.03428 0.91629 0.23196 0.0
C933 C 0.8284 0.83057 0.74082 0.0
C934 C 0.84074 0.85998 0.72636 0.0
C935 C 0.81411 0.83872 0.75737 0.0
C936 C 0.81295 0.87703 0.75991 0.0
H937 H 0.83447 0.80393 0.74009 0.0
H938 H 0.80923 0.81767 0.76884 0.0
S939 S 0.83377 0.95932 0.72476 0.0
N940 N 0.84399 0.92452 0.71442 0.0
N941 N 0.81792 0.94039 0.74562 0.0
C942 C 0.81997 0.90364 0.74476 0.0
C943 C 0.83376 0.89495 0.7279 0.0
C944 C 0.22002 0.00171 0.77473 0.0
C945 C 0.20054 0.95992 0.76733 0.0
C946 C 0.23092 0.03732 0.76353 0.0
C947 C 0.2241 0.03246 0.74457 0.0
H948 H 0.22115 0.00642 0.7894 0.0
H949 H 0.23948 0.06773 0.76997 0.0
S950 S 0.19018 0.93292 0.71796 0.0
N951 N 0.18689 0.91786 0.73951 0.0
N952 N 0.20826 0.98512 0.71847 0.0
C953 C 0.2133 0.99259 0.73677 0.0
C954 C 0.20146 0.95609 0.74819 0.0
C955 C 0.88579 0.10753 0.76463 0.0
C956 C 0.90945 0.13593 0.75043 0.0
C957 C 0.90457 0.11096 0.78174 0.0
C958 C 0.94727 0.14294 0.785 0.0
H959 H 0.8553 0.07902 0.76178 0.0
H960 H 0.88816 0.08475 0.79135 0.0
S961 S 0.01552 0.23482 0.755 0.0
N962 N 0.97206 0.20472 0.74274 0.0
N963 N 0.00736 0.21057 0.77498 0.0
C964 C 0.96726 0.17664 0.77243 0.0
C965 C 0.94818 0.17327 0.75498 0.0
C966 C 0.91627 0.56503 0.56967 0.0
C967 C 0.9059 0.5634 0.55108 0.0
C968 C 0.90023 0.58227 0.58258 0.0
C969 C 0.87294 0.59781 0.57717 0.0
H970 H 0.93383 0.54962 0.57441 0.0
H971 H 0.90531 0.57896 0.59695 0.0
S972 S 0.84718 0.61249 0.52963 0.0
N973 N 0.87543 0.58788 0.52748 0.0
N974 N 0.84418 0.61925 0.55182 0.0
C975 C 0.86744 0.60182 0.55842 0.0
C976 C 0.88445 0.585 0.54528 0.0
C977 C 0.43954 0.31841 0.5545 0.0
C978 C 0.46108 0.36335 0.55578 0.0
C979 C 0.42608 0.29307 0.57028 0.0
C980 C 0.4326 0.31197 0.58767 0.0
H981 H 0.43729 0.30297 0.54149 0.0
H982 H 0.41386 0.25886 0.56899 0.0
S983 S 0.47873 0.42791 0.59763 0.0
N984 N 0.48261 0.42547 0.57521 0.0
N985 N 0.45522 0.37775 0.60493 0.0
C986 C 0.44886 0.3565 0.58884 0.0
C987 C 0.4638 0.38233 0.57282 0.0
C988 C 0.64597 0.11249 0.58975 0.0
C989 C 0.65955 0.11789 0.57147 0.0
C990 C 0.67557 0.13264 0.60391 0.0
C991 C 0.71936 0.15924 0.6 0.0
H992 H 0.61203 0.0955 0.59295 0.0
H993 H 0.66354 0.13125 0.61762 0.0
S994 S 0.77205 0.17428 0.55499 0.0
N995 N 0.72028 0.14389 0.55065 0.0
N996 N 0.77583 0.18305 0.57726 0.0
C997 C 0.73378 0.16024 0.58211 0.0
C998 C 0.70378 0.139 0.56777 0.0
C999 C 0.56775 0.13944 0.10214 0.0
C1000 C 0.54487 0.13825 0.08636 0.0
C1001 C 0.55951 0.15257 0.11889 0.0
C1002 C 0.52807 0.16476 0.12038 0.0
H1003 H 0.59523 0.13475 0.1011 0.0
H1004 H 0.58082 0.15749 0.13027 0.0
S1005 S 0.45428 0.1597 0.08394 0.0
N1006 N 0.48537 0.14411 0.07383 0.0
N1007 N 0.46982 0.16886 0.10553 0.0
C1008 C 0.50136 0.15846 0.10534 0.0
C1009 C 0.50976 0.14503 0.0882 0.0
C1010 C 0.76946 0.37559 0.09387 0.0
C1011 C 0.79843 0.37047 0.08259 0.0
C1012 C 0.7591 0.35778 0.11131 0.0
C1013 C 0.77712 0.33401 0.1184 0.0
H1014 H 0.75326 0.39219 0.089 0.0
H1015 H 0.73588 0.36204 0.11917 0.0
S1016 S 0.85712 0.3135 0.09527 0.0
N1017 N 0.84708 0.34182 0.08031 0.0
N1018 N 0.82741 0.30825 0.11338 0.0
C1019 C 0.80786 0.33029 0.10779 0.0
C1020 C 0.81843 0.34854 0.08984 0.0
C1021 C 0.74864 0.4719 0.09011 0.0
C1022 C 0.73124 0.48391 0.10459 0.0
C1023 C 0.72763 0.45944 0.07327 0.0
C1024 C 0.68857 0.45865 0.07033 0.0
H1025 H 0.77727 0.46956 0.09216 0.0
H1026 H 0.7405 0.4475 0.06287 0.0
S1027 S 0.63273 0.49282 0.10297 0.0
N1028 N 0.67526 0.49901 0.11429 0.0
N1029 N 0.63573 0.4754 0.08243 0.0
C1030 C 0.67298 0.47456 0.08403 0.0
C1031 C 0.69441 0.4873 0.10127 0.0
C1032 C 0.55578 0.85722 0.9372 0.0
C1033 C 0.52952 0.8755 0.93471 0.0
C1034 C 0.56942 0.84305 0.92216 0.0
C1035 C 0.55784 0.84754 0.9043 0.0
H1036 H 0.56165 0.8493 0.9508 0.0
H1037 H 0.58574 0.82501 0.92458 0.0
S1038 S 0.50026 0.9047 0.89062 0.0
N1039 N 0.4998 0.90522 0.9132 0.0
N1040 N 0.52687 0.87996 0.88482 0.0
C1041 C 0.53738 0.87174 0.9016 0.0
C1042 C 0.52263 0.88526 0.91691 0.0
C1043 C 0.08186 0.58106 0.92885 0.0
C1044 C 0.09011 0.59633 0.94693 0.0
C1045 C 0.09252 0.60941 0.91408 0.0
C1046 C 0.11308 0.65395 0.917 0.0
H1047 H 0.07005 0.54738 0.92606 0.0
H1048 H 0.0889 0.59672 0.90035 0.0
S1049 S 0.13555 0.70952 0.96165 0.0
N1050 N 0.11404 0.65819 0.96695 0.0
N1051 N 0.13622 0.71164 0.93909 0.0
C1052 C 0.11787 0.66922 0.93497 0.0
C1053 C 0.10578 0.64029 0.95001 0.0
C1054 C 0.35018 0.42062 0.90906 0.0
C1055 C 0.30625 0.39651 0.91316 0.0
C1056 C 0.38063 0.43662 0.92313 0.0
C1057 C 0.36787 0.42873 0.94152 0.0
H1058 H 0.36072 0.43141 0.89521 0.0
H1059 H 0.41387 0.45851 0.91972 0.0
S1060 S 0.25854 0.35295 0.95847 0.0
N1061 N 0.25268 0.35514 0.93615 0.0
N1062 N 0.31011 0.38515 0.96269 0.0
C1063 C 0.32502 0.39837 0.94547 0.0
C1064 C 0.29398 0.38237 0.93117 0.0
C1065 C 0.26665 0.56265 0.43312 0.0
C1066 C 0.22386 0.55041 0.43733 0.0
C1067 C 0.27702 0.54693 0.41766 0.0
C1068 C 0.24497 0.51865 0.40552 0.0
H1069 H 0.29263 0.58599 0.44151 0.0
H1070 H 0.31072 0.55942 0.41466 0.0
S1071 S 0.12724 0.4707 0.41224 0.0
N1072 N 0.14877 0.50382 0.42969 0.0
N1073 N 0.1679 0.47413 0.40033 0.0
C1074 C 0.20165 0.50308 0.41048 0.0
C1075 C 0.19116 0.51901 0.42644 0.0
C1076 C 0.41971 0.58914 0.37809 0.0
C1077 C 0.45692 0.62947 0.3767 0.0
C1078 C 0.41071 0.56467 0.39403 0.0
C1079 C 0.43822 0.58041 0.40927 0.0
H1080 H 0.3962 0.57765 0.36718 0.0
H1081 H 0.38017 0.53515 0.39493 0.0
S1082 S 0.54313 0.68145 0.41117 0.0
N1083 N 0.52415 0.68173 0.39062 0.0
N1084 N 0.50708 0.63624 0.42094 0.0
C1085 C 0.4775 0.61899 0.40735 0.0
C1086 C 0.48688 0.64354 0.39095 0.0
C1087 C 0.30795 0.89858 0.41646 0.0
C1088 C 0.34808 0.91026 0.42428 0.0
C1089 C 0.30339 0.89738 0.39737 0.0
C1090 C 0.33879 0.90692 0.38612 0.0
H1091 H 0.27913 0.88205 0.42469 0.0
H1092 H 0.27121 0.87994 0.39178 0.0
S1093 S 0.45246 0.96285 0.40042 0.0
N1094 N 0.42512 0.95016 0.41978 0.0
N1095 N 0.41637 0.94667 0.38388 0.0
C1096 C 0.37974 0.93115 0.39386 0.0
C1097 C 0.38445 0.93302 0.41324 0.0
C1098 C 0.32179 0.1382 0.19117 0.0
C1099 C 0.29951 0.15529 0.18178 0.0
C1100 C 0.36188 0.14595 0.18529 0.0
C1101 C 0.38154 0.17153 0.16989 0.0
H1102 H 0.30861 0.1192 0.20344 0.0
H1103 H 0.37839 0.13353 0.19349 0.0
S1104 S 0.33422 0.21908 0.13904 0.0
N1105 N 0.29785 0.19513 0.15522 0.0
N1106 N 0.37401 0.21035 0.14415 0.0
C1107 C 0.35858 0.1867 0.15966 0.0
C1108 C 0.31735 0.17846 0.16562 0.0
C1109 C 0.88488 0.20007 0.17723 0.0
C1110 C 0.87012 0.16573 0.16477 0.0
C1111 C 0.87456 0.2325 0.1749 0.0
C1112 C 0.84893 0.23102 0.16015 0.0
H1113 H 0.90084 0.19978 0.18975 0.0
H1114 H 0.88221 0.2556 0.18581 0.0
S1115 S 0.81444 0.15621 0.12085 0.0
N1116 N 0.83814 0.13844 0.13489 0.0
N1117 N 0.8181 0.19921 0.13076 0.0
C1118 C 0.83997 0.20094 0.1462 0.0
C1119 C 0.85081 0.16817 0.14845 0.0
C1120 C 0.86829 0.70605 0.1426 0.0
C1121 C 0.85288 0.72972 0.15195 0.0
C1122 C 0.84592 0.66134 0.14319 0.0
C1123 C 0.80722 0.63894 0.15296 0.0
H1124 H 0.89939 0.72198 0.13597 0.0
H1125 H 0.86024 0.64437 0.13671 0.0
S1126 S 0.7487 0.6862 0.17616 0.0
N1127 N 0.79339 0.72789 0.16866 0.0
N1128 N 0.75092 0.64335 0.16963 0.0
C1129 C 0.78913 0.66208 0.16066 0.0
C1130 C 0.81214 0.70774 0.16019 0.0
C1131 C 0.13101 0.35029 0.35868 0.0
C1132 C 0.13049 0.38229 0.34784 0.0
C1133 C 0.11136 0.3078 0.35267 0.0
C1134 C 0.09082 0.29619 0.33558 0.0
H1135 H 0.15074 0.35897 0.37087 0.0
H1136 H 0.11582 0.28498 0.3607 0.0
S1137 S 0.07106 0.36646 0.30462 0.0
N1138 N 0.10078 0.39854 0.32127 0.0
N1139 N 0.06319 0.31832 0.30985 0.0
C1140 C 0.08474 0.32675 0.32595 0.0
C1141 C 0.1047 0.37007 0.33219 0.0
C1142 C 0.64707 0.78247 0.33778 0.0
C1143 C 0.61945 0.74907 0.32605 0.0
C1144 C 0.68685 0.81495 0.33161 0.0
C1145 C 0.70003 0.81479 0.31356 0.0
H1146 H 0.63606 0.7861 0.3511 0.0
H1147 H 0.70525 0.84224 0.34048 0.0
S1148 S 0.64561 0.7268 0.27977 0.0
N1149 N 0.61239 0.71194 0.29734 0.0
N1150 N 0.68761 0.773 0.28571 0.0
C1151 C 0.67592 0.77791 0.30282 0.0
C1152 C 0.63537 0.74477 0.30914 0.0
C1153 C 0.15734 0.8548 0.32096 0.0
C1154 C 0.16956 0.88338 0.30613 0.0
C1155 C 0.18532 0.8419 0.32807 0.0
C1156 C 0.22652 0.85716 0.32061 0.0
H1157 H 0.1258 0.84192 0.32704 0.0
H1158 H 0.17436 0.81957 0.33942 0.0
S1159 S 0.27463 0.93384 0.28205 0.0
N1160 N 0.22616 0.92749 0.28449 0.0
N1161 N 0.27857 0.90323 0.29784 0.0
C1162 C 0.23936 0.88622 0.30593 0.0
C1163 C 0.21092 0.89934 0.29869 0.0
C1164 C 0.65128 0.81572 0.81489 0.0
C1165 C 0.67817 0.79948 0.82025 0.0
C1166 C 0.60905 0.79723 0.82128 0.0
C1167 C 0.5929 0.76231 0.83333 0.0
H1168 H 0.66406 0.84521 0.80709 0.0
H1169 H 0.59118 0.81366 0.81867 0.0
S1170 S 0.64576 0.70068 0.84718 0.0
N1171 N 0.6823 0.74084 0.83488 0.0
N1172 N 0.6029 0.7064 0.8471 0.0
C1173 C 0.61708 0.74196 0.83646 0.0
C1174 C 0.65996 0.76057 0.82988 0.0
C1175 C 0.19862 0.81968 0.84774 0.0
C1176 C 0.17879 0.77557 0.84388 0.0
C1177 C 0.18675 0.84622 0.83855 0.0
C1178 C 0.15424 0.82961 0.82524 0.0
H1179 H 0.22194 0.83344 0.85868 0.0
H1180 H 0.20164 0.87956 0.84268 0.0
S1181 S 0.09659 0.71719 0.80835 0.0
N1182 N 0.12862 0.71712 0.82453 0.0
N1183 N 0.10587 0.76703 0.80712 0.0
C1184 C 0.13662 0.78619 0.82015 0.0
C1185 C 0.14905 0.75912 0.82951 0.0
C1186 C 0.12547 0.32413 0.85458 0.0
C1187 C 0.16754 0.34883 0.8479 0.0
C1188 C 0.09691 0.28449 0.84685 0.0
C1189 C 0.10939 0.26804 0.83214 0.0
H1190 H 0.11542 0.33413 0.8667 0.0
H1191 H 0.06573 0.26553 0.8532 0.0
S1192 S 0.21356 0.32402 0.80754 0.0
N1193 N 0.21854 0.35717 0.82422 0.0
N1194 N 0.16462 0.28237 0.80945 0.0
C1195 C 0.14987 0.29446 0.82409 0.0
C1196 C 0.17906 0.33507 0.83203 0.0
C1197 C 0.7918 0.68821 0.6371 0.0
C1198 C 0.79629 0.65442 0.64444 0.0
C1199 C 0.80863 0.72769 0.6461 0.0
C1200 C 0.83071 0.73482 0.66272 0.0
H1201 H 0.77759 0.68521 0.62374 0.0
H1202 H 0.80684 0.75357 0.63933 0.0
S1203 S 0.84273 0.65382 0.68966 0.0
N1204 N 0.81804 0.62839 0.67076 0.0
N1205 N 0.84976 0.70271 0.68772 0.0
C1206 C 0.83147 0.69995 0.67114 0.0
C1207 C 0.81413 0.65963 0.66199 0.0
C1208 C 0.38168 0.23447 0.67678 0.0
C1209 C 0.39841 0.21433 0.66572 0.0
C1210 C 0.34256 0.21007 0.68604 0.0
C1211 C 0.31925 0.16504 0.68435 0.0
H1212 H 0.39678 0.26915 0.67701 0.0
H1213 H 0.32908 0.22674 0.69342 0.0
S1214 S 0.3549 0.09731 0.66032 0.0
N1215 N 0.39281 0.1471 0.65603 0.0
N1216 N 0.31958 0.10126 0.6734 0.0
C1217 C 0.33809 0.14463 0.67486 0.0
C1218 C 0.37772 0.16934 0.66555 0.0
C1219 C 0.88456 0.26677 0.66147 0.0
C1220 C 0.84247 0.2548 0.66705 0.0
C1221 C 0.90682 0.24801 0.66937 0.0
C1222 C 0.88736 0.21661 0.68295 0.0
H1223 H 0.89872 0.28751 0.64973 0.0
H1224 H 0.93724 0.25476 0.66349 0.0
S1225 S 0.78308 0.18288 0.70569 0.0
N1226 N 0.78628 0.21653 0.68956 0.0
N1227 N 0.82798 0.18097 0.7043 0.0
C1228 C 0.84801 0.20891 0.69034 0.0
C1229 C 0.82558 0.22831 0.68245 0.0
C1230 C 0.02463 0.46475 0.49167 0.0
C1231 C 0.04403 0.49878 0.47911 0.0
C1232 C 0.9821 0.44893 0.4972 0.0
C1233 C 0.95746 0.46626 0.49024 0.0
H1234 H 0.04346 0.45317 0.49867 0.0
H1235 H 0.96986 0.42602 0.50835 0.0
S1236 S 0.98935 0.54701 0.45337 0.0
N1237 N 0.03245 0.5427 0.45696 0.0
N1238 N 0.95236 0.51279 0.46757 0.0
C1239 C 0.97425 0.49555 0.47575 0.0
C1240 C 0.01775 0.51194 0.47013 0.0
C1241 C 0.54293 0.51814 0.48535 0.0
C1242 C 0.52379 0.47354 0.48266 0.0
C1243 C 0.52292 0.54085 0.47933 0.0
C1244 C 0.48275 0.51955 0.47064 0.0
H1245 H 0.5717 0.53492 0.4936 0.0
H1246 H 0.53732 0.57448 0.48292 0.0
S1247 S 0.42383 0.4048 0.45693 0.0
N1248 N 0.46621 0.41031 0.46814 0.0
N1249 N 0.42825 0.45282 0.45678 0.0
C1250 C 0.46574 0.47595 0.46602 0.0
C1251 C 0.48646 0.45295 0.47201 0.0
C1252 C 0.52357 0.03996 0.48487 0.0
C1253 C 0.53594 0.03957 0.50308 0.0
C1254 C 0.49495 0.00128 0.47597 0.0
C1255 C 0.47845 0.96171 0.48513 0.0
H1256 H 0.53415 0.07016 0.47788 0.0
H1257 H 0.48401 0.00248 0.4623 0.0
S1258 S 0.50668 0.94318 0.53156 0.0
N1259 N 0.53388 0.99579 0.52893 0.0
N1260 N 0.47991 0.92395 0.51231 0.0
C1261 C 0.49285 0.96092 0.50278 0.0
C1262 C 0.52178 -0.00027 0.51174 0.0
C1263 C 0.46276 0.98895 0.01157 0.0
C1264 C 0.49863 0.00461 0.02316 0.0
C1265 C 0.44495 0.94801 0.00387 0.0
C1266 C 0.46204 0.92114 0.00767 0.0
H1267 H 0.45041 0.00955 0.0072 0.0
H1268 H 0.41974 0.93864 0.99378 0.0
S1269 S 0.54931 0.94316 0.04042 0.0
N1270 N 0.54581 0.98729 0.04058 0.0
N1271 N 0.51198 0.91004 0.02607 0.0
C1272 C 0.49437 0.93426 0.02094 0.0
C1273 C 0.51287 0.97622 0.02869 0.0
C1274 C 0.98134 0.4194 0.02288 0.0
C1275 C 0.96415 0.44236 0.0316 0.0
C1276 C 0.02394 0.44036 0.01682 0.0
C1277 C 0.05078 0.48472 0.0195 0.0
H1278 H 0.96079 0.38617 0.01898 0.0
H1279 H 0.0345 0.42268 0.00831 0.0
S1280 S 0.02478 0.55634 0.04623 0.0
N1281 N 0.97983 0.50957 0.04617 0.0
N1282 N 0.06011 0.54883 0.03477 0.0
C1283 C 0.03602 0.50643 0.03065 0.0
C1284 C 0.99244 0.48523 0.03669 0.0
C1285 C 0.54015 0.53558 0.00357 0.0
C1286 C 0.49702 0.51616 0.00913 0.0
C1287 C 0.56731 0.52117 0.01016 0.0
C1288 C 0.55211 0.4865 0.02242 0.0
H1289 H 0.55201 0.5596 0.99285 0.0
H1290 H 0.5992 0.5349 0.00435 0.0
S1291 S 0.44461 0.43165 0.04437 0.0
N1292 N 0.44252 0.46602 0.02999 0.0
N1293 N 0.49352 0.43868 0.04251 0.0
C1294 C 0.51069 0.47057 0.02985 0.0
C1295 C 0.48308 0.48554 0.02317 0.0
loop_
_geom_bond_atom_site_label_1
_geom_bond_atom_site_label_2
_geom_bond_distance
_geom_bond_site_symmetry_2
_ccdc_geom_bond_type
Co0 O1 2.216 . S
Co0 O2 2.091 . S
Co0 O4 2.004 . S
Co0 O10 2.021 . S
Co0 O12 2.137 . S
Co0 O13 2.244 . S
O1 Co0 2.216 . S
O1 C8 1.247 . S
O2 Co0 2.091 . S
O2 C8 1.261 . S
C3 O12 1.247 . S
C3 O13 1.272 . S
O4 Co0 2.004 . S
O4 C9 1.259 . S
Co5 O6 2.061 . S
Co5 O11 2.052 . S
Co5 O13 2.135 . S
O6 Co5 2.061 . S
O6 C9 1.235 . S
C7 O10 1.238 . S
C7 O11 1.241 . S
C8 O1 1.247 . S
C8 O2 1.261 . S
C9 O4 1.259 . S
C9 O6 1.235 . S
O10 Co0 2.021 . S
O10 C7 1.238 . S
O11 Co5 2.052 . S
O11 C7 1.241 . S
O12 Co0 2.137 . S
O12 C3 1.247 . S
O13 Co0 2.244 . S
O13 C3 1.272 . S
O13 Co5 2.135 . S
Co14 O15 2.216 . S
Co14 O16 2.091 . S
Co14 O18 2.004 1_545 S
Co14 O24 2.021 . S
Co14 O26 2.137 1_545 S
Co14 O27 2.244 . S
O15 Co14 2.216 . S
O15 C22 1.247 . S
O16 Co14 2.091 . S
O16 C22 1.261 . S
C17 O26 1.239 . S
C17 O27 1.277 1_565 S
O18 Co14 2.004 1_565 S
O18 C23 1.259 . S
Co19 O20 2.061 . S
Co19 O25 2.052 1_565 S
Co19 O27 2.135 1_565 S
O20 Co19 2.061 . S
O20 C23 1.235 . S
C21 O24 1.238 . S
C21 O25 1.241 . S
C22 O15 1.247 . S
C22 O16 1.261 . S
C23 O18 1.259 . S
C23 O20 1.235 . S
O24 Co14 2.021 . S
O24 C21 1.238 . S
O25 Co19 2.052 1_545 S
O25 C21 1.241 . S
O26 Co14 2.137 1_565 S
O26 C17 1.239 . S
O27 Co14 2.244 . S
O27 C17 1.277 1_545 S
O27 Co19 2.135 1_545 S
Co28 O29 2.216 . S
Co28 O30 2.091 . S
Co28 O32 2.004 1_655 S
Co28 O38 2.021 . S
Co28 O40 2.137 1_655 S
Co28 O41 2.244 . S
O29 Co28 2.216 . S
O29 C36 1.247 . S
O30 Co28 2.091 . S
O30 C36 1.261 . S
C31 O40 1.247 . S
C31 O41 1.272 1_455 S
O32 Co28 2.004 1_455 S
O32 C37 1.259 . S
Co33 O34 2.061 . S
Co33 O39 2.052 1_455 S
Co33 O41 2.135 1_455 S
O34 Co33 2.061 . S
O34 C37 1.235 . S
C35 O38 1.238 . S
C35 O39 1.241 . S
C36 O29 1.247 . S
C36 O30 1.261 . S
C37 O32 1.259 . S
C37 O34 1.235 . S
O38 Co28 2.021 . S
O38 C35 1.238 . S
O39 Co33 2.052 1_655 S
O39 C35 1.241 . S
O40 Co28 2.137 1_455 S
O40 C31 1.247 . S
O41 Co28 2.244 . S
O41 C31 1.272 1_655 S
O41 Co33 2.135 1_655 S
Co42 O43 2.216 . S
Co42 O44 2.091 . S
Co42 O46 2.004 . S
Co42 O52 2.021 . S
Co42 O54 2.137 . S
Co42 O55 2.244 . S
O43 Co42 2.216 . S
O43 C50 1.247 . S
O44 Co42 2.091 . S
O44 C50 1.261 . S
C45 O54 1.247 . S
C45 O55 1.272 . S
O46 Co42 2.004 . S
O46 C51 1.259 . S
Co47 O48 2.061 . S
Co47 O53 2.052 . S
Co47 O55 2.135 . S
O48 Co47 2.061 . S
O48 C51 1.235 . S
C49 O52 1.238 . S
C49 O53 1.241 . S
C50 O43 1.247 . S
C50 O44 1.261 . S
C51 O46 1.259 . S
C51 O48 1.235 . S
O52 Co42 2.021 . S
O52 C49 1.238 . S
O53 Co47 2.052 . S
O53 C49 1.241 . S
O54 Co42 2.137 . S
O54 C45 1.247 . S
O55 Co42 2.244 . S
O55 C45 1.272 . S
O55 Co47 2.135 . S
Co56 O57 2.216 . S
Co56 O58 2.091 . S
Co56 O60 2.004 1_565 S
Co56 O66 2.021 . S
Co56 O68 2.137 1_565 S
Co56 O69 2.244 . S
O57 Co56 2.216 . S
O57 C64 1.247 . S
O58 Co56 2.091 . S
O58 C64 1.261 . S
C59 O68 1.247 . S
C59 O69 1.272 1_545 S
O60 Co56 2.004 1_545 S
O60 C65 1.259 . S
Co61 O62 2.061 . S
Co61 O67 2.052 1_545 S
Co61 O69 2.135 1_545 S
O62 Co61 2.061 . S
O62 C65 1.235 . S
C63 O66 1.238 . S
C63 O67 1.241 . S
C64 O57 1.247 . S
C64 O58 1.261 . S
C65 O60 1.259 . S
C65 O62 1.235 . S
O66 Co56 2.021 . S
O66 C63 1.238 . S
O67 Co61 2.052 1_565 S
O67 C63 1.241 . S
O68 Co56 2.137 1_545 S
O68 C59 1.247 . S
O69 Co56 2.244 . S
O69 C59 1.272 1_565 S
O69 Co61 2.135 1_565 S
Co70 O71 2.216 . S
Co70 O72 2.091 . S
Co70 O74 2.004 1_455 S
Co70 O80 2.021 . S
Co70 O82 2.137 1_455 S
Co70 O83 2.244 . S
O71 Co70 2.216 . S
O71 C78 1.247 . S
O72 Co70 2.091 . S
O72 C78 1.261 . S
C73 O82 1.240 . S
C73 O83 1.277 1_655 S
O74 Co70 2.004 1_655 S
O74 C79 1.259 . S
Co75 O76 2.061 . S
Co75 O81 2.052 1_655 S
Co75 O83 2.135 1_655 S
O76 Co75 2.061 . S
O76 C79 1.235 . S
C77 O80 1.238 . S
C77 O81 1.241 . S
C78 O71 1.247 . S
C78 O72 1.261 . S
C79 O74 1.259 . S
C79 O76 1.235 . S
O80 Co70 2.021 . S
O80 C77 1.238 . S
O81 Co75 2.052 1_455 S
O81 C77 1.241 . S
O82 Co70 2.137 1_655 S
O82 C73 1.240 . S
O83 Co70 2.244 . S
O83 C73 1.277 1_455 S
O83 Co75 2.135 1_455 S
Co84 O85 2.216 . S
Co84 O86 2.091 . S
Co84 O88 2.004 . S
Co84 O94 2.021 . S
Co84 O96 2.137 . S
Co84 O97 2.244 . S
O85 Co84 2.216 . S
O85 C92 1.247 . S
O86 Co84 2.091 . S
O86 C92 1.261 . S
C87 O96 1.247 . S
C87 O97 1.272 . S
O88 Co84 2.004 . S
O88 C93 1.259 . S
Co89 O90 2.061 . S
Co89 O95 2.052 . S
Co89 O97 2.135 . S
O90 Co89 2.061 . S
O90 C93 1.235 . S
C91 O94 1.238 . S
C91 O95 1.241 . S
C92 O85 1.247 . S
C92 O86 1.261 . S
C93 O88 1.259 . S
C93 O90 1.235 . S
O94 Co84 2.021 . S
O94 C91 1.238 . S
O95 Co89 2.052 . S
O95 C91 1.241 . S
O96 Co84 2.137 . S
O96 C87 1.247 . S
O97 Co84 2.244 . S
O97 C87 1.272 . S
O97 Co89 2.135 . S
Co98 O99 2.216 . S
Co98 O100 2.091 . S
Co98 O102 2.004 1_565 S
Co98 O108 2.021 1_565 S
Co98 O110 2.137 . S
Co98 O111 2.244 . S
O99 Co98 2.216 . S
O99 C106 1.247 . S
O100 Co98 2.091 . S
O100 C106 1.261 . S
C101 O110 1.247 . S
C101 O111 1.272 . S
O102 Co98 2.004 1_545 S
O102 C107 1.259 . S
Co103 O104 2.061 . S
Co103 O109 2.052 1_545 S
Co103 O111 2.135 1_545 S
O104 Co103 2.061 . S
O104 C107 1.235 . S
C105 O108 1.238 . S
C105 O109 1.241 1_545 S
C106 O99 1.247 . S
C106 O100 1.261 . S
C107 O102 1.259 . S
C107 O104 1.235 . S
O108 Co98 2.021 1_545 S
O108 C105 1.238 . S
O109 Co103 2.052 1_565 S
O109 C105 1.241 1_565 S
O110 Co98 2.137 . S
O110 C101 1.247 . S
O111 Co98 2.244 . S
O111 C101 1.272 . S
O111 Co103 2.135 1_565 S
Co112 O113 2.216 . S
Co112 O114 2.091 . S
Co112 O116 2.004 1_455 S
Co112 O122 2.005 1_455 S
Co112 O124 2.137 . S
Co112 O125 2.244 . S
O113 Co112 2.216 . S
O113 C120 1.247 . S
O114 Co112 2.091 . S
O114 C120 1.261 . S
C115 O124 1.247 . S
C115 O125 1.272 . S
O116 Co112 2.004 1_655 S
O116 C121 1.259 . S
Co117 O118 2.061 . S
Co117 O123 2.052 1_655 S
Co117 O125 2.135 1_655 S
O118 Co117 2.061 . S
O118 C121 1.235 . S
C119 O122 1.233 . S
C119 O123 1.241 1_655 S
C120 O113 1.247 . S
C120 O114 1.261 . S
C121 O116 1.259 . S
C121 O118 1.235 . S
O122 Co112 2.005 1_655 S
O122 C119 1.233 . S
O123 Co117 2.052 1_455 S
O123 C119 1.241 1_455 S
O124 Co112 2.137 . S
O124 C115 1.247 . S
O125 Co112 2.244 . S
O125 C115 1.272 . S
O125 Co117 2.135 1_455 S
Co126 O127 2.216 . S
Co126 O128 2.091 . S
Co126 O130 2.004 . S
Co126 O136 2.021 . S
Co126 O138 2.137 . S
Co126 O139 2.244 . S
O127 Co126 2.216 . S
O127 C134 1.247 . S
O128 Co126 2.091 . S
O128 C134 1.261 . S
C129 O138 1.247 . S
C129 O139 1.272 . S
O130 Co126 2.004 . S
O130 C135 1.259 . S
Co131 O132 2.061 . S
Co131 O137 2.052 . S
Co131 O139 2.135 . S
O132 Co131 2.061 . S
O132 C135 1.235 . S
C133 O136 1.238 . S
C133 O137 1.241 . S
C134 O127 1.247 . S
C134 O128 1.261 . S
C135 O130 1.259 . S
C135 O132 1.235 . S
O136 Co126 2.021 . S
O136 C133 1.238 . S
O137 Co131 2.052 . S
O137 C133 1.241 . S
O138 Co126 2.137 . S
O138 C129 1.247 . S
O139 Co126 2.244 . S
O139 C129 1.272 . S
O139 Co131 2.135 . S
Co140 O141 2.216 . S
Co140 O142 2.091 . S
Co140 O144 2.004 1_545 S
Co140 O150 2.021 1_545 S
Co140 O152 2.137 . S
Co140 O153 2.244 . S
O141 Co140 2.216 . S
O141 C148 1.247 . S
O142 Co140 2.091 . S
O142 C148 1.261 . S
C143 O152 1.247 . S
C143 O153 1.272 . S
O144 Co140 2.004 1_565 S
O144 C149 1.259 . S
Co145 O146 2.061 . S
Co145 O151 2.052 1_565 S
Co145 O153 2.135 1_565 S
O146 Co145 2.061 . S
O146 C149 1.235 . S
C147 O150 1.238 . S
C147 O151 1.241 1_565 S
C148 O141 1.247 . S
C148 O142 1.261 . S
C149 O144 1.259 . S
C149 O146 1.235 . S
O150 Co140 2.021 1_565 S
O150 C147 1.238 . S
O151 Co145 2.052 1_545 S
O151 C147 1.241 1_545 S
O152 Co140 2.137 . S
O152 C143 1.247 . S
O153 Co140 2.244 . S
O153 C143 1.272 . S
O153 Co145 2.135 1_545 S
Co154 O155 2.216 . S
Co154 O156 2.091 . S
Co154 O158 2.004 1_655 S
Co154 O164 2.021 1_655 S
Co154 O166 2.137 . S
Co154 O167 2.244 . S
O155 Co154 2.216 . S
O155 C162 1.247 . S
O156 Co154 2.091 . S
O156 C162 1.261 . S
C157 O166 1.247 . S
C157 O167 1.272 . S
O158 Co154 2.004 1_455 S
O158 C163 1.259 . S
Co159 O160 2.061 . S
Co159 O165 2.052 1_455 S
Co159 O167 2.135 1_455 S
O160 Co159 2.061 . S
O160 C163 1.235 . S
C161 O164 1.238 . S
C161 O165 1.241 1_455 S
C162 O155 1.247 . S
C162 O156 1.261 . S
C163 O158 1.259 . S
C163 O160 1.235 . S
O164 Co154 2.021 1_455 S
O164 C161 1.238 . S
O165 Co159 2.052 1_655 S
O165 C161 1.241 1_655 S
O166 Co154 2.137 . S
O166 C157 1.247 . S
O167 Co154 2.244 . S
O167 C157 1.272 . S
O167 Co159 2.135 1_655 S
Co168 O169 2.216 . S
Co168 O170 2.091 . S
Co168 O172 2.004 . S
Co168 O178 2.021 . S
Co168 O180 2.137 . S
Co168 O181 2.244 . S
O169 Co168 2.216 . S
O169 C176 1.247 . S
O170 Co168 2.091 . S
O170 C176 1.261 . S
C171 O180 1.247 . S
C171 O181 1.272 . S
O172 Co168 2.004 . S
O172 C177 1.259 . S
Co173 O174 2.061 . S
Co173 O179 2.052 . S
Co173 O181 2.135 . S
O174 Co173 2.061 . S
O174 C177 1.235 . S
C175 O178 1.238 . S
C175 O179 1.241 . S
C176 O169 1.247 . S
C176 O170 1.261 . S
C177 O172 1.259 . S
C177 O174 1.235 . S
O178 Co168 2.021 . S
O178 C175 1.238 . S
O179 Co173 2.052 . S
O179 C175 1.241 . S
O180 Co168 2.137 . S
O180 C171 1.247 . S
O181 Co168 2.244 . S
O181 C171 1.272 . S
O181 Co173 2.135 . S
Co182 O183 2.216 . S
Co182 O184 2.091 . S
Co182 O186 2.004 . S
Co182 O192 2.021 . S
Co182 O194 2.137 . S
Co182 O195 2.244 . S
O183 Co182 2.216 . S
O183 C190 1.247 . S
O184 Co182 2.091 . S
O184 C190 1.261 . S
C185 O194 1.247 . S
C185 O195 1.272 . S
O186 Co182 2.004 . S
O186 C191 1.259 . S
Co187 O188 2.061 . S
Co187 O193 2.052 . S
Co187 O195 2.135 . S
O188 Co187 2.061 . S
O188 C191 1.235 . S
C189 O192 1.238 . S
C189 O193 1.241 . S
C190 O183 1.247 . S
C190 O184 1.261 . S
C191 O186 1.259 . S
C191 O188 1.235 . S
O192 Co182 2.021 . S
O192 C189 1.238 . S
O193 Co187 2.052 . S
O193 C189 1.241 . S
O194 Co182 2.137 . S
O194 C185 1.247 . S
O195 Co182 2.244 . S
O195 C185 1.272 . S
O195 Co187 2.135 . S
Co196 O197 2.216 . S
Co196 O198 2.091 . S
Co196 O200 2.004 . S
Co196 O206 2.021 . S
Co196 O208 2.137 . S
Co196 O209 2.244 . S
O197 Co196 2.216 . S
O197 C204 1.247 . S
O198 Co196 2.091 . S
O198 C204 1.261 . S
C199 O208 1.247 . S
C199 O209 1.272 . S
O200 Co196 2.004 . S
O200 C205 1.259 . S
Co201 O202 2.061 . S
Co201 O207 2.052 . S
Co201 O209 2.135 . S
O202 Co201 2.061 . S
O202 C205 1.235 . S
C203 O206 1.238 . S
C203 O207 1.241 . S
C204 O197 1.247 . S
C204 O198 1.261 . S
C205 O200 1.259 . S
C205 O202 1.235 . S
O206 Co196 2.021 . S
O206 C203 1.238 . S
O207 Co201 2.052 . S
O207 C203 1.241 . S
O208 Co196 2.137 . S
O208 C199 1.247 . S
O209 Co196 2.244 . S
O209 C199 1.272 . S
O209 Co201 2.135 . S
Co210 O211 2.216 . S
Co210 O212 2.091 . S
Co210 O214 2.004 . S
Co210 O220 2.021 . S
Co210 O222 2.137 . S
Co210 O223 2.244 . S
O211 Co210 2.216 . S
O211 C218 1.247 . S
O212 Co210 2.091 . S
O212 C218 1.261 . S
C213 O222 1.247 . S
C213 O223 1.272 . S
O214 Co210 2.004 . S
O214 C219 1.259 . S
Co215 O216 2.061 . S
Co215 O221 2.052 . S
Co215 O223 2.135 . S
O216 Co215 2.061 . S
O216 C219 1.235 . S
C217 O220 1.238 . S
C217 O221 1.241 . S
C218 O211 1.247 . S
C218 O212 1.261 . S
C219 O214 1.259 . S
C219 O216 1.235 . S
O220 Co210 2.021 . S
O220 C217 1.238 . S
O221 Co215 2.052 . S
O221 C217 1.241 . S
O222 Co210 2.137 . S
O222 C213 1.247 . S
O223 Co210 2.244 . S
O223 C213 1.272 . S
O223 Co215 2.135 . S
Co224 O225 2.216 . S
Co224 O226 2.091 . S
Co224 O228 2.004 . S
Co224 O234 2.021 . S
Co224 O236 2.137 . S
Co224 O237 2.244 . S
O225 Co224 2.216 . S
O225 C232 1.247 . S
O226 Co224 2.091 . S
O226 C232 1.261 . S
C227 O236 1.247 . S
C227 O237 1.272 . S
O228 Co224 2.004 . S
O228 C233 1.259 . S
Co229 O230 2.061 . S
Co229 O235 2.052 . S
Co229 O237 2.135 . S
O230 Co229 2.061 . S
O230 C233 1.235 . S
C231 O234 1.238 . S
C231 O235 1.241 . S
C232 O225 1.247 . S
C232 O226 1.261 . S
C233 O228 1.259 . S
C233 O230 1.235 . S
O234 Co224 2.021 . S
O234 C231 1.238 . S
O235 Co229 2.052 . S
O235 C231 1.241 . S
O236 Co224 2.137 . S
O236 C227 1.247 . S
O237 Co224 2.244 . S
O237 C227 1.272 . S
O237 Co229 2.135 . S
Co238 O239 2.216 . S
Co238 O240 2.091 . S
Co238 O242 2.004 . S
Co238 O248 2.021 . S
Co238 O250 2.137 . S
Co238 O251 2.244 . S
O239 Co238 2.216 . S
O239 C246 1.247 . S
O240 Co238 2.091 . S
O240 C246 1.261 . S
C241 O250 1.247 . S
C241 O251 1.272 . S
O242 Co238 2.004 . S
O242 C247 1.259 . S
Co243 O244 2.061 . S
Co243 O249 2.052 . S
Co243 O251 2.135 . S
O244 Co243 2.061 . S
O244 C247 1.235 . S
C245 O248 1.238 . S
C245 O249 1.241 . S
C246 O239 1.247 . S
C246 O240 1.261 . S
C247 O242 1.259 . S
C247 O244 1.235 . S
O248 Co238 2.021 . S
O248 C245 1.238 . S
O249 Co243 2.052 . S
O249 C245 1.241 . S
O250 Co238 2.137 . S
O250 C241 1.247 . S
O251 Co238 2.244 . S
O251 C241 1.272 . S
O251 Co243 2.135 . S
Co252 O253 2.216 . S
Co252 O254 2.091 . S
Co252 O256 2.004 . S
Co252 O262 2.021 . S
Co252 O264 2.137 . S
Co252 O265 2.244 . S
O253 Co252 2.216 . S
O253 C260 1.247 . S
O254 Co252 2.091 . S
O254 C260 1.261 . S
C255 O264 1.247 . S
C255 O265 1.272 . S
O256 Co252 2.004 . S
O256 C261 1.259 . S
Co257 O258 2.061 . S
Co257 O263 2.052 . S
Co257 O265 2.135 . S
O258 Co257 2.061 . S
O258 C261 1.235 . S
C259 O262 1.238 . S
C259 O263 1.241 . S
C260 O253 1.247 . S
C260 O254 1.261 . S
C261 O256 1.259 . S
C261 O258 1.235 . S
O262 Co252 2.021 . S
O262 C259 1.238 . S
O263 Co257 2.052 . S
O263 C259 1.241 . S
O264 Co252 2.137 . S
O264 C255 1.247 . S
O265 Co252 2.244 . S
O265 C255 1.272 . S
O265 Co257 2.135 . S
Co266 O267 2.216 . S
Co266 O268 2.091 . S
Co266 O270 2.004 . S
Co266 O276 2.021 . S
Co266 O278 2.137 . S
Co266 O279 2.244 . S
O267 Co266 2.216 . S
O267 C274 1.247 . S
O268 Co266 2.091 . S
O268 C274 1.261 . S
C269 O278 1.247 . S
C269 O279 1.272 . S
O270 Co266 2.004 . S
O270 C275 1.259 . S
Co271 O272 2.061 . S
Co271 O277 2.052 . S
Co271 O279 2.135 . S
O272 Co271 2.061 . S
O272 C275 1.235 . S
C273 O276 1.238 . S
C273 O277 1.241 . S
C274 O267 1.247 . S
C274 O268 1.261 . S
C275 O270 1.259 . S
C275 O272 1.235 . S
O276 Co266 2.021 . S
O276 C273 1.238 . S
O277 Co271 2.052 . S
O277 C273 1.241 . S
O278 Co266 2.137 . S
O278 C269 1.247 . S
O279 Co266 2.244 . S
O279 C269 1.272 . S
O279 Co271 2.135 . S
Co280 O281 2.216 . S
Co280 O282 2.091 . S
Co280 O284 2.004 . S
Co280 O290 2.021 . S
Co280 O292 2.137 . S
Co280 O293 2.244 . S
O281 Co280 2.216 . S
O281 C288 1.247 . S
O282 Co280 2.091 . S
O282 C288 1.261 . S
C283 O292 1.247 . S
C283 O293 1.272 . S
O284 Co280 2.004 . S
O284 C289 1.259 . S
Co285 O286 2.061 . S
Co285 O291 2.052 . S
Co285 O293 2.135 . S
O286 Co285 2.061 . S
O286 C289 1.235 . S
C287 O290 1.238 . S
C287 O291 1.241 . S
C288 O281 1.247 . S
C288 O282 1.261 . S
C289 O284 1.259 . S
C289 O286 1.235 . S
O290 Co280 2.021 . S
O290 C287 1.238 . S
O291 Co285 2.052 . S
O291 C287 1.241 . S
O292 Co280 2.137 . S
O292 C283 1.247 . S
O293 Co280 2.244 . S
O293 C283 1.272 . S
O293 Co285 2.135 . S
Co294 O295 2.216 . S
Co294 O296 2.091 1_554 S
Co294 O298 2.004 1_554 S
Co294 O304 2.021 . S
Co294 O306 2.137 1_554 S
Co294 O307 2.244 . S
O295 Co294 2.216 . S
O295 C302 1.247 1_554 S
O296 Co294 2.091 1_556 S
O296 C302 1.261 . S
C297 O306 1.269 . S
C297 O307 1.246 1_556 S
O298 Co294 2.004 1_556 S
O298 C303 1.249 1_556 S
Co299 O300 2.061 . S
Co299 O305 2.052 . S
Co299 O307 2.135 . S
O300 Co299 2.061 . S
O300 C303 1.255 . S
C301 O304 1.238 . S
C301 O305 1.241 . S
C302 O295 1.247 1_556 S
C302 O296 1.261 . S
C303 O298 1.249 1_554 S
C303 O300 1.255 . S
O304 Co294 2.021 . S
O304 C301 1.238 . S
O305 Co299 2.052 . S
O305 C301 1.241 . S
O306 Co294 2.137 1_556 S
O306 C297 1.269 . S
O307 Co294 2.244 . S
O307 C297 1.246 1_554 S
O307 Co299 2.135 . S
Co308 O309 2.216 . S
Co308 O310 2.091 1_554 S
Co308 O312 2.004 1_554 S
Co308 O318 2.021 . S
Co308 O320 2.137 1_554 S
Co308 O321 2.244 . S
O309 Co308 2.216 . S
O309 C316 1.247 1_554 S
O310 Co308 2.091 1_556 S
O310 C316 1.261 . S
C311 O320 1.269 . S
C311 O321 1.246 1_556 S
O312 Co308 2.004 1_556 S
O312 C317 1.249 1_556 S
Co313 O314 2.061 . S
Co313 O319 2.052 . S
Co313 O321 2.135 . S
O314 Co313 2.061 . S
O314 C317 1.255 . S
C315 O318 1.238 . S
C315 O319 1.241 . S
C316 O309 1.247 1_556 S
C316 O310 1.261 . S
C317 O312 1.249 1_554 S
C317 O314 1.255 . S
O318 Co308 2.021 . S
O318 C315 1.238 . S
O319 Co313 2.052 . S
O319 C315 1.241 . S
O320 Co308 2.137 1_556 S
O320 C311 1.269 . S
O321 Co308 2.244 . S
O321 C311 1.246 1_554 S
O321 Co313 2.135 . S
Co322 O323 2.216 . S
Co322 O324 2.091 1_554 S
Co322 O326 2.004 1_554 S
Co322 O332 2.021 . S
Co322 O334 2.137 1_554 S
Co322 O335 2.244 . S
O323 Co322 2.216 . S
O323 C330 1.247 1_554 S
O324 Co322 2.091 1_556 S
O324 C330 1.261 . S
C325 O334 1.269 . S
C325 O335 1.246 1_556 S
O326 Co322 2.004 1_556 S
O326 C331 1.249 1_556 S
Co327 O328 2.061 . S
Co327 O333 2.052 . S
Co327 O335 2.135 . S
O328 Co327 2.061 . S
O328 C331 1.254 . S
C329 O332 1.238 . S
C329 O333 1.241 . S
C330 O323 1.247 1_556 S
C330 O324 1.261 . S
C331 O326 1.249 1_554 S
C331 O328 1.254 . S
O332 Co322 2.021 . S
O332 C329 1.238 . S
O333 Co327 2.052 . S
O333 C329 1.241 . S
O334 Co322 2.137 1_556 S
O334 C325 1.269 . S
O335 Co322 2.244 . S
O335 C325 1.246 1_554 S
O335 Co327 2.135 . S
Co336 O337 2.216 . S
Co336 O338 2.091 . S
Co336 O340 2.004 . S
Co336 O346 2.021 . S
Co336 O348 2.137 . S
Co336 O349 2.244 . S
O337 Co336 2.216 . S
O337 C344 1.247 . S
O338 Co336 2.091 . S
O338 C344 1.261 . S
C339 O348 1.247 . S
C339 O349 1.272 . S
O340 Co336 2.004 . S
O340 C345 1.259 . S
Co341 O342 2.061 . S
Co341 O347 2.052 . S
Co341 O349 2.135 . S
O342 Co341 2.061 . S
O342 C345 1.235 . S
C343 O346 1.238 . S
C343 O347 1.241 . S
C344 O337 1.247 . S
C344 O338 1.261 . S
C345 O340 1.259 . S
C345 O342 1.235 . S
O346 Co336 2.021 . S
O346 C343 1.238 . S
O347 Co341 2.052 . S
O347 C343 1.241 . S
O348 Co336 2.137 . S
O348 C339 1.247 . S
O349 Co336 2.244 . S
O349 C339 1.272 . S
O349 Co341 2.135 . S
Co350 O351 2.216 . S
Co350 O352 2.091 . S
Co350 O354 2.004 . S
Co350 O360 2.021 . S
Co350 O362 2.137 . S
Co350 O363 2.244 . S
O351 Co350 2.216 . S
O351 C358 1.247 . S
O352 Co350 2.091 . S
O352 C358 1.261 . S
C353 O362 1.247 . S
C353 O363 1.272 . S
O354 Co350 2.004 . S
O354 C359 1.259 . S
Co355 O356 2.061 . S
Co355 O361 2.052 . S
Co355 O363 2.135 . S
O356 Co355 2.061 . S
O356 C359 1.235 . S
C357 O360 1.238 . S
C357 O361 1.241 . S
C358 O351 1.247 . S
C358 O352 1.261 . S
C359 O354 1.259 . S
C359 O356 1.235 . S
O360 Co350 2.021 . S
O360 C357 1.238 . S
O361 Co355 2.052 . S
O361 C357 1.241 . S
O362 Co350 2.137 . S
O362 C353 1.247 . S
O363 Co350 2.244 . S
O363 C353 1.272 . S
O363 Co355 2.135 . S
Co364 O365 2.216 . S
Co364 O366 2.091 . S
Co364 O368 2.004 . S
Co364 O374 2.021 . S
Co364 O376 2.137 . S
Co364 O377 2.244 . S
O365 Co364 2.216 . S
O365 C372 1.247 . S
O366 Co364 2.091 . S
O366 C372 1.261 . S
C367 O376 1.247 . S
C367 O377 1.272 . S
O368 Co364 2.004 . S
O368 C373 1.259 . S
Co369 O370 2.061 . S
Co369 O375 2.052 . S
Co369 O377 2.135 . S
O370 Co369 2.061 . S
O370 C373 1.235 . S
C371 O374 1.238 . S
C371 O375 1.241 . S
C372 O365 1.247 . S
C372 O366 1.261 . S
C373 O368 1.259 . S
C373 O370 1.235 . S
O374 Co364 2.021 . S
O374 C371 1.238 . S
O375 Co369 2.052 . S
O375 C371 1.241 . S
O376 Co364 2.137 . S
O376 C367 1.247 . S
O377 Co364 2.244 . S
O377 C367 1.272 . S
O377 Co369 2.135 . S
Co378 O379 2.216 . S
Co378 O380 2.091 1_556 S
Co378 O382 2.004 1_556 S
Co378 O388 2.021 1_556 S
Co378 O390 2.137 . S
Co378 O391 2.244 . S
O379 Co378 2.216 . S
O379 C386 1.247 1_556 S
O380 Co378 2.091 1_554 S
O380 C386 1.261 . S
C381 O390 1.247 . S
C381 O391 1.272 . S
O382 Co378 2.004 1_554 S
O382 C387 1.259 1_554 S
Co383 O384 2.061 . S
Co383 O389 2.052 . S
Co383 O391 2.135 . S
O384 Co383 2.061 . S
O384 C387 1.235 . S
C385 O388 1.238 1_556 S
C385 O389 1.241 . S
C386 O379 1.247 1_554 S
C386 O380 1.261 . S
C387 O382 1.259 1_556 S
C387 O384 1.235 . S
O388 Co378 2.021 1_554 S
O388 C385 1.238 1_554 S
O389 Co383 2.052 . S
O389 C385 1.241 . S
O390 Co378 2.137 . S
O390 C381 1.247 . S
O391 Co378 2.244 . S
O391 C381 1.272 . S
O391 Co383 2.135 . S
Co392 O393 2.216 . S
Co392 O394 2.091 1_556 S
Co392 O396 2.004 1_556 S
Co392 O402 2.021 1_556 S
Co392 O404 2.137 . S
Co392 O405 2.244 . S
O393 Co392 2.216 . S
O393 C400 1.247 1_556 S
O394 Co392 2.091 1_554 S
O394 C400 1.261 . S
C395 O404 1.247 . S
C395 O405 1.272 . S
O396 Co392 2.004 1_554 S
O396 C401 1.259 1_554 S
Co397 O398 2.061 . S
Co397 O403 2.052 . S
Co397 O405 2.135 . S
O398 Co397 2.061 . S
O398 C401 1.235 . S
C399 O402 1.238 1_556 S
C399 O403 1.241 . S
C400 O393 1.247 1_554 S
C400 O394 1.261 . S
C401 O396 1.259 1_556 S
C401 O398 1.235 . S
O402 Co392 2.021 1_554 S
O402 C399 1.238 1_554 S
O403 Co397 2.052 . S
O403 C399 1.241 . S
O404 Co392 2.137 . S
O404 C395 1.247 . S
O405 Co392 2.244 . S
O405 C395 1.272 . S
O405 Co397 2.135 . S
Co406 O407 2.216 . S
Co406 O408 2.091 1_556 S
Co406 O410 2.004 1_556 S
Co406 O416 2.021 1_556 S
Co406 O418 2.137 . S
Co406 O419 2.244 . S
O407 Co406 2.216 . S
O407 C414 1.247 1_556 S
O408 Co406 2.091 1_554 S
O408 C414 1.261 . S
C409 O418 1.247 . S
C409 O419 1.272 . S
O410 Co406 2.004 1_554 S
O410 C415 1.259 1_554 S
Co411 O412 2.061 . S
Co411 O417 2.052 . S
Co411 O419 2.135 . S
O412 Co411 2.061 . S
O412 C415 1.235 . S
C413 O416 1.238 1_556 S
C413 O417 1.241 . S
C414 O407 1.247 1_554 S
C414 O408 1.261 . S
C415 O410 1.259 1_556 S
C415 O412 1.235 . S
O416 Co406 2.021 1_554 S
O416 C413 1.238 1_554 S
O417 Co411 2.052 . S
O417 C413 1.241 . S
O418 Co406 2.137 . S
O418 C409 1.247 . S
O419 Co406 2.244 . S
O419 C409 1.272 . S
O419 Co411 2.135 . S
Co420 O421 2.216 . S
Co420 O422 2.091 . S
Co420 O424 2.004 . S
Co420 O430 2.021 . S
Co420 O432 2.137 . S
Co420 O433 2.244 . S
O421 Co420 2.216 . S
O421 C428 1.247 . S
O422 Co420 2.091 . S
O422 C428 1.261 . S
C423 O432 1.247 . S
C423 O433 1.272 . S
O424 Co420 2.004 . S
O424 C429 1.259 . S
Co425 O426 2.061 . S
Co425 O431 2.052 . S
Co425 O433 2.135 . S
O426 Co425 2.061 . S
O426 C429 1.235 . S
C427 O430 1.238 . S
C427 O431 1.241 . S
C428 O421 1.247 . S
C428 O422 1.261 . S
C429 O424 1.259 . S
C429 O426 1.235 . S
O430 Co420 2.021 . S
O430 C427 1.238 . S
O431 Co425 2.052 . S
O431 C427 1.241 . S
O432 Co420 2.137 . S
O432 C423 1.247 . S
O433 Co420 2.244 . S
O433 C423 1.272 . S
O433 Co425 2.135 . S
Co434 O435 2.216 . S
Co434 O436 2.091 . S
Co434 O438 2.004 . S
Co434 O444 2.021 . S
Co434 O446 2.137 . S
Co434 O447 2.244 . S
O435 Co434 2.216 . S
O435 C442 1.247 . S
O436 Co434 2.091 . S
O436 C442 1.261 . S
C437 O446 1.247 . S
C437 O447 1.272 . S
O438 Co434 2.004 . S
O438 C443 1.259 . S
Co439 O440 2.061 . S
Co439 O445 2.052 . S
Co439 O447 2.135 . S
O440 Co439 2.061 . S
O440 C443 1.235 . S
C441 O444 1.238 . S
C441 O445 1.241 . S
C442 O435 1.247 . S
C442 O436 1.261 . S
C443 O438 1.259 . S
C443 O440 1.235 . S
O444 Co434 2.021 . S
O444 C441 1.238 . S
O445 Co439 2.052 . S
O445 C441 1.241 . S
O446 Co434 2.137 . S
O446 C437 1.247 . S
O447 Co434 2.244 . S
O447 C437 1.272 . S
O447 Co439 2.135 . S
Co448 O449 2.216 . S
Co448 O450 2.091 . S
Co448 O452 2.004 . S
Co448 O458 2.021 . S
Co448 O460 2.137 . S
Co448 O461 2.244 . S
O449 Co448 2.216 . S
O449 C456 1.247 . S
O450 Co448 2.091 . S
O450 C456 1.261 . S
C451 O460 1.247 . S
C451 O461 1.272 . S
O452 Co448 2.004 . S
O452 C457 1.259 . S
Co453 O454 2.061 . S
Co453 O459 2.052 . S
Co453 O461 2.135 . S
O454 Co453 2.061 . S
O454 C457 1.235 . S
C455 O458 1.238 . S
C455 O459 1.241 . S
C456 O449 1.247 . S
C456 O450 1.261 . S
C457 O452 1.259 . S
C457 O454 1.235 . S
O458 Co448 2.021 . S
O458 C455 1.238 . S
O459 Co453 2.052 . S
O459 C455 1.241 . S
O460 Co448 2.137 . S
O460 C451 1.247 . S
O461 Co448 2.244 . S
O461 C451 1.272 . S
O461 Co453 2.135 . S
Co462 O463 2.216 . S
Co462 O464 2.091 . S
Co462 O466 2.004 . S
Co462 O472 2.021 . S
Co462 O474 2.137 . S
Co462 O475 2.244 . S
O463 Co462 2.216 . S
O463 C470 1.247 . S
O464 Co462 2.091 . S
O464 C470 1.261 . S
C465 O474 1.247 . S
C465 O475 1.272 . S
O466 Co462 2.004 . S
O466 C471 1.259 . S
Co467 O468 2.061 . S
Co467 O473 2.052 . S
Co467 O475 2.135 . S
O468 Co467 2.061 . S
O468 C471 1.235 . S
C469 O472 1.238 . S
C469 O473 1.241 . S
C470 O463 1.247 . S
C470 O464 1.261 . S
C471 O466 1.259 . S
C471 O468 1.235 . S
O472 Co462 2.021 . S
O472 C469 1.238 . S
O473 Co467 2.052 . S
O473 C469 1.241 . S
O474 Co462 2.137 . S
O474 C465 1.247 . S
O475 Co462 2.244 . S
O475 C465 1.272 . S
O475 Co467 2.135 . S
Co476 O477 2.216 . S
Co476 O478 2.091 . S
Co476 O480 2.004 . S
Co476 O486 2.021 . S
Co476 O488 2.137 . S
Co476 O489 2.244 . S
O477 Co476 2.216 . S
O477 C484 1.247 . S
O478 Co476 2.091 . S
O478 C484 1.261 . S
C479 O488 1.247 . S
C479 O489 1.272 . S
O480 Co476 2.004 . S
O480 C485 1.259 . S
Co481 O482 2.061 . S
Co481 O487 2.052 . S
Co481 O489 2.135 . S
O482 Co481 2.061 . S
O482 C485 1.235 . S
C483 O486 1.238 . S
C483 O487 1.241 . S
C484 O477 1.247 . S
C484 O478 1.261 . S
C485 O480 1.259 . S
C485 O482 1.235 . S
O486 Co476 2.021 . S
O486 C483 1.238 . S
O487 Co481 2.052 . S
O487 C483 1.241 . S
O488 Co476 2.137 . S
O488 C479 1.247 . S
O489 Co476 2.244 . S
O489 C479 1.272 . S
O489 Co481 2.135 . S
Co490 O491 2.216 . S
Co490 O492 2.091 . S
Co490 O494 2.004 . S
Co490 O500 2.021 . S
Co490 O502 2.137 . S
Co490 O503 2.244 . S
O491 Co490 2.216 . S
O491 C498 1.247 . S
O492 Co490 2.091 . S
O492 C498 1.261 . S
C493 O502 1.247 . S
C493 O503 1.272 . S
O494 Co490 2.004 . S
O494 C499 1.259 . S
Co495 O496 2.061 . S
Co495 O501 2.052 . S
Co495 O503 2.135 . S
O496 Co495 2.061 . S
O496 C499 1.235 . S
C497 O500 1.238 . S
C497 O501 1.241 . S
C498 O491 1.247 . S
C498 O492 1.261 . S
C499 O494 1.259 . S
C499 O496 1.235 . S
O500 Co490 2.021 . S
O500 C497 1.238 . S
O501 Co495 2.052 . S
O501 C497 1.241 . S
O502 Co490 2.137 . S
O502 C493 1.247 . S
O503 Co490 2.244 . S
O503 C493 1.272 . S
O503 Co495 2.135 . S
C504 C505 1.369 . S
C504 C506 1.414 1_455 S
C504 H508 0.930 . S
C505 C504 1.369 . S
C505 C514 1.429 . S
C506 C504 1.414 1_655 S
C506 C507 1.368 . S
C506 H509 0.929 . S
C507 C506 1.368 . S
C507 C513 1.428 . S
H508 C504 0.930 . S
H509 C506 0.929 . S
S510 N511 1.613 . S
S510 N512 1.610 1_455 S
N511 S510 1.613 . S
N511 C514 1.350 . S
N512 S510 1.610 1_655 S
N512 C513 1.351 . S
C513 C507 1.428 . S
C513 N512 1.351 . S
C513 C514 1.434 1_655 S
C514 C505 1.429 . S
C514 N511 1.350 . S
C514 C513 1.434 1_455 S
C515 C516 1.369 . S
C515 C517 1.419 . S
C515 H519 0.930 . S
C516 C515 1.369 . S
C516 C525 1.429 . S
C517 C515 1.419 . S
C517 C518 1.363 . S
C517 H520 0.929 . S
C518 C517 1.363 . S
C518 C524 1.428 . S
H519 C515 0.930 . S
H520 C517 0.929 . S
S521 N522 1.613 . S
S521 N523 1.610 . S
N522 S521 1.613 . S
N522 C525 1.350 . S
N523 S521 1.610 . S
N523 C524 1.351 . S
C524 C518 1.428 . S
C524 N523 1.351 . S
C524 C525 1.434 . S
C525 C516 1.429 . S
C525 N522 1.350 . S
C525 C524 1.434 . S
C526 C527 1.365 1_565 S
C526 C528 1.435 . S
C526 H530 0.917 1_565 S
C527 C526 1.365 1_545 S
C527 C536 1.429 . S
C528 C526 1.435 . S
C528 C529 1.363 . S
C528 H531 0.929 . S
C529 C528 1.363 . S
C529 C535 1.428 . S
H530 C526 0.917 1_545 S
H531 C528 0.929 . S
S532 N533 1.614 . S
S532 N534 1.610 1_545 S
N533 S532 1.614 . S
N533 C536 1.350 . S
N534 S532 1.610 1_565 S
N534 C535 1.351 . S
C535 C529 1.428 . S
C535 N534 1.351 . S
C535 C536 1.434 1_565 S
C536 C527 1.429 . S
C536 N533 1.350 . S
C536 C535 1.434 1_545 S
C537 C538 1.369 . S
C537 C539 1.428 . S
C537 H541 0.930 . S
C538 C537 1.369 . S
C538 C547 1.429 . S
C539 C537 1.428 . S
C539 C540 1.352 1_545 S
C539 H542 0.931 1_545 S
C540 C539 1.352 1_565 S
C540 C546 1.428 . S
H541 C537 0.930 . S
H542 C539 0.931 1_565 S
S543 N544 1.613 . S
S543 N545 1.610 1_545 S
N544 S543 1.613 . S
N544 C547 1.350 . S
N545 S543 1.610 1_565 S
N545 C546 1.351 . S
C546 C540 1.428 . S
C546 N545 1.351 . S
C546 C547 1.434 1_565 S
C547 C538 1.429 . S
C547 N544 1.350 . S
C547 C546 1.434 1_545 S
C548 C549 1.369 . S
C548 C550 1.419 1_655 S
C548 H552 0.930 . S
C549 C548 1.369 . S
C549 C558 1.429 . S
C550 C548 1.419 1_455 S
C550 C551 1.363 . S
C550 H553 0.929 . S
C551 C550 1.363 . S
C551 C557 1.428 . S
H552 C548 0.930 . S
H553 C550 0.929 . S
S554 N555 1.613 . S
S554 N556 1.610 1_655 S
N555 S554 1.613 . S
N555 C558 1.350 . S
N556 S554 1.610 1_455 S
N556 C557 1.351 . S
C557 C551 1.428 . S
C557 N556 1.351 . S
C557 C558 1.434 1_455 S
C558 C549 1.429 . S
C558 N555 1.350 . S
C558 C557 1.434 1_655 S
C559 C560 1.369 . S
C559 C561 1.419 . S
C559 H563 0.930 . S
C560 C559 1.369 . S
C560 C569 1.429 . S
C561 C559 1.419 . S
C561 C562 1.363 . S
C561 H564 0.929 . S
C562 C561 1.363 . S
C562 C568 1.428 . S
H563 C559 0.930 . S
H564 C561 0.929 . S
S565 N566 1.613 . S
S565 N567 1.610 . S
N566 S565 1.613 . S
N566 C569 1.350 . S
N567 S565 1.610 . S
N567 C568 1.351 . S
C568 C562 1.428 . S
C568 N567 1.351 . S
C568 C569 1.434 . S
C569 C560 1.429 . S
C569 N566 1.350 . S
C569 C568 1.434 . S
C570 C571 1.369 . S
C570 C572 1.432 . S
C570 H574 0.930 . S
C571 C570 1.369 . S
C571 C580 1.429 . S
C572 C570 1.432 . S
C572 C573 1.347 1_655 S
C572 H575 0.933 1_655 S
C573 C572 1.347 1_455 S
C573 C579 1.428 . S
H574 C570 0.930 . S
H575 C572 0.933 1_455 S
S576 N577 1.613 1_455 S
S576 N578 1.610 . S
N577 S576 1.613 1_655 S
N577 C580 1.350 . S
N578 S576 1.610 . S
N578 C579 1.351 . S
C579 C573 1.428 . S
C579 N578 1.351 . S
C579 C580 1.434 1_455 S
C580 C571 1.429 . S
C580 N577 1.350 . S
C580 C579 1.434 1_655 S
C581 C582 1.369 . S
C581 C583 1.419 . S
C581 H585 0.930 . S
C582 C581 1.369 . S
C582 C591 1.429 . S
C583 C581 1.419 . S
C583 C584 1.363 . S
C583 H586 0.929 . S
C584 C583 1.363 . S
C584 C590 1.428 . S
H585 C581 0.930 . S
H586 C583 0.929 . S
S587 N588 1.613 . S
S587 N589 1.610 . S
N588 S587 1.613 . S
N588 C591 1.350 . S
N589 S587 1.610 . S
N589 C590 1.351 . S
C590 C584 1.428 . S
C590 N589 1.351 . S
C590 C591 1.434 . S
C591 C582 1.429 . S
C591 N588 1.350 . S
C591 C590 1.434 . S
C592 C593 1.361 1_545 S
C592 C594 1.442 . S
C592 H596 0.914 1_545 S
C593 C592 1.361 1_565 S
C593 C602 1.429 . S
C594 C592 1.442 . S
C594 C595 1.363 . S
C594 H597 0.929 . S
C595 C594 1.363 . S
C595 C601 1.428 . S
H596 C592 0.914 1_565 S
H597 C594 0.929 . S
S598 N599 1.641 . S
S598 N600 1.592 1_565 S
N599 S598 1.641 . S
N599 C602 1.350 . S
N600 S598 1.592 1_545 S
N600 C601 1.351 . S
C601 C595 1.428 . S
C601 N600 1.351 . S
C601 C602 1.434 1_545 S
C602 C593 1.429 . S
C602 N599 1.350 . S
C602 C601 1.434 1_565 S
C603 C604 1.369 . S
C603 C605 1.419 1_545 S
C603 H607 0.930 . S
C604 C603 1.369 . S
C604 C613 1.429 . S
C605 C603 1.419 1_565 S
C605 C606 1.363 . S
C605 H608 0.929 . S
C606 C605 1.363 . S
C606 C612 1.428 . S
H607 C603 0.930 . S
H608 C605 0.929 . S
S609 N610 1.613 1_565 S
S609 N611 1.610 . S
N610 S609 1.613 1_545 S
N610 C613 1.350 . S
N611 S609 1.610 . S
N611 C612 1.351 . S
C612 C606 1.428 . S
C612 N611 1.351 . S
C612 C613 1.434 1_565 S
C613 C604 1.429 . S
C613 N610 1.350 . S
C613 C612 1.434 1_545 S
C614 C615 1.369 . S
C614 C616 1.419 1_455 S
C614 H618 0.930 . S
C615 C614 1.369 . S
C615 C624 1.429 . S
C616 C614 1.419 1_655 S
C616 C617 1.363 . S
C616 H619 0.929 . S
C617 C616 1.363 . S
C617 C623 1.428 1_655 S
H618 C614 0.930 . S
H619 C616 0.929 . S
S620 N621 1.593 1_545 S
S620 N622 1.597 1_445 S
N621 S620 1.593 1_565 S
N621 C624 1.350 . S
N622 S620 1.597 1_665 S
N622 C623 1.351 1_655 S
C623 C617 1.428 1_455 S
C623 N622 1.351 1_455 S
C623 C624 1.434 . S
C624 C615 1.429 . S
C624 N621 1.350 . S
C624 C623 1.434 . S
C625 C626 1.369 . S
C625 C627 1.419 . S
C625 H629 0.930 . S
C626 C625 1.369 . S
C626 C635 1.429 . S
C627 C625 1.419 . S
C627 C628 1.363 . S
C627 H630 0.929 . S
C628 C627 1.363 . S
C628 C634 1.428 . S
H629 C625 0.930 . S
H630 C627 0.929 . S
S631 N632 1.613 . S
S631 N633 1.610 . S
N632 S631 1.613 . S
N632 C635 1.350 . S
N633 S631 1.610 . S
N633 C634 1.351 . S
C634 C628 1.428 . S
C634 N633 1.351 . S
C634 C635 1.434 . S
C635 C626 1.429 . S
C635 N632 1.350 . S
C635 C634 1.434 . S
C636 C637 1.369 . S
C636 C638 1.419 . S
C636 H640 0.930 . S
C637 C636 1.369 . S
C637 C646 1.429 . S
C638 C636 1.419 . S
C638 C639 1.363 . S
C638 H641 0.929 . S
C639 C638 1.363 . S
C639 C645 1.428 . S
H640 C636 0.930 . S
H641 C638 0.929 . S
S642 N643 1.613 . S
S642 N644 1.610 . S
N643 S642 1.613 . S
N643 C646 1.350 . S
N644 S642 1.610 . S
N644 C645 1.351 . S
C645 C639 1.428 . S
C645 N644 1.351 . S
C645 C646 1.434 . S
C646 C637 1.429 . S
C646 N643 1.350 . S
C646 C645 1.434 . S
C647 C648 1.369 . S
C647 C649 1.419 . S
C647 H651 0.930 . S
C648 C647 1.369 . S
C648 C657 1.429 . S
C649 C647 1.419 . S
C649 C650 1.363 . S
C649 H652 0.929 . S
C650 C649 1.363 . S
C650 C656 1.428 . S
H651 C647 0.930 . S
H652 C649 0.929 . S
S653 N654 1.613 . S
S653 N655 1.610 . S
N654 S653 1.613 . S
N654 C657 1.350 . S
N655 S653 1.610 . S
N655 C656 1.351 . S
C656 C650 1.428 . S
C656 N655 1.351 . S
C656 C657 1.434 . S
C657 C648 1.429 . S
C657 N654 1.350 . S
C657 C656 1.434 . S
C658 C659 1.369 . S
C658 C660 1.419 . S
C658 H662 0.930 . S
C659 C658 1.369 . S
C659 C668 1.429 . S
C660 C658 1.419 . S
C660 C661 1.363 . S
C660 H663 0.929 . S
C661 C660 1.363 . S
C661 C667 1.428 . S
H662 C658 0.930 . S
H663 C660 0.929 . S
S664 N665 1.613 . S
S664 N666 1.610 . S
N665 S664 1.613 . S
N665 C668 1.350 . S
N666 S664 1.610 . S
N666 C667 1.351 . S
C667 C661 1.428 . S
C667 N666 1.351 . S
C667 C668 1.434 . S
C668 C659 1.429 . S
C668 N665 1.350 . S
C668 C667 1.434 . S
C669 C670 1.369 . S
C669 C671 1.419 . S
C669 H673 0.930 . S
C670 C669 1.369 . S
C670 C679 1.429 . S
C671 C669 1.419 . S
C671 C672 1.363 . S
C671 H674 0.929 . S
C672 C671 1.363 . S
C672 C678 1.428 . S
H673 C669 0.930 . S
H674 C671 0.929 . S
S675 N676 1.613 . S
S675 N677 1.610 . S
N676 S675 1.613 . S
N676 C679 1.350 . S
N677 S675 1.610 . S
N677 C678 1.351 . S
C678 C672 1.428 . S
C678 N677 1.351 . S
C678 C679 1.434 . S
C679 C670 1.429 . S
C679 N676 1.350 . S
C679 C678 1.434 . S
C680 C681 1.369 . S
C680 C682 1.419 . S
C680 H684 0.930 . S
C681 C680 1.369 . S
C681 C690 1.429 . S
C682 C680 1.419 . S
C682 C683 1.363 . S
C682 H685 0.929 . S
C683 C682 1.363 . S
C683 C689 1.428 . S
H684 C680 0.930 . S
H685 C682 0.929 . S
S686 N687 1.613 . S
S686 N688 1.610 . S
N687 S686 1.613 . S
N687 C690 1.350 . S
N688 S686 1.610 . S
N688 C689 1.351 . S
C689 C683 1.428 . S
C689 N688 1.351 . S
C689 C690 1.434 . S
C690 C681 1.429 . S
C690 N687 1.350 . S
C690 C689 1.434 . S
C691 C692 1.369 . S
C691 C693 1.419 . S
C691 H695 0.930 . S
C692 C691 1.369 . S
C692 C701 1.429 . S
C693 C691 1.419 . S
C693 C694 1.363 . S
C693 H696 0.929 . S
C694 C693 1.363 . S
C694 C700 1.428 . S
H695 C691 0.930 . S
H696 C693 0.929 . S
S697 N698 1.613 . S
S697 N699 1.610 . S
N698 S697 1.613 . S
N698 C701 1.350 . S
N699 S697 1.610 . S
N699 C700 1.351 . S
C700 C694 1.428 . S
C700 N699 1.351 . S
C700 C701 1.434 . S
C701 C692 1.429 . S
C701 N698 1.350 . S
C701 C700 1.434 . S
C702 C703 1.369 . S
C702 C704 1.419 . S
C702 H706 0.930 . S
C703 C702 1.369 . S
C703 C712 1.429 . S
C704 C702 1.419 . S
C704 C705 1.363 . S
C704 H707 0.929 . S
C705 C704 1.363 . S
C705 C711 1.428 . S
H706 C702 0.930 . S
H707 C704 0.929 . S
S708 N709 1.613 . S
S708 N710 1.610 . S
N709 S708 1.613 . S
N709 C712 1.350 . S
N710 S708 1.610 . S
N710 C711 1.351 . S
C711 C705 1.428 . S
C711 N710 1.351 . S
C711 C712 1.434 . S
C712 C703 1.429 . S
C712 N709 1.350 . S
C712 C711 1.434 . S
C713 C714 1.369 . S
C713 C715 1.419 . S
C713 H717 0.930 . S
C714 C713 1.369 . S
C714 C723 1.429 . S
C715 C713 1.419 . S
C715 C716 1.363 . S
C715 H718 0.929 . S
C716 C715 1.363 . S
C716 C722 1.428 . S
H717 C713 0.930 . S
H718 C715 0.929 . S
S719 N720 1.613 . S
S719 N721 1.610 . S
N720 S719 1.613 . S
N720 C723 1.350 . S
N721 S719 1.610 . S
N721 C722 1.351 . S
C722 C716 1.428 . S
C722 N721 1.351 . S
C722 C723 1.434 . S
C723 C714 1.429 . S
C723 N720 1.350 . S
C723 C722 1.434 . S
C724 C725 1.369 . S
C724 C726 1.419 . S
C724 H728 0.930 . S
C725 C724 1.369 . S
C725 C734 1.429 . S
C726 C724 1.419 . S
C726 C727 1.363 . S
C726 H729 0.929 . S
C727 C726 1.363 . S
C727 C733 1.428 . S
H728 C724 0.930 . S
H729 C726 0.929 . S
S730 N731 1.613 . S
S730 N732 1.610 . S
N731 S730 1.613 . S
N731 C734 1.350 . S
N732 S730 1.610 . S
N732 C733 1.351 . S
C733 C727 1.428 . S
C733 N732 1.351 . S
C733 C734 1.434 . S
C734 C725 1.429 . S
C734 N731 1.350 . S
C734 C733 1.434 . S
C735 C736 1.369 . S
C735 C737 1.419 . S
C735 H739 0.930 . S
C736 C735 1.369 . S
C736 C745 1.429 1_556 S
C737 C735 1.419 . S
C737 C738 1.363 . S
C737 H740 0.929 . S
C738 C737 1.363 . S
C738 C744 1.428 1_556 S
H739 C735 0.930 . S
H740 C737 0.929 . S
S741 N742 1.613 . S
S741 N743 1.610 . S
N742 S741 1.613 . S
N742 C745 1.350 . S
N743 S741 1.610 . S
N743 C744 1.351 . S
C744 C738 1.428 1_554 S
C744 N743 1.351 . S
C744 C745 1.434 . S
C745 C736 1.429 1_554 S
C745 N742 1.350 . S
C745 C744 1.434 . S
C746 C747 1.369 . S
C746 C748 1.419 . S
C746 H750 0.930 . S
C747 C746 1.369 . S
C747 C756 1.429 1_556 S
C748 C746 1.419 . S
C748 C749 1.363 . S
C748 H751 0.929 . S
C749 C748 1.363 . S
C749 C755 1.428 1_556 S
H750 C746 0.930 . S
H751 C748 0.929 . S
S752 N753 1.613 . S
S752 N754 1.610 . S
N753 S752 1.613 . S
N753 C756 1.350 . S
N754 S752 1.610 . S
N754 C755 1.351 . S
C755 C749 1.428 1_554 S
C755 N754 1.351 . S
C755 C756 1.434 . S
C756 C747 1.429 1_554 S
C756 N753 1.350 . S
C756 C755 1.434 . S
C757 C758 1.369 . S
C757 C759 1.419 . S
C757 H761 0.930 . S
C758 C757 1.369 . S
C758 C767 1.429 1_556 S
C759 C757 1.419 . S
C759 C760 1.363 . S
C759 H762 0.929 . S
C760 C759 1.363 . S
C760 C766 1.428 1_556 S
H761 C757 0.930 . S
H762 C759 0.929 . S
S763 N764 1.613 . S
S763 N765 1.610 . S
N764 S763 1.613 . S
N764 C767 1.350 . S
N765 S763 1.610 . S
N765 C766 1.351 . S
C766 C760 1.428 1_554 S
C766 N765 1.351 . S
C766 C767 1.434 . S
C767 C758 1.429 1_554 S
C767 N764 1.350 . S
C767 C766 1.434 . S
C768 C769 1.369 . S
C768 C770 1.419 . S
C768 H772 0.930 . S
C769 C768 1.369 . S
C769 C778 1.429 . S
C770 C768 1.419 . S
C770 C771 1.363 . S
C770 H773 0.929 . S
C771 C770 1.363 . S
C771 C777 1.428 . S
H772 C768 0.930 . S
H773 C770 0.929 . S
S774 N775 1.613 . S
S774 N776 1.610 . S
N775 S774 1.613 . S
N775 C778 1.350 . S
N776 S774 1.610 . S
N776 C777 1.351 . S
C777 C771 1.428 . S
C777 N776 1.351 . S
C777 C778 1.434 . S
C778 C769 1.429 . S
C778 N775 1.350 . S
C778 C777 1.434 . S
C779 C780 1.369 . S
C779 C781 1.419 . S
C779 H783 0.930 . S
C780 C779 1.369 . S
C780 C789 1.429 . S
C781 C779 1.419 . S
C781 C782 1.363 . S
C781 H784 0.929 . S
C782 C781 1.363 . S
C782 C788 1.428 . S
H783 C779 0.930 . S
H784 C781 0.929 . S
S785 N786 1.613 . S
S785 N787 1.610 . S
N786 S785 1.613 . S
N786 C789 1.350 . S
N787 S785 1.610 . S
N787 C788 1.351 . S
C788 C782 1.428 . S
C788 N787 1.351 . S
C788 C789 1.434 . S
C789 C780 1.429 . S
C789 N786 1.350 . S
C789 C788 1.434 . S
C790 C791 1.369 . S
C790 C792 1.419 . S
C790 H794 0.930 . S
C791 C790 1.369 . S
C791 C800 1.429 . S
C792 C790 1.419 . S
C792 C793 1.363 . S
C792 H795 0.929 . S
C793 C792 1.363 . S
C793 C799 1.428 . S
H794 C790 0.930 . S
H795 C792 0.929 . S
S796 N797 1.613 . S
S796 N798 1.610 . S
N797 S796 1.613 . S
N797 C800 1.350 . S
N798 S796 1.610 . S
N798 C799 1.351 . S
C799 C793 1.428 . S
C799 N798 1.351 . S
C799 C800 1.434 . S
C800 C791 1.429 . S
C800 N797 1.350 . S
C800 C799 1.434 . S
C801 C802 1.369 . S
C801 C803 1.419 . S
C801 H805 0.930 . S
C802 C801 1.369 . S
C802 C811 1.429 1_554 S
C803 C801 1.419 . S
C803 C804 1.363 . S
C803 H806 0.929 . S
C804 C803 1.363 . S
C804 C810 1.428 1_554 S
H805 C801 0.930 . S
H806 C803 0.929 . S
S807 N808 1.613 . S
S807 N809 1.610 . S
N808 S807 1.613 . S
N808 C811 1.350 . S
N809 S807 1.610 . S
N809 C810 1.351 . S
C810 C804 1.428 1_556 S
C810 N809 1.351 . S
C810 C811 1.434 . S
C811 C802 1.429 1_556 S
C811 N808 1.350 . S
C811 C810 1.434 . S
C812 C813 1.369 1_556 S
C812 C814 1.419 . S
C812 H816 0.930 . S
C813 C812 1.369 1_554 S
C813 C822 1.429 . S
C814 C812 1.419 . S
C814 C815 1.363 1_556 S
C814 H817 0.929 . S
C815 C814 1.363 1_554 S
C815 C821 1.428 . S
H816 C812 0.930 . S
H817 C814 0.929 . S
S818 N819 1.613 . S
S818 N820 1.610 . S
N819 S818 1.613 . S
N819 C822 1.350 . S
N820 S818 1.610 . S
N820 C821 1.351 . S
C821 C815 1.428 . S
C821 N820 1.351 . S
C821 C822 1.434 . S
C822 C813 1.429 . S
C822 N819 1.350 . S
C822 C821 1.434 . S
C823 C824 1.369 . S
C823 C825 1.419 . S
C823 H827 0.930 . S
C824 C823 1.369 . S
C824 C833 1.429 1_554 S
C825 C823 1.419 . S
C825 C826 1.363 . S
C825 H828 0.929 . S
C826 C825 1.363 . S
C826 C832 1.428 1_554 S
H827 C823 0.930 . S
H828 C825 0.929 . S
S829 N830 1.613 . S
S829 N831 1.610 . S
N830 S829 1.613 . S
N830 C833 1.350 . S
N831 S829 1.610 . S
N831 C832 1.351 . S
C832 C826 1.428 1_556 S
C832 N831 1.351 . S
C832 C833 1.434 . S
C833 C824 1.429 1_556 S
C833 N830 1.350 . S
C833 C832 1.434 . S
C834 C835 1.369 . S
C834 C836 1.419 . S
C834 H838 0.930 . S
C835 C834 1.369 . S
C835 C844 1.429 . S
C836 C834 1.419 . S
C836 C837 1.363 . S
C836 H839 0.929 . S
C837 C836 1.363 . S
C837 C843 1.428 . S
H838 C834 0.930 . S
H839 C836 0.929 . S
S840 N841 1.613 . S
S840 N842 1.610 . S
N841 S840 1.613 . S
N841 C844 1.350 . S
N842 S840 1.610 . S
N842 C843 1.351 . S
C843 C837 1.428 . S
C843 N842 1.351 . S
C843 C844 1.434 . S
C844 C835 1.429 . S
C844 N841 1.350 . S
C844 C843 1.434 . S
C845 C846 1.369 . S
C845 C847 1.419 . S
C845 H849 0.930 . S
C846 C845 1.369 . S
C846 C855 1.429 . S
C847 C845 1.419 . S
C847 C848 1.363 . S
C847 H850 0.929 . S
C848 C847 1.363 . S
C848 C854 1.428 . S
H849 C845 0.930 . S
H850 C847 0.929 . S
S851 N852 1.613 . S
S851 N853 1.610 . S
N852 S851 1.613 . S
N852 C855 1.350 . S
N853 S851 1.610 . S
N853 C854 1.351 . S
C854 C848 1.428 . S
C854 N853 1.351 . S
C854 C855 1.434 . S
C855 C846 1.429 . S
C855 N852 1.350 . S
C855 C854 1.434 . S
C856 C857 1.369 . S
C856 C858 1.419 . S
C856 H860 0.930 . S
C857 C856 1.369 . S
C857 C866 1.429 . S
C858 C856 1.419 . S
C858 C859 1.363 . S
C858 H861 0.929 . S
C859 C858 1.363 . S
C859 C865 1.428 . S
H860 C856 0.930 . S
H861 C858 0.929 . S
S862 N863 1.613 . S
S862 N864 1.610 . S
N863 S862 1.613 . S
N863 C866 1.350 . S
N864 S862 1.610 . S
N864 C865 1.351 . S
C865 C859 1.428 . S
C865 N864 1.351 . S
C865 C866 1.434 . S
C866 C857 1.429 . S
C866 N863 1.350 . S
C866 C865 1.434 . S
C867 C868 1.369 . S
C867 C869 1.419 . S
C867 H871 0.930 . S
C868 C867 1.369 . S
C868 C877 1.429 . S
C869 C867 1.419 . S
C869 C870 1.363 . S
C869 H872 0.929 . S
C870 C869 1.363 . S
C870 C876 1.428 . S
H871 C867 0.930 . S
H872 C869 0.929 . S
S873 N874 1.613 . S
S873 N875 1.610 . S
N874 S873 1.613 . S
N874 C877 1.350 . S
N875 S873 1.610 . S
N875 C876 1.351 . S
C876 C870 1.428 . S
C876 N875 1.351 . S
C876 C877 1.434 . S
C877 C868 1.429 . S
C877 N874 1.350 . S
C877 C876 1.434 . S
C878 C879 1.369 . S
C878 C880 1.419 . S
C878 H882 0.930 . S
C879 C878 1.369 . S
C879 C888 1.429 . S
C880 C878 1.419 . S
C880 C881 1.363 . S
C880 H883 0.929 . S
C881 C880 1.363 . S
C881 C887 1.428 . S
H882 C878 0.930 . S
H883 C880 0.929 . S
S884 N885 1.613 . S
S884 N886 1.610 . S
N885 S884 1.613 . S
N885 C888 1.350 . S
N886 S884 1.610 . S
N886 C887 1.351 . S
C887 C881 1.428 . S
C887 N886 1.351 . S
C887 C888 1.434 . S
C888 C879 1.429 . S
C888 N885 1.350 . S
C888 C887 1.434 . S
C889 C890 1.369 . S
C889 C891 1.419 . S
C889 H893 0.930 . S
C890 C889 1.369 . S
C890 C899 1.429 . S
C891 C889 1.419 . S
C891 C892 1.363 . S
C891 H894 0.929 . S
C892 C891 1.363 . S
C892 C898 1.428 . S
H893 C889 0.930 . S
H894 C891 0.929 . S
S895 N896 1.613 . S
S895 N897 1.610 . S
N896 S895 1.613 . S
N896 C899 1.350 . S
N897 S895 1.610 . S
N897 C898 1.351 . S
C898 C892 1.428 . S
C898 N897 1.351 . S
C898 C899 1.434 . S
C899 C890 1.429 . S
C899 N896 1.350 . S
C899 C898 1.434 . S
C900 C901 1.369 . S
C900 C902 1.419 . S
C900 H904 0.930 . S
C901 C900 1.369 . S
C901 C910 1.429 . S
C902 C900 1.419 . S
C902 C903 1.363 . S
C902 H905 0.929 . S
C903 C902 1.363 . S
C903 C909 1.428 . S
H904 C900 0.930 . S
H905 C902 0.929 . S
S906 N907 1.613 . S
S906 N908 1.610 . S
N907 S906 1.613 . S
N907 C910 1.350 . S
N908 S906 1.610 . S
N908 C909 1.351 . S
C909 C903 1.428 . S
C909 N908 1.351 . S
C909 C910 1.434 . S
C910 C901 1.429 . S
C910 N907 1.350 . S
C910 C909 1.434 . S
C911 C912 1.369 1_545 S
C911 C913 1.419 . S
C911 H915 0.930 . S
C912 C911 1.369 1_565 S
C912 C921 1.429 . S
C913 C911 1.419 . S
C913 C914 1.363 . S
C913 H916 0.929 . S
C914 C913 1.363 . S
C914 C920 1.428 1_545 S
H915 C911 0.930 . S
H916 C913 0.929 . S
S917 N918 1.613 . S
S917 N919 1.610 . S
N918 S917 1.613 . S
N918 C921 1.350 . S
N919 S917 1.610 . S
N919 C920 1.351 . S
C920 C914 1.428 1_565 S
C920 N919 1.351 . S
C920 C921 1.434 . S
C921 C912 1.429 . S
C921 N918 1.350 . S
C921 C920 1.434 . S
C922 C923 1.369 1_455 S
C922 C924 1.419 . S
C922 H926 0.930 . S
C923 C922 1.369 1_655 S
C923 C932 1.429 . S
C924 C922 1.419 . S
C924 C925 1.363 . S
C924 H927 0.929 . S
C925 C924 1.363 . S
C925 C931 1.428 1_455 S
H926 C922 0.930 . S
H927 C924 0.929 . S
S928 N929 1.613 . S
S928 N930 1.610 . S
N929 S928 1.613 . S
N929 C932 1.350 . S
N930 S928 1.610 . S
N930 C931 1.351 . S
C931 C925 1.428 1_655 S
C931 N930 1.351 . S
C931 C932 1.434 . S
C932 C923 1.429 . S
C932 N929 1.350 . S
C932 C931 1.434 . S
C933 C934 1.369 . S
C933 C935 1.419 . S
C933 H937 0.930 . S
C934 C933 1.369 . S
C934 C943 1.429 . S
C935 C933 1.419 . S
C935 C936 1.363 . S
C935 H938 0.929 . S
C936 C935 1.363 . S
C936 C942 1.428 . S
H937 C933 0.930 . S
H938 C935 0.929 . S
S939 N940 1.613 . S
S939 N941 1.610 . S
N940 S939 1.613 . S
N940 C943 1.350 . S
N941 S939 1.610 . S
N941 C942 1.351 . S
C942 C936 1.428 . S
C942 N941 1.351 . S
C942 C943 1.434 . S
C943 C934 1.429 . S
C943 N940 1.350 . S
C943 C942 1.434 . S
C944 C945 1.369 . S
C944 C946 1.419 . S
C944 H948 0.930 . S
C945 C944 1.369 . S
C945 C954 1.429 1_545 S
C946 C944 1.419 . S
C946 C947 1.363 1_545 S
C946 H949 0.929 . S
C947 C946 1.363 1_565 S
C947 C953 1.428 . S
H948 C944 0.930 . S
H949 C946 0.929 . S
S950 N951 1.613 . S
S950 N952 1.610 . S
N951 S950 1.613 . S
N951 C954 1.350 . S
N952 S950 1.610 . S
N952 C953 1.351 . S
C953 C947 1.428 . S
C953 N952 1.351 . S
C953 C954 1.434 . S
C954 C945 1.429 1_565 S
C954 N951 1.350 . S
C954 C953 1.434 . S
C955 C956 1.369 1_655 S
C955 C957 1.419 . S
C955 H959 0.930 . S
C956 C955 1.369 1_455 S
C956 C965 1.429 . S
C957 C955 1.419 . S
C957 C958 1.363 . S
C957 H960 0.929 . S
C958 C957 1.363 . S
C958 C964 1.428 1_655 S
H959 C955 0.930 . S
H960 C957 0.929 . S
S961 N962 1.613 . S
S961 N963 1.610 . S
N962 S961 1.613 . S
N962 C965 1.350 . S
N963 S961 1.610 . S
N963 C964 1.351 . S
C964 C958 1.428 1_455 S
C964 N963 1.351 . S
C964 C965 1.434 . S
C965 C956 1.429 . S
C965 N962 1.350 . S
C965 C964 1.434 . S
C966 C967 1.369 . S
C966 C968 1.419 . S
C966 H970 0.930 . S
C967 C966 1.369 . S
C967 C976 1.429 . S
C968 C966 1.419 . S
C968 C969 1.363 . S
C968 H971 0.929 . S
C969 C968 1.363 . S
C969 C975 1.428 . S
H970 C966 0.930 . S
H971 C968 0.929 . S
S972 N973 1.613 . S
S972 N974 1.610 . S
N973 S972 1.613 . S
N973 C976 1.350 . S
N974 S972 1.610 . S
N974 C975 1.351 . S
C975 C969 1.428 . S
C975 N974 1.351 . S
C975 C976 1.434 . S
C976 C967 1.429 . S
C976 N973 1.350 . S
C976 C975 1.434 . S
C977 C978 1.369 . S
C977 C979 1.419 . S
C977 H981 0.930 . S
C978 C977 1.369 . S
C978 C987 1.429 . S
C979 C977 1.419 . S
C979 C980 1.363 . S
C979 H982 0.929 . S
C980 C979 1.363 . S
C980 C986 1.428 . S
H981 C977 0.930 . S
H982 C979 0.929 . S
S983 N984 1.613 . S
S983 N985 1.610 . S
N984 S983 1.613 . S
N984 C987 1.350 . S
N985 S983 1.610 . S
N985 C986 1.351 . S
C986 C980 1.428 . S
C986 N985 1.351 . S
C986 C987 1.434 . S
C987 C978 1.429 . S
C987 N984 1.350 . S
C987 C986 1.434 . S
C988 C989 1.369 . S
C988 C990 1.419 . S
C988 H992 0.930 . S
C989 C988 1.369 . S
C989 C998 1.429 . S
C990 C988 1.419 . S
C990 C991 1.363 . S
C990 H993 0.929 . S
C991 C990 1.363 . S
C991 C997 1.428 . S
H992 C988 0.930 . S
H993 C990 0.929 . S
S994 N995 1.613 . S
S994 N996 1.610 . S
N995 S994 1.613 . S
N995 C998 1.350 . S
N996 S994 1.610 . S
N996 C997 1.351 . S
C997 C991 1.428 . S
C997 N996 1.351 . S
C997 C998 1.434 . S
C998 C989 1.429 . S
C998 N995 1.350 . S
C998 C997 1.434 . S
C999 C1000 1.369 . S
C999 C1001 1.419 . S
C999 H1003 0.930 . S
C1000 C999 1.369 . S
C1000 C1009 1.429 . S
C1001 C999 1.419 . S
C1001 C1002 1.363 . S
C1001 H1004 0.929 . S
C1002 C1001 1.363 . S
C1002 C1008 1.428 . S
H1003 C999 0.930 . S
H1004 C1001 0.929 . S
S1005 N1006 1.613 . S
S1005 N1007 1.610 . S
N1006 S1005 1.613 . S
N1006 C1009 1.350 . S
N1007 S1005 1.610 . S
N1007 C1008 1.351 . S
C1008 C1002 1.428 . S
C1008 N1007 1.351 . S
C1008 C1009 1.434 . S
C1009 C1000 1.429 . S
C1009 N1006 1.350 . S
C1009 C1008 1.434 . S
C1010 C1011 1.369 . S
C1010 C1012 1.419 . S
C1010 H1014 0.930 . S
C1011 C1010 1.369 . S
C1011 C1020 1.429 . S
C1012 C1010 1.419 . S
C1012 C1013 1.363 . S
C1012 H1015 0.929 . S
C1013 C1012 1.363 . S
C1013 C1019 1.428 . S
H1014 C1010 0.930 . S
H1015 C1012 0.929 . S
S1016 N1017 1.613 . S
S1016 N1018 1.610 . S
N1017 S1016 1.613 . S
N1017 C1020 1.350 . S
N1018 S1016 1.610 . S
N1018 C1019 1.351 . S
C1019 C1013 1.428 . S
C1019 N1018 1.351 . S
C1019 C1020 1.434 . S
C1020 C1011 1.429 . S
C1020 N1017 1.350 . S
C1020 C1019 1.434 . S
C1021 C1022 1.369 . S
C1021 C1023 1.419 . S
C1021 H1025 0.930 . S
C1022 C1021 1.369 . S
C1022 C1031 1.429 . S
C1023 C1021 1.419 . S
C1023 C1024 1.363 . S
C1023 H1026 0.929 . S
C1024 C1023 1.363 . S
C1024 C1030 1.428 . S
H1025 C1021 0.930 . S
H1026 C1023 0.929 . S
S1027 N1028 1.613 . S
S1027 N1029 1.610 . S
N1028 S1027 1.613 . S
N1028 C1031 1.350 . S
N1029 S1027 1.610 . S
N1029 C1030 1.351 . S
C1030 C1024 1.428 . S
C1030 N1029 1.351 . S
C1030 C1031 1.434 . S
C1031 C1022 1.429 . S
C1031 N1028 1.350 . S
C1031 C1030 1.434 . S
C1032 C1033 1.369 . S
C1032 C1034 1.419 . S
C1032 H1036 0.930 . S
C1033 C1032 1.369 . S
C1033 C1042 1.429 . S
C1034 C1032 1.419 . S
C1034 C1035 1.363 . S
C1034 H1037 0.929 . S
C1035 C1034 1.363 . S
C1035 C1041 1.428 . S
H1036 C1032 0.930 . S
H1037 C1034 0.929 . S
S1038 N1039 1.613 . S
S1038 N1040 1.610 . S
N1039 S1038 1.613 . S
N1039 C1042 1.350 . S
N1040 S1038 1.610 . S
N1040 C1041 1.351 . S
C1041 C1035 1.428 . S
C1041 N1040 1.351 . S
C1041 C1042 1.434 . S
C1042 C1033 1.429 . S
C1042 N1039 1.350 . S
C1042 C1041 1.434 . S
C1043 C1044 1.369 . S
C1043 C1045 1.419 . S
C1043 H1047 0.930 . S
C1044 C1043 1.369 . S
C1044 C1053 1.429 . S
C1045 C1043 1.419 . S
C1045 C1046 1.363 . S
C1045 H1048 0.929 . S
C1046 C1045 1.363 . S
C1046 C1052 1.428 . S
H1047 C1043 0.930 . S
H1048 C1045 0.929 . S
S1049 N1050 1.613 . S
S1049 N1051 1.610 . S
N1050 S1049 1.613 . S
N1050 C1053 1.350 . S
N1051 S1049 1.610 . S
N1051 C1052 1.351 . S
C1052 C1046 1.428 . S
C1052 N1051 1.351 . S
C1052 C1053 1.434 . S
C1053 C1044 1.429 . S
C1053 N1050 1.350 . S
C1053 C1052 1.434 . S
C1054 C1055 1.369 . S
C1054 C1056 1.419 . S
C1054 H1058 0.930 . S
C1055 C1054 1.369 . S
C1055 C1064 1.429 . S
C1056 C1054 1.419 . S
C1056 C1057 1.363 . S
C1056 H1059 0.929 . S
C1057 C1056 1.363 . S
C1057 C1063 1.428 . S
H1058 C1054 0.930 . S
H1059 C1056 0.929 . S
S1060 N1061 1.613 . S
S1060 N1062 1.610 . S
N1061 S1060 1.613 . S
N1061 C1064 1.350 . S
N1062 S1060 1.610 . S
N1062 C1063 1.351 . S
C1063 C1057 1.428 . S
C1063 N1062 1.351 . S
C1063 C1064 1.434 . S
C1064 C1055 1.429 . S
C1064 N1061 1.350 . S
C1064 C1063 1.434 . S
C1065 C1066 1.369 . S
C1065 C1067 1.419 . S
C1065 H1069 0.930 . S
C1066 C1065 1.369 . S
C1066 C1075 1.429 . S
C1067 C1065 1.419 . S
C1067 C1068 1.363 . S
C1067 H1070 0.929 . S
C1068 C1067 1.363 . S
C1068 C1074 1.428 . S
H1069 C1065 0.930 . S
H1070 C1067 0.929 . S
S1071 N1072 1.613 . S
S1071 N1073 1.610 . S
N1072 S1071 1.613 . S
N1072 C1075 1.350 . S
N1073 S1071 1.610 . S
N1073 C1074 1.351 . S
C1074 C1068 1.428 . S
C1074 N1073 1.351 . S
C1074 C1075 1.434 . S
C1075 C1066 1.429 . S
C1075 N1072 1.350 . S
C1075 C1074 1.434 . S
C1076 C1077 1.369 . S
C1076 C1078 1.419 . S
C1076 H1080 0.930 . S
C1077 C1076 1.369 . S
C1077 C1086 1.429 . S
C1078 C1076 1.419 . S
C1078 C1079 1.363 . S
C1078 H1081 0.929 . S
C1079 C1078 1.363 . S
C1079 C1085 1.428 . S
H1080 C1076 0.930 . S
H1081 C1078 0.929 . S
S1082 N1083 1.613 . S
S1082 N1084 1.610 . S
N1083 S1082 1.613 . S
N1083 C1086 1.350 . S
N1084 S1082 1.610 . S
N1084 C1085 1.351 . S
C1085 C1079 1.428 . S
C1085 N1084 1.351 . S
C1085 C1086 1.434 . S
C1086 C1077 1.429 . S
C1086 N1083 1.350 . S
C1086 C1085 1.434 . S
C1087 C1088 1.369 . S
C1087 C1089 1.419 . S
C1087 H1091 0.930 . S
C1088 C1087 1.369 . S
C1088 C1097 1.429 . S
C1089 C1087 1.419 . S
C1089 C1090 1.363 . S
C1089 H1092 0.929 . S
C1090 C1089 1.363 . S
C1090 C1096 1.428 . S
H1091 C1087 0.930 . S
H1092 C1089 0.929 . S
S1093 N1094 1.613 . S
S1093 N1095 1.610 . S
N1094 S1093 1.613 . S
N1094 C1097 1.350 . S
N1095 S1093 1.610 . S
N1095 C1096 1.351 . S
C1096 C1090 1.428 . S
C1096 N1095 1.351 . S
C1096 C1097 1.434 . S
C1097 C1088 1.429 . S
C1097 N1094 1.350 . S
C1097 C1096 1.434 . S
C1098 C1099 1.369 . S
C1098 C1100 1.419 . S
C1098 H1102 0.930 . S
C1099 C1098 1.369 . S
C1099 C1108 1.429 . S
C1100 C1098 1.419 . S
C1100 C1101 1.363 . S
C1100 H1103 0.929 . S
C1101 C1100 1.363 . S
C1101 C1107 1.428 . S
H1102 C1098 0.930 . S
H1103 C1100 0.929 . S
S1104 N1105 1.613 . S
S1104 N1106 1.610 . S
N1105 S1104 1.613 . S
N1105 C1108 1.350 . S
N1106 S1104 1.610 . S
N1106 C1107 1.351 . S
C1107 C1101 1.428 . S
C1107 N1106 1.351 . S
C1107 C1108 1.434 . S
C1108 C1099 1.429 . S
C1108 N1105 1.350 . S
C1108 C1107 1.434 . S
C1109 C1110 1.369 . S
C1109 C1111 1.419 . S
C1109 H1113 0.930 . S
C1110 C1109 1.369 . S
C1110 C1119 1.429 . S
C1111 C1109 1.419 . S
C1111 C1112 1.363 . S
C1111 H1114 0.929 . S
C1112 C1111 1.363 . S
C1112 C1118 1.428 . S
H1113 C1109 0.930 . S
H1114 C1111 0.929 . S
S1115 N1116 1.613 . S
S1115 N1117 1.610 . S
N1116 S1115 1.613 . S
N1116 C1119 1.350 . S
N1117 S1115 1.610 . S
N1117 C1118 1.351 . S
C1118 C1112 1.428 . S
C1118 N1117 1.351 . S
C1118 C1119 1.434 . S
C1119 C1110 1.429 . S
C1119 N1116 1.350 . S
C1119 C1118 1.434 . S
C1120 C1121 1.369 . S
C1120 C1122 1.419 . S
C1120 H1124 0.930 . S
C1121 C1120 1.369 . S
C1121 C1130 1.429 . S
C1122 C1120 1.419 . S
C1122 C1123 1.363 . S
C1122 H1125 0.929 . S
C1123 C1122 1.363 . S
C1123 C1129 1.428 . S
H1124 C1120 0.930 . S
H1125 C1122 0.929 . S
S1126 N1127 1.613 . S
S1126 N1128 1.610 . S
N1127 S1126 1.613 . S
N1127 C1130 1.350 . S
N1128 S1126 1.610 . S
N1128 C1129 1.351 . S
C1129 C1123 1.428 . S
C1129 N1128 1.351 . S
C1129 C1130 1.434 . S
C1130 C1121 1.429 . S
C1130 N1127 1.350 . S
C1130 C1129 1.434 . S
C1131 C1132 1.369 . S
C1131 C1133 1.419 . S
C1131 H1135 0.930 . S
C1132 C1131 1.369 . S
C1132 C1141 1.429 . S
C1133 C1131 1.419 . S
C1133 C1134 1.363 . S
C1133 H1136 0.929 . S
C1134 C1133 1.363 . S
C1134 C1140 1.428 . S
H1135 C1131 0.930 . S
H1136 C1133 0.929 . S
S1137 N1138 1.613 . S
S1137 N1139 1.610 . S
N1138 S1137 1.613 . S
N1138 C1141 1.350 . S
N1139 S1137 1.610 . S
N1139 C1140 1.351 . S
C1140 C1134 1.428 . S
C1140 N1139 1.351 . S
C1140 C1141 1.434 . S
C1141 C1132 1.429 . S
C1141 N1138 1.350 . S
C1141 C1140 1.434 . S
C1142 C1143 1.369 . S
C1142 C1144 1.419 . S
C1142 H1146 0.930 . S
C1143 C1142 1.369 . S
C1143 C1152 1.429 . S
C1144 C1142 1.419 . S
C1144 C1145 1.363 . S
C1144 H1147 0.929 . S
C1145 C1144 1.363 . S
C1145 C1151 1.428 . S
H1146 C1142 0.930 . S
H1147 C1144 0.929 . S
S1148 N1149 1.613 . S
S1148 N1150 1.610 . S
N1149 S1148 1.613 . S
N1149 C1152 1.350 . S
N1150 S1148 1.610 . S
N1150 C1151 1.351 . S
C1151 C1145 1.428 . S
C1151 N1150 1.351 . S
C1151 C1152 1.434 . S
C1152 C1143 1.429 . S
C1152 N1149 1.350 . S
C1152 C1151 1.434 . S
C1153 C1154 1.369 . S
C1153 C1155 1.419 . S
C1153 H1157 0.930 . S
C1154 C1153 1.369 . S
C1154 C1163 1.429 . S
C1155 C1153 1.419 . S
C1155 C1156 1.363 . S
C1155 H1158 0.929 . S
C1156 C1155 1.363 . S
C1156 C1162 1.428 . S
H1157 C1153 0.930 . S
H1158 C1155 0.929 . S
S1159 N1160 1.613 . S
S1159 N1161 1.610 . S
N1160 S1159 1.613 . S
N1160 C1163 1.350 . S
N1161 S1159 1.610 . S
N1161 C1162 1.351 . S
C1162 C1156 1.428 . S
C1162 N1161 1.351 . S
C1162 C1163 1.434 . S
C1163 C1154 1.429 . S
C1163 N1160 1.350 . S
C1163 C1162 1.434 . S
C1164 C1165 1.369 . S
C1164 C1166 1.419 . S
C1164 H1168 0.930 . S
C1165 C1164 1.369 . S
C1165 C1174 1.429 . S
C1166 C1164 1.419 . S
C1166 C1167 1.363 . S
C1166 H1169 0.929 . S
C1167 C1166 1.363 . S
C1167 C1173 1.428 . S
H1168 C1164 0.930 . S
H1169 C1166 0.929 . S
S1170 N1171 1.613 . S
S1170 N1172 1.610 . S
N1171 S1170 1.613 . S
N1171 C1174 1.350 . S
N1172 S1170 1.610 . S
N1172 C1173 1.351 . S
C1173 C1167 1.428 . S
C1173 N1172 1.351 . S
C1173 C1174 1.434 . S
C1174 C1165 1.429 . S
C1174 N1171 1.350 . S
C1174 C1173 1.434 . S
C1175 C1176 1.369 . S
C1175 C1177 1.419 . S
C1175 H1179 0.930 . S
C1176 C1175 1.369 . S
C1176 C1185 1.429 . S
C1177 C1175 1.419 . S
C1177 C1178 1.363 . S
C1177 H1180 0.929 . S
C1178 C1177 1.363 . S
C1178 C1184 1.428 . S
H1179 C1175 0.930 . S
H1180 C1177 0.929 . S
S1181 N1182 1.613 . S
S1181 N1183 1.610 . S
N1182 S1181 1.613 . S
N1182 C1185 1.350 . S
N1183 S1181 1.610 . S
N1183 C1184 1.351 . S
C1184 C1178 1.428 . S
C1184 N1183 1.351 . S
C1184 C1185 1.434 . S
C1185 C1176 1.429 . S
C1185 N1182 1.350 . S
C1185 C1184 1.434 . S
C1186 C1187 1.369 . S
C1186 C1188 1.419 . S
C1186 H1190 0.930 . S
C1187 C1186 1.369 . S
C1187 C1196 1.429 . S
C1188 C1186 1.419 . S
C1188 C1189 1.363 . S
C1188 H1191 0.929 . S
C1189 C1188 1.363 . S
C1189 C1195 1.428 . S
H1190 C1186 0.930 . S
H1191 C1188 0.929 . S
S1192 N1193 1.613 . S
S1192 N1194 1.610 . S
N1193 S1192 1.613 . S
N1193 C1196 1.350 . S
N1194 S1192 1.610 . S
N1194 C1195 1.351 . S
C1195 C1189 1.428 . S
C1195 N1194 1.351 . S
C1195 C1196 1.434 . S
C1196 C1187 1.429 . S
C1196 N1193 1.350 . S
C1196 C1195 1.434 . S
C1197 C1198 1.369 . S
C1197 C1199 1.419 . S
C1197 H1201 0.930 . S
C1198 C1197 1.369 . S
C1198 C1207 1.429 . S
C1199 C1197 1.419 . S
C1199 C1200 1.363 . S
C1199 H1202 0.929 . S
C1200 C1199 1.363 . S
C1200 C1206 1.428 . S
H1201 C1197 0.930 . S
H1202 C1199 0.929 . S
S1203 N1204 1.613 . S
S1203 N1205 1.610 . S
N1204 S1203 1.613 . S
N1204 C1207 1.350 . S
N1205 S1203 1.610 . S
N1205 C1206 1.351 . S
C1206 C1200 1.428 . S
C1206 N1205 1.351 . S
C1206 C1207 1.434 . S
C1207 C1198 1.429 . S
C1207 N1204 1.350 . S
C1207 C1206 1.434 . S
C1208 C1209 1.369 . S
C1208 C1210 1.419 . S
C1208 H1212 0.930 . S
C1209 C1208 1.369 . S
C1209 C1218 1.429 . S
C1210 C1208 1.419 . S
C1210 C1211 1.363 . S
C1210 H1213 0.929 . S
C1211 C1210 1.363 . S
C1211 C1217 1.428 . S
H1212 C1208 0.930 . S
H1213 C1210 0.929 . S
S1214 N1215 1.613 . S
S1214 N1216 1.610 . S
N1215 S1214 1.613 . S
N1215 C1218 1.350 . S
N1216 S1214 1.610 . S
N1216 C1217 1.351 . S
C1217 C1211 1.428 . S
C1217 N1216 1.351 . S
C1217 C1218 1.434 . S
C1218 C1209 1.429 . S
C1218 N1215 1.350 . S
C1218 C1217 1.434 . S
C1219 C1220 1.369 . S
C1219 C1221 1.419 . S
C1219 H1223 0.930 . S
C1220 C1219 1.369 . S
C1220 C1229 1.429 . S
C1221 C1219 1.419 . S
C1221 C1222 1.363 . S
C1221 H1224 0.929 . S
C1222 C1221 1.363 . S
C1222 C1228 1.428 . S
H1223 C1219 0.930 . S
H1224 C1221 0.929 . S
S1225 N1226 1.613 . S
S1225 N1227 1.610 . S
N1226 S1225 1.613 . S
N1226 C1229 1.350 . S
N1227 S1225 1.610 . S
N1227 C1228 1.351 . S
C1228 C1222 1.428 . S
C1228 N1227 1.351 . S
C1228 C1229 1.434 . S
C1229 C1220 1.429 . S
C1229 N1226 1.350 . S
C1229 C1228 1.434 . S
C1230 C1231 1.369 1_655 S
C1230 C1232 1.419 . S
C1230 H1234 0.930 . S
C1231 C1230 1.369 1_455 S
C1231 C1240 1.429 . S
C1232 C1230 1.419 . S
C1232 C1233 1.363 . S
C1232 H1235 0.929 . S
C1233 C1232 1.363 . S
C1233 C1239 1.428 1_655 S
H1234 C1230 0.930 . S
H1235 C1232 0.929 . S
S1236 N1237 1.613 . S
S1236 N1238 1.610 . S
N1237 S1236 1.613 . S
N1237 C1240 1.350 . S
N1238 S1236 1.610 . S
N1238 C1239 1.351 . S
C1239 C1233 1.428 1_455 S
C1239 N1238 1.351 . S
C1239 C1240 1.434 . S
C1240 C1231 1.429 . S
C1240 N1237 1.350 . S
C1240 C1239 1.434 . S
C1241 C1242 1.369 . S
C1241 C1243 1.419 . S
C1241 H1245 0.930 . S
C1242 C1241 1.369 . S
C1242 C1251 1.429 . S
C1243 C1241 1.419 . S
C1243 C1244 1.363 . S
C1243 H1246 0.929 . S
C1244 C1243 1.363 . S
C1244 C1250 1.428 . S
H1245 C1241 0.930 . S
H1246 C1243 0.929 . S
S1247 N1248 1.613 . S
S1247 N1249 1.610 . S
N1248 S1247 1.613 . S
N1248 C1251 1.350 . S
N1249 S1247 1.610 . S
N1249 C1250 1.351 . S
C1250 C1244 1.428 . S
C1250 N1249 1.351 . S
C1250 C1251 1.434 . S
C1251 C1242 1.429 . S
C1251 N1248 1.350 . S
C1251 C1250 1.434 . S
C1252 C1253 1.369 . S
C1252 C1254 1.419 1_545 S
C1252 H1256 0.930 . S
C1253 C1252 1.369 . S
C1253 C1262 1.429 . S
C1254 C1252 1.419 1_565 S
C1254 C1255 1.363 . S
C1254 H1257 0.929 . S
C1255 C1254 1.363 . S
C1255 C1261 1.428 . S
H1256 C1252 0.930 . S
H1257 C1254 0.929 . S
S1258 N1259 1.613 1_565 S
S1258 N1260 1.610 . S
N1259 S1258 1.613 1_545 S
N1259 C1262 1.350 . S
N1260 S1258 1.610 . S
N1260 C1261 1.351 . S
C1261 C1255 1.428 . S
C1261 N1260 1.351 . S
C1261 C1262 1.434 1_565 S
C1262 C1253 1.429 . S
C1262 N1259 1.350 . S
C1262 C1261 1.434 1_545 S
C1263 C1264 1.369 . S
C1263 C1265 1.419 . S
C1263 H1267 0.930 . S
C1264 C1263 1.369 . S
C1264 C1273 1.429 1_546 S
C1265 C1263 1.419 . S
C1265 C1266 1.363 1_546 S
C1265 H1268 0.929 . S
C1266 C1265 1.363 1_564 S
C1266 C1272 1.428 . S
H1267 C1263 0.930 . S
H1268 C1265 0.929 . S
S1269 N1270 1.613 . S
S1269 N1271 1.610 . S
N1270 S1269 1.613 . S
N1270 C1273 1.350 . S
N1271 S1269 1.610 . S
N1271 C1272 1.351 . S
C1272 C1266 1.428 . S
C1272 N1271 1.351 . S
C1272 C1273 1.434 . S
C1273 C1264 1.429 1_564 S
C1273 N1270 1.350 . S
C1273 C1272 1.434 . S
C1274 C1275 1.369 . S
C1274 C1276 1.419 1_655 S
C1274 H1278 0.930 . S
C1275 C1274 1.369 . S
C1275 C1284 1.429 1_656 S
C1276 C1274 1.419 1_455 S
C1276 C1277 1.363 1_556 S
C1276 H1279 0.921 1_455 S
C1277 C1276 1.363 1_554 S
C1277 C1283 1.428 . S
H1278 C1274 0.930 . S
H1279 C1276 0.921 1_655 S
S1280 N1281 1.613 . S
S1280 N1282 1.610 . S
N1281 S1280 1.613 . S
N1281 C1284 1.350 . S
N1282 S1280 1.610 . S
N1282 C1283 1.351 . S
C1283 C1277 1.428 . S
C1283 N1282 1.351 . S
C1283 C1284 1.434 . S
C1284 C1275 1.429 1_454 S
C1284 N1281 1.350 . S
C1284 C1283 1.434 . S
C1285 C1286 1.369 1_556 S
C1285 C1287 1.419 . S
C1285 H1289 0.930 . S
C1286 C1285 1.369 1_554 S
C1286 C1295 1.429 . S
C1287 C1285 1.419 . S
C1287 C1288 1.363 . S
C1287 H1290 0.929 . S
C1288 C1287 1.363 . S
C1288 C1294 1.428 1_556 S
H1289 C1285 0.930 . S
H1290 C1287 0.929 . S
S1291 N1292 1.613 . S
S1291 N1293 1.610 . S
N1292 S1291 1.613 . S
N1292 C1295 1.350 . S
N1293 S1291 1.610 . S
N1293 C1294 1.351 . S
C1294 C1288 1.428 1_554 S
C1294 N1293 1.351 . S
C1294 C1295 1.434 . S
C1295 C1286 1.429 . S
C1295 N1292 1.350 . S
C1295 C1294 1.434 . S
C505 C9 1.271 . S
C507 C21 1.443 . S
C516 C23 1.269 . S
C518 C35 1.442 . S
C527 C7 1.447 . S
C529 C37 1.278 . S
C538 C51 1.273 . S
C540 C77 1.443 . S
C549 C65 1.281 . S
C551 C49 1.448 . S
C560 C63 1.441 . S
C562 C79 1.270 . S
C571 C93 1.275 . S
C573 C101 1.508 . S
C582 C115 1.508 . S
C584 C107 1.258 . S
C593 C87 1.507 . S
C595 C121 1.273 . S
C604 C157 1.507 . S
C606 C135 1.265 . S
C615 C149 1.256 . S
C617 C129 1.509 . S
C626 C163 1.270 . S
C628 C143 1.509 . S
C637 C189 1.447 . S
C639 C177 1.273 . S
C648 C191 1.269 . S
C650 C203 1.445 . S
C659 C205 1.264 . S
C661 C175 1.442 . S
C670 C219 1.277 . S
C672 C245 1.445 . S
C681 C233 1.263 . S
C683 C217 1.442 . S
C692 C247 1.281 . S
C694 C231 1.447 . S
C703 C269 1.509 . S
C705 C261 1.259 . S
C714 C275 1.273 . S
C716 C283 1.508 . S
C725 C255 1.509 . S
C727 C289 1.271 . S
C736 C325 1.509 . S
C738 C303 1.260 1_556 S
C747 C317 1.263 1_556 S
C749 C297 1.510 . S
C758 C311 1.510 . S
C760 C331 1.263 1_556 S
C769 C357 1.446 . S
C771 C345 1.271 . S
C780 C359 1.266 . S
C782 C371 1.443 . S
C791 C373 1.281 . S
C793 C343 1.447 . S
C802 C413 1.442 1_554 S
C804 C387 1.270 1_554 S
C813 C401 1.273 1_554 S
C815 C385 1.446 1_554 S
C824 C399 1.445 1_554 S
C826 C415 1.276 1_554 S
C835 C429 1.257 . S
C837 C437 1.509 . S
C846 C443 1.259 . S
C848 C451 1.508 . S
C857 C457 1.274 . S
C859 C423 1.508 . S
C868 C493 1.509 . S
C870 C471 1.269 . S
C879 C465 1.509 . S
C881 C485 1.267 . S
C890 C499 1.256 . S
C892 C479 1.508 . S
C901 C45 1.724 . S
C903 C3 1.722 . S
C912 C17 1.724 . S
C914 C59 1.722 . S
C923 C73 1.725 . S
C925 C31 1.722 . S
C934 C133 1.632 . S
C936 C91 1.632 . S
C945 C105 1.632 . S
C947 C147 1.635 . S
C956 C161 1.632 . S
C958 C119 1.632 . S
C967 C171 1.726 . S
C969 C213 1.724 . S
C978 C185 1.722 . S
C980 C227 1.726 . S
C989 C199 1.723 . S
C991 C241 1.726 . S
C1000 C301 1.631 . S
C1002 C259 1.632 . S
C1011 C315 1.641 . S
C1013 C273 1.640 . S
C1022 C287 1.631 . S
C1024 C329 1.632 . S
C1033 C381 1.725 . S
C1035 C339 1.726 . S
C1044 C395 1.726 . S
C1046 C353 1.722 . S
C1055 C367 1.723 . S
C1057 C409 1.726 . S
C1066 C427 1.631 . S
C1068 C469 1.633 . S
C1077 C483 1.641 . S
C1079 C441 1.640 . S
C1088 C455 1.639 . S
C1090 C497 1.640 . S
C1099 C8 1.784 . S
C1101 C260 1.759 . S
C1110 C22 1.780 . S
C1112 C274 1.762 . S
C1121 C36 1.776 . S
C1123 C288 1.765 . S
C1132 C470 1.766 . S
C1134 C50 1.777 . S
C1143 C484 1.766 . S
C1145 C64 1.777 . S
C1154 C78 1.784 . S
C1156 C498 1.760 . S
C1165 C92 1.765 . S
C1167 C344 1.778 . S
C1176 C358 1.784 . S
C1178 C106 1.758 . S
C1187 C372 1.785 . S
C1189 C120 1.758 . S
C1198 C218 1.784 . S
C1200 C134 1.760 . S
C1209 C232 1.774 . S
C1211 C148 1.767 . S
C1220 C246 1.785 . S
C1222 C162 1.760 . S
C1231 C428 1.758 . S
C1233 C176 1.783 . S
C1242 C190 1.784 . S
C1244 C442 1.758 . S
C1253 C204 1.781 . S
C1255 C456 1.762 . S
C1264 C302 1.764 . S
C1266 C386 1.779 . S
C1275 C316 1.761 . S
C1277 C400 1.781 . S
C1286 C414 1.785 . S
C1288 C330 1.759 . S
