# Generated by pormake.
# Topology ukh, (4)-cn, num edge types: 1
# Building blocks:
#     Node 0, Type 0, BuildingBlock: QUQFOY_clean_sbu_1, # of connection points: 4
#     Node 1, Type 0, BuildingBlock: QUQFOY_clean_sbu_1, # of connection points: 4
#     Node 2, Type 0, BuildingBlock: QUQFOY_clean_sbu_1, # of connection points: 4
#     Node 3, Type 0, BuildingBlock: QUQFOY_clean_sbu_1, # of connection points: 4
#     Node 4, Type 0, BuildingBlock: QUQFOY_clean_sbu_1, # of connection points: 4
#     Node 5, Type 0, BuildingBlock: QUQFOY_clean_sbu_1, # of connection points: 4
#     Node 6, Type 0, BuildingBlock: QUQFOY_clean_sbu_1, # of connection points: 4
#     Node 7, Type 0, BuildingBlock: QUQFOY_clean_sbu_1, # of connection points: 4
#     Node 8, Type 0, BuildingBlock: QUQFOY_clean_sbu_1, # of connection points: 4
#     Node 9, Type 0, BuildingBlock: QUQFOY_clean_sbu_1, # of connection points: 4
#     Node 10, Type 0, BuildingBlock: QUQFOY_clean_sbu_1, # of connection points: 4
#     Node 11, Type 0, BuildingBlock: QUQFOY_clean_sbu_1, # of connection points: 4
#     Edge 12, Type (0, 0), BuildingBlock: UVAHIK_clean_linker_0, # of connection points: 2
#     Edge 13, Type (0, 0), BuildingBlock: UVAHIK_clean_linker_0, # of connection points: 2
#     Edge 14, Type (0, 0), BuildingBlock: UVAHIK_clean_linker_0, # of connection points: 2
#     Edge 15, Type (0, 0), BuildingBlock: UVAHIK_clean_linker_0, # of connection points: 2
#     Edge 16, Type (0, 0), BuildingBlock: UVAHIK_clean_linker_0, # of connection points: 2
#     Edge 17, Type (0, 0), BuildingBlock: UVAHIK_clean_linker_0, # of connection points: 2
#     Edge 18, Type (0, 0), BuildingBlock: UVAHIK_clean_linker_0, # of connection points: 2
#     Edge 19, Type (0, 0), BuildingBlock: UVAHIK_clean_linker_0, # of connection points: 2
#     Edge 20, Type (0, 0), BuildingBlock: UVAHIK_clean_linker_0, # of connection points: 2
#     Edge 21, Type (0, 0), BuildingBlock: UVAHIK_clean_linker_0, # of connection points: 2
#     Edge 22, Type (0, 0), BuildingBlock: UVAHIK_clean_linker_0, # of connection points: 2
#     Edge 23, Type (0, 0), BuildingBlock: UVAHIK_clean_linker_0, # of connection points: 2
#     Edge 24, Type (0, 0), BuildingBlock: UVAHIK_clean_linker_0, # of connection points: 2
#     Edge 25, Type (0, 0), BuildingBlock: UVAHIK_clean_linker_0, # of connection points: 2
#     Edge 26, Type (0, 0), BuildingBlock: UVAHIK_clean_linker_0, # of connection points: 2
#     Edge 27, Type (0, 0), BuildingBlock: UVAHIK_clean_linker_0, # of connection points: 2
#     Edge 28, Type (0, 0), BuildingBlock: UVAHIK_clean_linker_0, # of connection points: 2
#     Edge 29, Type (0, 0), BuildingBlock: UVAHIK_clean_linker_0, # of connection points: 2
#     Edge 30, Type (0, 0), BuildingBlock: UVAHIK_clean_linker_0, # of connection points: 2
#     Edge 31, Type (0, 0), BuildingBlock: UVAHIK_clean_linker_0, # of connection points: 2
#     Edge 32, Type (0, 0), BuildingBlock: UVAHIK_clean_linker_0, # of connection points: 2
#     Edge 33, Type (0, 0), BuildingBlock: UVAHIK_clean_linker_0, # of connection points: 2
#     Edge 34, Type (0, 0), BuildingBlock: UVAHIK_clean_linker_0, # of connection points: 2
#     Edge 35, Type (0, 0), BuildingBlock: UVAHIK_clean_linker_0, # of connection points: 2
# Relax obj value: 0.056
# Max RMSD: 0.078
# Mean RMSD: 0.078
data_MOF--net-ukh--node1-QUQFOY_clean_sbu_1--edge1-UVAHIK_clean_linker_0
_symmetry_space_group_name_H-M    P1
_symmetry_Int_Tables_number       1
_symmetry_cell_setting            triclinic
loop_
_symmetry_equiv_pos_as_xyz
'x, y, z'
_cell_length_a     42.690741
_cell_length_b     42.737516
_cell_length_c     84.737789
_cell_angle_alpha  90.000194
_cell_angle_beta   90.00138
_cell_angle_gamma 120.00748
loop_
_atom_site_label
_atom_site_type_symbol
_atom_site_fract_x
_atom_site_fract_y
_atom_site_fract_z
_atom_type_partial_charge
O0 O 0.3222 0.17763 0.04984 0.0
Cd1 Cd 0.31701 0.21788 0.06093 0.0
Cd2 Cd 0.35877 0.25489 0.03612 0.0
O3 O 0.36294 0.20943 0.03169 0.0
O4 O 0.29218 0.19394 0.08097 0.0
O5 O 0.34764 0.24076 0.08036 0.0
C6 C 0.32108 0.2162 0.08846 0.0
C7 C 0.4067 0.31371 0.03965 0.0
C8 C 0.34284 0.17949 0.03861 0.0
C9 C 0.28436 0.24446 0.0368 0.0
O10 O 0.31191 0.25219 0.02839 0.0
O11 O 0.28238 0.23331 0.05089 0.0
O12 O 0.39883 0.29865 0.0259 0.0
O13 O 0.3888 0.29429 0.05166 0.0
O14 O 0.14539 0.31128 0.38221 0.0
Cd15 Cd 0.10363 0.31139 0.39448 0.0
Cd16 Cd 0.11069 0.35402 0.37026 0.0
O17 O 0.15985 0.35673 0.36596 0.0
O18 O 0.10265 0.28619 0.4144 0.0
O19 O 0.11656 0.34335 0.41381 0.0
C20 C 0.11296 0.31605 0.42183 0.0
C21 C 0.10048 0.40231 0.37384 0.0
C22 C 0.16618 0.3329 0.37168 0.0
C23 C 0.04372 0.28195 0.37117 0.0
O24 O 0.06556 0.30793 0.36244 0.0
O25 O 0.05193 0.2803 0.38545 0.0
O26 O 0.1079 0.39461 0.3601 0.0
O27 O 0.10183 0.3843 0.38584 0.0
O28 O 0.84328 0.1444 0.71501 0.0
Cd29 Cd 0.80293 0.10101 0.72708 0.0
Cd30 Cd 0.76577 0.10735 0.70283 0.0
O31 O 0.81147 0.15706 0.69842 0.0
O32 O 0.83005 0.10128 0.74624 0.0
O33 O 0.78345 0.11018 0.74731 0.0
C34 C 0.80935 0.10873 0.75452 0.0
C35 C 0.70708 0.09676 0.70662 0.0
C36 C 0.84182 0.16464 0.70439 0.0
C37 C 0.77358 0.04168 0.70334 0.0
O38 O 0.76757 0.06269 0.69491 0.0
O39 O 0.78445 0.05019 0.7175 0.0
O40 O 0.72197 0.10411 0.69284 0.0
O41 O 0.72664 0.09803 0.71854 0.0
O42 O 0.69657 0.83931 0.04938 0.0
Cd43 Cd 0.70494 0.80193 0.06129 0.0
Cd44 Cd 0.66398 0.76212 0.0363 0.0
O45 O 0.65768 0.80595 0.03092 0.0
O46 O 0.72904 0.83002 0.08068 0.0
O47 O 0.67633 0.77947 0.08126 0.0
C48 C 0.70152 0.80692 0.0887 0.0
C49 C 0.61748 0.70239 0.03944 0.0
C50 C 0.67621 0.83621 0.03784 0.0
C51 C 0.74018 0.77652 0.03796 0.0
O52 O 0.71228 0.76679 0.02948 0.0
O53 O 0.74173 0.78867 0.05183 0.0
O54 O 0.62616 0.71745 0.0257 0.0
O55 O 0.63359 0.72223 0.05162 0.0
O56 O 0.87936 0.70507 0.38315 0.0
Cd57 Cd 0.9216 0.70453 0.39477 0.0
Cd58 Cd 0.91316 0.66176 0.37056 0.0
O59 O 0.864 0.65953 0.36685 0.0
O60 O 0.92392 0.72897 0.41511 0.0
O61 O 0.90954 0.6717 0.41373 0.0
C62 C 0.91394 0.69876 0.42218 0.0
C63 C 0.92254 0.61295 0.37422 0.0
C64 C 0.85801 0.68342 0.37277 0.0
C65 C 0.98055 0.73342 0.37096 0.0
O66 O 0.95832 0.70738 0.36236 0.0
O67 O 0.97284 0.73536 0.38528 0.0
O68 O 0.9147 0.62038 0.36051 0.0
O69 O 0.92224 0.63167 0.38616 0.0
O70 O 0.17885 0.86305 0.71597 0.0
Cd71 Cd 0.21423 0.90806 0.72873 0.0
Cd72 Cd 0.25898 0.90998 0.70462 0.0
O73 O 0.21448 0.86155 0.69745 0.0
O74 O 0.1851 0.90207 0.74803 0.0
O75 O 0.23661 0.9017 0.74866 0.0
C76 C 0.20862 0.89832 0.75605 0.0
C77 C 0.3181 0.92066 0.70723 0.0
C78 C 0.1835 0.84813 0.70393 0.0
C79 C 0.2443 0.97199 0.70699 0.0
O80 O 0.25768 0.95613 0.69916 0.0
O81 O 0.22698 0.9582 0.7197 0.0
O82 O 0.3032 0.91671 0.69358 0.0
O83 O 0.29833 0.91571 0.71958 0.0
O84 O 0.84337 0.70074 0.62223 0.0
Cd85 Cd 0.80318 0.70417 0.61012 0.0
Cd86 Cd 0.76465 0.66096 0.63413 0.0
O87 O 0.81028 0.65722 0.63906 0.0
O88 O 0.82837 0.72914 0.59032 0.0
O89 O 0.7826 0.67309 0.59063 0.0
C90 C 0.80742 0.69989 0.58273 0.0
C91 C 0.70574 0.61299 0.63064 0.0
C92 C 0.84096 0.67913 0.63309 0.0
C93 C 0.77339 0.73476 0.63343 0.0
O94 O 0.7663 0.70737 0.64181 0.0
O95 O 0.78523 0.73733 0.61944 0.0
O96 O 0.72081 0.62103 0.64439 0.0
O97 O 0.7253 0.63051 0.6186 0.0
O98 O 0.15483 0.83996 0.95904 0.0
Cd99 Cd 0.10981 0.80284 0.94663 0.0
Cd100 Cd 0.11059 0.76094 0.97059 0.0
O101 O 0.16038 0.80475 0.97649 0.0
O102 O 0.11395 0.83087 0.92719 0.0
O103 O 0.11666 0.78062 0.92677 0.0
C104 C 0.11863 0.80785 0.91925 0.0
C105 C 0.09876 0.7017 0.96717 0.0
C106 C 0.17192 0.83581 0.97038 0.0
C107 C 0.04849 0.77507 0.9696 0.0
O108 O 0.06642 0.76443 0.97771 0.0
O109 O 0.05948 0.7887 0.95597 0.0
O110 O 0.10461 0.71639 0.98096 0.0
O111 O 0.10195 0.72159 0.95509 0.0
O112 O 0.31355 0.14011 0.28839 0.0
Cd113 Cd 0.31365 0.09827 0.27625 0.0
Cd114 Cd 0.3577 0.10656 0.30001 0.0
O115 O 0.36004 0.15557 0.30416 0.0
O116 O 0.28859 0.09689 0.25622 0.0
O117 O 0.34592 0.11112 0.25704 0.0
C118 C 0.31866 0.10735 0.24891 0.0
C119 C 0.40633 0.09676 0.29647 0.0
C120 C 0.33568 0.1614 0.29865 0.0
C121 C 0.28566 0.03919 0.29985 0.0
O122 O 0.31217 0.06142 0.30823 0.0
O123 O 0.283 0.04685 0.28559 0.0
O124 O 0.39881 0.10461 0.31016 0.0
O125 O 0.38798 0.09751 0.28447 0.0
O126 O 0.17965 0.31239 0.6214 0.0
Cd127 Cd 0.22037 0.30907 0.60991 0.0
Cd128 Cd 0.2581 0.35272 0.63384 0.0
O129 O 0.21191 0.35615 0.63824 0.0
O130 O 0.19697 0.28483 0.5897 0.0
O131 O 0.24298 0.34071 0.59074 0.0
C132 C 0.21889 0.31423 0.58244 0.0
C133 C 0.31671 0.40123 0.63029 0.0
C134 C 0.18146 0.33399 0.63214 0.0
C135 C 0.24893 0.27851 0.63378 0.0
O136 O 0.25706 0.30666 0.64182 0.0
O137 O 0.23654 0.27526 0.61986 0.0
O138 O 0.30153 0.39339 0.64401 0.0
O139 O 0.29744 0.38309 0.61829 0.0
O140 O 0.86637 0.17489 0.95823 0.0
Cd141 Cd 0.91135 0.21151 0.94564 0.0
Cd142 Cd 0.91078 0.25365 0.96994 0.0
O143 O 0.86079 0.20999 0.97573 0.0
O144 O 0.9074 0.18141 0.92699 0.0
O145 O 0.90423 0.23122 0.92501 0.0
C146 C 0.90252 0.20328 0.91829 0.0
C147 C 0.92344 0.31321 0.96676 0.0
C148 C 0.84922 0.17899 0.96955 0.0
C149 C 0.97297 0.23975 0.96858 0.0
O150 O 0.95489 0.24986 0.97689 0.0
O151 O 0.9619 0.2264 0.95492 0.0
O152 O 0.91734 0.29823 0.9805 0.0
O153 O 0.9198 0.29339 0.95459 0.0
O154 O 0.70625 0.87167 0.29035 0.0
Cd155 Cd 0.70856 0.91438 0.27801 0.0
Cd156 Cd 0.66465 0.90805 0.30183 0.0
O157 O 0.66142 0.8589 0.30675 0.0
O158 O 0.73289 0.91272 0.25824 0.0
O159 O 0.67734 0.90398 0.25859 0.0
C160 C 0.7036 0.90468 0.25072 0.0
C161 C 0.6161 0.91792 0.29803 0.0
C162 C 0.68454 0.85156 0.301 0.0
C163 C 0.73809 0.97434 0.30126 0.0
O164 O 0.71074 0.95335 0.30956 0.0
O165 O 0.7411 0.96559 0.28723 0.0
O166 O 0.62403 0.91115 0.31184 0.0
O167 O 0.63415 0.91631 0.2861 0.0
C168 C 0.58396 0.64564 0.0557 0.0
C169 C 0.59254 0.66281 0.04088 0.0
C170 C 0.56412 0.6078 0.05678 0.0
C171 C 0.54524 0.5272 0.03389 0.0
H172 H 0.46469 0.47452 0.06248 0.0
C173 C 0.44903 0.374 0.02772 0.0
C174 C 0.43303 0.35295 0.04125 0.0
C175 C 0.47041 0.41156 0.02879 0.0
C176 C 0.48754 0.48876 0.05462 0.0
H177 H 0.58576 0.65358 0.01561 0.0
H178 H 0.55144 0.58799 0.01752 0.0
H179 H 0.4968 0.54058 0.06236 0.0
H180 H 0.42804 0.35496 0.06664 0.0
H181 H 0.46621 0.42059 0.06858 0.0
H182 H 0.53655 0.47583 0.02622 0.0
C183 C 0.5603 0.60368 0.0283 0.0
C184 C 0.50582 0.52666 0.05451 0.0
C185 C 0.57976 0.64135 0.02723 0.0
C186 C 0.43997 0.37035 0.05598 0.0
C187 C 0.46157 0.40805 0.05706 0.0
C188 C 0.52727 0.48945 0.0341 0.0
C189 C 0.55283 0.58641 0.04306 0.0
C190 C 0.53446 0.54627 0.04394 0.0
C191 C 0.47666 0.42924 0.04343 0.0
C192 C 0.49773 0.46961 0.04426 0.0
H193 H 0.59344 0.66134 0.06646 0.0
H194 H 0.55879 0.59527 0.06832 0.0
H195 H 0.56771 0.54154 0.02584 0.0
H196 H 0.44412 0.3616 0.01616 0.0
H197 H 0.48097 0.4268 0.01798 0.0
C198 C 0.07942 0.44205 0.36177 0.0
C199 C 0.08673 0.42797 0.37539 0.0
C200 C 0.06134 0.46166 0.36284 0.0
C201 C 0.03684 0.51436 0.38912 0.0
H202 H 0.95609 0.48401 0.36034 0.0
C203 C 0.94567 0.57942 0.39051 0.0
C204 C 0.9352 0.58643 0.37579 0.0
C205 C 0.96189 0.55792 0.39156 0.0
C206 C 0.97878 0.49322 0.36835 0.0
H207 H 0.08228 0.4251 0.40091 0.0
H208 H 0.05123 0.46014 0.40277 0.0
H209 H 0.99127 0.45347 0.35994 0.0
H210 H 0.93285 0.57552 0.35069 0.0
H211 H 0.96152 0.53896 0.35244 0.0
H212 H 0.02511 0.55488 0.39722 0.0
C213 C 0.05933 0.45564 0.39126 0.0
C214 C 0.99891 0.47559 0.36813 0.0
C215 C 0.07712 0.4356 0.39019 0.0
C216 C 0.9403 0.57053 0.36225 0.0
C217 C 0.9567 0.54932 0.36327 0.0
C218 C 0.01694 0.53236 0.38922 0.0
C219 C 0.05041 0.46804 0.37755 0.0
C220 C 0.02842 0.4862 0.37837 0.0
C221 C 0.9682 0.54306 0.37791 0.0
C222 C 0.98786 0.52231 0.37869 0.0
H223 H 0.08643 0.43678 0.35018 0.0
H224 H 0.05538 0.47137 0.35208 0.0
H225 H 0.05952 0.5232 0.39712 0.0
H226 H 0.94214 0.59125 0.40119 0.0
H227 H 0.96978 0.55324 0.40307 0.0
C228 C 0.37494 0.94168 0.72327 0.0
C229 C 0.35759 0.93434 0.7085 0.0
C230 C 0.41282 0.95928 0.72425 0.0
C231 C 0.49337 0.02221 0.70153 0.0
H232 H 0.54621 0.99279 0.72925 0.0
C233 C 0.6467 0.07947 0.69491 0.0
C234 C 0.66783 0.08387 0.70835 0.0
C235 C 0.60909 0.06322 0.69605 0.0
C236 C 0.53192 1.00181 0.72163 0.0
H237 H 0.36654 0.93843 0.68319 0.0
H238 H 0.43219 0.96895 0.68492 0.0
H239 H 0.48006 0.95886 0.72919 0.0
H240 H 0.66593 0.07566 0.73366 0.0
H241 H 0.60023 0.04806 0.73572 0.0
H242 H 0.54479 0.06527 0.69405 0.0
C243 C 0.41661 0.9615 0.69575 0.0
C244 C 0.49398 0.98221 0.72156 0.0
C245 C 0.3789 0.94371 0.69477 0.0
C246 C 0.65048 0.07271 0.72307 0.0
C247 C 0.61274 0.05653 0.72422 0.0
C248 C 0.53116 0.04195 0.7017 0.0
C249 C 0.43408 0.9702 0.71048 0.0
C250 C 0.4743 0.99183 0.7113 0.0
C251 C 0.59146 0.05107 0.71067 0.0
C252 C 0.55106 0.03171 0.71154 0.0
H253 H 0.35936 0.93491 0.73408 0.0
H254 H 0.42549 0.96562 0.73577 0.0
H255 H 0.479 0.03081 0.69374 0.0
H256 H 0.65905 0.0875 0.68336 0.0
H257 H 0.59378 0.05906 0.6853 0.0
C258 C 0.64901 0.57963 0.6143 0.0
C259 C 0.66626 0.58742 0.62911 0.0
C260 C 0.61115 0.55951 0.61323 0.0
C261 C 0.53054 0.53911 0.63641 0.0
H262 H 0.47772 0.46001 0.60719 0.0
C263 C 0.37702 0.44332 0.6423 0.0
C264 C 0.35597 0.42767 0.62873 0.0
C265 C 0.41464 0.46462 0.64127 0.0
C266 C 0.49199 0.48246 0.61523 0.0
H267 H 0.65713 0.57883 0.65432 0.0
H268 H 0.59146 0.54408 0.65242 0.0
H269 H 0.54386 0.49205 0.60729 0.0
H270 H 0.35805 0.42329 0.60331 0.0
H271 H 0.42375 0.46142 0.60143 0.0
H272 H 0.47916 0.53021 0.64426 0.0
C273 C 0.60714 0.55375 0.64166 0.0
C274 C 0.52994 0.50068 0.61533 0.0
C275 C 0.64485 0.57346 0.64273 0.0
C276 C 0.37344 0.43494 0.614 0.0
C277 C 0.41119 0.45652 0.61295 0.0
C278 C 0.49275 0.52124 0.6362 0.0
C279 C 0.58979 0.54717 0.62694 0.0
C280 C 0.54959 0.52879 0.62612 0.0
C281 C 0.4324 0.47121 0.62662 0.0
C282 C 0.47283 0.4922 0.62582 0.0
H283 H 0.66467 0.59003 0.60358 0.0
H284 H 0.59854 0.55487 0.60172 0.0
H285 H 0.54493 0.56118 0.64464 0.0
H286 H 0.36459 0.43812 0.65386 0.0
H287 H 0.42986 0.47485 0.6521 0.0
C288 C 0.94565 0.37405 0.97896 0.0
C289 C 0.93768 0.35271 0.9653 0.0
C290 C 0.96355 0.41171 0.97793 0.0
C291 C 0.9865 0.48876 0.95165 0.0
H292 H 0.0666 0.53995 0.98066 0.0
C293 C 0.07631 0.64531 0.95073 0.0
C294 C 0.08575 0.66247 0.96553 0.0
C295 C 0.06039 0.60763 0.94956 0.0
C296 C 0.04411 0.52622 0.97257 0.0
H297 H 0.94094 0.35435 0.93975 0.0
H298 H 0.97185 0.42041 0.93794 0.0
H299 H 0.03259 0.47423 0.98087 0.0
H300 H 0.08651 0.65341 0.99069 0.0
H301 H 0.05852 0.58826 0.98871 0.0
H302 H 0.99743 0.54083 0.94362 0.0
C303 C 0.96432 0.4078 0.94946 0.0
C304 C 0.02463 0.48846 0.97269 0.0
C305 C 0.94662 0.36997 0.9505 0.0
C306 C 0.07981 0.6412 0.97907 0.0
C307 C 0.06384 0.60368 0.97792 0.0
C308 C 1.00584 0.52667 0.95162 0.0
C309 C 0.97375 0.42909 0.9632 0.0
C310 C 0.99528 0.46926 0.96239 0.0
C311 C 0.05351 0.58625 0.96318 0.0
C312 C 0.03462 0.54593 0.96225 0.0
H313 H 0.93911 0.36176 0.99056 0.0
H314 H 0.96984 0.42732 0.98872 0.0
H315 H 0.96396 0.47473 0.9436 0.0
H316 H 0.08048 0.66087 0.94006 0.0
H317 H 0.0533 0.59527 0.93799 0.0
C318 C 0.43925 0.07267 0.28032 0.0
C319 C 0.4321 0.0831 0.29503 0.0
C320 C 0.45926 0.05481 0.27941 0.0
C321 C 0.47964 0.99558 0.30315 0.0
H322 H 0.55809 0.01974 0.27378 0.0
C323 C 0.57433 0.93686 0.30974 0.0
C324 C 0.58974 0.93077 0.29627 0.0
C325 C 0.55324 0.95335 0.30851 0.0
C326 C 0.5358 0.01214 0.28187 0.0
H327 H 0.44179 0.08427 0.32022 0.0
H328 H 0.47631 0.05311 0.3186 0.0
H329 H 0.52663 0.05436 0.27351 0.0
H330 H 0.59385 0.93611 0.2708 0.0
H331 H 0.55605 0.96395 0.26857 0.0
H332 H 0.48806 0.95313 0.3114 0.0
C333 C 0.46624 0.05847 0.30779 0.0
C334 C 0.51793 0.03217 0.28175 0.0
C335 C 0.44667 0.07661 0.30869 0.0
C336 C 0.58239 0.9404 0.28143 0.0
C337 C 0.56101 0.95673 0.28017 0.0
C338 C 0.49713 0.97533 0.30314 0.0
C339 C 0.4721 0.04665 0.29319 0.0
C340 C 0.49009 0.0245 0.29259 0.0
C341 C 0.54661 0.96398 0.29374 0.0
C342 C 0.52594 0.98369 0.29271 0.0
H343 H 0.42837 0.07719 0.26956 0.0
H344 H 0.46336 0.04603 0.26799 0.0
H345 H 0.45775 0.98852 0.31142 0.0
H346 H 0.5796 0.93008 0.32139 0.0
H347 H 0.54325 0.95892 0.31927 0.0
C348 C 0.35598 0.13792 0.22482 0.0
C349 C 0.32195 0.11727 0.23199 0.0
C350 C 0.35871 0.15106 0.20942 0.0
C351 C 0.30602 0.1719 0.18077 0.0
H352 H 0.37487 0.17532 0.15 0.0
C353 C 0.29261 0.18939 0.11439 0.0
C354 C 0.32393 0.21178 0.10563 0.0
C355 C 0.29504 0.18188 0.13022 0.0
C356 C 0.35587 0.17503 0.15855 0.0
H357 H 0.26408 0.09255 0.22834 0.0
H358 H 0.26876 0.11451 0.20151 0.0
H359 H 0.37392 0.15245 0.17657 0.0
H360 H 0.38238 0.24446 0.10671 0.0
H361 H 0.38663 0.23105 0.13452 0.0
H362 H 0.28742 0.19365 0.16269 0.0
C363 C 0.29345 0.12158 0.20787 0.0
C364 C 0.35528 0.16188 0.17376 0.0
C365 C 0.29074 0.10869 0.22323 0.0
C366 C 0.35776 0.22724 0.11318 0.0
C367 C 0.36022 0.21935 0.12904 0.0
C368 C 0.3065 0.18482 0.16559 0.0
C369 C 0.32745 0.14368 0.20089 0.0
C370 C 0.32988 0.15955 0.18497 0.0
C371 C 0.32886 0.1963 0.13768 0.0
C372 C 0.331 0.18599 0.15422 0.0
H373 H 0.38054 0.1451 0.23131 0.0
H374 H 0.38534 0.16806 0.20443 0.0
H375 H 0.28676 0.17146 0.18921 0.0
H376 H 0.26614 0.17703 0.10892 0.0
H377 H 0.2704 0.16375 0.13649 0.0
C378 C 0.14313 0.35286 0.44609 0.0
C379 C 0.12275 0.31902 0.43875 0.0
C380 C 0.15604 0.35528 0.46152 0.0
C381 C 0.17685 0.30229 0.48998 0.0
H382 H 0.17864 0.36962 0.52112 0.0
C383 C 0.19269 0.28667 0.5563 0.0
C384 C 0.21467 0.31768 0.5653 0.0
C385 C 0.1855 0.2896 0.54048 0.0
C386 C 0.1788 0.35105 0.51247 0.0
H387 H 0.09831 0.26116 0.44214 0.0
H388 H 0.11987 0.2653 0.469 0.0
H389 H 0.15644 0.36939 0.49448 0.0
H390 H 0.24691 0.37614 0.56465 0.0
H391 H 0.23406 0.38129 0.53685 0.0
H392 H 0.19839 0.28338 0.50802 0.0
C393 C 0.12691 0.29008 0.46276 0.0
C394 C 0.16604 0.35087 0.49721 0.0
C395 C 0.11424 0.28768 0.44738 0.0
C396 C 0.23 0.35174 0.558 0.0
C397 C 0.22243 0.35471 0.54214 0.0
C398 C 0.18939 0.30235 0.5052 0.0
C399 C 0.1487 0.3239 0.46991 0.0
C400 C 0.16429 0.326 0.48587 0.0
C401 C 0.19984 0.32364 0.53326 0.0
C402 C 0.18995 0.32628 0.5167 0.0
H403 H 0.15024 0.37751 0.43972 0.0
H404 H 0.17281 0.38177 0.46666 0.0
H405 H 0.17684 0.28343 0.48144 0.0
H406 H 0.18043 0.26003 0.56157 0.0
H407 H 0.1677 0.26517 0.53402 0.0
C408 C 0.84963 0.12303 0.77793 0.0
C409 C 0.81684 0.11732 0.77152 0.0
C410 C 0.85819 0.13287 0.79371 0.0
C411 C 0.83389 0.17012 0.82828 0.0
H412 H 0.88867 0.1341 0.8506 0.0
C413 C 0.89304 0.22054 0.89101 0.0
C414 C 0.89336 0.19504 0.90138 0.0
C415 C 0.88338 0.21169 0.87513 0.0
C416 C 0.873 0.14415 0.84467 0.0
H417 H 0.7671 0.11724 0.7767 0.0
H418 H 0.78144 0.1332 0.80455 0.0
H419 H 0.87027 0.11554 0.82362 0.0
H420 H 0.88298 0.14003 0.9033 0.0
H421 H 0.86519 0.12435 0.87602 0.0
H422 H 0.83538 0.19749 0.84969 0.0
C423 C 0.80097 0.13088 0.79724 0.0
C424 C 0.86289 0.13391 0.82903 0.0
C425 C 0.79257 0.12142 0.78131 0.0
C426 C 0.88354 0.16053 0.89559 0.0
C427 C 0.87348 0.15157 0.87986 0.0
C428 C 0.84366 0.18005 0.84405 0.0
C429 C 0.83397 0.13678 0.80364 0.0
C430 C 0.84342 0.14691 0.82054 0.0
C431 C 0.87348 0.17703 0.86935 0.0
C432 C 0.86338 0.16719 0.85246 0.0
H433 H 0.8692 0.12059 0.77068 0.0
H434 H 0.88421 0.138 0.79802 0.0
H435 H 0.81927 0.18103 0.8221 0.0
H436 H 0.90044 0.24736 0.89514 0.0
H437 H 0.88413 0.23217 0.86736 0.0
C438 C 0.67216 0.78634 0.11536 0.0
C439 C 0.69827 0.81349 0.10562 0.0
C440 C 0.66861 0.79376 0.13118 0.0
C441 C 0.68463 0.86793 0.1577 0.0
H442 H 0.69098 0.80986 0.19135 0.0
C443 C 0.67108 0.89126 0.22465 0.0
C444 C 0.6998 0.89419 0.23387 0.0
C445 C 0.66713 0.87966 0.20892 0.0
C446 C 0.68891 0.82613 0.18205 0.0
H447 H 0.74092 0.86968 0.10479 0.0
H448 H 0.73422 0.88258 0.13217 0.0
H449 H 0.69042 0.7921 0.1638 0.0
H450 H 0.74672 0.88708 0.23387 0.0
H451 H 0.73939 0.86637 0.20664 0.0
H452 H 0.68355 0.9022 0.17594 0.0
C453 C 0.71665 0.85562 0.12763 0.0
C454 C 0.68837 0.81586 0.16634 0.0
C455 C 0.72065 0.84808 0.11199 0.0
C456 C 0.72439 0.8853 0.22708 0.0
C457 C 0.72005 0.87313 0.21152 0.0
C458 C 0.68453 0.87785 0.17343 0.0
C459 C 0.69056 0.82862 0.13738 0.0
C460 C 0.68704 0.83712 0.15401 0.0
C461 C 0.69137 0.87008 0.20229 0.0
C462 C 0.68747 0.85748 0.18573 0.0
H463 H 0.65451 0.75946 0.11077 0.0
H464 H 0.64831 0.77247 0.13848 0.0
H465 H 0.68337 0.88465 0.1484 0.0
H466 H 0.65169 0.89786 0.22957 0.0
H467 H 0.64479 0.87755 0.20202 0.0
C468 C 0.83822 0.72788 0.55732 0.0
C469 C 0.81389 0.69686 0.56578 0.0
C470 C 0.84809 0.72513 0.54191 0.0
C471 C 0.8233 0.66493 0.5071 0.0
H472 H 0.92456 0.7276 0.49673 0.0
C473 C 0.88498 0.66114 0.44636 0.0
C474 C 0.90583 0.69523 0.43928 0.0
C475 C 0.87427 0.65838 0.46218 0.0
C476 C 0.89619 0.70999 0.49943 0.0
H477 H 0.77979 0.63864 0.56448 0.0
H478 H 0.79738 0.63373 0.53749 0.0
H479 H 0.90331 0.72834 0.5233 0.0
H480 H 0.93279 0.75305 0.44336 0.0
H481 H 0.91458 0.74822 0.47085 0.0
H482 H 0.81641 0.64675 0.48308 0.0
C483 C 0.8086 0.66026 0.54278 0.0
C484 C 0.88393 0.71052 0.51464 0.0
C485 C 0.79852 0.66306 0.55824 0.0
C486 C 0.91675 0.72638 0.44846 0.0
C487 C 0.90643 0.72362 0.46425 0.0
C488 C 0.83566 0.66429 0.49185 0.0
C489 C 0.83414 0.69124 0.53457 0.0
C490 C 0.8472 0.68857 0.5186 0.0
C491 C 0.88468 0.68964 0.47125 0.0
C492 C 0.87212 0.68734 0.48778 0.0
H493 H 0.85029 0.75438 0.56271 0.0
H494 H 0.86706 0.74965 0.53581 0.0
H495 H 0.79483 0.64779 0.50973 0.0
H496 H 0.87602 0.63665 0.43956 0.0
H497 H 0.85773 0.63183 0.4673 0.0
C498 C 0.12824 0.78718 0.89277 0.0
C499 C 0.12809 0.81407 0.90228 0.0
C500 C 0.1387 0.79421 0.87689 0.0
C501 C 0.19305 0.86856 0.84953 0.0
H502 H 0.13098 0.80456 0.81662 0.0
C503 C 0.22965 0.88978 0.78264 0.0
C504 C 0.20224 0.88843 0.77297 0.0
C505 C 0.22262 0.87918 0.7985 0.0
C506 C 0.14865 0.82256 0.8257 0.0
H507 H 0.13893 0.8694 0.90258 0.0
H508 H 0.15752 0.88164 0.87507 0.0
H509 H 0.11486 0.78842 0.84435 0.0
H510 H 0.14593 0.87467 0.77235 0.0
H511 H 0.1337 0.85584 0.79984 0.0
H512 H 0.22659 0.90294 0.83089 0.0
C513 C 0.14955 0.85519 0.87986 0.0
C514 C 0.13956 0.81321 0.84154 0.0
C515 C 0.13859 0.84802 0.89559 0.0
C516 C 0.16772 0.8762 0.77947 0.0
C517 C 0.16058 0.8651 0.79519 0.0
C518 C 0.20243 0.87765 0.8337 0.0
C519 C 0.14984 0.82845 0.87035 0.0
C520 C 0.16128 0.83648 0.85361 0.0
C521 C 0.18788 0.86641 0.80487 0.0
C522 C 0.17994 0.85509 0.82163 0.0
H523 H 0.12034 0.76078 0.8976 0.0
H524 H 0.1387 0.77312 0.8698 0.0
H525 H 0.21041 0.88686 0.85862 0.0
H526 H 0.25649 0.89903 0.77796 0.0
H527 H 0.24414 0.88043 0.80573 0.0
C528 C 0.22015 0.90081 0.96877 0.0
C529 C 0.20287 0.86838 0.97741 0.0
C530 C 0.24469 0.93327 0.97609 0.0
C531 C 0.25919 0.97574 0.01447 0.0
H532 H 0.34548 0.05379 0.99534 0.0
C533 C 0.32865 0.11595 0.04304 0.0
C534 C 0.34023 0.14558 0.03281 0.0
C535 C 0.31998 0.08197 0.03721 0.0
C536 C 0.32132 0.0324 1.00081 0.0
H537 H 0.19948 0.84427 1.00031 0.0
H538 H 0.24218 0.90121 0.01317 0.0
H539 H 0.3159 0.99386 0.98321 0.0
H540 H 0.35345 0.16327 0.00856 0.0
H541 H 0.33703 0.10375 0.99822 0.0
H542 H 0.26293 0.01415 0.0315 0.0
C543 C 0.23661 0.9014 1.00071 0.0
C544 C 0.30452 0.998 0.9939 0.0
C545 C 0.21236 0.86877 0.99332 0.0
C546 C 0.34482 0.14096 0.01674 0.0
C547 C 0.33545 0.10674 0.01083 0.0
C548 C 0.27565 0.01012 0.02126 0.0
C549 C 0.25223 0.93414 0.99227 0.0
C550 C 0.27296 0.96942 1.00054 0.0
C551 C 0.32184 0.07651 0.02093 0.0
C552 C 0.30668 0.03915 0.01442 0.0
H553 H 0.21354 0.9014 0.95647 0.0
H554 H 0.25606 0.95801 0.96928 0.0
H555 H 0.23454 0.9545 0.01972 0.0
H556 H 0.32524 0.1188 0.05553 0.0
H557 H 0.31074 0.05974 0.04546 0.0
C558 C 0.21726 0.34809 0.35257 0.0
C559 C 0.1958 0.32775 0.36538 0.0
C560 C 0.24216 0.33986 0.34567 0.0
C561 C 0.28679 0.28394 0.3515 0.0
H562 H 0.28673 0.28203 0.3058 0.0
C563 C 0.30252 0.19584 0.29891 0.0
C564 C 0.33061 0.19109 0.30488 0.0
C565 C 0.29439 0.22062 0.30576 0.0
C566 C 0.28704 0.28228 0.31858 0.0
H567 H 0.18499 0.28378 0.38139 0.0
H568 H 0.22717 0.26901 0.36926 0.0
H569 H 0.25696 0.30992 0.3195 0.0
H570 H 0.37342 0.21025 0.32233 0.0
H571 H 0.35971 0.25429 0.33414 0.0
H572 H 0.31452 0.25393 0.35059 0.0
C573 C 0.22556 0.29176 0.36461 0.0
C574 C 0.27037 0.29885 0.32646 0.0
C575 C 0.20095 0.30008 0.37152 0.0
C576 C 0.3515 0.21308 0.31747 0.0
C577 C 0.34345 0.23815 0.32431 0.0
C578 C 0.30308 0.267 0.34361 0.0
C579 C 0.24609 0.31104 0.35141 0.0
C580 C 0.26899 0.29889 0.34305 0.0
C581 C 0.31427 0.24172 0.31874 0.0
C582 C 0.30242 0.26491 0.32704 0.0
H583 H 0.21412 0.3697 0.34758 0.0
H584 H 0.25787 0.35568 0.33566 0.0
H585 H 0.2871 0.28419 0.36428 0.0
H586 H 0.2858 0.17947 0.28922 0.0
H587 H 0.27136 0.22195 0.30125 0.0
C588 C 0.90936 0.20085 0.70444 0.0
C589 C 0.87628 0.19507 0.69828 0.0
C590 C 0.94215 0.22618 0.69768 0.0
C591 C 0.97965 0.27301 0.65981 0.0
H592 H 0.06862 0.31514 0.684 0.0
C593 C 0.114 0.30404 0.63189 0.0
C594 C 0.14722 0.33048 0.63828 0.0
C595 C 0.08132 0.29676 0.63871 0.0
C596 C 0.04418 0.30435 0.677 0.0
H597 H 0.85205 0.21313 0.68064 0.0
H598 H 0.90961 0.25831 0.66904 0.0
H599 H 1.01095 0.2876 0.69764 0.0
H600 H 0.17187 0.37155 0.6564 0.0
H601 H 0.11454 0.35954 0.66813 0.0
H602 H 0.0129 0.29041 0.63918 0.0
C603 C 0.91004 0.24245 0.67891 0.0
C604 C 1.0109 0.28792 0.68486 0.0
C605 C 0.87699 0.21672 0.68563 0.0
C606 C 0.1468 0.35086 0.65122 0.0
C607 C 0.11388 0.34374 0.65802 0.0
C608 C 0.01294 0.28997 0.65196 0.0
C609 C 0.94307 0.24696 0.68463 0.0
C610 C 0.97814 0.2706 0.67638 0.0
C611 C 0.08067 0.31596 0.65208 0.0
C612 C 0.04569 0.30449 0.66041 0.0
H613 H 0.91003 0.18477 0.71418 0.0
H614 H 0.9667 0.22813 0.70231 0.0
H615 H 0.9552 0.26009 0.6528 0.0
H616 H 0.11311 0.28776 0.62191 0.0
H617 H 0.05661 0.27475 0.63389 0.0
C618 C 0.68706 0.89869 0.04183 0.0
C619 C 0.67769 0.86933 0.03167 0.0
C620 C 0.69558 0.93247 0.03581 0.0
C621 C 0.69801 0.98204 0.99884 0.0
H622 H 0.78238 0.06018 0.01909 0.0
C623 C 0.80111 0.11399 0.96772 0.0
C624 C 0.81794 0.14638 0.9764 0.0
C625 C 0.77608 0.08151 0.97487 0.0
C626 C 0.75838 0.0389 0.01345 0.0
H627 H 0.66799 0.8518 0.0073 0.0
H628 H 0.68404 0.91103 0.99666 0.0
H629 H 0.75302 1.00048 0.03084 0.0
H630 H 0.82001 0.17038 0.99919 0.0
H631 H 0.77634 0.11343 0.01176 0.0
H632 H 0.70498 0.0206 0.98096 0.0
C633 C 0.68407 0.90794 0.00934 0.0
C634 C 0.74138 1.00448 0.02021 0.0
C635 C 0.67488 0.87389 0.01542 0.0
C636 C 0.80752 0.14591 0.99217 0.0
C637 C 0.78271 0.11327 0.9994 0.0
C638 C 0.71531 0.01651 0.99198 0.0
C639 C 0.69574 0.938 0.01943 0.0
C640 C 0.71126 0.97536 0.0129 0.0
C641 C 0.7675 0.08055 0.99093 0.0
C642 C 0.74605 0.04519 0.99909 0.0
H643 H 0.68907 0.89587 0.05444 0.0
H644 H 0.7033 0.95457 0.04401 0.0
H645 H 0.67458 0.96054 0.99298 0.0
H646 H 0.80839 0.11343 0.95552 0.0
H647 H 0.7651 0.05683 0.96804 0.0
C648 C 0.71524 0.81481 0.30084 0.0
C649 C 0.68896 0.82161 0.3074 0.0
C650 C 0.72335 0.79016 0.30782 0.0
C651 C 0.73103 0.72939 0.32142 0.0
H652 H 0.73814 0.73382 0.36701 0.0
C653 C 0.80478 0.66684 0.35476 0.0
C654 C 0.82803 0.68849 0.36688 0.0
C655 C 0.77918 0.67461 0.34827 0.0
C656 C 0.73646 0.7323 0.35426 0.0
H657 H 0.6491 0.80607 0.32603 0.0
H658 H 0.6627 0.76217 0.33809 0.0
H659 H 0.70948 0.76303 0.35349 0.0
H660 H 0.84151 0.73448 0.38206 0.0
H661 H 0.79819 0.74849 0.37058 0.0
H662 H 0.76049 0.70111 0.3221 0.0
C663 C 0.67764 0.77665 0.32768 0.0
C664 C 0.71942 0.74863 0.34649 0.0
C665 C 0.66962 0.80162 0.32071 0.0
C666 C 0.82412 0.71714 0.37274 0.0
C667 C 0.79886 0.72503 0.36621 0.0
C668 C 0.7485 0.71349 0.32918 0.0
C669 C 0.70523 0.77119 0.32152 0.0
C670 C 0.71753 0.74846 0.32991 0.0
C671 C 0.77638 0.70431 0.3537 0.0
C672 C 0.75253 0.71576 0.34569 0.0
H673 H 0.73071 0.82957 0.29058 0.0
H674 H 0.74516 0.78736 0.30282 0.0
H675 H 0.72931 0.72784 0.30867 0.0
H676 H 0.80692 0.64445 0.35002 0.0
H677 H 0.76199 0.65767 0.33882 0.0
C678 C 0.12153 0.79461 0.70627 0.0
C679 C 0.15122 0.8173 0.69672 0.0
C680 C 0.08824 0.77017 0.69953 0.0
C681 C 0.04088 0.73061 0.66116 0.0
H682 H 0.96029 0.72903 0.68302 0.0
C683 C 0.90734 0.7014 0.63114 0.0
C684 C 0.87474 0.68238 0.63961 0.0
C685 C 0.94029 0.7096 0.63807 0.0
C686 C 0.9823 0.72854 0.67688 0.0
H687 H 0.16992 0.83086 0.67261 0.0
H688 H 0.11151 0.7891 0.66076 0.0
H689 H 0.01967 0.75861 0.69516 0.0
H690 H 0.8511 0.65544 0.66174 0.0
H691 H 0.90886 0.67006 0.67392 0.0
H692 H 1.0033 0.70201 0.64249 0.0
C693 C 0.11397 0.78945 0.67348 0.0
C694 C 0.01653 0.7455 0.68387 0.0
C695 C 0.14756 0.81349 0.68026 0.0
C696 C 0.87569 0.67011 0.65489 0.0
C697 C 0.90879 0.67869 0.6619 0.0
C698 C 1.00659 0.71392 0.65408 0.0
C699 C 0.08351 0.76835 0.68305 0.0
C700 C 0.04648 0.74722 0.67605 0.0
C701 C 0.94154 0.6993 0.6537 0.0
C702 C 0.97701 0.71313 0.66179 0.0
H703 H 0.12367 0.79671 0.71901 0.0
H704 H 0.06586 0.75361 0.70731 0.0
H705 H 0.06304 0.73083 0.65485 0.0
H706 H 0.90757 0.71112 0.61931 0.0
H707 H 0.96499 0.72572 0.63146 0.0
C708 C 0.01394 0.24884 0.99135 0.0
C709 C 1.00653 0.24276 0.97512 0.0
C710 C 0.04495 0.25069 0.99775 0.0
C711 C 0.11516 0.22591 0.98922 0.0
H712 H 0.16414 0.28976 0.0245 0.0
C713 C 0.25213 0.25075 0.01342 0.0
C714 C 0.25396 0.24714 0.02984 0.0
C715 C 0.22274 0.25159 0.00665 0.0
C716 C 0.15058 0.27167 0.01471 0.0
H717 H 0.02633 0.2346 0.95283 0.0
H718 H 0.08115 0.23904 0.9639 0.0
H719 H 0.11218 0.28959 0.01244 0.0
H720 H 0.2267 0.24243 0.05206 0.0
H721 H 0.17553 0.24455 0.04018 0.0
H722 H 0.15425 0.20867 0.99135 0.0
C723 C 0.06247 0.2414 0.97178 0.0
C724 C 0.12071 0.27142 0.00781 0.0
C725 C 0.03114 0.23907 0.9654 0.0
C726 C 0.22606 0.24516 0.03938 0.0
C727 C 0.19687 0.24652 0.0326 0.0
C728 C 0.14532 0.22654 0.99598 0.0
C729 C 0.06968 0.247 0.98808 0.0
C730 C 0.1024 0.24832 0.99504 0.0
C731 C 0.19477 0.24935 0.01615 0.0
C732 C 0.16317 0.24924 0.00885 0.0
H733 H 0.9954 0.25151 0.99921 0.0
H734 H 0.04909 0.2543 0.01038 0.0
H735 H 0.10145 0.20726 0.97962 0.0
H736 H 0.27311 0.25229 0.00572 0.0
H737 H 0.22194 0.25411 0.99395 0.0
C738 C 0.76678 0.01466 0.32457 0.0
C739 C 0.76702 0.00829 0.3083 0.0
C740 C 0.79489 0.04564 0.3315 0.0
C741 C 0.86813 0.13773 0.32328 0.0
H742 H 0.91204 0.12447 0.36087 0.0
C743 C 1.00396 0.25047 0.34799 0.0
C744 C 1.00951 0.25282 0.3644 0.0
C745 C 0.97276 0.22186 0.34142 0.0
C746 C 0.89974 0.12886 0.35056 0.0
H747 H 0.79658 0.03007 0.28646 0.0
H748 H 0.84563 0.08453 0.2986 0.0
H749 H 0.8605 0.07259 0.34879 0.0
H750 H 0.98598 0.22761 0.38684 0.0
H751 H 0.93099 0.17824 0.37543 0.0
H752 H 0.90702 0.19403 0.32511 0.0
C753 C 0.8236 0.06537 0.30596 0.0
C754 C 0.87028 0.09905 0.3436 0.0
C755 C 0.79562 0.03412 0.29903 0.0
C756 C 0.98266 0.22643 0.37414 0.0
C757 C 0.95123 0.19798 0.36757 0.0
C758 C 0.89738 0.16766 0.33034 0.0
C759 C 0.82372 0.07117 0.32229 0.0
C760 C 0.85435 0.10313 0.32984 0.0
C761 C 0.94609 0.19506 0.35111 0.0
C762 C 0.91377 0.16357 0.34401 0.0
H763 H 0.74517 0.99538 0.33207 0.0
H764 H 0.79411 0.04962 0.34408 0.0
H765 H 0.85607 0.14168 0.31278 0.0
H766 H 0.02418 0.27025 0.34013 0.0
H767 H 0.9701 0.22028 0.3287 0.0
C768 C 0.77235 0.79286 0.63094 0.0
C769 C 0.76918 0.7643 0.64034 0.0
C770 C 0.76983 0.82138 0.63773 0.0
C771 C 0.78447 0.86933 0.67511 0.0
H772 H 0.72586 0.90606 0.65692 0.0
C773 C 0.76962 0.98133 0.70601 0.0
C774 C 0.76923 0.00793 0.69641 0.0
C775 C 0.767 0.9502 0.69932 0.0
C776 C 0.74274 0.89646 0.66206 0.0
H777 H 0.76038 0.74312 0.66422 0.0
H778 H 0.75644 0.793 0.67602 0.0
H779 H 0.72671 0.85483 0.64461 0.0
H780 H 0.76553 0.02256 0.67224 0.0
H781 H 0.76212 0.96901 0.66057 0.0
H782 H 0.80147 0.91134 0.69226 0.0
C783 C 0.76091 0.79332 0.66342 0.0
C784 C 0.7431 0.86704 0.65501 0.0
C785 C 0.76299 0.76467 0.65662 0.0
C786 C 0.76572 1.0025 0.68 0.0
C787 C 0.76352 0.97161 0.67329 0.0
C788 C 0.78447 0.89897 0.68205 0.0
C789 C 0.76457 0.82208 0.65407 0.0
C790 C 0.76394 0.85318 0.66149 0.0
C791 C 0.76437 0.94513 0.68285 0.0
C792 C 0.7636 0.91295 0.67563 0.0
H793 H 0.77705 0.79335 0.61835 0.0
H794 H 0.77294 0.84334 0.63027 0.0
H795 H 0.80118 0.85949 0.68023 0.0
H796 H 0.772 0.98455 0.71871 0.0
H797 H 0.76701 0.93009 0.70709 0.0
C798 C 0.79895 0.77698 0.04112 0.0
C799 C 0.77121 0.77448 0.03135 0.0
C800 C 0.82826 0.7753 0.03466 0.0
C801 C 0.85795 0.74914 0.99791 0.0
H802 H 0.95353 0.80874 0.01576 0.0
C803 C 0.99089 0.77713 0.96699 0.0
C804 C 0.0155 0.77279 0.97645 0.0
C805 C 0.96031 0.77583 0.97371 0.0
C806 C 0.92693 0.79179 0.01073 0.0
H807 H 0.75271 0.7687 0.00711 0.0
H808 H 0.80411 0.76711 0.99584 0.0
H809 H 0.90185 0.8095 0.02757 0.0
H810 H 0.02726 0.76367 1.0004 0.0
H811 H 0.97429 0.76204 0.01209 0.0
H812 H 0.88356 0.73242 0.98076 0.0
C813 C 0.80291 0.7692 0.00853 0.0
C814 C 0.89723 0.79202 0.01754 0.0
C815 C 0.77345 0.77037 0.015 0.0
C816 C 1.00882 0.76703 0.99275 0.0
C817 C 0.97861 0.7663 0.99948 0.0
C818 C 0.88775 0.74934 0.99097 0.0
C819 C 0.83072 0.77158 0.01825 0.0
C820 C 0.8623 0.77071 0.01122 0.0
C821 C 0.95412 0.77077 0.99005 0.0
C822 C 0.9225 0.77063 0.99733 0.0
H823 H 0.79789 0.77993 0.05377 0.0
H824 H 0.8488 0.77661 0.04256 0.0
H825 H 0.83144 0.7318 0.99289 0.0
H826 H 0.99526 0.78155 0.9544 0.0
H827 H 0.94188 0.77952 0.9662 0.0
C828 C 0.04176 0.78883 0.37364 0.0
C829 C 0.01473 0.76226 0.36403 0.0
C830 C 0.07318 0.81702 0.36695 0.0
C831 C 0.12687 0.8462 0.3297 0.0
H832 H 0.16384 0.94181 0.34758 0.0
C833 C 0.22887 0.97873 0.2978 0.0
C834 C 0.25713 1.00517 0.30702 0.0
C835 C 0.20103 0.94758 0.30485 0.0
C836 C 0.15406 0.91521 0.34256 0.0
H837 H 0.99975 0.74422 0.33985 0.0
H838 H 0.05389 0.79375 0.32819 0.0
H839 H 0.11223 0.89034 0.35982 0.0
H840 H 0.27862 0.01918 0.33081 0.0
H841 H 0.22996 0.96506 0.34303 0.0
H842 H 0.16829 0.8716 0.31214 0.0
C843 C 0.05132 0.7925 0.34092 0.0
C844 C 0.12454 0.88563 0.34961 0.0
C845 C 0.0201 0.76416 0.34761 0.0
C846 C 0.25725 0.99944 0.32336 0.0
C847 C 0.22929 0.96852 0.33039 0.0
C848 C 0.15621 0.8759 0.32256 0.0
C849 C 0.07815 0.8195 0.35048 0.0
C850 C 0.11047 0.85073 0.34326 0.0
C851 C 0.20071 0.94245 0.32124 0.0
C852 C 0.17005 0.9107 0.32891 0.0
H853 H 0.0386 0.788 0.38634 0.0
H854 H 0.09355 0.83692 0.37472 0.0
H855 H 0.11716 0.81967 0.32462 0.0
H856 H 0.228 0.98228 0.28519 0.0
H857 H 0.1792 0.92801 0.29752 0.0
C858 C 0.27298 0.02475 0.68861 0.0
C859 C 0.24817 1.00615 0.70079 0.0
C860 C 0.27528 0.05566 0.68192 0.0
C861 C 0.25822 0.10468 0.66275 0.0
H862 H 0.24622 0.17426 0.68747 0.0
C863 C 0.23667 0.21466 0.63374 0.0
C864 C 0.25224 0.24873 0.64101 0.0
C865 C 0.2377 0.18592 0.64111 0.0
C866 C 0.25003 0.15532 0.6804 0.0
H867 H 0.20681 1.00591 0.71571 0.0
H868 H 0.2102 0.05951 0.70376 0.0
H869 H 0.24628 0.12363 0.70063 0.0
H870 H 0.2821 0.27961 0.66154 0.0
H871 H 0.28472 0.2298 0.67418 0.0
H872 H 0.26298 0.13682 0.64259 0.0
C873 C 0.22835 0.05052 0.69956 0.0
C874 C 0.24956 0.12598 0.68793 0.0
C875 C 0.22628 0.0197 0.70638 0.0
C876 C 0.26962 0.25364 0.65565 0.0
C877 C 0.27088 0.22498 0.66296 0.0
C878 C 0.25892 0.1341 0.65524 0.0
C879 C 0.25257 0.06861 0.6871 0.0
C880 C 0.25356 0.10022 0.6792 0.0
C881 C 0.25459 0.19064 0.65587 0.0
C882 C 0.25469 0.15974 0.66395 0.0
H883 H 0.29057 0.0153 0.68414 0.0
H884 H 0.29485 0.06934 0.67261 0.0
H885 H 0.26086 0.08513 0.65559 0.0
H886 H 0.22288 0.20989 0.62251 0.0
H887 H 0.22444 0.15976 0.63538 0.0
loop_
_geom_bond_atom_site_label_1
_geom_bond_atom_site_label_2
_geom_bond_distance
_geom_bond_site_symmetry_2
_ccdc_geom_bond_type
O0 Cd1 2.223 . S
O0 C8 1.315 . S
Cd1 O0 2.223 . S
Cd1 O4 2.297 . S
Cd1 O5 2.439 . S
Cd1 O11 2.240 . S
Cd2 O3 2.240 . S
Cd2 O10 2.223 . S
Cd2 O12 2.297 . S
Cd2 O13 2.439 . S
O3 Cd2 2.240 . S
O3 C8 1.279 . S
O4 Cd1 2.297 . S
O4 C6 1.247 . S
O5 Cd1 2.439 . S
O5 C6 1.208 . S
C6 O4 1.247 . S
C6 O5 1.208 . S
C7 O12 1.247 . S
C7 O13 1.208 . S
C8 O0 1.315 . S
C8 O3 1.279 . S
C9 O10 1.315 . S
C9 O11 1.279 . S
O10 Cd2 2.223 . S
O10 C9 1.315 . S
O11 Cd1 2.240 . S
O11 C9 1.279 . S
O12 Cd2 2.297 . S
O12 C7 1.247 . S
O13 Cd2 2.439 . S
O13 C7 1.208 . S
O14 Cd15 2.223 . S
O14 C22 1.315 . S
Cd15 O14 2.223 . S
Cd15 O18 2.297 . S
Cd15 O19 2.439 . S
Cd15 O25 2.240 . S
Cd16 O17 2.240 . S
Cd16 O24 2.223 . S
Cd16 O26 2.297 . S
Cd16 O27 2.439 . S
O17 Cd16 2.240 . S
O17 C22 1.279 . S
O18 Cd15 2.297 . S
O18 C20 1.247 . S
O19 Cd15 2.439 . S
O19 C20 1.208 . S
C20 O18 1.247 . S
C20 O19 1.208 . S
C21 O26 1.247 . S
C21 O27 1.208 . S
C22 O14 1.315 . S
C22 O17 1.279 . S
C23 O24 1.315 . S
C23 O25 1.279 . S
O24 Cd16 2.223 . S
O24 C23 1.315 . S
O25 Cd15 2.240 . S
O25 C23 1.279 . S
O26 Cd16 2.297 . S
O26 C21 1.247 . S
O27 Cd16 2.439 . S
O27 C21 1.208 . S
O28 Cd29 2.223 . S
O28 C36 1.315 . S
Cd29 O28 2.223 . S
Cd29 O32 2.297 . S
Cd29 O33 2.439 . S
Cd29 O39 2.240 . S
Cd30 O31 2.240 . S
Cd30 O38 2.223 . S
Cd30 O40 2.297 . S
Cd30 O41 2.439 . S
O31 Cd30 2.240 . S
O31 C36 1.279 . S
O32 Cd29 2.297 . S
O32 C34 1.247 . S
O33 Cd29 2.439 . S
O33 C34 1.208 . S
C34 O32 1.247 . S
C34 O33 1.208 . S
C35 O40 1.247 . S
C35 O41 1.208 . S
C36 O28 1.315 . S
C36 O31 1.279 . S
C37 O38 1.315 . S
C37 O39 1.279 . S
O38 Cd30 2.223 . S
O38 C37 1.315 . S
O39 Cd29 2.240 . S
O39 C37 1.279 . S
O40 Cd30 2.297 . S
O40 C35 1.247 . S
O41 Cd30 2.439 . S
O41 C35 1.208 . S
O42 Cd43 2.223 . S
O42 C50 1.315 . S
Cd43 O42 2.223 . S
Cd43 O46 2.297 . S
Cd43 O47 2.439 . S
Cd43 O53 2.240 . S
Cd44 O45 2.240 . S
Cd44 O52 2.223 . S
Cd44 O54 2.297 . S
Cd44 O55 2.439 . S
O45 Cd44 2.240 . S
O45 C50 1.279 . S
O46 Cd43 2.297 . S
O46 C48 1.247 . S
O47 Cd43 2.439 . S
O47 C48 1.208 . S
C48 O46 1.247 . S
C48 O47 1.208 . S
C49 O54 1.247 . S
C49 O55 1.208 . S
C50 O42 1.315 . S
C50 O45 1.279 . S
C51 O52 1.315 . S
C51 O53 1.279 . S
O52 Cd44 2.223 . S
O52 C51 1.315 . S
O53 Cd43 2.240 . S
O53 C51 1.279 . S
O54 Cd44 2.297 . S
O54 C49 1.247 . S
O55 Cd44 2.439 . S
O55 C49 1.208 . S
O56 Cd57 2.223 . S
O56 C64 1.315 . S
Cd57 O56 2.223 . S
Cd57 O60 2.297 . S
Cd57 O61 2.439 . S
Cd57 O67 2.240 . S
Cd58 O59 2.240 . S
Cd58 O66 2.223 . S
Cd58 O68 2.297 . S
Cd58 O69 2.439 . S
O59 Cd58 2.240 . S
O59 C64 1.279 . S
O60 Cd57 2.297 . S
O60 C62 1.247 . S
O61 Cd57 2.439 . S
O61 C62 1.208 . S
C62 O60 1.247 . S
C62 O61 1.208 . S
C63 O68 1.247 . S
C63 O69 1.208 . S
C64 O56 1.315 . S
C64 O59 1.279 . S
C65 O66 1.315 . S
C65 O67 1.279 . S
O66 Cd58 2.223 . S
O66 C65 1.315 . S
O67 Cd57 2.240 . S
O67 C65 1.279 . S
O68 Cd58 2.297 . S
O68 C63 1.247 . S
O69 Cd58 2.439 . S
O69 C63 1.208 . S
O70 Cd71 2.223 . S
O70 C78 1.315 . S
Cd71 O70 2.223 . S
Cd71 O74 2.297 . S
Cd71 O75 2.439 . S
Cd71 O81 2.240 . S
Cd72 O73 2.240 . S
Cd72 O80 2.223 . S
Cd72 O82 2.297 . S
Cd72 O83 2.439 . S
O73 Cd72 2.240 . S
O73 C78 1.279 . S
O74 Cd71 2.297 . S
O74 C76 1.247 . S
O75 Cd71 2.439 . S
O75 C76 1.208 . S
C76 O74 1.247 . S
C76 O75 1.208 . S
C77 O82 1.247 . S
C77 O83 1.208 . S
C78 O70 1.315 . S
C78 O73 1.279 . S
C79 O80 1.315 . S
C79 O81 1.279 . S
O80 Cd72 2.223 . S
O80 C79 1.315 . S
O81 Cd71 2.240 . S
O81 C79 1.279 . S
O82 Cd72 2.297 . S
O82 C77 1.247 . S
O83 Cd72 2.439 . S
O83 C77 1.208 . S
O84 Cd85 2.223 . S
O84 C92 1.315 . S
Cd85 O84 2.223 . S
Cd85 O88 2.297 . S
Cd85 O89 2.439 . S
Cd85 O95 2.240 . S
Cd86 O87 2.240 . S
Cd86 O94 2.223 . S
Cd86 O96 2.297 . S
Cd86 O97 2.439 . S
O87 Cd86 2.240 . S
O87 C92 1.279 . S
O88 Cd85 2.297 . S
O88 C90 1.247 . S
O89 Cd85 2.439 . S
O89 C90 1.208 . S
C90 O88 1.247 . S
C90 O89 1.208 . S
C91 O96 1.247 . S
C91 O97 1.208 . S
C92 O84 1.315 . S
C92 O87 1.279 . S
C93 O94 1.315 . S
C93 O95 1.279 . S
O94 Cd86 2.223 . S
O94 C93 1.315 . S
O95 Cd85 2.240 . S
O95 C93 1.279 . S
O96 Cd86 2.297 . S
O96 C91 1.247 . S
O97 Cd86 2.439 . S
O97 C91 1.208 . S
O98 Cd99 2.223 . S
O98 C106 1.315 . S
Cd99 O98 2.223 . S
Cd99 O102 2.297 . S
Cd99 O103 2.439 . S
Cd99 O109 2.240 . S
Cd100 O101 2.240 . S
Cd100 O108 2.223 . S
Cd100 O110 2.297 . S
Cd100 O111 2.439 . S
O101 Cd100 2.240 . S
O101 C106 1.279 . S
O102 Cd99 2.297 . S
O102 C104 1.247 . S
O103 Cd99 2.439 . S
O103 C104 1.208 . S
C104 O102 1.247 . S
C104 O103 1.208 . S
C105 O110 1.247 . S
C105 O111 1.208 . S
C106 O98 1.315 . S
C106 O101 1.279 . S
C107 O108 1.315 . S
C107 O109 1.279 . S
O108 Cd100 2.223 . S
O108 C107 1.315 . S
O109 Cd99 2.240 . S
O109 C107 1.279 . S
O110 Cd100 2.297 . S
O110 C105 1.247 . S
O111 Cd100 2.439 . S
O111 C105 1.208 . S
O112 Cd113 2.223 . S
O112 C120 1.315 . S
Cd113 O112 2.223 . S
Cd113 O116 2.297 . S
Cd113 O117 2.439 . S
Cd113 O123 2.240 . S
Cd114 O115 2.240 . S
Cd114 O122 2.223 . S
Cd114 O124 2.297 . S
Cd114 O125 2.439 . S
O115 Cd114 2.240 . S
O115 C120 1.279 . S
O116 Cd113 2.297 . S
O116 C118 1.247 . S
O117 Cd113 2.439 . S
O117 C118 1.208 . S
C118 O116 1.247 . S
C118 O117 1.208 . S
C119 O124 1.247 . S
C119 O125 1.208 . S
C120 O112 1.315 . S
C120 O115 1.279 . S
C121 O122 1.315 . S
C121 O123 1.279 . S
O122 Cd114 2.223 . S
O122 C121 1.315 . S
O123 Cd113 2.240 . S
O123 C121 1.279 . S
O124 Cd114 2.297 . S
O124 C119 1.247 . S
O125 Cd114 2.439 . S
O125 C119 1.208 . S
O126 Cd127 2.223 . S
O126 C134 1.315 . S
Cd127 O126 2.223 . S
Cd127 O130 2.297 . S
Cd127 O131 2.439 . S
Cd127 O137 2.240 . S
Cd128 O129 2.240 . S
Cd128 O136 2.223 . S
Cd128 O138 2.297 . S
Cd128 O139 2.439 . S
O129 Cd128 2.240 . S
O129 C134 1.279 . S
O130 Cd127 2.297 . S
O130 C132 1.247 . S
O131 Cd127 2.439 . S
O131 C132 1.208 . S
C132 O130 1.247 . S
C132 O131 1.208 . S
C133 O138 1.247 . S
C133 O139 1.208 . S
C134 O126 1.315 . S
C134 O129 1.279 . S
C135 O136 1.315 . S
C135 O137 1.279 . S
O136 Cd128 2.223 . S
O136 C135 1.315 . S
O137 Cd127 2.240 . S
O137 C135 1.279 . S
O138 Cd128 2.297 . S
O138 C133 1.247 . S
O139 Cd128 2.439 . S
O139 C133 1.208 . S
O140 Cd141 2.223 . S
O140 C148 1.315 . S
Cd141 O140 2.223 . S
Cd141 O144 2.297 . S
Cd141 O145 2.439 . S
Cd141 O151 2.240 . S
Cd142 O143 2.240 . S
Cd142 O150 2.223 . S
Cd142 O152 2.297 . S
Cd142 O153 2.439 . S
O143 Cd142 2.240 . S
O143 C148 1.279 . S
O144 Cd141 2.297 . S
O144 C146 1.247 . S
O145 Cd141 2.439 . S
O145 C146 1.208 . S
C146 O144 1.247 . S
C146 O145 1.208 . S
C147 O152 1.247 . S
C147 O153 1.208 . S
C148 O140 1.315 . S
C148 O143 1.279 . S
C149 O150 1.315 . S
C149 O151 1.279 . S
O150 Cd142 2.223 . S
O150 C149 1.315 . S
O151 Cd141 2.240 . S
O151 C149 1.279 . S
O152 Cd142 2.297 . S
O152 C147 1.247 . S
O153 Cd142 2.439 . S
O153 C147 1.208 . S
O154 Cd155 2.223 . S
O154 C162 1.315 . S
Cd155 O154 2.223 . S
Cd155 O158 2.297 . S
Cd155 O159 2.439 . S
Cd155 O165 2.240 . S
Cd156 O157 2.240 . S
Cd156 O164 2.223 . S
Cd156 O166 2.297 . S
Cd156 O167 2.439 . S
O157 Cd156 2.240 . S
O157 C162 1.279 . S
O158 Cd155 2.297 . S
O158 C160 1.247 . S
O159 Cd155 2.439 . S
O159 C160 1.208 . S
C160 O158 1.247 . S
C160 O159 1.208 . S
C161 O166 1.247 . S
C161 O167 1.208 . S
C162 O154 1.315 . S
C162 O157 1.279 . S
C163 O164 1.315 . S
C163 O165 1.279 . S
O164 Cd156 2.223 . S
O164 C163 1.315 . S
O165 Cd155 2.240 . S
O165 C163 1.279 . S
O166 Cd156 2.297 . S
O166 C161 1.247 . S
O167 Cd156 2.439 . S
O167 C161 1.208 . S
C168 C169 1.349 . S
C168 C170 1.327 . S
C168 H193 0.950 . S
C169 C168 1.349 . S
C169 C185 1.349 . S
C170 C168 1.327 . S
C170 C189 1.429 . S
C170 H194 0.950 . S
C171 C188 1.574 . S
C171 C190 1.368 . S
C171 H195 0.949 . S
H172 C176 0.949 . S
C173 C174 1.349 . S
C173 C175 1.327 . S
C173 H196 0.950 . S
C174 C173 1.349 . S
C174 C186 1.349 . S
C175 C173 1.327 . S
C175 C191 1.429 . S
C175 H197 0.950 . S
C176 H172 0.949 . S
C176 C184 1.574 . S
C176 C192 1.368 . S
H177 C185 0.950 . S
H178 C183 0.950 . S
H179 C184 0.949 . S
H180 C186 0.950 . S
H181 C187 0.950 . S
H182 C188 0.949 . S
C183 H178 0.950 . S
C183 C185 1.327 . S
C183 C189 1.429 . S
C184 C176 1.574 . S
C184 H179 0.949 . S
C184 C190 1.368 . S
C185 C169 1.349 . S
C185 H177 0.950 . S
C185 C183 1.327 . S
C186 C174 1.349 . S
C186 H180 0.950 . S
C186 C187 1.327 . S
C187 H181 0.950 . S
C187 C186 1.327 . S
C187 C191 1.429 . S
C188 C171 1.574 . S
C188 H182 0.949 . S
C188 C192 1.368 . S
C189 C170 1.429 . S
C189 C183 1.429 . S
C189 C190 1.523 . S
C190 C171 1.368 . S
C190 C184 1.368 . S
C190 C189 1.523 . S
C191 C175 1.429 . S
C191 C187 1.429 . S
C191 C192 1.523 . S
C192 C176 1.368 . S
C192 C188 1.368 . S
C192 C191 1.523 . S
H193 C168 0.950 . S
H194 C170 0.950 . S
H195 C171 0.949 . S
H196 C173 0.950 . S
H197 C175 0.950 . S
C198 C199 1.349 . S
C198 C200 1.327 . S
C198 H223 0.950 . S
C199 C198 1.349 . S
C199 C215 1.349 . S
C200 C198 1.327 . S
C200 C219 1.429 . S
C200 H224 0.950 1_455 S
C201 C218 1.574 . S
C201 C220 1.368 . S
C201 H225 0.949 . S
H202 C206 0.949 . S
C203 C204 1.349 . S
C203 C205 1.327 . S
C203 H226 0.950 . S
C204 C203 1.349 . S
C204 C216 1.349 . S
C205 C203 1.327 . S
C205 C221 1.429 . S
C205 H227 0.950 1_655 S
C206 H202 0.949 . S
C206 C214 1.574 . S
C206 C222 1.368 . S
H207 C215 0.950 . S
H208 C213 0.950 . S
H209 C214 0.949 . S
H210 C216 0.950 . S
H211 C217 0.950 . S
H212 C218 0.949 . S
C213 H208 0.950 . S
C213 C215 1.327 . S
C213 C219 1.429 . S
C214 C206 1.574 . S
C214 H209 0.949 . S
C214 C220 1.368 1_655 S
C215 C199 1.349 . S
C215 H207 0.950 . S
C215 C213 1.327 . S
C216 C204 1.349 . S
C216 H210 0.950 . S
C216 C217 1.327 . S
C217 H211 0.950 . S
C217 C216 1.327 . S
C217 C221 1.429 . S
C218 C201 1.574 . S
C218 H212 0.949 . S
C218 C222 1.368 1_455 S
C219 C200 1.429 . S
C219 C213 1.429 . S
C219 C220 1.523 . S
C220 C201 1.368 . S
C220 C214 1.368 1_455 S
C220 C219 1.523 . S
C221 C205 1.429 . S
C221 C217 1.429 . S
C221 C222 1.523 . S
C222 C206 1.368 . S
C222 C218 1.368 1_655 S
C222 C221 1.523 . S
H223 C198 0.950 . S
H224 C200 0.950 1_655 S
H225 C201 0.949 . S
H226 C203 0.950 . S
H227 C205 0.950 1_455 S
C228 C229 1.349 . S
C228 C230 1.327 . S
C228 H253 0.950 . S
C229 C228 1.349 . S
C229 C245 1.349 . S
C230 C228 1.327 . S
C230 C249 1.429 . S
C230 H254 0.950 . S
C231 C248 1.574 . S
C231 C250 1.368 1_545 S
C231 H255 0.949 . S
H232 C236 0.949 . S
C233 C234 1.349 . S
C233 C235 1.327 . S
C233 H256 0.950 . S
C234 C233 1.349 . S
C234 C246 1.349 . S
C235 C233 1.327 . S
C235 C251 1.429 . S
C235 H257 0.950 . S
C236 H232 0.949 . S
C236 C244 1.574 . S
C236 C252 1.368 1_565 S
H237 C245 0.950 . S
H238 C243 0.950 1_545 S
H239 C244 0.949 . S
H240 C246 0.950 . S
H241 C247 0.950 1_565 S
H242 C248 0.949 . S
C243 H238 0.950 1_565 S
C243 C245 1.327 . S
C243 C249 1.429 . S
C244 C236 1.574 . S
C244 H239 0.949 . S
C244 C250 1.368 . S
C245 C229 1.349 . S
C245 H237 0.950 . S
C245 C243 1.327 . S
C246 C234 1.349 . S
C246 H240 0.950 . S
C246 C247 1.327 . S
C247 H241 0.950 1_545 S
C247 C246 1.327 . S
C247 C251 1.429 . S
C248 C231 1.574 . S
C248 H242 0.949 . S
C248 C252 1.368 . S
C249 C230 1.429 . S
C249 C243 1.429 . S
C249 C250 1.523 . S
C250 C231 1.368 1_565 S
C250 C244 1.368 . S
C250 C249 1.523 . S
C251 C235 1.429 . S
C251 C247 1.429 . S
C251 C252 1.523 . S
C252 C236 1.368 1_545 S
C252 C248 1.368 . S
C252 C251 1.523 . S
H253 C228 0.950 . S
H254 C230 0.950 . S
H255 C231 0.949 . S
H256 C233 0.950 . S
H257 C235 0.950 . S
C258 C259 1.349 . S
C258 C260 1.327 . S
C258 H283 0.950 . S
C259 C258 1.349 . S
C259 C275 1.349 . S
C260 C258 1.327 . S
C260 C279 1.429 . S
C260 H284 0.950 . S
C261 C278 1.574 . S
C261 C280 1.368 . S
C261 H285 0.949 . S
H262 C266 0.949 . S
C263 C264 1.349 . S
C263 C265 1.327 . S
C263 H286 0.950 . S
C264 C263 1.349 . S
C264 C276 1.349 . S
C265 C263 1.327 . S
C265 C281 1.429 . S
C265 H287 0.950 . S
C266 H262 0.949 . S
C266 C274 1.574 . S
C266 C282 1.368 . S
H267 C275 0.950 . S
H268 C273 0.950 . S
H269 C274 0.949 . S
H270 C276 0.950 . S
H271 C277 0.950 . S
H272 C278 0.949 . S
C273 H268 0.950 . S
C273 C275 1.327 . S
C273 C279 1.429 . S
C274 C266 1.574 . S
C274 H269 0.949 . S
C274 C280 1.368 . S
C275 C259 1.349 . S
C275 H267 0.950 . S
C275 C273 1.327 . S
C276 C264 1.349 . S
C276 H270 0.950 . S
C276 C277 1.327 . S
C277 H271 0.950 . S
C277 C276 1.327 . S
C277 C281 1.429 . S
C278 C261 1.574 . S
C278 H272 0.949 . S
C278 C282 1.368 . S
C279 C260 1.429 . S
C279 C273 1.429 . S
C279 C280 1.523 . S
C280 C261 1.368 . S
C280 C274 1.368 . S
C280 C279 1.523 . S
C281 C265 1.429 . S
C281 C277 1.429 . S
C281 C282 1.523 . S
C282 C266 1.368 . S
C282 C278 1.368 . S
C282 C281 1.523 . S
H283 C258 0.950 . S
H284 C260 0.950 . S
H285 C261 0.949 . S
H286 C263 0.950 . S
H287 C265 0.950 . S
C288 C289 1.349 . S
C288 C290 1.327 . S
C288 H313 0.950 . S
C289 C288 1.349 . S
C289 C305 1.349 . S
C290 C288 1.327 . S
C290 C309 1.429 . S
C290 H314 0.950 1_655 S
C291 C308 1.574 . S
C291 C310 1.368 . S
C291 H315 0.949 . S
H292 C296 0.949 . S
C293 C294 1.349 . S
C293 C295 1.327 . S
C293 H316 0.950 . S
C294 C293 1.349 . S
C294 C306 1.349 . S
C295 C293 1.327 . S
C295 C311 1.429 . S
C295 H317 0.950 1_455 S
C296 H292 0.949 . S
C296 C304 1.574 . S
C296 C312 1.368 . S
H297 C305 0.950 . S
H298 C303 0.950 . S
H299 C304 0.949 . S
H300 C306 0.950 . S
H301 C307 0.950 . S
H302 C308 0.949 . S
C303 H298 0.950 . S
C303 C305 1.327 . S
C303 C309 1.429 . S
C304 C296 1.574 . S
C304 H299 0.949 . S
C304 C310 1.368 1_455 S
C305 C289 1.349 . S
C305 H297 0.950 . S
C305 C303 1.327 . S
C306 C294 1.349 . S
C306 H300 0.950 . S
C306 C307 1.327 . S
C307 H301 0.950 . S
C307 C306 1.327 . S
C307 C311 1.429 . S
C308 C291 1.574 . S
C308 H302 0.949 . S
C308 C312 1.368 1_655 S
C309 C290 1.429 . S
C309 C303 1.429 . S
C309 C310 1.523 . S
C310 C291 1.368 . S
C310 C304 1.368 1_655 S
C310 C309 1.523 . S
C311 C295 1.429 . S
C311 C307 1.429 . S
C311 C312 1.523 . S
C312 C296 1.368 . S
C312 C308 1.368 1_455 S
C312 C311 1.523 . S
H313 C288 0.950 . S
H314 C290 0.950 1_455 S
H315 C291 0.949 . S
H316 C293 0.950 . S
H317 C295 0.950 1_655 S
C318 C319 1.349 . S
C318 C320 1.327 . S
C318 H343 0.950 . S
C319 C318 1.349 . S
C319 C335 1.349 . S
C320 C318 1.327 . S
C320 C339 1.429 . S
C320 H344 0.950 . S
C321 C338 1.574 . S
C321 C340 1.368 1_565 S
C321 H345 0.949 . S
H322 C326 0.949 . S
C323 C324 1.349 . S
C323 C325 1.327 . S
C323 H346 0.950 . S
C324 C323 1.349 . S
C324 C336 1.349 . S
C325 C323 1.327 . S
C325 C341 1.429 . S
C325 H347 0.950 . S
C326 H322 0.949 . S
C326 C334 1.574 . S
C326 C342 1.368 1_545 S
H327 C335 0.950 . S
H328 C333 0.950 1_565 S
H329 C334 0.949 . S
H330 C336 0.950 . S
H331 C337 0.950 1_545 S
H332 C338 0.949 . S
C333 H328 0.950 1_545 S
C333 C335 1.327 . S
C333 C339 1.429 . S
C334 C326 1.574 . S
C334 H329 0.949 . S
C334 C340 1.368 . S
C335 C319 1.349 . S
C335 H327 0.950 . S
C335 C333 1.327 . S
C336 C324 1.349 . S
C336 H330 0.950 . S
C336 C337 1.327 . S
C337 H331 0.950 1_565 S
C337 C336 1.327 . S
C337 C341 1.429 . S
C338 C321 1.574 . S
C338 H332 0.949 . S
C338 C342 1.368 . S
C339 C320 1.429 . S
C339 C333 1.429 . S
C339 C340 1.523 . S
C340 C321 1.368 1_545 S
C340 C334 1.368 . S
C340 C339 1.523 . S
C341 C325 1.429 . S
C341 C337 1.429 . S
C341 C342 1.523 . S
C342 C326 1.368 1_565 S
C342 C338 1.368 . S
C342 C341 1.523 . S
H343 C318 0.950 . S
H344 C320 0.950 . S
H345 C321 0.949 . S
H346 C323 0.950 . S
H347 C325 0.950 . S
C348 C349 1.349 . S
C348 C350 1.327 . S
C348 H373 0.950 . S
C349 C348 1.349 . S
C349 C365 1.349 . S
C350 C348 1.327 . S
C350 C369 1.429 . S
C350 H374 0.950 . S
C351 C368 1.574 . S
C351 C370 1.368 . S
C351 H375 0.949 . S
H352 C356 0.949 . S
C353 C354 1.349 . S
C353 C355 1.327 . S
C353 H376 0.950 . S
C354 C353 1.349 . S
C354 C366 1.349 . S
C355 C353 1.327 . S
C355 C371 1.429 . S
C355 H377 0.950 . S
C356 H352 0.949 . S
C356 C364 1.574 . S
C356 C372 1.368 . S
H357 C365 0.950 . S
H358 C363 0.950 . S
H359 C364 0.949 . S
H360 C366 0.950 . S
H361 C367 0.950 . S
H362 C368 0.949 . S
C363 H358 0.950 . S
C363 C365 1.327 . S
C363 C369 1.429 . S
C364 C356 1.574 . S
C364 H359 0.949 . S
C364 C370 1.368 . S
C365 C349 1.349 . S
C365 H357 0.950 . S
C365 C363 1.327 . S
C366 C354 1.349 . S
C366 H360 0.950 . S
C366 C367 1.327 . S
C367 H361 0.950 . S
C367 C366 1.327 . S
C367 C371 1.429 . S
C368 C351 1.574 . S
C368 H362 0.949 . S
C368 C372 1.368 . S
C369 C350 1.429 . S
C369 C363 1.429 . S
C369 C370 1.523 . S
C370 C351 1.368 . S
C370 C364 1.368 . S
C370 C369 1.523 . S
C371 C355 1.429 . S
C371 C367 1.429 . S
C371 C372 1.523 . S
C372 C356 1.368 . S
C372 C368 1.368 . S
C372 C371 1.523 . S
H373 C348 0.950 . S
H374 C350 0.950 . S
H375 C351 0.949 . S
H376 C353 0.950 . S
H377 C355 0.950 . S
C378 C379 1.349 . S
C378 C380 1.327 . S
C378 H403 0.950 . S
C379 C378 1.349 . S
C379 C395 1.349 . S
C380 C378 1.327 . S
C380 C399 1.429 . S
C380 H404 0.950 . S
C381 C398 1.574 . S
C381 C400 1.368 . S
C381 H405 0.949 . S
H382 C386 0.949 . S
C383 C384 1.349 . S
C383 C385 1.327 . S
C383 H406 0.950 . S
C384 C383 1.349 . S
C384 C396 1.349 . S
C385 C383 1.327 . S
C385 C401 1.429 . S
C385 H407 0.950 . S
C386 H382 0.949 . S
C386 C394 1.574 . S
C386 C402 1.368 . S
H387 C395 0.950 . S
H388 C393 0.950 . S
H389 C394 0.949 . S
H390 C396 0.950 . S
H391 C397 0.950 . S
H392 C398 0.949 . S
C393 H388 0.950 . S
C393 C395 1.327 . S
C393 C399 1.429 . S
C394 C386 1.574 . S
C394 H389 0.949 . S
C394 C400 1.368 . S
C395 C379 1.349 . S
C395 H387 0.950 . S
C395 C393 1.327 . S
C396 C384 1.349 . S
C396 H390 0.950 . S
C396 C397 1.327 . S
C397 H391 0.950 . S
C397 C396 1.327 . S
C397 C401 1.429 . S
C398 C381 1.574 . S
C398 H392 0.949 . S
C398 C402 1.368 . S
C399 C380 1.429 . S
C399 C393 1.429 . S
C399 C400 1.523 . S
C400 C381 1.368 . S
C400 C394 1.368 . S
C400 C399 1.523 . S
C401 C385 1.429 . S
C401 C397 1.429 . S
C401 C402 1.523 . S
C402 C386 1.368 . S
C402 C398 1.368 . S
C402 C401 1.523 . S
H403 C378 0.950 . S
H404 C380 0.950 . S
H405 C381 0.949 . S
H406 C383 0.950 . S
H407 C385 0.950 . S
C408 C409 1.349 . S
C408 C410 1.327 . S
C408 H433 0.950 . S
C409 C408 1.349 . S
C409 C425 1.349 . S
C410 C408 1.327 . S
C410 C429 1.429 . S
C410 H434 0.950 . S
C411 C428 1.574 . S
C411 C430 1.368 . S
C411 H435 0.949 . S
H412 C416 0.949 . S
C413 C414 1.349 . S
C413 C415 1.327 . S
C413 H436 0.950 . S
C414 C413 1.349 . S
C414 C426 1.349 . S
C415 C413 1.327 . S
C415 C431 1.429 . S
C415 H437 0.950 . S
C416 H412 0.949 . S
C416 C424 1.574 . S
C416 C432 1.368 . S
H417 C425 0.950 . S
H418 C423 0.950 . S
H419 C424 0.949 . S
H420 C426 0.950 . S
H421 C427 0.950 . S
H422 C428 0.949 . S
C423 H418 0.950 . S
C423 C425 1.327 . S
C423 C429 1.429 . S
C424 C416 1.574 . S
C424 H419 0.949 . S
C424 C430 1.368 . S
C425 C409 1.349 . S
C425 H417 0.950 . S
C425 C423 1.327 . S
C426 C414 1.349 . S
C426 H420 0.950 . S
C426 C427 1.327 . S
C427 H421 0.950 . S
C427 C426 1.327 . S
C427 C431 1.429 . S
C428 C411 1.574 . S
C428 H422 0.949 . S
C428 C432 1.368 . S
C429 C410 1.429 . S
C429 C423 1.429 . S
C429 C430 1.523 . S
C430 C411 1.368 . S
C430 C424 1.368 . S
C430 C429 1.523 . S
C431 C415 1.429 . S
C431 C427 1.429 . S
C431 C432 1.523 . S
C432 C416 1.368 . S
C432 C428 1.368 . S
C432 C431 1.523 . S
H433 C408 0.950 . S
H434 C410 0.950 . S
H435 C411 0.949 . S
H436 C413 0.950 . S
H437 C415 0.950 . S
C438 C439 1.349 . S
C438 C440 1.327 . S
C438 H463 0.950 . S
C439 C438 1.349 . S
C439 C455 1.349 . S
C440 C438 1.327 . S
C440 C459 1.429 . S
C440 H464 0.950 . S
C441 C458 1.574 . S
C441 C460 1.368 . S
C441 H465 0.949 . S
H442 C446 0.949 . S
C443 C444 1.349 . S
C443 C445 1.327 . S
C443 H466 0.950 . S
C444 C443 1.349 . S
C444 C456 1.349 . S
C445 C443 1.327 . S
C445 C461 1.429 . S
C445 H467 0.950 . S
C446 H442 0.949 . S
C446 C454 1.574 . S
C446 C462 1.368 . S
H447 C455 0.950 . S
H448 C453 0.950 . S
H449 C454 0.949 . S
H450 C456 0.950 . S
H451 C457 0.950 . S
H452 C458 0.949 . S
C453 H448 0.950 . S
C453 C455 1.327 . S
C453 C459 1.429 . S
C454 C446 1.574 . S
C454 H449 0.949 . S
C454 C460 1.368 . S
C455 C439 1.349 . S
C455 H447 0.950 . S
C455 C453 1.327 . S
C456 C444 1.349 . S
C456 H450 0.950 . S
C456 C457 1.327 . S
C457 H451 0.950 . S
C457 C456 1.327 . S
C457 C461 1.429 . S
C458 C441 1.574 . S
C458 H452 0.949 . S
C458 C462 1.368 . S
C459 C440 1.429 . S
C459 C453 1.429 . S
C459 C460 1.523 . S
C460 C441 1.368 . S
C460 C454 1.368 . S
C460 C459 1.523 . S
C461 C445 1.429 . S
C461 C457 1.429 . S
C461 C462 1.523 . S
C462 C446 1.368 . S
C462 C458 1.368 . S
C462 C461 1.523 . S
H463 C438 0.950 . S
H464 C440 0.950 . S
H465 C441 0.949 . S
H466 C443 0.950 . S
H467 C445 0.950 . S
C468 C469 1.349 . S
C468 C470 1.327 . S
C468 H493 0.950 . S
C469 C468 1.349 . S
C469 C485 1.349 . S
C470 C468 1.327 . S
C470 C489 1.429 . S
C470 H494 0.950 . S
C471 C488 1.574 . S
C471 C490 1.368 . S
C471 H495 0.949 . S
H472 C476 0.949 . S
C473 C474 1.349 . S
C473 C475 1.327 . S
C473 H496 0.950 . S
C474 C473 1.349 . S
C474 C486 1.349 . S
C475 C473 1.327 . S
C475 C491 1.429 . S
C475 H497 0.950 . S
C476 H472 0.949 . S
C476 C484 1.574 . S
C476 C492 1.368 . S
H477 C485 0.950 . S
H478 C483 0.950 . S
H479 C484 0.949 . S
H480 C486 0.950 . S
H481 C487 0.950 . S
H482 C488 0.949 . S
C483 H478 0.950 . S
C483 C485 1.327 . S
C483 C489 1.429 . S
C484 C476 1.574 . S
C484 H479 0.949 . S
C484 C490 1.368 . S
C485 C469 1.349 . S
C485 H477 0.950 . S
C485 C483 1.327 . S
C486 C474 1.349 . S
C486 H480 0.950 . S
C486 C487 1.327 . S
C487 H481 0.950 . S
C487 C486 1.327 . S
C487 C491 1.429 . S
C488 C471 1.574 . S
C488 H482 0.949 . S
C488 C492 1.368 . S
C489 C470 1.429 . S
C489 C483 1.429 . S
C489 C490 1.523 . S
C490 C471 1.368 . S
C490 C484 1.368 . S
C490 C489 1.523 . S
C491 C475 1.429 . S
C491 C487 1.429 . S
C491 C492 1.523 . S
C492 C476 1.368 . S
C492 C488 1.368 . S
C492 C491 1.523 . S
H493 C468 0.950 . S
H494 C470 0.950 . S
H495 C471 0.949 . S
H496 C473 0.950 . S
H497 C475 0.950 . S
C498 C499 1.349 . S
C498 C500 1.327 . S
C498 H523 0.950 . S
C499 C498 1.349 . S
C499 C515 1.349 . S
C500 C498 1.327 . S
C500 C519 1.429 . S
C500 H524 0.950 . S
C501 C518 1.574 . S
C501 C520 1.368 . S
C501 H525 0.949 . S
H502 C506 0.949 . S
C503 C504 1.349 . S
C503 C505 1.327 . S
C503 H526 0.950 . S
C504 C503 1.349 . S
C504 C516 1.349 . S
C505 C503 1.327 . S
C505 C521 1.429 . S
C505 H527 0.950 . S
C506 H502 0.949 . S
C506 C514 1.574 . S
C506 C522 1.368 . S
H507 C515 0.950 . S
H508 C513 0.950 . S
H509 C514 0.949 . S
H510 C516 0.950 . S
H511 C517 0.950 . S
H512 C518 0.949 . S
C513 H508 0.950 . S
C513 C515 1.327 . S
C513 C519 1.429 . S
C514 C506 1.574 . S
C514 H509 0.949 . S
C514 C520 1.368 . S
C515 C499 1.349 . S
C515 H507 0.950 . S
C515 C513 1.327 . S
C516 C504 1.349 . S
C516 H510 0.950 . S
C516 C517 1.327 . S
C517 H511 0.950 . S
C517 C516 1.327 . S
C517 C521 1.429 . S
C518 C501 1.574 . S
C518 H512 0.949 . S
C518 C522 1.368 . S
C519 C500 1.429 . S
C519 C513 1.429 . S
C519 C520 1.523 . S
C520 C501 1.368 . S
C520 C514 1.368 . S
C520 C519 1.523 . S
C521 C505 1.429 . S
C521 C517 1.429 . S
C521 C522 1.523 . S
C522 C506 1.368 . S
C522 C518 1.368 . S
C522 C521 1.523 . S
H523 C498 0.950 . S
H524 C500 0.950 . S
H525 C501 0.949 . S
H526 C503 0.950 . S
H527 C505 0.950 . S
C528 C529 1.349 . S
C528 C530 1.327 . S
C528 H553 0.950 . S
C529 C528 1.349 . S
C529 C545 1.349 . S
C530 C528 1.327 . S
C530 C549 1.429 . S
C530 H554 0.950 . S
C531 C548 1.574 1_565 S
C531 C550 1.368 1_554 S
C531 H555 0.949 . S
H532 C536 0.949 . S
C533 C534 1.349 . S
C533 C535 1.327 . S
C533 H556 0.950 . S
C534 C533 1.349 . S
C534 C546 1.349 . S
C535 C533 1.327 . S
C535 C551 1.429 . S
C535 H557 0.950 . S
C536 H532 0.949 . S
C536 C544 1.574 1_545 S
C536 C552 1.368 1_556 S
H537 C545 0.950 . S
H538 C543 0.950 1_554 S
H539 C544 0.949 . S
H540 C546 0.950 . S
H541 C547 0.950 1_556 S
H542 C548 0.949 . S
C543 H538 0.950 1_556 S
C543 C545 1.327 . S
C543 C549 1.429 . S
C544 C536 1.574 1_565 S
C544 H539 0.949 . S
C544 C550 1.368 . S
C545 C529 1.349 . S
C545 H537 0.950 . S
C545 C543 1.327 . S
C546 C534 1.349 . S
C546 H540 0.950 . S
C546 C547 1.327 . S
C547 H541 0.950 1_554 S
C547 C546 1.327 . S
C547 C551 1.429 . S
C548 C531 1.574 1_545 S
C548 H542 0.949 . S
C548 C552 1.368 . S
C549 C530 1.429 . S
C549 C543 1.429 . S
C549 C550 1.523 . S
C550 C531 1.368 1_556 S
C550 C544 1.368 . S
C550 C549 1.523 . S
C551 C535 1.429 . S
C551 C547 1.429 . S
C551 C552 1.523 . S
C552 C536 1.368 1_554 S
C552 C548 1.368 . S
C552 C551 1.523 . S
H553 C528 0.950 . S
H554 C530 0.950 . S
H555 C531 0.949 . S
H556 C533 0.950 . S
H557 C535 0.950 . S
C558 C559 1.349 . S
C558 C560 1.327 . S
C558 H583 0.950 . S
C559 C558 1.349 . S
C559 C575 1.349 . S
C560 C558 1.327 . S
C560 C579 1.429 . S
C560 H584 0.950 . S
C561 C578 1.574 . S
C561 C580 1.368 . S
C561 H585 0.949 . S
H562 C566 0.949 . S
C563 C564 1.349 . S
C563 C565 1.327 . S
C563 H586 0.950 . S
C564 C563 1.349 . S
C564 C576 1.349 . S
C565 C563 1.327 . S
C565 C581 1.429 . S
C565 H587 0.950 . S
C566 H562 0.949 . S
C566 C574 1.574 . S
C566 C582 1.368 . S
H567 C575 0.950 . S
H568 C573 0.950 . S
H569 C574 0.949 . S
H570 C576 0.950 . S
H571 C577 0.950 . S
H572 C578 0.949 . S
C573 H568 0.950 . S
C573 C575 1.327 . S
C573 C579 1.429 . S
C574 C566 1.574 . S
C574 H569 0.949 . S
C574 C580 1.368 . S
C575 C559 1.349 . S
C575 H567 0.950 . S
C575 C573 1.327 . S
C576 C564 1.349 . S
C576 H570 0.950 . S
C576 C577 1.327 . S
C577 H571 0.950 . S
C577 C576 1.327 . S
C577 C581 1.429 . S
C578 C561 1.574 . S
C578 H572 0.949 . S
C578 C582 1.368 . S
C579 C560 1.429 . S
C579 C573 1.429 . S
C579 C580 1.523 . S
C580 C561 1.368 . S
C580 C574 1.368 . S
C580 C579 1.523 . S
C581 C565 1.429 . S
C581 C577 1.429 . S
C581 C582 1.523 . S
C582 C566 1.368 . S
C582 C578 1.368 . S
C582 C581 1.523 . S
H583 C558 0.950 . S
H584 C560 0.950 . S
H585 C561 0.949 . S
H586 C563 0.950 . S
H587 C565 0.950 . S
C588 C589 1.349 . S
C588 C590 1.327 . S
C588 H613 0.950 . S
C589 C588 1.349 . S
C589 C605 1.349 . S
C590 C588 1.327 . S
C590 C609 1.429 . S
C590 H614 0.950 . S
C591 C608 1.574 1_655 S
C591 C610 1.368 . S
C591 H615 0.949 . S
H592 C596 0.949 . S
C593 C594 1.349 . S
C593 C595 1.327 . S
C593 H616 0.950 . S
C594 C593 1.349 . S
C594 C606 1.349 . S
C595 C593 1.327 . S
C595 C611 1.429 . S
C595 H617 0.950 . S
C596 H592 0.949 . S
C596 C604 1.574 1_455 S
C596 C612 1.368 . S
H597 C605 0.950 . S
H598 C603 0.950 . S
H599 C604 0.949 . S
H600 C606 0.950 . S
H601 C607 0.950 . S
H602 C608 0.949 . S
C603 H598 0.950 . S
C603 C605 1.327 . S
C603 C609 1.429 . S
C604 C596 1.574 1_655 S
C604 H599 0.949 . S
C604 C610 1.368 . S
C605 C589 1.349 . S
C605 H597 0.950 . S
C605 C603 1.327 . S
C606 C594 1.349 . S
C606 H600 0.950 . S
C606 C607 1.327 . S
C607 H601 0.950 . S
C607 C606 1.327 . S
C607 C611 1.429 . S
C608 C591 1.574 1_455 S
C608 H602 0.949 . S
C608 C612 1.368 . S
C609 C590 1.429 . S
C609 C603 1.429 . S
C609 C610 1.523 . S
C610 C591 1.368 . S
C610 C604 1.368 . S
C610 C609 1.523 . S
C611 C595 1.429 . S
C611 C607 1.429 . S
C611 C612 1.523 . S
C612 C596 1.368 . S
C612 C608 1.368 . S
C612 C611 1.523 . S
H613 C588 0.950 . S
H614 C590 0.950 . S
H615 C591 0.949 . S
H616 C593 0.950 . S
H617 C595 0.950 . S
C618 C619 1.349 . S
C618 C620 1.327 . S
C618 H643 0.950 . S
C619 C618 1.349 . S
C619 C635 1.349 . S
C620 C618 1.327 . S
C620 C639 1.429 . S
C620 H644 0.950 . S
C621 C638 1.574 1_565 S
C621 C640 1.368 1_556 S
C621 H645 0.949 . S
H622 C626 0.949 . S
C623 C624 1.349 . S
C623 C625 1.327 . S
C623 H646 0.950 . S
C624 C623 1.349 . S
C624 C636 1.349 . S
C625 C623 1.327 . S
C625 C641 1.429 . S
C625 H647 0.950 . S
C626 H622 0.949 . S
C626 C634 1.574 1_545 S
C626 C642 1.368 1_554 S
H627 C635 0.950 . S
H628 C633 0.950 1_556 S
H629 C634 0.949 . S
H630 C636 0.950 . S
H631 C637 0.950 1_554 S
H632 C638 0.949 . S
C633 H628 0.950 1_554 S
C633 C635 1.327 . S
C633 C639 1.429 . S
C634 C626 1.574 1_565 S
C634 H629 0.949 . S
C634 C640 1.368 . S
C635 C619 1.349 . S
C635 H627 0.950 . S
C635 C633 1.327 . S
C636 C624 1.349 . S
C636 H630 0.950 . S
C636 C637 1.327 . S
C637 H631 0.950 1_556 S
C637 C636 1.327 . S
C637 C641 1.429 . S
C638 C621 1.574 1_545 S
C638 H632 0.949 . S
C638 C642 1.368 . S
C639 C620 1.429 . S
C639 C633 1.429 . S
C639 C640 1.523 . S
C640 C621 1.368 1_554 S
C640 C634 1.368 . S
C640 C639 1.523 . S
C641 C625 1.429 . S
C641 C637 1.429 . S
C641 C642 1.523 . S
C642 C626 1.368 1_556 S
C642 C638 1.368 . S
C642 C641 1.523 . S
H643 C618 0.950 . S
H644 C620 0.950 . S
H645 C621 0.949 . S
H646 C623 0.950 . S
H647 C625 0.950 . S
C648 C649 1.349 . S
C648 C650 1.327 . S
C648 H673 0.950 . S
C649 C648 1.349 . S
C649 C665 1.349 . S
C650 C648 1.327 . S
C650 C669 1.429 . S
C650 H674 0.950 . S
C651 C668 1.574 . S
C651 C670 1.368 . S
C651 H675 0.949 . S
H652 C656 0.949 . S
C653 C654 1.349 . S
C653 C655 1.327 . S
C653 H676 0.950 . S
C654 C653 1.349 . S
C654 C666 1.349 . S
C655 C653 1.327 . S
C655 C671 1.429 . S
C655 H677 0.950 . S
C656 H652 0.949 . S
C656 C664 1.574 . S
C656 C672 1.368 . S
H657 C665 0.950 . S
H658 C663 0.950 . S
H659 C664 0.949 . S
H660 C666 0.950 . S
H661 C667 0.950 . S
H662 C668 0.949 . S
C663 H658 0.950 . S
C663 C665 1.327 . S
C663 C669 1.429 . S
C664 C656 1.574 . S
C664 H659 0.949 . S
C664 C670 1.368 . S
C665 C649 1.349 . S
C665 H657 0.950 . S
C665 C663 1.327 . S
C666 C654 1.349 . S
C666 H660 0.950 . S
C666 C667 1.327 . S
C667 H661 0.950 . S
C667 C666 1.327 . S
C667 C671 1.429 . S
C668 C651 1.574 . S
C668 H662 0.949 . S
C668 C672 1.368 . S
C669 C650 1.429 . S
C669 C663 1.429 . S
C669 C670 1.523 . S
C670 C651 1.368 . S
C670 C664 1.368 . S
C670 C669 1.523 . S
C671 C655 1.429 . S
C671 C667 1.429 . S
C671 C672 1.523 . S
C672 C656 1.368 . S
C672 C668 1.368 . S
C672 C671 1.523 . S
H673 C648 0.950 . S
H674 C650 0.950 . S
H675 C651 0.949 . S
H676 C653 0.950 . S
H677 C655 0.950 . S
C678 C679 1.349 . S
C678 C680 1.327 . S
C678 H703 0.950 . S
C679 C678 1.349 . S
C679 C695 1.349 . S
C680 C678 1.327 . S
C680 C699 1.429 . S
C680 H704 0.950 . S
C681 C698 1.574 1_455 S
C681 C700 1.368 . S
C681 H705 0.949 . S
H682 C686 0.949 . S
C683 C684 1.349 . S
C683 C685 1.327 . S
C683 H706 0.950 . S
C684 C683 1.349 . S
C684 C696 1.349 . S
C685 C683 1.327 . S
C685 C701 1.429 . S
C685 H707 0.950 . S
C686 H682 0.949 . S
C686 C694 1.574 1_655 S
C686 C702 1.368 . S
H687 C695 0.950 . S
H688 C693 0.950 . S
H689 C694 0.949 . S
H690 C696 0.950 . S
H691 C697 0.950 . S
H692 C698 0.949 . S
C693 H688 0.950 . S
C693 C695 1.327 . S
C693 C699 1.429 . S
C694 C686 1.574 1_455 S
C694 H689 0.949 . S
C694 C700 1.368 . S
C695 C679 1.349 . S
C695 H687 0.950 . S
C695 C693 1.327 . S
C696 C684 1.349 . S
C696 H690 0.950 . S
C696 C697 1.327 . S
C697 H691 0.950 . S
C697 C696 1.327 . S
C697 C701 1.429 . S
C698 C681 1.574 1_655 S
C698 H692 0.949 . S
C698 C702 1.368 . S
C699 C680 1.429 . S
C699 C693 1.429 . S
C699 C700 1.523 . S
C700 C681 1.368 . S
C700 C694 1.368 . S
C700 C699 1.523 . S
C701 C685 1.429 . S
C701 C697 1.429 . S
C701 C702 1.523 . S
C702 C686 1.368 . S
C702 C698 1.368 . S
C702 C701 1.523 . S
H703 C678 0.950 . S
H704 C680 0.950 . S
H705 C681 0.949 . S
H706 C683 0.950 . S
H707 C685 0.950 . S
C708 C709 1.353 . S
C708 C710 1.327 . S
C708 H733 0.950 . S
C709 C708 1.353 . S
C709 C725 1.358 . S
C710 C708 1.327 . S
C710 C729 1.429 . S
C710 H734 0.950 . S
C711 C728 1.574 . S
C711 C730 1.368 . S
C711 H735 0.949 . S
H712 C716 0.949 . S
C713 C714 1.349 . S
C713 C715 1.327 . S
C713 H736 0.950 . S
C714 C713 1.349 . S
C714 C726 1.349 . S
C715 C713 1.327 . S
C715 C731 1.429 . S
C715 H737 0.950 . S
C716 H712 0.949 . S
C716 C724 1.574 . S
C716 C732 1.368 . S
H717 C725 0.950 1_655 S
H718 C723 0.950 . S
H719 C724 0.949 . S
H720 C726 0.950 . S
H721 C727 0.950 . S
H722 C728 0.949 . S
C723 H718 0.950 . S
C723 C725 1.327 . S
C723 C729 1.429 . S
C724 C716 1.574 . S
C724 H719 0.949 . S
C724 C730 1.368 1_554 S
C725 C709 1.358 . S
C725 H717 0.950 1_455 S
C725 C723 1.327 . S
C726 C714 1.349 . S
C726 H720 0.950 . S
C726 C727 1.327 . S
C727 H721 0.950 . S
C727 C726 1.327 . S
C727 C731 1.429 . S
C728 C711 1.574 . S
C728 H722 0.949 . S
C728 C732 1.368 1_556 S
C729 C710 1.429 . S
C729 C723 1.429 . S
C729 C730 1.523 . S
C730 C711 1.368 . S
C730 C724 1.368 1_556 S
C730 C729 1.523 . S
C731 C715 1.429 . S
C731 C727 1.429 . S
C731 C732 1.523 . S
C732 C716 1.368 . S
C732 C728 1.368 1_554 S
C732 C731 1.523 . S
H733 C708 0.950 . S
H734 C710 0.950 . S
H735 C711 0.949 . S
H736 C713 0.950 . S
H737 C715 0.950 . S
C738 C739 1.343 1_565 S
C738 C740 1.327 1_565 S
C738 H763 0.950 . S
C739 C738 1.343 1_545 S
C739 C755 1.361 . S
C740 C738 1.327 1_545 S
C740 C759 1.429 . S
C740 H764 0.950 . S
C741 C758 1.574 . S
C741 C760 1.368 . S
C741 H765 0.949 . S
H742 C746 0.949 . S
C743 C744 1.359 . S
C743 C745 1.327 . S
C743 H766 0.950 . S
C744 C743 1.359 . S
C744 C756 1.345 . S
C745 C743 1.327 . S
C745 C761 1.429 . S
C745 H767 0.950 . S
C746 H742 0.949 . S
C746 C754 1.574 . S
C746 C762 1.368 . S
H747 C755 0.950 . S
H748 C753 0.950 . S
H749 C754 0.949 . S
H750 C756 0.950 1_455 S
H751 C757 0.950 . S
H752 C758 0.949 . S
C753 H748 0.950 . S
C753 C755 1.327 . S
C753 C759 1.429 . S
C754 C746 1.574 . S
C754 H749 0.949 . S
C754 C760 1.368 . S
C755 C739 1.361 . S
C755 H747 0.950 . S
C755 C753 1.327 . S
C756 C744 1.345 . S
C756 H750 0.950 1_655 S
C756 C757 1.327 . S
C757 H751 0.950 . S
C757 C756 1.327 . S
C757 C761 1.429 . S
C758 C741 1.574 . S
C758 H752 0.949 . S
C758 C762 1.368 . S
C759 C740 1.429 . S
C759 C753 1.429 . S
C759 C760 1.523 . S
C760 C741 1.368 . S
C760 C754 1.368 . S
C760 C759 1.523 . S
C761 C745 1.429 . S
C761 C757 1.429 . S
C761 C762 1.523 . S
C762 C746 1.368 . S
C762 C758 1.368 . S
C762 C761 1.523 . S
H763 C738 0.950 . S
H764 C740 0.950 . S
H765 C741 0.949 . S
H766 C743 0.950 . S
H767 C745 0.950 . S
C768 C769 1.349 . S
C768 C770 1.327 . S
C768 H793 0.950 . S
C769 C768 1.349 . S
C769 C785 1.349 . S
C770 C768 1.327 . S
C770 C789 1.429 . S
C770 H794 0.950 . S
C771 C788 1.574 . S
C771 C790 1.368 . S
C771 H795 0.949 . S
H772 C776 0.949 . S
C773 C774 1.359 . S
C773 C775 1.327 . S
C773 H796 0.950 . S
C774 C773 1.359 . S
C774 C786 1.351 . S
C775 C773 1.327 . S
C775 C791 1.429 . S
C775 H797 0.950 . S
C776 H772 0.949 . S
C776 C784 1.574 . S
C776 C792 1.368 . S
H777 C785 0.950 . S
H778 C783 0.950 . S
H779 C784 0.949 . S
H780 C786 0.950 1_545 S
H781 C787 0.950 . S
H782 C788 0.949 . S
C783 H778 0.950 . S
C783 C785 1.327 . S
C783 C789 1.429 . S
C784 C776 1.574 . S
C784 H779 0.949 . S
C784 C790 1.368 . S
C785 C769 1.349 . S
C785 H777 0.950 . S
C785 C783 1.327 . S
C786 C774 1.351 . S
C786 H780 0.950 1_565 S
C786 C787 1.327 . S
C787 H781 0.950 . S
C787 C786 1.327 . S
C787 C791 1.429 . S
C788 C771 1.574 . S
C788 H782 0.949 . S
C788 C792 1.368 . S
C789 C770 1.429 . S
C789 C783 1.429 . S
C789 C790 1.523 . S
C790 C771 1.368 . S
C790 C784 1.368 . S
C790 C789 1.523 . S
C791 C775 1.429 . S
C791 C787 1.429 . S
C791 C792 1.523 . S
C792 C776 1.368 . S
C792 C788 1.368 . S
C792 C791 1.523 . S
H793 C768 0.950 . S
H794 C770 0.950 . S
H795 C771 0.949 . S
H796 C773 0.950 . S
H797 C775 0.950 . S
C798 C799 1.349 . S
C798 C800 1.327 . S
C798 H823 0.950 . S
C799 C798 1.349 . S
C799 C815 1.349 . S
C800 C798 1.327 . S
C800 C819 1.429 . S
C800 H824 0.950 . S
C801 C818 1.574 . S
C801 C820 1.368 1_556 S
C801 H825 0.949 . S
H802 C806 0.949 . S
C803 C804 1.358 . S
C803 C805 1.327 . S
C803 H826 0.950 . S
C804 C803 1.358 . S
C804 C816 1.353 1_655 S
C805 C803 1.327 . S
C805 C821 1.429 . S
C805 H827 0.950 . S
C806 H802 0.949 . S
C806 C814 1.574 . S
C806 C822 1.368 1_554 S
H807 C815 0.950 . S
H808 C813 0.950 . S
H809 C814 0.949 . S
H810 C816 0.950 . S
H811 C817 0.950 . S
H812 C818 0.949 . S
C813 H808 0.950 . S
C813 C815 1.327 . S
C813 C819 1.429 . S
C814 C806 1.574 . S
C814 H809 0.949 . S
C814 C820 1.368 . S
C815 C799 1.349 . S
C815 H807 0.950 . S
C815 C813 1.327 . S
C816 C804 1.353 1_455 S
C816 H810 0.950 . S
C816 C817 1.327 1_455 S
C817 H811 0.950 . S
C817 C816 1.327 1_655 S
C817 C821 1.429 . S
C818 C801 1.574 . S
C818 H812 0.949 . S
C818 C822 1.368 . S
C819 C800 1.429 . S
C819 C813 1.429 . S
C819 C820 1.523 . S
C820 C801 1.368 1_554 S
C820 C814 1.368 . S
C820 C819 1.523 . S
C821 C805 1.429 . S
C821 C817 1.429 . S
C821 C822 1.523 . S
C822 C806 1.368 1_556 S
C822 C818 1.368 . S
C822 C821 1.523 . S
H823 C798 0.950 . S
H824 C800 0.950 . S
H825 C801 0.949 . S
H826 C803 0.950 . S
H827 C805 0.950 . S
C828 C829 1.361 . S
C828 C830 1.344 . S
C828 H853 0.914 1_455 S
C829 C828 1.361 . S
C829 C845 1.361 . S
C830 C828 1.344 . S
C830 C849 1.429 . S
C830 H854 0.950 . S
C831 C848 1.574 . S
C831 C850 1.368 . S
C831 H855 0.949 . S
H832 C836 0.949 . S
C833 C834 1.362 . S
C833 C835 1.327 . S
C833 H856 0.950 . S
C834 C833 1.362 . S
C834 C846 1.342 1_565 S
C835 C833 1.327 . S
C835 C851 1.429 . S
C835 H857 0.950 . S
C836 H832 0.949 . S
C836 C844 1.574 . S
C836 C852 1.368 . S
H837 C845 0.950 . S
H838 C843 0.950 . S
H839 C844 0.949 . S
H840 C846 0.950 . S
H841 C847 0.950 . S
H842 C848 0.949 . S
C843 H838 0.950 . S
C843 C845 1.327 . S
C843 C849 1.429 . S
C844 C836 1.574 . S
C844 H839 0.949 . S
C844 C850 1.368 . S
C845 C829 1.361 . S
C845 H837 0.950 . S
C845 C843 1.327 . S
C846 C834 1.342 1_545 S
C846 H840 0.950 . S
C846 C847 1.327 1_545 S
C847 H841 0.950 . S
C847 C846 1.327 1_565 S
C847 C851 1.429 . S
C848 C831 1.574 . S
C848 H842 0.949 . S
C848 C852 1.368 . S
C849 C830 1.429 . S
C849 C843 1.429 . S
C849 C850 1.523 . S
C850 C831 1.368 . S
C850 C844 1.368 . S
C850 C849 1.523 . S
C851 C835 1.429 . S
C851 C847 1.429 . S
C851 C852 1.523 . S
C852 C836 1.368 . S
C852 C848 1.368 . S
C852 C851 1.523 . S
H853 C828 0.914 1_655 S
H854 C830 0.950 . S
H855 C831 0.949 . S
H856 C833 0.950 . S
H857 C835 0.950 . S
C858 C859 1.355 . S
C858 C860 1.327 . S
C858 H883 0.950 . S
C859 C858 1.355 . S
C859 C875 1.361 1_545 S
C860 C858 1.327 . S
C860 C879 1.429 . S
C860 H884 0.950 . S
C861 C878 1.574 . S
C861 C880 1.368 . S
C861 H885 0.949 . S
H862 C866 0.949 . S
C863 C864 1.349 . S
C863 C865 1.327 . S
C863 H886 0.950 . S
C864 C863 1.349 . S
C864 C876 1.349 . S
C865 C863 1.327 . S
C865 C881 1.429 . S
C865 H887 0.950 . S
C866 H862 0.949 . S
C866 C874 1.574 . S
C866 C882 1.368 . S
H867 C875 0.955 . S
H868 C873 0.950 . S
H869 C874 0.949 . S
H870 C876 0.950 . S
H871 C877 0.950 . S
H872 C878 0.949 . S
C873 H868 0.950 . S
C873 C875 1.317 1_545 S
C873 C879 1.429 . S
C874 C866 1.574 . S
C874 H869 0.949 . S
C874 C880 1.368 . S
C875 C859 1.361 1_565 S
C875 H867 0.955 . S
C875 C873 1.317 1_565 S
C876 C864 1.349 . S
C876 H870 0.950 . S
C876 C877 1.327 . S
C877 H871 0.950 . S
C877 C876 1.327 . S
C877 C881 1.429 . S
C878 C861 1.574 . S
C878 H872 0.949 . S
C878 C882 1.368 . S
C879 C860 1.429 . S
C879 C873 1.429 . S
C879 C880 1.523 . S
C880 C861 1.368 . S
C880 C874 1.368 . S
C880 C879 1.523 . S
C881 C865 1.429 . S
C881 C877 1.429 . S
C881 C882 1.523 . S
C882 C866 1.368 . S
C882 C878 1.368 . S
C882 C881 1.523 . S
H883 C858 0.950 . S
H884 C860 0.950 . S
H885 C861 0.949 . S
H886 C863 0.950 . S
H887 C865 0.950 . S
C169 C49 1.234 . S
C174 C7 1.234 . S
C199 C21 1.234 . S
C204 C63 1.234 . S
C229 C77 1.234 . S
C234 C35 1.234 . S
C259 C91 1.234 . S
C264 C133 1.234 . S
C289 C147 1.234 . S
C294 C105 1.234 . S
C319 C119 1.234 . S
C324 C161 1.234 . S
C349 C118 1.605 . S
C354 C6 1.605 . S
C379 C20 1.605 . S
C384 C132 1.605 . S
C409 C34 1.605 . S
C414 C146 1.605 . S
C439 C48 1.605 . S
C444 C160 1.605 . S
C469 C90 1.605 . S
C474 C62 1.605 . S
C499 C104 1.605 . S
C504 C76 1.605 . S
C529 C106 1.625 . S
C534 C8 1.625 . S
C559 C22 1.625 . S
C564 C120 1.625 . S
C589 C36 1.625 . S
C594 C134 1.624 . S
C619 C50 1.625 . S
C624 C148 1.625 . S
C649 C162 1.625 . S
C654 C64 1.625 . S
C679 C78 1.624 . S
C684 C92 1.624 . S
C709 C149 1.450 1_455 S
C714 C9 1.463 . S
C739 C163 1.457 1_545 S
C744 C23 1.457 1_655 S
C769 C93 1.463 . S
C774 C37 1.450 1_565 S
C799 C51 1.463 . S
C804 C107 1.450 1_655 S
C829 C65 1.457 1_455 S
C834 C121 1.457 1_565 S
C859 C79 1.450 1_545 S
C864 C135 1.463 . S
