# Generated by pormake.
# Topology snp, (6)-cn, num edge types: 1
# Building blocks:
#     Node 0, Type 0, BuildingBlock: VOLQOD_clean_sbu_1, # of connection points: 6
#     Node 1, Type 0, BuildingBlock: VOLQOD_clean_sbu_1, # of connection points: 6
#     Node 2, Type 0, BuildingBlock: VOLQOD_clean_sbu_1, # of connection points: 6
#     Node 3, Type 0, BuildingBlock: VOLQOD_clean_sbu_1, # of connection points: 6
#     Edge 4, Type (0, 0), BuildingBlock: UVAHIK_clean_linker_0, # of connection points: 2
#     Edge 5, Type (0, 0), BuildingBlock: UVAHIK_clean_linker_0, # of connection points: 2
#     Edge 6, Type (0, 0), BuildingBlock: UVAHIK_clean_linker_0, # of connection points: 2
#     Edge 7, Type (0, 0), BuildingBlock: UVAHIK_clean_linker_0, # of connection points: 2
#     Edge 8, Type (0, 0), BuildingBlock: UVAHIK_clean_linker_0, # of connection points: 2
#     Edge 9, Type (0, 0), BuildingBlock: UVAHIK_clean_linker_0, # of connection points: 2
#     Edge 10, Type (0, 0), BuildingBlock: UVAHIK_clean_linker_0, # of connection points: 2
#     Edge 11, Type (0, 0), BuildingBlock: UVAHIK_clean_linker_0, # of connection points: 2
#     Edge 12, Type (0, 0), BuildingBlock: UVAHIK_clean_linker_0, # of connection points: 2
#     Edge 13, Type (0, 0), BuildingBlock: UVAHIK_clean_linker_0, # of connection points: 2
#     Edge 14, Type (0, 0), BuildingBlock: UVAHIK_clean_linker_0, # of connection points: 2
#     Edge 15, Type (0, 0), BuildingBlock: UVAHIK_clean_linker_0, # of connection points: 2
# Relax obj value: 0.789
# Max RMSD: 0.301
# Mean RMSD: 0.301
data_MOF--net-snp--node1-VOLQOD_clean_sbu_1--edge1-UVAHIK_clean_linker_0
_symmetry_space_group_name_H-M    P1
_symmetry_Int_Tables_number       1
_symmetry_cell_setting            triclinic
loop_
_symmetry_equiv_pos_as_xyz
'x, y, z'
_cell_length_a     38.336542
_cell_length_b     37.787728
_cell_length_c     32.11432
_cell_angle_alpha  89.723017
_cell_angle_beta   91.040109
_cell_angle_gamma 101.50652
loop_
_atom_site_label
_atom_site_type_symbol
_atom_site_fract_x
_atom_site_fract_y
_atom_site_fract_z
_atom_type_partial_charge
O0 O 0.13828 0.05912 -0.0024 0.0
Zn1 Zn 0.17647 0.03169 0.01128 0.0
O2 O 0.22243 0.06438 0.0089 0.0
Zn3 Zn 0.24676 0.05392 0.95914 0.0
Zn4 Zn 0.21724 0.11434 0.00308 0.0
Zn5 Zn 0.24873 0.05932 0.06041 0.0
O6 O 0.29513 0.04656 0.97655 0.0
O7 O 0.29618 0.04774 0.046 0.0
O8 O 0.17175 -0.0073 0.96739 0.0
O9 O 0.22072 0.00863 0.93049 0.0
O10 O 0.2512 0.09458 0.91648 0.0
O11 O 0.24466 0.1404 0.95618 0.0
O12 O 0.23178 0.14288 0.0548 0.0
O13 O 0.16822 0.00692 0.06694 0.0
O14 O 0.25682 0.10566 0.09369 0.0
O15 O 0.22108 0.02095 0.0987 0.0
C16 C 0.13854 0.09161 -0.01329 0.0
C17 C 0.31098 0.04415 0.0114 0.0
C18 C 0.25197 0.12819 0.92132 0.0
C19 C 0.19116 -0.01268 0.93721 0.0
C20 C 0.24811 0.13616 0.08782 0.0
C21 C 0.18879 0.00392 0.09781 0.0
O22 O 0.16699 0.11554 -0.01341 0.0
O23 O 0.05584 0.15478 0.50775 0.0
Zn24 Zn 0.02137 0.18622 0.49113 0.0
O25 O 0.0459 0.23649 0.49425 0.0
Zn26 Zn 0.0304 0.25917 0.54278 0.0
Zn27 Zn 0.09702 0.24113 0.50189 0.0
Zn28 Zn 0.03704 0.26014 0.44266 0.0
O29 O 0.01609 0.30531 0.52489 0.0
O30 O 0.01864 0.30476 0.45561 0.0
O31 O -0.01866 0.17608 0.53286 0.0
O32 O -0.01181 0.22707 0.56882 0.0
O33 O 0.06947 0.26868 0.58735 0.0
O34 O 0.1176 0.27317 0.54919 0.0
O35 O 0.12378 0.25799 0.45039 0.0
O36 O -0.00071 0.17312 0.43394 0.0
O37 O 0.08201 0.27344 0.4094 0.0
O38 O 0.00196 0.22718 0.40534 0.0
C39 C 0.08837 0.16168 0.51978 0.0
C40 C 0.01201 0.31946 0.48943 0.0
C41 C 0.10324 0.2759 0.58407 0.0
C42 C -0.02823 0.19483 0.56186 0.0
C43 C 0.11418 0.27059 0.41622 0.0
C44 C -0.00852 0.19298 0.40437 0.0
O45 O 0.10694 0.19352 0.51965 0.0
O46 O 0.82544 0.97776 0.9343 0.0
Zn47 Zn 0.7863 -0.00572 0.96205 0.0
O48 O 0.75059 0.95176 0.97173 0.0
Zn49 Zn 0.71647 0.94936 0.92626 0.0
Zn50 Zn 0.77117 0.90855 0.97238 0.0
Zn51 Zn 0.73046 0.95773 0.02501 0.0
O52 O 0.67103 0.96001 0.94859 0.0
O53 O 0.68056 0.96545 0.01714 0.0
O54 O 0.77157 0.02772 0.91934 0.0
O55 O 0.73555 -0.01373 0.88181 0.0
O56 O 0.70702 0.90002 0.89933 0.0
O57 O 0.74235 0.87067 0.93529 0.0
O58 O 0.77159 0.88827 0.03093 0.0
O59 O 0.80441 0.02074 0.01509 0.0
O60 O 0.73178 0.91475 0.06126 0.0
O61 O 0.76026 -0.0009 0.05753 0.0
C62 C 0.83602 0.94827 0.92975 0.0
C63 C 0.66059 0.96571 -0.01499 0.0
C64 C 0.719 0.87143 0.90675 0.0
C65 C 0.75547 0.01752 0.88512 0.0
C66 C 0.75201 0.89177 0.06181 0.0
C67 C 0.78987 0.02026 0.0505 0.0
O68 O 0.81992 0.91877 0.94585 0.0
O69 O -0.00424 0.84118 0.56831 0.0
Zn70 Zn 0.00057 0.79823 0.53653 0.0
O71 O 0.95298 0.77156 0.5278 0.0
Zn72 Zn 0.94573 0.73647 0.57224 0.0
Zn73 Zn 0.91807 0.80214 0.53116 0.0
Zn74 Zn 0.95125 0.75072 0.47352 0.0
O75 O 0.94752 0.68818 0.5477 0.0
O76 O 0.94993 0.69755 0.47907 0.0
O77 O 0.02946 0.77386 0.57602 0.0
O78 O -0.01547 0.75061 0.61645 0.0
O79 O 0.89776 0.73373 0.59889 0.0
O80 O 0.87745 0.77762 0.56612 0.0
O81 O 0.89659 0.8085 0.47397 0.0
O82 O 0.02629 0.81307 0.48281 0.0
O83 O 0.90868 0.76029 0.44195 0.0
O84 O -0.00721 0.77524 0.4388 0.0
C85 C -0.02865 0.85818 0.57671 0.0
C86 C 0.94866 0.67664 0.51056 0.0
C87 C 0.87332 0.75158 0.59204 0.0
C88 C 0.01767 0.76308 0.61168 0.0
C89 C 0.89241 0.78656 0.44326 0.0
C90 C 0.01967 0.80042 0.44616 0.0
O91 O 0.93975 0.84871 0.5619 0.0
C92 C 0.89832 0.9415 0.91888 0.0
C93 C 0.86661 0.94946 0.90287 0.0
C94 C 0.9305 0.95644 0.89999 0.0
C95 C 0.95946 0.04419 0.86464 0.0
H96 H 0.05206 0.01815 0.87213 0.0
C97 C 0.11194 0.10656 0.9204 0.0
C98 C 0.10761 0.0981 0.96293 0.0
C99 C 0.08305 0.09769 0.8927 0.0
C100 C 0.02649 0.02602 0.86846 0.0
H101 H 0.84217 0.97369 0.85164 0.0
H102 H 0.89832 -0.00014 0.81889 0.0
H103 H -0.00032 0.97197 0.85404 0.0
H104 H 0.06978 0.07831 0.01088 0.0
H105 H 0.01872 0.06507 0.96283 0.0
H106 H -0.01439 0.09685 0.88515 0.0
C107 C 0.89864 -0.01755 0.84575 0.0
C108 C -0.00337 -0.00039 0.85827 0.0
C109 C 0.86663 0.9676 0.86458 0.0
C110 C 0.07347 0.08546 0.97832 0.0
C111 C 0.04444 0.07784 0.95085 0.0
C112 C -0.01082 0.07032 0.87578 0.0
C113 C 0.9309 -0.02051 0.86529 0.0
C114 C 0.96267 0.00806 0.85886 0.0
C115 C 0.04957 0.0817 0.90775 0.0
C116 C 0.02244 0.06075 0.88005 0.0
H117 H 0.89873 0.92763 0.94843 0.0
H118 H 0.95509 0.95384 0.91576 0.0
H119 H 0.93352 0.0514 0.86571 0.0
H120 H 0.13828 0.11574 0.90789 0.0
H121 H 0.08744 0.10039 0.85951 0.0
C122 C -0.03002 0.92131 0.59836 0.0
C123 C -0.01901 0.88865 0.60563 0.0
C124 C -0.01236 0.95259 0.61871 0.0
C125 C 0.07864 -0.01588 0.64006 0.0
H126 H 0.04679 0.07449 0.65169 0.0
C127 C 0.11278 0.14161 0.58534 0.0
C128 C 0.1014 0.13392 0.5439 0.0
C129 C 0.11251 0.11351 0.61378 0.0
C130 C 0.05664 0.04957 0.65006 0.0
H131 H 0.01442 0.8613 0.64433 0.0
H132 H 0.04526 0.91589 0.6795 0.0
H133 H 0.00739 0.01813 0.67141 0.0
H134 H 0.08524 0.09181 0.49815 0.0
H135 H 0.08677 0.04261 0.54722 0.0
H136 H 0.12565 0.01511 0.61296 0.0
C137 C 0.02361 0.91766 0.65791 0.0
C138 C 0.03397 0.01736 0.66108 0.0
C139 C 0.00617 0.88657 0.63749 0.0
C140 C 0.09434 0.09818 0.52989 0.0
C141 C 0.09534 0.07018 0.55795 0.0
C142 C 0.10094 0.01623 0.62829 0.0
C143 C 0.0163 0.95127 0.64646 0.0
C144 C 0.04379 -0.01574 0.6531 0.0
C145 C 0.10216 0.07765 0.6005 0.0
C146 C 0.08888 0.04875 0.63032 0.0
H147 H 0.95041 0.92337 0.57418 0.0
H148 H -0.01847 0.97824 0.60915 0.0
H149 H 0.08698 0.95899 0.63354 0.0
H150 H 0.11789 0.16913 0.59682 0.0
H151 H 0.11737 0.1197 0.64654 0.0
C152 C 0.61204 -0.02093 0.02979 0.0
C153 C 0.62472 0.97363 -0.01002 0.0
C154 C 0.57854 -0.01242 0.03432 0.0
C155 C 0.51162 0.02632 0.97687 0.0
H156 H 0.44634 0.978 0.05973 0.0
C157 C 0.36378 0.03258 0.97342 0.0
C158 C 0.34749 0.0371 0.01134 0.0
C159 C 0.39826 0.0261 0.97294 0.0
C160 C 0.4645 -0.00793 0.03686 0.0
H161 H 0.61196 0.97239 0.92376 0.0
H162 H 0.55347 -0.01298 0.9318 0.0
H163 H 0.50561 0.96387 0.05486 0.0
H164 H 0.35466 0.0383 0.07859 0.0
H165 H 0.41523 0.02717 0.07762 0.0
H166 H 0.47059 0.05436 0.95864 0.0
C167 C 0.56966 -0.01487 0.95941 0.0
C168 C 0.49834 -0.01604 0.03405 0.0
C169 C 0.60306 0.97652 0.95487 0.0
C170 C 0.36644 0.03489 0.04884 0.0
C171 C 0.40104 0.02838 0.04833 0.0
C172 C 0.47789 0.03447 0.97972 0.0
C173 C 0.55718 -0.00906 -0.00086 0.0
C174 C 0.522 0.00068 0.00364 0.0
C175 C 0.41727 0.02405 0.01034 0.0
C176 C 0.45382 0.01706 0.00935 0.0
H177 H 0.62806 0.97704 0.0575 0.0
H178 H 0.56962 -0.00782 0.06528 0.0
H179 H 0.52962 0.04012 0.95368 0.0
H180 H 0.34993 0.03394 0.94394 0.0
H181 H 0.40988 0.02225 0.94321 0.0
C182 C -0.00912 0.37022 0.52407 0.0
C183 C -0.00063 0.35384 0.48744 0.0
C184 C -0.02021 0.40314 0.52229 0.0
C185 C -0.01266 0.48396 0.45808 0.0
H186 H 0.91339 0.50451 0.52959 0.0
C187 C 0.95104 0.62448 0.46366 0.0
C188 C 0.94874 0.63805 0.50399 0.0
C189 C 0.95222 0.58819 0.45775 0.0
C190 C 0.93412 0.49912 0.50951 0.0
H191 H 0.00211 0.35881 0.42009 0.0
H192 H -0.01732 0.41637 0.41714 0.0
H193 H 0.92451 0.44319 0.52624 0.0
H194 H 0.9451 0.62397 0.56965 0.0
H195 H 0.94763 0.56092 0.55931 0.0
H196 H -0.00231 0.54003 0.44224 0.0
C197 C -0.01508 0.40378 0.44718 0.0
C198 C 0.94047 0.46412 0.50761 0.0
C199 C -0.00405 0.3708 0.44893 0.0
C200 C 0.94692 0.61444 0.53817 0.0
C201 C 0.94806 0.57821 0.53224 0.0
C202 C -0.01898 0.51897 0.46001 0.0
C203 C -0.02301 0.42036 0.48388 0.0
C204 C -0.03237 0.4564 0.48253 0.0
C205 C 0.95102 0.56481 0.49204 0.0
C206 C 0.95485 0.52702 0.48641 0.0
H207 H -0.00682 0.35786 0.55424 0.0
H208 H -0.02568 0.41559 0.55113 0.0
H209 H 0.00872 0.47884 0.43884 0.0
H210 H 0.9523 0.64192 0.43663 0.0
H211 H 0.95421 0.57844 0.42639 0.0
C212 C 0.17678 0.28287 0.39086 0.0
C213 C 0.14007 0.2781 0.38226 0.0
C214 C 0.20078 0.28328 0.35855 0.0
C215 C 0.20584 0.27798 0.2419 0.0
H216 H 0.27185 0.21554 0.269 0.0
C217 C 0.25591 0.19999 0.11214 0.0
C218 C 0.25408 0.1633 0.12136 0.0
C219 C 0.25565 0.22488 0.14408 0.0
C220 C 0.25353 0.23296 0.26077 0.0
H221 H 0.09995 0.27268 0.33303 0.0
H222 H 0.14112 0.27164 0.27712 0.0
H223 H 0.24335 0.24146 0.32454 0.0
H224 H 0.25283 0.12419 0.1711 0.0
H225 H 0.2504 0.16679 0.22654 0.0
H226 H 0.2129 0.26624 0.17822 0.0
C227 C 0.15193 0.27609 0.30845 0.0
C228 C 0.23757 0.24848 0.2928 0.0
C229 C 0.12808 0.27639 0.34066 0.0
C230 C 0.25431 0.15233 0.16311 0.0
C231 C 0.25321 0.17701 0.19499 0.0
C232 C 0.22112 0.26175 0.20989 0.0
C233 C 0.18846 0.27817 0.31704 0.0
C234 C 0.21209 0.26972 0.28375 0.0
C235 C 0.25261 0.21342 0.18586 0.0
C236 C 0.24379 0.23754 0.21897 0.0
H237 H 0.18684 0.28487 0.42269 0.0
H238 H 0.22878 0.28597 0.36633 0.0
H239 H 0.18734 0.29521 0.23368 0.0
H240 H 0.25638 0.20925 0.08014 0.0
H241 H 0.2563 0.25281 0.13582 0.0
C242 C 0.92119 0.14422 0.58079 0.0
C243 C 0.94222 0.17841 0.5895 0.0
C244 C 0.89477 0.12805 0.60834 0.0
C245 C 0.84296 0.14737 0.70032 0.0
H246 H 0.83441 0.04492 0.72132 0.0
C247 C 0.78563 0.07493 0.85059 0.0
C248 C 0.76528 0.03967 0.84723 0.0
C249 C 0.80095 0.09323 0.81538 0.0
C250 C 0.83601 0.07344 0.71535 0.0
H251 H 0.95148 0.22258 0.63389 0.0
H252 H 0.90636 0.19415 0.68216 0.0
H253 H 0.87361 0.07379 0.66696 0.0
H254 H 0.74342 -0.00311 0.80366 0.0
H255 H 0.77032 0.02887 0.74232 0.0
H256 H 0.8064 0.14705 0.75017 0.0
C257 C 0.90956 0.18003 0.65365 0.0
C258 C 0.85849 0.09005 0.68407 0.0
C259 C 0.93571 0.1963 0.626 0.0
C260 C 0.75888 0.02402 0.80745 0.0
C261 C 0.77454 0.04219 0.7723 0.0
C262 C 0.82073 0.13079 0.7319 0.0
C263 C 0.88892 0.14553 0.64545 0.0
C264 C 0.86268 0.12736 0.67647 0.0
C265 C 0.79655 0.07658 0.77607 0.0
C266 C 0.81734 0.09372 0.74008 0.0
H267 H 0.9253 0.12976 0.55285 0.0
H268 H 0.87904 0.10173 0.60057 0.0
H269 H 0.8449 0.17599 0.69487 0.0
H270 H 0.79108 0.08781 0.88072 0.0
H271 H 0.8179 0.11964 0.81935 0.0
C272 C 0.87228 0.77422 0.36946 0.0
C273 C 0.86972 0.79232 0.40709 0.0
C274 C 0.85258 0.78069 0.33436 0.0
C275 C 0.80684 0.84952 0.28942 0.0
H276 H 0.77632 0.77555 0.20572 0.0
C277 C 0.73844 0.88023 0.13712 0.0
C278 C 0.75555 0.87193 0.10107 0.0
C279 C 0.74584 0.86605 0.1757 0.0
C280 C 0.78465 0.79639 0.2289 0.0
H281 H 0.84336 0.83047 0.43775 0.0
H282 H 0.80804 0.8411 0.37659 0.0
H283 H 0.80035 0.75934 0.27251 0.0
H284 H 0.79198 0.84015 0.07699 0.0
H285 H 0.80463 0.81506 0.14461 0.0
H286 H 0.7911 0.8865 0.2457 0.0
C287 C 0.82604 0.82252 0.37399 0.0
C288 C 0.79856 0.78723 0.26709 0.0
C289 C 0.84616 0.81634 0.40912 0.0
C290 C 0.77848 0.84723 0.10413 0.0
C291 C 0.78562 0.83275 0.1428 0.0
C292 C 0.7925 0.85854 0.25151 0.0
C293 C 0.82939 0.80512 0.33599 0.0
C294 C 0.81061 0.81385 0.29747 0.0
C295 C 0.77019 0.84294 0.17907 0.0
C296 C 0.78192 0.83222 0.2206 0.0
H297 H 0.89033 0.75569 0.36666 0.0
H298 H 0.8565 0.76734 0.30556 0.0
H299 H 0.81634 0.87088 0.31163 0.0
H300 H 0.72042 0.89896 0.13597 0.0
H301 H 0.73327 0.87397 0.20314 0.0
C302 C 0.07732 0.78876 0.64406 0.0
C303 C 0.04116 0.77294 0.64884 0.0
C304 C 0.09756 0.80575 0.67764 0.0
C305 C 0.12228 0.86481 0.74082 0.0
H306 H 0.11162 0.83465 0.85624 0.0
C307 C 0.19817 0.95189 0.87297 0.0
C308 C 0.17809 0.95712 0.90783 0.0
C309 C 0.18456 0.92551 0.84332 0.0
C310 C 0.11475 0.84349 0.82416 0.0
H311 H -0.00124 0.76032 0.69366 0.0
H312 H 0.03392 0.79016 0.75198 0.0
H313 H 0.08308 0.79397 0.80112 0.0
H314 H 0.12833 0.93769 0.93943 0.0
H315 H 0.10458 0.8919 0.88757 0.0
H316 H 0.15332 0.91449 0.76369 0.0
C317 C 0.04675 0.7893 0.72234 0.0
C318 C 0.09842 0.82018 0.79257 0.0
C319 C 0.02653 0.77215 0.68878 0.0
C320 C 0.14457 0.93446 0.913 0.0
C321 C 0.13099 0.90803 0.88335 0.0
C322 C 0.13864 0.88801 0.77232 0.0
C323 C 0.08214 0.80745 0.71681 0.0
C324 C 0.10172 0.83069 0.7505 0.0
C325 C 0.15057 0.90365 0.84778 0.0
C326 C 0.13483 0.87781 0.8144 0.0
H327 H 0.08958 0.78965 0.61384 0.0
H328 H 0.12499 0.81871 0.67251 0.0
H329 H 0.12476 0.87421 0.7089 0.0
H330 H 0.22416 0.96867 0.86803 0.0
H331 H 0.20057 0.92249 0.81661 0.0
C332 C 0.7289 0.81199 0.88073 0.0
C333 C 0.71088 0.84087 0.877 0.0
C334 C 0.72989 0.7889 0.84717 0.0
C335 C 0.73057 0.799 0.73474 0.0
H336 H 0.75521 0.70439 0.73899 0.0
C337 C 0.81029 0.75687 0.60344 0.0
C338 C 0.84081 0.74468 0.61732 0.0
C339 C 0.78198 0.75677 0.6302 0.0
C340 C 0.74825 0.73077 0.7372 0.0
H341 H 0.67541 0.86476 0.83725 0.0
H342 H 0.67654 0.82394 0.779 0.0
H343 H 0.72449 0.72505 0.79742 0.0
H344 H 0.8644 0.72011 0.66896 0.0
H345 H 0.81567 0.72115 0.71621 0.0
H346 H 0.75601 0.80592 0.67608 0.0
C347 C 0.69093 0.81994 0.80741 0.0
C348 C 0.73058 0.74257 0.77063 0.0
C349 C 0.69014 0.84324 0.84092 0.0
C350 C 0.84126 0.72975 0.65741 0.0
C351 C 0.81313 0.73016 0.68444 0.0
C352 C 0.74817 0.78727 0.7015 0.0
C353 C 0.71264 0.79399 0.80924 0.0
C354 C 0.72284 0.77745 0.77049 0.0
C355 C 0.78383 0.74511 0.67169 0.0
C356 C 0.75851 0.75361 0.70297 0.0
H357 H 0.74477 0.80897 0.90829 0.0
H358 H 0.74687 0.76925 0.84988 0.0
H359 H 0.72565 0.82623 0.73362 0.0
H360 H 0.8089 0.76793 0.5724 0.0
H361 H 0.75941 0.76759 0.61899 0.0
C362 C 0.19211 -0.01605 0.1725 0.0
C363 C 0.1744 -0.01925 0.13355 0.0
C364 C 0.17731 0.9633 0.20659 0.0
C365 C 0.09068 0.91003 0.2432 0.0
H366 H 0.14955 0.87454 0.3267 0.0
C367 C 0.02999 0.80893 0.36949 0.0
C368 C 0.04144 0.81741 0.41078 0.0
C369 C 0.04803 0.82761 0.33606 0.0
C370 C 0.13282 0.88447 0.30372 0.0
H371 H 0.12785 0.9523 0.09961 0.0
H372 H 0.10277 0.91565 0.15825 0.0
H373 H 0.17749 0.90925 0.26744 0.0
H374 H 0.08188 0.85136 0.449 0.0
H375 H 0.11367 0.88367 0.39038 0.0
H376 H 0.04604 0.88475 0.27912 0.0
C377 C 0.1275 0.93489 0.16309 0.0
C378 C 0.1488 0.9045 0.26979 0.0
C379 C 0.14204 0.95579 0.12925 0.0
C380 C 0.07229 0.84412 0.41764 0.0
C381 C 0.09058 0.86258 0.38407 0.0
C382 C 0.07476 0.88973 0.27677 0.0
C383 C 0.14461 0.93867 0.20245 0.0
C384 C 0.12792 0.91749 0.23895 0.0
C385 C 0.0782 0.85503 0.34295 0.0
C386 C 0.09558 0.87661 0.30737 0.0
H387 H 0.217 0.00304 0.17696 0.0
H388 H 0.19114 0.96734 0.23641 0.0
H389 H 0.07366 0.92027 0.22083 0.0
H390 H 0.00638 0.78855 0.36291 0.0
H391 H 0.03812 0.82083 0.30471 0.0
C392 C 0.11151 0.27007 0.66124 0.0
C393 C 0.12632 0.27952 0.62203 0.0
C394 C 0.13315 0.2638 0.69491 0.0
C395 C 0.21652 0.23208 0.71244 0.0
H396 H 0.19653 0.24528 0.82853 0.0
C397 C 0.25743 0.18998 0.89063 0.0
C398 C 0.25441 0.15261 0.88474 0.0
C399 C 0.25063 0.21211 0.85773 0.0
C400 C 0.20302 0.24186 0.79631 0.0
H401 H 0.17598 0.29357 0.58874 0.0
H402 H 0.21363 0.28324 0.64762 0.0
H403 H 0.16736 0.27529 0.7748 0.0
H404 H 0.24488 0.10979 0.83874 0.0
H405 H 0.23279 0.14828 0.78144 0.0
H406 H 0.25171 0.19813 0.73392 0.0
C407 C 0.1852 0.27968 0.65203 0.0
C408 C 0.18594 0.25877 0.76548 0.0
C409 C 0.16359 0.2859 0.61836 0.0
C410 C 0.24751 0.13845 0.84437 0.0
C411 C 0.24057 0.16059 0.81145 0.0
C412 C 0.23359 0.21514 0.74327 0.0
C413 C 0.17008 0.26702 0.69015 0.0
C414 C 0.19185 0.25343 0.72314 0.0
C415 C 0.24058 0.19739 0.81819 0.0
C416 C 0.22644 0.21916 0.78555 0.0
H417 H 0.08295 0.26488 0.66524 0.0
H418 H 0.12055 0.25397 0.72379 0.0
H419 H 0.22145 0.22701 0.68012 0.0
H420 H 0.2631 0.20188 0.92125 0.0
H421 H 0.25173 0.24049 0.86374 0.0
C422 C 0.79245 0.04372 0.12378 0.0
C423 C 0.80892 0.04237 0.0852 0.0
C424 C 0.81139 0.0617 0.1577 0.0
C425 C 0.8938 0.12789 0.18682 0.0
H426 H 0.8776 0.08284 0.29537 0.0
C427 C 0.96135 0.1384 0.36345 0.0
C428 C -0.02995 0.17615 0.36796 0.0
C429 C 0.9415 0.1227 0.32887 0.0
C430 C 0.88274 0.09566 0.26526 0.0
H431 H 0.85819 0.05967 0.05196 0.0
H432 H 0.89132 0.09047 0.1112 0.0
H433 H 0.84386 0.05497 0.23508 0.0
H434 H 0.96425 0.22694 0.33956 0.0
H435 H 0.92914 0.19964 0.2799 0.0
H436 H 0.93354 0.16793 0.21681 0.0
C437 C 0.86357 0.07811 0.11514 0.0
C438 C 0.86295 0.07993 0.23069 0.0
C439 C 0.84456 0.06029 0.08112 0.0
C440 C 0.95824 0.19779 0.33708 0.0
C441 C 0.93825 0.18209 0.30264 0.0
C442 C 0.9137 0.14355 0.22138 0.0
C443 C 0.84738 0.07863 0.15407 0.0
C444 C 0.86818 0.09583 0.19098 0.0
C445 C 0.92966 0.14434 0.29797 0.0
C446 C 0.90845 0.12765 0.26109 0.0
H447 H 0.765 0.03042 0.12805 0.0
H448 H 0.79778 0.06215 0.1869 0.0
H449 H 0.89836 0.14113 0.15687 0.0
H450 H -0.02987 0.12088 0.38649 0.0
H451 H 0.93589 0.09357 0.32608 0.0
loop_
_geom_bond_atom_site_label_1
_geom_bond_atom_site_label_2
_geom_bond_distance
_geom_bond_site_symmetry_2
_ccdc_geom_bond_type
O0 Zn1 1.953 . S
O0 C16 1.225 . S
Zn1 O0 1.953 . S
Zn1 O2 1.949 . S
Zn1 O8 1.919 1_544 S
Zn1 O13 1.924 1_545 S
O2 Zn1 1.949 . S
O2 Zn3 1.923 1_554 S
O2 Zn4 1.950 . S
O2 Zn5 1.945 . S
Zn3 O2 1.923 1_556 S
Zn3 O6 1.933 . S
Zn3 O9 1.941 . S
Zn3 O10 1.965 . S
Zn4 O2 1.950 . S
Zn4 O11 1.938 1_554 S
Zn4 O12 1.906 . S
Zn4 O22 1.953 . S
Zn5 O2 1.945 . S
Zn5 O7 1.932 . S
Zn5 O14 1.977 . S
Zn5 O15 1.910 . S
O6 Zn3 1.933 . S
O6 C17 1.226 1_556 S
O7 Zn5 1.932 . S
O7 C17 1.307 . S
O8 Zn1 1.919 1_566 S
O8 C19 1.253 . S
O9 Zn3 1.941 . S
O9 C19 1.283 1_545 S
O10 Zn3 1.965 . S
O10 C18 1.303 . S
O11 Zn4 1.938 1_556 S
O11 C18 1.247 . S
O12 Zn4 1.906 . S
O12 C20 1.304 . S
O13 Zn1 1.924 1_565 S
O13 C21 1.311 . S
O14 Zn5 1.977 . S
O14 C20 1.272 . S
O15 Zn5 1.910 . S
O15 C21 1.231 1_545 S
C16 O0 1.225 . S
C16 O22 1.298 . S
C17 O6 1.226 1_554 S
C17 O7 1.307 . S
C18 O10 1.303 . S
C18 O11 1.247 . S
C19 O8 1.253 . S
C19 O9 1.283 1_565 S
C20 O12 1.304 . S
C20 O14 1.272 . S
C21 O13 1.311 . S
C21 O15 1.231 1_565 S
O22 Zn4 1.953 . S
O22 C16 1.298 . S
O23 Zn24 1.953 . S
O23 C39 1.225 . S
Zn24 O23 1.953 . S
Zn24 O25 1.949 . S
Zn24 O31 1.919 1_455 S
Zn24 O36 1.924 1_455 S
O25 Zn24 1.949 . S
O25 Zn26 1.923 . S
O25 Zn27 1.950 . S
O25 Zn28 1.945 . S
Zn26 O25 1.923 . S
Zn26 O29 1.933 . S
Zn26 O32 1.941 . S
Zn26 O33 1.965 . S
Zn27 O25 1.950 . S
Zn27 O34 1.938 . S
Zn27 O35 1.906 . S
Zn27 O45 1.953 . S
Zn28 O25 1.945 . S
Zn28 O30 1.932 . S
Zn28 O37 1.977 . S
Zn28 O38 1.910 . S
O29 Zn26 1.933 . S
O29 C40 1.226 . S
O30 Zn28 1.932 . S
O30 C40 1.307 . S
O31 Zn24 1.919 1_655 S
O31 C42 1.253 . S
O32 Zn26 1.941 . S
O32 C42 1.283 1_455 S
O33 Zn26 1.965 . S
O33 C41 1.303 . S
O34 Zn27 1.938 . S
O34 C41 1.247 . S
O35 Zn27 1.906 . S
O35 C43 1.304 . S
O36 Zn24 1.924 1_655 S
O36 C44 1.311 . S
O37 Zn28 1.977 . S
O37 C43 1.272 . S
O38 Zn28 1.910 . S
O38 C44 1.231 1_455 S
C39 O23 1.225 . S
C39 O45 1.298 . S
C40 O29 1.226 . S
C40 O30 1.307 . S
C41 O33 1.303 . S
C41 O34 1.247 . S
C42 O31 1.253 . S
C42 O32 1.283 1_655 S
C43 O35 1.304 . S
C43 O37 1.272 . S
C44 O36 1.311 . S
C44 O38 1.231 1_655 S
O45 Zn27 1.953 . S
O45 C39 1.298 . S
O46 Zn47 1.953 . S
O46 C62 1.225 . S
Zn47 O46 1.953 . S
Zn47 O48 1.957 . S
Zn47 O54 1.919 1_554 S
Zn47 O59 1.924 . S
O48 Zn47 1.957 . S
O48 Zn49 1.922 1_544 S
O48 Zn50 1.940 1_545 S
O48 Zn51 1.948 . S
Zn49 O48 1.922 1_566 S
Zn49 O52 1.933 . S
Zn49 O55 1.941 1_565 S
Zn49 O56 1.965 . S
Zn50 O48 1.940 1_565 S
Zn50 O57 1.938 1_554 S
Zn50 O58 1.906 . S
Zn50 O68 1.953 . S
Zn51 O48 1.948 . S
Zn51 O53 1.932 . S
Zn51 O60 1.977 1_545 S
Zn51 O61 1.910 . S
O52 Zn49 1.933 . S
O52 C63 1.226 1_556 S
O53 Zn51 1.932 . S
O53 C63 1.307 1_545 S
O54 Zn47 1.919 1_556 S
O54 C65 1.253 . S
O55 Zn49 1.941 1_545 S
O55 C65 1.283 . S
O56 Zn49 1.965 . S
O56 C64 1.303 . S
O57 Zn50 1.938 1_556 S
O57 C64 1.247 . S
O58 Zn50 1.906 . S
O58 C66 1.304 . S
O59 Zn47 1.924 . S
O59 C67 1.311 . S
O60 Zn51 1.977 1_565 S
O60 C66 1.272 . S
O61 Zn51 1.910 . S
O61 C67 1.231 . S
C62 O46 1.225 . S
C62 O68 1.298 1_545 S
C63 O52 1.226 1_554 S
C63 O53 1.307 1_565 S
C64 O56 1.303 . S
C64 O57 1.247 . S
C65 O54 1.253 . S
C65 O55 1.283 . S
C66 O58 1.304 . S
C66 O60 1.272 . S
C67 O59 1.311 . S
C67 O61 1.231 . S
O68 Zn50 1.953 . S
O68 C62 1.298 1_565 S
O69 Zn70 1.953 . S
O69 C85 1.225 . S
Zn70 O69 1.953 . S
Zn70 O71 1.957 . S
Zn70 O77 1.919 . S
Zn70 O82 1.924 . S
O71 Zn70 1.957 . S
O71 Zn72 1.922 1_455 S
O71 Zn73 1.940 1_455 S
O71 Zn74 1.948 . S
Zn72 O71 1.922 1_655 S
Zn72 O75 1.933 . S
Zn72 O78 1.941 1_655 S
Zn72 O79 1.965 . S
Zn73 O71 1.940 1_655 S
Zn73 O80 1.938 . S
Zn73 O81 1.906 . S
Zn73 O91 1.953 . S
Zn74 O71 1.948 . S
Zn74 O76 1.932 . S
Zn74 O83 1.977 1_455 S
Zn74 O84 1.910 . S
O75 Zn72 1.933 . S
O75 C86 1.226 . S
O76 Zn74 1.932 . S
O76 C86 1.307 1_455 S
O77 Zn70 1.919 . S
O77 C88 1.253 . S
O78 Zn72 1.941 1_455 S
O78 C88 1.283 . S
O79 Zn72 1.965 . S
O79 C87 1.303 . S
O80 Zn73 1.938 . S
O80 C87 1.247 . S
O81 Zn73 1.906 . S
O81 C89 1.304 . S
O82 Zn70 1.924 . S
O82 C90 1.311 . S
O83 Zn74 1.977 1_655 S
O83 C89 1.272 . S
O84 Zn74 1.910 . S
O84 C90 1.231 . S
C85 O69 1.225 . S
C85 O91 1.298 1_455 S
C86 O75 1.226 . S
C86 O76 1.307 1_655 S
C87 O79 1.303 . S
C87 O80 1.247 . S
C88 O77 1.253 . S
C88 O78 1.283 . S
C89 O81 1.304 . S
C89 O83 1.272 . S
C90 O82 1.311 . S
C90 O84 1.231 . S
O91 Zn73 1.953 . S
O91 C85 1.298 1_655 S
C92 C93 1.349 . S
C92 C94 1.327 . S
C92 H117 0.950 . S
C93 C92 1.349 . S
C93 C109 1.349 1_564 S
C94 C92 1.327 . S
C94 C113 1.429 1_565 S
C94 H118 0.950 . S
C95 C112 1.574 . S
C95 C114 1.368 1_456 S
C95 H119 0.949 1_455 S
H96 C100 0.949 . S
C97 C98 1.349 1_556 S
C97 C99 1.327 . S
C97 H120 0.950 . S
C98 C97 1.349 1_554 S
C98 C110 1.349 . S
C99 C97 1.327 . S
C99 C115 1.429 1_556 S
C99 H121 0.950 . S
C100 H96 0.949 . S
C100 C108 1.574 . S
C100 C116 1.368 . S
H101 C109 0.950 . S
H102 C107 0.950 . S
H103 C108 0.949 1_665 S
H104 C110 0.950 . S
H105 C111 0.950 . S
H106 C112 0.949 . S
C107 H102 0.950 . S
C107 C109 1.327 . S
C107 C113 1.429 1_556 S
C108 C100 1.574 . S
C108 H103 0.949 1_445 S
C108 C114 1.368 1_455 S
C109 C93 1.349 1_546 S
C109 H101 0.950 . S
C109 C107 1.327 . S
C110 C98 1.349 . S
C110 H104 0.950 . S
C110 C111 1.327 . S
C111 H105 0.950 . S
C111 C110 1.327 . S
C111 C115 1.429 . S
C112 C95 1.574 . S
C112 H106 0.949 . S
C112 C116 1.368 1_556 S
C113 C94 1.429 1_545 S
C113 C107 1.429 1_554 S
C113 C114 1.523 . S
C114 C95 1.368 1_654 S
C114 C108 1.368 1_655 S
C114 C113 1.523 . S
C115 C99 1.429 1_554 S
C115 C111 1.429 . S
C115 C116 1.523 . S
C116 C100 1.368 . S
C116 C112 1.368 1_554 S
C116 C115 1.523 . S
H117 C92 0.950 . S
H118 C94 0.950 . S
H119 C95 0.949 1_655 S
H120 C97 0.950 . S
H121 C99 0.950 . S
C122 C123 1.349 . S
C122 C124 1.327 . S
C122 H147 0.950 . S
C123 C122 1.349 . S
C123 C139 1.349 1_655 S
C124 C122 1.327 . S
C124 C143 1.429 1_655 S
C124 H148 0.950 . S
C125 C142 1.574 . S
C125 C144 1.368 1_545 S
C125 H149 0.949 1_545 S
H126 C130 0.949 . S
C127 C128 1.349 . S
C127 C129 1.327 . S
C127 H150 0.950 . S
C128 C127 1.349 . S
C128 C140 1.349 . S
C129 C127 1.327 . S
C129 C145 1.429 . S
C129 H151 0.950 . S
C130 H126 0.949 . S
C130 C138 1.574 . S
C130 C146 1.368 . S
H131 C139 0.950 . S
H132 C137 0.950 . S
H133 C138 0.949 1_665 S
H134 C140 0.950 . S
H135 C141 0.950 . S
H136 C142 0.949 . S
C137 H132 0.950 . S
C137 C139 1.327 . S
C137 C143 1.429 . S
C138 C130 1.574 . S
C138 H133 0.949 1_445 S
C138 C144 1.368 1_545 S
C139 C123 1.349 1_455 S
C139 H131 0.950 . S
C139 C137 1.327 . S
C140 C128 1.349 . S
C140 H134 0.950 . S
C140 C141 1.327 . S
C141 H135 0.950 . S
C141 C140 1.327 . S
C141 C145 1.429 . S
C142 C125 1.574 . S
C142 H136 0.949 . S
C142 C146 1.368 . S
C143 C124 1.429 1_455 S
C143 C137 1.429 . S
C143 C144 1.523 . S
C144 C125 1.368 1_565 S
C144 C138 1.368 1_565 S
C144 C143 1.523 . S
C145 C129 1.429 . S
C145 C141 1.429 . S
C145 C146 1.523 . S
C146 C130 1.368 . S
C146 C142 1.368 . S
C146 C145 1.523 . S
H147 C122 0.950 . S
H148 C124 0.950 . S
H149 C125 0.949 1_565 S
H150 C127 0.950 . S
H151 C129 0.950 . S
C152 C153 1.349 1_545 S
C152 C154 1.327 . S
C152 H177 0.950 . S
C153 C152 1.349 1_565 S
C153 C169 1.349 1_554 S
C154 C152 1.327 . S
C154 C173 1.429 . S
C154 H178 0.950 . S
C155 C172 1.574 . S
C155 C174 1.368 1_556 S
C155 H179 0.949 1_545 S
H156 C160 0.949 . S
C157 C158 1.349 1_556 S
C157 C159 1.327 . S
C157 H180 0.950 . S
C158 C157 1.349 1_554 S
C158 C170 1.349 . S
C159 C157 1.327 . S
C159 C175 1.429 1_556 S
C159 H181 0.950 . S
C160 H156 0.949 . S
C160 C168 1.574 . S
C160 C176 1.368 . S
H161 C169 0.950 . S
H162 C167 0.950 . S
H163 C168 0.949 . S
H164 C170 0.950 . S
H165 C171 0.950 . S
H166 C172 0.949 . S
C167 H162 0.950 . S
C167 C169 1.327 . S
C167 C173 1.429 1_566 S
C168 C160 1.574 . S
C168 H163 0.949 . S
C168 C174 1.368 . S
C169 C153 1.349 1_556 S
C169 H161 0.950 . S
C169 C167 1.327 . S
C170 C158 1.349 . S
C170 H164 0.950 . S
C170 C171 1.327 . S
C171 H165 0.950 . S
C171 C170 1.327 . S
C171 C175 1.429 . S
C172 C155 1.574 . S
C172 H166 0.949 . S
C172 C176 1.368 1_556 S
C173 C154 1.429 . S
C173 C167 1.429 1_544 S
C173 C174 1.523 . S
C174 C155 1.368 1_554 S
C174 C168 1.368 . S
C174 C173 1.523 . S
C175 C159 1.429 1_554 S
C175 C171 1.429 . S
C175 C176 1.523 . S
C176 C160 1.368 . S
C176 C172 1.368 1_554 S
C176 C175 1.523 . S
H177 C152 0.950 . S
H178 C154 0.950 . S
H179 C155 0.949 1_565 S
H180 C157 0.950 . S
H181 C159 0.950 . S
C182 C183 1.349 . S
C182 C184 1.327 . S
C182 H207 0.950 . S
C183 C182 1.349 . S
C183 C199 1.349 . S
C184 C182 1.327 . S
C184 C203 1.429 . S
C184 H208 0.950 . S
C185 C202 1.574 . S
C185 C204 1.368 . S
C185 H209 0.949 . S
H186 C190 0.949 . S
C187 C188 1.349 . S
C187 C189 1.327 . S
C187 H210 0.950 . S
C188 C187 1.349 . S
C188 C200 1.349 1_655 S
C189 C187 1.327 . S
C189 C205 1.429 1_655 S
C189 H211 0.950 . S
C190 H186 0.949 . S
C190 C198 1.574 . S
C190 C206 1.368 . S
H191 C199 0.950 . S
H192 C197 0.950 . S
H193 C198 0.949 . S
H194 C200 0.950 . S
H195 C201 0.950 . S
H196 C202 0.949 1_655 S
C197 H192 0.950 . S
C197 C199 1.327 . S
C197 C203 1.429 . S
C198 C190 1.574 . S
C198 H193 0.949 . S
C198 C204 1.368 . S
C199 C183 1.349 . S
C199 H191 0.950 . S
C199 C197 1.327 . S
C200 C188 1.349 1_455 S
C200 H194 0.950 . S
C200 C201 1.327 . S
C201 H195 0.950 . S
C201 C200 1.327 . S
C201 C205 1.429 . S
C202 C185 1.574 . S
C202 H196 0.949 1_455 S
C202 C206 1.368 . S
C203 C184 1.429 . S
C203 C197 1.429 . S
C203 C204 1.523 . S
C204 C185 1.368 . S
C204 C198 1.368 . S
C204 C203 1.523 . S
C205 C189 1.429 1_455 S
C205 C201 1.429 . S
C205 C206 1.523 . S
C206 C190 1.368 . S
C206 C202 1.368 . S
C206 C205 1.523 . S
H207 C182 0.950 . S
H208 C184 0.950 . S
H209 C185 0.949 . S
H210 C187 0.950 . S
H211 C189 0.950 . S
C212 C213 1.349 . S
C212 C214 1.327 . S
C212 H237 0.950 . S
C213 C212 1.349 . S
C213 C229 1.349 . S
C214 C212 1.327 . S
C214 C233 1.429 . S
C214 H238 0.950 . S
C215 C232 1.574 . S
C215 C234 1.368 . S
C215 H239 0.949 . S
H216 C220 0.949 . S
C217 C218 1.349 . S
C217 C219 1.327 . S
C217 H240 0.950 . S
C218 C217 1.349 . S
C218 C230 1.349 . S
C219 C217 1.327 . S
C219 C235 1.429 . S
C219 H241 0.950 . S
C220 H216 0.949 . S
C220 C228 1.574 . S
C220 C236 1.368 . S
H221 C229 0.950 . S
H222 C227 0.950 . S
H223 C228 0.949 . S
H224 C230 0.950 . S
H225 C231 0.950 . S
H226 C232 0.949 . S
C227 H222 0.950 . S
C227 C229 1.327 . S
C227 C233 1.429 . S
C228 C220 1.574 . S
C228 H223 0.949 . S
C228 C234 1.368 . S
C229 C213 1.349 . S
C229 H221 0.950 . S
C229 C227 1.327 . S
C230 C218 1.349 . S
C230 H224 0.950 . S
C230 C231 1.327 . S
C231 H225 0.950 . S
C231 C230 1.327 . S
C231 C235 1.429 . S
C232 C215 1.574 . S
C232 H226 0.949 . S
C232 C236 1.368 . S
C233 C214 1.429 . S
C233 C227 1.429 . S
C233 C234 1.523 . S
C234 C215 1.368 . S
C234 C228 1.368 . S
C234 C233 1.523 . S
C235 C219 1.429 . S
C235 C231 1.429 . S
C235 C236 1.523 . S
C236 C220 1.368 . S
C236 C232 1.368 . S
C236 C235 1.523 . S
H237 C212 0.950 . S
H238 C214 0.950 . S
H239 C215 0.949 . S
H240 C217 0.950 . S
H241 C219 0.950 . S
C242 C243 1.349 . S
C242 C244 1.327 . S
C242 H267 0.950 . S
C243 C242 1.349 . S
C243 C259 1.349 . S
C244 C242 1.327 . S
C244 C263 1.429 . S
C244 H268 0.950 . S
C245 C262 1.574 . S
C245 C264 1.368 . S
C245 H269 0.949 . S
H246 C250 0.949 . S
C247 C248 1.349 . S
C247 C249 1.327 . S
C247 H270 0.950 . S
C248 C247 1.349 . S
C248 C260 1.349 . S
C249 C247 1.327 . S
C249 C265 1.429 . S
C249 H271 0.950 . S
C250 H246 0.949 . S
C250 C258 1.574 . S
C250 C266 1.368 . S
H251 C259 0.950 . S
H252 C257 0.950 . S
H253 C258 0.949 . S
H254 C260 0.950 . S
H255 C261 0.950 . S
H256 C262 0.949 . S
C257 H252 0.950 . S
C257 C259 1.327 . S
C257 C263 1.429 . S
C258 C250 1.574 . S
C258 H253 0.949 . S
C258 C264 1.368 . S
C259 C243 1.349 . S
C259 H251 0.950 . S
C259 C257 1.327 . S
C260 C248 1.349 . S
C260 H254 0.950 . S
C260 C261 1.327 . S
C261 H255 0.950 . S
C261 C260 1.327 . S
C261 C265 1.429 . S
C262 C245 1.574 . S
C262 H256 0.949 . S
C262 C266 1.368 . S
C263 C244 1.429 . S
C263 C257 1.429 . S
C263 C264 1.523 . S
C264 C245 1.368 . S
C264 C258 1.368 . S
C264 C263 1.523 . S
C265 C249 1.429 . S
C265 C261 1.429 . S
C265 C266 1.523 . S
C266 C250 1.368 . S
C266 C262 1.368 . S
C266 C265 1.523 . S
H267 C242 0.950 . S
H268 C244 0.950 . S
H269 C245 0.949 . S
H270 C247 0.950 . S
H271 C249 0.950 . S
C272 C273 1.349 . S
C272 C274 1.327 . S
C272 H297 0.950 . S
C273 C272 1.349 . S
C273 C289 1.349 . S
C274 C272 1.327 . S
C274 C293 1.429 . S
C274 H298 0.950 . S
C275 C292 1.574 . S
C275 C294 1.368 . S
C275 H299 0.949 . S
H276 C280 0.949 . S
C277 C278 1.349 . S
C277 C279 1.327 . S
C277 H300 0.950 . S
C278 C277 1.349 . S
C278 C290 1.349 . S
C279 C277 1.327 . S
C279 C295 1.429 . S
C279 H301 0.950 . S
C280 H276 0.949 . S
C280 C288 1.574 . S
C280 C296 1.368 . S
H281 C289 0.950 . S
H282 C287 0.950 . S
H283 C288 0.949 . S
H284 C290 0.950 . S
H285 C291 0.950 . S
H286 C292 0.949 . S
C287 H282 0.950 . S
C287 C289 1.327 . S
C287 C293 1.429 . S
C288 C280 1.574 . S
C288 H283 0.949 . S
C288 C294 1.368 . S
C289 C273 1.349 . S
C289 H281 0.950 . S
C289 C287 1.327 . S
C290 C278 1.349 . S
C290 H284 0.950 . S
C290 C291 1.327 . S
C291 H285 0.950 . S
C291 C290 1.327 . S
C291 C295 1.429 . S
C292 C275 1.574 . S
C292 H286 0.949 . S
C292 C296 1.368 . S
C293 C274 1.429 . S
C293 C287 1.429 . S
C293 C294 1.523 . S
C294 C275 1.368 . S
C294 C288 1.368 . S
C294 C293 1.523 . S
C295 C279 1.429 . S
C295 C291 1.429 . S
C295 C296 1.523 . S
C296 C280 1.368 . S
C296 C292 1.368 . S
C296 C295 1.523 . S
H297 C272 0.950 . S
H298 C274 0.950 . S
H299 C275 0.949 . S
H300 C277 0.950 . S
H301 C279 0.950 . S
C302 C303 1.349 . S
C302 C304 1.327 . S
C302 H327 0.950 . S
C303 C302 1.349 . S
C303 C319 1.349 . S
C304 C302 1.327 . S
C304 C323 1.429 . S
C304 H328 0.950 . S
C305 C322 1.574 . S
C305 C324 1.368 . S
C305 H329 0.949 . S
H306 C310 0.949 . S
C307 C308 1.349 . S
C307 C309 1.327 . S
C307 H330 0.950 1_565 S
C308 C307 1.349 . S
C308 C320 1.349 . S
C309 C307 1.327 . S
C309 C325 1.429 . S
C309 H331 0.950 . S
C310 H306 0.949 . S
C310 C318 1.574 . S
C310 C326 1.368 . S
H311 C319 0.950 . S
H312 C317 0.950 . S
H313 C318 0.949 . S
H314 C320 0.950 . S
H315 C321 0.950 . S
H316 C322 0.949 . S
C317 H312 0.950 . S
C317 C319 1.327 . S
C317 C323 1.429 . S
C318 C310 1.574 . S
C318 H313 0.949 . S
C318 C324 1.368 . S
C319 C303 1.349 . S
C319 H311 0.950 . S
C319 C317 1.327 . S
C320 C308 1.349 . S
C320 H314 0.950 . S
C320 C321 1.327 . S
C321 H315 0.950 . S
C321 C320 1.327 . S
C321 C325 1.429 . S
C322 C305 1.574 . S
C322 H316 0.949 . S
C322 C326 1.368 . S
C323 C304 1.429 . S
C323 C317 1.429 . S
C323 C324 1.523 . S
C324 C305 1.368 . S
C324 C318 1.368 . S
C324 C323 1.523 . S
C325 C309 1.429 . S
C325 C321 1.429 . S
C325 C326 1.523 . S
C326 C310 1.368 . S
C326 C322 1.368 . S
C326 C325 1.523 . S
H327 C302 0.950 . S
H328 C304 0.950 . S
H329 C305 0.949 . S
H330 C307 0.950 1_545 S
H331 C309 0.950 . S
C332 C333 1.349 . S
C332 C334 1.327 . S
C332 H357 0.950 . S
C333 C332 1.349 . S
C333 C349 1.349 . S
C334 C332 1.327 . S
C334 C353 1.429 . S
C334 H358 0.950 . S
C335 C352 1.574 . S
C335 C354 1.368 . S
C335 H359 0.949 . S
H336 C340 0.949 . S
C337 C338 1.349 . S
C337 C339 1.327 . S
C337 H360 0.950 . S
C338 C337 1.349 . S
C338 C350 1.349 . S
C339 C337 1.327 . S
C339 C355 1.429 . S
C339 H361 0.950 . S
C340 H336 0.949 . S
C340 C348 1.574 . S
C340 C356 1.368 . S
H341 C349 0.950 . S
H342 C347 0.950 . S
H343 C348 0.949 . S
H344 C350 0.950 . S
H345 C351 0.950 . S
H346 C352 0.949 . S
C347 H342 0.950 . S
C347 C349 1.327 . S
C347 C353 1.429 . S
C348 C340 1.574 . S
C348 H343 0.949 . S
C348 C354 1.368 . S
C349 C333 1.349 . S
C349 H341 0.950 . S
C349 C347 1.327 . S
C350 C338 1.349 . S
C350 H344 0.950 . S
C350 C351 1.327 . S
C351 H345 0.950 . S
C351 C350 1.327 . S
C351 C355 1.429 . S
C352 C335 1.574 . S
C352 H346 0.949 . S
C352 C356 1.368 . S
C353 C334 1.429 . S
C353 C347 1.429 . S
C353 C354 1.523 . S
C354 C335 1.368 . S
C354 C348 1.368 . S
C354 C353 1.523 . S
C355 C339 1.429 . S
C355 C351 1.429 . S
C355 C356 1.523 . S
C356 C340 1.368 . S
C356 C352 1.368 . S
C356 C355 1.523 . S
H357 C332 0.950 . S
H358 C334 0.950 . S
H359 C335 0.949 . S
H360 C337 0.950 . S
H361 C339 0.950 . S
C362 C363 1.349 . S
C362 C364 1.327 . S
C362 H387 0.950 . S
C363 C362 1.349 . S
C363 C379 1.349 . S
C364 C362 1.327 . S
C364 C383 1.429 . S
C364 H388 0.950 . S
C365 C382 1.574 . S
C365 C384 1.368 . S
C365 H389 0.949 . S
H366 C370 0.949 . S
C367 C368 1.349 . S
C367 C369 1.327 . S
C367 H390 0.950 . S
C368 C367 1.349 . S
C368 C380 1.349 . S
C369 C367 1.327 . S
C369 C385 1.429 . S
C369 H391 0.950 . S
C370 H366 0.949 . S
C370 C378 1.574 . S
C370 C386 1.368 . S
H371 C379 0.950 . S
H372 C377 0.950 . S
H373 C378 0.949 . S
H374 C380 0.950 . S
H375 C381 0.950 . S
H376 C382 0.949 . S
C377 H372 0.950 . S
C377 C379 1.327 . S
C377 C383 1.429 . S
C378 C370 1.574 . S
C378 H373 0.949 . S
C378 C384 1.368 . S
C379 C363 1.349 . S
C379 H371 0.950 . S
C379 C377 1.327 . S
C380 C368 1.349 . S
C380 H374 0.950 . S
C380 C381 1.327 . S
C381 H375 0.950 . S
C381 C380 1.327 . S
C381 C385 1.429 . S
C382 C365 1.574 . S
C382 H376 0.949 . S
C382 C386 1.368 . S
C383 C364 1.429 . S
C383 C377 1.429 . S
C383 C384 1.523 . S
C384 C365 1.368 . S
C384 C378 1.368 . S
C384 C383 1.523 . S
C385 C369 1.429 . S
C385 C381 1.429 . S
C385 C386 1.523 . S
C386 C370 1.368 . S
C386 C382 1.368 . S
C386 C385 1.523 . S
H387 C362 0.950 . S
H388 C364 0.950 . S
H389 C365 0.949 . S
H390 C367 0.950 . S
H391 C369 0.950 . S
C392 C393 1.349 . S
C392 C394 1.327 . S
C392 H417 0.950 . S
C393 C392 1.349 . S
C393 C409 1.349 . S
C394 C392 1.327 . S
C394 C413 1.429 . S
C394 H418 0.950 . S
C395 C412 1.574 . S
C395 C414 1.368 . S
C395 H419 0.949 . S
H396 C400 0.949 . S
C397 C398 1.349 . S
C397 C399 1.327 . S
C397 H420 0.950 . S
C398 C397 1.349 . S
C398 C410 1.349 . S
C399 C397 1.327 . S
C399 C415 1.429 . S
C399 H421 0.950 . S
C400 H396 0.949 . S
C400 C408 1.574 . S
C400 C416 1.368 . S
H401 C409 0.950 . S
H402 C407 0.950 . S
H403 C408 0.949 . S
H404 C410 0.950 . S
H405 C411 0.950 . S
H406 C412 0.949 . S
C407 H402 0.950 . S
C407 C409 1.327 . S
C407 C413 1.429 . S
C408 C400 1.574 . S
C408 H403 0.949 . S
C408 C414 1.368 . S
C409 C393 1.349 . S
C409 H401 0.950 . S
C409 C407 1.327 . S
C410 C398 1.349 . S
C410 H404 0.950 . S
C410 C411 1.327 . S
C411 H405 0.950 . S
C411 C410 1.327 . S
C411 C415 1.429 . S
C412 C395 1.574 . S
C412 H406 0.949 . S
C412 C416 1.368 . S
C413 C394 1.429 . S
C413 C407 1.429 . S
C413 C414 1.523 . S
C414 C395 1.368 . S
C414 C408 1.368 . S
C414 C413 1.523 . S
C415 C399 1.429 . S
C415 C411 1.429 . S
C415 C416 1.523 . S
C416 C400 1.368 . S
C416 C412 1.368 . S
C416 C415 1.523 . S
H417 C392 0.950 . S
H418 C394 0.950 . S
H419 C395 0.949 . S
H420 C397 0.950 . S
H421 C399 0.950 . S
C422 C423 1.349 . S
C422 C424 1.327 . S
C422 H447 0.950 . S
C423 C422 1.349 . S
C423 C439 1.349 . S
C424 C422 1.327 . S
C424 C443 1.429 . S
C424 H448 0.950 . S
C425 C442 1.574 . S
C425 C444 1.368 . S
C425 H449 0.949 . S
H426 C430 0.949 . S
C427 C428 1.349 . S
C427 C429 1.327 . S
C427 H450 0.950 . S
C428 C427 1.349 . S
C428 C440 1.349 . S
C429 C427 1.327 . S
C429 C445 1.429 . S
C429 H451 0.950 . S
C430 H426 0.949 . S
C430 C438 1.574 . S
C430 C446 1.368 . S
H431 C439 0.950 . S
H432 C437 0.950 . S
H433 C438 0.949 . S
H434 C440 0.950 . S
H435 C441 0.950 . S
H436 C442 0.949 . S
C437 H432 0.950 . S
C437 C439 1.327 . S
C437 C443 1.429 . S
C438 C430 1.574 . S
C438 H433 0.949 . S
C438 C444 1.368 . S
C439 C423 1.349 . S
C439 H431 0.950 . S
C439 C437 1.327 . S
C440 C428 1.349 . S
C440 H434 0.950 . S
C440 C441 1.327 . S
C441 H435 0.950 . S
C441 C440 1.327 . S
C441 C445 1.429 . S
C442 C425 1.574 . S
C442 H436 0.949 . S
C442 C446 1.368 . S
C443 C424 1.429 . S
C443 C437 1.429 . S
C443 C444 1.523 . S
C444 C425 1.368 . S
C444 C438 1.368 . S
C444 C443 1.523 . S
C445 C429 1.429 . S
C445 C441 1.429 . S
C445 C446 1.523 . S
C446 C430 1.368 . S
C446 C442 1.368 . S
C446 C445 1.523 . S
H447 C422 0.950 . S
H448 C424 0.950 . S
H449 C425 0.949 . S
H450 C427 0.950 . S
H451 C429 0.950 . S
C93 C62 0.808 1_565 S
C98 C16 0.808 . S
C123 C85 0.808 1_655 S
C128 C39 0.808 . S
C153 C63 0.617 . S
C158 C17 0.617 . S
C183 C40 0.617 . S
C188 C86 0.617 . S
C213 C43 1.367 . S
C218 C20 1.367 . S
C243 C42 1.466 . S
C248 C65 1.466 . S
C273 C89 1.367 . S
C278 C66 1.367 . S
C303 C88 1.466 . S
C308 C19 1.466 . S
C333 C64 0.946 . S
C338 C87 0.946 . S
C363 C21 1.005 . S
C368 C90 1.005 . S
C393 C41 0.946 . S
C398 C18 0.946 . S
C423 C67 1.005 . S
C428 C44 1.005 . S
