# Generated by pormake.
# Topology ecj, (8)-cn, num edge types: 1
# Building blocks:
#     Node 0, Type 0, BuildingBlock: TAGTUT_clean_sbu_3, # of connection points: 8
#     Node 1, Type 0, BuildingBlock: TAGTUT_clean_sbu_3, # of connection points: 8
#     Node 2, Type 0, BuildingBlock: TAGTUT_clean_sbu_3, # of connection points: 8
#     Node 3, Type 0, BuildingBlock: TAGTUT_clean_sbu_3, # of connection points: 8
#     Node 4, Type 0, BuildingBlock: TAGTUT_clean_sbu_3, # of connection points: 8
#     Node 5, Type 0, BuildingBlock: TAGTUT_clean_sbu_3, # of connection points: 8
#     Node 6, Type 0, BuildingBlock: TAGTUT_clean_sbu_3, # of connection points: 8
#     Node 7, Type 0, BuildingBlock: TAGTUT_clean_sbu_3, # of connection points: 8
#     Node 8, Type 0, BuildingBlock: TAGTUT_clean_sbu_3, # of connection points: 8
#     Node 9, Type 0, BuildingBlock: TAGTUT_clean_sbu_3, # of connection points: 8
#     Node 10, Type 0, BuildingBlock: TAGTUT_clean_sbu_3, # of connection points: 8
#     Node 11, Type 0, BuildingBlock: TAGTUT_clean_sbu_3, # of connection points: 8
#     Node 12, Type 0, BuildingBlock: TAGTUT_clean_sbu_3, # of connection points: 8
#     Node 13, Type 0, BuildingBlock: TAGTUT_clean_sbu_3, # of connection points: 8
#     Node 14, Type 0, BuildingBlock: TAGTUT_clean_sbu_3, # of connection points: 8
#     Node 15, Type 0, BuildingBlock: TAGTUT_clean_sbu_3, # of connection points: 8
#     Edge 16, Type (0, 0), BuildingBlock: OJICUG_clean_linker_0, # of connection points: 2
#     Edge 17, Type (0, 0), BuildingBlock: OJICUG_clean_linker_0, # of connection points: 2
#     Edge 18, Type (0, 0), BuildingBlock: OJICUG_clean_linker_0, # of connection points: 2
#     Edge 19, Type (0, 0), BuildingBlock: OJICUG_clean_linker_0, # of connection points: 2
#     Edge 20, Type (0, 0), BuildingBlock: OJICUG_clean_linker_0, # of connection points: 2
#     Edge 21, Type (0, 0), BuildingBlock: OJICUG_clean_linker_0, # of connection points: 2
#     Edge 22, Type (0, 0), BuildingBlock: OJICUG_clean_linker_0, # of connection points: 2
#     Edge 23, Type (0, 0), BuildingBlock: OJICUG_clean_linker_0, # of connection points: 2
#     Edge 24, Type (0, 0), BuildingBlock: OJICUG_clean_linker_0, # of connection points: 2
#     Edge 25, Type (0, 0), BuildingBlock: OJICUG_clean_linker_0, # of connection points: 2
#     Edge 26, Type (0, 0), BuildingBlock: OJICUG_clean_linker_0, # of connection points: 2
#     Edge 27, Type (0, 0), BuildingBlock: OJICUG_clean_linker_0, # of connection points: 2
#     Edge 28, Type (0, 0), BuildingBlock: OJICUG_clean_linker_0, # of connection points: 2
#     Edge 29, Type (0, 0), BuildingBlock: OJICUG_clean_linker_0, # of connection points: 2
#     Edge 30, Type (0, 0), BuildingBlock: OJICUG_clean_linker_0, # of connection points: 2
#     Edge 31, Type (0, 0), BuildingBlock: OJICUG_clean_linker_0, # of connection points: 2
#     Edge 32, Type (0, 0), BuildingBlock: OJICUG_clean_linker_0, # of connection points: 2
#     Edge 33, Type (0, 0), BuildingBlock: OJICUG_clean_linker_0, # of connection points: 2
#     Edge 34, Type (0, 0), BuildingBlock: OJICUG_clean_linker_0, # of connection points: 2
#     Edge 35, Type (0, 0), BuildingBlock: OJICUG_clean_linker_0, # of connection points: 2
#     Edge 36, Type (0, 0), BuildingBlock: OJICUG_clean_linker_0, # of connection points: 2
#     Edge 37, Type (0, 0), BuildingBlock: OJICUG_clean_linker_0, # of connection points: 2
#     Edge 38, Type (0, 0), BuildingBlock: OJICUG_clean_linker_0, # of connection points: 2
#     Edge 39, Type (0, 0), BuildingBlock: OJICUG_clean_linker_0, # of connection points: 2
#     Edge 40, Type (0, 0), BuildingBlock: OJICUG_clean_linker_0, # of connection points: 2
#     Edge 41, Type (0, 0), BuildingBlock: OJICUG_clean_linker_0, # of connection points: 2
#     Edge 42, Type (0, 0), BuildingBlock: OJICUG_clean_linker_0, # of connection points: 2
#     Edge 43, Type (0, 0), BuildingBlock: OJICUG_clean_linker_0, # of connection points: 2
#     Edge 44, Type (0, 0), BuildingBlock: OJICUG_clean_linker_0, # of connection points: 2
#     Edge 45, Type (0, 0), BuildingBlock: OJICUG_clean_linker_0, # of connection points: 2
#     Edge 46, Type (0, 0), BuildingBlock: OJICUG_clean_linker_0, # of connection points: 2
#     Edge 47, Type (0, 0), BuildingBlock: OJICUG_clean_linker_0, # of connection points: 2
#     Edge 48, Type (0, 0), BuildingBlock: OJICUG_clean_linker_0, # of connection points: 2
#     Edge 49, Type (0, 0), BuildingBlock: OJICUG_clean_linker_0, # of connection points: 2
#     Edge 50, Type (0, 0), BuildingBlock: OJICUG_clean_linker_0, # of connection points: 2
#     Edge 51, Type (0, 0), BuildingBlock: OJICUG_clean_linker_0, # of connection points: 2
#     Edge 52, Type (0, 0), BuildingBlock: OJICUG_clean_linker_0, # of connection points: 2
#     Edge 53, Type (0, 0), BuildingBlock: OJICUG_clean_linker_0, # of connection points: 2
#     Edge 54, Type (0, 0), BuildingBlock: OJICUG_clean_linker_0, # of connection points: 2
#     Edge 55, Type (0, 0), BuildingBlock: OJICUG_clean_linker_0, # of connection points: 2
#     Edge 56, Type (0, 0), BuildingBlock: OJICUG_clean_linker_0, # of connection points: 2
#     Edge 57, Type (0, 0), BuildingBlock: OJICUG_clean_linker_0, # of connection points: 2
#     Edge 58, Type (0, 0), BuildingBlock: OJICUG_clean_linker_0, # of connection points: 2
#     Edge 59, Type (0, 0), BuildingBlock: OJICUG_clean_linker_0, # of connection points: 2
#     Edge 60, Type (0, 0), BuildingBlock: OJICUG_clean_linker_0, # of connection points: 2
#     Edge 61, Type (0, 0), BuildingBlock: OJICUG_clean_linker_0, # of connection points: 2
#     Edge 62, Type (0, 0), BuildingBlock: OJICUG_clean_linker_0, # of connection points: 2
#     Edge 63, Type (0, 0), BuildingBlock: OJICUG_clean_linker_0, # of connection points: 2
#     Edge 64, Type (0, 0), BuildingBlock: OJICUG_clean_linker_0, # of connection points: 2
#     Edge 65, Type (0, 0), BuildingBlock: OJICUG_clean_linker_0, # of connection points: 2
#     Edge 66, Type (0, 0), BuildingBlock: OJICUG_clean_linker_0, # of connection points: 2
#     Edge 67, Type (0, 0), BuildingBlock: OJICUG_clean_linker_0, # of connection points: 2
#     Edge 68, Type (0, 0), BuildingBlock: OJICUG_clean_linker_0, # of connection points: 2
#     Edge 69, Type (0, 0), BuildingBlock: OJICUG_clean_linker_0, # of connection points: 2
#     Edge 70, Type (0, 0), BuildingBlock: OJICUG_clean_linker_0, # of connection points: 2
#     Edge 71, Type (0, 0), BuildingBlock: OJICUG_clean_linker_0, # of connection points: 2
#     Edge 72, Type (0, 0), BuildingBlock: OJICUG_clean_linker_0, # of connection points: 2
#     Edge 73, Type (0, 0), BuildingBlock: OJICUG_clean_linker_0, # of connection points: 2
#     Edge 74, Type (0, 0), BuildingBlock: OJICUG_clean_linker_0, # of connection points: 2
#     Edge 75, Type (0, 0), BuildingBlock: OJICUG_clean_linker_0, # of connection points: 2
#     Edge 76, Type (0, 0), BuildingBlock: OJICUG_clean_linker_0, # of connection points: 2
#     Edge 77, Type (0, 0), BuildingBlock: OJICUG_clean_linker_0, # of connection points: 2
#     Edge 78, Type (0, 0), BuildingBlock: OJICUG_clean_linker_0, # of connection points: 2
#     Edge 79, Type (0, 0), BuildingBlock: OJICUG_clean_linker_0, # of connection points: 2
# Relax obj value: 0.244
# Max RMSD: 0.287
# Mean RMSD: 0.287
data_MOF--net-ecj--node1-TAGTUT_clean_sbu_3--edge1-OJICUG_clean_linker_0
_symmetry_space_group_name_H-M    P1
_symmetry_Int_Tables_number       1
_symmetry_cell_setting            triclinic
loop_
_symmetry_equiv_pos_as_xyz
'x, y, z'
_cell_length_a     44.72183
_cell_length_b     44.138797
_cell_length_c     15.174906
_cell_angle_alpha  90.001182
_cell_angle_beta   89.983259
_cell_angle_gamma 90.072677
loop_
_atom_site_label
_atom_site_type_symbol
_atom_site_fract_x
_atom_site_fract_y
_atom_site_fract_z
_atom_type_partial_charge
C0 C 0.12391 0.29057 0.05992 0.0
C1 C 0.16396 0.29143 0.35151 0.0
C2 C 0.12509 0.37133 0.40281 0.0
Mg3 Mg 0.08259 0.3308 0.9392 0.0
Mg4 Mg 0.0804 0.40534 0.91613 0.0
O5 O 0.09036 0.37242 -0.01442 0.0
Mg6 Mg 0.11681 0.36279 0.09011 0.0
O7 O 0.13886 0.34575 0.1959 0.0
Mg8 Mg 0.10597 0.32094 0.24797 0.0
Mg9 Mg 0.1726 0.35412 0.26353 0.0
C10 C 0.10101 0.43722 0.09838 0.0
O11 O 0.16249 0.37709 0.03656 0.0
O12 O 0.04367 0.34492 0.8561 0.0
O13 O 0.1959 0.37448 0.14952 0.0
O14 O 0.11182 0.34469 0.81889 0.0
O15 O 0.03541 0.39472 0.8633 0.0
O16 O 0.10997 0.39574 0.80943 0.0
O17 O 0.07538 0.34869 0.15954 0.0
O18 O 0.04874 0.32603 0.05595 0.0
C19 C 0.05087 0.33769 0.13296 0.0
C20 C 0.0282 0.36808 0.83663 0.0
O21 O 0.10988 0.41254 0.13595 0.0
O22 O 0.13683 0.29434 0.32951 0.0
O23 O 0.09081 0.43841 0.01898 0.0
O24 O 0.10557 0.35477 0.36314 0.0
O25 O 0.18426 0.3102 0.32681 0.0
O26 O 0.15091 0.37732 0.37033 0.0
O27 O 0.12235 0.31693 0.02675 0.0
O28 O 0.11532 0.28586 0.13888 0.0
C29 C 0.11786 0.36986 0.7793 0.0
C30 C 0.18896 0.38057 0.0687 0.0
C31 C 0.85 0.79045 0.33251 0.0
C32 C 0.81 0.79124 0.04077 0.0
C33 C 0.84895 0.87121 -0.01036 0.0
Mg34 Mg 0.89136 0.83075 0.45324 0.0
Mg35 Mg 0.89366 0.9053 0.4762 0.0
O36 O 0.88363 0.87235 0.40683 0.0
Mg37 Mg 0.85718 0.86266 0.3023 0.0
O38 O 0.83511 0.84557 0.19651 0.0
Mg39 Mg 0.86799 0.82083 0.14446 0.0
Mg40 Mg 0.80141 0.85392 0.1288 0.0
C41 C 0.87302 0.93712 0.29396 0.0
O42 O 0.8115 0.87693 0.35577 0.0
O43 O 0.93029 0.84493 0.53632 0.0
O44 O 0.77811 0.8743 0.24275 0.0
O45 O 0.86215 0.84462 0.57353 0.0
O46 O 0.93864 0.89473 0.52899 0.0
O47 O 0.8641 0.89567 0.58299 0.0
O48 O 0.8986 0.84862 0.23292 0.0
O49 O 0.9252 0.826 0.33651 0.0
C50 C 0.92309 0.83765 0.2595 0.0
C51 C 0.9458 0.8681 0.55573 0.0
O52 O 0.86413 0.91241 0.25643 0.0
O53 O 0.83713 0.79418 0.06287 0.0
O54 O 0.88324 0.93835 0.37334 0.0
O55 O 0.86845 0.85466 0.0293 0.0
O56 O 0.78971 0.80999 0.06539 0.0
O57 O 0.82315 0.87718 0.0221 0.0
O58 O 0.85158 0.81681 0.36568 0.0
O59 O 0.8586 0.78574 0.25356 0.0
C60 C 0.85617 0.86978 0.61314 0.0
C61 C 0.78505 0.8804 0.32358 0.0
C62 C 0.42282 0.64943 0.63438 0.0
C63 C 0.44575 0.61909 0.33808 0.0
C64 C 0.35609 0.61701 0.28047 0.0
Mg65 Mg 0.36772 0.66579 0.74931 0.0
Mg66 Mg 0.30118 0.63243 0.76492 0.0
O67 O 0.33489 0.64092 0.69725 0.0
Mg68 Mg 0.35699 0.62401 0.59131 0.0
O69 O 0.3835 0.61451 0.48677 0.0
Mg70 Mg 0.39118 0.65617 0.44052 0.0
Mg71 Mg 0.39361 0.58166 0.41727 0.0
C72 C 0.28489 0.60606 0.56992 0.0
O73 O 0.36405 0.57423 0.63696 0.0
O74 O 0.33681 0.69224 0.83119 0.0
O75 O 0.38323 0.5485 0.51983 0.0
O76 O 0.36829 0.63191 0.86425 0.0
O77 O 0.28941 0.67629 0.82843 0.0
O78 O 0.32298 0.60928 0.87164 0.0
O79 O 0.35131 0.66989 0.52792 0.0
O80 O 0.35815 0.70087 0.64045 0.0
C81 C 0.34955 0.69619 0.56149 0.0
C82 C 0.30967 0.69507 0.85327 0.0
O83 O 0.31135 0.6096 0.5378 0.0
O84 O 0.4302 0.64219 0.35756 0.0
O85 O 0.27792 0.61209 0.65078 0.0
O86 O 0.36206 0.64219 0.32005 0.0
O87 O 0.43858 0.59242 0.36462 0.0
O88 O 0.36405 0.59115 0.31059 0.0
O89 O 0.39835 0.63822 0.66055 0.0
O90 O 0.42497 0.66112 0.55742 0.0
C91 C 0.34879 0.61533 0.90403 0.0
C92 C 0.37299 0.5496 0.5992 0.0
C93 C 0.55096 0.14954 0.75811 0.0
C94 C 0.528 0.11916 0.05431 0.0
C95 C 0.61764 0.11724 0.11198 0.0
Mg96 Mg 0.60605 0.16603 0.64311 0.0
Mg97 Mg 0.67255 0.13277 0.62742 0.0
O98 O 0.63889 0.14125 0.69519 0.0
Mg99 Mg 0.61677 0.12428 0.80112 0.0
O100 O 0.59027 0.11471 0.90567 0.0
Mg101 Mg 0.5826 0.15635 -0.04806 0.0
Mg102 Mg 0.58011 0.08183 -0.02491 0.0
C103 C 0.68884 0.10637 0.82235 0.0
O104 O 0.6097 0.07449 0.75544 0.0
O105 O 0.63696 0.19253 0.56114 0.0
O106 O 0.5905 0.0487 0.87253 0.0
O107 O 0.60544 0.13213 0.52821 0.0
O108 O 0.68435 0.17664 0.5638 0.0
O109 O 0.65072 0.10957 0.52079 0.0
O110 O 0.62248 0.17018 0.86453 0.0
O111 O 0.61563 0.20113 0.75197 0.0
C112 C 0.62423 0.19647 0.83094 0.0
C113 C 0.6641 0.19539 0.53898 0.0
O114 O 0.6624 0.10992 0.85455 0.0
O115 O 0.54357 0.14229 0.0349 0.0
O116 O 0.6958 0.1124 0.74148 0.0
O117 O 0.61171 0.14242 0.0724 0.0
O118 O 0.53513 0.09251 0.0277 0.0
O119 O 0.60965 0.09137 0.08184 0.0
O120 O 0.57543 0.1384 0.73193 0.0
O121 O 0.54881 0.16123 0.83508 0.0
C122 C 0.62491 0.11557 0.48843 0.0
C123 C 0.60076 0.04983 0.79316 0.0
C124 C 0.12387 0.69603 0.33237 0.0
C125 C 0.16389 0.69526 0.04068 0.0
C126 C 0.125 0.61529 -0.0105 0.0
Mg127 Mg 0.0825 0.65573 0.45316 0.0
Mg128 Mg 0.08025 0.58118 0.47623 0.0
O129 O 0.09023 0.61413 0.40676 0.0
Mg130 Mg 0.11669 0.62381 0.3022 0.0
O131 O 0.13877 0.64089 0.19637 0.0
Mg132 Mg 0.10589 0.66563 0.14435 0.0
Mg133 Mg 0.17251 0.6326 0.12873 0.0
C134 C 0.10088 0.54934 0.29398 0.0
O135 O 0.16236 0.60959 0.35571 0.0
O136 O 0.04358 0.64154 0.53632 0.0
O137 O 0.1958 0.61228 0.24277 0.0
O138 O 0.11172 0.64189 0.57343 0.0
O139 O 0.03527 0.59173 0.52915 0.0
O140 O 0.10983 0.59083 0.5829 0.0
O141 O 0.07528 0.63783 0.23283 0.0
O142 O 0.04866 0.66046 0.33647 0.0
C143 C 0.05078 0.6488 0.25945 0.0
C144 C 0.02809 0.61836 0.55583 0.0
O145 O 0.10976 0.57405 0.2564 0.0
O146 O 0.13676 0.69229 0.06274 0.0
O147 O 0.09067 0.54812 0.37339 0.0
O148 O 0.10548 0.6318 0.0292 0.0
O149 O 0.18419 0.67655 0.06538 0.0
O150 O 0.15082 0.60935 0.02194 0.0
O151 O 0.12228 0.66966 0.36554 0.0
O152 O 0.11527 0.70073 0.25343 0.0
C153 C 0.11774 0.61673 0.61302 0.0
C154 C 0.18883 0.60617 0.32359 0.0
C155 C 0.55091 0.83762 0.63412 0.0
C156 C 0.52799 0.86794 0.33796 0.0
C157 C 0.61764 0.87002 0.28016 0.0
Mg158 Mg 0.60597 0.82125 0.74905 0.0
Mg159 Mg 0.67251 0.85459 0.76466 0.0
O160 O 0.63883 0.84609 0.69696 0.0
Mg161 Mg 0.61676 0.863 0.59101 0.0
O162 O 0.59028 0.8725 0.48648 0.0
Mg163 Mg 0.58256 0.83086 0.44026 0.0
Mg164 Mg 0.58012 0.90537 0.41708 0.0
C165 C 0.68888 0.8809 0.56965 0.0
O166 O 0.60972 0.91279 0.63665 0.0
O167 O 0.63685 0.79479 0.83096 0.0
O168 O 0.59052 0.93853 0.51961 0.0
O169 O 0.60539 0.85515 0.86396 0.0
O170 O 0.68426 0.81075 0.82823 0.0
O171 O 0.6507 0.87778 0.8713 0.0
O172 O 0.62243 0.81711 0.52764 0.0
O173 O 0.61554 0.78615 0.64022 0.0
C174 C 0.62416 0.79082 0.56125 0.0
C175 C 0.66399 0.79196 0.85304 0.0
O176 O 0.66243 0.87737 0.5375 0.0
O177 O 0.54355 0.84484 0.35735 0.0
O178 O 0.69581 0.87489 0.65054 0.0
O179 O 0.61169 0.84483 0.31975 0.0
O180 O 0.53513 0.8946 0.36457 0.0
O181 O 0.60966 0.89588 0.31029 0.0
O182 O 0.57537 0.84883 0.66027 0.0
O183 O 0.54877 0.82591 0.55717 0.0
C184 C 0.62488 0.87173 0.90371 0.0
C185 C 0.60078 0.93742 0.59894 0.0
C186 C 0.34986 0.29048 0.83097 0.0
C187 C 0.3098 0.29154 0.53929 0.0
C188 C 0.34895 0.37136 0.48834 0.0
Mg189 Mg 0.39134 0.33061 -0.04814 0.0
Mg190 Mg 0.39385 0.40512 -0.02489 0.0
O191 O 0.38369 0.37225 0.90564 0.0
Mg192 Mg 0.35719 0.36271 0.80109 0.0
O193 O 0.33508 0.34574 0.69521 0.0
Mg194 Mg 0.36789 0.32093 0.64304 0.0
Mg195 Mg 0.30138 0.35418 0.62758 0.0
C196 C 0.37318 0.43716 0.7933 0.0
O197 O 0.31155 0.37702 0.85469 0.0
O198 O 0.43036 0.34464 0.03491 0.0
O199 O 0.27814 0.37451 0.74168 0.0
O200 O 0.36219 0.3445 0.0723 0.0
O201 O 0.43883 0.39442 0.02766 0.0
O202 O 0.36428 0.39555 0.08184 0.0
O203 O 0.39856 0.3486 0.73161 0.0
O204 O 0.42514 0.32584 0.83502 0.0
C205 C 0.42303 0.33755 0.75808 0.0
C206 C 0.44595 0.36776 0.05429 0.0
O207 O 0.36424 0.41251 0.75555 0.0
O208 O 0.33694 0.29441 0.56133 0.0
O209 O 0.38345 0.43828 0.87263 0.0
O210 O 0.36844 0.35481 0.52806 0.0
O211 O 0.28956 0.3103 0.56412 0.0
O212 O 0.32316 0.37737 0.5208 0.0
O213 O 0.35151 0.31682 0.86427 0.0
O214 O 0.35842 0.2858 0.75197 0.0
C215 C 0.35626 0.36968 0.11191 0.0
C216 C 0.2851 0.38055 0.82254 0.0
C217 C 0.92303 0.14877 0.13257 0.0
C218 C 0.94572 0.11822 0.83628 0.0
C219 C 0.85611 0.11649 0.77889 0.0
Mg220 Mg 0.86801 0.16542 0.24762 0.0
Mg221 Mg 0.80137 0.13229 0.26342 0.0
O222 O 0.83507 0.14069 0.19564 0.0
Mg223 Mg 0.8571 0.12363 0.08975 0.0
O224 O 0.88353 0.11396 -0.0148 0.0
Mg225 Mg 0.89136 0.15556 0.93879 0.0
Mg226 Mg 0.8935 0.08102 0.91583 0.0
C227 C 0.78493 0.10594 0.06852 0.0
O228 O 0.864 0.07389 0.13568 0.0
O229 O 0.83723 0.19202 0.32948 0.0
O230 O 0.88307 0.04797 0.01874 0.0
O231 O 0.86846 0.13155 0.36266 0.0
O232 O 0.78978 0.1762 0.32696 0.0
O233 O 0.82311 0.10903 0.36999 0.0
O234 O 0.85157 0.16951 0.02621 0.0
O235 O 0.85856 0.2005 0.13865 0.0
C236 C 0.84992 0.19582 0.05972 0.0
C237 C 0.8101 0.19494 0.35164 0.0
O238 O 0.8114 0.10937 0.03636 0.0
O239 O 0.93027 0.14138 0.85577 0.0
O240 O 0.778 0.11201 0.14938 0.0
O241 O 0.86216 0.14165 0.81846 0.0
O242 O 0.9385 0.09159 0.86296 0.0
O243 O 0.86396 0.0906 0.80908 0.0
O244 O 0.89852 0.1377 0.15887 0.0
O245 O 0.9252 0.16042 0.05555 0.0
C246 C 0.84893 0.11499 0.40238 0.0
C247 C 0.87287 0.0492 0.09815 0.0
C248 C 0.84998 0.69587 0.83246 0.0
C249 C 0.80996 0.69502 0.54085 0.0
C250 C 0.84878 0.6151 0.48962 0.0
Mg251 Mg 0.8913 0.65564 -0.04677 0.0
Mg252 Mg 0.89349 0.58111 -0.02368 0.0
O253 O 0.88351 0.61403 0.90688 0.0
Mg254 Mg 0.85707 0.62366 0.80233 0.0
O255 O 0.83504 0.64069 0.6965 0.0
Mg256 Mg 0.86793 0.66548 0.64443 0.0
Mg257 Mg 0.80129 0.63235 0.62889 0.0
C258 C 0.87287 0.54922 0.7941 0.0
O259 O 0.81137 0.6094 0.85589 0.0
O260 O 0.93021 0.64152 0.03635 0.0
O261 O 0.77796 0.61205 0.74296 0.0
O262 O 0.86206 0.64176 0.07355 0.0
O263 O 0.93847 0.59173 0.02914 0.0
O264 O 0.86391 0.59071 0.08301 0.0
O265 O 0.89851 0.63773 0.7329 0.0
O266 O 0.92515 0.6604 0.83649 0.0
C267 C 0.92302 0.64873 0.75949 0.0
C268 C 0.94568 0.61837 0.05582 0.0
O269 O 0.86398 0.5739 0.75653 0.0
O270 O 0.83709 0.6921 0.56285 0.0
O271 O 0.88308 0.54803 0.87349 0.0
O272 O 0.86832 0.63165 0.5293 0.0
O273 O 0.78965 0.67627 0.56558 0.0
O274 O 0.82297 0.60912 0.52211 0.0
O275 O 0.85154 0.66952 0.86565 0.0
O276 O 0.85858 0.70058 0.7535 0.0
C277 C 0.85602 0.61659 0.11314 0.0
C278 C 0.7849 0.60596 0.82379 0.0
C279 C 0.12388 0.196 0.55966 0.0
C280 C 0.16384 0.1952 0.85146 0.0
C281 C 0.12488 0.11521 0.90249 0.0
Mg282 Mg 0.08251 0.15571 0.4389 0.0
Mg283 Mg 0.08014 0.08117 0.41596 0.0
O284 O 0.09025 0.11411 0.48526 0.0
Mg285 Mg 0.11669 0.12379 0.58983 0.0
O286 O 0.13875 0.14087 0.69566 0.0
Mg287 Mg 0.10586 0.16561 0.74768 0.0
Mg288 Mg 0.17245 0.13252 0.7634 0.0
C289 C 0.1008 0.04934 0.59816 0.0
O290 O 0.16237 0.10953 0.53639 0.0
O291 O 0.04357 0.14155 0.35581 0.0
O292 O 0.19575 0.11218 0.64942 0.0
O293 O 0.11171 0.14183 0.31859 0.0
O294 O 0.03515 0.09177 0.36326 0.0
O295 O 0.10968 0.09078 0.30911 0.0
O296 O 0.07528 0.13782 0.65918 0.0
O297 O 0.04867 0.16045 0.55561 0.0
C298 C 0.05078 0.14878 0.6326 0.0
C299 C 0.02802 0.1184 0.33647 0.0
O300 O 0.10972 0.07403 0.63568 0.0
O301 O 0.13671 0.19226 0.82934 0.0
O302 O 0.09056 0.04812 0.51881 0.0
O303 O 0.1054 0.13177 0.86282 0.0
O304 O 0.18413 0.17645 0.82685 0.0
O305 O 0.15069 0.10925 0.87004 0.0
O306 O 0.1223 0.16964 0.52647 0.0
O307 O 0.11527 0.2007 0.63861 0.0
C308 C 0.11765 0.11666 0.27897 0.0
C309 C 0.18882 0.10608 0.56858 0.0
C310 C 0.55104 0.33766 0.25814 0.0
C311 C 0.52817 0.36799 0.55449 0.0
C312 C 0.61784 0.37001 0.61199 0.0
Mg313 Mg 0.60612 0.32128 0.14309 0.0
Mg314 Mg 0.67269 0.35457 0.12753 0.0
O315 O 0.63897 0.34611 0.19518 0.0
Mg316 Mg 0.61689 0.36302 0.30117 0.0
O317 O 0.59041 0.37252 0.40574 0.0
Mg318 Mg 0.58269 0.33088 0.45196 0.0
Mg319 Mg 0.58032 0.40539 0.47525 0.0
C320 C 0.68903 0.38086 0.32257 0.0
O321 O 0.60987 0.41282 0.25556 0.0
O322 O 0.637 0.29482 0.06113 0.0
O323 O 0.5907 0.43855 0.37271 0.0
O324 O 0.60558 0.35519 0.02821 0.0
O325 O 0.68442 0.31071 0.06401 0.0
O326 O 0.65092 0.37774 0.02082 0.0
O327 O 0.62254 0.31711 0.36449 0.0
O328 O 0.61565 0.28617 0.2519 0.0
C329 C 0.62426 0.29082 0.33087 0.0
C330 C 0.66414 0.29196 0.03908 0.0
O331 O 0.66255 0.37737 0.35468 0.0
O332 O 0.5437 0.34488 0.53498 0.0
O333 O 0.69598 0.37485 0.2417 0.0
O334 O 0.61184 0.34483 0.57241 0.0
O335 O 0.53534 0.39465 0.52794 0.0
O336 O 0.60989 0.39587 0.58188 0.0
O337 O 0.57551 0.34886 0.23194 0.0
O338 O 0.5489 0.32596 0.33509 0.0
C339 C 0.6251 0.37174 -0.01157 0.0
C340 C 0.60093 0.43745 0.29333 0.0
C341 C 0.34966 0.79045 0.06166 0.0
C342 C 0.30958 0.7915 0.35333 0.0
C343 C 0.34873 0.8713 0.40431 0.0
Mg344 Mg 0.39119 0.83054 0.94073 0.0
Mg345 Mg 0.39371 0.90505 0.9174 0.0
O346 O 0.38356 0.87219 -0.01305 0.0
Mg347 Mg 0.35704 0.86267 0.09152 0.0
O348 O 0.3349 0.84573 0.19743 0.0
Mg349 Mg 0.36768 0.82089 0.24957 0.0
Mg350 Mg 0.30117 0.85414 0.26501 0.0
C351 C 0.37308 0.93712 0.09926 0.0
O352 O 0.31142 0.877 0.03791 0.0
O353 O 0.43022 0.84455 0.85763 0.0
O354 O 0.27797 0.87447 0.15084 0.0
O355 O 0.36204 0.84444 0.82031 0.0
O356 O 0.43868 0.89433 0.86475 0.0
O357 O 0.36412 0.89548 0.81078 0.0
O358 O 0.39839 0.84854 0.16099 0.0
O359 O 0.42497 0.82577 0.05756 0.0
C360 C 0.42286 0.83748 0.13451 0.0
C361 C 0.4458 0.86767 0.83818 0.0
O362 O 0.36412 0.91247 0.13704 0.0
O363 O 0.33672 0.79438 0.3313 0.0
O364 O 0.38334 0.93822 0.0199 0.0
O365 O 0.36822 0.85476 0.36455 0.0
O366 O 0.28933 0.81025 0.32845 0.0
O367 O 0.32293 0.8773 0.37187 0.0
O368 O 0.35134 0.81679 0.02836 0.0
O369 O 0.35821 0.78576 0.14065 0.0
C370 C 0.3561 0.86961 0.78072 0.0
C371 C 0.28495 0.88051 0.07 0.0
C372 C 0.85004 0.29041 0.56012 0.0
C373 C 0.80994 0.29125 0.85182 0.0
C374 C 0.8489 0.37118 0.90298 0.0
Mg375 Mg 0.89139 0.33071 0.43932 0.0
Mg376 Mg 0.89365 0.40525 0.41625 0.0
O377 O 0.88368 0.37231 0.48573 0.0
Mg378 Mg 0.8572 0.36263 0.59027 0.0
O379 O 0.83511 0.34556 0.69607 0.0
Mg380 Mg 0.86798 0.32082 0.74815 0.0
Mg381 Mg 0.80138 0.35391 0.76372 0.0
C382 C 0.87302 0.43709 0.5985 0.0
O383 O 0.81155 0.37689 0.53675 0.0
O384 O 0.93032 0.34489 0.35616 0.0
O385 O 0.77812 0.37427 0.64971 0.0
O386 O 0.86218 0.34455 0.31905 0.0
O387 O 0.93862 0.3947 0.36331 0.0
O388 O 0.86406 0.39561 0.3096 0.0
O389 O 0.89861 0.34859 0.65966 0.0
O390 O 0.92522 0.32597 0.55602 0.0
C391 C 0.92311 0.33762 0.63304 0.0
C392 C 0.94581 0.36807 0.33664 0.0
O393 O 0.86415 0.41239 0.63608 0.0
O394 O 0.83708 0.29419 0.82977 0.0
O395 O 0.88323 0.43832 0.51909 0.0
O396 O 0.86841 0.35466 0.86327 0.0
O397 O 0.78966 0.30998 0.82709 0.0
O398 O 0.82309 0.37714 0.87053 0.0
O399 O 0.85162 0.31677 0.52693 0.0
O400 O 0.85861 0.28571 0.63909 0.0
C401 C 0.85615 0.36971 0.27947 0.0
C402 C 0.78509 0.38037 0.56889 0.0
C403 C 0.42294 0.14934 0.25832 0.0
C404 C 0.4459 0.11906 0.55437 0.0
C405 C 0.35626 0.11692 0.61225 0.0
Mg406 Mg 0.3679 0.16574 0.14337 0.0
Mg407 Mg 0.30137 0.13239 0.12766 0.0
O408 O 0.33504 0.14089 0.19542 0.0
Mg409 Mg 0.3571 0.12396 0.30136 0.0
O410 O 0.38357 0.11446 0.40593 0.0
Mg411 Mg 0.39129 0.15611 0.45215 0.0
Mg412 Mg 0.39379 0.0816 0.47525 0.0
C413 C 0.28499 0.10601 0.32259 0.0
O414 O 0.36416 0.07418 0.25568 0.0
O415 O 0.33704 0.1922 0.06144 0.0
O416 O 0.38338 0.04845 0.3727 0.0
O417 O 0.36849 0.13184 0.02844 0.0
O418 O 0.28963 0.17625 0.0641 0.0
O419 O 0.32319 0.1092 0.02107 0.0
O420 O 0.35142 0.16985 0.36478 0.0
O421 O 0.35832 0.20082 0.25222 0.0
C422 C 0.3497 0.19614 0.33118 0.0
C423 C 0.30991 0.19503 0.03932 0.0
O424 O 0.31144 0.10955 0.35479 0.0
O425 O 0.43031 0.14214 0.53505 0.0
O426 O 0.27807 0.11204 0.24171 0.0
O427 O 0.36218 0.14211 0.57264 0.0
O428 O 0.43878 0.09239 0.5277 0.0
O429 O 0.36427 0.09107 0.58212 0.0
O430 O 0.39848 0.13815 0.23217 0.0
O431 O 0.42509 0.16105 0.33526 0.0
C432 C 0.34901 0.11524 -0.01131 0.0
C433 C 0.37311 0.04955 0.29338 0.0
C434 C 0.62407 0.69655 0.06152 0.0
C435 C 0.66414 0.69546 0.35322 0.0
C436 C 0.62493 0.61567 0.40416 0.0
Mg437 Mg 0.58255 0.65644 0.94066 0.0
Mg438 Mg 0.57999 0.58193 0.91744 0.0
O439 O 0.59019 0.6148 -0.01312 0.0
Mg440 Mg 0.6167 0.62433 0.09141 0.0
O441 O 0.63883 0.64128 0.19728 0.0
Mg442 Mg 0.60604 0.66611 0.24946 0.0
Mg443 Mg 0.67252 0.63281 0.26493 0.0
C444 C 0.60067 0.54988 0.09924 0.0
O445 O 0.66233 0.60996 0.03783 0.0
O446 O 0.54352 0.64244 0.85764 0.0
O447 O 0.69573 0.61243 0.15085 0.0
O448 O 0.61169 0.64253 0.8202 0.0
O449 O 0.53501 0.59267 0.86493 0.0
O450 O 0.60955 0.59148 0.81067 0.0
O451 O 0.57534 0.63846 0.16091 0.0
O452 O 0.54877 0.66124 0.05752 0.0
C453 C 0.55088 0.64953 0.13447 0.0
C454 C 0.52791 0.61933 0.83829 0.0
O455 O 0.60962 0.57453 0.13698 0.0
O456 O 0.637 0.69261 0.33117 0.0
O457 O 0.59039 0.54877 0.01992 0.0
O458 O 0.60546 0.63224 0.36444 0.0
O459 O 0.68437 0.67668 0.32842 0.0
O460 O 0.65072 0.60964 0.37171 0.0
O461 O 0.62241 0.67021 0.02822 0.0
O462 O 0.61552 0.70123 0.14053 0.0
C463 C 0.6176 0.61735 0.78059 0.0
C464 C 0.68877 0.6064 0.06999 0.0
C465 C 0.1239 0.79059 0.83227 0.0
C466 C 0.16396 0.79143 0.54064 0.0
C467 C 0.12513 0.87132 0.48937 0.0
Mg468 Mg 0.08256 0.83082 -0.04697 0.0
Mg469 Mg 0.08039 0.90535 -0.02385 0.0
O470 O 0.09032 0.87243 0.90664 0.0
Mg471 Mg 0.11678 0.8628 0.80209 0.0
O472 O 0.13885 0.84576 0.69627 0.0
Mg473 Mg 0.10597 0.82095 0.64423 0.0
Mg474 Mg 0.17261 0.85411 0.62866 0.0
C475 C 0.10098 0.93723 0.79385 0.0
O476 O 0.16245 0.8771 0.85563 0.0
O477 O 0.04364 0.84494 0.03619 0.0
O478 O 0.1959 0.87445 0.74273 0.0
O479 O 0.11179 0.8447 0.0733 0.0
O480 O 0.03541 0.89474 0.0291 0.0
O481 O 0.10997 0.89575 0.08277 0.0
O482 O 0.07536 0.8487 0.73268 0.0
O483 O 0.04871 0.82604 0.83631 0.0
C484 C 0.05085 0.8377 0.75929 0.0
C485 C 0.02818 0.8681 0.05574 0.0
O486 O 0.10986 0.91255 0.75626 0.0
O487 O 0.13683 0.79435 0.56266 0.0
O488 O 0.09079 0.93843 0.87328 0.0
O489 O 0.10559 0.85477 0.52907 0.0
O490 O 0.18427 0.81018 0.56536 0.0
O491 O 0.15094 0.8773 0.52183 0.0
O492 O 0.12232 0.81695 0.86543 0.0
O493 O 0.11531 0.78586 0.75332 0.0
C494 C 0.11785 0.86986 0.11289 0.0
C495 C 0.18894 0.88054 0.82355 0.0
C496 C 0.26656 0.38973 -0.02435 0.0
C497 C 0.26076 0.3881 0.88463 0.0
H498 H 0.24834 0.38896 0.10569 0.0
C499 C 0.23103 0.38969 0.85519 0.0
H500 H 0.28922 0.38904 0.00077 0.0
C501 C 0.20753 0.38976 0.91559 0.0
C502 C 0.21333 0.38811 0.00662 0.0
H503 H 0.22575 0.38899 0.78555 0.0
H504 H 0.18486 0.3891 0.89047 0.0
C505 C 0.24306 0.38967 0.03606 0.0
C506 C 0.87121 0.02088 0.24094 0.0
C507 C 0.87156 0.02059 0.14847 0.0
H508 H 0.87163 -0.00532 0.35941 0.0
C509 C 0.87138 0.99259 0.10409 0.0
H510 H 0.87137 0.04208 0.27696 0.0
C511 C 0.87118 0.96543 0.15122 0.0
C512 C 0.87167 0.96573 0.24369 0.0
H513 H 0.8714 0.99163 0.03275 0.0
H514 H 0.87131 0.94424 0.11519 0.0
C515 C 0.87151 -0.00628 0.28808 0.0
C516 C 0.2429 0.59707 0.35628 0.0
C517 C 0.21316 0.59862 0.38569 0.0
H518 H 0.28905 0.59766 0.39164 0.0
C519 C 0.20733 0.59692 0.4767 0.0
H520 H 0.2482 0.59782 0.28666 0.0
C521 C 0.2308 0.59694 0.53715 0.0
C522 C 0.26055 0.59854 0.50776 0.0
H523 H 0.18466 0.59757 0.50179 0.0
H524 H 0.2255 0.5976 0.60678 0.0
C525 C 0.26638 0.59696 0.41673 0.0
C526 C 0.60228 0.99322 0.78805 0.0
C527 C 0.6021 0.02114 0.74326 0.0
H528 H 0.6024 0.94485 0.77764 0.0
C529 C 0.60253 0.02128 0.65079 0.0
H530 H 0.6022 0.99239 0.85939 0.0
C531 C 0.60229 -0.00597 0.60406 0.0
C532 C 0.60212 0.96611 0.64885 0.0
H533 H 0.60238 0.04241 0.61446 0.0
H534 H 0.60222 -0.00513 0.53271 0.0
C535 C 0.60254 0.96598 0.74131 0.0
C536 C 0.74282 0.59711 0.03737 0.0
C537 C 0.71309 0.59876 0.00792 0.0
H538 H 0.78898 0.59755 0.00207 0.0
C539 C 0.70729 0.59707 0.91691 0.0
H540 H 0.7481 0.59785 0.107 0.0
C541 C 0.73078 0.59701 0.8565 0.0
C542 C 0.76052 0.59851 0.88592 0.0
H543 H 0.68462 0.5978 0.89179 0.0
H544 H 0.72551 0.59768 0.78686 0.0
C545 C 0.76631 0.59692 -0.02305 0.0
C546 C 0.10262 0.96556 0.6511 0.0
C547 C 0.10227 0.96585 0.74357 0.0
H548 H 0.10218 0.99178 0.53266 0.0
C549 C 0.10246 -0.00617 0.78799 0.0
H550 H 0.10246 0.94437 0.61505 0.0
C551 C 0.10265 0.021 0.74088 0.0
C552 C 0.10216 0.02072 0.64841 0.0
H553 H 0.10243 -0.00522 0.85932 0.0
H554 H 0.10252 0.04219 0.77693 0.0
C555 C 0.10231 0.99273 0.60399 0.0
C556 C 0.70756 0.38982 0.4758 0.0
C557 C 0.71338 0.3883 0.38476 0.0
H558 H 0.72573 0.38883 0.60587 0.0
C559 C 0.74314 0.38983 0.35538 0.0
H560 H 0.68489 0.38917 0.50089 0.0
C561 C 0.76661 0.38974 0.41583 0.0
C562 C 0.76077 0.388 0.50683 0.0
H563 H 0.74843 0.3892 0.28575 0.0
H564 H 0.78928 0.38904 0.39072 0.0
C565 C 0.73104 0.38961 0.53625 0.0
C566 C 0.3716 -0.00627 0.10431 0.0
C567 C 0.37176 0.96581 0.14913 0.0
H568 H 0.37151 0.04211 0.11468 0.0
C569 C 0.37132 0.96569 0.24159 0.0
H570 H 0.37168 -0.00544 0.03296 0.0
C571 C 0.37158 0.99294 0.2883 0.0
C572 C 0.37177 0.02086 0.24349 0.0
H573 H 0.37145 0.94456 0.27794 0.0
H574 H 0.37165 0.99211 0.35965 0.0
C575 C 0.37135 0.02098 0.15102 0.0
C576 C 0.70748 0.88986 0.41646 0.0
C577 C 0.71326 0.88834 0.50751 0.0
H578 H 0.72572 0.88885 0.28645 0.0
C579 C 0.743 0.88989 0.53696 0.0
H580 H 0.68482 0.8892 0.39133 0.0
C581 C 0.7665 0.88981 0.47658 0.0
C582 C 0.76071 0.88805 0.38557 0.0
H583 H 0.74826 0.88928 0.60661 0.0
H584 H 0.78916 0.88912 0.50173 0.0
C585 C 0.73098 0.88965 0.35608 0.0
C586 C 0.37164 0.49377 0.78827 0.0
C587 C 0.37181 0.46586 0.74345 0.0
H588 H 0.37148 0.54216 0.77791 0.0
C589 C 0.37132 0.46574 0.65098 0.0
H590 H 0.37176 0.4946 0.85962 0.0
C591 C 0.37151 0.49299 0.60428 0.0
C592 C 0.37169 0.5209 0.6491 0.0
H593 H 0.37146 0.44461 0.61463 0.0
H594 H 0.37154 0.49216 0.53293 0.0
C595 C 0.37133 0.52103 0.74157 0.0
C596 C 0.70733 0.09705 -0.02458 0.0
C597 C 0.71316 0.09873 0.8844 0.0
H598 H 0.72553 0.09768 0.10547 0.0
C599 C 0.74289 0.09708 0.85495 0.0
H600 H 0.68467 0.09778 0.00054 0.0
C601 C 0.76637 0.09689 0.91537 0.0
C602 C 0.76056 0.09849 0.0064 0.0
H603 H 0.74818 0.09782 0.78532 0.0
H604 H 0.78904 0.09751 0.89024 0.0
C605 C 0.73081 0.097 0.03583 0.0
C606 C 0.1024 0.49274 0.28819 0.0
C607 C 0.10223 0.52072 0.24375 0.0
H608 H 0.10254 0.44438 0.27717 0.0
C609 C 0.1027 0.52099 0.15128 0.0
H610 H 0.1023 0.4918 0.35952 0.0
C611 C 0.10249 0.49382 0.10419 0.0
C612 C 0.10231 0.46584 0.14863 0.0
H613 H 0.10256 0.54218 0.11521 0.0
H614 H 0.10244 0.49476 0.03286 0.0
C615 C 0.10269 0.46557 0.2411 0.0
C616 C 0.2429 0.09696 0.53606 0.0
C617 C 0.21317 0.09851 0.50656 0.0
H618 H 0.28907 0.09755 0.50085 0.0
C619 C 0.20739 0.09683 0.41554 0.0
H620 H 0.24816 0.09769 0.6057 0.0
C621 C 0.2309 0.09686 0.35516 0.0
C622 C 0.26063 0.09845 0.38465 0.0
H623 H 0.18473 0.09748 0.39038 0.0
H624 H 0.22564 0.09753 0.28552 0.0
C625 C 0.26641 0.09686 0.47569 0.0
C626 C 0.60255 0.46602 0.15096 0.0
C627 C 0.60222 0.46614 0.24343 0.0
H628 H 0.60206 0.49244 0.03291 0.0
C629 C 0.60241 0.49406 0.28825 0.0
H630 H 0.60238 0.44489 0.11461 0.0
C631 C 0.60258 0.52131 0.24154 0.0
C632 C 0.60205 0.52118 0.14908 0.0
H633 H 0.60241 0.49489 0.35959 0.0
H634 H 0.60246 0.54244 0.2779 0.0
C635 C 0.60221 0.49327 0.10426 0.0
C636 C 0.20743 0.88973 -0.02329 0.0
C637 C 0.21327 0.88807 0.8857 0.0
H638 H 0.22559 0.88896 0.10681 0.0
C639 C 0.24303 0.88962 0.85634 0.0
H640 H 0.18476 0.88907 0.00177 0.0
C641 C 0.26649 0.88967 0.91682 0.0
C642 C 0.26064 0.88805 0.00783 0.0
H643 H 0.24833 0.8889 0.78672 0.0
H644 H 0.28917 0.88898 0.89175 0.0
C645 C 0.2309 0.88965 0.03719 0.0
C646 C 0.87119 0.52087 0.65138 0.0
C647 C 0.87157 0.5206 0.74385 0.0
H648 H 0.87159 0.49464 0.53296 0.0
C649 C 0.87141 0.49262 0.78828 0.0
H650 H 0.87133 0.54206 0.61531 0.0
C651 C 0.87121 0.46544 0.7412 0.0
C652 C 0.87167 0.46572 0.64873 0.0
H653 H 0.87145 0.49167 0.85962 0.0
H654 H 0.87135 0.44426 0.77727 0.0
C655 C 0.87149 0.4937 0.60429 0.0
C656 C 0.13604 0.39476 0.64071 0.0
C657 C 0.12521 0.36884 0.68469 0.0
H658 H 0.14423 0.41628 0.51565 0.0
C659 C 0.11435 0.34448 0.63474 0.0
H660 H 0.14423 0.41404 0.67775 0.0
C661 C 0.11273 0.34656 0.54357 0.0
C662 C 0.12274 0.37268 0.4994 0.0
H663 H 0.10542 0.32436 0.66614 0.0
H664 H 0.10421 0.3272 0.50743 0.0
C665 C 0.13533 0.39642 0.54847 0.0
C666 C 0.86128 0.84647 0.84885 0.0
C667 C 0.85132 0.87258 0.89305 0.0
H668 H 0.86855 0.82429 0.72626 0.0
C669 C 0.83877 0.89632 0.84401 0.0
H670 H 0.86977 0.82712 0.88497 0.0
C671 C 0.83806 0.89467 0.75177 0.0
C672 C 0.84884 0.86876 0.70776 0.0
H673 H 0.82992 0.91616 0.87685 0.0
H674 H 0.8299 0.91395 0.71475 0.0
C675 C 0.85965 0.8444 0.75768 0.0
C676 C 0.36116 0.64019 0.04464 0.0
C677 C 0.35116 0.61404 0.00062 0.0
H678 H 0.36849 0.66246 0.1671 0.0
C679 C 0.33857 0.59033 0.04984 0.0
H680 H 0.36968 0.65953 0.0084 0.0
C681 C 0.33788 0.59204 0.14207 0.0
C682 C 0.34871 0.61798 0.1859 0.0
H683 H 0.32968 0.57045 0.01714 0.0
H684 H 0.32969 0.57278 0.17923 0.0
C685 C 0.35956 0.64232 0.13582 0.0
C686 C 0.63582 0.09231 0.25039 0.0
C687 C 0.62499 0.11823 0.20657 0.0
H688 H 0.64402 0.07074 0.37532 0.0
C689 C 0.61413 0.14253 0.25665 0.0
H690 H 0.64401 0.07307 0.21323 0.0
C691 C 0.61251 0.14039 0.34782 0.0
C692 C 0.62253 0.11427 0.39184 0.0
H693 H 0.6052 0.16264 0.22536 0.0
H694 H 0.604 0.1597 0.38406 0.0
C695 C 0.63512 0.09059 0.34262 0.0
C696 C 0.13591 0.59186 0.75157 0.0
C697 C 0.1251 0.61776 0.70761 0.0
H698 H 0.1441 0.57037 0.87662 0.0
C699 C 0.11426 0.64211 0.75757 0.0
H700 H 0.14409 0.5726 0.71452 0.0
C701 C 0.11265 0.64003 0.84876 0.0
C702 C 0.12264 0.61393 0.89291 0.0
H703 H 0.10534 0.66221 0.7262 0.0
H704 H 0.10415 0.65937 0.88491 0.0
C705 C 0.13522 0.59021 0.84382 0.0
C706 C 0.61412 0.84473 0.13551 0.0
C707 C 0.625 0.86906 0.18557 0.0
H708 H 0.60397 0.82754 0.00811 0.0
C709 C 0.63583 0.89501 0.14172 0.0
H710 H 0.60518 0.8246 0.16681 0.0
C711 C 0.63512 0.89672 0.0495 0.0
C712 C 0.62252 0.87301 0.0003 0.0
H713 H 0.64403 0.91426 0.17887 0.0
H714 H 0.64401 0.9166 0.01678 0.0
C715 C 0.6125 0.84687 0.04434 0.0
C716 C 0.33807 0.39463 0.25032 0.0
C717 C 0.34886 0.36869 0.20648 0.0
H718 H 0.32991 0.41622 0.37526 0.0
C719 C 0.35965 0.34436 0.25654 0.0
H720 H 0.32993 0.41389 0.21318 0.0
C721 C 0.36126 0.34649 0.34771 0.0
C722 C 0.35131 0.37263 0.39175 0.0
H723 H 0.36854 0.32422 0.22524 0.0
H724 H 0.36973 0.32716 0.38395 0.0
C725 C 0.33877 0.39634 0.34255 0.0
C726 C 0.86138 0.13973 0.54312 0.0
C727 C 0.85131 0.11364 0.49896 0.0
H728 H 0.86872 0.16193 0.66567 0.0
C729 C 0.83866 0.08992 0.54806 0.0
H730 H 0.86995 0.15906 0.50698 0.0
C731 C 0.83794 0.09159 0.6403 0.0
C732 C 0.84881 0.11749 0.68426 0.0
H733 H 0.82972 0.07009 0.51526 0.0
H734 H 0.8297 0.07233 0.67736 0.0
C735 C 0.85974 0.14182 0.6343 0.0
C736 C 0.85954 0.64196 0.25769 0.0
C737 C 0.84866 0.61761 0.20774 0.0
H738 H 0.86969 0.65923 0.38501 0.0
C739 C 0.83782 0.59169 0.25172 0.0
H740 H 0.86848 0.66208 0.2263 0.0
C741 C 0.83853 0.59003 0.34396 0.0
C742 C 0.85113 0.61377 0.39303 0.0
H743 H 0.82962 0.57241 0.21467 0.0
H744 H 0.82963 0.57017 0.37677 0.0
C745 C 0.86116 0.63988 0.34887 0.0
C746 C 0.13505 0.09011 0.04811 0.0
C747 C 0.12251 0.11386 -0.00093 0.0
H748 H 0.14391 0.07248 0.17738 0.0
C749 C 0.11255 0.13996 0.04326 0.0
H750 H 0.1439 0.07026 0.01528 0.0
C751 C 0.11418 0.14203 0.13444 0.0
C752 C 0.12499 0.11767 0.18436 0.0
H753 H 0.10407 0.15931 0.00715 0.0
H754 H 0.10529 0.16215 0.16585 0.0
C755 C 0.13576 0.09176 0.14036 0.0
C756 C 0.61429 0.34473 0.75666 0.0
C757 C 0.62521 0.36903 0.70656 0.0
H758 H 0.60411 0.32757 0.88409 0.0
C759 C 0.63609 0.39496 0.75037 0.0
H760 H 0.60532 0.32461 0.72539 0.0
C761 C 0.63539 0.39669 0.8426 0.0
C762 C 0.62275 0.37301 0.89184 0.0
H763 H 0.64433 0.4142 0.7132 0.0
H764 H 0.64433 0.41655 0.87528 0.0
C765 C 0.61268 0.34688 0.84783 0.0
C766 C 0.36102 0.84641 0.5449 0.0
C767 C 0.35107 0.87256 0.5009 0.0
H768 H 0.36832 0.82414 0.66734 0.0
C769 C 0.33855 0.89627 0.55015 0.0
H770 H 0.36947 0.82708 0.50863 0.0
C771 C 0.33788 0.89456 0.64238 0.0
C772 C 0.34867 0.86862 0.68619 0.0
H773 H 0.3297 0.91615 0.51747 0.0
H774 H 0.32975 0.91383 0.67955 0.0
C775 C 0.35943 0.84428 0.63608 0.0
C776 C 0.85965 0.34435 0.1349 0.0
C777 C 0.8488 0.36869 0.18488 0.0
H778 H 0.86977 0.3271 0.00756 0.0
C779 C 0.83797 0.39458 0.14092 0.0
H780 H 0.86857 0.32425 0.16627 0.0
C781 C 0.83867 0.39624 0.04867 0.0
C782 C 0.85125 0.37252 -0.00043 0.0
H783 H 0.82979 0.41385 0.17798 0.0
H784 H 0.82978 0.41608 0.01588 0.0
C785 C 0.86126 0.34643 0.04372 0.0
C786 C 0.3388 0.09023 0.84293 0.0
C787 C 0.35139 0.11395 0.89211 0.0
H788 H 0.3299 0.07268 0.71357 0.0
C789 C 0.36141 0.14009 0.84805 0.0
H790 H 0.32991 0.07035 0.87566 0.0
C791 C 0.35979 0.14222 0.75688 0.0
C792 C 0.34891 0.11788 0.70684 0.0
H793 H 0.36993 0.15942 0.88426 0.0
H794 H 0.36872 0.16235 0.72556 0.0
C795 C 0.33809 0.09194 0.7507 0.0
C796 C 0.61265 0.64055 0.54479 0.0
C797 C 0.62257 0.6144 0.50076 0.0
H798 H 0.60538 0.66282 0.66726 0.0
C799 C 0.63508 0.59067 0.54996 0.0
H800 H 0.60421 0.6599 0.50855 0.0
C801 C 0.63576 0.59238 0.64219 0.0
C802 C 0.625 0.61833 0.68603 0.0
H803 H 0.6439 0.57078 0.51725 0.0
H804 H 0.64388 0.57311 0.67933 0.0
C805 C 0.61425 0.64268 0.63597 0.0
C806 C 0.13537 0.8964 0.34369 0.0
C807 C 0.12278 0.87266 0.39278 0.0
H808 H 0.14425 0.91404 0.2144 0.0
C809 C 0.11276 0.84655 0.34862 0.0
H810 H 0.14427 0.91626 0.3765 0.0
C811 C 0.11436 0.84448 0.25743 0.0
C812 C 0.12522 0.86884 0.20747 0.0
H813 H 0.10423 0.82719 0.38476 0.0
H814 H 0.10542 0.82436 0.22605 0.0
C815 C 0.13606 0.89476 0.25145 0.0
C816 C 0.14619 0.23821 0.04914 0.0
C817 C 0.1402 0.26656 0.01061 0.0
H818 H 0.16178 0.19286 0.02853 0.0
C819 C 0.15154 0.27244 0.92569 0.0
H820 H 0.1386 0.23311 0.11529 0.0
C821 C 0.16577 0.24964 0.87734 0.0
C822 C 0.1689 0.22039 0.91244 0.0
H823 H 0.14814 0.29425 0.89456 0.0
H824 H 0.1711 0.25389 0.80874 0.0
C825 C 0.16053 0.21544 0.00062 0.0
C826 C 0.97772 0.83119 0.22458 0.0
C827 C 0.95012 0.84477 0.20659 0.0
H828 H 0.0241 0.82834 0.19092 0.0
C829 C 0.94878 0.86764 0.14129 0.0
H830 H 0.97964 0.81392 0.27495 0.0
C831 C 0.97437 0.87656 0.09492 0.0
C832 C 0.00171 0.86241 0.11157 0.0
H833 H 0.92794 0.87904 0.12649 0.0
H834 H 0.97256 0.89377 0.0443 0.0
C835 C 0.00316 0.83969 0.1769 0.0
C836 C 0.32173 0.71427 0.4276 0.0
C837 C 0.33317 0.72018 0.51238 0.0
H838 H 0.30208 0.7328 0.3108 0.0
C839 C 0.32722 0.74854 0.55092 0.0
H840 H 0.32509 0.69245 0.39649 0.0
C841 C 0.31286 0.77131 0.50245 0.0
C842 C 0.30442 0.76633 0.41434 0.0
H843 H 0.33488 0.75366 0.61698 0.0
H844 H 0.31166 0.79389 0.53031 0.0
C845 C 0.30747 0.73707 0.37934 0.0
C846 C 0.52531 0.11959 0.6398 0.0
C847 C 0.52397 0.14249 0.705 0.0
H848 H 0.50154 0.09341 0.54295 0.0
C849 C 0.49638 0.15613 0.72282 0.0
H850 H 0.54614 0.10814 0.62511 0.0
C851 C 0.47095 0.14762 0.67514 0.0
C852 C 0.4724 0.12485 0.60998 0.0
H853 H 0.49446 0.17343 0.77311 0.0
H854 H 0.45002 0.159 0.6891 0.0
C855 C 0.49973 0.11066 0.59344 0.0
C856 C 0.16063 0.77118 0.39157 0.0
C857 C 0.16902 0.76622 0.47972 0.0
H858 H 0.13864 0.75351 0.27697 0.0
C859 C 0.16586 0.73697 0.51479 0.0
H860 H 0.16192 0.79376 0.36369 0.0
C861 C 0.15157 0.71416 0.46649 0.0
C862 C 0.14021 0.72005 0.38162 0.0
H863 H 0.1712 0.73273 0.58337 0.0
H864 H 0.14815 0.69235 0.49761 0.0
C865 C 0.14625 0.7484 0.34308 0.0
C866 C 0.52519 0.86755 0.75225 0.0
C867 C 0.52391 0.84456 0.6873 0.0
H868 H 0.50136 0.89369 0.84897 0.0
C869 C 0.49637 0.83069 0.66985 0.0
H870 H 0.54597 0.87917 0.76664 0.0
C871 C 0.47093 0.83907 0.71764 0.0
C872 C 0.47231 0.86194 0.78254 0.0
H873 H 0.49449 0.81331 0.61977 0.0
H874 H 0.45004 0.82753 0.70396 0.0
C875 C 0.4996 0.87635 0.79871 0.0
C876 C 0.32212 0.27231 -0.03497 0.0
C877 C 0.33353 0.26643 0.88021 0.0
H878 H 0.3025 0.25372 0.08191 0.0
C879 C 0.32758 0.23806 0.8417 0.0
H880 H 0.32548 0.29414 -0.00387 0.0
C881 C 0.31324 0.21525 0.8902 0.0
C882 C 0.30481 0.2202 -0.02167 0.0
H883 H 0.33523 0.23296 0.77561 0.0
H884 H 0.31203 0.19266 0.86234 0.0
C885 C 0.30787 0.24947 0.01335 0.0
C886 C 0.97767 0.15526 0.16755 0.0
C887 C 0.95002 0.1417 0.18562 0.0
H888 H 0.02406 0.15809 0.20112 0.0
C889 C 0.9486 0.11889 0.25107 0.0
H890 H 0.97965 0.17249 0.11707 0.0
C891 C 0.97416 0.10997 0.29746 0.0
C892 C 0.00156 0.12409 0.28068 0.0
H893 H 0.92773 0.1075 0.26596 0.0
H894 H 0.9723 0.0928 0.34817 0.0
C895 C 0.00308 0.14676 0.21524 0.0
C896 C 0.80806 0.7368 0.01493 0.0
C897 C 0.80493 0.76604 -0.02019 0.0
H898 H 0.82572 0.6922 -0.00222 0.0
C899 C 0.81331 0.77099 0.89163 0.0
H900 H 0.80272 0.73256 0.08352 0.0
C901 C 0.82767 0.74822 0.84315 0.0
C902 C 0.83367 0.71988 0.88172 0.0
H903 H 0.81205 0.79356 0.86371 0.0
H904 H 0.83527 0.75332 0.777 0.0
C905 C 0.82231 0.714 -0.03338 0.0
C906 C 0.02514 0.11882 0.75096 0.0
C907 C 0.02376 0.14163 0.68549 0.0
H908 H 0.0014 0.0927 0.84807 0.0
C909 C -0.00388 0.1551 0.66727 0.0
H910 H 0.04601 0.1075 0.76594 0.0
C911 C 0.97069 0.14655 0.71491 0.0
C912 C 0.97218 0.1239 0.78042 0.0
H913 H -0.00584 0.17232 0.61676 0.0
H914 H 0.94972 0.15782 0.70073 0.0
C915 C -0.00044 0.10985 0.79729 0.0
C916 C 0.65204 0.27266 0.46474 0.0
C917 C 0.64058 0.26678 0.37997 0.0
H918 H 0.67167 0.25408 0.58151 0.0
C919 C 0.64645 0.23842 0.34143 0.0
H920 H 0.64874 0.29449 0.49586 0.0
C921 C 0.66076 0.2156 0.38987 0.0
C922 C 0.66923 0.22056 0.47795 0.0
H923 H 0.63876 0.23331 0.27538 0.0
H924 H 0.6619 0.19302 0.362 0.0
C925 C 0.66626 0.24983 0.51298 0.0
C926 C 0.47745 0.83087 0.16966 0.0
C927 C 0.44989 0.84456 0.18744 0.0
H928 H 0.52381 0.82793 0.20339 0.0
C929 C 0.44858 0.8675 0.25252 0.0
H930 H 0.47934 0.81352 0.11946 0.0
C931 C 0.47418 0.87641 0.29882 0.0
C932 C 0.50149 0.86216 0.28235 0.0
H933 H 0.42777 0.87899 0.26716 0.0
H934 H 0.4724 0.8937 0.34923 0.0
C935 C 0.50289 0.83936 0.21729 0.0
C936 C 0.82776 0.23799 0.54932 0.0
C937 C 0.83376 0.26635 0.5108 0.0
H938 H 0.81218 0.1926 0.52869 0.0
C939 C 0.82244 0.27221 0.42588 0.0
H940 H 0.83534 0.2329 0.61546 0.0
C941 C 0.80821 0.24938 0.37753 0.0
C942 C 0.80507 0.22013 0.41263 0.0
H943 H 0.82584 0.29403 0.39476 0.0
H944 H 0.80289 0.25362 0.30894 0.0
C945 C 0.81343 0.21518 0.50079 0.0
C946 C 0.50294 0.14768 0.17509 0.0
C947 C 0.50151 0.12488 0.11 0.0
H948 H 0.47943 0.17343 0.27308 0.0
C949 C 0.47418 0.11058 0.09359 0.0
H950 H 0.52387 0.15913 0.18894 0.0
C951 C 0.4486 0.11944 0.14003 0.0
C952 C 0.44994 0.14236 0.20516 0.0
H953 H 0.47238 0.0933 0.04316 0.0
H954 H 0.42778 0.10791 0.12545 0.0
C955 C 0.47752 0.1561 0.22284 0.0
C956 C 0.64638 0.74895 0.05076 0.0
C957 C 0.6404 0.72058 0.01226 0.0
H958 H 0.66194 0.79434 0.0301 0.0
C959 C 0.65177 0.71471 0.92738 0.0
H960 H 0.63876 0.75405 0.11688 0.0
C961 C 0.66601 0.73754 0.87903 0.0
C962 C 0.6691 0.76681 0.91407 0.0
H963 H 0.64839 0.69289 0.89629 0.0
H964 H 0.67136 0.73329 0.81045 0.0
C965 C 0.66072 0.77176 0.00223 0.0
C966 C 0.02522 0.86764 0.64103 0.0
C967 C 0.02383 0.84481 0.70642 0.0
H968 H 0.0015 0.89374 0.54401 0.0
C969 C -0.00382 0.83126 0.72457 0.0
H970 H 0.04609 0.87903 0.6261 0.0
C971 C 0.97076 0.83976 0.67695 0.0
C972 C 0.97227 0.86244 0.61152 0.0
H973 H -0.00578 0.81401 0.77502 0.0
H974 H 0.94979 0.82842 0.69109 0.0
C975 C -0.00035 0.87657 0.59471 0.0
C976 C 0.66625 0.74988 0.37916 0.0
C977 C 0.66929 0.72062 0.41425 0.0
H978 H 0.64863 0.7945 0.3962 0.0
C979 C 0.66086 0.71568 0.50238 0.0
H980 H 0.67165 0.75412 0.3106 0.0
C981 C 0.6465 0.73847 0.5508 0.0
C982 C 0.64055 0.76681 0.51219 0.0
H983 H 0.66206 0.69311 0.53029 0.0
H984 H 0.63883 0.73337 0.61688 0.0
C985 C 0.65199 0.77269 0.42738 0.0
C986 C 0.50307 0.33942 0.67522 0.0
C987 C 0.50167 0.36223 0.61016 0.0
H988 H 0.47952 0.31359 0.77307 0.0
C989 C 0.47436 0.37649 0.59373 0.0
H990 H 0.52399 0.328 0.68909 0.0
C991 C 0.44877 0.36757 0.64007 0.0
C992 C 0.45006 0.34463 0.70513 0.0
H993 H 0.47259 0.39377 0.54333 0.0
H994 H 0.42796 0.37907 0.62545 0.0
C995 C 0.47763 0.33094 0.72288 0.0
C996 C 0.82761 0.24817 0.04929 0.0
C997 C 0.83358 0.21984 0.01063 0.0
H998 H 0.81203 0.29353 0.02889 0.0
C999 C 0.8222 0.21399 0.92576 0.0
H1000 H 0.83524 0.25326 0.11541 0.0
C1001 C 0.80794 0.23681 0.87757 0.0
C1002 C 0.80485 0.26604 0.91275 0.0
H1003 H 0.82557 0.19219 0.89455 0.0
H1004 H 0.80258 0.23258 0.80899 0.0
C1005 C 0.81325 0.27097 0.00091 0.0
C1006 C 0.02509 0.61882 0.14126 0.0
C1007 C 0.02375 0.64169 0.20656 0.0
H1008 H 0.00131 0.5927 0.04429 0.0
C1009 C -0.00385 0.65527 0.22459 0.0
H1010 H 0.04592 0.60741 0.12643 0.0
C1011 C 0.97071 0.64677 0.17694 0.0
C1012 C 0.97216 0.62406 0.1116 0.0
H1013 H -0.00577 0.67255 0.27497 0.0
H1014 H 0.94977 0.65813 0.19099 0.0
C1015 C -0.0005 0.6099 0.09492 0.0
C1016 C 0.66082 0.27173 0.88998 0.0
C1017 C 0.66926 0.26679 -0.02191 0.0
H1018 H 0.63884 0.25399 0.77544 0.0
C1019 C 0.66622 0.23752 0.01314 0.0
H1020 H 0.66201 0.29432 0.86212 0.0
C1021 C 0.65199 0.21467 -0.03513 0.0
C1022 C 0.64057 0.22053 0.88006 0.0
H1023 H 0.67161 0.23329 0.08169 0.0
H1024 H 0.64865 0.19284 -0.004 0.0
C1025 C 0.64649 0.2489 0.84152 0.0
C1026 C 0.02523 0.36765 0.2512 0.0
C1027 C 0.02384 0.3448 0.18585 0.0
H1028 H 0.00149 0.39375 0.34822 0.0
C1029 C -0.00379 0.33123 0.16777 0.0
H1030 H 0.04609 0.37905 0.26607 0.0
C1031 C 0.97078 0.33972 0.21542 0.0
C1032 C 0.97227 0.36241 0.28081 0.0
H1033 H -0.00575 0.31396 0.11735 0.0
H1034 H 0.94982 0.32837 0.20134 0.0
C1035 C -0.00035 0.37656 0.29754 0.0
C1036 C 0.82232 0.77229 0.46671 0.0
C1037 C 0.83367 0.76642 0.3818 0.0
H1038 H 0.80273 0.75372 0.58363 0.0
C1039 C 0.82765 0.73807 0.34327 0.0
H1040 H 0.82575 0.79411 0.49783 0.0
C1041 C 0.81328 0.71527 0.39178 0.0
C1042 C 0.80491 0.72022 0.47995 0.0
H1043 H 0.83524 0.73297 0.27712 0.0
H1044 H 0.81201 0.6927 0.36387 0.0
C1045 C 0.80806 0.74947 0.51504 0.0
C1046 C 0.4741 0.61069 0.79897 0.0
C1047 C 0.5014 0.62507 0.7827 0.0
H1048 H 0.42772 0.60791 0.76701 0.0
C1049 C 0.5028 0.64792 0.71774 0.0
H1050 H 0.47233 0.59337 0.84927 0.0
C1051 C 0.47737 0.65631 0.66999 0.0
C1052 C 0.44982 0.64248 0.68753 0.0
H1053 H 0.5237 0.65944 0.70398 0.0
H1054 H 0.47926 0.67368 0.61986 0.0
C1055 C 0.44852 0.61951 0.75255 0.0
C1056 C 0.3274 0.2485 0.34169 0.0
C1057 C 0.33334 0.22016 0.38029 0.0
H1058 H 0.31187 0.29388 0.36222 0.0
C1059 C 0.32193 0.21429 0.46514 0.0
H1060 H 0.33505 0.2536 0.27559 0.0
C1061 C 0.3077 0.23711 0.5134 0.0
C1062 C 0.30465 0.26636 0.4783 0.0
H1063 H 0.32529 0.19248 0.4963 0.0
H1064 H 0.30232 0.23287 0.58197 0.0
C1065 C 0.31306 0.2713 0.39014 0.0
C1066 C 0.47084 0.64768 0.21739 0.0
C1067 C 0.47224 0.62486 0.28243 0.0
H1068 H 0.4944 0.67351 0.11955 0.0
C1069 C 0.49955 0.6106 0.29883 0.0
H1070 H 0.44993 0.65911 0.20355 0.0
C1071 C 0.52515 0.61951 0.25249 0.0
C1072 C 0.52385 0.64246 0.18744 0.0
H1073 H 0.50132 0.5933 0.34921 0.0
H1074 H 0.54595 0.60801 0.26708 0.0
C1075 C 0.49629 0.65616 0.16972 0.0
C1076 C 0.16057 0.71549 0.89159 0.0
C1077 C 0.16896 0.72047 -0.02027 0.0
H1078 H 0.13861 0.73312 0.77695 0.0
C1079 C 0.16582 0.74972 0.01478 0.0
H1080 H 0.16183 0.69291 0.86372 0.0
C1081 C 0.15156 0.7725 -0.03356 0.0
C1082 C 0.14021 0.76659 0.88157 0.0
H1083 H 0.17116 0.75398 0.08336 0.0
H1084 H 0.14816 0.79432 -0.00246 0.0
C1085 C 0.14621 0.73825 0.84306 0.0
C1086 C 0.00318 0.33968 0.71549 0.0
C1087 C 0.00173 0.36238 0.78085 0.0
H1088 H 0.97967 0.31391 0.61745 0.0
C1089 C 0.97438 0.37652 0.79759 0.0
H1090 H 0.02413 0.32834 0.7014 0.0
C1091 C 0.94879 0.36759 0.75126 0.0
C1092 C 0.95014 0.34474 0.68593 0.0
H1093 H 0.97257 0.39372 0.84824 0.0
H1094 H 0.92795 0.37899 0.76613 0.0
C1095 C 0.97775 0.33117 0.66786 0.0
C1096 C 0.31297 0.71526 0.0024 0.0
C1097 C 0.30455 0.72023 0.91429 0.0
H1098 H 0.33497 0.73293 0.11699 0.0
C1099 C 0.30764 0.7495 0.8793 0.0
H1100 H 0.31174 0.69267 0.03022 0.0
C1101 C 0.3219 0.77232 0.92763 0.0
C1102 C 0.3333 0.76642 0.01243 0.0
H1103 H 0.30226 0.75376 0.81076 0.0
H1104 H 0.32527 0.79415 0.89656 0.0
C1105 C 0.32733 0.73805 0.05092 0.0
C1106 C 0.94867 0.61877 0.64126 0.0
C1107 C 0.95005 0.64162 0.7066 0.0
H1108 H 0.97241 0.59267 0.54425 0.0
C1109 C 0.97768 0.6552 0.72468 0.0
H1110 H 0.92781 0.60737 0.62639 0.0
C1111 C 0.00311 0.64671 0.67704 0.0
C1112 C 0.00162 0.62401 0.61165 0.0
H1113 H 0.97963 0.67247 0.77509 0.0
H1114 H 0.02407 0.65806 0.69111 0.0
C1115 C 0.97425 0.60986 0.59492 0.0
C1116 C 0.15159 0.21416 0.42554 0.0
C1117 C 0.14023 0.22003 0.51043 0.0
H1118 H 0.17122 0.23274 0.30867 0.0
C1119 C 0.14626 0.24837 0.54901 0.0
H1120 H 0.14817 0.19235 0.39439 0.0
C1121 C 0.16065 0.27117 0.50055 0.0
C1122 C 0.16903 0.26622 0.41238 0.0
H1123 H 0.13865 0.25346 0.61515 0.0
H1124 H 0.16192 0.29374 0.52848 0.0
C1125 C 0.16588 0.23698 0.37726 0.0
C1126 C 0.49648 0.33081 0.22261 0.0
C1127 C 0.52404 0.34463 0.20502 0.0
H1128 H 0.45015 0.32769 0.18868 0.0
C1129 C 0.52534 0.36758 0.13999 0.0
H1130 H 0.4946 0.31345 0.27276 0.0
C1131 C 0.49975 0.37641 0.09359 0.0
C1132 C 0.47245 0.36204 0.1099 0.0
H1133 H 0.54614 0.37917 0.12548 0.0
H1134 H 0.50153 0.39372 0.04325 0.0
C1135 C 0.47105 0.3392 0.17489 0.0
loop_
_geom_bond_atom_site_label_1
_geom_bond_atom_site_label_2
_geom_bond_distance
_geom_bond_site_symmetry_2
_ccdc_geom_bond_type
C0 O27 1.312 . S
C0 O28 1.208 . S
C1 O22 1.331 . S
C1 O25 1.244 . S
C2 O24 1.264 . S
C2 O26 1.273 . S
Mg3 O5 1.936 1_556 S
Mg3 O12 2.081 . S
Mg3 O14 2.023 . S
Mg3 O18 2.031 1_556 S
Mg3 O27 2.291 1_556 S
Mg4 O5 1.963 1_556 S
Mg4 O15 1.942 . S
Mg4 O16 1.955 . S
Mg4 O23 1.986 1_556 S
O5 Mg3 1.936 1_554 S
O5 Mg4 1.963 1_554 S
O5 Mg6 1.915 . S
Mg6 O5 1.915 . S
Mg6 O7 1.915 . S
Mg6 O11 2.013 . S
Mg6 O17 2.114 . S
Mg6 O21 2.013 . S
Mg6 O27 2.114 . S
O7 Mg6 1.915 . S
O7 Mg8 1.936 . S
O7 Mg9 1.963 . S
Mg8 O7 1.936 . S
Mg8 O17 2.291 . S
Mg8 O22 2.081 . S
Mg8 O24 2.023 . S
Mg8 O28 2.031 . S
Mg9 O7 1.963 . S
Mg9 O13 1.986 . S
Mg9 O25 1.942 . S
Mg9 O26 1.955 . S
C10 O21 1.191 . S
C10 O23 1.307 . S
O11 Mg6 2.013 . S
O11 C30 1.191 . S
O12 Mg3 2.081 . S
O12 C20 1.331 . S
O13 Mg9 1.986 . S
O13 C30 1.307 . S
O14 Mg3 2.023 . S
O14 C29 1.264 . S
O15 Mg4 1.942 . S
O15 C20 1.244 . S
O16 Mg4 1.955 . S
O16 C29 1.273 . S
O17 Mg6 2.114 . S
O17 Mg8 2.291 . S
O17 C19 1.312 . S
O18 Mg3 2.031 1_554 S
O18 C19 1.208 . S
C19 O17 1.312 . S
C19 O18 1.208 . S
C20 O12 1.331 . S
C20 O15 1.244 . S
O21 Mg6 2.013 . S
O21 C10 1.191 . S
O22 C1 1.331 . S
O22 Mg8 2.081 . S
O23 Mg4 1.986 1_554 S
O23 C10 1.307 . S
O24 C2 1.264 . S
O24 Mg8 2.023 . S
O25 C1 1.244 . S
O25 Mg9 1.942 . S
O26 C2 1.273 . S
O26 Mg9 1.955 . S
O27 C0 1.312 . S
O27 Mg3 2.291 1_554 S
O27 Mg6 2.114 . S
O28 C0 1.208 . S
O28 Mg8 2.031 . S
C29 O14 1.264 . S
C29 O16 1.273 . S
C30 O11 1.191 . S
C30 O13 1.307 . S
C31 O58 1.312 . S
C31 O59 1.208 . S
C32 O53 1.331 . S
C32 O56 1.244 . S
C33 O55 1.264 . S
C33 O57 1.273 . S
Mg34 O36 1.936 . S
Mg34 O43 2.081 . S
Mg34 O45 2.023 . S
Mg34 O49 2.031 . S
Mg34 O58 2.291 . S
Mg35 O36 1.963 . S
Mg35 O46 1.942 . S
Mg35 O47 1.955 . S
Mg35 O54 1.986 . S
O36 Mg34 1.936 . S
O36 Mg35 1.963 . S
O36 Mg37 1.915 . S
Mg37 O36 1.915 . S
Mg37 O38 1.915 . S
Mg37 O42 2.013 . S
Mg37 O48 2.114 . S
Mg37 O52 2.013 . S
Mg37 O58 2.114 . S
O38 Mg37 1.915 . S
O38 Mg39 1.936 . S
O38 Mg40 1.963 . S
Mg39 O38 1.936 . S
Mg39 O48 2.291 . S
Mg39 O53 2.081 . S
Mg39 O55 2.023 . S
Mg39 O59 2.031 . S
Mg40 O38 1.963 . S
Mg40 O44 1.986 . S
Mg40 O56 1.942 . S
Mg40 O57 1.955 . S
C41 O52 1.191 . S
C41 O54 1.307 . S
O42 Mg37 2.013 . S
O42 C61 1.191 . S
O43 Mg34 2.081 . S
O43 C51 1.331 . S
O44 Mg40 1.986 . S
O44 C61 1.307 . S
O45 Mg34 2.023 . S
O45 C60 1.264 . S
O46 Mg35 1.942 . S
O46 C51 1.244 . S
O47 Mg35 1.955 . S
O47 C60 1.273 . S
O48 Mg37 2.114 . S
O48 Mg39 2.291 . S
O48 C50 1.312 . S
O49 Mg34 2.031 . S
O49 C50 1.208 . S
C50 O48 1.312 . S
C50 O49 1.208 . S
C51 O43 1.331 . S
C51 O46 1.244 . S
O52 Mg37 2.013 . S
O52 C41 1.191 . S
O53 C32 1.331 . S
O53 Mg39 2.081 . S
O54 Mg35 1.986 . S
O54 C41 1.307 . S
O55 C33 1.264 . S
O55 Mg39 2.023 . S
O56 C32 1.244 . S
O56 Mg40 1.942 . S
O57 C33 1.273 . S
O57 Mg40 1.955 . S
O58 C31 1.312 . S
O58 Mg34 2.291 . S
O58 Mg37 2.114 . S
O59 C31 1.208 . S
O59 Mg39 2.031 . S
C60 O45 1.264 . S
C60 O47 1.273 . S
C61 O42 1.191 . S
C61 O44 1.307 . S
C62 O89 1.312 . S
C62 O90 1.208 . S
C63 O84 1.331 . S
C63 O87 1.244 . S
C64 O86 1.264 . S
C64 O88 1.273 . S
Mg65 O67 1.936 . S
Mg65 O74 2.081 . S
Mg65 O76 2.023 . S
Mg65 O80 2.031 . S
Mg65 O89 2.291 . S
Mg66 O67 1.963 . S
Mg66 O77 1.942 . S
Mg66 O78 1.955 . S
Mg66 O85 1.986 . S
O67 Mg65 1.936 . S
O67 Mg66 1.963 . S
O67 Mg68 1.915 . S
Mg68 O67 1.915 . S
Mg68 O69 1.915 . S
Mg68 O73 2.013 . S
Mg68 O79 2.114 . S
Mg68 O83 2.013 . S
Mg68 O89 2.114 . S
O69 Mg68 1.915 . S
O69 Mg70 1.936 . S
O69 Mg71 1.963 . S
Mg70 O69 1.936 . S
Mg70 O79 2.291 . S
Mg70 O84 2.081 . S
Mg70 O86 2.023 . S
Mg70 O90 2.031 . S
Mg71 O69 1.963 . S
Mg71 O75 1.986 . S
Mg71 O87 1.942 . S
Mg71 O88 1.955 . S
C72 O83 1.191 . S
C72 O85 1.307 . S
O73 Mg68 2.013 . S
O73 C92 1.191 . S
O74 Mg65 2.081 . S
O74 C82 1.331 . S
O75 Mg71 1.986 . S
O75 C92 1.307 . S
O76 Mg65 2.023 . S
O76 C91 1.264 . S
O77 Mg66 1.942 . S
O77 C82 1.244 . S
O78 Mg66 1.955 . S
O78 C91 1.273 . S
O79 Mg68 2.114 . S
O79 Mg70 2.291 . S
O79 C81 1.312 . S
O80 Mg65 2.031 . S
O80 C81 1.208 . S
C81 O79 1.312 . S
C81 O80 1.208 . S
C82 O74 1.331 . S
C82 O77 1.244 . S
O83 Mg68 2.013 . S
O83 C72 1.191 . S
O84 C63 1.331 . S
O84 Mg70 2.081 . S
O85 Mg66 1.986 . S
O85 C72 1.307 . S
O86 C64 1.264 . S
O86 Mg70 2.023 . S
O87 C63 1.244 . S
O87 Mg71 1.942 . S
O88 C64 1.273 . S
O88 Mg71 1.955 . S
O89 C62 1.312 . S
O89 Mg65 2.291 . S
O89 Mg68 2.114 . S
O90 C62 1.208 . S
O90 Mg70 2.031 . S
C91 O76 1.264 . S
C91 O78 1.273 . S
C92 O73 1.191 . S
C92 O75 1.307 . S
C93 O120 1.312 . S
C93 O121 1.208 . S
C94 O115 1.331 . S
C94 O118 1.244 . S
C95 O117 1.264 . S
C95 O119 1.273 . S
Mg96 O98 1.936 . S
Mg96 O105 2.081 . S
Mg96 O107 2.023 . S
Mg96 O111 2.031 . S
Mg96 O120 2.291 . S
Mg97 O98 1.963 . S
Mg97 O108 1.942 . S
Mg97 O109 1.955 . S
Mg97 O116 1.986 . S
O98 Mg96 1.936 . S
O98 Mg97 1.963 . S
O98 Mg99 1.915 . S
Mg99 O98 1.915 . S
Mg99 O100 1.915 . S
Mg99 O104 2.013 . S
Mg99 O110 2.114 . S
Mg99 O114 2.013 . S
Mg99 O120 2.114 . S
O100 Mg99 1.915 . S
O100 Mg101 1.936 1_556 S
O100 Mg102 1.963 1_556 S
Mg101 O100 1.936 1_554 S
Mg101 O110 2.291 1_554 S
Mg101 O115 2.081 . S
Mg101 O117 2.023 . S
Mg101 O121 2.031 1_554 S
Mg102 O100 1.963 1_554 S
Mg102 O106 1.986 1_554 S
Mg102 O118 1.942 . S
Mg102 O119 1.955 . S
C103 O114 1.191 . S
C103 O116 1.307 . S
O104 Mg99 2.013 . S
O104 C123 1.191 . S
O105 Mg96 2.081 . S
O105 C113 1.331 . S
O106 Mg102 1.986 1_556 S
O106 C123 1.307 . S
O107 Mg96 2.023 . S
O107 C122 1.264 . S
O108 Mg97 1.942 . S
O108 C113 1.244 . S
O109 Mg97 1.955 . S
O109 C122 1.273 . S
O110 Mg99 2.114 . S
O110 Mg101 2.291 1_556 S
O110 C112 1.312 . S
O111 Mg96 2.031 . S
O111 C112 1.208 . S
C112 O110 1.312 . S
C112 O111 1.208 . S
C113 O105 1.331 . S
C113 O108 1.244 . S
O114 Mg99 2.013 . S
O114 C103 1.191 . S
O115 C94 1.331 . S
O115 Mg101 2.081 . S
O116 Mg97 1.986 . S
O116 C103 1.307 . S
O117 C95 1.264 . S
O117 Mg101 2.023 . S
O118 C94 1.244 . S
O118 Mg102 1.942 . S
O119 C95 1.273 . S
O119 Mg102 1.955 . S
O120 C93 1.312 . S
O120 Mg96 2.291 . S
O120 Mg99 2.114 . S
O121 C93 1.208 . S
O121 Mg101 2.031 1_556 S
C122 O107 1.264 . S
C122 O109 1.273 . S
C123 O104 1.191 . S
C123 O106 1.307 . S
C124 O151 1.312 . S
C124 O152 1.208 . S
C125 O146 1.331 . S
C125 O149 1.244 . S
C126 O148 1.264 . S
C126 O150 1.273 . S
Mg127 O129 1.936 . S
Mg127 O136 2.081 . S
Mg127 O138 2.023 . S
Mg127 O142 2.031 . S
Mg127 O151 2.291 . S
Mg128 O129 1.963 . S
Mg128 O139 1.942 . S
Mg128 O140 1.955 . S
Mg128 O147 1.986 . S
O129 Mg127 1.936 . S
O129 Mg128 1.963 . S
O129 Mg130 1.915 . S
Mg130 O129 1.915 . S
Mg130 O131 1.915 . S
Mg130 O135 2.013 . S
Mg130 O141 2.114 . S
Mg130 O145 2.013 . S
Mg130 O151 2.114 . S
O131 Mg130 1.915 . S
O131 Mg132 1.936 . S
O131 Mg133 1.963 . S
Mg132 O131 1.936 . S
Mg132 O141 2.291 . S
Mg132 O146 2.081 . S
Mg132 O148 2.023 . S
Mg132 O152 2.031 . S
Mg133 O131 1.963 . S
Mg133 O137 1.986 . S
Mg133 O149 1.942 . S
Mg133 O150 1.955 . S
C134 O145 1.191 . S
C134 O147 1.307 . S
O135 Mg130 2.013 . S
O135 C154 1.191 . S
O136 Mg127 2.081 . S
O136 C144 1.331 . S
O137 Mg133 1.986 . S
O137 C154 1.307 . S
O138 Mg127 2.023 . S
O138 C153 1.264 . S
O139 Mg128 1.942 . S
O139 C144 1.244 . S
O140 Mg128 1.955 . S
O140 C153 1.273 . S
O141 Mg130 2.114 . S
O141 Mg132 2.291 . S
O141 C143 1.312 . S
O142 Mg127 2.031 . S
O142 C143 1.208 . S
C143 O141 1.312 . S
C143 O142 1.208 . S
C144 O136 1.331 . S
C144 O139 1.244 . S
O145 Mg130 2.013 . S
O145 C134 1.191 . S
O146 C125 1.331 . S
O146 Mg132 2.081 . S
O147 Mg128 1.986 . S
O147 C134 1.307 . S
O148 C126 1.264 . S
O148 Mg132 2.023 . S
O149 C125 1.244 . S
O149 Mg133 1.942 . S
O150 C126 1.273 . S
O150 Mg133 1.955 . S
O151 C124 1.312 . S
O151 Mg127 2.291 . S
O151 Mg130 2.114 . S
O152 C124 1.208 . S
O152 Mg132 2.031 . S
C153 O138 1.264 . S
C153 O140 1.273 . S
C154 O135 1.191 . S
C154 O137 1.307 . S
C155 O182 1.312 . S
C155 O183 1.208 . S
C156 O177 1.331 . S
C156 O180 1.244 . S
C157 O179 1.264 . S
C157 O181 1.273 . S
Mg158 O160 1.936 . S
Mg158 O167 2.081 . S
Mg158 O169 2.023 . S
Mg158 O173 2.031 . S
Mg158 O182 2.291 . S
Mg159 O160 1.963 . S
Mg159 O170 1.942 . S
Mg159 O171 1.955 . S
Mg159 O178 1.986 . S
O160 Mg158 1.936 . S
O160 Mg159 1.963 . S
O160 Mg161 1.915 . S
Mg161 O160 1.915 . S
Mg161 O162 1.915 . S
Mg161 O166 2.013 . S
Mg161 O172 2.114 . S
Mg161 O176 2.013 . S
Mg161 O182 2.114 . S
O162 Mg161 1.915 . S
O162 Mg163 1.936 . S
O162 Mg164 1.963 . S
Mg163 O162 1.936 . S
Mg163 O172 2.291 . S
Mg163 O177 2.081 . S
Mg163 O179 2.023 . S
Mg163 O183 2.031 . S
Mg164 O162 1.963 . S
Mg164 O168 1.986 . S
Mg164 O180 1.942 . S
Mg164 O181 1.955 . S
C165 O176 1.191 . S
C165 O178 1.307 . S
O166 Mg161 2.013 . S
O166 C185 1.191 . S
O167 Mg158 2.081 . S
O167 C175 1.331 . S
O168 Mg164 1.986 . S
O168 C185 1.307 . S
O169 Mg158 2.023 . S
O169 C184 1.264 . S
O170 Mg159 1.942 . S
O170 C175 1.244 . S
O171 Mg159 1.955 . S
O171 C184 1.273 . S
O172 Mg161 2.114 . S
O172 Mg163 2.291 . S
O172 C174 1.312 . S
O173 Mg158 2.031 . S
O173 C174 1.208 . S
C174 O172 1.312 . S
C174 O173 1.208 . S
C175 O167 1.331 . S
C175 O170 1.244 . S
O176 Mg161 2.013 . S
O176 C165 1.191 . S
O177 C156 1.331 . S
O177 Mg163 2.081 . S
O178 Mg159 1.986 . S
O178 C165 1.307 . S
O179 C157 1.264 . S
O179 Mg163 2.023 . S
O180 C156 1.244 . S
O180 Mg164 1.942 . S
O181 C157 1.273 . S
O181 Mg164 1.955 . S
O182 C155 1.312 . S
O182 Mg158 2.291 . S
O182 Mg161 2.114 . S
O183 C155 1.208 . S
O183 Mg163 2.031 . S
C184 O169 1.264 . S
C184 O171 1.273 . S
C185 O166 1.191 . S
C185 O168 1.307 . S
C186 O213 1.312 . S
C186 O214 1.208 . S
C187 O208 1.331 . S
C187 O211 1.244 . S
C188 O210 1.264 . S
C188 O212 1.273 . S
Mg189 O191 1.936 1_554 S
Mg189 O198 2.081 . S
Mg189 O200 2.023 . S
Mg189 O204 2.031 1_554 S
Mg189 O213 2.291 1_554 S
Mg190 O191 1.963 1_554 S
Mg190 O201 1.942 . S
Mg190 O202 1.955 . S
Mg190 O209 1.986 1_554 S
O191 Mg189 1.936 1_556 S
O191 Mg190 1.963 1_556 S
O191 Mg192 1.915 . S
Mg192 O191 1.915 . S
Mg192 O193 1.915 . S
Mg192 O197 2.013 . S
Mg192 O203 2.114 . S
Mg192 O207 2.013 . S
Mg192 O213 2.114 . S
O193 Mg192 1.915 . S
O193 Mg194 1.936 . S
O193 Mg195 1.963 . S
Mg194 O193 1.936 . S
Mg194 O203 2.291 . S
Mg194 O208 2.081 . S
Mg194 O210 2.023 . S
Mg194 O214 2.031 . S
Mg195 O193 1.963 . S
Mg195 O199 1.986 . S
Mg195 O211 1.942 . S
Mg195 O212 1.955 . S
C196 O207 1.191 . S
C196 O209 1.307 . S
O197 Mg192 2.013 . S
O197 C216 1.191 . S
O198 Mg189 2.081 . S
O198 C206 1.331 . S
O199 Mg195 1.986 . S
O199 C216 1.307 . S
O200 Mg189 2.023 . S
O200 C215 1.264 . S
O201 Mg190 1.942 . S
O201 C206 1.244 . S
O202 Mg190 1.955 . S
O202 C215 1.273 . S
O203 Mg192 2.114 . S
O203 Mg194 2.291 . S
O203 C205 1.312 . S
O204 Mg189 2.031 1_556 S
O204 C205 1.208 . S
C205 O203 1.312 . S
C205 O204 1.208 . S
C206 O198 1.331 . S
C206 O201 1.244 . S
O207 Mg192 2.013 . S
O207 C196 1.191 . S
O208 C187 1.331 . S
O208 Mg194 2.081 . S
O209 Mg190 1.986 1_556 S
O209 C196 1.307 . S
O210 C188 1.264 . S
O210 Mg194 2.023 . S
O211 C187 1.244 . S
O211 Mg195 1.942 . S
O212 C188 1.273 . S
O212 Mg195 1.955 . S
O213 C186 1.312 . S
O213 Mg189 2.291 1_556 S
O213 Mg192 2.114 . S
O214 C186 1.208 . S
O214 Mg194 2.031 . S
C215 O200 1.264 . S
C215 O202 1.273 . S
C216 O197 1.191 . S
C216 O199 1.307 . S
C217 O244 1.312 . S
C217 O245 1.208 . S
C218 O239 1.331 . S
C218 O242 1.244 . S
C219 O241 1.264 . S
C219 O243 1.273 . S
Mg220 O222 1.936 . S
Mg220 O229 2.081 . S
Mg220 O231 2.023 . S
Mg220 O235 2.031 . S
Mg220 O244 2.291 . S
Mg221 O222 1.963 . S
Mg221 O232 1.942 . S
Mg221 O233 1.955 . S
Mg221 O240 1.986 . S
O222 Mg220 1.936 . S
O222 Mg221 1.963 . S
O222 Mg223 1.915 . S
Mg223 O222 1.915 . S
Mg223 O224 1.915 . S
Mg223 O228 2.013 . S
Mg223 O234 2.114 . S
Mg223 O238 2.013 . S
Mg223 O244 2.114 . S
O224 Mg223 1.915 . S
O224 Mg225 1.936 1_554 S
O224 Mg226 1.963 1_554 S
Mg225 O224 1.936 1_556 S
Mg225 O234 2.291 1_556 S
Mg225 O239 2.081 . S
Mg225 O241 2.023 . S
Mg225 O245 2.031 1_556 S
Mg226 O224 1.963 1_556 S
Mg226 O230 1.986 1_556 S
Mg226 O242 1.942 . S
Mg226 O243 1.955 . S
C227 O238 1.191 . S
C227 O240 1.307 . S
O228 Mg223 2.013 . S
O228 C247 1.191 . S
O229 Mg220 2.081 . S
O229 C237 1.331 . S
O230 Mg226 1.986 1_554 S
O230 C247 1.307 . S
O231 Mg220 2.023 . S
O231 C246 1.264 . S
O232 Mg221 1.942 . S
O232 C237 1.244 . S
O233 Mg221 1.955 . S
O233 C246 1.273 . S
O234 Mg223 2.114 . S
O234 Mg225 2.291 1_554 S
O234 C236 1.312 . S
O235 Mg220 2.031 . S
O235 C236 1.208 . S
C236 O234 1.312 . S
C236 O235 1.208 . S
C237 O229 1.331 . S
C237 O232 1.244 . S
O238 Mg223 2.013 . S
O238 C227 1.191 . S
O239 C218 1.331 . S
O239 Mg225 2.081 . S
O240 Mg221 1.986 . S
O240 C227 1.307 . S
O241 C219 1.264 . S
O241 Mg225 2.023 . S
O242 C218 1.244 . S
O242 Mg226 1.942 . S
O243 C219 1.273 . S
O243 Mg226 1.955 . S
O244 C217 1.312 . S
O244 Mg220 2.291 . S
O244 Mg223 2.114 . S
O245 C217 1.208 . S
O245 Mg225 2.031 1_554 S
C246 O231 1.264 . S
C246 O233 1.273 . S
C247 O228 1.191 . S
C247 O230 1.307 . S
C248 O275 1.312 . S
C248 O276 1.208 . S
C249 O270 1.331 . S
C249 O273 1.244 . S
C250 O272 1.264 . S
C250 O274 1.273 . S
Mg251 O253 1.936 1_554 S
Mg251 O260 2.081 . S
Mg251 O262 2.023 . S
Mg251 O266 2.031 1_554 S
Mg251 O275 2.291 1_554 S
Mg252 O253 1.963 1_554 S
Mg252 O263 1.942 . S
Mg252 O264 1.955 . S
Mg252 O271 1.986 1_554 S
O253 Mg251 1.936 1_556 S
O253 Mg252 1.963 1_556 S
O253 Mg254 1.915 . S
Mg254 O253 1.915 . S
Mg254 O255 1.915 . S
Mg254 O259 2.013 . S
Mg254 O265 2.114 . S
Mg254 O269 2.013 . S
Mg254 O275 2.114 . S
O255 Mg254 1.915 . S
O255 Mg256 1.936 . S
O255 Mg257 1.963 . S
Mg256 O255 1.936 . S
Mg256 O265 2.291 . S
Mg256 O270 2.081 . S
Mg256 O272 2.023 . S
Mg256 O276 2.031 . S
Mg257 O255 1.963 . S
Mg257 O261 1.986 . S
Mg257 O273 1.942 . S
Mg257 O274 1.955 . S
C258 O269 1.191 . S
C258 O271 1.307 . S
O259 Mg254 2.013 . S
O259 C278 1.191 . S
O260 Mg251 2.081 . S
O260 C268 1.331 . S
O261 Mg257 1.986 . S
O261 C278 1.307 . S
O262 Mg251 2.023 . S
O262 C277 1.264 . S
O263 Mg252 1.942 . S
O263 C268 1.244 . S
O264 Mg252 1.955 . S
O264 C277 1.273 . S
O265 Mg254 2.114 . S
O265 Mg256 2.291 . S
O265 C267 1.312 . S
O266 Mg251 2.031 1_556 S
O266 C267 1.208 . S
C267 O265 1.312 . S
C267 O266 1.208 . S
C268 O260 1.331 . S
C268 O263 1.244 . S
O269 Mg254 2.013 . S
O269 C258 1.191 . S
O270 C249 1.331 . S
O270 Mg256 2.081 . S
O271 Mg252 1.986 1_556 S
O271 C258 1.307 . S
O272 C250 1.264 . S
O272 Mg256 2.023 . S
O273 C249 1.244 . S
O273 Mg257 1.942 . S
O274 C250 1.273 . S
O274 Mg257 1.955 . S
O275 C248 1.312 . S
O275 Mg251 2.291 1_556 S
O275 Mg254 2.114 . S
O276 C248 1.208 . S
O276 Mg256 2.031 . S
C277 O262 1.264 . S
C277 O264 1.273 . S
C278 O259 1.191 . S
C278 O261 1.307 . S
C279 O306 1.312 . S
C279 O307 1.208 . S
C280 O301 1.331 . S
C280 O304 1.244 . S
C281 O303 1.264 . S
C281 O305 1.273 . S
Mg282 O284 1.936 . S
Mg282 O291 2.081 . S
Mg282 O293 2.023 . S
Mg282 O297 2.031 . S
Mg282 O306 2.291 . S
Mg283 O284 1.963 . S
Mg283 O294 1.942 . S
Mg283 O295 1.955 . S
Mg283 O302 1.986 . S
O284 Mg282 1.936 . S
O284 Mg283 1.963 . S
O284 Mg285 1.915 . S
Mg285 O284 1.915 . S
Mg285 O286 1.915 . S
Mg285 O290 2.013 . S
Mg285 O296 2.114 . S
Mg285 O300 2.013 . S
Mg285 O306 2.114 . S
O286 Mg285 1.915 . S
O286 Mg287 1.936 . S
O286 Mg288 1.963 . S
Mg287 O286 1.936 . S
Mg287 O296 2.291 . S
Mg287 O301 2.081 . S
Mg287 O303 2.023 . S
Mg287 O307 2.031 . S
Mg288 O286 1.963 . S
Mg288 O292 1.986 . S
Mg288 O304 1.942 . S
Mg288 O305 1.955 . S
C289 O300 1.191 . S
C289 O302 1.307 . S
O290 Mg285 2.013 . S
O290 C309 1.191 . S
O291 Mg282 2.081 . S
O291 C299 1.331 . S
O292 Mg288 1.986 . S
O292 C309 1.307 . S
O293 Mg282 2.023 . S
O293 C308 1.264 . S
O294 Mg283 1.942 . S
O294 C299 1.244 . S
O295 Mg283 1.955 . S
O295 C308 1.273 . S
O296 Mg285 2.114 . S
O296 Mg287 2.291 . S
O296 C298 1.312 . S
O297 Mg282 2.031 . S
O297 C298 1.208 . S
C298 O296 1.312 . S
C298 O297 1.208 . S
C299 O291 1.331 . S
C299 O294 1.244 . S
O300 Mg285 2.013 . S
O300 C289 1.191 . S
O301 C280 1.331 . S
O301 Mg287 2.081 . S
O302 Mg283 1.986 . S
O302 C289 1.307 . S
O303 C281 1.264 . S
O303 Mg287 2.023 . S
O304 C280 1.244 . S
O304 Mg288 1.942 . S
O305 C281 1.273 . S
O305 Mg288 1.955 . S
O306 C279 1.312 . S
O306 Mg282 2.291 . S
O306 Mg285 2.114 . S
O307 C279 1.208 . S
O307 Mg287 2.031 . S
C308 O293 1.264 . S
C308 O295 1.273 . S
C309 O290 1.191 . S
C309 O292 1.307 . S
C310 O337 1.312 . S
C310 O338 1.208 . S
C311 O332 1.331 . S
C311 O335 1.244 . S
C312 O334 1.264 . S
C312 O336 1.273 . S
Mg313 O315 1.936 . S
Mg313 O322 2.081 . S
Mg313 O324 2.023 . S
Mg313 O328 2.031 . S
Mg313 O337 2.291 . S
Mg314 O315 1.963 . S
Mg314 O325 1.942 . S
Mg314 O326 1.955 . S
Mg314 O333 1.986 . S
O315 Mg313 1.936 . S
O315 Mg314 1.963 . S
O315 Mg316 1.915 . S
Mg316 O315 1.915 . S
Mg316 O317 1.915 . S
Mg316 O321 2.013 . S
Mg316 O327 2.114 . S
Mg316 O331 2.013 . S
Mg316 O337 2.114 . S
O317 Mg316 1.915 . S
O317 Mg318 1.936 . S
O317 Mg319 1.963 . S
Mg318 O317 1.936 . S
Mg318 O327 2.291 . S
Mg318 O332 2.081 . S
Mg318 O334 2.023 . S
Mg318 O338 2.031 . S
Mg319 O317 1.963 . S
Mg319 O323 1.986 . S
Mg319 O335 1.942 . S
Mg319 O336 1.955 . S
C320 O331 1.191 . S
C320 O333 1.307 . S
O321 Mg316 2.013 . S
O321 C340 1.191 . S
O322 Mg313 2.081 . S
O322 C330 1.331 . S
O323 Mg319 1.986 . S
O323 C340 1.307 . S
O324 Mg313 2.023 . S
O324 C339 1.264 . S
O325 Mg314 1.942 . S
O325 C330 1.244 . S
O326 Mg314 1.955 . S
O326 C339 1.273 . S
O327 Mg316 2.114 . S
O327 Mg318 2.291 . S
O327 C329 1.312 . S
O328 Mg313 2.031 . S
O328 C329 1.208 . S
C329 O327 1.312 . S
C329 O328 1.208 . S
C330 O322 1.331 . S
C330 O325 1.244 . S
O331 Mg316 2.013 . S
O331 C320 1.191 . S
O332 C311 1.331 . S
O332 Mg318 2.081 . S
O333 Mg314 1.986 . S
O333 C320 1.307 . S
O334 C312 1.264 . S
O334 Mg318 2.023 . S
O335 C311 1.244 . S
O335 Mg319 1.942 . S
O336 C312 1.273 . S
O336 Mg319 1.955 . S
O337 C310 1.312 . S
O337 Mg313 2.291 . S
O337 Mg316 2.114 . S
O338 C310 1.208 . S
O338 Mg318 2.031 . S
C339 O324 1.264 . S
C339 O326 1.273 . S
C340 O321 1.191 . S
C340 O323 1.307 . S
C341 O368 1.312 . S
C341 O369 1.208 . S
C342 O363 1.331 . S
C342 O366 1.244 . S
C343 O365 1.264 . S
C343 O367 1.273 . S
Mg344 O346 1.936 1_556 S
Mg344 O353 2.081 . S
Mg344 O355 2.023 . S
Mg344 O359 2.031 1_556 S
Mg344 O368 2.291 1_556 S
Mg345 O346 1.963 1_556 S
Mg345 O356 1.942 . S
Mg345 O357 1.955 . S
Mg345 O364 1.986 1_556 S
O346 Mg344 1.936 1_554 S
O346 Mg345 1.963 1_554 S
O346 Mg347 1.915 . S
Mg347 O346 1.915 . S
Mg347 O348 1.915 . S
Mg347 O352 2.013 . S
Mg347 O358 2.114 . S
Mg347 O362 2.013 . S
Mg347 O368 2.114 . S
O348 Mg347 1.915 . S
O348 Mg349 1.936 . S
O348 Mg350 1.963 . S
Mg349 O348 1.936 . S
Mg349 O358 2.291 . S
Mg349 O363 2.081 . S
Mg349 O365 2.023 . S
Mg349 O369 2.031 . S
Mg350 O348 1.963 . S
Mg350 O354 1.986 . S
Mg350 O366 1.942 . S
Mg350 O367 1.955 . S
C351 O362 1.191 . S
C351 O364 1.307 . S
O352 Mg347 2.013 . S
O352 C371 1.191 . S
O353 Mg344 2.081 . S
O353 C361 1.331 . S
O354 Mg350 1.986 . S
O354 C371 1.307 . S
O355 Mg344 2.023 . S
O355 C370 1.264 . S
O356 Mg345 1.942 . S
O356 C361 1.244 . S
O357 Mg345 1.955 . S
O357 C370 1.273 . S
O358 Mg347 2.114 . S
O358 Mg349 2.291 . S
O358 C360 1.312 . S
O359 Mg344 2.031 1_554 S
O359 C360 1.208 . S
C360 O358 1.312 . S
C360 O359 1.208 . S
C361 O353 1.331 . S
C361 O356 1.244 . S
O362 Mg347 2.013 . S
O362 C351 1.191 . S
O363 C342 1.331 . S
O363 Mg349 2.081 . S
O364 Mg345 1.986 1_554 S
O364 C351 1.307 . S
O365 C343 1.264 . S
O365 Mg349 2.023 . S
O366 C342 1.244 . S
O366 Mg350 1.942 . S
O367 C343 1.273 . S
O367 Mg350 1.955 . S
O368 C341 1.312 . S
O368 Mg344 2.291 1_554 S
O368 Mg347 2.114 . S
O369 C341 1.208 . S
O369 Mg349 2.031 . S
C370 O355 1.264 . S
C370 O357 1.273 . S
C371 O352 1.191 . S
C371 O354 1.307 . S
C372 O399 1.312 . S
C372 O400 1.208 . S
C373 O394 1.331 . S
C373 O397 1.244 . S
C374 O396 1.264 . S
C374 O398 1.273 . S
Mg375 O377 1.936 . S
Mg375 O384 2.081 . S
Mg375 O386 2.023 . S
Mg375 O390 2.031 . S
Mg375 O399 2.291 . S
Mg376 O377 1.963 . S
Mg376 O387 1.942 . S
Mg376 O388 1.955 . S
Mg376 O395 1.986 . S
O377 Mg375 1.936 . S
O377 Mg376 1.963 . S
O377 Mg378 1.915 . S
Mg378 O377 1.915 . S
Mg378 O379 1.915 . S
Mg378 O383 2.013 . S
Mg378 O389 2.114 . S
Mg378 O393 2.013 . S
Mg378 O399 2.114 . S
O379 Mg378 1.915 . S
O379 Mg380 1.936 . S
O379 Mg381 1.963 . S
Mg380 O379 1.936 . S
Mg380 O389 2.291 . S
Mg380 O394 2.081 . S
Mg380 O396 2.023 . S
Mg380 O400 2.031 . S
Mg381 O379 1.963 . S
Mg381 O385 1.986 . S
Mg381 O397 1.942 . S
Mg381 O398 1.955 . S
C382 O393 1.191 . S
C382 O395 1.307 . S
O383 Mg378 2.013 . S
O383 C402 1.191 . S
O384 Mg375 2.081 . S
O384 C392 1.331 . S
O385 Mg381 1.986 . S
O385 C402 1.307 . S
O386 Mg375 2.023 . S
O386 C401 1.264 . S
O387 Mg376 1.942 . S
O387 C392 1.244 . S
O388 Mg376 1.955 . S
O388 C401 1.273 . S
O389 Mg378 2.114 . S
O389 Mg380 2.291 . S
O389 C391 1.312 . S
O390 Mg375 2.031 . S
O390 C391 1.208 . S
C391 O389 1.312 . S
C391 O390 1.208 . S
C392 O384 1.331 . S
C392 O387 1.244 . S
O393 Mg378 2.013 . S
O393 C382 1.191 . S
O394 C373 1.331 . S
O394 Mg380 2.081 . S
O395 Mg376 1.986 . S
O395 C382 1.307 . S
O396 C374 1.264 . S
O396 Mg380 2.023 . S
O397 C373 1.244 . S
O397 Mg381 1.942 . S
O398 C374 1.273 . S
O398 Mg381 1.955 . S
O399 C372 1.312 . S
O399 Mg375 2.291 . S
O399 Mg378 2.114 . S
O400 C372 1.208 . S
O400 Mg380 2.031 . S
C401 O386 1.264 . S
C401 O388 1.273 . S
C402 O383 1.191 . S
C402 O385 1.307 . S
C403 O430 1.312 . S
C403 O431 1.208 . S
C404 O425 1.331 . S
C404 O428 1.244 . S
C405 O427 1.264 . S
C405 O429 1.273 . S
Mg406 O408 1.936 . S
Mg406 O415 2.081 . S
Mg406 O417 2.023 . S
Mg406 O421 2.031 . S
Mg406 O430 2.291 . S
Mg407 O408 1.963 . S
Mg407 O418 1.942 . S
Mg407 O419 1.955 . S
Mg407 O426 1.986 . S
O408 Mg406 1.936 . S
O408 Mg407 1.963 . S
O408 Mg409 1.915 . S
Mg409 O408 1.915 . S
Mg409 O410 1.915 . S
Mg409 O414 2.013 . S
Mg409 O420 2.114 . S
Mg409 O424 2.013 . S
Mg409 O430 2.114 . S
O410 Mg409 1.915 . S
O410 Mg411 1.936 . S
O410 Mg412 1.963 . S
Mg411 O410 1.936 . S
Mg411 O420 2.291 . S
Mg411 O425 2.081 . S
Mg411 O427 2.023 . S
Mg411 O431 2.031 . S
Mg412 O410 1.963 . S
Mg412 O416 1.986 . S
Mg412 O428 1.942 . S
Mg412 O429 1.955 . S
C413 O424 1.191 . S
C413 O426 1.307 . S
O414 Mg409 2.013 . S
O414 C433 1.191 . S
O415 Mg406 2.081 . S
O415 C423 1.331 . S
O416 Mg412 1.986 . S
O416 C433 1.307 . S
O417 Mg406 2.023 . S
O417 C432 1.264 . S
O418 Mg407 1.942 . S
O418 C423 1.244 . S
O419 Mg407 1.955 . S
O419 C432 1.273 . S
O420 Mg409 2.114 . S
O420 Mg411 2.291 . S
O420 C422 1.312 . S
O421 Mg406 2.031 . S
O421 C422 1.208 . S
C422 O420 1.312 . S
C422 O421 1.208 . S
C423 O415 1.331 . S
C423 O418 1.244 . S
O424 Mg409 2.013 . S
O424 C413 1.191 . S
O425 C404 1.331 . S
O425 Mg411 2.081 . S
O426 Mg407 1.986 . S
O426 C413 1.307 . S
O427 C405 1.264 . S
O427 Mg411 2.023 . S
O428 C404 1.244 . S
O428 Mg412 1.942 . S
O429 C405 1.273 . S
O429 Mg412 1.955 . S
O430 C403 1.312 . S
O430 Mg406 2.291 . S
O430 Mg409 2.114 . S
O431 C403 1.208 . S
O431 Mg411 2.031 . S
C432 O417 1.264 . S
C432 O419 1.273 . S
C433 O414 1.191 . S
C433 O416 1.307 . S
C434 O461 1.312 . S
C434 O462 1.208 . S
C435 O456 1.331 . S
C435 O459 1.244 . S
C436 O458 1.264 . S
C436 O460 1.273 . S
Mg437 O439 1.936 1_556 S
Mg437 O446 2.081 . S
Mg437 O448 2.023 . S
Mg437 O452 2.031 1_556 S
Mg437 O461 2.291 1_556 S
Mg438 O439 1.963 1_556 S
Mg438 O449 1.942 . S
Mg438 O450 1.955 . S
Mg438 O457 1.986 1_556 S
O439 Mg437 1.936 1_554 S
O439 Mg438 1.963 1_554 S
O439 Mg440 1.915 . S
Mg440 O439 1.915 . S
Mg440 O441 1.915 . S
Mg440 O445 2.013 . S
Mg440 O451 2.114 . S
Mg440 O455 2.013 . S
Mg440 O461 2.114 . S
O441 Mg440 1.915 . S
O441 Mg442 1.936 . S
O441 Mg443 1.963 . S
Mg442 O441 1.936 . S
Mg442 O451 2.291 . S
Mg442 O456 2.081 . S
Mg442 O458 2.023 . S
Mg442 O462 2.031 . S
Mg443 O441 1.963 . S
Mg443 O447 1.986 . S
Mg443 O459 1.942 . S
Mg443 O460 1.955 . S
C444 O455 1.191 . S
C444 O457 1.307 . S
O445 Mg440 2.013 . S
O445 C464 1.191 . S
O446 Mg437 2.081 . S
O446 C454 1.331 . S
O447 Mg443 1.986 . S
O447 C464 1.307 . S
O448 Mg437 2.023 . S
O448 C463 1.264 . S
O449 Mg438 1.942 . S
O449 C454 1.244 . S
O450 Mg438 1.955 . S
O450 C463 1.273 . S
O451 Mg440 2.114 . S
O451 Mg442 2.291 . S
O451 C453 1.312 . S
O452 Mg437 2.031 1_554 S
O452 C453 1.208 . S
C453 O451 1.312 . S
C453 O452 1.208 . S
C454 O446 1.331 . S
C454 O449 1.244 . S
O455 Mg440 2.013 . S
O455 C444 1.191 . S
O456 C435 1.331 . S
O456 Mg442 2.081 . S
O457 Mg438 1.986 1_554 S
O457 C444 1.307 . S
O458 C436 1.264 . S
O458 Mg442 2.023 . S
O459 C435 1.244 . S
O459 Mg443 1.942 . S
O460 C436 1.273 . S
O460 Mg443 1.955 . S
O461 C434 1.312 . S
O461 Mg437 2.291 1_554 S
O461 Mg440 2.114 . S
O462 C434 1.208 . S
O462 Mg442 2.031 . S
C463 O448 1.264 . S
C463 O450 1.273 . S
C464 O445 1.191 . S
C464 O447 1.307 . S
C465 O492 1.312 . S
C465 O493 1.208 . S
C466 O487 1.331 . S
C466 O490 1.244 . S
C467 O489 1.264 . S
C467 O491 1.273 . S
Mg468 O470 1.936 1_554 S
Mg468 O477 2.081 . S
Mg468 O479 2.023 . S
Mg468 O483 2.031 1_554 S
Mg468 O492 2.291 1_554 S
Mg469 O470 1.963 1_554 S
Mg469 O480 1.942 . S
Mg469 O481 1.955 . S
Mg469 O488 1.986 1_554 S
O470 Mg468 1.936 1_556 S
O470 Mg469 1.963 1_556 S
O470 Mg471 1.915 . S
Mg471 O470 1.915 . S
Mg471 O472 1.915 . S
Mg471 O476 2.013 . S
Mg471 O482 2.114 . S
Mg471 O486 2.013 . S
Mg471 O492 2.114 . S
O472 Mg471 1.915 . S
O472 Mg473 1.936 . S
O472 Mg474 1.963 . S
Mg473 O472 1.936 . S
Mg473 O482 2.291 . S
Mg473 O487 2.081 . S
Mg473 O489 2.023 . S
Mg473 O493 2.031 . S
Mg474 O472 1.963 . S
Mg474 O478 1.986 . S
Mg474 O490 1.942 . S
Mg474 O491 1.955 . S
C475 O486 1.191 . S
C475 O488 1.307 . S
O476 Mg471 2.013 . S
O476 C495 1.191 . S
O477 Mg468 2.081 . S
O477 C485 1.331 . S
O478 Mg474 1.986 . S
O478 C495 1.307 . S
O479 Mg468 2.023 . S
O479 C494 1.264 . S
O480 Mg469 1.942 . S
O480 C485 1.244 . S
O481 Mg469 1.955 . S
O481 C494 1.273 . S
O482 Mg471 2.114 . S
O482 Mg473 2.291 . S
O482 C484 1.312 . S
O483 Mg468 2.031 1_556 S
O483 C484 1.208 . S
C484 O482 1.312 . S
C484 O483 1.208 . S
C485 O477 1.331 . S
C485 O480 1.244 . S
O486 Mg471 2.013 . S
O486 C475 1.191 . S
O487 C466 1.331 . S
O487 Mg473 2.081 . S
O488 Mg469 1.986 1_556 S
O488 C475 1.307 . S
O489 C467 1.264 . S
O489 Mg473 2.023 . S
O490 C466 1.244 . S
O490 Mg474 1.942 . S
O491 C467 1.273 . S
O491 Mg474 1.955 . S
O492 C465 1.312 . S
O492 Mg468 2.291 1_556 S
O492 Mg471 2.114 . S
O493 C465 1.208 . S
O493 Mg473 2.031 . S
C494 O479 1.264 . S
C494 O481 1.273 . S
C495 O476 1.191 . S
C495 O478 1.307 . S
C496 C497 1.387 . S
C496 H500 0.950 . S
C496 C505 1.390 1_556 S
C497 C496 1.387 . S
C497 C499 1.387 . S
H498 C505 0.950 . S
C499 C497 1.387 . S
C499 C501 1.390 1_556 S
C499 H503 0.950 . S
H500 C496 0.950 . S
C501 C499 1.390 1_554 S
C501 C502 1.387 . S
C501 H504 0.950 . S
C502 C501 1.387 . S
C502 C505 1.387 . S
H503 C499 0.950 . S
H504 C501 0.950 . S
C505 C496 1.390 1_554 S
C505 H498 0.950 . S
C505 C502 1.387 . S
C506 C507 1.387 . S
C506 H510 0.950 . S
C506 C515 1.390 1_545 S
C507 C506 1.387 . S
C507 C509 1.387 . S
H508 C515 0.950 . S
C509 C507 1.387 . S
C509 C511 1.390 1_545 S
C509 H513 0.950 . S
H510 C506 0.950 . S
C511 C509 1.390 1_565 S
C511 C512 1.387 . S
C511 H514 0.950 . S
C512 C511 1.387 . S
C512 C515 1.387 . S
H513 C509 0.950 . S
H514 C511 0.950 . S
C515 C506 1.390 1_565 S
C515 H508 0.950 . S
C515 C512 1.387 . S
C516 C517 1.387 . S
C516 H520 0.950 . S
C516 C525 1.390 . S
C517 C516 1.387 . S
C517 C519 1.387 . S
H518 C525 0.950 . S
C519 C517 1.387 . S
C519 C521 1.390 . S
C519 H523 0.950 . S
H520 C516 0.950 . S
C521 C519 1.390 . S
C521 C522 1.387 . S
C521 H524 0.950 . S
C522 C521 1.387 . S
C522 C525 1.387 . S
H523 C519 0.950 . S
H524 C521 0.950 . S
C525 C516 1.390 . S
C525 H518 0.950 . S
C525 C522 1.387 . S
C526 C527 1.387 . S
C526 H530 0.950 . S
C526 C535 1.390 1_545 S
C527 C526 1.387 . S
C527 C529 1.387 . S
H528 C535 0.950 . S
C529 C527 1.387 . S
C529 C531 1.390 1_545 S
C529 H533 0.950 . S
H530 C526 0.950 . S
C531 C529 1.390 1_565 S
C531 C532 1.387 . S
C531 H534 0.950 . S
C532 C531 1.387 . S
C532 C535 1.387 . S
H533 C529 0.950 . S
H534 C531 0.950 . S
C535 C526 1.390 1_565 S
C535 H528 0.950 . S
C535 C532 1.387 . S
C536 C537 1.387 . S
C536 H540 0.950 . S
C536 C545 1.390 1_554 S
C537 C536 1.387 . S
C537 C539 1.387 . S
H538 C545 0.950 . S
C539 C537 1.387 . S
C539 C541 1.390 1_554 S
C539 H543 0.950 . S
H540 C536 0.950 . S
C541 C539 1.390 1_556 S
C541 C542 1.387 . S
C541 H544 0.950 . S
C542 C541 1.387 . S
C542 C545 1.387 . S
H543 C539 0.950 . S
H544 C541 0.950 . S
C545 C536 1.390 1_556 S
C545 H538 0.950 . S
C545 C542 1.387 . S
C546 C547 1.387 . S
C546 H550 0.950 . S
C546 C555 1.390 1_565 S
C547 C546 1.387 . S
C547 C549 1.387 . S
H548 C555 0.950 . S
C549 C547 1.387 . S
C549 C551 1.390 1_565 S
C549 H553 0.950 . S
H550 C546 0.950 . S
C551 C549 1.390 1_545 S
C551 C552 1.387 . S
C551 H554 0.950 . S
C552 C551 1.387 . S
C552 C555 1.387 . S
H553 C549 0.950 . S
H554 C551 0.950 . S
C555 C546 1.390 1_545 S
C555 H548 0.950 . S
C555 C552 1.387 . S
C556 C557 1.387 . S
C556 H560 0.950 . S
C556 C565 1.390 . S
C557 C556 1.387 . S
C557 C559 1.387 . S
H558 C565 0.950 . S
C559 C557 1.387 . S
C559 C561 1.390 . S
C559 H563 0.950 . S
H560 C556 0.950 . S
C561 C559 1.390 . S
C561 C562 1.387 . S
C561 H564 0.950 . S
C562 C561 1.387 . S
C562 C565 1.387 . S
H563 C559 0.950 . S
H564 C561 0.950 . S
C565 C556 1.390 . S
C565 H558 0.950 . S
C565 C562 1.387 . S
C566 C567 1.387 . S
C566 H570 0.950 . S
C566 C575 1.390 1_565 S
C567 C566 1.387 . S
C567 C569 1.387 . S
H568 C575 0.950 . S
C569 C567 1.387 . S
C569 C571 1.390 1_565 S
C569 H573 0.950 . S
H570 C566 0.950 . S
C571 C569 1.390 1_545 S
C571 C572 1.387 . S
C571 H574 0.950 . S
C572 C571 1.387 . S
C572 C575 1.387 . S
H573 C569 0.950 . S
H574 C571 0.950 . S
C575 C566 1.390 1_545 S
C575 H568 0.950 . S
C575 C572 1.387 . S
C576 C577 1.387 . S
C576 H580 0.950 . S
C576 C585 1.390 . S
C577 C576 1.387 . S
C577 C579 1.387 . S
H578 C585 0.950 . S
C579 C577 1.387 . S
C579 C581 1.390 . S
C579 H583 0.950 . S
H580 C576 0.950 . S
C581 C579 1.390 . S
C581 C582 1.387 . S
C581 H584 0.950 . S
C582 C581 1.387 . S
C582 C585 1.387 . S
H583 C579 0.950 . S
H584 C581 0.950 . S
C585 C576 1.390 . S
C585 H578 0.950 . S
C585 C582 1.387 . S
C586 C587 1.387 . S
C586 H590 0.950 . S
C586 C595 1.390 . S
C587 C586 1.387 . S
C587 C589 1.387 . S
H588 C595 0.950 . S
C589 C587 1.387 . S
C589 C591 1.390 . S
C589 H593 0.950 . S
H590 C586 0.950 . S
C591 C589 1.390 . S
C591 C592 1.387 . S
C591 H594 0.950 . S
C592 C591 1.387 . S
C592 C595 1.387 . S
H593 C589 0.950 . S
H594 C591 0.950 . S
C595 C586 1.390 . S
C595 H588 0.950 . S
C595 C592 1.387 . S
C596 C597 1.387 . S
C596 H600 0.950 . S
C596 C605 1.390 1_556 S
C597 C596 1.387 . S
C597 C599 1.387 . S
H598 C605 0.950 . S
C599 C597 1.387 . S
C599 C601 1.390 1_556 S
C599 H603 0.950 . S
H600 C596 0.950 . S
C601 C599 1.390 1_554 S
C601 C602 1.387 . S
C601 H604 0.950 . S
C602 C601 1.387 . S
C602 C605 1.387 . S
H603 C599 0.950 . S
H604 C601 0.950 . S
C605 C596 1.390 1_554 S
C605 H598 0.950 . S
C605 C602 1.387 . S
C606 C607 1.387 . S
C606 H610 0.950 . S
C606 C615 1.390 . S
C607 C606 1.387 . S
C607 C609 1.387 . S
H608 C615 0.950 . S
C609 C607 1.387 . S
C609 C611 1.390 . S
C609 H613 0.950 . S
H610 C606 0.950 . S
C611 C609 1.390 . S
C611 C612 1.387 . S
C611 H614 0.950 . S
C612 C611 1.387 . S
C612 C615 1.387 . S
H613 C609 0.950 . S
H614 C611 0.950 . S
C615 C606 1.390 . S
C615 H608 0.950 . S
C615 C612 1.387 . S
C616 C617 1.387 . S
C616 H620 0.950 . S
C616 C625 1.390 . S
C617 C616 1.387 . S
C617 C619 1.387 . S
H618 C625 0.950 . S
C619 C617 1.387 . S
C619 C621 1.390 . S
C619 H623 0.950 . S
H620 C616 0.950 . S
C621 C619 1.390 . S
C621 C622 1.387 . S
C621 H624 0.950 . S
C622 C621 1.387 . S
C622 C625 1.387 . S
H623 C619 0.950 . S
H624 C621 0.950 . S
C625 C616 1.390 . S
C625 H618 0.950 . S
C625 C622 1.387 . S
C626 C627 1.387 . S
C626 H630 0.950 . S
C626 C635 1.390 . S
C627 C626 1.387 . S
C627 C629 1.387 . S
H628 C635 0.950 . S
C629 C627 1.387 . S
C629 C631 1.390 . S
C629 H633 0.950 . S
H630 C626 0.950 . S
C631 C629 1.390 . S
C631 C632 1.387 . S
C631 H634 0.950 . S
C632 C631 1.387 . S
C632 C635 1.387 . S
H633 C629 0.950 . S
H634 C631 0.950 . S
C635 C626 1.390 . S
C635 H628 0.950 . S
C635 C632 1.387 . S
C636 C637 1.387 . S
C636 H640 0.950 . S
C636 C645 1.390 1_556 S
C637 C636 1.387 . S
C637 C639 1.387 . S
H638 C645 0.950 . S
C639 C637 1.387 . S
C639 C641 1.390 1_556 S
C639 H643 0.950 . S
H640 C636 0.950 . S
C641 C639 1.390 1_554 S
C641 C642 1.387 . S
C641 H644 0.950 . S
C642 C641 1.387 . S
C642 C645 1.387 . S
H643 C639 0.950 . S
H644 C641 0.950 . S
C645 C636 1.390 1_554 S
C645 H638 0.950 . S
C645 C642 1.387 . S
C646 C647 1.387 . S
C646 H650 0.950 . S
C646 C655 1.390 . S
C647 C646 1.387 . S
C647 C649 1.387 . S
H648 C655 0.950 . S
C649 C647 1.387 . S
C649 C651 1.390 . S
C649 H653 0.950 . S
H650 C646 0.950 . S
C651 C649 1.390 . S
C651 C652 1.387 . S
C651 H654 0.950 . S
C652 C651 1.387 . S
C652 C655 1.387 . S
H653 C649 0.950 . S
H654 C651 0.950 . S
C655 C646 1.390 . S
C655 H648 0.950 . S
C655 C652 1.387 . S
C656 C657 1.387 . S
C656 H660 0.950 . S
C656 C665 1.390 . S
C657 C656 1.387 . S
C657 C659 1.387 . S
H658 C665 0.950 . S
C659 C657 1.387 . S
C659 C661 1.390 . S
C659 H663 0.950 . S
H660 C656 0.950 . S
C661 C659 1.390 . S
C661 C662 1.387 . S
C661 H664 0.950 . S
C662 C661 1.387 . S
C662 C665 1.387 . S
H663 C659 0.950 . S
H664 C661 0.950 . S
C665 C656 1.390 . S
C665 H658 0.950 . S
C665 C662 1.387 . S
C666 C667 1.387 . S
C666 H670 0.950 . S
C666 C675 1.390 . S
C667 C666 1.387 . S
C667 C669 1.387 . S
H668 C675 0.950 . S
C669 C667 1.387 . S
C669 C671 1.390 . S
C669 H673 0.950 . S
H670 C666 0.950 . S
C671 C669 1.390 . S
C671 C672 1.387 . S
C671 H674 0.950 . S
C672 C671 1.387 . S
C672 C675 1.387 . S
H673 C669 0.950 . S
H674 C671 0.950 . S
C675 C666 1.390 . S
C675 H668 0.950 . S
C675 C672 1.387 . S
C676 C677 1.387 . S
C676 H680 0.950 . S
C676 C685 1.390 . S
C677 C676 1.387 . S
C677 C679 1.387 . S
H678 C685 0.950 . S
C679 C677 1.387 . S
C679 C681 1.390 . S
C679 H683 0.950 . S
H680 C676 0.950 . S
C681 C679 1.390 . S
C681 C682 1.387 . S
C681 H684 0.950 . S
C682 C681 1.387 . S
C682 C685 1.387 . S
H683 C679 0.950 . S
H684 C681 0.950 . S
C685 C676 1.390 . S
C685 H678 0.950 . S
C685 C682 1.387 . S
C686 C687 1.387 . S
C686 H690 0.950 . S
C686 C695 1.390 . S
C687 C686 1.387 . S
C687 C689 1.387 . S
H688 C695 0.950 . S
C689 C687 1.387 . S
C689 C691 1.390 . S
C689 H693 0.950 . S
H690 C686 0.950 . S
C691 C689 1.390 . S
C691 C692 1.387 . S
C691 H694 0.950 . S
C692 C691 1.387 . S
C692 C695 1.387 . S
H693 C689 0.950 . S
H694 C691 0.950 . S
C695 C686 1.390 . S
C695 H688 0.950 . S
C695 C692 1.387 . S
C696 C697 1.387 . S
C696 H700 0.950 . S
C696 C705 1.390 . S
C697 C696 1.387 . S
C697 C699 1.387 . S
H698 C705 0.950 . S
C699 C697 1.387 . S
C699 C701 1.390 . S
C699 H703 0.950 . S
H700 C696 0.950 . S
C701 C699 1.390 . S
C701 C702 1.387 . S
C701 H704 0.950 . S
C702 C701 1.387 . S
C702 C705 1.387 . S
H703 C699 0.950 . S
H704 C701 0.950 . S
C705 C696 1.390 . S
C705 H698 0.950 . S
C705 C702 1.387 . S
C706 C707 1.387 . S
C706 H710 0.950 . S
C706 C715 1.390 . S
C707 C706 1.387 . S
C707 C709 1.387 . S
H708 C715 0.950 . S
C709 C707 1.387 . S
C709 C711 1.390 . S
C709 H713 0.950 . S
H710 C706 0.950 . S
C711 C709 1.390 . S
C711 C712 1.387 . S
C711 H714 0.950 . S
C712 C711 1.387 . S
C712 C715 1.387 . S
H713 C709 0.950 . S
H714 C711 0.950 . S
C715 C706 1.390 . S
C715 H708 0.950 . S
C715 C712 1.387 . S
C716 C717 1.387 . S
C716 H720 0.950 . S
C716 C725 1.390 . S
C717 C716 1.387 . S
C717 C719 1.387 . S
H718 C725 0.950 . S
C719 C717 1.387 . S
C719 C721 1.390 . S
C719 H723 0.950 . S
H720 C716 0.950 . S
C721 C719 1.390 . S
C721 C722 1.387 . S
C721 H724 0.950 . S
C722 C721 1.387 . S
C722 C725 1.387 . S
H723 C719 0.950 . S
H724 C721 0.950 . S
C725 C716 1.390 . S
C725 H718 0.950 . S
C725 C722 1.387 . S
C726 C727 1.387 . S
C726 H730 0.950 . S
C726 C735 1.390 . S
C727 C726 1.387 . S
C727 C729 1.387 . S
H728 C735 0.950 . S
C729 C727 1.387 . S
C729 C731 1.390 . S
C729 H733 0.950 . S
H730 C726 0.950 . S
C731 C729 1.390 . S
C731 C732 1.387 . S
C731 H734 0.950 . S
C732 C731 1.387 . S
C732 C735 1.387 . S
H733 C729 0.950 . S
H734 C731 0.950 . S
C735 C726 1.390 . S
C735 H728 0.950 . S
C735 C732 1.387 . S
C736 C737 1.387 . S
C736 H740 0.950 . S
C736 C745 1.390 . S
C737 C736 1.387 . S
C737 C739 1.387 . S
H738 C745 0.950 . S
C739 C737 1.387 . S
C739 C741 1.390 . S
C739 H743 0.950 . S
H740 C736 0.950 . S
C741 C739 1.390 . S
C741 C742 1.387 . S
C741 H744 0.950 . S
C742 C741 1.387 . S
C742 C745 1.387 . S
H743 C739 0.950 . S
H744 C741 0.950 . S
C745 C736 1.390 . S
C745 H738 0.950 . S
C745 C742 1.387 . S
C746 C747 1.387 . S
C746 H750 0.950 . S
C746 C755 1.390 . S
C747 C746 1.387 . S
C747 C749 1.387 . S
H748 C755 0.950 . S
C749 C747 1.387 . S
C749 C751 1.390 . S
C749 H753 0.950 . S
H750 C746 0.950 . S
C751 C749 1.390 . S
C751 C752 1.387 . S
C751 H754 0.950 . S
C752 C751 1.387 . S
C752 C755 1.387 . S
H753 C749 0.950 . S
H754 C751 0.950 . S
C755 C746 1.390 . S
C755 H748 0.950 . S
C755 C752 1.387 . S
C756 C757 1.387 . S
C756 H760 0.950 . S
C756 C765 1.390 . S
C757 C756 1.387 . S
C757 C759 1.387 . S
H758 C765 0.950 . S
C759 C757 1.387 . S
C759 C761 1.390 . S
C759 H763 0.950 . S
H760 C756 0.950 . S
C761 C759 1.390 . S
C761 C762 1.387 . S
C761 H764 0.950 . S
C762 C761 1.387 . S
C762 C765 1.387 . S
H763 C759 0.950 . S
H764 C761 0.950 . S
C765 C756 1.390 . S
C765 H758 0.950 . S
C765 C762 1.387 . S
C766 C767 1.387 . S
C766 H770 0.950 . S
C766 C775 1.390 . S
C767 C766 1.387 . S
C767 C769 1.387 . S
H768 C775 0.950 . S
C769 C767 1.387 . S
C769 C771 1.390 . S
C769 H773 0.950 . S
H770 C766 0.950 . S
C771 C769 1.390 . S
C771 C772 1.387 . S
C771 H774 0.950 . S
C772 C771 1.387 . S
C772 C775 1.387 . S
H773 C769 0.950 . S
H774 C771 0.950 . S
C775 C766 1.390 . S
C775 H768 0.950 . S
C775 C772 1.387 . S
C776 C777 1.387 . S
C776 H780 0.950 . S
C776 C785 1.390 . S
C777 C776 1.387 . S
C777 C779 1.387 . S
H778 C785 0.950 . S
C779 C777 1.387 . S
C779 C781 1.390 . S
C779 H783 0.950 . S
H780 C776 0.950 . S
C781 C779 1.390 . S
C781 C782 1.387 . S
C781 H784 0.950 . S
C782 C781 1.387 . S
C782 C785 1.387 . S
H783 C779 0.950 . S
H784 C781 0.950 . S
C785 C776 1.390 . S
C785 H778 0.950 . S
C785 C782 1.387 . S
C786 C787 1.387 . S
C786 H790 0.950 . S
C786 C795 1.390 . S
C787 C786 1.387 . S
C787 C789 1.387 . S
H788 C795 0.950 . S
C789 C787 1.387 . S
C789 C791 1.390 . S
C789 H793 0.950 . S
H790 C786 0.950 . S
C791 C789 1.390 . S
C791 C792 1.387 . S
C791 H794 0.950 . S
C792 C791 1.387 . S
C792 C795 1.387 . S
H793 C789 0.950 . S
H794 C791 0.950 . S
C795 C786 1.390 . S
C795 H788 0.950 . S
C795 C792 1.387 . S
C796 C797 1.387 . S
C796 H800 0.950 . S
C796 C805 1.390 . S
C797 C796 1.387 . S
C797 C799 1.387 . S
H798 C805 0.950 . S
C799 C797 1.387 . S
C799 C801 1.390 . S
C799 H803 0.950 . S
H800 C796 0.950 . S
C801 C799 1.390 . S
C801 C802 1.387 . S
C801 H804 0.950 . S
C802 C801 1.387 . S
C802 C805 1.387 . S
H803 C799 0.950 . S
H804 C801 0.950 . S
C805 C796 1.390 . S
C805 H798 0.950 . S
C805 C802 1.387 . S
C806 C807 1.387 . S
C806 H810 0.950 . S
C806 C815 1.390 . S
C807 C806 1.387 . S
C807 C809 1.387 . S
H808 C815 0.950 . S
C809 C807 1.387 . S
C809 C811 1.390 . S
C809 H813 0.950 . S
H810 C806 0.950 . S
C811 C809 1.390 . S
C811 C812 1.387 . S
C811 H814 0.950 . S
C812 C811 1.387 . S
C812 C815 1.387 . S
H813 C809 0.950 . S
H814 C811 0.950 . S
C815 C806 1.390 . S
C815 H808 0.950 . S
C815 C812 1.387 . S
C816 C817 1.387 1_554 S
C816 H820 0.950 . S
C816 C825 1.390 1_554 S
C817 C816 1.387 1_556 S
C817 C819 1.387 . S
H818 C825 0.950 . S
C819 C817 1.387 . S
C819 C821 1.390 . S
C819 H823 0.950 . S
H820 C816 0.950 . S
C821 C819 1.390 . S
C821 C822 1.387 . S
C821 H824 0.950 . S
C822 C821 1.387 . S
C822 C825 1.387 . S
H823 C819 0.950 . S
H824 C821 0.950 . S
C825 C816 1.390 1_556 S
C825 H818 0.950 . S
C825 C822 1.387 . S
C826 C827 1.387 . S
C826 H830 0.950 . S
C826 C835 1.390 1_655 S
C827 C826 1.387 . S
C827 C829 1.387 . S
H828 C835 0.950 . S
C829 C827 1.387 . S
C829 C831 1.390 . S
C829 H833 0.950 . S
H830 C826 0.950 . S
C831 C829 1.390 . S
C831 C832 1.387 1_655 S
C831 H834 0.951 . S
C832 C831 1.387 1_455 S
C832 C835 1.387 . S
H833 C829 0.950 . S
H834 C831 0.951 . S
C835 C826 1.390 1_455 S
C835 H828 0.950 . S
C835 C832 1.387 . S
C836 C837 1.387 . S
C836 H840 0.950 . S
C836 C845 1.390 . S
C837 C836 1.387 . S
C837 C839 1.387 . S
H838 C845 0.950 . S
C839 C837 1.387 . S
C839 C841 1.390 . S
C839 H843 0.950 . S
H840 C836 0.950 . S
C841 C839 1.390 . S
C841 C842 1.387 . S
C841 H844 0.950 . S
C842 C841 1.387 . S
C842 C845 1.387 . S
H843 C839 0.950 . S
H844 C841 0.950 . S
C845 C836 1.390 . S
C845 H838 0.950 . S
C845 C842 1.387 . S
C846 C847 1.387 . S
C846 H850 0.950 . S
C846 C855 1.390 . S
C847 C846 1.387 . S
C847 C849 1.387 . S
H848 C855 0.950 . S
C849 C847 1.387 . S
C849 C851 1.390 . S
C849 H853 0.950 . S
H850 C846 0.950 . S
C851 C849 1.390 . S
C851 C852 1.387 . S
C851 H854 0.950 . S
C852 C851 1.387 . S
C852 C855 1.387 . S
H853 C849 0.950 . S
H854 C851 0.950 . S
C855 C846 1.390 . S
C855 H848 0.950 . S
C855 C852 1.387 . S
C856 C857 1.387 . S
C856 H860 0.950 . S
C856 C865 1.390 . S
C857 C856 1.387 . S
C857 C859 1.387 . S
H858 C865 0.950 . S
C859 C857 1.387 . S
C859 C861 1.390 . S
C859 H863 0.950 . S
H860 C856 0.950 . S
C861 C859 1.390 . S
C861 C862 1.387 . S
C861 H864 0.950 . S
C862 C861 1.387 . S
C862 C865 1.387 . S
H863 C859 0.950 . S
H864 C861 0.950 . S
C865 C856 1.390 . S
C865 H858 0.950 . S
C865 C862 1.387 . S
C866 C867 1.387 . S
C866 H870 0.950 . S
C866 C875 1.390 . S
C867 C866 1.387 . S
C867 C869 1.387 . S
H868 C875 0.950 . S
C869 C867 1.387 . S
C869 C871 1.390 . S
C869 H873 0.950 . S
H870 C866 0.950 . S
C871 C869 1.390 . S
C871 C872 1.387 . S
C871 H874 0.950 . S
C872 C871 1.387 . S
C872 C875 1.387 . S
H873 C869 0.950 . S
H874 C871 0.950 . S
C875 C866 1.390 . S
C875 H868 0.950 . S
C875 C872 1.387 . S
C876 C877 1.387 . S
C876 H880 0.950 . S
C876 C885 1.390 . S
C877 C876 1.387 . S
C877 C879 1.387 . S
H878 C885 0.950 . S
C879 C877 1.387 . S
C879 C881 1.390 . S
C879 H883 0.950 . S
H880 C876 0.950 . S
C881 C879 1.390 . S
C881 C882 1.387 . S
C881 H884 0.950 . S
C882 C881 1.387 . S
C882 C885 1.387 . S
H883 C879 0.950 . S
H884 C881 0.950 . S
C885 C876 1.390 . S
C885 H878 0.950 . S
C885 C882 1.387 . S
C886 C887 1.387 1_455 S
C886 H890 0.950 . S
C886 C895 1.390 . S
C887 C886 1.387 1_655 S
C887 C889 1.387 . S
H888 C895 0.950 . S
C889 C887 1.387 . S
C889 C891 1.390 . S
C889 H893 0.950 . S
H890 C886 0.950 . S
C891 C889 1.390 . S
C891 C892 1.387 1_655 S
C891 H894 0.950 . S
C892 C891 1.387 1_455 S
C892 C895 1.387 . S
H893 C889 0.950 . S
H894 C891 0.950 . S
C895 C886 1.390 . S
C895 H888 0.950 . S
C895 C892 1.387 . S
C896 C897 1.387 . S
C896 H900 0.950 . S
C896 C905 1.390 . S
C897 C896 1.387 . S
C897 C899 1.387 . S
H898 C905 0.950 . S
C899 C897 1.387 . S
C899 C901 1.390 1_554 S
C899 H903 0.950 1_554 S
H900 C896 0.950 . S
C901 C899 1.390 1_556 S
C901 C902 1.387 1_556 S
C901 H904 0.950 . S
C902 C901 1.387 1_554 S
C902 C905 1.387 . S
H903 C899 0.950 1_556 S
H904 C901 0.950 . S
C905 C896 1.390 . S
C905 H898 0.950 . S
C905 C902 1.387 . S
C906 C907 1.387 . S
C906 H910 0.950 . S
C906 C915 1.390 . S
C907 C906 1.387 . S
C907 C909 1.407 . S
H908 C915 0.950 . S
C909 C907 1.407 . S
C909 C911 1.372 1_455 S
C909 H913 0.947 1_455 S
H910 C906 0.950 . S
C911 C909 1.372 1_655 S
C911 C912 1.387 . S
C911 H914 0.950 . S
C912 C911 1.387 . S
C912 C915 1.387 1_655 S
H913 C909 0.947 1_655 S
H914 C911 0.950 . S
C915 C906 1.390 . S
C915 H908 0.950 . S
C915 C912 1.387 1_455 S
C916 C917 1.387 . S
C916 H920 0.950 . S
C916 C925 1.390 . S
C917 C916 1.387 . S
C917 C919 1.387 . S
H918 C925 0.950 . S
C919 C917 1.387 . S
C919 C921 1.390 . S
C919 H923 0.950 . S
H920 C916 0.950 . S
C921 C919 1.390 . S
C921 C922 1.387 . S
C921 H924 0.950 . S
C922 C921 1.387 . S
C922 C925 1.387 . S
H923 C919 0.950 . S
H924 C921 0.950 . S
C925 C916 1.390 . S
C925 H918 0.950 . S
C925 C922 1.387 . S
C926 C927 1.387 . S
C926 H930 0.950 . S
C926 C935 1.390 . S
C927 C926 1.387 . S
C927 C929 1.387 . S
H928 C935 0.950 . S
C929 C927 1.387 . S
C929 C931 1.390 . S
C929 H933 0.950 . S
H930 C926 0.950 . S
C931 C929 1.390 . S
C931 C932 1.387 . S
C931 H934 0.950 . S
C932 C931 1.387 . S
C932 C935 1.387 . S
H933 C929 0.950 . S
H934 C931 0.950 . S
C935 C926 1.390 . S
C935 H928 0.950 . S
C935 C932 1.387 . S
C936 C937 1.387 . S
C936 H940 0.950 . S
C936 C945 1.390 . S
C937 C936 1.387 . S
C937 C939 1.387 . S
H938 C945 0.950 . S
C939 C937 1.387 . S
C939 C941 1.390 . S
C939 H943 0.950 . S
H940 C936 0.950 . S
C941 C939 1.390 . S
C941 C942 1.387 . S
C941 H944 0.950 . S
C942 C941 1.387 . S
C942 C945 1.387 . S
H943 C939 0.950 . S
H944 C941 0.950 . S
C945 C936 1.390 . S
C945 H938 0.950 . S
C945 C942 1.387 . S
C946 C947 1.387 . S
C946 H950 0.950 . S
C946 C955 1.390 . S
C947 C946 1.387 . S
C947 C949 1.387 . S
H948 C955 0.950 . S
C949 C947 1.387 . S
C949 C951 1.390 . S
C949 H953 0.950 . S
H950 C946 0.950 . S
C951 C949 1.390 . S
C951 C952 1.387 . S
C951 H954 0.950 . S
C952 C951 1.387 . S
C952 C955 1.387 . S
H953 C949 0.950 . S
H954 C951 0.950 . S
C955 C946 1.390 . S
C955 H948 0.950 . S
C955 C952 1.387 . S
C956 C957 1.387 1_554 S
C956 H960 0.950 . S
C956 C965 1.390 1_554 S
C957 C956 1.387 1_556 S
C957 C959 1.387 . S
H958 C965 0.950 1_554 S
C959 C957 1.387 . S
C959 C961 1.390 . S
C959 H963 0.950 . S
H960 C956 0.950 . S
C961 C959 1.390 . S
C961 C962 1.387 . S
C961 H964 0.950 . S
C962 C961 1.387 . S
C962 C965 1.387 . S
H963 C959 0.950 . S
H964 C961 0.950 . S
C965 C956 1.390 1_556 S
C965 H958 0.950 1_556 S
C965 C962 1.387 . S
C966 C967 1.387 . S
C966 H970 0.950 . S
C966 C975 1.390 . S
C967 C966 1.387 . S
C967 C969 1.387 1_455 S
H968 C975 0.950 . S
C969 C967 1.387 1_655 S
C969 C971 1.390 . S
C969 H973 0.950 . S
H970 C966 0.950 . S
C971 C969 1.390 . S
C971 C972 1.387 . S
C971 H974 0.950 . S
C972 C971 1.387 . S
C972 C975 1.387 1_655 S
H973 C969 0.950 . S
H974 C971 0.950 . S
C975 C966 1.390 . S
C975 H968 0.950 . S
C975 C972 1.387 1_455 S
C976 C977 1.387 . S
C976 H980 0.950 . S
C976 C985 1.390 . S
C977 C976 1.387 . S
C977 C979 1.387 . S
H978 C985 0.950 . S
C979 C977 1.387 . S
C979 C981 1.390 . S
C979 H983 0.950 . S
H980 C976 0.950 . S
C981 C979 1.390 . S
C981 C982 1.387 . S
C981 H984 0.950 . S
C982 C981 1.387 . S
C982 C985 1.387 . S
H983 C979 0.950 . S
H984 C981 0.950 . S
C985 C976 1.390 . S
C985 H978 0.950 . S
C985 C982 1.387 . S
C986 C987 1.387 . S
C986 H990 0.950 . S
C986 C995 1.390 . S
C987 C986 1.387 . S
C987 C989 1.387 . S
H988 C995 0.950 . S
C989 C987 1.387 . S
C989 C991 1.390 . S
C989 H993 0.950 . S
H990 C986 0.950 . S
C991 C989 1.390 . S
C991 C992 1.387 . S
C991 H994 0.950 . S
C992 C991 1.387 . S
C992 C995 1.387 . S
H993 C989 0.950 . S
H994 C991 0.950 . S
C995 C986 1.390 . S
C995 H988 0.950 . S
C995 C992 1.387 . S
C996 C997 1.387 1_554 S
C996 H1000 0.950 . S
C996 C1005 1.390 1_554 S
C997 C996 1.387 1_556 S
C997 C999 1.387 . S
H998 C1005 0.950 1_554 S
C999 C997 1.387 . S
C999 C1001 1.390 . S
C999 H1003 0.950 . S
H1000 C996 0.950 . S
C1001 C999 1.390 . S
C1001 C1002 1.387 . S
C1001 H1004 0.950 . S
C1002 C1001 1.387 . S
C1002 C1005 1.387 . S
H1003 C999 0.950 . S
H1004 C1001 0.950 . S
C1005 C996 1.390 1_556 S
C1005 H998 0.950 1_556 S
C1005 C1002 1.387 . S
C1006 C1007 1.387 . S
C1006 H1010 0.950 . S
C1006 C1015 1.374 1_455 S
C1007 C1006 1.387 . S
C1007 C1009 1.387 . S
H1008 C1015 0.952 . S
C1009 C1007 1.387 . S
C1009 C1011 1.390 1_455 S
C1009 H1013 0.950 . S
H1010 C1006 0.950 . S
C1011 C1009 1.390 1_655 S
C1011 C1012 1.387 . S
C1011 H1014 0.950 . S
C1012 C1011 1.387 . S
C1012 C1015 1.401 . S
H1013 C1009 0.950 . S
H1014 C1011 0.950 . S
C1015 C1006 1.374 1_655 S
C1015 H1008 0.952 . S
C1015 C1012 1.401 . S
C1016 C1017 1.387 . S
C1016 H1020 0.950 1_554 S
C1016 C1025 1.390 1_554 S
C1017 C1016 1.387 . S
C1017 C1019 1.387 . S
H1018 C1025 0.950 . S
C1019 C1017 1.387 . S
C1019 C1021 1.390 . S
C1019 H1023 0.950 . S
H1020 C1016 0.950 1_556 S
C1021 C1019 1.390 . S
C1021 C1022 1.387 . S
C1021 H1024 0.950 . S
C1022 C1021 1.387 . S
C1022 C1025 1.387 1_554 S
H1023 C1019 0.950 . S
H1024 C1021 0.950 . S
C1025 C1016 1.390 1_556 S
C1025 H1018 0.950 . S
C1025 C1022 1.387 1_556 S
C1026 C1027 1.387 . S
C1026 H1030 0.950 . S
C1026 C1035 1.390 1_455 S
C1027 C1026 1.387 . S
C1027 C1029 1.387 . S
H1028 C1035 0.950 . S
C1029 C1027 1.387 . S
C1029 C1031 1.390 1_455 S
C1029 H1033 0.950 . S
H1030 C1026 0.950 . S
C1031 C1029 1.390 1_655 S
C1031 C1032 1.387 . S
C1031 H1034 0.950 . S
C1032 C1031 1.387 . S
C1032 C1035 1.387 . S
H1033 C1029 0.950 . S
H1034 C1031 0.950 . S
C1035 C1026 1.390 1_655 S
C1035 H1028 0.950 . S
C1035 C1032 1.387 . S
C1036 C1037 1.387 . S
C1036 H1040 0.950 . S
C1036 C1045 1.390 . S
C1037 C1036 1.387 . S
C1037 C1039 1.387 . S
H1038 C1045 0.950 . S
C1039 C1037 1.387 . S
C1039 C1041 1.390 . S
C1039 H1043 0.950 . S
H1040 C1036 0.950 . S
C1041 C1039 1.390 . S
C1041 C1042 1.387 . S
C1041 H1044 0.950 . S
C1042 C1041 1.387 . S
C1042 C1045 1.387 . S
H1043 C1039 0.950 . S
H1044 C1041 0.950 . S
C1045 C1036 1.390 . S
C1045 H1038 0.950 . S
C1045 C1042 1.387 . S
C1046 C1047 1.387 . S
C1046 H1050 0.950 . S
C1046 C1055 1.390 . S
C1047 C1046 1.387 . S
C1047 C1049 1.387 . S
H1048 C1055 0.950 . S
C1049 C1047 1.387 . S
C1049 C1051 1.390 . S
C1049 H1053 0.950 . S
H1050 C1046 0.950 . S
C1051 C1049 1.390 . S
C1051 C1052 1.387 . S
C1051 H1054 0.950 . S
C1052 C1051 1.387 . S
C1052 C1055 1.387 . S
H1053 C1049 0.950 . S
H1054 C1051 0.950 . S
C1055 C1046 1.390 . S
C1055 H1048 0.950 . S
C1055 C1052 1.387 . S
C1056 C1057 1.387 . S
C1056 H1060 0.950 . S
C1056 C1065 1.390 . S
C1057 C1056 1.387 . S
C1057 C1059 1.387 . S
H1058 C1065 0.950 . S
C1059 C1057 1.387 . S
C1059 C1061 1.390 . S
C1059 H1063 0.950 . S
H1060 C1056 0.950 . S
C1061 C1059 1.390 . S
C1061 C1062 1.387 . S
C1061 H1064 0.950 . S
C1062 C1061 1.387 . S
C1062 C1065 1.387 . S
H1063 C1059 0.950 . S
H1064 C1061 0.950 . S
C1065 C1056 1.390 . S
C1065 H1058 0.950 . S
C1065 C1062 1.387 . S
C1066 C1067 1.387 . S
C1066 H1070 0.950 . S
C1066 C1075 1.390 . S
C1067 C1066 1.387 . S
C1067 C1069 1.387 . S
H1068 C1075 0.950 . S
C1069 C1067 1.387 . S
C1069 C1071 1.390 . S
C1069 H1073 0.950 . S
H1070 C1066 0.950 . S
C1071 C1069 1.390 . S
C1071 C1072 1.387 . S
C1071 H1074 0.950 . S
C1072 C1071 1.387 . S
C1072 C1075 1.387 . S
H1073 C1069 0.950 . S
H1074 C1071 0.950 . S
C1075 C1066 1.390 . S
C1075 H1068 0.950 . S
C1075 C1072 1.387 . S
C1076 C1077 1.387 . S
C1076 H1080 0.950 . S
C1076 C1085 1.390 1_554 S
C1077 C1076 1.387 . S
C1077 C1079 1.387 . S
H1078 C1085 0.950 . S
C1079 C1077 1.387 . S
C1079 C1081 1.390 . S
C1079 H1083 0.950 . S
H1080 C1076 0.950 . S
C1081 C1079 1.390 . S
C1081 C1082 1.387 . S
C1081 H1084 0.950 . S
C1082 C1081 1.387 . S
C1082 C1085 1.387 1_554 S
H1083 C1079 0.950 . S
H1084 C1081 0.950 . S
C1085 C1076 1.390 1_556 S
C1085 H1078 0.950 . S
C1085 C1082 1.387 1_556 S
C1086 C1087 1.387 . S
C1086 H1090 0.950 . S
C1086 C1095 1.418 . S
C1087 C1086 1.387 . S
C1087 C1089 1.387 1_455 S
H1088 C1095 0.955 . S
C1089 C1087 1.387 1_655 S
C1089 C1091 1.390 . S
C1089 H1093 0.950 . S
H1090 C1086 0.950 . S
C1091 C1089 1.390 . S
C1091 C1092 1.387 . S
C1091 H1094 0.950 . S
C1092 C1091 1.387 . S
C1092 C1095 1.356 1_655 S
H1093 C1089 0.950 . S
H1094 C1091 0.950 . S
C1095 C1086 1.418 . S
C1095 H1088 0.955 . S
C1095 C1092 1.356 1_455 S
C1096 C1097 1.387 . S
C1096 H1100 0.950 . S
C1096 C1105 1.390 1_556 S
C1097 C1096 1.387 . S
C1097 C1099 1.387 . S
H1098 C1105 0.950 . S
C1099 C1097 1.387 . S
C1099 C1101 1.390 . S
C1099 H1103 0.950 . S
H1100 C1096 0.950 . S
C1101 C1099 1.390 . S
C1101 C1102 1.387 . S
C1101 H1104 0.950 . S
C1102 C1101 1.387 . S
C1102 C1105 1.387 1_556 S
H1103 C1099 0.950 . S
H1104 C1101 0.950 . S
C1105 C1096 1.390 1_554 S
C1105 H1098 0.950 . S
C1105 C1102 1.387 1_554 S
C1106 C1107 1.387 . S
C1106 H1110 0.950 . S
C1106 C1115 1.390 1_655 S
C1107 C1106 1.387 . S
C1107 C1109 1.387 . S
H1108 C1115 0.950 . S
C1109 C1107 1.387 . S
C1109 C1111 1.390 . S
C1109 H1113 0.950 . S
H1110 C1106 0.950 . S
C1111 C1109 1.390 . S
C1111 C1112 1.387 1_655 S
C1111 H1114 0.950 1_655 S
C1112 C1111 1.387 1_455 S
C1112 C1115 1.387 . S
H1113 C1109 0.950 . S
H1114 C1111 0.950 1_455 S
C1115 C1106 1.390 1_455 S
C1115 H1108 0.950 . S
C1115 C1112 1.387 . S
C1116 C1117 1.387 . S
C1116 H1120 0.950 . S
C1116 C1125 1.390 . S
C1117 C1116 1.387 . S
C1117 C1119 1.387 . S
H1118 C1125 0.950 . S
C1119 C1117 1.387 . S
C1119 C1121 1.390 . S
C1119 H1123 0.950 . S
H1120 C1116 0.950 . S
C1121 C1119 1.390 . S
C1121 C1122 1.387 . S
C1121 H1124 0.950 . S
C1122 C1121 1.387 . S
C1122 C1125 1.387 . S
H1123 C1119 0.950 . S
H1124 C1121 0.950 . S
C1125 C1116 1.390 . S
C1125 H1118 0.950 . S
C1125 C1122 1.387 . S
C1126 C1127 1.387 . S
C1126 H1130 0.950 . S
C1126 C1135 1.390 . S
C1127 C1126 1.387 . S
C1127 C1129 1.387 . S
H1128 C1135 0.950 . S
C1129 C1127 1.387 . S
C1129 C1131 1.390 . S
C1129 H1133 0.950 . S
H1130 C1126 0.950 . S
C1131 C1129 1.390 . S
C1131 C1132 1.387 . S
C1131 H1134 0.950 . S
C1132 C1131 1.387 . S
C1132 C1135 1.387 . S
H1133 C1129 0.950 . S
H1134 C1131 0.950 . S
C1135 C1126 1.390 . S
C1135 H1128 0.950 . S
C1135 C1132 1.387 . S
C497 C216 1.267 . S
C502 C30 1.267 . S
C507 C247 1.267 . S
C512 C41 1.267 . S
C517 C154 1.270 . S
C522 C72 1.270 . S
C527 C123 1.267 . S
C532 C185 1.267 . S
C537 C464 1.267 . S
C542 C278 1.267 . S
C547 C475 1.267 . S
C552 C289 1.267 . S
C557 C320 1.267 . S
C562 C402 1.267 . S
C567 C351 1.270 . S
C572 C433 1.270 . S
C577 C165 1.267 . S
C582 C61 1.267 . S
C587 C196 1.267 . S
C592 C92 1.267 . S
C597 C103 1.270 . S
C602 C227 1.270 . S
C607 C134 1.267 . S
C612 C10 1.267 . S
C617 C309 1.267 . S
C622 C413 1.267 . S
C627 C340 1.270 . S
C632 C444 1.270 . S
C637 C495 1.267 . S
C642 C371 1.267 . S
C647 C258 1.270 . S
C652 C382 1.270 . S
C657 C29 1.125 . S
C662 C2 1.125 . S
C667 C33 1.128 1_556 S
C672 C60 1.128 . S
C677 C91 1.127 1_554 S
C682 C64 1.128 . S
C687 C95 1.125 . S
C692 C122 1.125 . S
C697 C153 1.125 . S
C702 C126 1.125 1_556 S
C707 C157 1.129 . S
C712 C184 1.129 1_554 S
C717 C215 1.124 . S
C722 C188 1.124 . S
C727 C246 1.128 . S
C732 C219 1.129 . S
C737 C277 1.124 . S
C742 C250 1.124 . S
C747 C281 1.129 1_554 S
C752 C308 1.129 . S
C757 C312 1.126 . S
C762 C339 1.126 1_556 S
C767 C343 1.125 . S
C772 C370 1.124 . S
C777 C401 1.125 . S
C782 C374 1.125 1_554 S
C787 C432 1.126 1_556 S
C792 C405 1.127 . S
C797 C436 1.125 . S
C802 C463 1.125 . S
C807 C467 1.127 . S
C812 C494 1.127 . S
C817 C0 2.287 1_556 S
C822 C280 1.928 . S
C827 C50 2.288 . S
C832 C485 1.927 . S
C837 C81 2.289 . S
C842 C342 1.931 . S
C847 C93 2.289 . S
C852 C404 1.931 . S
C857 C466 1.927 . S
C862 C124 2.288 . S
C867 C155 2.288 . S
C872 C361 1.931 . S
C877 C186 2.289 1_554 S
C882 C423 1.929 . S
C887 C217 2.287 . S
C892 C299 1.928 . S
C897 C32 1.927 . S
C902 C248 2.288 1_554 S
C907 C298 2.288 . S
C912 C218 1.927 . S
C917 C329 2.288 . S
C922 C113 1.927 . S
C927 C360 2.288 . S
C932 C156 1.931 . S
C937 C372 2.289 . S
C942 C237 1.931 . S
C947 C94 1.931 . S
C952 C403 2.289 . S
C957 C434 2.289 1_556 S
C962 C175 1.931 . S
C967 C484 2.288 . S
C972 C51 1.929 . S
C977 C435 1.931 . S
C982 C174 2.289 . S
C987 C311 1.927 . S
C992 C205 2.288 . S
C997 C236 2.288 1_556 S
C1002 C373 1.927 . S
C1007 C143 2.289 . S
C1012 C268 1.931 . S
C1017 C330 1.927 . S
C1022 C112 2.288 1_554 S
C1027 C19 2.288 . S
C1032 C392 1.931 . S
C1037 C31 2.289 . S
C1042 C249 1.931 . S
C1047 C454 1.931 . S
C1052 C62 2.288 . S
C1057 C422 2.289 . S
C1062 C187 1.931 . S
C1067 C63 1.931 . S
C1072 C453 2.289 . S
C1077 C125 1.931 . S
C1082 C465 2.288 1_554 S
C1087 C20 1.929 . S
C1092 C391 2.289 . S
C1097 C82 1.931 . S
C1102 C341 2.288 1_556 S
C1107 C267 2.289 . S
C1112 C144 1.928 . S
C1117 C279 2.288 . S
C1122 C1 1.927 . S
C1127 C310 2.288 . S
C1132 C206 1.931 . S
