# Generated by pormake.
# Topology ukf, (4)-cn, num edge types: 1
# Building blocks:
#     Node 0, Type 0, BuildingBlock: CEKHIL_clean_sbu_0, # of connection points: 4
#     Node 1, Type 0, BuildingBlock: CEKHIL_clean_sbu_0, # of connection points: 4
#     Node 2, Type 0, BuildingBlock: CEKHIL_clean_sbu_0, # of connection points: 4
#     Node 3, Type 0, BuildingBlock: CEKHIL_clean_sbu_0, # of connection points: 4
#     Node 4, Type 0, BuildingBlock: CEKHIL_clean_sbu_0, # of connection points: 4
#     Node 5, Type 0, BuildingBlock: CEKHIL_clean_sbu_0, # of connection points: 4
#     Node 6, Type 0, BuildingBlock: CEKHIL_clean_sbu_0, # of connection points: 4
#     Node 7, Type 0, BuildingBlock: CEKHIL_clean_sbu_0, # of connection points: 4
#     Node 8, Type 0, BuildingBlock: CEKHIL_clean_sbu_0, # of connection points: 4
#     Node 9, Type 0, BuildingBlock: CEKHIL_clean_sbu_0, # of connection points: 4
#     Node 10, Type 0, BuildingBlock: CEKHIL_clean_sbu_0, # of connection points: 4
#     Node 11, Type 0, BuildingBlock: CEKHIL_clean_sbu_0, # of connection points: 4
#     Edge 12, Type (0, 0), BuildingBlock: XUDNAN_clean_linker_2, # of connection points: 2
#     Edge 13, Type (0, 0), BuildingBlock: XUDNAN_clean_linker_2, # of connection points: 2
#     Edge 14, Type (0, 0), BuildingBlock: XUDNAN_clean_linker_2, # of connection points: 2
#     Edge 15, Type (0, 0), BuildingBlock: XUDNAN_clean_linker_2, # of connection points: 2
#     Edge 16, Type (0, 0), BuildingBlock: XUDNAN_clean_linker_2, # of connection points: 2
#     Edge 17, Type (0, 0), BuildingBlock: XUDNAN_clean_linker_2, # of connection points: 2
#     Edge 18, Type (0, 0), BuildingBlock: XUDNAN_clean_linker_2, # of connection points: 2
#     Edge 19, Type (0, 0), BuildingBlock: XUDNAN_clean_linker_2, # of connection points: 2
#     Edge 20, Type (0, 0), BuildingBlock: XUDNAN_clean_linker_2, # of connection points: 2
#     Edge 21, Type (0, 0), BuildingBlock: XUDNAN_clean_linker_2, # of connection points: 2
#     Edge 22, Type (0, 0), BuildingBlock: XUDNAN_clean_linker_2, # of connection points: 2
#     Edge 23, Type (0, 0), BuildingBlock: XUDNAN_clean_linker_2, # of connection points: 2
#     Edge 24, Type (0, 0), BuildingBlock: XUDNAN_clean_linker_2, # of connection points: 2
#     Edge 25, Type (0, 0), BuildingBlock: XUDNAN_clean_linker_2, # of connection points: 2
#     Edge 26, Type (0, 0), BuildingBlock: XUDNAN_clean_linker_2, # of connection points: 2
#     Edge 27, Type (0, 0), BuildingBlock: XUDNAN_clean_linker_2, # of connection points: 2
#     Edge 28, Type (0, 0), BuildingBlock: XUDNAN_clean_linker_2, # of connection points: 2
#     Edge 29, Type (0, 0), BuildingBlock: XUDNAN_clean_linker_2, # of connection points: 2
#     Edge 30, Type (0, 0), BuildingBlock: XUDNAN_clean_linker_2, # of connection points: 2
#     Edge 31, Type (0, 0), BuildingBlock: XUDNAN_clean_linker_2, # of connection points: 2
#     Edge 32, Type (0, 0), BuildingBlock: XUDNAN_clean_linker_2, # of connection points: 2
#     Edge 33, Type (0, 0), BuildingBlock: XUDNAN_clean_linker_2, # of connection points: 2
#     Edge 34, Type (0, 0), BuildingBlock: XUDNAN_clean_linker_2, # of connection points: 2
#     Edge 35, Type (0, 0), BuildingBlock: XUDNAN_clean_linker_2, # of connection points: 2
# Relax obj value: 0.105
# Max RMSD: 0.082
# Mean RMSD: 0.082
data_MOF--net-ukf--node1-CEKHIL_clean_sbu_0--edge1-XUDNAN_clean_linker_2
_symmetry_space_group_name_H-M    P1
_symmetry_Int_Tables_number       1
_symmetry_cell_setting            triclinic
loop_
_symmetry_equiv_pos_as_xyz
'x, y, z'
_cell_length_a     32.325574
_cell_length_b     32.36933
_cell_length_c     63.477989
_cell_angle_alpha  90.057672
_cell_angle_beta   89.892426
_cell_angle_gamma 119.99664
loop_
_atom_site_label
_atom_site_type_symbol
_atom_site_fract_x
_atom_site_fract_y
_atom_site_fract_z
_atom_type_partial_charge
Co0 Co 0.45041 0.26074 0.04615 0.0
O1 O 0.4966 0.31996 0.0586 0.0
O2 O 0.42654 0.30632 0.04761 0.0
C3 C 0.50445 0.2596 0.02406 0.0
O4 O 0.39517 0.20107 0.03186 0.0
Co5 Co 0.47128 0.17631 0.05102 0.0
O6 O 0.41803 0.14535 0.03105 0.0
C7 C 0.42661 0.20078 0.08601 0.0
C8 C 0.46835 0.33659 0.05537 0.0
C9 C 0.38859 0.15939 0.02667 0.0
O10 O 0.4247 0.23327 0.07501 0.0
O11 O 0.44609 0.17697 0.07964 0.0
O12 O 0.4828 0.28271 0.01902 0.0
O13 O 0.49536 0.24118 0.0426 0.0
Co14 Co 0.17827 0.43225 0.3789 0.0
O15 O 0.15219 0.47264 0.38584 0.0
O16 O 0.10839 0.39674 0.37736 0.0
C17 C 0.23379 0.48528 0.35685 0.0
O18 O 0.19527 0.38108 0.36987 0.0
Co19 Co 0.28535 0.46936 0.3903 0.0
O20 O 0.27509 0.41366 0.37351 0.0
C21 C 0.21109 0.42689 0.42332 0.0
C22 C 0.11021 0.43685 0.38214 0.0
C23 C 0.23441 0.37953 0.36787 0.0
O24 O 0.17762 0.41522 0.40961 0.0
O25 O 0.25559 0.4517 0.41885 0.0
O26 O 0.1907 0.45706 0.35015 0.0
O27 O 0.2406 0.48314 0.37669 0.0
Co28 Co 0.75005 0.17765 0.71704 0.0
O29 O 0.68544 0.15485 0.72665 0.0
O30 O 0.71389 0.10782 0.71801 0.0
C31 C 0.74753 0.22984 0.6946 0.0
O32 O 0.81529 0.18998 0.70538 0.0
Co33 Co 0.82751 0.28514 0.7216 0.0
O34 O 0.86146 0.26917 0.70008 0.0
C35 C 0.80545 0.21809 0.75749 0.0
C36 C 0.6774 0.11192 0.72388 0.0
C37 C 0.8532 0.22663 0.69788 0.0
O38 O 0.77377 0.18224 0.74685 0.0
O39 O 0.82841 0.26084 0.75043 0.0
O40 O 0.73116 0.18588 0.68882 0.0
O41 O 0.76299 0.24025 0.71362 0.0
Co42 Co 0.57979 0.75264 0.04138 0.0
O43 O 0.53837 0.68697 0.04925 0.0
O44 O 0.61478 0.71771 0.0416 0.0
C45 C 0.52682 0.75337 0.01875 0.0
O46 O 0.63216 0.8197 0.03175 0.0
Co47 Co 0.54344 0.82477 0.04995 0.0
O48 O 0.6018 0.86907 0.03426 0.0
C49 C 0.58557 0.79642 0.08447 0.0
C50 C 0.57422 0.68027 0.04672 0.0
C51 C 0.63546 0.86102 0.02947 0.0
O52 O 0.59664 0.77224 0.07181 0.0
O53 O 0.56101 0.81569 0.07897 0.0
O54 O 0.55491 0.73789 0.01248 0.0
O55 O 0.52968 0.7646 0.03829 0.0
Co56 Co 0.82152 0.57407 0.37993 0.0
O57 O 0.83483 0.52677 0.39119 0.0
O58 O 0.88708 0.58933 0.37308 0.0
C59 C 0.75058 0.51887 0.36673 0.0
O60 O 0.81747 0.62864 0.36496 0.0
Co61 Co 0.72981 0.57599 0.39471 0.0
O62 O 0.74132 0.61266 0.36857 0.0
C63 C 0.81791 0.6211 0.42068 0.0
C64 C 0.87646 0.54935 0.38244 0.0
C65 C 0.78257 0.63579 0.36026 0.0
O66 O 0.84165 0.61108 0.40726 0.0
O67 O 0.77382 0.60864 0.4187 0.0
O68 O 0.78943 0.53208 0.35597 0.0
O69 O 0.75611 0.53758 0.38512 0.0
Co70 Co 0.25879 0.81662 0.7104 0.0
O71 O 0.3174 0.82853 0.7232 0.0
O72 O 0.30232 0.88569 0.71544 0.0
C73 C 0.26231 0.76852 0.68568 0.0
O74 O 0.19888 0.8129 0.69664 0.0
Co75 Co 0.17691 0.70886 0.7101 0.0
O76 O 0.14782 0.73436 0.69063 0.0
C77 C 0.19456 0.76835 0.7483 0.0
C78 C 0.33275 0.87364 0.72252 0.0
C79 C 0.15919 0.77808 0.68931 0.0
O80 O 0.22737 0.80603 0.73898 0.0
O81 O 0.17341 0.72684 0.73988 0.0
O82 O 0.28466 0.81425 0.68272 0.0
O83 O 0.24188 0.7543 0.70368 0.0
Co84 Co 0.75507 0.5674 0.61163 0.0
O85 O 0.69175 0.52502 0.60069 0.0
O86 O 0.71324 0.59433 0.61575 0.0
C87 C 0.75843 0.50663 0.62733 0.0
O88 O 0.81742 0.62011 0.62533 0.0
Co89 Co 0.84146 0.55153 0.60183 0.0
O90 O 0.87382 0.59846 0.62446 0.0
C91 C 0.80422 0.59206 0.56968 0.0
C92 C 0.67964 0.55535 0.6072 0.0
C93 C 0.85905 0.62644 0.63031 0.0
O94 O 0.77755 0.59822 0.58303 0.0
O95 O 0.82762 0.57089 0.57412 0.0
O96 O 0.73814 0.52716 0.63716 0.0
O97 O 0.7753 0.52334 0.60908 0.0
Co98 Co 0.19505 0.76462 0.94141 0.0
O99 O 0.17176 0.69853 0.93391 0.0
O100 O 0.12842 0.72493 0.94956 0.0
C101 C 0.26396 0.77474 0.95485 0.0
O102 O 0.20752 0.82996 0.95251 0.0
Co103 Co 0.29112 0.84699 0.92314 0.0
O104 O 0.28188 0.88759 0.94348 0.0
C105 C 0.20303 0.80173 0.89708 0.0
C106 C 0.13123 0.68884 0.94216 0.0
C107 C 0.24238 0.8736 0.95298 0.0
O108 O 0.17676 0.77739 0.91277 0.0
O109 O 0.24854 0.82777 0.89803 0.0
O110 O 0.2256 0.75621 0.96645 0.0
O111 O 0.25883 0.78465 0.9358 0.0
Co112 Co 0.4354 0.18312 0.28036 0.0
O113 O 0.48474 0.17179 0.27031 0.0
O114 O 0.41515 0.11456 0.28153 0.0
C115 C 0.48454 0.24393 0.30115 0.0
O116 O 0.37743 0.1856 0.29275 0.0
Co117 Co 0.44747 0.28332 0.27031 0.0
O118 O 0.39879 0.26373 0.2927 0.0
C119 C 0.41517 0.20959 0.23714 0.0
C120 C 0.45772 0.12705 0.27437 0.0
C121 C 0.37103 0.22063 0.29822 0.0
O122 O 0.41102 0.17792 0.25062 0.0
O123 O 0.43235 0.2537 0.24172 0.0
O124 O 0.46563 0.2005 0.30805 0.0
O125 O 0.4763 0.24875 0.28175 0.0
Co126 Co 0.26054 0.42944 0.61451 0.0
O127 O 0.32162 0.47012 0.60169 0.0
O128 O 0.30089 0.39942 0.61468 0.0
C129 C 0.26454 0.48872 0.63447 0.0
O130 O 0.19767 0.37894 0.6292 0.0
Co131 Co 0.18183 0.45805 0.60767 0.0
O132 O 0.14849 0.40989 0.62965 0.0
C133 C 0.20252 0.40691 0.5742 0.0
C134 C 0.33367 0.43859 0.60578 0.0
C135 C 0.158 0.37736 0.63449 0.0
O136 O 0.23272 0.40249 0.58586 0.0
O137 O 0.18121 0.42956 0.5797 0.0
O138 O 0.28435 0.46473 0.64095 0.0
O139 O 0.24611 0.47827 0.61597 0.0
Co140 Co 0.84366 0.26352 0.95131 0.0
O141 O 0.85415 0.32322 0.9406 0.0
O142 O 0.9126 0.31204 0.95083 0.0
C143 C 0.78621 0.25696 0.97347 0.0
O144 O 0.84171 0.20374 0.9641 0.0
Co145 Co 0.74183 0.17612 0.94443 0.0
O146 O 0.76324 0.14857 0.96659 0.0
C147 C 0.8109 0.21268 0.90921 0.0
C148 C 0.89911 0.34171 0.94428 0.0
C149 C 0.80695 0.16323 0.9707 0.0
O150 O 0.84457 0.24115 0.92172 0.0
O151 O 0.76734 0.18684 0.91502 0.0
O152 O 0.83071 0.28049 0.97899 0.0
O153 O 0.77825 0.24058 0.95451 0.0
Co154 Co 0.56786 0.82057 0.275 0.0
O155 O 0.53024 0.84934 0.26729 0.0
O156 O 0.59995 0.88756 0.28347 0.0
C157 C 0.5046 0.75429 0.28798 0.0
O158 O 0.61529 0.80046 0.28612 0.0
Co159 Co 0.54281 0.72139 0.25552 0.0
O160 O 0.58749 0.72361 0.27711 0.0
C161 C 0.60234 0.81117 0.23181 0.0
C162 C 0.56294 0.88832 0.27581 0.0
C163 C 0.61762 0.76166 0.28652 0.0
O164 O 0.60146 0.83764 0.24678 0.0
O165 O 0.57973 0.76556 0.23214 0.0
O166 O 0.52686 0.79194 0.29982 0.0
O167 O 0.51961 0.75895 0.26893 0.0
H168 H 0.25029 0.89464 0.99488 0.0
H169 H 0.22972 0.94088 0.93392 0.0
H170 H 0.24803 0.01857 0.94905 0.0
H171 H 0.2087 0.96758 0.02833 0.0
H172 H 0.25443 0.97975 0.04753 0.0
H173 H 0.22643 0.92385 0.03346 0.0
H174 H 0.3096 0.93975 0.02118 0.0
H175 H 0.33768 0.99543 0.03505 0.0
H176 H 0.34855 0.99419 0.00725 0.0
H177 H 0.28873 0.09711 0.9684 0.0
H178 H 0.34533 0.16606 0.99024 0.0
H179 H 0.33587 0.06859 0.03909 0.0
C180 C 0.24669 0.9201 0.98513 0.0
C181 C 0.23699 0.91136 0.96345 0.0
C182 C 0.23552 0.94649 0.95074 0.0
C183 C 0.24607 0.99081 0.95921 0.0
C184 C 0.25781 0.99949 0.9805 0.0
C185 C 0.25721 0.96463 0.99342 0.0
C186 C 0.27806 0.98493 0.01483 0.0
C187 C 0.23959 0.9627 0.03206 0.0
C188 C 0.321 0.9782 0.01984 0.0
C189 C 0.29339 0.03704 0.01149 0.0
C190 C 0.28067 0.04487 0.99176 0.0
C191 C 0.29739 0.09125 0.98417 0.0
C192 C 0.32928 0.13037 -0.00331 0.0
C193 C 0.34415 0.1226 0.01647 0.0
C194 C 0.32403 0.07546 0.02422 0.0
H195 H 0.29593 0.34889 0.3778 0.0
H196 H 0.17483 0.31508 0.33764 0.0
H197 H 0.1867 0.25356 0.31955 0.0
H198 H 0.36828 0.34762 0.33963 0.0
H199 H 0.3968 0.32326 0.35575 0.0
H200 H 0.37189 0.3561 0.36779 0.0
H201 H 0.31997 0.2839 0.39207 0.0
H202 H 0.34455 0.25059 0.37982 0.0
H203 H 0.28078 0.22633 0.38058 0.0
H204 H 0.2224 0.20693 0.30173 0.0
H205 H 0.27854 0.18466 0.28573 0.0
H206 H 0.37477 0.24891 0.3382 0.0
C207 C 0.27095 0.32769 0.36556 0.0
C208 C 0.23435 0.33677 0.35915 0.0
C209 C 0.20273 0.30838 0.343 0.0
C210 C 0.20932 0.27338 0.33266 0.0
C211 C 0.24708 0.26665 0.33894 0.0
C212 C 0.27701 0.29294 0.35524 0.0
C213 C 0.31839 0.28387 0.35759 0.0
C214 C 0.36663 0.33044 0.35502 0.0
C215 C 0.31573 0.25972 0.37878 0.0
C216 C 0.30874 0.25001 0.33942 0.0
C217 C 0.26695 0.23951 0.32902 0.0
C218 C 0.25425 0.2137 0.31017 0.0
C219 C 0.28603 0.20054 0.30128 0.0
C220 C 0.33002 0.21338 0.31119 0.0
C221 C 0.34028 0.23659 0.33089 0.0
H222 H 0.8858 0.24677 0.65778 0.0
H223 H 0.91348 0.20391 0.71813 0.0
H224 H 0.99494 0.22545 0.70617 0.0
H225 H 0.96214 0.21065 0.62478 0.0
H226 H 0.98033 0.26166 0.60791 0.0
H227 H 0.92168 0.23258 0.61969 0.0
H228 H 0.9388 0.31328 0.63568 0.0
H229 H 0.99741 0.34242 0.62424 0.0
H230 H 0.99046 0.34601 0.65224 0.0
H231 H 0.07994 0.27012 0.68998 0.0
H232 H 0.15425 0.32677 0.67074 0.0
H233 H 0.06807 0.33429 0.62045 0.0
C234 C 0.90807 0.23923 0.66797 0.0
C235 C 0.89285 0.22217 0.68859 0.0
C236 C 0.92382 0.21518 0.70197 0.0
C237 C 0.97039 0.22782 0.69534 0.0
C238 C 0.98521 0.24664 0.67513 0.0
C239 C 0.95422 0.25102 0.66145 0.0
C240 C 0.97959 0.27675 0.64148 0.0
C241 C 0.95975 0.24341 0.62233 0.0
C242 C 0.97638 0.32229 0.63825 0.0
C243 C 0.03015 0.28852 0.64641 0.0
C244 C 0.03313 0.27072 0.66576 0.0
C245 C 0.07767 0.28284 0.6745 0.0
C246 C 0.11983 0.31479 0.66345 0.0
C247 C 0.11696 0.33426 0.64394 0.0
C248 C 0.07141 0.31922 0.63515 0.0
H249 H 0.67239 0.95109 0.04366 0.0
H250 H 0.69857 0.86687 -0.00176 0.0
H251 H 0.76427 0.94151 0.98264 0.0
H252 H 0.68042 0.03461 0.00997 0.0
H253 H 0.70787 0.08398 0.02811 0.0
H254 H 0.67185 0.02454 0.03797 0.0
H255 H 0.74276 0.03524 0.06102 0.0
H256 H 0.7793 0.09487 0.05091 0.0
H257 H 0.79947 0.0522 0.04883 0.0
H258 H 0.81533 0.02621 0.96789 0.0
H259 H 0.84096 0.10764 0.95493 0.0
H260 H 0.78199 0.1353 0.01069 0.0
C261 C 0.69291 0.9482 0.03081 0.0
C262 C 0.68051 0.90321 0.02217 0.0
C263 C 0.70789 0.90092 0.00528 0.0
C264 C 0.74525 0.94322 -0.00364 0.0
C265 C 0.75533 0.98731 0.00484 0.0
C266 C 0.73003 0.98972 0.02192 0.0
C267 C 0.74268 0.04054 0.02664 0.0
C268 C 0.69809 0.04622 0.02558 0.0
C269 C 0.76754 0.05666 0.04812 0.0
C270 C 0.77715 0.0666 0.00883 0.0
C271 C 0.78509 0.03569 -0.00336 0.0
C272 C 0.8106 0.05086 0.97773 0.0
C273 C 0.82577 0.09755 0.97058 0.0
C274 C 0.81504 0.12834 0.98222 0.0
C275 C 0.7927 0.11328 0.00205 0.0
H276 H 0.64585 0.69663 0.27973 0.0
H277 H 0.6807 0.82223 0.31704 0.0
H278 H 0.74344 0.813 0.33547 0.0
H279 H 0.65137 0.62897 0.31952 0.0
H280 H 0.67549 0.59998 0.3035 0.0
H281 H 0.64031 0.62227 0.29155 0.0
H282 H 0.71005 0.67257 0.26574 0.0
H283 H 0.74584 0.65096 0.27804 0.0
H284 H 0.76824 0.71421 0.27603 0.0
H285 H 0.79379 0.78179 0.3532 0.0
H286 H 0.81942 0.7293 0.37002 0.0
H287 H 0.75126 0.62559 0.32041 0.0
C288 C 0.66697 0.72284 0.29158 0.0
C289 C 0.65803 0.7601 0.297 0.0
C290 C 0.68689 0.79348 0.31255 0.0
C291 C 0.72276 0.78858 0.323 0.0
C292 C 0.72986 0.75069 0.31742 0.0
C293 C 0.70262 0.71856 0.30196 0.0
C294 C 0.71293 0.67797 0.30015 0.0
C295 C 0.66735 0.62949 0.30393 0.0
C296 C 0.73562 0.67901 0.27871 0.0
C297 C 0.7486 0.69057 0.31779 0.0
C298 C 0.75904 0.73329 0.32728 0.0
C299 C 0.78691 0.74913 0.34549 0.0
C300 C 0.80199 0.71942 0.3548 0.0
C301 C 0.78885 0.67431 0.34601 0.0
C302 C 0.76376 0.66092 0.3268 0.0
H303 H 0.88967 0.63995 0.67091 0.0
H304 H 0.91499 0.71037 0.61062 0.0
H305 H 0.9949 0.77278 0.62257 0.0
H306 H 0.96461 0.75551 0.70386 0.0
H307 H 0.98428 0.72391 0.72071 0.0
H308 H 0.92519 0.69316 0.70944 0.0
H309 H 0.94313 0.63001 0.69356 0.0
H310 H 1.00201 0.66054 0.70454 0.0
H311 H 0.99437 0.64918 0.67661 0.0
H312 H 0.07925 0.81234 0.63733 0.0
H313 H 0.15461 0.82763 0.65457 0.0
H314 H 0.0727 0.7377 0.70664 0.0
C315 C 0.91085 0.67036 0.66083 0.0
C316 C 0.89563 0.67134 0.64014 0.0
C317 C 0.92532 0.71005 0.62682 0.0
C318 C 0.97101 0.74548 0.63345 0.0
C319 C 0.98619 0.74231 0.65365 0.0
C320 C 0.9562 0.70643 0.66741 0.0
C321 C 0.98258 0.70713 0.68721 0.0
C322 C 0.96299 0.72076 0.70644 0.0
C323 C 0.98041 0.6589 0.69064 0.0
C324 C 0.03272 0.74641 0.68183 0.0
C325 C 0.03436 0.7669 0.66253 0.0
C326 C 0.07817 0.79809 0.65286 0.0
C327 C 0.12099 0.80704 0.6628 0.0
C328 C 0.11946 0.78501 0.68221 0.0
C329 C 0.07484 0.75636 0.69215 0.0
H330 H 0.69302 0.1909 0.98096 0.0
H331 H 0.79935 0.34013 0.989 0.0
H332 H 0.73644 0.35744 0.00028 0.0
H333 H 0.59911 0.20548 0.96182 0.0
H334 H 0.55222 0.15681 0.97643 0.0
H335 H 0.6053 0.15511 0.96928 0.0
H336 H 0.62059 0.14416 0.00842 0.0
H337 H 0.56676 0.14436 0.01559 0.0
H338 H 0.62267 0.18585 0.02783 0.0
H339 H 0.662 0.36008 0.00648 0.0
H340 H 0.58179 0.34505 0.01669 0.0
H341 H 0.52477 0.19302 0.00893 0.0
C342 C 0.70289 0.22689 0.9856 0.0
C343 C 0.75058 0.26425 0.9843 0.0
C344 C 0.76283 0.31107 0.99028 0.0
C345 C 0.72739 0.32131 -0.00359 0.0
C346 C 0.68034 0.28403 -0.00312 0.0
C347 C 0.66815 0.23748 0.99243 0.0
C348 C 0.61512 0.20381 -0.00472 0.0
C349 C 0.59157 0.17884 0.97446 0.0
C350 C 0.60574 0.16741 0.01283 0.0
C351 C 0.59947 0.23891 0.00173 0.0
C352 C 0.63754 0.28512 0.00197 0.0
C353 C 0.63193 0.32406 0.00662 0.0
C354 C 0.58636 0.31531 0.01211 0.0
C355 C 0.54775 0.26806 0.01331 0.0
C356 C 0.55404 0.22943 0.00784 0.0
H357 H 0.31475 0.56588 0.36851 0.0
H358 H 0.23877 0.48044 0.3141 0.0
H359 H 0.30291 0.53864 0.29081 0.0
H360 H 0.3513 0.67766 0.34447 0.0
H361 H 0.40852 0.70812 0.35741 0.0
H362 H 0.35895 0.65781 0.36994 0.0
H363 H 0.40896 0.61568 0.37308 0.0
H364 H 0.45878 0.66594 0.36058 0.0
H365 H 0.43567 0.60693 0.34978 0.0
H366 H 0.3736 0.6057 0.27375 0.0
H367 H 0.44438 0.68079 0.2631 0.0
H368 H 0.4725 0.72567 0.32853 0.0
C369 C 0.31201 0.55914 0.35171 0.0
C370 C 0.27231 0.51866 0.34299 0.0
C371 C 0.26916 0.51132 0.32097 0.0
C372 C 0.30539 0.544 0.3077 0.0
C373 C 0.34395 0.58381 0.31679 0.0
C374 C 0.34736 0.59177 0.33825 0.0
C375 C 0.39093 0.63897 0.34384 0.0
C376 C 0.37654 0.67262 0.35454 0.0
C377 C 0.42564 0.6314 0.35764 0.0
C378 C 0.41137 0.65652 0.32211 0.0
C379 C 0.38398 0.62374 0.30681 0.0
C380 C 0.39537 0.63164 0.28555 0.0
C381 C 0.43569 0.67441 0.2797 0.0
C382 C 0.46377 0.70898 0.29503 0.0
C383 C 0.45155 0.69985 0.31652 0.0
H384 H 0.73679 0.3044 0.70624 0.0
H385 H 0.75998 0.23684 0.65198 0.0
H386 H 0.76546 0.30143 0.62914 0.0
H387 H 0.66175 0.34142 0.67867 0.0
H388 H 0.68448 0.39624 0.69333 0.0
H389 H 0.68248 0.34483 0.70531 0.0
H390 H 0.7731 0.39477 0.71323 0.0
H391 H 0.77548 0.44622 0.70114 0.0
H392 H 0.81439 0.42503 0.69197 0.0
H393 H 0.77359 0.37451 0.61313 0.0
H394 H 0.77558 0.44844 0.60312 0.0
H395 H 0.74113 0.46697 0.66741 0.0
C396 C 0.74295 0.3033 0.68952 0.0
C397 C 0.7484 0.26624 0.68071 0.0
C398 C 0.75567 0.26512 0.65884 0.0
C399 C 0.75897 0.3016 0.64586 0.0
C400 C 0.75386 0.33795 0.65507 0.0
C401 C 0.74517 0.33872 0.67631 0.0
C402 C 0.73972 0.38123 0.68207 0.0
C403 C 0.6891 0.36494 0.69033 0.0
C404 C 0.77797 0.41373 0.69805 0.0
C405 C 0.74792 0.40502 0.66077 0.0
C406 C 0.75628 0.3794 0.64554 0.0
C407 C 0.76655 0.3946 0.62482 0.0
C408 C 0.76782 0.43688 0.61938 0.0
C409 C 0.75835 0.46341 0.63453 0.0
C410 C 0.74819 0.44724 0.65553 0.0
H411 H 0.287 0.75446 0.9937 0.0
H412 H 0.3435 0.80422 0.9309 0.0
H413 H 0.41673 0.80303 0.94012 0.0
H414 H 0.40091 0.82314 0.02104 0.0
H415 H 0.38745 0.77648 0.03991 0.0
H416 H 0.33983 0.78256 0.02847 0.0
H417 H 0.29902 0.69453 0.01602 0.0
H418 H 0.34686 0.68841 0.02716 0.0
H419 H 0.33189 0.67524 -0.0003 0.0
H420 H 0.48105 0.7901 0.95505 0.0
H421 H 0.53698 0.7766 0.97682 0.0
H422 H 0.44075 0.74018 0.03009 0.0
C423 C 0.31508 0.76574 0.98203 0.0
C424 C 0.30952 0.77923 0.96161 0.0
C425 C 0.34698 0.79368 0.94669 0.0
C426 C 0.38869 0.79298 0.9517 0.0
C427 C 0.39262 0.77828 0.97177 0.0
C428 C 0.35729 0.76577 0.98684 0.0
C429 C 0.3707 0.75163 0.00727 0.0
C430 C 0.375 0.78549 0.02523 0.0
C431 C 0.33499 0.69935 0.01285 0.0
C432 C 0.41886 0.75807 0.00126 0.0
C433 C 0.43063 0.77277 0.98063 0.0
C434 C 0.47259 0.77912 0.97132 0.0
C435 C 0.50389 0.77112 0.98366 0.0
C436 C 0.49303 0.75784 0.005 0.0
C437 C 0.44996 0.75094 0.01381 0.0
H438 H 0.56622 0.32134 0.28866 0.0
H439 H 0.47318 0.25798 0.34259 0.0
H440 H 0.52807 0.32765 0.36441 0.0
H441 H 0.67245 0.36021 0.31698 0.0
H442 H 0.70684 0.41391 0.30183 0.0
H443 H 0.65707 0.36285 0.28992 0.0
H444 H 0.61932 0.41457 0.28015 0.0
H445 H 0.66901 0.46586 0.29211 0.0
H446 H 0.60888 0.44723 0.30049 0.0
H447 H 0.59389 0.402 0.38024 0.0
H448 H 0.67079 0.47105 0.39069 0.0
H449 H 0.72426 0.48215 0.32694 0.0
C450 C 0.5571 0.32279 0.30497 0.0
C451 C 0.51557 0.28521 0.31407 0.0
C452 C 0.50501 0.28694 0.33553 0.0
C453 C 0.53568 0.32635 0.3479 0.0
C454 C 0.57679 0.36286 0.3385 0.0
C455 C 0.5879 0.36108 0.31761 0.0
C456 C 0.6368 0.402 0.31195 0.0
C457 C 0.67025 0.38363 0.30476 0.0
C458 C 0.63327 0.43433 0.29518 0.0
C459 C 0.65179 0.42688 0.33301 0.0
C460 C 0.6162 0.40432 0.34796 0.0
C461 C 0.62197 0.42007 0.36869 0.0
C462 C 0.66574 0.45932 0.37444 0.0
C463 C 0.70333 0.48165 0.35959 0.0
C464 C 0.69601 0.46567 0.33856 0.0
H465 H 0.19874 0.51044 0.64881 0.0
H466 H 0.35068 0.56698 0.64036 0.0
H467 H 0.36576 0.64814 0.64874 0.0
H468 H 0.19077 0.60689 0.62769 0.0
H469 H 0.14908 0.60537 0.64701 0.0
H470 H 0.14982 0.55155 0.64051 0.0
H471 H 0.16312 0.53901 0.67973 0.0
H472 H 0.16065 0.59178 0.68641 0.0
H473 H 0.21168 0.58679 0.69399 0.0
H474 H 0.36304 0.72332 0.65501 0.0
H475 H 0.34562 0.78518 0.66798 0.0
H476 H 0.19639 0.67805 0.67533 0.0
C477 C 0.23518 0.53989 0.64929 0.0
C478 C 0.27374 0.53313 0.64427 0.0
C479 C 0.321 0.57196 0.64465 0.0
C480 C 0.32974 0.61804 0.64904 0.0
C481 C 0.29075 0.624 0.65329 0.0
C482 C 0.24459 0.58579 0.65419 0.0
C483 C 0.20938 0.60144 0.66039 0.0
C484 C 0.1726 0.59066 0.64284 0.0
C485 C 0.18478 0.57841 0.68138 0.0
C486 C 0.24292 0.65447 0.66271 0.0
C487 C 0.2895 0.66695 0.65798 0.0
C488 C 0.32679 0.71403 0.65889 0.0
C489 C 0.31653 0.74894 0.66597 0.0
C490 C 0.26972 0.73597 0.67242 0.0
C491 C 0.23233 0.68858 0.67022 0.0
H492 H 0.42684 0.26305 0.11529 0.0
H493 H 0.38328 0.11433 0.10511 0.0
H494 H 0.36308 0.09753 0.14273 0.0
H495 H 0.48687 0.2755 0.16036 0.0
H496 H 0.47087 0.31455 0.17386 0.0
H497 H 0.47119 0.31323 0.14558 0.0
H498 H 0.38295 0.29328 0.14477 0.0
H499 H 0.38246 0.29508 0.17316 0.0
H500 H 0.33848 0.24274 0.15939 0.0
H501 H 0.36184 0.09951 0.18178 0.0
H502 H 0.37761 0.12019 0.21949 0.0
H503 H 0.42214 0.26757 0.20441 0.0
C504 C 0.41117 0.22667 0.12089 0.0
C505 C 0.40632 0.18994 0.1074 0.0
C506 C 0.3872 0.14295 0.11529 0.0
C507 C 0.37537 0.13299 0.13659 0.0
C508 C 0.38266 0.17037 0.14977 0.0
C509 C 0.3996 0.21622 0.14222 0.0
C510 C 0.41009 0.25102 0.16009 0.0
C511 C 0.46287 0.29088 0.15995 0.0
C512 C 0.37647 0.27174 0.1593 0.0
C513 C 0.39888 0.21805 0.17877 0.0
C514 C 0.38221 0.17153 0.17253 0.0
C515 C 0.37378 0.13562 0.18694 0.0
C516 C 0.38308 0.14773 0.20832 0.0
C517 C 0.40101 0.19544 0.21498 0.0
C518 C 0.40799 0.23062 0.19996 0.0
H519 H 0.27259 0.43925 0.45536 0.0
H520 H 0.12151 0.37672 0.44125 0.0
H521 H 0.10232 0.35121 0.4784 0.0
H522 H 0.26094 0.3498 0.49489 0.0
H523 H 0.30793 0.39462 0.51094 0.0
H524 H 0.30933 0.40198 0.48275 0.0
H525 H 0.31478 0.48415 0.48751 0.0
H526 H 0.31397 0.47722 0.5156 0.0
H527 H 0.27024 0.48809 0.50314 0.0
H528 H 0.10047 0.34256 0.5175 0.0
H529 H 0.11611 0.35515 0.5557 0.0
H530 H 0.2681 0.42073 0.5441 0.0
C531 C 0.23531 0.41958 0.4599 0.0
C532 C 0.19851 0.41003 0.44533 0.0
C533 C 0.15033 0.38444 0.45209 0.0
C534 C 0.13909 0.36949 0.47312 0.0
C535 C 0.17639 0.37989 0.48706 0.0
C536 C 0.22354 0.40431 0.48069 0.0
C537 C 0.25729 0.41518 0.49904 0.0
C538 C 0.28553 0.3888 0.49676 0.0
C539 C 0.29101 0.46935 0.50146 0.0
C540 C 0.22184 0.39495 0.51698 0.0
C541 C 0.1753 0.37396 0.50968 0.0
C542 C 0.13658 0.35775 0.52337 0.0
C543 C 0.14577 0.36495 0.545 0.0
C544 C 0.19319 0.38793 0.55267 0.0
C545 C 0.23152 0.40146 0.53858 0.0
H546 H 0.74835 0.16028 0.8779 0.0
H547 H 0.89838 0.26077 0.88958 0.0
H548 H 0.91481 0.26206 0.85155 0.0
H549 H 0.76618 0.09583 0.83293 0.0
H550 H 0.71465 0.08998 0.81929 0.0
H551 H 0.71599 0.09037 0.84769 0.0
H552 H 0.69902 0.16061 0.84814 0.0
H553 H 0.69766 0.16045 0.81985 0.0
H554 H 0.73796 0.21434 0.83377 0.0
H555 H 0.91303 0.26186 0.8126 0.0
H556 H 0.8932 0.2617 0.77514 0.0
H557 H 0.74438 0.16077 0.78842 0.0
C558 C 0.78495 0.18174 0.8726 0.0
C559 C 0.82214 0.21035 0.88679 0.0
C560 C 0.86932 0.23841 0.87907 0.0
C561 C 0.87904 0.23916 0.8575 0.0
C562 C 0.8413 0.21132 0.84394 0.0
C563 C 0.79522 0.18293 0.85118 0.0
C564 C 0.76022 0.16043 0.83317 0.0
C565 C 0.73796 0.10591 0.83328 0.0
C566 C 0.72147 0.17486 0.83377 0.0
C567 C 0.79349 0.18252 0.8146 0.0
C568 C 0.84025 0.21102 0.8212 0.0
C569 C 0.87681 0.23892 0.8072 0.0
C570 C 0.86515 0.23876 0.786 0.0
C571 C 0.81734 0.21095 0.77901 0.0
C572 C 0.78132 0.18138 0.79335 0.0
H573 H 0.56358 0.83995 0.11577 0.0
H574 H 0.649 0.77351 0.10266 0.0
H575 H 0.67979 0.79087 0.13914 0.0
H576 H 0.64873 0.93315 0.15306 0.0
H577 H 0.6004 0.92733 0.16938 0.0
H578 H 0.59202 0.91766 0.14135 0.0
H579 H 0.51882 0.83344 0.14771 0.0
H580 H 0.5264 0.84355 0.17555 0.0
H581 H 0.52547 0.79193 0.16428 0.0
H582 H 0.6918 0.80469 0.17765 0.0
H583 H 0.67441 0.80213 0.2156 0.0
H584 H 0.58269 0.86108 0.20355 0.0
C585 C 0.58944 0.82969 0.12035 0.0
C586 C 0.60398 0.80545 0.10629 0.0
C587 C 0.63728 0.79207 0.11314 0.0
C588 C 0.65547 0.80241 0.13373 0.0
C589 C 0.6404 0.82659 0.14712 0.0
C590 C 0.60785 0.83974 0.1407 0.0
C591 C 0.59216 0.85933 0.15872 0.0
C592 C 0.60937 0.91253 0.15543 0.0
C593 C 0.53752 0.8303 0.16175 0.0
C594 C 0.61848 0.85218 0.17672 0.0
C595 C 0.64754 0.8349 0.16956 0.0
C596 C 0.67034 0.81943 0.1834 0.0
C597 C 0.6606 0.81844 0.20493 0.0
C598 C 0.62821 0.83255 0.21229 0.0
C599 C 0.60914 0.85218 0.19824 0.0
H600 H 0.82784 0.55731 0.53599 0.0
H601 H 0.7927 0.66558 0.55392 0.0
H602 H 0.80909 0.69645 0.51718 0.0
H603 H 0.92379 0.62789 0.49951 0.0
H604 H 0.90625 0.57852 0.48166 0.0
H605 H 0.89498 0.5677 0.50949 0.0
H606 H 0.80463 0.51095 0.50243 0.0
H607 H 0.81607 0.5204 0.47466 0.0
H608 H 0.77237 0.53192 0.48678 0.0
H609 H 0.82296 0.71004 0.47789 0.0
H610 H 0.82183 0.69833 0.43936 0.0
H611 H 0.85281 0.58419 0.44855 0.0
C612 C 0.82413 0.58801 0.53238 0.0
C613 C 0.80958 0.60952 0.54784 0.0
C614 C 0.80382 0.64863 0.54226 0.0
C615 C 0.81367 0.66669 0.52156 0.0
C616 C 0.82935 0.64522 0.50688 0.0
C617 C 0.83392 0.60633 0.51208 0.0
C618 C 0.84681 0.58639 0.4933 0.0
C619 C 0.89589 0.59041 0.49617 0.0
C620 C 0.80765 0.53439 0.48904 0.0
C621 C 0.84825 0.61972 0.47637 0.0
C622 C 0.83859 0.6538 0.4845 0.0
C623 C 0.83172 0.68439 0.47144 0.0
C624 C 0.83165 0.67788 0.44961 0.0
C625 C 0.83866 0.64132 0.44119 0.0
C626 C 0.84969 0.6138 0.45466 0.0
H627 H 0.24189 0.86332 0.86444 0.0
H628 H 0.11717 0.72953 0.88225 0.0
H629 H 0.09293 0.71415 0.84486 0.0
H630 H 0.18829 0.88998 0.81629 0.0
H631 H 0.2443 0.91306 0.80246 0.0
H632 H 0.24376 0.92015 0.83063 0.0
H633 H 0.29501 0.87969 0.83496 0.0
H634 H 0.29497 0.87155 0.80701 0.0
H635 H 0.27357 0.82077 0.82431 0.0
H636 H 0.09283 0.70474 0.80607 0.0
H637 H 0.11426 0.70282 0.76908 0.0
H638 H 0.24124 0.84187 0.77646 0.0
C639 C 0.20847 0.83159 0.86059 0.0
C640 C 0.18141 0.7975 0.87618 0.0
C641 C 0.13814 0.75631 0.87056 0.0
C642 C 0.12417 0.74733 0.84935 0.0
C643 C 0.15355 0.78026 0.83419 0.0
C644 C 0.19446 0.82203 0.83961 0.0
C645 C 0.22393 0.84798 0.82043 0.0
C646 C 0.22511 0.89561 0.81726 0.0
C647 C 0.27482 0.85536 0.82177 0.0
C648 C 0.195 0.81265 0.80343 0.0
C649 C 0.15393 0.77448 0.81161 0.0
C650 C 0.12421 0.73494 0.79941 0.0
C651 C 0.13707 0.73403 0.77844 0.0
C652 C 0.17964 0.77223 0.76988 0.0
C653 C 0.20823 0.81249 0.78246 0.0
H654 H 0.49359 0.59523 0.03837 0.0
H655 H 0.63922 0.65542 0.06064 0.0
H656 H 0.62499 0.57378 0.06719 0.0
H657 H 0.43717 0.49582 0.07375 0.0
H658 H 0.39718 0.45461 0.05432 0.0
H659 H 0.41806 0.51746 0.0518 0.0
H660 H 0.45048 0.51768 0.01446 0.0
H661 H 0.42918 0.45473 0.01675 0.0
H662 H 0.49114 0.49538 0.01077 0.0
H663 H 0.59363 0.48668 0.07311 0.0
H664 H 0.55313 0.39946 0.07287 0.0
H665 H 0.42848 0.39313 0.04382 0.0
C666 C 0.5225 0.59116 0.04462 0.0
C667 C 0.56752 0.63168 0.04922 0.0
C668 C 0.60463 0.62496 0.05702 0.0
C669 C 0.59668 0.57874 0.0609 0.0
C670 C 0.55168 0.53963 0.0565 0.0
C671 C 0.51551 0.54525 0.04809 0.0
C672 C 0.47134 0.49707 0.0437 0.0
C673 C 0.4284 0.4909 0.05667 0.0
C674 C 0.45987 0.49086 0.02001 0.0
C675 C 0.48809 0.46328 0.05121 0.0
C676 C 0.53434 0.48891 0.05881 0.0
C677 C 0.55768 0.46634 0.06699 0.0
C678 C 0.53402 0.41645 0.06682 0.0
C679 C 0.48743 0.38888 0.05821 0.0
C680 C 0.46385 0.41286 0.0506 0.0
H681 H 0.97568 0.58938 0.38424 0.0
H682 H 0.84293 0.45527 0.37759 0.0
H683 H 0.88746 0.41195 0.3763 0.0
H684 H 0.04929 0.55995 0.35083 0.0
H685 H 0.1009 0.58878 0.3677 0.0
H686 H 0.05894 0.60999 0.36689 0.0
H687 H 0.04805 0.59958 0.40733 0.0
H688 H 0.08977 0.57808 0.40824 0.0
H689 H 0.03053 0.5423 0.41892 0.0
H690 H 0.94609 0.3822 0.37583 0.0
H691 H 0.01521 0.36892 0.37728 0.0
H692 H 0.10975 0.52094 0.38623 0.0
C693 C 0.95622 0.55101 0.3823 0.0
C694 C 0.90577 0.52575 0.38095 0.0
C695 C 0.88153 0.4754 0.37876 0.0
C696 C 0.9065 0.45037 0.37795 0.0
C697 C 0.95601 0.47594 0.37965 0.0
C698 C 0.98071 0.5251 0.3819 0.0
C699 C 0.03382 0.54335 0.3844 0.0
C700 C 0.06241 0.57754 0.36638 0.0
C701 C 0.05158 0.56724 0.40601 0.0
C702 C 0.0349 0.49697 0.38297 0.0
C703 C 0.98966 0.4585 0.38013 0.0
C704 C 0.98175 0.41207 0.37815 0.0
C705 C 0.02117 0.40478 0.37903 0.0
C706 C 0.06789 0.44364 0.38203 0.0
C707 C 0.07448 0.49025 0.38409 0.0
H708 H 0.59349 0.10929 0.71445 0.0
H709 H 0.64992 0.02154 0.73783 0.0
H710 H 0.56727 0.95429 0.74262 0.0
H711 H 0.48811 0.06329 0.74733 0.0
H712 H 0.45011 0.06388 0.72672 0.0
H713 H 0.5133 0.10606 0.7262 0.0
H714 H 0.51959 0.07747 0.68886 0.0
H715 H 0.45638 0.03559 0.68917 0.0
H716 H 0.49804 0.01498 0.68435 0.0
H717 H 0.47939 0.89813 0.74595 0.0
H718 H 0.39242 0.85091 0.74245 0.0
H719 H 0.39048 0.97166 0.7137 0.0
C720 C 0.58835 0.07594 0.72072 0.0
C721 C 0.62813 0.07072 0.7261 0.0
C722 C 0.62006 0.02631 0.73373 0.0
C723 C 0.57324 0.9881 0.73659 0.0
C724 C 0.53485 0.99457 0.73134 0.0
C725 C 0.54183 0.03702 0.72313 0.0
C726 C 0.49432 0.03329 0.7173 0.0
C727 C 0.48598 0.06875 0.73016 0.0
C728 C 0.49195 0.04077 0.69351 0.0
C729 C 0.45934 0.98207 0.72366 0.0
C730 C 0.48379 0.96096 0.73205 0.0
C731 C 0.46001 0.91419 0.73924 0.0
C732 C 0.41028 0.88766 0.73719 0.0
C733 C 0.38408 0.9072 0.72767 0.0
C734 C 0.4091 0.95562 0.72119 0.0
H735 H 0.60191 0.49867 0.63208 0.0
H736 H 0.64487 0.58618 0.57585 0.0
H737 H 0.56009 0.55998 0.56827 0.0
H738 H 0.49421 0.4005 0.61189 0.0
H739 H 0.45982 0.39009 0.63567 0.0
H740 H 0.52372 0.41595 0.63711 0.0
H741 H 0.53091 0.48844 0.65757 0.0
H742 H 0.46696 0.46234 0.65656 0.0
H743 H 0.50509 0.52181 0.64664 0.0
H744 H 0.47144 0.52273 0.5661 0.0
H745 H 0.38465 0.48534 0.57158 0.0
H746 H 0.39636 0.42219 0.62986 0.0
C747 C 0.59328 0.51284 0.61839 0.0
C748 C 0.62982 0.54502 0.60463 0.0
C749 C 0.61742 0.56224 0.5867 0.0
C750 C 0.56936 0.54716 0.58221 0.0
C751 C 0.53403 0.51488 0.59586 0.0
C752 C 0.5453 0.49852 0.61381 0.0
C753 C 0.50022 0.46501 0.62611 0.0
C754 C 0.49415 0.41491 0.62779 0.0
C755 C 0.50084 0.48564 0.64802 0.0
C756 C 0.46179 0.46474 0.61215 0.0
C757 C 0.4824 0.49354 0.59472 0.0
C758 C 0.45498 0.50015 0.57968 0.0
C759 C 0.40556 0.47844 0.58287 0.0
C760 C 0.38344 0.45022 0.60096 0.0
C761 C 0.41193 0.44242 0.6156 0.0
H762 H 0.13437 0.60516 0.94106 0.0
H763 H 0.03645 0.65984 0.94565 0.0
H764 H 0.96838 0.57733 0.94638 0.0
H765 H 0.06218 0.50339 0.90835 0.0
H766 H 0.07748 0.46383 0.92179 0.0
H767 H 0.11907 0.52707 0.9214 0.0
H768 H 0.12224 0.52814 0.96214 0.0
H769 H 0.08078 0.46486 0.96266 0.0
H770 H 0.06751 0.50495 0.97699 0.0
H771 H 0.9115 0.49092 0.94496 0.0
H772 H 0.86688 0.40392 0.9446 0.0
H773 H 0.99971 0.40064 0.94334 0.0
C774 C 0.09853 0.59965 0.94218 0.0
C775 C 0.09062 0.63904 0.94312 0.0
C776 C 0.04335 0.63039 0.9449 0.0
C777 C 1.00448 0.58362 0.94527 0.0
C778 C 0.01343 0.54571 0.94422 0.0
C779 C 0.05919 0.55296 0.94302 0.0
C780 C 0.0584 0.50541 0.94279 0.0
C781 C 0.0806 0.49959 0.92236 0.0
C782 C 0.08374 0.50056 0.96231 0.0
C783 C 1.00491 0.4703 0.94363 0.0
C784 C 0.98005 0.49483 0.94431 0.0
C785 C 0.93055 0.47134 0.94457 0.0
C786 C 0.90551 0.42155 0.94423 0.0
C787 C 0.92952 0.39484 0.94386 0.0
C788 C 0.9802 0.41977 0.94366 0.0
H789 H 0.48465 0.89341 0.28845 0.0
H790 H 0.62794 0.97866 0.26348 0.0
H791 H 0.61446 0.04722 0.2595 0.0
H792 H 0.4252 0.93737 0.25712 0.0
H793 H 0.38808 0.93953 0.27783 0.0
H794 H 0.40879 0.89727 0.27925 0.0
H795 H 0.44651 0.9303 0.31574 0.0
H796 H 0.42523 0.97218 0.31461 0.0
H797 H 0.4878 0.99323 0.31873 0.0
H798 H 0.58324 0.10321 0.25537 0.0
H799 H 0.54241 0.14963 0.25646 0.0
H800 H 0.42005 0.03163 0.28706 0.0
C801 C 0.51333 0.92684 0.28242 0.0
C802 C 0.55743 0.93103 0.27623 0.0
C803 C 0.59423 0.97507 0.26848 0.0
C804 C 0.58668 0.01395 0.26604 0.0
C805 C 0.54251 0.00846 0.27192 0.0
C806 C 0.50686 0.9665 0.28049 0.0
C807 C 0.46348 0.97094 0.28631 0.0
C808 C 0.41875 0.93408 0.2744 0.0
C809 C 0.45527 0.96639 0.31027 0.0
C810 C 0.47959 0.02142 0.27888 0.0
C811 C 0.52525 0.04202 0.27055 0.0
C812 C 0.54786 0.08774 0.26217 0.0
C813 C 0.52403 0.1138 0.26283 0.0
C814 C 0.47791 0.09467 0.27201 0.0
C815 C 0.45513 0.04738 0.27992 0.0
loop_
_geom_bond_atom_site_label_1
_geom_bond_atom_site_label_2
_geom_bond_distance
_geom_bond_site_symmetry_2
_ccdc_geom_bond_type
Co0 O1 2.216 . S
Co0 O2 2.091 . S
Co0 O4 2.004 . S
Co0 O10 2.021 . S
Co0 O12 2.137 . S
Co0 O13 2.244 . S
O1 Co0 2.216 . S
O1 C8 1.247 . S
O2 Co0 2.091 . S
O2 C8 1.261 . S
C3 O12 1.247 . S
C3 O13 1.272 . S
O4 Co0 2.004 . S
O4 C9 1.259 . S
Co5 O6 2.061 . S
Co5 O11 2.052 . S
Co5 O13 2.135 . S
O6 Co5 2.061 . S
O6 C9 1.235 . S
C7 O10 1.238 . S
C7 O11 1.241 . S
C8 O1 1.247 . S
C8 O2 1.261 . S
C9 O4 1.259 . S
C9 O6 1.235 . S
O10 Co0 2.021 . S
O10 C7 1.238 . S
O11 Co5 2.052 . S
O11 C7 1.241 . S
O12 Co0 2.137 . S
O12 C3 1.247 . S
O13 Co0 2.244 . S
O13 C3 1.272 . S
O13 Co5 2.135 . S
Co14 O15 2.216 . S
Co14 O16 2.091 . S
Co14 O18 2.004 . S
Co14 O24 2.021 . S
Co14 O26 2.137 . S
Co14 O27 2.244 . S
O15 Co14 2.216 . S
O15 C22 1.247 . S
O16 Co14 2.091 . S
O16 C22 1.261 . S
C17 O26 1.247 . S
C17 O27 1.272 . S
O18 Co14 2.004 . S
O18 C23 1.259 . S
Co19 O20 2.061 . S
Co19 O25 2.052 . S
Co19 O27 2.135 . S
O20 Co19 2.061 . S
O20 C23 1.235 . S
C21 O24 1.238 . S
C21 O25 1.241 . S
C22 O15 1.247 . S
C22 O16 1.261 . S
C23 O18 1.259 . S
C23 O20 1.235 . S
O24 Co14 2.021 . S
O24 C21 1.238 . S
O25 Co19 2.052 . S
O25 C21 1.241 . S
O26 Co14 2.137 . S
O26 C17 1.247 . S
O27 Co14 2.244 . S
O27 C17 1.272 . S
O27 Co19 2.135 . S
Co28 O29 2.216 . S
Co28 O30 2.091 . S
Co28 O32 2.004 . S
Co28 O38 2.021 . S
Co28 O40 2.137 . S
Co28 O41 2.244 . S
O29 Co28 2.216 . S
O29 C36 1.247 . S
O30 Co28 2.091 . S
O30 C36 1.261 . S
C31 O40 1.247 . S
C31 O41 1.272 . S
O32 Co28 2.004 . S
O32 C37 1.259 . S
Co33 O34 2.061 . S
Co33 O39 2.052 . S
Co33 O41 2.135 . S
O34 Co33 2.061 . S
O34 C37 1.235 . S
C35 O38 1.238 . S
C35 O39 1.241 . S
C36 O29 1.247 . S
C36 O30 1.261 . S
C37 O32 1.259 . S
C37 O34 1.235 . S
O38 Co28 2.021 . S
O38 C35 1.238 . S
O39 Co33 2.052 . S
O39 C35 1.241 . S
O40 Co28 2.137 . S
O40 C31 1.247 . S
O41 Co28 2.244 . S
O41 C31 1.272 . S
O41 Co33 2.135 . S
Co42 O43 2.216 . S
Co42 O44 2.091 . S
Co42 O46 2.004 . S
Co42 O52 2.021 . S
Co42 O54 2.137 . S
Co42 O55 2.244 . S
O43 Co42 2.216 . S
O43 C50 1.247 . S
O44 Co42 2.091 . S
O44 C50 1.261 . S
C45 O54 1.247 . S
C45 O55 1.272 . S
O46 Co42 2.004 . S
O46 C51 1.259 . S
Co47 O48 2.061 . S
Co47 O53 2.052 . S
Co47 O55 2.135 . S
O48 Co47 2.061 . S
O48 C51 1.235 . S
C49 O52 1.238 . S
C49 O53 1.241 . S
C50 O43 1.247 . S
C50 O44 1.261 . S
C51 O46 1.259 . S
C51 O48 1.235 . S
O52 Co42 2.021 . S
O52 C49 1.238 . S
O53 Co47 2.052 . S
O53 C49 1.241 . S
O54 Co42 2.137 . S
O54 C45 1.247 . S
O55 Co42 2.244 . S
O55 C45 1.272 . S
O55 Co47 2.135 . S
Co56 O57 2.216 . S
Co56 O58 2.091 . S
Co56 O60 2.004 . S
Co56 O66 2.021 . S
Co56 O68 2.137 . S
Co56 O69 2.244 . S
O57 Co56 2.216 . S
O57 C64 1.247 . S
O58 Co56 2.091 . S
O58 C64 1.261 . S
C59 O68 1.247 . S
C59 O69 1.272 . S
O60 Co56 2.004 . S
O60 C65 1.259 . S
Co61 O62 2.061 . S
Co61 O67 2.052 . S
Co61 O69 2.135 . S
O62 Co61 2.061 . S
O62 C65 1.235 . S
C63 O66 1.238 . S
C63 O67 1.241 . S
C64 O57 1.247 . S
C64 O58 1.261 . S
C65 O60 1.259 . S
C65 O62 1.235 . S
O66 Co56 2.021 . S
O66 C63 1.238 . S
O67 Co61 2.052 . S
O67 C63 1.241 . S
O68 Co56 2.137 . S
O68 C59 1.247 . S
O69 Co56 2.244 . S
O69 C59 1.272 . S
O69 Co61 2.135 . S
Co70 O71 2.216 . S
Co70 O72 2.091 . S
Co70 O74 2.004 . S
Co70 O80 2.021 . S
Co70 O82 2.137 . S
Co70 O83 2.244 . S
O71 Co70 2.216 . S
O71 C78 1.247 . S
O72 Co70 2.091 . S
O72 C78 1.261 . S
C73 O82 1.247 . S
C73 O83 1.272 . S
O74 Co70 2.004 . S
O74 C79 1.259 . S
Co75 O76 2.061 . S
Co75 O81 2.052 . S
Co75 O83 2.135 . S
O76 Co75 2.061 . S
O76 C79 1.235 . S
C77 O80 1.238 . S
C77 O81 1.241 . S
C78 O71 1.247 . S
C78 O72 1.261 . S
C79 O74 1.259 . S
C79 O76 1.235 . S
O80 Co70 2.021 . S
O80 C77 1.238 . S
O81 Co75 2.052 . S
O81 C77 1.241 . S
O82 Co70 2.137 . S
O82 C73 1.247 . S
O83 Co70 2.244 . S
O83 C73 1.272 . S
O83 Co75 2.135 . S
Co84 O85 2.216 . S
Co84 O86 2.091 . S
Co84 O88 2.004 . S
Co84 O94 2.021 . S
Co84 O96 2.137 . S
Co84 O97 2.244 . S
O85 Co84 2.216 . S
O85 C92 1.247 . S
O86 Co84 2.091 . S
O86 C92 1.261 . S
C87 O96 1.247 . S
C87 O97 1.272 . S
O88 Co84 2.004 . S
O88 C93 1.259 . S
Co89 O90 2.061 . S
Co89 O95 2.052 . S
Co89 O97 2.135 . S
O90 Co89 2.061 . S
O90 C93 1.235 . S
C91 O94 1.238 . S
C91 O95 1.241 . S
C92 O85 1.247 . S
C92 O86 1.261 . S
C93 O88 1.259 . S
C93 O90 1.235 . S
O94 Co84 2.021 . S
O94 C91 1.238 . S
O95 Co89 2.052 . S
O95 C91 1.241 . S
O96 Co84 2.137 . S
O96 C87 1.247 . S
O97 Co84 2.244 . S
O97 C87 1.272 . S
O97 Co89 2.135 . S
Co98 O99 2.216 . S
Co98 O100 2.091 . S
Co98 O102 2.004 . S
Co98 O108 2.021 . S
Co98 O110 2.137 . S
Co98 O111 2.244 . S
O99 Co98 2.216 . S
O99 C106 1.247 . S
O100 Co98 2.091 . S
O100 C106 1.261 . S
C101 O110 1.247 . S
C101 O111 1.272 . S
O102 Co98 2.004 . S
O102 C107 1.259 . S
Co103 O104 2.061 . S
Co103 O109 2.052 . S
Co103 O111 2.135 . S
O104 Co103 2.061 . S
O104 C107 1.235 . S
C105 O108 1.238 . S
C105 O109 1.241 . S
C106 O99 1.247 . S
C106 O100 1.261 . S
C107 O102 1.259 . S
C107 O104 1.235 . S
O108 Co98 2.021 . S
O108 C105 1.238 . S
O109 Co103 2.052 . S
O109 C105 1.241 . S
O110 Co98 2.137 . S
O110 C101 1.247 . S
O111 Co98 2.244 . S
O111 C101 1.272 . S
O111 Co103 2.135 . S
Co112 O113 2.216 . S
Co112 O114 2.091 . S
Co112 O116 2.004 . S
Co112 O122 2.021 . S
Co112 O124 2.137 . S
Co112 O125 2.244 . S
O113 Co112 2.216 . S
O113 C120 1.247 . S
O114 Co112 2.091 . S
O114 C120 1.261 . S
C115 O124 1.247 . S
C115 O125 1.272 . S
O116 Co112 2.004 . S
O116 C121 1.259 . S
Co117 O118 2.061 . S
Co117 O123 2.052 . S
Co117 O125 2.135 . S
O118 Co117 2.061 . S
O118 C121 1.235 . S
C119 O122 1.238 . S
C119 O123 1.241 . S
C120 O113 1.247 . S
C120 O114 1.261 . S
C121 O116 1.259 . S
C121 O118 1.235 . S
O122 Co112 2.021 . S
O122 C119 1.238 . S
O123 Co117 2.052 . S
O123 C119 1.241 . S
O124 Co112 2.137 . S
O124 C115 1.247 . S
O125 Co112 2.244 . S
O125 C115 1.272 . S
O125 Co117 2.135 . S
Co126 O127 2.216 . S
Co126 O128 2.091 . S
Co126 O130 2.004 . S
Co126 O136 2.021 . S
Co126 O138 2.137 . S
Co126 O139 2.244 . S
O127 Co126 2.216 . S
O127 C134 1.247 . S
O128 Co126 2.091 . S
O128 C134 1.261 . S
C129 O138 1.247 . S
C129 O139 1.272 . S
O130 Co126 2.004 . S
O130 C135 1.259 . S
Co131 O132 2.061 . S
Co131 O137 2.052 . S
Co131 O139 2.135 . S
O132 Co131 2.061 . S
O132 C135 1.235 . S
C133 O136 1.238 . S
C133 O137 1.241 . S
C134 O127 1.247 . S
C134 O128 1.261 . S
C135 O130 1.259 . S
C135 O132 1.235 . S
O136 Co126 2.021 . S
O136 C133 1.238 . S
O137 Co131 2.052 . S
O137 C133 1.241 . S
O138 Co126 2.137 . S
O138 C129 1.247 . S
O139 Co126 2.244 . S
O139 C129 1.272 . S
O139 Co131 2.135 . S
Co140 O141 2.216 . S
Co140 O142 2.091 . S
Co140 O144 2.004 . S
Co140 O150 2.021 . S
Co140 O152 2.137 . S
Co140 O153 2.244 . S
O141 Co140 2.216 . S
O141 C148 1.247 . S
O142 Co140 2.091 . S
O142 C148 1.261 . S
C143 O152 1.247 . S
C143 O153 1.272 . S
O144 Co140 2.004 . S
O144 C149 1.259 . S
Co145 O146 2.061 . S
Co145 O151 2.052 . S
Co145 O153 2.135 . S
O146 Co145 2.061 . S
O146 C149 1.235 . S
C147 O150 1.238 . S
C147 O151 1.241 . S
C148 O141 1.247 . S
C148 O142 1.261 . S
C149 O144 1.259 . S
C149 O146 1.235 . S
O150 Co140 2.021 . S
O150 C147 1.238 . S
O151 Co145 2.052 . S
O151 C147 1.241 . S
O152 Co140 2.137 . S
O152 C143 1.247 . S
O153 Co140 2.244 . S
O153 C143 1.272 . S
O153 Co145 2.135 . S
Co154 O155 2.216 . S
Co154 O156 2.091 . S
Co154 O158 2.004 . S
Co154 O164 2.021 . S
Co154 O166 2.137 . S
Co154 O167 2.244 . S
O155 Co154 2.216 . S
O155 C162 1.247 . S
O156 Co154 2.091 . S
O156 C162 1.261 . S
C157 O166 1.247 . S
C157 O167 1.272 . S
O158 Co154 2.004 . S
O158 C163 1.259 . S
Co159 O160 2.061 . S
Co159 O165 2.052 . S
Co159 O167 2.135 . S
O160 Co159 2.061 . S
O160 C163 1.235 . S
C161 O164 1.238 . S
C161 O165 1.241 . S
C162 O155 1.247 . S
C162 O156 1.261 . S
C163 O158 1.259 . S
C163 O160 1.235 . S
O164 Co154 2.021 . S
O164 C161 1.238 . S
O165 Co159 2.052 . S
O165 C161 1.241 . S
O166 Co154 2.137 . S
O166 C157 1.247 . S
O167 Co154 2.244 . S
O167 C157 1.272 . S
O167 Co159 2.135 . S
H168 C180 0.930 1_554 S
H169 C182 0.930 . S
H170 C183 0.930 . S
H171 C187 0.959 . S
H172 C187 0.959 . S
H173 C187 0.961 . S
H174 C188 0.960 . S
H175 C188 0.961 . S
H176 C188 0.959 . S
H177 C191 0.929 . S
H178 C192 0.934 . S
H179 C194 0.930 . S
C180 H168 0.930 1_556 S
C180 C181 1.399 . S
C180 C185 1.399 1_556 S
C181 C180 1.399 . S
C181 C182 1.376 . S
C182 H169 0.930 . S
C182 C181 1.376 . S
C182 C183 1.388 . S
C183 H170 0.930 . S
C183 C182 1.388 . S
C183 C184 1.390 . S
C184 C183 1.390 . S
C184 C185 1.394 1_556 S
C184 C190 1.465 1_565 S
C185 C180 1.399 1_554 S
C185 C184 1.394 1_554 S
C185 C186 1.516 . S
C186 C185 1.516 . S
C186 C187 1.502 . S
C186 C188 1.561 . S
C186 C189 1.526 1_565 S
C187 H171 0.959 . S
C187 H172 0.959 . S
C187 H173 0.961 . S
C187 C186 1.502 . S
C188 H174 0.960 . S
C188 H175 0.961 . S
C188 H176 0.959 . S
C188 C186 1.561 . S
C189 C186 1.526 1_545 S
C189 C190 1.396 1_554 S
C189 C194 1.390 . S
C190 C184 1.465 1_545 S
C190 C189 1.396 1_556 S
C190 C191 1.399 . S
C191 H177 0.929 . S
C191 C190 1.399 . S
C191 C192 1.390 . S
C192 H178 0.934 . S
C192 C191 1.390 . S
C192 C193 1.382 1_556 S
C193 C192 1.382 1_554 S
C193 C194 1.387 . S
C194 H179 0.930 . S
C194 C189 1.390 . S
C194 C193 1.387 . S
H195 C207 0.930 . S
H196 C209 0.930 . S
H197 C210 0.930 . S
H198 C214 0.959 . S
H199 C214 0.959 . S
H200 C214 0.961 . S
H201 C215 0.960 . S
H202 C215 0.961 . S
H203 C215 0.959 . S
H204 C218 0.929 . S
H205 C219 0.931 . S
H206 C221 0.930 . S
C207 H195 0.930 . S
C207 C208 1.399 . S
C207 C212 1.399 . S
C208 C207 1.399 . S
C208 C209 1.376 . S
C209 H196 0.930 . S
C209 C208 1.376 . S
C209 C210 1.388 . S
C210 H197 0.930 . S
C210 C209 1.388 . S
C210 C211 1.390 . S
C211 C210 1.390 . S
C211 C212 1.394 . S
C211 C217 1.465 . S
C212 C207 1.399 . S
C212 C211 1.394 . S
C212 C213 1.516 . S
C213 C212 1.516 . S
C213 C214 1.502 . S
C213 C215 1.561 . S
C213 C216 1.526 . S
C214 H198 0.959 . S
C214 H199 0.959 . S
C214 H200 0.961 . S
C214 C213 1.502 . S
C215 H201 0.960 . S
C215 H202 0.961 . S
C215 H203 0.959 . S
C215 C213 1.561 . S
C216 C213 1.526 . S
C216 C217 1.396 . S
C216 C221 1.390 . S
C217 C211 1.465 . S
C217 C216 1.396 . S
C217 C218 1.399 . S
C218 H204 0.929 . S
C218 C217 1.399 . S
C218 C219 1.385 . S
C219 H205 0.931 . S
C219 C218 1.385 . S
C219 C220 1.389 . S
C220 C219 1.389 . S
C220 C221 1.387 . S
C221 H206 0.930 . S
C221 C216 1.390 . S
C221 C220 1.387 . S
H222 C234 0.930 . S
H223 C236 0.930 . S
H224 C237 0.930 . S
H225 C241 0.959 . S
H226 C241 0.959 . S
H227 C241 0.961 . S
H228 C242 0.960 . S
H229 C242 0.961 . S
H230 C242 0.959 . S
H231 C245 0.929 . S
H232 C246 0.931 . S
H233 C248 0.930 . S
C234 H222 0.930 . S
C234 C235 1.399 . S
C234 C239 1.399 . S
C235 C234 1.399 . S
C235 C236 1.376 . S
C236 H223 0.930 . S
C236 C235 1.376 . S
C236 C237 1.388 . S
C237 H224 0.930 . S
C237 C236 1.388 . S
C237 C238 1.390 . S
C238 C237 1.390 . S
C238 C239 1.394 . S
C238 C244 1.465 1_655 S
C239 C234 1.399 . S
C239 C238 1.394 . S
C239 C240 1.516 . S
C240 C239 1.516 . S
C240 C241 1.502 . S
C240 C242 1.561 . S
C240 C243 1.526 1_655 S
C241 H225 0.959 . S
C241 H226 0.959 . S
C241 H227 0.961 . S
C241 C240 1.502 . S
C242 H228 0.960 . S
C242 H229 0.961 . S
C242 H230 0.959 . S
C242 C240 1.561 . S
C243 C240 1.526 1_455 S
C243 C244 1.396 . S
C243 C248 1.390 . S
C244 C238 1.465 1_455 S
C244 C243 1.396 . S
C244 C245 1.399 . S
C245 H231 0.929 . S
C245 C244 1.399 . S
C245 C246 1.385 . S
C246 H232 0.931 . S
C246 C245 1.385 . S
C246 C247 1.389 . S
C247 C246 1.389 . S
C247 C248 1.387 . S
C248 H233 0.930 . S
C248 C243 1.390 . S
C248 C247 1.387 . S
H249 C261 0.930 . S
H250 C263 0.930 1_556 S
H251 C264 0.930 . S
H252 C268 0.959 . S
H253 C268 0.959 . S
H254 C268 0.961 . S
H255 C269 0.960 . S
H256 C269 0.961 . S
H257 C269 0.959 . S
H258 C272 0.929 . S
H259 C273 0.931 . S
H260 C275 0.930 1_554 S
C261 H249 0.930 . S
C261 C262 1.399 . S
C261 C266 1.399 . S
C262 C261 1.399 . S
C262 C263 1.376 . S
C263 H250 0.930 1_554 S
C263 C262 1.376 . S
C263 C264 1.388 1_554 S
C264 H251 0.930 . S
C264 C263 1.388 1_556 S
C264 C265 1.390 . S
C265 C264 1.390 . S
C265 C266 1.394 1_556 S
C265 C271 1.465 1_565 S
C266 C261 1.399 . S
C266 C265 1.394 1_554 S
C266 C267 1.516 1_565 S
C267 C266 1.516 1_545 S
C267 C268 1.502 . S
C267 C269 1.561 . S
C267 C270 1.526 . S
C268 H252 0.959 . S
C268 H253 0.959 . S
C268 H254 0.961 . S
C268 C267 1.502 . S
C269 H255 0.960 . S
C269 H256 0.961 . S
C269 H257 0.959 . S
C269 C267 1.561 . S
C270 C267 1.526 . S
C270 C271 1.396 1_554 S
C270 C275 1.390 1_554 S
C271 C265 1.465 1_545 S
C271 C270 1.396 1_556 S
C271 C272 1.399 . S
C272 H258 0.929 . S
C272 C271 1.399 . S
C272 C273 1.385 . S
C273 H259 0.931 . S
C273 C272 1.385 . S
C273 C274 1.389 . S
C274 C273 1.389 . S
C274 C275 1.387 . S
C275 H260 0.930 1_556 S
C275 C270 1.390 1_556 S
C275 C274 1.387 . S
H276 C288 0.930 . S
H277 C290 0.930 . S
H278 C291 0.930 . S
H279 C295 0.959 . S
H280 C295 0.959 . S
H281 C295 0.961 . S
H282 C296 0.960 . S
H283 C296 0.961 . S
H284 C296 0.959 . S
H285 C299 0.929 . S
H286 C300 0.931 . S
H287 C302 0.930 . S
C288 H276 0.930 . S
C288 C289 1.399 . S
C288 C293 1.399 . S
C289 C288 1.399 . S
C289 C290 1.376 . S
C290 H277 0.930 . S
C290 C289 1.376 . S
C290 C291 1.388 . S
C291 H278 0.930 . S
C291 C290 1.388 . S
C291 C292 1.390 . S
C292 C291 1.390 . S
C292 C293 1.394 . S
C292 C298 1.465 . S
C293 C288 1.399 . S
C293 C292 1.394 . S
C293 C294 1.516 . S
C294 C293 1.516 . S
C294 C295 1.502 . S
C294 C296 1.561 . S
C294 C297 1.526 . S
C295 H279 0.959 . S
C295 H280 0.959 . S
C295 H281 0.961 . S
C295 C294 1.502 . S
C296 H282 0.960 . S
C296 H283 0.961 . S
C296 H284 0.959 . S
C296 C294 1.561 . S
C297 C294 1.526 . S
C297 C298 1.396 . S
C297 C302 1.390 . S
C298 C292 1.465 . S
C298 C297 1.396 . S
C298 C299 1.399 . S
C299 H285 0.929 . S
C299 C298 1.399 . S
C299 C300 1.385 . S
C300 H286 0.931 . S
C300 C299 1.385 . S
C300 C301 1.389 . S
C301 C300 1.389 . S
C301 C302 1.387 . S
C302 H287 0.930 . S
C302 C297 1.390 . S
C302 C301 1.387 . S
H303 C315 0.930 . S
H304 C317 0.930 . S
H305 C318 0.930 . S
H306 C322 0.959 . S
H307 C322 0.959 . S
H308 C322 0.961 1_655 S
H309 C323 0.960 . S
H310 C323 0.961 . S
H311 C323 0.959 . S
H312 C326 0.929 . S
H313 C327 0.931 . S
H314 C329 0.930 . S
C315 H303 0.930 . S
C315 C316 1.399 . S
C315 C320 1.399 . S
C316 C315 1.399 . S
C316 C317 1.376 . S
C317 H304 0.930 . S
C317 C316 1.376 . S
C317 C318 1.388 . S
C318 H305 0.930 . S
C318 C317 1.388 . S
C318 C319 1.390 . S
C319 C318 1.390 . S
C319 C320 1.394 . S
C319 C325 1.465 1_655 S
C320 C315 1.399 . S
C320 C319 1.394 . S
C320 C321 1.516 . S
C321 C320 1.516 . S
C321 C322 1.502 1_655 S
C321 C323 1.561 . S
C321 C324 1.526 1_655 S
C322 H306 0.959 . S
C322 H307 0.959 . S
C322 H308 0.961 1_455 S
C322 C321 1.502 1_455 S
C323 H309 0.960 . S
C323 H310 0.961 . S
C323 H311 0.959 . S
C323 C321 1.561 . S
C324 C321 1.526 1_455 S
C324 C325 1.396 . S
C324 C329 1.390 . S
C325 C319 1.465 1_455 S
C325 C324 1.396 . S
C325 C326 1.399 . S
C326 H312 0.929 . S
C326 C325 1.399 . S
C326 C327 1.385 . S
C327 H313 0.931 . S
C327 C326 1.385 . S
C327 C328 1.389 . S
C328 C327 1.389 . S
C328 C329 1.387 . S
C329 H314 0.930 . S
C329 C324 1.390 . S
C329 C328 1.387 . S
H330 C342 0.930 . S
H331 C344 0.930 . S
H332 C345 0.930 . S
H333 C349 0.959 . S
H334 C349 0.959 . S
H335 C349 0.961 . S
H336 C350 0.960 . S
H337 C350 0.961 . S
H338 C350 0.959 . S
H339 C353 0.929 . S
H340 C354 0.931 . S
H341 C356 0.930 . S
C342 H330 0.930 . S
C342 C343 1.399 . S
C342 C347 1.399 . S
C343 C342 1.399 . S
C343 C344 1.376 . S
C344 H331 0.930 . S
C344 C343 1.376 . S
C344 C345 1.388 1_556 S
C345 H332 0.930 . S
C345 C344 1.388 1_554 S
C345 C346 1.390 . S
C346 C345 1.390 . S
C346 C347 1.394 1_554 S
C346 C352 1.465 . S
C347 C342 1.399 . S
C347 C346 1.394 1_556 S
C347 C348 1.516 . S
C348 C347 1.516 . S
C348 C349 1.502 . S
C348 C350 1.561 1_556 S
C348 C351 1.526 1_556 S
C349 H333 0.959 . S
C349 H334 0.959 . S
C349 H335 0.961 . S
C349 C348 1.502 . S
C350 H336 0.960 . S
C350 H337 0.961 . S
C350 H338 0.959 . S
C350 C348 1.561 1_554 S
C351 C348 1.526 1_554 S
C351 C352 1.396 . S
C351 C356 1.390 . S
C352 C346 1.465 . S
C352 C351 1.396 . S
C352 C353 1.399 . S
C353 H339 0.929 . S
C353 C352 1.399 . S
C353 C354 1.385 . S
C354 H340 0.931 . S
C354 C353 1.385 . S
C354 C355 1.389 . S
C355 C354 1.389 . S
C355 C356 1.387 . S
C356 H341 0.930 . S
C356 C351 1.390 . S
C356 C355 1.387 . S
H357 C369 0.930 . S
H358 C371 0.930 . S
H359 C372 0.930 . S
H360 C376 0.959 . S
H361 C376 0.959 . S
H362 C376 0.961 . S
H363 C377 0.960 . S
H364 C377 0.961 . S
H365 C377 0.959 . S
H366 C380 0.929 . S
H367 C381 0.931 . S
H368 C383 0.930 . S
C369 H357 0.930 . S
C369 C370 1.399 . S
C369 C374 1.399 . S
C370 C369 1.399 . S
C370 C371 1.376 . S
C371 H358 0.930 . S
C371 C370 1.376 . S
C371 C372 1.388 . S
C372 H359 0.930 . S
C372 C371 1.388 . S
C372 C373 1.390 . S
C373 C372 1.390 . S
C373 C374 1.394 . S
C373 C379 1.465 . S
C374 C369 1.399 . S
C374 C373 1.394 . S
C374 C375 1.516 . S
C375 C374 1.516 . S
C375 C376 1.502 . S
C375 C377 1.561 . S
C375 C378 1.526 . S
C376 H360 0.959 . S
C376 H361 0.959 . S
C376 H362 0.961 . S
C376 C375 1.502 . S
C377 H363 0.960 . S
C377 H364 0.961 . S
C377 H365 0.959 . S
C377 C375 1.561 . S
C378 C375 1.526 . S
C378 C379 1.396 . S
C378 C383 1.390 . S
C379 C373 1.465 . S
C379 C378 1.396 . S
C379 C380 1.399 . S
C380 H366 0.929 . S
C380 C379 1.399 . S
C380 C381 1.385 . S
C381 H367 0.931 . S
C381 C380 1.385 . S
C381 C382 1.389 . S
C382 C381 1.389 . S
C382 C383 1.387 . S
C383 H368 0.930 . S
C383 C378 1.390 . S
C383 C382 1.387 . S
H384 C396 0.930 . S
H385 C398 0.930 . S
H386 C399 0.930 . S
H387 C403 0.959 . S
H388 C403 0.959 . S
H389 C403 0.961 . S
H390 C404 0.960 . S
H391 C404 0.961 . S
H392 C404 0.959 . S
H393 C407 0.929 . S
H394 C408 0.931 . S
H395 C410 0.930 . S
C396 H384 0.930 . S
C396 C397 1.399 . S
C396 C401 1.399 . S
C397 C396 1.399 . S
C397 C398 1.376 . S
C398 H385 0.930 . S
C398 C397 1.376 . S
C398 C399 1.388 . S
C399 H386 0.930 . S
C399 C398 1.388 . S
C399 C400 1.390 . S
C400 C399 1.390 . S
C400 C401 1.394 . S
C400 C406 1.465 . S
C401 C396 1.399 . S
C401 C400 1.394 . S
C401 C402 1.516 . S
C402 C401 1.516 . S
C402 C403 1.502 . S
C402 C404 1.561 . S
C402 C405 1.526 . S
C403 H387 0.959 . S
C403 H388 0.959 . S
C403 H389 0.961 . S
C403 C402 1.502 . S
C404 H390 0.960 . S
C404 H391 0.961 . S
C404 H392 0.959 . S
C404 C402 1.561 . S
C405 C402 1.526 . S
C405 C406 1.396 . S
C405 C410 1.390 . S
C406 C400 1.465 . S
C406 C405 1.396 . S
C406 C407 1.399 . S
C407 H393 0.929 . S
C407 C406 1.399 . S
C407 C408 1.385 . S
C408 H394 0.931 . S
C408 C407 1.385 . S
C408 C409 1.389 . S
C409 C408 1.389 . S
C409 C410 1.387 . S
C410 H395 0.930 . S
C410 C405 1.390 . S
C410 C409 1.387 . S
H411 C423 0.930 . S
H412 C425 0.930 . S
H413 C426 0.930 . S
H414 C430 0.959 . S
H415 C430 0.959 . S
H416 C430 0.961 . S
H417 C431 0.960 . S
H418 C431 0.961 . S
H419 C431 0.959 . S
H420 C434 0.929 . S
H421 C435 0.931 . S
H422 C437 0.930 . S
C423 H411 0.930 . S
C423 C424 1.399 . S
C423 C428 1.399 . S
C424 C423 1.399 . S
C424 C425 1.376 . S
C425 H412 0.930 . S
C425 C424 1.376 . S
C425 C426 1.388 . S
C426 H413 0.930 . S
C426 C425 1.388 . S
C426 C427 1.390 . S
C427 C426 1.390 . S
C427 C428 1.394 . S
C427 C433 1.465 . S
C428 C423 1.399 . S
C428 C427 1.394 . S
C428 C429 1.516 1_556 S
C429 C428 1.516 1_554 S
C429 C430 1.502 . S
C429 C431 1.561 1_554 S
C429 C432 1.526 . S
C430 H414 0.959 . S
C430 H415 0.959 . S
C430 H416 0.961 . S
C430 C429 1.502 . S
C431 H417 0.960 . S
C431 H418 0.961 . S
C431 H419 0.959 . S
C431 C429 1.561 1_556 S
C432 C429 1.526 . S
C432 C433 1.396 1_554 S
C432 C437 1.390 . S
C433 C427 1.465 . S
C433 C432 1.396 1_556 S
C433 C434 1.399 . S
C434 H420 0.929 . S
C434 C433 1.399 . S
C434 C435 1.385 1_556 S
C435 H421 0.931 . S
C435 C434 1.385 1_554 S
C435 C436 1.389 . S
C436 C435 1.389 . S
C436 C437 1.387 . S
C437 H422 0.930 . S
C437 C432 1.390 . S
C437 C436 1.387 . S
H438 C450 0.930 . S
H439 C452 0.930 . S
H440 C453 0.930 . S
H441 C457 0.959 . S
H442 C457 0.959 . S
H443 C457 0.961 . S
H444 C458 0.960 . S
H445 C458 0.961 . S
H446 C458 0.959 . S
H447 C461 0.929 . S
H448 C462 0.931 . S
H449 C464 0.930 . S
C450 H438 0.930 . S
C450 C451 1.399 . S
C450 C455 1.399 . S
C451 C450 1.399 . S
C451 C452 1.376 . S
C452 H439 0.930 . S
C452 C451 1.376 . S
C452 C453 1.388 . S
C453 H440 0.930 . S
C453 C452 1.388 . S
C453 C454 1.390 . S
C454 C453 1.390 . S
C454 C455 1.394 . S
C454 C460 1.465 . S
C455 C450 1.399 . S
C455 C454 1.394 . S
C455 C456 1.516 . S
C456 C455 1.516 . S
C456 C457 1.502 . S
C456 C458 1.561 . S
C456 C459 1.526 . S
C457 H441 0.959 . S
C457 H442 0.959 . S
C457 H443 0.961 . S
C457 C456 1.502 . S
C458 H444 0.960 . S
C458 H445 0.961 . S
C458 H446 0.959 . S
C458 C456 1.561 . S
C459 C456 1.526 . S
C459 C460 1.396 . S
C459 C464 1.390 . S
C460 C454 1.465 . S
C460 C459 1.396 . S
C460 C461 1.399 . S
C461 H447 0.929 . S
C461 C460 1.399 . S
C461 C462 1.385 . S
C462 H448 0.931 . S
C462 C461 1.385 . S
C462 C463 1.389 . S
C463 C462 1.389 . S
C463 C464 1.387 . S
C464 H449 0.930 . S
C464 C459 1.390 . S
C464 C463 1.387 . S
H465 C477 0.930 . S
H466 C479 0.930 . S
H467 C480 0.930 . S
H468 C484 0.959 . S
H469 C484 0.959 . S
H470 C484 0.961 . S
H471 C485 0.960 . S
H472 C485 0.961 . S
H473 C485 0.959 . S
H474 C488 0.929 . S
H475 C489 0.931 . S
H476 C491 0.930 . S
C477 H465 0.930 . S
C477 C478 1.399 . S
C477 C482 1.399 . S
C478 C477 1.399 . S
C478 C479 1.376 . S
C479 H466 0.930 . S
C479 C478 1.376 . S
C479 C480 1.388 . S
C480 H467 0.930 . S
C480 C479 1.388 . S
C480 C481 1.390 . S
C481 C480 1.390 . S
C481 C482 1.394 . S
C481 C487 1.465 . S
C482 C477 1.399 . S
C482 C481 1.394 . S
C482 C483 1.516 . S
C483 C482 1.516 . S
C483 C484 1.502 . S
C483 C485 1.561 . S
C483 C486 1.526 . S
C484 H468 0.959 . S
C484 H469 0.959 . S
C484 H470 0.961 . S
C484 C483 1.502 . S
C485 H471 0.960 . S
C485 H472 0.961 . S
C485 H473 0.959 . S
C485 C483 1.561 . S
C486 C483 1.526 . S
C486 C487 1.396 . S
C486 C491 1.390 . S
C487 C481 1.465 . S
C487 C486 1.396 . S
C487 C488 1.399 . S
C488 H474 0.929 . S
C488 C487 1.399 . S
C488 C489 1.385 . S
C489 H475 0.931 . S
C489 C488 1.385 . S
C489 C490 1.389 . S
C490 C489 1.389 . S
C490 C491 1.387 . S
C491 H476 0.930 . S
C491 C486 1.390 . S
C491 C490 1.387 . S
H492 C504 0.930 . S
H493 C506 0.930 . S
H494 C507 0.930 . S
H495 C511 0.959 . S
H496 C511 0.959 . S
H497 C511 0.961 . S
H498 C512 0.960 . S
H499 C512 0.961 . S
H500 C512 0.959 . S
H501 C515 0.929 . S
H502 C516 0.931 . S
H503 C518 0.930 . S
C504 H492 0.930 . S
C504 C505 1.399 . S
C504 C509 1.399 . S
C505 C504 1.399 . S
C505 C506 1.376 . S
C506 H493 0.930 . S
C506 C505 1.376 . S
C506 C507 1.388 . S
C507 H494 0.930 . S
C507 C506 1.388 . S
C507 C508 1.390 . S
C508 C507 1.390 . S
C508 C509 1.394 . S
C508 C514 1.465 . S
C509 C504 1.399 . S
C509 C508 1.394 . S
C509 C510 1.516 . S
C510 C509 1.516 . S
C510 C511 1.502 . S
C510 C512 1.561 . S
C510 C513 1.526 . S
C511 H495 0.959 . S
C511 H496 0.959 . S
C511 H497 0.961 . S
C511 C510 1.502 . S
C512 H498 0.960 . S
C512 H499 0.961 . S
C512 H500 0.959 . S
C512 C510 1.561 . S
C513 C510 1.526 . S
C513 C514 1.396 . S
C513 C518 1.390 . S
C514 C508 1.465 . S
C514 C513 1.396 . S
C514 C515 1.399 . S
C515 H501 0.929 . S
C515 C514 1.399 . S
C515 C516 1.385 . S
C516 H502 0.931 . S
C516 C515 1.385 . S
C516 C517 1.389 . S
C517 C516 1.389 . S
C517 C518 1.387 . S
C518 H503 0.930 . S
C518 C513 1.390 . S
C518 C517 1.387 . S
H519 C531 0.930 . S
H520 C533 0.930 . S
H521 C534 0.930 . S
H522 C538 0.959 . S
H523 C538 0.959 . S
H524 C538 0.961 . S
H525 C539 0.960 . S
H526 C539 0.961 . S
H527 C539 0.959 . S
H528 C542 0.929 . S
H529 C543 0.931 . S
H530 C545 0.930 . S
C531 H519 0.930 . S
C531 C532 1.399 . S
C531 C536 1.399 . S
C532 C531 1.399 . S
C532 C533 1.376 . S
C533 H520 0.930 . S
C533 C532 1.376 . S
C533 C534 1.388 . S
C534 H521 0.930 . S
C534 C533 1.388 . S
C534 C535 1.390 . S
C535 C534 1.390 . S
C535 C536 1.394 . S
C535 C541 1.465 . S
C536 C531 1.399 . S
C536 C535 1.394 . S
C536 C537 1.516 . S
C537 C536 1.516 . S
C537 C538 1.502 . S
C537 C539 1.561 . S
C537 C540 1.526 . S
C538 H522 0.959 . S
C538 H523 0.959 . S
C538 H524 0.961 . S
C538 C537 1.502 . S
C539 H525 0.960 . S
C539 H526 0.961 . S
C539 H527 0.959 . S
C539 C537 1.561 . S
C540 C537 1.526 . S
C540 C541 1.396 . S
C540 C545 1.390 . S
C541 C535 1.465 . S
C541 C540 1.396 . S
C541 C542 1.399 . S
C542 H528 0.929 . S
C542 C541 1.399 . S
C542 C543 1.385 . S
C543 H529 0.931 . S
C543 C542 1.385 . S
C543 C544 1.389 . S
C544 C543 1.389 . S
C544 C545 1.387 . S
C545 H530 0.930 . S
C545 C540 1.390 . S
C545 C544 1.387 . S
H546 C558 0.930 . S
H547 C560 0.930 . S
H548 C561 0.930 . S
H549 C565 0.959 . S
H550 C565 0.959 . S
H551 C565 0.961 . S
H552 C566 0.960 . S
H553 C566 0.961 . S
H554 C566 0.959 . S
H555 C569 0.929 . S
H556 C570 0.931 . S
H557 C572 0.930 . S
C558 H546 0.930 . S
C558 C559 1.399 . S
C558 C563 1.399 . S
C559 C558 1.399 . S
C559 C560 1.376 . S
C560 H547 0.930 . S
C560 C559 1.376 . S
C560 C561 1.388 . S
C561 H548 0.930 . S
C561 C560 1.388 . S
C561 C562 1.390 . S
C562 C561 1.390 . S
C562 C563 1.394 . S
C562 C568 1.465 . S
C563 C558 1.399 . S
C563 C562 1.394 . S
C563 C564 1.516 . S
C564 C563 1.516 . S
C564 C565 1.502 . S
C564 C566 1.561 . S
C564 C567 1.526 . S
C565 H549 0.959 . S
C565 H550 0.959 . S
C565 H551 0.961 . S
C565 C564 1.502 . S
C566 H552 0.960 . S
C566 H553 0.961 . S
C566 H554 0.959 . S
C566 C564 1.561 . S
C567 C564 1.526 . S
C567 C568 1.396 . S
C567 C572 1.390 . S
C568 C562 1.465 . S
C568 C567 1.396 . S
C568 C569 1.399 . S
C569 H555 0.929 . S
C569 C568 1.399 . S
C569 C570 1.385 . S
C570 H556 0.931 . S
C570 C569 1.385 . S
C570 C571 1.389 . S
C571 C570 1.389 . S
C571 C572 1.387 . S
C572 H557 0.930 . S
C572 C567 1.390 . S
C572 C571 1.387 . S
H573 C585 0.930 . S
H574 C587 0.930 . S
H575 C588 0.930 . S
H576 C592 0.959 . S
H577 C592 0.959 . S
H578 C592 0.961 . S
H579 C593 0.960 . S
H580 C593 0.961 . S
H581 C593 0.959 . S
H582 C596 0.929 . S
H583 C597 0.931 . S
H584 C599 0.930 . S
C585 H573 0.930 . S
C585 C586 1.399 . S
C585 C590 1.399 . S
C586 C585 1.399 . S
C586 C587 1.376 . S
C587 H574 0.930 . S
C587 C586 1.376 . S
C587 C588 1.388 . S
C588 H575 0.930 . S
C588 C587 1.388 . S
C588 C589 1.390 . S
C589 C588 1.390 . S
C589 C590 1.394 . S
C589 C595 1.465 . S
C590 C585 1.399 . S
C590 C589 1.394 . S
C590 C591 1.516 . S
C591 C590 1.516 . S
C591 C592 1.502 . S
C591 C593 1.561 . S
C591 C594 1.526 . S
C592 H576 0.959 . S
C592 H577 0.959 . S
C592 H578 0.961 . S
C592 C591 1.502 . S
C593 H579 0.960 . S
C593 H580 0.961 . S
C593 H581 0.959 . S
C593 C591 1.561 . S
C594 C591 1.526 . S
C594 C595 1.396 . S
C594 C599 1.390 . S
C595 C589 1.465 . S
C595 C594 1.396 . S
C595 C596 1.399 . S
C596 H582 0.929 . S
C596 C595 1.399 . S
C596 C597 1.385 . S
C597 H583 0.931 . S
C597 C596 1.385 . S
C597 C598 1.389 . S
C598 C597 1.389 . S
C598 C599 1.387 . S
C599 H584 0.930 . S
C599 C594 1.390 . S
C599 C598 1.387 . S
H600 C612 0.930 . S
H601 C614 0.930 . S
H602 C615 0.930 . S
H603 C619 0.959 . S
H604 C619 0.959 . S
H605 C619 0.961 . S
H606 C620 0.960 . S
H607 C620 0.961 . S
H608 C620 0.959 . S
H609 C623 0.929 . S
H610 C624 0.931 . S
H611 C626 0.930 . S
C612 H600 0.930 . S
C612 C613 1.399 . S
C612 C617 1.399 . S
C613 C612 1.399 . S
C613 C614 1.376 . S
C614 H601 0.930 . S
C614 C613 1.376 . S
C614 C615 1.388 . S
C615 H602 0.930 . S
C615 C614 1.388 . S
C615 C616 1.390 . S
C616 C615 1.390 . S
C616 C617 1.394 . S
C616 C622 1.465 . S
C617 C612 1.399 . S
C617 C616 1.394 . S
C617 C618 1.516 . S
C618 C617 1.516 . S
C618 C619 1.502 . S
C618 C620 1.561 . S
C618 C621 1.526 . S
C619 H603 0.959 . S
C619 H604 0.959 . S
C619 H605 0.961 . S
C619 C618 1.502 . S
C620 H606 0.960 . S
C620 H607 0.961 . S
C620 H608 0.959 . S
C620 C618 1.561 . S
C621 C618 1.526 . S
C621 C622 1.396 . S
C621 C626 1.390 . S
C622 C616 1.465 . S
C622 C621 1.396 . S
C622 C623 1.399 . S
C623 H609 0.929 . S
C623 C622 1.399 . S
C623 C624 1.385 . S
C624 H610 0.931 . S
C624 C623 1.385 . S
C624 C625 1.389 . S
C625 C624 1.389 . S
C625 C626 1.387 . S
C626 H611 0.930 . S
C626 C621 1.390 . S
C626 C625 1.387 . S
H627 C639 0.930 . S
H628 C641 0.930 . S
H629 C642 0.930 . S
H630 C646 0.959 . S
H631 C646 0.959 . S
H632 C646 0.961 . S
H633 C647 0.960 . S
H634 C647 0.961 . S
H635 C647 0.959 . S
H636 C650 0.929 . S
H637 C651 0.931 . S
H638 C653 0.930 . S
C639 H627 0.930 . S
C639 C640 1.399 . S
C639 C644 1.399 . S
C640 C639 1.399 . S
C640 C641 1.376 . S
C641 H628 0.930 . S
C641 C640 1.376 . S
C641 C642 1.388 . S
C642 H629 0.930 . S
C642 C641 1.388 . S
C642 C643 1.390 . S
C643 C642 1.390 . S
C643 C644 1.394 . S
C643 C649 1.465 . S
C644 C639 1.399 . S
C644 C643 1.394 . S
C644 C645 1.516 . S
C645 C644 1.516 . S
C645 C646 1.502 . S
C645 C647 1.561 . S
C645 C648 1.526 . S
C646 H630 0.959 . S
C646 H631 0.959 . S
C646 H632 0.961 . S
C646 C645 1.502 . S
C647 H633 0.960 . S
C647 H634 0.961 . S
C647 H635 0.959 . S
C647 C645 1.561 . S
C648 C645 1.526 . S
C648 C649 1.396 . S
C648 C653 1.390 . S
C649 C643 1.465 . S
C649 C648 1.396 . S
C649 C650 1.399 . S
C650 H636 0.929 . S
C650 C649 1.399 . S
C650 C651 1.385 . S
C651 H637 0.931 . S
C651 C650 1.385 . S
C651 C652 1.389 . S
C652 C651 1.389 . S
C652 C653 1.387 . S
C653 H638 0.930 . S
C653 C648 1.390 . S
C653 C652 1.387 . S
H654 C666 0.930 . S
H655 C668 0.930 . S
H656 C669 0.930 . S
H657 C673 0.959 . S
H658 C673 0.976 . S
H659 C673 0.961 . S
H660 C674 0.940 1_556 S
H661 C674 0.937 1_556 S
H662 C674 0.974 . S
H663 C677 0.929 . S
H664 C678 0.931 . S
H665 C680 0.930 . S
C666 H654 0.930 . S
C666 C667 1.399 . S
C666 C671 1.399 . S
C667 C666 1.399 . S
C667 C668 1.376 . S
C668 H655 0.930 . S
C668 C667 1.376 . S
C668 C669 1.388 . S
C669 H656 0.930 . S
C669 C668 1.388 . S
C669 C670 1.390 . S
C670 C669 1.390 . S
C670 C671 1.394 . S
C670 C676 1.465 . S
C671 C666 1.399 . S
C671 C670 1.394 . S
C671 C672 1.516 . S
C672 C671 1.516 . S
C672 C673 1.502 . S
C672 C674 1.591 . S
C672 C675 1.526 . S
C673 H657 0.959 . S
C673 H658 0.976 . S
C673 H659 0.961 . S
C673 C672 1.502 . S
C674 H660 0.940 1_554 S
C674 H661 0.937 1_554 S
C674 H662 0.974 . S
C674 C672 1.591 . S
C675 C672 1.526 . S
C675 C676 1.396 . S
C675 C680 1.390 . S
C676 C670 1.465 . S
C676 C675 1.396 . S
C676 C677 1.399 . S
C677 H663 0.929 . S
C677 C676 1.399 . S
C677 C678 1.385 . S
C678 H664 0.931 . S
C678 C677 1.385 . S
C678 C679 1.389 . S
C679 C678 1.389 . S
C679 C680 1.387 . S
C680 H665 0.930 . S
C680 C675 1.390 . S
C680 C679 1.387 . S
H681 C693 0.930 . S
H682 C695 0.930 . S
H683 C696 0.930 . S
H684 C700 0.959 . S
H685 C700 0.959 . S
H686 C700 0.961 . S
H687 C701 0.960 . S
H688 C701 0.961 . S
H689 C701 0.959 . S
H690 C704 0.929 1_655 S
H691 C705 0.931 . S
H692 C707 0.930 . S
C693 H681 0.930 . S
C693 C694 1.399 . S
C693 C698 1.399 . S
C694 C693 1.399 . S
C694 C695 1.376 . S
C695 H682 0.930 . S
C695 C694 1.376 . S
C695 C696 1.388 . S
C696 H683 0.930 . S
C696 C695 1.388 . S
C696 C697 1.390 . S
C697 C696 1.390 . S
C697 C698 1.394 . S
C697 C703 1.465 1_655 S
C698 C693 1.399 . S
C698 C697 1.394 . S
C698 C699 1.516 1_655 S
C699 C698 1.516 1_455 S
C699 C700 1.502 . S
C699 C701 1.561 1_455 S
C699 C702 1.526 . S
C700 H684 0.959 . S
C700 H685 0.959 . S
C700 H686 0.961 . S
C700 C699 1.502 . S
C701 H687 0.960 . S
C701 H688 0.961 . S
C701 H689 0.959 . S
C701 C699 1.561 1_655 S
C702 C699 1.526 . S
C702 C703 1.396 . S
C702 C707 1.390 . S
C703 C697 1.465 1_455 S
C703 C702 1.396 . S
C703 C704 1.399 . S
C704 H690 0.929 1_455 S
C704 C703 1.399 . S
C704 C705 1.385 . S
C705 H691 0.931 . S
C705 C704 1.385 . S
C705 C706 1.389 . S
C706 C705 1.389 . S
C706 C707 1.387 . S
C707 H692 0.930 . S
C707 C702 1.390 . S
C707 C706 1.387 . S
H708 C720 0.930 . S
H709 C722 0.930 . S
H710 C723 0.930 1_565 S
H711 C727 0.959 . S
H712 C727 0.959 . S
H713 C727 0.961 . S
H714 C728 0.960 . S
H715 C728 0.961 . S
H716 C728 0.959 . S
H717 C731 0.929 . S
H718 C732 0.931 . S
H719 C734 0.930 . S
C720 H708 0.930 . S
C720 C721 1.399 . S
C720 C725 1.399 . S
C721 C720 1.399 . S
C721 C722 1.376 . S
C722 H709 0.930 . S
C722 C721 1.376 . S
C722 C723 1.388 . S
C723 H710 0.930 1_545 S
C723 C722 1.388 . S
C723 C724 1.390 . S
C724 C723 1.390 . S
C724 C725 1.394 . S
C724 C730 1.465 1_545 S
C725 C720 1.399 . S
C725 C724 1.394 . S
C725 C726 1.516 . S
C726 C725 1.516 . S
C726 C727 1.502 . S
C726 C728 1.561 1_545 S
C726 C729 1.526 1_545 S
C727 H711 0.959 . S
C727 H712 0.959 . S
C727 H713 0.961 . S
C727 C726 1.502 . S
C728 H714 0.960 . S
C728 H715 0.961 . S
C728 H716 0.959 . S
C728 C726 1.561 1_565 S
C729 C726 1.526 1_565 S
C729 C730 1.396 . S
C729 C734 1.390 . S
C730 C724 1.465 1_565 S
C730 C729 1.396 . S
C730 C731 1.399 . S
C731 H717 0.929 . S
C731 C730 1.399 . S
C731 C732 1.385 . S
C732 H718 0.931 . S
C732 C731 1.385 . S
C732 C733 1.389 . S
C733 C732 1.389 . S
C733 C734 1.387 . S
C734 H719 0.930 . S
C734 C729 1.390 . S
C734 C733 1.387 . S
H735 C747 0.930 . S
H736 C749 0.930 . S
H737 C750 0.930 . S
H738 C754 0.959 . S
H739 C754 0.959 . S
H740 C754 0.961 . S
H741 C755 0.960 . S
H742 C755 0.961 . S
H743 C755 0.959 . S
H744 C758 0.929 . S
H745 C759 0.931 . S
H746 C761 0.930 . S
C747 H735 0.930 . S
C747 C748 1.399 . S
C747 C752 1.399 . S
C748 C747 1.399 . S
C748 C749 1.376 . S
C749 H736 0.930 . S
C749 C748 1.376 . S
C749 C750 1.388 . S
C750 H737 0.930 . S
C750 C749 1.388 . S
C750 C751 1.390 . S
C751 C750 1.390 . S
C751 C752 1.394 . S
C751 C757 1.465 . S
C752 C747 1.399 . S
C752 C751 1.394 . S
C752 C753 1.516 . S
C753 C752 1.516 . S
C753 C754 1.502 . S
C753 C755 1.561 . S
C753 C756 1.526 . S
C754 H738 0.959 . S
C754 H739 0.959 . S
C754 H740 0.961 . S
C754 C753 1.502 . S
C755 H741 0.960 . S
C755 H742 0.961 . S
C755 H743 0.959 . S
C755 C753 1.561 . S
C756 C753 1.526 . S
C756 C757 1.396 . S
C756 C761 1.390 . S
C757 C751 1.465 . S
C757 C756 1.396 . S
C757 C758 1.399 . S
C758 H744 0.929 . S
C758 C757 1.399 . S
C758 C759 1.385 . S
C759 H745 0.931 . S
C759 C758 1.385 . S
C759 C760 1.389 . S
C760 C759 1.389 . S
C760 C761 1.387 . S
C761 H746 0.930 . S
C761 C756 1.390 . S
C761 C760 1.387 . S
H762 C774 0.930 . S
H763 C776 0.930 . S
H764 C777 0.930 . S
H765 C781 0.959 . S
H766 C781 0.959 . S
H767 C781 0.961 . S
H768 C782 0.960 1_554 S
H769 C782 0.961 1_554 S
H770 C782 0.955 1_654 S
H771 C785 0.929 . S
H772 C786 0.931 . S
H773 C788 0.930 . S
C774 H762 0.930 . S
C774 C775 1.399 . S
C774 C779 1.399 . S
C775 C774 1.399 . S
C775 C776 1.376 . S
C776 H763 0.930 . S
C776 C775 1.376 . S
C776 C777 1.388 1_455 S
C777 H764 0.930 . S
C777 C776 1.388 1_655 S
C777 C778 1.390 . S
C778 C777 1.390 . S
C778 C779 1.394 1_655 S
C778 C784 1.465 . S
C779 C774 1.399 . S
C779 C778 1.394 1_455 S
C779 C780 1.516 . S
C780 C779 1.516 . S
C780 C781 1.502 . S
C780 C782 1.561 . S
C780 C783 1.526 1_455 S
C781 H765 0.959 . S
C781 H766 0.959 . S
C781 H767 0.961 . S
C781 C780 1.502 . S
C782 H768 0.960 1_556 S
C782 H769 0.961 1_556 S
C782 H770 0.955 1_456 S
C782 C780 1.561 . S
C783 C780 1.526 1_655 S
C783 C784 1.396 . S
C783 C788 1.390 . S
C784 C778 1.465 . S
C784 C783 1.396 . S
C784 C785 1.399 . S
C785 H771 0.929 . S
C785 C784 1.399 . S
C785 C786 1.385 . S
C786 H772 0.931 . S
C786 C785 1.385 . S
C786 C787 1.389 . S
C787 C786 1.389 . S
C787 C788 1.387 . S
C788 H773 0.930 . S
C788 C783 1.390 . S
C788 C787 1.387 . S
H789 C801 0.930 . S
H790 C803 0.930 . S
H791 C804 0.923 1_545 S
H792 C808 0.959 . S
H793 C808 0.959 . S
H794 C808 0.961 . S
H795 C809 0.960 . S
H796 C809 0.961 . S
H797 C809 0.959 . S
H798 C812 0.929 . S
H799 C813 0.931 . S
H800 C815 0.930 . S
C801 H789 0.930 . S
C801 C802 1.399 . S
C801 C806 1.399 . S
C802 C801 1.399 . S
C802 C803 1.376 . S
C803 H790 0.930 . S
C803 C802 1.376 . S
C803 C804 1.388 . S
C804 H791 0.923 1_565 S
C804 C803 1.388 . S
C804 C805 1.390 . S
C805 C804 1.390 . S
C805 C806 1.394 . S
C805 C811 1.465 1_565 S
C806 C801 1.399 . S
C806 C805 1.394 . S
C806 C807 1.516 . S
C807 C806 1.516 . S
C807 C808 1.502 . S
C807 C809 1.561 1_565 S
C807 C810 1.526 1_565 S
C808 H792 0.959 . S
C808 H793 0.959 . S
C808 H794 0.961 . S
C808 C807 1.502 . S
C809 H795 0.960 . S
C809 H796 0.961 . S
C809 H797 0.959 . S
C809 C807 1.561 1_545 S
C810 C807 1.526 1_545 S
C810 C811 1.396 . S
C810 C815 1.390 . S
C811 C805 1.465 1_545 S
C811 C810 1.396 . S
C811 C812 1.399 . S
C812 H798 0.929 . S
C812 C811 1.399 . S
C812 C813 1.385 . S
C813 H799 0.931 . S
C813 C812 1.385 . S
C813 C814 1.389 . S
C814 C813 1.389 . S
C814 C815 1.387 . S
C815 H800 0.930 . S
C815 C810 1.390 . S
C815 C814 1.387 . S
C181 C107 1.311 . S
C193 C9 1.335 . S
C208 C23 1.345 . S
C220 C121 1.320 . S
C235 C37 1.334 . S
C247 C135 1.359 . S
C262 C51 1.374 . S
C274 C149 1.354 . S
C289 C163 1.381 . S
C301 C65 1.367 . S
C316 C93 1.301 . S
C328 C79 1.298 . S
C343 C143 1.397 . S
C355 C3 1.390 . S
C370 C17 1.395 . S
C382 C157 1.383 . S
C397 C31 1.388 . S
C409 C87 1.383 . S
C424 C101 1.382 . S
C436 C45 1.390 . S
C451 C115 1.386 . S
C463 C59 1.385 . S
C478 C129 1.395 . S
C490 C73 1.393 . S
C505 C7 1.597 . S
C517 C119 1.653 . S
C532 C21 1.658 . S
C544 C133 1.614 . S
C559 C147 1.610 . S
C571 C35 1.597 . S
C586 C49 1.652 . S
C598 C161 1.596 . S
C613 C91 1.656 . S
C625 C63 1.626 . S
C640 C105 1.615 . S
C652 C77 1.594 . S
C667 C50 1.409 . S
C679 C8 1.378 . S
C694 C64 1.370 . S
C706 C22 1.399 . S
C721 C36 1.408 . S
C733 C78 1.379 . S
C748 C92 1.405 . S
C760 C134 1.382 . S
C775 C106 1.415 . S
C787 C148 1.368 . S
C802 C162 1.407 . S
C814 C120 1.380 . S
