# Generated by pormake.
# Topology wgw, (6)-cn, num edge types: 1
# Building blocks:
#     Node 0, Type 0, BuildingBlock: IZENUY_clean_sbu_0, # of connection points: 6
#     Node 1, Type 0, BuildingBlock: IZENUY_clean_sbu_0, # of connection points: 6
#     Node 2, Type 0, BuildingBlock: IZENUY_clean_sbu_0, # of connection points: 6
#     Node 3, Type 0, BuildingBlock: IZENUY_clean_sbu_0, # of connection points: 6
#     Node 4, Type 0, BuildingBlock: IZENUY_clean_sbu_0, # of connection points: 6
#     Node 5, Type 0, BuildingBlock: IZENUY_clean_sbu_0, # of connection points: 6
#     Node 6, Type 0, BuildingBlock: IZENUY_clean_sbu_0, # of connection points: 6
#     Node 7, Type 0, BuildingBlock: IZENUY_clean_sbu_0, # of connection points: 6
#     Edge 8, Type (0, 0), BuildingBlock: XUDNAN_clean_linker_2, # of connection points: 2
#     Edge 9, Type (0, 0), BuildingBlock: XUDNAN_clean_linker_2, # of connection points: 2
#     Edge 10, Type (0, 0), BuildingBlock: XUDNAN_clean_linker_2, # of connection points: 2
#     Edge 11, Type (0, 0), BuildingBlock: XUDNAN_clean_linker_2, # of connection points: 2
#     Edge 12, Type (0, 0), BuildingBlock: XUDNAN_clean_linker_2, # of connection points: 2
#     Edge 13, Type (0, 0), BuildingBlock: XUDNAN_clean_linker_2, # of connection points: 2
#     Edge 14, Type (0, 0), BuildingBlock: XUDNAN_clean_linker_2, # of connection points: 2
#     Edge 15, Type (0, 0), BuildingBlock: XUDNAN_clean_linker_2, # of connection points: 2
#     Edge 16, Type (0, 0), BuildingBlock: XUDNAN_clean_linker_2, # of connection points: 2
#     Edge 17, Type (0, 0), BuildingBlock: XUDNAN_clean_linker_2, # of connection points: 2
#     Edge 18, Type (0, 0), BuildingBlock: XUDNAN_clean_linker_2, # of connection points: 2
#     Edge 19, Type (0, 0), BuildingBlock: XUDNAN_clean_linker_2, # of connection points: 2
#     Edge 20, Type (0, 0), BuildingBlock: XUDNAN_clean_linker_2, # of connection points: 2
#     Edge 21, Type (0, 0), BuildingBlock: XUDNAN_clean_linker_2, # of connection points: 2
#     Edge 22, Type (0, 0), BuildingBlock: XUDNAN_clean_linker_2, # of connection points: 2
#     Edge 23, Type (0, 0), BuildingBlock: XUDNAN_clean_linker_2, # of connection points: 2
#     Edge 24, Type (0, 0), BuildingBlock: XUDNAN_clean_linker_2, # of connection points: 2
#     Edge 25, Type (0, 0), BuildingBlock: XUDNAN_clean_linker_2, # of connection points: 2
#     Edge 26, Type (0, 0), BuildingBlock: XUDNAN_clean_linker_2, # of connection points: 2
#     Edge 27, Type (0, 0), BuildingBlock: XUDNAN_clean_linker_2, # of connection points: 2
#     Edge 28, Type (0, 0), BuildingBlock: XUDNAN_clean_linker_2, # of connection points: 2
#     Edge 29, Type (0, 0), BuildingBlock: XUDNAN_clean_linker_2, # of connection points: 2
#     Edge 30, Type (0, 0), BuildingBlock: XUDNAN_clean_linker_2, # of connection points: 2
#     Edge 31, Type (0, 0), BuildingBlock: XUDNAN_clean_linker_2, # of connection points: 2
# Relax obj value: 0.276
# Max RMSD: 0.289
# Mean RMSD: 0.289
data_MOF--net-wgw--node1-IZENUY_clean_sbu_0--edge1-XUDNAN_clean_linker_2
_symmetry_space_group_name_H-M    P1
_symmetry_Int_Tables_number       1
_symmetry_cell_setting            triclinic
loop_
_symmetry_equiv_pos_as_xyz
'x, y, z'
_cell_length_a     27.530367
_cell_length_b     27.613852
_cell_length_c     42.736959
_cell_angle_alpha  89.869342
_cell_angle_beta   90.073324
_cell_angle_gamma 89.937835
loop_
_atom_site_label
_atom_site_type_symbol
_atom_site_fract_x
_atom_site_fract_y
_atom_site_fract_z
_atom_type_partial_charge
Fe0 Fe 0.03071 0.3972 0.17665 0.0
Fe1 Fe 0.10741 0.47857 0.17139 0.0
O2 O 0.06311 0.4462 0.19326 0.0
Fe3 Fe 0.05152 0.46385 0.23244 0.0
O4 O 0.03213 0.4046 0.24674 0.0
O5 O 0.04789 0.3561 0.20789 0.0
O6 O 0.08394 0.37312 0.15533 0.0
C7 C 0.12884 0.38382 0.15656 0.0
C8 C 0.95919 0.45197 0.2105 0.0
O9 O 0.14331 0.4247 0.16585 0.0
C10 C 0.06427 0.55283 0.20197 0.0
O11 O 0.01033 0.43285 0.14355 0.0
O12 O 0.07809 0.47104 0.13281 0.0
O13 O 0.9899 0.4798 0.22295 0.0
O14 O 0.9724 0.414 0.19578 0.0
C15 C 0.14929 0.47073 0.23261 0.0
O16 O 0.07354 0.53501 0.17552 0.0
O17 O 0.0674 0.52718 0.22634 0.0
C18 C 0.03617 0.45688 0.12486 0.0
O19 O 0.14618 0.49139 0.20597 0.0
O20 O 0.11306 0.44888 0.24393 0.0
C21 C 0.03881 0.36255 0.23635 0.0
Fe22 Fe 0.02994 0.10312 0.67555 0.0
Fe23 Fe 0.05673 0.04041 0.73219 0.0
O24 O 0.06561 0.05688 0.69259 0.0
Fe25 Fe 0.11068 0.02634 0.67047 0.0
O26 O 0.14358 0.08225 0.66449 0.0
O27 O 0.08029 0.12752 0.65188 0.0
O28 O 0.0473 0.14685 0.70511 0.0
C29 C 0.04074 0.14137 0.73401 0.0
C30 C 0.03602 0.04216 0.62526 0.0
O31 O 0.03583 0.09963 0.7455 0.0
C32 C 0.07075 0.95131 0.70261 0.0
O33 O 0.97397 0.08563 0.69666 0.0
O34 O 0.99545 0.0215 0.7244 0.0
O35 O 0.07966 0.0322 0.63219 0.0
O36 O 0.00932 0.06395 0.6445 0.0
C37 C 0.15452 0.03754 0.73058 0.0
O38 O 0.075 0.97762 0.72657 0.0
O39 O 0.07932 0.96847 0.67573 0.0
C40 C 0.96314 0.04749 0.7119 0.0
O41 O 0.11795 0.0584 0.74212 0.0
O42 O 0.15107 0.01559 0.7045 0.0
C43 C 0.12593 0.12158 0.65443 0.0
Fe44 Fe 0.46072 0.05813 0.23376 0.0
Fe45 Fe 0.47772 0.1203 0.17609 0.0
O46 O 0.44553 0.07259 0.19454 0.0
Fe47 Fe 0.39966 0.04001 0.17428 0.0
O48 O 0.3548 0.05094 0.20478 0.0
O49 O 0.40127 0.03666 0.24529 0.0
O50 O 0.4431 0.11815 0.24706 0.0
C51 C 0.46488 0.15554 0.23753 0.0
C52 C 0.45417 0.96771 0.20757 0.0
O53 O 0.48856 0.15459 0.21217 0.0
C54 C 0.46322 0.05588 0.12538 0.0
O55 O 0.52392 0.07588 0.22996 0.0
O56 O 0.53504 0.08694 0.17988 0.0
O57 O 0.41753 0.98081 0.19133 0.0
O58 O 0.47904 0.99796 0.22279 0.0
C59 C 0.38304 0.13976 0.15947 0.0
O60 O 0.4724 0.09694 0.13662 0.0
O61 O 0.43933 0.02538 0.14107 0.0
C62 C 0.55076 0.07292 0.2062 0.0
O63 O 0.42247 0.15486 0.17118 0.0
O64 O 0.37502 0.09485 0.15495 0.0
C65 C 0.35986 0.0425 0.23358 0.0
Fe66 Fe 0.40303 0.46717 0.67411 0.0
Fe67 Fe 0.47447 0.38111 0.6759 0.0
O68 O 0.4456 0.43052 0.69465 0.0
Fe69 Fe 0.46068 0.44259 0.73424 0.0
O70 O 0.40212 0.46747 0.74523 0.0
O71 O 0.35619 0.45817 0.70379 0.0
O72 O 0.37592 0.41525 0.65327 0.0
C73 C 0.37912 0.36983 0.65819 0.0
C74 C 0.46037 0.53387 0.70932 0.0
O75 O 0.4167 0.35122 0.67037 0.0
C76 C 0.55011 0.42253 0.70721 0.0
O77 O 0.44515 0.4804 0.64198 0.0
O78 O 0.4721 0.40645 0.6365 0.0
O79 O 0.48304 0.50161 0.72427 0.0
O80 O 0.42378 0.5241 0.69229 0.0
C81 C 0.4578 0.34503 0.73701 0.0
O82 O 0.5341 0.40991 0.68068 0.0
O83 O 0.52271 0.42065 0.73078 0.0
C84 C 0.46712 0.44889 0.62603 0.0
O85 O 0.48155 0.34473 0.71164 0.0
O86 O 0.43924 0.38374 0.74698 0.0
C87 C 0.36076 0.46531 0.7328 0.0
Fe88 Fe 0.60603 0.53589 0.35648 0.0
Fe89 Fe 0.53969 0.55818 0.30092 0.0
O90 O 0.55855 0.57036 0.33974 0.0
Fe91 Fe 0.52879 0.61635 0.36141 0.0
O92 O 0.58524 0.64959 0.36632 0.0
O93 O 0.63129 0.587 0.37874 0.0
O94 O 0.64818 0.55202 0.3255 0.0
C95 C 0.64127 0.54177 0.29717 0.0
C96 C 0.54577 0.5433 0.40758 0.0
O97 O 0.59861 0.5353 0.28711 0.0
C98 C 0.45137 0.57629 0.33098 0.0
O99 O 0.5879 0.47894 0.33698 0.0
O100 O 0.5203 0.49831 0.31215 0.0
O101 O 0.53518 0.58664 0.40028 0.0
O102 O 0.56831 0.51672 0.38862 0.0
C103 C 0.53846 0.65585 0.29984 0.0
O104 O 0.47712 0.5778 0.30665 0.0
O105 O 0.46996 0.58545 0.35741 0.0
C106 C 0.54697 0.46742 0.32545 0.0
O107 O 0.55727 0.61818 0.28826 0.0
O108 O 0.51788 0.6547 0.32651 0.0
C109 C 0.62506 0.6324 0.37605 0.0
Fe110 Fe 0.97531 0.60555 0.85731 0.0
Fe111 Fe 0.95899 0.55122 0.79596 0.0
O112 O 0.94335 0.56087 0.83567 0.0
Fe113 Fe 0.89676 0.5262 0.85317 0.0
O114 O 0.87308 0.57717 0.87636 0.0
O115 O 0.91976 0.63948 0.86412 0.0
O116 O 0.98501 0.64518 0.82303 0.0
C117 C 0.96217 0.64865 0.79721 0.0
C118 C 0.95928 0.53212 0.9033 0.0
O119 O 0.94117 0.61224 0.78572 0.0
C120 C 0.95165 0.45843 0.81733 0.0
O121 O 0.03315 0.57353 0.85132 0.0
O122 O 0.02209 0.569 0.80076 0.0
O123 O 0.93596 0.50583 0.88455 0.0
O124 O 0.97062 0.57504 0.89579 0.0
C125 C 0.85778 0.53616 0.79444 0.0
O126 O 0.97757 0.49008 0.80417 0.0
O127 O 0.91374 0.46983 0.83267 0.0
C128 C 0.04921 0.56382 0.82429 0.0
O129 O 0.89949 0.53073 0.78304 0.0
O130 O 0.85252 0.54302 0.82336 0.0
C131 C 0.88021 0.62258 0.87446 0.0
Fe132 Fe 0.95999 0.95366 0.29701 0.0
Fe133 Fe 0.97844 0.89874 0.35797 0.0
O134 O 0.94396 0.94204 0.3365 0.0
Fe135 Fe 0.89463 0.97341 0.35357 0.0
O136 O 0.85296 0.95583 0.32274 0.0
O137 O 0.90035 0.97255 0.28348 0.0
O138 O 0.94476 0.89247 0.28619 0.0
C139 C 0.967 0.85655 0.29754 0.0
C140 C 0.94807 0.04514 0.3194 0.0
O141 O 0.98988 0.86024 0.32337 0.0
C142 C 0.95652 0.96924 0.40453 0.0
O143 O 0.02358 0.93806 0.3019 0.0
O144 O 0.03439 0.93377 0.35234 0.0
O145 O 0.91031 0.03172 0.33436 0.0
O146 O 0.9757 0.01497 0.30624 0.0
C147 C 0.88384 0.87541 0.37398 0.0
O148 O 0.97219 0.92811 0.39639 0.0
O149 O 0.93053 0.99413 0.38635 0.0
C150 C 0.05017 0.94448 0.32547 0.0
O151 O 0.92536 0.86183 0.36495 0.0
O152 O 0.87196 0.91991 0.37497 0.0
C153 C 0.85878 0.96417 0.29411 0.0
Fe154 Fe 0.61082 0.96452 0.85861 0.0
Fe155 Fe 0.52949 0.88729 0.86315 0.0
O156 O 0.56276 0.93123 0.84152 0.0
Fe157 Fe 0.54659 0.94205 0.80192 0.0
O158 O 0.60578 0.96349 0.78886 0.0
O159 O 0.65367 0.94793 0.82813 0.0
O160 O 0.63522 0.91217 0.88053 0.0
C161 C 0.62449 0.86738 0.88023 0.0
C162 C 0.55446 0.03383 0.82419 0.0
O163 O 0.58352 0.85243 0.87119 0.0
C164 C 0.45607 0.92847 0.8295 0.0
O165 O 0.57362 0.98457 0.89076 0.0
O166 O 0.53342 0.91799 0.90136 0.0
O167 O 0.52814 1.00258 0.81101 0.0
O168 O 0.59301 0.02209 0.83902 0.0
C169 C 0.54378 0.84483 0.80289 0.0
O170 O 0.47237 0.9201 0.85659 0.0
O171 O 0.48343 0.9238 0.80616 0.0
C172 C 0.54715 0.96011 0.90879 0.0
O173 O 0.52078 0.84747 0.82872 0.0
O174 O 0.56429 0.88156 0.79134 0.0
C175 C 0.64777 0.9569 0.79958 0.0
H176 H 0.39619 0.59967 0.28095 0.0
H177 H 0.39068 0.52431 0.36993 0.0
H178 H 0.31024 0.49017 0.35533 0.0
H179 H 0.26467 0.6254 0.27348 0.0
H180 H 0.26626 0.61578 0.23179 0.0
H181 H 0.31908 0.63886 0.2517 0.0
H182 H 0.37014 0.56853 0.22876 0.0
H183 H 0.31738 0.54449 0.20942 0.0
H184 H 0.35175 0.50685 0.23594 0.0
H185 H 0.23429 0.45739 0.32745 0.0
H186 H 0.16743 0.43479 0.29165 0.0
H187 H 0.22622 0.53108 0.22079 0.0
C188 C 0.37746 0.57706 0.2978 0.0
C189 C 0.39934 0.56487 0.3267 0.0
C190 C 0.37404 0.53479 0.34796 0.0
C191 C 0.32863 0.51493 0.33967 0.0
C192 C 0.30918 0.526 0.31024 0.0
C193 C 0.33261 0.55712 0.28992 0.0
C194 C 0.30615 0.56138 0.25898 0.0
C195 C 0.28795 0.61344 0.25369 0.0
C196 C 0.33828 0.54428 0.23168 0.0
C197 C 0.26449 0.52694 0.2646 0.0
C198 C 0.26652 0.50699 0.29429 0.0
C199 C 0.23222 0.47326 0.3043 0.0
C200 C 0.1945 0.46044 0.2837 0.0
C201 C 0.19143 0.4811 0.2533 0.0
C202 C 0.22737 0.51444 0.24375 0.0
H203 H 1.00321 0.42134 0.76865 0.0
H204 H 0.92645 0.37987 0.8532 0.0
H205 H 0.9471 0.29391 0.8432 0.0
H206 H 0.96218 0.32293 0.72294 0.0
H207 H 0.01817 0.31684 0.70148 0.0
H208 H 1.00066 0.37489 0.71685 0.0
H209 H 0.08241 0.38052 0.74637 0.0
H210 H 0.10038 0.32232 0.73135 0.0
H211 H 0.10011 0.33291 0.77297 0.0
H212 H 0.97505 0.21283 0.82322 0.0
H213 H 1.00098 0.14186 0.79261 0.0
H214 H 0.05617 0.23713 0.7199 0.0
C215 C 0.99118 0.39428 0.7853 0.0
C216 C 0.96359 0.40713 0.81186 0.0
C217 C 0.94765 0.37063 0.83273 0.0
C218 C 0.95946 0.32188 0.82733 0.0
C219 C 0.98676 0.31051 0.80086 0.0
C220 C 1.00194 0.34566 0.78003 0.0
C221 C 0.02776 0.32384 0.75219 0.0
C222 C 1.00055 0.33529 0.72157 0.0
C223 C 0.08085 0.34088 0.75066 0.0
C224 C 0.0245 0.27072 0.76044 0.0
C225 C 1.00137 0.26382 0.78881 0.0
C226 C 0.99328 0.21779 0.80103 0.0
C227 C 0.0083 0.17772 0.78346 0.0
C228 C 0.03052 0.18396 0.7538 0.0
C229 C 0.03932 0.23118 0.74247 0.0
H230 H 0.26451 0.03263 0.21589 0.0
H231 H 0.35913 0.03237 0.29726 0.0
H232 H 0.28976 0.01071 0.33088 0.0
H233 H 0.15871 0.082 0.255 0.0
H234 H 0.11649 0.0447 0.23349 0.0
H235 H 0.17297 0.06292 0.21579 0.0
H236 H 0.19568 0.97352 0.20547 0.0
H237 H 0.13916 0.95442 0.22257 0.0
H238 H 0.19575 0.93089 0.23749 0.0
H239 H 0.20993 0.98317 0.3553 0.0
H240 H 0.12645 0.95461 0.36761 0.0
H241 H 0.08684 0.97423 0.26996 0.0
C242 C 0.27056 0.02877 0.24082 0.0
C243 C 0.31723 0.03412 0.25385 0.0
C244 C 0.32363 0.02831 0.28665 0.0
C245 C 0.28446 0.01605 0.30601 0.0
C246 C 0.23908 0.00988 0.2923 0.0
C247 C 0.232 0.01633 0.26047 0.0
C248 C 0.18024 0.00587 0.25123 0.0
C249 C 0.15561 0.05159 0.2381 0.0
C250 C 0.17759 0.96366 0.22782 0.0
C251 C 0.15954 0.99178 0.28269 0.0
C252 C 0.1937 0.99439 0.30624 0.0
C253 C 0.1827 0.98131 0.33706 0.0
C254 C 0.13538 0.96502 0.34386 0.0
C255 C 0.10019 0.96181 0.31981 0.0
C256 C 0.11277 0.97587 0.28901 0.0
H257 H 0.45518 0.2505 0.7207 0.0
H258 H 0.47513 0.3458 0.80007 0.0
H259 H 0.50108 0.27584 0.83252 0.0
H260 H 0.40965 0.14531 0.76644 0.0
H261 H 0.43987 0.10292 0.74103 0.0
H262 H 0.4185 0.15994 0.72572 0.0
H263 H 0.50522 0.17853 0.70544 0.0
H264 H 0.52719 0.12218 0.72124 0.0
H265 H 0.55548 0.17833 0.73254 0.0
H266 H 0.53609 0.19615 0.85367 0.0
H267 H 0.56419 0.11185 0.86386 0.0
H268 H 0.5166 0.07055 0.77094 0.0
C269 C 0.46374 0.25631 0.74516 0.0
C270 C 0.46305 0.30316 0.75804 0.0
C271 C 0.47482 0.30984 0.79 0.0
C272 C 0.48996 0.27045 0.80848 0.0
C273 C 0.49207 0.22475 0.7947 0.0
C274 C 0.47797 0.21744 0.76396 0.0
C275 C 0.48445 0.16532 0.75427 0.0
C276 C 0.43519 0.142 0.74642 0.0
C277 C 0.52021 0.16087 0.72675 0.0
C278 C 0.50574 0.14463 0.78401 0.0
C279 C 0.51027 0.17924 0.80711 0.0
C280 C 0.53188 0.16856 0.83594 0.0
C281 C 0.54816 0.12092 0.84144 0.0
C282 C 0.54211 0.08493 0.81829 0.0
C283 C 0.52099 0.09727 0.78926 0.0
H284 H 0.73772 0.56303 0.30659 0.0
H285 H 0.63991 0.48907 0.24294 0.0
H286 H 0.71013 0.4597 0.2125 0.0
H287 H 0.82621 0.59975 0.24693 0.0
H288 H 0.8772 0.59086 0.27282 0.0
H289 H 0.81896 0.60795 0.28851 0.0
H290 H 0.82084 0.53308 0.32518 0.0
H291 H 0.87888 0.51561 0.30948 0.0
H292 H 0.82883 0.47361 0.30862 0.0
H293 H 0.7923 0.43244 0.19153 0.0
H294 H 0.87892 0.41549 0.17978 0.0
H295 H 0.9215 0.51029 0.2559 0.0
C296 C 0.73102 0.54118 0.28602 0.0
C297 C 0.68325 0.52844 0.27718 0.0
C298 C 0.67612 0.49968 0.25009 0.0
C299 C 0.71582 0.48262 0.23268 0.0
C300 C 0.76248 0.49514 0.24235 0.0
C301 C 0.77017 0.52436 0.26814 0.0
C302 C 0.82384 0.53209 0.27391 0.0
C303 C 0.83734 0.58585 0.27032 0.0
C304 C 0.83896 0.51241 0.30621 0.0
C305 C 0.84514 0.50196 0.24773 0.0
C306 C 0.80933 0.48072 0.22978 0.0
C307 C 0.82065 0.44942 0.20519 0.0
C308 C 0.86988 0.43984 0.19874 0.0
C309 C 0.90706 0.46182 0.21666 0.0
C310 C 0.89412 0.49337 0.24137 0.0
H311 H 0.08041 0.90117 0.75643 0.0
H312 H 0.02777 0.88741 0.66113 0.0
H313 H 0.99221 0.80727 0.67472 0.0
H314 H 0.10924 0.77545 0.77062 0.0
H315 H 0.08904 0.7786 0.81067 0.0
H316 H 0.11328 0.83168 0.79182 0.0
H317 H 0.03432 0.87849 0.80549 0.0
H318 H 0.00931 0.82528 0.82372 0.0
H319 H 0.97654 0.85512 0.79263 0.0
H320 H 0.95795 0.7305 0.70112 0.0
H321 H 0.93488 0.66229 0.73568 0.0
H322 H 0.00863 0.73193 0.81332 0.0
C323 C 0.06209 0.88115 0.73812 0.0
C324 C 0.05685 0.90036 0.70769 0.0
C325 C 0.03263 0.87294 0.6845 0.0
C326 C 0.012 0.82774 0.69212 0.0
C327 C 0.01618 0.81095 0.72291 0.0
C328 C 0.04118 0.83683 0.74534 0.0
C329 C 0.03948 0.81268 0.777 0.0
C330 C 0.09081 0.79876 0.78817 0.0
C331 C 0.01335 0.84481 0.80111 0.0
C332 C 0.00973 0.76867 0.76909 0.0
C333 C 0.99632 0.76811 0.73789 0.0
C334 C 0.96851 0.73059 0.72552 0.0
C335 C 0.95534 0.69217 0.7454 0.0
C336 C 0.97014 0.69168 0.77723 0.0
C337 C 0.99681 0.73104 0.78914 0.0
H338 H 0.58816 0.03995 0.26068 0.0
H339 H 0.62596 0.06395 0.16321 0.0
H340 H 0.7088 0.03188 0.17406 0.0
H341 H 0.6985 0.07831 0.29238 0.0
H342 H 0.698 0.03469 0.32381 0.0
H343 H 0.64163 0.05599 0.3075 0.0
H344 H 0.61527 0.96684 0.29443 0.0
H345 H 0.6708 0.94719 0.31291 0.0
H346 H 0.65748 0.92878 0.27355 0.0
H347 H 0.78858 1.00025 0.19731 0.0
H348 H 0.85811 0.9757 0.23038 0.0
H349 H 0.76404 0.97322 0.31182 0.0
C350 C 0.61348 0.03851 0.24133 0.0
C351 C 0.60067 0.05477 0.21104 0.0
C352 C 0.63516 0.05191 0.18661 0.0
C353 C 0.68205 0.03353 0.19255 0.0
C354 C 0.69322 0.01799 0.2229 0.0
C355 C 0.65968 0.02038 0.24679 0.0
C356 C 0.68058 0.00425 0.27778 0.0
C357 C 0.67963 0.04579 0.30176 0.0
C358 C 0.65438 0.95911 0.2904 0.0
C359 C 0.73159 0.99236 0.26781 0.0
C360 C 0.73836 1.00021 0.23611 0.0
C361 C 0.78346 0.99364 0.22205 0.0
C362 C 0.82267 0.97965 0.24105 0.0
C363 C 0.81638 0.97246 0.27369 0.0
C364 C 0.76995 0.97791 0.28694 0.0
H365 H 0.48715 0.56951 0.76543 0.0
H366 H 0.46095 0.61161 0.66906 0.0
H367 H 0.48496 0.69603 0.68194 0.0
H368 H 0.43656 0.67606 0.79907 0.0
H369 H 0.47919 0.67743 0.83111 0.0
H370 H 0.46309 0.62056 0.81344 0.0
H371 H 0.55393 0.60302 0.80309 0.0
H372 H 0.5707 0.66018 0.82016 0.0
H373 H 0.58958 0.64571 0.7809 0.0
H374 H 0.51399 0.77482 0.70574 0.0
H375 H 0.5348 0.84441 0.73939 0.0
H376 H 0.53511 0.7504 0.82085 0.0
C377 C 0.48688 0.59643 0.74695 0.0
C378 C 0.47299 0.58436 0.71616 0.0
C379 C 0.47175 0.62052 0.69273 0.0
C380 C 0.48556 0.66824 0.69982 0.0
C381 C 0.49951 0.67882 0.73049 0.0
C382 C 0.4994 0.64403 0.75375 0.0
C383 C 0.51253 0.665 0.78528 0.0
C384 C 0.47032 0.65944 0.80858 0.0
C385 C 0.5595 0.64212 0.79809 0.0
C386 C 0.52019 0.71728 0.77624 0.0
C387 C 0.51341 0.7244 0.74447 0.0
C388 C 0.51918 0.76969 0.73063 0.0
C389 C 0.53127 0.80886 0.7499 0.0
C390 C 0.53647 0.8025 0.78266 0.0
C391 C 0.53118 0.7561 0.79589 0.0
H392 H 0.76219 0.52854 0.81193 0.0
H393 H 0.8574 0.52006 0.73122 0.0
H394 H 0.78865 0.49289 0.69867 0.0
H395 H 0.69744 0.42365 0.79682 0.0
H396 H 0.63957 0.44669 0.80974 0.0
H397 H 0.69481 0.4709 0.82583 0.0
H398 H 0.66905 0.55767 0.80909 0.0
H399 H 0.61336 0.53358 0.7934 0.0
H400 H 0.65279 0.56924 0.76888 0.0
H401 H 0.70947 0.4599 0.67572 0.0
H402 H 0.62674 0.42772 0.66498 0.0
H403 H 0.58686 0.45764 0.76133 0.0
C404 C 0.76845 0.52202 0.78729 0.0
C405 C 0.81521 0.52641 0.77422 0.0
C406 C 0.82185 0.51695 0.74185 0.0
C407 C 0.78302 0.50148 0.7231 0.0
C408 C 0.73767 0.49597 0.73697 0.0
C409 C 0.73019 0.50653 0.76826 0.0
C410 C 0.67879 0.49536 0.77803 0.0
C411 C 0.67763 0.45686 0.80413 0.0
C412 C 0.65194 0.54174 0.78792 0.0
C413 C 0.65895 0.47573 0.74764 0.0
C414 C 0.69298 0.47665 0.72401 0.0
C415 C 0.68239 0.45928 0.69404 0.0
C416 C 0.63552 0.44086 0.68815 0.0
C417 C 0.60041 0.43966 0.71229 0.0
C418 C 0.61275 0.45747 0.74227 0.0
H419 H 0.0885 0.60714 0.25169 0.0
H420 H 0.01324 0.6135 0.1626 0.0
H421 H 0.98107 0.69483 0.1765 0.0
H422 H 0.99621 0.65427 0.29609 0.0
H423 H 0.03475 0.68766 0.32245 0.0
H424 H 0.05744 0.63409 0.30358 0.0
H425 H 0.12968 0.68246 0.28038 0.0
H426 H 0.108 0.73604 0.29987 0.0
H427 H 0.11794 0.73685 0.2582 0.0
H428 H 0.9502 0.77124 0.20367 0.0
H429 H 0.92955 0.83904 0.23893 0.0
H430 H 0.02454 0.77844 0.3102 0.0
C431 C 0.06618 0.62612 0.23472 0.0
C432 C 0.05325 0.60444 0.20609 0.0
C433 C 0.02394 0.63008 0.18449 0.0
C434 C 0.0053 0.67595 0.19233 0.0
C435 C 0.01696 0.69526 0.22159 0.0
C436 C 0.04745 0.67132 0.24216 0.0
C437 C 0.05243 0.69772 0.27286 0.0
C438 C 0.0341 0.66657 0.30034 0.0
C439 C 0.10514 0.71426 0.27812 0.0
C440 C 0.01919 0.74006 0.26677 0.0
C441 C 0.99911 0.73831 0.23711 0.0
C442 C 0.96619 0.7732 0.22678 0.0
C443 C 0.95448 0.81137 0.24706 0.0
C444 C 0.97558 0.81412 0.27733 0.0
C445 C 0.00782 0.77753 0.28725 0.0
H446 H 0.92794 0.99134 0.75935 0.0
H447 H 0.88257 0.07679 0.67905 0.0
H448 H 0.79678 0.05674 0.69054 0.0
H449 H 0.8359 0.89674 0.75351 0.0
H450 H 0.82858 0.89253 0.79533 0.0
H451 H 0.88628 0.91009 0.77906 0.0
H452 H 0.88477 0.98853 0.81228 0.0
H453 H 0.8271 0.9711 0.82854 0.0
H454 H 0.83345 0.02891 0.80929 0.0
H455 H 0.71654 0.02911 0.71154 0.0
H456 H 0.64656 1.00232 0.74284 0.0
H457 H 0.74448 0.93789 0.81105 0.0
C458 C 0.90005 0.00537 0.74389 0.0
C459 C 0.91184 0.03535 0.71813 0.0
C460 C 0.87425 0.05376 0.69888 0.0
C461 C 0.82555 0.04232 0.70512 0.0
C462 C 0.81525 0.01277 0.73079 0.0
C463 C 0.85141 0.99488 0.75002 0.0
C464 C 0.83058 0.96682 0.77739 0.0
C465 C 0.84627 0.91337 0.77623 0.0
C466 C 0.84481 0.99027 0.80872 0.0
C467 C 0.77684 0.97236 0.77085 0.0
C468 C 0.76887 0.99824 0.74357 0.0
C469 C 0.7223 0.00873 0.73289 0.0
C470 C 0.68278 0.99321 0.75086 0.0
C471 C 0.69002 0.9681 0.77949 0.0
C472 C 0.73777 0.95703 0.78932 0.0
H473 H 0.5267 0.92909 0.24358 0.0
H474 H 0.40631 0.88833 0.18339 0.0
H475 H 0.4206 0.80218 0.19675 0.0
H476 H 0.60333 0.81761 0.22872 0.0
H477 H 0.62485 0.82139 0.26851 0.0
H478 H 0.60779 0.87556 0.24743 0.0
H479 H 0.55004 0.89411 0.29516 0.0
H480 H 0.5646 0.83702 0.31318 0.0
H481 H 0.50229 0.85163 0.30414 0.0
H482 H 0.44442 0.72117 0.22 0.0
H483 H 0.4732 0.65279 0.25278 0.0
H484 H 0.57432 0.74814 0.29987 0.0
C485 C 0.5037 0.90216 0.23267 0.0
C486 C 0.46529 0.91561 0.21236 0.0
C487 C 0.43605 0.87898 0.19888 0.0
C488 C 0.44397 0.82996 0.20631 0.0
C489 C 0.48136 0.81825 0.2271 0.0
C490 C 0.51086 0.85337 0.23996 0.0
C491 C 0.54635 0.832 0.26333 0.0
C492 C 0.59873 0.8369 0.25134 0.0
C493 C 0.54041 0.85506 0.29587 0.0
C494 C 0.53037 0.77968 0.26311 0.0
C495 C 0.49391 0.77214 0.2413 0.0
C496 C 0.47316 0.72666 0.23691 0.0
C497 C 0.48973 0.68812 0.25552 0.0
C498 C 0.52598 0.69561 0.27849 0.0
C499 C 0.54674 0.74177 0.28225 0.0
H500 H 0.26556 0.47833 0.71458 0.0
H501 H 0.35934 0.47697 0.79636 0.0
H502 H 0.29013 0.50029 0.82956 0.0
H503 H 0.19701 0.58138 0.73579 0.0
H504 H 0.14032 0.55829 0.7209 0.0
H505 H 0.19678 0.53879 0.70387 0.0
H506 H 0.17375 0.44932 0.71452 0.0
H507 H 0.11719 0.4683 0.73175 0.0
H508 H 0.15856 0.43063 0.75373 0.0
H509 H 0.20998 0.52759 0.8539 0.0
H510 H 0.12595 0.55453 0.86631 0.0
H511 H 0.08726 0.53748 0.76838 0.0
C512 C 0.27148 0.48238 0.73949 0.0
C513 C 0.31797 0.47584 0.75273 0.0
C514 C 0.32409 0.48184 0.78552 0.0
C515 C 0.28497 0.49509 0.80468 0.0
C516 C 0.23979 0.5021 0.79081 0.0
C517 C 0.23288 0.49568 0.75898 0.0
C518 C 0.18109 0.50651 0.74968 0.0
C519 C 0.17869 0.54876 0.72618 0.0
C520 C 0.15617 0.46098 0.73665 0.0
C521 C 0.16025 0.52068 0.78108 0.0
C522 C 0.19432 0.51779 0.80467 0.0
C523 C 0.18289 0.52986 0.83559 0.0
C524 C 0.13523 0.54523 0.84245 0.0
C525 C 0.10001 0.54854 0.8184 0.0
C526 C 0.11314 0.53583 0.78745 0.0
H527 H 0.05695 0.26687 0.22437 0.0
H528 H 0.99339 0.36306 0.29338 0.0
H529 H 0.96481 0.29236 0.32359 0.0
H530 H 0.9635 0.18132 0.2239 0.0
H531 H 1.00286 0.12952 0.21979 0.0
H532 H 0.02165 0.18756 0.20495 0.0
H533 H 0.10024 0.18271 0.23804 0.0
H534 H 0.0815 0.12475 0.25316 0.0
H535 H 0.09615 0.17315 0.27973 0.0
H536 H 0.93605 0.21031 0.3435 0.0
H537 H 0.91678 0.12383 0.3536 0.0
H538 H 1.00175 0.08348 0.27221 0.0
C539 C 0.0377 0.27313 0.24608 0.0
C540 C 0.02736 0.32046 0.25645 0.0
C541 C 1.00198 0.32707 0.28501 0.0
C542 C 0.9854 0.28715 0.3023 0.0
C543 C 0.99502 0.24093 0.29093 0.0
C544 C 0.02125 0.23382 0.26372 0.0
C545 C 0.02577 0.1807 0.25604 0.0
C546 C 1.00201 0.16913 0.2243 0.0
C547 C 0.07915 0.16444 0.25681 0.0
C548 C 0.99737 0.15904 0.28285 0.0
C549 C 0.97966 0.19415 0.30275 0.0
C550 C 0.95033 0.18242 0.32832 0.0
C551 C 0.93935 0.13338 0.33379 0.0
C552 C 0.95809 0.09699 0.3139 0.0
C553 C 0.9874 0.11033 0.28818 0.0
H554 H 0.40663 0.91689 0.77539 0.0
H555 H 0.39167 0.9745 0.86923 0.0
H556 H 0.312 0.0103 0.85424 0.0
H557 H 0.3612 0.01811 0.73583 0.0
H558 H 0.33093 0.98379 0.70576 0.0
H559 H 0.38393 0.95933 0.7248 0.0
H560 H 0.33593 0.88239 0.74081 0.0
H561 H 0.28302 0.90606 0.72122 0.0
H562 H 0.27955 0.8887 0.76184 0.0
H563 H 0.2363 0.04455 0.82665 0.0
H564 H 0.16875 0.06727 0.79138 0.0
H565 H 0.2371 0.98736 0.71591 0.0
C566 C 0.38636 0.93636 0.79308 0.0
C567 C 0.4052 0.94288 0.82353 0.0
C568 C 0.37753 0.96861 0.84589 0.0
C569 C 0.33256 0.98937 0.83746 0.0
C570 C 0.31606 0.9837 0.80672 0.0
C571 C 0.34202 0.95719 0.78508 0.0
C572 C 0.31779 0.95717 0.75335 0.0
C573 C 0.35041 0.98103 0.72848 0.0
C574 C 0.30319 0.90552 0.74375 0.0
C575 C 0.27389 0.98801 0.76026 0.0
C576 C 0.2734 0.00322 0.79108 0.0
C577 C 0.23628 0.03251 0.80257 0.0
C578 C 0.19819 0.04544 0.78226 0.0
C579 C 0.19747 0.02897 0.75081 0.0
C580 C 0.2364 1.00057 0.73974 0.0
H581 H 0.59414 0.39621 0.29425 0.0
H582 H 0.46527 0.42675 0.34867 0.0
H583 H 0.43352 0.34477 0.3371 0.0
H584 H 0.53261 0.3421 0.23382 0.0
H585 H 0.57827 0.29744 0.22482 0.0
H586 H 0.59558 0.35372 0.24268 0.0
H587 H 0.63685 0.30723 0.28829 0.0
H588 H 0.62015 0.25061 0.27036 0.0
H589 H 0.60255 0.26307 0.31015 0.0
H590 H 0.41265 0.26241 0.31534 0.0
H591 H 0.4024 0.18883 0.28274 0.0
H592 H 0.54209 0.21645 0.23941 0.0
C593 C 0.56023 0.38462 0.3047 0.0
C594 C 0.5326 0.41659 0.32305 0.0
C595 C 0.48719 0.40181 0.33514 0.0
C596 C 0.46899 0.35549 0.3287 0.0
C597 C 0.49645 0.32495 0.30974 0.0
C598 C 0.54108 0.339 0.29784 0.0
C599 C 0.5603 0.30241 0.2747 0.0
C600 C 0.56705 0.3253 0.24209 0.0
C601 C 0.60777 0.27947 0.2866 0.0
C602 C 0.51912 0.26624 0.27489 0.0
C603 C 0.48307 0.27916 0.2957 0.0
C604 C 0.44082 0.25172 0.29912 0.0
C605 C 0.43523 0.21015 0.28055 0.0
C606 C 0.47122 0.19737 0.25847 0.0
C607 C 0.51375 0.22561 0.25594 0.0
H608 H 0.13307 0.28563 0.16829 0.0
H609 H 0.21033 0.40392 0.12379 0.0
H610 H 0.27986 0.34995 0.11379 0.0
H611 H 0.23246 0.23989 0.2086 0.0
H612 H 0.21717 0.17672 0.2047 0.0
H613 H 0.17 0.22184 0.20372 0.0
H614 H 0.1412 0.18953 0.15 0.0
H615 H 0.18848 0.14432 0.15089 0.0
H616 H 0.18386 0.18533 0.11814 0.0
H617 H 0.34475 0.28889 0.11546 0.0
H618 H 0.40156 0.22223 0.12746 0.0
H619 H 0.28445 0.14081 0.1702 0.0
C620 C 0.16398 0.29945 0.15542 0.0
C621 C 0.16616 0.34873 0.14635 0.0
C622 C 0.20787 0.3662 0.13066 0.0
C623 C 0.24748 0.33579 0.12482 0.0
C624 C 0.24503 0.28787 0.13487 0.0
C625 C 0.20436 0.26947 0.14967 0.0
C626 C 0.2135 0.21789 0.16082 0.0
C627 C 0.20797 0.21388 0.19658 0.0
C628 C 0.17975 0.18215 0.14394 0.0
C629 C 0.26604 0.21096 0.15081 0.0
C630 C 0.28316 0.25178 0.13564 0.0
C631 C 0.33157 0.25627 0.12665 0.0
C632 C 0.3636 0.21835 0.13363 0.0
C633 C 0.34712 0.17624 0.1492 0.0
C634 C 0.29753 0.17211 0.15743 0.0
H635 H 0.22329 0.12787 0.66707 0.0
H636 H 0.10345 0.20782 0.62558 0.0
H637 H 0.15734 0.27837 0.61802 0.0
H638 H 0.27025 0.22425 0.71022 0.0
H639 H 0.3331 0.20773 0.70511 0.0
H640 H 0.28683 0.16183 0.70398 0.0
H641 H 0.31644 0.1348 0.64922 0.0
H642 H 0.36306 0.18052 0.65028 0.0
H643 H 0.32073 0.17876 0.61808 0.0
H644 H 0.22264 0.34248 0.61906 0.0
H645 H 0.29382 0.39479 0.62869 0.0
H646 H 0.37026 0.27254 0.66985 0.0
C647 C 0.20855 0.15975 0.65569 0.0
C648 C 0.15917 0.16205 0.64661 0.0
C649 C 0.1412 0.205 0.63252 0.0
C650 C 0.17155 0.24527 0.62811 0.0
C651 C 0.21978 0.24204 0.63789 0.0
C652 C 0.2382 0.20028 0.6513 0.0
C653 C 0.29032 0.20712 0.66179 0.0
C654 C 0.29538 0.19982 0.69738 0.0
C655 C 0.32466 0.17329 0.64375 0.0
C656 C 0.29812 0.25951 0.65263 0.0
C657 C 0.2572 0.27897 0.63867 0.0
C658 C 0.2551 0.32746 0.62961 0.0
C659 C 0.29574 0.35692 0.6352 0.0
C660 C 0.33789 0.33782 0.64981 0.0
C661 C 0.33897 0.28826 0.65826 0.0
H662 H 0.78548 0.87357 0.36252 0.0
H663 H 0.90297 0.79083 0.40421 0.0
H664 H 0.84681 0.72282 0.41386 0.0
H665 H 0.68569 0.82647 0.41278 0.0
H666 H 0.64315 0.8241 0.38072 0.0
H667 H 0.69066 0.86897 0.38085 0.0
H668 H 0.71943 0.8391 0.32661 0.0
H669 H 0.67223 0.79409 0.32638 0.0
H670 H 0.73471 0.77611 0.32143 0.0
H671 H 0.78089 0.66148 0.41494 0.0
H672 H 0.70955 0.60945 0.40639 0.0
H673 H 0.63389 0.72996 0.36253 0.0
C674 C 0.79886 0.84164 0.37453 0.0
C675 C 0.84838 0.83769 0.38316 0.0
C676 C 0.8651 0.79471 0.39773 0.0
C677 C 0.83345 0.75595 0.40334 0.0
C678 C 0.78515 0.76044 0.39399 0.0
C679 C 0.76778 0.80211 0.37985 0.0
C680 C 0.71529 0.79564 0.36957 0.0
C681 C 0.68172 0.83089 0.38703 0.0
C682 C 0.71015 0.80157 0.33389 0.0
C683 C 0.70631 0.74362 0.37969 0.0
C684 C 0.74699 0.72432 0.39402 0.0
C685 C 0.7486 0.67632 0.40407 0.0
C686 C 0.70782 0.64698 0.39905 0.0
C687 C 0.6658 0.66552 0.384 0.0
C688 C 0.66504 0.7148 0.37458 0.0
H689 H 0.72191 0.86542 0.86649 0.0
H690 H 0.60785 0.78481 0.91309 0.0
H691 H 0.66445 0.71668 0.92173 0.0
H692 H 0.76738 0.76702 0.82481 0.0
H693 H 0.83031 0.78471 0.82694 0.0
H694 H 0.78335 0.82997 0.82894 0.0
H695 H 0.81868 0.86023 0.8816 0.0
H696 H 0.86552 0.81465 0.87977 0.0
H697 H 0.82649 0.81812 0.91353 0.0
H698 H 0.72947 0.6542 0.92018 0.0
H699 H 0.79881 0.60083 0.90835 0.0
H700 H 0.87143 0.72017 0.86149 0.0
C701 C 0.70956 0.83409 0.87953 0.0
C702 C 0.66083 0.83067 0.88973 0.0
C703 C 0.64521 0.78832 0.90549 0.0
C704 C 0.67711 0.74948 0.91051 0.0
C705 C 0.72453 0.7533 0.89943 0.0
C706 C 0.74087 0.79451 0.8843 0.0
C707 C 0.79201 0.78712 0.87187 0.0
C708 C 0.79332 0.79251 0.83602 0.0
C709 C 0.82779 0.82211 0.88765 0.0
C710 C 0.8014 0.73511 0.88188 0.0
C711 C 0.76212 0.71656 0.89801 0.0
C712 C 0.76077 0.6685 0.90798 0.0
C713 C 0.80035 0.63839 0.90106 0.0
C714 C 0.84089 0.65625 0.88423 0.0
C715 C 0.84148 0.70556 0.87491 0.0
H716 H 0.02105 0.56782 0.94973 0.0
H717 H 0.91538 0.45477 0.93084 0.0
H718 H 0.92333 0.42551 0.98484 0.0
H719 H 0.09865 0.49271 0.99982 0.0
H720 H 0.11337 0.54125 0.02631 0.0
H721 H 0.09959 0.5544 0.98593 0.0
H722 H 0.03204 0.6137 1.00342 0.0
H723 H 0.04542 0.60052 0.04384 0.0
H724 H 0.98462 0.59248 0.02906 0.0
H725 H 0.93833 0.41032 0.041 0.0
H726 H 0.96609 0.40448 0.09551 0.0
H727 H 0.06664 0.52314 0.07959 0.0
C728 C 0.99978 0.53681 0.95696 0.0
C729 C 0.96744 0.5138 0.93579 0.0
C730 C 0.94052 0.4731 0.94629 0.0
C731 C 0.94459 0.4562 0.97709 0.0
C732 C 0.97624 0.47979 0.99735 0.0
C733 C 1.004 0.51873 0.98777 0.0
C734 C 0.03612 0.5363 1.0145 0.0
C735 C 0.09014 0.53083 1.00613 0.0
C736 C 0.0238 0.58888 0.02321 0.0
C737 C 0.0216 0.50137 0.04049 0.0
C738 C 0.98658 0.46953 0.02996 0.0
C739 C 0.96604 0.43478 0.04949 0.0
C740 C 0.98198 0.43193 0.08056 0.0
C741 C 0.01872 0.46321 0.09203 0.0
C742 C 0.03875 0.49849 0.07157 0.0
H743 H 0.07138 0.98182 0.5783 0.0
H744 H 0.9583 0.08704 0.59863 0.0
H745 H 0.9283 0.08052 0.54474 0.0
H746 H 0.09508 0.01977 0.49898 0.0
H747 H 0.10281 0.95939 0.48383 0.0
H748 H 0.11674 0.97196 0.52421 0.0
H749 H 0.05746 0.90449 0.54182 0.0
H750 H 0.04359 0.89151 0.50148 0.0
H751 H 0.99536 0.90588 0.5284 0.0
H752 H 0.91213 0.06666 0.48875 0.0
H753 H 0.90491 0.03945 0.43429 0.0
H754 H 0.02432 0.93879 0.44881 0.0
C755 C 0.04025 0.00332 0.57137 0.0
C756 C 0.01739 0.03506 0.59287 0.0
C757 C 0.97648 0.06231 0.58285 0.0
C758 C 0.95918 0.05909 0.55215 0.0
C759 C 0.98261 0.02796 0.53156 0.0
C760 C 0.02176 0.99994 0.54069 0.0
C761 C 0.03892 0.96834 0.51371 0.0
C762 C 0.09152 0.98061 0.50465 0.0
C763 C 0.0335 0.91435 0.52185 0.0
C764 C 1.00347 0.98343 0.48812 0.0
C765 C 0.97178 0.0183 0.49903 0.0
C766 C 0.93647 0.03909 0.47993 0.0
C767 C 0.93285 0.02347 0.4489 0.0
C768 C 0.96391 0.98682 0.4371 0.0
C769 C 0.99985 0.96666 0.4571 0.0
H770 H 0.50089 0.91701 0.96008 0.0
H771 H 0.56513 0.05207 0.92791 0.0
H772 H 0.54998 0.0885 0.97906 0.0
H773 H 0.4059 0.97387 1.00798 0.0
H774 H 0.40941 0.92934 0.03881 0.0
H775 H 0.424 0.91264 0.99917 0.0
H776 H 0.50817 0.88179 0.01751 0.0
H777 H 0.49394 0.89862 0.05718 0.0
H778 H 0.54786 0.92203 0.03867 0.0
H779 H 0.53232 0.11054 0.03265 0.0
H780 H 0.50839 0.11988 0.08714 0.0
H781 H 0.45231 0.97256 0.08811 0.0
C782 C 0.51138 0.95433 0.96378 0.0
C783 C 0.53453 0.98143 0.93974 0.0
C784 C 0.54771 0.03019 0.94571 0.0
C785 C 0.53922 0.05141 0.9748 0.0
C786 C 0.5172 0.02376 0.99797 0.0
C787 C 0.50299 0.97648 0.99301 0.0
C788 C 0.48005 0.95559 0.0226 0.0
C789 C 0.42666 0.94206 0.01678 0.0
C790 C 0.50926 0.91191 0.0347 0.0
C791 C 0.4842 0.99854 0.0448 0.0
C792 C 0.50592 0.03716 0.02975 0.0
C793 C 0.51495 0.08074 0.04472 0.0
C794 C 0.50114 0.08551 0.07592 0.0
C795 C 0.4781 0.04706 0.0923 0.0
C796 C 0.46964 1.00273 0.07639 0.0
H797 H 0.4982 0.58603 0.45883 0.0
H798 H 0.57192 0.45448 0.42918 0.0
H799 H 0.56125 0.41986 0.4813 0.0
H800 H 0.5465 0.58771 0.53803 0.0
H801 H 0.49088 0.60767 0.55612 0.0
H802 H 0.50393 0.62417 0.51617 0.0
H803 H 0.42242 0.58661 0.49833 0.0
H804 H 0.40901 0.57024 0.53824 0.0
H805 H 0.40902 0.52454 0.50819 0.0
H806 H 0.54586 0.3986 0.53551 0.0
H807 H 0.52056 0.38856 0.58986 0.0
H808 H 0.45307 0.53107 0.58791 0.0
C809 C 0.51194 0.54994 0.46335 0.0
C810 C 0.53621 0.52334 0.43955 0.0
C811 C 0.55338 0.47605 0.44662 0.0
C812 C 0.54762 0.45584 0.47635 0.0
C813 C 0.52422 0.4829 0.49917 0.0
C814 C 0.50613 0.52866 0.49325 0.0
C815 C 0.48152 0.54871 0.52251 0.0
C816 C 0.50725 0.59481 0.53387 0.0
C817 C 0.42727 0.55807 0.51645 0.0
C818 C 0.48889 0.50694 0.5455 0.0
C819 C 0.51399 0.46975 0.53124 0.0
C820 C 0.5259 0.4273 0.54696 0.0
C821 C 0.51121 0.42203 0.57803 0.0
C822 C 0.48436 0.45878 0.59348 0.0
C823 C 0.47348 0.50223 0.57693 0.0
loop_
_geom_bond_atom_site_label_1
_geom_bond_atom_site_label_2
_geom_bond_distance
_geom_bond_site_symmetry_2
_ccdc_geom_bond_type
Fe0 O2 1.918 . S
Fe0 O5 1.997 . S
Fe0 O6 2.002 . S
Fe0 O11 1.976 . S
Fe0 O14 1.996 1_455 S
Fe1 O2 1.918 . S
Fe1 O9 1.997 . S
Fe1 O12 1.996 . S
Fe1 O16 1.976 . S
Fe1 O19 2.002 . S
O2 Fe0 1.918 . S
O2 Fe1 1.918 . S
O2 Fe3 1.918 . S
Fe3 O2 1.918 . S
Fe3 O4 2.002 . S
Fe3 O13 1.976 1_455 S
Fe3 O17 1.996 . S
Fe3 O20 1.997 . S
O4 Fe3 2.002 . S
O4 C21 1.295 . S
O5 Fe0 1.997 . S
O5 C21 1.235 . S
O6 Fe0 2.002 . S
O6 C7 1.295 . S
C7 O6 1.295 . S
C7 O9 1.235 . S
C8 O13 1.287 . S
C8 O14 1.255 . S
O9 Fe1 1.997 . S
O9 C7 1.235 . S
C10 O16 1.287 . S
C10 O17 1.255 . S
O11 Fe0 1.976 . S
O11 C18 1.287 . S
O12 Fe1 1.996 . S
O12 C18 1.255 . S
O13 Fe3 1.976 1_655 S
O13 C8 1.287 . S
O14 Fe0 1.996 1_655 S
O14 C8 1.255 . S
C15 O19 1.295 . S
C15 O20 1.235 . S
O16 Fe1 1.976 . S
O16 C10 1.287 . S
O17 Fe3 1.996 . S
O17 C10 1.255 . S
C18 O11 1.287 . S
C18 O12 1.255 . S
O19 Fe1 2.002 . S
O19 C15 1.295 . S
O20 Fe3 1.997 . S
O20 C15 1.235 . S
C21 O4 1.295 . S
C21 O5 1.235 . S
Fe22 O24 1.918 . S
Fe22 O27 1.997 . S
Fe22 O28 2.002 . S
Fe22 O33 1.976 1_455 S
Fe22 O36 1.996 . S
Fe23 O24 1.918 . S
Fe23 O31 1.997 . S
Fe23 O34 1.996 1_455 S
Fe23 O38 1.976 1_545 S
Fe23 O41 2.002 . S
O24 Fe22 1.918 . S
O24 Fe23 1.918 . S
O24 Fe25 1.918 . S
Fe25 O24 1.918 . S
Fe25 O26 2.002 . S
Fe25 O35 1.976 . S
Fe25 O39 1.996 1_545 S
Fe25 O42 1.997 . S
O26 Fe25 2.002 . S
O26 C43 1.295 . S
O27 Fe22 1.997 . S
O27 C43 1.235 . S
O28 Fe22 2.002 . S
O28 C29 1.295 . S
C29 O28 1.295 . S
C29 O31 1.235 . S
C30 O35 1.287 . S
C30 O36 1.255 . S
O31 Fe23 1.997 . S
O31 C29 1.235 . S
C32 O38 1.287 . S
C32 O39 1.255 . S
O33 Fe22 1.976 1_655 S
O33 C40 1.287 . S
O34 Fe23 1.996 1_655 S
O34 C40 1.255 . S
O35 Fe25 1.976 . S
O35 C30 1.287 . S
O36 Fe22 1.996 . S
O36 C30 1.255 . S
C37 O41 1.295 . S
C37 O42 1.235 . S
O38 Fe23 1.976 1_565 S
O38 C32 1.287 . S
O39 Fe25 1.996 1_565 S
O39 C32 1.255 . S
C40 O33 1.287 . S
C40 O34 1.255 . S
O41 Fe23 2.002 . S
O41 C37 1.295 . S
O42 Fe25 1.997 . S
O42 C37 1.235 . S
C43 O26 1.295 . S
C43 O27 1.235 . S
Fe44 O46 1.918 . S
Fe44 O49 1.997 . S
Fe44 O50 2.002 . S
Fe44 O55 1.976 . S
Fe44 O58 1.996 1_545 S
Fe45 O46 1.918 . S
Fe45 O53 1.997 . S
Fe45 O56 1.996 . S
Fe45 O60 1.976 . S
Fe45 O63 2.002 . S
O46 Fe44 1.918 . S
O46 Fe45 1.918 . S
O46 Fe47 1.918 . S
Fe47 O46 1.918 . S
Fe47 O48 2.002 . S
Fe47 O57 1.976 1_545 S
Fe47 O61 1.996 . S
Fe47 O64 1.997 . S
O48 Fe47 2.002 . S
O48 C65 1.295 . S
O49 Fe44 1.997 . S
O49 C65 1.235 . S
O50 Fe44 2.002 . S
O50 C51 1.295 . S
C51 O50 1.295 . S
C51 O53 1.235 . S
C52 O57 1.287 . S
C52 O58 1.255 . S
O53 Fe45 1.997 . S
O53 C51 1.235 . S
C54 O60 1.287 . S
C54 O61 1.255 . S
O55 Fe44 1.976 . S
O55 C62 1.287 . S
O56 Fe45 1.996 . S
O56 C62 1.255 . S
O57 Fe47 1.976 1_565 S
O57 C52 1.287 . S
O58 Fe44 1.996 1_565 S
O58 C52 1.255 . S
C59 O63 1.295 . S
C59 O64 1.235 . S
O60 Fe45 1.976 . S
O60 C54 1.287 . S
O61 Fe47 1.996 . S
O61 C54 1.255 . S
C62 O55 1.287 . S
C62 O56 1.255 . S
O63 Fe45 2.002 . S
O63 C59 1.295 . S
O64 Fe47 1.997 . S
O64 C59 1.235 . S
C65 O48 1.295 . S
C65 O49 1.235 . S
Fe66 O68 1.918 . S
Fe66 O71 1.997 . S
Fe66 O72 2.002 . S
Fe66 O77 1.976 . S
Fe66 O80 1.996 . S
Fe67 O68 1.918 . S
Fe67 O75 1.997 . S
Fe67 O78 1.996 . S
Fe67 O82 1.976 . S
Fe67 O85 2.002 . S
O68 Fe66 1.918 . S
O68 Fe67 1.918 . S
O68 Fe69 1.918 . S
Fe69 O68 1.918 . S
Fe69 O70 2.002 . S
Fe69 O79 1.976 . S
Fe69 O83 1.996 . S
Fe69 O86 1.997 . S
O70 Fe69 2.002 . S
O70 C87 1.295 . S
O71 Fe66 1.997 . S
O71 C87 1.235 . S
O72 Fe66 2.002 . S
O72 C73 1.295 . S
C73 O72 1.295 . S
C73 O75 1.235 . S
C74 O79 1.287 . S
C74 O80 1.255 . S
O75 Fe67 1.997 . S
O75 C73 1.235 . S
C76 O82 1.287 . S
C76 O83 1.255 . S
O77 Fe66 1.976 . S
O77 C84 1.287 . S
O78 Fe67 1.996 . S
O78 C84 1.255 . S
O79 Fe69 1.976 . S
O79 C74 1.287 . S
O80 Fe66 1.996 . S
O80 C74 1.255 . S
C81 O85 1.295 . S
C81 O86 1.235 . S
O82 Fe67 1.976 . S
O82 C76 1.287 . S
O83 Fe69 1.996 . S
O83 C76 1.255 . S
C84 O77 1.287 . S
C84 O78 1.255 . S
O85 Fe67 2.002 . S
O85 C81 1.295 . S
O86 Fe69 1.997 . S
O86 C81 1.235 . S
C87 O70 1.295 . S
C87 O71 1.235 . S
Fe88 O90 1.918 . S
Fe88 O93 1.997 . S
Fe88 O94 2.002 . S
Fe88 O99 1.976 . S
Fe88 O102 1.996 . S
Fe89 O90 1.918 . S
Fe89 O97 1.997 . S
Fe89 O100 1.996 . S
Fe89 O104 1.976 . S
Fe89 O107 2.002 . S
O90 Fe88 1.918 . S
O90 Fe89 1.918 . S
O90 Fe91 1.918 . S
Fe91 O90 1.918 . S
Fe91 O92 2.002 . S
Fe91 O101 1.976 . S
Fe91 O105 1.996 . S
Fe91 O108 1.997 . S
O92 Fe91 2.002 . S
O92 C109 1.295 . S
O93 Fe88 1.997 . S
O93 C109 1.235 . S
O94 Fe88 2.002 . S
O94 C95 1.295 . S
C95 O94 1.295 . S
C95 O97 1.235 . S
C96 O101 1.287 . S
C96 O102 1.255 . S
O97 Fe89 1.997 . S
O97 C95 1.235 . S
C98 O104 1.287 . S
C98 O105 1.255 . S
O99 Fe88 1.976 . S
O99 C106 1.287 . S
O100 Fe89 1.996 . S
O100 C106 1.255 . S
O101 Fe91 1.976 . S
O101 C96 1.287 . S
O102 Fe88 1.996 . S
O102 C96 1.255 . S
C103 O107 1.295 . S
C103 O108 1.235 . S
O104 Fe89 1.976 . S
O104 C98 1.287 . S
O105 Fe91 1.996 . S
O105 C98 1.255 . S
C106 O99 1.287 . S
C106 O100 1.255 . S
O107 Fe89 2.002 . S
O107 C103 1.295 . S
O108 Fe91 1.997 . S
O108 C103 1.235 . S
C109 O92 1.295 . S
C109 O93 1.235 . S
Fe110 O112 1.918 . S
Fe110 O115 1.997 . S
Fe110 O116 2.002 . S
Fe110 O121 1.976 1_655 S
Fe110 O124 1.996 . S
Fe111 O112 1.918 . S
Fe111 O119 1.997 . S
Fe111 O122 1.996 1_655 S
Fe111 O126 1.976 . S
Fe111 O129 2.002 . S
O112 Fe110 1.918 . S
O112 Fe111 1.918 . S
O112 Fe113 1.918 . S
Fe113 O112 1.918 . S
Fe113 O114 2.002 . S
Fe113 O123 1.976 . S
Fe113 O127 1.996 . S
Fe113 O130 1.997 . S
O114 Fe113 2.002 . S
O114 C131 1.295 . S
O115 Fe110 1.997 . S
O115 C131 1.235 . S
O116 Fe110 2.002 . S
O116 C117 1.295 . S
C117 O116 1.295 . S
C117 O119 1.235 . S
C118 O123 1.287 . S
C118 O124 1.255 . S
O119 Fe111 1.997 . S
O119 C117 1.235 . S
C120 O126 1.287 . S
C120 O127 1.255 . S
O121 Fe110 1.976 1_455 S
O121 C128 1.287 . S
O122 Fe111 1.996 1_455 S
O122 C128 1.255 . S
O123 Fe113 1.976 . S
O123 C118 1.287 . S
O124 Fe110 1.996 . S
O124 C118 1.255 . S
C125 O129 1.295 . S
C125 O130 1.235 . S
O126 Fe111 1.976 . S
O126 C120 1.287 . S
O127 Fe113 1.996 . S
O127 C120 1.255 . S
C128 O121 1.287 . S
C128 O122 1.255 . S
O129 Fe111 2.002 . S
O129 C125 1.295 . S
O130 Fe113 1.997 . S
O130 C125 1.235 . S
C131 O114 1.295 . S
C131 O115 1.235 . S
Fe132 O134 1.918 . S
Fe132 O137 1.997 . S
Fe132 O138 2.002 . S
Fe132 O143 1.976 1_655 S
Fe132 O146 1.996 1_565 S
Fe133 O134 1.918 . S
Fe133 O141 1.997 . S
Fe133 O144 1.996 1_655 S
Fe133 O148 1.976 . S
Fe133 O151 2.002 . S
O134 Fe132 1.918 . S
O134 Fe133 1.918 . S
O134 Fe135 1.918 . S
Fe135 O134 1.918 . S
Fe135 O136 2.002 . S
Fe135 O145 1.976 1_565 S
Fe135 O149 1.996 . S
Fe135 O152 1.997 . S
O136 Fe135 2.002 . S
O136 C153 1.295 . S
O137 Fe132 1.997 . S
O137 C153 1.235 . S
O138 Fe132 2.002 . S
O138 C139 1.295 . S
C139 O138 1.295 . S
C139 O141 1.235 . S
C140 O145 1.287 . S
C140 O146 1.255 . S
O141 Fe133 1.997 . S
O141 C139 1.235 . S
C142 O148 1.287 . S
C142 O149 1.255 . S
O143 Fe132 1.976 1_455 S
O143 C150 1.287 . S
O144 Fe133 1.996 1_455 S
O144 C150 1.255 . S
O145 Fe135 1.976 1_545 S
O145 C140 1.287 . S
O146 Fe132 1.996 1_545 S
O146 C140 1.255 . S
C147 O151 1.295 . S
C147 O152 1.235 . S
O148 Fe133 1.976 . S
O148 C142 1.287 . S
O149 Fe135 1.996 . S
O149 C142 1.255 . S
C150 O143 1.287 . S
C150 O144 1.255 . S
O151 Fe133 2.002 . S
O151 C147 1.295 . S
O152 Fe135 1.997 . S
O152 C147 1.235 . S
C153 O136 1.295 . S
C153 O137 1.235 . S
Fe154 O156 1.918 . S
Fe154 O159 1.997 . S
Fe154 O160 2.002 . S
Fe154 O165 1.976 . S
Fe154 O168 1.996 1_565 S
Fe155 O156 1.918 . S
Fe155 O163 1.997 . S
Fe155 O166 1.996 . S
Fe155 O170 1.976 . S
Fe155 O173 2.002 . S
O156 Fe154 1.918 . S
O156 Fe155 1.918 . S
O156 Fe157 1.918 . S
Fe157 O156 1.918 . S
Fe157 O158 2.002 . S
Fe157 O167 1.976 1_565 S
Fe157 O171 1.996 . S
Fe157 O174 1.997 . S
O158 Fe157 2.002 . S
O158 C175 1.295 . S
O159 Fe154 1.997 . S
O159 C175 1.235 . S
O160 Fe154 2.002 . S
O160 C161 1.295 . S
C161 O160 1.295 . S
C161 O163 1.235 . S
C162 O167 1.287 . S
C162 O168 1.255 . S
O163 Fe155 1.997 . S
O163 C161 1.235 . S
C164 O170 1.287 . S
C164 O171 1.255 . S
O165 Fe154 1.976 . S
O165 C172 1.287 . S
O166 Fe155 1.996 . S
O166 C172 1.255 . S
O167 Fe157 1.976 1_545 S
O167 C162 1.287 . S
O168 Fe154 1.996 1_545 S
O168 C162 1.255 . S
C169 O173 1.295 . S
C169 O174 1.235 . S
O170 Fe155 1.976 . S
O170 C164 1.287 . S
O171 Fe157 1.996 . S
O171 C164 1.255 . S
C172 O165 1.287 . S
C172 O166 1.255 . S
O173 Fe155 2.002 . S
O173 C169 1.295 . S
O174 Fe157 1.997 . S
O174 C169 1.235 . S
C175 O158 1.295 . S
C175 O159 1.235 . S
H176 C188 0.930 . S
H177 C190 0.930 . S
H178 C191 0.930 . S
H179 C195 0.959 . S
H180 C195 0.959 . S
H181 C195 0.961 . S
H182 C196 0.960 . S
H183 C196 0.961 . S
H184 C196 0.959 . S
H185 C199 0.929 . S
H186 C200 0.931 . S
H187 C202 0.930 . S
C188 H176 0.930 . S
C188 C189 1.399 . S
C188 C193 1.399 . S
C189 C188 1.399 . S
C189 C190 1.376 . S
C190 H177 0.930 . S
C190 C189 1.376 . S
C190 C191 1.388 . S
C191 H178 0.930 . S
C191 C190 1.388 . S
C191 C192 1.390 . S
C192 C191 1.390 . S
C192 C193 1.394 . S
C192 C198 1.465 . S
C193 C188 1.399 . S
C193 C192 1.394 . S
C193 C194 1.516 . S
C194 C193 1.516 . S
C194 C195 1.502 . S
C194 C196 1.561 . S
C194 C197 1.526 . S
C195 H179 0.959 . S
C195 H180 0.959 . S
C195 H181 0.961 . S
C195 C194 1.502 . S
C196 H182 0.960 . S
C196 H183 0.961 . S
C196 H184 0.959 . S
C196 C194 1.561 . S
C197 C194 1.526 . S
C197 C198 1.396 . S
C197 C202 1.390 . S
C198 C192 1.465 . S
C198 C197 1.396 . S
C198 C199 1.399 . S
C199 H185 0.929 . S
C199 C198 1.399 . S
C199 C200 1.385 . S
C200 H186 0.931 . S
C200 C199 1.385 . S
C200 C201 1.389 . S
C201 C200 1.389 . S
C201 C202 1.387 . S
C202 H187 0.930 . S
C202 C197 1.390 . S
C202 C201 1.387 . S
H203 C215 0.930 . S
H204 C217 0.930 . S
H205 C218 0.930 . S
H206 C222 0.959 . S
H207 C222 0.959 . S
H208 C222 0.961 . S
H209 C223 0.960 . S
H210 C223 0.961 . S
H211 C223 0.959 . S
H212 C226 0.929 . S
H213 C227 0.931 . S
H214 C229 0.930 . S
C215 H203 0.930 . S
C215 C216 1.399 . S
C215 C220 1.399 . S
C216 C215 1.399 . S
C216 C217 1.376 1_655 S
C217 H204 0.930 . S
C217 C216 1.376 1_455 S
C217 C218 1.388 . S
C218 H205 0.930 . S
C218 C217 1.388 . S
C218 C219 1.390 . S
C219 C218 1.390 . S
C219 C220 1.394 1_455 S
C219 C225 1.465 . S
C220 C215 1.399 . S
C220 C219 1.394 1_655 S
C220 C221 1.516 . S
C221 C220 1.516 . S
C221 C222 1.502 . S
C221 C223 1.561 . S
C221 C224 1.526 . S
C222 H206 0.959 . S
C222 H207 0.959 . S
C222 H208 0.961 . S
C222 C221 1.502 . S
C223 H209 0.960 . S
C223 H210 0.961 . S
C223 H211 0.959 . S
C223 C221 1.561 . S
C224 C221 1.526 . S
C224 C225 1.396 1_655 S
C224 C229 1.390 . S
C225 C219 1.465 . S
C225 C224 1.396 1_455 S
C225 C226 1.399 . S
C226 H212 0.929 . S
C226 C225 1.399 . S
C226 C227 1.385 . S
C227 H213 0.931 . S
C227 C226 1.385 . S
C227 C228 1.389 . S
C228 C227 1.389 . S
C228 C229 1.387 1_455 S
C229 H214 0.930 . S
C229 C224 1.390 . S
C229 C228 1.387 1_655 S
H230 C242 0.930 . S
H231 C244 0.930 . S
H232 C245 0.930 . S
H233 C249 0.959 . S
H234 C249 0.959 . S
H235 C249 0.961 . S
H236 C250 0.960 . S
H237 C250 0.961 . S
H238 C250 0.959 1_545 S
H239 C253 0.929 . S
H240 C254 0.931 . S
H241 C256 0.930 . S
C242 H230 0.930 . S
C242 C243 1.399 1_565 S
C242 C247 1.399 . S
C243 C242 1.399 1_545 S
C243 C244 1.376 . S
C244 H231 0.930 . S
C244 C243 1.376 . S
C244 C245 1.388 . S
C245 H232 0.930 . S
C245 C244 1.388 . S
C245 C246 1.390 . S
C246 C245 1.390 . S
C246 C247 1.394 1_545 S
C246 C252 1.465 1_545 S
C247 C242 1.399 . S
C247 C246 1.394 1_565 S
C247 C248 1.516 . S
C248 C247 1.516 . S
C248 C249 1.502 . S
C248 C250 1.561 . S
C248 C251 1.526 . S
C249 H233 0.959 . S
C249 H234 0.959 . S
C249 H235 0.961 . S
C249 C248 1.502 . S
C250 H236 0.960 . S
C250 H237 0.961 . S
C250 H238 0.959 1_565 S
C250 C248 1.561 . S
C251 C248 1.526 . S
C251 C252 1.396 . S
C251 C256 1.390 . S
C252 C246 1.465 1_565 S
C252 C251 1.396 . S
C252 C253 1.399 1_565 S
C253 H239 0.929 . S
C253 C252 1.399 1_545 S
C253 C254 1.385 1_545 S
C254 H240 0.931 . S
C254 C253 1.385 1_565 S
C254 C255 1.389 . S
C255 C254 1.389 . S
C255 C256 1.387 . S
C256 H241 0.930 . S
C256 C251 1.390 . S
C256 C255 1.387 . S
H257 C269 0.930 . S
H258 C271 0.930 . S
H259 C272 0.930 . S
H260 C276 0.959 . S
H261 C276 0.959 . S
H262 C276 0.961 . S
H263 C277 0.960 . S
H264 C277 0.961 . S
H265 C277 0.959 . S
H266 C280 0.929 . S
H267 C281 0.931 . S
H268 C283 0.930 . S
C269 H257 0.930 . S
C269 C270 1.399 . S
C269 C274 1.399 . S
C270 C269 1.399 . S
C270 C271 1.376 . S
C271 H258 0.930 . S
C271 C270 1.376 . S
C271 C272 1.388 . S
C272 H259 0.930 . S
C272 C271 1.388 . S
C272 C273 1.390 . S
C273 C272 1.390 . S
C273 C274 1.394 . S
C273 C279 1.465 . S
C274 C269 1.399 . S
C274 C273 1.394 . S
C274 C275 1.516 . S
C275 C274 1.516 . S
C275 C276 1.502 . S
C275 C277 1.561 . S
C275 C278 1.526 . S
C276 H260 0.959 . S
C276 H261 0.959 . S
C276 H262 0.961 . S
C276 C275 1.502 . S
C277 H263 0.960 . S
C277 H264 0.961 . S
C277 H265 0.959 . S
C277 C275 1.561 . S
C278 C275 1.526 . S
C278 C279 1.396 . S
C278 C283 1.390 . S
C279 C273 1.465 . S
C279 C278 1.396 . S
C279 C280 1.399 . S
C280 H266 0.929 . S
C280 C279 1.399 . S
C280 C281 1.385 . S
C281 H267 0.931 . S
C281 C280 1.385 . S
C281 C282 1.389 . S
C282 C281 1.389 . S
C282 C283 1.387 . S
C283 H268 0.930 . S
C283 C278 1.390 . S
C283 C282 1.387 . S
H284 C296 0.930 . S
H285 C298 0.930 . S
H286 C299 0.930 . S
H287 C303 0.959 . S
H288 C303 0.959 . S
H289 C303 0.961 . S
H290 C304 0.960 . S
H291 C304 0.961 . S
H292 C304 0.959 . S
H293 C307 0.929 . S
H294 C308 0.931 . S
H295 C310 0.930 . S
C296 H284 0.930 . S
C296 C297 1.399 . S
C296 C301 1.399 . S
C297 C296 1.399 . S
C297 C298 1.376 . S
C298 H285 0.930 . S
C298 C297 1.376 . S
C298 C299 1.388 . S
C299 H286 0.930 . S
C299 C298 1.388 . S
C299 C300 1.390 . S
C300 C299 1.390 . S
C300 C301 1.394 . S
C300 C306 1.465 . S
C301 C296 1.399 . S
C301 C300 1.394 . S
C301 C302 1.516 . S
C302 C301 1.516 . S
C302 C303 1.502 . S
C302 C304 1.561 . S
C302 C305 1.526 . S
C303 H287 0.959 . S
C303 H288 0.959 . S
C303 H289 0.961 . S
C303 C302 1.502 . S
C304 H290 0.960 . S
C304 H291 0.961 . S
C304 H292 0.959 . S
C304 C302 1.561 . S
C305 C302 1.526 . S
C305 C306 1.396 . S
C305 C310 1.390 . S
C306 C300 1.465 . S
C306 C305 1.396 . S
C306 C307 1.399 . S
C307 H293 0.929 . S
C307 C306 1.399 . S
C307 C308 1.385 . S
C308 H294 0.931 . S
C308 C307 1.385 . S
C308 C309 1.389 . S
C309 C308 1.389 . S
C309 C310 1.387 . S
C310 H295 0.930 . S
C310 C305 1.390 . S
C310 C309 1.387 . S
H311 C323 0.930 . S
H312 C325 0.930 . S
H313 C326 0.930 . S
H314 C330 0.959 . S
H315 C330 0.959 . S
H316 C330 0.961 . S
H317 C331 0.960 . S
H318 C331 0.971 . S
H319 C331 0.959 . S
H320 C334 0.929 . S
H321 C335 0.931 . S
H322 C337 0.930 . S
C323 H311 0.930 . S
C323 C324 1.399 . S
C323 C328 1.399 . S
C324 C323 1.399 . S
C324 C325 1.376 . S
C325 H312 0.930 . S
C325 C324 1.376 . S
C325 C326 1.388 . S
C326 H313 0.930 . S
C326 C325 1.388 . S
C326 C327 1.390 . S
C327 C326 1.390 . S
C327 C328 1.394 . S
C327 C333 1.465 . S
C328 C323 1.399 . S
C328 C327 1.394 . S
C328 C329 1.516 1_455 S
C329 C328 1.516 1_655 S
C329 C330 1.502 . S
C329 C331 1.561 1_655 S
C329 C332 1.526 . S
C330 H314 0.959 . S
C330 H315 0.959 . S
C330 H316 0.961 . S
C330 C329 1.502 . S
C331 H317 0.960 . S
C331 H318 0.971 . S
C331 H319 0.959 . S
C331 C329 1.561 1_455 S
C332 C329 1.526 . S
C332 C333 1.396 1_655 S
C332 C337 1.390 . S
C333 C327 1.465 . S
C333 C332 1.396 1_455 S
C333 C334 1.399 . S
C334 H320 0.929 . S
C334 C333 1.399 . S
C334 C335 1.385 . S
C335 H321 0.931 . S
C335 C334 1.385 . S
C335 C336 1.389 1_455 S
C336 C335 1.389 1_655 S
C336 C337 1.387 . S
C337 H322 0.930 . S
C337 C332 1.390 . S
C337 C336 1.387 . S
H338 C350 0.930 1_565 S
H339 C352 0.930 . S
H340 C353 0.930 . S
H341 C357 0.959 . S
H342 C357 0.959 . S
H343 C357 0.961 . S
H344 C358 0.960 . S
H345 C358 0.961 . S
H346 C358 0.959 . S
H347 C361 0.929 . S
H348 C362 0.931 . S
H349 C364 0.930 . S
C350 H338 0.930 1_545 S
C350 C351 1.399 . S
C350 C355 1.399 . S
C351 C350 1.399 . S
C351 C352 1.376 . S
C352 H339 0.930 . S
C352 C351 1.376 . S
C352 C353 1.388 . S
C353 H340 0.930 . S
C353 C352 1.388 . S
C353 C354 1.390 . S
C354 C353 1.390 . S
C354 C355 1.394 . S
C354 C360 1.465 . S
C355 C350 1.399 . S
C355 C354 1.394 . S
C355 C356 1.516 1_545 S
C356 C355 1.516 1_565 S
C356 C357 1.502 . S
C356 C358 1.561 . S
C356 C359 1.526 . S
C357 H341 0.959 . S
C357 H342 0.959 . S
C357 H343 0.961 . S
C357 C356 1.502 . S
C358 H344 0.960 . S
C358 H345 0.961 . S
C358 H346 0.959 . S
C358 C356 1.561 . S
C359 C356 1.526 . S
C359 C360 1.396 1_565 S
C359 C364 1.390 . S
C360 C354 1.465 . S
C360 C359 1.396 1_545 S
C360 C361 1.399 . S
C361 H347 0.929 . S
C361 C360 1.399 . S
C361 C362 1.385 . S
C362 H348 0.931 . S
C362 C361 1.385 . S
C362 C363 1.389 1_545 S
C363 C362 1.389 1_565 S
C363 C364 1.387 . S
C364 H349 0.930 . S
C364 C359 1.390 . S
C364 C363 1.387 . S
H365 C377 0.930 . S
H366 C379 0.930 . S
H367 C380 0.930 . S
H368 C384 0.959 . S
H369 C384 0.959 . S
H370 C384 0.961 . S
H371 C385 0.960 . S
H372 C385 0.961 . S
H373 C385 0.959 . S
H374 C388 0.929 . S
H375 C389 0.931 . S
H376 C391 0.930 . S
C377 H365 0.930 . S
C377 C378 1.399 . S
C377 C382 1.399 . S
C378 C377 1.399 . S
C378 C379 1.376 . S
C379 H366 0.930 . S
C379 C378 1.376 . S
C379 C380 1.388 . S
C380 H367 0.930 . S
C380 C379 1.388 . S
C380 C381 1.390 . S
C381 C380 1.390 . S
C381 C382 1.394 . S
C381 C387 1.465 . S
C382 C377 1.399 . S
C382 C381 1.394 . S
C382 C383 1.516 . S
C383 C382 1.516 . S
C383 C384 1.502 . S
C383 C385 1.561 . S
C383 C386 1.526 . S
C384 H368 0.959 . S
C384 H369 0.959 . S
C384 H370 0.961 . S
C384 C383 1.502 . S
C385 H371 0.960 . S
C385 H372 0.961 . S
C385 H373 0.959 . S
C385 C383 1.561 . S
C386 C383 1.526 . S
C386 C387 1.396 . S
C386 C391 1.390 . S
C387 C381 1.465 . S
C387 C386 1.396 . S
C387 C388 1.399 . S
C388 H374 0.929 . S
C388 C387 1.399 . S
C388 C389 1.385 . S
C389 H375 0.931 . S
C389 C388 1.385 . S
C389 C390 1.389 . S
C390 C389 1.389 . S
C390 C391 1.387 . S
C391 H376 0.930 . S
C391 C386 1.390 . S
C391 C390 1.387 . S
H392 C404 0.930 . S
H393 C406 0.930 . S
H394 C407 0.930 . S
H395 C411 0.959 . S
H396 C411 0.959 . S
H397 C411 0.961 . S
H398 C412 0.960 . S
H399 C412 0.961 . S
H400 C412 0.959 . S
H401 C415 0.929 . S
H402 C416 0.931 . S
H403 C418 0.930 . S
C404 H392 0.930 . S
C404 C405 1.399 . S
C404 C409 1.399 . S
C405 C404 1.399 . S
C405 C406 1.376 . S
C406 H393 0.930 . S
C406 C405 1.376 . S
C406 C407 1.388 . S
C407 H394 0.930 . S
C407 C406 1.388 . S
C407 C408 1.390 . S
C408 C407 1.390 . S
C408 C409 1.394 . S
C408 C414 1.465 . S
C409 C404 1.399 . S
C409 C408 1.394 . S
C409 C410 1.516 . S
C410 C409 1.516 . S
C410 C411 1.502 . S
C410 C412 1.561 . S
C410 C413 1.526 . S
C411 H395 0.959 . S
C411 H396 0.959 . S
C411 H397 0.961 . S
C411 C410 1.502 . S
C412 H398 0.960 . S
C412 H399 0.961 . S
C412 H400 0.959 . S
C412 C410 1.561 . S
C413 C410 1.526 . S
C413 C414 1.396 . S
C413 C418 1.390 . S
C414 C408 1.465 . S
C414 C413 1.396 . S
C414 C415 1.399 . S
C415 H401 0.929 . S
C415 C414 1.399 . S
C415 C416 1.385 . S
C416 H402 0.931 . S
C416 C415 1.385 . S
C416 C417 1.389 . S
C417 C416 1.389 . S
C417 C418 1.387 . S
C418 H403 0.930 . S
C418 C413 1.390 . S
C418 C417 1.387 . S
H419 C431 0.930 . S
H420 C433 0.930 . S
H421 C434 0.930 . S
H422 C438 0.959 1_655 S
H423 C438 0.959 . S
H424 C438 0.961 . S
H425 C439 0.960 . S
H426 C439 0.961 . S
H427 C439 0.959 . S
H428 C442 0.929 . S
H429 C443 0.931 . S
H430 C445 0.930 . S
C431 H419 0.930 . S
C431 C432 1.399 . S
C431 C436 1.399 . S
C432 C431 1.399 . S
C432 C433 1.376 . S
C433 H420 0.930 . S
C433 C432 1.376 . S
C433 C434 1.388 . S
C434 H421 0.930 . S
C434 C433 1.388 . S
C434 C435 1.390 . S
C435 C434 1.390 . S
C435 C436 1.394 . S
C435 C441 1.465 . S
C436 C431 1.399 . S
C436 C435 1.394 . S
C436 C437 1.516 . S
C437 C436 1.516 . S
C437 C438 1.502 . S
C437 C439 1.561 . S
C437 C440 1.526 . S
C438 H422 0.959 1_455 S
C438 H423 0.959 . S
C438 H424 0.961 . S
C438 C437 1.502 . S
C439 H425 0.960 . S
C439 H426 0.961 . S
C439 H427 0.959 . S
C439 C437 1.561 . S
C440 C437 1.526 . S
C440 C441 1.396 . S
C440 C445 1.390 1_455 S
C441 C435 1.465 . S
C441 C440 1.396 . S
C441 C442 1.399 1_455 S
C442 H428 0.929 . S
C442 C441 1.399 1_655 S
C442 C443 1.385 . S
C443 H429 0.931 . S
C443 C442 1.385 . S
C443 C444 1.389 . S
C444 C443 1.389 . S
C444 C445 1.387 . S
C445 H430 0.930 . S
C445 C440 1.390 1_655 S
C445 C444 1.387 . S
H446 C458 0.930 1_565 S
H447 C460 0.930 . S
H448 C461 0.930 . S
H449 C465 0.959 . S
H450 C465 0.959 . S
H451 C465 0.961 . S
H452 C466 0.960 . S
H453 C466 0.961 . S
H454 C466 0.959 . S
H455 C469 0.929 . S
H456 C470 0.931 . S
H457 C472 0.930 . S
C458 H446 0.930 1_545 S
C458 C459 1.399 . S
C458 C463 1.399 . S
C459 C458 1.399 . S
C459 C460 1.376 . S
C460 H447 0.930 . S
C460 C459 1.376 . S
C460 C461 1.388 . S
C461 H448 0.930 . S
C461 C460 1.388 . S
C461 C462 1.390 . S
C462 C461 1.390 . S
C462 C463 1.394 . S
C462 C468 1.465 . S
C463 C458 1.399 . S
C463 C462 1.394 . S
C463 C464 1.516 1_545 S
C464 C463 1.516 1_565 S
C464 C465 1.502 . S
C464 C466 1.561 . S
C464 C467 1.526 . S
C465 H449 0.959 . S
C465 H450 0.959 . S
C465 H451 0.961 . S
C465 C464 1.502 . S
C466 H452 0.960 . S
C466 H453 0.961 . S
C466 H454 0.959 . S
C466 C464 1.561 . S
C467 C464 1.526 . S
C467 C468 1.396 1_565 S
C467 C472 1.390 . S
C468 C462 1.465 . S
C468 C467 1.396 1_545 S
C468 C469 1.399 . S
C469 H455 0.929 . S
C469 C468 1.399 . S
C469 C470 1.385 . S
C470 H456 0.931 . S
C470 C469 1.385 . S
C470 C471 1.389 1_545 S
C471 C470 1.389 1_565 S
C471 C472 1.387 . S
C472 H457 0.930 . S
C472 C467 1.390 . S
C472 C471 1.387 . S
H473 C485 0.930 . S
H474 C487 0.930 . S
H475 C488 0.930 . S
H476 C492 0.959 . S
H477 C492 0.959 . S
H478 C492 0.961 . S
H479 C493 0.960 . S
H480 C493 0.961 . S
H481 C493 0.959 . S
H482 C496 0.929 . S
H483 C497 0.931 . S
H484 C499 0.930 . S
C485 H473 0.930 . S
C485 C486 1.399 . S
C485 C490 1.399 . S
C486 C485 1.399 . S
C486 C487 1.376 . S
C487 H474 0.930 . S
C487 C486 1.376 . S
C487 C488 1.388 . S
C488 H475 0.930 . S
C488 C487 1.388 . S
C488 C489 1.390 . S
C489 C488 1.390 . S
C489 C490 1.394 . S
C489 C495 1.465 . S
C490 C485 1.399 . S
C490 C489 1.394 . S
C490 C491 1.516 . S
C491 C490 1.516 . S
C491 C492 1.502 . S
C491 C493 1.561 . S
C491 C494 1.526 . S
C492 H476 0.959 . S
C492 H477 0.959 . S
C492 H478 0.961 . S
C492 C491 1.502 . S
C493 H479 0.960 . S
C493 H480 0.961 . S
C493 H481 0.959 . S
C493 C491 1.561 . S
C494 C491 1.526 . S
C494 C495 1.396 . S
C494 C499 1.390 . S
C495 C489 1.465 . S
C495 C494 1.396 . S
C495 C496 1.399 . S
C496 H482 0.929 . S
C496 C495 1.399 . S
C496 C497 1.385 . S
C497 H483 0.931 . S
C497 C496 1.385 . S
C497 C498 1.389 . S
C498 C497 1.389 . S
C498 C499 1.387 . S
C499 H484 0.930 . S
C499 C494 1.390 . S
C499 C498 1.387 . S
H500 C512 0.930 . S
H501 C514 0.930 . S
H502 C515 0.930 . S
H503 C519 0.959 . S
H504 C519 0.959 . S
H505 C519 0.961 . S
H506 C520 0.960 . S
H507 C520 0.961 . S
H508 C520 0.959 . S
H509 C523 0.929 . S
H510 C524 0.931 . S
H511 C526 0.930 . S
C512 H500 0.930 . S
C512 C513 1.399 . S
C512 C517 1.399 . S
C513 C512 1.399 . S
C513 C514 1.376 . S
C514 H501 0.930 . S
C514 C513 1.376 . S
C514 C515 1.388 . S
C515 H502 0.930 . S
C515 C514 1.388 . S
C515 C516 1.390 . S
C516 C515 1.390 . S
C516 C517 1.394 . S
C516 C522 1.465 . S
C517 C512 1.399 . S
C517 C516 1.394 . S
C517 C518 1.516 . S
C518 C517 1.516 . S
C518 C519 1.502 . S
C518 C520 1.561 . S
C518 C521 1.526 . S
C519 H503 0.959 . S
C519 H504 0.959 . S
C519 H505 0.961 . S
C519 C518 1.502 . S
C520 H506 0.960 . S
C520 H507 0.961 . S
C520 H508 0.959 . S
C520 C518 1.561 . S
C521 C518 1.526 . S
C521 C522 1.396 . S
C521 C526 1.390 . S
C522 C516 1.465 . S
C522 C521 1.396 . S
C522 C523 1.399 . S
C523 H509 0.929 . S
C523 C522 1.399 . S
C523 C524 1.385 . S
C524 H510 0.931 . S
C524 C523 1.385 . S
C524 C525 1.389 . S
C525 C524 1.389 . S
C525 C526 1.387 . S
C526 H511 0.930 . S
C526 C521 1.390 . S
C526 C525 1.387 . S
H527 C539 0.930 . S
H528 C541 0.930 . S
H529 C542 0.930 . S
H530 C546 0.959 . S
H531 C546 0.959 . S
H532 C546 0.961 . S
H533 C547 0.960 . S
H534 C547 0.961 . S
H535 C547 0.959 . S
H536 C550 0.929 . S
H537 C551 0.931 . S
H538 C553 0.930 . S
C539 H527 0.930 . S
C539 C540 1.399 . S
C539 C544 1.399 . S
C540 C539 1.399 . S
C540 C541 1.376 1_455 S
C541 H528 0.930 . S
C541 C540 1.376 1_655 S
C541 C542 1.388 . S
C542 H529 0.930 . S
C542 C541 1.388 . S
C542 C543 1.390 . S
C543 C542 1.390 . S
C543 C544 1.394 1_655 S
C543 C549 1.465 . S
C544 C539 1.399 . S
C544 C543 1.394 1_455 S
C544 C545 1.516 . S
C545 C544 1.516 . S
C545 C546 1.502 . S
C545 C547 1.561 1_455 S
C545 C548 1.526 1_455 S
C546 H530 0.959 . S
C546 H531 0.959 . S
C546 H532 0.961 . S
C546 C545 1.502 . S
C547 H533 0.960 . S
C547 H534 0.961 . S
C547 H535 0.959 . S
C547 C545 1.561 1_655 S
C548 C545 1.526 1_655 S
C548 C549 1.396 . S
C548 C553 1.390 . S
C549 C543 1.465 . S
C549 C548 1.396 . S
C549 C550 1.399 . S
C550 H536 0.929 . S
C550 C549 1.399 . S
C550 C551 1.385 . S
C551 H537 0.931 . S
C551 C550 1.385 . S
C551 C552 1.389 . S
C552 C551 1.389 . S
C552 C553 1.387 . S
C553 H538 0.930 . S
C553 C548 1.390 . S
C553 C552 1.387 . S
H554 C566 0.930 . S
H555 C568 0.930 . S
H556 C569 0.926 1_545 S
H557 C573 0.959 1_545 S
H558 C573 0.959 . S
H559 C573 0.961 . S
H560 C574 0.960 . S
H561 C574 0.961 . S
H562 C574 0.959 . S
H563 C577 0.929 . S
H564 C578 0.931 . S
H565 C580 0.930 1_565 S
C566 H554 0.930 . S
C566 C567 1.399 . S
C566 C571 1.399 . S
C567 C566 1.399 . S
C567 C568 1.376 . S
C568 H555 0.930 . S
C568 C567 1.376 . S
C568 C569 1.388 . S
C569 H556 0.926 1_565 S
C569 C568 1.388 . S
C569 C570 1.390 . S
C570 C569 1.390 . S
C570 C571 1.394 . S
C570 C576 1.459 1_565 S
C571 C566 1.399 . S
C571 C570 1.394 . S
C571 C572 1.516 . S
C572 C571 1.516 . S
C572 C573 1.502 . S
C572 C574 1.561 . S
C572 C575 1.526 . S
C573 H557 0.959 1_565 S
C573 H558 0.959 . S
C573 H559 0.961 . S
C573 C572 1.502 . S
C574 H560 0.960 . S
C574 H561 0.961 . S
C574 H562 0.959 . S
C574 C572 1.561 . S
C575 C572 1.526 . S
C575 C576 1.392 1_565 S
C575 C580 1.390 1_565 S
C576 C570 1.459 1_545 S
C576 C575 1.392 1_545 S
C576 C577 1.407 . S
C577 H563 0.929 . S
C577 C576 1.407 . S
C577 C578 1.385 . S
C578 H564 0.931 . S
C578 C577 1.385 . S
C578 C579 1.389 . S
C579 C578 1.389 . S
C579 C580 1.387 . S
C580 H565 0.930 1_545 S
C580 C575 1.390 1_545 S
C580 C579 1.387 . S
H581 C593 0.930 . S
H582 C595 0.930 . S
H583 C596 0.930 . S
H584 C600 0.959 . S
H585 C600 0.959 . S
H586 C600 0.961 . S
H587 C601 0.960 . S
H588 C601 0.961 . S
H589 C601 0.959 . S
H590 C604 0.929 . S
H591 C605 0.931 . S
H592 C607 0.930 . S
C593 H581 0.930 . S
C593 C594 1.399 . S
C593 C598 1.399 . S
C594 C593 1.399 . S
C594 C595 1.376 . S
C595 H582 0.930 . S
C595 C594 1.376 . S
C595 C596 1.388 . S
C596 H583 0.930 . S
C596 C595 1.388 . S
C596 C597 1.390 . S
C597 C596 1.390 . S
C597 C598 1.394 . S
C597 C603 1.465 . S
C598 C593 1.399 . S
C598 C597 1.394 . S
C598 C599 1.516 . S
C599 C598 1.516 . S
C599 C600 1.502 . S
C599 C601 1.561 . S
C599 C602 1.526 . S
C600 H584 0.959 . S
C600 H585 0.959 . S
C600 H586 0.961 . S
C600 C599 1.502 . S
C601 H587 0.960 . S
C601 H588 0.961 . S
C601 H589 0.959 . S
C601 C599 1.561 . S
C602 C599 1.526 . S
C602 C603 1.396 . S
C602 C607 1.390 . S
C603 C597 1.465 . S
C603 C602 1.396 . S
C603 C604 1.399 . S
C604 H590 0.929 . S
C604 C603 1.399 . S
C604 C605 1.385 . S
C605 H591 0.931 . S
C605 C604 1.385 . S
C605 C606 1.389 . S
C606 C605 1.389 . S
C606 C607 1.387 . S
C607 H592 0.930 . S
C607 C602 1.390 . S
C607 C606 1.387 . S
H608 C620 0.930 . S
H609 C622 0.930 . S
H610 C623 0.930 . S
H611 C627 0.959 . S
H612 C627 0.959 . S
H613 C627 0.961 . S
H614 C628 0.960 . S
H615 C628 0.961 . S
H616 C628 0.959 . S
H617 C631 0.929 . S
H618 C632 0.931 . S
H619 C634 0.930 . S
C620 H608 0.930 . S
C620 C621 1.399 . S
C620 C625 1.399 . S
C621 C620 1.399 . S
C621 C622 1.376 . S
C622 H609 0.930 . S
C622 C621 1.376 . S
C622 C623 1.388 . S
C623 H610 0.930 . S
C623 C622 1.388 . S
C623 C624 1.390 . S
C624 C623 1.390 . S
C624 C625 1.394 . S
C624 C630 1.465 . S
C625 C620 1.399 . S
C625 C624 1.394 . S
C625 C626 1.516 . S
C626 C625 1.516 . S
C626 C627 1.502 . S
C626 C628 1.561 . S
C626 C629 1.526 . S
C627 H611 0.959 . S
C627 H612 0.959 . S
C627 H613 0.961 . S
C627 C626 1.502 . S
C628 H614 0.960 . S
C628 H615 0.961 . S
C628 H616 0.959 . S
C628 C626 1.561 . S
C629 C626 1.526 . S
C629 C630 1.396 . S
C629 C634 1.390 . S
C630 C624 1.465 . S
C630 C629 1.396 . S
C630 C631 1.399 . S
C631 H617 0.929 . S
C631 C630 1.399 . S
C631 C632 1.385 . S
C632 H618 0.931 . S
C632 C631 1.385 . S
C632 C633 1.389 . S
C633 C632 1.389 . S
C633 C634 1.387 . S
C634 H619 0.930 . S
C634 C629 1.390 . S
C634 C633 1.387 . S
H635 C647 0.930 . S
H636 C649 0.930 . S
H637 C650 0.930 . S
H638 C654 0.959 . S
H639 C654 0.959 . S
H640 C654 0.961 . S
H641 C655 0.960 . S
H642 C655 0.961 . S
H643 C655 0.959 . S
H644 C658 0.929 . S
H645 C659 0.931 . S
H646 C661 0.930 . S
C647 H635 0.930 . S
C647 C648 1.399 . S
C647 C652 1.399 . S
C648 C647 1.399 . S
C648 C649 1.376 . S
C649 H636 0.930 . S
C649 C648 1.376 . S
C649 C650 1.388 . S
C650 H637 0.930 . S
C650 C649 1.388 . S
C650 C651 1.390 . S
C651 C650 1.390 . S
C651 C652 1.394 . S
C651 C657 1.465 . S
C652 C647 1.399 . S
C652 C651 1.394 . S
C652 C653 1.516 . S
C653 C652 1.516 . S
C653 C654 1.502 . S
C653 C655 1.561 . S
C653 C656 1.526 . S
C654 H638 0.959 . S
C654 H639 0.959 . S
C654 H640 0.961 . S
C654 C653 1.502 . S
C655 H641 0.960 . S
C655 H642 0.961 . S
C655 H643 0.959 . S
C655 C653 1.561 . S
C656 C653 1.526 . S
C656 C657 1.396 . S
C656 C661 1.390 . S
C657 C651 1.465 . S
C657 C656 1.396 . S
C657 C658 1.399 . S
C658 H644 0.929 . S
C658 C657 1.399 . S
C658 C659 1.385 . S
C659 H645 0.931 . S
C659 C658 1.385 . S
C659 C660 1.389 . S
C660 C659 1.389 . S
C660 C661 1.387 . S
C661 H646 0.930 . S
C661 C656 1.390 . S
C661 C660 1.387 . S
H662 C674 0.930 . S
H663 C676 0.930 . S
H664 C677 0.930 . S
H665 C681 0.959 . S
H666 C681 0.959 . S
H667 C681 0.961 . S
H668 C682 0.960 . S
H669 C682 0.961 . S
H670 C682 0.959 . S
H671 C685 0.929 . S
H672 C686 0.931 . S
H673 C688 0.930 . S
C674 H662 0.930 . S
C674 C675 1.399 . S
C674 C679 1.399 . S
C675 C674 1.399 . S
C675 C676 1.376 . S
C676 H663 0.930 . S
C676 C675 1.376 . S
C676 C677 1.388 . S
C677 H664 0.930 . S
C677 C676 1.388 . S
C677 C678 1.390 . S
C678 C677 1.390 . S
C678 C679 1.394 . S
C678 C684 1.465 . S
C679 C674 1.399 . S
C679 C678 1.394 . S
C679 C680 1.516 . S
C680 C679 1.516 . S
C680 C681 1.502 . S
C680 C682 1.561 . S
C680 C683 1.526 . S
C681 H665 0.959 . S
C681 H666 0.959 . S
C681 H667 0.961 . S
C681 C680 1.502 . S
C682 H668 0.960 . S
C682 H669 0.961 . S
C682 H670 0.959 . S
C682 C680 1.561 . S
C683 C680 1.526 . S
C683 C684 1.396 . S
C683 C688 1.390 . S
C684 C678 1.465 . S
C684 C683 1.396 . S
C684 C685 1.399 . S
C685 H671 0.929 . S
C685 C684 1.399 . S
C685 C686 1.385 . S
C686 H672 0.931 . S
C686 C685 1.385 . S
C686 C687 1.389 . S
C687 C686 1.389 . S
C687 C688 1.387 . S
C688 H673 0.930 . S
C688 C683 1.390 . S
C688 C687 1.387 . S
H689 C701 0.930 . S
H690 C703 0.930 . S
H691 C704 0.930 . S
H692 C708 0.959 . S
H693 C708 0.959 . S
H694 C708 0.961 . S
H695 C709 0.960 . S
H696 C709 0.961 . S
H697 C709 0.959 . S
H698 C712 0.929 . S
H699 C713 0.931 . S
H700 C715 0.930 . S
C701 H689 0.930 . S
C701 C702 1.399 . S
C701 C706 1.399 . S
C702 C701 1.399 . S
C702 C703 1.376 . S
C703 H690 0.930 . S
C703 C702 1.376 . S
C703 C704 1.388 . S
C704 H691 0.930 . S
C704 C703 1.388 . S
C704 C705 1.390 . S
C705 C704 1.390 . S
C705 C706 1.394 . S
C705 C711 1.465 . S
C706 C701 1.399 . S
C706 C705 1.394 . S
C706 C707 1.516 . S
C707 C706 1.516 . S
C707 C708 1.502 . S
C707 C709 1.561 . S
C707 C710 1.526 . S
C708 H692 0.959 . S
C708 H693 0.959 . S
C708 H694 0.961 . S
C708 C707 1.502 . S
C709 H695 0.960 . S
C709 H696 0.961 . S
C709 H697 0.959 . S
C709 C707 1.561 . S
C710 C707 1.526 . S
C710 C711 1.396 . S
C710 C715 1.390 . S
C711 C705 1.465 . S
C711 C710 1.396 . S
C711 C712 1.399 . S
C712 H698 0.929 . S
C712 C711 1.399 . S
C712 C713 1.385 . S
C713 H699 0.931 . S
C713 C712 1.385 . S
C713 C714 1.389 . S
C714 C713 1.389 . S
C714 C715 1.387 . S
C715 H700 0.930 . S
C715 C710 1.390 . S
C715 C714 1.387 . S
H716 C728 0.930 . S
H717 C730 0.930 . S
H718 C731 0.930 . S
H719 C735 0.959 . S
H720 C735 0.959 . S
H721 C735 0.961 1_556 S
H722 C736 0.960 1_556 S
H723 C736 0.961 . S
H724 C736 0.959 . S
H725 C739 0.929 . S
H726 C740 0.931 . S
H727 C742 0.930 . S
C728 H716 0.930 . S
C728 C729 1.399 . S
C728 C733 1.399 . S
C729 C728 1.399 . S
C729 C730 1.376 . S
C730 H717 0.930 . S
C730 C729 1.376 . S
C730 C731 1.388 . S
C731 H718 0.930 . S
C731 C730 1.388 . S
C731 C732 1.390 . S
C732 C731 1.390 . S
C732 C733 1.394 . S
C732 C738 1.465 1_556 S
C733 C728 1.399 . S
C733 C732 1.394 . S
C733 C734 1.516 1_656 S
C734 C733 1.516 1_454 S
C734 C735 1.502 . S
C734 C736 1.561 1_455 S
C734 C737 1.526 . S
C735 H719 0.959 . S
C735 H720 0.959 . S
C735 H721 0.961 1_554 S
C735 C734 1.502 . S
C736 H722 0.960 1_554 S
C736 H723 0.961 . S
C736 H724 0.959 . S
C736 C734 1.561 1_655 S
C737 C734 1.526 . S
C737 C738 1.396 1_455 S
C737 C742 1.390 . S
C738 C732 1.465 1_554 S
C738 C737 1.396 1_655 S
C738 C739 1.399 . S
C739 H725 0.929 . S
C739 C738 1.399 . S
C739 C740 1.385 1_655 S
C740 H726 0.931 . S
C740 C739 1.385 1_455 S
C740 C741 1.389 . S
C741 C740 1.389 . S
C741 C742 1.387 . S
C742 H727 0.930 . S
C742 C737 1.390 . S
C742 C741 1.387 . S
H743 C755 0.930 . S
H744 C757 0.930 . S
H745 C758 0.930 . S
H746 C762 0.959 . S
H747 C762 0.959 . S
H748 C762 0.961 . S
H749 C763 0.960 . S
H750 C763 0.961 . S
H751 C763 0.959 . S
H752 C766 0.929 . S
H753 C767 0.931 . S
H754 C769 0.930 1_455 S
C755 H743 0.930 . S
C755 C756 1.399 1_565 S
C755 C760 1.399 . S
C756 C755 1.399 1_545 S
C756 C757 1.376 1_455 S
C757 H744 0.930 . S
C757 C756 1.376 1_655 S
C757 C758 1.388 . S
C758 H745 0.930 . S
C758 C757 1.388 . S
C758 C759 1.390 . S
C759 C758 1.390 . S
C759 C760 1.394 1_645 S
C759 C765 1.465 . S
C760 C755 1.399 . S
C760 C759 1.394 1_465 S
C760 C761 1.516 . S
C761 C760 1.516 . S
C761 C762 1.502 . S
C761 C763 1.561 1_455 S
C761 C764 1.520 1_455 S
C762 H746 0.959 . S
C762 H747 0.959 . S
C762 H748 0.961 . S
C762 C761 1.502 . S
C763 H749 0.960 . S
C763 H750 0.961 . S
C763 H751 0.959 . S
C763 C761 1.561 1_655 S
C764 C761 1.520 1_655 S
C764 C765 1.402 1_565 S
C764 C769 1.390 . S
C765 C759 1.465 . S
C765 C764 1.402 1_545 S
C765 C766 1.399 . S
C766 H752 0.929 . S
C766 C765 1.399 . S
C766 C767 1.385 . S
C767 H753 0.931 . S
C767 C766 1.385 . S
C767 C768 1.389 1_545 S
C768 C767 1.389 1_565 S
C768 C769 1.387 . S
C769 H754 0.930 1_655 S
C769 C764 1.390 . S
C769 C768 1.387 . S
H770 C782 0.930 . S
H771 C784 0.930 . S
H772 C785 0.930 . S
H773 C789 0.955 1_556 S
H774 C789 0.992 . S
H775 C789 0.930 1_556 S
H776 C790 0.960 1_556 S
H777 C790 0.961 . S
H778 C790 0.959 . S
H779 C793 0.929 . S
H780 C794 0.931 . S
H781 C796 0.930 . S
C782 H770 0.930 . S
C782 C783 1.399 . S
C782 C787 1.399 . S
C783 C782 1.399 . S
C783 C784 1.376 1_565 S
C784 H771 0.930 . S
C784 C783 1.376 1_545 S
C784 C785 1.388 . S
C785 H772 0.930 . S
C785 C784 1.388 . S
C785 C786 1.390 . S
C786 C785 1.390 . S
C786 C787 1.394 1_545 S
C786 C792 1.465 1_556 S
C787 C782 1.399 . S
C787 C786 1.394 1_565 S
C787 C788 1.516 1_556 S
C788 C787 1.516 1_554 S
C788 C789 1.505 . S
C788 C790 1.561 . S
C788 C791 1.526 . S
C789 H773 0.955 1_554 S
C789 H774 0.992 . S
C789 H775 0.930 1_554 S
C789 C788 1.505 . S
C790 H776 0.960 1_554 S
C790 H777 0.961 . S
C790 H778 0.959 . S
C790 C788 1.561 . S
C791 C788 1.526 . S
C791 C792 1.396 1_565 S
C791 C796 1.390 . S
C792 C786 1.465 1_554 S
C792 C791 1.396 1_545 S
C792 C793 1.399 . S
C793 H779 0.929 . S
C793 C792 1.399 . S
C793 C794 1.385 . S
C794 H780 0.931 . S
C794 C793 1.385 . S
C794 C795 1.389 . S
C795 C794 1.389 . S
C795 C796 1.387 1_545 S
C796 H781 0.930 . S
C796 C791 1.390 . S
C796 C795 1.387 1_565 S
H797 C809 0.930 . S
H798 C811 0.930 . S
H799 C812 0.930 . S
H800 C816 0.959 . S
H801 C816 0.959 . S
H802 C816 0.961 . S
H803 C817 0.960 . S
H804 C817 0.961 . S
H805 C817 0.959 . S
H806 C820 0.929 . S
H807 C821 0.931 . S
H808 C823 0.930 . S
C809 H797 0.930 . S
C809 C810 1.399 . S
C809 C814 1.399 . S
C810 C809 1.399 . S
C810 C811 1.376 . S
C811 H798 0.930 . S
C811 C810 1.376 . S
C811 C812 1.388 . S
C812 H799 0.930 . S
C812 C811 1.388 . S
C812 C813 1.390 . S
C813 C812 1.390 . S
C813 C814 1.394 . S
C813 C819 1.465 . S
C814 C809 1.399 . S
C814 C813 1.394 . S
C814 C815 1.516 . S
C815 C814 1.516 . S
C815 C816 1.502 . S
C815 C817 1.561 . S
C815 C818 1.526 . S
C816 H800 0.959 . S
C816 H801 0.959 . S
C816 H802 0.961 . S
C816 C815 1.502 . S
C817 H803 0.960 . S
C817 H804 0.961 . S
C817 H805 0.959 . S
C817 C815 1.561 . S
C818 C815 1.526 . S
C818 C819 1.396 . S
C818 C823 1.390 . S
C819 C813 1.465 . S
C819 C818 1.396 . S
C819 C820 1.399 . S
C820 H806 0.929 . S
C820 C819 1.399 . S
C820 C821 1.385 . S
C821 H807 0.931 . S
C821 C820 1.385 . S
C821 C822 1.389 . S
C822 C821 1.389 . S
C822 C823 1.387 . S
C823 H808 0.930 . S
C823 C818 1.390 . S
C823 C822 1.387 . S
C189 C98 1.255 . S
C201 C15 1.291 . S
C216 C120 1.250 . S
C228 C29 1.291 . S
C243 C65 1.278 . S
C255 C150 1.232 . S
C270 C81 1.291 . S
C282 C162 1.258 . S
C297 C95 1.260 . S
C309 C8 1.232 . S
C324 C32 1.256 . S
C336 C117 1.229 . S
C351 C62 1.282 . S
C363 C153 1.228 . S
C378 C74 1.281 . S
C390 C169 1.276 . S
C405 C125 1.292 . S
C417 C76 1.247 . S
C432 C10 1.292 . S
C444 C139 1.277 . S
C459 C40 1.233 . S
C471 C175 1.238 . S
C486 C52 1.223 . S
C498 C103 1.249 . S
C513 C87 1.273 . S
C525 C128 1.225 . S
C540 C21 1.235 . S
C552 C140 1.237 . S
C567 C164 1.290 . S
C579 C37 1.280 . S
C594 C106 1.222 . S
C606 C51 1.269 . S
C621 C7 1.691 . S
C633 C59 1.683 . S
C648 C43 1.713 . S
C660 C73 1.717 . S
C675 C147 1.705 . S
C687 C109 1.713 . S
C702 C161 1.689 . S
C714 C131 1.682 . S
C729 C118 1.434 . S
C741 C18 1.426 . S
C756 C30 1.428 . S
C768 C142 1.430 . S
C783 C172 1.431 . S
C795 C54 1.429 . S
C810 C96 1.441 . S
C822 C84 1.418 . S
