# Generated by pormake.
# Topology reo, (8)-cn, num edge types: 1
# Building blocks:
#     Node 0, Type 0, BuildingBlock: LIZSOE_clean_sbu_0, # of connection points: 8
#     Node 1, Type 0, BuildingBlock: LIZSOE_clean_sbu_0, # of connection points: 8
#     Node 2, Type 0, BuildingBlock: LIZSOE_clean_sbu_0, # of connection points: 8
#     Edge 3, Type (0, 0), BuildingBlock: EZIPEK_clean_linker_0, # of connection points: 2
#     Edge 4, Type (0, 0), BuildingBlock: EZIPEK_clean_linker_0, # of connection points: 2
#     Edge 5, Type (0, 0), BuildingBlock: EZIPEK_clean_linker_0, # of connection points: 2
#     Edge 6, Type (0, 0), BuildingBlock: EZIPEK_clean_linker_0, # of connection points: 2
#     Edge 7, Type (0, 0), BuildingBlock: EZIPEK_clean_linker_0, # of connection points: 2
#     Edge 8, Type (0, 0), BuildingBlock: EZIPEK_clean_linker_0, # of connection points: 2
#     Edge 9, Type (0, 0), BuildingBlock: EZIPEK_clean_linker_0, # of connection points: 2
#     Edge 10, Type (0, 0), BuildingBlock: EZIPEK_clean_linker_0, # of connection points: 2
#     Edge 11, Type (0, 0), BuildingBlock: EZIPEK_clean_linker_0, # of connection points: 2
#     Edge 12, Type (0, 0), BuildingBlock: EZIPEK_clean_linker_0, # of connection points: 2
#     Edge 13, Type (0, 0), BuildingBlock: EZIPEK_clean_linker_0, # of connection points: 2
#     Edge 14, Type (0, 0), BuildingBlock: EZIPEK_clean_linker_0, # of connection points: 2
# Relax obj value: 0.346
# Max RMSD: 0.292
# Mean RMSD: 0.254
data_MOF--net-reo--node1-LIZSOE_clean_sbu_0--edge1-EZIPEK_clean_linker_0
_symmetry_space_group_name_H-M    P1
_symmetry_Int_Tables_number       1
_symmetry_cell_setting            triclinic
loop_
_symmetry_equiv_pos_as_xyz
'x, y, z'
_cell_length_a     22.563522
_cell_length_b     17.526249
_cell_length_c     14.848724
_cell_angle_alpha  87.451829
_cell_angle_beta   108.61934
_cell_angle_gamma 116.35565
loop_
_atom_site_label
_atom_site_type_symbol
_atom_site_fract_x
_atom_site_fract_y
_atom_site_fract_z
_atom_type_partial_charge
Co0 Co 0.13871 0.03369 0.49181 0.0
N1 N 0.23108 0.08025 0.4845 0.0
C2 C 0.28228 0.07672 0.56073 0.0
N3 N 0.32517 0.10058 0.44345 0.0
C4 C 0.25936 0.09505 0.413 0.0
C5 C 0.33913 0.08978 0.53637 0.0
Co6 Co 0.89216 0.03169 0.65242 0.0
N7 N 0.8074 0.98528 0.67286 0.0
N8 N 0.71453 0.98613 0.6975 0.0
C9 C 0.70449 0.90453 0.6909 0.0
C10 C 0.76143 0.90401 0.67536 0.0
C11 C 0.77704 0.03354 0.68496 0.0
Co12 Co 1.01153 0.02979 0.56733 0.0
C13 C 0.98905 0.121 0.72851 0.0
H14 H 0.769 0.84822 0.66757 0.0
O15 O 0.05121 0.97426 0.49487 0.0
O16 O 0.91671 0.98127 0.45455 0.0
O17 O 0.04388 0.1374 0.50439 0.0
O18 O 0.10241 0.07593 0.68203 0.0
O19 O 0.17631 0.07011 0.6172 0.0
O20 O 0.84549 0.98675 0.52587 0.0
O21 O 0.97578 0.08962 0.63995 0.0
O22 O 0.9048 0.92929 0.69171 0.0
O23 O 0.13044 0.13925 0.46 0.0
O24 O 0.09488 0.99385 0.37323 0.0
O25 O 0.98019 0.92085 0.63097 0.0
O26 O 0.94184 0.08065 0.76881 0.0
C27 C 0.09152 0.17296 0.46612 0.0
C28 C 0.81151 0.12927 0.68958 0.0
H29 H 0.84821 0.1508 0.64818 0.0
H30 H 0.77142 0.15265 0.66186 0.0
H31 H 0.84207 0.1573 0.7652 0.0
C32 C 0.85516 0.96987 0.45129 0.0
C33 C 0.16315 0.08477 0.68849 0.0
H34 H 0.27701 0.05674 0.62871 0.0
H35 H 0.18732 0.03052 0.27501 0.0
H36 H 0.25708 0.13344 0.27247 0.0
H37 H 0.18501 0.12644 0.30809 0.0
C38 C 0.22012 0.09706 0.31113 0.0
C39 C 0.04535 0.948 0.408 0.0
C40 C 0.93927 0.89113 0.68036 0.0
H41 H 0.38551 0.08535 0.58181 0.0
H42 H 0.6603 0.84948 0.70012 0.0
Co43 Co 0.53413 0.19238 0.11582 0.0
N44 N 0.55836 0.30368 0.07912 0.0
C45 C 0.54786 0.32221 0.98808 0.0
N46 N 0.53379 0.41539 0.06307 0.0
C47 C 0.55639 0.36745 0.12435 0.0
C48 C 0.53267 0.39061 0.97786 0.0
Co49 Co 0.51716 0.89476 0.93638 0.0
N50 N 0.48879 0.7818 0.90404 0.0
N51 N 0.51328 0.67469 0.88761 0.0
C52 C 0.45786 0.64426 0.91854 0.0
C53 C 0.44291 0.71054 0.92915 0.0
C54 C 0.52728 0.75633 0.87281 0.0
Co55 Co 0.52316 0.04264 0.05924 0.0
C56 C 0.52793 0.99143 0.86357 0.0
H57 H 0.40787 0.70886 0.96547 0.0
O58 O 0.50623 0.08657 0.16786 0.0
O59 O 0.60116 1.0194 0.14923 0.0
O60 O 0.58984 0.15405 1.03925 0.0
O61 O 0.44067 0.05533 0.9627 0.0
O62 O 0.44032 0.15906 1.04288 0.0
O63 O 0.56624 0.88971 0.07242 0.0
O64 O 0.54259 0.99832 0.95599 0.0
O65 O 0.42847 0.85989 0.94782 0.0
O66 O 0.62928 0.22495 0.17988 0.0
O67 O 0.52034 0.21433 0.21631 0.0
O68 O 0.45895 0.93304 0.08313 0.0
O69 O 0.48226 0.91597 0.81677 0.0
C70 C 0.64015 0.20877 0.10563 0.0
C71 C 0.58835 0.81688 0.84441 0.0
H72 H 0.57315 0.85948 0.79531 0.0
H73 H 0.6323 0.8569 0.90845 0.0
H74 H 0.60618 0.78082 0.80897 0.0
C75 C 0.60721 0.9496 0.14347 0.0
C76 C 0.41132 0.10123 0.97278 0.0
H77 H 0.5383 0.28008 0.92959 0.0
H78 H 0.52946 0.3576 0.25251 0.0
H79 H 0.60354 0.45511 0.25287 0.0
H80 H 0.61389 0.35928 0.26949 0.0
C81 C 0.57705 0.38517 0.23102 0.0
C82 C 0.50087 0.13509 0.22693 0.0
C83 C 0.41562 0.87176 1.02058 0.0
H84 H 0.5074 0.40689 0.9101 0.0
H85 H 0.43762 0.5833 0.94647 0.0
Co86 Co 0.13517 0.46404 0.05605 0.0
N87 N 0.2239 0.47131 0.10987 0.0
C88 C 0.25958 0.48748 0.20522 0.0
N89 N 0.33207 0.48675 0.1371 0.0
C90 C 0.26996 0.47156 0.07003 0.0
C91 C 0.32564 0.49624 0.22201 0.0
Co92 Co 0.92669 0.60407 0.11333 0.0
N93 N 0.83697 0.58783 0.08702 0.0
N94 N 0.73153 0.58175 1.02085 0.0
C95 C 0.72649 0.52346 0.08325 0.0
C96 C 0.79112 0.52696 0.12361 0.0
C97 C 0.79915 0.62179 1.02578 0.0
Co98 Co 0.03174 0.53907 0.07308 0.0
C99 C 0.99796 0.62822 0.22673 0.0
H100 H 0.8037 0.4866 0.17577 0.0
O101 O 0.05105 0.45904 0.99809 0.0
O102 O 0.99156 0.58317 0.94736 0.0
O103 O 0.11728 0.64214 0.08424 0.0
O104 O 0.06859 0.49456 0.20119 0.0
O105 O 0.11202 0.41439 0.15938 0.0
O106 O 0.925 0.6306 0.98791 0.0
O107 O 1.013 0.61995 0.14863 0.0
O108 O 0.88581 0.49034 0.07993 0.0
O109 O 0.17754 0.57177 0.12562 0.0
O110 O 0.14841 0.50967 0.95143 0.0
O111 O 0.9471 0.4333 0.05467 0.0
O112 O 0.93661 0.57833 0.23203 0.0
C113 C 0.17415 0.63982 0.10453 0.0
C114 C 0.82859 0.69663 0.9725 0.0
H115 H 0.88457 0.73876 1.01221 0.0
H116 H 0.82357 0.67236 0.90136 0.0
H117 H 0.79921 0.7349 0.96016 0.0
C118 C 0.95359 0.62376 0.92939 0.0
C119 C 0.08842 0.43465 0.21609 0.0
H120 H 0.23921 0.49345 0.25984 0.0
H121 H 0.29146 0.43905 0.94767 0.0
H122 H 0.25699 0.51462 0.93115 0.0
H123 H 0.19997 0.40307 0.93146 0.0
C124 C 0.25374 0.45552 0.96426 0.0
C125 C 0.08296 0.4554 0.93772 0.0
C126 C 0.89158 0.42645 0.06034 0.0
H127 H 0.36493 0.5051 0.29104 0.0
H128 H 0.6802 0.48418 0.10136 0.0
C129 C 0.12677 0.39849 0.38701 0.0
C130 C 0.07726 0.37601 0.29278 0.0
C131 C 0.04297 0.22355 0.31215 0.0
C132 C 0.08956 0.24478 0.40783 0.0
N133 N 0.16653 0.35237 0.54281 0.0
N134 N 0.97362 0.26625 0.17952 0.0
C135 C 0.12834 0.33241 0.44762 0.0
C136 C 0.03047 0.28815 0.26057 0.0
N137 N 0.17399 0.4824 0.41697 0.0
N138 N 1.01287 0.14208 0.26812 0.0
H139 H 0.96301 0.31229 0.14074 0.0
H140 H 0.93384 0.20369 0.15702 0.0
H141 H 0.02095 0.09261 0.30244 0.0
H142 H 0.98546 0.1258 0.19494 0.0
H143 H 0.21646 0.50269 0.48049 0.0
H144 H 0.17192 0.5313 0.37525 0.0
H145 H 0.19075 0.41398 0.57825 0.0
H146 H 0.16978 0.30567 0.58752 0.0
C147 C 0.79274 0.96762 0.26877 0.0
C148 C 0.79042 0.94239 0.36065 0.0
C149 C 0.666 0.91597 0.30785 0.0
C150 C 0.66831 0.94108 0.21664 0.0
N151 N 0.72617 0.9552 0.10127 0.0
N152 N 0.71267 0.85336 0.44394 0.0
C153 C 0.72931 0.95596 0.1943 0.0
C154 C 0.72298 0.90415 0.37251 0.0
N155 N 0.85481 1.0049 0.25158 0.0
N156 N 0.60983 0.90365 0.33372 0.0
H157 H 0.75134 0.83736 0.48666 0.0
H158 H 0.66374 0.81899 0.45225 0.0
H159 H 0.56738 0.91155 0.28836 0.0
H160 H 0.60849 0.89266 0.40279 0.0
H161 H 0.86001 0.03454 0.19018 0.0
H162 H 0.90143 1.00929 0.29948 0.0
H163 H 0.76602 0.9558 0.0797 0.0
H164 H 0.68008 0.94241 1.04551 0.0
C165 C 0.03713 0.79643 0.42579 0.0
C166 C 0.01583 0.85435 0.36995 0.0
C167 C 1.00894 0.77977 0.22642 0.0
C168 C 0.02287 0.71618 0.27886 0.0
N169 N 0.04277 0.66039 0.43074 0.0
N170 N 0.96135 0.88126 0.21294 0.0
C171 C 0.03472 0.72381 0.37935 0.0
C172 C 0.99394 0.8378 0.26887 0.0
N173 N 0.06167 0.81124 0.52324 0.0
N174 N 1.01474 0.78944 0.13778 0.0
H175 H 0.95005 0.92408 0.24245 0.0
H176 H 0.93951 0.86794 0.13868 0.0
H177 H 0.03456 0.75636 0.11013 0.0
H178 H 1.0108 0.83921 0.09933 0.0
H179 H 0.08803 0.78009 0.56709 0.0
H180 H 0.05669 0.85543 0.56079 0.0
H181 H 0.04224 0.6551 0.50066 0.0
H182 H 0.04679 0.6106 0.40131 0.0
C183 C 0.48789 0.1639 0.37951 0.0
C184 C 0.46342 0.10381 0.2991 0.0
C185 C 0.35022 0.03019 0.3283 0.0
C186 C 0.36984 0.10247 0.39088 0.0
N187 N 0.45753 0.24088 0.47409 0.0
N188 N 0.3705 0.9724 0.20304 0.0
C189 C 0.43912 0.16977 0.4166 0.0
C190 C 0.39454 0.0341 0.27587 0.0
N191 N 0.5582 0.21614 0.41925 0.0
N192 N 0.29086 0.95657 0.32227 0.0
H193 H 0.40296 0.96884 0.16962 0.0
H194 H 0.31836 0.9262 0.1749 0.0
H195 H 0.25858 0.95123 0.3616 0.0
H196 H 0.27723 0.89857 0.2859 0.0
H197 H 0.58025 0.25707 0.48236 0.0
H198 H 0.59467 0.21115 0.39385 0.0
H199 H 0.50545 0.29565 0.48846 0.0
H200 H 0.42214 0.24791 0.50002 0.0
C201 C 0.89664 0.7305 0.70425 0.0
C202 C 0.94183 0.81869 0.73978 0.0
C203 C 1.00569 0.77288 0.8819 0.0
C204 C 0.95603 0.68521 0.85307 0.0
N205 N 0.84844 0.58176 0.73989 0.0
N206 N 0.02803 0.92133 0.87562 0.0
C207 C 0.89985 0.66436 0.7647 0.0
C208 C 0.9929 0.83891 0.83253 0.0
N209 N 0.85058 0.70987 0.61286 0.0
N210 N 0.06634 0.79342 0.95649 0.0
H211 H 0.02091 0.97158 0.84195 0.0
H212 H 0.05994 0.93844 0.9472 0.0
H213 H 0.07899 0.74683 0.99063 0.0
H214 H 0.10654 0.85564 0.97866 0.0
H215 H 0.82074 0.64737 0.57898 0.0
H216 H 0.84559 0.7564 0.56897 0.0
H217 H 0.80199 0.56311 0.68235 0.0
H218 H 0.85116 0.53256 0.78064 0.0
C219 C 0.34791 0.15176 0.83147 0.0
C220 C 0.34469 0.09244 0.89961 0.0
C221 C 0.21628 0.03125 0.8373 0.0
C222 C 0.22071 0.09975 0.78026 0.0
N223 N 0.29403 0.23607 0.74039 0.0
N224 N 0.27456 0.98151 0.97594 0.0
C225 C 0.28801 0.16457 0.78504 0.0
C226 C 0.27847 0.03471 0.90608 0.0
N227 N 0.40664 0.19162 0.8063 0.0
N228 N 0.15438 0.95856 0.81903 0.0
H229 H 0.31876 0.97786 1.02184 0.0
H230 H 0.22801 0.94396 0.9895 0.0
H231 H 0.10803 0.95192 0.76734 0.0
H232 H 0.15112 0.90245 0.84879 0.0
H233 H 0.4104 0.23199 0.75246 0.0
H234 H 0.44697 0.17379 0.82997 0.0
H235 H 0.34243 0.28788 0.74671 0.0
H236 H 0.25037 0.24615 0.70535 0.0
C237 C 0.05118 0.29425 0.92062 0.0
C238 C 0.05682 0.36993 0.87634 0.0
C239 C 0.03285 0.287 0.72431 0.0
C240 C 0.03438 0.21521 0.7734 0.0
N241 N 0.07457 0.17158 0.92722 0.0
N242 N 0.06499 0.44013 0.73431 0.0
C243 C 0.05519 0.22758 0.87468 0.0
C244 C 0.05215 0.36698 0.77779 0.0
N245 N 0.03535 0.28094 1.0027 0.0
N246 N 1.01079 0.27895 0.62688 0.0
H247 H 0.07442 0.49717 0.76844 0.0
H248 H 0.07015 0.44513 0.66673 0.0
H249 H 1.00093 0.22533 0.58601 0.0
H250 H 1.0001 0.32447 0.58682 0.0
H251 H 0.028 0.22507 1.03547 0.0
H252 H 0.01603 0.31706 1.02614 0.0
H253 H 0.09405 0.18018 1.00185 0.0
H254 H 0.07836 0.12284 0.89515 0.0
C255 C 0.65835 0.0512 0.87987 0.0
C256 C 0.58796 0.03425 0.82425 0.0
C257 C 0.6132 1.01509 0.67907 0.0
C258 C 0.67682 1.01567 0.73744 0.0
N259 N 0.76557 0.04674 0.8922 0.0
N260 N 0.51081 0.03465 0.6699 0.0
C261 C 0.70147 0.03946 0.83669 0.0
C262 C 0.57005 0.02864 0.72296 0.0
N263 N 0.6869 0.07654 0.97513 0.0
N264 N 0.59319 0.99779 0.58234 0.0
H265 H 0.4802 0.04594 0.70242 0.0
H266 H 0.49515 0.03533 0.59606 0.0
H267 H 0.62535 0.98993 0.55013 0.0
H268 H 0.54494 0.98921 0.53458 0.0
H269 H 0.66237 0.08867 1.01683 0.0
H270 H 0.66237 0.08867 1.01683 0.0
H271 H 0.78645 0.06532 0.96581 0.0
H272 H 0.79792 0.03369 0.86549 0.0
C273 C 0.36767 0.3859 0.09373 0.0
C274 C 0.38531 0.47022 0.12398 0.0
C275 C 0.50414 0.51816 0.12278 0.0
C276 C 0.48227 0.43736 0.07483 0.0
N277 N 0.38748 0.29592 1.0034 0.0
N278 N 0.46828 0.6191 0.1653 0.0
C279 C 0.41222 0.37174 0.05658 0.0
C280 C 0.45324 0.53737 0.13852 0.0
N281 N 0.30872 0.31915 0.1025 0.0
N282 N 0.57368 0.57439 0.15701 0.0
H283 H 0.43114 0.63381 0.17692 0.0
H284 H 0.5156 0.67208 0.17006 0.0
H285 H 0.61169 0.56194 0.14457 0.0
H286 H 0.59354 0.62929 0.20372 0.0
H287 H 0.29708 0.25508 0.09087 0.0
H288 H 0.27556 0.32782 0.13186 0.0
H289 H 0.33479 0.25078 0.98048 0.0
H290 H 0.41715 0.28098 0.97383 0.0
C291 C 0.22577 0.73146 0.99012 0.0
C292 C 0.23314 0.7086 0.08488 0.0
C293 C 0.35955 0.77922 0.12866 0.0
C294 C 0.35251 0.81065 1.03825 0.0
N295 N 0.27971 0.83136 0.88941 0.0
N296 N 0.30541 0.72606 0.24952 0.0
C297 C 0.28588 0.79128 0.97064 0.0
C298 C 0.29969 0.73789 0.15607 0.0
N299 N 0.16294 0.69257 0.91734 0.0
N300 N 0.42276 0.78541 0.18617 0.0
H301 H 0.26169 0.69657 0.2718 0.0
H302 H 0.35311 0.75319 0.30555 0.0
H303 H 0.46662 0.80858 0.16426 0.0
H304 H 0.42943 0.75825 0.2502 0.0
H305 H 0.15778 0.70036 0.8457 0.0
H306 H 0.11698 0.64628 0.92604 0.0
H307 H 0.2318 0.82584 0.84338 0.0
H308 H 0.3226 0.87699 0.87271 0.0
C309 C 0.77032 0.27007 0.17081 0.0
C310 C 0.70875 0.25234 0.09187 0.0
C311 C 0.78019 0.30476 0.98781 0.0
C312 C 0.83871 0.3445 0.0693 0.0
N313 N 0.89383 0.36579 0.24065 0.0
N314 N 0.65683 0.25573 0.91908 0.0
C315 C 0.83551 0.32602 0.1617 0.0
C316 C 0.71364 0.26907 0.99797 0.0
N317 N 0.76705 0.23136 0.25225 0.0
N318 N 0.78866 0.3049 0.90075 0.0
H319 H 0.6053 0.22806 0.91686 0.0
H320 H 0.66149 0.27824 0.85429 0.0
H321 H 0.83846 0.33296 0.89393 0.0
H322 H 0.74771 0.26945 0.83865 0.0
H323 H 0.81166 0.238 0.30814 0.0
H324 H 0.7204 0.1845 0.25914 0.0
H325 H 0.89225 0.36219 0.31017 0.0
H326 H 0.94306 0.40597 0.23568 0.0
C327 C 0.68226 0.67586 1.03272 0.0
C328 C 0.67954 0.60961 0.98007 0.0
C329 C 0.56843 0.58825 0.8621 0.0
C330 C 0.56771 0.64905 0.92048 0.0
N331 N 0.61781 0.742 0.06873 0.0
N332 N 0.62531 0.50204 0.84629 0.0
C333 C 0.62346 0.69148 1.00769 0.0
C334 C 0.6242 0.56567 0.8945 0.0
N335 N 0.74221 0.72127 0.10745 0.0
N336 N 0.51612 0.55355 0.77609 0.0
H337 H 0.66733 0.48706 0.86884 0.0
H338 H 0.58431 0.46238 0.78676 0.0
H339 H 0.47428 0.56881 0.75286 0.0
H340 H 0.51519 0.51261 0.72647 0.0
H341 H 0.75266 0.77558 0.1481 0.0
H342 H 0.75266 0.77558 0.1481 0.0
H343 H 0.65336 0.76794 0.13719 0.0
H344 H 0.57317 0.75 0.05651 0.0
loop_
_geom_bond_atom_site_label_1
_geom_bond_atom_site_label_2
_geom_bond_distance
_geom_bond_site_symmetry_2
_ccdc_geom_bond_type
Co0 N1 2.034 . S
Co0 O15 2.262 1_545 S
Co0 O19 1.958 . S
Co0 O23 1.950 . S
Co0 O24 2.057 1_545 S
N1 Co0 2.034 . S
N1 C2 1.366 . S
N1 C4 1.332 . S
C2 N1 1.366 . S
C2 C5 1.377 . S
C2 H34 0.931 . S
N3 C4 1.346 . S
N3 C5 1.337 . S
C4 N1 1.332 . S
C4 N3 1.346 . S
C4 C38 1.361 . S
C5 C2 1.377 . S
C5 N3 1.337 . S
C5 H41 0.930 . S
Co6 N7 2.034 . S
Co6 O20 1.950 . S
Co6 O21 2.262 1_565 S
Co6 O22 1.958 . S
Co6 O26 2.057 1_565 S
N7 Co6 2.034 . S
N7 C10 1.366 . S
N7 C11 1.332 . S
N8 C9 1.337 . S
N8 C11 1.346 . S
C9 N8 1.337 . S
C9 C10 1.377 . S
C9 H42 0.930 . S
C10 N7 1.366 . S
C10 C9 1.377 . S
C10 H14 0.931 . S
C11 N7 1.332 . S
C11 N8 1.346 . S
C11 C28 1.361 1_565 S
Co12 O15 2.097 1_545 S
Co12 O16 2.065 1_445 S
Co12 O17 2.065 . S
Co12 O18 2.042 . S
Co12 O21 2.097 1_455 S
Co12 O25 2.042 1_445 S
C13 O21 1.253 . S
C13 O26 1.263 . S
H14 C10 0.931 . S
O15 Co0 2.262 1_565 S
O15 Co12 2.097 1_565 S
O15 C39 1.253 . S
O16 Co12 2.065 1_665 S
O16 C32 1.221 . S
O17 Co12 2.065 . S
O17 C27 1.221 . S
O18 Co12 2.042 . S
O18 C33 1.237 . S
O19 Co0 1.958 . S
O19 C33 1.278 . S
O20 Co6 1.950 . S
O20 C32 1.277 . S
O21 Co6 2.262 1_545 S
O21 Co12 2.097 1_655 S
O21 C13 1.253 . S
O22 Co6 1.958 . S
O22 C40 1.278 . S
O23 Co0 1.950 . S
O23 C27 1.277 . S
O24 Co0 2.057 1_565 S
O24 C39 1.263 . S
O25 Co12 2.042 1_665 S
O25 C40 1.237 . S
O26 Co6 2.057 1_545 S
O26 C13 1.263 . S
C27 O17 1.221 . S
C27 O23 1.277 . S
C28 C11 1.361 1_545 S
C28 H29 0.960 . S
C28 H30 0.961 1_545 S
C28 H31 0.961 . S
H29 C28 0.960 . S
H30 C28 0.961 1_565 S
H31 C28 0.961 . S
C32 O16 1.221 . S
C32 O20 1.277 . S
C33 O18 1.237 . S
C33 O19 1.278 . S
H34 C2 0.931 . S
H35 C38 0.961 . S
H36 C38 0.961 . S
H37 C38 0.960 . S
C38 C4 1.361 . S
C38 H35 0.961 . S
C38 H36 0.961 . S
C38 H37 0.960 . S
C39 O15 1.253 . S
C39 O24 1.263 . S
C40 O22 1.278 . S
C40 O25 1.237 . S
H41 C5 0.930 . S
H42 C9 0.930 . S
Co43 N44 2.034 1_554 S
Co43 O58 2.262 . S
Co43 O62 1.958 1_554 S
Co43 O66 1.950 . S
Co43 O67 2.057 . S
N44 Co43 2.034 1_556 S
N44 C45 1.366 . S
N44 C47 1.332 1_556 S
C45 N44 1.366 . S
C45 C48 1.377 . S
C45 H77 0.931 . S
N46 C47 1.346 . S
N46 C48 1.337 1_554 S
C47 N44 1.332 1_554 S
C47 N46 1.346 . S
C47 C81 1.361 . S
C48 C45 1.377 . S
C48 N46 1.337 1_556 S
C48 H84 0.930 . S
Co49 N50 2.034 1_556 S
Co49 O63 1.950 1_556 S
Co49 O64 2.262 . S
Co49 O65 1.958 . S
Co49 O69 2.057 . S
N50 Co49 2.034 1_554 S
N50 C53 1.366 . S
N50 C54 1.332 . S
N51 C52 1.337 . S
N51 C54 1.346 . S
C52 N51 1.337 . S
C52 C53 1.377 . S
C52 H85 0.930 . S
C53 N50 1.366 . S
C53 C52 1.377 . S
C53 H57 0.931 . S
C54 N50 1.332 . S
C54 N51 1.346 . S
C54 C71 1.361 . S
Co55 O58 2.097 . S
Co55 O59 2.065 . S
Co55 O60 2.065 . S
Co55 O61 2.042 1_554 S
Co55 O64 2.097 1_544 S
Co55 O68 2.042 1_545 S
C56 O64 1.253 . S
C56 O69 1.263 . S
H57 C53 0.931 . S
O58 Co43 2.262 . S
O58 Co55 2.097 . S
O58 C82 1.253 . S
O59 Co55 2.065 . S
O59 C75 1.221 1_545 S
O60 Co55 2.065 . S
O60 C70 1.221 . S
O61 Co55 2.042 1_556 S
O61 C76 1.237 . S
O62 Co43 1.958 1_556 S
O62 C76 1.278 . S
O63 Co49 1.950 1_554 S
O63 C75 1.277 . S
O64 Co49 2.262 . S
O64 Co55 2.097 1_566 S
O64 C56 1.253 . S
O65 Co49 1.958 . S
O65 C83 1.278 . S
O66 Co43 1.950 . S
O66 C70 1.277 . S
O67 Co43 2.057 . S
O67 C82 1.263 . S
O68 Co55 2.042 1_565 S
O68 C83 1.237 1_554 S
O69 Co49 2.057 . S
O69 C56 1.263 . S
C70 O60 1.221 . S
C70 O66 1.277 . S
C71 C54 1.361 . S
C71 H72 0.960 . S
C71 H73 0.961 . S
C71 H74 0.961 . S
H72 C71 0.960 . S
H73 C71 0.961 . S
H74 C71 0.961 . S
C75 O59 1.221 1_565 S
C75 O63 1.277 . S
C76 O61 1.237 . S
C76 O62 1.278 . S
H77 C45 0.931 . S
H78 C81 0.961 . S
H79 C81 0.961 . S
H80 C81 0.960 . S
C81 C47 1.361 . S
C81 H78 0.961 . S
C81 H79 0.961 . S
C81 H80 0.960 . S
C82 O58 1.253 . S
C82 O67 1.263 . S
C83 O65 1.278 . S
C83 O68 1.237 1_556 S
H84 C48 0.930 . S
H85 C52 0.930 . S
Co86 N87 2.034 . S
Co86 O101 2.262 1_554 S
Co86 O105 1.958 . S
Co86 O109 1.950 . S
Co86 O110 2.057 1_554 S
N87 Co86 2.034 . S
N87 C88 1.366 . S
N87 C90 1.332 . S
C88 N87 1.366 . S
C88 C91 1.377 . S
C88 H120 0.931 . S
N89 C90 1.346 . S
N89 C91 1.337 . S
C90 N87 1.332 . S
C90 N89 1.346 . S
C90 C124 1.361 1_554 S
C91 C88 1.377 . S
C91 N89 1.337 . S
C91 H127 0.930 . S
Co92 N93 2.034 1_554 S
Co92 O106 1.950 1_554 S
Co92 O107 2.262 . S
Co92 O108 1.958 1_554 S
Co92 O112 2.057 . S
N93 Co92 2.034 1_556 S
N93 C96 1.366 . S
N93 C97 1.332 . S
N94 C95 1.337 . S
N94 C97 1.346 . S
C95 N94 1.337 . S
C95 C96 1.377 . S
C95 H128 0.930 . S
C96 N93 1.366 . S
C96 C95 1.377 . S
C96 H100 0.931 . S
C97 N93 1.332 . S
C97 N94 1.346 . S
C97 C114 1.361 . S
Co98 O101 2.097 1_554 S
Co98 O102 2.065 1_454 S
Co98 O103 2.065 . S
Co98 O104 2.042 . S
Co98 O107 2.097 1_455 S
Co98 O111 2.042 1_454 S
C99 O107 1.253 . S
C99 O112 1.263 . S
H100 C96 0.931 . S
O101 Co86 2.262 1_556 S
O101 Co98 2.097 1_556 S
O101 C125 1.253 . S
O102 Co98 2.065 1_656 S
O102 C118 1.221 . S
O103 Co98 2.065 . S
O103 C113 1.221 . S
O104 Co98 2.042 . S
O104 C119 1.237 . S
O105 Co86 1.958 . S
O105 C119 1.278 . S
O106 Co92 1.950 1_556 S
O106 C118 1.277 . S
O107 Co92 2.262 . S
O107 Co98 2.097 1_655 S
O107 C99 1.253 . S
O108 Co92 1.958 1_556 S
O108 C126 1.278 . S
O109 Co86 1.950 . S
O109 C113 1.277 . S
O110 Co86 2.057 1_556 S
O110 C125 1.263 . S
O111 Co98 2.042 1_656 S
O111 C126 1.237 . S
O112 Co92 2.057 . S
O112 C99 1.263 . S
C113 O103 1.221 . S
C113 O109 1.277 . S
C114 C97 1.361 . S
C114 H115 0.960 . S
C114 H116 0.961 . S
C114 H117 0.961 1_556 S
H115 C114 0.960 . S
H116 C114 0.961 . S
H117 C114 0.961 1_554 S
C118 O102 1.221 . S
C118 O106 1.277 . S
C119 O104 1.237 . S
C119 O105 1.278 . S
H120 C88 0.931 . S
H121 C124 0.961 . S
H122 C124 0.961 . S
H123 C124 0.960 . S
C124 C90 1.361 1_556 S
C124 H121 0.961 . S
C124 H122 0.961 . S
C124 H123 0.960 . S
C125 O101 1.253 . S
C125 O110 1.263 . S
C126 O108 1.278 . S
C126 O111 1.237 . S
H127 C91 0.930 . S
H128 C95 0.930 . S
C129 C130 1.363 . S
C129 C135 1.379 . S
C129 N137 1.356 . S
C130 C129 1.363 . S
C130 C136 1.363 1_455 S
C131 C132 1.363 . S
C131 C136 1.379 1_455 S
C131 N138 1.356 1_455 S
C132 C131 1.363 . S
C132 C135 1.363 . S
N133 C135 1.356 . S
N133 H145 0.984 . S
N133 H146 0.985 . S
N134 C136 1.356 . S
N134 H139 0.984 . S
N134 H140 0.985 . S
C135 C129 1.379 . S
C135 C132 1.363 . S
C135 N133 1.356 . S
C136 C130 1.363 1_655 S
C136 C131 1.379 1_655 S
C136 N134 1.356 . S
N137 C129 1.356 . S
N137 H143 0.984 . S
N137 H144 0.984 . S
N138 C131 1.356 1_655 S
N138 H141 0.984 . S
N138 H142 0.985 . S
H139 N134 0.984 . S
H140 N134 0.985 . S
H141 N138 0.984 . S
H142 N138 0.985 . S
H143 N137 0.984 . S
H144 N137 0.984 . S
H145 N133 0.984 . S
H146 N133 0.985 . S
C147 C148 1.363 . S
C147 C153 1.379 . S
C147 N155 1.356 . S
C148 C147 1.363 . S
C148 C154 1.363 . S
C149 C150 1.363 1_545 S
C149 C154 1.379 1_545 S
C149 N156 1.356 . S
C150 C149 1.363 1_565 S
C150 C153 1.363 . S
N151 C153 1.356 . S
N151 H163 0.984 . S
N151 H164 0.985 . S
N152 C154 1.356 . S
N152 H157 0.984 . S
N152 H158 0.985 1_565 S
C153 C147 1.379 . S
C153 C150 1.363 . S
C153 N151 1.356 . S
C154 C148 1.363 . S
C154 C149 1.379 1_565 S
C154 N152 1.356 . S
N155 C147 1.356 . S
N155 H161 0.984 . S
N155 H162 0.984 . S
N156 C149 1.356 . S
N156 H159 0.984 . S
N156 H160 0.985 . S
H157 N152 0.984 . S
H158 N152 0.985 1_545 S
H159 N156 0.984 . S
H160 N156 0.985 . S
H161 N155 0.984 . S
H162 N155 0.984 . S
H163 N151 0.984 . S
H164 N151 0.985 . S
C165 C166 1.363 1_455 S
C165 C171 1.379 . S
C165 N173 1.356 . S
C166 C165 1.363 1_655 S
C166 C172 1.363 . S
C167 C168 1.363 1_655 S
C167 C172 1.379 . S
C167 N174 1.356 . S
C168 C167 1.363 1_455 S
C168 C171 1.363 . S
N169 C171 1.356 . S
N169 H181 0.984 . S
N169 H182 0.985 . S
N170 C172 1.356 . S
N170 H175 0.984 . S
N170 H176 0.985 . S
C171 C165 1.379 . S
C171 C168 1.363 . S
C171 N169 1.356 . S
C172 C166 1.363 . S
C172 C167 1.379 . S
C172 N170 1.356 . S
N173 C165 1.356 . S
N173 H179 0.984 . S
N173 H180 0.984 . S
N174 C167 1.356 . S
N174 H177 0.994 . S
N174 H178 0.985 . S
H175 N170 0.984 . S
H176 N170 0.985 . S
H177 N174 0.994 . S
H178 N174 0.985 . S
H179 N173 0.984 . S
H180 N173 0.984 . S
H181 N169 0.984 . S
H182 N169 0.985 . S
C183 C184 1.363 . S
C183 C189 1.379 . S
C183 N191 1.356 . S
C184 C183 1.363 . S
C184 C190 1.363 . S
C185 C186 1.363 . S
C185 C190 1.379 . S
C185 N192 1.356 . S
C186 C185 1.363 . S
C186 C189 1.363 . S
N187 C189 1.356 . S
N187 H199 0.984 . S
N187 H200 0.985 . S
N188 C190 1.356 . S
N188 H193 0.984 . S
N188 H194 0.985 1_554 S
C189 C183 1.379 . S
C189 C186 1.363 . S
C189 N187 1.356 . S
C190 C184 1.363 . S
C190 C185 1.379 . S
C190 N188 1.356 . S
N191 C183 1.356 . S
N191 H197 0.984 . S
N191 H198 0.984 . S
N192 C185 1.356 . S
N192 H195 0.984 . S
N192 H196 0.985 . S
H193 N188 0.984 . S
H194 N188 0.985 1_556 S
H195 N192 0.984 . S
H196 N192 0.985 . S
H197 N191 0.984 . S
H198 N191 0.984 . S
H199 N187 0.984 . S
H200 N187 0.985 . S
C201 C202 1.363 . S
C201 C207 1.379 . S
C201 N209 1.356 . S
C202 C201 1.363 . S
C202 C208 1.363 1_655 S
C203 C204 1.363 1_455 S
C203 C208 1.379 . S
C203 N210 1.356 . S
C204 C203 1.363 1_655 S
C204 C207 1.363 . S
N205 C207 1.356 . S
N205 H217 0.984 . S
N205 H218 0.985 . S
N206 C208 1.356 . S
N206 H211 0.984 . S
N206 H212 0.985 . S
C207 C201 1.379 . S
C207 C204 1.363 . S
C207 N205 1.356 . S
C208 C202 1.363 1_455 S
C208 C203 1.379 . S
C208 N206 1.356 . S
N209 C201 1.356 . S
N209 H215 0.984 . S
N209 H216 0.984 . S
N210 C203 1.356 . S
N210 H213 0.984 . S
N210 H214 0.985 . S
H211 N206 0.984 . S
H212 N206 0.985 . S
H213 N210 0.984 . S
H214 N210 0.985 . S
H215 N209 0.984 . S
H216 N209 0.984 . S
H217 N205 0.984 . S
H218 N205 0.985 . S
C219 C220 1.363 . S
C219 C225 1.379 . S
C219 N227 1.356 . S
C220 C219 1.363 . S
C220 C226 1.363 1_545 S
C221 C222 1.363 1_565 S
C221 C226 1.379 . S
C221 N228 1.356 . S
C222 C221 1.363 1_545 S
C222 C225 1.363 . S
N223 C225 1.356 . S
N223 H235 0.984 . S
N223 H236 0.985 . S
N224 C226 1.356 . S
N224 H229 0.984 . S
N224 H230 0.985 . S
C225 C219 1.379 . S
C225 C222 1.363 . S
C225 N223 1.356 . S
C226 C220 1.363 1_565 S
C226 C221 1.379 . S
C226 N224 1.356 . S
N227 C219 1.356 . S
N227 H233 0.984 . S
N227 H234 0.984 . S
N228 C221 1.356 . S
N228 H231 0.984 . S
N228 H232 0.985 . S
H229 N224 0.984 . S
H230 N224 0.985 . S
H231 N228 0.984 . S
H232 N228 0.985 . S
H233 N227 0.984 . S
H234 N227 0.984 . S
H235 N223 0.984 . S
H236 N223 0.985 . S
C237 C238 1.363 . S
C237 C243 1.379 . S
C237 N245 1.356 . S
C238 C237 1.363 . S
C238 C244 1.363 1_455 S
C239 C240 1.363 1_655 S
C239 C244 1.379 . S
C239 N246 1.356 . S
C240 C239 1.363 1_455 S
C240 C243 1.363 . S
N241 C243 1.356 . S
N241 H253 0.984 . S
N241 H254 0.985 . S
N242 C244 1.356 . S
N242 H247 0.984 . S
N242 H248 0.985 . S
C243 C237 1.379 . S
C243 C240 1.363 . S
C243 N241 1.356 . S
C244 C238 1.363 1_655 S
C244 C239 1.379 . S
C244 N242 1.356 . S
N245 C237 1.356 . S
N245 H251 0.984 . S
N245 H252 0.984 . S
N246 C239 1.356 . S
N246 H249 0.984 . S
N246 H250 0.985 . S
H247 N242 0.984 . S
H248 N242 0.985 . S
H249 N246 0.984 . S
H250 N246 0.985 . S
H251 N245 0.984 . S
H252 N245 0.984 . S
H253 N241 0.984 . S
H254 N241 0.985 . S
C255 C256 1.363 . S
C255 C261 1.379 . S
C255 N263 1.356 . S
C256 C255 1.363 . S
C256 C262 1.363 . S
C257 C258 1.363 . S
C257 C262 1.379 . S
C257 N264 1.356 . S
C258 C257 1.363 . S
C258 C261 1.363 . S
N259 C261 1.356 . S
N259 H271 0.984 . S
N259 H272 0.985 . S
N260 C262 1.356 . S
N260 H265 0.984 1_565 S
N260 H266 0.985 1_565 S
C261 C255 1.379 . S
C261 C258 1.363 . S
C261 N259 1.356 . S
C262 C256 1.363 . S
C262 C257 1.379 . S
C262 N260 1.356 . S
N263 C255 1.356 . S
N263 H269 0.984 1_556 S
N263 H270 0.984 . S
N264 C257 1.356 . S
N264 H267 0.984 . S
N264 H268 0.985 . S
H265 N260 0.984 1_545 S
H266 N260 0.985 1_545 S
H267 N264 0.984 . S
H268 N264 0.985 . S
H269 N263 0.984 1_554 S
H270 N263 0.984 . S
H271 N259 0.984 . S
H272 N259 0.985 . S
C273 C274 1.363 . S
C273 C279 1.379 . S
C273 N281 1.356 . S
C274 C273 1.363 . S
C274 C280 1.363 . S
C275 C276 1.363 . S
C275 C280 1.379 . S
C275 N282 1.356 . S
C276 C275 1.363 . S
C276 C279 1.363 . S
N277 C279 1.356 . S
N277 H289 0.984 . S
N277 H290 0.985 . S
N278 C280 1.356 . S
N278 H283 0.984 . S
N278 H284 0.985 . S
C279 C273 1.379 . S
C279 C276 1.363 . S
C279 N277 1.356 . S
C280 C274 1.363 . S
C280 C275 1.379 . S
C280 N278 1.356 . S
N281 C273 1.356 . S
N281 H287 0.984 . S
N281 H288 0.984 . S
N282 C275 1.356 . S
N282 H285 0.984 . S
N282 H286 0.985 . S
H283 N278 0.984 . S
H284 N278 0.985 . S
H285 N282 0.984 . S
H286 N282 0.985 . S
H287 N281 0.984 . S
H288 N281 0.984 . S
H289 N277 0.984 . S
H290 N277 0.985 . S
C291 C292 1.363 . S
C291 C297 1.379 1_554 S
C291 N299 1.356 1_554 S
C292 C291 1.363 . S
C292 C298 1.363 . S
C293 C294 1.363 1_554 S
C293 C298 1.379 . S
C293 N300 1.356 . S
C294 C293 1.363 1_556 S
C294 C297 1.363 . S
N295 C297 1.356 . S
N295 H307 0.984 . S
N295 H308 0.985 . S
N296 C298 1.356 . S
N296 H301 0.984 . S
N296 H302 0.985 . S
C297 C291 1.379 1_556 S
C297 C294 1.363 . S
C297 N295 1.356 . S
C298 C292 1.363 . S
C298 C293 1.379 . S
C298 N296 1.356 . S
N299 C291 1.356 1_556 S
N299 H305 0.984 . S
N299 H306 0.984 1_556 S
N300 C293 1.356 . S
N300 H303 0.984 . S
N300 H304 0.985 . S
H301 N296 0.984 . S
H302 N296 0.985 . S
H303 N300 0.984 . S
H304 N300 0.985 . S
H305 N299 0.984 . S
H306 N299 0.984 1_554 S
H307 N295 0.984 . S
H308 N295 0.985 . S
C309 C310 1.363 . S
C309 C315 1.379 . S
C309 N317 1.356 . S
C310 C309 1.363 . S
C310 C316 1.363 1_554 S
C311 C312 1.363 . S
C311 C316 1.379 . S
C311 N318 1.356 . S
C312 C311 1.363 . S
C312 C315 1.363 1_556 S
N313 C315 1.356 . S
N313 H325 0.984 . S
N313 H326 0.985 . S
N314 C316 1.356 . S
N314 H319 0.984 . S
N314 H320 0.985 . S
C315 C309 1.379 . S
C315 C312 1.363 1_554 S
C315 N313 1.356 . S
C316 C310 1.363 1_556 S
C316 C311 1.379 . S
C316 N314 1.356 . S
N317 C309 1.356 . S
N317 H323 0.984 . S
N317 H324 0.984 . S
N318 C311 1.356 . S
N318 H321 0.984 . S
N318 H322 0.985 . S
H319 N314 0.984 . S
H320 N314 0.985 . S
H321 N318 0.984 . S
H322 N318 0.985 . S
H323 N317 0.984 . S
H324 N317 0.984 . S
H325 N313 0.984 . S
H326 N313 0.985 . S
C327 C328 1.363 . S
C327 C333 1.379 1_556 S
C327 N335 1.356 . S
C328 C327 1.363 . S
C328 C334 1.363 . S
C329 C330 1.363 . S
C329 C334 1.379 1_554 S
C329 N336 1.356 . S
C330 C329 1.363 . S
C330 C333 1.363 . S
N331 C333 1.356 . S
N331 H343 0.984 . S
N331 H344 0.985 . S
N332 C334 1.356 . S
N332 H337 0.984 . S
N332 H338 0.985 . S
C333 C327 1.379 1_554 S
C333 C330 1.363 . S
C333 N331 1.356 . S
C334 C328 1.363 . S
C334 C329 1.379 1_556 S
C334 N332 1.356 . S
N335 C327 1.356 . S
N335 H341 0.984 . S
N335 H342 0.984 . S
N336 C329 1.356 . S
N336 H339 0.984 . S
N336 H340 0.985 . S
H337 N332 0.984 . S
H338 N332 0.985 . S
H339 N336 0.984 . S
H340 N336 0.985 . S
H341 N335 0.984 . S
H342 N335 0.984 . S
H343 N331 0.984 . S
H344 N331 0.985 . S
C130 C119 1.964 . S
C132 C27 2.117 . S
C148 C32 1.691 . S
C150 C75 1.592 . S
C166 C39 1.951 1_655 S
C168 C99 1.888 1_455 S
C184 C82 1.113 . S
C186 N3 1.382 . S
C202 C40 2.087 . S
C204 C118 1.982 . S
C220 C76 1.380 . S
C222 C33 1.452 . S
C238 C125 1.938 . S
C240 C13 2.016 1_455 S
C256 C56 1.098 . S
C258 N8 1.321 . S
C274 N89 0.695 . S
C276 N46 0.706 . S
C292 C113 0.899 . S
C294 C83 0.915 . S
C310 C70 0.906 . S
C312 C126 0.886 . S
C328 N94 0.659 . S
C330 N51 0.639 . S
