# Generated by pormake.
# Topology ana, (4)-cn, num edge types: 1
# Building blocks:
#     Node 0, Type 0, BuildingBlock: AZAVOO_clean_sbu_0, # of connection points: 4
#     Node 1, Type 0, BuildingBlock: AZAVOO_clean_sbu_0, # of connection points: 4
#     Node 2, Type 0, BuildingBlock: AZAVOO_clean_sbu_0, # of connection points: 4
#     Node 3, Type 0, BuildingBlock: AZAVOO_clean_sbu_0, # of connection points: 4
#     Node 4, Type 0, BuildingBlock: AZAVOO_clean_sbu_0, # of connection points: 4
#     Node 5, Type 0, BuildingBlock: AZAVOO_clean_sbu_0, # of connection points: 4
#     Node 6, Type 0, BuildingBlock: AZAVOO_clean_sbu_0, # of connection points: 4
#     Node 7, Type 0, BuildingBlock: AZAVOO_clean_sbu_0, # of connection points: 4
#     Node 8, Type 0, BuildingBlock: AZAVOO_clean_sbu_0, # of connection points: 4
#     Node 9, Type 0, BuildingBlock: AZAVOO_clean_sbu_0, # of connection points: 4
#     Node 10, Type 0, BuildingBlock: AZAVOO_clean_sbu_0, # of connection points: 4
#     Node 11, Type 0, BuildingBlock: AZAVOO_clean_sbu_0, # of connection points: 4
#     Node 12, Type 0, BuildingBlock: AZAVOO_clean_sbu_0, # of connection points: 4
#     Node 13, Type 0, BuildingBlock: AZAVOO_clean_sbu_0, # of connection points: 4
#     Node 14, Type 0, BuildingBlock: AZAVOO_clean_sbu_0, # of connection points: 4
#     Node 15, Type 0, BuildingBlock: AZAVOO_clean_sbu_0, # of connection points: 4
#     Node 16, Type 0, BuildingBlock: AZAVOO_clean_sbu_0, # of connection points: 4
#     Node 17, Type 0, BuildingBlock: AZAVOO_clean_sbu_0, # of connection points: 4
#     Node 18, Type 0, BuildingBlock: AZAVOO_clean_sbu_0, # of connection points: 4
#     Node 19, Type 0, BuildingBlock: AZAVOO_clean_sbu_0, # of connection points: 4
#     Node 20, Type 0, BuildingBlock: AZAVOO_clean_sbu_0, # of connection points: 4
#     Node 21, Type 0, BuildingBlock: AZAVOO_clean_sbu_0, # of connection points: 4
#     Node 22, Type 0, BuildingBlock: AZAVOO_clean_sbu_0, # of connection points: 4
#     Node 23, Type 0, BuildingBlock: AZAVOO_clean_sbu_0, # of connection points: 4
#     Node 24, Type 0, BuildingBlock: AZAVOO_clean_sbu_0, # of connection points: 4
#     Node 25, Type 0, BuildingBlock: AZAVOO_clean_sbu_0, # of connection points: 4
#     Node 26, Type 0, BuildingBlock: AZAVOO_clean_sbu_0, # of connection points: 4
#     Node 27, Type 0, BuildingBlock: AZAVOO_clean_sbu_0, # of connection points: 4
#     Node 28, Type 0, BuildingBlock: AZAVOO_clean_sbu_0, # of connection points: 4
#     Node 29, Type 0, BuildingBlock: AZAVOO_clean_sbu_0, # of connection points: 4
#     Node 30, Type 0, BuildingBlock: AZAVOO_clean_sbu_0, # of connection points: 4
#     Node 31, Type 0, BuildingBlock: AZAVOO_clean_sbu_0, # of connection points: 4
#     Node 32, Type 0, BuildingBlock: AZAVOO_clean_sbu_0, # of connection points: 4
#     Node 33, Type 0, BuildingBlock: AZAVOO_clean_sbu_0, # of connection points: 4
#     Node 34, Type 0, BuildingBlock: AZAVOO_clean_sbu_0, # of connection points: 4
#     Node 35, Type 0, BuildingBlock: AZAVOO_clean_sbu_0, # of connection points: 4
#     Node 36, Type 0, BuildingBlock: AZAVOO_clean_sbu_0, # of connection points: 4
#     Node 37, Type 0, BuildingBlock: AZAVOO_clean_sbu_0, # of connection points: 4
#     Node 38, Type 0, BuildingBlock: AZAVOO_clean_sbu_0, # of connection points: 4
#     Node 39, Type 0, BuildingBlock: AZAVOO_clean_sbu_0, # of connection points: 4
#     Node 40, Type 0, BuildingBlock: AZAVOO_clean_sbu_0, # of connection points: 4
#     Node 41, Type 0, BuildingBlock: AZAVOO_clean_sbu_0, # of connection points: 4
#     Node 42, Type 0, BuildingBlock: AZAVOO_clean_sbu_0, # of connection points: 4
#     Node 43, Type 0, BuildingBlock: AZAVOO_clean_sbu_0, # of connection points: 4
#     Node 44, Type 0, BuildingBlock: AZAVOO_clean_sbu_0, # of connection points: 4
#     Node 45, Type 0, BuildingBlock: AZAVOO_clean_sbu_0, # of connection points: 4
#     Node 46, Type 0, BuildingBlock: AZAVOO_clean_sbu_0, # of connection points: 4
#     Node 47, Type 0, BuildingBlock: AZAVOO_clean_sbu_0, # of connection points: 4
#     Edge 48, Type (0, 0), None
#     Edge 49, Type (0, 0), None
#     Edge 50, Type (0, 0), None
#     Edge 51, Type (0, 0), None
#     Edge 52, Type (0, 0), None
#     Edge 53, Type (0, 0), None
#     Edge 54, Type (0, 0), None
#     Edge 55, Type (0, 0), None
#     Edge 56, Type (0, 0), None
#     Edge 57, Type (0, 0), None
#     Edge 58, Type (0, 0), None
#     Edge 59, Type (0, 0), None
#     Edge 60, Type (0, 0), None
#     Edge 61, Type (0, 0), None
#     Edge 62, Type (0, 0), None
#     Edge 63, Type (0, 0), None
#     Edge 64, Type (0, 0), None
#     Edge 65, Type (0, 0), None
#     Edge 66, Type (0, 0), None
#     Edge 67, Type (0, 0), None
#     Edge 68, Type (0, 0), None
#     Edge 69, Type (0, 0), None
#     Edge 70, Type (0, 0), None
#     Edge 71, Type (0, 0), None
#     Edge 72, Type (0, 0), None
#     Edge 73, Type (0, 0), None
#     Edge 74, Type (0, 0), None
#     Edge 75, Type (0, 0), None
#     Edge 76, Type (0, 0), None
#     Edge 77, Type (0, 0), None
#     Edge 78, Type (0, 0), None
#     Edge 79, Type (0, 0), None
#     Edge 80, Type (0, 0), None
#     Edge 81, Type (0, 0), None
#     Edge 82, Type (0, 0), None
#     Edge 83, Type (0, 0), None
#     Edge 84, Type (0, 0), None
#     Edge 85, Type (0, 0), None
#     Edge 86, Type (0, 0), None
#     Edge 87, Type (0, 0), None
#     Edge 88, Type (0, 0), None
#     Edge 89, Type (0, 0), None
#     Edge 90, Type (0, 0), None
#     Edge 91, Type (0, 0), None
#     Edge 92, Type (0, 0), None
#     Edge 93, Type (0, 0), None
#     Edge 94, Type (0, 0), None
#     Edge 95, Type (0, 0), None
#     Edge 96, Type (0, 0), None
#     Edge 97, Type (0, 0), None
#     Edge 98, Type (0, 0), None
#     Edge 99, Type (0, 0), None
#     Edge 100, Type (0, 0), None
#     Edge 101, Type (0, 0), None
#     Edge 102, Type (0, 0), None
#     Edge 103, Type (0, 0), None
#     Edge 104, Type (0, 0), None
#     Edge 105, Type (0, 0), None
#     Edge 106, Type (0, 0), None
#     Edge 107, Type (0, 0), None
#     Edge 108, Type (0, 0), None
#     Edge 109, Type (0, 0), None
#     Edge 110, Type (0, 0), None
#     Edge 111, Type (0, 0), None
#     Edge 112, Type (0, 0), None
#     Edge 113, Type (0, 0), None
#     Edge 114, Type (0, 0), None
#     Edge 115, Type (0, 0), None
#     Edge 116, Type (0, 0), None
#     Edge 117, Type (0, 0), None
#     Edge 118, Type (0, 0), None
#     Edge 119, Type (0, 0), None
#     Edge 120, Type (0, 0), None
#     Edge 121, Type (0, 0), None
#     Edge 122, Type (0, 0), None
#     Edge 123, Type (0, 0), None
#     Edge 124, Type (0, 0), None
#     Edge 125, Type (0, 0), None
#     Edge 126, Type (0, 0), None
#     Edge 127, Type (0, 0), None
#     Edge 128, Type (0, 0), None
#     Edge 129, Type (0, 0), None
#     Edge 130, Type (0, 0), None
#     Edge 131, Type (0, 0), None
#     Edge 132, Type (0, 0), None
#     Edge 133, Type (0, 0), None
#     Edge 134, Type (0, 0), None
#     Edge 135, Type (0, 0), None
#     Edge 136, Type (0, 0), None
#     Edge 137, Type (0, 0), None
#     Edge 138, Type (0, 0), None
#     Edge 139, Type (0, 0), None
#     Edge 140, Type (0, 0), None
#     Edge 141, Type (0, 0), None
#     Edge 142, Type (0, 0), None
#     Edge 143, Type (0, 0), None
# Relax obj value: 0.258
# Max RMSD: 0.272
# Mean RMSD: 0.230
data_MOF--net-ana--node1-AZAVOO_clean_sbu_0--edge1-none
_symmetry_space_group_name_H-M    P1
_symmetry_Int_Tables_number       1
_symmetry_cell_setting            triclinic
loop_
_symmetry_equiv_pos_as_xyz
'x, y, z'
_cell_length_a     30.079028
_cell_length_b     28.135589
_cell_length_c     28.439071
_cell_angle_alpha  90.09845
_cell_angle_beta   91.335152
_cell_angle_gamma 93.417197
loop_
_atom_site_label
_atom_site_type_symbol
_atom_site_fract_x
_atom_site_fract_y
_atom_site_fract_z
_atom_type_partial_charge
Mg0 Mg 0.11718 0.17664 0.40524 0.0
O1 O 0.05345 0.13867 0.37513 0.0
O2 O 0.05186 0.06173 0.39401 0.0
Mg3 Mg 0.11448 0.05092 0.43991 0.0
C4 C 0.03449 0.09701 0.37416 0.0
C5 C 0.13041 0.25381 0.32641 0.0
O6 O 0.16953 0.23559 0.325 0.0
O7 O 0.16359 0.14207 0.35313 0.0
O8 O 0.16154 0.06685 0.3794 0.0
O9 O 0.08232 0.18811 0.47419 0.0
O10 O 0.12244 0.12718 0.45796 0.0
C11 C 0.17643 0.09954 0.35189 0.0
C12 C 0.09885 0.1486 0.48709 0.0
O13 O 0.10238 0.23847 0.35632 0.0
Mg14 Mg 0.06951 0.84722 0.63513 0.0
O15 O 0.08535 0.92459 0.61381 0.0
O16 O 0.0837 0.93163 0.53523 0.0
Mg17 Mg 0.06158 0.85737 0.50501 0.0
C18 C 0.08993 0.94932 0.57646 0.0
C19 C 0.06739 0.8612 0.74364 0.0
O20 O 0.02512 0.85034 0.73394 0.0
O21 O 0.1381 0.82985 0.60902 0.0
O22 O 0.12942 0.83585 0.53375 0.0
O23 O -0.00213 0.86053 0.63751 0.0
O24 O 0.02924 0.83633 0.57301 0.0
C25 C 0.13424 0.80912 0.56927 0.0
C26 C -0.00599 0.84864 0.59361 0.0
O27 O 0.09517 0.8624 0.71046 0.0
Mg28 Mg 0.3511 0.80833 0.92432 0.0
O29 O 0.41251 0.84373 0.88877 0.0
O30 O 0.41864 0.92071 0.90926 0.0
Mg31 Mg 0.36216 0.93459 0.95866 0.0
C32 C 0.43209 0.88522 0.88687 0.0
C33 C 0.31992 0.71632 0.87044 0.0
O34 O 0.28137 0.73377 0.87897 0.0
O35 O 0.30395 0.844 0.87252 0.0
O36 O 0.31211 0.91959 0.89846 0.0
O37 O 0.39033 0.79452 -0.00906 0.0
O38 O 0.35367 0.85891 0.97587 0.0
C39 C 0.2944 0.88773 0.87077 0.0
C40 C 0.37746 0.83539 0.00431 0.0
O41 O 0.35565 0.7404 0.88164 0.0
Mg42 Mg 0.44379 0.12077 0.14182 0.0
O43 O 0.41397 0.04583 0.13439 0.0
O44 O 0.42125 0.02262 0.06013 0.0
Mg45 Mg 0.47512 0.07351 0.02897 0.0
C46 C 0.4058 0.01641 0.10105 0.0
C47 C 0.41832 0.13143 0.24537 0.0
O48 O 0.46163 0.14068 0.24702 0.0
O49 O 0.3932 0.14921 0.08824 0.0
O50 O 0.42908 0.13487 0.0223 0.0
O51 O 0.50766 0.09533 0.17215 0.0
O52 O 0.49614 0.10818 0.0971 0.0
C53 C 0.40116 0.15802 0.04495 0.0
C54 C 0.52379 0.09881 0.13046 0.0
O55 O 0.39884 0.12776 0.20524 0.0
Mg56 Mg 0.10937 0.79643 0.07079 0.0
O57 O 0.17286 0.83115 0.10538 0.0
O58 O 0.17272 0.81331 0.1821 0.0
Mg59 Mg 0.11052 0.76621 0.19738 0.0
C60 C 0.19032 0.83409 0.14669 0.0
C61 C 0.08811 0.86092 0.98331 0.0
O62 O 0.04827 0.85415 0.00093 0.0
O63 O 0.06786 0.85253 0.10548 0.0
O64 O 0.06956 0.82963 0.18106 0.0
O65 O 0.14324 0.72602 0.06198 0.0
O66 O 0.10453 0.74513 0.12323 0.0
C67 C 0.0571 0.85732 0.14849 0.0
C68 C 0.12781 0.71499 0.1029 0.0
O69 O 0.12092 0.84212 0.00366 0.0
Mg70 Mg 0.38762 0.83905 0.31253 0.0
O71 O 0.36412 0.7854 0.36659 0.0
O72 O 0.28953 0.7853 0.35915 0.0
Mg73 Mg 0.27019 0.82398 0.29068 0.0
C74 C 0.32506 0.77255 0.38009 0.0
C75 C 0.47445 0.8932 0.33216 0.0
O76 O 0.45515 0.91997 0.30092 0.0
O77 O 0.35805 0.89978 0.35186 0.0
O78 O 0.28851 0.89649 0.32353 0.0
O79 O 0.40682 0.78803 0.25964 0.0
O80 O 0.33771 0.80851 0.26772 0.0
C81 C 0.32048 0.91776 0.34662 0.0
C82 C 0.36949 0.79892 0.24015 0.0
O83 O 0.45343 0.85649 0.34802 0.0
Mg84 Mg 0.37539 0.17314 0.56008 0.0
O85 O 0.30853 0.14785 0.59243 0.0
O86 O 0.30927 0.17202 0.66736 0.0
Mg87 Mg 0.37496 0.21469 0.68322 0.0
C88 C 0.29025 0.15017 0.63236 0.0
C89 C 0.38756 0.10345 0.47465 0.0
O90 O 0.42798 0.10492 0.49331 0.0
O91 O 0.41307 0.11613 0.60159 0.0
O92 O 0.41219 0.1472 0.67433 0.0
O93 O 0.34989 0.24554 0.54214 0.0
O94 O 0.38519 0.22894 0.60835 0.0
C95 C 0.42359 0.11546 0.6456 0.0
C96 C 0.36616 0.25943 0.58272 0.0
O97 O 0.35781 0.12604 0.49458 0.0
Mg98 Mg 0.07613 0.13374 0.81412 0.0
O99 O 0.10623 0.20439 0.84574 0.0
O100 O 0.1793 0.20094 0.83551 0.0
Mg101 Mg 0.19325 0.13924 0.78666 0.0
C102 C 0.14621 0.22142 0.8518 0.0
C103 C -0.00715 0.10157 0.86954 0.0
O104 O 0.01141 0.06062 0.8671 0.0
O105 O 0.10701 0.08546 0.86927 0.0
O106 O 0.17527 0.0814 0.84095 0.0
O107 O 0.06089 0.16833 0.74597 0.0
O108 O 0.12294 0.13328 0.76189 0.0
C109 C 0.14446 0.06637 0.86829 0.0
C110 C 0.09803 0.15337 0.73134 0.0
O111 O 0.01284 0.13903 0.85382 0.0
Mg112 Mg 0.15818 0.37611 0.12569 0.0
O113 O 0.15098 0.37439 0.04755 0.0
O114 O 0.08859 0.40516 0.02044 0.0
Mg115 Mg 0.04739 0.41251 0.08719 0.0
C116 C 0.12622 0.38747 0.01398 0.0
C117 C 0.25546 0.34766 0.13908 0.0
O118 O 0.25323 0.37774 0.17418 0.0
O119 O 0.11481 0.30741 0.13405 0.0
O120 O 0.05769 0.33323 0.09802 0.0
O121 O 0.18215 0.45114 0.11984 0.0
O122 O 0.11073 0.43098 0.12922 0.0
C123 C 0.07426 0.31728 0.13587 0.0
C124 C 0.14178 0.46406 0.12325 0.0
O125 O 0.22066 0.33631 0.11466 0.0
Mg126 Mg 0.65532 0.07529 0.88831 0.0
O127 O 0.62166 0.10021 0.82269 0.0
O128 O 0.62673 0.17831 0.81107 0.0
Mg129 Mg 0.67266 0.20405 0.87362 0.0
C130 C 0.6127 0.13651 0.79876 0.0
C131 C 0.64231 0.97086 0.86262 0.0
O132 O 0.68566 0.97877 0.86691 0.0
O133 O 0.60428 0.10454 0.93723 0.0
O134 O 0.62361 0.1824 0.93112 0.0
O135 O 0.71792 0.06965 0.84887 0.0
O136 O 0.70145 0.13385 0.88818 0.0
C137 C 0.60155 0.14776 0.95031 0.0
C138 C 0.72961 0.11191 0.86421 0.0
O139 O 0.61732 0.00339 0.87482 0.0
Mg140 Mg 0.80334 0.91021 0.36265 0.0
O141 O 0.84577 0.90268 0.29836 0.0
O142 O 0.83562 0.8293 0.26943 0.0
Mg143 Mg 0.78491 0.7918 0.31823 0.0
C144 C 0.85351 0.87135 0.26797 0.0
C145 C 0.81908 0.01273 0.38065 0.0
O146 O 0.7768 0.00358 0.38971 0.0
O147 O 0.8457 0.86853 0.41142 0.0
O148 O 0.83218 0.79426 0.38431 0.0
O149 O 0.75063 0.93218 0.3144 0.0
O150 O 0.75407 0.85875 0.3408 0.0
C151 C 0.85039 0.82401 0.41403 0.0
C152 C 0.73119 0.8904 0.31991 0.0
O153 O 0.8439 0.97808 0.37803 0.0
Mg154 Mg 0.8541 0.11438 0.05592 0.0
O155 O 0.86435 0.11999 0.13459 0.0
O156 O 0.84398 0.19101 0.16043 0.0
Mg157 Mg 0.81243 0.22952 0.09786 0.0
C158 C 0.86083 0.15082 0.16694 0.0
C159 C 0.87323 0.01158 0.04564 0.0
O160 O 0.83679 0.01508 0.01988 0.0
O161 O 0.9126 0.17048 0.05379 0.0
O162 O 0.88382 0.23691 0.06989 0.0
O163 O 0.78596 0.07975 0.06401 0.0
O164 O 0.79908 0.15767 0.06423 0.0
C165 C 0.89618 0.20833 0.03882 0.0
C166 C 0.77121 0.12149 0.06929 0.0
O167 O 0.89612 0.04965 0.0566 0.0
Mg168 Mg 0.31812 0.5944 0.60413 0.0
O169 O 0.3276 0.57372 0.68169 0.0
O170 O 0.31799 0.64326 0.71795 0.0
Mg171 Mg 0.27689 0.69224 0.67082 0.0
C172 C 0.33017 0.60045 0.7182 0.0
C173 C 0.35084 0.50575 0.55566 0.0
O174 O 0.31258 0.51021 0.53341 0.0
O175 O 0.37091 0.65273 0.62197 0.0
O176 O 0.33767 0.71896 0.62635 0.0
O177 O 0.25078 0.55619 0.59681 0.0
O178 O 0.26221 0.63003 0.62251 0.0
C179 C 0.36123 0.69156 0.6029 0.0
C180 C 0.23447 0.59451 0.61256 0.0
O181 O 0.3666 0.54039 0.58098 0.0
Mg182 Mg 0.16852 0.55859 0.39782 0.0
O183 O 0.1448 0.59005 0.32921 0.0
O184 O 0.14959 0.66892 0.32635 0.0
Mg185 Mg 0.19019 0.68747 0.39504 0.0
C186 C 0.13802 0.62867 0.30808 0.0
C187 C 0.15053 0.47599 0.33456 0.0
O188 O 0.18689 0.49911 0.32046 0.0
O189 O 0.11097 0.58608 0.44024 0.0
O190 O 0.13223 0.66399 0.44145 0.0
O191 O 0.23853 0.55375 0.37303 0.0
O192 O 0.2145 0.61532 0.4108 0.0
C193 C 0.10693 0.62873 0.45468 0.0
C194 C 0.24709 0.59436 0.39331 0.0
O195 O 0.13153 0.49031 0.37105 0.0
Mg196 Mg 0.30897 0.40386 0.82571 0.0
O197 O 0.34018 0.36433 0.8889 0.0
O198 O 0.4073 0.4024 0.89915 0.0
Mg199 Mg 0.41571 0.46828 0.85327 0.0
C200 C 0.3783 0.36945 0.90973 0.0
C201 C 0.22587 0.3352 0.79074 0.0
O202 O 0.20903 0.29648 0.76955 0.0
O203 O 0.35689 0.37725 0.7742 0.0
O204 O 0.41917 0.42292 0.78669 0.0
O205 O 0.27591 0.45365 0.87512 0.0
O206 O 0.34292 0.46701 0.84713 0.0
C207 C 0.39629 0.39086 0.76348 0.0
C208 C 0.31238 0.4804 0.87376 0.0
O209 O 0.26667 0.33777 0.80304 0.0
Mg210 Mg 0.87253 0.79631 0.5734 0.0
O211 O 0.85874 0.81672 0.49618 0.0
O212 O 0.90559 0.77983 0.45047 0.0
Mg213 Mg 0.95568 0.74676 0.4998 0.0
C214 C 0.87309 0.80609 0.45578 0.0
C215 C 0.79891 0.83309 0.63611 0.0
O216 O 0.83471 0.8421 0.66269 0.0
O217 O 0.84879 0.72003 0.5604 0.0
O218 O 0.90282 0.68745 0.52067 0.0
O219 O 0.91672 0.86101 0.5865 0.0
O220 O 0.9399 0.79283 0.56061 0.0
C221 C 0.86588 0.68419 0.54216 0.0
C222 C 0.94941 0.83613 0.57412 0.0
O223 O 0.80279 0.81494 0.59551 0.0
Mg224 Mg 0.90498 0.11361 0.29189 0.0
O225 O 0.87421 0.17917 0.32326 0.0
O226 O 0.80187 0.17766 0.30176 0.0
Mg227 Mg 0.78567 0.11135 0.25774 0.0
C228 C 0.83606 0.19702 0.32302 0.0
C229 C -0.00884 0.0896 0.34927 0.0
O230 O 0.97488 0.04624 0.33965 0.0
O231 O 0.87172 0.06645 0.34664 0.0
O232 O 0.80025 0.06605 0.32227 0.0
O233 O 0.91845 0.1537 0.22626 0.0
O234 O 0.85588 0.11051 0.23955 0.0
C235 C 0.83069 0.0532 0.35075 0.0
C236 C 0.87844 0.1392 0.213 0.0
O237 O 0.96952 0.12507 0.33626 0.0
Mg238 Mg 0.63665 0.17375 0.10658 0.0
O239 O 0.62004 0.15643 0.02949 0.0
O240 O 0.55092 0.17275 0.00661 0.0
Mg241 Mg 0.52258 0.2043 0.07326 0.0
C242 C 0.58871 0.15667 -0.00154 0.0
C243 C 0.72461 0.12627 0.08183 0.0
O244 O 0.69645 0.08877 0.08031 0.0
O245 O 0.64521 0.25268 0.08811 0.0
O246 O 0.57463 0.2664 0.06785 0.0
O247 O 0.60479 0.10146 0.1278 0.0
O248 O 0.56954 0.16767 0.11905 0.0
C249 C 0.61568 0.28014 0.07342 0.0
C250 C 0.56789 0.12289 0.12705 0.0
O251 O 0.71079 0.16638 0.09297 0.0
Mg252 Mg 0.54323 0.8658 0.78391 0.0
O253 O 0.57433 0.8037 0.82178 0.0
O254 O 0.64479 0.80002 0.7989 0.0
Mg255 Mg 0.65868 0.85884 0.7454 0.0
C256 C 0.61191 0.78493 0.82338 0.0
C257 C 0.47091 0.89282 0.85687 0.0
O258 O 0.49045 0.93554 0.85265 0.0
O259 O 0.58317 0.9188 0.83227 0.0
O260 O 0.65185 0.91334 0.80466 0.0
O261 O 0.52174 0.81907 0.72278 0.0
O262 O 0.58713 0.85904 0.72909 0.0
C263 C 0.62474 0.93118 0.83276 0.0
C264 C 0.56085 0.82911 0.7062 0.0
O265 O 0.48483 0.85832 0.83371 0.0
Mg266 Mg 0.85513 0.14393 0.89789 0.0
O267 O 0.85396 0.21781 0.86483 0.0
O268 O 0.79584 0.2537 0.8937 0.0
Mg269 Mg 0.76412 0.20561 0.9492 0.0
C270 C 0.82928 0.253 0.86704 0.0
C271 C 0.94736 0.10361 0.88556 0.0
O272 O 0.92955 0.06984 0.91218 0.0
O273 O 0.88324 0.17559 0.96448 0.0
O274 O 0.82825 0.21466 -0.00433 0.0
O275 O 0.80693 0.11242 0.84346 0.0
O276 O 0.78906 0.14484 0.91106 0.0
C277 C 0.86793 0.20074 -0.0032 0.0
C278 C 0.77663 0.1254 0.87166 0.0
O279 O 0.92442 0.13759 0.87197 0.0
Mg280 Mg 0.55745 0.08006 0.68274 0.0
O281 O 0.58379 0.13517 0.63053 0.0
O282 O 0.6576 0.14596 0.63223 0.0
Mg283 Mg 0.679 0.10114 0.69597 0.0
C284 C 0.61961 0.15454 0.61467 0.0
C285 C 0.45691 0.08364 0.66385 0.0
O286 O 0.45983 0.07758 0.70959 0.0
O287 O 0.58459 0.0158 0.64558 0.0
O288 O 0.65748 0.03018 0.66214 0.0
O289 O 0.55352 0.13679 0.73972 0.0
O290 O 0.61197 0.09538 0.72739 0.0
C291 C 0.62484 0.00332 0.64635 0.0
C292 C 0.59352 0.1265 0.75189 0.0
O293 O 0.49158 0.07899 0.64014 0.0
Mg294 Mg 0.61517 0.88385 0.37963 0.0
O295 O 0.6256 0.80375 0.38456 0.0
O296 O 0.69483 0.79272 0.41156 0.0
Mg297 Mg 0.72416 0.86578 0.43471 0.0
C298 C 0.65678 0.77668 0.39582 0.0
C299 C 0.52138 0.90218 0.34449 0.0
O300 O 0.54223 0.94305 0.33428 0.0
O301 O 0.59962 0.88405 0.45666 0.0
O302 O 0.66746 0.86995 0.4854 0.0
O303 O 0.65075 0.88641 0.31046 0.0
O304 O 0.68226 0.89752 0.38125 0.0
C305 C 0.62625 0.87637 0.49082 0.0
C306 C 0.68628 0.89235 0.33685 0.0
O307 O 0.54279 0.86901 0.36245 0.0
Mg308 Mg 0.92657 0.91409 0.15914 0.0
O309 O 0.90168 0.84605 0.12168 0.0
O310 O 0.82771 0.83848 0.11412 0.0
Mg311 Mg 0.80548 0.90578 0.15084 0.0
C312 C 0.8661 0.82319 0.10765 0.0
C313 C 0.02342 0.89024 0.16093 0.0
O314 O 0.01512 0.89675 0.20555 0.0
O315 O 0.9118 0.96117 0.09665 0.0
O316 O 0.83737 0.95494 0.09437 0.0
O317 O 0.92212 0.87327 0.22633 0.0
O318 O 0.86718 0.91391 0.19655 0.0
C319 C 0.87454 0.97171 0.07861 0.0
C320 C 0.88158 0.88585 0.22855 0.0
O321 O -0.00577 0.90021 0.13036 0.0
Mg322 Mg 0.79791 0.56763 0.85299 0.0
O323 O 0.83359 0.59722 0.92222 0.0
O324 O 0.90619 0.58809 0.91193 0.0
Mg325 Mg 0.91656 0.54328 0.84633 0.0
C326 C 0.87448 0.60292 0.93598 0.0
C327 C 0.69802 0.57979 0.85933 0.0
O328 O 0.69949 0.53658 0.84216 0.0
O329 O 0.82699 0.62725 0.8068 0.0
O330 O 0.89572 0.60241 0.79729 0.0
O331 O 0.78485 0.49216 0.87823 0.0
O332 O 0.84624 0.52005 0.84538 0.0
C333 C 0.86462 0.62974 0.78675 0.0
C334 C 0.82312 0.4842 0.86097 0.0
O335 O 0.73437 0.60435 0.86683 0.0
Mg336 Mg 0.32601 0.90606 0.13429 0.0
O337 O 0.34886 0.86795 0.07073 0.0
O338 O 0.42225 0.85961 0.07059 0.0
Mg339 Mg 0.44708 0.8984 0.13793 0.0
C340 C 0.38346 0.85318 0.05204 0.0
C341 C 0.23309 0.86103 0.15386 0.0
O342 O 0.25034 0.8663 0.19652 0.0
O343 O 0.33689 0.84267 0.18028 0.0
O344 O 0.411 0.84232 0.18464 0.0
O345 O 0.33493 0.97358 0.09504 0.0
O346 O 0.388 0.94294 0.13924 0.0
C347 C 0.37234 0.82559 0.19619 0.0
C348 C 0.37583 0.97532 0.11052 0.0
O349 O 0.25513 0.87663 0.11898 0.0
Mg350 Mg 0.15428 0.07065 0.61367 0.0
O351 O 0.12926 0.11364 0.5529 0.0
O352 O 0.05536 0.11517 0.54845 0.0
Mg353 Mg 0.03264 0.06613 0.60898 0.0
C354 C 0.09386 0.12766 0.53361 0.0
C355 C 0.24594 0.1264 0.63887 0.0
O356 O 0.22876 0.12493 0.68089 0.0
O357 O 0.13695 0.12555 0.66755 0.0
O358 O 0.06261 0.11746 0.66585 0.0
O359 O 0.1506 0.00672 0.56746 0.0
O360 O 0.09517 0.02623 0.61214 0.0
C361 C 0.09933 0.13586 0.68305 0.0
C362 C 0.11058 -0.00253 0.58211 0.0
O363 O 0.22414 0.10695 0.60433 0.0
Mg364 Mg 0.16004 0.93175 0.85485 0.0
O365 O 0.13193 0.89472 0.92147 0.0
O366 O 0.06069 0.91203 0.92477 0.0
Mg367 Mg 0.04601 0.96583 0.86651 0.0
C368 C 0.09406 0.89071 0.94084 0.0
C369 C 0.25507 0.90125 0.84442 0.0
O370 O 0.25641 0.94315 0.82405 0.0
O371 O 0.12044 0.88279 0.80359 0.0
O372 O 0.05243 0.91092 0.80705 0.0
O373 O 0.18311 -0.00097 0.89363 0.0
O374 O 0.11737 0.98726 0.85925 0.0
C375 C 0.0802 0.8841 0.78867 0.0
C376 C 0.14554 0.01597 0.88115 0.0
O377 O 0.21785 0.88364 0.85819 0.0
Mg378 Mg 0.66446 0.44005 0.35295 0.0
O379 O 0.63788 0.38907 0.41066 0.0
O380 O 0.56692 0.40604 0.41936 0.0
Mg381 Mg 0.55109 0.47125 0.37587 0.0
C382 C 0.59986 0.38094 0.42894 0.0
C383 C 0.75952 0.42059 0.33365 0.0
O384 O 0.75538 0.46491 0.32061 0.0
O385 O 0.62263 0.40011 0.2958 0.0
O386 O 0.55517 0.42688 0.30845 0.0
O387 O 0.68866 0.49722 0.40457 0.0
O388 O 0.62227 0.49309 0.37112 0.0
C389 C 0.58153 0.40307 0.2844 0.0
C390 C 0.65109 0.51653 0.39763 0.0
O391 O 0.72455 0.39578 0.34431 0.0
Mg392 Mg 0.81975 0.3831 0.62866 0.0
O393 O 0.85231 0.36529 0.55888 0.0
O394 O 0.92647 0.38255 0.55823 0.0
Mg395 Mg 0.94289 0.39386 0.63592 0.0
C396 C 0.88964 0.3687 0.53799 0.0
C397 C 0.72897 0.33096 0.6375 0.0
O398 O 0.74467 0.33274 0.6809 0.0
O399 O 0.83558 0.31224 0.66151 0.0
O400 O 0.9031 0.32256 0.63955 0.0
O401 O 0.81942 0.45711 0.60501 0.0
O402 O 0.87797 0.42954 0.64293 0.0
C403 C 0.87646 0.31445 0.67276 0.0
C404 C 0.86019 0.46368 0.62014 0.0
O405 O 0.75228 0.34949 0.60486 0.0
Mg406 Mg 0.66529 0.59371 0.1443 0.0
O407 O 0.63192 0.63524 0.08679 0.0
O408 O 0.55795 0.62252 0.08458 0.0
Mg409 Mg 0.54335 0.57125 0.14496 0.0
C410 C 0.59366 0.64252 0.06902 0.0
C411 C 0.7584 0.65039 0.16517 0.0
O412 O 0.74609 0.64625 0.20905 0.0
O413 O 0.64345 0.64364 0.2011 0.0
O414 O 0.57001 0.62511 0.2001 0.0
O415 O 0.66683 0.53272 0.09465 0.0
O416 O 0.61121 0.5445 0.14252 0.0
C417 C 0.60457 0.64806 0.21713 0.0
C418 C 0.62777 0.51976 0.1099 0.0
O419 O 0.73221 0.63477 0.13221 0.0
Mg420 Mg 0.60291 0.67292 0.93452 0.0
O421 O 0.5379 0.62834 0.91473 0.0
O422 O 0.54326 0.5562 0.94642 0.0
Mg423 Mg 0.60972 0.55442 -0.01286 0.0
C424 C 0.52191 0.58605 0.92248 0.0
C425 C 0.61847 0.74597 0.85632 0.0
O426 O 0.65845 0.73054 0.86315 0.0
O427 O 0.64491 0.63261 0.88365 0.0
O428 O 0.65 0.56251 0.92038 0.0
O429 O 0.57487 0.69472 0.0044 0.0
O430 O 0.61422 0.6322 -0.00817 0.0
C431 C 0.65994 0.59119 0.88701 0.0
C432 C 0.59389 0.65775 0.02041 0.0
O433 O 0.58639 0.72879 0.88049 0.0
Mg434 Mg 0.56278 0.37509 0.13068 0.0
O435 O 0.58188 0.45271 0.125 0.0
O436 O 0.60846 0.46018 0.05277 0.0
Mg437 Mg 0.56574 0.40506 0.00853 0.0
C438 C 0.60416 0.47574 0.09438 0.0
C439 C 0.56475 0.38434 0.23883 0.0
O440 O 0.52184 0.38363 0.22908 0.0
O441 O 0.62856 0.35765 0.09953 0.0
O442 O 0.61039 0.34392 0.02511 0.0
O443 O 0.49276 0.39361 0.13528 0.0
O444 O 0.52429 0.37605 0.06864 0.0
C445 C 0.62738 0.33015 0.0639 0.0
C446 C 0.48909 0.38705 0.09028 0.0
O447 O 0.5916 0.37885 0.2057 0.0
Mg448 Mg 0.86001 0.33066 0.40903 0.0
O449 O 0.92082 0.36199 0.37101 0.0
O450 O 0.92984 0.43968 0.38631 0.0
Mg451 Mg 0.87571 0.45696 0.43804 0.0
C452 C 0.94153 0.4023 0.36578 0.0
C453 C 0.83113 0.24145 0.34851 0.0
O454 O 0.79149 0.2573 0.35472 0.0
O455 O 0.81146 0.3651 0.35832 0.0
O456 O 0.82106 0.44126 0.38189 0.0
O457 O 0.90025 0.31688 0.47345 0.0
O458 O 0.86426 0.38231 0.46089 0.0
C459 C 0.80142 0.4086 0.3564 0.0
C460 C 0.88847 0.35773 0.48816 0.0
O461 O 0.86531 0.26434 0.36547 0.0
Mg462 Mg 0.88901 0.62515 0.64073 0.0
O463 O 0.8764 0.544 0.63812 0.0
O464 O 0.90222 0.51544 0.57103 0.0
Mg465 Mg 0.92809 0.58009 0.52732 0.0
C466 C 0.88403 0.50939 0.61095 0.0
C467 C 0.86828 0.65272 0.74108 0.0
O468 O 0.90499 0.67867 0.73281 0.0
O469 O 0.82887 0.63052 0.59061 0.0
O470 O 0.85572 0.6017 0.52743 0.0
O471 O 0.9572 0.61622 0.66976 0.0
O472 O 0.94236 0.62123 0.59357 0.0
C473 C 0.84241 0.63764 0.54905 0.0
C474 C 0.97102 0.61523 0.62712 0.0
O475 O 0.84877 0.63007 0.70692 0.0
Mg476 Mg 0.60607 0.27749 0.54703 0.0
O477 O 0.66958 0.30677 0.5854 0.0
O478 O 0.66264 0.29133 0.66217 0.0
Mg479 Mg 0.59392 0.25558 0.67379 0.0
C480 C 0.68471 0.30832 0.62766 0.0
C481 C 0.59313 0.34256 0.46354 0.0
O482 O 0.5528 0.33224 0.47869 0.0
O483 O 0.569 0.34009 0.57372 0.0
O484 O 0.56388 0.32475 0.65066 0.0
O485 O 0.63451 0.20379 0.54551 0.0
O486 O 0.59194 0.22969 0.6009 0.0
C487 C 0.55721 0.35096 0.61491 0.0
C488 C 0.61497 0.1967 0.5852 0.0
O489 O 0.62569 0.32197 0.48221 0.0
Mg490 Mg 0.90705 0.37733 0.7933 0.0
O491 O 0.87688 0.31188 0.83196 0.0
O492 O 0.80412 0.30724 0.81208 0.0
Mg493 Mg 0.79094 0.36165 0.75585 0.0
C494 C 0.83743 0.29289 0.83531 0.0
C495 C -0.0098 0.42051 0.84059 0.0
O496 O 0.97295 0.45864 0.82311 0.0
O497 O 0.87205 0.42661 0.84096 0.0
O498 O 0.80215 0.41981 0.81253 0.0
O499 O 0.92807 0.33315 0.73532 0.0
O500 O 0.86214 0.36453 0.73863 0.0
C501 C 0.83177 0.43808 0.84115 0.0
C502 C 0.88884 0.33795 0.71712 0.0
O503 O 0.96807 0.38081 0.8388 0.0
Mg504 Mg 0.88146 0.68779 0.07271 0.0
O505 O 0.81811 0.66553 0.11332 0.0
O506 O 0.82466 0.69565 0.18616 0.0
Mg507 Mg 0.89203 0.73786 0.1926 0.0
C508 C 0.80277 0.67178 0.15424 0.0
C509 C 0.88687 0.62956 0.97972 0.0
O510 O 0.92795 0.64744 0.98574 0.0
O511 O 0.92472 0.63391 0.11384 0.0
O512 O 0.92893 0.66982 0.18445 0.0
O513 O 0.85105 0.75722 0.05338 0.0
O514 O 0.89413 0.74701 0.11602 0.0
C515 C 0.93884 0.63641 0.15688 0.0
C516 C 0.87044 0.77441 0.09131 0.0
O517 O 0.85869 0.63684 0.01123 0.0
Mg518 Mg 0.58034 0.6377 0.34867 0.0
O519 O 0.61189 0.70723 0.37846 0.0
O520 O 0.68479 0.70798 0.36436 0.0
Mg521 Mg 0.6977 0.64643 0.31512 0.0
C522 C 0.6512 0.72671 0.3816 0.0
C523 C 0.49882 0.60309 0.40598 0.0
O524 O 0.51512 0.5627 0.39387 0.0
O525 O 0.6144 0.58792 0.40001 0.0
O526 O 0.68059 0.58609 0.36639 0.0
O527 O 0.56323 0.67393 0.28133 0.0
O528 O 0.62636 0.64058 0.29541 0.0
C529 C 0.65124 0.56852 0.39413 0.0
C530 C 0.6012 0.66171 0.26618 0.0
O531 O 0.51904 0.64207 0.39426 0.0
Mg532 Mg 0.65518 0.86778 0.64718 0.0
O533 O 0.6387 0.86395 0.57009 0.0
O534 O 0.5737 0.89359 0.54845 0.0
Mg535 Mg 0.53876 0.89629 0.61871 0.0
C536 C 0.61094 0.87669 0.53883 0.0
C537 C 0.75559 0.84774 0.65188 0.0
O538 O 0.7541 0.87997 0.68517 0.0
O539 O 0.61633 0.79756 0.66255 0.0
O540 O 0.55813 0.8195 0.62544 0.0
O541 O 0.6751 0.94271 0.63577 0.0
O542 O 0.60541 0.9196 0.65221 0.0
C543 C 0.57532 0.80558 0.66372 0.0
C544 C 0.63419 0.95328 0.64058 0.0
O545 O 0.71961 0.83202 0.63153 0.0
Mg546 Mg 0.37653 0.3127 0.06326 0.0
O547 O 0.36545 0.33691 0.98558 0.0
O548 O 0.4296 0.32504 0.95008 0.0
Mg549 Mg 0.47946 0.29253 -0.00048 0.0
C550 C 0.39007 0.33901 0.94938 0.0
C551 C 0.29897 0.33356 0.12382 0.0
O552 O 0.33436 0.34314 0.15087 0.0
O553 O 0.36853 0.23287 0.04669 0.0
O554 O 0.43494 0.22638 0.01451 0.0
O555 O 0.40916 0.38411 0.0848 0.0
O556 O 0.4446 0.32466 0.05638 0.0
C557 C 0.39848 0.20768 0.03008 0.0
C558 C 0.44621 0.36713 0.07264 0.0
O559 O 0.30391 0.31815 0.08226 0.0
Mg560 Mg 0.38747 0.57412 0.84198 0.0
O561 O 0.35819 0.64623 0.85951 0.0
O562 O 0.28537 0.64529 0.83927 0.0
Mg563 Mg 0.26417 0.56783 0.82173 0.0
C564 C 0.32152 0.66685 0.85446 0.0
C565 C 0.47742 0.57054 0.90324 0.0
O566 O 0.46103 0.52719 0.91158 0.0
O567 O 0.35972 0.53917 0.90906 0.0
O568 O 0.29143 0.55486 0.89597 0.0
O569 O 0.39444 0.59903 0.76856 0.0
O570 O 0.33261 0.56125 0.79333 0.0
C571 C 0.31946 0.52354 0.90263 0.0
C572 C 0.35347 0.58411 0.76038 0.0
O573 O 0.45495 0.59825 0.87805 0.0
Mg574 Mg 0.09842 0.65608 0.61335 0.0
O575 O 0.10143 0.63111 0.53612 0.0
O576 O 0.04905 0.6643 0.4924 0.0
Mg577 Mg 0.00894 0.70596 0.54347 0.0
C578 C 0.08155 0.63753 0.49661 0.0
C579 C 0.18604 0.59802 0.6152 0.0
O580 O 0.15898 0.56388 0.59753 0.0
O581 O 0.12474 0.72977 0.59312 0.0
O582 O 0.06949 0.75985 0.55078 0.0
O583 O 0.04846 0.59615 0.63374 0.0
O584 O 0.03182 0.66504 0.60366 0.0
C585 C 0.10838 0.76346 0.56987 0.0
C586 C 0.0185 0.62418 0.61903 0.0
O587 O 0.17059 0.63709 0.62719 0.0
Mg588 Mg 0.04814 0.3732 0.26074 0.0
O589 O 0.08177 0.31016 0.29578 0.0
O590 O 0.15089 0.30925 0.26796 0.0
Mg591 Mg 0.1609 0.36798 0.21375 0.0
C592 C 0.12017 0.29295 0.29472 0.0
C593 C 0.97929 0.40584 0.33387 0.0
O594 O -0.00111 0.44758 0.32447 0.0
O595 O 0.09071 0.42304 0.30882 0.0
O596 O 0.15636 0.42176 0.27331 0.0
O597 O 0.0231 0.32912 0.19811 0.0
O598 O 0.08892 0.3677 0.20298 0.0
C599 C 0.13148 0.43728 0.30497 0.0
C600 C 0.06128 0.33979 0.17963 0.0
O601 O -0.00794 0.36871 0.31381 0.0
Mg602 Mg 0.36249 0.6348 0.45315 0.0
O603 O 0.35195 0.70704 0.41997 0.0
O604 O 0.28346 0.72891 0.43612 0.0
Mg605 Mg 0.2526 0.67429 0.48637 0.0
C606 C 0.32065 0.73555 0.4158 0.0
C607 C 0.45485 0.60263 0.42738 0.0
O608 O 0.43268 0.56183 0.4349 0.0
O609 O 0.37501 0.668 0.52544 0.0
O610 O 0.30672 0.68955 0.54301 0.0
O611 O 0.32751 0.59935 0.39045 0.0
O612 O 0.29474 0.62276 0.45485 0.0
C613 C 0.34793 0.68608 0.5534 0.0
C614 C 0.29144 0.60626 0.41278 0.0
O615 O 0.43584 0.64116 0.43376 0.0
Mg616 Mg 0.07395 0.58791 0.18903 0.0
O617 O 0.09912 0.64855 0.14288 0.0
O618 O 0.17274 0.65791 0.13927 0.0
Mg619 Mg 0.19624 0.60287 0.19367 0.0
C620 C 0.134 0.6696 0.12679 0.0
C621 C 0.97276 0.60499 0.17547 0.0
O622 O 0.97737 0.60119 0.22134 0.0
O623 O 0.09573 0.52771 0.14091 0.0
O624 O 0.16975 0.53738 0.15216 0.0
O625 O 0.07704 0.63764 0.25264 0.0
O626 O 0.13222 0.59485 0.23208 0.0
C627 C 0.13516 0.51382 0.13591 0.0
C628 C 0.11686 0.62428 0.26106 0.0
O629 O 0.00571 0.59597 0.15044 0.0
Mg630 Mg 0.13092 0.38426 0.85516 0.0
O631 O 0.12705 0.3014 0.86091 0.0
O632 O 0.1945 0.28113 0.88581 0.0
Mg633 Mg 0.23444 0.34886 0.90832 0.0
C634 C 0.15511 0.27004 0.87026 0.0
C635 C 0.03768 0.4207 0.85088 0.0
O636 O 0.06087 0.4606 0.86088 0.0
O637 O 0.11872 0.39277 0.93167 0.0
O638 O 0.18164 0.36653 0.96203 0.0
O639 O 0.15797 0.37342 0.78538 0.0
O640 O 0.19992 0.38434 0.85033 0.0
C641 C 0.14288 0.38212 0.96659 0.0
C642 C 0.19593 0.37015 0.80719 0.0
O643 O 0.05736 0.3827 0.84436 0.0
Mg644 Mg 0.43257 0.40334 0.63328 0.0
O645 O 0.40332 0.33165 0.60501 0.0
O646 O 0.32994 0.32361 0.61527 0.0
Mg647 Mg 0.31388 0.38817 0.66002 0.0
C648 C 0.36579 0.30859 0.59946 0.0
C649 C 0.52825 0.39012 0.62107 0.0
O650 O 0.52574 0.40833 0.6634 0.0
O651 O 0.39969 0.44659 0.57616 0.0
O652 O 0.3296 0.44152 0.60155 0.0
O653 O 0.44779 0.37281 0.70418 0.0
O654 O 0.38413 0.4029 0.68316 0.0
C655 C 0.35954 0.45904 0.57445 0.0
C656 C 0.4083 0.38406 0.71502 0.0
O657 O 0.49496 0.39214 0.5931 0.0
Mg658 Mg 0.31068 0.05629 0.33475 0.0
O659 O 0.34116 0.08212 0.40743 0.0
O660 O 0.40894 0.05364 0.41351 0.0
Mg661 Mg 0.42056 0.00651 0.35003 0.0
C662 C 0.37824 0.07794 0.4297 0.0
C663 C 0.21559 0.08855 0.32519 0.0
O664 O 0.2142 0.04784 0.30239 0.0
O665 O 0.35711 0.10804 0.29346 0.0
O666 O 0.4211 0.07133 0.30129 0.0
O667 O 0.281 0.98724 0.36344 0.0
O668 O 0.34876 -0.00306 0.3362 0.0
C669 C 0.39821 0.10431 0.2842 0.0
C670 C 0.31813 0.96904 0.3535 0.0
O671 O 0.25335 0.10617 0.33999 0.0
loop_
_geom_bond_atom_site_label_1
_geom_bond_atom_site_label_2
_geom_bond_distance
_geom_bond_site_symmetry_2
_ccdc_geom_bond_type
Mg0 O1 2.028 . S
Mg0 O7 1.986 . S
Mg0 O9 2.114 . S
Mg0 O10 2.251 . S
Mg0 O13 2.010 . S
O1 Mg0 2.028 . S
O1 C4 1.250 . S
O2 Mg3 2.028 . S
O2 C4 1.248 . S
Mg3 O2 2.028 . S
Mg3 O8 2.032 . S
Mg3 O10 2.079 . S
C4 O1 1.250 . S
C4 O2 1.248 . S
C5 O6 1.264 . S
C5 O13 1.249 . S
O6 C5 1.264 . S
O7 Mg0 1.986 . S
O7 C11 1.246 . S
O8 Mg3 2.032 . S
O8 C11 1.259 . S
O9 Mg0 2.114 . S
O9 C12 1.252 . S
O10 Mg0 2.251 . S
O10 Mg3 2.079 . S
O10 C12 1.273 . S
C11 O7 1.246 . S
C11 O8 1.259 . S
C12 O9 1.252 . S
C12 O10 1.273 . S
O13 Mg0 2.010 . S
O13 C5 1.249 . S
Mg14 O15 2.028 . S
Mg14 O21 1.986 . S
Mg14 O23 2.114 . S
Mg14 O24 2.251 . S
Mg14 O27 2.010 . S
O15 Mg14 2.028 . S
O15 C18 1.250 . S
O16 Mg17 2.028 . S
O16 C18 1.248 . S
Mg17 O16 2.028 . S
Mg17 O22 2.032 . S
Mg17 O24 2.079 . S
C18 O15 1.250 . S
C18 O16 1.248 . S
C19 O20 1.264 . S
C19 O27 1.249 . S
O20 C19 1.264 . S
O21 Mg14 1.986 . S
O21 C25 1.246 . S
O22 Mg17 2.032 . S
O22 C25 1.259 . S
O23 Mg14 2.114 . S
O23 C26 1.252 . S
O24 Mg14 2.251 . S
O24 Mg17 2.079 . S
O24 C26 1.273 . S
C25 O21 1.246 . S
C25 O22 1.259 . S
C26 O23 1.252 . S
C26 O24 1.273 . S
O27 Mg14 2.010 . S
O27 C19 1.249 . S
Mg28 O29 2.028 . S
Mg28 O35 1.986 . S
Mg28 O37 2.093 1_556 S
Mg28 O38 2.251 . S
Mg28 O41 2.010 . S
O29 Mg28 2.028 . S
O29 C32 1.250 . S
O30 Mg31 2.028 . S
O30 C32 1.248 . S
Mg31 O30 2.028 . S
Mg31 O36 2.032 . S
Mg31 O38 2.079 . S
C32 O29 1.250 . S
C32 O30 1.248 . S
C33 O34 1.264 . S
C33 O41 1.249 . S
O34 C33 1.264 . S
O35 Mg28 1.986 . S
O35 C39 1.246 . S
O36 Mg31 2.032 . S
O36 C39 1.259 . S
O37 Mg28 2.093 1_554 S
O37 C40 1.259 . S
O38 Mg28 2.251 . S
O38 Mg31 2.079 . S
O38 C40 1.273 1_556 S
C39 O35 1.246 . S
C39 O36 1.259 . S
C40 O37 1.259 . S
C40 O38 1.273 1_554 S
O41 Mg28 2.010 . S
O41 C33 1.249 . S
Mg42 O43 2.028 . S
Mg42 O49 1.986 . S
Mg42 O51 2.114 . S
Mg42 O52 2.251 . S
Mg42 O55 2.010 . S
O43 Mg42 2.028 . S
O43 C46 1.250 . S
O44 Mg45 2.028 . S
O44 C46 1.248 . S
Mg45 O44 2.028 . S
Mg45 O50 2.032 . S
Mg45 O52 2.079 . S
C46 O43 1.250 . S
C46 O44 1.248 . S
C47 O48 1.264 . S
C47 O55 1.249 . S
O48 C47 1.264 . S
O49 Mg42 1.986 . S
O49 C53 1.246 . S
O50 Mg45 2.032 . S
O50 C53 1.259 . S
O51 Mg42 2.114 . S
O51 C54 1.252 . S
O52 Mg42 2.251 . S
O52 Mg45 2.079 . S
O52 C54 1.273 . S
C53 O49 1.246 . S
C53 O50 1.259 . S
C54 O51 1.252 . S
C54 O52 1.273 . S
O55 Mg42 2.010 . S
O55 C47 1.249 . S
Mg56 O57 2.028 . S
Mg56 O63 1.986 . S
Mg56 O65 2.114 . S
Mg56 O66 2.251 . S
Mg56 O69 2.010 . S
O57 Mg56 2.028 . S
O57 C60 1.250 . S
O58 Mg59 2.028 . S
O58 C60 1.248 . S
Mg59 O58 2.028 . S
Mg59 O64 2.032 . S
Mg59 O66 2.079 . S
C60 O57 1.250 . S
C60 O58 1.248 . S
C61 O62 1.264 . S
C61 O69 1.249 1_556 S
O62 C61 1.264 . S
O63 Mg56 1.986 . S
O63 C67 1.246 . S
O64 Mg59 2.032 . S
O64 C67 1.259 . S
O65 Mg56 2.114 . S
O65 C68 1.252 . S
O66 Mg56 2.251 . S
O66 Mg59 2.079 . S
O66 C68 1.273 . S
C67 O63 1.246 . S
C67 O64 1.259 . S
C68 O65 1.252 . S
C68 O66 1.273 . S
O69 Mg56 2.010 . S
O69 C61 1.249 1_554 S
Mg70 O71 2.028 . S
Mg70 O77 1.986 . S
Mg70 O79 2.114 . S
Mg70 O80 2.251 . S
Mg70 O83 2.010 . S
O71 Mg70 2.028 . S
O71 C74 1.250 . S
O72 Mg73 2.028 . S
O72 C74 1.248 . S
Mg73 O72 2.028 . S
Mg73 O78 2.032 . S
Mg73 O80 2.079 . S
C74 O71 1.250 . S
C74 O72 1.248 . S
C75 O76 1.264 . S
C75 O83 1.249 . S
O76 C75 1.264 . S
O77 Mg70 1.986 . S
O77 C81 1.246 . S
O78 Mg73 2.032 . S
O78 C81 1.259 . S
O79 Mg70 2.114 . S
O79 C82 1.252 . S
O80 Mg70 2.251 . S
O80 Mg73 2.079 . S
O80 C82 1.273 . S
C81 O77 1.246 . S
C81 O78 1.259 . S
C82 O79 1.252 . S
C82 O80 1.273 . S
O83 Mg70 2.010 . S
O83 C75 1.249 . S
Mg84 O85 2.028 . S
Mg84 O91 1.986 . S
Mg84 O93 2.114 . S
Mg84 O94 2.251 . S
Mg84 O97 2.010 . S
O85 Mg84 2.028 . S
O85 C88 1.250 . S
O86 Mg87 2.028 . S
O86 C88 1.248 . S
Mg87 O86 2.028 . S
Mg87 O92 2.032 . S
Mg87 O94 2.079 . S
C88 O85 1.250 . S
C88 O86 1.248 . S
C89 O90 1.264 . S
C89 O97 1.249 . S
O90 C89 1.264 . S
O91 Mg84 1.986 . S
O91 C95 1.246 . S
O92 Mg87 2.032 . S
O92 C95 1.259 . S
O93 Mg84 2.114 . S
O93 C96 1.252 . S
O94 Mg84 2.251 . S
O94 Mg87 2.079 . S
O94 C96 1.273 . S
C95 O91 1.246 . S
C95 O92 1.259 . S
C96 O93 1.252 . S
C96 O94 1.273 . S
O97 Mg84 2.010 . S
O97 C89 1.249 . S
Mg98 O99 2.028 . S
Mg98 O105 1.986 . S
Mg98 O107 2.114 . S
Mg98 O108 2.251 . S
Mg98 O111 2.010 . S
O99 Mg98 2.028 . S
O99 C102 1.250 . S
O100 Mg101 2.028 . S
O100 C102 1.248 . S
Mg101 O100 2.028 . S
Mg101 O106 2.032 . S
Mg101 O108 2.079 . S
C102 O99 1.250 . S
C102 O100 1.248 . S
C103 O104 1.264 . S
C103 O111 1.249 1_655 S
O104 C103 1.264 . S
O105 Mg98 1.986 . S
O105 C109 1.246 . S
O106 Mg101 2.032 . S
O106 C109 1.259 . S
O107 Mg98 2.114 . S
O107 C110 1.252 . S
O108 Mg98 2.251 . S
O108 Mg101 2.079 . S
O108 C110 1.273 . S
C109 O105 1.246 . S
C109 O106 1.259 . S
C110 O107 1.252 . S
C110 O108 1.273 . S
O111 Mg98 2.010 . S
O111 C103 1.249 1_455 S
Mg112 O113 2.028 . S
Mg112 O119 1.986 . S
Mg112 O121 2.114 . S
Mg112 O122 2.251 . S
Mg112 O125 2.010 . S
O113 Mg112 2.028 . S
O113 C116 1.250 . S
O114 Mg115 2.028 . S
O114 C116 1.248 . S
Mg115 O114 2.028 . S
Mg115 O120 2.032 . S
Mg115 O122 2.079 . S
C116 O113 1.250 . S
C116 O114 1.248 . S
C117 O118 1.264 . S
C117 O125 1.249 . S
O118 C117 1.264 . S
O119 Mg112 1.986 . S
O119 C123 1.246 . S
O120 Mg115 2.032 . S
O120 C123 1.259 . S
O121 Mg112 2.114 . S
O121 C124 1.252 . S
O122 Mg112 2.251 . S
O122 Mg115 2.079 . S
O122 C124 1.273 . S
C123 O119 1.246 . S
C123 O120 1.259 . S
C124 O121 1.252 . S
C124 O122 1.273 . S
O125 Mg112 2.010 . S
O125 C117 1.249 . S
Mg126 O127 2.028 . S
Mg126 O133 1.986 . S
Mg126 O135 2.114 . S
Mg126 O136 2.251 . S
Mg126 O139 2.010 . S
O127 Mg126 2.028 . S
O127 C130 1.250 . S
O128 Mg129 2.028 . S
O128 C130 1.248 . S
Mg129 O128 2.028 . S
Mg129 O134 2.032 . S
Mg129 O136 2.079 . S
C130 O127 1.250 . S
C130 O128 1.248 . S
C131 O132 1.264 . S
C131 O139 1.249 1_565 S
O132 C131 1.264 . S
O133 Mg126 1.986 . S
O133 C137 1.246 . S
O134 Mg129 2.032 . S
O134 C137 1.259 . S
O135 Mg126 2.114 . S
O135 C138 1.252 . S
O136 Mg126 2.251 . S
O136 Mg129 2.079 . S
O136 C138 1.273 . S
C137 O133 1.246 . S
C137 O134 1.259 . S
C138 O135 1.252 . S
C138 O136 1.273 . S
O139 Mg126 2.010 . S
O139 C131 1.249 1_545 S
Mg140 O141 2.028 . S
Mg140 O147 1.986 . S
Mg140 O149 2.114 . S
Mg140 O150 2.251 . S
Mg140 O153 2.010 . S
O141 Mg140 2.028 . S
O141 C144 1.250 . S
O142 Mg143 2.028 . S
O142 C144 1.248 . S
Mg143 O142 2.028 . S
Mg143 O148 2.032 . S
Mg143 O150 2.079 . S
C144 O141 1.250 . S
C144 O142 1.248 . S
C145 O146 1.264 . S
C145 O153 1.249 1_545 S
O146 C145 1.264 . S
O147 Mg140 1.986 . S
O147 C151 1.246 . S
O148 Mg143 2.032 . S
O148 C151 1.259 . S
O149 Mg140 2.114 . S
O149 C152 1.252 . S
O150 Mg140 2.251 . S
O150 Mg143 2.079 . S
O150 C152 1.273 . S
C151 O147 1.246 . S
C151 O148 1.259 . S
C152 O149 1.252 . S
C152 O150 1.273 . S
O153 Mg140 2.010 . S
O153 C145 1.249 1_565 S
Mg154 O155 2.028 . S
Mg154 O161 1.986 . S
Mg154 O163 2.114 . S
Mg154 O164 2.251 . S
Mg154 O167 2.010 . S
O155 Mg154 2.028 . S
O155 C158 1.250 . S
O156 Mg157 2.028 . S
O156 C158 1.248 . S
Mg157 O156 2.028 . S
Mg157 O162 2.032 . S
Mg157 O164 2.079 . S
C158 O155 1.250 . S
C158 O156 1.248 . S
C159 O160 1.264 . S
C159 O167 1.249 1_565 S
O160 C159 1.264 . S
O161 Mg154 1.986 . S
O161 C165 1.246 . S
O162 Mg157 2.032 . S
O162 C165 1.259 . S
O163 Mg154 2.114 . S
O163 C166 1.252 . S
O164 Mg154 2.251 . S
O164 Mg157 2.079 . S
O164 C166 1.273 . S
C165 O161 1.246 . S
C165 O162 1.259 . S
C166 O163 1.252 . S
C166 O164 1.273 . S
O167 Mg154 2.010 . S
O167 C159 1.249 1_545 S
Mg168 O169 2.028 . S
Mg168 O175 1.986 . S
Mg168 O177 2.114 . S
Mg168 O178 2.251 . S
Mg168 O181 2.010 . S
O169 Mg168 2.028 . S
O169 C172 1.250 . S
O170 Mg171 2.028 . S
O170 C172 1.248 . S
Mg171 O170 2.028 . S
Mg171 O176 2.032 . S
Mg171 O178 2.079 . S
C172 O169 1.250 . S
C172 O170 1.248 . S
C173 O174 1.264 . S
C173 O181 1.249 . S
O174 C173 1.264 . S
O175 Mg168 1.986 . S
O175 C179 1.246 . S
O176 Mg171 2.032 . S
O176 C179 1.259 . S
O177 Mg168 2.114 . S
O177 C180 1.252 . S
O178 Mg168 2.251 . S
O178 Mg171 2.079 . S
O178 C180 1.273 . S
C179 O175 1.246 . S
C179 O176 1.259 . S
C180 O177 1.252 . S
C180 O178 1.273 . S
O181 Mg168 2.010 . S
O181 C173 1.249 . S
Mg182 O183 2.028 . S
Mg182 O189 1.986 . S
Mg182 O191 2.114 . S
Mg182 O192 2.251 . S
Mg182 O195 2.010 . S
O183 Mg182 2.028 . S
O183 C186 1.250 . S
O184 Mg185 2.028 . S
O184 C186 1.248 . S
Mg185 O184 2.028 . S
Mg185 O190 2.032 . S
Mg185 O192 2.079 . S
C186 O183 1.250 . S
C186 O184 1.248 . S
C187 O188 1.264 . S
C187 O195 1.249 . S
O188 C187 1.264 . S
O189 Mg182 1.986 . S
O189 C193 1.246 . S
O190 Mg185 2.032 . S
O190 C193 1.259 . S
O191 Mg182 2.114 . S
O191 C194 1.252 . S
O192 Mg182 2.251 . S
O192 Mg185 2.079 . S
O192 C194 1.273 . S
C193 O189 1.246 . S
C193 O190 1.259 . S
C194 O191 1.252 . S
C194 O192 1.273 . S
O195 Mg182 2.010 . S
O195 C187 1.249 . S
Mg196 O197 2.028 . S
Mg196 O203 1.986 . S
Mg196 O205 2.114 . S
Mg196 O206 2.251 . S
Mg196 O209 2.010 . S
O197 Mg196 2.028 . S
O197 C200 1.250 . S
O198 Mg199 2.028 . S
O198 C200 1.248 . S
Mg199 O198 2.028 . S
Mg199 O204 2.032 . S
Mg199 O206 2.079 . S
C200 O197 1.250 . S
C200 O198 1.248 . S
C201 O202 1.264 . S
C201 O209 1.249 . S
O202 C201 1.264 . S
O203 Mg196 1.986 . S
O203 C207 1.246 . S
O204 Mg199 2.032 . S
O204 C207 1.259 . S
O205 Mg196 2.114 . S
O205 C208 1.252 . S
O206 Mg196 2.251 . S
O206 Mg199 2.079 . S
O206 C208 1.273 . S
C207 O203 1.246 . S
C207 O204 1.259 . S
C208 O205 1.252 . S
C208 O206 1.273 . S
O209 Mg196 2.010 . S
O209 C201 1.249 . S
Mg210 O211 2.028 . S
Mg210 O217 1.986 . S
Mg210 O219 2.114 . S
Mg210 O220 2.251 . S
Mg210 O223 2.010 . S
O211 Mg210 2.028 . S
O211 C214 1.250 . S
O212 Mg213 2.028 . S
O212 C214 1.248 . S
Mg213 O212 2.028 . S
Mg213 O218 2.032 . S
Mg213 O220 2.079 . S
C214 O211 1.250 . S
C214 O212 1.248 . S
C215 O216 1.264 . S
C215 O223 1.249 . S
O216 C215 1.264 . S
O217 Mg210 1.986 . S
O217 C221 1.246 . S
O218 Mg213 2.032 . S
O218 C221 1.259 . S
O219 Mg210 2.114 . S
O219 C222 1.252 . S
O220 Mg210 2.251 . S
O220 Mg213 2.079 . S
O220 C222 1.273 . S
C221 O217 1.246 . S
C221 O218 1.259 . S
C222 O219 1.252 . S
C222 O220 1.273 . S
O223 Mg210 2.010 . S
O223 C215 1.249 . S
Mg224 O225 2.028 . S
Mg224 O231 1.986 . S
Mg224 O233 2.114 . S
Mg224 O234 2.251 . S
Mg224 O237 2.010 . S
O225 Mg224 2.028 . S
O225 C228 1.250 . S
O226 Mg227 2.028 . S
O226 C228 1.248 . S
Mg227 O226 2.028 . S
Mg227 O232 2.032 . S
Mg227 O234 2.079 . S
C228 O225 1.250 . S
C228 O226 1.248 . S
C229 O230 1.264 . S
C229 O237 1.249 1_455 S
O230 C229 1.264 . S
O231 Mg224 1.986 . S
O231 C235 1.246 . S
O232 Mg227 2.032 . S
O232 C235 1.259 . S
O233 Mg224 2.114 . S
O233 C236 1.252 . S
O234 Mg224 2.251 . S
O234 Mg227 2.079 . S
O234 C236 1.273 . S
C235 O231 1.246 . S
C235 O232 1.259 . S
C236 O233 1.252 . S
C236 O234 1.273 . S
O237 Mg224 2.010 . S
O237 C229 1.249 1_655 S
Mg238 O239 2.028 . S
Mg238 O245 1.986 . S
Mg238 O247 2.114 . S
Mg238 O248 2.251 . S
Mg238 O251 2.010 . S
O239 Mg238 2.028 . S
O239 C242 1.250 . S
O240 Mg241 2.028 . S
O240 C242 1.248 . S
Mg241 O240 2.028 . S
Mg241 O246 2.032 . S
Mg241 O248 2.079 . S
C242 O239 1.250 . S
C242 O240 1.248 . S
C243 O244 1.264 . S
C243 O251 1.249 . S
O244 C243 1.264 . S
O245 Mg238 1.986 . S
O245 C249 1.246 . S
O246 Mg241 2.032 . S
O246 C249 1.259 . S
O247 Mg238 2.114 . S
O247 C250 1.252 . S
O248 Mg238 2.251 . S
O248 Mg241 2.079 . S
O248 C250 1.273 . S
C249 O245 1.246 . S
C249 O246 1.259 . S
C250 O247 1.252 . S
C250 O248 1.273 . S
O251 Mg238 2.010 . S
O251 C243 1.249 . S
Mg252 O253 2.028 . S
Mg252 O259 1.986 . S
Mg252 O261 2.114 . S
Mg252 O262 2.251 . S
Mg252 O265 2.010 . S
O253 Mg252 2.028 . S
O253 C256 1.250 . S
O254 Mg255 2.028 . S
O254 C256 1.248 . S
Mg255 O254 2.028 . S
Mg255 O260 2.032 . S
Mg255 O262 2.079 . S
C256 O253 1.250 . S
C256 O254 1.248 . S
C257 O258 1.264 . S
C257 O265 1.249 . S
O258 C257 1.264 . S
O259 Mg252 1.986 . S
O259 C263 1.246 . S
O260 Mg255 2.032 . S
O260 C263 1.259 . S
O261 Mg252 2.114 . S
O261 C264 1.252 . S
O262 Mg252 2.251 . S
O262 Mg255 2.079 . S
O262 C264 1.273 . S
C263 O259 1.246 . S
C263 O260 1.259 . S
C264 O261 1.252 . S
C264 O262 1.273 . S
O265 Mg252 2.010 . S
O265 C257 1.249 . S
Mg266 O267 2.028 . S
Mg266 O273 1.986 . S
Mg266 O275 2.114 . S
Mg266 O276 2.251 . S
Mg266 O279 2.010 . S
O267 Mg266 2.028 . S
O267 C270 1.250 . S
O268 Mg269 2.028 . S
O268 C270 1.248 . S
Mg269 O268 2.028 . S
Mg269 O274 2.047 . S
Mg269 O276 2.079 . S
C270 O267 1.250 . S
C270 O268 1.248 . S
C271 O272 1.264 . S
C271 O279 1.249 . S
O272 C271 1.264 . S
O273 Mg266 1.986 . S
O273 C277 1.246 1_556 S
O274 Mg269 2.047 . S
O274 C277 1.258 1_556 S
O275 Mg266 2.114 . S
O275 C278 1.252 . S
O276 Mg266 2.251 . S
O276 Mg269 2.079 . S
O276 C278 1.273 . S
C277 O273 1.246 1_554 S
C277 O274 1.258 1_554 S
C278 O275 1.252 . S
C278 O276 1.273 . S
O279 Mg266 2.010 . S
O279 C271 1.249 . S
Mg280 O281 2.028 . S
Mg280 O287 1.986 . S
Mg280 O289 2.114 . S
Mg280 O290 2.251 . S
Mg280 O293 2.010 . S
O281 Mg280 2.028 . S
O281 C284 1.250 . S
O282 Mg283 2.028 . S
O282 C284 1.248 . S
Mg283 O282 2.028 . S
Mg283 O288 2.032 . S
Mg283 O290 2.079 . S
C284 O281 1.250 . S
C284 O282 1.248 . S
C285 O286 1.264 . S
C285 O293 1.249 . S
O286 C285 1.264 . S
O287 Mg280 1.986 . S
O287 C291 1.246 . S
O288 Mg283 2.032 . S
O288 C291 1.259 . S
O289 Mg280 2.114 . S
O289 C292 1.252 . S
O290 Mg280 2.251 . S
O290 Mg283 2.079 . S
O290 C292 1.273 . S
C291 O287 1.246 . S
C291 O288 1.259 . S
C292 O289 1.252 . S
C292 O290 1.273 . S
O293 Mg280 2.010 . S
O293 C285 1.249 . S
Mg294 O295 2.028 . S
Mg294 O301 1.986 . S
Mg294 O303 2.114 . S
Mg294 O304 2.251 . S
Mg294 O307 2.010 . S
O295 Mg294 2.028 . S
O295 C298 1.250 . S
O296 Mg297 2.028 . S
O296 C298 1.248 . S
Mg297 O296 2.028 . S
Mg297 O302 2.032 . S
Mg297 O304 2.079 . S
C298 O295 1.250 . S
C298 O296 1.248 . S
C299 O300 1.264 . S
C299 O307 1.249 . S
O300 C299 1.264 . S
O301 Mg294 1.986 . S
O301 C305 1.246 . S
O302 Mg297 2.032 . S
O302 C305 1.259 . S
O303 Mg294 2.114 . S
O303 C306 1.252 . S
O304 Mg294 2.251 . S
O304 Mg297 2.079 . S
O304 C306 1.273 . S
C305 O301 1.246 . S
C305 O302 1.259 . S
C306 O303 1.252 . S
C306 O304 1.273 . S
O307 Mg294 2.010 . S
O307 C299 1.249 . S
Mg308 O309 2.028 . S
Mg308 O315 1.986 . S
Mg308 O317 2.114 . S
Mg308 O318 2.251 . S
Mg308 O321 2.010 . S
O309 Mg308 2.028 . S
O309 C312 1.250 . S
O310 Mg311 2.028 . S
O310 C312 1.248 . S
Mg311 O310 2.028 . S
Mg311 O316 2.032 . S
Mg311 O318 2.079 . S
C312 O309 1.250 . S
C312 O310 1.248 . S
C313 O314 1.264 . S
C313 O321 1.249 1_455 S
O314 C313 1.264 . S
O315 Mg308 1.986 . S
O315 C319 1.246 . S
O316 Mg311 2.032 . S
O316 C319 1.259 . S
O317 Mg308 2.114 . S
O317 C320 1.252 . S
O318 Mg308 2.251 . S
O318 Mg311 2.079 . S
O318 C320 1.273 . S
C319 O315 1.246 . S
C319 O316 1.259 . S
C320 O317 1.252 . S
C320 O318 1.273 . S
O321 Mg308 2.010 . S
O321 C313 1.249 1_655 S
Mg322 O323 2.028 . S
Mg322 O329 1.986 . S
Mg322 O331 2.114 . S
Mg322 O332 2.251 . S
Mg322 O335 2.010 . S
O323 Mg322 2.028 . S
O323 C326 1.250 . S
O324 Mg325 2.028 . S
O324 C326 1.248 . S
Mg325 O324 2.028 . S
Mg325 O330 2.032 . S
Mg325 O332 2.079 . S
C326 O323 1.250 . S
C326 O324 1.248 . S
C327 O328 1.264 . S
C327 O335 1.249 . S
O328 C327 1.264 . S
O329 Mg322 1.986 . S
O329 C333 1.246 . S
O330 Mg325 2.032 . S
O330 C333 1.259 . S
O331 Mg322 2.114 . S
O331 C334 1.252 . S
O332 Mg322 2.251 . S
O332 Mg325 2.079 . S
O332 C334 1.273 . S
C333 O329 1.246 . S
C333 O330 1.259 . S
C334 O331 1.252 . S
C334 O332 1.273 . S
O335 Mg322 2.010 . S
O335 C327 1.249 . S
Mg336 O337 2.028 . S
Mg336 O343 1.986 . S
Mg336 O345 2.114 . S
Mg336 O346 2.251 . S
Mg336 O349 2.010 . S
O337 Mg336 2.028 . S
O337 C340 1.250 . S
O338 Mg339 2.028 . S
O338 C340 1.248 . S
Mg339 O338 2.028 . S
Mg339 O344 2.032 . S
Mg339 O346 2.079 . S
C340 O337 1.250 . S
C340 O338 1.248 . S
C341 O342 1.264 . S
C341 O349 1.249 . S
O342 C341 1.264 . S
O343 Mg336 1.986 . S
O343 C347 1.246 . S
O344 Mg339 2.032 . S
O344 C347 1.259 . S
O345 Mg336 2.114 . S
O345 C348 1.252 . S
O346 Mg336 2.251 . S
O346 Mg339 2.079 . S
O346 C348 1.273 . S
C347 O343 1.246 . S
C347 O344 1.259 . S
C348 O345 1.252 . S
C348 O346 1.273 . S
O349 Mg336 2.010 . S
O349 C341 1.249 . S
Mg350 O351 2.028 . S
Mg350 O357 1.986 . S
Mg350 O359 2.114 . S
Mg350 O360 2.251 . S
Mg350 O363 2.010 . S
O351 Mg350 2.028 . S
O351 C354 1.250 . S
O352 Mg353 2.028 . S
O352 C354 1.248 . S
Mg353 O352 2.028 . S
Mg353 O358 2.032 . S
Mg353 O360 2.079 . S
C354 O351 1.250 . S
C354 O352 1.248 . S
C355 O356 1.264 . S
C355 O363 1.249 . S
O356 C355 1.264 . S
O357 Mg350 1.986 . S
O357 C361 1.246 . S
O358 Mg353 2.032 . S
O358 C361 1.259 . S
O359 Mg350 2.114 . S
O359 C362 1.252 . S
O360 Mg350 2.251 . S
O360 Mg353 2.079 . S
O360 C362 1.273 . S
C361 O357 1.246 . S
C361 O358 1.259 . S
C362 O359 1.252 . S
C362 O360 1.273 . S
O363 Mg350 2.010 . S
O363 C355 1.249 . S
Mg364 O365 2.028 . S
Mg364 O371 1.986 . S
Mg364 O373 2.122 . S
Mg364 O374 2.251 . S
Mg364 O377 2.010 . S
O365 Mg364 2.028 . S
O365 C368 1.250 . S
O366 Mg367 2.028 . S
O366 C368 1.248 . S
Mg367 O366 2.028 . S
Mg367 O372 2.032 . S
Mg367 O374 2.079 . S
C368 O365 1.250 . S
C368 O366 1.248 . S
C369 O370 1.264 . S
C369 O377 1.249 . S
O370 C369 1.264 . S
O371 Mg364 1.986 . S
O371 C375 1.246 . S
O372 Mg367 2.032 . S
O372 C375 1.259 . S
O373 Mg364 2.122 . S
O373 C376 1.249 1_565 S
O374 Mg364 2.251 . S
O374 Mg367 2.079 . S
O374 C376 1.273 1_565 S
C375 O371 1.246 . S
C375 O372 1.259 . S
C376 O373 1.249 1_545 S
C376 O374 1.273 1_545 S
O377 Mg364 2.010 . S
O377 C369 1.249 . S
Mg378 O379 2.028 . S
Mg378 O385 1.986 . S
Mg378 O387 2.114 . S
Mg378 O388 2.251 . S
Mg378 O391 2.010 . S
O379 Mg378 2.028 . S
O379 C382 1.250 . S
O380 Mg381 2.028 . S
O380 C382 1.248 . S
Mg381 O380 2.028 . S
Mg381 O386 2.032 . S
Mg381 O388 2.079 . S
C382 O379 1.250 . S
C382 O380 1.248 . S
C383 O384 1.264 . S
C383 O391 1.249 . S
O384 C383 1.264 . S
O385 Mg378 1.986 . S
O385 C389 1.246 . S
O386 Mg381 2.032 . S
O386 C389 1.259 . S
O387 Mg378 2.114 . S
O387 C390 1.252 . S
O388 Mg378 2.251 . S
O388 Mg381 2.079 . S
O388 C390 1.273 . S
C389 O385 1.246 . S
C389 O386 1.259 . S
C390 O387 1.252 . S
C390 O388 1.273 . S
O391 Mg378 2.010 . S
O391 C383 1.249 . S
Mg392 O393 2.028 . S
Mg392 O399 1.986 . S
Mg392 O401 2.114 . S
Mg392 O402 2.251 . S
Mg392 O405 2.010 . S
O393 Mg392 2.028 . S
O393 C396 1.250 . S
O394 Mg395 2.028 . S
O394 C396 1.248 . S
Mg395 O394 2.028 . S
Mg395 O400 2.032 . S
Mg395 O402 2.079 . S
C396 O393 1.250 . S
C396 O394 1.248 . S
C397 O398 1.264 . S
C397 O405 1.249 . S
O398 C397 1.264 . S
O399 Mg392 1.986 . S
O399 C403 1.246 . S
O400 Mg395 2.032 . S
O400 C403 1.259 . S
O401 Mg392 2.114 . S
O401 C404 1.252 . S
O402 Mg392 2.251 . S
O402 Mg395 2.079 . S
O402 C404 1.273 . S
C403 O399 1.246 . S
C403 O400 1.259 . S
C404 O401 1.252 . S
C404 O402 1.273 . S
O405 Mg392 2.010 . S
O405 C397 1.249 . S
Mg406 O407 2.028 . S
Mg406 O413 1.986 . S
Mg406 O415 2.114 . S
Mg406 O416 2.251 . S
Mg406 O419 2.010 . S
O407 Mg406 2.028 . S
O407 C410 1.250 . S
O408 Mg409 2.028 . S
O408 C410 1.248 . S
Mg409 O408 2.028 . S
Mg409 O414 2.032 . S
Mg409 O416 2.079 . S
C410 O407 1.250 . S
C410 O408 1.248 . S
C411 O412 1.264 . S
C411 O419 1.249 . S
O412 C411 1.264 . S
O413 Mg406 1.986 . S
O413 C417 1.246 . S
O414 Mg409 2.032 . S
O414 C417 1.259 . S
O415 Mg406 2.114 . S
O415 C418 1.252 . S
O416 Mg406 2.251 . S
O416 Mg409 2.079 . S
O416 C418 1.273 . S
C417 O413 1.246 . S
C417 O414 1.259 . S
C418 O415 1.252 . S
C418 O416 1.273 . S
O419 Mg406 2.010 . S
O419 C411 1.249 . S
Mg420 O421 2.028 . S
Mg420 O427 1.986 . S
Mg420 O429 2.114 . S
Mg420 O430 2.251 . S
Mg420 O433 2.010 . S
O421 Mg420 2.028 . S
O421 C424 1.250 . S
O422 Mg423 2.028 . S
O422 C424 1.248 . S
Mg423 O422 2.028 . S
Mg423 O428 2.032 . S
Mg423 O430 2.079 . S
C424 O421 1.250 . S
C424 O422 1.248 . S
C425 O426 1.264 . S
C425 O433 1.249 . S
O426 C425 1.264 . S
O427 Mg420 1.986 . S
O427 C431 1.246 . S
O428 Mg423 2.032 . S
O428 C431 1.259 . S
O429 Mg420 2.114 . S
O429 C432 1.252 1_556 S
O430 Mg420 2.251 . S
O430 Mg423 2.079 . S
O430 C432 1.273 1_556 S
C431 O427 1.246 . S
C431 O428 1.259 . S
C432 O429 1.252 1_554 S
C432 O430 1.273 1_554 S
O433 Mg420 2.010 . S
O433 C425 1.249 . S
Mg434 O435 2.028 . S
Mg434 O441 1.986 . S
Mg434 O443 2.114 . S
Mg434 O444 2.251 . S
Mg434 O447 2.010 . S
O435 Mg434 2.028 . S
O435 C438 1.250 . S
O436 Mg437 2.028 . S
O436 C438 1.248 . S
Mg437 O436 2.028 . S
Mg437 O442 2.032 . S
Mg437 O444 2.079 . S
C438 O435 1.250 . S
C438 O436 1.248 . S
C439 O440 1.264 . S
C439 O447 1.249 . S
O440 C439 1.264 . S
O441 Mg434 1.986 . S
O441 C445 1.246 . S
O442 Mg437 2.032 . S
O442 C445 1.259 . S
O443 Mg434 2.114 . S
O443 C446 1.252 . S
O444 Mg434 2.251 . S
O444 Mg437 2.079 . S
O444 C446 1.273 . S
C445 O441 1.246 . S
C445 O442 1.259 . S
C446 O443 1.252 . S
C446 O444 1.273 . S
O447 Mg434 2.010 . S
O447 C439 1.249 . S
Mg448 O449 2.028 . S
Mg448 O455 1.986 . S
Mg448 O457 2.114 . S
Mg448 O458 2.251 . S
Mg448 O461 2.010 . S
O449 Mg448 2.028 . S
O449 C452 1.250 . S
O450 Mg451 2.028 . S
O450 C452 1.248 . S
Mg451 O450 2.028 . S
Mg451 O456 2.032 . S
Mg451 O458 2.079 . S
C452 O449 1.250 . S
C452 O450 1.248 . S
C453 O454 1.264 . S
C453 O461 1.249 . S
O454 C453 1.264 . S
O455 Mg448 1.986 . S
O455 C459 1.246 . S
O456 Mg451 2.032 . S
O456 C459 1.259 . S
O457 Mg448 2.114 . S
O457 C460 1.252 . S
O458 Mg448 2.251 . S
O458 Mg451 2.079 . S
O458 C460 1.273 . S
C459 O455 1.246 . S
C459 O456 1.259 . S
C460 O457 1.252 . S
C460 O458 1.273 . S
O461 Mg448 2.010 . S
O461 C453 1.249 . S
Mg462 O463 2.028 . S
Mg462 O469 1.986 . S
Mg462 O471 2.114 . S
Mg462 O472 2.251 . S
Mg462 O475 2.010 . S
O463 Mg462 2.028 . S
O463 C466 1.250 . S
O464 Mg465 2.028 . S
O464 C466 1.248 . S
Mg465 O464 2.028 . S
Mg465 O470 2.032 . S
Mg465 O472 2.079 . S
C466 O463 1.250 . S
C466 O464 1.248 . S
C467 O468 1.264 . S
C467 O475 1.249 . S
O468 C467 1.264 . S
O469 Mg462 1.986 . S
O469 C473 1.246 . S
O470 Mg465 2.032 . S
O470 C473 1.259 . S
O471 Mg462 2.114 . S
O471 C474 1.252 1_655 S
O472 Mg462 2.251 . S
O472 Mg465 2.079 . S
O472 C474 1.273 1_655 S
C473 O469 1.246 . S
C473 O470 1.259 . S
C474 O471 1.252 1_455 S
C474 O472 1.273 1_455 S
O475 Mg462 2.010 . S
O475 C467 1.249 . S
Mg476 O477 2.028 . S
Mg476 O483 1.986 . S
Mg476 O485 2.114 . S
Mg476 O486 2.251 . S
Mg476 O489 2.010 . S
O477 Mg476 2.028 . S
O477 C480 1.250 . S
O478 Mg479 2.028 . S
O478 C480 1.248 . S
Mg479 O478 2.028 . S
Mg479 O484 2.032 . S
Mg479 O486 2.079 . S
C480 O477 1.250 . S
C480 O478 1.248 . S
C481 O482 1.264 . S
C481 O489 1.249 . S
O482 C481 1.264 . S
O483 Mg476 1.986 . S
O483 C487 1.246 . S
O484 Mg479 2.032 . S
O484 C487 1.259 . S
O485 Mg476 2.114 . S
O485 C488 1.252 . S
O486 Mg476 2.251 . S
O486 Mg479 2.079 . S
O486 C488 1.273 . S
C487 O483 1.246 . S
C487 O484 1.259 . S
C488 O485 1.252 . S
C488 O486 1.273 . S
O489 Mg476 2.010 . S
O489 C481 1.249 . S
Mg490 O491 2.028 . S
Mg490 O497 1.986 . S
Mg490 O499 2.114 . S
Mg490 O500 2.251 . S
Mg490 O503 2.010 . S
O491 Mg490 2.028 . S
O491 C494 1.250 . S
O492 Mg493 2.028 . S
O492 C494 1.248 . S
Mg493 O492 2.028 . S
Mg493 O498 2.032 . S
Mg493 O500 2.079 . S
C494 O491 1.250 . S
C494 O492 1.248 . S
C495 O496 1.264 . S
C495 O503 1.249 1_455 S
O496 C495 1.264 . S
O497 Mg490 1.986 . S
O497 C501 1.246 . S
O498 Mg493 2.032 . S
O498 C501 1.259 . S
O499 Mg490 2.114 . S
O499 C502 1.252 . S
O500 Mg490 2.251 . S
O500 Mg493 2.079 . S
O500 C502 1.273 . S
C501 O497 1.246 . S
C501 O498 1.259 . S
C502 O499 1.252 . S
C502 O500 1.273 . S
O503 Mg490 2.010 . S
O503 C495 1.249 1_655 S
Mg504 O505 2.028 . S
Mg504 O511 1.986 . S
Mg504 O513 2.114 . S
Mg504 O514 2.251 . S
Mg504 O517 2.010 1_554 S
O505 Mg504 2.028 . S
O505 C508 1.250 . S
O506 Mg507 2.028 . S
O506 C508 1.248 . S
Mg507 O506 2.028 . S
Mg507 O512 2.032 . S
Mg507 O514 2.079 . S
C508 O505 1.250 . S
C508 O506 1.248 . S
C509 O510 1.264 . S
C509 O517 1.249 . S
O510 C509 1.264 . S
O511 Mg504 1.986 . S
O511 C515 1.246 . S
O512 Mg507 2.032 . S
O512 C515 1.259 . S
O513 Mg504 2.114 . S
O513 C516 1.252 . S
O514 Mg504 2.251 . S
O514 Mg507 2.079 . S
O514 C516 1.273 . S
C515 O511 1.246 . S
C515 O512 1.259 . S
C516 O513 1.252 . S
C516 O514 1.273 . S
O517 Mg504 2.010 1_556 S
O517 C509 1.249 . S
Mg518 O519 2.028 . S
Mg518 O525 1.986 . S
Mg518 O527 2.114 . S
Mg518 O528 2.251 . S
Mg518 O531 2.010 . S
O519 Mg518 2.028 . S
O519 C522 1.250 . S
O520 Mg521 2.028 . S
O520 C522 1.248 . S
Mg521 O520 2.028 . S
Mg521 O526 2.032 . S
Mg521 O528 2.079 . S
C522 O519 1.250 . S
C522 O520 1.248 . S
C523 O524 1.264 . S
C523 O531 1.249 . S
O524 C523 1.264 . S
O525 Mg518 1.986 . S
O525 C529 1.246 . S
O526 Mg521 2.032 . S
O526 C529 1.259 . S
O527 Mg518 2.114 . S
O527 C530 1.252 . S
O528 Mg518 2.251 . S
O528 Mg521 2.079 . S
O528 C530 1.273 . S
C529 O525 1.246 . S
C529 O526 1.259 . S
C530 O527 1.252 . S
C530 O528 1.273 . S
O531 Mg518 2.010 . S
O531 C523 1.249 . S
Mg532 O533 2.028 . S
Mg532 O539 1.986 . S
Mg532 O541 2.114 . S
Mg532 O542 2.251 . S
Mg532 O545 2.010 . S
O533 Mg532 2.028 . S
O533 C536 1.250 . S
O534 Mg535 2.028 . S
O534 C536 1.248 . S
Mg535 O534 2.028 . S
Mg535 O540 2.032 . S
Mg535 O542 2.079 . S
C536 O533 1.250 . S
C536 O534 1.248 . S
C537 O538 1.264 . S
C537 O545 1.249 . S
O538 C537 1.264 . S
O539 Mg532 1.986 . S
O539 C543 1.246 . S
O540 Mg535 2.032 . S
O540 C543 1.259 . S
O541 Mg532 2.114 . S
O541 C544 1.252 . S
O542 Mg532 2.251 . S
O542 Mg535 2.079 . S
O542 C544 1.273 . S
C543 O539 1.246 . S
C543 O540 1.259 . S
C544 O541 1.252 . S
C544 O542 1.273 . S
O545 Mg532 2.010 . S
O545 C537 1.249 . S
Mg546 O547 2.028 . S
Mg546 O553 1.986 . S
Mg546 O555 2.114 . S
Mg546 O556 2.251 . S
Mg546 O559 2.010 . S
O547 Mg546 2.028 . S
O547 C550 1.250 1_554 S
O548 Mg549 2.028 1_556 S
O548 C550 1.248 . S
Mg549 O548 2.028 1_554 S
Mg549 O554 2.032 . S
Mg549 O556 2.079 . S
C550 O547 1.250 1_556 S
C550 O548 1.248 . S
C551 O552 1.264 . S
C551 O559 1.249 . S
O552 C551 1.264 . S
O553 Mg546 1.986 . S
O553 C557 1.246 . S
O554 Mg549 2.032 . S
O554 C557 1.259 . S
O555 Mg546 2.114 . S
O555 C558 1.252 . S
O556 Mg546 2.251 . S
O556 Mg549 2.079 . S
O556 C558 1.273 . S
C557 O553 1.246 . S
C557 O554 1.259 . S
C558 O555 1.252 . S
C558 O556 1.273 . S
O559 Mg546 2.010 . S
O559 C551 1.249 . S
Mg560 O561 2.028 . S
Mg560 O567 1.986 . S
Mg560 O569 2.114 . S
Mg560 O570 2.251 . S
Mg560 O573 2.010 . S
O561 Mg560 2.028 . S
O561 C564 1.250 . S
O562 Mg563 2.028 . S
O562 C564 1.248 . S
Mg563 O562 2.028 . S
Mg563 O568 2.032 . S
Mg563 O570 2.079 . S
C564 O561 1.250 . S
C564 O562 1.248 . S
C565 O566 1.264 . S
C565 O573 1.249 . S
O566 C565 1.264 . S
O567 Mg560 1.986 . S
O567 C571 1.246 . S
O568 Mg563 2.032 . S
O568 C571 1.259 . S
O569 Mg560 2.114 . S
O569 C572 1.252 . S
O570 Mg560 2.251 . S
O570 Mg563 2.079 . S
O570 C572 1.273 . S
C571 O567 1.246 . S
C571 O568 1.259 . S
C572 O569 1.252 . S
C572 O570 1.273 . S
O573 Mg560 2.010 . S
O573 C565 1.249 . S
Mg574 O575 2.028 . S
Mg574 O581 1.986 . S
Mg574 O583 2.114 . S
Mg574 O584 2.251 . S
Mg574 O587 2.010 . S
O575 Mg574 2.028 . S
O575 C578 1.250 . S
O576 Mg577 2.028 . S
O576 C578 1.248 . S
Mg577 O576 2.028 . S
Mg577 O582 2.032 . S
Mg577 O584 2.079 . S
C578 O575 1.250 . S
C578 O576 1.248 . S
C579 O580 1.264 . S
C579 O587 1.249 . S
O580 C579 1.264 . S
O581 Mg574 1.986 . S
O581 C585 1.246 . S
O582 Mg577 2.032 . S
O582 C585 1.259 . S
O583 Mg574 2.114 . S
O583 C586 1.252 . S
O584 Mg574 2.251 . S
O584 Mg577 2.079 . S
O584 C586 1.273 . S
C585 O581 1.246 . S
C585 O582 1.259 . S
C586 O583 1.252 . S
C586 O584 1.273 . S
O587 Mg574 2.010 . S
O587 C579 1.249 . S
Mg588 O589 2.028 . S
Mg588 O595 1.986 . S
Mg588 O597 2.114 . S
Mg588 O598 2.251 . S
Mg588 O601 2.010 . S
O589 Mg588 2.028 . S
O589 C592 1.250 . S
O590 Mg591 2.028 . S
O590 C592 1.248 . S
Mg591 O590 2.028 . S
Mg591 O596 2.032 . S
Mg591 O598 2.079 . S
C592 O589 1.250 . S
C592 O590 1.248 . S
C593 O594 1.264 . S
C593 O601 1.249 1_655 S
O594 C593 1.264 . S
O595 Mg588 1.986 . S
O595 C599 1.246 . S
O596 Mg591 2.032 . S
O596 C599 1.259 . S
O597 Mg588 2.114 . S
O597 C600 1.252 . S
O598 Mg588 2.251 . S
O598 Mg591 2.079 . S
O598 C600 1.273 . S
C599 O595 1.246 . S
C599 O596 1.259 . S
C600 O597 1.252 . S
C600 O598 1.273 . S
O601 Mg588 2.010 . S
O601 C593 1.249 1_455 S
Mg602 O603 2.028 . S
Mg602 O609 1.986 . S
Mg602 O611 2.114 . S
Mg602 O612 2.251 . S
Mg602 O615 2.010 . S
O603 Mg602 2.028 . S
O603 C606 1.250 . S
O604 Mg605 2.028 . S
O604 C606 1.248 . S
Mg605 O604 2.028 . S
Mg605 O610 2.032 . S
Mg605 O612 2.079 . S
C606 O603 1.250 . S
C606 O604 1.248 . S
C607 O608 1.264 . S
C607 O615 1.249 . S
O608 C607 1.264 . S
O609 Mg602 1.986 . S
O609 C613 1.246 . S
O610 Mg605 2.032 . S
O610 C613 1.259 . S
O611 Mg602 2.114 . S
O611 C614 1.252 . S
O612 Mg602 2.251 . S
O612 Mg605 2.079 . S
O612 C614 1.273 . S
C613 O609 1.246 . S
C613 O610 1.259 . S
C614 O611 1.252 . S
C614 O612 1.273 . S
O615 Mg602 2.010 . S
O615 C607 1.249 . S
Mg616 O617 2.028 . S
Mg616 O623 1.986 . S
Mg616 O625 2.114 . S
Mg616 O626 2.251 . S
Mg616 O629 2.010 . S
O617 Mg616 2.028 . S
O617 C620 1.250 . S
O618 Mg619 2.028 . S
O618 C620 1.248 . S
Mg619 O618 2.028 . S
Mg619 O624 2.032 . S
Mg619 O626 2.079 . S
C620 O617 1.250 . S
C620 O618 1.248 . S
C621 O622 1.264 . S
C621 O629 1.249 1_655 S
O622 C621 1.264 . S
O623 Mg616 1.986 . S
O623 C627 1.246 . S
O624 Mg619 2.032 . S
O624 C627 1.259 . S
O625 Mg616 2.114 . S
O625 C628 1.252 . S
O626 Mg616 2.251 . S
O626 Mg619 2.079 . S
O626 C628 1.273 . S
C627 O623 1.246 . S
C627 O624 1.259 . S
C628 O625 1.252 . S
C628 O626 1.273 . S
O629 Mg616 2.010 . S
O629 C621 1.249 1_455 S
Mg630 O631 2.028 . S
Mg630 O637 1.986 . S
Mg630 O639 2.114 . S
Mg630 O640 2.251 . S
Mg630 O643 2.010 . S
O631 Mg630 2.028 . S
O631 C634 1.250 . S
O632 Mg633 2.028 . S
O632 C634 1.248 . S
Mg633 O632 2.028 . S
Mg633 O638 2.032 1_556 S
Mg633 O640 2.079 . S
C634 O631 1.250 . S
C634 O632 1.248 . S
C635 O636 1.264 . S
C635 O643 1.249 . S
O636 C635 1.264 . S
O637 Mg630 1.986 . S
O637 C641 1.246 1_556 S
O638 Mg633 2.032 1_554 S
O638 C641 1.259 . S
O639 Mg630 2.114 . S
O639 C642 1.252 . S
O640 Mg630 2.251 . S
O640 Mg633 2.079 . S
O640 C642 1.273 . S
C641 O637 1.246 1_554 S
C641 O638 1.259 . S
C642 O639 1.252 . S
C642 O640 1.273 . S
O643 Mg630 2.010 . S
O643 C635 1.249 . S
Mg644 O645 2.028 . S
Mg644 O651 1.986 . S
Mg644 O653 2.114 . S
Mg644 O654 2.251 . S
Mg644 O657 2.010 . S
O645 Mg644 2.028 . S
O645 C648 1.250 . S
O646 Mg647 2.028 . S
O646 C648 1.248 . S
Mg647 O646 2.028 . S
Mg647 O652 2.032 . S
Mg647 O654 2.079 . S
C648 O645 1.250 . S
C648 O646 1.248 . S
C649 O650 1.264 . S
C649 O657 1.249 . S
O650 C649 1.264 . S
O651 Mg644 1.986 . S
O651 C655 1.246 . S
O652 Mg647 2.032 . S
O652 C655 1.259 . S
O653 Mg644 2.114 . S
O653 C656 1.252 . S
O654 Mg644 2.251 . S
O654 Mg647 2.079 . S
O654 C656 1.273 . S
C655 O651 1.246 . S
C655 O652 1.259 . S
C656 O653 1.252 . S
C656 O654 1.273 . S
O657 Mg644 2.010 . S
O657 C649 1.249 . S
Mg658 O659 2.028 . S
Mg658 O665 1.986 . S
Mg658 O667 2.114 . S
Mg658 O668 2.251 . S
Mg658 O671 2.010 . S
O659 Mg658 2.028 . S
O659 C662 1.250 . S
O660 Mg661 2.028 . S
O660 C662 1.248 . S
Mg661 O660 2.028 . S
Mg661 O666 2.032 . S
Mg661 O668 2.079 . S
C662 O659 1.250 . S
C662 O660 1.248 . S
C663 O664 1.264 . S
C663 O671 1.249 . S
O664 C663 1.264 . S
O665 Mg658 1.986 . S
O665 C669 1.246 . S
O666 Mg661 2.032 . S
O666 C669 1.259 . S
O667 Mg658 2.114 . S
O667 C670 1.252 1_545 S
O668 Mg658 2.251 . S
O668 Mg661 2.079 . S
O668 C670 1.273 1_545 S
C669 O665 1.246 . S
C669 O666 1.259 . S
C670 O667 1.252 1_565 S
C670 O668 1.273 1_565 S
O671 Mg658 2.010 . S
O671 C663 1.249 . S
C592 C5 0.895 . S
C26 C222 1.280 1_455 S
C33 C564 1.008 . S
C54 C250 1.365 . S
C620 C68 1.541 . S
C75 C299 0.892 . S
C96 C648 1.396 . S
C103 C271 0.908 . S
C47 C669 0.799 . S
C12 C354 1.443 . S
C375 C19 0.751 . S
C40 C340 1.381 . S
C82 C347 1.550 . S
C89 C662 1.007 . S
C110 C361 1.580 . S
C61 C368 1.125 . S
C551 C117 0.592 . S
C138 C278 1.517 . S
C124 C627 1.525 . S
C306 C152 1.512 . S
C319 C159 0.911 . S
C579 C180 1.386 . S
C599 C187 0.800 . S
C571 C208 1.520 . S
C473 C221 1.525 . S
C229 C4 1.361 . S
C249 C445 1.623 . S
C32 C257 1.244 . S
C270 C494 1.257 . S
C95 C285 1.013 . S
C298 C522 1.387 . S
C67 C313 1.020 . S
C543 C264 1.337 . S
C214 C151 1.381 . S
C158 C236 1.543 . S
C137 C242 1.722 1_556 S
C130 C292 1.822 . S
C305 C536 1.758 . S
C144 C320 1.581 . S
C277 C165 1.457 . S
C327 C431 0.923 . S
C341 C60 1.151 . S
C334 C501 1.414 . S
C355 C88 1.115 . S
C376 C109 1.376 . S
C459 C383 0.927 . S
C404 C466 1.741 . S
C418 C438 1.761 . S
C425 C256 0.932 . S
C446 C558 1.318 . S
C228 C453 1.053 . S
C474 C586 1.366 . S
C488 C284 1.572 . S
C635 C495 0.770 . S
C516 C312 1.511 . S
C607 C523 0.855 . S
C333 C467 0.802 . S
C410 C432 1.393 . S
C439 C389 0.771 . S
C396 C460 1.436 . S
C502 C403 1.615 . S
C326 C509 1.139 . S
C530 C417 1.535 . S
C481 C382 1.206 . S
C537 C215 0.667 . S
C194 C614 1.506 . S
C291 C544 1.525 1_545 S
C642 C201 0.911 . S
C655 C173 0.856 . S
C166 C243 1.365 . S
C131 C263 0.803 . S
C235 C145 0.865 . S
C557 C53 1.599 . S
C424 C565 1.176 . S
C585 C25 1.612 . S
C593 C452 1.153 . S
C74 C606 1.264 . S
C621 C515 1.021 . S
C634 C102 1.483 . S
C487 C649 0.937 . S
C600 C123 1.294 . S
C200 C550 1.318 . S
C172 C572 1.724 . S
C578 C193 1.742 . S
C628 C186 1.851 . S
C116 C641 1.640 . S
C207 C656 1.455 . S
C613 C179 1.494 . S
C11 C663 0.928 . S
C397 C480 1.116 . S
C81 C670 1.415 . S
C508 C411 1.074 . S
C529 C390 1.400 . S
C369 C39 0.924 . S
C348 C46 1.781 1_565 S
C18 C362 1.758 1_565 S
