# Generated by pormake.
# Topology rac, (4)-cn, num edge types: 1
# Building blocks:
#     Node 0, Type 0, BuildingBlock: KUFVIS_clean_sbu_0, # of connection points: 4
#     Node 1, Type 0, BuildingBlock: KUFVIS_clean_sbu_0, # of connection points: 4
#     Node 2, Type 0, BuildingBlock: KUFVIS_clean_sbu_0, # of connection points: 4
#     Node 3, Type 0, BuildingBlock: KUFVIS_clean_sbu_0, # of connection points: 4
#     Node 4, Type 0, BuildingBlock: KUFVIS_clean_sbu_0, # of connection points: 4
#     Node 5, Type 0, BuildingBlock: KUFVIS_clean_sbu_0, # of connection points: 4
#     Node 6, Type 0, BuildingBlock: KUFVIS_clean_sbu_0, # of connection points: 4
#     Node 7, Type 0, BuildingBlock: KUFVIS_clean_sbu_0, # of connection points: 4
#     Edge 8, Type (0, 0), BuildingBlock: KIFKEQ_clean_linker_1, # of connection points: 2
#     Edge 9, Type (0, 0), BuildingBlock: KIFKEQ_clean_linker_1, # of connection points: 2
#     Edge 10, Type (0, 0), BuildingBlock: KIFKEQ_clean_linker_1, # of connection points: 2
#     Edge 11, Type (0, 0), BuildingBlock: KIFKEQ_clean_linker_1, # of connection points: 2
#     Edge 12, Type (0, 0), BuildingBlock: KIFKEQ_clean_linker_1, # of connection points: 2
#     Edge 13, Type (0, 0), BuildingBlock: KIFKEQ_clean_linker_1, # of connection points: 2
#     Edge 14, Type (0, 0), BuildingBlock: KIFKEQ_clean_linker_1, # of connection points: 2
#     Edge 15, Type (0, 0), BuildingBlock: KIFKEQ_clean_linker_1, # of connection points: 2
#     Edge 16, Type (0, 0), BuildingBlock: KIFKEQ_clean_linker_1, # of connection points: 2
#     Edge 17, Type (0, 0), BuildingBlock: KIFKEQ_clean_linker_1, # of connection points: 2
#     Edge 18, Type (0, 0), BuildingBlock: KIFKEQ_clean_linker_1, # of connection points: 2
#     Edge 19, Type (0, 0), BuildingBlock: KIFKEQ_clean_linker_1, # of connection points: 2
#     Edge 20, Type (0, 0), BuildingBlock: KIFKEQ_clean_linker_1, # of connection points: 2
#     Edge 21, Type (0, 0), BuildingBlock: KIFKEQ_clean_linker_1, # of connection points: 2
#     Edge 22, Type (0, 0), BuildingBlock: KIFKEQ_clean_linker_1, # of connection points: 2
#     Edge 23, Type (0, 0), BuildingBlock: KIFKEQ_clean_linker_1, # of connection points: 2
# Relax obj value: 0.207
# Max RMSD: 0.071
# Mean RMSD: 0.071
data_MOF--net-rac--node1-KUFVIS_clean_sbu_0--edge1-KIFKEQ_clean_linker_1
_symmetry_space_group_name_H-M    P1
_symmetry_Int_Tables_number       1
_symmetry_cell_setting            triclinic
loop_
_symmetry_equiv_pos_as_xyz
'x, y, z'
_cell_length_a     41.234868
_cell_length_b     21.559078
_cell_length_c     37.510983
_cell_angle_alpha  89.991077
_cell_angle_beta   90.007079
_cell_angle_gamma 89.988865
loop_
_atom_site_label
_atom_site_type_symbol
_atom_site_fract_x
_atom_site_fract_y
_atom_site_fract_z
_atom_type_partial_charge
Mn0 Mn 0.38376 0.28224 0.05969 0.0
Mn1 Mn 0.32451 0.25921 0.1204 0.0
C2 C 0.33522 0.3341 0.05472 0.0
C3 C 0.42907 0.34289 0.04328 0.0
C4 C 0.33922 0.16789 0.06102 0.0
O5 O 0.4081 0.24304 0.10145 0.0
O6 O 0.367 0.23578 0.14104 0.0
C7 C 0.3431 0.35209 0.17487 0.0
N8 N 0.32089 0.32916 0.15144 0.0
C9 C 0.28104 0.40389 0.17017 0.0
C10 C 0.30342 0.42805 0.19465 0.0
C11 C 0.33463 0.4022 0.19689 0.0
C12 C 0.29082 0.35381 0.14899 0.0
H13 H 0.36706 0.33217 0.17687 0.0
C14 C 0.39695 0.23085 0.13246 0.0
O15 O 0.42423 0.28847 0.02918 0.0
O16 O 0.40855 0.36017 0.0672 0.0
N17 N 0.28232 0.28206 0.10359 0.0
C18 C 0.26434 0.25607 0.07702 0.0
C19 C 0.23305 0.27876 0.07006 0.0
C20 C 0.22044 0.32743 0.09073 0.0
C21 C 0.23934 0.35322 0.11804 0.0
C22 C 0.27043 0.32899 0.12358 0.0
H23 H 0.27381 0.21847 0.06116 0.0
O24 O 0.35375 0.32732 0.02709 0.0
O25 O 0.34564 0.30999 0.08425 0.0
O26 O 0.36186 0.1984 0.04529 0.0
O27 O 0.32548 0.18582 0.08965 0.0
C28 C 0.22864 0.40241 0.13976 0.0
C29 C 0.24949 0.4278 0.16574 0.0
H30 H 0.29696 0.46657 0.21177 0.0
H31 H 0.35207 0.42068 0.21566 0.0
H32 H 0.21866 0.25865 0.04889 0.0
H33 H 0.1963 0.34482 0.08529 0.0
H34 H 0.20456 0.4216 0.1364 0.0
H35 H 0.24109 0.466 0.18198 0.0
Mn36 Mn 0.13211 0.73776 0.05976 0.0
Mn37 Mn 0.19104 0.76586 0.12019 0.0
C38 C 0.18187 0.69049 0.05448 0.0
C39 C 0.08852 0.6722 0.04348 0.0
C40 C 0.17416 0.85563 0.06074 0.0
O41 O 0.10699 0.77427 0.1017 0.0
O42 O 0.14814 0.7867 0.14079 0.0
C43 C 0.17413 0.67253 0.17509 0.0
N44 N 0.19589 0.69646 0.15147 0.0
C45 C 0.23685 0.62382 0.17006 0.0
C46 C 0.21496 0.59875 0.19477 0.0
C47 C 0.18343 0.62305 0.19718 0.0
C48 C 0.22629 0.67338 0.14891 0.0
H49 H 0.14991 0.69119 0.17721 0.0
C50 C 0.11802 0.78844 0.13247 0.0
O51 O 0.09137 0.72747 0.02977 0.0
O52 O 0.10979 0.65726 0.06712 0.0
N53 N 0.23361 0.74556 0.10346 0.0
C54 C 0.25113 0.77251 0.07684 0.0
C55 C 0.28267 0.75136 0.06971 0.0
C56 C 0.29599 0.70318 0.09023 0.0
C57 C 0.27758 0.67641 0.11762 0.0
C58 C 0.24622 0.69922 0.12339 0.0
H59 H 0.24109 0.80965 0.06104 0.0
O60 O 0.16314 0.69587 0.0269 0.0
O61 O 0.17097 0.71352 0.08407 0.0
O62 O 0.15177 0.82372 0.04546 0.0
O63 O 0.18868 0.83864 0.08911 0.0
C64 C 0.28897 0.62753 0.13915 0.0
C65 C 0.26863 0.60125 0.16534 0.0
H66 H 0.22205 0.56074 0.21196 0.0
H67 H 0.16637 0.60384 0.21612 0.0
H68 H 0.29671 0.77221 0.04848 0.0
H69 H 0.32032 0.6869 0.08461 0.0
H70 H 0.31323 0.60931 0.13554 0.0
H71 H 0.2776 0.56335 0.18148 0.0
Mn72 Mn 0.38419 0.23355 0.44339 0.0
Mn73 Mn 0.32498 0.25672 0.38262 0.0
C74 C 0.33564 0.18176 0.44829 0.0
C75 C 0.42947 0.17281 0.45988 0.0
C76 C 0.33967 0.34797 0.44204 0.0
O77 O 0.40858 0.27271 0.40166 0.0
O78 O 0.36748 0.28014 0.36205 0.0
C79 C 0.34362 0.16393 0.32811 0.0
N80 N 0.32139 0.18682 0.35154 0.0
C81 C 0.28154 0.11219 0.33269 0.0
C82 C 0.30394 0.08806 0.30822 0.0
C83 C 0.33516 0.11388 0.30604 0.0
C84 C 0.29132 0.1622 0.35393 0.0
H85 H 0.36758 0.18383 0.32615 0.0
C86 C 0.39743 0.285 0.37065 0.0
O87 O 0.42463 0.22725 0.47396 0.0
O88 O 0.40896 0.15558 0.43591 0.0
N89 N 0.28278 0.23387 0.39937 0.0
C90 C 0.26477 0.25983 0.42593 0.0
C91 C 0.23348 0.23716 0.43282 0.0
C92 C 0.22088 0.18855 0.4121 0.0
C93 C 0.2398 0.16279 0.38481 0.0
C94 C 0.2709 0.18699 0.37933 0.0
H95 H 0.27423 0.29739 0.44182 0.0
O96 O 0.35414 0.18851 0.47595 0.0
O97 O 0.34608 0.20587 0.41878 0.0
O98 O 0.36231 0.31743 0.45777 0.0
O99 O 0.32593 0.33005 0.41341 0.0
C100 C 0.22912 0.11367 0.36303 0.0
C101 C 0.24999 0.08831 0.33705 0.0
H102 H 0.2975 0.04959 0.29107 0.0
H103 H 0.35261 0.09543 0.28728 0.0
H104 H 0.21906 0.25724 0.45399 0.0
H105 H 0.19673 0.17117 0.4175 0.0
H106 H 0.20502 0.0945 0.36634 0.0
H107 H 0.24159 0.05018 0.32076 0.0
Mn108 Mn 0.13249 0.77824 0.44297 0.0
Mn109 Mn 0.19139 0.7503 0.38249 0.0
C110 C 0.18224 0.82556 0.44825 0.0
C111 C 0.08887 0.84365 0.45933 0.0
C112 C 0.17461 0.66042 0.4419 0.0
O113 O 0.10737 0.74175 0.40104 0.0
O114 O 0.14849 0.72947 0.3619 0.0
C115 C 0.17442 0.84373 0.32766 0.0
N116 N 0.1962 0.81976 0.35126 0.0
C117 C 0.23714 0.89242 0.33267 0.0
C118 C 0.21522 0.91753 0.30798 0.0
C119 C 0.18369 0.89325 0.30559 0.0
C120 C 0.2266 0.84283 0.3538 0.0
H121 H 0.1502 0.82508 0.32556 0.0
C122 C 0.11838 0.72766 0.37025 0.0
O123 O 0.09178 0.78837 0.473 0.0
O124 O 0.11011 0.85871 0.43568 0.0
N125 N 0.23397 0.77058 0.39921 0.0
C126 C 0.25151 0.7436 0.42581 0.0
C127 C 0.28306 0.76474 0.43293 0.0
C128 C 0.29636 0.81294 0.41241 0.0
C129 C 0.27791 0.83975 0.38505 0.0
C130 C 0.24655 0.81696 0.37929 0.0
H131 H 0.24149 0.70644 0.44159 0.0
O132 O 0.16352 0.82013 0.47584 0.0
O133 O 0.17132 0.80257 0.41865 0.0
O134 O 0.15222 0.69229 0.45722 0.0
O135 O 0.18908 0.67745 0.41352 0.0
C136 C 0.28928 0.88865 0.36352 0.0
C137 C 0.26892 0.91497 0.33737 0.0
H138 H 0.22228 0.95557 0.29081 0.0
H139 H 0.16661 0.91249 0.28667 0.0
H140 H 0.29711 0.74386 0.45414 0.0
H141 H 0.32068 0.82921 0.41802 0.0
H142 H 0.31355 0.90685 0.36713 0.0
H143 H 0.27787 0.95287 0.32123 0.0
Mn144 Mn 0.63222 0.7375 0.94339 0.0
Mn145 Mn 0.69112 0.76551 0.88292 0.0
C146 C 0.68197 0.69015 0.94866 0.0
C147 C 0.58862 0.67202 0.95969 0.0
C148 C 0.67432 0.85531 0.94236 0.0
O149 O 0.6071 0.77404 0.90145 0.0
O150 O 0.64822 0.78638 0.86233 0.0
C151 C 0.67417 0.67216 0.82806 0.0
N152 N 0.69594 0.69609 0.85167 0.0
C153 C 0.73688 0.62342 0.83309 0.0
C154 C 0.71497 0.59835 0.80839 0.0
C155 C 0.68344 0.62267 0.80599 0.0
C156 C 0.72634 0.67299 0.85422 0.0
H157 H 0.64995 0.69084 0.82595 0.0
C158 C 0.61811 0.78817 0.87067 0.0
O159 O 0.5915 0.72728 0.97339 0.0
O160 O 0.60987 0.65703 0.93605 0.0
N161 N 0.7337 0.74518 0.89965 0.0
C162 C 0.75124 0.77212 0.92626 0.0
C163 C 0.78278 0.75095 0.93338 0.0
C164 C 0.79608 0.70275 0.91287 0.0
C165 C 0.77765 0.67599 0.88549 0.0
C166 C 0.74629 0.69882 0.87973 0.0
H167 H 0.74121 0.80927 0.94205 0.0
O168 O 0.66325 0.69556 0.97625 0.0
O169 O 0.67106 0.7132 0.91907 0.0
O170 O 0.65193 0.82343 0.95767 0.0
O171 O 0.6888 0.83831 0.91398 0.0
C172 C 0.78902 0.6271 0.86397 0.0
C173 C 0.76866 0.60082 0.8378 0.0
H174 H 0.72204 0.56032 0.79121 0.0
H175 H 0.66637 0.60346 0.78706 0.0
H176 H 0.79683 0.77179 0.9546 0.0
H177 H 0.8204 0.68646 0.91848 0.0
H178 H 0.81328 0.60887 0.86758 0.0
H179 H 0.77761 0.56292 0.82166 0.0
Mn180 Mn 0.88388 0.28198 0.94353 0.0
Mn181 Mn 0.82462 0.25886 0.88283 0.0
C182 C 0.83533 0.33378 0.94849 0.0
C183 C 0.92917 0.34271 0.95993 0.0
C184 C 0.83937 0.16758 0.94223 0.0
O185 O 0.90822 0.24281 0.90177 0.0
O186 O 0.86711 0.23546 0.8622 0.0
C187 C 0.84318 0.35172 0.82832 0.0
N188 N 0.82098 0.32879 0.85176 0.0
C189 C 0.78111 0.40349 0.83301 0.0
C190 C 0.80348 0.42765 0.80852 0.0
C191 C 0.83469 0.40182 0.80629 0.0
C192 C 0.79091 0.35343 0.8542 0.0
H193 H 0.86714 0.33182 0.82632 0.0
C194 C 0.89706 0.23057 0.87077 0.0
O195 O 0.92436 0.28828 0.97404 0.0
O196 O 0.90863 0.35995 0.93599 0.0
N197 N 0.78243 0.28169 0.89963 0.0
C198 C 0.76446 0.25569 0.9262 0.0
C199 C 0.73317 0.27836 0.93315 0.0
C200 C 0.72055 0.32702 0.91247 0.0
C201 C 0.73943 0.35282 0.88516 0.0
C202 C 0.77053 0.32861 0.87962 0.0
H203 H 0.77393 0.2181 0.94207 0.0
O204 O 0.85386 0.32702 0.97612 0.0
O205 O 0.84574 0.30968 0.91896 0.0
O206 O 0.86202 0.19811 0.95794 0.0
O207 O 0.82562 0.18549 0.9136 0.0
C208 C 0.72872 0.40199 0.86342 0.0
C209 C 0.74956 0.42738 0.83743 0.0
H210 H 0.79702 0.46616 0.79139 0.0
H211 H 0.85212 0.4203 0.78751 0.0
H212 H 0.71878 0.25825 0.95433 0.0
H213 H 0.6964 0.3444 0.91791 0.0
H214 H 0.70463 0.42117 0.86678 0.0
H215 H 0.74115 0.46557 0.82118 0.0
Mn216 Mn 0.63222 0.77764 0.56024 0.0
Mn217 Mn 0.6911 0.74943 0.62073 0.0
C218 C 0.68202 0.82477 0.55497 0.0
C219 C 0.58867 0.84325 0.54388 0.0
C220 C 0.67422 0.65967 0.5613 0.0
O221 O 0.60706 0.74122 0.60217 0.0
O222 O 0.64817 0.72872 0.6413 0.0
C223 C 0.67421 0.84284 0.67559 0.0
N224 N 0.69597 0.81883 0.65198 0.0
C225 C 0.73697 0.89136 0.67058 0.0
C226 C 0.71508 0.9165 0.69527 0.0
C227 C 0.68353 0.8923 0.69767 0.0
C228 C 0.72638 0.84182 0.64944 0.0
H229 H 0.64998 0.82425 0.67769 0.0
C230 C 0.61806 0.72705 0.63296 0.0
O231 O 0.59152 0.78797 0.5302 0.0
O232 O 0.60993 0.85819 0.56754 0.0
N233 N 0.73369 0.76958 0.60403 0.0
C234 C 0.75121 0.74257 0.57743 0.0
C235 C 0.78277 0.76363 0.57031 0.0
C236 C 0.79611 0.81179 0.59082 0.0
C237 C 0.77769 0.83863 0.61819 0.0
C238 C 0.74632 0.81591 0.62395 0.0
H239 H 0.74116 0.70545 0.56164 0.0
O240 O 0.6633 0.81943 0.52739 0.0
O241 O 0.67108 0.80181 0.58457 0.0
O242 O 0.65186 0.69163 0.54598 0.0
O243 O 0.68872 0.67662 0.58968 0.0
C244 C 0.7891 0.8875 0.63971 0.0
C245 C 0.76876 0.91384 0.66587 0.0
H246 H 0.72217 0.95451 0.71245 0.0
H247 H 0.66647 0.91157 0.71659 0.0
H248 H 0.79681 0.74273 0.5491 0.0
H249 H 0.82044 0.828 0.58521 0.0
H250 H 0.81337 0.90565 0.6361 0.0
H251 H 0.77774 0.95171 0.68201 0.0
Mn252 Mn 0.88392 0.23294 0.55982 0.0
Mn253 Mn 0.82472 0.25583 0.62061 0.0
C254 C 0.83542 0.18096 0.55493 0.0
C255 C 0.92926 0.1724 0.54331 0.0
C256 C 0.83929 0.3472 0.56121 0.0
O257 O 0.90828 0.27216 0.60154 0.0
O258 O 0.86721 0.27937 0.64118 0.0
C259 C 0.84347 0.16302 0.67508 0.0
N260 N 0.8212 0.18588 0.65168 0.0
C261 C 0.78142 0.11113 0.67054 0.0
C262 C 0.80386 0.08702 0.69499 0.0
C263 C 0.83506 0.11292 0.69715 0.0
C264 C 0.79115 0.16118 0.6493 0.0
H265 H 0.86742 0.18298 0.67703 0.0
C266 C 0.89715 0.28436 0.63256 0.0
O267 O 0.92435 0.22683 0.52923 0.0
O268 O 0.90878 0.15506 0.56728 0.0
N269 N 0.78253 0.23286 0.60387 0.0
C270 C 0.76449 0.2588 0.57732 0.0
C271 C 0.73321 0.23606 0.57045 0.0
C272 C 0.72066 0.18741 0.59117 0.0
C273 C 0.73961 0.16168 0.61846 0.0
C274 C 0.7707 0.18594 0.62392 0.0
H275 H 0.77391 0.29639 0.56143 0.0
O276 O 0.85389 0.18781 0.52727 0.0
O277 O 0.84585 0.20509 0.58444 0.0
O278 O 0.86194 0.31675 0.54545 0.0
O279 O 0.82558 0.32921 0.58984 0.0
C280 C 0.72897 0.11252 0.64024 0.0
C281 C 0.74988 0.08719 0.6662 0.0
H282 H 0.79746 0.04852 0.71214 0.0
H283 H 0.85254 0.09449 0.71589 0.0
H284 H 0.71876 0.25612 0.54929 0.0
H285 H 0.69651 0.16998 0.58579 0.0
H286 H 0.70488 0.09332 0.63696 0.0
H287 H 0.74152 0.04903 0.6825 0.0
H288 H 0.33419 0.05338 0.08952 0.0
H289 H 0.3053 0.16231 0.99859 0.0
H290 H 0.28978 0.98105 0.07807 0.0
H291 H 0.26049 0.0895 0.98713 0.0
H292 H 0.20817 0.86131 0.99853 0.0
H293 H 0.25265 0.93492 0.98743 0.0
H294 H 0.22126 0.04444 0.07705 0.0
H295 H 0.17717 0.97124 0.08818 0.0
C296 C 0.3195 0.05987 0.06586 0.0
C297 C 0.32375 0.11288 0.04454 0.0
C298 C 0.29377 0.01895 0.0596 0.0
C299 C 0.27161 0.02999 0.03189 0.0
C300 C 0.2774 0.0797 0.00849 0.0
C301 C 0.30337 0.1208 0.01473 0.0
C302 C 0.20951 0.90325 0.01438 0.0
C303 C 0.18869 0.91113 0.04382 0.0
C304 C 0.2353 0.94482 0.00835 0.0
C305 C 0.24046 0.99503 0.03156 0.0
C306 C 0.21775 1.00617 0.05872 0.0
C307 C 0.1922 0.96476 0.06477 0.0
H308 H 0.20848 0.65462 0.50421 0.0
H309 H 0.17783 0.54492 0.41433 0.0
H310 H 0.25296 0.58101 0.51543 0.0
H311 H 0.22191 0.47173 0.42557 0.0
H312 H 0.33483 0.46255 0.41359 0.0
H313 H 0.29043 0.53499 0.42491 0.0
H314 H 0.26079 0.42647 0.51567 0.0
H315 H 0.3056 0.35355 0.50435 0.0
C316 C 0.2099 0.61273 0.48833 0.0
C317 C 0.18918 0.60491 0.4588 0.0
C318 C 0.23569 0.57116 0.49443 0.0
C319 C 0.24094 0.52101 0.47119 0.0
C320 C 0.21833 0.50995 0.44392 0.0
C321 C 0.19278 0.55136 0.4378 0.0
C322 C 0.32006 0.45607 0.4372 0.0
C323 C 0.32422 0.40301 0.4585 0.0
C324 C 0.29434 0.49705 0.44338 0.0
C325 C 0.27208 0.48602 0.47099 0.0
C326 C 0.27778 0.43626 0.49439 0.0
C327 C 0.30375 0.3951 0.48823 0.0
H328 H 0.67746 0.97083 0.91483 0.0
H329 H 0.70826 0.86103 0.00464 0.0
H330 H 0.72154 0.04399 0.92601 0.0
H331 H 0.75275 0.93462 0.01579 0.0
H332 H 0.80539 0.16206 0.00458 0.0
H333 H 0.76057 0.08922 0.01599 0.0
H334 H 0.79007 0.9806 0.92523 0.0
H335 H 0.83448 0.05296 0.91382 0.0
C336 C 0.69244 0.96437 0.93828 0.0
C337 C 0.68888 0.91079 0.95928 0.0
C338 C 0.718 1.00577 0.94436 0.0
C339 C 0.74065 0.99467 0.97159 0.0
C340 C 0.73544 0.9445 0.99482 0.0
C341 C 0.70965 0.90294 0.98877 0.0
C342 C 0.8035 0.12051 0.98847 0.0
C343 C 0.82393 0.11254 0.95872 0.0
C344 C 0.77754 0.07939 0.99469 0.0
C345 C 0.77179 0.02963 0.97131 0.0
C346 C 0.79402 0.01854 0.94368 0.0
C347 C 0.81974 0.05948 0.93744 0.0
H348 H 0.67739 0.54418 0.58887 0.0
H349 H 0.70807 0.65382 0.49896 0.0
H350 H 0.72145 0.47095 0.57767 0.0
H351 H 0.75252 0.58015 0.48777 0.0
H352 H 0.83434 0.46169 0.58973 0.0
H353 H 0.78993 0.53408 0.5784 0.0
H354 H 0.7604 0.42574 0.48754 0.0
H355 H 0.80523 0.35285 0.49887 0.0
C356 C 0.69234 0.5506 0.5654 0.0
C357 C 0.68875 0.60415 0.54438 0.0
C358 C 0.71788 0.50916 0.5593 0.0
C359 C 0.74049 0.52019 0.53203 0.0
C360 C 0.73525 0.57033 0.50878 0.0
C361 C 0.70947 0.61193 0.51485 0.0
C362 C 0.8196 0.45523 0.5661 0.0
C363 C 0.82379 0.40224 0.54477 0.0
C364 C 0.79387 0.49619 0.55991 0.0
C365 C 0.77163 0.48519 0.53227 0.0
C366 C 0.77737 0.4355 0.50885 0.0
C367 C 0.80334 0.39435 0.51502 0.0
H368 H 0.44553 0.3093 0.14969 0.0
H369 H 0.39617 0.14396 0.18484 0.0
H370 H 0.46381 0.32861 0.21077 0.0
H371 H 0.41541 0.16179 0.24546 0.0
H372 H 0.3968 0.37212 0.31841 0.0
H373 H 0.41575 0.35418 0.25771 0.0
H374 H 0.46381 0.18676 0.29209 0.0
H375 H 0.44582 0.20617 0.35326 0.0
C376 C 0.44047 0.27485 0.16998 0.0
C377 C 0.41953 0.22501 0.16265 0.0
C378 C 0.45071 0.28624 0.20497 0.0
C379 C 0.44091 0.24687 0.23279 0.0
C380 C 0.42366 0.19251 0.22447 0.0
C381 C 0.4127 0.18209 0.18974 0.0
C382 C 0.41321 0.33383 0.31343 0.0
C383 C 0.42001 0.29076 0.34046 0.0
C384 C 0.424 0.32334 0.27864 0.0
C385 C 0.44105 0.26878 0.27022 0.0
C386 C 0.45086 0.22927 0.29798 0.0
C387 C 0.44079 0.24073 0.33301 0.0
H388 H 0.07017 0.80755 0.35354 0.0
H389 H 0.11865 0.64199 0.31719 0.0
H390 H 0.05177 0.82829 0.29267 0.0
H391 H 0.09937 0.66137 0.25677 0.0
H392 H 0.06996 0.70838 0.1493 0.0
H393 H 0.05176 0.68759 0.21023 0.0
H394 H 0.09917 0.85482 0.24594 0.0
H395 H 0.11825 0.87425 0.18545 0.0
C396 C 0.07505 0.77342 0.33302 0.0
C397 C 0.09581 0.72313 0.33995 0.0
C398 C 0.06473 0.78562 0.29815 0.0
C399 C 0.0743 0.74666 0.27005 0.0
C400 C 0.09132 0.69184 0.27797 0.0
C401 C 0.10232 0.68056 0.31259 0.0
C402 C 0.07483 0.74256 0.1698 0.0
C403 C 0.09549 0.79296 0.16279 0.0
C404 C 0.06462 0.73033 0.2047 0.0
C405 C 0.07421 0.76937 0.23276 0.0
C406 C 0.09111 0.82428 0.22478 0.0
C407 C 0.102 0.8356 0.19012 0.0
H408 H 0.56993 0.70828 0.85396 0.0
H409 H 0.61838 0.87384 0.8176 0.0
H410 H 0.55161 0.68747 0.79308 0.0
H411 H 0.59918 0.85439 0.75716 0.0
H412 H 0.56996 0.80716 0.64966 0.0
H413 H 0.55168 0.82806 0.71054 0.0
H414 H 0.59907 0.6609 0.74646 0.0
H415 H 0.61824 0.64137 0.68602 0.0
C416 C 0.57481 0.74239 0.83343 0.0
C417 C 0.59555 0.79271 0.84037 0.0
C418 C 0.56454 0.73015 0.79855 0.0
C419 C 0.57413 0.76909 0.77044 0.0
C420 C 0.59111 0.82393 0.77836 0.0
C421 C 0.60207 0.83525 0.81299 0.0
C422 C 0.57481 0.77302 0.67019 0.0
C423 C 0.5955 0.72261 0.66325 0.0
C424 C 0.56456 0.78531 0.70507 0.0
C425 C 0.57411 0.74632 0.73317 0.0
C426 C 0.59103 0.6914 0.72526 0.0
C427 C 0.60198 0.68003 0.69063 0.0
H428 H 0.94561 0.20571 0.64993 0.0
H429 H 0.89649 0.37153 0.68477 0.0
H430 H 0.96372 0.18644 0.71107 0.0
H431 H 0.91556 0.35372 0.74546 0.0
H432 H 0.89631 0.14357 0.81849 0.0
H433 H 0.91544 0.16135 0.75783 0.0
H434 H 0.96375 0.32839 0.79231 0.0
H435 H 0.94558 0.30913 0.85344 0.0
C436 C 0.94058 0.24027 0.67017 0.0
C437 C 0.91974 0.29023 0.66273 0.0
C438 C 0.95072 0.2289 0.70519 0.0
C439 C 0.94092 0.2684 0.73295 0.0
C440 C 0.9238 0.32288 0.72452 0.0
C441 C 0.91294 0.3333 0.68975 0.0
C442 C 0.9128 0.18174 0.81353 0.0
C443 C 0.91963 0.22474 0.84058 0.0
C444 C 0.9237 0.19214 0.77878 0.0
C445 C 0.94088 0.24654 0.7704 0.0
C446 C 0.9507 0.28599 0.79817 0.0
C447 C 0.94052 0.27462 0.83318 0.0
H448 H 0.4623 0.34573 0.9796 0.0
H449 H 0.45334 0.44063 0.08033 0.0
H450 H 0.49911 0.42668 0.95853 0.0
H451 H 0.49107 0.5198 0.06025 0.0
H452 H 0.53553 0.68674 0.00423 0.0
H453 H 0.49733 0.60651 0.02361 0.0
H454 H 0.55032 0.47007 0.96242 0.0
H455 H 0.58698 0.55004 0.94202 0.0
C456 C 0.46877 0.38314 0.99751 0.0
C457 C 0.45491 0.38658 0.03162 0.0
C458 C 0.48991 0.42983 0.98549 0.0
C459 C 0.49812 0.48074 0.00749 0.0
C460 C 0.48489 0.48268 0.04204 0.0
C461 C 0.46349 0.43662 0.05379 0.0
C462 C 0.53874 0.63969 0.99476 0.0
C463 C 0.56426 0.62516 0.97144 0.0
C464 C 0.51701 0.59332 0.00609 0.0
C465 C 0.52053 0.5311 0.99473 0.0
C466 C 0.54614 0.51715 0.97133 0.0
C467 C 0.56745 0.56336 0.95975 0.0
H468 H 0.08694 0.55023 0.0612 0.0
H469 H 0.03543 0.6868 0.99892 0.0
H470 H 0.05033 0.47018 0.04081 0.0
H471 H 0.99728 0.60648 0.97955 0.0
H472 H 0.95339 0.44049 0.92286 0.0
H473 H 0.99107 0.51975 0.94294 0.0
H474 H 0.99915 0.42667 0.04468 0.0
H475 H 0.96239 0.34564 0.02362 0.0
C476 C 0.06741 0.56351 0.04346 0.0
C477 C 0.06419 0.62529 0.03175 0.0
C478 C 0.04612 0.51725 0.03188 0.0
C479 C 0.02051 0.53113 0.00847 0.0
C480 C 0.01696 0.59334 0.99708 0.0
C481 C 0.03866 0.63976 0.00841 0.0
C482 C 0.96354 0.43651 0.9494 0.0
C483 C 0.95499 0.38645 0.97158 0.0
C484 C 0.98491 0.48262 0.96115 0.0
C485 C 0.99813 0.48071 0.99571 0.0
C486 C 0.98996 0.4298 0.01772 0.0
C487 C 0.96884 0.38305 0.0057 0.0
H488 H 0.53564 0.82868 0.49926 0.0
H489 H 0.58708 0.96525 0.56155 0.0
H490 H 0.49753 0.90902 0.47978 0.0
H491 H 0.55051 0.04532 0.54105 0.0
H492 H 0.46259 0.16994 0.52363 0.0
H493 H 0.49931 0.0889 0.5448 0.0
H494 H 0.49138 0.99571 0.4431 0.0
H495 H 0.45374 0.07498 0.4229 0.0
C496 C 0.53886 0.87573 0.50872 0.0
C497 C 0.56436 0.89018 0.5321 0.0
C498 C 0.51718 0.92216 0.49734 0.0
C499 C 0.52073 0.98437 0.50869 0.0
C500 C 0.5463 0.99825 0.53215 0.0
C501 C 0.56757 0.95198 0.54379 0.0
C502 C 0.46907 0.13249 0.50575 0.0
C503 C 0.45527 0.12906 0.4716 0.0
C504 C 0.49017 0.08575 0.51782 0.0
C505 C 0.49837 0.0348 0.49586 0.0
C506 C 0.4852 0.03286 0.46128 0.0
C507 C 0.46385 0.07898 0.44946 0.0
H508 H 0.95365 0.07465 0.58028 0.0
H509 H 0.96237 0.16972 0.47956 0.0
H510 H 0.9914 0.99557 0.56009 0.0
H511 H 0.99919 0.08887 0.45839 0.0
H512 H 0.08712 0.96565 0.44167 0.0
H513 H 0.05045 0.04554 0.46216 0.0
H514 H 0.99764 0.90894 0.5234 0.0
H515 H 0.03585 0.82879 0.50393 0.0
C516 C 0.96375 0.07872 0.55372 0.0
C517 C 0.9551 0.12878 0.53159 0.0
C518 C 0.98517 0.03271 0.54191 0.0
C519 C 0.99833 0.03473 0.50733 0.0
C520 C 0.99005 0.08566 0.48537 0.0
C521 C 0.9689 0.1323 0.49745 0.0
C522 C 0.06763 0.95228 0.45942 0.0
C523 C 0.0645 0.89046 0.47111 0.0
C524 C 0.0463 0.99844 0.47106 0.0
C525 C 0.02075 0.98442 0.4945 0.0
C526 C 0.01728 0.92218 0.50585 0.0
C527 C 0.03902 0.87586 0.49447 0.0
H528 H 0.22846 0.66887 0.00447 0.0
H529 H 0.18757 0.59921 0.10251 0.0
H530 H 0.26579 0.57957 0.00273 0.0
H531 H 0.22585 0.51338 0.10196 0.0
H532 H 0.28899 0.35765 0.00473 0.0
H533 H 0.25269 0.4484 0.00283 0.0
H534 H 0.2936 0.51385 0.10178 0.0
H535 H 0.33082 0.42612 0.10256 0.0
C536 C 0.22805 0.6352 0.02591 0.0
C537 C 0.20646 0.64192 0.05452 0.0
C538 C 0.24904 0.58437 0.0248 0.0
C539 C 0.24846 0.54035 0.05235 0.0
C540 C 0.22671 0.54709 0.08067 0.0
C541 C 0.20534 0.59671 0.0813 0.0
C542 C 0.28988 0.39151 0.02605 0.0
C543 C 0.31137 0.38399 0.05468 0.0
C544 C 0.26951 0.44321 0.02482 0.0
C545 C 0.27063 0.48741 0.05223 0.0
C546 C 0.29237 0.48003 0.08053 0.0
C547 C 0.3131 0.42937 0.08132 0.0
H548 H 0.28938 0.1582 0.49823 0.0
H549 H 0.33125 0.08981 0.4004 0.0
H550 H 0.25305 0.0675 0.50005 0.0
H551 H 0.29401 1.00213 0.40111 0.0
H552 H 0.18793 0.91693 0.40028 0.0
H553 H 0.22622 1.00274 0.40089 0.0
H554 H 0.26618 0.93628 0.50007 0.0
H555 H 0.22884 0.84702 0.49827 0.0
C556 C 0.29027 0.12437 0.47689 0.0
C557 C 0.31178 0.1319 0.44828 0.0
C558 C 0.26988 0.0727 0.47807 0.0
C559 C 0.27101 0.02854 0.45064 0.0
C560 C 0.29277 0.03593 0.42236 0.0
C561 C 0.31352 0.08655 0.42162 0.0
C562 C 0.20571 0.91937 0.42149 0.0
C563 C 0.20683 0.8741 0.44824 0.0
C564 C 0.22708 0.96897 0.42216 0.0
C565 C 0.24884 0.97563 0.45048 0.0
C566 C 0.24942 0.93155 0.478 0.0
C567 C 0.22842 0.88074 0.47685 0.0
H568 H 0.72858 0.66853 0.99866 0.0
H569 H 0.68763 0.59886 0.90065 0.0
H570 H 0.7659 0.5792 1.00041 0.0
H571 H 0.72589 0.51299 0.90122 0.0
H572 H 0.83089 0.42577 0.90062 0.0
H573 H 0.79365 0.51347 0.90138 0.0
H574 H 0.75278 0.44803 1.00035 0.0
H575 H 0.7891 0.3573 0.99848 0.0
C576 C 0.72815 0.63485 0.97723 0.0
C577 C 0.70655 0.64157 0.94863 0.0
C578 C 0.74913 0.584 0.97835 0.0
C579 C 0.74853 0.53997 0.95082 0.0
C580 C 0.72677 0.54671 0.9225 0.0
C581 C 0.70541 0.59635 0.92186 0.0
C582 C 0.81318 0.42902 0.92186 0.0
C583 C 0.81146 0.38364 0.94851 0.0
C584 C 0.79243 0.47965 0.92263 0.0
C585 C 0.7707 0.48703 0.95094 0.0
C586 C 0.76959 0.44284 0.97836 0.0
C587 C 0.78998 0.39115 0.97715 0.0
H588 H 0.6878 0.91606 0.60297 0.0
H589 H 0.72863 0.84613 0.50497 0.0
H590 H 0.72615 1.00176 0.60237 0.0
H591 H 0.76603 0.93531 0.50317 0.0
H592 H 0.78915 0.15731 0.50501 0.0
H593 H 0.75288 0.06654 0.5032 0.0
H594 H 0.79395 1.00115 0.6021 0.0
H595 H 0.83113 0.08893 0.6028 0.0
C596 C 0.70558 0.91847 0.58176 0.0
C597 C 0.70666 0.87323 0.555 0.0
C598 C 0.72699 0.96801 0.58109 0.0
C599 C 0.74874 0.97464 0.55276 0.0
C600 C 0.74928 0.93059 0.52525 0.0
C601 C 0.72825 0.87983 0.52639 0.0
C602 C 0.79008 0.12347 0.52634 0.0
C603 C 0.8116 0.13102 0.55494 0.0
C604 C 0.76973 0.07174 0.52516 0.0
C605 C 0.77091 0.02756 0.55258 0.0
C606 C 0.79268 0.03497 0.58085 0.0
C607 C 0.81339 0.08565 0.58159 0.0
loop_
_geom_bond_atom_site_label_1
_geom_bond_atom_site_label_2
_geom_bond_distance
_geom_bond_site_symmetry_2
_ccdc_geom_bond_type
Mn0 O5 2.095 . S
Mn0 O15 2.162 . S
Mn0 O16 2.297 . S
Mn0 O24 2.365 1_554 S
Mn0 O25 2.209 . S
Mn0 O26 2.094 . S
Mn1 O6 2.121 . S
Mn1 N8 2.257 . S
Mn1 N17 2.282 . S
Mn1 O25 2.215 . S
Mn1 O27 2.117 . S
C2 O24 1.206 1_554 S
C2 O25 1.283 . S
C3 O15 1.281 . S
C3 O16 1.236 . S
C4 O26 1.240 . S
C4 O27 1.264 . S
O5 Mn0 2.095 . S
O5 C14 1.250 . S
O6 Mn1 2.121 . S
O6 C14 1.258 . S
C7 N8 1.326 . S
C7 C11 1.460 . S
C7 H13 0.929 . S
N8 Mn1 2.257 . S
N8 C7 1.326 . S
N8 C12 1.362 . S
C9 C10 1.258 . S
C9 C12 1.431 . S
C9 C29 1.449 . S
C10 C9 1.258 . S
C10 C11 1.477 . S
C10 H30 0.931 . S
C11 C7 1.460 . S
C11 C10 1.477 . S
C11 H31 0.930 . S
C12 N8 1.362 . S
C12 C9 1.431 . S
C12 C22 1.476 . S
H13 C7 0.929 . S
C14 O5 1.250 . S
C14 O6 1.258 . S
O15 Mn0 2.162 . S
O15 C3 1.281 . S
O16 Mn0 2.297 . S
O16 C3 1.236 . S
N17 Mn1 2.282 . S
N17 C18 1.328 . S
N17 C22 1.318 . S
C18 N17 1.328 . S
C18 C19 1.457 . S
C18 H23 0.929 . S
C19 C18 1.457 . S
C19 C20 1.291 . S
C19 H32 0.931 1_554 S
C20 C19 1.291 . S
C20 C21 1.373 . S
C20 H33 0.929 . S
C21 C20 1.373 . S
C21 C22 1.396 . S
C21 C28 1.403 . S
C22 C12 1.476 . S
C22 N17 1.318 . S
C22 C21 1.396 . S
H23 C18 0.929 . S
O24 Mn0 2.365 1_556 S
O24 C2 1.206 1_556 S
O25 Mn0 2.209 . S
O25 Mn1 2.215 . S
O25 C2 1.283 . S
O26 Mn0 2.094 . S
O26 C4 1.240 . S
O27 Mn1 2.117 . S
O27 C4 1.264 . S
C28 C21 1.403 . S
C28 C29 1.399 . S
C28 H34 0.929 . S
C29 C9 1.449 . S
C29 C28 1.399 . S
C29 H35 0.930 . S
H30 C10 0.931 . S
H31 C11 0.930 . S
H32 C19 0.931 1_556 S
H33 C20 0.929 . S
H34 C28 0.929 . S
H35 C29 0.930 . S
Mn36 O41 2.095 . S
Mn36 O51 2.162 . S
Mn36 O52 2.297 . S
Mn36 O60 2.365 1_554 S
Mn36 O61 2.209 . S
Mn36 O62 2.094 . S
Mn37 O42 2.121 . S
Mn37 N44 2.257 . S
Mn37 N53 2.282 . S
Mn37 O61 2.215 . S
Mn37 O63 2.117 . S
C38 O60 1.206 1_554 S
C38 O61 1.283 . S
C39 O51 1.281 . S
C39 O52 1.236 . S
C40 O62 1.240 . S
C40 O63 1.264 . S
O41 Mn36 2.095 . S
O41 C50 1.250 . S
O42 Mn37 2.121 . S
O42 C50 1.258 . S
C43 N44 1.326 . S
C43 C47 1.460 . S
C43 H49 0.929 . S
N44 Mn37 2.257 . S
N44 C43 1.326 . S
N44 C48 1.362 . S
C45 C46 1.258 . S
C45 C48 1.431 . S
C45 C65 1.449 . S
C46 C45 1.258 . S
C46 C47 1.477 . S
C46 H66 0.931 . S
C47 C43 1.460 . S
C47 C46 1.477 . S
C47 H67 0.930 . S
C48 N44 1.362 . S
C48 C45 1.431 . S
C48 C58 1.476 . S
H49 C43 0.929 . S
C50 O41 1.250 . S
C50 O42 1.258 . S
O51 Mn36 2.162 . S
O51 C39 1.281 . S
O52 Mn36 2.297 . S
O52 C39 1.236 . S
N53 Mn37 2.282 . S
N53 C54 1.328 . S
N53 C58 1.318 . S
C54 N53 1.328 . S
C54 C55 1.457 . S
C54 H59 0.929 . S
C55 C54 1.457 . S
C55 C56 1.291 . S
C55 H68 0.931 1_554 S
C56 C55 1.291 . S
C56 C57 1.373 . S
C56 H69 0.929 . S
C57 C56 1.373 . S
C57 C58 1.396 . S
C57 C64 1.403 . S
C58 C48 1.476 . S
C58 N53 1.318 . S
C58 C57 1.396 . S
H59 C54 0.929 . S
O60 Mn36 2.365 1_556 S
O60 C38 1.206 1_556 S
O61 Mn36 2.209 . S
O61 Mn37 2.215 . S
O61 C38 1.283 . S
O62 Mn36 2.094 . S
O62 C40 1.240 . S
O63 Mn37 2.117 . S
O63 C40 1.264 . S
C64 C57 1.403 . S
C64 C65 1.399 . S
C64 H70 0.929 . S
C65 C45 1.449 . S
C65 C64 1.399 . S
C65 H71 0.930 . S
H66 C46 0.931 . S
H67 C47 0.930 . S
H68 C55 0.931 1_556 S
H69 C56 0.929 . S
H70 C64 0.929 . S
H71 C65 0.930 . S
Mn72 O77 2.095 . S
Mn72 O87 2.162 . S
Mn72 O88 2.297 . S
Mn72 O96 2.385 . S
Mn72 O97 2.209 . S
Mn72 O98 2.094 . S
Mn73 O78 2.121 . S
Mn73 N80 2.257 . S
Mn73 N89 2.282 . S
Mn73 O97 2.215 . S
Mn73 O99 2.117 . S
C74 O96 1.234 . S
C74 O97 1.283 . S
C75 O87 1.281 . S
C75 O88 1.236 . S
C76 O98 1.240 . S
C76 O99 1.264 . S
O77 Mn72 2.095 . S
O77 C86 1.250 . S
O78 Mn73 2.121 . S
O78 C86 1.258 . S
C79 N80 1.326 . S
C79 C83 1.460 . S
C79 H85 0.929 . S
N80 Mn73 2.257 . S
N80 C79 1.326 . S
N80 C84 1.362 . S
C81 C82 1.258 . S
C81 C84 1.431 . S
C81 C101 1.449 . S
C82 C81 1.258 . S
C82 C83 1.477 . S
C82 H102 0.931 . S
C83 C79 1.460 . S
C83 C82 1.477 . S
C83 H103 0.930 . S
C84 N80 1.362 . S
C84 C81 1.431 . S
C84 C94 1.476 . S
H85 C79 0.929 . S
C86 O77 1.250 . S
C86 O78 1.258 . S
O87 Mn72 2.162 . S
O87 C75 1.281 . S
O88 Mn72 2.297 . S
O88 C75 1.236 . S
N89 Mn73 2.282 . S
N89 C90 1.328 . S
N89 C94 1.318 . S
C90 N89 1.328 . S
C90 C91 1.457 . S
C90 H95 0.929 . S
C91 C90 1.457 . S
C91 C92 1.291 . S
C91 H104 0.931 . S
C92 C91 1.291 . S
C92 C93 1.373 . S
C92 H105 0.929 . S
C93 C92 1.373 . S
C93 C94 1.396 . S
C93 C100 1.403 . S
C94 C84 1.476 . S
C94 N89 1.318 . S
C94 C93 1.396 . S
H95 C90 0.929 . S
O96 Mn72 2.385 . S
O96 C74 1.234 . S
O97 Mn72 2.209 . S
O97 Mn73 2.215 . S
O97 C74 1.283 . S
O98 Mn72 2.094 . S
O98 C76 1.240 . S
O99 Mn73 2.117 . S
O99 C76 1.264 . S
C100 C93 1.403 . S
C100 C101 1.399 . S
C100 H106 0.929 . S
C101 C81 1.449 . S
C101 C100 1.399 . S
C101 H107 0.930 . S
H102 C82 0.931 . S
H103 C83 0.930 . S
H104 C91 0.931 . S
H105 C92 0.929 . S
H106 C100 0.929 . S
H107 C101 0.930 . S
Mn108 O113 2.095 . S
Mn108 O123 2.162 . S
Mn108 O124 2.297 . S
Mn108 O132 2.385 . S
Mn108 O133 2.209 . S
Mn108 O134 2.094 . S
Mn109 O114 2.121 . S
Mn109 N116 2.257 . S
Mn109 N125 2.282 . S
Mn109 O133 2.215 . S
Mn109 O135 2.117 . S
C110 O132 1.234 . S
C110 O133 1.283 . S
C111 O123 1.281 . S
C111 O124 1.236 . S
C112 O134 1.240 . S
C112 O135 1.264 . S
O113 Mn108 2.095 . S
O113 C122 1.250 . S
O114 Mn109 2.121 . S
O114 C122 1.258 . S
C115 N116 1.326 . S
C115 C119 1.460 . S
C115 H121 0.929 . S
N116 Mn109 2.257 . S
N116 C115 1.326 . S
N116 C120 1.362 . S
C117 C118 1.258 . S
C117 C120 1.431 . S
C117 C137 1.449 . S
C118 C117 1.258 . S
C118 C119 1.477 . S
C118 H138 0.931 . S
C119 C115 1.460 . S
C119 C118 1.477 . S
C119 H139 0.930 . S
C120 N116 1.362 . S
C120 C117 1.431 . S
C120 C130 1.476 . S
H121 C115 0.929 . S
C122 O113 1.250 . S
C122 O114 1.258 . S
O123 Mn108 2.162 . S
O123 C111 1.281 . S
O124 Mn108 2.297 . S
O124 C111 1.236 . S
N125 Mn109 2.282 . S
N125 C126 1.328 . S
N125 C130 1.318 . S
C126 N125 1.328 . S
C126 C127 1.457 . S
C126 H131 0.929 . S
C127 C126 1.457 . S
C127 C128 1.291 . S
C127 H140 0.931 . S
C128 C127 1.291 . S
C128 C129 1.373 . S
C128 H141 0.929 . S
C129 C128 1.373 . S
C129 C130 1.396 . S
C129 C136 1.403 . S
C130 C120 1.476 . S
C130 N125 1.318 . S
C130 C129 1.396 . S
H131 C126 0.929 . S
O132 Mn108 2.385 . S
O132 C110 1.234 . S
O133 Mn108 2.209 . S
O133 Mn109 2.215 . S
O133 C110 1.283 . S
O134 Mn108 2.094 . S
O134 C112 1.240 . S
O135 Mn109 2.117 . S
O135 C112 1.264 . S
C136 C129 1.403 . S
C136 C137 1.399 . S
C136 H142 0.929 . S
C137 C117 1.449 . S
C137 C136 1.399 . S
C137 H143 0.930 . S
H138 C118 0.931 . S
H139 C119 0.930 . S
H140 C127 0.931 . S
H141 C128 0.929 . S
H142 C136 0.929 . S
H143 C137 0.930 . S
Mn144 O149 2.095 . S
Mn144 O159 2.162 . S
Mn144 O160 2.297 . S
Mn144 O168 2.365 1_556 S
Mn144 O169 2.209 . S
Mn144 O170 2.094 . S
Mn145 O150 2.121 . S
Mn145 N152 2.257 . S
Mn145 N161 2.282 . S
Mn145 O169 2.215 . S
Mn145 O171 2.117 . S
C146 O168 1.206 1_556 S
C146 O169 1.283 . S
C147 O159 1.281 . S
C147 O160 1.236 . S
C148 O170 1.240 . S
C148 O171 1.264 . S
O149 Mn144 2.095 . S
O149 C158 1.250 . S
O150 Mn145 2.121 . S
O150 C158 1.258 . S
C151 N152 1.326 . S
C151 C155 1.460 . S
C151 H157 0.929 . S
N152 Mn145 2.257 . S
N152 C151 1.326 . S
N152 C156 1.362 . S
C153 C154 1.258 . S
C153 C156 1.431 . S
C153 C173 1.449 . S
C154 C153 1.258 . S
C154 C155 1.477 . S
C154 H174 0.931 . S
C155 C151 1.460 . S
C155 C154 1.477 . S
C155 H175 0.930 . S
C156 N152 1.362 . S
C156 C153 1.431 . S
C156 C166 1.476 . S
H157 C151 0.929 . S
C158 O149 1.250 . S
C158 O150 1.258 . S
O159 Mn144 2.162 . S
O159 C147 1.281 . S
O160 Mn144 2.297 . S
O160 C147 1.236 . S
N161 Mn145 2.282 . S
N161 C162 1.328 . S
N161 C166 1.318 . S
C162 N161 1.328 . S
C162 C163 1.457 . S
C162 H167 0.929 . S
C163 C162 1.457 . S
C163 C164 1.291 . S
C163 H176 0.931 1_556 S
C164 C163 1.291 . S
C164 C165 1.373 . S
C164 H177 0.929 . S
C165 C164 1.373 . S
C165 C166 1.396 . S
C165 C172 1.403 . S
C166 C156 1.476 . S
C166 N161 1.318 . S
C166 C165 1.396 . S
H167 C162 0.929 . S
O168 Mn144 2.365 1_554 S
O168 C146 1.206 1_554 S
O169 Mn144 2.209 . S
O169 Mn145 2.215 . S
O169 C146 1.283 . S
O170 Mn144 2.094 . S
O170 C148 1.240 . S
O171 Mn145 2.117 . S
O171 C148 1.264 . S
C172 C165 1.403 . S
C172 C173 1.399 . S
C172 H178 0.929 . S
C173 C153 1.449 . S
C173 C172 1.399 . S
C173 H179 0.930 . S
H174 C154 0.931 . S
H175 C155 0.930 . S
H176 C163 0.931 1_554 S
H177 C164 0.929 . S
H178 C172 0.929 . S
H179 C173 0.930 . S
Mn180 O185 2.095 . S
Mn180 O195 2.162 . S
Mn180 O196 2.297 . S
Mn180 O204 2.365 1_556 S
Mn180 O205 2.209 . S
Mn180 O206 2.094 . S
Mn181 O186 2.121 . S
Mn181 N188 2.257 . S
Mn181 N197 2.282 . S
Mn181 O205 2.215 . S
Mn181 O207 2.117 . S
C182 O204 1.206 1_556 S
C182 O205 1.283 . S
C183 O195 1.281 . S
C183 O196 1.236 . S
C184 O206 1.240 . S
C184 O207 1.264 . S
O185 Mn180 2.095 . S
O185 C194 1.250 . S
O186 Mn181 2.121 . S
O186 C194 1.258 . S
C187 N188 1.326 . S
C187 C191 1.460 . S
C187 H193 0.929 . S
N188 Mn181 2.257 . S
N188 C187 1.326 . S
N188 C192 1.362 . S
C189 C190 1.258 . S
C189 C192 1.431 . S
C189 C209 1.449 . S
C190 C189 1.258 . S
C190 C191 1.477 . S
C190 H210 0.931 . S
C191 C187 1.460 . S
C191 C190 1.477 . S
C191 H211 0.930 . S
C192 N188 1.362 . S
C192 C189 1.431 . S
C192 C202 1.476 . S
H193 C187 0.929 . S
C194 O185 1.250 . S
C194 O186 1.258 . S
O195 Mn180 2.162 . S
O195 C183 1.281 . S
O196 Mn180 2.297 . S
O196 C183 1.236 . S
N197 Mn181 2.282 . S
N197 C198 1.328 . S
N197 C202 1.318 . S
C198 N197 1.328 . S
C198 C199 1.457 . S
C198 H203 0.929 . S
C199 C198 1.457 . S
C199 C200 1.291 . S
C199 H212 0.931 1_556 S
C200 C199 1.291 . S
C200 C201 1.373 . S
C200 H213 0.929 . S
C201 C200 1.373 . S
C201 C202 1.396 . S
C201 C208 1.403 . S
C202 C192 1.476 . S
C202 N197 1.318 . S
C202 C201 1.396 . S
H203 C198 0.929 . S
O204 Mn180 2.365 1_554 S
O204 C182 1.206 1_554 S
O205 Mn180 2.209 . S
O205 Mn181 2.215 . S
O205 C182 1.283 . S
O206 Mn180 2.094 . S
O206 C184 1.240 . S
O207 Mn181 2.117 . S
O207 C184 1.264 . S
C208 C201 1.403 . S
C208 C209 1.399 . S
C208 H214 0.929 . S
C209 C189 1.449 . S
C209 C208 1.399 . S
C209 H215 0.930 . S
H210 C190 0.931 . S
H211 C191 0.930 . S
H212 C199 0.931 1_554 S
H213 C200 0.929 . S
H214 C208 0.929 . S
H215 C209 0.930 . S
Mn216 O221 2.095 . S
Mn216 O231 2.162 . S
Mn216 O232 2.297 . S
Mn216 O240 2.385 . S
Mn216 O241 2.209 . S
Mn216 O242 2.094 . S
Mn217 O222 2.121 . S
Mn217 N224 2.257 . S
Mn217 N233 2.282 . S
Mn217 O241 2.215 . S
Mn217 O243 2.117 . S
C218 O240 1.234 . S
C218 O241 1.283 . S
C219 O231 1.281 . S
C219 O232 1.236 . S
C220 O242 1.240 . S
C220 O243 1.264 . S
O221 Mn216 2.095 . S
O221 C230 1.250 . S
O222 Mn217 2.121 . S
O222 C230 1.258 . S
C223 N224 1.326 . S
C223 C227 1.460 . S
C223 H229 0.929 . S
N224 Mn217 2.257 . S
N224 C223 1.326 . S
N224 C228 1.362 . S
C225 C226 1.258 . S
C225 C228 1.431 . S
C225 C245 1.449 . S
C226 C225 1.258 . S
C226 C227 1.477 . S
C226 H246 0.931 . S
C227 C223 1.460 . S
C227 C226 1.477 . S
C227 H247 0.930 . S
C228 N224 1.362 . S
C228 C225 1.431 . S
C228 C238 1.476 . S
H229 C223 0.929 . S
C230 O221 1.250 . S
C230 O222 1.258 . S
O231 Mn216 2.162 . S
O231 C219 1.281 . S
O232 Mn216 2.297 . S
O232 C219 1.236 . S
N233 Mn217 2.282 . S
N233 C234 1.328 . S
N233 C238 1.318 . S
C234 N233 1.328 . S
C234 C235 1.457 . S
C234 H239 0.929 . S
C235 C234 1.457 . S
C235 C236 1.291 . S
C235 H248 0.931 . S
C236 C235 1.291 . S
C236 C237 1.373 . S
C236 H249 0.929 . S
C237 C236 1.373 . S
C237 C238 1.396 . S
C237 C244 1.403 . S
C238 C228 1.476 . S
C238 N233 1.318 . S
C238 C237 1.396 . S
H239 C234 0.929 . S
O240 Mn216 2.385 . S
O240 C218 1.234 . S
O241 Mn216 2.209 . S
O241 Mn217 2.215 . S
O241 C218 1.283 . S
O242 Mn216 2.094 . S
O242 C220 1.240 . S
O243 Mn217 2.117 . S
O243 C220 1.264 . S
C244 C237 1.403 . S
C244 C245 1.399 . S
C244 H250 0.929 . S
C245 C225 1.449 . S
C245 C244 1.399 . S
C245 H251 0.930 . S
H246 C226 0.931 . S
H247 C227 0.930 . S
H248 C235 0.931 . S
H249 C236 0.929 . S
H250 C244 0.929 . S
H251 C245 0.930 . S
Mn252 O257 2.095 . S
Mn252 O267 2.162 . S
Mn252 O268 2.297 . S
Mn252 O276 2.385 . S
Mn252 O277 2.209 . S
Mn252 O278 2.094 . S
Mn253 O258 2.121 . S
Mn253 N260 2.257 . S
Mn253 N269 2.282 . S
Mn253 O277 2.215 . S
Mn253 O279 2.117 . S
C254 O276 1.234 . S
C254 O277 1.283 . S
C255 O267 1.281 . S
C255 O268 1.236 . S
C256 O278 1.240 . S
C256 O279 1.264 . S
O257 Mn252 2.095 . S
O257 C266 1.250 . S
O258 Mn253 2.121 . S
O258 C266 1.258 . S
C259 N260 1.326 . S
C259 C263 1.460 . S
C259 H265 0.929 . S
N260 Mn253 2.257 . S
N260 C259 1.326 . S
N260 C264 1.362 . S
C261 C262 1.258 . S
C261 C264 1.431 . S
C261 C281 1.449 . S
C262 C261 1.258 . S
C262 C263 1.477 . S
C262 H282 0.931 . S
C263 C259 1.460 . S
C263 C262 1.477 . S
C263 H283 0.930 . S
C264 N260 1.362 . S
C264 C261 1.431 . S
C264 C274 1.476 . S
H265 C259 0.929 . S
C266 O257 1.250 . S
C266 O258 1.258 . S
O267 Mn252 2.162 . S
O267 C255 1.281 . S
O268 Mn252 2.297 . S
O268 C255 1.236 . S
N269 Mn253 2.282 . S
N269 C270 1.328 . S
N269 C274 1.318 . S
C270 N269 1.328 . S
C270 C271 1.457 . S
C270 H275 0.929 . S
C271 C270 1.457 . S
C271 C272 1.291 . S
C271 H284 0.931 . S
C272 C271 1.291 . S
C272 C273 1.373 . S
C272 H285 0.929 . S
C273 C272 1.373 . S
C273 C274 1.396 . S
C273 C280 1.403 . S
C274 C264 1.476 . S
C274 N269 1.318 . S
C274 C273 1.396 . S
H275 C270 0.929 . S
O276 Mn252 2.385 . S
O276 C254 1.234 . S
O277 Mn252 2.209 . S
O277 Mn253 2.215 . S
O277 C254 1.283 . S
O278 Mn252 2.094 . S
O278 C256 1.240 . S
O279 Mn253 2.117 . S
O279 C256 1.264 . S
C280 C273 1.403 . S
C280 C281 1.399 . S
C280 H286 0.929 . S
C281 C261 1.449 . S
C281 C280 1.399 . S
C281 H287 0.930 . S
H282 C262 0.931 . S
H283 C263 0.930 . S
H284 C271 0.931 . S
H285 C272 0.929 . S
H286 C280 0.929 . S
H287 C281 0.930 . S
H288 C296 0.950 . S
H289 C301 0.950 . S
H290 C298 0.950 . S
H291 C300 0.950 1_565 S
H292 C302 0.950 . S
H293 C304 0.950 . S
H294 C306 0.951 1_545 S
H295 C307 0.950 . S
C296 H288 0.950 . S
C296 C297 1.386 . S
C296 C298 1.391 . S
C297 C296 1.386 . S
C297 C301 1.393 1_554 S
C298 H290 0.950 . S
C298 C296 1.391 . S
C298 C299 1.400 . S
C299 C298 1.400 . S
C299 C300 1.398 1_554 S
C299 C305 1.491 1_545 S
C300 H291 0.950 1_545 S
C300 C299 1.398 1_556 S
C300 C301 1.391 . S
C301 H289 0.950 . S
C301 C297 1.393 1_556 S
C301 C300 1.391 . S
C302 H292 0.950 . S
C302 C303 1.386 1_556 S
C302 C304 1.391 . S
C303 C302 1.386 1_554 S
C303 C307 1.393 . S
C304 H293 0.950 . S
C304 C302 1.391 . S
C304 C305 1.400 1_556 S
C305 C299 1.491 1_565 S
C305 C304 1.400 1_554 S
C305 C306 1.398 . S
C306 H294 0.951 1_565 S
C306 C305 1.398 . S
C306 C307 1.391 . S
C307 H295 0.950 . S
C307 C303 1.393 . S
C307 C306 1.391 . S
H308 C316 0.950 . S
H309 C321 0.950 . S
H310 C318 0.950 . S
H311 C320 0.950 . S
H312 C322 0.950 . S
H313 C324 0.950 . S
H314 C326 0.950 . S
H315 C327 0.950 . S
C316 H308 0.950 . S
C316 C317 1.386 . S
C316 C318 1.391 . S
C317 C316 1.386 . S
C317 C321 1.393 . S
C318 H310 0.950 . S
C318 C316 1.391 . S
C318 C319 1.400 . S
C319 C318 1.400 . S
C319 C320 1.398 . S
C319 C325 1.491 . S
C320 H311 0.950 . S
C320 C319 1.398 . S
C320 C321 1.391 . S
C321 H309 0.950 . S
C321 C317 1.393 . S
C321 C320 1.391 . S
C322 H312 0.950 . S
C322 C323 1.386 . S
C322 C324 1.391 . S
C323 C322 1.386 . S
C323 C327 1.393 . S
C324 H313 0.950 . S
C324 C322 1.391 . S
C324 C325 1.400 . S
C325 C319 1.491 . S
C325 C324 1.400 . S
C325 C326 1.398 . S
C326 H314 0.950 . S
C326 C325 1.398 . S
C326 C327 1.391 . S
C327 H315 0.950 . S
C327 C323 1.393 . S
C327 C326 1.391 . S
H328 C336 0.950 . S
H329 C341 0.950 . S
H330 C338 0.950 . S
H331 C340 0.950 . S
H332 C342 0.950 . S
H333 C344 0.950 . S
H334 C346 0.950 . S
H335 C347 0.950 . S
C336 H328 0.950 . S
C336 C337 1.386 . S
C336 C338 1.391 . S
C337 C336 1.386 . S
C337 C341 1.393 1_556 S
C338 H330 0.950 . S
C338 C336 1.391 . S
C338 C339 1.400 . S
C339 C338 1.400 . S
C339 C340 1.398 1_556 S
C339 C345 1.491 1_565 S
C340 H331 0.950 . S
C340 C339 1.398 1_554 S
C340 C341 1.391 . S
C341 H329 0.950 . S
C341 C337 1.393 1_554 S
C341 C340 1.391 . S
C342 H332 0.950 . S
C342 C343 1.386 1_554 S
C342 C344 1.391 . S
C343 C342 1.386 1_556 S
C343 C347 1.393 . S
C344 H333 0.950 . S
C344 C342 1.391 . S
C344 C345 1.400 1_554 S
C345 C339 1.491 1_545 S
C345 C344 1.400 1_556 S
C345 C346 1.398 . S
C346 H334 0.950 . S
C346 C345 1.398 . S
C346 C347 1.391 . S
C347 H335 0.950 . S
C347 C343 1.393 . S
C347 C346 1.391 . S
H348 C356 0.950 . S
H349 C361 0.950 . S
H350 C358 0.950 . S
H351 C360 0.950 . S
H352 C362 0.950 . S
H353 C364 0.950 . S
H354 C366 0.950 . S
H355 C367 0.950 . S
C356 H348 0.950 . S
C356 C357 1.386 . S
C356 C358 1.391 . S
C357 C356 1.386 . S
C357 C361 1.393 . S
C358 H350 0.950 . S
C358 C356 1.391 . S
C358 C359 1.400 . S
C359 C358 1.400 . S
C359 C360 1.398 . S
C359 C365 1.491 . S
C360 H351 0.950 . S
C360 C359 1.398 . S
C360 C361 1.391 . S
C361 H349 0.950 . S
C361 C357 1.393 . S
C361 C360 1.391 . S
C362 H352 0.950 . S
C362 C363 1.386 . S
C362 C364 1.391 . S
C363 C362 1.386 . S
C363 C367 1.393 . S
C364 H353 0.950 . S
C364 C362 1.391 . S
C364 C365 1.400 . S
C365 C359 1.491 . S
C365 C364 1.400 . S
C365 C366 1.398 . S
C366 H354 0.950 . S
C366 C365 1.398 . S
C366 C367 1.391 . S
C367 H355 0.950 . S
C367 C363 1.393 . S
C367 C366 1.391 . S
H368 C376 0.950 . S
H369 C381 0.950 . S
H370 C378 0.950 . S
H371 C380 0.950 . S
H372 C382 0.950 . S
H373 C384 0.950 . S
H374 C386 0.950 . S
H375 C387 0.950 . S
C376 H368 0.950 . S
C376 C377 1.386 . S
C376 C378 1.391 . S
C377 C376 1.386 . S
C377 C381 1.393 . S
C378 H370 0.950 . S
C378 C376 1.391 . S
C378 C379 1.400 . S
C379 C378 1.400 . S
C379 C380 1.398 . S
C379 C385 1.491 . S
C380 H371 0.950 . S
C380 C379 1.398 . S
C380 C381 1.391 . S
C381 H369 0.950 . S
C381 C377 1.393 . S
C381 C380 1.391 . S
C382 H372 0.950 . S
C382 C383 1.386 . S
C382 C384 1.391 . S
C383 C382 1.386 . S
C383 C387 1.393 . S
C384 H373 0.950 . S
C384 C382 1.391 . S
C384 C385 1.400 . S
C385 C379 1.491 . S
C385 C384 1.400 . S
C385 C386 1.398 . S
C386 H374 0.950 . S
C386 C385 1.398 . S
C386 C387 1.391 . S
C387 H375 0.950 . S
C387 C383 1.393 . S
C387 C386 1.391 . S
H388 C396 0.950 . S
H389 C401 0.950 . S
H390 C398 0.950 . S
H391 C400 0.950 . S
H392 C402 0.950 . S
H393 C404 0.950 . S
H394 C406 0.950 . S
H395 C407 0.950 . S
C396 H388 0.950 . S
C396 C397 1.386 . S
C396 C398 1.391 . S
C397 C396 1.386 . S
C397 C401 1.393 . S
C398 H390 0.950 . S
C398 C396 1.391 . S
C398 C399 1.400 . S
C399 C398 1.400 . S
C399 C400 1.398 . S
C399 C405 1.491 . S
C400 H391 0.950 . S
C400 C399 1.398 . S
C400 C401 1.391 . S
C401 H389 0.950 . S
C401 C397 1.393 . S
C401 C400 1.391 . S
C402 H392 0.950 . S
C402 C403 1.386 . S
C402 C404 1.391 . S
C403 C402 1.386 . S
C403 C407 1.393 . S
C404 H393 0.950 . S
C404 C402 1.391 . S
C404 C405 1.400 . S
C405 C399 1.491 . S
C405 C404 1.400 . S
C405 C406 1.398 . S
C406 H394 0.950 . S
C406 C405 1.398 . S
C406 C407 1.391 . S
C407 H395 0.950 . S
C407 C403 1.393 . S
C407 C406 1.391 . S
H408 C416 0.950 . S
H409 C421 0.950 . S
H410 C418 0.950 . S
H411 C420 0.950 . S
H412 C422 0.950 . S
H413 C424 0.950 . S
H414 C426 0.950 . S
H415 C427 0.950 . S
C416 H408 0.950 . S
C416 C417 1.386 . S
C416 C418 1.391 . S
C417 C416 1.386 . S
C417 C421 1.393 . S
C418 H410 0.950 . S
C418 C416 1.391 . S
C418 C419 1.400 . S
C419 C418 1.400 . S
C419 C420 1.398 . S
C419 C425 1.491 . S
C420 H411 0.950 . S
C420 C419 1.398 . S
C420 C421 1.391 . S
C421 H409 0.950 . S
C421 C417 1.393 . S
C421 C420 1.391 . S
C422 H412 0.950 . S
C422 C423 1.386 . S
C422 C424 1.391 . S
C423 C422 1.386 . S
C423 C427 1.393 . S
C424 H413 0.950 . S
C424 C422 1.391 . S
C424 C425 1.400 . S
C425 C419 1.491 . S
C425 C424 1.400 . S
C425 C426 1.398 . S
C426 H414 0.950 . S
C426 C425 1.398 . S
C426 C427 1.391 . S
C427 H415 0.950 . S
C427 C423 1.393 . S
C427 C426 1.391 . S
H428 C436 0.950 . S
H429 C441 0.950 . S
H430 C438 0.950 . S
H431 C440 0.950 . S
H432 C442 0.950 . S
H433 C444 0.950 . S
H434 C446 0.950 . S
H435 C447 0.950 . S
C436 H428 0.950 . S
C436 C437 1.386 . S
C436 C438 1.391 . S
C437 C436 1.386 . S
C437 C441 1.393 . S
C438 H430 0.950 . S
C438 C436 1.391 . S
C438 C439 1.400 . S
C439 C438 1.400 . S
C439 C440 1.398 . S
C439 C445 1.491 . S
C440 H431 0.950 . S
C440 C439 1.398 . S
C440 C441 1.391 . S
C441 H429 0.950 . S
C441 C437 1.393 . S
C441 C440 1.391 . S
C442 H432 0.950 . S
C442 C443 1.386 . S
C442 C444 1.391 . S
C443 C442 1.386 . S
C443 C447 1.393 . S
C444 H433 0.950 . S
C444 C442 1.391 . S
C444 C445 1.400 . S
C445 C439 1.491 . S
C445 C444 1.400 . S
C445 C446 1.398 . S
C446 H434 0.950 . S
C446 C445 1.398 . S
C446 C447 1.391 . S
C447 H435 0.950 . S
C447 C443 1.393 . S
C447 C446 1.391 . S
H448 C456 0.950 . S
H449 C461 0.950 . S
H450 C458 0.950 . S
H451 C460 0.950 . S
H452 C462 0.950 . S
H453 C464 0.950 . S
H454 C466 0.950 . S
H455 C467 0.950 . S
C456 H448 0.950 . S
C456 C457 1.386 1_556 S
C456 C458 1.391 . S
C457 C456 1.386 1_554 S
C457 C461 1.393 . S
C458 H450 0.950 . S
C458 C456 1.391 . S
C458 C459 1.400 1_556 S
C459 C458 1.400 1_554 S
C459 C460 1.398 . S
C459 C465 1.491 1_554 S
C460 H451 0.950 . S
C460 C459 1.398 . S
C460 C461 1.391 . S
C461 H449 0.950 . S
C461 C457 1.393 . S
C461 C460 1.391 . S
C462 H452 0.950 . S
C462 C463 1.386 1_554 S
C462 C464 1.391 . S
C463 C462 1.386 1_556 S
C463 C467 1.393 . S
C464 H453 0.950 . S
C464 C462 1.391 . S
C464 C465 1.400 1_554 S
C465 C459 1.491 1_556 S
C465 C464 1.400 1_556 S
C465 C466 1.398 . S
C466 H454 0.950 . S
C466 C465 1.398 . S
C466 C467 1.391 . S
C467 H455 0.950 . S
C467 C463 1.393 . S
C467 C466 1.391 . S
H468 C476 0.950 . S
H469 C481 0.950 . S
H470 C478 0.950 . S
H471 C480 0.950 . S
H472 C482 0.950 . S
H473 C484 0.950 . S
H474 C486 0.950 . S
H475 C487 0.950 . S
C476 H468 0.950 . S
C476 C477 1.386 . S
C476 C478 1.391 . S
C477 C476 1.386 . S
C477 C481 1.393 . S
C478 H470 0.950 . S
C478 C476 1.391 . S
C478 C479 1.400 . S
C479 C478 1.400 . S
C479 C480 1.398 1_455 S
C479 C485 1.491 1_454 S
C480 H471 0.950 . S
C480 C479 1.398 1_655 S
C480 C481 1.391 1_655 S
C481 H469 0.950 . S
C481 C477 1.393 . S
C481 C480 1.391 1_455 S
C482 H472 0.950 . S
C482 C483 1.386 . S
C482 C484 1.391 . S
C483 C482 1.386 . S
C483 C487 1.393 . S
C484 H473 0.950 . S
C484 C482 1.391 . S
C484 C485 1.400 . S
C485 C479 1.491 1_656 S
C485 C484 1.400 . S
C485 C486 1.398 1_655 S
C486 H474 0.950 . S
C486 C485 1.398 1_455 S
C486 C487 1.391 1_455 S
C487 H475 0.950 . S
C487 C483 1.393 . S
C487 C486 1.391 1_655 S
H488 C496 0.950 . S
H489 C501 0.950 . S
H490 C498 0.950 . S
H491 C500 0.950 1_545 S
H492 C502 0.950 . S
H493 C504 0.950 . S
H494 C506 0.950 1_565 S
H495 C507 0.950 . S
C496 H488 0.950 . S
C496 C497 1.386 . S
C496 C498 1.391 . S
C497 C496 1.386 . S
C497 C501 1.393 . S
C498 H490 0.950 . S
C498 C496 1.391 . S
C498 C499 1.400 . S
C499 C498 1.400 . S
C499 C500 1.398 . S
C499 C505 1.491 1_565 S
C500 H491 0.950 1_565 S
C500 C499 1.398 . S
C500 C501 1.391 . S
C501 H489 0.950 . S
C501 C497 1.393 . S
C501 C500 1.391 . S
C502 H492 0.950 . S
C502 C503 1.386 . S
C502 C504 1.391 . S
C503 C502 1.386 . S
C503 C507 1.393 . S
C504 H493 0.950 . S
C504 C502 1.391 . S
C504 C505 1.400 . S
C505 C499 1.491 1_545 S
C505 C504 1.400 . S
C505 C506 1.398 . S
C506 H494 0.950 1_545 S
C506 C505 1.398 . S
C506 C507 1.391 . S
C507 H495 0.950 . S
C507 C503 1.393 . S
C507 C506 1.391 . S
H508 C516 0.950 . S
H509 C521 0.950 . S
H510 C518 0.950 1_455 S
H511 C520 0.950 . S
H512 C522 0.950 . S
H513 C524 0.950 1_655 S
H514 C526 0.950 . S
H515 C527 0.950 . S
C516 H508 0.950 . S
C516 C517 1.386 . S
C516 C518 1.391 . S
C517 C516 1.386 . S
C517 C521 1.393 . S
C518 H510 0.950 1_655 S
C518 C516 1.391 . S
C518 C519 1.400 . S
C519 C518 1.400 . S
C519 C520 1.398 . S
C519 C525 1.491 1_645 S
C520 H511 0.950 . S
C520 C519 1.398 . S
C520 C521 1.391 . S
C521 H509 0.950 . S
C521 C517 1.393 . S
C521 C520 1.391 . S
C522 H512 0.950 . S
C522 C523 1.386 . S
C522 C524 1.391 . S
C523 C522 1.386 . S
C523 C527 1.393 . S
C524 H513 0.950 1_455 S
C524 C522 1.391 . S
C524 C525 1.400 . S
C525 C519 1.491 1_465 S
C525 C524 1.400 . S
C525 C526 1.398 . S
C526 H514 0.950 . S
C526 C525 1.398 . S
C526 C527 1.391 . S
C527 H515 0.950 . S
C527 C523 1.393 . S
C527 C526 1.391 . S
H528 C536 0.950 . S
H529 C541 0.950 . S
H530 C538 0.950 . S
H531 C540 0.950 . S
H532 C542 0.950 . S
H533 C544 0.950 . S
H534 C546 0.950 . S
H535 C547 0.950 . S
C536 H528 0.950 . S
C536 C537 1.386 . S
C536 C538 1.391 . S
C537 C536 1.386 . S
C537 C541 1.393 . S
C538 H530 0.950 . S
C538 C536 1.391 . S
C538 C539 1.400 . S
C539 C538 1.400 . S
C539 C540 1.398 . S
C539 C545 1.491 . S
C540 H531 0.950 . S
C540 C539 1.398 . S
C540 C541 1.391 . S
C541 H529 0.950 . S
C541 C537 1.393 . S
C541 C540 1.391 . S
C542 H532 0.950 . S
C542 C543 1.386 . S
C542 C544 1.391 . S
C543 C542 1.386 . S
C543 C547 1.393 . S
C544 H533 0.950 . S
C544 C542 1.391 . S
C544 C545 1.400 . S
C545 C539 1.491 . S
C545 C544 1.400 . S
C545 C546 1.398 . S
C546 H534 0.950 . S
C546 C545 1.398 . S
C546 C547 1.391 . S
C547 H535 0.950 . S
C547 C543 1.393 . S
C547 C546 1.391 . S
H548 C556 0.950 . S
H549 C561 0.950 . S
H550 C558 0.950 . S
H551 C560 0.950 . S
H552 C562 0.950 . S
H553 C564 0.950 . S
H554 C566 0.950 . S
H555 C567 0.950 . S
C556 H548 0.950 . S
C556 C557 1.386 . S
C556 C558 1.391 . S
C557 C556 1.386 . S
C557 C561 1.393 . S
C558 H550 0.950 . S
C558 C556 1.391 . S
C558 C559 1.400 . S
C559 C558 1.400 . S
C559 C560 1.398 . S
C559 C565 1.491 1_545 S
C560 H551 0.950 . S
C560 C559 1.398 . S
C560 C561 1.391 . S
C561 H549 0.950 . S
C561 C557 1.393 . S
C561 C560 1.391 . S
C562 H552 0.950 . S
C562 C563 1.386 . S
C562 C564 1.391 . S
C563 C562 1.386 . S
C563 C567 1.393 . S
C564 H553 0.950 . S
C564 C562 1.391 . S
C564 C565 1.400 . S
C565 C559 1.491 1_565 S
C565 C564 1.400 . S
C565 C566 1.398 . S
C566 H554 0.950 . S
C566 C565 1.398 . S
C566 C567 1.391 . S
C567 H555 0.950 . S
C567 C563 1.393 . S
C567 C566 1.391 . S
H568 C576 0.950 . S
H569 C581 0.950 . S
H570 C578 0.950 . S
H571 C580 0.950 . S
H572 C582 0.950 . S
H573 C584 0.950 . S
H574 C586 0.950 . S
H575 C587 0.950 . S
C576 H568 0.950 . S
C576 C577 1.386 . S
C576 C578 1.391 . S
C577 C576 1.386 . S
C577 C581 1.393 . S
C578 H570 0.950 . S
C578 C576 1.391 . S
C578 C579 1.400 . S
C579 C578 1.400 . S
C579 C580 1.398 . S
C579 C585 1.491 . S
C580 H571 0.950 . S
C580 C579 1.398 . S
C580 C581 1.391 . S
C581 H569 0.950 . S
C581 C577 1.393 . S
C581 C580 1.391 . S
C582 H572 0.950 . S
C582 C583 1.386 . S
C582 C584 1.391 . S
C583 C582 1.386 . S
C583 C587 1.393 . S
C584 H573 0.950 . S
C584 C582 1.391 . S
C584 C585 1.400 . S
C585 C579 1.491 . S
C585 C584 1.400 . S
C585 C586 1.398 . S
C586 H574 0.950 . S
C586 C585 1.398 . S
C586 C587 1.391 . S
C587 H575 0.950 . S
C587 C583 1.393 . S
C587 C586 1.391 . S
H588 C596 0.950 . S
H589 C601 0.950 . S
H590 C598 0.950 . S
H591 C600 0.950 . S
H592 C602 0.950 . S
H593 C604 0.950 . S
H594 C606 0.950 . S
H595 C607 0.950 . S
C596 H588 0.950 . S
C596 C597 1.386 . S
C596 C598 1.391 . S
C597 C596 1.386 . S
C597 C601 1.393 . S
C598 H590 0.950 . S
C598 C596 1.391 . S
C598 C599 1.400 . S
C599 C598 1.400 . S
C599 C600 1.398 . S
C599 C605 1.491 1_565 S
C600 H591 0.950 . S
C600 C599 1.398 . S
C600 C601 1.391 . S
C601 H589 0.950 . S
C601 C597 1.393 . S
C601 C600 1.391 . S
C602 H592 0.950 . S
C602 C603 1.386 . S
C602 C604 1.391 . S
C603 C602 1.386 . S
C603 C607 1.393 . S
C604 H593 0.950 . S
C604 C602 1.391 . S
C604 C605 1.400 . S
C605 C599 1.491 1_545 S
C605 C604 1.400 . S
C605 C606 1.398 . S
C606 H594 0.950 . S
C606 C605 1.398 . S
C606 C607 1.391 . S
C607 H595 0.950 . S
C607 C603 1.393 . S
C607 C606 1.391 . S
C297 C4 1.444 . S
C303 C40 1.433 . S
C317 C112 1.462 . S
C323 C76 1.458 . S
C337 C148 1.460 . S
C343 C184 1.460 . S
C357 C220 1.458 . S
C363 C256 1.441 . S
C377 C14 1.508 . S
C383 C86 1.514 . S
C397 C122 1.495 . S
C403 C50 1.527 . S
C417 C158 1.519 . S
C423 C230 1.504 . S
C437 C266 1.504 . S
C443 C194 1.519 . S
C457 C3 1.429 . S
C463 C147 1.429 . S
C477 C39 1.427 . S
C483 C183 1.427 . S
C497 C219 1.422 . S
C503 C75 1.422 . S
C517 C255 1.424 . S
C523 C111 1.424 . S
C537 C38 1.014 . S
C543 C2 1.017 . S
C557 C74 1.015 . S
C563 C110 1.014 . S
C577 C146 1.017 . S
C583 C182 1.014 . S
C597 C218 1.015 . S
C603 C254 1.014 . S
