# Generated by pormake.
# Topology wjg, (4)-cn, num edge types: 1
# Building blocks:
#     Node 0, Type 0, BuildingBlock: ICAMEG_clean_sbu_1, # of connection points: 4
#     Node 1, Type 0, BuildingBlock: ICAMEG_clean_sbu_1, # of connection points: 4
#     Node 2, Type 0, BuildingBlock: ICAMEG_clean_sbu_1, # of connection points: 4
#     Node 3, Type 0, BuildingBlock: ICAMEG_clean_sbu_1, # of connection points: 4
#     Node 4, Type 0, BuildingBlock: ICAMEG_clean_sbu_1, # of connection points: 4
#     Node 5, Type 0, BuildingBlock: ICAMEG_clean_sbu_1, # of connection points: 4
#     Node 6, Type 0, BuildingBlock: ICAMEG_clean_sbu_1, # of connection points: 4
#     Node 7, Type 0, BuildingBlock: ICAMEG_clean_sbu_1, # of connection points: 4
#     Node 8, Type 0, BuildingBlock: ICAMEG_clean_sbu_1, # of connection points: 4
#     Node 9, Type 0, BuildingBlock: ICAMEG_clean_sbu_1, # of connection points: 4
#     Node 10, Type 0, BuildingBlock: ICAMEG_clean_sbu_1, # of connection points: 4
#     Node 11, Type 0, BuildingBlock: ICAMEG_clean_sbu_1, # of connection points: 4
#     Edge 12, Type (0, 0), BuildingBlock: AJUNOK_clean_linker_0, # of connection points: 2
#     Edge 13, Type (0, 0), BuildingBlock: AJUNOK_clean_linker_0, # of connection points: 2
#     Edge 14, Type (0, 0), BuildingBlock: AJUNOK_clean_linker_0, # of connection points: 2
#     Edge 15, Type (0, 0), BuildingBlock: AJUNOK_clean_linker_0, # of connection points: 2
#     Edge 16, Type (0, 0), BuildingBlock: AJUNOK_clean_linker_0, # of connection points: 2
#     Edge 17, Type (0, 0), BuildingBlock: AJUNOK_clean_linker_0, # of connection points: 2
#     Edge 18, Type (0, 0), BuildingBlock: AJUNOK_clean_linker_0, # of connection points: 2
#     Edge 19, Type (0, 0), BuildingBlock: AJUNOK_clean_linker_0, # of connection points: 2
#     Edge 20, Type (0, 0), BuildingBlock: AJUNOK_clean_linker_0, # of connection points: 2
#     Edge 21, Type (0, 0), BuildingBlock: AJUNOK_clean_linker_0, # of connection points: 2
#     Edge 22, Type (0, 0), BuildingBlock: AJUNOK_clean_linker_0, # of connection points: 2
#     Edge 23, Type (0, 0), BuildingBlock: AJUNOK_clean_linker_0, # of connection points: 2
#     Edge 24, Type (0, 0), BuildingBlock: AJUNOK_clean_linker_0, # of connection points: 2
#     Edge 25, Type (0, 0), BuildingBlock: AJUNOK_clean_linker_0, # of connection points: 2
#     Edge 26, Type (0, 0), BuildingBlock: AJUNOK_clean_linker_0, # of connection points: 2
#     Edge 27, Type (0, 0), BuildingBlock: AJUNOK_clean_linker_0, # of connection points: 2
#     Edge 28, Type (0, 0), BuildingBlock: AJUNOK_clean_linker_0, # of connection points: 2
#     Edge 29, Type (0, 0), BuildingBlock: AJUNOK_clean_linker_0, # of connection points: 2
#     Edge 30, Type (0, 0), BuildingBlock: AJUNOK_clean_linker_0, # of connection points: 2
#     Edge 31, Type (0, 0), BuildingBlock: AJUNOK_clean_linker_0, # of connection points: 2
#     Edge 32, Type (0, 0), BuildingBlock: AJUNOK_clean_linker_0, # of connection points: 2
#     Edge 33, Type (0, 0), BuildingBlock: AJUNOK_clean_linker_0, # of connection points: 2
#     Edge 34, Type (0, 0), BuildingBlock: AJUNOK_clean_linker_0, # of connection points: 2
#     Edge 35, Type (0, 0), BuildingBlock: AJUNOK_clean_linker_0, # of connection points: 2
# Relax obj value: 0.326
# Max RMSD: 0.129
# Mean RMSD: 0.126
data_MOF--net-wjg--node1-ICAMEG_clean_sbu_1--edge1-AJUNOK_clean_linker_0
_symmetry_space_group_name_H-M    P1
_symmetry_Int_Tables_number       1
_symmetry_cell_setting            triclinic
loop_
_symmetry_equiv_pos_as_xyz
'x, y, z'
_cell_length_a     25.311151
_cell_length_b     25.229178
_cell_length_c     31.963719
_cell_angle_alpha  90.001354
_cell_angle_beta   90.049888
_cell_angle_gamma 120.1901
loop_
_atom_site_label
_atom_site_type_symbol
_atom_site_fract_x
_atom_site_fract_y
_atom_site_fract_z
_atom_type_partial_charge
Co0 Co 0.21565 0.40461 0.33872 0.0
Co1 Co 0.06195 0.30966 0.35018 0.0
O2 O 0.13187 0.37822 0.3218 0.0
C3 C 0.22666 0.52895 0.3397 0.0
O4 O 0.18672 0.51097 0.37026 0.0
C5 C 0.04163 0.28108 0.26022 0.0
O6 O 0.09822 0.29241 0.26009 0.0
O7 O 0.09548 0.25453 0.33947 0.0
O8 O 0.19376 0.3198 0.35462 0.0
H9 H 0.96011 0.13133 0.44911 0.0
H10 H 0.19616 0.44019 0.25424 0.0
O11 O 0.24159 0.49204 0.32332 0.0
H12 H 0.29241 0.31468 0.22993 0.0
H13 H 0.44524 0.52241 0.32766 0.0
H14 H 0.26959 0.382 0.41463 0.0
H15 H 0.27263 0.33606 0.30162 0.0
H16 H 0.3397 0.47838 0.30102 0.0
O17 O 0.01759 0.28429 0.29461 0.0
H18 H 0.04726 0.21605 0.41236 0.0
H19 H 0.92682 0.25763 0.34647 0.0
H20 H 0.37386 0.42091 0.44138 0.0
H21 H 0.21637 0.42098 0.18191 0.0
H22 H 0.46283 0.49302 0.39817 0.0
H23 H 0.26448 0.35749 0.1694 0.0
O24 O 0.19642 0.41817 0.39585 0.0
H25 H 0.98681 0.45212 0.30871 0.0
H26 H 0.0167 0.3435 0.42622 0.0
H27 H 0.97086 0.408 0.4395 0.0
H28 H 0.95464 0.46215 0.38035 0.0
H29 H 0.03639 0.39086 0.29735 0.0
H30 H 0.83846 0.17464 0.38366 0.0
H31 H 0.85492 0.11026 0.43498 0.0
O32 O 0.10588 0.33313 0.40623 0.0
C33 C 0.14902 0.266 0.34879 0.0
C34 C 0.9524 0.15901 0.4268 0.0
C35 C 0.88415 0.18345 0.39018 0.0
N36 N 0.99218 0.24199 0.37748 0.0
C37 C 0.00155 0.20694 0.40578 0.0
C38 C 0.93432 0.23026 0.36912 0.0
C39 C 0.89335 0.14733 0.41893 0.0
C40 C 0.21799 0.41336 0.24905 0.0
N41 N 0.23339 0.3896 0.28218 0.0
C42 C 0.22897 0.40229 0.20803 0.0
C43 C 0.25583 0.36653 0.20102 0.0
C44 C 0.27142 0.34243 0.23495 0.0
C45 C 0.25977 0.35445 0.27552 0.0
C46 C 0.40691 0.49165 0.34698 0.0
C47 C 0.30784 0.41308 0.39545 0.0
C48 C 0.34718 0.46771 0.3323 0.0
N49 N 0.29853 0.43085 0.35701 0.0
C50 C 0.36691 0.43486 0.41081 0.0
C51 C 0.41675 0.47519 0.38657 0.0
C52 C 0.15521 0.37928 0.41989 0.0
C53 C 0.99431 0.42954 0.33486 0.0
C54 C 0.01164 0.36845 0.40054 0.0
C55 C 0.98507 0.40445 0.40819 0.0
C56 C 0.976 0.43483 0.37501 0.0
N57 N 0.02911 0.36323 0.36098 0.0
C58 C 0.02178 0.39413 0.32852 0.0
Co59 Co 0.77043 0.19871 0.68483 0.0
Co60 Co 0.73903 0.05147 0.68173 0.0
O61 O 0.7264 0.11746 0.6591 0.0
C62 C 0.66105 0.21539 0.6947 0.0
O63 O 0.65574 0.19978 0.73424 0.0
C64 C 0.74257 0.044 0.58973 0.0
O65 O 0.78104 0.10322 0.5919 0.0
O66 O 0.82642 0.10033 0.66694 0.0
O67 O 0.8432 0.18864 0.69548 0.0
H68 H 0.84928 0.96861 0.7657 0.0
H69 H 0.72311 0.18732 0.59851 0.0
O70 O 0.69958 0.21099 0.67144 0.0
H71 H 0.94213 0.34266 0.59044 0.0
H72 H 0.81707 0.41329 0.72339 0.0
H73 H 0.86015 0.2486 0.75505 0.0
H74 H 0.89607 0.29213 0.65734 0.0
H75 H 0.77336 0.32054 0.67861 0.0
O76 O 0.72109 0.01332 0.62361 0.0
H77 H 0.83546 0.04924 0.73314 0.0
H78 H 0.6706 0.91436 0.6759 0.0
H79 H 0.90923 0.34263 0.79611 0.0
H80 H 0.76719 0.23747 0.53096 0.0
H81 H 0.88697 0.42586 0.78085 0.0
H82 H 0.87756 0.31568 0.52662 0.0
O83 O 0.73309 0.15963 0.73806 0.0
H84 H 0.51375 0.93623 0.65108 0.0
H85 H 0.67036 0.99267 0.76035 0.0
H86 H 0.56191 0.92718 0.7785 0.0
H87 H 0.48276 0.89753 0.72348 0.0
H88 H 0.6223 0.00734 0.63517 0.0
H89 H 0.6799 0.83236 0.71116 0.0
H90 H 0.77064 0.85924 0.7554 0.0
O91 O 0.76029 0.08924 0.74046 0.0
C92 C 0.86192 0.15409 0.68063 0.0
C93 C 0.80976 0.95627 0.74621 0.0
C94 C 0.71481 0.87986 0.71549 0.0
N95 N 0.75203 0.98666 0.70277 0.0
C96 C 0.80193 0.00177 0.72731 0.0
C97 C 0.70967 0.9265 0.69575 0.0
C98 C 0.76557 0.89493 0.74048 0.0
C99 C 0.77106 0.22162 0.59688 0.0
N100 N 0.80683 0.23705 0.63186 0.0
C101 C 0.79582 0.2497 0.55854 0.0
C102 C 0.85774 0.29357 0.55612 0.0
C103 C 0.89401 0.30873 0.5919 0.0
C104 C 0.86764 0.27986 0.62972 0.0
C105 C 0.82777 0.3777 0.72911 0.0
C106 C 0.85164 0.28483 0.74633 0.0
C107 C 0.80226 0.32441 0.70461 0.0
N108 N 0.81315 0.27786 0.71388 0.0
C109 C 0.8794 0.33819 0.7704 0.0
C110 C 0.86687 0.3847 0.76189 0.0
C111 C 0.75023 0.12836 0.75879 0.0
C112 C 0.54777 0.94994 0.67549 0.0
C113 C 0.63623 0.9826 0.73658 0.0
C114 C 0.5748 0.94456 0.74696 0.0
C115 C 0.5304 0.92781 0.71606 0.0
N116 N 0.653 0.00425 0.69667 0.0
C117 C 0.60947 0.98959 0.66655 0.0
Co118 Co 0.67206 0.72566 0.01091 0.0
Co119 Co 0.55386 0.75486 0.00939 0.0
O120 O 0.59066 0.70683 0.99013 0.0
C121 C 0.68248 0.72755 0.91894 0.0
O122 O 0.65899 0.76353 0.92033 0.0
C123 C 0.42943 0.65636 0.03235 0.0
O124 O 0.44744 0.64843 0.06914 0.0
O125 O 0.55985 0.73114 0.0671 0.0
O126 O 0.65569 0.74896 0.06893 0.0
H127 H 0.53 0.88743 0.1151 0.0
H128 H 0.60461 0.60487 0.96729 0.0
O129 O 0.69126 0.70658 0.95314 0.0
H130 H 0.63375 0.55731 0.11217 0.0
H131 H 0.84413 0.68235 0.03183 0.0
H132 H 0.77101 0.82662 0.06025 0.0
H133 H 0.66715 0.6634 0.09144 0.0
H134 H 0.74631 0.66423 1.00229 0.0
O135 O 0.46859 0.6816 1.00295 0.0
H136 H 0.583 0.84118 0.0798 0.0
H137 H 0.45037 0.77373 0.98284 0.0
H138 H 0.87036 0.84795 0.08867 0.0
H139 H 0.57678 0.49914 0.98582 0.0
H140 H 0.90735 0.77516 0.07476 0.0
H141 H 0.58994 0.47453 0.05888 0.0
O142 O 0.70858 0.81226 0.99379 0.0
H143 H 0.50363 0.7152 0.8564 0.0
H144 H 0.59119 0.87389 0.9662 0.0
H145 H 0.5877 0.90411 0.89337 0.0
H146 H 0.54342 0.82445 0.83789 0.0
H147 H 0.50895 0.68707 0.92963 0.0
H148 H 0.39685 0.82127 0.01632 0.0
H149 H 0.43421 0.87423 0.0852 0.0
O150 O 0.63527 0.82994 0.01617 0.0
C151 C 0.60862 0.74512 0.08706 0.0
C152 C 0.51222 0.86269 0.08604 0.0
C153 C 0.43766 0.8258 0.03057 0.0
N154 N 0.5182 0.80213 0.03034 0.0
C155 C 0.54185 0.83598 0.06597 0.0
C156 C 0.46821 0.79901 0.01164 0.0
C157 C 0.45881 0.85595 0.06879 0.0
C158 C 0.61165 0.59495 0.999 0.0
N159 N 0.63761 0.64067 0.02814 0.0
C160 C 0.59553 0.53484 0.00935 0.0
C161 C 0.60294 0.521 0.05035 0.0
C162 C 0.62729 0.5674 0.08028 0.0
C163 C 0.64505 0.62738 0.06847 0.0
C164 C 0.82876 0.71465 0.03773 0.0
C165 C 0.78694 0.79501 0.05372 0.0
C166 C 0.77319 0.70443 0.02135 0.0
N167 N 0.75221 0.74362 0.03028 0.0
C168 C 0.84331 0.80736 0.06991 0.0
C169 C 0.86408 0.76659 0.06204 0.0
C170 C 0.6897 0.84807 1.00473 0.0
C171 C 0.52286 0.7503 0.88032 0.0
C172 C 0.57227 0.83895 0.94223 0.0
C173 C 0.5702 0.85635 0.90105 0.0
C174 C 0.54529 0.81162 0.86994 0.0
N175 N 0.55005 0.77866 0.95219 0.0
C176 C 0.52569 0.7346 0.92185 0.0
Co177 Co 0.77856 0.54974 0.35382 0.0
Co178 Co 0.91873 0.66982 0.33248 0.0
O179 O 0.85233 0.58482 0.31858 0.0
C180 C 0.78475 0.43522 0.3284 0.0
O181 O 0.82894 0.46245 0.3009 0.0
C182 C 0.91605 0.66586 0.23918 0.0
O183 O 0.85651 0.63002 0.24074 0.0
O184 O 0.86251 0.69927 0.31767 0.0
O185 O 0.78548 0.63255 0.35807 0.0
H186 H 0.00072 0.87815 0.3971 0.0
H187 H 0.77309 0.50461 0.26621 0.0
O188 O 0.76721 0.46558 0.35032 0.0
H189 H 0.60472 0.54818 0.27623 0.0
H190 H 0.59612 0.38136 0.42953 0.0
H191 H 0.74103 0.6029 0.42393 0.0
H192 H 0.67148 0.56516 0.33679 0.0
H193 H 0.66441 0.42554 0.36888 0.0
O194 O 0.94773 0.68332 0.27273 0.0
H195 H 0.9209 0.7744 0.37631 0.0
H196 H 0.05301 0.74547 0.31484 0.0
H197 H 0.66601 0.56145 0.48008 0.0
H198 H 0.70545 0.4837 0.20579 0.0
H199 H 0.59373 0.44941 0.48415 0.0
H200 H 0.62042 0.50575 0.21039 0.0
O201 O 0.83195 0.56432 0.40183 0.0
H202 H 0.0324 0.55871 0.30304 0.0
H203 H 0.99793 0.68317 0.40625 0.0
H204 H 0.06996 0.64745 0.42278 0.0
H205 H 0.08832 0.58537 0.37069 0.0
H206 H 0.95701 0.59106 0.28919 0.0
H207 H 0.13468 0.84709 0.33824 0.0
H208 H 0.10902 0.915 0.37838 0.0
O209 O 0.89287 0.6634 0.39353 0.0
C210 C 0.81171 0.68092 0.33585 0.0
C211 C 0.01267 0.84929 0.37918 0.0
C212 C 0.08776 0.83216 0.34555 0.0
N213 N 0.98224 0.75334 0.3449 0.0
C214 C 0.96757 0.79045 0.36715 0.0
C215 C 0.0413 0.77428 0.33296 0.0
C216 C 0.07331 0.86998 0.36859 0.0
C217 C 0.73513 0.51215 0.26926 0.0
N218 N 0.72517 0.53372 0.30583 0.0
C219 C 0.69733 0.50107 0.23458 0.0
C220 C 0.64972 0.51353 0.23714 0.0
C221 C 0.64065 0.53698 0.27414 0.0
C222 C 0.67877 0.54653 0.30838 0.0
C223 C 0.62622 0.43038 0.42719 0.0
C224 C 0.70789 0.55465 0.42319 0.0
C225 C 0.66669 0.45577 0.39354 0.0
N226 N 0.70902 0.51709 0.3926 0.0
C227 C 0.66574 0.53125 0.4559 0.0
C228 C 0.62533 0.4685 0.45823 0.0
C229 C 0.86357 0.61712 0.4173 0.0
C230 C 0.02406 0.58476 0.32628 0.0
C231 C 0.00392 0.65437 0.38401 0.0
C232 C 0.04539 0.63489 0.39337 0.0
C233 C 0.05573 0.60015 0.36412 0.0
N234 N 0.9731 0.63912 0.34674 0.0
C235 C 0.9819 0.60382 0.3184 0.0
Co236 Co 0.22017 0.78142 0.68913 0.0
Co237 Co 0.26794 0.93143 0.67446 0.0
O238 O 0.2693 0.85697 0.65722 0.0
C239 C 0.33705 0.77782 0.691 0.0
O240 O 0.36255 0.82439 0.71694 0.0
C241 C 0.26023 0.92976 0.58173 0.0
O242 O 0.21929 0.8714 0.58546 0.0
O243 O 0.17931 0.88834 0.66212 0.0
O244 O 0.15506 0.8034 0.69877 0.0
H245 H 0.18186 0.04492 0.75082 0.0
H246 H 0.25761 0.77386 0.60244 0.0
O247 O 0.28274 0.75724 0.67781 0.0
H248 H 0.03348 0.64006 0.60501 0.0
H249 H 0.15076 0.56597 0.74099 0.0
H250 H 0.14036 0.75305 0.7637 0.0
H251 H 0.0894 0.69509 0.66845 0.0
H252 H 0.20238 0.65336 0.69159 0.0
O253 O 0.28504 0.96169 0.61462 0.0
H254 H 0.18138 0.95347 0.72331 0.0
H255 H 0.34961 0.06628 0.6608 0.0
H256 H 0.0859 0.66599 0.81098 0.0
H257 H 0.2034 0.7193 0.5381 0.0
H258 H 0.09113 0.57143 0.79983 0.0
H259 H 0.09047 0.65184 0.53917 0.0
O260 O 0.26381 0.82477 0.73986 0.0
H261 H 0.48813 0.0143 0.6366 0.0
H262 H 0.34697 0.99784 0.74851 0.0
H263 H 0.45776 0.05439 0.76179 0.0
H264 H 0.52943 0.06421 0.70527 0.0
H265 H 0.37684 0.95309 0.62592 0.0
H266 H 0.3561 0.15821 0.69276 0.0
H267 H 0.27016 0.14831 0.73607 0.0
O268 O 0.249 0.90387 0.73518 0.0
C269 C 0.14042 0.83802 0.67903 0.0
C270 C 0.21903 0.04999 0.73128 0.0
C271 C 0.31634 0.11365 0.69816 0.0
N272 N 0.2656 0.00438 0.69063 0.0
C273 C 0.21868 -0.00163 0.71517 0.0
C274 C 0.31284 0.06129 0.68067 0.0
C275 C 0.26861 0.10797 0.72305 0.0
C276 C 0.20851 0.74433 0.60311 0.0
N277 N 0.17675 0.73766 0.63912 0.0
C278 C 0.17805 0.71364 0.56661 0.0
C279 C 0.11468 0.67584 0.56721 0.0
C280 C 0.08266 0.66916 0.60412 0.0
C281 C 0.11463 0.70053 0.63998 0.0
C282 C 0.14743 0.60665 0.745 0.0
C283 C 0.1416 0.71179 0.75719 0.0
C284 C 0.17677 0.65646 0.71751 0.0
N285 N 0.17359 0.7084 0.7237 0.0
C286 C 0.11098 0.66261 0.78468 0.0
C287 C 0.11403 0.60971 0.77849 0.0
C288 C 0.25722 0.86618 0.75692 0.0
C289 C 0.45741 0.00974 0.66166 0.0
C290 C 0.37748 -0.00058 0.7243 0.0
C291 C 0.44037 0.0324 0.73185 0.0
C292 C 0.48055 0.03799 0.70012 0.0
N293 N 0.35512 0.97209 0.68635 0.0
C294 C 0.39425 0.97564 0.65563 0.0
Co295 Co 0.33275 0.28747 0.01962 0.0
Co296 Co 0.42238 0.22118 0.01793 0.0
O297 O 0.40194 0.28134 0.99644 0.0
C298 C 0.31446 0.27653 0.92839 0.0
O299 O 0.3252 0.231 0.9321 0.0
C300 C 0.55153 0.32668 0.0287 0.0
O301 O 0.53513 0.34873 0.06006 0.0
O302 O 0.42892 0.25358 0.07436 0.0
O303 O 0.34728 0.2656 0.07825 0.0
H304 H 0.40183 0.06374 0.12264 0.0
H305 H 0.41839 0.39349 0.96708 0.0
O306 O 0.31452 0.30584 0.96117 0.0
H307 H 0.42757 0.47948 0.1072 0.0
H308 H 0.21424 0.39543 0.04444 0.0
H309 H 0.23152 0.21428 0.07908 0.0
H310 H 0.36616 0.36823 0.09512 0.0
H311 H 0.28914 0.37654 0.00806 0.0
O312 O 0.51185 0.28003 0.00829 0.0
H313 H 0.3738 0.13318 0.08828 0.0
H314 H 0.51581 0.18439 0.99926 0.0
H315 H 0.1541 0.22995 0.11484 0.0
H316 H 0.47516 0.50541 0.97698 0.0
H317 H 0.14648 0.32212 0.09849 0.0
H318 H 0.481 0.54922 0.04758 0.0
O319 O 0.2753 0.19942 0.00888 0.0
H320 H 0.4682 0.23718 0.8641 0.0
H321 H 0.35684 0.09577 0.98004 0.0
H322 H 0.34496 0.0552 0.90835 0.0
H323 H 0.40227 0.12578 0.84998 0.0
H324 H 0.47408 0.27668 0.93554 0.0
H325 H 0.54633 0.11593 0.03411 0.0
H326 H 0.48954 0.0557 0.09591 0.0
O327 O 0.33396 0.15992 0.02727 0.0
C328 C 0.38935 0.25883 0.09519 0.0
C329 C 0.42688 0.0897 0.09542 0.0
C330 C 0.50815 0.11939 0.04563 0.0
N331 N 0.44259 0.16236 0.04124 0.0
C332 C 0.41091 0.12885 0.07547 0.0
C333 C 0.49052 0.15772 0.02609 0.0
C334 C 0.47613 0.08533 0.08049 0.0
C335 C 0.41977 0.412 0.99778 0.0
N336 N 0.38841 0.37407 0.03032 0.0
C337 C 0.45231 0.47551 1.00326 0.0
C338 C 0.45542 0.50007 0.04285 0.0
C339 C 0.42566 0.46097 0.07632 0.0
C340 C 0.39179 0.39776 0.0694 0.0
C341 C 0.21754 0.3554 0.0521 0.0
C342 C 0.22732 0.25358 0.07094 0.0
C343 C 0.2596 0.34425 0.03141 0.0
N344 N 0.26543 0.29492 0.04192 0.0
C345 C 0.18364 0.26241 0.0915 0.0
C346 C 0.17937 0.31413 0.08234 0.0
C347 C 0.28246 0.15464 0.01846 0.0
C348 C 0.44334 0.20587 0.88933 0.0
C349 C 0.38067 0.12712 0.95466 0.0
C350 C 0.37437 0.10371 0.91421 0.0
C351 C 0.40635 0.14337 0.88143 0.0
N352 N 0.41614 0.18865 0.96201 0.0
C353 C 0.44698 0.22792 0.92993 0.0
Co354 Co 0.5443 0.779 0.32611 0.0
Co355 Co 0.67369 0.91872 0.33228 0.0
O356 O 0.58856 0.862 0.34973 0.0
C357 C 0.42481 0.76645 0.30246 0.0
O358 O 0.44416 0.78153 0.26386 0.0
C359 C 0.67797 0.92486 0.42504 0.0
O360 O 0.64983 0.86474 0.42372 0.0
O361 O 0.69746 0.85902 0.35066 0.0
O362 O 0.62128 0.7752 0.32081 0.0
H363 H 0.87245 0.97344 0.26247 0.0
H364 H 0.50267 0.80226 0.40695 0.0
O365 O 0.46392 0.77808 0.33163 0.0
H366 H 0.54426 0.63436 0.43482 0.0
H367 H 0.3608 0.57393 0.30145 0.0
H368 H 0.5694 0.71849 0.2549 0.0
H369 H 0.56003 0.6797 0.3644 0.0
H370 H 0.42732 0.66364 0.34385 0.0
O371 O 0.69181 0.95526 0.39074 0.0
H372 H 0.76809 0.9038 0.28779 0.0
H373 H 0.76128 0.05331 0.34307 0.0
H374 H 0.50736 0.62419 0.21436 0.0
H375 H 0.48588 0.75794 0.4779 0.0
H376 H 0.40064 0.5515 0.23666 0.0
H377 H 0.50678 0.67339 0.49216 0.0
O378 O 0.55832 0.81621 0.27013 0.0
H379 H 0.59627 0.06509 0.35357 0.0
H380 H 0.68767 0.98674 0.25273 0.0
H381 H 0.66779 0.06879 0.23129 0.0
H382 H 0.62295 0.10953 0.28221 0.0
H383 H 0.61145 0.97897 0.37255 0.0
H384 H 0.86455 0.12498 0.31591 0.0
H385 H 0.92117 0.0853 0.27618 0.0
O386 O 0.65845 0.88175 0.27336 0.0
C387 C 0.67461 0.80487 0.33662 0.0
C388 C 0.84835 0.99144 0.28001 0.0
C389 C 0.84405 0.07638 0.31049 0.0
N390 N 0.75801 0.97445 0.31627 0.0
C391 C 0.78915 0.95216 0.2945 0.0
C392 C 0.7854 0.03559 0.32536 0.0
C393 C 0.87569 0.05409 0.28778 0.0
C394 C 0.51155 0.76528 0.41294 0.0
N395 N 0.53211 0.74352 0.38159 0.0
C396 C 0.50213 0.74048 0.45316 0.0
C397 C 0.51394 0.69309 0.46116 0.0
C398 C 0.53504 0.67122 0.42902 0.0
C399 C 0.54406 0.69723 0.38922 0.0
C400 C 0.40714 0.60385 0.29156 0.0
C401 C 0.52417 0.68614 0.26574 0.0
C402 C 0.44468 0.65573 0.31514 0.0
N403 N 0.5009 0.69816 0.30071 0.0
C404 C 0.48904 0.63281 0.24247 0.0
C405 C 0.4294 0.59206 0.25502 0.0
C406 C 0.61019 0.84557 0.25255 0.0
C407 C 0.61494 0.04707 0.33094 0.0
C408 C 0.66548 0.00203 0.2745 0.0
C409 C 0.65521 0.04928 0.26234 0.0
C410 C 0.63026 0.07225 0.29094 0.0
N411 N 0.65061 0.97776 0.31391 0.0
C412 C 0.62414 -0.00138 0.34162 0.0
Co413 Co 0.7888 0.56277 0.6595 0.0
Co414 Co 0.75857 0.67965 0.6627 0.0
O415 O 0.74267 0.5988 0.68291 0.0
C416 C 0.68495 0.43775 0.63895 0.0
O417 O 0.69559 0.45186 0.59916 0.0
C418 C 0.75587 0.68353 0.75458 0.0
O419 O 0.79409 0.66284 0.75234 0.0
O420 O 0.84445 0.71681 0.6806 0.0
O421 O 0.86412 0.64624 0.65395 0.0
H422 H 0.87765 0.87916 0.58586 0.0
H423 H 0.728 0.51686 0.74144 0.0
O424 O 0.71461 0.47876 0.66658 0.0
H425 H 0.94478 0.58183 0.76547 0.0
H426 H 0.84576 0.39968 0.63359 0.0
H427 H 0.88376 0.60388 0.59287 0.0
H428 H 0.90945 0.59309 0.6959 0.0
H429 H 0.79038 0.44498 0.66843 0.0
O430 O 0.7368 0.69559 0.7207 0.0
H431 H 0.86056 0.78276 0.61723 0.0
H432 H 0.69082 0.7487 0.66716 0.0
H433 H 0.94023 0.561 0.55818 0.0
H434 H 0.7612 0.50379 0.81143 0.0
H435 H 0.92148 0.45796 0.57854 0.0
H436 H 0.87033 0.53657 0.82379 0.0
O437 O 0.76001 0.56989 0.60427 0.0
H438 H 0.53202 0.57218 0.68583 0.0
H439 H 0.69622 0.6748 0.58189 0.0
H440 H 0.58955 0.63554 0.56049 0.0
H441 H 0.50643 0.58503 0.61294 0.0
H442 H 0.63835 0.6054 0.70478 0.0
H443 H 0.70318 0.84147 0.63205 0.0
H444 H 0.79794 0.90857 0.59251 0.0
O445 O 0.78406 0.66725 0.60455 0.0
C446 C 0.88119 0.69949 0.6687 0.0
C447 C 0.83642 0.85074 0.60356 0.0
C448 C 0.7388 0.82987 0.62991 0.0
N449 N 0.77445 0.75963 0.64383 0.0
C450 C 0.82669 0.79626 0.62181 0.0
C451 C 0.73178 0.77703 0.64929 0.0
C452 C 0.79176 0.86723 0.6073 0.0
C453 C 0.77547 0.53081 0.74655 0.0
N454 N 0.81662 0.55543 0.71459 0.0
C455 C 0.79404 0.52348 0.78625 0.0
C456 C 0.85529 0.54193 0.79318 0.0
C457 C 0.89709 0.56738 0.76048 0.0
C458 C 0.87682 0.57381 0.72117 0.0
C459 C 0.85462 0.44483 0.62505 0.0
C460 C 0.87554 0.55948 0.60268 0.0
C461 C 0.82349 0.4707 0.64467 0.0
N462 N 0.83399 0.52741 0.63347 0.0
C463 C 0.90768 0.53525 0.58258 0.0
C464 C 0.89712 0.47751 0.59394 0.0
C465 C 0.7773 0.61985 0.58528 0.0
C466 C 0.56753 0.59278 0.66248 0.0
C467 C 0.6603 0.65003 0.60443 0.0
C468 C 0.5999 0.6288 0.59224 0.0
C469 C 0.55333 0.60058 0.62166 0.0
N470 N 0.67389 0.64247 0.64467 0.0
C471 C 0.62813 0.61261 0.6732 0.0
Co472 Co 0.07878 0.76876 0.99469 0.0
Co473 Co 0.2322 0.83633 0.01616 0.0
O474 O 0.14763 0.77173 0.02556 0.0
C475 C 0.04713 0.76659 0.08324 0.0
O476 O 0.10182 0.81516 0.08631 0.0
C477 C 0.24706 0.72634 0.00816 0.0
O478 O 0.20628 0.70602 0.978 0.0
O479 O 0.22303 0.81579 0.95628 0.0
O480 O 0.12893 0.79869 0.94144 0.0
H481 H 0.3994 0.00517 0.93155 0.0
H482 H 0.05645 0.65759 0.04133 0.0
O483 O 0.02858 0.74 0.04782 0.0
H484 H 0.00187 0.59144 0.89466 0.0
H485 H 0.85715 0.67384 0.95447 0.0
H486 H 0.0648 0.84958 0.93363 0.0
H487 H 0.04361 0.69968 0.91438 0.0
H488 H 0.94464 0.6804 0.99308 0.0
O489 O 0.26134 0.77653 0.02688 0.0
H490 H 0.2929 0.92862 0.94896 0.0
H491 H 0.35176 0.88175 0.06013 0.0
H492 H 0.9784 0.84528 0.89486 0.0
H493 H 0.01281 0.54859 0.02325 0.0
H494 H 0.87362 0.75678 0.90509 0.0
H495 H 0.98407 0.51463 0.94943 0.0
O496 O 0.10521 0.85484 0.00977 0.0
H497 H 0.21721 0.78818 0.16967 0.0
H498 H 0.27867 0.95261 0.06512 0.0
H499 H 0.29276 0.97876 0.14014 0.0
H500 H 0.26399 0.89655 0.19281 0.0
H501 H 0.20278 0.7638 0.09425 0.0
H502 H 0.45869 0.9629 0.04558 0.0
H503 H 0.48272 0.02271 0.9803 0.0
O504 O 0.20714 0.89836 1.00549 0.0
C505 C 0.18241 0.81033 0.93041 0.0
C506 C 0.38913 0.97898 0.96016 0.0
C507 C 0.4224 0.95451 0.02401 0.0
N508 N 0.31611 0.90005 1.00541 0.0
C509 C 0.32902 0.93497 0.97004 0.0
C510 C 0.36197 0.90932 0.03223 0.0
C511 C 0.43599 0.98871 0.98742 0.0
C512 C 0.04456 0.64325 0.00916 0.0
N513 N 0.05207 0.68482 0.97904 0.0
C514 C 0.02005 0.58145 0.99904 0.0
C515 C 0.00415 0.56251 0.95767 0.0
C516 C 0.01389 0.60556 0.9269 0.0
C517 C 0.03805 0.6669 0.93822 0.0
C518 C 0.90252 0.71264 0.94975 0.0
C519 C 0.01935 0.81094 0.93827 0.0
C520 C 0.95224 0.71662 0.97156 0.0
N521 N 0.00986 0.765 0.96529 0.0
C522 C 0.97059 0.80879 0.91626 0.0
C523 C 0.91182 0.75916 0.92202 0.0
C524 C 0.15855 0.90132 0.00782 0.0
C525 C 0.23068 0.8245 0.14691 0.0
C526 C 0.26452 0.91629 0.0879 0.0
C527 C 0.27303 0.93148 0.13033 0.0
C528 C 0.2565 0.88526 0.15992 0.0
N529 N 0.24051 0.85671 0.07529 0.0
C530 C 0.22284 0.811 0.10419 0.0
Co531 Co 0.43179 0.22849 0.34854 0.0
Co532 Co 0.34209 0.07326 0.32839 0.0
O533 O 0.41079 0.14364 0.35645 0.0
C534 C 0.54874 0.2355 0.32226 0.0
O535 O 0.5186 0.19228 0.29445 0.0
C536 C 0.31979 0.05267 0.41888 0.0
O537 O 0.33298 0.11003 0.4195 0.0
O538 O 0.28419 0.10268 0.34107 0.0
O539 O 0.34397 0.20443 0.3512 0.0
H540 H 0.16947 0.96634 0.22605 0.0
H541 H 0.49219 0.19868 0.41665 0.0
O542 O 0.52085 0.25403 0.34608 0.0
H543 H 0.39251 0.30031 0.48572 0.0
H544 H 0.56551 0.45777 0.35731 0.0
H545 H 0.37685 0.28706 0.29788 0.0
H546 H 0.38467 0.28427 0.40931 0.0
H547 H 0.53199 0.35001 0.3761 0.0
O548 O 0.32021 0.02789 0.38396 0.0
H549 H 0.24609 0.05437 0.2668 0.0
H550 H 0.296 0.93926 0.33164 0.0
H551 H 0.40857 0.39312 0.27774 0.0
H552 H 0.50169 0.21426 0.49317 0.0
H553 H 0.50492 0.47904 0.30636 0.0
H554 H 0.45152 0.26532 0.52816 0.0
O555 O 0.42572 0.21811 0.2878 0.0
H556 H 0.48687 -0.00172 0.36296 0.0
H557 H 0.37697 0.03505 0.24971 0.0
H558 H 0.44049 0.98939 0.23291 0.0
H559 H 0.49444 0.96883 0.2899 0.0
H560 H 0.42626 0.04766 0.37796 0.0
H561 H 0.22141 0.85011 0.29047 0.0
H562 H 0.15727 0.86307 0.23748 0.0
O563 O 0.36083 0.11895 0.27327 0.0
C564 C 0.29198 0.15579 0.34811 0.0
C565 C 0.19673 0.95977 0.24929 0.0
C566 C 0.22617 0.89471 0.28532 0.0
N567 N 0.27574 0.00209 0.30133 0.0
C568 C 0.24012 0.00955 0.27255 0.0
C569 C 0.26804 0.94526 0.3087 0.0
C570 C 0.18998 0.90202 0.25566 0.0
C571 C 0.47055 0.22122 0.43169 0.0
N572 N 0.4381 0.2407 0.4086 0.0
C573 C 0.47594 0.22978 0.475 0.0
C574 C 0.44773 0.25839 0.49462 0.0
C575 C 0.41457 0.27799 0.47084 0.0
C576 C 0.41018 0.26866 0.4276 0.0
C577 C 0.52399 0.42042 0.34434 0.0
C578 C 0.41774 0.3243 0.31164 0.0
C579 C 0.50472 0.35978 0.35526 0.0
N580 N 0.45254 0.31267 0.33877 0.0
C581 C 0.43577 0.38425 0.29972 0.0
C582 C 0.48973 0.43245 0.31584 0.0
C583 C 0.39425 0.1751 0.26237 0.0
C584 C 0.46384 0.00722 0.33777 0.0
C585 C 0.40234 0.02871 0.27449 0.0
C586 C 0.43767 0.0021 0.26483 0.0
C587 C 0.46798 0.99065 0.29682 0.0
N588 N 0.3976 0.04378 0.31487 0.0
C589 C 0.42902 0.03477 0.34616 0.0
Co590 Co 0.19879 0.43721 0.66935 0.0
Co591 Co 0.24861 0.33491 0.67114 0.0
O592 O 0.25211 0.40954 0.69285 0.0
C593 C 0.31918 0.55417 0.66544 0.0
O594 O 0.34083 0.52969 0.63926 0.0
C595 C 0.24687 0.32431 0.76323 0.0
O596 O 0.20453 0.33976 0.76182 0.0
O597 O 0.16128 0.28686 0.68608 0.0
O598 O 0.13106 0.35042 0.6608 0.0
H599 H 0.15744 0.14119 0.58653 0.0
H600 H 0.25357 0.4814 0.75325 0.0
O601 O 0.26462 0.52382 0.67902 0.0
H602 H 0.03134 0.39002 0.77317 0.0
H603 H 0.11608 0.58062 0.6486 0.0
H604 H 0.10976 0.39285 0.59901 0.0
H605 H 0.07348 0.3906 0.70357 0.0
H606 H 0.18087 0.54455 0.68179 0.0
O607 O 0.27008 0.3188 0.72905 0.0
H608 H 0.15857 0.2291 0.62086 0.0
H609 H 0.33088 0.28158 0.67592 0.0
H610 H 0.04552 0.42756 0.56479 0.0
H611 H 0.21345 0.48242 0.82342 0.0
H612 H 0.04792 0.52189 0.58991 0.0
H613 H 0.10153 0.43636 0.83371 0.0
O614 O 0.23159 0.43899 0.61358 0.0
H615 H 0.47137 0.46895 0.70337 0.0
H616 H 0.32115 0.35342 0.59287 0.0
H617 H 0.43086 0.40677 0.57611 0.0
H618 H 0.50705 0.46325 0.63189 0.0
H619 H 0.36133 0.41973 0.71782 0.0
H620 H 0.33554 0.19989 0.63672 0.0
H621 H 0.24718 0.1268 0.59368 0.0
O622 O 0.22483 0.34756 0.61281 0.0
C623 C 0.12014 0.29839 0.67444 0.0
C624 C 0.19578 0.17189 0.60598 0.0
C625 C 0.29522 0.20409 0.63488 0.0
N626 N 0.24489 0.26079 0.6503 0.0
C627 C 0.19638 0.22141 0.62597 0.0
C628 C 0.29275 0.251 0.65634 0.0
C629 C 0.24603 0.16376 0.61006 0.0
C630 C 0.2049 0.46172 0.75747 0.0
N631 N 0.166 0.43621 0.72435 0.0
C632 C 0.1824 0.46222 0.79728 0.0
C633 C 0.1196 0.43633 0.80304 0.0
C634 C 0.0802 0.41032 0.7691 0.0
C635 C 0.10435 0.41067 0.72976 0.0
C636 C 0.11416 0.53905 0.63801 0.0
C637 C 0.11066 0.43342 0.61075 0.0
C638 C 0.15023 0.5182 0.65692 0.0
N639 N 0.14741 0.46539 0.64378 0.0
C640 C 0.0743 0.45306 0.59095 0.0
C641 C 0.07583 0.50606 0.60493 0.0
C642 C 0.22675 0.39319 0.59401 0.0
C643 C 0.43877 0.44503 0.67862 0.0
C644 C 0.35374 0.38046 0.61686 0.0
C645 C 0.41596 0.40985 0.60729 0.0
C646 C 0.45868 0.4416 0.6386 0.0
N647 N 0.3346 0.38301 0.65646 0.0
C648 C 0.37623 0.41638 0.68678 0.0
Co649 Co 0.9131 0.23244 1.00637 0.0
Co650 Co 0.76424 0.19418 0.99721 0.0
O651 O 0.84342 0.24197 0.02549 0.0
C652 C 0.9156 0.22742 0.09873 0.0
O653 O 0.85663 0.18881 0.09592 0.0
C654 C 0.76746 0.31466 0.01896 0.0
O655 O 0.81748 0.33867 0.04167 0.0
O656 O 0.80568 0.23203 0.94515 0.0
O657 O 0.88076 0.21133 0.9463 0.0
H658 H 0.63457 0.05687 0.88029 0.0
H659 H 0.94305 0.3466 0.05146 0.0
O660 O 0.94671 0.25067 0.06536 0.0
H661 H 0.04985 0.41361 0.91605 0.0
H662 H 0.13448 0.29097 0.99406 0.0
H663 H 0.92307 0.14035 0.95477 0.0
H664 H 0.98234 0.30374 0.93113 0.0
H665 H 0.04846 0.30098 0.02115 0.0
O666 O 0.74562 0.26189 1.00246 0.0
H667 H 0.72516 0.10782 0.92518 0.0
H668 H 0.63989 0.18305 0.9998 0.0
H669 H 0.00749 0.12715 0.92933 0.0
H670 H 0.0123 0.45663 0.0385 0.0
H671 H 0.11441 0.20333 0.94881 0.0
H672 H 0.06724 0.49082 0.97057 0.0
O673 O 0.86668 0.14515 0.02075 0.0
H674 H 0.71825 0.19569 0.15038 0.0
H675 H 0.67016 0.06825 0.0236 0.0
H676 H 0.61676 0.02095 0.08945 0.0
H677 H 0.64055 0.08482 0.15348 0.0
H678 H 0.77062 0.24099 0.08388 0.0
H679 H 0.54944 0.13519 0.95355 0.0
H680 H 0.54583 0.07089 0.89409 0.0
O681 O 0.77825 0.1231 0.99029 0.0
C682 C 0.84202 0.21993 0.92624 0.0
C683 C 0.63527 0.08436 0.90653 0.0
C684 C 0.58766 0.12841 0.94778 0.0
N685 N 0.68827 0.14835 0.96566 0.0
C686 C 0.68648 0.11309 0.93251 0.0
C687 C 0.63922 0.15559 0.97367 0.0
C688 C 0.58565 0.09236 0.91419 0.0
C689 C 0.9663 0.36111 0.02173 0.0
N690 N 0.95912 0.3188 0.9923 0.0
C691 C 0.00531 0.42356 0.01446 0.0
C692 C 0.03604 0.44263 0.97638 0.0
C693 C 0.02644 0.39932 0.9458 0.0
C694 C 0.98758 0.33719 0.95436 0.0
C695 C 0.08815 0.25719 0.98619 0.0
C696 C 0.96928 0.17324 0.964 0.0
C697 C 0.03926 0.2628 1.00105 0.0
N698 N 0.98077 0.22179 0.98912 0.0
C699 C 0.01695 0.16552 0.94937 0.0
C700 C 0.07684 0.20813 0.96037 0.0
C701 C 0.81449 0.1075 1.00626 0.0
C702 C 0.70704 0.1675 0.12259 0.0
C703 C 0.68046 0.09661 0.05116 0.0
C704 C 0.65015 0.06944 0.08844 0.0
C705 C 0.66356 0.10527 0.12435 0.0
N706 N 0.72265 0.15786 0.04952 0.0
C707 C 0.73632 0.1931 0.0847 0.0
C708 C 0.29142 0.63894 0.36051 0.0
C709 C 0.26294 0.59483 0.32879 0.0
C710 C 0.33958 0.69826 0.35119 0.0
C711 C 0.3608 0.71548 0.30981 0.0
H712 H 0.28037 0.62597 0.39302 0.0
H713 H 0.36406 0.72873 0.37697 0.0
S714 S 0.29107 0.61963 0.21503 0.0
N715 N 0.2517 0.57475 0.25433 0.0
N716 N 0.34103 0.68591 0.23626 0.0
C717 C 0.32678 0.67397 0.27746 0.0
C718 C 0.27835 0.61351 0.28714 0.0
C719 C 0.64372 0.30238 0.70916 0.0
C720 C 0.6416 0.2589 0.68063 0.0
C721 C 0.65066 0.35819 0.69515 0.0
C722 C 0.65546 0.37239 0.65214 0.0
H723 H 0.64683 0.29645 0.74247 0.0
H724 H 0.65791 0.3925 0.71837 0.0
S725 S 0.63435 0.26586 0.56508 0.0
N726 N 0.63148 0.2278 0.60784 0.0
N727 N 0.64372 0.33221 0.58127 0.0
C728 C 0.64425 0.32544 0.62343 0.0
C729 C 0.63757 0.26878 0.63777 0.0
C730 C 0.34336 0.65175 0.99032 0.0
C731 C 0.37199 0.65882 0.02939 0.0
C732 C 0.29918 0.6693 0.98438 0.0
C733 C 0.28302 0.69582 0.01707 0.0
H734 H 0.35779 0.63586 0.96356 0.0
H735 H 0.2809 0.66611 0.95323 0.0
S736 S 0.34113 0.72073 0.12597 0.0
N737 N 0.37718 0.69008 0.10209 0.0
N738 N 0.29552 0.72406 0.09049 0.0
C739 C 0.30833 0.69952 0.05685 0.0
C740 C 0.35235 0.68061 0.06316 0.0
C741 C 0.64659 0.29218 0.36124 0.0
C742 C 0.61636 0.27008 0.32283 0.0
C743 C 0.70741 0.33999 0.36273 0.0
C744 C 0.73948 0.36892 0.32588 0.0
H745 H 0.62158 0.2759 0.39035 0.0
H746 H 0.7267 0.35964 0.39299 0.0
S747 S 0.68487 0.31935 0.21745 0.0
N748 N 0.62639 0.27252 0.24714 0.0
N749 N 0.74005 0.36474 0.24995 0.0
C750 C 0.71246 0.34196 0.28736 0.0
C751 C 0.65069 0.29212 0.28583 0.0
C752 C 0.36463 0.71661 0.6453 0.0
C753 C 0.36167 0.73661 0.68586 0.0
C754 C 0.36028 0.65956 0.63884 0.0
C755 C 0.3513 0.62058 0.67277 0.0
H756 H 0.36382 0.74221 0.61832 0.0
H757 H 0.35631 0.64294 0.60707 0.0
S758 S 0.34935 0.65565 0.78508 0.0
N759 N 0.35784 0.71699 0.76042 0.0
N760 N 0.34759 0.60882 0.74825 0.0
C761 C 0.3549 0.64293 0.71352 0.0
C762 C 0.36071 0.70146 0.72011 0.0
C763 C 0.71024 0.3582 0.05531 0.0
C764 C 0.72696 0.34105 0.01794 0.0
C765 C 0.65581 0.36038 0.05767 0.0
C766 C 0.6166 0.3451 0.02279 0.0
H767 H 0.73581 0.3638 0.08378 0.0
H768 H 0.64161 0.36814 0.08792 0.0
S769 S 0.64713 0.31035 0.91582 0.0
N770 N 0.7057 0.31888 0.94389 0.0
N771 N 0.60384 0.32273 0.94834 0.0
C772 C 0.63676 0.33502 0.98428 0.0
C773 C 0.69192 0.3331 0.98185 0.0
C774 C 0.19216 0.21364 0.38866 0.0
C775 C 0.1634 0.21684 0.35189 0.0
C776 C 0.22945 0.18749 0.38831 0.0
C777 C 0.23857 0.16343 0.35126 0.0
H778 H 0.19056 0.23679 0.4168 0.0
H779 H 0.25518 0.19058 0.41625 0.0
S780 S 0.17046 0.15731 0.24754 0.0
N781 N 0.1432 0.19055 0.27834 0.0
N782 N 0.21333 0.14084 0.27769 0.0
C783 C 0.20605 0.16167 0.31519 0.0
C784 C 0.16812 0.18846 0.31554 0.0
C785 C 0.9586 0.1884 0.64244 0.0
C786 C 0.92771 0.17825 0.68065 0.0
C787 C 0.02234 0.22486 0.64081 0.0
C788 C 0.05634 0.25044 0.67748 0.0
H789 H 0.93317 0.17188 0.61347 0.0
H790 H 0.04492 0.2355 0.61065 0.0
S791 S 0.99672 0.23307 0.78529 0.0
N792 N 0.93531 0.19357 0.75593 0.0
N793 N 0.05557 0.26057 0.75296 0.0
C794 C 0.02624 0.23738 0.71605 0.0
C795 C 0.96151 0.20147 0.71762 0.0
C796 C 0.78984 0.01088 0.9708 0.0
C797 C 0.79399 0.04259 0.00786 0.0
C798 C 0.75992 0.94677 0.97051 0.0
C799 C 0.7325 0.91361 1.00708 0.0
H800 H 0.8075 0.03564 0.9417 0.0
H801 H 0.75465 0.92308 0.94116 0.0
S802 S 0.73334 0.97633 0.11204 0.0
N803 N 0.77173 0.03734 0.08206 0.0
N804 N 0.71357 0.91653 0.08135 0.0
C805 C 0.73859 0.94513 0.04455 0.0
C806 C 0.76994 0.01006 0.04499 0.0
C807 C 0.74669 0.77853 0.37044 0.0
C808 C 0.71321 0.77712 0.335 0.0
C809 C 0.78058 0.74863 0.37016 0.0
C810 C 0.78334 0.71859 0.334 0.0
H811 H 0.74476 0.80083 0.39891 0.0
H812 H 0.80379 0.74796 0.39849 0.0
S813 S 0.70716 0.70513 0.23259 0.0
N814 N 0.68656 0.745 0.26255 0.0
N815 N 0.75226 0.69059 0.2618 0.0
C816 C 0.75215 0.71884 0.29799 0.0
C817 C 0.71646 0.74781 0.29853 0.0
C818 C 0.0392 0.80187 0.71106 0.0
C819 C 0.07525 0.81606 0.67486 0.0
C820 C 0.97543 0.76688 0.70856 0.0
C821 C 0.94656 0.74363 0.66997 0.0
H822 H 0.06062 0.81559 0.74157 0.0
H823 H 0.94884 0.75489 0.73713 0.0
S824 S 0.02044 0.76961 0.56621 0.0
N825 N 0.0777 0.80712 0.59929 0.0
N826 N 0.95759 0.73906 0.59481 0.0
C827 C 0.98188 0.75918 0.63347 0.0
C828 C 0.04655 0.79619 0.63586 0.0
C829 C 0.21612 0.06306 0.9766 0.0
C830 C 0.23077 0.09215 0.01578 0.0
C831 C 0.18497 -0.001 0.97381 0.0
C832 C 0.16694 0.9628 0.01012 0.0
H833 H 0.23436 0.08977 0.94827 0.0
H834 H 0.18002 0.97791 0.94342 0.0
S835 S 0.18764 0.01738 0.11959 0.0
N836 N 0.22016 0.08063 0.09115 0.0
N837 N 0.15985 0.95993 0.08587 0.0
C838 C 0.17592 0.99133 0.04915 0.0
C839 C 0.20847 0.05639 0.05201 0.0
C840 C 0.01029 0.27092 0.14306 0.0
C841 C 0.9462 0.24188 0.14047 0.0
C842 C 0.04032 0.28303 0.18182 0.0
C843 C 0.00771 0.26745 0.21985 0.0
H844 H 0.03762 0.28374 0.11486 0.0
H845 H 0.08974 0.3052 0.18184 0.0
S846 S 0.83911 0.19135 0.23079 0.0
N847 N 0.8509 0.19806 0.17977 0.0
N848 N 0.90752 0.22173 0.25242 0.0
C849 C 0.94363 0.23908 0.21786 0.0
C850 C 0.91288 0.22604 0.17829 0.0
C851 C 0.70234 0.95086 0.54313 0.0
C852 C 0.72452 0.01405 0.54774 0.0
C853 C 0.68747 0.92273 0.50347 0.0
C854 C 0.69378 0.95641 0.46663 0.0
H855 H 0.69736 0.92301 0.57028 0.0
H856 H 0.67134 0.87406 0.50177 0.0
S857 S 0.74379 0.12218 0.4621 0.0
N858 N 0.74818 0.1088 0.51215 0.0
N859 N 0.72 0.05603 0.43811 0.0
C860 C 0.71448 0.01939 0.47097 0.0
C861 C 0.72985 0.04808 0.51131 0.0
C862 C 0.69018 0.73846 0.84059 0.0
C863 C 0.69977 0.71349 0.87745 0.0
C864 C 0.70733 0.72782 0.80104 0.0
C865 C 0.73546 0.69225 0.79655 0.0
H866 H 0.66946 0.76696 0.84214 0.0
H867 H 0.69917 0.74837 0.77387 0.0
S868 S 0.76623 0.61176 0.88241 0.0
N869 N 0.73595 0.64822 0.90623 0.0
N870 N 0.76866 0.62872 0.83234 0.0
C871 C 0.7441 0.6658 0.83301 0.0
C872 C 0.7262 0.67628 0.87325 0.0
C873 C 0.9659 0.6789 0.12535 0.0
C874 C 0.00946 0.74178 0.12164 0.0
C875 C 0.93461 0.65435 0.16326 0.0
C876 C 0.94636 0.69182 0.19868 0.0
H877 H 0.95723 0.64818 0.09925 0.0
H878 H 0.90244 0.60558 0.16523 0.0
S879 S 0.04604 0.86061 0.20282 0.0
N880 N 0.05571 0.8419 0.15512 0.0
N881 N 0.99788 0.79553 0.22606 0.0
C882 C 0.98728 0.75496 0.1947 0.0
C883 C 0.01856 0.77999 0.15625 0.0
C884 C 0.32621 0.05243 0.49697 0.0
C885 C 0.30599 0.01891 0.45932 0.0
C886 C 0.31208 0.02321 0.53606 0.0
C887 C 0.27642 0.95899 0.53947 0.0
H888 H 0.35328 0.10204 0.49638 0.0
H889 H 0.3286 0.05152 0.56386 0.0
S890 S 0.2121 0.84965 0.45032 0.0
N891 N 0.24893 0.91777 0.42787 0.0
N892 N 0.22167 0.86249 0.5012 0.0
C893 C 0.25624 0.92468 0.50199 0.0
C894 C 0.27125 0.95464 0.46203 0.0
C895 C 0.26509 0.31971 0.88167 0.0
C896 C 0.30081 0.29175 0.88613 0.0
C897 C 0.24828 0.3302 0.84189 0.0
C898 C 0.26715 0.31397 0.80481 0.0
H899 H 0.24865 0.33219 0.90911 0.0
H900 H 0.21994 0.35106 0.84032 0.0
S901 S 0.36521 0.24356 0.79936 0.0
N902 N 0.35688 0.25056 0.8499 0.0
N903 N 0.3262 0.27107 0.77554 0.0
C904 C 0.30442 0.28764 0.80889 0.0
C905 C 0.32092 0.27631 0.84937 0.0
C906 C 0.14969 0.33033 0.48926 0.0
C907 C 0.17068 0.38376 0.46495 0.0
C908 C 0.17051 0.33317 0.53044 0.0
C909 C 0.21256 0.38962 0.54884 0.0
H910 H 0.11804 0.28583 0.47612 0.0
H911 H 0.15231 0.29109 0.5483 0.0
S912 S 0.28158 0.54278 0.49858 0.0
N913 N 0.23602 0.49474 0.46247 0.0
N914 N 0.27476 0.49999 0.53955 0.0
C915 C 0.23383 0.44327 0.52485 0.0
C916 C 0.21295 0.44038 0.48305 0.0
C917 C 0.83599 0.15709 0.86285 0.0
C918 C 0.82746 0.2029 0.88145 0.0
C919 C 0.80916 0.13113 0.82384 0.0
C920 C 0.77183 0.14914 0.80252 0.0
H921 H 0.86177 0.13975 0.8791 0.0
H922 H 0.81794 0.09696 0.81029 0.0
S923 S 0.73676 0.26885 0.83795 0.0
N924 N 0.78264 0.26801 0.87414 0.0
N925 N 0.72774 0.21566 0.80418 0.0
C926 C 0.763 0.19475 0.82133 0.0
C927 C 0.79234 0.22285 0.85961 0.0
C928 C 0.55932 0.78924 0.18692 0.0
C929 C 0.61409 0.82613 0.20895 0.0
C930 C 0.55824 0.76026 0.14945 0.0
C931 C 0.61211 0.76784 0.13085 0.0
H932 H 0.51601 0.78112 0.19918 0.0
H933 H 0.51428 0.73265 0.13445 0.0
S934 S 0.76852 0.86056 0.17494 0.0
N935 N 0.72428 0.86878 0.20912 0.0
N936 N 0.72244 0.81535 0.13783 0.0
C937 C 0.66756 0.80479 0.15227 0.0
C938 C 0.66859 0.83416 0.19108 0.0
C939 C 0.82119 0.5704 0.48601 0.0
C940 C 0.85119 0.62394 0.46176 0.0
C941 C 0.79512 0.56978 0.52433 0.0
C942 C 0.79988 0.62331 0.5418 0.0
H943 H 0.81524 0.5273 0.47451 0.0
H944 H 0.77159 0.5263 0.54054 0.0
S945 S 0.87813 0.77751 0.49269 0.0
N946 N 0.88615 0.73309 0.45837 0.0
N947 N 0.83983 0.73269 0.53239 0.0
C948 C 0.83184 0.67814 0.51879 0.0
C949 C 0.85741 0.67844 0.47866 0.0
C950 C 0.17679 0.85115 0.85994 0.0
C951 C 0.20131 0.82387 0.88602 0.0
C952 C 0.19815 0.86897 0.81885 0.0
C953 C 0.24426 0.85944 0.80232 0.0
H954 H 0.1413 0.85938 0.87144 0.0
H955 H 0.17668 0.88801 0.79941 0.0
S956 S 0.32397 0.7904 0.85777 0.0
N957 N 0.27485 0.78895 0.89232 0.0
N958 N 0.31448 0.82206 0.81539 0.0
C959 C 0.26961 0.83296 0.82827 0.0
C960 C 0.24822 0.81519 0.86998 0.0
C961 C 0.33829 0.1702 0.19631 0.0
C962 C 0.39345 0.19481 0.2189 0.0
C963 C 0.33552 0.19539 0.15765 0.0
C964 C 0.38792 0.24527 0.14013 0.0
H965 H 0.29685 0.13212 0.2089 0.0
H966 H 0.29282 0.1742 0.14058 0.0
S967 S 0.54244 0.32834 0.1875 0.0
N968 N 0.50095 0.27386 0.22152 0.0
N969 N 0.49553 0.31978 0.14883 0.0
C970 C 0.44276 0.27094 0.16281 0.0
C971 C 0.44561 0.24595 0.20209 0.0
loop_
_geom_bond_atom_site_label_1
_geom_bond_atom_site_label_2
_geom_bond_distance
_geom_bond_site_symmetry_2
_ccdc_geom_bond_type
Co0 O2 2.143 . S
Co0 O8 2.074 . S
Co0 O11 2.093 . S
Co0 O24 2.097 . S
Co0 N41 2.151 . S
Co0 N49 2.214 . S
Co1 O2 2.160 . S
Co1 O7 2.058 . S
Co1 O17 2.057 . S
Co1 O32 2.037 . S
Co1 N36 2.145 1_455 S
Co1 N57 2.257 . S
O2 Co0 2.143 . S
O2 Co1 2.160 . S
C3 O4 1.278 . S
C3 O11 1.224 . S
O4 C3 1.278 . S
C5 O6 1.245 . S
C5 O17 1.232 . S
O6 C5 1.245 . S
O7 Co1 2.058 . S
O7 C33 1.269 . S
O8 Co0 2.074 . S
O8 C33 1.257 . S
H9 C34 0.930 . S
H10 C40 0.930 . S
O11 Co0 2.093 . S
O11 C3 1.224 . S
H12 C44 0.929 . S
H13 C46 0.930 . S
H14 C47 0.930 . S
H15 C45 0.929 . S
H16 C48 0.928 . S
O17 Co1 2.057 . S
O17 C5 1.232 . S
H18 C37 0.929 . S
H19 C38 0.929 . S
H20 C50 0.931 . S
H21 C42 0.929 . S
H22 C51 0.930 . S
H23 C43 0.931 . S
O24 Co0 2.097 . S
O24 C52 1.214 . S
H25 C53 0.929 . S
H26 C54 0.929 . S
H27 C55 0.930 . S
H28 C56 0.929 . S
H29 C58 0.930 . S
H30 C35 0.930 . S
H31 C39 0.930 . S
O32 Co1 2.037 . S
O32 C52 1.234 . S
C33 O7 1.269 . S
C33 O8 1.257 . S
C34 H9 0.930 . S
C34 C37 1.388 . S
C34 C39 1.418 . S
C35 H30 0.930 . S
C35 C38 1.404 . S
C35 C39 1.353 . S
N36 Co1 2.145 1_655 S
N36 C37 1.397 . S
N36 C38 1.334 . S
C37 H18 0.929 . S
C37 C34 1.388 . S
C37 N36 1.397 . S
C38 H19 0.929 . S
C38 C35 1.404 . S
C38 N36 1.334 . S
C39 H31 0.930 . S
C39 C34 1.418 . S
C39 C35 1.353 . S
C40 H10 0.930 . S
C40 N41 1.330 . S
C40 C42 1.446 . S
N41 Co0 2.151 . S
N41 C40 1.330 . S
N41 C45 1.418 . S
C42 H21 0.929 . S
C42 C40 1.446 . S
C42 C43 1.332 . S
C43 H23 0.931 . S
C43 C42 1.332 . S
C43 C44 1.267 . S
C44 H12 0.929 . S
C44 C43 1.267 . S
C44 C45 1.251 . S
C45 H15 0.929 . S
C45 N41 1.418 . S
C45 C44 1.251 . S
C46 H13 0.930 . S
C46 C48 1.406 . S
C46 C51 1.261 . S
C47 H14 0.930 . S
C47 N49 1.325 . S
C47 C50 1.357 . S
C48 H16 0.928 . S
C48 C46 1.406 . S
C48 N49 1.261 . S
N49 Co0 2.214 . S
N49 C47 1.325 . S
N49 C48 1.261 . S
C50 H20 0.931 . S
C50 C47 1.357 . S
C50 C51 1.312 . S
C51 H22 0.930 . S
C51 C46 1.261 . S
C51 C50 1.312 . S
C52 O24 1.214 . S
C52 O32 1.234 . S
C53 H25 0.929 . S
C53 C56 1.391 . S
C53 C58 1.391 1_655 S
C54 H26 0.929 . S
C54 C55 1.390 . S
C54 N57 1.391 1_655 S
C55 H27 0.930 . S
C55 C54 1.390 . S
C55 C56 1.392 . S
C56 H28 0.929 . S
C56 C53 1.391 . S
C56 C55 1.392 . S
N57 Co1 2.257 . S
N57 C54 1.391 1_455 S
N57 C58 1.388 . S
C58 H29 0.930 . S
C58 C53 1.391 1_455 S
C58 N57 1.388 . S
Co59 O61 2.143 . S
Co59 O67 2.074 . S
Co59 O70 2.093 . S
Co59 O83 2.097 . S
Co59 N100 2.151 . S
Co59 N108 2.214 . S
Co60 O61 2.160 . S
Co60 O66 2.058 . S
Co60 O76 2.057 . S
Co60 O91 2.037 . S
Co60 N95 2.145 1_545 S
Co60 N116 2.257 . S
O61 Co59 2.143 . S
O61 Co60 2.160 . S
C62 O63 1.278 . S
C62 O70 1.224 . S
O63 C62 1.278 . S
C64 O65 1.245 . S
C64 O76 1.232 . S
O65 C64 1.245 . S
O66 Co60 2.058 . S
O66 C92 1.269 . S
O67 Co59 2.074 . S
O67 C92 1.257 . S
H68 C93 0.930 . S
H69 C99 0.930 . S
O70 Co59 2.093 . S
O70 C62 1.224 . S
H71 C103 0.929 . S
H72 C105 0.930 . S
H73 C106 0.930 . S
H74 C104 0.929 . S
H75 C107 0.928 . S
O76 Co60 2.057 . S
O76 C64 1.232 . S
H77 C96 0.929 . S
H78 C97 0.929 . S
H79 C109 0.931 . S
H80 C101 0.929 . S
H81 C110 0.930 . S
H82 C102 0.931 . S
O83 Co59 2.097 . S
O83 C111 1.214 . S
H84 C112 0.929 . S
H85 C113 0.929 . S
H86 C114 0.930 . S
H87 C115 0.929 . S
H88 C117 0.930 . S
H89 C94 0.930 . S
H90 C98 0.930 . S
O91 Co60 2.037 . S
O91 C111 1.234 . S
C92 O66 1.269 . S
C92 O67 1.257 . S
C93 H68 0.930 . S
C93 C96 1.388 . S
C93 C98 1.418 . S
C94 H89 0.930 . S
C94 C97 1.404 . S
C94 C98 1.353 . S
N95 Co60 2.145 1_565 S
N95 C96 1.397 . S
N95 C97 1.334 . S
C96 H77 0.929 . S
C96 C93 1.388 . S
C96 N95 1.397 . S
C97 H78 0.929 . S
C97 C94 1.404 . S
C97 N95 1.334 . S
C98 H90 0.930 . S
C98 C93 1.418 . S
C98 C94 1.353 . S
C99 H69 0.930 . S
C99 N100 1.330 . S
C99 C101 1.446 . S
N100 Co59 2.151 . S
N100 C99 1.330 . S
N100 C104 1.418 . S
C101 H80 0.929 . S
C101 C99 1.446 . S
C101 C102 1.332 . S
C102 H82 0.931 . S
C102 C101 1.332 . S
C102 C103 1.267 . S
C103 H71 0.929 . S
C103 C102 1.267 . S
C103 C104 1.251 . S
C104 H74 0.929 . S
C104 N100 1.418 . S
C104 C103 1.251 . S
C105 H72 0.930 . S
C105 C107 1.406 . S
C105 C110 1.261 . S
C106 H73 0.930 . S
C106 N108 1.325 . S
C106 C109 1.357 . S
C107 H75 0.928 . S
C107 C105 1.406 . S
C107 N108 1.261 . S
N108 Co59 2.214 . S
N108 C106 1.325 . S
N108 C107 1.261 . S
C109 H79 0.931 . S
C109 C106 1.357 . S
C109 C110 1.312 . S
C110 H81 0.930 . S
C110 C105 1.261 . S
C110 C109 1.312 . S
C111 O83 1.214 . S
C111 O91 1.234 . S
C112 H84 0.929 . S
C112 C115 1.391 . S
C112 C117 1.391 1_565 S
C113 H85 0.929 . S
C113 C114 1.390 . S
C113 N116 1.391 1_565 S
C114 H86 0.930 . S
C114 C113 1.390 . S
C114 C115 1.392 . S
C115 H87 0.929 . S
C115 C112 1.391 . S
C115 C114 1.392 . S
N116 Co60 2.257 . S
N116 C113 1.391 1_545 S
N116 C117 1.388 . S
C117 H88 0.930 . S
C117 C112 1.391 1_545 S
C117 N116 1.388 . S
Co118 O120 2.143 1_554 S
Co118 O126 2.074 . S
Co118 O129 2.093 1_554 S
Co118 O142 2.097 1_554 S
Co118 N159 2.151 . S
Co118 N167 2.214 . S
Co119 O120 2.160 1_554 S
Co119 O125 2.058 . S
Co119 O135 2.057 . S
Co119 O150 2.037 . S
Co119 N154 2.145 . S
Co119 N175 2.257 1_554 S
O120 Co118 2.143 1_556 S
O120 Co119 2.160 1_556 S
C121 O122 1.278 . S
C121 O129 1.224 . S
O122 C121 1.278 . S
C123 O124 1.245 . S
C123 O135 1.232 1_556 S
O124 C123 1.245 . S
O125 Co119 2.058 . S
O125 C151 1.269 . S
O126 Co118 2.074 . S
O126 C151 1.257 . S
H127 C152 0.930 . S
H128 C158 0.930 . S
O129 Co118 2.093 1_556 S
O129 C121 1.224 . S
H130 C162 0.929 . S
H131 C164 0.930 . S
H132 C165 0.930 . S
H133 C163 0.929 . S
H134 C166 0.928 1_556 S
O135 Co119 2.057 . S
O135 C123 1.232 1_554 S
H136 C155 0.929 . S
H137 C156 0.929 . S
H138 C168 0.931 . S
H139 C160 0.929 1_556 S
H140 C169 0.930 . S
H141 C161 0.931 . S
O142 Co118 2.097 1_556 S
O142 C170 1.213 . S
H143 C171 0.929 . S
H144 C172 0.929 . S
H145 C173 0.930 . S
H146 C174 0.929 . S
H147 C176 0.930 . S
H148 C153 0.930 . S
H149 C157 0.930 . S
O150 Co119 2.037 . S
O150 C170 1.234 1_554 S
C151 O125 1.269 . S
C151 O126 1.257 . S
C152 H127 0.930 . S
C152 C155 1.388 . S
C152 C157 1.418 . S
C153 H148 0.930 . S
C153 C156 1.404 . S
C153 C157 1.353 . S
N154 Co119 2.145 . S
N154 C155 1.397 . S
N154 C156 1.334 . S
C155 H136 0.929 . S
C155 C152 1.388 . S
C155 N154 1.397 . S
C156 H137 0.929 . S
C156 C153 1.404 . S
C156 N154 1.334 . S
C157 H149 0.930 . S
C157 C152 1.418 . S
C157 C153 1.353 . S
C158 H128 0.930 . S
C158 N159 1.330 1_556 S
C158 C160 1.446 1_556 S
N159 Co118 2.151 . S
N159 C158 1.330 1_554 S
N159 C163 1.418 . S
C160 H139 0.929 1_554 S
C160 C158 1.446 1_554 S
C160 C161 1.332 . S
C161 H141 0.931 . S
C161 C160 1.332 . S
C161 C162 1.267 . S
C162 H130 0.929 . S
C162 C161 1.267 . S
C162 C163 1.251 . S
C163 H133 0.929 . S
C163 N159 1.418 . S
C163 C162 1.251 . S
C164 H131 0.930 . S
C164 C166 1.406 . S
C164 C169 1.261 . S
C165 H132 0.930 . S
C165 N167 1.325 . S
C165 C168 1.357 . S
C166 H134 0.928 1_554 S
C166 C164 1.406 . S
C166 N167 1.261 . S
N167 Co118 2.214 . S
N167 C165 1.325 . S
N167 C166 1.261 . S
C168 H138 0.931 . S
C168 C165 1.357 . S
C168 C169 1.312 . S
C169 H140 0.930 . S
C169 C164 1.261 . S
C169 C168 1.312 . S
C170 O142 1.213 . S
C170 O150 1.234 1_556 S
C171 H143 0.929 . S
C171 C174 1.391 . S
C171 C176 1.391 . S
C172 H144 0.929 . S
C172 C173 1.390 . S
C172 N175 1.391 . S
C173 H145 0.930 . S
C173 C172 1.390 . S
C173 C174 1.392 . S
C174 H146 0.929 . S
C174 C171 1.391 . S
C174 C173 1.392 . S
N175 Co119 2.257 1_556 S
N175 C172 1.391 . S
N175 C176 1.388 . S
C176 H147 0.930 . S
C176 C171 1.391 . S
C176 N175 1.388 . S
Co177 O179 2.143 . S
Co177 O185 2.074 . S
Co177 O188 2.093 . S
Co177 O201 2.097 . S
Co177 N218 2.151 . S
Co177 N226 2.214 . S
Co178 O179 2.160 . S
Co178 O184 2.058 . S
Co178 O194 2.057 . S
Co178 O209 2.037 . S
Co178 N213 2.145 1_655 S
Co178 N234 2.257 . S
O179 Co177 2.143 . S
O179 Co178 2.160 . S
C180 O181 1.278 . S
C180 O188 1.224 . S
O181 C180 1.278 . S
C182 O183 1.245 . S
C182 O194 1.232 . S
O183 C182 1.245 . S
O184 Co178 2.058 . S
O184 C210 1.269 . S
O185 Co177 2.074 . S
O185 C210 1.257 . S
H186 C211 0.930 . S
H187 C217 0.930 . S
O188 Co177 2.093 . S
O188 C180 1.224 . S
H189 C221 0.929 . S
H190 C223 0.930 . S
H191 C224 0.930 . S
H192 C222 0.929 . S
H193 C225 0.928 . S
O194 Co178 2.057 . S
O194 C182 1.232 . S
H195 C214 0.929 . S
H196 C215 0.929 . S
H197 C227 0.931 . S
H198 C219 0.929 . S
H199 C228 0.930 . S
H200 C220 0.931 . S
O201 Co177 2.097 . S
O201 C229 1.214 . S
H202 C230 0.929 . S
H203 C231 0.929 . S
H204 C232 0.930 . S
H205 C233 0.929 . S
H206 C235 0.930 . S
H207 C212 0.930 . S
H208 C216 0.930 . S
O209 Co178 2.037 . S
O209 C229 1.234 . S
C210 O184 1.269 . S
C210 O185 1.257 . S
C211 H186 0.930 . S
C211 C214 1.388 . S
C211 C216 1.418 . S
C212 H207 0.930 . S
C212 C215 1.404 . S
C212 C216 1.353 . S
N213 Co178 2.145 1_455 S
N213 C214 1.397 . S
N213 C215 1.334 . S
C214 H195 0.929 . S
C214 C211 1.388 . S
C214 N213 1.397 . S
C215 H196 0.929 . S
C215 C212 1.404 . S
C215 N213 1.334 . S
C216 H208 0.930 . S
C216 C211 1.418 . S
C216 C212 1.353 . S
C217 H187 0.930 . S
C217 N218 1.330 . S
C217 C219 1.446 . S
N218 Co177 2.151 . S
N218 C217 1.330 . S
N218 C222 1.418 . S
C219 H198 0.929 . S
C219 C217 1.446 . S
C219 C220 1.332 . S
C220 H200 0.931 . S
C220 C219 1.332 . S
C220 C221 1.267 . S
C221 H189 0.929 . S
C221 C220 1.267 . S
C221 C222 1.251 . S
C222 H192 0.929 . S
C222 N218 1.418 . S
C222 C221 1.251 . S
C223 H190 0.930 . S
C223 C225 1.406 . S
C223 C228 1.261 . S
C224 H191 0.930 . S
C224 N226 1.325 . S
C224 C227 1.357 . S
C225 H193 0.928 . S
C225 C223 1.406 . S
C225 N226 1.261 . S
N226 Co177 2.214 . S
N226 C224 1.325 . S
N226 C225 1.261 . S
C227 H197 0.931 . S
C227 C224 1.357 . S
C227 C228 1.312 . S
C228 H199 0.930 . S
C228 C223 1.261 . S
C228 C227 1.312 . S
C229 O201 1.214 . S
C229 O209 1.234 . S
C230 H202 0.929 . S
C230 C233 1.391 . S
C230 C235 1.391 1_455 S
C231 H203 0.929 . S
C231 C232 1.390 . S
C231 N234 1.391 1_455 S
C232 H204 0.930 . S
C232 C231 1.390 . S
C232 C233 1.392 . S
C233 H205 0.929 . S
C233 C230 1.391 . S
C233 C232 1.392 . S
N234 Co178 2.257 . S
N234 C231 1.391 1_655 S
N234 C235 1.388 . S
C235 H206 0.930 . S
C235 C230 1.391 1_655 S
C235 N234 1.388 . S
Co236 O238 2.143 . S
Co236 O244 2.074 . S
Co236 O247 2.093 . S
Co236 O260 2.097 . S
Co236 N277 2.151 . S
Co236 N285 2.214 . S
Co237 O238 2.160 . S
Co237 O243 2.058 . S
Co237 O253 2.057 . S
Co237 O268 2.037 . S
Co237 N272 2.145 1_565 S
Co237 N293 2.257 . S
O238 Co236 2.143 . S
O238 Co237 2.160 . S
C239 O240 1.278 . S
C239 O247 1.224 . S
O240 C239 1.278 . S
C241 O242 1.245 . S
C241 O253 1.232 . S
O242 C241 1.245 . S
O243 Co237 2.058 . S
O243 C269 1.269 . S
O244 Co236 2.074 . S
O244 C269 1.257 . S
H245 C270 0.930 . S
H246 C276 0.930 . S
O247 Co236 2.093 . S
O247 C239 1.224 . S
H248 C280 0.929 . S
H249 C282 0.930 . S
H250 C283 0.930 . S
H251 C281 0.929 . S
H252 C284 0.928 . S
O253 Co237 2.057 . S
O253 C241 1.232 . S
H254 C273 0.929 . S
H255 C274 0.929 . S
H256 C286 0.931 . S
H257 C278 0.929 . S
H258 C287 0.930 . S
H259 C279 0.931 . S
O260 Co236 2.097 . S
O260 C288 1.214 . S
H261 C289 0.929 . S
H262 C290 0.929 . S
H263 C291 0.930 . S
H264 C292 0.929 . S
H265 C294 0.930 . S
H266 C271 0.930 . S
H267 C275 0.930 . S
O268 Co237 2.037 . S
O268 C288 1.234 . S
C269 O243 1.269 . S
C269 O244 1.257 . S
C270 H245 0.930 . S
C270 C273 1.388 . S
C270 C275 1.418 . S
C271 H266 0.930 . S
C271 C274 1.404 . S
C271 C275 1.353 . S
N272 Co237 2.145 1_545 S
N272 C273 1.397 . S
N272 C274 1.334 . S
C273 H254 0.929 . S
C273 C270 1.388 . S
C273 N272 1.397 . S
C274 H255 0.929 . S
C274 C271 1.404 . S
C274 N272 1.334 . S
C275 H267 0.930 . S
C275 C270 1.418 . S
C275 C271 1.353 . S
C276 H246 0.930 . S
C276 N277 1.330 . S
C276 C278 1.446 . S
N277 Co236 2.151 . S
N277 C276 1.330 . S
N277 C281 1.418 . S
C278 H257 0.929 . S
C278 C276 1.446 . S
C278 C279 1.332 . S
C279 H259 0.931 . S
C279 C278 1.332 . S
C279 C280 1.267 . S
C280 H248 0.929 . S
C280 C279 1.267 . S
C280 C281 1.251 . S
C281 H251 0.929 . S
C281 N277 1.418 . S
C281 C280 1.251 . S
C282 H249 0.930 . S
C282 C284 1.406 . S
C282 C287 1.261 . S
C283 H250 0.930 . S
C283 N285 1.325 . S
C283 C286 1.357 . S
C284 H252 0.928 . S
C284 C282 1.406 . S
C284 N285 1.261 . S
N285 Co236 2.214 . S
N285 C283 1.325 . S
N285 C284 1.261 . S
C286 H256 0.931 . S
C286 C283 1.357 . S
C286 C287 1.312 . S
C287 H258 0.930 . S
C287 C282 1.261 . S
C287 C286 1.312 . S
C288 O260 1.214 . S
C288 O268 1.234 . S
C289 H261 0.929 . S
C289 C292 1.391 . S
C289 C294 1.391 1_545 S
C290 H262 0.929 . S
C290 C291 1.390 . S
C290 N293 1.391 1_545 S
C291 H263 0.930 . S
C291 C290 1.390 . S
C291 C292 1.392 . S
C292 H264 0.929 . S
C292 C289 1.391 . S
C292 C291 1.392 . S
N293 Co237 2.257 . S
N293 C290 1.391 1_565 S
N293 C294 1.388 . S
C294 H265 0.930 . S
C294 C289 1.391 1_565 S
C294 N293 1.388 . S
Co295 O297 2.143 1_554 S
Co295 O303 2.074 . S
Co295 O306 2.093 1_554 S
Co295 O319 2.097 1_554 S
Co295 N336 2.151 . S
Co295 N344 2.214 . S
Co296 O297 2.160 1_554 S
Co296 O302 2.058 . S
Co296 O312 2.057 . S
Co296 O327 2.037 . S
Co296 N331 2.145 . S
Co296 N352 2.257 1_554 S
O297 Co295 2.143 1_556 S
O297 Co296 2.160 1_556 S
C298 O299 1.278 . S
C298 O306 1.224 . S
O299 C298 1.278 . S
C300 O301 1.245 . S
C300 O312 1.232 1_556 S
O301 C300 1.245 . S
O302 Co296 2.058 . S
O302 C328 1.269 . S
O303 Co295 2.074 . S
O303 C328 1.257 . S
H304 C329 0.930 . S
H305 C335 0.930 . S
O306 Co295 2.093 1_556 S
O306 C298 1.224 . S
H307 C339 0.929 . S
H308 C341 0.930 . S
H309 C342 0.930 . S
H310 C340 0.929 . S
H311 C343 0.928 1_556 S
O312 Co296 2.057 . S
O312 C300 1.232 1_554 S
H313 C332 0.929 . S
H314 C333 0.929 . S
H315 C345 0.931 . S
H316 C337 0.929 1_556 S
H317 C346 0.930 . S
H318 C338 0.931 . S
O319 Co295 2.097 1_556 S
O319 C347 1.213 . S
H320 C348 0.929 . S
H321 C349 0.929 . S
H322 C350 0.930 . S
H323 C351 0.929 . S
H324 C353 0.930 . S
H325 C330 0.930 . S
H326 C334 0.930 . S
O327 Co296 2.037 . S
O327 C347 1.234 1_554 S
C328 O302 1.269 . S
C328 O303 1.257 . S
C329 H304 0.930 . S
C329 C332 1.388 . S
C329 C334 1.418 . S
C330 H325 0.930 . S
C330 C333 1.404 . S
C330 C334 1.353 . S
N331 Co296 2.145 . S
N331 C332 1.397 . S
N331 C333 1.334 . S
C332 H313 0.929 . S
C332 C329 1.388 . S
C332 N331 1.397 . S
C333 H314 0.929 . S
C333 C330 1.404 . S
C333 N331 1.334 . S
C334 H326 0.930 . S
C334 C329 1.418 . S
C334 C330 1.353 . S
C335 H305 0.930 . S
C335 N336 1.330 1_556 S
C335 C337 1.446 1_556 S
N336 Co295 2.151 . S
N336 C335 1.330 1_554 S
N336 C340 1.418 . S
C337 H316 0.929 1_554 S
C337 C335 1.446 1_554 S
C337 C338 1.332 . S
C338 H318 0.931 . S
C338 C337 1.332 . S
C338 C339 1.267 . S
C339 H307 0.929 . S
C339 C338 1.267 . S
C339 C340 1.251 . S
C340 H310 0.929 . S
C340 N336 1.418 . S
C340 C339 1.251 . S
C341 H308 0.930 . S
C341 C343 1.406 . S
C341 C346 1.261 . S
C342 H309 0.930 . S
C342 N344 1.325 . S
C342 C345 1.357 . S
C343 H311 0.928 1_554 S
C343 C341 1.406 . S
C343 N344 1.261 . S
N344 Co295 2.214 . S
N344 C342 1.325 . S
N344 C343 1.261 . S
C345 H315 0.931 . S
C345 C342 1.357 . S
C345 C346 1.312 . S
C346 H317 0.930 . S
C346 C341 1.261 . S
C346 C345 1.312 . S
C347 O319 1.213 . S
C347 O327 1.234 1_556 S
C348 H320 0.929 . S
C348 C351 1.391 . S
C348 C353 1.391 . S
C349 H321 0.929 . S
C349 C350 1.390 . S
C349 N352 1.391 . S
C350 H322 0.930 . S
C350 C349 1.390 . S
C350 C351 1.392 . S
C351 H323 0.929 . S
C351 C348 1.391 . S
C351 C350 1.392 . S
N352 Co296 2.257 1_556 S
N352 C349 1.391 . S
N352 C353 1.388 . S
C353 H324 0.930 . S
C353 C348 1.391 . S
C353 N352 1.388 . S
Co354 O356 2.143 . S
Co354 O362 2.074 . S
Co354 O365 2.093 . S
Co354 O378 2.097 . S
Co354 N395 2.151 . S
Co354 N403 2.214 . S
Co355 O356 2.160 . S
Co355 O361 2.058 . S
Co355 O371 2.057 . S
Co355 O386 2.037 . S
Co355 N390 2.145 1_565 S
Co355 N411 2.257 . S
O356 Co354 2.143 . S
O356 Co355 2.160 . S
C357 O358 1.278 . S
C357 O365 1.224 . S
O358 C357 1.278 . S
C359 O360 1.245 . S
C359 O371 1.232 . S
O360 C359 1.245 . S
O361 Co355 2.058 . S
O361 C387 1.269 . S
O362 Co354 2.074 . S
O362 C387 1.257 . S
H363 C388 0.930 . S
H364 C394 0.930 . S
O365 Co354 2.093 . S
O365 C357 1.224 . S
H366 C398 0.929 . S
H367 C400 0.930 . S
H368 C401 0.930 . S
H369 C399 0.929 . S
H370 C402 0.928 . S
O371 Co355 2.057 . S
O371 C359 1.232 . S
H372 C391 0.929 . S
H373 C392 0.929 . S
H374 C404 0.931 . S
H375 C396 0.929 . S
H376 C405 0.930 . S
H377 C397 0.931 . S
O378 Co354 2.097 . S
O378 C406 1.214 . S
H379 C407 0.929 . S
H380 C408 0.929 . S
H381 C409 0.930 . S
H382 C410 0.929 . S
H383 C412 0.930 . S
H384 C389 0.930 . S
H385 C393 0.930 . S
O386 Co355 2.037 . S
O386 C406 1.234 . S
C387 O361 1.269 . S
C387 O362 1.257 . S
C388 H363 0.930 . S
C388 C391 1.388 . S
C388 C393 1.418 . S
C389 H384 0.930 . S
C389 C392 1.404 . S
C389 C393 1.353 . S
N390 Co355 2.145 1_545 S
N390 C391 1.397 . S
N390 C392 1.334 . S
C391 H372 0.929 . S
C391 C388 1.388 . S
C391 N390 1.397 . S
C392 H373 0.929 . S
C392 C389 1.404 . S
C392 N390 1.334 . S
C393 H385 0.930 . S
C393 C388 1.418 . S
C393 C389 1.353 . S
C394 H364 0.930 . S
C394 N395 1.330 . S
C394 C396 1.446 . S
N395 Co354 2.151 . S
N395 C394 1.330 . S
N395 C399 1.418 . S
C396 H375 0.929 . S
C396 C394 1.446 . S
C396 C397 1.332 . S
C397 H377 0.931 . S
C397 C396 1.332 . S
C397 C398 1.267 . S
C398 H366 0.929 . S
C398 C397 1.267 . S
C398 C399 1.251 . S
C399 H369 0.929 . S
C399 N395 1.418 . S
C399 C398 1.251 . S
C400 H367 0.930 . S
C400 C402 1.406 . S
C400 C405 1.261 . S
C401 H368 0.930 . S
C401 N403 1.325 . S
C401 C404 1.357 . S
C402 H370 0.928 . S
C402 C400 1.406 . S
C402 N403 1.261 . S
N403 Co354 2.214 . S
N403 C401 1.325 . S
N403 C402 1.261 . S
C404 H374 0.931 . S
C404 C401 1.357 . S
C404 C405 1.312 . S
C405 H376 0.930 . S
C405 C400 1.261 . S
C405 C404 1.312 . S
C406 O378 1.214 . S
C406 O386 1.234 . S
C407 H379 0.929 . S
C407 C410 1.391 . S
C407 C412 1.391 1_545 S
C408 H380 0.929 . S
C408 C409 1.390 . S
C408 N411 1.391 1_545 S
C409 H381 0.930 . S
C409 C408 1.390 . S
C409 C410 1.392 . S
C410 H382 0.929 . S
C410 C407 1.391 . S
C410 C409 1.392 . S
N411 Co355 2.257 . S
N411 C408 1.391 1_565 S
N411 C412 1.388 . S
C412 H383 0.930 . S
C412 C407 1.391 1_565 S
C412 N411 1.388 . S
Co413 O415 2.143 . S
Co413 O421 2.074 . S
Co413 O424 2.093 . S
Co413 O437 2.097 . S
Co413 N454 2.151 . S
Co413 N462 2.214 . S
Co414 O415 2.160 . S
Co414 O420 2.058 . S
Co414 O430 2.057 . S
Co414 O445 2.037 . S
Co414 N449 2.145 . S
Co414 N470 2.257 . S
O415 Co413 2.143 . S
O415 Co414 2.160 . S
C416 O417 1.278 . S
C416 O424 1.224 . S
O417 C416 1.278 . S
C418 O419 1.245 . S
C418 O430 1.232 . S
O419 C418 1.245 . S
O420 Co414 2.058 . S
O420 C446 1.269 . S
O421 Co413 2.074 . S
O421 C446 1.257 . S
H422 C447 0.930 . S
H423 C453 0.930 . S
O424 Co413 2.093 . S
O424 C416 1.224 . S
H425 C457 0.929 . S
H426 C459 0.930 . S
H427 C460 0.930 . S
H428 C458 0.929 . S
H429 C461 0.928 . S
O430 Co414 2.057 . S
O430 C418 1.232 . S
H431 C450 0.929 . S
H432 C451 0.929 . S
H433 C463 0.931 . S
H434 C455 0.929 . S
H435 C464 0.930 . S
H436 C456 0.931 . S
O437 Co413 2.097 . S
O437 C465 1.214 . S
H438 C466 0.929 . S
H439 C467 0.929 . S
H440 C468 0.930 . S
H441 C469 0.929 . S
H442 C471 0.930 . S
H443 C448 0.930 . S
H444 C452 0.930 . S
O445 Co414 2.037 . S
O445 C465 1.234 . S
C446 O420 1.269 . S
C446 O421 1.257 . S
C447 H422 0.930 . S
C447 C450 1.388 . S
C447 C452 1.418 . S
C448 H443 0.930 . S
C448 C451 1.404 . S
C448 C452 1.353 . S
N449 Co414 2.145 . S
N449 C450 1.397 . S
N449 C451 1.334 . S
C450 H431 0.929 . S
C450 C447 1.388 . S
C450 N449 1.397 . S
C451 H432 0.929 . S
C451 C448 1.404 . S
C451 N449 1.334 . S
C452 H444 0.930 . S
C452 C447 1.418 . S
C452 C448 1.353 . S
C453 H423 0.930 . S
C453 N454 1.330 . S
C453 C455 1.446 . S
N454 Co413 2.151 . S
N454 C453 1.330 . S
N454 C458 1.418 . S
C455 H434 0.929 . S
C455 C453 1.446 . S
C455 C456 1.332 . S
C456 H436 0.931 . S
C456 C455 1.332 . S
C456 C457 1.267 . S
C457 H425 0.929 . S
C457 C456 1.267 . S
C457 C458 1.251 . S
C458 H428 0.929 . S
C458 N454 1.418 . S
C458 C457 1.251 . S
C459 H426 0.930 . S
C459 C461 1.406 . S
C459 C464 1.261 . S
C460 H427 0.930 . S
C460 N462 1.325 . S
C460 C463 1.357 . S
C461 H429 0.928 . S
C461 C459 1.406 . S
C461 N462 1.261 . S
N462 Co413 2.214 . S
N462 C460 1.325 . S
N462 C461 1.261 . S
C463 H433 0.931 . S
C463 C460 1.357 . S
C463 C464 1.312 . S
C464 H435 0.930 . S
C464 C459 1.261 . S
C464 C463 1.312 . S
C465 O437 1.214 . S
C465 O445 1.234 . S
C466 H438 0.929 . S
C466 C469 1.391 . S
C466 C471 1.391 . S
C467 H439 0.929 . S
C467 C468 1.390 . S
C467 N470 1.391 . S
C468 H440 0.930 . S
C468 C467 1.390 . S
C468 C469 1.392 . S
C469 H441 0.929 . S
C469 C466 1.391 . S
C469 C468 1.392 . S
N470 Co414 2.257 . S
N470 C467 1.391 . S
N470 C471 1.388 . S
C471 H442 0.930 . S
C471 C466 1.391 . S
C471 N470 1.388 . S
Co472 O474 2.143 1_556 S
Co472 O480 2.074 . S
Co472 O483 2.093 1_556 S
Co472 O496 2.097 1_556 S
Co472 N513 2.151 1_455 S
Co472 N521 2.214 1_455 S
Co473 O474 2.160 1_556 S
Co473 O479 2.058 . S
Co473 O489 2.057 . S
Co473 O504 2.037 . S
Co473 N508 2.145 . S
Co473 N529 2.257 1_556 S
O474 Co472 2.143 1_554 S
O474 Co473 2.160 1_554 S
C475 O476 1.278 . S
C475 O483 1.224 . S
O476 C475 1.278 . S
C477 O478 1.245 . S
C477 O489 1.232 1_554 S
O478 C477 1.245 . S
O479 Co473 2.058 . S
O479 C505 1.269 . S
O480 Co472 2.074 . S
O480 C505 1.257 . S
H481 C506 0.930 . S
H482 C512 0.934 . S
O483 Co472 2.093 1_554 S
O483 C475 1.224 . S
H484 C516 0.929 . S
H485 C518 0.930 . S
H486 C519 0.930 1_455 S
H487 C517 0.929 . S
H488 C520 0.928 1_554 S
O489 Co473 2.057 . S
O489 C477 1.232 1_556 S
H490 C509 0.929 . S
H491 C510 0.929 . S
H492 C522 0.931 . S
H493 C514 0.929 1_554 S
H494 C523 0.930 . S
H495 C515 0.931 . S
O496 Co472 2.097 1_554 S
O496 C524 1.213 . S
H497 C525 0.929 . S
H498 C526 0.929 . S
H499 C527 0.930 . S
H500 C528 0.929 . S
H501 C530 0.930 . S
H502 C507 0.930 . S
H503 C511 0.930 . S
O504 Co473 2.037 . S
O504 C524 1.234 1_556 S
C505 O479 1.269 . S
C505 O480 1.257 . S
C506 H481 0.930 . S
C506 C509 1.388 . S
C506 C511 1.418 . S
C507 H502 0.930 . S
C507 C510 1.404 . S
C507 C511 1.353 . S
N508 Co473 2.145 . S
N508 C509 1.397 . S
N508 C510 1.334 . S
C509 H490 0.929 . S
C509 C506 1.388 . S
C509 N508 1.397 . S
C510 H491 0.929 . S
C510 C507 1.404 . S
C510 N508 1.334 . S
C511 H503 0.930 . S
C511 C506 1.418 . S
C511 C507 1.353 . S
C512 H482 0.934 . S
C512 N513 1.330 1_554 S
C512 C514 1.446 1_554 S
N513 Co472 2.151 1_655 S
N513 C512 1.330 1_556 S
N513 C517 1.418 . S
C514 H493 0.929 1_556 S
C514 C512 1.446 1_556 S
C514 C515 1.332 . S
C515 H495 0.931 . S
C515 C514 1.332 . S
C515 C516 1.267 . S
C516 H484 0.929 . S
C516 C515 1.267 . S
C516 C517 1.251 . S
C517 H487 0.929 . S
C517 N513 1.418 . S
C517 C516 1.251 . S
C518 H485 0.930 . S
C518 C520 1.406 . S
C518 C523 1.261 . S
C519 H486 0.930 1_655 S
C519 N521 1.325 . S
C519 C522 1.357 . S
C520 H488 0.928 1_556 S
C520 C518 1.406 . S
C520 N521 1.261 . S
N521 Co472 2.214 1_655 S
N521 C519 1.325 . S
N521 C520 1.261 . S
C522 H492 0.931 . S
C522 C519 1.357 . S
C522 C523 1.312 . S
C523 H494 0.930 . S
C523 C518 1.261 . S
C523 C522 1.312 . S
C524 O496 1.213 . S
C524 O504 1.234 1_554 S
C525 H497 0.929 . S
C525 C528 1.391 . S
C525 C530 1.391 . S
C526 H498 0.929 . S
C526 C527 1.390 . S
C526 N529 1.391 . S
C527 H499 0.930 . S
C527 C526 1.390 . S
C527 C528 1.392 . S
C528 H500 0.929 . S
C528 C525 1.391 . S
C528 C527 1.392 . S
N529 Co473 2.257 1_554 S
N529 C526 1.391 . S
N529 C530 1.388 . S
C530 H501 0.930 . S
C530 C525 1.391 . S
C530 N529 1.388 . S
Co531 O533 2.143 . S
Co531 O539 2.074 . S
Co531 O542 2.093 . S
Co531 O555 2.097 . S
Co531 N572 2.151 . S
Co531 N580 2.214 . S
Co532 O533 2.160 . S
Co532 O538 2.058 . S
Co532 O548 2.057 . S
Co532 O563 2.037 . S
Co532 N567 2.145 1_545 S
Co532 N588 2.257 . S
O533 Co531 2.143 . S
O533 Co532 2.160 . S
C534 O535 1.278 . S
C534 O542 1.224 . S
O535 C534 1.278 . S
C536 O537 1.245 . S
C536 O548 1.232 . S
O537 C536 1.245 . S
O538 Co532 2.058 . S
O538 C564 1.269 . S
O539 Co531 2.074 . S
O539 C564 1.257 . S
H540 C565 0.930 . S
H541 C571 0.930 . S
O542 Co531 2.093 . S
O542 C534 1.224 . S
H543 C575 0.929 . S
H544 C577 0.930 . S
H545 C578 0.930 . S
H546 C576 0.929 . S
H547 C579 0.928 . S
O548 Co532 2.057 . S
O548 C536 1.232 . S
H549 C568 0.929 . S
H550 C569 0.929 . S
H551 C581 0.931 . S
H552 C573 0.929 . S
H553 C582 0.930 . S
H554 C574 0.931 . S
O555 Co531 2.097 . S
O555 C583 1.214 . S
H556 C584 0.929 . S
H557 C585 0.929 . S
H558 C586 0.930 . S
H559 C587 0.929 . S
H560 C589 0.930 . S
H561 C566 0.930 . S
H562 C570 0.930 . S
O563 Co532 2.037 . S
O563 C583 1.234 . S
C564 O538 1.269 . S
C564 O539 1.257 . S
C565 H540 0.930 . S
C565 C568 1.388 . S
C565 C570 1.418 . S
C566 H561 0.930 . S
C566 C569 1.404 . S
C566 C570 1.353 . S
N567 Co532 2.145 1_565 S
N567 C568 1.397 . S
N567 C569 1.334 . S
C568 H549 0.929 . S
C568 C565 1.388 . S
C568 N567 1.397 . S
C569 H550 0.929 . S
C569 C566 1.404 . S
C569 N567 1.334 . S
C570 H562 0.930 . S
C570 C565 1.418 . S
C570 C566 1.353 . S
C571 H541 0.930 . S
C571 N572 1.330 . S
C571 C573 1.446 . S
N572 Co531 2.151 . S
N572 C571 1.330 . S
N572 C576 1.418 . S
C573 H552 0.929 . S
C573 C571 1.446 . S
C573 C574 1.332 . S
C574 H554 0.931 . S
C574 C573 1.332 . S
C574 C575 1.267 . S
C575 H543 0.929 . S
C575 C574 1.267 . S
C575 C576 1.251 . S
C576 H546 0.929 . S
C576 N572 1.418 . S
C576 C575 1.251 . S
C577 H544 0.930 . S
C577 C579 1.406 . S
C577 C582 1.261 . S
C578 H545 0.930 . S
C578 N580 1.325 . S
C578 C581 1.357 . S
C579 H547 0.928 . S
C579 C577 1.406 . S
C579 N580 1.261 . S
N580 Co531 2.214 . S
N580 C578 1.325 . S
N580 C579 1.261 . S
C581 H551 0.931 . S
C581 C578 1.357 . S
C581 C582 1.312 . S
C582 H553 0.930 . S
C582 C577 1.261 . S
C582 C581 1.312 . S
C583 O555 1.214 . S
C583 O563 1.234 . S
C584 H556 0.929 . S
C584 C587 1.391 . S
C584 C589 1.391 1_565 S
C585 H557 0.929 . S
C585 C586 1.390 . S
C585 N588 1.391 1_565 S
C586 H558 0.930 . S
C586 C585 1.390 . S
C586 C587 1.392 . S
C587 H559 0.929 . S
C587 C584 1.391 . S
C587 C586 1.392 . S
N588 Co532 2.257 . S
N588 C585 1.391 1_545 S
N588 C589 1.388 . S
C589 H560 0.930 . S
C589 C584 1.391 1_545 S
C589 N588 1.388 . S
Co590 O592 2.143 . S
Co590 O598 2.074 . S
Co590 O601 2.093 . S
Co590 O614 2.097 . S
Co590 N631 2.151 . S
Co590 N639 2.214 . S
Co591 O592 2.160 . S
Co591 O597 2.058 . S
Co591 O607 2.057 . S
Co591 O622 2.037 . S
Co591 N626 2.145 . S
Co591 N647 2.257 . S
O592 Co590 2.143 . S
O592 Co591 2.160 . S
C593 O594 1.278 . S
C593 O601 1.224 . S
O594 C593 1.278 . S
C595 O596 1.245 . S
C595 O607 1.232 . S
O596 C595 1.245 . S
O597 Co591 2.058 . S
O597 C623 1.269 . S
O598 Co590 2.074 . S
O598 C623 1.257 . S
H599 C624 0.930 . S
H600 C630 0.930 . S
O601 Co590 2.093 . S
O601 C593 1.224 . S
H602 C634 0.929 . S
H603 C636 0.930 . S
H604 C637 0.930 . S
H605 C635 0.929 . S
H606 C638 0.928 . S
O607 Co591 2.057 . S
O607 C595 1.232 . S
H608 C627 0.929 . S
H609 C628 0.929 . S
H610 C640 0.931 . S
H611 C632 0.929 . S
H612 C641 0.930 . S
H613 C633 0.931 . S
O614 Co590 2.097 . S
O614 C642 1.214 . S
H615 C643 0.929 . S
H616 C644 0.929 . S
H617 C645 0.930 . S
H618 C646 0.929 . S
H619 C648 0.930 . S
H620 C625 0.930 . S
H621 C629 0.930 . S
O622 Co591 2.037 . S
O622 C642 1.234 . S
C623 O597 1.269 . S
C623 O598 1.257 . S
C624 H599 0.930 . S
C624 C627 1.388 . S
C624 C629 1.418 . S
C625 H620 0.930 . S
C625 C628 1.404 . S
C625 C629 1.353 . S
N626 Co591 2.145 . S
N626 C627 1.397 . S
N626 C628 1.334 . S
C627 H608 0.929 . S
C627 C624 1.388 . S
C627 N626 1.397 . S
C628 H609 0.929 . S
C628 C625 1.404 . S
C628 N626 1.334 . S
C629 H621 0.930 . S
C629 C624 1.418 . S
C629 C625 1.353 . S
C630 H600 0.930 . S
C630 N631 1.330 . S
C630 C632 1.446 . S
N631 Co590 2.151 . S
N631 C630 1.330 . S
N631 C635 1.418 . S
C632 H611 0.929 . S
C632 C630 1.446 . S
C632 C633 1.332 . S
C633 H613 0.931 . S
C633 C632 1.332 . S
C633 C634 1.267 . S
C634 H602 0.929 . S
C634 C633 1.267 . S
C634 C635 1.251 . S
C635 H605 0.929 . S
C635 N631 1.418 . S
C635 C634 1.251 . S
C636 H603 0.930 . S
C636 C638 1.406 . S
C636 C641 1.261 . S
C637 H604 0.930 . S
C637 N639 1.325 . S
C637 C640 1.357 . S
C638 H606 0.928 . S
C638 C636 1.406 . S
C638 N639 1.261 . S
N639 Co590 2.214 . S
N639 C637 1.325 . S
N639 C638 1.261 . S
C640 H610 0.931 . S
C640 C637 1.357 . S
C640 C641 1.312 . S
C641 H612 0.930 . S
C641 C636 1.261 . S
C641 C640 1.312 . S
C642 O614 1.214 . S
C642 O622 1.234 . S
C643 H615 0.929 . S
C643 C646 1.391 . S
C643 C648 1.391 . S
C644 H616 0.929 . S
C644 C645 1.390 . S
C644 N647 1.391 . S
C645 H617 0.930 . S
C645 C644 1.390 . S
C645 C646 1.392 . S
C646 H618 0.929 . S
C646 C643 1.391 . S
C646 C645 1.392 . S
N647 Co591 2.257 . S
N647 C644 1.391 . S
N647 C648 1.388 . S
C648 H619 0.930 . S
C648 C643 1.391 . S
C648 N647 1.388 . S
Co649 O651 2.143 1_556 S
Co649 O657 2.074 . S
Co649 O660 2.093 1_556 S
Co649 O673 2.097 1_556 S
Co649 N690 2.151 1_655 S
Co649 N698 2.214 1_655 S
Co650 O651 2.160 1_556 S
Co650 O656 2.058 . S
Co650 O666 2.057 . S
Co650 O681 2.037 . S
Co650 N685 2.145 . S
Co650 N706 2.257 1_556 S
O651 Co649 2.143 1_554 S
O651 Co650 2.160 1_554 S
C652 O653 1.278 . S
C652 O660 1.224 . S
O653 C652 1.278 . S
C654 O655 1.245 . S
C654 O666 1.232 1_554 S
O655 C654 1.245 . S
O656 Co650 2.058 . S
O656 C682 1.269 . S
O657 Co649 2.074 . S
O657 C682 1.257 . S
H658 C683 0.930 . S
H659 C689 0.934 . S
O660 Co649 2.093 1_554 S
O660 C652 1.224 . S
H661 C693 0.929 . S
H662 C695 0.930 . S
H663 C696 0.930 1_655 S
H664 C694 0.929 . S
H665 C697 0.928 1_554 S
O666 Co650 2.057 . S
O666 C654 1.232 1_556 S
H667 C686 0.929 . S
H668 C687 0.929 . S
H669 C699 0.931 . S
H670 C691 0.929 1_554 S
H671 C700 0.930 . S
H672 C692 0.931 . S
O673 Co649 2.097 1_554 S
O673 C701 1.213 . S
H674 C702 0.929 . S
H675 C703 0.929 . S
H676 C704 0.930 . S
H677 C705 0.929 . S
H678 C707 0.930 . S
H679 C684 0.930 . S
H680 C688 0.930 . S
O681 Co650 2.037 . S
O681 C701 1.234 1_556 S
C682 O656 1.269 . S
C682 O657 1.257 . S
C683 H658 0.930 . S
C683 C686 1.388 . S
C683 C688 1.418 . S
C684 H679 0.930 . S
C684 C687 1.404 . S
C684 C688 1.353 . S
N685 Co650 2.145 . S
N685 C686 1.397 . S
N685 C687 1.334 . S
C686 H667 0.929 . S
C686 C683 1.388 . S
C686 N685 1.397 . S
C687 H668 0.929 . S
C687 C684 1.404 . S
C687 N685 1.334 . S
C688 H680 0.930 . S
C688 C683 1.418 . S
C688 C684 1.353 . S
C689 H659 0.934 . S
C689 N690 1.330 1_554 S
C689 C691 1.446 1_554 S
N690 Co649 2.151 1_455 S
N690 C689 1.330 1_556 S
N690 C694 1.418 . S
C691 H670 0.929 1_556 S
C691 C689 1.446 1_556 S
C691 C692 1.332 . S
C692 H672 0.931 . S
C692 C691 1.332 . S
C692 C693 1.267 . S
C693 H661 0.929 . S
C693 C692 1.267 . S
C693 C694 1.251 . S
C694 H664 0.929 . S
C694 N690 1.418 . S
C694 C693 1.251 . S
C695 H662 0.930 . S
C695 C697 1.406 . S
C695 C700 1.261 . S
C696 H663 0.930 1_455 S
C696 N698 1.325 . S
C696 C699 1.357 . S
C697 H665 0.928 1_556 S
C697 C695 1.406 . S
C697 N698 1.261 . S
N698 Co649 2.214 1_455 S
N698 C696 1.325 . S
N698 C697 1.261 . S
C699 H669 0.931 . S
C699 C696 1.357 . S
C699 C700 1.312 . S
C700 H671 0.930 . S
C700 C695 1.261 . S
C700 C699 1.312 . S
C701 O673 1.213 . S
C701 O681 1.234 1_554 S
C702 H674 0.929 . S
C702 C705 1.391 . S
C702 C707 1.391 . S
C703 H675 0.929 . S
C703 C704 1.390 . S
C703 N706 1.391 . S
C704 H676 0.930 . S
C704 C703 1.390 . S
C704 C705 1.392 . S
C705 H677 0.929 . S
C705 C702 1.391 . S
C705 C704 1.392 . S
N706 Co650 2.257 1_554 S
N706 C703 1.391 . S
N706 C707 1.388 . S
C707 H678 0.930 . S
C707 C702 1.391 . S
C707 N706 1.388 . S
C708 C709 1.369 . S
C708 C710 1.419 . S
C708 H712 0.930 . S
C709 C708 1.369 . S
C709 C718 1.429 . S
C710 C708 1.419 . S
C710 C711 1.363 . S
C710 H713 0.929 . S
C711 C710 1.363 . S
C711 C717 1.428 . S
H712 C708 0.930 . S
H713 C710 0.929 . S
S714 N715 1.613 . S
S714 N716 1.610 . S
N715 S714 1.613 . S
N715 C718 1.350 . S
N716 S714 1.610 . S
N716 C717 1.351 . S
C717 C711 1.428 . S
C717 N716 1.351 . S
C717 C718 1.434 . S
C718 C709 1.429 . S
C718 N715 1.350 . S
C718 C717 1.434 . S
C719 C720 1.369 . S
C719 C721 1.419 . S
C719 H723 0.930 . S
C720 C719 1.369 . S
C720 C729 1.429 . S
C721 C719 1.419 . S
C721 C722 1.363 . S
C721 H724 0.929 . S
C722 C721 1.363 . S
C722 C728 1.428 . S
H723 C719 0.930 . S
H724 C721 0.929 . S
S725 N726 1.613 . S
S725 N727 1.610 . S
N726 S725 1.613 . S
N726 C729 1.350 . S
N727 S725 1.610 . S
N727 C728 1.351 . S
C728 C722 1.428 . S
C728 N727 1.351 . S
C728 C729 1.434 . S
C729 C720 1.429 . S
C729 N726 1.350 . S
C729 C728 1.434 . S
C730 C731 1.369 . S
C730 C732 1.419 . S
C730 H734 0.930 . S
C731 C730 1.369 . S
C731 C740 1.429 1_556 S
C732 C730 1.419 . S
C732 C733 1.363 1_556 S
C732 H735 0.929 . S
C733 C732 1.363 1_554 S
C733 C739 1.428 . S
H734 C730 0.930 . S
H735 C732 0.929 . S
S736 N737 1.613 . S
S736 N738 1.610 . S
N737 S736 1.613 . S
N737 C740 1.350 . S
N738 S736 1.610 . S
N738 C739 1.351 . S
C739 C733 1.428 . S
C739 N738 1.351 . S
C739 C740 1.434 . S
C740 C731 1.429 1_554 S
C740 N737 1.350 . S
C740 C739 1.434 . S
C741 C742 1.369 . S
C741 C743 1.419 . S
C741 H745 0.930 . S
C742 C741 1.369 . S
C742 C751 1.429 . S
C743 C741 1.419 . S
C743 C744 1.363 . S
C743 H746 0.929 . S
C744 C743 1.363 . S
C744 C750 1.428 . S
H745 C741 0.930 . S
H746 C743 0.929 . S
S747 N748 1.613 . S
S747 N749 1.610 . S
N748 S747 1.613 . S
N748 C751 1.350 . S
N749 S747 1.610 . S
N749 C750 1.351 . S
C750 C744 1.428 . S
C750 N749 1.351 . S
C750 C751 1.434 . S
C751 C742 1.429 . S
C751 N748 1.350 . S
C751 C750 1.434 . S
C752 C753 1.369 . S
C752 C754 1.419 . S
C752 H756 0.930 . S
C753 C752 1.369 . S
C753 C762 1.429 . S
C754 C752 1.419 . S
C754 C755 1.363 . S
C754 H757 0.929 . S
C755 C754 1.363 . S
C755 C761 1.428 . S
H756 C752 0.930 . S
H757 C754 0.929 . S
S758 N759 1.613 . S
S758 N760 1.610 . S
N759 S758 1.613 . S
N759 C762 1.350 . S
N760 S758 1.610 . S
N760 C761 1.351 . S
C761 C755 1.428 . S
C761 N760 1.351 . S
C761 C762 1.434 . S
C762 C753 1.429 . S
C762 N759 1.350 . S
C762 C761 1.434 . S
C763 C764 1.369 . S
C763 C765 1.419 . S
C763 H767 0.930 . S
C764 C763 1.369 . S
C764 C773 1.429 1_554 S
C765 C763 1.419 . S
C765 C766 1.363 1_554 S
C765 H768 0.929 . S
C766 C765 1.363 1_556 S
C766 C772 1.428 . S
H767 C763 0.930 . S
H768 C765 0.929 . S
S769 N770 1.613 . S
S769 N771 1.610 . S
N770 S769 1.613 . S
N770 C773 1.350 . S
N771 S769 1.610 . S
N771 C772 1.351 . S
C772 C766 1.428 . S
C772 N771 1.351 . S
C772 C773 1.434 . S
C773 C764 1.429 1_556 S
C773 N770 1.350 . S
C773 C772 1.434 . S
C774 C775 1.369 . S
C774 C776 1.419 . S
C774 H778 0.930 . S
C775 C774 1.369 . S
C775 C784 1.429 . S
C776 C774 1.419 . S
C776 C777 1.363 . S
C776 H779 0.929 . S
C777 C776 1.363 . S
C777 C783 1.428 . S
H778 C774 0.930 . S
H779 C776 0.929 . S
S780 N781 1.613 . S
S780 N782 1.610 . S
N781 S780 1.613 . S
N781 C784 1.350 . S
N782 S780 1.610 . S
N782 C783 1.351 . S
C783 C777 1.428 . S
C783 N782 1.351 . S
C783 C784 1.434 . S
C784 C775 1.429 . S
C784 N781 1.350 . S
C784 C783 1.434 . S
C785 C786 1.369 . S
C785 C787 1.419 1_655 S
C785 H789 0.930 . S
C786 C785 1.369 . S
C786 C795 1.429 . S
C787 C785 1.419 1_455 S
C787 C788 1.363 . S
C787 H790 0.929 . S
C788 C787 1.363 . S
C788 C794 1.428 . S
H789 C785 0.930 . S
H790 C787 0.929 . S
S791 N792 1.613 1_455 S
S791 N793 1.610 . S
N792 S791 1.613 1_655 S
N792 C795 1.350 . S
N793 S791 1.610 . S
N793 C794 1.351 . S
C794 C788 1.428 . S
C794 N793 1.351 . S
C794 C795 1.434 1_455 S
C795 C786 1.429 . S
C795 N792 1.350 . S
C795 C794 1.434 1_655 S
C796 C797 1.373 . S
C796 C798 1.419 1_545 S
C796 H800 0.930 . S
C797 C796 1.373 . S
C797 C806 1.425 1_556 S
C798 C796 1.419 1_565 S
C798 C799 1.363 1_556 S
C798 H801 0.929 . S
C799 C798 1.363 1_554 S
C799 C805 1.428 . S
H800 C796 0.930 . S
H801 C798 0.929 . S
S802 N803 1.613 . S
S802 N804 1.610 1_545 S
N803 S802 1.613 . S
N803 C806 1.350 . S
N804 S802 1.610 1_565 S
N804 C805 1.351 . S
C805 C799 1.428 . S
C805 N804 1.351 . S
C805 C806 1.434 1_565 S
C806 C797 1.425 1_554 S
C806 N803 1.350 . S
C806 C805 1.434 1_545 S
C807 C808 1.369 . S
C807 C809 1.419 . S
C807 H811 0.930 . S
C808 C807 1.369 . S
C808 C817 1.429 . S
C809 C807 1.419 . S
C809 C810 1.363 . S
C809 H812 0.929 . S
C810 C809 1.363 . S
C810 C816 1.428 . S
H811 C807 0.930 . S
H812 C809 0.929 . S
S813 N814 1.613 . S
S813 N815 1.610 . S
N814 S813 1.613 . S
N814 C817 1.350 . S
N815 S813 1.610 . S
N815 C816 1.351 . S
C816 C810 1.428 . S
C816 N815 1.351 . S
C816 C817 1.434 . S
C817 C808 1.429 . S
C817 N814 1.350 . S
C817 C816 1.434 . S
C818 C819 1.369 . S
C818 C820 1.419 1_455 S
C818 H822 0.930 . S
C819 C818 1.369 . S
C819 C828 1.429 . S
C820 C818 1.419 1_655 S
C820 C821 1.363 . S
C820 H823 0.929 . S
C821 C820 1.363 . S
C821 C827 1.428 . S
H822 C818 0.930 . S
H823 C820 0.929 . S
S824 N825 1.613 . S
S824 N826 1.610 1_455 S
N825 S824 1.613 . S
N825 C828 1.350 . S
N826 S824 1.610 1_655 S
N826 C827 1.351 . S
C827 C821 1.428 . S
C827 N826 1.351 . S
C827 C828 1.434 1_655 S
C828 C819 1.429 . S
C828 N825 1.350 . S
C828 C827 1.434 1_455 S
C829 C830 1.355 1_556 S
C829 C831 1.419 1_545 S
C829 H833 0.930 . S
C830 C829 1.355 1_554 S
C830 C839 1.443 . S
C831 C829 1.419 1_565 S
C831 C832 1.376 . S
C831 H834 0.929 . S
C832 C831 1.376 . S
C832 C838 1.415 1_556 S
H833 C829 0.930 . S
H834 C831 0.929 . S
S835 N836 1.613 1_565 S
S835 N837 1.610 . S
N836 S835 1.613 1_545 S
N836 C839 1.350 . S
N837 S835 1.610 . S
N837 C838 1.351 . S
C838 C832 1.415 1_554 S
C838 N837 1.351 . S
C838 C839 1.434 1_565 S
C839 C830 1.443 . S
C839 N836 1.350 . S
C839 C838 1.434 1_545 S
C840 C841 1.369 . S
C840 C842 1.419 1_655 S
C840 H844 0.930 . S
C841 C840 1.369 . S
C841 C850 1.429 . S
C842 C840 1.419 1_455 S
C842 C843 1.363 . S
C842 H845 0.929 . S
C843 C842 1.363 . S
C843 C849 1.428 1_455 S
H844 C840 0.930 . S
H845 C842 0.929 . S
S846 N847 1.613 . S
S846 N848 1.610 . S
N847 S846 1.613 . S
N847 C850 1.350 . S
N848 S846 1.610 . S
N848 C849 1.351 . S
C849 C843 1.428 1_655 S
C849 N848 1.351 . S
C849 C850 1.434 . S
C850 C841 1.429 . S
C850 N847 1.350 . S
C850 C849 1.434 . S
C851 C852 1.369 1_565 S
C851 C853 1.419 . S
C851 H855 0.930 . S
C852 C851 1.369 1_545 S
C852 C861 1.429 . S
C853 C851 1.419 . S
C853 C854 1.363 . S
C853 H856 0.929 . S
C854 C853 1.363 . S
C854 C860 1.428 1_565 S
H855 C851 0.930 . S
H856 C853 0.929 . S
S857 N858 1.613 . S
S857 N859 1.610 . S
N858 S857 1.613 . S
N858 C861 1.350 . S
N859 S857 1.610 . S
N859 C860 1.351 . S
C860 C854 1.428 1_545 S
C860 N859 1.351 . S
C860 C861 1.434 . S
C861 C852 1.429 . S
C861 N858 1.350 . S
C861 C860 1.434 . S
C862 C863 1.369 . S
C862 C864 1.419 . S
C862 H866 0.930 . S
C863 C862 1.369 . S
C863 C872 1.429 . S
C864 C862 1.419 . S
C864 C865 1.363 . S
C864 H867 0.929 . S
C865 C864 1.363 . S
C865 C871 1.428 . S
H866 C862 0.930 . S
H867 C864 0.929 . S
S868 N869 1.613 . S
S868 N870 1.610 . S
N869 S868 1.613 . S
N869 C872 1.350 . S
N870 S868 1.610 . S
N870 C871 1.351 . S
C871 C865 1.428 . S
C871 N870 1.351 . S
C871 C872 1.434 . S
C872 C863 1.429 . S
C872 N869 1.350 . S
C872 C871 1.434 . S
C873 C874 1.369 . S
C873 C875 1.419 . S
C873 H877 0.930 . S
C874 C873 1.369 . S
C874 C883 1.429 1_455 S
C875 C873 1.419 . S
C875 C876 1.363 1_455 S
C875 H878 0.929 . S
C876 C875 1.363 1_655 S
C876 C882 1.428 . S
H877 C873 0.930 . S
H878 C875 0.929 . S
S879 N880 1.613 . S
S879 N881 1.610 . S
N880 S879 1.613 . S
N880 C883 1.350 . S
N881 S879 1.610 . S
N881 C882 1.351 . S
C882 C876 1.428 . S
C882 N881 1.351 . S
C882 C883 1.434 . S
C883 C874 1.429 1_655 S
C883 N880 1.350 . S
C883 C882 1.434 . S
C884 C885 1.369 . S
C884 C886 1.419 . S
C884 H888 0.930 . S
C885 C884 1.369 . S
C885 C894 1.429 1_545 S
C886 C884 1.419 . S
C886 C887 1.363 1_545 S
C886 H889 0.929 . S
C887 C886 1.363 1_565 S
C887 C893 1.428 . S
H888 C884 0.930 . S
H889 C886 0.929 . S
S890 N891 1.613 . S
S890 N892 1.610 . S
N891 S890 1.613 . S
N891 C894 1.350 . S
N892 S890 1.610 . S
N892 C893 1.351 . S
C893 C887 1.428 . S
C893 N892 1.351 . S
C893 C894 1.434 . S
C894 C885 1.429 1_565 S
C894 N891 1.350 . S
C894 C893 1.434 . S
C895 C896 1.369 . S
C895 C897 1.419 . S
C895 H899 0.930 . S
C896 C895 1.369 . S
C896 C905 1.429 . S
C897 C895 1.419 . S
C897 C898 1.363 . S
C897 H900 0.929 . S
C898 C897 1.363 . S
C898 C904 1.428 . S
H899 C895 0.930 . S
H900 C897 0.929 . S
S901 N902 1.613 . S
S901 N903 1.610 . S
N902 S901 1.613 . S
N902 C905 1.350 . S
N903 S901 1.610 . S
N903 C904 1.351 . S
C904 C898 1.428 . S
C904 N903 1.351 . S
C904 C905 1.434 . S
C905 C896 1.429 . S
C905 N902 1.350 . S
C905 C904 1.434 . S
C906 C907 1.369 . S
C906 C908 1.419 . S
C906 H910 0.930 . S
C907 C906 1.369 . S
C907 C916 1.429 . S
C908 C906 1.419 . S
C908 C909 1.363 . S
C908 H911 0.929 . S
C909 C908 1.363 . S
C909 C915 1.428 . S
H910 C906 0.930 . S
H911 C908 0.929 . S
S912 N913 1.613 . S
S912 N914 1.610 . S
N913 S912 1.613 . S
N913 C916 1.350 . S
N914 S912 1.610 . S
N914 C915 1.351 . S
C915 C909 1.428 . S
C915 N914 1.351 . S
C915 C916 1.434 . S
C916 C907 1.429 . S
C916 N913 1.350 . S
C916 C915 1.434 . S
C917 C918 1.369 . S
C917 C919 1.419 . S
C917 H921 0.930 . S
C918 C917 1.369 . S
C918 C927 1.429 . S
C919 C917 1.419 . S
C919 C920 1.363 . S
C919 H922 0.929 . S
C920 C919 1.363 . S
C920 C926 1.428 . S
H921 C917 0.930 . S
H922 C919 0.929 . S
S923 N924 1.613 . S
S923 N925 1.610 . S
N924 S923 1.613 . S
N924 C927 1.350 . S
N925 S923 1.610 . S
N925 C926 1.351 . S
C926 C920 1.428 . S
C926 N925 1.351 . S
C926 C927 1.434 . S
C927 C918 1.429 . S
C927 N924 1.350 . S
C927 C926 1.434 . S
C928 C929 1.369 . S
C928 C930 1.419 . S
C928 H932 0.930 . S
C929 C928 1.369 . S
C929 C938 1.429 . S
C930 C928 1.419 . S
C930 C931 1.363 . S
C930 H933 0.929 . S
C931 C930 1.363 . S
C931 C937 1.428 . S
H932 C928 0.930 . S
H933 C930 0.929 . S
S934 N935 1.613 . S
S934 N936 1.610 . S
N935 S934 1.613 . S
N935 C938 1.350 . S
N936 S934 1.610 . S
N936 C937 1.351 . S
C937 C931 1.428 . S
C937 N936 1.351 . S
C937 C938 1.434 . S
C938 C929 1.429 . S
C938 N935 1.350 . S
C938 C937 1.434 . S
C939 C940 1.369 . S
C939 C941 1.419 . S
C939 H943 0.930 . S
C940 C939 1.369 . S
C940 C949 1.429 . S
C941 C939 1.419 . S
C941 C942 1.363 . S
C941 H944 0.929 . S
C942 C941 1.363 . S
C942 C948 1.428 . S
H943 C939 0.930 . S
H944 C941 0.929 . S
S945 N946 1.613 . S
S945 N947 1.610 . S
N946 S945 1.613 . S
N946 C949 1.350 . S
N947 S945 1.610 . S
N947 C948 1.351 . S
C948 C942 1.428 . S
C948 N947 1.351 . S
C948 C949 1.434 . S
C949 C940 1.429 . S
C949 N946 1.350 . S
C949 C948 1.434 . S
C950 C951 1.369 . S
C950 C952 1.419 . S
C950 H954 0.930 . S
C951 C950 1.369 . S
C951 C960 1.429 . S
C952 C950 1.419 . S
C952 C953 1.363 . S
C952 H955 0.929 . S
C953 C952 1.363 . S
C953 C959 1.428 . S
H954 C950 0.930 . S
H955 C952 0.929 . S
S956 N957 1.613 . S
S956 N958 1.610 . S
N957 S956 1.613 . S
N957 C960 1.350 . S
N958 S956 1.610 . S
N958 C959 1.351 . S
C959 C953 1.428 . S
C959 N958 1.351 . S
C959 C960 1.434 . S
C960 C951 1.429 . S
C960 N957 1.350 . S
C960 C959 1.434 . S
C961 C962 1.369 . S
C961 C963 1.419 . S
C961 H965 0.930 . S
C962 C961 1.369 . S
C962 C971 1.429 . S
C963 C961 1.419 . S
C963 C964 1.363 . S
C963 H966 0.929 . S
C964 C963 1.363 . S
C964 C970 1.428 . S
H965 C961 0.930 . S
H966 C963 0.929 . S
S967 N968 1.613 . S
S967 N969 1.610 . S
N968 S967 1.613 . S
N968 C971 1.350 . S
N969 S967 1.610 . S
N969 C970 1.351 . S
C970 C964 1.428 . S
C970 N969 1.351 . S
C970 C971 1.434 . S
C971 C962 1.429 . S
C971 N968 1.350 . S
C971 C970 1.434 . S
C709 C3 1.755 . S
C711 C357 1.765 . S
C720 C62 1.761 . S
C722 C416 1.750 . S
C731 C123 1.700 . S
C733 C477 1.700 . S
C742 C534 1.765 . S
C744 C180 1.755 . S
C753 C239 1.768 . S
C755 C593 1.755 . S
C764 C654 1.696 . S
C766 C300 1.699 . S
C775 C33 1.628 . S
C777 C564 1.632 . S
C786 C92 1.630 . S
C788 C623 1.624 . S
C797 C701 1.533 1_556 S
C799 C170 1.534 1_554 S
C808 C387 1.626 . S
C810 C210 1.623 . S
C819 C269 1.626 . S
C821 C446 1.624 . S
C830 C347 1.532 1_554 S
C832 C524 1.533 1_556 S
C841 C652 1.554 . S
C843 C5 1.547 . S
C852 C64 1.734 . S
C854 C359 1.735 . S
C863 C121 1.561 . S
C865 C418 1.547 . S
C874 C475 1.555 . S
C876 C182 1.545 . S
C885 C536 1.738 . S
C887 C241 1.731 . S
C896 C298 1.555 . S
C898 C595 1.545 . S
C907 C52 1.355 . S
C909 C642 1.345 . S
C918 C682 1.473 . S
C920 C111 1.498 . S
C929 C406 1.500 . S
C931 C151 1.476 . S
C940 C229 1.345 . S
C942 C465 1.355 . S
C951 C505 1.466 . S
C953 C288 1.504 . S
C962 C583 1.491 . S
C964 C328 1.481 . S
