# Generated by pormake.
# Topology irl, (4)-cn, num edge types: 1
# Building blocks:
#     Node 0, Type 0, BuildingBlock: TATPOV_clean_sbu_0, # of connection points: 4
#     Node 1, Type 0, BuildingBlock: TATPOV_clean_sbu_0, # of connection points: 4
#     Node 2, Type 0, BuildingBlock: TATPOV_clean_sbu_0, # of connection points: 4
#     Node 3, Type 0, BuildingBlock: TATPOV_clean_sbu_0, # of connection points: 4
#     Node 4, Type 0, BuildingBlock: TATPOV_clean_sbu_0, # of connection points: 4
#     Node 5, Type 0, BuildingBlock: TATPOV_clean_sbu_0, # of connection points: 4
#     Node 6, Type 0, BuildingBlock: TATPOV_clean_sbu_0, # of connection points: 4
#     Node 7, Type 0, BuildingBlock: TATPOV_clean_sbu_0, # of connection points: 4
#     Edge 8, Type (0, 0), BuildingBlock: FUNLAD_clean_linker_1, # of connection points: 2
#     Edge 9, Type (0, 0), BuildingBlock: FUNLAD_clean_linker_1, # of connection points: 2
#     Edge 10, Type (0, 0), BuildingBlock: FUNLAD_clean_linker_1, # of connection points: 2
#     Edge 11, Type (0, 0), BuildingBlock: FUNLAD_clean_linker_1, # of connection points: 2
#     Edge 12, Type (0, 0), BuildingBlock: FUNLAD_clean_linker_1, # of connection points: 2
#     Edge 13, Type (0, 0), BuildingBlock: FUNLAD_clean_linker_1, # of connection points: 2
#     Edge 14, Type (0, 0), BuildingBlock: FUNLAD_clean_linker_1, # of connection points: 2
#     Edge 15, Type (0, 0), BuildingBlock: FUNLAD_clean_linker_1, # of connection points: 2
#     Edge 16, Type (0, 0), BuildingBlock: FUNLAD_clean_linker_1, # of connection points: 2
#     Edge 17, Type (0, 0), BuildingBlock: FUNLAD_clean_linker_1, # of connection points: 2
#     Edge 18, Type (0, 0), BuildingBlock: FUNLAD_clean_linker_1, # of connection points: 2
#     Edge 19, Type (0, 0), BuildingBlock: FUNLAD_clean_linker_1, # of connection points: 2
#     Edge 20, Type (0, 0), BuildingBlock: FUNLAD_clean_linker_1, # of connection points: 2
#     Edge 21, Type (0, 0), BuildingBlock: FUNLAD_clean_linker_1, # of connection points: 2
#     Edge 22, Type (0, 0), BuildingBlock: FUNLAD_clean_linker_1, # of connection points: 2
#     Edge 23, Type (0, 0), BuildingBlock: FUNLAD_clean_linker_1, # of connection points: 2
# Relax obj value: 0.141
# Max RMSD: 0.157
# Mean RMSD: 0.157
data_MOF--net-irl--node1-TATPOV_clean_sbu_0--edge1-FUNLAD_clean_linker_1
_symmetry_space_group_name_H-M    P1
_symmetry_Int_Tables_number       1
_symmetry_cell_setting            triclinic
loop_
_symmetry_equiv_pos_as_xyz
'x, y, z'
_cell_length_a     39.488504
_cell_length_b     31.689952
_cell_length_c     29.258942
_cell_angle_alpha  90.208318
_cell_angle_beta   89.067792
_cell_angle_gamma 89.706105
loop_
_atom_site_label
_atom_site_type_symbol
_atom_site_fract_x
_atom_site_fract_y
_atom_site_fract_z
_atom_type_partial_charge
Zn0 Zn 0.99859 0.23346 0.00528 0.0
Zn1 Zn 0.06719 0.23848 -0.00166 0.0
O2 O 0.04872 0.26569 0.93934 0.0
O3 O 0.99302 0.26239 0.94551 0.0
O4 O 0.11817 0.24971 -0.00623 0.0
O5 O 0.99778 0.26751 0.06266 0.0
O6 O 0.05364 0.26769 0.05949 0.0
C7 C 1.01934 0.27297 0.92342 0.0
C8 C 1.03339 0.15219 0.00436 0.0
O9 O 0.06047 0.17375 -5e-05 0.0
O10 O 1.0048 0.17027 0.00783 0.0
C11 C 0.1423 0.2233 -0.00186 0.0
O12 O 0.13543 0.18341 0.00587 0.0
C13 C 1.0258 0.27745 0.07977 0.0
Zn14 Zn 0.06749 0.73773 -0.00284 0.0
Zn15 Zn 1.00002 0.75359 -0.00543 0.0
O16 O 1.0122 0.72402 0.93328 0.0
O17 O 0.06594 0.70552 0.9383 0.0
O18 O 0.94848 0.75906 -0.00576 0.0
O19 O 0.06296 0.7081 0.05711 0.0
O20 O 1.00831 0.7221 0.05516 0.0
C21 C 1.03871 0.70645 0.91622 0.0
C22 C 0.04929 0.82716 -0.00418 0.0
O23 O 1.01879 0.81399 -0.00406 0.0
O24 O 0.07388 0.80131 -0.00418 0.0
C25 C 0.93255 0.78587 0.97034 0.0
O26 O 0.94965 0.81204 0.9442 0.0
C27 C 1.03376 0.7064 0.0754 0.0
Zn28 Zn 1.03257 0.78036 0.48661 0.0
Zn29 Zn 0.10016 0.78564 0.49938 0.0
O30 O 0.08119 0.75678 0.55794 0.0
O31 O 1.02623 0.75154 0.5467 0.0
O32 O 0.15161 0.78319 0.50659 0.0
O33 O 1.03911 0.74617 0.42976 0.0
O34 O 0.09409 0.75364 0.43819 0.0
C35 C 0.05168 0.7455 0.57148 0.0
C36 C 0.05782 0.86627 0.48906 0.0
O37 O 0.08654 0.84894 0.49614 0.0
O38 O 1.03172 0.84397 0.48329 0.0
C39 C 0.17157 0.80971 0.48794 0.0
O40 O 0.15891 0.8414 0.46494 0.0
C41 C 0.06913 0.73982 0.41557 0.0
Zn42 Zn 0.06535 0.28272 0.50573 0.0
Zn43 Zn 0.99832 0.26512 0.50075 0.0
O44 O 1.00518 0.29684 0.5618 0.0
O45 O 0.05864 0.31648 0.56284 0.0
O46 O 0.94678 0.25957 0.49734 0.0
O47 O 0.06556 0.31137 0.44512 0.0
O48 O 1.01153 0.29489 0.44022 0.0
C49 C 1.02955 0.31564 0.58135 0.0
C50 C 0.04872 0.19263 0.50704 0.0
O51 O 1.01805 0.20486 0.50306 0.0
O52 O 0.07249 0.21923 0.50944 0.0
C53 C 0.9294 0.24419 0.53027 0.0
O54 O 0.94505 0.23008 0.56643 0.0
C55 C 1.03833 0.31125 0.42308 0.0
Zn56 Zn 0.53367 0.76997 0.00089 0.0
Zn57 Zn 0.60238 0.7628 0.0059 0.0
O58 O 0.59276 0.79406 0.94538 0.0
O59 O 0.53736 0.80182 0.94234 0.0
O60 O 0.65433 0.76233 0.00759 0.0
O61 O 0.53202 0.80085 0.06064 0.0
O62 O 0.5871 0.7908 0.067 0.0
C63 C 0.56652 0.80731 0.92492 0.0
C64 C 0.55846 0.68347 0.00136 0.0
O65 O 0.58748 0.70069 0.00378 0.0
O66 O 0.53184 0.70592 -0.00026 0.0
C67 C 0.67216 0.73008 -0.00325 0.0
O68 O 0.65705 0.69495 -0.01486 0.0
C69 C 0.55881 0.80415 0.08337 0.0
Zn70 Zn 0.54601 0.2839 -0.00454 0.0
Zn71 Zn 0.47929 0.27098 -0.01649 0.0
O72 O 0.50334 0.24522 0.92588 0.0
O73 O 0.55798 0.25318 0.9377 0.0
O74 O 0.42942 0.25658 0.97433 0.0
O75 O 0.54482 0.25288 0.05465 0.0
O76 O 0.49003 0.24346 0.04608 0.0
C77 C 0.5342 0.24025 0.91303 0.0
C78 C 0.50662 0.3611 -0.01034 0.0
O79 O 0.48158 0.33623 -0.01483 0.0
O80 O 0.53629 0.34645 -0.00569 0.0
C81 C 0.40505 0.27379 -0.00336 0.0
O82 O 0.41158 0.30321 0.02696 0.0
C83 C 0.51684 0.23866 0.06932 0.0
Zn84 Zn 0.53402 0.23715 0.49023 0.0
Zn85 Zn 0.60033 0.25378 0.4944 0.0
O86 O 0.58716 0.22166 0.55399 0.0
O87 O 0.53418 0.20163 0.54634 0.0
O88 O 0.65205 0.25821 0.49784 0.0
O89 O 0.53862 0.21082 0.42856 0.0
O90 O 0.59301 0.22555 0.43096 0.0
C91 C 0.56092 0.20261 0.56936 0.0
C92 C 0.55 0.32675 0.49718 0.0
O93 O 0.58084 0.3144 0.49621 0.0
O94 O 0.52611 0.30026 0.4959 0.0
C95 C 0.66898 0.29004 0.4843 0.0
O96 O 0.65295 0.32286 0.46782 0.0
C97 C 0.56769 0.21062 0.40981 0.0
Zn98 Zn 0.56288 0.73857 0.51448 0.0
Zn99 Zn 0.49539 0.73276 0.50281 0.0
O100 O 0.50214 0.76567 0.56342 0.0
O101 O 0.55716 0.77377 0.57065 0.0
O102 O 0.44384 0.73431 0.49691 0.0
O103 O 0.56856 0.76622 0.4536 0.0
O104 O 0.51351 0.76077 0.44327 0.0
C105 C 0.52726 0.78 0.58537 0.0
C106 C 0.53795 0.65255 0.51422 0.0
O107 O 0.50917 0.6696 0.50678 0.0
O108 O 0.56396 0.67508 0.51959 0.0
C109 C 0.42518 0.72212 0.53019 0.0
O110 O 0.4395 0.7066 0.56669 0.0
C111 C 0.5429 0.77183 0.42907 0.0
H112 H 0.08348 0.88184 -0.00622 0.0
C113 C 0.05698 0.87262 -0.00466 0.0
H114 H 1.00635 0.89451 -0.00027 0.0
H115 H 0.05913 0.06811 0.08528 0.0
H116 H 0.045 0.03121 0.1556 0.0
H117 H 1.02944 0.9559 0.15431 0.0
H118 H 1.02804 0.91698 0.08273 0.0
C119 C 1.03299 0.90268 -0.00306 0.0
C120 C 1.04251 0.94801 -0.00248 0.0
C121 C 1.04272 0.97036 0.03952 0.0
C122 C 0.05118 0.0139 0.04019 0.0
C123 C 0.05204 0.03525 0.08276 0.0
C124 C 0.04421 0.01438 0.12337 0.0
C125 C 1.03549 0.97197 0.12265 0.0
C126 C 1.03476 0.95003 0.08133 0.0
H127 H 1.01 0.09009 0.01291 0.0
C128 C 1.03399 0.10576 0.00592 0.0
H129 H 0.08586 0.09643 -0.01067 0.0
H130 H 0.04558 0.91398 0.91138 0.0
H131 H 0.06097 0.95053 0.84138 0.0
H132 H 0.07565 0.02612 0.84259 0.0
H133 H 0.07508 0.06564 0.91389 0.0
C134 C 0.06176 0.08204 -0.00164 0.0
C135 C 0.05873 0.03521 -0.00127 0.0
C136 C 0.05995 0.01241 0.95697 0.0
C137 C 0.05164 0.96877 0.95631 0.0
C138 C 0.05205 0.94704 0.91392 0.0
C139 C 0.06073 0.96767 0.87346 0.0
C140 C 0.06897 0.01024 0.87414 0.0
C141 C 0.06852 0.03255 0.91528 0.0
H142 H 1.02882 0.92447 0.47793 0.0
C143 C 0.05359 0.91249 0.48747 0.0
H144 H 0.10223 0.9293 0.51032 0.0
H145 H 1.03674 0.10337 0.41553 0.0
H146 H 0.04635 0.06684 0.3434 0.0
H147 H 0.06742 0.99341 0.34164 0.0
H148 H 0.07892 0.95601 0.412 0.0
C149 C 0.07774 0.94015 0.49855 0.0
C150 C 0.06977 0.98622 0.4991 0.0
C151 C 0.0636 0.00784 0.45764 0.0
C152 C 0.05192 0.05038 0.45863 0.0
C153 C 0.0457 0.07107 0.41674 0.0
C154 C 0.05115 0.0505 0.37509 0.0
C155 C 0.06297 0.00913 0.3741 0.0
C156 C 0.06924 0.98794 0.41476 0.0
H157 H 0.08403 0.13934 0.51519 0.0
C158 C 0.05772 0.14745 0.50881 0.0
H159 H 1.00939 0.12343 0.4933 0.0
H160 H 0.08115 0.95488 0.58454 0.0
H161 H 0.07285 0.99201 0.65659 0.0
H162 H 0.05243 0.06573 0.65832 0.0
H163 H 1.04014 0.10277 0.58804 0.0
C164 C 1.03551 0.11634 0.50167 0.0
C165 C 0.04708 0.07154 0.501 0.0
C166 C 0.05419 0.05036 0.54242 0.0
C167 C 0.06574 0.00774 0.54143 0.0
C168 C 0.07232 0.98723 0.58331 0.0
C169 C 0.06766 0.00817 0.62491 0.0
C170 C 0.05619 0.04969 0.62589 0.0
C171 C 0.04939 0.07065 0.58526 0.0
H172 H 0.57905 0.61858 0.00465 0.0
C173 C 0.55594 0.63702 0.00114 0.0
H174 H 0.50288 0.63498 -0.00782 0.0
H175 H 0.51151 0.44875 0.91001 0.0
H176 H 0.50074 0.489 0.84145 0.0
H177 H 0.50012 0.56684 0.84331 0.0
H178 H 0.51052 0.6049 0.91377 0.0
C179 C 0.5261 0.61714 -0.00284 0.0
C180 C 0.52402 0.57029 -0.00291 0.0
C181 C 0.51692 0.54853 0.95596 0.0
C182 C 0.51684 0.50362 0.95504 0.0
C183 C 0.5112 0.48276 0.91298 0.0
C184 C 0.50511 0.5055 0.87326 0.0
C185 C 0.50478 0.54933 0.87429 0.0
C186 C 0.51073 0.57077 0.915 0.0
H187 H 0.47583 0.41974 -0.01465 0.0
C188 C 0.50132 0.40734 -0.01058 0.0
H189 H 0.55285 0.42179 -0.0004 0.0
H190 H 0.53395 0.60239 0.08289 0.0
H191 H 0.54351 0.56227 0.15195 0.0
H192 H 0.54389 0.48441 0.15032 0.0
H193 H 0.5345 0.44623 0.07964 0.0
C194 C 0.52748 0.43401 -0.0059 0.0
C195 C 0.5233 0.48066 -0.00446 0.0
C196 C 0.52908 0.50251 0.03705 0.0
C197 C 0.52922 0.54737 0.03791 0.0
C198 C 0.53432 0.56834 0.08007 0.0
C199 C 0.53965 0.5457 0.12004 0.0
C200 C 0.53984 0.50187 0.11913 0.0
C201 C 0.53456 0.48036 0.07828 0.0
H202 H 0.51415 0.37981 0.50397 0.0
C203 C 0.54088 0.37187 0.50005 0.0
H204 H 0.59027 0.39638 0.49154 0.0
H205 H 0.52887 0.56908 0.41571 0.0
H206 H 0.54734 0.53612 0.34447 0.0
H207 H 0.56798 0.4625 0.34296 0.0
H208 H 0.57042 0.4214 0.4127 0.0
C209 C 0.56354 0.40316 0.4973 0.0
C210 C 0.55193 0.44794 0.49865 0.0
C211 C 0.5507 0.47152 0.45763 0.0
C212 C 0.53867 0.51393 0.45847 0.0
C213 C 0.53777 0.53676 0.417 0.0
C214 C 0.54826 0.51822 0.37587 0.0
C215 C 0.55989 0.47676 0.37502 0.0
C216 C 0.56115 0.45353 0.4153 0.0
H217 H 0.56662 0.59464 0.52824 0.0
C218 C 0.54237 0.60638 0.51638 0.0
H219 H 0.49567 0.5892 0.48744 0.0
H220 H 0.55183 0.412 0.58365 0.0
H221 H 0.53206 0.44443 0.65451 0.0
H222 H 0.50991 0.51739 0.65557 0.0
H223 H 0.5075 0.55843 0.58572 0.0
C224 C 0.5194 0.57858 0.50184 0.0
C225 C 0.52824 0.53282 0.50041 0.0
C226 C 0.52888 0.509 0.54131 0.0
C227 C 0.54099 0.46663 0.54052 0.0
C228 C 0.5422 0.44398 0.58211 0.0
C229 C 0.53107 0.46228 0.62307 0.0
C230 C 0.51866 0.50339 0.62368 0.0
C231 C 0.51754 0.52664 0.58341 0.0
H232 H 1.00055 0.30536 0.13998 0.0
C233 C 1.02519 0.29653 0.12558 0.0
H234 H 0.0767 0.28551 0.13993 0.0
H235 H 1.01097 0.38998 0.32102 0.0
H236 H 1.01456 0.45221 0.27284 0.0
H237 H 1.03323 0.44634 0.19215 0.0
H238 H 0.04845 0.37813 0.15908 0.0
C239 C 0.05225 0.29681 0.15258 0.0
C240 C 0.04683 0.30204 0.20258 0.0
C241 C 1.03852 0.34208 0.22143 0.0
C242 C 1.02828 0.34554 0.2681 0.0
C243 C 1.01944 0.38576 0.28594 0.0
C244 C 1.02127 0.42165 0.25863 0.0
C245 C 1.03173 0.41833 0.21315 0.0
C246 C 1.04025 0.37906 0.19456 0.0
H247 H 0.06337 0.33858 0.36261 0.0
C248 C 1.03988 0.32451 0.37501 0.0
H249 H 0.99444 0.295 0.35626 0.0
H250 H 0.06312 0.22085 0.17748 0.0
H251 H 0.06139 0.15913 0.22611 0.0
H252 H 0.04409 0.16512 0.30728 0.0
H253 H 1.02822 0.23277 0.34016 0.0
C254 C 1.01693 0.31181 0.34477 0.0
C255 C 1.02666 0.30894 0.29568 0.0
C256 C 1.03602 0.26904 0.27715 0.0
C257 C 0.04628 0.26563 0.23056 0.0
C258 C 0.05523 0.22535 0.21275 0.0
C259 C 0.05439 0.18961 0.24029 0.0
C260 C 0.04463 0.19297 0.28596 0.0
C261 C 1.03554 0.23209 0.30437 0.0
H262 H 0.10027 0.7225 0.3549 0.0
C263 C 0.07497 0.72095 0.37 0.0
H264 H 1.0236 0.70542 0.35936 0.0
H265 H 0.06699 0.76276 0.15214 0.0
H266 H 0.06875 0.83302 0.18472 0.0
H267 H 0.06187 0.84406 0.26785 0.0
H268 H 0.05382 0.78492 0.31878 0.0
C269 C 0.04898 0.70763 0.34467 0.0
C270 C 0.05274 0.70086 0.29467 0.0
C271 C 0.05638 0.73618 0.26532 0.0
C272 C 0.05893 0.73 0.21733 0.0
C273 C 0.06392 0.76562 0.18882 0.0
C274 C 0.06511 0.80621 0.20706 0.0
C275 C 0.06134 0.81241 0.25384 0.0
C276 C 0.05696 0.778 0.28277 0.0
H277 H 1.0057 0.69816 0.14043 0.0
C278 C 1.03007 0.69306 0.1234 0.0
H279 H 0.08204 0.67917 0.13225 0.0
H280 H 0.04575 0.62683 0.34148 0.0
H281 H 1.04207 0.5565 0.30839 0.0
H282 H 0.0448 0.5461 0.22477 0.0
H283 H 0.05129 0.60601 0.17361 0.0
C284 C 0.05726 0.68329 0.14839 0.0
C285 C 0.05616 0.6888 0.1987 0.0
C286 C 0.05239 0.65359 0.22789 0.0
C287 C 0.05069 0.65963 0.27606 0.0
C288 C 0.04699 0.62395 0.30461 0.0
C289 C 0.0449 0.58347 0.28607 0.0
C290 C 0.04645 0.57761 0.23897 0.0
C291 C 0.05015 0.61218 0.21001 0.0
H292 H 1.0198 0.71968 0.62663 0.0
C293 C 0.04562 0.72865 0.61764 0.0
H294 H 0.09453 0.74009 0.64273 0.0
H295 H 1.03339 0.7889 0.83737 0.0
H296 H 0.05385 0.85625 0.80999 0.0
H297 H 0.07632 0.86375 0.7313 0.0
H298 H 0.07874 0.80381 0.67973 0.0
C299 C 0.06905 0.72901 0.65025 0.0
C300 C 0.05836 0.72301 0.69874 0.0
C301 C 0.05709 0.75848 0.7284 0.0
C302 C 0.04366 0.75428 0.77348 0.0
C303 C 1.04294 0.79022 0.80255 0.0
C304 C 0.05466 0.82917 0.78731 0.0
C305 C 0.06734 0.83338 0.74305 0.0
C306 C 0.06858 0.79862 0.71379 0.0
H307 H 0.06317 0.67724 0.85608 0.0
C308 C 1.04037 0.69362 0.86789 0.0
H309 H 0.9981 0.72962 0.84814 0.0
H310 H 0.06001 0.64812 0.65192 0.0
H311 H 1.0389 0.58066 0.67904 0.0
H312 H 1.01376 0.57395 0.75643 0.0
H313 H 1.00977 0.63464 0.80731 0.0
C314 C 1.01961 0.71045 0.83698 0.0
C315 C 1.03161 0.71458 0.78883 0.0
C316 C 1.03318 0.67904 0.75937 0.0
C317 C 0.04689 0.68316 0.71437 0.0
C318 C 0.049 0.64694 0.68599 0.0
C319 C 1.03716 0.60801 0.70123 0.0
C320 C 1.02308 0.60421 0.74486 0.0
C321 C 1.02105 0.63921 0.77376 0.0
H322 H 0.9892 0.29607 0.8663 0.0
C323 C 1.01499 0.29058 0.8775 0.0
H324 H 0.06645 0.28731 0.85701 0.0
H325 H 1.02081 0.23557 0.65747 0.0
H326 H 0.04349 0.16954 0.68532 0.0
H327 H 0.06154 0.16262 0.76527 0.0
H328 H 0.05719 0.22183 0.81771 0.0
C329 C 1.04065 0.29494 0.84745 0.0
C330 C 1.03301 0.301 0.79842 0.0
C331 C 1.03584 0.26604 0.76824 0.0
C332 C 1.02515 0.26993 0.72236 0.0
C333 C 1.0283 0.23446 0.69284 0.0
C334 C 1.04131 0.19627 0.70835 0.0
C335 C 0.05149 0.19239 0.75334 0.0
C336 C 0.04883 0.22669 0.78309 0.0
H337 H 0.04773 0.34695 0.64309 0.0
C338 C 1.0264 0.3299 0.62906 0.0
H339 H 0.98339 0.29326 0.64459 0.0
H340 H 1.02645 0.37469 0.84677 0.0
H341 H 1.00359 0.441 0.81894 0.0
H342 H 0.98407 0.44739 0.73955 0.0
H343 H 0.98733 0.38749 0.68742 0.0
C344 C 1.00343 0.31308 0.65775 0.0
C345 C 1.01195 0.30893 0.70671 0.0
C346 C 1.00949 0.34402 0.73669 0.0
C347 C 1.0202 0.34011 0.78263 0.0
C348 C 1.01802 0.37578 0.81179 0.0
C349 C 1.00512 0.41403 0.79618 0.0
C350 C 0.99418 0.41765 0.75144 0.0
C351 C 0.99628 0.38313 0.72186 0.0
H352 H 0.53141 0.83223 0.14187 0.0
C353 C 0.55525 0.81744 0.13141 0.0
H354 H 0.59847 0.7848 0.15383 0.0
H355 H 0.53235 0.8676 0.34643 0.0
H356 H 0.55224 0.93519 0.31797 0.0
H357 H 0.57773 0.94117 0.24071 0.0
H358 H 0.58334 0.87961 0.1913 0.0
C359 C 0.57596 0.80278 0.16359 0.0
C360 C 0.56319 0.79933 0.21147 0.0
C361 C 0.56058 0.83542 0.24003 0.0
C362 C 0.5466 0.83177 0.28494 0.0
C363 C 0.54356 0.86847 0.31245 0.0
C364 C 0.5547 0.90745 0.29644 0.0
C365 C 0.56898 0.91084 0.25289 0.0
C366 C 0.57195 0.87534 0.22484 0.0
H367 H 0.57431 0.79736 0.37329 0.0
C368 C 0.54862 0.78799 0.38253 0.0
H369 H 0.4999 0.7749 0.35775 0.0
H370 H 0.56318 0.72411 0.16459 0.0
H371 H 0.5435 0.65675 0.19308 0.0
H372 H 0.52033 0.65017 0.27152 0.0
H373 H 0.51644 0.711 0.32174 0.0
C374 C 0.52519 0.78648 0.34997 0.0
C375 C 0.5358 0.7919 0.30135 0.0
C376 C 0.53786 0.75594 0.27245 0.0
C377 C 0.55164 0.75963 0.2275 0.0
C378 C 0.55327 0.72318 0.19926 0.0
C379 C 0.54202 0.68423 0.21514 0.0
C380 C 0.52895 0.68053 0.25927 0.0
C381 C 0.52687 0.7158 0.28775 0.0
H382 H 0.59475 0.20654 0.34321 0.0
C383 C 0.57106 0.19941 0.36092 0.0
H384 H 0.51974 0.18223 0.35396 0.0
H385 H 0.51822 0.28736 0.16955 0.0
H386 H 0.49784 0.34063 0.2227 0.0
H387 H 0.49715 0.32749 0.30573 0.0
H388 H 0.51732 0.26109 0.33599 0.0
C389 C 0.54387 0.18796 0.33677 0.0
C390 C 0.54307 0.19421 0.2866 0.0
C391 C 0.52995 0.23262 0.26937 0.0
C392 C 0.52947 0.23972 0.22148 0.0
C393 C 0.51811 0.27945 0.20543 0.0
C394 C 0.50653 0.31057 0.23565 0.0
C395 C 0.5062 0.30321 0.28237 0.0
C396 C 0.51783 0.26486 0.29925 0.0
H397 H 0.49005 0.21426 0.13073 0.0
C398 C 0.51485 0.22042 0.11562 0.0
H399 H 0.56777 0.2214 0.12603 0.0
H400 H 0.56872 0.11695 0.30884 0.0
H401 H 0.58857 0.06271 0.25563 0.0
H402 H 0.58676 0.07429 0.17234 0.0
H403 H 0.56507 0.14009 0.14163 0.0
C404 C 0.54279 0.21616 0.14101 0.0
C405 C 0.54106 0.2077 0.19088 0.0
C406 C 0.55379 0.16911 0.20817 0.0
C407 C 0.55481 0.16237 0.25617 0.0
C408 C 0.56752 0.12358 0.27263 0.0
C409 C 0.57894 0.09225 0.2425 0.0
C410 C 0.57793 0.09878 0.19559 0.0
C411 C 0.56551 0.13669 0.17841 0.0
H412 H 0.57008 0.21794 0.86009 0.0
C413 C 0.54328 0.2229 0.86769 0.0
H414 H 0.4944 0.22642 0.83987 0.0
H415 H 0.55894 0.28264 0.64968 0.0
H416 H 0.53367 0.34803 0.67675 0.0
H417 H 0.50826 0.3532 0.75415 0.0
H418 H 0.50778 0.29287 0.80477 0.0
C419 C 0.52101 0.21898 0.8339 0.0
C420 C 0.5337 0.21413 0.78602 0.0
C421 C 0.53373 0.24974 0.75684 0.0
C422 C 0.54875 0.24688 0.71247 0.0
C423 C 0.54825 0.28298 0.68395 0.0
C424 C 0.53376 0.32081 0.69901 0.0
C425 C 0.51943 0.32371 0.74255 0.0
C426 C 0.51935 0.28876 0.77127 0.0
H427 H 0.53637 0.17013 0.62697 0.0
C428 C 0.55868 0.18815 0.61706 0.0
H429 H 0.59828 0.22636 0.64054 0.0
H430 H 0.53565 0.13935 0.83219 0.0
H431 H 0.56105 0.07362 0.80516 0.0
H432 H 0.58819 0.06903 0.72872 0.0
H433 H 0.59004 0.13014 0.67872 0.0
C434 C 0.57749 0.20555 0.64981 0.0
C435 C 0.56356 0.2083 0.69726 0.0
C436 C 0.56312 0.17252 0.72617 0.0
C437 C 0.54801 0.17539 0.77057 0.0
C438 C 0.5474 0.13904 0.79852 0.0
C439 C 0.56174 0.10113 0.78334 0.0
C440 C 0.57697 0.09853 0.74025 0.0
C441 C 0.57776 0.13373 0.71185 0.0
H442 H 0.59407 0.81906 0.8601 0.0
C443 C 0.56964 0.82242 0.87745 0.0
H444 H 0.51727 0.83425 0.86973 0.0
H445 H 0.55312 0.89195 0.66129 0.0
H446 H 0.55876 0.9614 0.69593 0.0
H447 H 0.55713 0.97015 0.77979 0.0
H448 H 0.54981 0.90944 0.82965 0.0
C449 C 0.54203 0.83189 0.85314 0.0
C450 C 0.54274 0.82743 0.80272 0.0
C451 C 0.54708 0.86307 0.7743 0.0
C452 C 0.54813 0.85798 0.72599 0.0
C453 C 0.55235 0.8941 0.69822 0.0
C454 C 0.55555 0.93408 0.71765 0.0
C455 C 0.55463 0.93901 0.7649 0.0
C456 C 0.55044 0.904 0.79309 0.0
H457 H 0.49663 0.79741 0.64646 0.0
C458 C 0.52183 0.79884 0.63104 0.0
H459 H 0.57344 0.81337 0.64128 0.0
H460 H 0.53105 0.75293 0.84781 0.0
H461 H 0.52729 0.68344 0.81369 0.0
H462 H 0.53298 0.67387 0.73022 0.0
H463 H 0.54181 0.73369 0.68051 0.0
C464 C 0.54814 0.81138 0.65626 0.0
C465 C 0.5449 0.81724 0.70646 0.0
C466 C 0.54079 0.78146 0.73506 0.0
C467 C 0.53888 0.78674 0.78321 0.0
C468 C 0.53352 0.75072 0.81101 0.0
C469 C 0.53123 0.71057 0.79189 0.0
C470 C 0.53433 0.7052 0.74492 0.0
C471 C 0.53915 0.74003 0.7167 0.0
H472 H 0.36589 0.2333 0.96583 0.0
C473 C 0.36986 0.25927 -0.01052 0.0
H474 H 0.34695 0.30146 0.03672 0.0
H475 H 0.21438 0.23616 0.91692 0.0
H476 H 0.24139 0.26965 0.85161 0.0
H477 H 0.29849 0.30017 0.85746 0.0
H478 H 0.3292 0.2967 0.92839 0.0
C479 C 0.34305 0.27639 0.01195 0.0
C480 C 0.30795 0.25921 0.00797 0.0
C481 C 0.28979 0.26282 0.96664 0.0
C482 C 0.25615 0.24685 0.96384 0.0
C483 C 0.23938 0.2491 0.9215 0.0
C484 C 0.25468 0.26804 0.88363 0.0
C485 C 0.28688 0.2851 0.88688 0.0
C486 C 0.30432 0.28266 0.92779 0.0
H487 H 0.18201 0.27199 -0.00847 0.0
C488 C 0.17779 0.23839 -0.00388 0.0
H489 H 0.20068 0.17903 0.00695 0.0
H490 H 0.33547 0.24629 0.09208 0.0
H491 H 0.30773 0.21496 0.15808 0.0
H492 H 0.2488 0.19001 0.15412 0.0
H493 H 0.21727 0.19602 0.08407 0.0
C494 C 0.20463 0.21246 0.00083 0.0
C495 C 0.24012 0.22876 0.00286 0.0
C496 C 0.25824 0.22536 0.04419 0.0
C497 C 0.2921 0.24044 0.0467 0.0
C498 C 0.30957 0.23604 0.08836 0.0
C499 C 0.29399 0.21798 0.12653 0.0
C500 C 0.26083 0.20387 0.12429 0.0
C501 C 0.24305 0.20744 0.08375 0.0
H502 H 0.72312 0.70208 -0.01155 0.0
C503 C 0.70965 0.73143 -0.00433 0.0
H504 H 0.71457 0.79651 0.00959 0.0
H505 H 0.86552 0.78629 0.07802 0.0
H506 H 0.83507 0.8055 0.14773 0.0
H507 H 0.77262 0.80684 0.15047 0.0
H508 H 0.74018 0.78924 0.08346 0.0
C509 C 0.72754 0.76705 0.00143 0.0
C510 C 0.76548 0.76685 -0.00085 0.0
C511 C 0.78417 0.77697 0.03869 0.0
C512 C 0.82027 0.77558 0.0373 0.0
C513 C 0.83813 0.78628 0.07727 0.0
C514 C 0.82098 0.79746 0.11752 0.0
C515 C 0.78581 0.79827 0.11904 0.0
C516 C 0.7675 0.78814 0.08026 0.0
H517 H 0.88285 0.81133 0.94993 0.0
C518 C 0.89503 0.7877 0.971 0.0
H519 H 0.88751 0.73828 0.01824 0.0
H520 H 0.73815 0.75216 0.91509 0.0
H521 H 0.76844 0.73071 0.84612 0.0
H522 H 0.83056 0.72225 0.84554 0.0
H523 H 0.86282 0.73614 0.9136 0.0
C524 C 0.87568 0.76119 -0.00407 0.0
C525 C 0.83781 0.76387 -0.00357 0.0
C526 C 0.81913 0.75378 0.95681 0.0
C527 C 0.78306 0.75639 0.95784 0.0
C528 C 0.76534 0.74872 0.91695 0.0
C529 C 0.78245 0.7367 0.87695 0.0
C530 C 0.81744 0.73211 0.87657 0.0
C531 C 0.83568 0.74048 0.91589 0.0
H532 H 0.22445 0.82998 0.47634 0.0
C533 C 0.20886 0.8047 0.49009 0.0
H534 H 0.20884 0.74324 0.51775 0.0
H535 H 0.35301 0.69468 0.43443 0.0
H536 H 0.31622 0.65537 0.3843 0.0
H537 H 0.25426 0.66549 0.38806 0.0
H538 H 0.22863 0.71491 0.44204 0.0
C539 C 0.22403 0.7697 0.50604 0.0
C540 C 0.26169 0.76422 0.5037 0.0
C541 C 0.27638 0.73525 0.47195 0.0
C542 C 0.31221 0.72966 0.46948 0.0
C543 C 0.32603 0.70038 0.43752 0.0
C544 C 0.3052 0.67757 0.40857 0.0
C545 C 0.27031 0.68325 0.41071 0.0
C546 C 0.25592 0.71169 0.44192 0.0
H547 H 0.3737 0.71635 0.55987 0.0
C548 C 0.38786 0.72736 0.53008 0.0
H549 H 0.38453 0.75704 0.46575 0.0
H550 H 0.24201 0.82007 0.57066 0.0
H551 H 0.27883 0.86084 0.61929 0.0
H552 H 0.34094 0.85377 0.61246 0.0
H553 H 0.36663 0.80551 0.55743 0.0
C554 C 0.37105 0.74659 0.49629 0.0
C555 C 0.33345 0.75287 0.49891 0.0
C556 C 0.31879 0.78223 0.53037 0.0
C557 C 0.28291 0.78743 0.53322 0.0
C558 C 0.26904 0.81574 0.56615 0.0
C559 C 0.28989 0.83922 0.59443 0.0
C560 C 0.32486 0.83516 0.59067 0.0
C561 C 0.33927 0.80712 0.55907 0.0
H562 H 0.71926 0.31969 0.47649 0.0
C563 C 0.70649 0.29074 0.48641 0.0
H564 H 0.713 0.22749 0.50715 0.0
H565 H 0.863 0.21055 0.42913 0.0
H566 H 0.83235 0.16952 0.37338 0.0
H567 H 0.76989 0.16887 0.37401 0.0
H568 H 0.73763 0.20914 0.43051 0.0
C569 C 0.72522 0.25723 0.499 0.0
C570 C 0.76315 0.25851 0.49845 0.0
C571 C 0.78176 0.23491 0.46517 0.0
C572 C 0.81787 0.23566 0.46449 0.0
C573 C 0.83562 0.2115 0.43097 0.0
C574 C 0.81834 0.18773 0.39879 0.0
C575 C 0.78317 0.18732 0.39918 0.0
C576 C 0.76497 0.21055 0.43186 0.0
H577 H 0.87874 0.22923 0.55867 0.0
C578 C 0.89186 0.24341 0.52965 0.0
H579 H 0.88614 0.27396 0.4662 0.0
H580 H 0.73576 0.30464 0.56927 0.0
H581 H 0.76627 0.34764 0.62336 0.0
H582 H 0.82856 0.35241 0.6193 0.0
H583 H 0.86078 0.31367 0.56167 0.0
C584 C 0.87349 0.26056 0.49599 0.0
C585 C 0.83553 0.25995 0.49715 0.0
C586 C 0.8169 0.28404 0.53011 0.0
C587 C 0.78078 0.28269 0.53127 0.0
C588 C 0.76305 0.30556 0.56586 0.0
C589 C 0.78027 0.33023 0.59728 0.0
C590 C 0.81535 0.33281 0.59509 0.0
C591 C 0.83356 0.31014 0.56197 0.0
loop_
_geom_bond_atom_site_label_1
_geom_bond_atom_site_label_2
_geom_bond_distance
_geom_bond_site_symmetry_2
_ccdc_geom_bond_type
Zn0 O3 2.031 1_654 S
Zn0 O5 2.049 . S
Zn0 O10 2.067 1_655 S
Zn1 O2 1.962 1_554 S
Zn1 O4 1.986 . S
Zn1 O6 1.996 . S
Zn1 O9 1.943 . S
O2 Zn1 1.962 1_556 S
O2 C7 1.254 . S
O3 Zn0 2.031 1_456 S
O3 C7 1.269 . S
O4 Zn1 1.986 . S
O4 C11 1.262 . S
O5 Zn0 2.049 . S
O5 C13 1.260 1_655 S
O6 Zn1 1.996 . S
O6 C13 1.257 . S
C7 O2 1.254 . S
C7 O3 1.269 . S
C8 O9 1.249 . S
C8 O10 1.270 . S
O9 Zn1 1.943 . S
O9 C8 1.249 . S
O10 Zn0 2.067 1_455 S
O10 C8 1.270 . S
C11 O4 1.262 . S
C11 O12 1.232 1_554 S
O12 C11 1.232 1_556 S
C13 O5 1.260 1_455 S
C13 O6 1.257 . S
Zn14 O17 2.031 1_454 S
Zn14 O19 2.049 . S
Zn14 O24 2.067 1_455 S
Zn15 O16 1.962 1_554 S
Zn15 O18 1.986 . S
Zn15 O20 1.996 . S
Zn15 O23 1.943 . S
O16 Zn15 1.962 1_556 S
O16 C21 1.254 . S
O17 Zn14 2.031 1_656 S
O17 C21 1.269 . S
O18 Zn15 1.986 . S
O18 C25 1.262 . S
O19 Zn14 2.049 . S
O19 C27 1.260 1_455 S
O20 Zn15 1.996 . S
O20 C27 1.257 . S
C21 O16 1.254 . S
C21 O17 1.269 . S
C22 O23 1.249 . S
C22 O24 1.270 . S
O23 Zn15 1.943 . S
O23 C22 1.249 . S
O24 Zn14 2.067 1_655 S
O24 C22 1.270 . S
C25 O18 1.262 . S
C25 O26 1.232 1_554 S
O26 C25 1.232 1_556 S
C27 O19 1.260 1_655 S
C27 O20 1.257 . S
Zn28 O31 2.031 1_655 S
Zn28 O33 2.049 . S
Zn28 O38 2.067 1_655 S
Zn29 O30 1.962 . S
Zn29 O32 1.986 . S
Zn29 O34 1.996 . S
Zn29 O37 1.943 . S
O30 Zn29 1.962 . S
O30 C35 1.254 . S
O31 Zn28 2.031 1_455 S
O31 C35 1.269 . S
O32 Zn29 1.986 . S
O32 C39 1.262 . S
O33 Zn28 2.049 . S
O33 C41 1.260 1_655 S
O34 Zn29 1.996 . S
O34 C41 1.257 . S
C35 O30 1.254 . S
C35 O31 1.269 . S
C36 O37 1.249 . S
C36 O38 1.270 . S
O37 Zn29 1.943 . S
O37 C36 1.249 . S
O38 Zn28 2.067 1_455 S
O38 C36 1.270 . S
C39 O32 1.262 . S
C39 O40 1.232 . S
O40 C39 1.232 . S
C41 O33 1.260 1_455 S
C41 O34 1.257 . S
Zn42 O45 2.031 1_455 S
Zn42 O47 2.049 . S
Zn42 O52 2.067 1_455 S
Zn43 O44 1.962 . S
Zn43 O46 1.986 . S
Zn43 O48 1.996 . S
Zn43 O51 1.943 . S
O44 Zn43 1.962 . S
O44 C49 1.254 . S
O45 Zn42 2.031 1_655 S
O45 C49 1.269 . S
O46 Zn43 1.986 . S
O46 C53 1.262 . S
O47 Zn42 2.049 . S
O47 C55 1.260 1_455 S
O48 Zn43 1.996 . S
O48 C55 1.257 . S
C49 O44 1.254 . S
C49 O45 1.269 . S
C50 O51 1.249 . S
C50 O52 1.270 . S
O51 Zn43 1.943 . S
O51 C50 1.249 . S
O52 Zn42 2.067 1_655 S
O52 C50 1.270 . S
C53 O46 1.262 . S
C53 O54 1.232 . S
O54 C53 1.232 . S
C55 O47 1.260 1_655 S
C55 O48 1.257 . S
Zn56 O59 2.031 1_554 S
Zn56 O61 2.049 . S
Zn56 O66 2.067 . S
Zn57 O58 1.962 1_554 S
Zn57 O60 1.986 . S
Zn57 O62 1.996 . S
Zn57 O65 1.943 . S
O58 Zn57 1.962 1_556 S
O58 C63 1.254 . S
O59 Zn56 2.031 1_556 S
O59 C63 1.269 . S
O60 Zn57 1.986 . S
O60 C67 1.262 . S
O61 Zn56 2.049 . S
O61 C69 1.260 . S
O62 Zn57 1.996 . S
O62 C69 1.257 . S
C63 O58 1.254 . S
C63 O59 1.269 . S
C64 O65 1.249 . S
C64 O66 1.270 . S
O65 Zn57 1.943 . S
O65 C64 1.249 . S
O66 Zn56 2.067 . S
O66 C64 1.270 . S
C67 O60 1.262 . S
C67 O68 1.232 1_554 S
O68 C67 1.232 1_556 S
C69 O61 1.260 . S
C69 O62 1.257 . S
Zn70 O73 2.031 1_554 S
Zn70 O75 2.049 . S
Zn70 O80 2.067 . S
Zn71 O72 1.962 1_554 S
Zn71 O74 1.986 . S
Zn71 O76 1.996 . S
Zn71 O79 1.943 . S
O72 Zn71 1.962 1_556 S
O72 C77 1.254 . S
O73 Zn70 2.031 1_556 S
O73 C77 1.269 . S
O74 Zn71 1.986 . S
O74 C81 1.262 . S
O75 Zn70 2.049 . S
O75 C83 1.260 . S
O76 Zn71 1.996 . S
O76 C83 1.257 . S
C77 O72 1.254 . S
C77 O73 1.269 . S
C78 O79 1.249 . S
C78 O80 1.270 . S
O79 Zn71 1.943 . S
O79 C78 1.249 . S
O80 Zn70 2.067 . S
O80 C78 1.270 . S
C81 O74 1.262 . S
C81 O82 1.232 1_554 S
O82 C81 1.232 1_556 S
C83 O75 1.260 . S
C83 O76 1.257 . S
Zn84 O87 2.031 . S
Zn84 O89 2.049 . S
Zn84 O94 2.067 . S
Zn85 O86 1.962 . S
Zn85 O88 1.986 . S
Zn85 O90 1.996 . S
Zn85 O93 1.943 . S
O86 Zn85 1.962 . S
O86 C91 1.254 . S
O87 Zn84 2.031 . S
O87 C91 1.269 . S
O88 Zn85 1.986 . S
O88 C95 1.262 . S
O89 Zn84 2.049 . S
O89 C97 1.260 . S
O90 Zn85 1.996 . S
O90 C97 1.257 . S
C91 O86 1.254 . S
C91 O87 1.269 . S
C92 O93 1.249 . S
C92 O94 1.270 . S
O93 Zn85 1.943 . S
O93 C92 1.249 . S
O94 Zn84 2.067 . S
O94 C92 1.270 . S
C95 O88 1.262 . S
C95 O96 1.232 . S
O96 C95 1.232 . S
C97 O89 1.260 . S
C97 O90 1.257 . S
Zn98 O101 2.031 . S
Zn98 O103 2.049 . S
Zn98 O108 2.067 . S
Zn99 O100 1.962 . S
Zn99 O102 1.986 . S
Zn99 O104 1.996 . S
Zn99 O107 1.943 . S
O100 Zn99 1.962 . S
O100 C105 1.254 . S
O101 Zn98 2.031 . S
O101 C105 1.269 . S
O102 Zn99 1.986 . S
O102 C109 1.262 . S
O103 Zn98 2.049 . S
O103 C111 1.260 . S
O104 Zn99 1.996 . S
O104 C111 1.257 . S
C105 O100 1.254 . S
C105 O101 1.269 . S
C106 O107 1.249 . S
C106 O108 1.270 . S
O107 Zn99 1.943 . S
O107 C106 1.249 . S
O108 Zn98 2.067 . S
O108 C106 1.270 . S
C109 O102 1.262 . S
C109 O110 1.232 . S
O110 C109 1.232 . S
C111 O103 1.260 . S
C111 O104 1.257 . S
H112 C113 0.951 . S
C113 H112 0.951 . S
C113 C119 1.265 . S
H114 C119 0.950 . S
H115 C123 0.949 . S
H116 C124 0.950 . S
H117 C125 0.951 1_565 S
H118 C126 0.951 . S
C119 C113 1.265 . S
C119 H114 0.950 . S
C119 C120 1.478 . S
C120 C119 1.478 . S
C120 C121 1.397 . S
C120 C137 1.394 1_554 S
C121 C120 1.397 . S
C121 C122 1.438 1_665 S
C121 C126 1.429 . S
C122 C121 1.438 1_445 S
C122 C123 1.428 . S
C122 C135 1.394 . S
C123 H115 0.949 . S
C123 C122 1.428 . S
C123 C124 1.345 1_455 S
C124 H116 0.950 . S
C124 C123 1.345 1_655 S
C124 C125 1.424 . S
C125 H117 0.951 1_545 S
C125 C124 1.424 . S
C125 C126 1.347 1_545 S
C126 H118 0.951 . S
C126 C121 1.429 . S
C126 C125 1.347 1_565 S
H127 C128 0.951 . S
C128 H127 0.951 . S
C128 C134 1.265 . S
H129 C134 0.950 1_556 S
H130 C138 0.949 . S
H131 C139 0.950 . S
H132 C140 0.951 1_545 S
H133 C141 0.951 . S
C134 C128 1.265 . S
C134 H129 0.950 1_554 S
C134 C135 1.478 . S
C135 C122 1.394 . S
C135 C134 1.478 . S
C135 C136 1.397 1_554 S
C136 C135 1.397 1_556 S
C136 C137 1.438 1_445 S
C136 C141 1.429 . S
C137 C120 1.394 1_556 S
C137 C136 1.438 1_665 S
C137 C138 1.428 . S
C138 H130 0.949 . S
C138 C137 1.428 . S
C138 C139 1.345 1_655 S
C139 H131 0.950 . S
C139 C138 1.345 1_455 S
C139 C140 1.424 . S
C140 H132 0.951 1_565 S
C140 C139 1.424 . S
C140 C141 1.347 1_565 S
C141 H133 0.951 . S
C141 C136 1.429 . S
C141 C140 1.347 1_545 S
H142 C143 0.951 . S
C143 H142 0.951 . S
C143 C149 1.265 . S
H144 C149 0.950 . S
H145 C153 0.949 . S
H146 C154 0.950 . S
H147 C155 0.951 1_565 S
H148 C156 0.951 . S
C149 C143 1.265 . S
C149 H144 0.950 . S
C149 C150 1.478 . S
C150 C149 1.478 . S
C150 C151 1.397 . S
C150 C167 1.394 . S
C151 C150 1.397 . S
C151 C152 1.438 1_465 S
C151 C156 1.429 . S
C152 C151 1.438 1_645 S
C152 C153 1.428 . S
C152 C165 1.394 . S
C153 H145 0.949 . S
C153 C152 1.428 . S
C153 C154 1.345 1_655 S
C154 H146 0.950 . S
C154 C153 1.345 1_455 S
C154 C155 1.424 . S
C155 H147 0.951 1_545 S
C155 C154 1.424 . S
C155 C156 1.347 1_545 S
C156 H148 0.951 . S
C156 C151 1.429 . S
C156 C155 1.347 1_565 S
H157 C158 0.951 . S
C158 H157 0.951 . S
C158 C164 1.265 . S
H159 C164 0.950 . S
H160 C168 0.949 . S
H161 C169 0.950 . S
H162 C170 0.951 1_545 S
H163 C171 0.951 . S
C164 C158 1.265 . S
C164 H159 0.950 . S
C164 C165 1.478 . S
C165 C152 1.394 . S
C165 C164 1.478 . S
C165 C166 1.397 . S
C166 C165 1.397 . S
C166 C167 1.438 1_645 S
C166 C171 1.429 . S
C167 C150 1.394 . S
C167 C166 1.438 1_465 S
C167 C168 1.428 . S
C168 H160 0.949 . S
C168 C167 1.428 . S
C168 C169 1.345 1_455 S
C169 H161 0.950 . S
C169 C168 1.345 1_655 S
C169 C170 1.424 . S
C170 H162 0.951 1_565 S
C170 C169 1.424 . S
C170 C171 1.347 1_565 S
C171 H163 0.951 . S
C171 C166 1.429 . S
C171 C170 1.347 1_545 S
H172 C173 0.951 . S
C173 H172 0.951 . S
C173 C179 1.265 . S
H174 C179 0.950 1_556 S
H175 C183 0.949 . S
H176 C184 0.950 . S
H177 C185 0.951 . S
H178 C186 0.951 . S
C179 C173 1.265 . S
C179 H174 0.950 1_554 S
C179 C180 1.478 . S
C180 C179 1.478 . S
C180 C181 1.397 1_554 S
C180 C197 1.394 . S
C181 C180 1.397 1_556 S
C181 C182 1.438 . S
C181 C186 1.429 . S
C182 C181 1.438 . S
C182 C183 1.428 . S
C182 C195 1.394 1_556 S
C183 H175 0.949 . S
C183 C182 1.428 . S
C183 C184 1.345 . S
C184 H176 0.950 . S
C184 C183 1.345 . S
C184 C185 1.424 . S
C185 H177 0.951 . S
C185 C184 1.424 . S
C185 C186 1.347 . S
C186 H178 0.951 . S
C186 C181 1.429 . S
C186 C185 1.347 . S
H187 C188 0.951 . S
C188 H187 0.951 . S
C188 C194 1.265 . S
H189 C194 0.950 . S
H190 C198 0.949 . S
H191 C199 0.950 . S
H192 C200 0.951 . S
H193 C201 0.951 . S
C194 C188 1.265 . S
C194 H189 0.950 . S
C194 C195 1.478 . S
C195 C182 1.394 1_554 S
C195 C194 1.478 . S
C195 C196 1.397 . S
C196 C195 1.397 . S
C196 C197 1.438 . S
C196 C201 1.429 . S
C197 C180 1.394 . S
C197 C196 1.438 . S
C197 C198 1.428 . S
C198 H190 0.949 . S
C198 C197 1.428 . S
C198 C199 1.345 . S
C199 H191 0.950 . S
C199 C198 1.345 . S
C199 C200 1.424 . S
C200 H192 0.951 . S
C200 C199 1.424 . S
C200 C201 1.347 . S
C201 H193 0.951 . S
C201 C196 1.429 . S
C201 C200 1.347 . S
H202 C203 0.951 . S
C203 H202 0.951 . S
C203 C209 1.265 . S
H204 C209 0.950 . S
H205 C213 0.949 . S
H206 C214 0.950 . S
H207 C215 0.951 . S
H208 C216 0.951 . S
C209 C203 1.265 . S
C209 H204 0.950 . S
C209 C210 1.478 . S
C210 C209 1.478 . S
C210 C211 1.397 . S
C210 C227 1.394 . S
C211 C210 1.397 . S
C211 C212 1.438 . S
C211 C216 1.429 . S
C212 C211 1.438 . S
C212 C213 1.428 . S
C212 C225 1.394 . S
C213 H205 0.949 . S
C213 C212 1.428 . S
C213 C214 1.345 . S
C214 H206 0.950 . S
C214 C213 1.345 . S
C214 C215 1.424 . S
C215 H207 0.951 . S
C215 C214 1.424 . S
C215 C216 1.347 . S
C216 H208 0.951 . S
C216 C211 1.429 . S
C216 C215 1.347 . S
H217 C218 0.951 . S
C218 H217 0.951 . S
C218 C224 1.265 . S
H219 C224 0.950 . S
H220 C228 0.949 . S
H221 C229 0.950 . S
H222 C230 0.951 . S
H223 C231 0.951 . S
C224 C218 1.265 . S
C224 H219 0.950 . S
C224 C225 1.478 . S
C225 C212 1.394 . S
C225 C224 1.478 . S
C225 C226 1.397 . S
C226 C225 1.397 . S
C226 C227 1.438 . S
C226 C231 1.429 . S
C227 C210 1.394 . S
C227 C226 1.438 . S
C227 C228 1.428 . S
C228 H220 0.949 . S
C228 C227 1.428 . S
C228 C229 1.345 . S
C229 H221 0.950 . S
C229 C228 1.345 . S
C229 C230 1.424 . S
C230 H222 0.951 . S
C230 C229 1.424 . S
C230 C231 1.347 . S
C231 H223 0.951 . S
C231 C226 1.429 . S
C231 C230 1.347 . S
H232 C233 0.951 1_655 S
C233 H232 0.951 1_455 S
C233 C239 1.265 . S
H234 C239 0.950 . S
H235 C243 0.949 1_655 S
H236 C244 0.950 . S
H237 C245 0.951 . S
H238 C246 0.951 . S
C239 C233 1.265 . S
C239 H234 0.950 . S
C239 C240 1.478 . S
C240 C239 1.478 . S
C240 C241 1.397 . S
C240 C257 1.394 1_455 S
C241 C240 1.397 . S
C241 C242 1.438 . S
C241 C246 1.429 . S
C242 C241 1.438 . S
C242 C243 1.428 . S
C242 C255 1.394 1_455 S
C243 H235 0.949 1_455 S
C243 C242 1.428 . S
C243 C244 1.345 . S
C244 H236 0.950 . S
C244 C243 1.345 . S
C244 C245 1.424 . S
C245 H237 0.951 . S
C245 C244 1.424 . S
C245 C246 1.347 . S
C246 H238 0.951 . S
C246 C241 1.429 . S
C246 C245 1.347 . S
H247 C248 0.951 1_455 S
C248 H247 0.951 1_655 S
C248 C254 1.265 . S
H249 C254 0.950 . S
H250 C258 0.949 1_455 S
H251 C259 0.950 . S
H252 C260 0.951 . S
H253 C261 0.951 . S
C254 C248 1.265 . S
C254 H249 0.950 . S
C254 C255 1.478 . S
C255 C242 1.394 1_655 S
C255 C254 1.478 . S
C255 C256 1.397 . S
C256 C255 1.397 . S
C256 C257 1.438 . S
C256 C261 1.429 . S
C257 C240 1.394 1_655 S
C257 C256 1.438 . S
C257 C258 1.428 . S
C258 H250 0.949 1_655 S
C258 C257 1.428 . S
C258 C259 1.345 . S
C259 H251 0.950 . S
C259 C258 1.345 . S
C259 C260 1.424 . S
C260 H252 0.951 . S
C260 C259 1.424 . S
C260 C261 1.347 . S
C261 H253 0.951 . S
C261 C256 1.429 . S
C261 C260 1.347 . S
H262 C263 0.951 . S
C263 H262 0.951 . S
C263 C269 1.265 . S
H264 C269 0.950 1_655 S
H265 C273 0.949 . S
H266 C274 0.950 . S
H267 C275 0.951 . S
H268 C276 0.951 . S
C269 C263 1.265 . S
C269 H264 0.950 1_455 S
C269 C270 1.478 . S
C270 C269 1.478 . S
C270 C271 1.397 1_455 S
C270 C287 1.394 . S
C271 C270 1.397 1_655 S
C271 C272 1.438 . S
C271 C276 1.429 . S
C272 C271 1.438 . S
C272 C273 1.428 . S
C272 C285 1.394 . S
C273 H265 0.949 . S
C273 C272 1.428 . S
C273 C274 1.345 . S
C274 H266 0.950 . S
C274 C273 1.345 . S
C274 C275 1.424 . S
C275 H267 0.951 . S
C275 C274 1.424 . S
C275 C276 1.347 . S
C276 H268 0.951 . S
C276 C271 1.429 . S
C276 C275 1.347 . S
H277 C278 0.951 . S
C278 H277 0.951 . S
C278 C284 1.265 . S
H279 C284 0.950 1_455 S
H280 C288 0.949 . S
H281 C289 0.950 . S
H282 C290 0.951 . S
H283 C291 0.951 . S
C284 C278 1.265 . S
C284 H279 0.950 1_655 S
C284 C285 1.478 . S
C285 C272 1.394 . S
C285 C284 1.478 . S
C285 C286 1.397 1_655 S
C286 C285 1.397 1_455 S
C286 C287 1.438 . S
C286 C291 1.429 . S
C287 C270 1.394 . S
C287 C286 1.438 . S
C287 C288 1.428 . S
C288 H280 0.949 . S
C288 C287 1.428 . S
C288 C289 1.345 . S
C289 H281 0.950 . S
C289 C288 1.345 . S
C289 C290 1.424 . S
C290 H282 0.951 . S
C290 C289 1.424 . S
C290 C291 1.347 . S
C291 H283 0.951 . S
C291 C286 1.429 . S
C291 C290 1.347 . S
H292 C293 0.951 1_655 S
C293 H292 0.951 1_455 S
C293 C299 1.265 . S
H294 C299 0.950 . S
H295 C303 0.949 1_655 S
H296 C304 0.950 . S
H297 C305 0.951 . S
H298 C306 0.951 . S
C299 C293 1.265 . S
C299 H294 0.950 . S
C299 C300 1.478 . S
C300 C299 1.478 . S
C300 C301 1.397 . S
C300 C317 1.394 1_455 S
C301 C300 1.397 . S
C301 C302 1.438 . S
C301 C306 1.429 . S
C302 C301 1.438 . S
C302 C303 1.428 . S
C302 C315 1.394 1_455 S
C303 H295 0.949 1_455 S
C303 C302 1.428 . S
C303 C304 1.345 . S
C304 H296 0.950 . S
C304 C303 1.345 . S
C304 C305 1.424 . S
C305 H297 0.951 . S
C305 C304 1.424 . S
C305 C306 1.347 . S
C306 H298 0.951 . S
C306 C301 1.429 . S
C306 C305 1.347 . S
H307 C308 0.951 1_455 S
C308 H307 0.951 1_655 S
C308 C314 1.265 . S
H309 C314 0.950 . S
H310 C318 0.949 1_455 S
H311 C319 0.950 . S
H312 C320 0.951 . S
H313 C321 0.951 . S
C314 C308 1.265 . S
C314 H309 0.950 . S
C314 C315 1.478 . S
C315 C302 1.394 1_655 S
C315 C314 1.478 . S
C315 C316 1.397 . S
C316 C315 1.397 . S
C316 C317 1.438 . S
C316 C321 1.429 . S
C317 C300 1.394 1_655 S
C317 C316 1.438 . S
C317 C318 1.428 . S
C318 H310 0.949 1_655 S
C318 C317 1.428 . S
C318 C319 1.345 . S
C319 H311 0.950 . S
C319 C318 1.345 . S
C319 C320 1.424 . S
C320 H312 0.951 . S
C320 C319 1.424 . S
C320 C321 1.347 . S
C321 H313 0.951 . S
C321 C316 1.429 . S
C321 C320 1.347 . S
H322 C323 0.951 1_655 S
C323 H322 0.951 1_455 S
C323 C329 1.265 . S
H324 C329 0.950 . S
H325 C333 0.949 1_655 S
H326 C334 0.950 . S
H327 C335 0.951 . S
H328 C336 0.951 . S
C329 C323 1.265 . S
C329 H324 0.950 . S
C329 C330 1.478 . S
C330 C329 1.478 . S
C330 C331 1.397 . S
C330 C347 1.394 1_455 S
C331 C330 1.397 . S
C331 C332 1.438 . S
C331 C336 1.429 . S
C332 C331 1.438 . S
C332 C333 1.428 . S
C332 C345 1.394 1_455 S
C333 H325 0.949 1_455 S
C333 C332 1.428 . S
C333 C334 1.345 . S
C334 H326 0.950 . S
C334 C333 1.345 . S
C334 C335 1.424 . S
C335 H327 0.951 . S
C335 C334 1.424 . S
C335 C336 1.347 . S
C336 H328 0.951 . S
C336 C331 1.429 . S
C336 C335 1.347 . S
H337 C338 0.951 1_455 S
C338 H337 0.951 1_655 S
C338 C344 1.265 . S
H339 C344 0.950 . S
H340 C348 0.949 1_455 S
H341 C349 0.950 . S
H342 C350 0.951 . S
H343 C351 0.951 . S
C344 C338 1.265 . S
C344 H339 0.950 . S
C344 C345 1.478 . S
C345 C332 1.394 1_655 S
C345 C344 1.478 . S
C345 C346 1.397 . S
C346 C345 1.397 . S
C346 C347 1.438 . S
C346 C351 1.429 . S
C347 C330 1.394 1_655 S
C347 C346 1.438 . S
C347 C348 1.428 . S
C348 H340 0.949 1_655 S
C348 C347 1.428 . S
C348 C349 1.345 . S
C349 H341 0.950 . S
C349 C348 1.345 . S
C349 C350 1.424 . S
C350 H342 0.951 . S
C350 C349 1.424 . S
C350 C351 1.347 . S
C351 H343 0.951 . S
C351 C346 1.429 . S
C351 C350 1.347 . S
H352 C353 0.951 . S
C353 H352 0.951 . S
C353 C359 1.265 . S
H354 C359 0.950 . S
H355 C363 0.949 . S
H356 C364 0.950 . S
H357 C365 0.951 . S
H358 C366 0.951 . S
C359 C353 1.265 . S
C359 H354 0.950 . S
C359 C360 1.478 . S
C360 C359 1.478 . S
C360 C361 1.397 . S
C360 C377 1.394 . S
C361 C360 1.397 . S
C361 C362 1.438 . S
C361 C366 1.429 . S
C362 C361 1.438 . S
C362 C363 1.428 . S
C362 C375 1.394 . S
C363 H355 0.949 . S
C363 C362 1.428 . S
C363 C364 1.345 . S
C364 H356 0.950 . S
C364 C363 1.345 . S
C364 C365 1.424 . S
C365 H357 0.951 . S
C365 C364 1.424 . S
C365 C366 1.347 . S
C366 H358 0.951 . S
C366 C361 1.429 . S
C366 C365 1.347 . S
H367 C368 0.951 . S
C368 H367 0.951 . S
C368 C374 1.265 . S
H369 C374 0.950 . S
H370 C378 0.949 . S
H371 C379 0.950 . S
H372 C380 0.951 . S
H373 C381 0.951 . S
C374 C368 1.265 . S
C374 H369 0.950 . S
C374 C375 1.478 . S
C375 C362 1.394 . S
C375 C374 1.478 . S
C375 C376 1.397 . S
C376 C375 1.397 . S
C376 C377 1.438 . S
C376 C381 1.429 . S
C377 C360 1.394 . S
C377 C376 1.438 . S
C377 C378 1.428 . S
C378 H370 0.949 . S
C378 C377 1.428 . S
C378 C379 1.345 . S
C379 H371 0.950 . S
C379 C378 1.345 . S
C379 C380 1.424 . S
C380 H372 0.951 . S
C380 C379 1.424 . S
C380 C381 1.347 . S
C381 H373 0.951 . S
C381 C376 1.429 . S
C381 C380 1.347 . S
H382 C383 0.951 . S
C383 H382 0.951 . S
C383 C389 1.265 . S
H384 C389 0.950 . S
H385 C393 0.949 . S
H386 C394 0.950 . S
H387 C395 0.951 . S
H388 C396 0.951 . S
C389 C383 1.265 . S
C389 H384 0.950 . S
C389 C390 1.478 . S
C390 C389 1.478 . S
C390 C391 1.397 . S
C390 C407 1.394 . S
C391 C390 1.397 . S
C391 C392 1.438 . S
C391 C396 1.429 . S
C392 C391 1.438 . S
C392 C393 1.428 . S
C392 C405 1.394 . S
C393 H385 0.949 . S
C393 C392 1.428 . S
C393 C394 1.345 . S
C394 H386 0.950 . S
C394 C393 1.345 . S
C394 C395 1.424 . S
C395 H387 0.951 . S
C395 C394 1.424 . S
C395 C396 1.347 . S
C396 H388 0.951 . S
C396 C391 1.429 . S
C396 C395 1.347 . S
H397 C398 0.951 . S
C398 H397 0.951 . S
C398 C404 1.265 . S
H399 C404 0.950 . S
H400 C408 0.949 . S
H401 C409 0.950 . S
H402 C410 0.951 . S
H403 C411 0.951 . S
C404 C398 1.265 . S
C404 H399 0.950 . S
C404 C405 1.478 . S
C405 C392 1.394 . S
C405 C404 1.478 . S
C405 C406 1.397 . S
C406 C405 1.397 . S
C406 C407 1.438 . S
C406 C411 1.429 . S
C407 C390 1.394 . S
C407 C406 1.438 . S
C407 C408 1.428 . S
C408 H400 0.949 . S
C408 C407 1.428 . S
C408 C409 1.345 . S
C409 H401 0.950 . S
C409 C408 1.345 . S
C409 C410 1.424 . S
C410 H402 0.951 . S
C410 C409 1.424 . S
C410 C411 1.347 . S
C411 H403 0.951 . S
C411 C406 1.429 . S
C411 C410 1.347 . S
H412 C413 0.951 . S
C413 H412 0.951 . S
C413 C419 1.265 . S
H414 C419 0.950 . S
H415 C423 0.949 . S
H416 C424 0.950 . S
H417 C425 0.951 . S
H418 C426 0.951 . S
C419 C413 1.265 . S
C419 H414 0.950 . S
C419 C420 1.478 . S
C420 C419 1.478 . S
C420 C421 1.397 . S
C420 C437 1.394 . S
C421 C420 1.397 . S
C421 C422 1.438 . S
C421 C426 1.429 . S
C422 C421 1.438 . S
C422 C423 1.428 . S
C422 C435 1.394 . S
C423 H415 0.949 . S
C423 C422 1.428 . S
C423 C424 1.345 . S
C424 H416 0.950 . S
C424 C423 1.345 . S
C424 C425 1.424 . S
C425 H417 0.951 . S
C425 C424 1.424 . S
C425 C426 1.347 . S
C426 H418 0.951 . S
C426 C421 1.429 . S
C426 C425 1.347 . S
H427 C428 0.951 . S
C428 H427 0.951 . S
C428 C434 1.265 . S
H429 C434 0.950 . S
H430 C438 0.949 . S
H431 C439 0.950 . S
H432 C440 0.951 . S
H433 C441 0.951 . S
C434 C428 1.265 . S
C434 H429 0.950 . S
C434 C435 1.478 . S
C435 C422 1.394 . S
C435 C434 1.478 . S
C435 C436 1.397 . S
C436 C435 1.397 . S
C436 C437 1.438 . S
C436 C441 1.429 . S
C437 C420 1.394 . S
C437 C436 1.438 . S
C437 C438 1.428 . S
C438 H430 0.949 . S
C438 C437 1.428 . S
C438 C439 1.345 . S
C439 H431 0.950 . S
C439 C438 1.345 . S
C439 C440 1.424 . S
C440 H432 0.951 . S
C440 C439 1.424 . S
C440 C441 1.347 . S
C441 H433 0.951 . S
C441 C436 1.429 . S
C441 C440 1.347 . S
H442 C443 0.951 . S
C443 H442 0.951 . S
C443 C449 1.265 . S
H444 C449 0.950 . S
H445 C453 0.949 . S
H446 C454 0.950 . S
H447 C455 0.951 . S
H448 C456 0.951 . S
C449 C443 1.265 . S
C449 H444 0.950 . S
C449 C450 1.478 . S
C450 C449 1.478 . S
C450 C451 1.397 . S
C450 C467 1.394 . S
C451 C450 1.397 . S
C451 C452 1.438 . S
C451 C456 1.429 . S
C452 C451 1.438 . S
C452 C453 1.428 . S
C452 C465 1.394 . S
C453 H445 0.949 . S
C453 C452 1.428 . S
C453 C454 1.345 . S
C454 H446 0.950 . S
C454 C453 1.345 . S
C454 C455 1.424 . S
C455 H447 0.951 . S
C455 C454 1.424 . S
C455 C456 1.347 . S
C456 H448 0.951 . S
C456 C451 1.429 . S
C456 C455 1.347 . S
H457 C458 0.951 . S
C458 H457 0.951 . S
C458 C464 1.265 . S
H459 C464 0.950 . S
H460 C468 0.949 . S
H461 C469 0.950 . S
H462 C470 0.951 . S
H463 C471 0.951 . S
C464 C458 1.265 . S
C464 H459 0.950 . S
C464 C465 1.478 . S
C465 C452 1.394 . S
C465 C464 1.478 . S
C465 C466 1.397 . S
C466 C465 1.397 . S
C466 C467 1.438 . S
C466 C471 1.429 . S
C467 C450 1.394 . S
C467 C466 1.438 . S
C467 C468 1.428 . S
C468 H460 0.949 . S
C468 C467 1.428 . S
C468 C469 1.345 . S
C469 H461 0.950 . S
C469 C468 1.345 . S
C469 C470 1.424 . S
C470 H462 0.951 . S
C470 C469 1.424 . S
C470 C471 1.347 . S
C471 H463 0.951 . S
C471 C466 1.429 . S
C471 C470 1.347 . S
H472 C473 0.951 . S
C473 H472 0.951 . S
C473 C479 1.265 . S
H474 C479 0.950 . S
H475 C483 0.949 . S
H476 C484 0.950 . S
H477 C485 0.951 . S
H478 C486 0.951 . S
C479 C473 1.265 . S
C479 H474 0.950 . S
C479 C480 1.478 . S
C480 C479 1.478 . S
C480 C481 1.397 1_554 S
C480 C497 1.394 . S
C481 C480 1.397 1_556 S
C481 C482 1.438 . S
C481 C486 1.429 . S
C482 C481 1.438 . S
C482 C483 1.428 . S
C482 C495 1.394 1_556 S
C483 H475 0.949 . S
C483 C482 1.428 . S
C483 C484 1.345 . S
C484 H476 0.950 . S
C484 C483 1.345 . S
C484 C485 1.424 . S
C485 H477 0.951 . S
C485 C484 1.424 . S
C485 C486 1.347 . S
C486 H478 0.951 . S
C486 C481 1.429 . S
C486 C485 1.347 . S
H487 C488 0.951 . S
C488 H487 0.951 . S
C488 C494 1.265 . S
H489 C494 0.950 . S
H490 C498 0.949 . S
H491 C499 0.950 . S
H492 C500 0.951 . S
H493 C501 0.951 . S
C494 C488 1.265 . S
C494 H489 0.950 . S
C494 C495 1.478 . S
C495 C482 1.394 1_554 S
C495 C494 1.478 . S
C495 C496 1.397 . S
C496 C495 1.397 . S
C496 C497 1.438 . S
C496 C501 1.429 . S
C497 C480 1.394 . S
C497 C496 1.438 . S
C497 C498 1.428 . S
C498 H490 0.949 . S
C498 C497 1.428 . S
C498 C499 1.345 . S
C499 H491 0.950 . S
C499 C498 1.345 . S
C499 C500 1.424 . S
C500 H492 0.951 . S
C500 C499 1.424 . S
C500 C501 1.347 . S
C501 H493 0.951 . S
C501 C496 1.429 . S
C501 C500 1.347 . S
H502 C503 0.951 . S
C503 H502 0.951 . S
C503 C509 1.265 . S
H504 C509 0.950 . S
H505 C513 0.949 . S
H506 C514 0.950 . S
H507 C515 0.951 . S
H508 C516 0.951 . S
C509 C503 1.265 . S
C509 H504 0.950 . S
C509 C510 1.478 . S
C510 C509 1.478 . S
C510 C511 1.397 . S
C510 C527 1.394 1_554 S
C511 C510 1.397 . S
C511 C512 1.438 . S
C511 C516 1.429 . S
C512 C511 1.438 . S
C512 C513 1.428 . S
C512 C525 1.394 . S
C513 H505 0.949 . S
C513 C512 1.428 . S
C513 C514 1.345 . S
C514 H506 0.950 . S
C514 C513 1.345 . S
C514 C515 1.424 . S
C515 H507 0.951 . S
C515 C514 1.424 . S
C515 C516 1.347 . S
C516 H508 0.951 . S
C516 C511 1.429 . S
C516 C515 1.347 . S
H517 C518 0.951 . S
C518 H517 0.951 . S
C518 C524 1.265 . S
H519 C524 0.950 . S
H520 C528 0.949 . S
H521 C529 0.950 . S
H522 C530 0.951 . S
H523 C531 0.951 . S
C524 C518 1.265 . S
C524 H519 0.950 . S
C524 C525 1.478 . S
C525 C512 1.394 . S
C525 C524 1.478 . S
C525 C526 1.397 1_554 S
C526 C525 1.397 1_556 S
C526 C527 1.438 . S
C526 C531 1.429 . S
C527 C510 1.394 1_556 S
C527 C526 1.438 . S
C527 C528 1.428 . S
C528 H520 0.949 . S
C528 C527 1.428 . S
C528 C529 1.345 . S
C529 H521 0.950 . S
C529 C528 1.345 . S
C529 C530 1.424 . S
C530 H522 0.951 . S
C530 C529 1.424 . S
C530 C531 1.347 . S
C531 H523 0.951 . S
C531 C526 1.429 . S
C531 C530 1.347 . S
H532 C533 0.951 . S
C533 H532 0.951 . S
C533 C539 1.265 . S
H534 C539 0.950 . S
H535 C543 0.949 . S
H536 C544 0.950 . S
H537 C545 0.951 . S
H538 C546 0.951 . S
C539 C533 1.265 . S
C539 H534 0.950 . S
C539 C540 1.478 . S
C540 C539 1.478 . S
C540 C541 1.397 . S
C540 C557 1.394 . S
C541 C540 1.397 . S
C541 C542 1.438 . S
C541 C546 1.429 . S
C542 C541 1.438 . S
C542 C543 1.428 . S
C542 C555 1.394 . S
C543 H535 0.949 . S
C543 C542 1.428 . S
C543 C544 1.345 . S
C544 H536 0.950 . S
C544 C543 1.345 . S
C544 C545 1.424 . S
C545 H537 0.951 . S
C545 C544 1.424 . S
C545 C546 1.347 . S
C546 H538 0.951 . S
C546 C541 1.429 . S
C546 C545 1.347 . S
H547 C548 0.951 . S
C548 H547 0.951 . S
C548 C554 1.265 . S
H549 C554 0.950 . S
H550 C558 0.949 . S
H551 C559 0.950 . S
H552 C560 0.951 . S
H553 C561 0.951 . S
C554 C548 1.265 . S
C554 H549 0.950 . S
C554 C555 1.478 . S
C555 C542 1.394 . S
C555 C554 1.478 . S
C555 C556 1.397 . S
C556 C555 1.397 . S
C556 C557 1.438 . S
C556 C561 1.429 . S
C557 C540 1.394 . S
C557 C556 1.438 . S
C557 C558 1.428 . S
C558 H550 0.949 . S
C558 C557 1.428 . S
C558 C559 1.345 . S
C559 H551 0.950 . S
C559 C558 1.345 . S
C559 C560 1.424 . S
C560 H552 0.951 . S
C560 C559 1.424 . S
C560 C561 1.347 . S
C561 H553 0.951 . S
C561 C556 1.429 . S
C561 C560 1.347 . S
H562 C563 0.951 . S
C563 H562 0.951 . S
C563 C569 1.265 . S
H564 C569 0.950 . S
H565 C573 0.949 . S
H566 C574 0.950 . S
H567 C575 0.951 . S
H568 C576 0.951 . S
C569 C563 1.265 . S
C569 H564 0.950 . S
C569 C570 1.478 . S
C570 C569 1.478 . S
C570 C571 1.397 . S
C570 C587 1.394 . S
C571 C570 1.397 . S
C571 C572 1.438 . S
C571 C576 1.429 . S
C572 C571 1.438 . S
C572 C573 1.428 . S
C572 C585 1.394 . S
C573 H565 0.949 . S
C573 C572 1.428 . S
C573 C574 1.345 . S
C574 H566 0.950 . S
C574 C573 1.345 . S
C574 C575 1.424 . S
C575 H567 0.951 . S
C575 C574 1.424 . S
C575 C576 1.347 . S
C576 H568 0.951 . S
C576 C571 1.429 . S
C576 C575 1.347 . S
H577 C578 0.951 . S
C578 H577 0.951 . S
C578 C584 1.265 . S
H579 C584 0.950 . S
H580 C588 0.949 . S
H581 C589 0.950 . S
H582 C590 0.951 . S
H583 C591 0.951 . S
C584 C578 1.265 . S
C584 H579 0.950 . S
C584 C585 1.478 . S
C585 C572 1.394 . S
C585 C584 1.478 . S
C585 C586 1.397 . S
C586 C585 1.397 . S
C586 C587 1.438 . S
C586 C591 1.429 . S
C587 C570 1.394 . S
C587 C586 1.438 . S
C587 C588 1.428 . S
C588 H580 0.949 . S
C588 C587 1.428 . S
C588 C589 1.345 . S
C589 H581 0.950 . S
C589 C588 1.345 . S
C589 C590 1.424 . S
C590 H582 0.951 . S
C590 C589 1.424 . S
C590 C591 1.347 . S
C591 H583 0.951 . S
C591 C586 1.429 . S
C591 C590 1.347 . S
C113 C22 1.413 . S
C128 C8 1.404 . S
C143 C36 1.412 . S
C158 C50 1.405 . S
C173 C64 1.480 . S
C188 C78 1.491 . S
C203 C92 1.405 . S
C218 C106 1.412 . S
C233 C13 1.126 . S
C248 C55 1.131 . S
C263 C41 1.251 . S
C278 C27 1.246 . S
C293 C35 1.181 . S
C308 C21 1.182 . S
C323 C7 1.182 . S
C338 C49 1.181 . S
C353 C69 1.128 . S
C368 C111 1.129 . S
C383 C97 1.251 . S
C398 C83 1.246 . S
C413 C77 1.183 . S
C428 C91 1.180 . S
C443 C63 1.180 . S
C458 C105 1.185 . S
C473 C81 1.549 . S
C488 C11 1.545 . S
C503 C67 1.535 . S
C518 C25 1.534 . S
C533 C39 1.535 . S
C548 C109 1.534 . S
C563 C95 1.535 . S
C578 C53 1.535 . S
