# Generated by pormake.
# Topology uol, (4)-cn, num edge types: 1
# Building blocks:
#     Node 0, Type 0, BuildingBlock: KUFVIS_clean_sbu_0, # of connection points: 4
#     Node 1, Type 0, BuildingBlock: KUFVIS_clean_sbu_0, # of connection points: 4
#     Node 2, Type 0, BuildingBlock: KUFVIS_clean_sbu_0, # of connection points: 4
#     Node 3, Type 0, BuildingBlock: KUFVIS_clean_sbu_0, # of connection points: 4
#     Node 4, Type 0, BuildingBlock: KUFVIS_clean_sbu_0, # of connection points: 4
#     Node 5, Type 0, BuildingBlock: KUFVIS_clean_sbu_0, # of connection points: 4
#     Node 6, Type 0, BuildingBlock: KUFVIS_clean_sbu_0, # of connection points: 4
#     Node 7, Type 0, BuildingBlock: KUFVIS_clean_sbu_0, # of connection points: 4
#     Node 8, Type 0, BuildingBlock: KUFVIS_clean_sbu_0, # of connection points: 4
#     Node 9, Type 0, BuildingBlock: KUFVIS_clean_sbu_0, # of connection points: 4
#     Node 10, Type 0, BuildingBlock: KUFVIS_clean_sbu_0, # of connection points: 4
#     Node 11, Type 0, BuildingBlock: KUFVIS_clean_sbu_0, # of connection points: 4
#     Edge 12, Type (0, 0), BuildingBlock: EZIPEK_clean_linker_0, # of connection points: 2
#     Edge 13, Type (0, 0), BuildingBlock: EZIPEK_clean_linker_0, # of connection points: 2
#     Edge 14, Type (0, 0), BuildingBlock: EZIPEK_clean_linker_0, # of connection points: 2
#     Edge 15, Type (0, 0), BuildingBlock: EZIPEK_clean_linker_0, # of connection points: 2
#     Edge 16, Type (0, 0), BuildingBlock: EZIPEK_clean_linker_0, # of connection points: 2
#     Edge 17, Type (0, 0), BuildingBlock: EZIPEK_clean_linker_0, # of connection points: 2
#     Edge 18, Type (0, 0), BuildingBlock: EZIPEK_clean_linker_0, # of connection points: 2
#     Edge 19, Type (0, 0), BuildingBlock: EZIPEK_clean_linker_0, # of connection points: 2
#     Edge 20, Type (0, 0), BuildingBlock: EZIPEK_clean_linker_0, # of connection points: 2
#     Edge 21, Type (0, 0), BuildingBlock: EZIPEK_clean_linker_0, # of connection points: 2
#     Edge 22, Type (0, 0), BuildingBlock: EZIPEK_clean_linker_0, # of connection points: 2
#     Edge 23, Type (0, 0), BuildingBlock: EZIPEK_clean_linker_0, # of connection points: 2
#     Edge 24, Type (0, 0), BuildingBlock: EZIPEK_clean_linker_0, # of connection points: 2
#     Edge 25, Type (0, 0), BuildingBlock: EZIPEK_clean_linker_0, # of connection points: 2
#     Edge 26, Type (0, 0), BuildingBlock: EZIPEK_clean_linker_0, # of connection points: 2
#     Edge 27, Type (0, 0), BuildingBlock: EZIPEK_clean_linker_0, # of connection points: 2
#     Edge 28, Type (0, 0), BuildingBlock: EZIPEK_clean_linker_0, # of connection points: 2
#     Edge 29, Type (0, 0), BuildingBlock: EZIPEK_clean_linker_0, # of connection points: 2
#     Edge 30, Type (0, 0), BuildingBlock: EZIPEK_clean_linker_0, # of connection points: 2
#     Edge 31, Type (0, 0), BuildingBlock: EZIPEK_clean_linker_0, # of connection points: 2
#     Edge 32, Type (0, 0), BuildingBlock: EZIPEK_clean_linker_0, # of connection points: 2
#     Edge 33, Type (0, 0), BuildingBlock: EZIPEK_clean_linker_0, # of connection points: 2
#     Edge 34, Type (0, 0), BuildingBlock: EZIPEK_clean_linker_0, # of connection points: 2
#     Edge 35, Type (0, 0), BuildingBlock: EZIPEK_clean_linker_0, # of connection points: 2
# Relax obj value: 0.137
# Max RMSD: 0.196
# Mean RMSD: 0.196
data_MOF--net-uol--node1-KUFVIS_clean_sbu_0--edge1-EZIPEK_clean_linker_0
_symmetry_space_group_name_H-M    P1
_symmetry_Int_Tables_number       1
_symmetry_cell_setting            triclinic
loop_
_symmetry_equiv_pos_as_xyz
'x, y, z'
_cell_length_a     23.367371
_cell_length_b     23.321706
_cell_length_c     50.33239
_cell_angle_alpha  89.90383
_cell_angle_beta   90.018426
_cell_angle_gamma 119.98179
loop_
_atom_site_label
_atom_site_type_symbol
_atom_site_fract_x
_atom_site_fract_y
_atom_site_fract_z
_atom_type_partial_charge
Mn0 Mn 0.14883 0.33217 0.09807 0.0
Mn1 Mn 0.17899 0.40704 0.15826 0.0
C2 C 0.1931 0.29798 0.13139 0.0
C3 C 0.17947 0.32602 0.0546 0.0
C4 C 0.04215 0.30383 0.13941 0.0
O5 O 0.14476 0.41539 0.09073 0.0
O6 O 0.17751 0.46799 0.13022 0.0
C7 C 0.3144 0.52189 0.1529 0.0
N8 N 0.27133 0.46393 0.16501 0.0
C9 C 0.35293 0.4792 0.19781 0.0
C10 C 0.39863 0.53794 0.18508 0.0
C11 C 0.37921 0.55943 0.16253 0.0
C12 C 0.28922 0.44351 0.18706 0.0
H13 H 0.29893 0.54011 0.13647 0.0
C14 C 0.16107 0.46526 0.10565 0.0
O15 O 0.11795 0.29974 0.06146 0.0
O16 O 0.22339 0.3594 0.07266 0.0
N17 N 0.18212 0.35393 0.18671 0.0
C18 C 0.1332 0.29463 0.19605 0.0
C19 C 0.14633 0.26399 0.21733 0.0
C20 C 0.20839 0.29617 0.22976 0.0
C21 C 0.257 0.3584 0.22057 0.0
C22 C 0.24209 0.38513 0.19847 0.0
H23 H 0.08507 0.26989 0.18688 0.0
O24 O 0.16429 0.26087 0.11092 0.0
O25 O 0.1973 0.35609 0.13152 0.0
O26 O 0.05944 0.29012 0.11741 0.0
O27 O 0.08258 0.34922 0.15492 0.0
C28 C 0.32028 0.39408 0.23203 0.0
C29 C 0.36814 0.45467 0.22074 0.0
H30 H 0.44855 0.56722 0.19257 0.0
H31 H 0.41377 0.60538 0.15286 0.0
H32 H 0.10854 0.21577 0.22423 0.0
H33 H 0.21842 0.27247 0.2462 0.0
H34 H 0.33304 0.37479 0.24923 0.0
H35 H 0.4169 0.48133 0.22952 0.0
Mn36 Mn 0.82014 0.14337 0.26384 0.0
Mn37 Mn 0.7792 0.18291 0.32293 0.0
C38 C 0.89763 0.18451 0.29754 0.0
C39 C 0.85928 0.17475 0.22046 0.0
C40 C 0.73706 0.04177 0.30643 0.0
O41 O 0.73589 0.14413 0.25552 0.0
O42 O 0.71818 0.18062 0.29444 0.0
C43 C 0.80963 0.3205 0.31279 0.0
N44 N 0.81849 0.2765 0.32744 0.0
C45 C 0.88382 0.36033 0.35961 0.0
C46 C 0.87593 0.40667 0.34465 0.0
C47 C 0.83885 0.38669 0.32108 0.0
C48 C 0.85413 0.29525 0.35016 0.0
H49 H 0.77989 0.30496 0.29513 0.0
C50 C 0.70371 0.16256 0.27013 0.0
O51 O 0.82215 0.11287 0.22691 0.0
O52 O 0.87133 0.21796 0.23894 0.0
N53 N 0.83283 0.18675 0.35236 0.0
C54 C 0.83911 0.13699 0.36362 0.0
C55 C 0.87927 0.15024 0.38611 0.0
C56 C 0.90953 0.21343 0.3977 0.0
C57 C 0.90006 0.26305 0.38644 0.0
C58 C 0.86178 0.24771 0.36334 0.0
H59 H 0.81493 0.08793 0.35515 0.0
O60 O 0.90431 0.15361 0.27743 0.0
O61 O 0.84663 0.1933 0.29691 0.0
O62 O 0.76628 0.05412 0.2839 0.0
O63 O 0.73794 0.08664 0.32117 0.0
C64 C 0.92856 0.32764 0.39681 0.0
C65 C 0.9204 0.37626 0.3834 0.0
H66 H 0.89814 0.4577 0.35106 0.0
H67 H 0.8322 0.42205 0.30949 0.0
H68 H 0.88645 0.11164 0.39458 0.0
H69 H 0.9403 0.22345 0.41513 0.0
H70 H 0.95813 0.34084 0.41473 0.0
H71 H 0.94359 0.42609 0.39128 0.0
Mn72 Mn 0.65817 0.81139 0.43167 0.0
Mn73 Mn 0.57828 0.7689 0.49064 0.0
C74 C 0.68652 0.89207 0.46396 0.0
C75 C 0.66048 0.85019 0.38822 0.0
C76 C 0.68787 0.73972 0.47566 0.0
O77 O 0.58046 0.72014 0.42439 0.0
O78 O 0.52366 0.70311 0.46265 0.0
C79 C 0.46332 0.78566 0.47878 0.0
N80 N 0.51784 0.80135 0.49363 0.0
C81 C 0.49519 0.86975 0.52254 0.0
C82 C 0.43933 0.85503 0.50727 0.0
C83 C 0.42337 0.81282 0.48526 0.0
C84 C 0.5335 0.84172 0.51491 0.0
H85 H 0.45006 0.75212 0.46234 0.0
C86 C 0.52999 0.68646 0.43899 0.0
O87 O 0.69462 0.82204 0.39458 0.0
O88 O 0.6218 0.84992 0.40654 0.0
N89 N 0.62456 0.8273 0.51948 0.0
C90 C 0.68071 0.83755 0.53192 0.0
C91 C 0.70483 0.88064 0.55372 0.0
C92 C 0.66936 0.91023 0.56336 0.0
C93 C 0.61045 0.8971 0.55082 0.0
C94 C 0.58981 0.85519 0.52868 0.0
H95 H 0.70767 0.81406 0.52498 0.0
O96 O 0.72456 0.9014 0.44384 0.0
O97 O 0.63047 0.8363 0.4641 0.0
O98 O 0.70386 0.76895 0.45301 0.0
O99 O 0.64063 0.73584 0.48981 0.0
C100 C 0.57193 0.92477 0.55913 0.0
C101 C 0.51443 0.91125 0.54498 0.0
H102 H 0.40825 0.87567 0.5123 0.0
H103 H 0.38004 0.80073 0.47348 0.0
H104 H 0.75075 0.89104 0.563 0.0
H105 H 0.68796 0.94313 0.58031 0.0
H106 H 0.58651 0.9573 0.57612 0.0
H107 H 0.48571 0.93351 0.55139 0.0
Mn108 Mn 0.85827 0.67266 0.59893 0.0
Mn109 Mn 0.83591 0.59945 0.6592 0.0
C110 C 0.80823 0.69979 0.63257 0.0
C111 C 0.81537 0.67127 0.55632 0.0
C112 C 0.9681 0.71292 0.64026 0.0
O113 O 0.87386 0.59627 0.59117 0.0
O114 O 0.84609 0.54441 0.63099 0.0
C115 C 0.70741 0.47621 0.65209 0.0
N116 N 0.74539 0.53417 0.66518 0.0
C117 C 0.65899 0.50797 0.69713 0.0
C118 C 0.6186 0.44862 0.68364 0.0
C119 C 0.64296 0.4327 0.66101 0.0
C120 C 0.72267 0.54958 0.68717 0.0
H121 H 0.72653 0.46282 0.63528 0.0
C122 C 0.86266 0.54811 0.60643 0.0
O123 O 0.87809 0.70737 0.56144 0.0
O124 O 0.7801 0.63265 0.57537 0.0
N125 N 0.8245 0.64668 0.68786 0.0
C126 C 0.86809 0.70765 0.69765 0.0
C127 C 0.84891 0.73349 0.71879 0.0
C128 C 0.78683 0.69483 0.73076 0.0
C129 C 0.744 0.63108 0.72114 0.0
C130 C 0.76447 0.60925 0.69912 0.0
H131 H 0.91633 0.73728 0.68886 0.0
O132 O 0.83287 0.737 0.61184 0.0
O133 O 0.81115 0.64524 0.63277 0.0
O134 O 0.94917 0.72352 0.61779 0.0
O135 O 0.92991 0.66641 0.65597 0.0
C136 C 0.68084 0.58929 0.73192 0.0
C137 C 0.63841 0.52765 0.71996 0.0
H138 H 0.56892 0.41485 0.69052 0.0
H139 H 0.61238 0.38665 0.65064 0.0
H140 H 0.88218 0.78296 0.72596 0.0
H141 H 0.7723 0.71479 0.74717 0.0
H142 H 0.66384 0.60473 0.74904 0.0
H143 H 0.58954 0.49639 0.72816 0.0
Mn144 Mn 0.18911 0.87393 0.76234 0.0
Mn145 Mn 0.22919 0.84026 0.82308 0.0
C146 C 0.10873 0.82792 0.79507 0.0
C147 C 0.15776 0.84345 0.71782 0.0
C148 C 0.26473 0.97848 0.80488 0.0
O149 O 0.2768 0.87829 0.75586 0.0
O150 O 0.29231 0.8427 0.79556 0.0
C151 C 0.20751 0.70458 0.81638 0.0
N152 N 0.19361 0.74752 0.82918 0.0
C153 C 0.12967 0.66538 0.86226 0.0
C154 C 0.14225 0.61997 0.84905 0.0
C155 C 0.18123 0.63965 0.82597 0.0
C156 C 0.15643 0.72915 0.85152 0.0
H157 H 0.2394 0.72015 0.79934 0.0
C158 C 0.308 0.85998 0.77121 0.0
O159 O 0.18872 0.90477 0.72533 0.0
O160 O 0.14482 0.79988 0.7364 0.0
N161 N 0.17212 0.83575 0.8513 0.0
C162 C 0.16148 0.88426 0.86091 0.0
C163 C 0.11847 0.87044 0.8825 0.0
C164 C 0.08963 0.80812 0.89487 0.0
C165 C 0.10411 0.76026 0.88555 0.0
C166 C 0.14478 0.77576 0.86315 0.0
H167 H 0.18419 0.93259 0.85177 0.0
O168 O 0.1012 0.85721 0.77451 0.0
O169 O 0.16253 0.82404 0.79557 0.0
O170 O 0.23618 0.96307 0.78227 0.0
O171 O 0.26744 0.93655 0.82032 0.0
C172 C 0.07829 0.69711 0.89716 0.0
C173 C 0.0914 0.64979 0.88561 0.0
H174 H 0.12244 0.56998 0.8565 0.0
H175 H 0.19186 0.60515 0.81581 0.0
H176 H 0.10797 0.90791 0.88972 0.0
H177 H 0.05623 0.79741 0.91145 0.0
H178 H 0.04714 0.68397 0.91464 0.0
H179 H 0.0704 0.60102 0.89445 0.0
Mn180 Mn 0.32627 0.19139 0.92831 0.0
Mn181 Mn 0.40321 0.23422 0.9876 0.0
C182 C 0.29834 0.10925 0.96014 0.0
C183 C 0.33127 0.16609 0.88341 0.0
C184 C 0.29407 0.26221 0.97097 0.0
O185 O 0.40241 0.28534 0.92291 0.0
O186 O 0.46134 0.29731 0.95974 0.0
C187 C 0.51565 0.21218 0.97783 0.0
N188 N 0.46161 0.19997 0.99241 0.0
C189 C 0.48166 0.13383 0.02367 0.0
C190 C 0.53772 0.14593 0.00906 0.0
C191 C 0.55455 0.18496 0.98596 0.0
C192 C 0.44457 0.16193 0.0145 0.0
H193 H 0.52898 0.24254 0.96016 0.0
C194 C 0.45524 0.3159 0.93643 0.0
O195 O 0.29445 0.18988 0.89133 0.0
O196 O 0.36425 0.15627 0.90186 0.0
N197 N 0.35349 0.17708 0.01634 0.0
C198 C 0.29568 0.16669 0.02724 0.0
C199 C 0.26891 0.12398 0.04912 0.0
C200 C 0.30326 0.09475 0.06032 0.0
C201 C 0.364 0.10837 0.04949 0.0
C202 C 0.38724 0.14969 0.02715 0.0
H203 H 0.26949 0.18974 0.01903 0.0
O204 O 0.26143 0.09908 0.93942 0.0
O205 O 0.35286 0.16634 0.96084 0.0
O206 O 0.27701 0.22853 0.94952 0.0
O207 O 0.34324 0.27099 0.98515 0.0
C208 C 0.40164 0.08129 0.05959 0.0
C209 C 0.46054 0.09414 0.04672 0.0
H210 H 0.56786 0.12504 0.01527 0.0
H211 H 0.59757 0.19428 0.97452 0.0
H212 H 0.22206 0.11394 0.0574 0.0
H213 H 0.28244 0.0617 0.07717 0.0
H214 H 0.38502 0.04938 0.07691 0.0
H215 H 0.48839 0.072 0.05436 0.0
Mn216 Mn 0.6607 0.84819 0.74038 0.0
Mn217 Mn 0.57853 0.80418 0.68171 0.0
C218 C 0.69403 0.80155 0.70772 0.0
C219 C 0.67054 0.82132 0.7843 0.0
C220 C 0.68123 0.94597 0.69549 0.0
O221 O 0.57745 0.85084 0.74853 0.0
O222 O 0.52317 0.81448 0.70965 0.0
C223 C 0.46893 0.67063 0.69566 0.0
N224 N 0.52126 0.71041 0.6799 0.0
C225 C 0.49894 0.61925 0.65108 0.0
C226 C 0.44521 0.5772 0.66723 0.0
C227 C 0.43027 0.60302 0.68966 0.0
C228 C 0.53615 0.68603 0.65828 0.0
H229 H 0.45646 0.69057 0.71244 0.0
C230 C 0.52759 0.83439 0.73372 0.0
O231 O 0.69536 0.88246 0.77672 0.0
O232 O 0.63757 0.77627 0.76665 0.0
N233 N 0.62472 0.79271 0.65267 0.0
C234 C 0.67938 0.83938 0.63961 0.0
C235 C 0.70278 0.82096 0.61742 0.0
C236 C 0.66794 0.75561 0.60801 0.0
C237 C 0.61054 0.70893 0.62124 0.0
C238 C 0.59073 0.72971 0.64377 0.0
H239 H 0.70568 0.89008 0.64634 0.0
O240 O 0.73283 0.83446 0.72724 0.0
O241 O 0.63496 0.7945 0.70826 0.0
O242 O 0.69641 0.93526 0.71869 0.0
O243 O 0.63714 0.90029 0.68104 0.0
C244 C 0.57278 0.64235 0.61323 0.0
C245 C 0.51714 0.59748 0.62819 0.0
H246 H 0.41507 0.52509 0.66257 0.0
H247 H 0.38865 0.57102 0.70215 0.0
H248 H 0.74761 0.85715 0.60762 0.0
H249 H 0.6859 0.74179 0.59072 0.0
H250 H 0.58672 0.6248 0.59588 0.0
H251 H 0.48912 0.54618 0.62206 0.0
Mn252 Mn 0.81798 0.67631 0.90575 0.0
Mn253 Mn 0.77638 0.60288 0.8456 0.0
C254 C 0.89595 0.71523 0.87208 0.0
C255 C 0.85694 0.68168 0.94893 0.0
C256 C 0.73643 0.70132 0.86468 0.0
O257 O 0.73269 0.59002 0.91285 0.0
O258 O 0.71518 0.54121 0.87327 0.0
C259 C 0.81618 0.50265 0.85633 0.0
N260 N 0.81645 0.5497 0.84023 0.0
C261 C 0.88181 0.53332 0.80743 0.0
C262 C 0.87841 0.48158 0.82286 0.0
C263 C 0.84649 0.46701 0.84766 0.0
C264 C 0.85029 0.56674 0.81707 0.0
H265 H 0.79434 0.4936 0.87587 0.0
C266 C 0.70139 0.53948 0.89801 0.0
O267 O 0.8194 0.70615 0.94296 0.0
O268 O 0.86877 0.65093 0.93016 0.0
N269 N 0.8303 0.65492 0.81661 0.0
C270 C 0.83852 0.71292 0.80667 0.0
C271 C 0.88005 0.74209 0.78467 0.0
C272 C 0.90969 0.70954 0.77224 0.0
C273 C 0.89774 0.64825 0.782 0.0
C274 C 0.85806 0.62289 0.80464 0.0
H275 H 0.81519 0.73773 0.81592 0.0
O276 O 0.90317 0.75127 0.8928 0.0
O277 O 0.84398 0.65617 0.87207 0.0
O278 O 0.7663 0.71475 0.88699 0.0
O279 O 0.73464 0.65814 0.8486 0.0
C280 C 0.92614 0.61284 0.77088 0.0
C281 C 0.91795 0.55518 0.78355 0.0
H282 H 0.9024 0.45452 0.81637 0.0
H283 H 0.84597 0.429 0.86019 0.0
H284 H 0.88895 0.78943 0.77725 0.0
H285 H 0.9422 0.73241 0.75542 0.0
H286 H 0.95652 0.63094 0.7532 0.0
H287 H 0.94228 0.52989 0.77545 0.0
Mn288 Mn 0.14909 0.81589 0.07051 0.0
Mn289 Mn 0.17348 0.77042 0.00955 0.0
C290 C 0.19282 0.89467 0.03697 0.0
C291 C 0.18467 0.85368 0.11365 0.0
C292 C 0.03863 0.74018 0.02996 0.0
O293 O 0.1441 0.7275 0.07742 0.0
O294 O 0.16944 0.70599 0.03676 0.0
C295 C 0.30748 0.78876 0.01659 0.0
N296 N 0.26528 0.80281 0.00322 0.0
C297 C 0.34906 0.86831 0.97105 0.0
C298 C 0.39343 0.8546 0.98451 0.0
C299 C 0.3726 0.81487 0.00744 0.0
C300 C 0.2849 0.84121 0.9812 0.0
H301 H 0.29146 0.75756 0.03399 0.0
C302 C 0.15672 0.6928 0.06151 0.0
O303 O 0.1224 0.81898 0.10782 0.0
O304 O 0.2262 0.86272 0.09475 0.0
N305 N 0.17948 0.82813 0.98129 0.0
C306 C 0.13218 0.84057 0.97175 0.0
C307 C 0.14734 0.88479 0.95046 0.0
C308 C 0.20955 0.91269 0.93818 0.0
C309 C 0.25639 0.89684 0.94757 0.0
C310 C 0.2395 0.85473 0.96961 0.0
H311 H 0.08391 0.81849 0.98081 0.0
O312 O 0.1657 0.90364 0.05786 0.0
O313 O 0.19499 0.83974 0.03648 0.0
O314 O 0.05773 0.76959 0.05229 0.0
O315 O 0.07749 0.73557 0.01338 0.0
C316 C 0.31996 0.92292 0.93648 0.0
C317 C 0.36624 0.90852 0.94818 0.0
H318 H 0.44369 0.87461 0.9775 0.0
H319 H 0.40655 0.80408 0.01795 0.0
H320 H 0.11098 0.89708 0.94345 0.0
H321 H 0.22109 0.94674 0.92172 0.0
H322 H 0.33429 0.95538 0.91935 0.0
H323 H 0.4154 0.92991 0.9398 0.0
Mn324 Mn 0.33427 0.14016 0.23862 0.0
Mn325 Mn 0.41185 0.17767 0.1788 0.0
C326 C 0.30013 0.186 0.20575 0.0
C327 C 0.32627 0.16774 0.28256 0.0
C328 C 0.31065 0.03791 0.19557 0.0
O329 O 0.41834 0.138 0.24602 0.0
O330 O 0.47109 0.17398 0.20668 0.0
C331 C 0.52263 0.31379 0.1879 0.0
N332 N 0.46762 0.27107 0.17408 0.0
C333 C 0.4849 0.35621 0.14261 0.0
C334 C 0.54113 0.4013 0.15682 0.0
C335 C 0.55998 0.38 0.17961 0.0
C336 C 0.44921 0.29104 0.15205 0.0
H337 H 0.53837 0.29721 0.20486 0.0
C338 C 0.46838 0.15626 0.23103 0.0
O339 O 0.30098 0.10659 0.27511 0.0
O340 O 0.35897 0.21282 0.26476 0.0
N341 N 0.36074 0.18329 0.15022 0.0
C342 C 0.3033 0.13462 0.13954 0.0
C343 C 0.27512 0.14922 0.1178 0.0
C344 C 0.30783 0.21274 0.10643 0.0
C345 C 0.36809 0.26131 0.11712 0.0
C346 C 0.39252 0.24459 0.13945 0.0
H347 H 0.27835 0.08539 0.14787 0.0
O348 O 0.26222 0.15463 0.22576 0.0
O349 O 0.35854 0.19142 0.20578 0.0
O350 O 0.29576 0.05228 0.21802 0.0
O351 O 0.35528 0.08075 0.18041 0.0
C352 C 0.40412 0.32609 0.10687 0.0
C353 C 0.46266 0.37346 0.11955 0.0
H354 H 0.57025 0.45233 0.1504 0.0
H355 H 0.60365 0.41434 0.19056 0.0
H356 H 0.22847 0.11143 0.10973 0.0
H357 H 0.28608 0.22383 0.08959 0.0
H358 H 0.3866 0.34034 0.08954 0.0
H359 H 0.48943 0.4234 0.11173 0.0
Mn360 Mn 0.18689 0.31051 0.40828 0.0
Mn361 Mn 0.23297 0.38822 0.34845 0.0
C362 C 0.10966 0.27856 0.37447 0.0
C363 C 0.14724 0.30339 0.45163 0.0
C364 C 0.26627 0.28406 0.36653 0.0
O365 O 0.27398 0.39367 0.41634 0.0
O366 O 0.29433 0.44651 0.3768 0.0
C367 C 0.21203 0.50242 0.35587 0.0
N368 N 0.19868 0.44643 0.3425 0.0
C369 C 0.13688 0.46715 0.30931 0.0
C370 C 0.14911 0.52442 0.32303 0.0
C371 C 0.18671 0.54202 0.34646 0.0
C372 C 0.16278 0.42924 0.31984 0.0
H373 H 0.24262 0.51726 0.3733 0.0
C374 C 0.30751 0.44362 0.40137 0.0
O375 O 0.18216 0.27634 0.44519 0.0
O376 O 0.13858 0.3375 0.43329 0.0
N377 N 0.1775 0.33774 0.3195 0.0
C378 C 0.1663 0.27863 0.30962 0.0
C379 C 0.12408 0.25076 0.28773 0.0
C380 C 0.09636 0.28536 0.27547 0.0
C381 C 0.1112 0.34752 0.28516 0.0
C382 C 0.15117 0.37143 0.30778 0.0
H383 H 0.18796 0.25209 0.31877 0.0
O384 O 0.10046 0.24008 0.39462 0.0
O385 O 0.16368 0.33622 0.37488 0.0
O386 O 0.23543 0.26938 0.38868 0.0
O387 O 0.27051 0.32955 0.3512 0.0
C388 C 0.0863 0.38582 0.27374 0.0
C389 C 0.09956 0.4459 0.2857 0.0
H390 H 0.12993 0.55526 0.31575 0.0
H391 H 0.1969 0.58648 0.35706 0.0
H392 H 0.11321 0.20288 0.28025 0.0
H393 H 0.06337 0.2636 0.25872 0.0
H394 H 0.05574 0.36883 0.25609 0.0
H395 H 0.07924 0.4744 0.27701 0.0
Mn396 Mn 0.85111 0.18395 0.57289 0.0
Mn397 Mn 0.83182 0.23763 0.5129 0.0
C398 C 0.7992 0.1074 0.53921 0.0
C399 C 0.80712 0.14348 0.61538 0.0
C400 C 0.96227 0.25256 0.53213 0.0
O401 O 0.87076 0.27751 0.58058 0.0
O402 O 0.84129 0.30204 0.54126 0.0
C403 C 0.70324 0.23224 0.51954 0.0
N404 N 0.74153 0.21253 0.50655 0.0
C405 C 0.65503 0.15069 0.47488 0.0
C406 C 0.61435 0.16944 0.48825 0.0
C407 C 0.63861 0.21044 0.51068 0.0
C408 C 0.71889 0.17365 0.48476 0.0
H409 H 0.72216 0.26505 0.53629 0.0
C410 C 0.85924 0.31483 0.56568 0.0
O411 O 0.86966 0.168 0.61034 0.0
O412 O 0.77282 0.14864 0.59639 0.0
N413 N 0.82128 0.17967 0.48406 0.0
C414 C 0.86588 0.16418 0.47387 0.0
C415 C 0.84771 0.12023 0.45238 0.0
C416 C 0.78512 0.09522 0.44072 0.0
C417 C 0.7411 0.11407 0.45081 0.0
C418 C 0.76107 0.1562 0.47288 0.0
H419 H 0.91443 0.18387 0.48243 0.0
O420 O 0.82206 0.09319 0.56006 0.0
O421 O 0.80494 0.1661 0.53901 0.0
O422 O 0.94149 0.22013 0.55394 0.0
O423 O 0.92588 0.26446 0.51677 0.0
C424 C 0.67758 0.09147 0.44022 0.0
C425 C 0.63459 0.10983 0.45223 0.0
H426 H 0.56452 0.15284 0.48142 0.0
H427 H 0.60777 0.22569 0.52097 0.0
H428 H 0.88207 0.10594 0.44477 0.0
H429 H 0.77128 0.06142 0.42409 0.0
H430 H 0.66093 0.05918 0.4231 0.0
H431 H 0.58556 0.09147 0.4441 0.0
C432 C 0.10099 0.57061 0.07067 0.0
C433 C 0.158 0.63426 0.07233 0.0
C434 C 0.21968 0.58406 0.09054 0.0
C435 C 0.16007 0.52302 0.09364 0.0
N436 N 0.04152 0.45932 0.08849 0.0
N437 N 0.27039 0.70312 0.08725 0.0
C438 C 0.09985 0.51655 0.08424 0.0
C439 C 0.21694 0.64159 0.0835 0.0
N440 N 0.04913 0.56125 0.0552 0.0
N441 N 0.27888 0.58597 0.09194 0.0
H442 H 0.27038 0.74649 0.08213 0.0
H443 H 0.31245 0.71085 0.0975 0.0
H444 H 0.28183 0.5429 0.09348 0.0
H445 H 0.32385 0.62843 0.08785 0.0
H446 H 0.00835 0.51487 0.05138 0.0
H447 H 0.05103 0.59926 0.0437 0.0
H448 H 0.99562 0.45468 0.08454 0.0
H449 H 0.03871 0.4181 0.09786 0.0
C450 C 0.64437 0.21957 0.25328 0.0
C451 C 0.64403 0.1599 0.25871 0.0
C452 C 0.52741 0.09628 0.24544 0.0
C453 C 0.52695 0.15655 0.24238 0.0
N454 N 0.57919 0.27356 0.25098 0.0
N455 N 0.58555 0.04063 0.26099 0.0
C456 C 0.58379 0.21772 0.24848 0.0
C457 C 0.5856 0.09784 0.25497 0.0
N458 N 0.70293 0.27757 0.25122 0.0
N459 N 0.47244 0.03778 0.23893 0.0
H460 H 0.62815 0.03967 0.26636 0.0
H461 H 0.54311 0.99428 0.26185 0.0
H462 H 0.42762 0.03456 0.23399 0.0
H463 H 0.47155 0.99285 0.23745 0.0
H464 H 0.70622 0.32189 0.24517 0.0
H465 H 0.74834 0.27927 0.2523 0.0
H466 H 0.61813 0.31852 0.25761 0.0
H467 H 0.53424 0.27273 0.2494 0.0
C468 C 0.4143 0.62141 0.42222 0.0
C469 C 0.47496 0.62441 0.42801 0.0
C470 C 0.42579 0.50662 0.41667 0.0
C471 C 0.36391 0.50321 0.41314 0.0
N472 N 0.29565 0.55205 0.4205 0.0
N473 N 0.53973 0.57044 0.43163 0.0
C474 C 0.35706 0.55907 0.41827 0.0
C475 C 0.48121 0.56711 0.4254 0.0
N476 N 0.41221 0.67841 0.41885 0.0
N477 N 0.43145 0.45223 0.41139 0.0
H478 H 0.58235 0.61478 0.43623 0.0
H479 H 0.54581 0.52931 0.43322 0.0
H480 H 0.39064 0.4061 0.40721 0.0
H481 H 0.47623 0.45288 0.41037 0.0
H482 H 0.3701 0.67901 0.41244 0.0
H483 H 0.45475 0.72498 0.41932 0.0
H484 H 0.28792 0.59041 0.4265 0.0
H485 H 0.25255 0.50603 0.41919 0.0
C486 C 0.80298 0.43292 0.58866 0.0
C487 C 0.86375 0.49046 0.59458 0.0
C488 C 0.92356 0.43289 0.58176 0.0
C489 C 0.86201 0.37418 0.57773 0.0
N490 N 0.74436 0.31376 0.58483 0.0
N491 N 0.98249 0.54831 0.59576 0.0
C492 C 0.80202 0.37289 0.5833 0.0
C493 C 0.92443 0.49139 0.59079 0.0
N494 N 0.7465 0.43644 0.58675 0.0
N495 N 0.98079 0.43237 0.57682 0.0
H496 H 0.98438 0.59306 0.59972 0.0
H497 H 0.02861 0.55181 0.5961 0.0
H498 H 0.98131 0.38894 0.57254 0.0
H499 H 0.02755 0.4742 0.57672 0.0
H500 H 0.70184 0.39736 0.57998 0.0
H501 H 0.74607 0.48066 0.58921 0.0
H502 H 0.70002 0.30947 0.59131 0.0
H503 H 0.74247 0.26841 0.58237 0.0
C504 C 0.41221 0.78549 0.75087 0.0
C505 C 0.473 0.84234 0.74447 0.0
C506 C 0.42606 0.91296 0.75567 0.0
C507 C 0.36391 0.85517 0.75988 0.0
N508 N 0.29387 0.73802 0.75288 0.0
N509 N 0.53873 0.96085 0.73942 0.0
C510 C 0.35575 0.79181 0.75497 0.0
C511 C 0.48033 0.90647 0.74656 0.0
N512 N 0.40918 0.72606 0.75458 0.0
N513 N 0.43311 0.97375 0.76059 0.0
H514 H 0.58056 0.95827 0.73422 0.0
H515 H 0.54525 0.00817 0.73744 0.0
H516 H 0.39311 0.98021 0.76495 0.0
H517 H 0.47842 0.01748 0.76119 0.0
H518 H 0.36683 0.68396 0.76133 0.0
H519 H 0.45135 0.72146 0.75423 0.0
H520 H 0.28529 0.69149 0.74709 0.0
H521 H 0.25131 0.74189 0.75402 0.0
C522 C 0.53848 0.37447 0.89927 0.0
C523 C 0.514 0.37559 0.92504 0.0
C524 C 0.61851 0.47672 0.93537 0.0
C525 C 0.64217 0.47777 0.90914 0.0
N526 N 0.63528 0.40672 0.87277 0.0
N527 N 0.52356 0.4392 0.96413 0.0
C528 C 0.60499 0.42116 0.89275 0.0
C529 C 0.55203 0.43014 0.94201 0.0
N530 N 0.49884 0.33016 0.88046 0.0
N531 N 0.66101 0.51435 0.95502 0.0
H532 H 0.47415 0.40772 0.9691 0.0
H533 H 0.54644 0.482 0.97564 0.0
H534 H 0.712 0.53914 0.95274 0.0
H535 H 0.64705 0.51143 0.97485 0.0
H536 H 0.51241 0.33407 0.86053 0.0
H537 H 0.45006 0.29401 0.88341 0.0
H538 H 0.61236 0.36285 0.86193 0.0
H539 H 0.68602 0.43196 0.87014 0.0
C540 C 0.21174 0.17669 0.17525 0.0
C541 C 0.2763 0.21598 0.18564 0.0
C542 C 0.2888 0.3106 0.15952 0.0
C543 C 0.22138 0.27324 0.15188 0.0
N544 N 0.11501 0.17478 0.15753 0.0
N545 N 0.37123 0.32453 0.19218 0.0
C546 C 0.18188 0.20737 0.16117 0.0
C547 C 0.31348 0.28438 0.17917 0.0
N548 N 0.17977 0.10937 0.1778 0.0
N549 N 0.32956 0.37003 0.14762 0.0
H550 H 0.38911 0.30796 0.20759 0.0
H551 H 0.3992 0.37536 0.18911 0.0
H552 H 0.31422 0.38927 0.13229 0.0
H553 H 0.37985 0.39831 0.15158 0.0
H554 H 0.13548 0.07785 0.16819 0.0
H555 H 0.20143 0.08475 0.18686 0.0
H556 H 0.08305 0.12927 0.16631 0.0
H557 H 0.09085 0.19691 0.14847 0.0
C558 C 0.98189 0.27677 0.32646 0.0
C559 C 0.94874 0.20929 0.31864 0.0
C560 C 0.02838 0.19196 0.34379 0.0
C561 C 0.05692 0.25713 0.35408 0.0
N562 N 0.04997 0.35618 0.36006 0.0
N563 N 0.93122 0.09902 0.32516 0.0
C564 C 0.03033 0.29805 0.34694 0.0
C565 C 0.9694 0.16584 0.32883 0.0
N566 N 0.96841 0.32071 0.31396 0.0
N567 N 0.05926 0.15586 0.34721 0.0
H568 H 0.88578 0.07741 0.31542 0.0
H569 H 0.94075 0.06474 0.33449 0.0
H570 H 0.10442 0.17454 0.35692 0.0
H571 H 0.0442 0.11085 0.33773 0.0
H572 H 0.99232 0.371 0.31827 0.0
H573 H 0.93633 0.30791 0.29786 0.0
H574 H 0.03077 0.38713 0.35632 0.0
H575 H 0.082 0.3714 0.37625 0.0
C576 C 0.80672 0.02733 0.50904 0.0
C577 C 0.76975 0.0567 0.51799 0.0
C578 C 0.67574 0.97767 0.491 0.0
C579 C 0.71043 0.94386 0.48477 0.0
N580 N 0.80425 0.92915 0.4925 0.0
N581 N 0.66426 0.05129 0.52183 0.0
C582 C 0.77464 0.96672 0.49512 0.0
C583 C 0.70267 0.0294 0.51026 0.0
N584 N 0.87342 0.05883 0.51304 0.0
N585 N 0.61826 0.96169 0.4781 0.0
H586 H 0.68198 0.088 0.53635 0.0
H587 H 0.61385 0.03025 0.51826 0.0
H588 H 0.59785 0.92498 0.4636 0.0
H589 H 0.59299 0.98754 0.48054 0.0
H590 H 0.9041 0.04342 0.50451 0.0
H591 H 0.89899 0.10483 0.52223 0.0
H592 H 0.84805 0.94006 0.5021 0.0
H593 H 0.7813 0.883 0.48329 0.0
C594 C 0.81461 0.78821 0.66211 0.0
C595 C 0.77826 0.72153 0.65341 0.0
C596 C 0.6849 0.70518 0.68112 0.0
C597 C 0.71883 0.77385 0.68717 0.0
N598 N 0.8101 0.88328 0.6781 0.0
N599 N 0.67324 0.6206 0.64998 0.0
C600 C 0.78205 0.81608 0.67612 0.0
C601 C 0.71154 0.68103 0.66148 0.0
N602 N 0.88123 0.82434 0.65797 0.0
N603 N 0.6285 0.66289 0.69453 0.0
H604 H 0.69038 0.6024 0.63492 0.0
H605 H 0.62321 0.59032 0.65405 0.0
H606 H 0.60904 0.67827 0.70974 0.0
H607 H 0.60333 0.61183 0.69188 0.0
H608 H 0.91126 0.87092 0.66625 0.0
H609 H 0.90748 0.80432 0.64904 0.0
H610 H 0.85311 0.91639 0.66804 0.0
H611 H 0.7864 0.90593 0.68715 0.0
C612 C 0.97072 0.80578 0.84109 0.0
C613 C 0.94798 0.74118 0.85125 0.0
C614 C 0.02744 0.73066 0.82276 0.0
C615 C 0.0554 0.79814 0.81529 0.0
N616 N 0.06137 0.9036 0.82167 0.0
N617 N 0.96397 0.64719 0.85596 0.0
C618 C 0.02896 0.83665 0.82556 0.0
C619 C 0.97905 0.70493 0.84332 0.0
N620 N 0.93499 0.83671 0.8453 0.0
N621 N 0.04622 0.69104 0.80999 0.0
H622 H 0.93264 0.62941 0.87236 0.0
H623 H 0.98626 0.61929 0.85167 0.0
H624 H 0.07849 0.70701 0.79386 0.0
H625 H 0.02639 0.64091 0.814 0.0
H626 H 0.94531 0.88076 0.83595 0.0
H627 H 0.89044 0.81436 0.85561 0.0
H628 H 0.04813 0.93498 0.83113 0.0
H629 H 0.10613 0.92876 0.81156 0.0
C630 C 0.18168 0.9738 0.00683 0.0
C631 C 0.22112 0.94758 0.0163 0.0
C632 C 0.31299 0.0273 0.98833 0.0
C633 C 0.27535 0.05747 0.98115 0.0
N634 N 0.1785 0.06725 0.988 0.0
N635 N 0.32894 0.95827 0.02027 0.0
C636 C 0.21097 0.03278 0.99166 0.0
C637 C 0.28833 0.977 0.00832 0.0
N638 N 0.1151 0.9403 0.01117 0.0
N639 N 0.37127 0.04548 0.97564 0.0
H640 H 0.3134 0.92374 0.03565 0.0
H641 H 0.37922 0.9801 0.0163 0.0
H642 H 0.38971 0.0807 0.96049 0.0
H643 H 0.39941 0.0229 0.97887 0.0
H644 H 0.08264 0.95292 0.00226 0.0
H645 H 0.09148 0.89513 0.02107 0.0
H646 H 0.13467 0.0558 0.9977 0.0
H647 H 0.1994 0.11191 0.97771 0.0
C648 C 0.16672 0.25032 0.01625 0.0
C649 C 0.19921 0.31459 0.0279 0.0
C650 C 0.28374 0.35247 0.99305 0.0
C651 C 0.25236 0.28753 0.9825 0.0
N652 N 0.14799 0.18829 0.97563 0.0
N653 N 0.27528 0.43138 0.02183 0.0
C654 C 0.18812 0.24121 0.99111 0.0
C655 C 0.25353 0.3674 0.01446 0.0
N656 N 0.1199 0.19651 0.02987 0.0
N657 N 0.34322 0.39903 0.98292 0.0
H658 H 0.25215 0.44379 0.03664 0.0
H659 H 0.31161 0.47212 0.01154 0.0
H660 H 0.36296 0.38999 0.96588 0.0
H661 H 0.37311 0.44502 0.99166 0.0
H662 H 0.10032 0.14831 0.02277 0.0
H663 H 0.10619 0.19829 0.04938 0.0
H664 H 0.09886 0.15528 0.98053 0.0
H665 H 0.1614 0.18253 0.9565 0.0
C666 C 0.89318 0.25491 0.18251 0.0
C667 C 0.88909 0.19684 0.19355 0.0
C668 C 0.95368 0.19371 0.15583 0.0
C669 C 0.9743 0.2607 0.15015 0.0
N670 N 0.95796 0.35378 0.15607 0.0
N671 N 0.92247 0.11354 0.19102 0.0
C672 C 0.94135 0.29053 0.16263 0.0
C673 C 0.91989 0.1658 0.18003 0.0
N674 N 0.85072 0.27544 0.19086 0.0
N675 N 0.96687 0.15697 0.13848 0.0
H676 H 0.90231 0.09301 0.2094 0.0
H677 H 0.95089 0.09483 0.18295 0.0
H678 H 0.98854 0.17498 0.12 0.0
H679 H 0.9488 0.10642 0.1411 0.0
H680 H 0.84824 0.3147 0.18216 0.0
H681 H 0.813 0.24851 0.20452 0.0
H682 H 0.94183 0.38142 0.16666 0.0
H683 H 0.99027 0.3792 0.14049 0.0
C684 C 0.64828 0.96127 0.33524 0.0
C685 C 0.7011 0.97364 0.31816 0.0
C686 C 0.70505 0.88201 0.34061 0.0
C687 C 0.66984 0.88782 0.3627 0.0
N688 N 0.6268 0.95569 0.38163 0.0
N689 N 0.77976 0.94071 0.30425 0.0
C690 C 0.64508 0.93258 0.36019 0.0
C691 C 0.72922 0.93202 0.32041 0.0
N692 N 0.60659 0.98431 0.32907 0.0
N693 N 0.71365 0.82855 0.3382 0.0
H694 H 0.79607 0.97307 0.28816 0.0
H695 H 0.80685 0.91693 0.3076 0.0
H696 H 0.6907 0.78761 0.35075 0.0
H697 H 0.73558 0.8209 0.32158 0.0
H698 H 0.56563 0.97391 0.34077 0.0
H699 H 0.61 0.00785 0.31103 0.0
H700 H 0.61091 0.9901 0.37971 0.0
H701 H 0.63936 0.95207 0.40112 0.0
C702 C 0.82252 0.71596 0.50905 0.0
C703 C 0.78371 0.67872 0.53135 0.0
C704 C 0.68611 0.65417 0.50514 0.0
C705 C 0.72397 0.70829 0.48805 0.0
N706 N 0.83368 0.79204 0.47394 0.0
N707 N 0.67309 0.62871 0.5513 0.0
C708 C 0.79399 0.73944 0.48975 0.0
C709 C 0.71369 0.65097 0.5296 0.0
N710 N 0.88507 0.7269 0.5055 0.0
N711 N 0.62193 0.60968 0.49925 0.0
H712 H 0.68937 0.63913 0.57082 0.0
H713 H 0.6224 0.61087 0.5499 0.0
H714 H 0.59364 0.56749 0.51077 0.0
H715 H 0.60019 0.61206 0.48151 0.0
H716 H 0.91311 0.75042 0.48867 0.0
H717 H 0.9049 0.70409 0.51711 0.0
H718 H 0.8845 0.82068 0.47701 0.0
H719 H 0.81601 0.80884 0.45861 0.0
C720 C 0.11453 0.85908 0.67323 0.0
C721 C 0.13312 0.82201 0.68997 0.0
C722 C 0.06926 0.72411 0.66227 0.0
C723 C 0.03717 0.75585 0.65024 0.0
N724 N 0.03753 0.85755 0.64052 0.0
N725 N 0.15678 0.73317 0.69125 0.0
C726 C 0.06339 0.82501 0.65408 0.0
C727 C 0.11951 0.75865 0.68151 0.0
N728 N 0.1482 0.92661 0.67441 0.0
N729 N 0.0488 0.65962 0.65625 0.0
H730 H 0.19691 0.76037 0.70386 0.0
H731 H 0.15311 0.68909 0.68482 0.0
H732 H 0.01483 0.63456 0.64118 0.0
H733 H 0.06345 0.63037 0.66652 0.0
H734 H 0.13982 0.95675 0.66163 0.0
H735 H 0.19128 0.95315 0.68543 0.0
H736 H 0.0461 0.90442 0.64563 0.0
H737 H 0.00624 0.83724 0.62429 0.0
C738 C 0.37668 0.12421 0.84762 0.0
C739 C 0.33045 0.14338 0.85542 0.0
C740 C 0.25784 0.07965 0.81862 0.0
C741 C 0.29568 0.0476 0.81533 0.0
N742 N 0.39823 0.04866 0.82223 0.0
N743 N 0.25202 0.17194 0.83796 0.0
C744 C 0.35826 0.07415 0.82803 0.0
C745 C 0.27847 0.13135 0.83771 0.0
N746 N 0.43884 0.15613 0.85815 0.0
N747 N 0.20053 0.05872 0.80481 0.0
H748 H 0.27244 0.21522 0.84918 0.0
H749 H 0.21699 0.16864 0.82432 0.0
H750 H 0.18671 0.02643 0.78879 0.0
H751 H 0.16572 0.07248 0.80963 0.0
H752 H 0.4769 0.14805 0.85228 0.0
H753 H 0.45454 0.19651 0.87084 0.0
H754 H 0.4404 0.05893 0.83292 0.0
H755 H 0.38764 0.01509 0.8068 0.0
C756 C 0.74357 0.83543 0.82431 0.0
C757 C 0.68096 0.8019 0.81137 0.0
C758 C 0.64476 0.70984 0.8429 0.0
C759 C 0.70834 0.74203 0.85456 0.0
N760 N 0.8024 0.84774 0.8654 0.0
N761 N 0.56517 0.72066 0.81556 0.0
C762 C 0.75217 0.80925 0.84848 0.0
C763 C 0.62909 0.74344 0.82312 0.0
N764 N 0.79677 0.88828 0.81281 0.0
N765 N 0.60041 0.64641 0.85017 0.0
H766 H 0.55212 0.74631 0.80211 0.0
H767 H 0.52495 0.68088 0.82473 0.0
H768 H 0.6098 0.62267 0.86577 0.0
H769 H 0.55606 0.61715 0.8402 0.0
H770 H 0.84439 0.9087 0.82055 0.0
H771 H 0.7957 0.9078 0.79437 0.0
H772 H 0.83302 0.89852 0.86254 0.0
H773 H 0.80813 0.83047 0.88374 0.0
C774 C 0.89019 0.63805 0.9884 0.0
C775 C 0.8888 0.69178 0.97549 0.0
C776 C 0.95364 0.76414 0.01219 0.0
C777 C 0.97008 0.71649 0.02036 0.0
N778 N 0.94078 0.6031 0.02237 0.0
N779 N 0.92659 0.80973 0.97457 0.0
C780 C 0.93348 0.65144 0.0104 0.0
C781 C 0.92108 0.75566 0.98753 0.0
N782 N 0.84975 0.57471 0.97986 0.0
N783 N 0.96911 0.81731 0.02797 0.0
H784 H 0.90872 0.8082 0.9555 0.0
H785 H 0.95564 0.8578 0.9817 0.0
H786 H 0.99086 0.82264 0.04659 0.0
H787 H 0.95376 0.85137 0.02386 0.0
H788 H 0.84541 0.53296 0.98925 0.0
H789 H 0.81667 0.56326 0.96421 0.0
H790 H 0.92267 0.55557 0.01489 0.0
H791 H 0.96462 0.61195 0.04068 0.0
C792 C 0.26678 0.89148 0.15108 0.0
C793 C 0.20828 0.88599 0.14006 0.0
C794 C 0.20283 0.94883 0.17799 0.0
C795 C 0.26975 0.97064 0.18391 0.0
N796 N 0.36543 0.95908 0.17693 0.0
N797 N 0.1259 0.92076 0.14199 0.0
C798 C 0.30144 0.94004 0.17093 0.0
C799 C 0.17667 0.9165 0.15345 0.0
N800 N 0.28865 0.84995 0.14288 0.0
N801 N 0.16462 0.96013 0.19525 0.0
H802 H 0.1083 0.9042 0.12293 0.0
H803 H 0.10658 0.94845 0.15029 0.0
H804 H 0.18132 0.98098 0.21393 0.0
H805 H 0.11415 0.94119 0.19227 0.0
H806 H 0.32835 0.84866 0.15169 0.0
H807 H 0.26241 0.81169 0.12938 0.0
H808 H 0.39378 0.94452 0.16595 0.0
H809 H 0.39075 0.99215 0.19225 0.0
C810 C 0.2532 0.15375 0.32237 0.0
C811 C 0.31631 0.1864 0.30979 0.0
C812 C 0.35556 0.27378 0.34343 0.0
C813 C 0.29184 0.24224 0.35516 0.0
N814 N 0.19323 0.13808 0.36346 0.0
N815 N 0.43299 0.2633 0.3146 0.0
C816 C 0.24545 0.17704 0.3474 0.0
C817 C 0.36948 0.24178 0.32245 0.0
N818 N 0.19903 0.10483 0.30974 0.0
N819 N 0.40171 0.33561 0.35161 0.0
H820 H 0.44474 0.239 0.30005 0.0
H821 H 0.47401 0.3004 0.32444 0.0
H822 H 0.39342 0.35835 0.36778 0.0
H823 H 0.44628 0.36484 0.34175 0.0
H824 H 0.15131 0.08524 0.31729 0.0
H825 H 0.1999 0.08866 0.29058 0.0
H826 H 0.1603 0.08839 0.35935 0.0
H827 H 0.18779 0.15324 0.38229 0.0
C828 C 0.1155 0.34902 0.49043 0.0
C829 C 0.1156 0.29421 0.47828 0.0
C830 C 0.04517 0.22387 0.51458 0.0
C831 C 0.02965 0.27327 0.52151 0.0
N832 N 0.05511 0.38647 0.51762 0.0
N833 N 0.07361 0.17554 0.47829 0.0
C834 C 0.06737 0.3374 0.5102 0.0
C835 C 0.07983 0.23065 0.49049 0.0
N836 N 0.16165 0.41198 0.48321 0.0
N837 N 0.02636 0.1703 0.53067 0.0
H838 H 0.09433 0.17624 0.45993 0.0
H839 H 0.0419 0.12779 0.48528 0.0
H840 H 0.00364 0.16564 0.54898 0.0
H841 H 0.04058 0.13508 0.52729 0.0
H842 H 0.16724 0.45399 0.49283 0.0
H843 H 0.19902 0.42186 0.46952 0.0
H844 H 0.07469 0.43181 0.50783 0.0
H845 H 0.0226 0.38005 0.53299 0.0
C846 C 0.78485 0.05512 0.68205 0.0
C847 C 0.715 0.01335 0.68298 0.0
C848 C 0.70475 0.05966 0.6412 0.0
C849 C 0.77451 0.1041 0.64014 0.0
N850 N 0.87411 0.16064 0.66673 0.0
N851 N 0.61098 0.0035 0.67045 0.0
C852 C 0.81268 0.10733 0.66285 0.0
C853 C 0.67628 0.02696 0.66532 0.0
N854 N 0.82518 0.0445 0.69841 0.0
N855 N 0.6656 0.04135 0.61909 0.0
H856 H 0.58183 0.0157 0.65867 0.0
H857 H 0.58871 0.978 0.68792 0.0
H858 H 0.68328 0.04964 0.59974 0.0
H859 H 0.61523 0.00688 0.61989 0.0
H860 H 0.8763 0.06891 0.69589 0.0
H861 H 0.80797 0.00958 0.7136 0.0
H862 H 0.9016 0.16659 0.68387 0.0
H863 H 0.89327 0.20287 0.65484 0.0
loop_
_geom_bond_atom_site_label_1
_geom_bond_atom_site_label_2
_geom_bond_distance
_geom_bond_site_symmetry_2
_ccdc_geom_bond_type
Mn0 O5 2.095 . S
Mn0 O15 2.162 . S
Mn0 O16 2.297 . S
Mn0 O24 2.385 . S
Mn0 O25 2.209 . S
Mn0 O26 2.094 . S
Mn1 O6 2.121 . S
Mn1 N8 2.257 . S
Mn1 N17 2.282 . S
Mn1 O25 2.215 . S
Mn1 O27 2.117 . S
C2 O24 1.234 . S
C2 O25 1.283 . S
C3 O15 1.281 . S
C3 O16 1.236 . S
C4 O26 1.240 . S
C4 O27 1.264 . S
O5 Mn0 2.095 . S
O5 C14 1.250 . S
O6 Mn1 2.121 . S
O6 C14 1.258 . S
C7 N8 1.326 . S
C7 C11 1.460 . S
C7 H13 0.929 . S
N8 Mn1 2.257 . S
N8 C7 1.326 . S
N8 C12 1.362 . S
C9 C10 1.258 . S
C9 C12 1.431 . S
C9 C29 1.449 . S
C10 C9 1.258 . S
C10 C11 1.477 . S
C10 H30 0.931 . S
C11 C7 1.460 . S
C11 C10 1.477 . S
C11 H31 0.930 . S
C12 N8 1.362 . S
C12 C9 1.431 . S
C12 C22 1.476 . S
H13 C7 0.929 . S
C14 O5 1.250 . S
C14 O6 1.258 . S
O15 Mn0 2.162 . S
O15 C3 1.281 . S
O16 Mn0 2.297 . S
O16 C3 1.236 . S
N17 Mn1 2.282 . S
N17 C18 1.328 . S
N17 C22 1.318 . S
C18 N17 1.328 . S
C18 C19 1.457 . S
C18 H23 0.929 . S
C19 C18 1.457 . S
C19 C20 1.291 . S
C19 H32 0.931 . S
C20 C19 1.291 . S
C20 C21 1.373 . S
C20 H33 0.929 . S
C21 C20 1.373 . S
C21 C22 1.396 . S
C21 C28 1.403 . S
C22 C12 1.476 . S
C22 N17 1.318 . S
C22 C21 1.396 . S
H23 C18 0.929 . S
O24 Mn0 2.385 . S
O24 C2 1.234 . S
O25 Mn0 2.209 . S
O25 Mn1 2.215 . S
O25 C2 1.283 . S
O26 Mn0 2.094 . S
O26 C4 1.240 . S
O27 Mn1 2.117 . S
O27 C4 1.264 . S
C28 C21 1.403 . S
C28 C29 1.399 . S
C28 H34 0.929 . S
C29 C9 1.449 . S
C29 C28 1.399 . S
C29 H35 0.930 . S
H30 C10 0.931 . S
H31 C11 0.930 . S
H32 C19 0.931 . S
H33 C20 0.929 . S
H34 C28 0.929 . S
H35 C29 0.930 . S
Mn36 O41 2.095 . S
Mn36 O51 2.162 . S
Mn36 O52 2.297 . S
Mn36 O60 2.385 . S
Mn36 O61 2.209 . S
Mn36 O62 2.094 . S
Mn37 O42 2.121 . S
Mn37 N44 2.257 . S
Mn37 N53 2.282 . S
Mn37 O61 2.215 . S
Mn37 O63 2.117 . S
C38 O60 1.234 . S
C38 O61 1.283 . S
C39 O51 1.281 . S
C39 O52 1.236 . S
C40 O62 1.240 . S
C40 O63 1.264 . S
O41 Mn36 2.095 . S
O41 C50 1.250 . S
O42 Mn37 2.121 . S
O42 C50 1.258 . S
C43 N44 1.326 . S
C43 C47 1.460 . S
C43 H49 0.929 . S
N44 Mn37 2.257 . S
N44 C43 1.326 . S
N44 C48 1.362 . S
C45 C46 1.258 . S
C45 C48 1.431 . S
C45 C65 1.449 . S
C46 C45 1.258 . S
C46 C47 1.477 . S
C46 H66 0.931 . S
C47 C43 1.460 . S
C47 C46 1.477 . S
C47 H67 0.930 . S
C48 N44 1.362 . S
C48 C45 1.431 . S
C48 C58 1.476 . S
H49 C43 0.929 . S
C50 O41 1.250 . S
C50 O42 1.258 . S
O51 Mn36 2.162 . S
O51 C39 1.281 . S
O52 Mn36 2.297 . S
O52 C39 1.236 . S
N53 Mn37 2.282 . S
N53 C54 1.328 . S
N53 C58 1.318 . S
C54 N53 1.328 . S
C54 C55 1.457 . S
C54 H59 0.929 . S
C55 C54 1.457 . S
C55 C56 1.291 . S
C55 H68 0.931 . S
C56 C55 1.291 . S
C56 C57 1.373 . S
C56 H69 0.929 . S
C57 C56 1.373 . S
C57 C58 1.396 . S
C57 C64 1.403 . S
C58 C48 1.476 . S
C58 N53 1.318 . S
C58 C57 1.396 . S
H59 C54 0.929 . S
O60 Mn36 2.385 . S
O60 C38 1.234 . S
O61 Mn36 2.209 . S
O61 Mn37 2.215 . S
O61 C38 1.283 . S
O62 Mn36 2.094 . S
O62 C40 1.240 . S
O63 Mn37 2.117 . S
O63 C40 1.264 . S
C64 C57 1.403 . S
C64 C65 1.399 . S
C64 H70 0.929 . S
C65 C45 1.449 . S
C65 C64 1.399 . S
C65 H71 0.930 . S
H66 C46 0.931 . S
H67 C47 0.930 . S
H68 C55 0.931 . S
H69 C56 0.929 . S
H70 C64 0.929 . S
H71 C65 0.930 . S
Mn72 O77 2.095 . S
Mn72 O87 2.162 . S
Mn72 O88 2.297 . S
Mn72 O96 2.385 . S
Mn72 O97 2.209 . S
Mn72 O98 2.094 . S
Mn73 O78 2.121 . S
Mn73 N80 2.257 . S
Mn73 N89 2.282 . S
Mn73 O97 2.215 . S
Mn73 O99 2.117 . S
C74 O96 1.234 . S
C74 O97 1.283 . S
C75 O87 1.281 . S
C75 O88 1.236 . S
C76 O98 1.240 . S
C76 O99 1.264 . S
O77 Mn72 2.095 . S
O77 C86 1.250 . S
O78 Mn73 2.121 . S
O78 C86 1.258 . S
C79 N80 1.326 . S
C79 C83 1.460 . S
C79 H85 0.929 . S
N80 Mn73 2.257 . S
N80 C79 1.326 . S
N80 C84 1.362 . S
C81 C82 1.258 . S
C81 C84 1.431 . S
C81 C101 1.449 . S
C82 C81 1.258 . S
C82 C83 1.477 . S
C82 H102 0.931 . S
C83 C79 1.460 . S
C83 C82 1.477 . S
C83 H103 0.930 . S
C84 N80 1.362 . S
C84 C81 1.431 . S
C84 C94 1.476 . S
H85 C79 0.929 . S
C86 O77 1.250 . S
C86 O78 1.258 . S
O87 Mn72 2.162 . S
O87 C75 1.281 . S
O88 Mn72 2.297 . S
O88 C75 1.236 . S
N89 Mn73 2.282 . S
N89 C90 1.328 . S
N89 C94 1.318 . S
C90 N89 1.328 . S
C90 C91 1.457 . S
C90 H95 0.929 . S
C91 C90 1.457 . S
C91 C92 1.291 . S
C91 H104 0.931 . S
C92 C91 1.291 . S
C92 C93 1.373 . S
C92 H105 0.929 . S
C93 C92 1.373 . S
C93 C94 1.396 . S
C93 C100 1.403 . S
C94 C84 1.476 . S
C94 N89 1.318 . S
C94 C93 1.396 . S
H95 C90 0.929 . S
O96 Mn72 2.385 . S
O96 C74 1.234 . S
O97 Mn72 2.209 . S
O97 Mn73 2.215 . S
O97 C74 1.283 . S
O98 Mn72 2.094 . S
O98 C76 1.240 . S
O99 Mn73 2.117 . S
O99 C76 1.264 . S
C100 C93 1.403 . S
C100 C101 1.399 . S
C100 H106 0.929 . S
C101 C81 1.449 . S
C101 C100 1.399 . S
C101 H107 0.930 . S
H102 C82 0.931 . S
H103 C83 0.930 . S
H104 C91 0.931 . S
H105 C92 0.929 . S
H106 C100 0.929 . S
H107 C101 0.930 . S
Mn108 O113 2.095 . S
Mn108 O123 2.162 . S
Mn108 O124 2.297 . S
Mn108 O132 2.385 . S
Mn108 O133 2.209 . S
Mn108 O134 2.094 . S
Mn109 O114 2.121 . S
Mn109 N116 2.257 . S
Mn109 N125 2.282 . S
Mn109 O133 2.215 . S
Mn109 O135 2.117 . S
C110 O132 1.234 . S
C110 O133 1.283 . S
C111 O123 1.281 . S
C111 O124 1.236 . S
C112 O134 1.240 . S
C112 O135 1.264 . S
O113 Mn108 2.095 . S
O113 C122 1.250 . S
O114 Mn109 2.121 . S
O114 C122 1.258 . S
C115 N116 1.326 . S
C115 C119 1.460 . S
C115 H121 0.929 . S
N116 Mn109 2.257 . S
N116 C115 1.326 . S
N116 C120 1.362 . S
C117 C118 1.258 . S
C117 C120 1.431 . S
C117 C137 1.449 . S
C118 C117 1.258 . S
C118 C119 1.477 . S
C118 H138 0.931 . S
C119 C115 1.460 . S
C119 C118 1.477 . S
C119 H139 0.930 . S
C120 N116 1.362 . S
C120 C117 1.431 . S
C120 C130 1.476 . S
H121 C115 0.929 . S
C122 O113 1.250 . S
C122 O114 1.258 . S
O123 Mn108 2.162 . S
O123 C111 1.281 . S
O124 Mn108 2.297 . S
O124 C111 1.236 . S
N125 Mn109 2.282 . S
N125 C126 1.328 . S
N125 C130 1.318 . S
C126 N125 1.328 . S
C126 C127 1.457 . S
C126 H131 0.929 . S
C127 C126 1.457 . S
C127 C128 1.291 . S
C127 H140 0.931 . S
C128 C127 1.291 . S
C128 C129 1.373 . S
C128 H141 0.929 . S
C129 C128 1.373 . S
C129 C130 1.396 . S
C129 C136 1.403 . S
C130 C120 1.476 . S
C130 N125 1.318 . S
C130 C129 1.396 . S
H131 C126 0.929 . S
O132 Mn108 2.385 . S
O132 C110 1.234 . S
O133 Mn108 2.209 . S
O133 Mn109 2.215 . S
O133 C110 1.283 . S
O134 Mn108 2.094 . S
O134 C112 1.240 . S
O135 Mn109 2.117 . S
O135 C112 1.264 . S
C136 C129 1.403 . S
C136 C137 1.399 . S
C136 H142 0.929 . S
C137 C117 1.449 . S
C137 C136 1.399 . S
C137 H143 0.930 . S
H138 C118 0.931 . S
H139 C119 0.930 . S
H140 C127 0.931 . S
H141 C128 0.929 . S
H142 C136 0.929 . S
H143 C137 0.930 . S
Mn144 O149 2.095 . S
Mn144 O159 2.162 . S
Mn144 O160 2.297 . S
Mn144 O168 2.385 . S
Mn144 O169 2.209 . S
Mn144 O170 2.094 . S
Mn145 O150 2.121 . S
Mn145 N152 2.257 . S
Mn145 N161 2.282 . S
Mn145 O169 2.215 . S
Mn145 O171 2.117 . S
C146 O168 1.234 . S
C146 O169 1.283 . S
C147 O159 1.281 . S
C147 O160 1.236 . S
C148 O170 1.240 . S
C148 O171 1.264 . S
O149 Mn144 2.095 . S
O149 C158 1.250 . S
O150 Mn145 2.121 . S
O150 C158 1.258 . S
C151 N152 1.326 . S
C151 C155 1.460 . S
C151 H157 0.929 . S
N152 Mn145 2.257 . S
N152 C151 1.326 . S
N152 C156 1.362 . S
C153 C154 1.258 . S
C153 C156 1.431 . S
C153 C173 1.449 . S
C154 C153 1.258 . S
C154 C155 1.477 . S
C154 H174 0.931 . S
C155 C151 1.460 . S
C155 C154 1.477 . S
C155 H175 0.930 . S
C156 N152 1.362 . S
C156 C153 1.431 . S
C156 C166 1.476 . S
H157 C151 0.929 . S
C158 O149 1.250 . S
C158 O150 1.258 . S
O159 Mn144 2.162 . S
O159 C147 1.281 . S
O160 Mn144 2.297 . S
O160 C147 1.236 . S
N161 Mn145 2.282 . S
N161 C162 1.328 . S
N161 C166 1.318 . S
C162 N161 1.328 . S
C162 C163 1.457 . S
C162 H167 0.929 . S
C163 C162 1.457 . S
C163 C164 1.291 . S
C163 H176 0.931 . S
C164 C163 1.291 . S
C164 C165 1.373 . S
C164 H177 0.929 . S
C165 C164 1.373 . S
C165 C166 1.396 . S
C165 C172 1.403 . S
C166 C156 1.476 . S
C166 N161 1.318 . S
C166 C165 1.396 . S
H167 C162 0.929 . S
O168 Mn144 2.385 . S
O168 C146 1.234 . S
O169 Mn144 2.209 . S
O169 Mn145 2.215 . S
O169 C146 1.283 . S
O170 Mn144 2.094 . S
O170 C148 1.240 . S
O171 Mn145 2.117 . S
O171 C148 1.264 . S
C172 C165 1.403 . S
C172 C173 1.399 . S
C172 H178 0.929 . S
C173 C153 1.449 . S
C173 C172 1.399 . S
C173 H179 0.930 . S
H174 C154 0.931 . S
H175 C155 0.930 . S
H176 C163 0.931 . S
H177 C164 0.929 . S
H178 C172 0.929 . S
H179 C173 0.930 . S
Mn180 O185 2.095 . S
Mn180 O195 2.162 . S
Mn180 O196 2.297 . S
Mn180 O204 2.385 . S
Mn180 O205 2.209 . S
Mn180 O206 2.094 . S
Mn181 O186 2.121 . S
Mn181 N188 2.257 1_556 S
Mn181 N197 2.282 1_556 S
Mn181 O205 2.215 . S
Mn181 O207 2.117 . S
C182 O204 1.234 . S
C182 O205 1.283 . S
C183 O195 1.281 . S
C183 O196 1.236 . S
C184 O206 1.240 . S
C184 O207 1.264 . S
O185 Mn180 2.095 . S
O185 C194 1.250 . S
O186 Mn181 2.121 . S
O186 C194 1.258 . S
C187 N188 1.320 1_556 S
C187 C191 1.452 1_556 S
C187 H193 0.943 . S
N188 Mn181 2.257 1_554 S
N188 C187 1.320 1_554 S
N188 C192 1.362 . S
C189 C190 1.258 . S
C189 C192 1.431 . S
C189 C209 1.449 . S
C190 C189 1.258 . S
C190 C191 1.477 . S
C190 H210 0.931 . S
C191 C187 1.452 1_554 S
C191 C190 1.477 . S
C191 H211 0.930 . S
C192 N188 1.362 . S
C192 C189 1.431 . S
C192 C202 1.476 . S
H193 C187 0.943 . S
C194 O185 1.250 . S
C194 O186 1.258 . S
O195 Mn180 2.162 . S
O195 C183 1.281 . S
O196 Mn180 2.297 . S
O196 C183 1.236 . S
N197 Mn181 2.282 1_554 S
N197 C198 1.328 . S
N197 C202 1.318 . S
C198 N197 1.328 . S
C198 C199 1.457 . S
C198 H203 0.929 . S
C199 C198 1.457 . S
C199 C200 1.291 . S
C199 H212 0.931 . S
C200 C199 1.291 . S
C200 C201 1.373 . S
C200 H213 0.929 . S
C201 C200 1.373 . S
C201 C202 1.396 . S
C201 C208 1.403 . S
C202 C192 1.476 . S
C202 N197 1.318 . S
C202 C201 1.396 . S
H203 C198 0.929 . S
O204 Mn180 2.385 . S
O204 C182 1.234 . S
O205 Mn180 2.209 . S
O205 Mn181 2.215 . S
O205 C182 1.283 . S
O206 Mn180 2.094 . S
O206 C184 1.240 . S
O207 Mn181 2.117 . S
O207 C184 1.264 . S
C208 C201 1.403 . S
C208 C209 1.399 . S
C208 H214 0.929 . S
C209 C189 1.449 . S
C209 C208 1.399 . S
C209 H215 0.930 . S
H210 C190 0.931 . S
H211 C191 0.930 . S
H212 C199 0.931 . S
H213 C200 0.929 . S
H214 C208 0.929 . S
H215 C209 0.930 . S
Mn216 O221 2.095 . S
Mn216 O231 2.162 . S
Mn216 O232 2.297 . S
Mn216 O240 2.385 . S
Mn216 O241 2.209 . S
Mn216 O242 2.094 . S
Mn217 O222 2.121 . S
Mn217 N224 2.257 . S
Mn217 N233 2.282 . S
Mn217 O241 2.215 . S
Mn217 O243 2.117 . S
C218 O240 1.234 . S
C218 O241 1.283 . S
C219 O231 1.281 . S
C219 O232 1.236 . S
C220 O242 1.240 . S
C220 O243 1.264 . S
O221 Mn216 2.095 . S
O221 C230 1.250 . S
O222 Mn217 2.121 . S
O222 C230 1.258 . S
C223 N224 1.326 . S
C223 C227 1.460 . S
C223 H229 0.929 . S
N224 Mn217 2.257 . S
N224 C223 1.326 . S
N224 C228 1.362 . S
C225 C226 1.258 . S
C225 C228 1.431 . S
C225 C245 1.449 . S
C226 C225 1.258 . S
C226 C227 1.477 . S
C226 H246 0.931 . S
C227 C223 1.460 . S
C227 C226 1.477 . S
C227 H247 0.930 . S
C228 N224 1.362 . S
C228 C225 1.431 . S
C228 C238 1.476 . S
H229 C223 0.929 . S
C230 O221 1.250 . S
C230 O222 1.258 . S
O231 Mn216 2.162 . S
O231 C219 1.281 . S
O232 Mn216 2.297 . S
O232 C219 1.236 . S
N233 Mn217 2.282 . S
N233 C234 1.328 . S
N233 C238 1.318 . S
C234 N233 1.328 . S
C234 C235 1.457 . S
C234 H239 0.929 . S
C235 C234 1.457 . S
C235 C236 1.291 . S
C235 H248 0.931 . S
C236 C235 1.291 . S
C236 C237 1.373 . S
C236 H249 0.929 . S
C237 C236 1.373 . S
C237 C238 1.396 . S
C237 C244 1.403 . S
C238 C228 1.476 . S
C238 N233 1.318 . S
C238 C237 1.396 . S
H239 C234 0.929 . S
O240 Mn216 2.385 . S
O240 C218 1.234 . S
O241 Mn216 2.209 . S
O241 Mn217 2.215 . S
O241 C218 1.283 . S
O242 Mn216 2.094 . S
O242 C220 1.240 . S
O243 Mn217 2.117 . S
O243 C220 1.264 . S
C244 C237 1.403 . S
C244 C245 1.399 . S
C244 H250 0.929 . S
C245 C225 1.449 . S
C245 C244 1.399 . S
C245 H251 0.930 . S
H246 C226 0.931 . S
H247 C227 0.930 . S
H248 C235 0.931 . S
H249 C236 0.929 . S
H250 C244 0.929 . S
H251 C245 0.930 . S
Mn252 O257 2.095 . S
Mn252 O267 2.162 . S
Mn252 O268 2.297 . S
Mn252 O276 2.385 . S
Mn252 O277 2.209 . S
Mn252 O278 2.094 . S
Mn253 O258 2.121 . S
Mn253 N260 2.257 . S
Mn253 N269 2.282 . S
Mn253 O277 2.215 . S
Mn253 O279 2.117 . S
C254 O276 1.234 . S
C254 O277 1.283 . S
C255 O267 1.281 . S
C255 O268 1.236 . S
C256 O278 1.240 . S
C256 O279 1.264 . S
O257 Mn252 2.095 . S
O257 C266 1.250 . S
O258 Mn253 2.121 . S
O258 C266 1.258 . S
C259 N260 1.326 . S
C259 C263 1.460 . S
C259 H265 0.929 . S
N260 Mn253 2.257 . S
N260 C259 1.326 . S
N260 C264 1.362 . S
C261 C262 1.258 . S
C261 C264 1.431 . S
C261 C281 1.449 . S
C262 C261 1.258 . S
C262 C263 1.477 . S
C262 H282 0.931 . S
C263 C259 1.460 . S
C263 C262 1.477 . S
C263 H283 0.930 . S
C264 N260 1.362 . S
C264 C261 1.431 . S
C264 C274 1.476 . S
H265 C259 0.929 . S
C266 O257 1.250 . S
C266 O258 1.258 . S
O267 Mn252 2.162 . S
O267 C255 1.281 . S
O268 Mn252 2.297 . S
O268 C255 1.236 . S
N269 Mn253 2.282 . S
N269 C270 1.328 . S
N269 C274 1.318 . S
C270 N269 1.328 . S
C270 C271 1.457 . S
C270 H275 0.929 . S
C271 C270 1.457 . S
C271 C272 1.291 . S
C271 H284 0.931 . S
C272 C271 1.291 . S
C272 C273 1.373 . S
C272 H285 0.929 . S
C273 C272 1.373 . S
C273 C274 1.396 . S
C273 C280 1.403 . S
C274 C264 1.476 . S
C274 N269 1.318 . S
C274 C273 1.396 . S
H275 C270 0.929 . S
O276 Mn252 2.385 . S
O276 C254 1.234 . S
O277 Mn252 2.209 . S
O277 Mn253 2.215 . S
O277 C254 1.283 . S
O278 Mn252 2.094 . S
O278 C256 1.240 . S
O279 Mn253 2.117 . S
O279 C256 1.264 . S
C280 C273 1.403 . S
C280 C281 1.399 . S
C280 H286 0.929 . S
C281 C261 1.449 . S
C281 C280 1.399 . S
C281 H287 0.930 . S
H282 C262 0.931 . S
H283 C263 0.930 . S
H284 C271 0.931 . S
H285 C272 0.929 . S
H286 C280 0.929 . S
H287 C281 0.930 . S
Mn288 O293 2.095 . S
Mn288 O303 2.162 . S
Mn288 O304 2.297 . S
Mn288 O312 2.385 . S
Mn288 O313 2.209 . S
Mn288 O314 2.094 . S
Mn289 O294 2.121 . S
Mn289 N296 2.257 1_554 S
Mn289 N305 2.282 1_554 S
Mn289 O313 2.215 . S
Mn289 O315 2.117 . S
C290 O312 1.234 . S
C290 O313 1.283 . S
C291 O303 1.281 . S
C291 O304 1.236 . S
C292 O314 1.240 . S
C292 O315 1.264 . S
O293 Mn288 2.095 . S
O293 C302 1.250 . S
O294 Mn289 2.121 . S
O294 C302 1.258 . S
C295 N296 1.320 1_554 S
C295 C299 1.452 1_554 S
C295 H301 0.943 . S
N296 Mn289 2.257 1_556 S
N296 C295 1.320 1_556 S
N296 C300 1.362 . S
C297 C298 1.258 . S
C297 C300 1.431 . S
C297 C317 1.449 . S
C298 C297 1.258 . S
C298 C299 1.477 . S
C298 H318 0.931 . S
C299 C295 1.452 1_556 S
C299 C298 1.477 . S
C299 H319 0.930 . S
C300 N296 1.362 . S
C300 C297 1.431 . S
C300 C310 1.476 . S
H301 C295 0.943 . S
C302 O293 1.250 . S
C302 O294 1.258 . S
O303 Mn288 2.162 . S
O303 C291 1.281 . S
O304 Mn288 2.297 . S
O304 C291 1.236 . S
N305 Mn289 2.282 1_556 S
N305 C306 1.328 . S
N305 C310 1.318 . S
C306 N305 1.328 . S
C306 C307 1.457 . S
C306 H311 0.929 . S
C307 C306 1.457 . S
C307 C308 1.291 . S
C307 H320 0.931 . S
C308 C307 1.291 . S
C308 C309 1.373 . S
C308 H321 0.929 . S
C309 C308 1.373 . S
C309 C310 1.396 . S
C309 C316 1.403 . S
C310 C300 1.476 . S
C310 N305 1.318 . S
C310 C309 1.396 . S
H311 C306 0.929 . S
O312 Mn288 2.385 . S
O312 C290 1.234 . S
O313 Mn288 2.209 . S
O313 Mn289 2.215 . S
O313 C290 1.283 . S
O314 Mn288 2.094 . S
O314 C292 1.240 . S
O315 Mn289 2.117 . S
O315 C292 1.264 . S
C316 C309 1.403 . S
C316 C317 1.399 . S
C316 H322 0.929 . S
C317 C297 1.449 . S
C317 C316 1.399 . S
C317 H323 0.930 . S
H318 C298 0.931 . S
H319 C299 0.930 . S
H320 C307 0.931 . S
H321 C308 0.929 . S
H322 C316 0.929 . S
H323 C317 0.930 . S
Mn324 O329 2.095 . S
Mn324 O339 2.162 . S
Mn324 O340 2.297 . S
Mn324 O348 2.385 . S
Mn324 O349 2.209 . S
Mn324 O350 2.094 . S
Mn325 O330 2.121 . S
Mn325 N332 2.257 . S
Mn325 N341 2.282 . S
Mn325 O349 2.215 . S
Mn325 O351 2.117 . S
C326 O348 1.234 . S
C326 O349 1.283 . S
C327 O339 1.281 . S
C327 O340 1.236 . S
C328 O350 1.240 . S
C328 O351 1.264 . S
O329 Mn324 2.095 . S
O329 C338 1.250 . S
O330 Mn325 2.121 . S
O330 C338 1.258 . S
C331 N332 1.326 . S
C331 C335 1.460 . S
C331 H337 0.929 . S
N332 Mn325 2.257 . S
N332 C331 1.326 . S
N332 C336 1.362 . S
C333 C334 1.258 . S
C333 C336 1.431 . S
C333 C353 1.449 . S
C334 C333 1.258 . S
C334 C335 1.477 . S
C334 H354 0.931 . S
C335 C331 1.460 . S
C335 C334 1.477 . S
C335 H355 0.930 . S
C336 N332 1.362 . S
C336 C333 1.431 . S
C336 C346 1.476 . S
H337 C331 0.929 . S
C338 O329 1.250 . S
C338 O330 1.258 . S
O339 Mn324 2.162 . S
O339 C327 1.281 . S
O340 Mn324 2.297 . S
O340 C327 1.236 . S
N341 Mn325 2.282 . S
N341 C342 1.328 . S
N341 C346 1.318 . S
C342 N341 1.328 . S
C342 C343 1.457 . S
C342 H347 0.929 . S
C343 C342 1.457 . S
C343 C344 1.291 . S
C343 H356 0.931 . S
C344 C343 1.291 . S
C344 C345 1.373 . S
C344 H357 0.929 . S
C345 C344 1.373 . S
C345 C346 1.396 . S
C345 C352 1.403 . S
C346 C336 1.476 . S
C346 N341 1.318 . S
C346 C345 1.396 . S
H347 C342 0.929 . S
O348 Mn324 2.385 . S
O348 C326 1.234 . S
O349 Mn324 2.209 . S
O349 Mn325 2.215 . S
O349 C326 1.283 . S
O350 Mn324 2.094 . S
O350 C328 1.240 . S
O351 Mn325 2.117 . S
O351 C328 1.264 . S
C352 C345 1.403 . S
C352 C353 1.399 . S
C352 H358 0.929 . S
C353 C333 1.449 . S
C353 C352 1.399 . S
C353 H359 0.930 . S
H354 C334 0.931 . S
H355 C335 0.930 . S
H356 C343 0.931 . S
H357 C344 0.929 . S
H358 C352 0.929 . S
H359 C353 0.930 . S
Mn360 O365 2.095 . S
Mn360 O375 2.162 . S
Mn360 O376 2.297 . S
Mn360 O384 2.385 . S
Mn360 O385 2.209 . S
Mn360 O386 2.094 . S
Mn361 O366 2.121 . S
Mn361 N368 2.257 . S
Mn361 N377 2.282 . S
Mn361 O385 2.215 . S
Mn361 O387 2.117 . S
C362 O384 1.234 . S
C362 O385 1.283 . S
C363 O375 1.281 . S
C363 O376 1.236 . S
C364 O386 1.240 . S
C364 O387 1.264 . S
O365 Mn360 2.095 . S
O365 C374 1.250 . S
O366 Mn361 2.121 . S
O366 C374 1.258 . S
C367 N368 1.326 . S
C367 C371 1.460 . S
C367 H373 0.929 . S
N368 Mn361 2.257 . S
N368 C367 1.326 . S
N368 C372 1.362 . S
C369 C370 1.258 . S
C369 C372 1.431 . S
C369 C389 1.449 . S
C370 C369 1.258 . S
C370 C371 1.477 . S
C370 H390 0.931 . S
C371 C367 1.460 . S
C371 C370 1.477 . S
C371 H391 0.930 . S
C372 N368 1.362 . S
C372 C369 1.431 . S
C372 C382 1.476 . S
H373 C367 0.929 . S
C374 O365 1.250 . S
C374 O366 1.258 . S
O375 Mn360 2.162 . S
O375 C363 1.281 . S
O376 Mn360 2.297 . S
O376 C363 1.236 . S
N377 Mn361 2.282 . S
N377 C378 1.328 . S
N377 C382 1.318 . S
C378 N377 1.328 . S
C378 C379 1.457 . S
C378 H383 0.929 . S
C379 C378 1.457 . S
C379 C380 1.291 . S
C379 H392 0.931 . S
C380 C379 1.291 . S
C380 C381 1.373 . S
C380 H393 0.929 . S
C381 C380 1.373 . S
C381 C382 1.396 . S
C381 C388 1.403 . S
C382 C372 1.476 . S
C382 N377 1.318 . S
C382 C381 1.396 . S
H383 C378 0.929 . S
O384 Mn360 2.385 . S
O384 C362 1.234 . S
O385 Mn360 2.209 . S
O385 Mn361 2.215 . S
O385 C362 1.283 . S
O386 Mn360 2.094 . S
O386 C364 1.240 . S
O387 Mn361 2.117 . S
O387 C364 1.264 . S
C388 C381 1.403 . S
C388 C389 1.399 . S
C388 H394 0.929 . S
C389 C369 1.449 . S
C389 C388 1.399 . S
C389 H395 0.930 . S
H390 C370 0.931 . S
H391 C371 0.930 . S
H392 C379 0.931 . S
H393 C380 0.929 . S
H394 C388 0.929 . S
H395 C389 0.930 . S
Mn396 O401 2.095 . S
Mn396 O411 2.162 . S
Mn396 O412 2.297 . S
Mn396 O420 2.385 . S
Mn396 O421 2.209 . S
Mn396 O422 2.094 . S
Mn397 O402 2.121 . S
Mn397 N404 2.257 . S
Mn397 N413 2.282 . S
Mn397 O421 2.215 . S
Mn397 O423 2.117 . S
C398 O420 1.234 . S
C398 O421 1.283 . S
C399 O411 1.281 . S
C399 O412 1.236 . S
C400 O422 1.240 . S
C400 O423 1.264 . S
O401 Mn396 2.095 . S
O401 C410 1.250 . S
O402 Mn397 2.121 . S
O402 C410 1.258 . S
C403 N404 1.326 . S
C403 C407 1.460 . S
C403 H409 0.929 . S
N404 Mn397 2.257 . S
N404 C403 1.326 . S
N404 C408 1.362 . S
C405 C406 1.258 . S
C405 C408 1.431 . S
C405 C425 1.449 . S
C406 C405 1.258 . S
C406 C407 1.477 . S
C406 H426 0.931 . S
C407 C403 1.460 . S
C407 C406 1.477 . S
C407 H427 0.930 . S
C408 N404 1.362 . S
C408 C405 1.431 . S
C408 C418 1.476 . S
H409 C403 0.929 . S
C410 O401 1.250 . S
C410 O402 1.258 . S
O411 Mn396 2.162 . S
O411 C399 1.281 . S
O412 Mn396 2.297 . S
O412 C399 1.236 . S
N413 Mn397 2.282 . S
N413 C414 1.328 . S
N413 C418 1.318 . S
C414 N413 1.328 . S
C414 C415 1.457 . S
C414 H419 0.929 . S
C415 C414 1.457 . S
C415 C416 1.291 . S
C415 H428 0.931 . S
C416 C415 1.291 . S
C416 C417 1.373 . S
C416 H429 0.929 . S
C417 C416 1.373 . S
C417 C418 1.396 . S
C417 C424 1.403 . S
C418 C408 1.476 . S
C418 N413 1.318 . S
C418 C417 1.396 . S
H419 C414 0.929 . S
O420 Mn396 2.385 . S
O420 C398 1.234 . S
O421 Mn396 2.209 . S
O421 Mn397 2.215 . S
O421 C398 1.283 . S
O422 Mn396 2.094 . S
O422 C400 1.240 . S
O423 Mn397 2.117 . S
O423 C400 1.264 . S
C424 C417 1.403 . S
C424 C425 1.399 . S
C424 H430 0.929 . S
C425 C405 1.449 . S
C425 C424 1.399 . S
C425 H431 0.930 . S
H426 C406 0.931 . S
H427 C407 0.930 . S
H428 C415 0.931 . S
H429 C416 0.929 . S
H430 C424 0.929 . S
H431 C425 0.930 . S
C432 C433 1.363 . S
C432 C438 1.379 . S
C432 N440 1.356 . S
C433 C432 1.363 . S
C433 C439 1.363 . S
C434 C435 1.363 . S
C434 C439 1.379 . S
C434 N441 1.356 . S
C435 C434 1.363 . S
C435 C438 1.363 . S
N436 C438 1.356 . S
N436 H448 0.984 . S
N436 H449 0.985 . S
N437 C439 1.356 . S
N437 H442 0.984 . S
N437 H443 0.985 . S
C438 C432 1.379 . S
C438 C435 1.363 . S
C438 N436 1.356 . S
C439 C433 1.363 . S
C439 C434 1.379 . S
C439 N437 1.356 . S
N440 C432 1.356 . S
N440 H446 0.984 . S
N440 H447 0.984 . S
N441 C434 1.356 . S
N441 H444 0.984 . S
N441 H445 0.985 . S
H442 N437 0.984 . S
H443 N437 0.985 . S
H444 N441 0.984 . S
H445 N441 0.985 . S
H446 N440 0.984 . S
H447 N440 0.984 . S
H448 N436 0.984 . S
H449 N436 0.985 . S
C450 C451 1.363 . S
C450 C456 1.379 . S
C450 N458 1.356 . S
C451 C450 1.363 . S
C451 C457 1.363 . S
C452 C453 1.363 . S
C452 C457 1.379 . S
C452 N459 1.356 . S
C453 C452 1.363 . S
C453 C456 1.363 . S
N454 C456 1.356 . S
N454 H466 0.984 . S
N454 H467 0.985 . S
N455 C457 1.356 . S
N455 H460 0.984 . S
N455 H461 0.985 . S
C456 C450 1.379 . S
C456 C453 1.363 . S
C456 N454 1.356 . S
C457 C451 1.363 . S
C457 C452 1.379 . S
C457 N455 1.356 . S
N458 C450 1.356 . S
N458 H464 0.984 . S
N458 H465 0.984 . S
N459 C452 1.356 . S
N459 H462 0.984 . S
N459 H463 0.985 . S
H460 N455 0.984 . S
H461 N455 0.985 . S
H462 N459 0.984 . S
H463 N459 0.985 . S
H464 N458 0.984 . S
H465 N458 0.984 . S
H466 N454 0.984 . S
H467 N454 0.985 . S
C468 C469 1.363 . S
C468 C474 1.379 . S
C468 N476 1.356 . S
C469 C468 1.363 . S
C469 C475 1.363 . S
C470 C471 1.363 . S
C470 C475 1.379 . S
C470 N477 1.356 . S
C471 C470 1.363 . S
C471 C474 1.363 . S
N472 C474 1.356 . S
N472 H484 0.984 . S
N472 H485 0.985 . S
N473 C475 1.356 . S
N473 H478 0.984 . S
N473 H479 0.985 . S
C474 C468 1.379 . S
C474 C471 1.363 . S
C474 N472 1.356 . S
C475 C469 1.363 . S
C475 C470 1.379 . S
C475 N473 1.356 . S
N476 C468 1.356 . S
N476 H482 0.984 . S
N476 H483 0.984 . S
N477 C470 1.356 . S
N477 H480 0.984 . S
N477 H481 0.985 . S
H478 N473 0.984 . S
H479 N473 0.985 . S
H480 N477 0.984 . S
H481 N477 0.985 . S
H482 N476 0.984 . S
H483 N476 0.984 . S
H484 N472 0.984 . S
H485 N472 0.985 . S
C486 C487 1.363 . S
C486 C492 1.379 . S
C486 N494 1.356 . S
C487 C486 1.363 . S
C487 C493 1.363 . S
C488 C489 1.363 . S
C488 C493 1.379 . S
C488 N495 1.356 . S
C489 C488 1.363 . S
C489 C492 1.363 . S
N490 C492 1.356 . S
N490 H502 0.984 . S
N490 H503 0.985 . S
N491 C493 1.356 . S
N491 H496 0.984 . S
N491 H497 0.985 . S
C492 C486 1.379 . S
C492 C489 1.363 . S
C492 N490 1.356 . S
C493 C487 1.363 . S
C493 C488 1.379 . S
C493 N491 1.356 . S
N494 C486 1.356 . S
N494 H500 0.984 . S
N494 H501 0.984 . S
N495 C488 1.356 . S
N495 H498 0.984 . S
N495 H499 0.985 . S
H496 N491 0.984 . S
H497 N491 0.985 . S
H498 N495 0.984 . S
H499 N495 0.985 . S
H500 N494 0.984 . S
H501 N494 0.984 . S
H502 N490 0.984 . S
H503 N490 0.985 . S
C504 C505 1.363 . S
C504 C510 1.379 . S
C504 N512 1.356 . S
C505 C504 1.363 . S
C505 C511 1.363 . S
C506 C507 1.363 . S
C506 C511 1.379 . S
C506 N513 1.356 . S
C507 C506 1.363 . S
C507 C510 1.363 . S
N508 C510 1.356 . S
N508 H520 0.984 . S
N508 H521 0.985 . S
N509 C511 1.356 . S
N509 H514 0.984 . S
N509 H515 0.985 . S
C510 C504 1.379 . S
C510 C507 1.363 . S
C510 N508 1.356 . S
C511 C505 1.363 . S
C511 C506 1.379 . S
C511 N509 1.356 . S
N512 C504 1.356 . S
N512 H518 0.984 . S
N512 H519 0.984 . S
N513 C506 1.356 . S
N513 H516 0.984 . S
N513 H517 0.985 . S
H514 N509 0.984 . S
H515 N509 0.985 . S
H516 N513 0.984 . S
H517 N513 0.985 . S
H518 N512 0.984 . S
H519 N512 0.984 . S
H520 N508 0.984 . S
H521 N508 0.985 . S
C522 C523 1.363 . S
C522 C528 1.379 . S
C522 N530 1.356 . S
C523 C522 1.363 . S
C523 C529 1.363 . S
C524 C525 1.363 . S
C524 C529 1.379 . S
C524 N531 1.356 . S
C525 C524 1.363 . S
C525 C528 1.363 . S
N526 C528 1.356 . S
N526 H538 0.984 . S
N526 H539 0.985 . S
N527 C529 1.356 . S
N527 H532 0.984 . S
N527 H533 0.985 . S
C528 C522 1.379 . S
C528 C525 1.363 . S
C528 N526 1.356 . S
C529 C523 1.363 . S
C529 C524 1.379 . S
C529 N527 1.356 . S
N530 C522 1.356 . S
N530 H536 0.984 . S
N530 H537 0.984 . S
N531 C524 1.356 . S
N531 H534 0.984 . S
N531 H535 0.985 . S
H532 N527 0.984 . S
H533 N527 0.985 . S
H534 N531 0.984 . S
H535 N531 0.985 . S
H536 N530 0.984 . S
H537 N530 0.984 . S
H538 N526 0.984 . S
H539 N526 0.985 . S
C540 C541 1.363 . S
C540 C546 1.379 . S
C540 N548 1.356 . S
C541 C540 1.363 . S
C541 C547 1.363 . S
C542 C543 1.363 . S
C542 C547 1.379 . S
C542 N549 1.356 . S
C543 C542 1.363 . S
C543 C546 1.363 . S
N544 C546 1.356 . S
N544 H556 0.984 . S
N544 H557 0.985 . S
N545 C547 1.356 . S
N545 H550 0.984 . S
N545 H551 0.985 . S
C546 C540 1.379 . S
C546 C543 1.363 . S
C546 N544 1.356 . S
C547 C541 1.363 . S
C547 C542 1.379 . S
C547 N545 1.356 . S
N548 C540 1.356 . S
N548 H554 0.984 . S
N548 H555 0.984 . S
N549 C542 1.356 . S
N549 H552 0.984 . S
N549 H553 0.985 . S
H550 N545 0.984 . S
H551 N545 0.985 . S
H552 N549 0.984 . S
H553 N549 0.985 . S
H554 N548 0.984 . S
H555 N548 0.984 . S
H556 N544 0.984 . S
H557 N544 0.985 . S
C558 C559 1.363 . S
C558 C564 1.379 1_655 S
C558 N566 1.356 . S
C559 C558 1.363 . S
C559 C565 1.363 . S
C560 C561 1.363 . S
C560 C565 1.379 1_455 S
C560 N567 1.356 . S
C561 C560 1.363 . S
C561 C564 1.363 . S
N562 C564 1.356 . S
N562 H574 0.984 1_455 S
N562 H575 0.985 . S
N563 C565 1.356 . S
N563 H568 0.984 . S
N563 H569 0.985 1_655 S
C564 C558 1.379 1_455 S
C564 C561 1.363 . S
C564 N562 1.356 . S
C565 C559 1.363 . S
C565 C560 1.379 1_655 S
C565 N563 1.356 . S
N566 C558 1.356 . S
N566 H572 0.984 . S
N566 H573 0.984 . S
N567 C560 1.356 . S
N567 H570 0.984 . S
N567 H571 0.985 . S
H568 N563 0.984 . S
H569 N563 0.985 1_455 S
H570 N567 0.984 . S
H571 N567 0.985 . S
H572 N566 0.984 . S
H573 N566 0.984 . S
H574 N562 0.984 1_655 S
H575 N562 0.985 . S
C576 C577 1.363 . S
C576 C582 1.379 1_545 S
C576 N584 1.356 . S
C577 C576 1.363 . S
C577 C583 1.363 . S
C578 C579 1.363 . S
C578 C583 1.379 1_565 S
C578 N585 1.356 . S
C579 C578 1.363 . S
C579 C582 1.363 . S
N580 C582 1.356 . S
N580 H592 0.984 . S
N580 H593 0.985 . S
N581 C583 1.356 . S
N581 H586 0.984 . S
N581 H587 0.985 . S
C582 C576 1.379 1_565 S
C582 C579 1.363 . S
C582 N580 1.356 . S
C583 C577 1.363 . S
C583 C578 1.379 1_545 S
C583 N581 1.356 . S
N584 C576 1.356 . S
N584 H590 0.984 . S
N584 H591 0.984 . S
N585 C578 1.356 . S
N585 H588 0.984 . S
N585 H589 0.985 . S
H586 N581 0.984 . S
H587 N581 0.985 . S
H588 N585 0.984 . S
H589 N585 0.985 . S
H590 N584 0.984 . S
H591 N584 0.984 . S
H592 N580 0.984 . S
H593 N580 0.985 . S
C594 C595 1.363 . S
C594 C600 1.379 . S
C594 N602 1.356 . S
C595 C594 1.363 . S
C595 C601 1.363 . S
C596 C597 1.363 . S
C596 C601 1.379 . S
C596 N603 1.356 . S
C597 C596 1.363 . S
C597 C600 1.363 . S
N598 C600 1.356 . S
N598 H610 0.984 . S
N598 H611 0.985 . S
N599 C601 1.356 . S
N599 H604 0.984 . S
N599 H605 0.985 . S
C600 C594 1.379 . S
C600 C597 1.363 . S
C600 N598 1.356 . S
C601 C595 1.363 . S
C601 C596 1.379 . S
C601 N599 1.356 . S
N602 C594 1.356 . S
N602 H608 0.984 . S
N602 H609 0.984 . S
N603 C596 1.356 . S
N603 H606 0.984 . S
N603 H607 0.985 . S
H604 N599 0.984 . S
H605 N599 0.985 . S
H606 N603 0.984 . S
H607 N603 0.985 . S
H608 N602 0.984 . S
H609 N602 0.984 . S
H610 N598 0.984 . S
H611 N598 0.985 . S
C612 C613 1.363 . S
C612 C618 1.379 1_655 S
C612 N620 1.356 . S
C613 C612 1.363 . S
C613 C619 1.363 . S
C614 C615 1.363 . S
C614 C619 1.379 1_455 S
C614 N621 1.356 . S
C615 C614 1.363 . S
C615 C618 1.363 . S
N616 C618 1.356 . S
N616 H628 0.984 . S
N616 H629 0.985 . S
N617 C619 1.356 . S
N617 H622 0.984 . S
N617 H623 0.985 . S
C618 C612 1.379 1_455 S
C618 C615 1.363 . S
C618 N616 1.356 . S
C619 C613 1.363 . S
C619 C614 1.379 1_655 S
C619 N617 1.356 . S
N620 C612 1.356 . S
N620 H626 0.984 . S
N620 H627 0.984 . S
N621 C614 1.356 . S
N621 H624 0.984 . S
N621 H625 0.984 . S
H622 N617 0.984 . S
H623 N617 0.985 . S
H624 N621 0.984 . S
H625 N621 0.984 . S
H626 N620 0.984 . S
H627 N620 0.984 . S
H628 N616 0.984 . S
H629 N616 0.985 . S
C630 C631 1.363 1_545 S
C630 C636 1.379 . S
C630 N638 1.356 1_545 S
C631 C630 1.363 1_565 S
C631 C637 1.363 1_554 S
C632 C633 1.363 1_565 S
C632 C637 1.379 . S
C632 N639 1.356 1_565 S
C633 C632 1.363 1_545 S
C633 C636 1.363 1_556 S
N634 C636 1.356 . S
N634 H646 0.984 . S
N634 H647 0.966 1_554 S
N635 C637 1.356 . S
N635 H640 0.966 1_556 S
N635 H641 0.985 . S
C636 C630 1.379 . S
C636 C633 1.363 1_554 S
C636 N634 1.356 . S
C637 C631 1.363 1_556 S
C637 C632 1.379 . S
C637 N635 1.356 . S
N638 C630 1.356 1_565 S
N638 H644 0.984 1_565 S
N638 H645 0.984 . S
N639 C632 1.356 1_545 S
N639 H642 0.984 . S
N639 H643 0.985 1_545 S
H640 N635 0.966 1_554 S
H641 N635 0.985 . S
H642 N639 0.984 . S
H643 N639 0.985 1_565 S
H644 N638 0.984 1_545 S
H645 N638 0.984 . S
H646 N634 0.984 . S
H647 N634 0.966 1_556 S
C648 C649 1.363 . S
C648 C654 1.379 . S
C648 N656 1.356 . S
C649 C648 1.363 . S
C649 C655 1.363 . S
C650 C651 1.363 1_554 S
C650 C655 1.379 . S
C650 N657 1.356 1_554 S
C651 C650 1.363 1_556 S
C651 C654 1.363 1_556 S
N652 C654 1.356 1_556 S
N652 H664 0.984 . S
N652 H665 0.985 . S
N653 C655 1.356 . S
N653 H658 0.984 . S
N653 H659 0.985 . S
C654 C648 1.379 . S
C654 C651 1.363 1_554 S
C654 N652 1.356 1_554 S
C655 C649 1.363 . S
C655 C650 1.379 . S
C655 N653 1.356 . S
N656 C648 1.356 . S
N656 H662 0.984 . S
N656 H663 0.984 . S
N657 C650 1.356 1_556 S
N657 H660 0.984 . S
N657 H661 0.985 . S
H658 N653 0.984 . S
H659 N653 0.985 . S
H660 N657 0.984 . S
H661 N657 0.985 . S
H662 N656 0.984 . S
H663 N656 0.984 . S
H664 N652 0.984 . S
H665 N652 0.985 . S
C666 C667 1.363 . S
C666 C672 1.379 . S
C666 N674 1.356 . S
C667 C666 1.363 . S
C667 C673 1.363 . S
C668 C669 1.363 . S
C668 C673 1.379 1_455 S
C668 N675 1.356 . S
C669 C668 1.363 . S
C669 C672 1.363 1_455 S
N670 C672 1.356 . S
N670 H682 0.984 . S
N670 H683 0.985 1_655 S
N671 C673 1.356 . S
N671 H676 0.984 . S
N671 H677 0.985 . S
C672 C666 1.379 . S
C672 C669 1.363 1_655 S
C672 N670 1.356 . S
C673 C667 1.363 . S
C673 C668 1.379 1_655 S
C673 N671 1.356 . S
N674 C666 1.356 . S
N674 H680 0.984 . S
N674 H681 0.984 . S
N675 C668 1.356 . S
N675 H678 0.984 . S
N675 H679 0.985 . S
H676 N671 0.984 . S
H677 N671 0.985 . S
H678 N675 0.984 . S
H679 N675 0.985 . S
H680 N674 0.984 . S
H681 N674 0.984 . S
H682 N670 0.984 . S
H683 N670 0.985 1_455 S
C684 C685 1.363 . S
C684 C690 1.379 1_545 S
C684 N692 1.356 . S
C685 C684 1.363 . S
C685 C691 1.363 1_545 S
C686 C687 1.363 . S
C686 C691 1.379 . S
C686 N693 1.356 . S
C687 C686 1.363 . S
C687 C690 1.363 . S
N688 C690 1.356 . S
N688 H700 0.984 . S
N688 H701 0.985 . S
N689 C691 1.356 . S
N689 H694 0.984 1_565 S
N689 H695 0.985 . S
C690 C684 1.379 1_565 S
C690 C687 1.363 . S
C690 N688 1.356 . S
C691 C685 1.363 1_565 S
C691 C686 1.379 . S
C691 N689 1.356 . S
N692 C684 1.356 . S
N692 H698 0.984 . S
N692 H699 0.984 . S
N693 C686 1.356 . S
N693 H696 0.984 . S
N693 H697 0.985 . S
H694 N689 0.984 1_545 S
H695 N689 0.985 . S
H696 N693 0.984 . S
H697 N693 0.985 . S
H698 N692 0.984 . S
H699 N692 0.984 . S
H700 N688 0.984 . S
H701 N688 0.985 . S
C702 C703 1.363 . S
C702 C708 1.379 . S
C702 N710 1.356 . S
C703 C702 1.363 . S
C703 C709 1.363 . S
C704 C705 1.363 . S
C704 C709 1.379 . S
C704 N711 1.356 . S
C705 C704 1.363 . S
C705 C708 1.363 . S
N706 C708 1.356 . S
N706 H718 0.984 . S
N706 H719 0.985 . S
N707 C709 1.356 . S
N707 H712 0.984 . S
N707 H713 0.985 . S
C708 C702 1.379 . S
C708 C705 1.363 . S
C708 N706 1.356 . S
C709 C703 1.363 . S
C709 C704 1.379 . S
C709 N707 1.356 . S
N710 C702 1.356 . S
N710 H716 0.984 . S
N710 H717 0.984 . S
N711 C704 1.356 . S
N711 H714 0.984 . S
N711 H715 0.985 . S
H712 N707 0.984 . S
H713 N707 0.985 . S
H714 N711 0.984 . S
H715 N711 0.985 . S
H716 N710 0.984 . S
H717 N710 0.984 . S
H718 N706 0.984 . S
H719 N706 0.985 . S
C720 C721 1.363 . S
C720 C726 1.379 . S
C720 N728 1.356 . S
C721 C720 1.363 . S
C721 C727 1.363 . S
C722 C723 1.363 . S
C722 C727 1.379 1_655 S
C722 N729 1.356 . S
C723 C722 1.363 . S
C723 C726 1.363 1_655 S
N724 C726 1.356 . S
N724 H736 0.984 . S
N724 H737 0.985 . S
N725 C727 1.356 . S
N725 H730 0.984 . S
N725 H731 0.985 1_455 S
C726 C720 1.379 . S
C726 C723 1.363 1_455 S
C726 N724 1.356 . S
C727 C721 1.363 . S
C727 C722 1.379 1_455 S
C727 N725 1.356 . S
N728 C720 1.356 . S
N728 H734 0.984 . S
N728 H735 0.984 . S
N729 C722 1.356 . S
N729 H732 0.984 . S
N729 H733 0.985 . S
H730 N725 0.984 . S
H731 N725 0.985 1_655 S
H732 N729 0.984 . S
H733 N729 0.985 . S
H734 N728 0.984 . S
H735 N728 0.984 . S
H736 N724 0.984 . S
H737 N724 0.985 . S
C738 C739 1.363 . S
C738 C744 1.379 1_545 S
C738 N746 1.356 . S
C739 C738 1.363 . S
C739 C745 1.363 . S
C740 C741 1.363 1_545 S
C740 C745 1.379 . S
C740 N747 1.356 . S
C741 C740 1.363 1_565 S
C741 C744 1.363 . S
N742 C744 1.356 . S
N742 H754 0.984 . S
N742 H755 0.985 . S
N743 C745 1.356 . S
N743 H748 0.984 . S
N743 H749 0.985 . S
C744 C738 1.379 1_565 S
C744 C741 1.363 . S
C744 N742 1.356 . S
C745 C739 1.363 . S
C745 C740 1.379 . S
C745 N743 1.356 . S
N746 C738 1.356 . S
N746 H752 0.984 . S
N746 H753 0.984 . S
N747 C740 1.356 . S
N747 H750 0.984 1_545 S
N747 H751 0.985 . S
H748 N743 0.984 . S
H749 N743 0.985 . S
H750 N747 0.984 1_565 S
H751 N747 0.985 . S
H752 N746 0.984 . S
H753 N746 0.984 . S
H754 N742 0.984 . S
H755 N742 0.985 . S
C756 C757 1.363 . S
C756 C762 1.379 . S
C756 N764 1.356 . S
C757 C756 1.363 . S
C757 C763 1.363 . S
C758 C759 1.363 . S
C758 C763 1.379 . S
C758 N765 1.356 . S
C759 C758 1.363 . S
C759 C762 1.363 . S
N760 C762 1.356 . S
N760 H772 0.984 . S
N760 H773 0.985 . S
N761 C763 1.356 . S
N761 H766 0.984 . S
N761 H767 0.985 . S
C762 C756 1.379 . S
C762 C759 1.363 . S
C762 N760 1.356 . S
C763 C757 1.363 . S
C763 C758 1.379 . S
C763 N761 1.356 . S
N764 C756 1.356 . S
N764 H770 0.984 . S
N764 H771 0.984 . S
N765 C758 1.356 . S
N765 H768 0.984 . S
N765 H769 0.985 . S
H766 N761 0.984 . S
H767 N761 0.985 . S
H768 N765 0.984 . S
H769 N765 0.985 . S
H770 N764 0.984 . S
H771 N764 0.984 . S
H772 N760 0.984 . S
H773 N760 0.985 . S
C774 C775 1.363 . S
C774 C780 1.379 1_556 S
C774 N782 1.356 . S
C775 C774 1.363 . S
C775 C781 1.363 . S
C776 C777 1.363 1_556 S
C776 C781 1.379 1_455 S
C776 N783 1.356 . S
C777 C776 1.363 1_554 S
C777 C780 1.363 1_455 S
N778 C780 1.356 . S
N778 H790 0.984 . S
N778 H791 0.985 1_655 S
N779 C781 1.356 . S
N779 H784 0.984 . S
N779 H785 0.985 1_655 S
C780 C774 1.379 1_554 S
C780 C777 1.363 1_655 S
C780 N778 1.356 . S
C781 C775 1.363 . S
C781 C776 1.379 1_655 S
C781 N779 1.356 . S
N782 C774 1.356 . S
N782 H788 0.984 . S
N782 H789 0.984 . S
N783 C776 1.356 . S
N783 H786 0.984 1_556 S
N783 H787 0.985 . S
H784 N779 0.984 . S
H785 N779 0.985 1_455 S
H786 N783 0.984 1_554 S
H787 N783 0.985 . S
H788 N782 0.984 . S
H789 N782 0.984 . S
H790 N778 0.984 . S
H791 N778 0.985 1_455 S
C792 C793 1.363 . S
C792 C798 1.379 . S
C792 N800 1.356 . S
C793 C792 1.363 . S
C793 C799 1.363 . S
C794 C795 1.363 . S
C794 C799 1.379 1_545 S
C794 N801 1.356 . S
C795 C794 1.363 . S
C795 C798 1.363 1_545 S
N796 C798 1.356 . S
N796 H808 0.984 . S
N796 H809 0.985 . S
N797 C799 1.356 . S
N797 H802 0.984 . S
N797 H803 0.985 1_565 S
C798 C792 1.379 . S
C798 C795 1.363 1_565 S
C798 N796 1.356 . S
C799 C793 1.363 . S
C799 C794 1.379 1_565 S
C799 N797 1.356 . S
N800 C792 1.356 . S
N800 H806 0.984 . S
N800 H807 0.984 . S
N801 C794 1.356 . S
N801 H804 0.984 . S
N801 H805 0.985 . S
H802 N797 0.984 . S
H803 N797 0.985 1_545 S
H804 N801 0.984 . S
H805 N801 0.985 . S
H806 N800 0.984 . S
H807 N800 0.984 . S
H808 N796 0.984 . S
H809 N796 0.985 . S
C810 C811 1.363 . S
C810 C816 1.379 . S
C810 N818 1.356 . S
C811 C810 1.363 . S
C811 C817 1.363 . S
C812 C813 1.363 . S
C812 C817 1.379 . S
C812 N819 1.356 . S
C813 C812 1.363 . S
C813 C816 1.363 . S
N814 C816 1.356 . S
N814 H826 0.984 . S
N814 H827 0.985 . S
N815 C817 1.356 . S
N815 H820 0.984 . S
N815 H821 0.985 . S
C816 C810 1.379 . S
C816 C813 1.363 . S
C816 N814 1.356 . S
C817 C811 1.363 . S
C817 C812 1.379 . S
C817 N815 1.356 . S
N818 C810 1.356 . S
N818 H824 0.984 . S
N818 H825 0.984 . S
N819 C812 1.356 . S
N819 H822 0.984 . S
N819 H823 0.985 . S
H820 N815 0.984 . S
H821 N815 0.985 . S
H822 N819 0.984 . S
H823 N819 0.985 . S
H824 N818 0.984 . S
H825 N818 0.984 . S
H826 N814 0.984 . S
H827 N814 0.985 . S
C828 C829 1.363 . S
C828 C834 1.379 . S
C828 N836 1.356 . S
C829 C828 1.363 . S
C829 C835 1.363 . S
C830 C831 1.363 . S
C830 C835 1.379 1_655 S
C830 N837 1.356 . S
C831 C830 1.363 . S
C831 C834 1.363 1_655 S
N832 C834 1.356 . S
N832 H844 0.984 . S
N832 H845 0.985 . S
N833 C835 1.356 . S
N833 H838 0.984 . S
N833 H839 0.985 1_455 S
C834 C828 1.379 . S
C834 C831 1.363 1_455 S
C834 N832 1.356 . S
C835 C829 1.363 . S
C835 C830 1.379 1_455 S
C835 N833 1.356 . S
N836 C828 1.356 . S
N836 H842 0.984 . S
N836 H843 0.984 . S
N837 C830 1.356 . S
N837 H840 0.984 . S
N837 H841 0.985 . S
H838 N833 0.984 . S
H839 N833 0.985 1_655 S
H840 N837 0.984 . S
H841 N837 0.985 . S
H842 N836 0.984 . S
H843 N836 0.984 . S
H844 N832 0.984 . S
H845 N832 0.985 . S
C846 C847 1.363 1_545 S
C846 C852 1.379 . S
C846 N854 1.356 . S
C847 C846 1.363 1_565 S
C847 C853 1.363 . S
C848 C849 1.363 . S
C848 C853 1.379 1_545 S
C848 N855 1.356 . S
C849 C848 1.363 . S
C849 C852 1.363 . S
N850 C852 1.356 . S
N850 H862 0.984 . S
N850 H863 0.985 . S
N851 C853 1.356 . S
N851 H856 0.984 . S
N851 H857 0.985 . S
C852 C846 1.379 . S
C852 C849 1.363 . S
C852 N850 1.356 . S
C853 C847 1.363 . S
C853 C848 1.379 1_565 S
C853 N851 1.356 . S
N854 C846 1.356 . S
N854 H860 0.984 . S
N854 H861 0.984 . S
N855 C848 1.356 . S
N855 H858 0.984 . S
N855 H859 0.985 1_545 S
H856 N851 0.984 . S
H857 N851 0.985 . S
H858 N855 0.984 . S
H859 N855 0.985 1_565 S
H860 N854 0.984 . S
H861 N854 0.984 . S
H862 N850 0.984 . S
H863 N850 0.985 . S
C433 C302 1.249 . S
C435 C14 1.249 . S
C451 C50 1.249 . S
C453 C338 1.249 . S
C469 C86 1.249 . S
C471 C374 1.249 . S
C487 C122 1.249 . S
C489 C410 1.249 . S
C505 C230 1.249 . S
C507 C158 1.249 . S
C523 C194 1.249 . S
C525 C266 1.249 . S
C541 C326 1.045 . S
C543 C2 1.045 . S
C559 C38 1.045 . S
C561 C362 1.045 . S
C577 C398 1.045 . S
C579 C74 1.045 . S
C595 C110 1.045 . S
C597 C218 1.045 . S
C613 C254 1.045 . S
C615 C146 1.045 . S
C631 C290 1.045 . S
C633 C182 1.045 . S
C649 C3 1.495 . S
C651 C184 1.460 . S
C667 C39 1.495 . S
C669 C4 1.460 . S
C685 C40 1.460 . S
C687 C75 1.495 . S
C703 C111 1.495 . S
C705 C76 1.460 . S
C721 C147 1.495 . S
C723 C112 1.460 . S
C739 C183 1.495 . S
C741 C148 1.460 . S
C757 C219 1.495 . S
C759 C256 1.460 . S
C775 C255 1.495 . S
C777 C292 1.460 . S
C793 C291 1.495 . S
C795 C328 1.460 . S
C811 C327 1.495 . S
C813 C364 1.460 . S
C829 C363 1.495 . S
C831 C400 1.460 . S
C847 C220 1.460 . S
C849 C399 1.495 . S
