# Generated by pormake.
# Topology uon, (4)-cn, num edge types: 1
# Building blocks:
#     Node 0, Type 0, BuildingBlock: NAWXER_clean_sbu_0, # of connection points: 4
#     Node 1, Type 0, BuildingBlock: NAWXER_clean_sbu_0, # of connection points: 4
#     Node 2, Type 0, BuildingBlock: NAWXER_clean_sbu_0, # of connection points: 4
#     Node 3, Type 0, BuildingBlock: NAWXER_clean_sbu_0, # of connection points: 4
#     Node 4, Type 0, BuildingBlock: NAWXER_clean_sbu_0, # of connection points: 4
#     Node 5, Type 0, BuildingBlock: NAWXER_clean_sbu_0, # of connection points: 4
#     Edge 6, Type (0, 0), BuildingBlock: CIFDUS_clean_linker_0, # of connection points: 2
#     Edge 7, Type (0, 0), BuildingBlock: CIFDUS_clean_linker_0, # of connection points: 2
#     Edge 8, Type (0, 0), BuildingBlock: CIFDUS_clean_linker_0, # of connection points: 2
#     Edge 9, Type (0, 0), BuildingBlock: CIFDUS_clean_linker_0, # of connection points: 2
#     Edge 10, Type (0, 0), BuildingBlock: CIFDUS_clean_linker_0, # of connection points: 2
#     Edge 11, Type (0, 0), BuildingBlock: CIFDUS_clean_linker_0, # of connection points: 2
#     Edge 12, Type (0, 0), BuildingBlock: CIFDUS_clean_linker_0, # of connection points: 2
#     Edge 13, Type (0, 0), BuildingBlock: CIFDUS_clean_linker_0, # of connection points: 2
#     Edge 14, Type (0, 0), BuildingBlock: CIFDUS_clean_linker_0, # of connection points: 2
#     Edge 15, Type (0, 0), BuildingBlock: CIFDUS_clean_linker_0, # of connection points: 2
#     Edge 16, Type (0, 0), BuildingBlock: CIFDUS_clean_linker_0, # of connection points: 2
#     Edge 17, Type (0, 0), BuildingBlock: CIFDUS_clean_linker_0, # of connection points: 2
# Relax obj value: 0.135
# Max RMSD: 0.134
# Mean RMSD: 0.134
data_MOF--net-uon--node1-NAWXER_clean_sbu_0--edge1-CIFDUS_clean_linker_0
_symmetry_space_group_name_H-M    P1
_symmetry_Int_Tables_number       1
_symmetry_cell_setting            triclinic
loop_
_symmetry_equiv_pos_as_xyz
'x, y, z'
_cell_length_a     29.640077
_cell_length_b     30.043993
_cell_length_c     18.66211
_cell_angle_alpha  90.353908
_cell_angle_beta   89.667217
_cell_angle_gamma 120.21419
loop_
_atom_site_label
_atom_site_type_symbol
_atom_site_fract_x
_atom_site_fract_y
_atom_site_fract_z
_atom_type_partial_charge
C0 C 0.18453 0.37375 0.15207 0.0
C1 C 0.3361 0.51604 0.03404 0.0
O2 O 0.23165 0.39494 0.17335 0.0
Zn3 Zn 0.26212 0.4426 0.09388 0.0
O4 O 0.17393 0.38763 0.09261 0.0
Zn5 Zn 0.2132 0.44322 1.00961 0.0
O6 O 0.20378 0.40246 0.92355 0.0
O7 O 0.253 0.39425 1.00466 0.0
O8 O 0.29302 0.50132 1.00138 0.0
O9 O 0.33695 0.49263 0.0901 0.0
O10 O 0.22713 0.48882 0.11345 0.0
O11 O 0.18004 0.48472 0.01947 0.0
C12 C 0.23094 0.38277 0.94314 0.0
C13 C 0.19657 0.5012 0.08245 0.0
C14 C 0.76295 0.12282 0.37373 0.0
C15 C 0.79864 0.27253 0.23165 0.0
O16 O 0.79495 0.16521 0.405 0.0
Zn17 Zn 0.83145 0.24611 0.3836 0.0
O18 O 0.74499 0.12401 0.31263 0.0
Zn19 Zn 0.78002 0.19787 0.30293 0.0
O20 O 0.86061 0.21925 0.28876 0.0
O21 O 0.90503 0.26737 0.38091 0.0
O22 O 0.76745 0.2253 0.21758 0.0
O23 O 0.82406 0.28515 0.29091 0.0
O24 O 0.80543 0.26953 0.46198 0.0
O25 O 0.744 0.22113 0.38437 0.0
C26 C 0.90413 0.24569 0.32179 0.0
C27 C 0.7581 0.24814 0.44207 0.0
C28 C 0.66192 0.88449 0.63745 0.0
C29 C 0.53876 0.74564 0.79022 0.0
O30 O 0.64456 0.84059 0.60645 0.0
Zn31 Zn 0.59361 0.76037 0.63573 0.0
O32 O 0.64889 0.88643 0.70178 0.0
Zn33 Zn 0.60177 0.81428 0.71328 0.0
O34 O 0.65347 0.78359 0.72571 0.0
O35 O 0.63881 0.73177 0.63374 0.0
O36 O 0.56092 0.79394 0.79974 0.0
O37 O 0.54755 0.72776 0.73246 0.0
O38 O 0.54112 0.73725 0.56246 0.0
O39 O 0.54405 0.79886 0.63094 0.0
C40 C 0.66357 0.75257 0.69098 0.0
C41 C 0.52515 0.76836 0.57694 0.0
C42 C 0.81028 0.65104 0.93362 0.0
C43 C 0.84861 0.52565 0.03964 0.0
O44 O 0.83528 0.63152 0.90459 0.0
Zn45 Zn 0.83289 0.58992 0.98554 0.0
O46 O 0.79339 0.63883 0.99795 0.0
Zn47 Zn 0.79201 0.5898 0.08071 0.0
O48 O 0.83007 0.63664 0.15798 0.0
O49 O 0.88082 0.64458 0.06617 0.0
O50 O 0.82291 0.53903 0.08112 0.0
O51 O 0.86322 0.54581 0.97795 0.0
O52 O 0.75187 0.5324 0.98938 0.0
O53 O 0.71754 0.54094 0.0905 0.0
C54 C 0.87518 0.65825 0.12934 0.0
C55 C 0.71265 0.51764 0.0314 0.0
C56 C 0.31689 0.81683 0.38445 0.0
C57 C 0.15654 0.80731 0.29755 0.0
O58 O 0.31419 0.84207 0.33173 0.0
Zn59 Zn 0.23938 0.81766 0.34107 0.0
O60 O 0.27638 0.78893 0.42254 0.0
Zn61 Zn 0.19649 0.76757 0.42922 0.0
O62 O 0.16515 0.69318 0.41848 0.0
O63 O 0.20582 0.7371 0.32118 0.0
O64 O 0.15049 0.78245 0.35581 0.0
O65 O 0.20208 0.83431 0.27095 0.0
O66 O 0.23799 0.85643 0.43551 0.0
O67 O 0.19438 0.7995 0.51995 0.0
C68 C 0.17889 0.69399 0.35341 0.0
C69 C 0.22088 0.8462 0.49996 0.0
C70 C 0.50103 0.26413 0.83807 0.0
C71 C 0.37544 0.11926 0.69152 0.0
O72 O 0.48801 0.27857 0.78104 0.0
Zn73 Zn 0.43852 0.24296 0.68875 0.0
O74 O 0.48256 0.21638 0.84987 0.0
Zn75 Zn 0.43929 0.19156 0.76539 0.0
O76 O 0.49804 0.21498 0.68271 0.0
O77 O 0.48734 0.2662 0.60927 0.0
O78 O 0.39507 0.11753 0.75103 0.0
O79 O 0.38872 0.16318 0.66401 0.0
O80 O 0.39 0.26802 0.69699 0.0
O81 O 0.38445 0.21753 0.78605 0.0
C82 C 0.51189 0.24332 0.62657 0.0
C83 C 0.36967 0.2465 0.75633 0.0
H84 H 0.25062 0.30757 0.97931 0.0
H85 H 0.23907 0.38845 0.79682 0.0
H86 H 0.27736 0.34953 0.71985 0.0
H87 H 0.3242 0.3009 0.70855 0.0
H88 H 0.33392 0.21979 0.8928 0.0
H89 H 0.28595 0.25006 0.96457 0.0
C90 C 0.25556 0.31589 0.92237 0.0
C91 C 0.24261 0.35117 0.89384 0.0
C92 C 0.27787 0.29379 0.8789 0.0
C93 C 0.24862 0.36124 0.81993 0.0
C94 C 0.27096 0.33935 0.7761 0.0
C95 C 0.31513 0.28924 0.76409 0.0
C96 C 0.33349 0.25876 0.79536 0.0
C97 C 0.28734 0.30688 0.80555 0.0
C98 C 0.32077 0.24351 0.86725 0.0
C99 C 0.29337 0.2609 0.90859 0.0
H100 H 1.0036 0.29561 0.3762 0.0
H101 H 0.91483 0.21599 0.18786 0.0
H102 H 0.99508 0.24185 0.12173 0.0
H103 H 0.08976 0.2971 0.11186 0.0
H104 H 0.17993 0.37736 0.29817 0.0
H105 H 0.10018 0.34017 0.37094 0.0
C106 C 1.00184 0.28323 0.32107 0.0
C107 C 0.95312 0.25473 0.28681 0.0
C108 C 0.04845 0.29838 0.28282 0.0
C109 C 0.95162 0.2384 0.21558 0.0
C110 C 0.99759 0.25321 0.17747 0.0
C111 C 0.09206 0.30526 0.16888 0.0
C112 C 0.14045 0.34015 0.19953 0.0
C113 C 0.04611 0.28461 0.20978 0.0
C114 C 0.1431 0.35028 0.27346 0.0
C115 C 0.0974 0.32955 0.31485 0.0
H116 H 0.77937 0.10887 0.51247 0.0
H117 H 0.70706 0.0254 0.31789 0.0
H118 H 0.67401 0.94377 0.38127 0.0
H119 H 0.6607 0.89644 0.49377 0.0
H120 H 0.72838 0.98056 0.68946 0.0
H121 H 0.76883 0.0617 0.62355 0.0
C122 C 0.75681 0.07285 0.48363 0.0
C123 C 0.74558 0.07327 0.41056 0.0
C124 C 0.73714 0.02619 0.52065 0.0
C125 C 0.71605 0.02619 0.37422 0.0
C126 C 0.69719 0.9795 0.4104 0.0
C127 C 0.68511 0.93248 0.5217 0.0
C128 C 0.69176 0.93257 0.59629 0.0
C129 C 0.70686 0.97906 0.48385 0.0
C130 C 0.72272 0.97957 0.63205 0.0
C131 C 0.74571 0.02594 0.59445 0.0
H132 H 0.79057 0.64733 0.79076 0.0
H133 H 0.79525 0.72678 0.98631 0.0
H134 H 0.7554 0.77009 0.92557 0.0
H135 H 0.70999 0.77747 0.8215 0.0
H136 H 0.69943 0.69373 0.62761 0.0
H137 H 0.75103 0.66042 0.68271 0.0
C138 C 0.78399 0.67509 0.81941 0.0
C139 C 0.7957 0.68383 0.89283 0.0
C140 C 0.75929 0.69852 0.78473 0.0
C141 C 0.78634 0.71932 0.92977 0.0
C142 C 0.76339 0.74394 0.89517 0.0
C143 C 0.71959 0.75256 0.7908 0.0
C144 C 0.70041 0.73778 0.72075 0.0
C145 C 0.74818 0.73258 0.82334 0.0
C146 C 0.71332 0.70544 0.68186 0.0
C147 C 0.74282 0.6863 0.71336 0.0
H148 H 0.97266 0.72389 0.07794 0.0
H149 H 0.88299 0.67476 0.27398 0.0
H150 H 0.96271 0.72357 0.34386 0.0
H151 H 0.05843 0.77017 0.34935 0.0
H152 H 0.14847 0.81902 0.15373 0.0
H153 H 0.06801 0.78138 0.0837 0.0
C154 C 0.97046 0.72451 0.13594 0.0
C155 C 0.92198 0.69497 0.17069 0.0
C156 C 1.01655 0.75248 0.17589 0.0
C157 C 0.91974 0.69686 0.24582 0.0
C158 C 0.96538 0.72463 0.28589 0.0
C159 C 0.06049 0.77358 0.29143 0.0
C160 C 0.1094 0.79677 0.25679 0.0
C161 C 1.01411 0.75113 0.25152 0.0
C162 C 0.1114 0.80141 0.18179 0.0
C163 C 0.06535 0.77944 0.14165 0.0
H164 H 0.33019 0.01857 0.73598 0.0
H165 H 0.33998 0.1128 0.55589 0.0
H166 H 0.28785 0.03617 0.48398 0.0
H167 H 0.24617 0.94325 0.46799 0.0
H168 H 0.23479 0.847 0.64553 0.0
H169 H 0.27965 0.9233 0.72298 0.0
C170 C 0.32052 0.02226 0.68122 0.0
C171 C 0.3397 0.07159 0.65131 0.0
C172 C 0.2901 0.97766 0.63963 0.0
C173 C 0.32621 0.07555 0.58043 0.0
C174 C 0.29631 0.03166 0.53903 0.0
C175 C 0.25275 0.93883 0.52399 0.0
C176 C 0.2376 0.88966 0.55086 0.0
C177 C 0.27901 0.98268 0.56754 0.0
C178 C 0.24588 0.88446 0.62365 0.0
C179 C 0.272 0.92814 0.66771 0.0
H180 H 0.16464 0.6769 0.21118 0.0
H181 H 0.17061 0.60604 0.40846 0.0
H182 H 0.17212 0.53674 0.34047 0.0
H183 H 0.18291 0.50305 0.22507 0.0
H184 H 0.17583 0.57324 0.02776 0.0
H185 H 0.16316 0.63625 0.09572 0.0
C186 C 0.16533 0.64573 0.23927 0.0
C187 C 0.1682 0.64675 0.31461 0.0
C188 C 0.16662 0.6065 0.19985 0.0
C189 C 0.1683 0.60594 0.35055 0.0
C190 C 0.16964 0.56665 0.31166 0.0
C191 C 0.17803 0.53186 0.19699 0.0
C192 C 0.18125 0.53433 0.12167 0.0
C193 C 0.17063 0.56761 0.23636 0.0
C194 C 0.17373 0.57091 0.08569 0.0
C195 C 0.16671 0.60696 0.12454 0.0
H196 H 0.60056 0.24743 0.67216 0.0
H197 H 0.52113 0.25055 0.48118 0.0
H198 H 0.59054 0.25261 0.40678 0.0
H199 H 0.67234 0.25013 0.39621 0.0
H200 H 0.75544 0.25461 0.58748 0.0
H201 H 0.68645 0.25336 0.66173 0.0
C202 C 0.59867 0.24877 0.61423 0.0
C203 C 0.55563 0.24828 0.58202 0.0
C204 C 0.63937 0.2513 0.57199 0.0
C205 C 0.55393 0.2509 0.50706 0.0
C206 C 0.5935 0.25191 0.46458 0.0
C207 C 0.67539 0.25114 0.45417 0.0
C208 C 0.71864 0.25202 0.48643 0.0
C209 C 0.63616 0.25161 0.49644 0.0
C210 C 0.72258 0.25405 0.56148 0.0
C211 C 0.68303 0.2531 0.60391 0.0
H212 H 0.53017 0.65706 0.84114 0.0
H213 H 0.46438 0.75601 0.86022 0.0
H214 H 0.39779 0.69523 0.94295 0.0
H215 H 0.35426 0.61072 1.0022 0.0
H216 H 0.4232 0.51436 0.99159 0.0
H217 H 0.49331 0.57757 0.91433 0.0
C218 C 0.50137 0.66525 0.86395 0.0
C219 C 0.50142 0.71035 0.84401 0.0
C220 C 0.46415 0.63082 0.91319 0.0
C221 C 0.46475 0.72133 0.87471 0.0
C222 C 0.42672 0.68662 0.9219 0.0
C223 C 0.38547 0.60435 0.9843 0.0
C224 C 0.38403 0.55838 1.00243 0.0
C225 C 0.42558 0.64093 0.94062 0.0
C226 C 0.42421 0.55 0.97894 0.0
C227 C 0.46385 0.58582 0.93419 0.0
H228 H 0.78482 0.42511 1.01457 0.0
H229 H 0.92618 0.53291 0.12337 0.0
H230 H 0.92509 0.46236 0.1902 0.0
H231 H 0.87795 0.37173 0.22746 0.0
H232 H 0.73469 0.26405 0.12111 0.0
H233 H 0.74226 0.33269 0.04336 0.0
C234 C 0.81627 0.43262 0.0511 0.0
C235 C 0.85618 0.48353 0.0633 0.0
C236 C 0.81426 0.39213 0.09081 0.0
C237 C 0.89591 0.49363 0.11226 0.0
C238 C 0.89483 0.45345 0.151 0.0
C239 C 0.84858 0.3632 0.18692 0.0
C240 C 0.80541 0.31304 0.18078 0.0
C241 C 0.85323 0.40281 0.14242 0.0
C242 C 0.76813 0.3024 0.12722 0.0
C243 C 0.77243 0.34162 0.08273 0.0
H244 H 0.32941 0.73553 0.40326 0.0
H245 H 0.4117 0.90123 0.4138 0.0
H246 H 0.48505 0.90112 0.4744 0.0
H247 H 0.5213 0.85263 0.53464 0.0
H248 H 0.44031 0.68702 0.51717 0.0
H249 H 0.37058 0.68802 0.44891 0.0
C250 C 0.36407 0.77161 0.41734 0.0
C251 C 0.36559 0.81833 0.40425 0.0
C252 C 0.40565 0.77106 0.45191 0.0
C253 C 0.41027 0.86494 0.42265 0.0
C254 C 0.45178 0.86476 0.458 0.0
C255 C 0.48841 0.81689 0.51548 0.0
C256 C 0.48519 0.7697 0.53182 0.0
C257 C 0.44918 0.81793 0.47471 0.0
C258 C 0.44323 0.72367 0.50552 0.0
C259 C 0.40346 0.72426 0.46656 0.0
H260 H 0.51273 0.35781 0.86637 0.0
H261 H 0.57284 0.25841 0.92233 0.0
H262 H 0.6413 0.32745 0.99461 0.0
H263 H 0.68914 0.41892 0.03139 0.0
H264 H 0.62754 0.51735 0.97865 0.0
H265 H 0.55386 0.44571 0.91634 0.0
C266 C 0.54055 0.35119 0.89504 0.0
C267 C 0.53837 0.30347 0.88831 0.0
C268 C 0.57925 0.39079 0.9371 0.0
C269 C 0.57393 0.29492 0.9266 0.0
C270 C 0.61311 0.3344 0.96772 0.0
C271 C 0.65861 0.424 1.00794 0.0
C272 C 0.66296 0.47274 1.00989 0.0
C273 C 0.61678 0.38279 0.97207 0.0
C274 C 0.6241 0.47969 0.9786 0.0
C275 C 0.58243 0.43896 0.94244 0.0
loop_
_geom_bond_atom_site_label_1
_geom_bond_atom_site_label_2
_geom_bond_distance
_geom_bond_site_symmetry_2
_ccdc_geom_bond_type
C0 O2 1.247 . S
C0 O4 1.258 . S
C1 O8 1.247 . S
C1 O9 1.258 1_556 S
O2 C0 1.247 . S
O2 Zn3 2.028 . S
Zn3 O2 2.028 . S
Zn3 O7 2.035 . S
Zn3 O9 2.035 . S
Zn3 O10 2.028 . S
O4 C0 1.258 . S
O4 Zn5 2.035 1_554 S
Zn5 O4 2.035 1_556 S
Zn5 O6 2.028 . S
Zn5 O8 2.028 . S
Zn5 O11 2.035 1_556 S
O6 Zn5 2.028 . S
O6 C12 1.247 . S
O7 Zn3 2.035 . S
O7 C12 1.258 1_554 S
O8 C1 1.247 . S
O8 Zn5 2.028 . S
O9 C1 1.258 1_554 S
O9 Zn3 2.035 . S
O10 Zn3 2.028 . S
O10 C13 1.247 . S
O11 Zn5 2.035 1_554 S
O11 C13 1.258 . S
C12 O6 1.247 . S
C12 O7 1.258 1_556 S
C13 O10 1.247 . S
C13 O11 1.258 . S
C14 O16 1.247 . S
C14 O18 1.258 . S
C15 O22 1.247 . S
C15 O23 1.258 . S
O16 C14 1.247 . S
O16 Zn17 2.028 . S
Zn17 O16 2.028 . S
Zn17 O21 2.035 . S
Zn17 O23 2.035 . S
Zn17 O24 2.028 . S
O18 C14 1.258 . S
O18 Zn19 2.035 . S
Zn19 O18 2.035 . S
Zn19 O20 2.028 . S
Zn19 O22 2.028 . S
Zn19 O25 2.035 . S
O20 Zn19 2.028 . S
O20 C26 1.247 . S
O21 Zn17 2.035 . S
O21 C26 1.258 . S
O22 C15 1.247 . S
O22 Zn19 2.028 . S
O23 C15 1.258 . S
O23 Zn17 2.035 . S
O24 Zn17 2.028 . S
O24 C27 1.247 . S
O25 Zn19 2.035 . S
O25 C27 1.258 . S
C26 O20 1.247 . S
C26 O21 1.258 . S
C27 O24 1.247 . S
C27 O25 1.258 . S
C28 O30 1.247 . S
C28 O32 1.258 . S
C29 O36 1.247 . S
C29 O37 1.258 . S
O30 C28 1.247 . S
O30 Zn31 2.028 . S
Zn31 O30 2.028 . S
Zn31 O35 2.035 . S
Zn31 O37 2.035 . S
Zn31 O38 2.028 . S
O32 C28 1.258 . S
O32 Zn33 2.035 . S
Zn33 O32 2.035 . S
Zn33 O34 2.028 . S
Zn33 O36 2.028 . S
Zn33 O39 2.035 . S
O34 Zn33 2.028 . S
O34 C40 1.247 . S
O35 Zn31 2.035 . S
O35 C40 1.258 . S
O36 C29 1.247 . S
O36 Zn33 2.028 . S
O37 C29 1.258 . S
O37 Zn31 2.035 . S
O38 Zn31 2.028 . S
O38 C41 1.247 . S
O39 Zn33 2.035 . S
O39 C41 1.258 . S
C40 O34 1.247 . S
C40 O35 1.258 . S
C41 O38 1.247 . S
C41 O39 1.258 . S
C42 O44 1.247 . S
C42 O46 1.258 1_556 S
C43 O50 1.247 . S
C43 O51 1.258 . S
O44 C42 1.247 . S
O44 Zn45 2.028 . S
Zn45 O44 2.028 . S
Zn45 O49 2.035 1_556 S
Zn45 O51 2.035 1_556 S
Zn45 O52 2.028 . S
O46 C42 1.258 1_554 S
O46 Zn47 2.035 . S
Zn47 O46 2.035 . S
Zn47 O48 2.028 . S
Zn47 O50 2.028 . S
Zn47 O53 2.035 . S
O48 Zn47 2.028 . S
O48 C54 1.247 . S
O49 Zn45 2.035 1_554 S
O49 C54 1.258 . S
O50 C43 1.247 . S
O50 Zn47 2.028 . S
O51 C43 1.258 . S
O51 Zn45 2.035 1_554 S
O52 Zn45 2.028 . S
O52 C55 1.247 . S
O53 Zn47 2.035 . S
O53 C55 1.258 1_554 S
C54 O48 1.247 . S
C54 O49 1.258 . S
C55 O52 1.247 . S
C55 O53 1.258 1_556 S
C56 O58 1.247 . S
C56 O60 1.258 . S
C57 O64 1.247 . S
C57 O65 1.258 . S
O58 C56 1.247 . S
O58 Zn59 2.028 . S
Zn59 O58 2.028 . S
Zn59 O63 2.035 . S
Zn59 O65 2.035 . S
Zn59 O66 2.028 . S
O60 C56 1.258 . S
O60 Zn61 2.035 . S
Zn61 O60 2.035 . S
Zn61 O62 2.028 . S
Zn61 O64 2.028 . S
Zn61 O67 2.035 . S
O62 Zn61 2.028 . S
O62 C68 1.247 . S
O63 Zn59 2.035 . S
O63 C68 1.258 . S
O64 C57 1.247 . S
O64 Zn61 2.028 . S
O65 C57 1.258 . S
O65 Zn59 2.035 . S
O66 Zn59 2.028 . S
O66 C69 1.247 . S
O67 Zn61 2.035 . S
O67 C69 1.258 . S
C68 O62 1.247 . S
C68 O63 1.258 . S
C69 O66 1.247 . S
C69 O67 1.258 . S
C70 O72 1.247 . S
C70 O74 1.258 . S
C71 O78 1.247 . S
C71 O79 1.258 . S
O72 C70 1.247 . S
O72 Zn73 2.028 . S
Zn73 O72 2.028 . S
Zn73 O77 2.035 . S
Zn73 O79 2.035 . S
Zn73 O80 2.028 . S
O74 C70 1.258 . S
O74 Zn75 2.035 . S
Zn75 O74 2.035 . S
Zn75 O76 2.028 . S
Zn75 O78 2.028 . S
Zn75 O81 2.035 . S
O76 Zn75 2.028 . S
O76 C82 1.247 . S
O77 Zn73 2.035 . S
O77 C82 1.258 . S
O78 C71 1.247 . S
O78 Zn75 2.028 . S
O79 C71 1.258 . S
O79 Zn73 2.035 . S
O80 Zn73 2.028 . S
O80 C83 1.247 . S
O81 Zn75 2.035 . S
O81 C83 1.258 . S
C82 O76 1.247 . S
C82 O77 1.258 . S
C83 O80 1.247 . S
C83 O81 1.258 . S
H84 C90 0.930 . S
H85 C93 0.930 . S
H86 C94 0.930 . S
H87 C95 0.930 . S
H88 C98 0.930 . S
H89 C99 0.930 . S
C90 H84 0.930 . S
C90 C91 1.355 . S
C90 C92 1.415 . S
C91 C90 1.355 . S
C91 C93 1.419 . S
C92 C90 1.415 . S
C92 C97 1.425 . S
C92 C99 1.409 . S
C93 H85 0.930 . S
C93 C91 1.419 . S
C93 C94 1.362 . S
C94 H86 0.930 . S
C94 C93 1.362 . S
C94 C97 1.409 . S
C95 H87 0.930 . S
C95 C96 1.355 . S
C95 C97 1.415 . S
C96 C95 1.355 . S
C96 C98 1.419 . S
C97 C92 1.425 . S
C97 C94 1.409 . S
C97 C95 1.415 . S
C98 H88 0.930 . S
C98 C96 1.419 . S
C98 C99 1.362 . S
C99 H89 0.930 . S
C99 C92 1.409 . S
C99 C98 1.362 . S
H100 C106 0.930 . S
H101 C109 0.930 . S
H102 C110 0.930 . S
H103 C111 0.930 . S
H104 C114 0.930 . S
H105 C115 0.930 . S
C106 H100 0.930 . S
C106 C107 1.355 . S
C106 C108 1.415 . S
C107 C106 1.355 . S
C107 C109 1.419 . S
C108 C106 1.415 . S
C108 C113 1.425 1_655 S
C108 C115 1.409 1_655 S
C109 H101 0.930 . S
C109 C107 1.419 . S
C109 C110 1.362 . S
C110 H102 0.930 . S
C110 C109 1.362 . S
C110 C113 1.409 1_655 S
C111 H103 0.930 . S
C111 C112 1.355 . S
C111 C113 1.415 . S
C112 C111 1.355 . S
C112 C114 1.419 . S
C113 C108 1.425 1_455 S
C113 C110 1.409 1_455 S
C113 C111 1.415 . S
C114 H104 0.930 . S
C114 C112 1.419 . S
C114 C115 1.362 . S
C115 H105 0.930 . S
C115 C108 1.409 1_455 S
C115 C114 1.362 . S
H116 C122 0.930 . S
H117 C125 0.930 . S
H118 C126 0.930 . S
H119 C127 0.930 . S
H120 C130 0.930 . S
H121 C131 0.930 . S
C122 H116 0.930 . S
C122 C123 1.355 . S
C122 C124 1.415 . S
C123 C122 1.355 . S
C123 C125 1.419 . S
C124 C122 1.415 . S
C124 C129 1.425 1_545 S
C124 C131 1.409 . S
C125 H117 0.930 . S
C125 C123 1.419 . S
C125 C126 1.362 1_545 S
C126 H118 0.930 . S
C126 C125 1.362 1_565 S
C126 C129 1.409 . S
C127 H119 0.930 . S
C127 C128 1.355 . S
C127 C129 1.415 . S
C128 C127 1.355 . S
C128 C130 1.419 . S
C129 C124 1.425 1_565 S
C129 C126 1.409 . S
C129 C127 1.415 . S
C130 H120 0.930 . S
C130 C128 1.419 . S
C130 C131 1.362 1_565 S
C131 H121 0.930 . S
C131 C124 1.409 . S
C131 C130 1.362 1_545 S
H132 C138 0.930 . S
H133 C141 0.930 . S
H134 C142 0.930 . S
H135 C143 0.930 . S
H136 C146 0.930 . S
H137 C147 0.930 . S
C138 H132 0.930 . S
C138 C139 1.355 . S
C138 C140 1.415 . S
C139 C138 1.355 . S
C139 C141 1.419 . S
C140 C138 1.415 . S
C140 C145 1.425 . S
C140 C147 1.409 . S
C141 H133 0.930 . S
C141 C139 1.419 . S
C141 C142 1.362 . S
C142 H134 0.930 . S
C142 C141 1.362 . S
C142 C145 1.409 . S
C143 H135 0.930 . S
C143 C144 1.355 . S
C143 C145 1.415 . S
C144 C143 1.355 . S
C144 C146 1.419 . S
C145 C140 1.425 . S
C145 C142 1.409 . S
C145 C143 1.415 . S
C146 H136 0.930 . S
C146 C144 1.419 . S
C146 C147 1.362 . S
C147 H137 0.930 . S
C147 C140 1.409 . S
C147 C146 1.362 . S
H148 C154 0.930 . S
H149 C157 0.930 . S
H150 C158 0.930 . S
H151 C159 0.930 . S
H152 C162 0.930 . S
H153 C163 0.930 . S
C154 H148 0.930 . S
C154 C155 1.355 . S
C154 C156 1.403 1_655 S
C155 C154 1.355 . S
C155 C157 1.419 . S
C156 C154 1.403 1_455 S
C156 C161 1.436 1_455 S
C156 C163 1.416 . S
C157 H149 0.930 . S
C157 C155 1.419 . S
C157 C158 1.362 . S
C158 H150 0.930 . S
C158 C157 1.362 . S
C158 C161 1.416 . S
C159 H151 0.930 . S
C159 C160 1.355 . S
C159 C161 1.403 1_455 S
C160 C159 1.355 . S
C160 C162 1.419 . S
C161 C156 1.436 1_655 S
C161 C158 1.416 . S
C161 C159 1.403 1_655 S
C162 H152 0.930 . S
C162 C160 1.419 . S
C162 C163 1.362 . S
C163 H153 0.930 . S
C163 C156 1.416 . S
C163 C162 1.362 . S
H164 C170 0.930 . S
H165 C173 0.930 . S
H166 C174 0.930 . S
H167 C175 0.930 . S
H168 C178 0.930 . S
H169 C179 0.930 . S
C170 H164 0.930 . S
C170 C171 1.355 . S
C170 C172 1.415 1_545 S
C171 C170 1.355 . S
C171 C173 1.419 . S
C172 C170 1.415 1_565 S
C172 C177 1.425 1_565 S
C172 C179 1.409 . S
C173 H165 0.930 . S
C173 C171 1.419 . S
C173 C174 1.362 . S
C174 H166 0.930 . S
C174 C173 1.362 . S
C174 C177 1.409 . S
C175 H167 0.930 . S
C175 C176 1.355 . S
C175 C177 1.415 1_565 S
C176 C175 1.355 . S
C176 C178 1.419 . S
C177 C172 1.425 1_545 S
C177 C174 1.409 . S
C177 C175 1.415 1_545 S
C178 H168 0.930 . S
C178 C176 1.419 . S
C178 C179 1.362 . S
C179 H169 0.930 . S
C179 C172 1.409 . S
C179 C178 1.362 . S
H180 C186 0.930 . S
H181 C189 0.930 . S
H182 C190 0.930 . S
H183 C191 0.930 . S
H184 C194 0.930 . S
H185 C195 0.930 . S
C186 H180 0.930 . S
C186 C187 1.355 . S
C186 C188 1.415 . S
C187 C186 1.355 . S
C187 C189 1.419 . S
C188 C186 1.415 . S
C188 C193 1.425 . S
C188 C195 1.409 . S
C189 H181 0.930 . S
C189 C187 1.419 . S
C189 C190 1.362 . S
C190 H182 0.930 . S
C190 C189 1.362 . S
C190 C193 1.409 . S
C191 H183 0.930 . S
C191 C192 1.355 . S
C191 C193 1.415 . S
C192 C191 1.355 . S
C192 C194 1.419 . S
C193 C188 1.425 . S
C193 C190 1.409 . S
C193 C191 1.415 . S
C194 H184 0.930 . S
C194 C192 1.419 . S
C194 C195 1.362 . S
C195 H185 0.930 . S
C195 C188 1.409 . S
C195 C194 1.362 . S
H196 C202 0.930 . S
H197 C205 0.930 . S
H198 C206 0.930 . S
H199 C207 0.930 . S
H200 C210 0.930 . S
H201 C211 0.930 . S
C202 H196 0.930 . S
C202 C203 1.355 . S
C202 C204 1.415 . S
C203 C202 1.355 . S
C203 C205 1.419 . S
C204 C202 1.415 . S
C204 C209 1.425 . S
C204 C211 1.409 . S
C205 H197 0.930 . S
C205 C203 1.419 . S
C205 C206 1.362 . S
C206 H198 0.930 . S
C206 C205 1.362 . S
C206 C209 1.409 . S
C207 H199 0.930 . S
C207 C208 1.355 . S
C207 C209 1.415 . S
C208 C207 1.355 . S
C208 C210 1.419 . S
C209 C204 1.425 . S
C209 C206 1.409 . S
C209 C207 1.415 . S
C210 H200 0.930 . S
C210 C208 1.419 . S
C210 C211 1.362 . S
C211 H201 0.930 . S
C211 C204 1.409 . S
C211 C210 1.362 . S
H212 C218 0.930 . S
H213 C221 0.930 . S
H214 C222 0.930 . S
H215 C223 0.930 . S
H216 C226 0.930 . S
H217 C227 0.930 . S
C218 H212 0.930 . S
C218 C219 1.355 . S
C218 C220 1.415 . S
C219 C218 1.355 . S
C219 C221 1.419 . S
C220 C218 1.415 . S
C220 C225 1.425 . S
C220 C227 1.409 . S
C221 H213 0.930 . S
C221 C219 1.419 . S
C221 C222 1.362 . S
C222 H214 0.930 . S
C222 C221 1.362 . S
C222 C225 1.409 . S
C223 H215 0.930 . S
C223 C224 1.355 . S
C223 C225 1.415 . S
C224 C223 1.355 . S
C224 C226 1.419 . S
C225 C220 1.425 . S
C225 C222 1.409 . S
C225 C223 1.415 . S
C226 H216 0.930 . S
C226 C224 1.419 . S
C226 C227 1.362 . S
C227 H217 0.930 . S
C227 C220 1.409 . S
C227 C226 1.362 . S
H228 C234 0.930 . S
H229 C237 0.930 . S
H230 C238 0.930 . S
H231 C239 0.930 . S
H232 C242 0.930 . S
H233 C243 0.930 . S
C234 H228 0.930 . S
C234 C235 1.355 . S
C234 C236 1.415 . S
C235 C234 1.355 . S
C235 C237 1.419 . S
C236 C234 1.415 . S
C236 C241 1.425 . S
C236 C243 1.409 . S
C237 H229 0.930 . S
C237 C235 1.419 . S
C237 C238 1.362 . S
C238 H230 0.930 . S
C238 C237 1.362 . S
C238 C241 1.409 . S
C239 H231 0.930 . S
C239 C240 1.355 . S
C239 C241 1.415 . S
C240 C239 1.355 . S
C240 C242 1.419 . S
C241 C236 1.425 . S
C241 C238 1.409 . S
C241 C239 1.415 . S
C242 H232 0.930 . S
C242 C240 1.419 . S
C242 C243 1.362 . S
C243 H233 0.930 . S
C243 C236 1.409 . S
C243 C242 1.362 . S
H244 C250 0.930 . S
H245 C253 0.930 . S
H246 C254 0.930 . S
H247 C255 0.930 . S
H248 C258 0.930 . S
H249 C259 0.930 . S
C250 H244 0.930 . S
C250 C251 1.355 . S
C250 C252 1.415 . S
C251 C250 1.355 . S
C251 C253 1.419 . S
C252 C250 1.415 . S
C252 C257 1.425 . S
C252 C259 1.409 . S
C253 H245 0.930 . S
C253 C251 1.419 . S
C253 C254 1.362 . S
C254 H246 0.930 . S
C254 C253 1.362 . S
C254 C257 1.409 . S
C255 H247 0.930 . S
C255 C256 1.355 . S
C255 C257 1.415 . S
C256 C255 1.355 . S
C256 C258 1.419 . S
C257 C252 1.425 . S
C257 C254 1.409 . S
C257 C255 1.415 . S
C258 H248 0.930 . S
C258 C256 1.419 . S
C258 C259 1.362 . S
C259 H249 0.930 . S
C259 C252 1.409 . S
C259 C258 1.362 . S
H260 C266 0.930 . S
H261 C269 0.930 . S
H262 C270 0.930 . S
H263 C271 0.930 . S
H264 C274 0.930 . S
H265 C275 0.930 . S
C266 H260 0.930 . S
C266 C267 1.355 . S
C266 C268 1.415 . S
C267 C266 1.355 . S
C267 C269 1.419 . S
C268 C266 1.415 . S
C268 C273 1.425 . S
C268 C275 1.409 . S
C269 H261 0.930 . S
C269 C267 1.419 . S
C269 C270 1.362 . S
C270 H262 0.930 . S
C270 C269 1.362 . S
C270 C273 1.409 . S
C271 H263 0.930 . S
C271 C272 1.355 . S
C271 C273 1.415 . S
C272 C271 1.355 . S
C272 C274 1.419 . S
C273 C268 1.425 . S
C273 C270 1.409 . S
C273 C271 1.415 . S
C274 H264 0.930 . S
C274 C272 1.419 . S
C274 C275 1.362 . S
C275 H265 0.930 . S
C275 C268 1.409 . S
C275 C274 1.362 . S
C91 C12 1.442 . S
C96 C83 1.442 . S
C107 C26 1.453 . S
C112 C0 1.425 . S
C123 C14 1.444 . S
C128 C28 1.427 . S
C139 C42 1.451 . S
C144 C40 1.424 . S
C155 C54 1.427 . S
C160 C57 1.453 . S
C171 C71 1.429 . S
C176 C69 1.452 . S
C187 C68 1.471 . S
C192 C13 1.501 . S
C203 C82 1.488 . S
C208 C27 1.497 . S
C219 C29 1.497 . S
C224 C1 1.487 . S
C235 C43 1.504 . S
C240 C15 1.471 . S
C251 C56 1.489 . S
C256 C41 1.496 . S
C267 C70 1.498 . S
C272 C55 1.486 . S
