# Generated by pormake.
# Topology flu-e, (6)-cn, num edge types: 1
# Building blocks:
#     Node 0, Type 0, BuildingBlock: OJICUG_clean_sbu_0, # of connection points: 6
#     Node 1, Type 0, BuildingBlock: OJICUG_clean_sbu_0, # of connection points: 6
#     Node 2, Type 0, BuildingBlock: OJICUG_clean_sbu_0, # of connection points: 6
#     Node 3, Type 0, BuildingBlock: OJICUG_clean_sbu_0, # of connection points: 6
#     Node 4, Type 0, BuildingBlock: OJICUG_clean_sbu_0, # of connection points: 6
#     Node 5, Type 0, BuildingBlock: OJICUG_clean_sbu_0, # of connection points: 6
#     Node 6, Type 0, BuildingBlock: OJICUG_clean_sbu_0, # of connection points: 6
#     Node 7, Type 0, BuildingBlock: OJICUG_clean_sbu_0, # of connection points: 6
#     Node 8, Type 0, BuildingBlock: OJICUG_clean_sbu_0, # of connection points: 6
#     Node 9, Type 0, BuildingBlock: OJICUG_clean_sbu_0, # of connection points: 6
#     Node 10, Type 0, BuildingBlock: OJICUG_clean_sbu_0, # of connection points: 6
#     Node 11, Type 0, BuildingBlock: OJICUG_clean_sbu_0, # of connection points: 6
#     Node 12, Type 0, BuildingBlock: OJICUG_clean_sbu_0, # of connection points: 6
#     Node 13, Type 0, BuildingBlock: OJICUG_clean_sbu_0, # of connection points: 6
#     Node 14, Type 0, BuildingBlock: OJICUG_clean_sbu_0, # of connection points: 6
#     Node 15, Type 0, BuildingBlock: OJICUG_clean_sbu_0, # of connection points: 6
#     Node 16, Type 0, BuildingBlock: OJICUG_clean_sbu_0, # of connection points: 6
#     Node 17, Type 0, BuildingBlock: OJICUG_clean_sbu_0, # of connection points: 6
#     Node 18, Type 0, BuildingBlock: OJICUG_clean_sbu_0, # of connection points: 6
#     Node 19, Type 0, BuildingBlock: OJICUG_clean_sbu_0, # of connection points: 6
#     Node 20, Type 0, BuildingBlock: OJICUG_clean_sbu_0, # of connection points: 6
#     Node 21, Type 0, BuildingBlock: OJICUG_clean_sbu_0, # of connection points: 6
#     Node 22, Type 0, BuildingBlock: OJICUG_clean_sbu_0, # of connection points: 6
#     Node 23, Type 0, BuildingBlock: OJICUG_clean_sbu_0, # of connection points: 6
#     Node 24, Type 0, BuildingBlock: OJICUG_clean_sbu_0, # of connection points: 6
#     Node 25, Type 0, BuildingBlock: OJICUG_clean_sbu_0, # of connection points: 6
#     Node 26, Type 0, BuildingBlock: OJICUG_clean_sbu_0, # of connection points: 6
#     Node 27, Type 0, BuildingBlock: OJICUG_clean_sbu_0, # of connection points: 6
#     Node 28, Type 0, BuildingBlock: OJICUG_clean_sbu_0, # of connection points: 6
#     Node 29, Type 0, BuildingBlock: OJICUG_clean_sbu_0, # of connection points: 6
#     Node 30, Type 0, BuildingBlock: OJICUG_clean_sbu_0, # of connection points: 6
#     Node 31, Type 0, BuildingBlock: OJICUG_clean_sbu_0, # of connection points: 6
#     Edge 32, Type (0, 0), BuildingBlock: AJUNOK_clean_linker_0, # of connection points: 2
#     Edge 33, Type (0, 0), BuildingBlock: AJUNOK_clean_linker_0, # of connection points: 2
#     Edge 34, Type (0, 0), BuildingBlock: AJUNOK_clean_linker_0, # of connection points: 2
#     Edge 35, Type (0, 0), BuildingBlock: AJUNOK_clean_linker_0, # of connection points: 2
#     Edge 36, Type (0, 0), BuildingBlock: AJUNOK_clean_linker_0, # of connection points: 2
#     Edge 37, Type (0, 0), BuildingBlock: AJUNOK_clean_linker_0, # of connection points: 2
#     Edge 38, Type (0, 0), BuildingBlock: AJUNOK_clean_linker_0, # of connection points: 2
#     Edge 39, Type (0, 0), BuildingBlock: AJUNOK_clean_linker_0, # of connection points: 2
#     Edge 40, Type (0, 0), BuildingBlock: AJUNOK_clean_linker_0, # of connection points: 2
#     Edge 41, Type (0, 0), BuildingBlock: AJUNOK_clean_linker_0, # of connection points: 2
#     Edge 42, Type (0, 0), BuildingBlock: AJUNOK_clean_linker_0, # of connection points: 2
#     Edge 43, Type (0, 0), BuildingBlock: AJUNOK_clean_linker_0, # of connection points: 2
#     Edge 44, Type (0, 0), BuildingBlock: AJUNOK_clean_linker_0, # of connection points: 2
#     Edge 45, Type (0, 0), BuildingBlock: AJUNOK_clean_linker_0, # of connection points: 2
#     Edge 46, Type (0, 0), BuildingBlock: AJUNOK_clean_linker_0, # of connection points: 2
#     Edge 47, Type (0, 0), BuildingBlock: AJUNOK_clean_linker_0, # of connection points: 2
#     Edge 48, Type (0, 0), BuildingBlock: AJUNOK_clean_linker_0, # of connection points: 2
#     Edge 49, Type (0, 0), BuildingBlock: AJUNOK_clean_linker_0, # of connection points: 2
#     Edge 50, Type (0, 0), BuildingBlock: AJUNOK_clean_linker_0, # of connection points: 2
#     Edge 51, Type (0, 0), BuildingBlock: AJUNOK_clean_linker_0, # of connection points: 2
#     Edge 52, Type (0, 0), BuildingBlock: AJUNOK_clean_linker_0, # of connection points: 2
#     Edge 53, Type (0, 0), BuildingBlock: AJUNOK_clean_linker_0, # of connection points: 2
#     Edge 54, Type (0, 0), BuildingBlock: AJUNOK_clean_linker_0, # of connection points: 2
#     Edge 55, Type (0, 0), BuildingBlock: AJUNOK_clean_linker_0, # of connection points: 2
#     Edge 56, Type (0, 0), BuildingBlock: AJUNOK_clean_linker_0, # of connection points: 2
#     Edge 57, Type (0, 0), BuildingBlock: AJUNOK_clean_linker_0, # of connection points: 2
#     Edge 58, Type (0, 0), BuildingBlock: AJUNOK_clean_linker_0, # of connection points: 2
#     Edge 59, Type (0, 0), BuildingBlock: AJUNOK_clean_linker_0, # of connection points: 2
#     Edge 60, Type (0, 0), BuildingBlock: AJUNOK_clean_linker_0, # of connection points: 2
#     Edge 61, Type (0, 0), BuildingBlock: AJUNOK_clean_linker_0, # of connection points: 2
#     Edge 62, Type (0, 0), BuildingBlock: AJUNOK_clean_linker_0, # of connection points: 2
#     Edge 63, Type (0, 0), BuildingBlock: AJUNOK_clean_linker_0, # of connection points: 2
#     Edge 64, Type (0, 0), BuildingBlock: AJUNOK_clean_linker_0, # of connection points: 2
#     Edge 65, Type (0, 0), BuildingBlock: AJUNOK_clean_linker_0, # of connection points: 2
#     Edge 66, Type (0, 0), BuildingBlock: AJUNOK_clean_linker_0, # of connection points: 2
#     Edge 67, Type (0, 0), BuildingBlock: AJUNOK_clean_linker_0, # of connection points: 2
#     Edge 68, Type (0, 0), BuildingBlock: AJUNOK_clean_linker_0, # of connection points: 2
#     Edge 69, Type (0, 0), BuildingBlock: AJUNOK_clean_linker_0, # of connection points: 2
#     Edge 70, Type (0, 0), BuildingBlock: AJUNOK_clean_linker_0, # of connection points: 2
#     Edge 71, Type (0, 0), BuildingBlock: AJUNOK_clean_linker_0, # of connection points: 2
#     Edge 72, Type (0, 0), BuildingBlock: AJUNOK_clean_linker_0, # of connection points: 2
#     Edge 73, Type (0, 0), BuildingBlock: AJUNOK_clean_linker_0, # of connection points: 2
#     Edge 74, Type (0, 0), BuildingBlock: AJUNOK_clean_linker_0, # of connection points: 2
#     Edge 75, Type (0, 0), BuildingBlock: AJUNOK_clean_linker_0, # of connection points: 2
#     Edge 76, Type (0, 0), BuildingBlock: AJUNOK_clean_linker_0, # of connection points: 2
#     Edge 77, Type (0, 0), BuildingBlock: AJUNOK_clean_linker_0, # of connection points: 2
#     Edge 78, Type (0, 0), BuildingBlock: AJUNOK_clean_linker_0, # of connection points: 2
#     Edge 79, Type (0, 0), BuildingBlock: AJUNOK_clean_linker_0, # of connection points: 2
#     Edge 80, Type (0, 0), BuildingBlock: AJUNOK_clean_linker_0, # of connection points: 2
#     Edge 81, Type (0, 0), BuildingBlock: AJUNOK_clean_linker_0, # of connection points: 2
#     Edge 82, Type (0, 0), BuildingBlock: AJUNOK_clean_linker_0, # of connection points: 2
#     Edge 83, Type (0, 0), BuildingBlock: AJUNOK_clean_linker_0, # of connection points: 2
#     Edge 84, Type (0, 0), BuildingBlock: AJUNOK_clean_linker_0, # of connection points: 2
#     Edge 85, Type (0, 0), BuildingBlock: AJUNOK_clean_linker_0, # of connection points: 2
#     Edge 86, Type (0, 0), BuildingBlock: AJUNOK_clean_linker_0, # of connection points: 2
#     Edge 87, Type (0, 0), BuildingBlock: AJUNOK_clean_linker_0, # of connection points: 2
#     Edge 88, Type (0, 0), BuildingBlock: AJUNOK_clean_linker_0, # of connection points: 2
#     Edge 89, Type (0, 0), BuildingBlock: AJUNOK_clean_linker_0, # of connection points: 2
#     Edge 90, Type (0, 0), BuildingBlock: AJUNOK_clean_linker_0, # of connection points: 2
#     Edge 91, Type (0, 0), BuildingBlock: AJUNOK_clean_linker_0, # of connection points: 2
#     Edge 92, Type (0, 0), BuildingBlock: AJUNOK_clean_linker_0, # of connection points: 2
#     Edge 93, Type (0, 0), BuildingBlock: AJUNOK_clean_linker_0, # of connection points: 2
#     Edge 94, Type (0, 0), BuildingBlock: AJUNOK_clean_linker_0, # of connection points: 2
#     Edge 95, Type (0, 0), BuildingBlock: AJUNOK_clean_linker_0, # of connection points: 2
#     Edge 96, Type (0, 0), BuildingBlock: AJUNOK_clean_linker_0, # of connection points: 2
#     Edge 97, Type (0, 0), BuildingBlock: AJUNOK_clean_linker_0, # of connection points: 2
#     Edge 98, Type (0, 0), BuildingBlock: AJUNOK_clean_linker_0, # of connection points: 2
#     Edge 99, Type (0, 0), BuildingBlock: AJUNOK_clean_linker_0, # of connection points: 2
#     Edge 100, Type (0, 0), BuildingBlock: AJUNOK_clean_linker_0, # of connection points: 2
#     Edge 101, Type (0, 0), BuildingBlock: AJUNOK_clean_linker_0, # of connection points: 2
#     Edge 102, Type (0, 0), BuildingBlock: AJUNOK_clean_linker_0, # of connection points: 2
#     Edge 103, Type (0, 0), BuildingBlock: AJUNOK_clean_linker_0, # of connection points: 2
#     Edge 104, Type (0, 0), BuildingBlock: AJUNOK_clean_linker_0, # of connection points: 2
#     Edge 105, Type (0, 0), BuildingBlock: AJUNOK_clean_linker_0, # of connection points: 2
#     Edge 106, Type (0, 0), BuildingBlock: AJUNOK_clean_linker_0, # of connection points: 2
#     Edge 107, Type (0, 0), BuildingBlock: AJUNOK_clean_linker_0, # of connection points: 2
#     Edge 108, Type (0, 0), BuildingBlock: AJUNOK_clean_linker_0, # of connection points: 2
#     Edge 109, Type (0, 0), BuildingBlock: AJUNOK_clean_linker_0, # of connection points: 2
#     Edge 110, Type (0, 0), BuildingBlock: AJUNOK_clean_linker_0, # of connection points: 2
#     Edge 111, Type (0, 0), BuildingBlock: AJUNOK_clean_linker_0, # of connection points: 2
#     Edge 112, Type (0, 0), BuildingBlock: AJUNOK_clean_linker_0, # of connection points: 2
#     Edge 113, Type (0, 0), BuildingBlock: AJUNOK_clean_linker_0, # of connection points: 2
#     Edge 114, Type (0, 0), BuildingBlock: AJUNOK_clean_linker_0, # of connection points: 2
#     Edge 115, Type (0, 0), BuildingBlock: AJUNOK_clean_linker_0, # of connection points: 2
#     Edge 116, Type (0, 0), BuildingBlock: AJUNOK_clean_linker_0, # of connection points: 2
#     Edge 117, Type (0, 0), BuildingBlock: AJUNOK_clean_linker_0, # of connection points: 2
#     Edge 118, Type (0, 0), BuildingBlock: AJUNOK_clean_linker_0, # of connection points: 2
#     Edge 119, Type (0, 0), BuildingBlock: AJUNOK_clean_linker_0, # of connection points: 2
#     Edge 120, Type (0, 0), BuildingBlock: AJUNOK_clean_linker_0, # of connection points: 2
#     Edge 121, Type (0, 0), BuildingBlock: AJUNOK_clean_linker_0, # of connection points: 2
#     Edge 122, Type (0, 0), BuildingBlock: AJUNOK_clean_linker_0, # of connection points: 2
#     Edge 123, Type (0, 0), BuildingBlock: AJUNOK_clean_linker_0, # of connection points: 2
#     Edge 124, Type (0, 0), BuildingBlock: AJUNOK_clean_linker_0, # of connection points: 2
#     Edge 125, Type (0, 0), BuildingBlock: AJUNOK_clean_linker_0, # of connection points: 2
#     Edge 126, Type (0, 0), BuildingBlock: AJUNOK_clean_linker_0, # of connection points: 2
#     Edge 127, Type (0, 0), BuildingBlock: AJUNOK_clean_linker_0, # of connection points: 2
# Relax obj value: 0.101
# Max RMSD: 0.123
# Mean RMSD: 0.123
data_MOF--net-flu-e--node1-OJICUG_clean_sbu_0--edge1-AJUNOK_clean_linker_0
_symmetry_space_group_name_H-M    P1
_symmetry_Int_Tables_number       1
_symmetry_cell_setting            triclinic
loop_
_symmetry_equiv_pos_as_xyz
'x, y, z'
_cell_length_a     42.721983
_cell_length_b     42.706397
_cell_length_c     42.690319
_cell_angle_alpha  89.960736
_cell_angle_beta   89.970167
_cell_angle_gamma 89.951796
loop_
_atom_site_label
_atom_site_type_symbol
_atom_site_fract_x
_atom_site_fract_y
_atom_site_fract_z
_atom_type_partial_charge
Sc0 Sc 0.11836 0.17974 0.3607 0.0
Sc1 Sc 0.11983 0.12056 0.30321 0.0
Sc2 Sc 0.17692 0.12162 0.36264 0.0
O3 O 0.13828 0.14057 0.34226 0.0
C4 C 0.19117 0.1948 0.36807 0.0
C5 C 0.11419 0.19338 0.28732 0.0
C6 C 0.19322 0.11573 0.28994 0.0
C7 C 0.05832 0.13985 0.34121 0.0
C8 C 0.13624 0.14097 0.42222 0.0
C9 C 0.13845 0.06045 0.34347 0.0
O10 O 0.16266 0.20295 0.36594 0.0
O11 O 0.11543 0.1647 0.27963 0.0
O12 O 0.20086 0.1171 0.31865 0.0
O13 O 0.07178 0.16101 0.35718 0.0
O14 O 0.15727 0.12469 0.40884 0.0
O15 O 0.1226 0.07409 0.32229 0.0
O16 O 0.12039 0.16169 0.40783 0.0
O17 O 0.07267 0.1234 0.32094 0.0
O18 O 0.15888 0.0746 0.35981 0.0
O19 O 0.11453 0.20245 0.31568 0.0
O20 O 0.19976 0.16631 0.3675 0.0
O21 O 0.1649 0.11605 0.28082 0.0
Sc22 Sc 0.80333 0.11568 0.35974 0.0
Sc23 Sc 0.86072 0.17504 0.3597 0.0
Sc24 Sc 0.86248 0.11578 0.30234 0.0
O25 O 0.84226 0.13544 0.34069 0.0
C26 C 0.84367 0.05525 0.34173 0.0
C27 C 0.84195 0.13551 0.42055 0.0
C28 C 0.92245 0.13683 0.34148 0.0
C29 C 0.7874 0.18855 0.36561 0.0
C30 C 0.78968 0.10905 0.28655 0.0
C31 C 0.86675 0.18877 0.28647 0.0
O32 O 0.82223 0.069 0.35713 0.0
O33 O 0.85776 0.15663 0.40666 0.0
O34 O 0.90898 0.11985 0.32111 0.0
O35 O 0.77961 0.15988 0.36442 0.0
O36 O 0.81837 0.11 0.27884 0.0
O37 O 0.86519 0.19787 0.31479 0.0
O38 O 0.78066 0.11084 0.3149 0.0
O39 O 0.81574 0.19745 0.36412 0.0
O40 O 0.86644 0.16005 0.2788 0.0
O41 O 0.82163 0.11886 0.40658 0.0
O42 O 0.86032 0.0692 0.32138 0.0
O43 O 0.908 0.15758 0.3572 0.0
Sc44 Sc 0.86242 0.80081 0.36424 0.0
Sc45 Sc 0.86254 0.85809 0.30485 0.0
Sc46 Sc 0.80423 0.85941 0.36319 0.0
O47 O 0.84312 0.8395 0.34416 0.0
C48 C 0.78935 0.78652 0.37062 0.0
C49 C 0.86841 0.78475 0.29141 0.0
C50 C 0.78954 0.86453 0.29004 0.0
C51 C 0.92314 0.8396 0.34449 0.0
C52 C 0.84331 0.84114 0.42423 0.0
C53 C 0.84381 0.91952 0.34317 0.0
O54 O 0.81779 0.77783 0.36919 0.0
O55 O 0.86695 0.81309 0.28237 0.0
O56 O 0.78097 0.86354 0.31855 0.0
O57 O 0.90929 0.8192 0.36121 0.0
O58 O 0.82276 0.8573 0.41002 0.0
O59 O 0.85999 0.9052 0.32266 0.0
O60 O 0.85933 0.82001 0.41069 0.0
O61 O 0.90924 0.85521 0.32332 0.0
O62 O 0.82289 0.90601 0.35946 0.0
O63 O 0.86731 0.77707 0.32013 0.0
O64 O 0.78115 0.81507 0.36887 0.0
O65 O 0.81808 0.86289 0.28188 0.0
Sc66 Sc 0.11865 0.86438 0.30465 0.0
Sc67 Sc 0.17763 0.86427 0.36211 0.0
Sc68 Sc 0.12079 0.80436 0.36129 0.0
O69 O 0.13893 0.8444 0.34278 0.0
C70 C 0.05889 0.84263 0.34382 0.0
C71 C 0.13732 0.9247 0.34446 0.0
C72 C 0.13881 0.84336 0.42252 0.0
C73 C 0.19148 0.87147 0.28901 0.0
C74 C 0.11464 0.79161 0.288 0.0
C75 C 0.19415 0.79149 0.36655 0.0
O76 O 0.07223 0.86006 0.32372 0.0
O77 O 0.15861 0.91085 0.35994 0.0
O78 O 0.12347 0.82213 0.40837 0.0
O79 O 0.16281 0.87031 0.28121 0.0
O80 O 0.11648 0.7822 0.31619 0.0
O81 O 0.2016 0.82025 0.36612 0.0
O82 O 0.11465 0.82041 0.2806 0.0
O83 O 0.20041 0.86972 0.31737 0.0
O84 O 0.16593 0.7822 0.36529 0.0
O85 O 0.12081 0.91082 0.32397 0.0
O86 O 0.07344 0.82154 0.35902 0.0
O87 O 0.15903 0.86042 0.40885 0.0
Sc88 Sc 0.17563 0.86238 0.61894 0.0
Sc89 Sc 0.11792 0.80389 0.61884 0.0
Sc90 Sc 0.11799 0.8611 0.67832 0.0
O91 O 0.13707 0.84258 0.63863 0.0
C92 C 0.19118 0.86738 0.69189 0.0
C93 C 0.19102 0.78955 0.6121 0.0
C94 C 0.11344 0.78779 0.69172 0.0
C95 C 0.13619 0.84365 0.55832 0.0
C96 C 0.1357 0.92242 0.63918 0.0
C97 C 0.05695 0.84181 0.63972 0.0
O98 O 0.19882 0.86705 0.66317 0.0
O99 O 0.16247 0.7814 0.61309 0.0
O100 O 0.114 0.8161 0.70086 0.0
O101 O 0.15713 0.85954 0.57219 0.0
O102 O 0.12026 0.9082 0.66032 0.0
O103 O 0.07119 0.82177 0.62299 0.0
O104 O 0.1562 0.90883 0.62234 0.0
O105 O 0.11986 0.82301 0.57223 0.0
O106 O 0.07077 0.85803 0.66053 0.0
O107 O 0.19954 0.81802 0.61398 0.0
O108 O 0.16289 0.86573 0.701 0.0
O109 O 0.11439 0.78013 0.66301 0.0
Sc110 Sc 0.11767 0.17807 0.61937 0.0
Sc111 Sc 0.11726 0.11967 0.67796 0.0
Sc112 Sc 0.1742 0.11821 0.61825 0.0
O113 O 0.13626 0.13856 0.63846 0.0
C114 C 0.13486 0.13895 0.55812 0.0
C115 C 0.0566 0.13961 0.63905 0.0
C116 C 0.13447 0.05837 0.63843 0.0
C117 C 0.11311 0.19287 0.69248 0.0
C118 C 0.19094 0.19089 0.61286 0.0
C119 C 0.19034 0.11218 0.69118 0.0
O120 O 0.11952 0.16005 0.5724 0.0
O121 O 0.0704 0.12318 0.65973 0.0
O122 O 0.1546 0.07201 0.62127 0.0
O123 O 0.11415 0.20095 0.6639 0.0
O124 O 0.19828 0.16207 0.61357 0.0
O125 O 0.16214 0.11454 0.70041 0.0
O126 O 0.16273 0.20029 0.61431 0.0
O127 O 0.1134 0.1644 0.70119 0.0
O128 O 0.19781 0.11265 0.66237 0.0
O129 O 0.07063 0.16032 0.62286 0.0
O130 O 0.15516 0.12192 0.57172 0.0
O131 O 0.11934 0.07255 0.65982 0.0
Sc132 Sc 0.85944 0.17572 0.61686 0.0
Sc133 Sc 0.80225 0.11635 0.61749 0.0
Sc134 Sc 0.86032 0.11823 0.67611 0.0
O135 O 0.84075 0.13667 0.63674 0.0
C136 C 0.92081 0.13799 0.63695 0.0
C137 C 0.84134 0.13548 0.55655 0.0
C138 C 0.84253 0.05661 0.63776 0.0
C139 C 0.78614 0.18908 0.6105 0.0
C140 C 0.86448 0.19155 0.68974 0.0
C141 C 0.78735 0.11075 0.69059 0.0
O142 O 0.90661 0.15816 0.62023 0.0
O143 O 0.82094 0.11894 0.57059 0.0
O144 O 0.85851 0.07114 0.65821 0.0
O145 O 0.81448 0.19804 0.61175 0.0
O146 O 0.8639 0.16318 0.69878 0.0
O147 O 0.77887 0.11184 0.66207 0.0
O148 O 0.86344 0.19932 0.66105 0.0
O149 O 0.77842 0.16041 0.61205 0.0
O150 O 0.81582 0.1127 0.69892 0.0
O151 O 0.85702 0.15668 0.57032 0.0
O152 O 0.90709 0.12191 0.6579 0.0
O153 O 0.82158 0.06995 0.6213 0.0
Sc154 Sc 0.86004 0.80203 0.62067 0.0
Sc155 Sc 0.85972 0.8596 0.67979 0.0
Sc156 Sc 0.8022 0.86047 0.62034 0.0
O157 O 0.84075 0.84081 0.64022 0.0
C158 C 0.84224 0.84175 0.56001 0.0
C159 C 0.92081 0.84039 0.64123 0.0
C160 C 0.84171 0.92068 0.64035 0.0
C161 C 0.86421 0.78627 0.6936 0.0
C162 C 0.78708 0.78765 0.61362 0.0
C163 C 0.78647 0.86557 0.6933 0.0
O164 O 0.85846 0.82114 0.57411 0.0
O165 O 0.90693 0.85678 0.66188 0.0
O166 O 0.82133 0.90693 0.62357 0.0
O167 O 0.8632 0.77845 0.66493 0.0
O168 O 0.77854 0.81612 0.61545 0.0
O169 O 0.81476 0.86408 0.70241 0.0
O170 O 0.81561 0.77942 0.6147 0.0
O171 O 0.86391 0.81465 0.70257 0.0
O172 O 0.77884 0.86516 0.66457 0.0
O173 O 0.9067 0.81995 0.62492 0.0
O174 O 0.82103 0.85757 0.57364 0.0
O175 O 0.85717 0.90664 0.66159 0.0
Sc176 Sc 0.36266 0.17764 0.1169 0.0
Sc177 Sc 0.30295 0.1208 0.11973 0.0
Sc178 Sc 0.36237 0.1214 0.17711 0.0
O179 O 0.34273 0.13983 0.13782 0.0
C180 C 0.4231 0.13863 0.13705 0.0
C181 C 0.34176 0.13719 0.05774 0.0
C182 C 0.34223 0.06015 0.13938 0.0
C183 C 0.28974 0.19395 0.11191 0.0
C184 C 0.36874 0.19478 0.18947 0.0
C185 C 0.28954 0.11675 0.19317 0.0
O186 O 0.40929 0.15876 0.12003 0.0
O187 O 0.32046 0.12239 0.07235 0.0
O188 O 0.35887 0.0743 0.15961 0.0
O189 O 0.31854 0.20127 0.11177 0.0
O190 O 0.36736 0.16658 0.19891 0.0
O191 O 0.28044 0.11728 0.16484 0.0
O192 O 0.3678 0.20209 0.16063 0.0
O193 O 0.28045 0.16579 0.11463 0.0
O194 O 0.31822 0.11769 0.2008 0.0
O195 O 0.35909 0.15747 0.07092 0.0
O196 O 0.40909 0.12339 0.15844 0.0
O197 O 0.32119 0.07385 0.12333 0.0
Sc198 Sc 0.86312 0.30112 0.11685 0.0
Sc199 Sc 0.86246 0.35845 0.17596 0.0
Sc200 Sc 0.80346 0.35821 0.11817 0.0
O201 O 0.84308 0.33938 0.13689 0.0
C202 C 0.84315 0.34076 0.05696 0.0
C203 C 0.9233 0.34081 0.13636 0.0
C204 C 0.84185 0.41942 0.13762 0.0
C205 C 0.86859 0.28518 0.18965 0.0
C206 C 0.7903 0.28496 0.11099 0.0
C207 C 0.78949 0.36279 0.19145 0.0
O208 O 0.86003 0.32042 0.07059 0.0
O209 O 0.90917 0.35651 0.15732 0.0
O210 O 0.82102 0.40541 0.1216 0.0
O211 O 0.8677 0.27747 0.16096 0.0
O212 O 0.78119 0.31323 0.1131 0.0
O213 O 0.81815 0.36217 0.19924 0.0
O214 O 0.81904 0.27737 0.11163 0.0
O215 O 0.86763 0.31354 0.19868 0.0
O216 O 0.78048 0.36194 0.16308 0.0
O217 O 0.9097 0.32006 0.11999 0.0
O218 O 0.82181 0.35609 0.07108 0.0
O219 O 0.85869 0.40544 0.15784 0.0
Sc220 Sc 0.67672 0.86075 0.12122 0.0
Sc221 Sc 0.61916 0.80186 0.1211 0.0
Sc222 Sc 0.61899 0.85976 0.18011 0.0
O223 O 0.63817 0.84086 0.14075 0.0
C224 C 0.69202 0.86637 0.19425 0.0
C225 C 0.6925 0.7878 0.11608 0.0
C226 C 0.61304 0.7866 0.19409 0.0
C227 C 0.638 0.8414 0.06048 0.0
C228 C 0.63697 0.92085 0.14067 0.0
C229 C 0.55825 0.84085 0.14054 0.0
O230 O 0.69973 0.86587 0.16555 0.0
O231 O 0.66409 0.77888 0.11671 0.0
O232 O 0.61453 0.81499 0.20286 0.0
O233 O 0.65858 0.85766 0.07445 0.0
O234 O 0.62158 0.90685 0.16202 0.0
O235 O 0.57226 0.82041 0.12399 0.0
O236 O 0.65738 0.90712 0.12392 0.0
O237 O 0.62201 0.82046 0.0743 0.0
O238 O 0.57212 0.85673 0.1616 0.0
O239 O 0.70031 0.81648 0.11702 0.0
O240 O 0.6637 0.86434 0.20321 0.0
O241 O 0.61426 0.77859 0.16548 0.0
Sc242 Sc 0.11802 0.67901 0.1186 0.0
Sc243 Sc 0.12018 0.62213 0.17844 0.0
Sc244 Sc 0.17719 0.62167 0.11864 0.0
O245 O 0.13838 0.64084 0.1385 0.0
C246 C 0.13655 0.63917 0.0583 0.0
C247 C 0.05845 0.63917 0.13964 0.0
C248 C 0.13901 0.56087 0.13979 0.0
C249 C 0.11376 0.69542 0.19138 0.0
C250 C 0.19077 0.69489 0.11147 0.0
C251 C 0.1936 0.61743 0.19149 0.0
O252 O 0.12022 0.6598 0.07215 0.0
O253 O 0.07292 0.62396 0.1608 0.0
O254 O 0.15912 0.57471 0.12268 0.0
O255 O 0.11392 0.70293 0.16261 0.0
O256 O 0.19973 0.66653 0.11302 0.0
O257 O 0.16533 0.61845 0.20075 0.0
O258 O 0.16209 0.70266 0.11277 0.0
O259 O 0.11543 0.66718 0.20068 0.0
O260 O 0.20113 0.61794 0.16272 0.0
O261 O 0.07173 0.65969 0.12266 0.0
O262 O 0.1579 0.62366 0.0721 0.0
O263 O 0.12336 0.575 0.16081 0.0
Sc264 Sc 0.30193 0.86162 0.86148 0.0
Sc265 Sc 0.35973 0.8027 0.86285 0.0
Sc266 Sc 0.36088 0.8601 0.80368 0.0
O267 O 0.34089 0.84154 0.84274 0.0
C268 C 0.28802 0.86616 0.78817 0.0
C269 C 0.28664 0.78875 0.86882 0.0
C270 C 0.36633 0.78671 0.79011 0.0
C271 C 0.34071 0.84331 0.9227 0.0
C272 C 0.3418 0.92165 0.84157 0.0
C273 C 0.42085 0.8412 0.84391 0.0
O274 O 0.27905 0.86541 0.81658 0.0
O275 O 0.31502 0.77996 0.86739 0.0
O276 O 0.36536 0.8151 0.78115 0.0
O277 O 0.32033 0.85971 0.90846 0.0
O278 O 0.35828 0.90726 0.82136 0.0
O279 O 0.40664 0.8208 0.86028 0.0
O280 O 0.32065 0.90821 0.85761 0.0
O281 O 0.35643 0.82193 0.9092 0.0
O282 O 0.40735 0.85706 0.82266 0.0
O283 O 0.27858 0.81735 0.86726 0.0
O284 O 0.31667 0.86488 0.78037 0.0
O285 O 0.36478 0.77897 0.81879 0.0
Sc286 Sc 0.11776 0.36208 0.80416 0.0
Sc287 Sc 0.17766 0.36125 0.86073 0.0
Sc288 Sc 0.11858 0.30355 0.86229 0.0
O289 O 0.13792 0.34236 0.8425 0.0
C290 C 0.05735 0.34227 0.84337 0.0
C291 C 0.13797 0.42232 0.84307 0.0
C292 C 0.13879 0.34337 0.92222 0.0
C293 C 0.1905 0.36768 0.78745 0.0
C294 C 0.11299 0.28898 0.78924 0.0
C295 C 0.19172 0.28824 0.86774 0.0
O296 O 0.07118 0.359 0.82303 0.0
O297 O 0.15946 0.40829 0.85818 0.0
O298 O 0.12158 0.32309 0.90879 0.0
O299 O 0.16171 0.36717 0.78014 0.0
O300 O 0.11429 0.28008 0.81767 0.0
O301 O 0.2006 0.31651 0.86507 0.0
O302 O 0.11329 0.31763 0.78123 0.0
O303 O 0.19983 0.36567 0.81564 0.0
O304 O 0.16305 0.28045 0.86755 0.0
O305 O 0.1208 0.40857 0.82304 0.0
O306 O 0.07147 0.32138 0.8592 0.0
O307 O 0.16006 0.3585 0.90786 0.0
Sc308 Sc 0.61771 0.17529 0.85984 0.0
Sc309 Sc 0.61796 0.11625 0.8022 0.0
Sc310 Sc 0.67643 0.11729 0.86033 0.0
O311 O 0.63729 0.1362 0.84086 0.0
C312 C 0.69069 0.19041 0.86599 0.0
C313 C 0.61249 0.1892 0.78658 0.0
C314 C 0.69099 0.11025 0.78731 0.0
C315 C 0.55713 0.13593 0.84103 0.0
C316 C 0.63679 0.1365 0.92086 0.0
C317 C 0.63743 0.05612 0.84213 0.0
O318 O 0.66207 0.19834 0.86492 0.0
O319 O 0.61327 0.16052 0.77879 0.0
O320 O 0.69934 0.11204 0.8158 0.0
O321 O 0.57098 0.157 0.85674 0.0
O322 O 0.65796 0.12073 0.90707 0.0
O323 O 0.6211 0.0697 0.82125 0.0
O324 O 0.62018 0.15684 0.9068 0.0
O325 O 0.57109 0.11924 0.82069 0.0
O326 O 0.65812 0.07036 0.85809 0.0
O327 O 0.61356 0.19819 0.81495 0.0
O328 O 0.69948 0.162 0.86446 0.0
O329 O 0.66248 0.1114 0.77887 0.0
Sc330 Sc 0.802 0.61655 0.86386 0.0
Sc331 Sc 0.8596 0.67578 0.86342 0.0
Sc332 Sc 0.86026 0.61689 0.80567 0.0
O333 O 0.84072 0.63634 0.84445 0.0
C334 C 0.84214 0.55623 0.84494 0.0
C335 C 0.84123 0.63622 0.92441 0.0
C336 C 0.92093 0.63752 0.84403 0.0
C337 C 0.78639 0.68944 0.87007 0.0
C338 C 0.78718 0.61008 0.79097 0.0
C339 C 0.86417 0.6898 0.79008 0.0
O340 O 0.82071 0.56985 0.8605 0.0
O341 O 0.85688 0.65741 0.91045 0.0
O342 O 0.90707 0.62112 0.82347 0.0
O343 O 0.77865 0.66077 0.86912 0.0
O344 O 0.8158 0.61086 0.783 0.0
O345 O 0.86375 0.69871 0.8185 0.0
O346 O 0.77846 0.61209 0.81938 0.0
O347 O 0.8147 0.69839 0.86821 0.0
O348 O 0.86333 0.66116 0.78219 0.0
O349 O 0.82097 0.61945 0.91049 0.0
O350 O 0.85875 0.57037 0.82471 0.0
O351 O 0.9068 0.65795 0.86048 0.0
Sc352 Sc 0.17818 0.36455 0.11943 0.0
Sc353 Sc 0.12067 0.3055 0.11781 0.0
Sc354 Sc 0.1188 0.36303 0.17683 0.0
O355 O 0.13913 0.34447 0.13792 0.0
C356 C 0.19148 0.36911 0.19293 0.0
C357 C 0.19399 0.29177 0.11237 0.0
C358 C 0.11442 0.28964 0.1905 0.0
C359 C 0.13962 0.3459 0.05798 0.0
C360 C 0.1382 0.42469 0.13902 0.0
C361 C 0.05904 0.34356 0.13663 0.0
O362 O 0.20064 0.36869 0.16457 0.0
O363 O 0.16559 0.28298 0.113 0.0
O364 O 0.11427 0.31803 0.19944 0.0
O365 O 0.16025 0.36207 0.07216 0.0
O366 O 0.12163 0.41025 0.15913 0.0
O367 O 0.07347 0.32304 0.1206 0.0
O368 O 0.15926 0.41114 0.1229 0.0
O369 O 0.12356 0.32487 0.07154 0.0
O370 O 0.07244 0.35994 0.15754 0.0
O371 O 0.20183 0.32038 0.11435 0.0
O372 O 0.1628 0.36767 0.20057 0.0
O373 O 0.11631 0.28183 0.16189 0.0
Sc374 Sc 0.11732 0.67746 0.86145 0.0
Sc375 Sc 0.11799 0.61837 0.80375 0.0
Sc376 Sc 0.17584 0.61932 0.86244 0.0
O377 O 0.13696 0.63831 0.84263 0.0
C378 C 0.19015 0.6924 0.86852 0.0
C379 C 0.11273 0.69125 0.78812 0.0
C380 C 0.19125 0.61316 0.78952 0.0
C381 C 0.05689 0.63799 0.84232 0.0
C382 C 0.13578 0.63845 0.92256 0.0
C383 C 0.13724 0.55816 0.84357 0.0
O384 O 0.16163 0.7006 0.86688 0.0
O385 O 0.11351 0.66258 0.78034 0.0
O386 O 0.19913 0.61466 0.81815 0.0
O387 O 0.07067 0.65909 0.85806 0.0
O388 O 0.15682 0.62243 0.90889 0.0
O389 O 0.12099 0.57181 0.82269 0.0
O390 O 0.11953 0.65906 0.90846 0.0
O391 O 0.07094 0.62132 0.822 0.0
O392 O 0.15779 0.57235 0.8597 0.0
O393 O 0.1135 0.70029 0.81649 0.0
O394 O 0.19879 0.66395 0.86714 0.0
O395 O 0.16281 0.6137 0.78073 0.0
Sc396 Sc 0.302 0.11773 0.86047 0.0
Sc397 Sc 0.36045 0.17585 0.86173 0.0
Sc398 Sc 0.36059 0.11877 0.80223 0.0
O399 O 0.34108 0.13736 0.84155 0.0
C400 C 0.34176 0.05748 0.84081 0.0
C401 C 0.34098 0.13572 0.92175 0.0
C402 C 0.42129 0.13727 0.84168 0.0
C403 C 0.28737 0.19068 0.86776 0.0
C404 C 0.28767 0.11244 0.7872 0.0
C405 C 0.36576 0.19215 0.7889 0.0
O406 O 0.32074 0.0711 0.85691 0.0
O407 O 0.35739 0.15647 0.9081 0.0
O408 O 0.40737 0.12177 0.82046 0.0
O409 O 0.27894 0.16222 0.86579 0.0
O410 O 0.31624 0.11386 0.7792 0.0
O411 O 0.36508 0.19967 0.81766 0.0
O412 O 0.27896 0.11359 0.81567 0.0
O413 O 0.3159 0.19905 0.86675 0.0
O414 O 0.36466 0.16385 0.77967 0.0
O415 O 0.32018 0.11988 0.90756 0.0
O416 O 0.35808 0.07167 0.8203 0.0
O417 O 0.40733 0.15738 0.85863 0.0
Sc418 Sc 0.8606 0.30094 0.85995 0.0
Sc419 Sc 0.86069 0.36048 0.80248 0.0
Sc420 Sc 0.80284 0.35979 0.8611 0.0
O421 O 0.8415 0.34046 0.84127 0.0
C422 C 0.78755 0.28682 0.86661 0.0
C423 C 0.8657 0.28762 0.78657 0.0
C424 C 0.78753 0.36559 0.78821 0.0
C425 C 0.92141 0.34044 0.84132 0.0
C426 C 0.84236 0.34007 0.92118 0.0
C427 C 0.8419 0.42063 0.84245 0.0
O428 O 0.8159 0.27794 0.86472 0.0
O429 O 0.8651 0.31634 0.77895 0.0
O430 O 0.7796 0.36429 0.81684 0.0
O431 O 0.90751 0.31919 0.85691 0.0
O432 O 0.82181 0.35666 0.90747 0.0
O433 O 0.85806 0.40705 0.82149 0.0
O434 O 0.85812 0.31903 0.90713 0.0
O435 O 0.90748 0.35725 0.82104 0.0
O436 O 0.82113 0.40652 0.85839 0.0
O437 O 0.86469 0.27841 0.81489 0.0
O438 O 0.77973 0.31548 0.86591 0.0
O439 O 0.81596 0.36529 0.77936 0.0
Sc440 Sc 0.61703 0.8591 0.80565 0.0
Sc441 Sc 0.67622 0.85936 0.86325 0.0
Sc442 Sc 0.61693 0.80207 0.86512 0.0
O443 O 0.63667 0.84029 0.84476 0.0
C444 C 0.55644 0.84118 0.84541 0.0
C445 C 0.63713 0.92016 0.84384 0.0
C446 C 0.637 0.84198 0.92475 0.0
C447 C 0.6899 0.86418 0.78989 0.0
C448 C 0.61117 0.78577 0.79244 0.0
C449 C 0.68987 0.7863 0.87065 0.0
O450 O 0.57039 0.85691 0.82436 0.0
O451 O 0.65803 0.90629 0.85989 0.0
O452 O 0.62 0.82168 0.91127 0.0
O453 O 0.66123 0.86318 0.78219 0.0
O454 O 0.6123 0.77816 0.82117 0.0
O455 O 0.69891 0.81455 0.8682 0.0
O456 O 0.61207 0.81409 0.78325 0.0
O457 O 0.69892 0.86333 0.81825 0.0
O458 O 0.66115 0.77869 0.87037 0.0
O459 O 0.62048 0.90612 0.82354 0.0
O460 O 0.57026 0.82064 0.86192 0.0
O461 O 0.65831 0.85716 0.91048 0.0
Sc462 Sc 0.86185 0.67477 0.12143 0.0
Sc463 Sc 0.80252 0.61731 0.12176 0.0
Sc464 Sc 0.86243 0.61536 0.17853 0.0
O465 O 0.84235 0.6357 0.14044 0.0
C466 C 0.92272 0.63502 0.13902 0.0
C467 C 0.84126 0.63645 0.06056 0.0
C468 C 0.84153 0.55555 0.13904 0.0
C469 C 0.7889 0.69077 0.11706 0.0
C470 C 0.86887 0.68807 0.19469 0.0
C471 C 0.7896 0.61072 0.19505 0.0
O472 O 0.90863 0.65601 0.1233 0.0
O473 O 0.82048 0.62038 0.07463 0.0
O474 O 0.85887 0.56907 0.15907 0.0
O475 O 0.81759 0.69842 0.11789 0.0
O476 O 0.86766 0.65936 0.20237 0.0
O477 O 0.78019 0.61279 0.16687 0.0
O478 O 0.86734 0.69714 0.16635 0.0
O479 O 0.77987 0.66241 0.11776 0.0
O480 O 0.81841 0.61061 0.20236 0.0
O481 O 0.85792 0.65686 0.07444 0.0
O482 O 0.90901 0.61839 0.15955 0.0
O483 O 0.82014 0.5699 0.12402 0.0
Sc484 Sc 0.36088 0.8052 0.11915 0.0
Sc485 Sc 0.36125 0.863 0.17815 0.0
Sc486 Sc 0.30351 0.86434 0.1192 0.0
O487 O 0.34199 0.84426 0.13878 0.0
C488 C 0.34238 0.84502 0.05851 0.0
C489 C 0.42208 0.84333 0.13895 0.0
C490 C 0.34316 0.92432 0.13907 0.0
C491 C 0.36693 0.78979 0.19218 0.0
C492 C 0.28762 0.79151 0.11285 0.0
C493 C 0.28812 0.87006 0.19221 0.0
O494 O 0.35808 0.82384 0.07237 0.0
O495 O 0.40825 0.85941 0.15991 0.0
O496 O 0.32257 0.91073 0.12251 0.0
O497 O 0.36564 0.78191 0.16353 0.0
O498 O 0.2799 0.82021 0.11403 0.0
O499 O 0.31648 0.86817 0.20106 0.0
O500 O 0.31597 0.78251 0.11442 0.0
O501 O 0.36545 0.81817 0.20102 0.0
O502 O 0.28027 0.8691 0.16355 0.0
O503 O 0.40791 0.82322 0.12219 0.0
O504 O 0.32207 0.86164 0.07248 0.0
O505 O 0.35895 0.91012 0.15999 0.0
Sc506 Sc 0.62008 0.17577 0.11736 0.0
Sc507 Sc 0.61969 0.11841 0.17688 0.0
Sc508 Sc 0.67665 0.1159 0.11716 0.0
O509 O 0.63871 0.1366 0.13708 0.0
C510 C 0.63723 0.13567 0.05674 0.0
C511 C 0.55895 0.13795 0.13784 0.0
C512 C 0.63654 0.05657 0.13815 0.0
C513 C 0.61553 0.19178 0.19027 0.0
C514 C 0.69343 0.18847 0.11049 0.0
C515 C 0.69276 0.11054 0.19013 0.0
O516 O 0.62174 0.15688 0.07069 0.0
O517 O 0.57274 0.12188 0.15881 0.0
O518 O 0.65674 0.06981 0.12077 0.0
O519 O 0.61659 0.19948 0.16156 0.0
O520 O 0.70092 0.15971 0.11192 0.0
O521 O 0.66459 0.11329 0.19933 0.0
O522 O 0.66516 0.19772 0.11184 0.0
O523 O 0.61598 0.16344 0.19937 0.0
O524 O 0.70025 0.11067 0.16133 0.0
O525 O 0.57303 0.15821 0.12118 0.0
O526 O 0.65772 0.11905 0.07054 0.0
O527 O 0.62158 0.0711 0.15942 0.0
Sc528 Sc 0.36033 0.67718 0.61973 0.0
Sc529 Sc 0.30156 0.61907 0.6191 0.0
Sc530 Sc 0.36043 0.61746 0.67667 0.0
O531 O 0.34086 0.63784 0.63838 0.0
C532 C 0.4211 0.63728 0.63801 0.0
C533 C 0.34111 0.63858 0.55857 0.0
C534 C 0.34032 0.55752 0.63694 0.0
C535 C 0.28736 0.69239 0.61346 0.0
C536 C 0.36645 0.69026 0.69308 0.0
C537 C 0.2874 0.61269 0.69221 0.0
O538 O 0.4073 0.65855 0.62236 0.0
O539 O 0.32034 0.62218 0.5723 0.0
O540 O 0.35731 0.57106 0.65725 0.0
O541 O 0.31585 0.70083 0.6152 0.0
O542 O 0.3654 0.66149 0.7006 0.0
O543 O 0.27836 0.61465 0.66388 0.0
O544 O 0.365 0.69946 0.66478 0.0
O545 O 0.27912 0.66386 0.61446 0.0
O546 O 0.31612 0.61267 0.69984 0.0
O547 O 0.35725 0.65922 0.5727 0.0
O548 O 0.40704 0.62049 0.65815 0.0
O549 O 0.31914 0.57183 0.62166 0.0
Sc550 Sc 0.67652 0.3594 0.61842 0.0
Sc551 Sc 0.61702 0.30233 0.61749 0.0
Sc552 Sc 0.618 0.35939 0.67684 0.0
O553 O 0.63712 0.34049 0.63749 0.0
C554 C 0.69111 0.3639 0.69162 0.0
C555 C 0.68983 0.28622 0.61107 0.0
C556 C 0.61197 0.2861 0.69027 0.0
C557 C 0.6366 0.34191 0.55737 0.0
C558 C 0.63793 0.4204 0.63832 0.0
C559 C 0.55687 0.34187 0.63784 0.0
O560 O 0.69985 0.36329 0.66315 0.0
O561 O 0.6611 0.27869 0.6118 0.0
O562 O 0.613 0.31441 0.69943 0.0
O563 O 0.65803 0.35718 0.57136 0.0
O564 O 0.62152 0.4064 0.65889 0.0
O565 O 0.57049 0.32126 0.62123 0.0
O566 O 0.65852 0.40643 0.62194 0.0
O567 O 0.6197 0.32172 0.5712 0.0
O568 O 0.57107 0.35755 0.65872 0.0
O569 O 0.69897 0.31446 0.61327 0.0
O570 O 0.66252 0.36302 0.69967 0.0
O571 O 0.61277 0.27851 0.66154 0.0
Sc572 Sc 0.36182 0.30425 0.35962 0.0
Sc573 Sc 0.36117 0.36418 0.30264 0.0
Sc574 Sc 0.30435 0.36338 0.36229 0.0
O575 O 0.34257 0.344 0.34161 0.0
C576 C 0.28884 0.29035 0.36719 0.0
C577 C 0.36687 0.29148 0.28607 0.0
C578 C 0.28782 0.36977 0.28964 0.0
C579 C 0.42245 0.34383 0.34039 0.0
C580 C 0.34444 0.34257 0.42165 0.0
C581 C 0.34286 0.42433 0.34309 0.0
O582 O 0.31707 0.28129 0.36443 0.0
O583 O 0.36564 0.32023 0.27861 0.0
O584 O 0.28028 0.36837 0.3184 0.0
O585 O 0.40871 0.32267 0.3563 0.0
O586 O 0.32415 0.35981 0.40837 0.0
O587 O 0.35862 0.41069 0.32183 0.0
O588 O 0.35962 0.32142 0.40712 0.0
O589 O 0.4082 0.36073 0.32043 0.0
O590 O 0.32257 0.41015 0.35956 0.0
O591 O 0.36584 0.28223 0.31436 0.0
O592 O 0.28124 0.31908 0.36723 0.0
O593 O 0.31611 0.36911 0.28038 0.0
Sc594 Sc 0.61968 0.67603 0.36385 0.0
Sc595 Sc 0.62048 0.6172 0.30601 0.0
Sc596 Sc 0.67781 0.61752 0.36529 0.0
O597 O 0.63926 0.63685 0.34511 0.0
C598 C 0.69257 0.69053 0.37123 0.0
C599 C 0.61406 0.69015 0.29073 0.0
C600 C 0.69375 0.61181 0.29238 0.0
C601 C 0.55934 0.63642 0.34443 0.0
C602 C 0.63746 0.63713 0.42514 0.0
C603 C 0.63949 0.55659 0.34553 0.0
O604 O 0.66411 0.69894 0.36937 0.0
O605 O 0.61516 0.66153 0.28277 0.0
O606 O 0.70145 0.6126 0.32111 0.0
O607 O 0.57302 0.65766 0.36014 0.0
O608 O 0.65846 0.62082 0.41172 0.0
O609 O 0.62383 0.57045 0.32435 0.0
O610 O 0.62157 0.6578 0.41079 0.0
O611 O 0.57352 0.61963 0.32432 0.0
O612 O 0.6595 0.57065 0.36243 0.0
O613 O 0.61579 0.69896 0.3191 0.0
O614 O 0.70102 0.66202 0.37008 0.0
O615 O 0.66542 0.61311 0.28331 0.0
Sc616 Sc 0.30366 0.62169 0.36116 0.0
Sc617 Sc 0.36344 0.6787 0.36199 0.0
Sc618 Sc 0.36309 0.62031 0.30395 0.0
O619 O 0.34346 0.64014 0.34249 0.0
C620 C 0.34219 0.56017 0.343 0.0
C621 C 0.34253 0.63993 0.4225 0.0
C622 C 0.4236 0.63817 0.34374 0.0
C623 C 0.29065 0.69506 0.36657 0.0
C624 C 0.29028 0.61635 0.28779 0.0
C625 C 0.37022 0.69317 0.28893 0.0
O626 O 0.32135 0.57441 0.35882 0.0
O627 O 0.35968 0.66005 0.40878 0.0
O628 O 0.40957 0.62207 0.32307 0.0
O629 O 0.28139 0.66681 0.36522 0.0
O630 O 0.31899 0.6168 0.28014 0.0
O631 O 0.36873 0.70188 0.31737 0.0
O632 O 0.28117 0.61736 0.31613 0.0
O633 O 0.31939 0.70258 0.3662 0.0
O634 O 0.36894 0.66459 0.28093 0.0
O635 O 0.3214 0.62449 0.4083 0.0
O636 O 0.35891 0.57379 0.32249 0.0
O637 O 0.40996 0.65942 0.35952 0.0
Sc638 Sc 0.62041 0.36101 0.30246 0.0
Sc639 Sc 0.67796 0.35889 0.36139 0.0
Sc640 Sc 0.61839 0.3019 0.36016 0.0
O641 O 0.63881 0.34068 0.34144 0.0
C642 C 0.55861 0.3423 0.34032 0.0
C643 C 0.64009 0.42069 0.34269 0.0
C644 C 0.63745 0.34053 0.42142 0.0
C645 C 0.69372 0.36475 0.28862 0.0
C646 C 0.61425 0.28824 0.28672 0.0
C647 C 0.69103 0.28551 0.36713 0.0
O648 O 0.57323 0.35859 0.32013 0.0
O649 O 0.6606 0.40616 0.35862 0.0
O650 O 0.62087 0.32025 0.40725 0.0
O651 O 0.66533 0.36516 0.27977 0.0
O652 O 0.61436 0.2792 0.31513 0.0
O653 O 0.70008 0.31382 0.36608 0.0
O654 O 0.61571 0.3169 0.27894 0.0
O655 O 0.70158 0.36296 0.31723 0.0
O656 O 0.66236 0.27786 0.36552 0.0
O657 O 0.62369 0.40739 0.32172 0.0
O658 O 0.57193 0.32115 0.35652 0.0
O659 O 0.6588 0.35616 0.4078 0.0
Sc660 Sc 0.36102 0.30236 0.61905 0.0
Sc661 Sc 0.35956 0.36181 0.67615 0.0
Sc662 Sc 0.30205 0.36014 0.61705 0.0
O663 O 0.34096 0.34153 0.63733 0.0
C664 C 0.34271 0.34065 0.5574 0.0
C665 C 0.42103 0.34237 0.63823 0.0
C666 C 0.34042 0.42165 0.63571 0.0
C667 C 0.36549 0.28909 0.69253 0.0
C668 C 0.2883 0.28672 0.61244 0.0
C669 C 0.28618 0.36727 0.68974 0.0
O670 O 0.35867 0.32001 0.5718 0.0
O671 O 0.40673 0.35883 0.65849 0.0
O672 O 0.31977 0.40739 0.61968 0.0
O673 O 0.36519 0.27999 0.66418 0.0
O674 O 0.27942 0.31515 0.61264 0.0
O675 O 0.3146 0.36675 0.69852 0.0
O676 O 0.31691 0.2789 0.61426 0.0
O677 O 0.36398 0.31779 0.70014 0.0
O678 O 0.27825 0.3651 0.66115 0.0
O679 O 0.40747 0.32128 0.62224 0.0
O680 O 0.32161 0.3569 0.57071 0.0
O681 O 0.3567 0.40812 0.65662 0.0
Sc682 Sc 0.61779 0.67649 0.62226 0.0
Sc683 Sc 0.61751 0.61663 0.67938 0.0
Sc684 Sc 0.67575 0.6178 0.62115 0.0
O685 O 0.63693 0.63692 0.64087 0.0
C686 C 0.63641 0.6377 0.56097 0.0
C687 C 0.55698 0.63691 0.64019 0.0
C688 C 0.63703 0.5565 0.63958 0.0
C689 C 0.61196 0.68945 0.69565 0.0
C690 C 0.69068 0.69097 0.61566 0.0
C691 C 0.69068 0.61081 0.69406 0.0
O692 O 0.6207 0.65875 0.57504 0.0
O693 O 0.57072 0.62007 0.66061 0.0
O694 O 0.65779 0.57083 0.62382 0.0
O695 O 0.61317 0.69874 0.66737 0.0
O696 O 0.69872 0.66234 0.61634 0.0
O697 O 0.66216 0.61144 0.70265 0.0
O698 O 0.66232 0.69968 0.61782 0.0
O699 O 0.61285 0.66069 0.70315 0.0
O700 O 0.69884 0.61297 0.66553 0.0
O701 O 0.57102 0.65809 0.62472 0.0
O702 O 0.65682 0.62096 0.57473 0.0
O703 O 0.62041 0.57006 0.66023 0.0
C704 C 0.10337 0.27111 0.24518 0.0
C705 C 0.11356 0.2645 0.21451 0.0
C706 C 0.10333 0.24796 0.26848 0.0
C707 C 0.11347 0.21725 0.26206 0.0
H708 H 0.09535 0.29438 0.25131 0.0
H709 H 0.09526 0.25423 0.2917 0.0
S710 S 0.14461 0.18829 0.18608 0.0
N711 N 0.1354 0.22521 0.17938 0.0
N712 N 0.13532 0.18184 0.22303 0.0
C713 C 0.12391 0.21035 0.23152 0.0
C714 C 0.12396 0.2339 0.20782 0.0
C715 C 0.71035 0.10877 0.24615 0.0
C716 C 0.71801 0.10819 0.21405 0.0
C717 C 0.73359 0.10832 0.26926 0.0
C718 C 0.76559 0.10728 0.26142 0.0
H719 H 0.68617 0.11005 0.25365 0.0
H720 H 0.72624 0.10933 0.29354 0.0
S721 S 0.79836 0.10393 0.18073 0.0
N722 N 0.76013 0.1054 0.17563 0.0
N723 N 0.8037 0.10452 0.21899 0.0
C724 C 0.77364 0.10594 0.22939 0.0
C725 C 0.74993 0.10641 0.2058 0.0
C726 C 0.86888 0.76733 0.2353 0.0
C727 C 0.87036 0.7596 0.26735 0.0
C728 C 0.86905 0.74415 0.21211 0.0
C729 C 0.87072 0.71213 0.21985 0.0
H730 H 0.86706 0.79153 0.2279 0.0
H731 H 0.86731 0.75155 0.18789 0.0
S732 S 0.87645 0.67918 0.30032 0.0
N733 N 0.87462 0.71739 0.30557 0.0
N734 N 0.87495 0.67393 0.26208 0.0
C735 C 0.87287 0.70401 0.25181 0.0
C736 C 0.87269 0.72766 0.27547 0.0
C737 C 0.24757 0.87054 0.2716 0.0
C738 C 0.21562 0.87331 0.26392 0.0
C739 C 0.27075 0.8701 0.24838 0.0
C740 C 0.26308 0.87239 0.21637 0.0
H741 H 0.25488 0.86807 0.29578 0.0
H742 H 0.29487 0.86738 0.2557 0.0
S743 S 0.18293 0.88168 0.18361 0.0
N744 N 0.17762 0.87961 0.22182 0.0
N745 N 0.22106 0.87876 0.17829 0.0
C746 C 0.23124 0.8759 0.20834 0.0
C747 C 0.2076 0.87636 0.23202 0.0
C748 C 0.1021 0.76905 0.7462 0.0
C749 C 0.11256 0.76257 0.7156 0.0
C750 C 0.1019 0.74582 0.7694 0.0
C751 C 0.11213 0.71517 0.76293 0.0
H752 H 0.09395 0.79228 0.75233 0.0
H753 H 0.09362 0.75197 0.79258 0.0
S754 S 0.14396 0.68657 0.68708 0.0
N755 N 0.13474 0.7235 0.68045 0.0
N756 N 0.13436 0.67994 0.72393 0.0
C757 C 0.12284 0.70839 0.73244 0.0
C758 C 0.12305 0.73204 0.70884 0.0
C759 C 0.20811 0.11149 0.74719 0.0
C760 C 0.21564 0.1102 0.71507 0.0
C761 C 0.23145 0.11161 0.77022 0.0
C762 C 0.26342 0.11045 0.76225 0.0
H763 H 0.18396 0.11294 0.75475 0.0
H764 H 0.22423 0.11314 0.7945 0.0
S765 S 0.29585 0.10518 0.68152 0.0
N766 N 0.2576 0.10652 0.67655 0.0
N767 N 0.30134 0.1067 0.71972 0.0
C768 C 0.27132 0.10839 0.73022 0.0
C769 C 0.24752 0.10827 0.70673 0.0
C770 C 0.87577 0.23294 0.76773 0.0
C771 C 0.8663 0.26385 0.76125 0.0
C772 C 0.87542 0.20983 0.74444 0.0
C773 C 0.86556 0.21666 0.71372 0.0
H774 H 0.88354 0.22648 0.79101 0.0
H775 H 0.88296 0.1864 0.75063 0.0
S776 S 0.83647 0.29354 0.685 0.0
N777 N 0.84558 0.29976 0.72202 0.0
N778 N 0.84491 0.25643 0.67839 0.0
C779 C 0.8559 0.24747 0.70692 0.0
C780 C 0.85628 0.271 0.73062 0.0
C781 C 0.76822 0.87375 0.74855 0.0
C782 C 0.76119 0.86643 0.71719 0.0
C783 C 0.74502 0.87332 0.77178 0.0
C784 C 0.71381 0.86554 0.76464 0.0
H785 H 0.79189 0.87977 0.75534 0.0
H786 H 0.75172 0.87907 0.79556 0.0
S787 S 0.68326 0.8432 0.68622 0.0
N788 N 0.72072 0.85042 0.68034 0.0
N789 N 0.67727 0.84961 0.72385 0.0
C790 C 0.70642 0.85823 0.73331 0.0
C791 C 0.73003 0.85869 0.70966 0.0
C792 C 0.23496 0.10588 0.21186 0.0
C793 C 0.26567 0.1158 0.21845 0.0
C794 C 0.21182 0.10553 0.23516 0.0
C795 C 0.21845 0.11507 0.26602 0.0
H796 H 0.22865 0.09828 0.1885 0.0
H797 H 0.18854 0.09773 0.22886 0.0
S798 S 0.29471 0.14523 0.29502 0.0
N799 N 0.30113 0.13668 0.25789 0.0
N800 N 0.25779 0.13603 0.30156 0.0
C801 C 0.24906 0.12521 0.2729 0.0
C802 C 0.2726 0.12558 0.24918 0.0
C803 C 0.87671 0.24371 0.26814 0.0
C804 C 0.86808 0.21267 0.2612 0.0
C805 C 0.87728 0.26686 0.24484 0.0
C806 C 0.86924 0.25994 0.21362 0.0
H807 H 0.88309 0.25027 0.2918 0.0
H808 H 0.884 0.2904 0.25145 0.0
S809 S 0.84309 0.18262 0.18345 0.0
N810 N 0.85019 0.17651 0.22093 0.0
N811 N 0.85125 0.21985 0.17727 0.0
C812 C 0.86047 0.22897 0.20636 0.0
C813 C 0.85989 0.20542 0.23008 0.0
C814 C 0.70983 0.86504 0.25026 0.0
C815 C 0.71725 0.86793 0.21824 0.0
C816 C 0.73325 0.86449 0.27322 0.0
C817 C 0.76516 0.86679 0.26524 0.0
H818 H 0.68574 0.86261 0.25776 0.0
H819 H 0.72615 0.8617 0.29744 0.0
S820 S 0.79723 0.87656 0.18481 0.0
N821 N 0.75901 0.87444 0.17985 0.0
N822 N 0.80285 0.87341 0.2229 0.0
C823 C 0.77293 0.87042 0.23334 0.0
C824 C 0.74906 0.871 0.20993 0.0
C825 C 0.10434 0.73697 0.26946 0.0
C826 C 0.11335 0.76793 0.26264 0.0
C827 C 0.10408 0.71385 0.24621 0.0
C828 C 0.11281 0.72071 0.21516 0.0
H829 H 0.09746 0.73045 0.293 0.0
H830 H 0.09703 0.69037 0.25271 0.0
S831 S 0.13994 0.79786 0.18531 0.0
N832 N 0.13216 0.80404 0.22266 0.0
N833 N 0.13167 0.76066 0.17902 0.0
C834 C 0.12184 0.75162 0.20796 0.0
C835 C 0.12211 0.77518 0.23165 0.0
C836 C 0.20933 0.87464 0.7473 0.0
C837 C 0.21649 0.86838 0.71573 0.0
C838 C 0.2326 0.87428 0.77044 0.0
C839 C 0.26403 0.86763 0.763 0.0
H840 H 0.1855 0.87973 0.75433 0.0
H841 H 0.22577 0.87915 0.79439 0.0
S842 S 0.29511 0.84861 0.68386 0.0
N843 N 0.25741 0.85477 0.67832 0.0
N844 N 0.30097 0.8541 0.72163 0.0
C845 C 0.27157 0.86145 0.73145 0.0
C846 C 0.24789 0.86183 0.7079 0.0
C847 C 0.10175 0.23449 0.77044 0.0
C848 C 0.11249 0.265 0.76414 0.0
C849 C 0.1018 0.21134 0.74713 0.0
C850 C 0.11261 0.21781 0.71664 0.0
H851 H 0.09312 0.22842 0.79352 0.0
H852 H 0.09319 0.18823 0.75306 0.0
S853 S 0.14588 0.29328 0.68887 0.0
N854 N 0.13592 0.29993 0.7256 0.0
N855 N 0.13603 0.25659 0.68197 0.0
C856 C 0.12379 0.24816 0.71016 0.0
C857 C 0.12372 0.27168 0.73384 0.0
C858 C 0.73155 0.11558 0.7082 0.0
C859 C 0.76294 0.10838 0.71528 0.0
C860 C 0.70839 0.11545 0.73145 0.0
C861 C 0.7156 0.1081 0.7628 0.0
H862 H 0.72485 0.12216 0.68462 0.0
H863 H 0.68477 0.12194 0.72485 0.0
S864 S 0.79366 0.08456 0.79317 0.0
N865 N 0.79957 0.09159 0.75563 0.0
N866 N 0.75612 0.09134 0.79925 0.0
C867 C 0.74671 0.09988 0.77004 0.0
C868 C 0.77031 0.10002 0.74635 0.0
C869 C 0.87556 0.74423 0.77128 0.0
C870 C 0.86464 0.7138 0.76497 0.0
C871 C 0.87558 0.76744 0.74804 0.0
C872 C 0.86469 0.76114 0.71758 0.0
H873 H 0.88428 0.75019 0.79434 0.0
H874 H 0.88432 0.79048 0.75402 0.0
S875 S 0.83113 0.6859 0.68965 0.0
N876 N 0.84107 0.67908 0.72637 0.0
N877 N 0.84112 0.72259 0.68283 0.0
C878 C 0.85339 0.73087 0.71103 0.0
C879 C 0.85336 0.70725 0.73467 0.0
C880 C 0.23385 0.21205 0.11002 0.0
C881 C 0.26597 0.21944 0.11016 0.0
C882 C 0.21091 0.23551 0.11015 0.0
C883 C 0.21898 0.26749 0.11044 0.0
H884 H 0.22619 0.18788 0.11022 0.0
H885 H 0.18659 0.22835 0.1105 0.0
S886 S 0.29985 0.29968 0.11 0.0
N887 N 0.30467 0.26136 0.10991 0.0
N888 N 0.26166 0.30531 0.11008 0.0
C889 C 0.25105 0.2753 0.11001 0.0
C890 C 0.27445 0.25137 0.10988 0.0
C891 C 0.24586 0.70992 0.86361 0.0
C892 C 0.2145 0.7171 0.87078 0.0
C893 C 0.26904 0.73307 0.86369 0.0
C894 C 0.26188 0.76444 0.87095 0.0
H895 H 0.25256 0.68632 0.85712 0.0
H896 H 0.29264 0.72635 0.85727 0.0
S897 S 0.18386 0.79511 0.89424 0.0
N898 N 0.17788 0.75758 0.88736 0.0
N899 N 0.22142 0.80106 0.88748 0.0
C900 C 0.23078 0.77181 0.87908 0.0
C901 C 0.20714 0.74819 0.87901 0.0
C902 C 0.27027 0.24658 0.86252 0.0
C903 C 0.26287 0.21531 0.86992 0.0
C904 C 0.2473 0.27001 0.86249 0.0
C905 C 0.21589 0.26323 0.86988 0.0
H906 H 0.2939 0.25301 0.85593 0.0
H907 H 0.25421 0.29352 0.85592 0.0
S908 S 0.18469 0.18554 0.89372 0.0
N909 N 0.22216 0.17918 0.88678 0.0
N910 N 0.17902 0.22313 0.88677 0.0
C911 C 0.20831 0.23221 0.87825 0.0
C912 C 0.23174 0.20832 0.87824 0.0
C913 C 0.74685 0.2076 0.86576 0.0
C914 C 0.71488 0.21539 0.86802 0.0
C915 C 0.77009 0.23072 0.86595 0.0
C916 C 0.76246 0.26272 0.8684 0.0
H917 H 0.75412 0.18342 0.86329 0.0
H918 H 0.79424 0.22334 0.86361 0.0
S919 S 0.68226 0.2957 0.87671 0.0
N920 N 0.67689 0.25756 0.87411 0.0
N921 N 0.72044 0.30089 0.87445 0.0
C922 C 0.73059 0.27085 0.87142 0.0
C923 C 0.7069 0.24728 0.87123 0.0
C924 C 0.74592 0.76879 0.87129 0.0
C925 C 0.71389 0.76111 0.87258 0.0
C926 C 0.76907 0.74556 0.87113 0.0
C927 C 0.76129 0.71354 0.87223 0.0
H928 H 0.75333 0.793 0.86988 0.0
H929 H 0.79328 0.75291 0.8696 0.0
S930 S 0.68084 0.6807 0.8775 0.0
N931 N 0.67564 0.71894 0.87623 0.0
N932 N 0.71904 0.67539 0.87594 0.0
C933 C 0.72935 0.70547 0.87431 0.0
C934 C 0.70573 0.72917 0.87448 0.0
C935 C 0.73415 0.70949 0.10647 0.0
C936 C 0.76496 0.71606 0.11614 0.0
C937 C 0.711 0.73283 0.10616 0.0
C938 C 0.71768 0.76373 0.11551 0.0
H939 H 0.72779 0.68611 0.09901 0.0
H940 H 0.68767 0.72654 0.09851 0.0
S941 S 0.7942 0.79275 0.14505 0.0
N942 N 0.80054 0.75558 0.13663 0.0
N943 N 0.75722 0.79928 0.13605 0.0
C944 C 0.74839 0.77059 0.12543 0.0
C945 C 0.77194 0.74685 0.12575 0.0
C946 C 0.24691 0.71223 0.11162 0.0
C947 C 0.21491 0.72001 0.10969 0.0
C948 C 0.27013 0.73539 0.11205 0.0
C949 C 0.26247 0.76745 0.1106 0.0
H950 H 0.25425 0.68801 0.11339 0.0
H951 H 0.29429 0.72796 0.11408 0.0
S952 S 0.18217 0.80054 0.1039 0.0
N953 N 0.17685 0.76231 0.10522 0.0
N954 N 0.22035 0.80572 0.10607 0.0
C955 C 0.23056 0.77561 0.10801 0.0
C956 C 0.20689 0.75198 0.10754 0.0
C957 C 0.71103 0.24447 0.10966 0.0
C958 C 0.7187 0.21241 0.10861 0.0
C959 C 0.73425 0.26759 0.10981 0.0
C960 C 0.76627 0.25978 0.10893 0.0
H961 H 0.68683 0.25196 0.11092 0.0
H962 H 0.72686 0.29182 0.11113 0.0
S963 S 0.79911 0.17919 0.10464 0.0
N964 N 0.76086 0.17406 0.10563 0.0
N965 N 0.80443 0.21742 0.10592 0.0
C966 C 0.77435 0.22779 0.1072 0.0
C967 C 0.75064 0.20419 0.10704 0.0
C968 C 0.70786 0.61158 0.75032 0.0
C969 C 0.71557 0.60862 0.71837 0.0
C970 C 0.73102 0.61137 0.77358 0.0
C971 C 0.76296 0.60818 0.76596 0.0
H972 H 0.68375 0.61471 0.75752 0.0
H973 H 0.72373 0.61433 0.79771 0.0
S974 S 0.79566 0.5979 0.68584 0.0
N975 N 0.75757 0.60107 0.68046 0.0
N976 N 0.80093 0.60071 0.72399 0.0
C977 C 0.77098 0.60446 0.73412 0.0
C978 C 0.74738 0.60468 0.71043 0.0
C979 C 0.24635 0.36704 0.7694 0.0
C980 C 0.21431 0.36945 0.76204 0.0
C981 C 0.26929 0.36694 0.74597 0.0
C982 C 0.26128 0.36923 0.71405 0.0
H983 H 0.25394 0.36469 0.7935 0.0
H984 H 0.2935 0.36447 0.75307 0.0
S985 S 0.18077 0.37769 0.68207 0.0
N986 N 0.17582 0.37538 0.72032 0.0
N987 N 0.21888 0.37522 0.67637 0.0
C988 C 0.22935 0.37233 0.70631 0.0
C989 C 0.20593 0.37243 0.73022 0.0
C990 C 0.23548 0.60654 0.2693 0.0
C991 C 0.26639 0.61574 0.26256 0.0
C992 C 0.21223 0.60685 0.24616 0.0
C993 C 0.2189 0.61639 0.2153 0.0
H994 H 0.22911 0.59901 0.29269 0.0
H995 H 0.18881 0.59953 0.25257 0.0
S996 S 0.29574 0.64467 0.18583 0.0
N997 N 0.30216 0.63585 0.22291 0.0
N998 N 0.25855 0.63643 0.17952 0.0
C999 C 0.24972 0.62577 0.20822 0.0
C1000 C 0.27341 0.62544 0.23179 0.0
C1001 C 0.71218 0.37519 0.23382 0.0
C1002 C 0.71873 0.36496 0.26449 0.0
C1003 C 0.73517 0.37457 0.21038 0.0
C1004 C 0.76564 0.3637 0.21668 0.0
H1005 H 0.68909 0.3838 0.2278 0.0
H1006 H 0.72902 0.38279 0.18717 0.0
S1007 S 0.79418 0.3318 0.2925 0.0
N1008 N 0.75759 0.34205 0.29942 0.0
N1009 N 0.80066 0.34089 0.25549 0.0
C1010 C 0.77243 0.35309 0.24718 0.0
C1011 C 0.74905 0.35371 0.27102 0.0
C1012 C 0.20882 0.60584 0.73381 0.0
C1013 C 0.21635 0.6119 0.76536 0.0
C1014 C 0.23191 0.60573 0.71043 0.0
C1015 C 0.26353 0.61166 0.71757 0.0
H1016 H 0.18485 0.60128 0.72698 0.0
H1017 H 0.2248 0.60107 0.68653 0.0
S1018 S 0.2956 0.63014 0.79641 0.0
N1019 N 0.25785 0.62471 0.80233 0.0
N1020 N 0.30103 0.62453 0.75858 0.0
C1021 C 0.27142 0.61772 0.74906 0.0
C1022 C 0.24793 0.61784 0.77285 0.0
C1023 C 0.76892 0.37573 0.73334 0.0
C1024 C 0.76245 0.36588 0.76415 0.0
C1025 C 0.74575 0.3752 0.71006 0.0
C1026 C 0.71519 0.36477 0.71666 0.0
H1027 H 0.79207 0.38399 0.7271 0.0
H1028 H 0.75185 0.38314 0.68673 0.0
S1029 S 0.6868 0.33388 0.79297 0.0
N1030 N 0.72354 0.34374 0.79953 0.0
N1031 N 0.6802 0.34273 0.75595 0.0
C1032 C 0.7085 0.3545 0.7473 0.0
C1033 C 0.73204 0.35505 0.77097 0.0
C1034 C 0.26927 0.37999 0.23485 0.0
C1035 C 0.26253 0.37081 0.26581 0.0
C1036 C 0.24613 0.37975 0.21157 0.0
C1037 C 0.21528 0.3703 0.21827 0.0
H1038 H 0.29267 0.38736 0.22842 0.0
H1039 H 0.25257 0.38697 0.1881 0.0
S1040 S 0.18576 0.34238 0.29533 0.0
N1041 N 0.22283 0.35102 0.30169 0.0
N1042 N 0.17948 0.35055 0.25809 0.0
C1043 C 0.20819 0.36104 0.24917 0.0
C1044 C 0.23174 0.36131 0.27287 0.0
C1045 C 0.71157 0.60261 0.23716 0.0
C1046 C 0.71891 0.61032 0.26837 0.0
C1047 C 0.7346 0.60231 0.21377 0.0
C1048 C 0.76598 0.60968 0.22058 0.0
H1049 H 0.68777 0.59686 0.2306 0.0
H1050 H 0.72765 0.59636 0.19012 0.0
S1051 S 0.79742 0.63271 0.29842 0.0
N1052 N 0.75989 0.62619 0.30469 0.0
N1053 N 0.80306 0.62562 0.26086 0.0
C1054 C 0.77372 0.6173 0.25175 0.0
C1055 C 0.75026 0.61763 0.27557 0.0
C1056 C 0.27022 0.74867 0.61543 0.0
C1057 C 0.26261 0.71687 0.61112 0.0
C1058 C 0.24711 0.77202 0.615 0.0
C1059 C 0.21534 0.76462 0.61021 0.0
H1060 H 0.29418 0.75567 0.61981 0.0
H1061 H 0.25425 0.796 0.61913 0.0
S1062 S 0.18308 0.68508 0.59563 0.0
N1063 N 0.22097 0.67943 0.60037 0.0
N1064 N 0.17772 0.72312 0.59954 0.0
C1065 C 0.20748 0.73297 0.60505 0.0
C1066 C 0.23101 0.7092 0.60551 0.0
C1067 C 0.27087 0.23442 0.3664 0.0
C1068 C 0.26358 0.26645 0.36933 0.0
C1069 C 0.24743 0.2115 0.36667 0.0
C1070 C 0.2156 0.21955 0.36987 0.0
H1071 H 0.29488 0.22686 0.36334 0.0
H1072 H 0.25442 0.18729 0.36372 0.0
S1073 S 0.18388 0.30001 0.38002 0.0
N1074 N 0.22203 0.30492 0.37677 0.0
N1075 N 0.17813 0.26192 0.37731 0.0
C1076 C 0.20797 0.25145 0.37353 0.0
C1077 C 0.23186 0.27482 0.37326 0.0
C1078 C 0.21279 0.73684 0.37694 0.0
C1079 C 0.21947 0.76772 0.36754 0.0
C1080 C 0.23599 0.71365 0.37695 0.0
C1081 C 0.26686 0.72036 0.36757 0.0
H1082 H 0.18939 0.73044 0.38433 0.0
H1083 H 0.22962 0.69023 0.38435 0.0
S1084 S 0.29623 0.79718 0.33907 0.0
N1085 N 0.25909 0.80354 0.34756 0.0
N1086 N 0.30262 0.76003 0.34758 0.0
C1087 C 0.2739 0.75117 0.35809 0.0
C1088 C 0.25026 0.7748 0.35808 0.0
C1089 C 0.74834 0.70776 0.3659 0.0
C1090 C 0.71708 0.71506 0.37341 0.0
C1091 C 0.77161 0.73084 0.36575 0.0
C1092 C 0.76463 0.76222 0.37309 0.0
H1093 H 0.75487 0.68416 0.35928 0.0
H1094 H 0.79512 0.72407 0.35903 0.0
S1095 S 0.68699 0.7931 0.39743 0.0
N1096 N 0.6808 0.7556 0.39052 0.0
N1097 N 0.72448 0.79893 0.39024 0.0
C1098 C 0.73365 0.76968 0.38164 0.0
C1099 C 0.70993 0.74615 0.3818 0.0
C1100 C 0.74687 0.26781 0.36379 0.0
C1101 C 0.71513 0.2604 0.36876 0.0
C1102 C 0.76997 0.24455 0.36333 0.0
C1103 C 0.76243 0.21276 0.36782 0.0
H1104 H 0.75402 0.29178 0.35956 0.0
H1105 H 0.79389 0.25164 0.35882 0.0
S1106 S 0.68305 0.18092 0.38386 0.0
N1107 N 0.67757 0.21895 0.37978 0.0
N1108 N 0.72094 0.17525 0.3789 0.0
C1109 C 0.73087 0.20502 0.37355 0.0
C1110 C 0.70729 0.22877 0.37403 0.0
C1111 C 0.76892 0.24523 0.61028 0.0
C1112 C 0.76108 0.21325 0.60857 0.0
C1113 C 0.74583 0.26853 0.61043 0.0
C1114 C 0.71379 0.26096 0.60888 0.0
H1115 H 0.79314 0.2525 0.61211 0.0
H1116 H 0.75331 0.29268 0.61232 0.0
S1117 S 0.68059 0.18073 0.60245 0.0
N1118 N 0.71878 0.17528 0.60405 0.0
N1119 N 0.67546 0.21896 0.60437 0.0
C1120 C 0.70557 0.22907 0.60642 0.0
C1121 C 0.72913 0.2053 0.60626 0.0
C1122 C 0.23279 0.2691 0.60474 0.0
C1123 C 0.26423 0.26159 0.61124 0.0
C1124 C 0.2094 0.24609 0.60487 0.0
C1125 C 0.21642 0.21455 0.61147 0.0
H1126 H 0.22602 0.29302 0.59967 0.0
H1127 H 0.18558 0.25322 0.59989 0.0
S1128 S 0.29498 0.1825 0.63105 0.0
N1129 N 0.30102 0.22017 0.62503 0.0
N1130 N 0.25721 0.17709 0.62526 0.0
C1131 C 0.24782 0.20663 0.61788 0.0
C1132 C 0.27163 0.23006 0.61776 0.0
C1133 C 0.73121 0.77022 0.61817 0.0
C1134 C 0.76272 0.76286 0.61183 0.0
C1135 C 0.70811 0.74697 0.61882 0.0
C1136 C 0.71546 0.7153 0.61318 0.0
H1137 H 0.72432 0.79407 0.6234 0.0
H1138 H 0.68437 0.75391 0.62444 0.0
S1139 S 0.79412 0.68381 0.59317 0.0
N1140 N 0.79978 0.72168 0.59814 0.0
N1141 N 0.75645 0.67808 0.5994 0.0
C1142 C 0.74676 0.70769 0.606 0.0
C1143 C 0.77031 0.7314 0.60532 0.0
C1144 C 0.60279 0.24425 0.76842 0.0
C1145 C 0.61141 0.21321 0.7614 0.0
C1146 C 0.60264 0.26755 0.74526 0.0
C1147 C 0.6111 0.26077 0.71411 0.0
H1148 H 0.59611 0.25071 0.79203 0.0
H1149 H 0.59588 0.29108 0.75191 0.0
S1150 S 0.63753 0.18353 0.68381 0.0
N1151 N 0.62982 0.17722 0.72114 0.0
N1152 N 0.62954 0.22084 0.67776 0.0
C1153 C 0.6199 0.22981 0.70677 0.0
C1154 C 0.62005 0.20611 0.73034 0.0
C1155 C 0.36762 0.76942 0.73396 0.0
C1156 C 0.36816 0.76157 0.766 0.0
C1157 C 0.36767 0.74629 0.71071 0.0
C1158 C 0.36824 0.7142 0.71837 0.0
H1159 H 0.36668 0.79367 0.7266 0.0
H1160 H 0.36678 0.75379 0.68647 0.0
S1161 S 0.37104 0.68092 0.79886 0.0
N1162 N 0.37026 0.71916 0.80418 0.0
N1163 N 0.3703 0.67581 0.76058 0.0
C1164 C 0.36939 0.70596 0.75035 0.0
C1165 C 0.36936 0.72956 0.77407 0.0
C1166 C 0.61773 0.74597 0.27312 0.0
C1167 C 0.61179 0.71438 0.26585 0.0
C1168 C 0.61743 0.76914 0.24992 0.0
C1169 C 0.61118 0.76177 0.21839 0.0
H1170 H 0.62333 0.75292 0.29687 0.0
H1171 H 0.62284 0.79294 0.25677 0.0
S1172 S 0.59148 0.68295 0.18727 0.0
N1173 N 0.59758 0.67722 0.225 0.0
N1174 N 0.59703 0.72073 0.18143 0.0
C1175 C 0.60431 0.73039 0.21088 0.0
C1176 C 0.60461 0.70675 0.23455 0.0
C1177 C 0.37248 0.23578 0.26841 0.0
C1178 C 0.3688 0.26764 0.26073 0.0
C1179 C 0.37307 0.21261 0.24523 0.0
C1180 C 0.37002 0.2202 0.21326 0.0
H1181 H 0.37466 0.22847 0.29262 0.0
H1182 H 0.37561 0.18847 0.25262 0.0
S1183 S 0.35998 0.30024 0.18039 0.0
N1184 N 0.3623 0.30561 0.21857 0.0
N1185 N 0.3634 0.26214 0.1751 0.0
C1186 C 0.36675 0.25204 0.20514 0.0
C1187 C 0.36613 0.27569 0.22878 0.0
C1188 C 0.37517 0.21075 0.73394 0.0
C1189 C 0.36672 0.21752 0.76508 0.0
C1190 C 0.37512 0.23406 0.71079 0.0
C1191 C 0.36658 0.26514 0.71779 0.0
H1192 H 0.38186 0.18721 0.72727 0.0
H1193 H 0.38175 0.22755 0.68718 0.0
S1194 S 0.34078 0.29489 0.79547 0.0
N1195 N 0.34857 0.25753 0.80148 0.0
N1196 N 0.34845 0.3012 0.75812 0.0
C1197 C 0.35803 0.27226 0.74888 0.0
C1198 C 0.3581 0.24853 0.77245 0.0
C1199 C 0.60238 0.76758 0.73729 0.0
C1200 C 0.61008 0.76049 0.76857 0.0
C1201 C 0.6026 0.74444 0.71402 0.0
C1202 C 0.61055 0.71321 0.72102 0.0
H1203 H 0.59624 0.79127 0.73058 0.0
H1204 H 0.59661 0.75121 0.69031 0.0
S1205 S 0.63389 0.68245 0.7991 0.0
N1206 N 0.62662 0.7199 0.80515 0.0
N1207 N 0.62705 0.67656 0.76154 0.0
C1208 C 0.61821 0.70573 0.75225 0.0
C1209 C 0.61798 0.72928 0.77595 0.0
C1210 C 0.60334 0.23373 0.26786 0.0
C1211 C 0.61376 0.26434 0.26151 0.0
C1212 C 0.60373 0.2105 0.24466 0.0
C1213 C 0.61456 0.21695 0.21418 0.0
H1214 H 0.59479 0.22759 0.29095 0.0
H1215 H 0.59542 0.18732 0.25071 0.0
S1216 S 0.64657 0.29279 0.186 0.0
N1217 N 0.63658 0.29945 0.22273 0.0
N1218 N 0.63729 0.25591 0.17928 0.0
C1219 C 0.62524 0.24743 0.20754 0.0
C1220 C 0.62485 0.27106 0.23113 0.0
C1221 C 0.36679 0.77242 0.24835 0.0
C1222 C 0.36955 0.7648 0.21636 0.0
C1223 C 0.36781 0.74926 0.27159 0.0
C1224 C 0.37165 0.71742 0.26392 0.0
H1225 H 0.36325 0.79645 0.25562 0.0
H1226 H 0.36489 0.75647 0.29575 0.0
S1227 S 0.38184 0.68501 0.18371 0.0
N1228 N 0.37765 0.72303 0.17834 0.0
N1229 N 0.37959 0.67964 0.2219 0.0
C1230 C 0.3752 0.7095 0.23205 0.0
C1231 C 0.37414 0.7331 0.20836 0.0
C1232 C 0.11791 0.97623 0.32466 0.0
C1233 C 0.13385 0.95911 0.3479 0.0
C1234 C 0.11834 0.00895 0.32434 0.0
C1235 C 0.13471 0.02607 0.34725 0.0
H1236 H 0.10613 0.96434 0.30561 0.0
H1237 H 0.10679 0.02079 0.3051 0.0
S1238 S 0.1754 -0.00739 0.41655 0.0
N1239 N 0.16299 0.9618 0.39683 0.0
N1240 N 0.16381 0.02342 0.39624 0.0
C1241 C 0.14886 0.00934 0.37194 0.0
C1242 C 0.14842 0.97589 0.37226 0.0
C1243 C 0.97442 0.11889 0.32136 0.0
C1244 C 0.95698 0.13429 0.34474 0.0
C1245 C 0.00715 0.11967 0.32123 0.0
C1246 C 0.02393 0.13587 0.34449 0.0
H1247 H 0.96278 0.10716 0.30213 0.0
H1248 H 0.01926 0.1085 0.30194 0.0
S1249 S 0.98965 0.17557 0.41395 0.0
N1250 N 0.95909 0.16306 0.39391 0.0
N1251 N 0.02067 0.16448 0.39373 0.0
C1252 C 0.00689 0.14966 0.36917 0.0
C1253 C 0.97345 0.14888 0.36928 0.0
C1254 C 0.8625 0.00357 0.32175 0.0
C1255 C 0.84744 0.0209 0.34541 0.0
C1256 C 0.86253 0.97082 0.32209 0.0
C1257 C 0.8475 0.95395 0.34611 0.0
H1258 H 0.87318 0.01528 0.30194 0.0
H1259 H 0.87325 0.95873 0.30253 0.0
S1260 S 0.80972 0.98815 0.41668 0.0
N1261 N 0.82068 0.01875 0.39575 0.0
N1262 N 0.82076 0.95713 0.39642 0.0
C1263 C 0.83428 0.97096 0.37112 0.0
C1264 C 0.83423 0.0044 0.37076 0.0
C1265 C 0.97519 0.81973 0.36255 0.0
C1266 C 0.95749 0.84342 0.34798 0.0
C1267 C 0.00794 0.82049 0.36239 0.0
C1268 C 0.02441 0.84498 0.34767 0.0
H1269 H 0.96377 0.79964 0.37302 0.0
H1270 H 0.02034 0.80094 0.37277 0.0
S1271 S 0.98906 0.91551 0.3109 0.0
N1272 N 0.95883 0.89409 0.32183 0.0
N1273 N 0.02039 0.89553 0.32154 0.0
C1274 C 0.00699 0.86991 0.33486 0.0
C1275 C 0.97358 0.86912 0.335 0.0
C1276 C 0.15347 0.00683 0.61819 0.0
C1277 C 0.13101 0.02388 0.6353 0.0
C1278 C 0.15382 0.97409 0.61842 0.0
C1279 C 0.13172 0.95685 0.63577 0.0
H1280 H 0.17191 0.01876 0.6055 0.0
H1281 H 0.17248 0.96233 0.60588 0.0
S1282 S 0.06448 0.99007 0.68 0.0
N1283 N 0.08358 0.02097 0.66681 0.0
N1284 N 0.0842 0.95935 0.66726 0.0
C1285 C 0.10775 0.97352 0.65122 0.0
C1286 C 0.10741 0.007 0.65097 0.0
C1287 C 0.97234 0.15959 0.61958 0.0
C1288 C 0.95532 0.1353 0.63395 0.0
C1289 C 0.00507 0.16004 0.62022 0.0
C1290 C 0.02223 0.13622 0.63525 0.0
H1291 H 0.96035 0.17922 0.60887 0.0
H1292 H 0.01688 0.17998 0.6099 0.0
S1293 S 0.98907 0.0645 0.67169 0.0
N1294 N 0.9582 0.08478 0.66029 0.0
N1295 N 0.01978 0.08562 0.66148 0.0
C1296 C 0.0056 0.11072 0.64794 0.0
C1297 C 0.97218 0.11026 0.64729 0.0
C1298 C 0.82394 0.00477 0.61794 0.0
C1299 C 0.84613 0.02209 0.63507 0.0
C1300 C 0.82368 0.97204 0.61868 0.0
C1301 C 0.84557 0.95508 0.63658 0.0
H1302 H 0.80568 0.01649 0.60481 0.0
H1303 H 0.80524 0.96008 0.60604 0.0
S1304 S 0.91207 0.98897 0.68122 0.0
N1305 N 0.89314 0.01964 0.66726 0.0
N1306 N 0.8926 0.95806 0.66868 0.0
C1307 C 0.86928 0.97198 0.65207 0.0
C1308 C 0.86957 0.00544 0.65129 0.0
C1309 C 0.97242 0.86279 0.65808 0.0
C1310 C 0.9553 0.84354 0.63751 0.0
C1311 C 0.00522 0.8632 0.65765 0.0
C1312 C 0.02235 0.84439 0.63664 0.0
H1313 H 0.96053 0.8769 0.67546 0.0
H1314 H 0.01717 0.8776 0.67476 0.0
S1315 S 0.98874 0.79286 0.57503 0.0
N1316 N 0.95805 0.80746 0.59337 0.0
N1317 N 0.01947 0.80823 0.59258 0.0
C1318 C 0.00549 0.82644 0.61466 0.0
C1319 C 0.97209 0.82602 0.61511 0.0
C1320 C 0.36242 0.15456 0.00579 0.0
C1321 C 0.34475 0.13294 0.02331 0.0
C1322 C 0.36224 0.15419 0.97305 0.0
C1323 C 0.34438 0.13219 0.95625 0.0
H1324 H 0.37558 0.1729 0.01733 0.0
H1325 H 0.37528 0.17226 0.96094 0.0
S1326 S 0.29852 0.06682 -0.00915 0.0
N1327 N 0.31211 0.08624 0.02136 0.0
N1328 N 0.31177 0.08554 0.95971 0.0
C1329 C 0.32836 0.10897 0.97341 0.0
C1330 C 0.32854 0.10936 0.0069 0.0
C1331 C 0.82215 0.35895 0.97273 0.0
C1332 C 0.84585 0.34371 0.95557 0.0
C1333 C 0.82238 0.35929 0.00547 0.0
C1334 C 0.84634 0.34444 0.02252 0.0
H1335 H 0.80239 0.3696 0.96091 0.0
H1336 H 0.80279 0.37011 0.01741 0.0
S1337 S 0.91691 0.30619 0.98879 0.0
N1338 N 0.89606 0.31687 0.95803 0.0
N1339 N 0.89664 0.31761 0.01967 0.0
C1340 C 0.87139 0.33104 0.00567 0.0
C1341 C 0.8711 0.33063 0.97221 0.0
C1342 C 0.65825 0.86023 0.97614 0.0
C1343 C 0.63397 0.84582 0.95918 0.0
C1344 C 0.65854 0.85996 0.0089 0.0
C1345 C 0.63458 0.84525 0.02612 0.0
H1346 H 0.67802 0.87061 0.96411 0.0
H1347 H 0.67851 0.87018 0.02069 0.0
S1348 S 0.5627 0.80925 -0.00683 0.0
N1349 N 0.58316 0.82011 0.96221 0.0
N1350 N 0.58379 0.81957 0.02384 0.0
C1351 C 0.60903 0.83271 0.00956 0.0
C1352 C 0.60869 0.83302 0.97612 0.0
C1353 C 0.15618 0.61959 0.00679 0.0
C1354 C 0.13277 0.63519 0.02396 0.0
C1355 C 0.15599 0.61945 0.97406 0.0
C1356 C 0.1324 0.63494 0.95699 0.0
H1357 H 0.17571 0.60851 0.0186 0.0
H1358 H 0.17539 0.60826 0.96215 0.0
S1359 S 0.06244 0.67418 -0.00933 0.0
N1360 N 0.08294 0.66288 0.02144 0.0
N1361 N 0.08265 0.66267 0.95978 0.0
C1362 C 0.10757 0.64867 0.97381 0.0
C1363 C 0.10774 0.64878 0.00728 0.0
C1364 C 0.3604 0.82394 0.97428 0.0
C1365 C 0.34455 0.84718 0.95704 0.0
C1366 C 0.36094 0.82441 0.007 0.0
C1367 C 0.34565 0.84814 0.02401 0.0
H1368 H 0.37144 0.80435 0.96255 0.0
H1369 H 0.37232 0.80514 0.01897 0.0
S1370 S 0.30571 0.91768 0.9901 0.0
N1371 N 0.31668 0.8969 0.9594 0.0
N1372 N 0.3177 0.89781 0.02104 0.0
C1373 C 0.33161 0.87279 0.0071 0.0
C1374 C 0.33105 0.8723 0.97364 0.0
C1375 C 0.16073 0.36284 0.00604 0.0
C1376 C 0.13628 0.34942 0.02356 0.0
C1377 C 0.16056 0.36203 0.97327 0.0
C1378 C 0.13595 0.34777 0.95661 0.0
H1379 H 0.18096 0.37276 0.01765 0.0
H1380 H 0.18067 0.3715 0.96105 0.0
S1381 S 0.06353 0.3144 -0.00869 0.0
N1382 N 0.08473 0.32517 0.02176 0.0
N1383 N 0.08447 0.32359 0.96013 0.0
C1384 C 0.11028 0.33623 0.97378 0.0
C1385 C 0.11043 0.33708 0.00722 0.0
C1386 C 0.65693 0.11667 0.00502 0.0
C1387 C 0.6336 0.13224 0.02232 0.0
C1388 C 0.65687 0.11696 0.97227 0.0
C1389 C 0.63345 0.13283 0.95531 0.0
H1390 H 0.67632 0.10526 0.01676 0.0
H1391 H 0.67618 0.10571 0.96029 0.0
S1392 S 0.56378 0.17236 0.98933 0.0
N1393 N 0.5841 0.16048 0.02 0.0
N1394 N 0.58396 0.16103 0.95835 0.0
C1395 C 0.60871 0.14663 0.97225 0.0
C1396 C 0.60879 0.14633 0.00573 0.0
C1397 C 0.86023 0.6565 0.97603 0.0
C1398 C 0.84468 0.63301 0.95894 0.0
C1399 C 0.86016 0.6566 0.00882 0.0
C1400 C 0.84452 0.63321 0.02603 0.0
H1401 H 0.87154 0.67582 0.96409 0.0
H1402 H 0.87143 0.67597 0.02066 0.0
S1403 S 0.80471 0.56347 -0.00728 0.0
N1404 N 0.81643 0.58357 0.96184 0.0
N1405 N 0.81627 0.58379 0.02347 0.0
C1406 C 0.8306 0.60844 0.00931 0.0
C1407 C 0.8307 0.60832 0.97583 0.0
C1408 C 0.00708 0.3617 0.15648 0.0
C1409 C 0.02458 0.34645 0.13307 0.0
C1410 C 0.97437 0.36099 0.15644 0.0
C1411 C 0.95765 0.345 0.13299 0.0
H1412 H 0.01865 0.37319 0.1759 0.0
H1413 H 0.96223 0.37199 0.17582 0.0
S1414 S -0.00787 0.30621 0.06311 0.0
N1415 N 0.02263 0.31839 0.08345 0.0
N1416 N 0.96104 0.31706 0.08337 0.0
C1417 C 0.97475 0.33153 0.10817 0.0
C1418 C 0.00819 0.33226 0.10821 0.0
C1419 C 0.00514 0.61908 0.82258 0.0
C1420 C 0.02247 0.63454 0.84591 0.0
C1421 C 0.97239 0.61902 0.82302 0.0
C1422 C 0.95548 0.63446 0.84679 0.0
H1423 H 0.01684 0.60795 0.80301 0.0
H1424 H 0.96033 0.6078 0.80375 0.0
S1425 S 0.98971 0.67393 0.9163 0.0
N1426 N 0.02028 0.66245 0.89562 0.0
N1427 N 0.95869 0.66244 0.89635 0.0
C1428 C 0.9725 0.64832 0.87138 0.0
C1429 C 0.00595 0.64834 0.87096 0.0
C1430 C 0.36003 0.97306 0.82024 0.0
C1431 C 0.34548 0.95609 0.84448 0.0
C1432 C 0.36002 0.00583 0.82005 0.0
C1433 C 0.34546 0.02306 0.8441 0.0
H1434 H 0.37037 0.96103 0.80044 0.0
H1435 H 0.37034 0.01765 0.80011 0.0
S1436 S 0.309 0.98994 0.91588 0.0
N1437 N 0.31964 0.95902 0.89526 0.0
N1438 N 0.31963 0.02064 0.89492 0.0
C1439 C 0.33269 0.00642 0.86959 0.0
C1440 C 0.3327 0.97298 0.86978 0.0
C1441 C 0.00579 0.3207 0.8609 0.0
C1442 C 0.0228 0.34501 0.84653 0.0
C1443 C 0.97304 0.32018 0.86028 0.0
C1444 C 0.9558 0.34396 0.84525 0.0
H1445 H 0.0178 0.30108 0.87162 0.0
H1446 H 0.96128 0.30022 0.87059 0.0
S1447 S 0.98884 0.41575 0.80882 0.0
N1448 N 0.01976 0.39553 0.8202 0.0
N1449 N 0.95818 0.39458 0.81906 0.0
C1450 C 0.97241 0.36951 0.8326 0.0
C1451 C 0.00585 0.37003 0.83324 0.0
C1452 C 0.61768 0.97159 0.82358 0.0
C1453 C 0.63389 0.95468 0.8468 0.0
C1454 C 0.61777 0.00434 0.82317 0.0
C1455 C 0.63407 0.02169 0.84595 0.0
H1456 H 0.60583 0.95952 0.8047 0.0
H1457 H 0.60597 0.01602 0.80398 0.0
S1458 S 0.6758 0.98887 0.91492 0.0
N1459 N 0.66351 0.95787 0.89542 0.0
N1460 N 0.66368 0.01947 0.89464 0.0
C1461 C 0.64865 0.00516 0.87052 0.0
C1462 C 0.64856 0.9717 0.87095 0.0
C1463 C 0.97466 0.61793 0.15994 0.0
C1464 C 0.95723 0.63214 0.13581 0.0
C1465 C 0.0074 0.6191 0.16021 0.0
C1466 C 0.02415 0.63449 0.13634 0.0
H1467 H 0.96299 0.60702 0.17966 0.0
H1468 H 0.01951 0.60896 0.18007 0.0
S1469 S 0.98988 0.67043 0.06482 0.0
N1470 N 0.95933 0.65855 0.08531 0.0
N1471 N 0.02089 0.66066 0.08571 0.0
C1472 C 0.00712 0.64686 0.1109 0.0
C1473 C 0.9737 0.6457 0.11066 0.0
C1474 C 0.36085 0.97589 0.16032 0.0
C1475 C 0.34669 0.95878 0.13601 0.0
C1476 C 0.36048 0.00865 0.16046 0.0
C1477 C 0.3459 0.02573 0.13629 0.0
H1478 H 0.37116 0.96399 0.18022 0.0
H1479 H 0.37057 0.02057 0.18043 0.0
S1480 S 0.31028 -0.00772 0.06437 0.0
N1481 N 0.32114 0.96147 0.08506 0.0
N1482 N 0.3204 0.02309 0.08538 0.0
C1483 C 0.33346 0.00899 0.11077 0.0
C1484 C 0.33388 0.97555 0.11061 0.0
C1485 C 0.61908 0.97267 0.1613 0.0
C1486 C 0.6329 0.95518 0.13702 0.0
C1487 C 0.6189 0.00544 0.16065 0.0
C1488 C 0.63254 0.02212 0.13567 0.0
H1489 H 0.60953 0.96109 0.18176 0.0
H1490 H 0.60925 0.01769 0.18065 0.0
S1491 S 0.6667 0.9874 0.06356 0.0
N1492 N 0.65693 0.95697 0.0853 0.0
N1493 N 0.65661 0.01856 0.08408 0.0
C1494 C 0.64446 0.00492 0.11017 0.0
C1495 C 0.64464 0.97149 0.11084 0.0
C1496 C 0.11751 0.50659 0.82425 0.0
C1497 C 0.13407 0.52369 0.84703 0.0
C1498 C 0.11771 0.47386 0.82412 0.0
C1499 C 0.13451 0.45672 0.84673 0.0
H1500 H 0.10527 0.51847 0.80547 0.0
H1501 H 0.10563 0.46202 0.80523 0.0
S1502 S 0.17724 0.49006 0.91472 0.0
N1503 N 0.16451 0.52091 0.8952 0.0
N1504 N 0.16492 0.45929 0.89489 0.0
C1505 C 0.14943 0.47343 0.87092 0.0
C1506 C 0.14919 0.50688 0.87109 0.0
C1507 C 0.82188 0.50449 0.86313 0.0
C1508 C 0.84561 0.52181 0.84821 0.0
C1509 C 0.82175 0.47178 0.8624 0.0
C1510 C 0.84535 0.45492 0.84672 0.0
H1511 H 0.80234 0.5162 0.87431 0.0
H1512 H 0.80214 0.45975 0.87308 0.0
S1513 S 0.91597 0.48885 0.80898 0.0
N1514 N 0.89565 0.51951 0.82089 0.0
N1515 N 0.89538 0.45791 0.81953 0.0
C1516 C 0.87046 0.47182 0.83366 0.0
C1517 C 0.8706 0.50525 0.83441 0.0
C1518 C 0.15765 0.4764 0.11939 0.0
C1519 C 0.13499 0.45928 0.13618 0.0
C1520 C 0.1579 0.50917 0.11963 0.0
C1521 C 0.13552 0.52636 0.13667 0.0
H1522 H 0.1762 0.4645 0.10685 0.0
H1523 H 0.17663 0.52099 0.10726 0.0
S1524 S 0.06816 0.49304 0.18057 0.0
N1525 N 0.08739 0.46218 0.16747 0.0
N1526 N 0.08786 0.52377 0.1679 0.0
C1527 C 0.11153 0.50963 0.15199 0.0
C1528 C 0.11127 0.47616 0.15174 0.0
C1529 C 0.82029 0.47124 0.12048 0.0
C1530 C 0.84468 0.45399 0.13446 0.0
C1531 C 0.82022 0.50405 0.12079 0.0
C1532 C 0.84454 0.52106 0.13508 0.0
H1533 H 0.80033 0.45941 0.1103 0.0
H1534 H 0.80021 0.51604 0.11084 0.0
S1535 S 0.91654 0.4872 0.17037 0.0
N1536 N 0.8957 0.45649 0.1597 0.0
N1537 N 0.89561 0.51809 0.16026 0.0
C1538 C 0.8701 0.50414 0.14736 0.0
C1539 C 0.87015 0.47068 0.14706 0.0
C1540 C 0.32081 0.62088 0.50656 0.0
C1541 C 0.3446 0.63545 0.52408 0.0
C1542 C 0.32115 0.62124 0.47379 0.0
C1543 C 0.34529 0.6362 0.45702 0.0
H1544 H 0.30095 0.61018 0.51816 0.0
H1545 H 0.30154 0.61076 0.46161 0.0
S1546 S 0.41596 0.67317 0.49166 0.0
N1547 N 0.39502 0.66192 0.52216 0.0
N1548 N 0.39565 0.66265 0.46052 0.0
C1549 C 0.37031 0.6491 0.4742 0.0
C1550 C 0.36996 0.64871 0.50767 0.0
C1551 C 0.86239 0.8216 0.47601 0.0
C1552 C 0.84672 0.84485 0.45865 0.0
C1553 C 0.86214 0.82175 0.50875 0.0
C1554 C 0.8462 0.84516 0.52562 0.0
H1555 H 0.87384 0.8022 0.46433 0.0
H1556 H 0.8734 0.80247 0.52081 0.0
S1557 S 0.80642 0.91464 0.49146 0.0
N1558 N 0.81836 0.8943 0.46084 0.0
N1559 N 0.81784 0.89457 0.52248 0.0
C1560 C 0.83234 0.86983 0.50863 0.0
C1561 C 0.83261 0.86969 0.47517 0.0
C1562 C 0.65686 0.36078 0.50571 0.0
C1563 C 0.63331 0.34542 0.52288 0.0
C1564 C 0.65711 0.36029 0.47295 0.0
C1565 C 0.63384 0.34438 0.45584 0.0
H1566 H 0.67615 0.37217 0.51758 0.0
H1567 H 0.67657 0.3714 0.46107 0.0
S1568 S 0.56385 0.30516 0.48937 0.0
N1569 N 0.58378 0.31728 0.52016 0.0
N1570 N 0.58436 0.31628 0.45855 0.0
C1571 C 0.60893 0.33079 0.47262 0.0
C1572 C 0.60863 0.33134 0.50608 0.0
C1573 C 0.15327 0.11853 0.50643 0.0
C1574 C 0.13132 0.13613 0.52361 0.0
C1575 C 0.15365 0.11911 0.4737 0.0
C1576 C 0.13209 0.13731 0.4566 0.0
H1577 H 0.17129 0.10516 0.51827 0.0
H1578 H 0.17192 0.1061 0.46185 0.0
S1579 S 0.06625 0.1833 0.49012 0.0
N1580 N 0.08486 0.16916 0.52092 0.0
N1581 N 0.08559 0.17024 0.45931 0.0
C1582 C 0.10858 0.15327 0.47337 0.0
C1583 C 0.10818 0.15268 0.50684 0.0
C1584 C 0.36076 0.31949 0.50583 0.0
C1585 C 0.34708 0.34404 0.52307 0.0
C1586 C 0.36131 0.32 0.47305 0.0
C1587 C 0.34821 0.3451 0.45612 0.0
H1588 H 0.36988 0.29895 0.51763 0.0
H1589 H 0.37078 0.29982 0.46095 0.0
S1590 S 0.31477 0.41784 0.4902 0.0
N1591 N 0.32383 0.39605 0.52084 0.0
N1592 N 0.32491 0.39707 0.45922 0.0
C1593 C 0.33647 0.37084 0.4731 0.0
C1594 C 0.33588 0.37029 0.50654 0.0
C1595 C 0.11967 0.82251 0.4738 0.0
C1596 C 0.13463 0.84655 0.4569 0.0
C1597 C 0.11885 0.82268 0.50655 0.0
C1598 C 0.13299 0.84688 0.52385 0.0
H1599 H 0.10959 0.8026 0.46178 0.0
H1600 H 0.10826 0.80286 0.51831 0.0
S1601 S 0.17027 0.91822 0.49087 0.0
N1602 N 0.16038 0.89732 0.45991 0.0
N1603 N 0.1589 0.89759 0.52154 0.0
C1604 C 0.14615 0.87217 0.50727 0.0
C1605 C 0.14697 0.87202 0.47382 0.0
C1606 C 0.65611 0.61729 0.47693 0.0
C1607 C 0.63354 0.63389 0.45956 0.0
C1608 C 0.65587 0.61748 0.50965 0.0
C1609 C 0.63307 0.63429 0.52654 0.0
H1610 H 0.67503 0.60505 0.46527 0.0
H1611 H 0.67463 0.60537 0.52169 0.0
S1612 S 0.56537 0.67694 0.4924 0.0
N1613 N 0.58528 0.66427 0.46177 0.0
N1614 N 0.58488 0.66462 0.52341 0.0
C1615 C 0.60904 0.64918 0.50955 0.0
C1616 C 0.60926 0.64898 0.47608 0.0
C1617 C 0.86025 0.15589 0.50499 0.0
C1618 C 0.84501 0.13215 0.52208 0.0
C1619 C 0.86041 0.15592 0.47223 0.0
C1620 C 0.84536 0.1322 0.45504 0.0
H1621 H 0.87107 0.17548 0.51689 0.0
H1622 H 0.87134 0.17551 0.46039 0.0
S1623 S 0.80687 0.06164 0.48841 0.0
N1624 N 0.81786 0.08212 0.51928 0.0
N1625 N 0.81822 0.08211 0.45763 0.0
C1626 C 0.83188 0.10713 0.47177 0.0
C1627 C 0.83169 0.10712 0.50525 0.0
C1628 C 0.36206 0.50868 0.3236 0.0
C1629 C 0.34553 0.52573 0.34648 0.0
C1630 C 0.36235 0.47596 0.32367 0.0
C1631 C 0.34613 0.45876 0.34664 0.0
H1632 H 0.37391 0.52058 0.30457 0.0
H1633 H 0.37435 0.46416 0.30469 0.0
S1634 S 0.30385 0.49208 0.41507 0.0
N1635 N 0.31579 0.52295 0.39508 0.0
N1636 N 0.31639 0.46133 0.3953 0.0
C1637 C 0.33131 0.47547 0.37097 0.0
C1638 C 0.33098 0.50892 0.37086 0.0
C1639 C 0.61992 0.50535 0.32517 0.0
C1640 C 0.63633 0.52205 0.34836 0.0
C1641 C 0.62015 0.47262 0.32441 0.0
C1642 C 0.63679 0.45507 0.34681 0.0
H1643 H 0.60775 0.51755 0.30655 0.0
H1644 H 0.60813 0.46114 0.30527 0.0
S1645 S 0.6792 0.48721 0.41563 0.0
N1646 N 0.66655 0.51839 0.3966 0.0
N1647 N 0.66696 0.45681 0.39519 0.0
C1648 C 0.65157 0.47136 0.3714 0.0
C1649 C 0.65134 0.50481 0.37217 0.0
C1650 C 0.31902 0.50613 0.61856 0.0
C1651 C 0.34339 0.5231 0.63285 0.0
C1652 C 0.31907 0.47334 0.61815 0.0
C1653 C 0.3435 0.4561 0.63204 0.0
H1654 H 0.29894 0.51814 0.60875 0.0
H1655 H 0.29903 0.46152 0.60811 0.0
S1656 S 0.41563 0.48919 0.66752 0.0
N1657 N 0.39462 0.52011 0.65767 0.0
N1658 N 0.39472 0.4585 0.65689 0.0
C1659 C 0.36908 0.47274 0.64448 0.0
C1660 C 0.36903 0.50618 0.6449 0.0
C1661 C 0.61759 0.47178 0.65797 0.0
C1662 C 0.6346 0.45495 0.63526 0.0
C1663 C 0.61731 0.50454 0.65825 0.0
C1664 C 0.63403 0.52201 0.63582 0.0
H1665 H 0.60529 0.45965 0.67656 0.0
H1666 H 0.60485 0.51616 0.67705 0.0
S1667 S 0.67818 0.48942 0.56824 0.0
N1668 N 0.66564 0.45835 0.5875 0.0
N1669 N 0.6651 0.51993 0.58801 0.0
C1670 C 0.64949 0.50554 0.61175 0.0
C1671 C 0.64978 0.47208 0.61147 0.0
C1672 C 0.47262 0.1182 0.82091 0.0
C1673 C 0.45574 0.13355 0.84475 0.0
C1674 C 0.50536 0.11778 0.82077 0.0
C1675 C 0.5227 0.1327 0.84445 0.0
H1676 H 0.46057 0.10745 0.80137 0.0
H1677 H 0.51706 0.1068 0.80111 0.0
S1678 S 0.48995 0.17148 0.91515 0.0
N1679 N 0.45893 0.16071 0.89479 0.0
N1680 N 0.52053 0.15988 0.89454 0.0
C1681 C 0.50618 0.14633 0.86957 0.0
C1682 C 0.47274 0.14676 0.86971 0.0
C1683 C 0.50481 0.82135 0.86443 0.0
C1684 C 0.52205 0.84467 0.84876 0.0
C1685 C 0.47208 0.82132 0.86402 0.0
C1686 C 0.45517 0.84461 0.84793 0.0
H1687 H 0.51658 0.80207 0.87598 0.0
H1688 H 0.46007 0.80202 0.87528 0.0
S1689 S 0.48903 0.91412 0.80802 0.0
N1690 N 0.51969 0.89399 0.82018 0.0
N1691 N 0.45812 0.89394 0.81942 0.0
C1692 C 0.47205 0.86933 0.83407 0.0
C1693 C 0.50546 0.86936 0.83448 0.0
C1694 C 0.47445 0.12012 0.15818 0.0
C1695 C 0.45754 0.13489 0.13402 0.0
C1696 C 0.50718 0.12002 0.15843 0.0
C1697 C 0.5245 0.1347 0.13453 0.0
H1698 H 0.46241 0.10961 0.17789 0.0
H1699 H 0.51889 0.10944 0.1783 0.0
S1700 S 0.49168 0.17198 0.06305 0.0
N1701 N 0.46069 0.16125 0.0835 0.0
N1702 N 0.52228 0.16103 0.08395 0.0
C1703 C 0.50797 0.14775 0.10912 0.0
C1704 C 0.47453 0.14786 0.10887 0.0
C1705 C 0.50661 0.86034 0.1604 0.0
C1706 C 0.52379 0.84464 0.13702 0.0
C1707 C 0.47385 0.86103 0.15996 0.0
C1708 C 0.45671 0.84605 0.13612 0.0
H1709 H 0.51844 0.87123 0.18001 0.0
H1710 H 0.46194 0.87238 0.17927 0.0
S1711 S 0.49046 0.80603 0.06656 0.0
N1712 N 0.52119 0.81686 0.08729 0.0
N1713 N 0.45961 0.81812 0.08647 0.0
C1714 C 0.4736 0.83193 0.1115 0.0
C1715 C 0.50707 0.83124 0.11195 0.0
C1716 C 0.47251 0.32302 0.6182 0.0
C1717 C 0.45548 0.34579 0.6349 0.0
C1718 C 0.50523 0.32292 0.61806 0.0
C1719 C 0.52245 0.34557 0.63464 0.0
H1720 H 0.4606 0.30421 0.60607 0.0
H1721 H 0.517 0.30404 0.60586 0.0
S1722 S 0.48925 0.41359 0.67762 0.0
N1723 N 0.45837 0.39399 0.66523 0.0
N1724 N 0.51996 0.39378 0.66501 0.0
C1725 C 0.50579 0.36977 0.64969 0.0
C1726 C 0.47234 0.36989 0.64981 0.0
C1727 C 0.47522 0.65695 0.36381 0.0
C1728 C 0.45793 0.63414 0.34753 0.0
C1729 C 0.50794 0.65653 0.36393 0.0
C1730 C 0.52487 0.63329 0.34778 0.0
H1731 H 0.46353 0.67619 0.37549 0.0
H1732 H 0.51995 0.67548 0.37575 0.0
S1733 S 0.49079 0.56493 0.30624 0.0
N1734 N 0.46018 0.58525 0.31824 0.0
N1735 N 0.52176 0.5845 0.31845 0.0
C1736 C 0.50791 0.60903 0.33328 0.0
C1737 C 0.47447 0.60945 0.33317 0.0
C1738 C 0.50673 0.32448 0.36103 0.0
C1739 C 0.52411 0.3462 0.34331 0.0
C1740 C 0.47397 0.32485 0.36107 0.0
C1741 C 0.45703 0.34696 0.3434 0.0
H1742 H 0.51839 0.30617 0.37415 0.0
H1743 H 0.46193 0.30679 0.37421 0.0
S1744 S 0.49126 0.41205 0.29675 0.0
N1745 N 0.52183 0.39272 0.31034 0.0
N1746 N 0.46029 0.39344 0.31042 0.0
C1747 C 0.47408 0.37011 0.32714 0.0
C1748 C 0.50754 0.36971 0.3271 0.0
C1749 C 0.47231 0.61791 0.65873 0.0
C1750 C 0.4556 0.6338 0.63512 0.0
C1751 C 0.50505 0.61781 0.65929 0.0
C1752 C 0.52258 0.63357 0.63627 0.0
H1753 H 0.46011 0.60651 0.67783 0.0
H1754 H 0.51658 0.60636 0.67878 0.0
S1755 S 0.49032 0.67393 0.56617 0.0
N1756 N 0.45915 0.66234 0.58587 0.0
N1757 N 0.52075 0.66209 0.58684 0.0
C1758 C 0.50624 0.64774 0.61129 0.0
C1759 C 0.47279 0.64787 0.61075 0.0
loop_
_geom_bond_atom_site_label_1
_geom_bond_atom_site_label_2
_geom_bond_distance
_geom_bond_site_symmetry_2
_ccdc_geom_bond_type
Sc0 O3 2.025 . S
Sc0 O10 2.105 . S
Sc0 O13 2.105 . S
Sc0 O16 2.105 . S
Sc0 O19 2.105 . S
Sc1 O3 2.025 . S
Sc1 O11 2.105 . S
Sc1 O15 2.105 . S
Sc1 O17 2.105 . S
Sc1 O21 2.105 . S
Sc2 O3 2.025 . S
Sc2 O12 2.105 . S
Sc2 O14 2.105 . S
Sc2 O18 2.105 . S
Sc2 O20 2.105 . S
O3 Sc0 2.025 . S
O3 Sc1 2.025 . S
O3 Sc2 2.025 . S
C4 O10 1.268 . S
C4 O20 1.268 . S
C5 O11 1.268 . S
C5 O19 1.268 . S
C6 O12 1.268 . S
C6 O21 1.268 . S
C7 O13 1.268 . S
C7 O17 1.268 . S
C8 O14 1.268 . S
C8 O16 1.268 . S
C9 O15 1.268 . S
C9 O18 1.268 . S
O10 Sc0 2.105 . S
O10 C4 1.268 . S
O11 Sc1 2.105 . S
O11 C5 1.268 . S
O12 Sc2 2.105 . S
O12 C6 1.268 . S
O13 Sc0 2.105 . S
O13 C7 1.268 . S
O14 Sc2 2.105 . S
O14 C8 1.268 . S
O15 Sc1 2.105 . S
O15 C9 1.268 . S
O16 Sc0 2.105 . S
O16 C8 1.268 . S
O17 Sc1 2.105 . S
O17 C7 1.268 . S
O18 Sc2 2.105 . S
O18 C9 1.268 . S
O19 Sc0 2.105 . S
O19 C5 1.268 . S
O20 Sc2 2.105 . S
O20 C4 1.268 . S
O21 Sc1 2.105 . S
O21 C6 1.268 . S
Sc22 O25 2.025 . S
Sc22 O32 2.105 . S
Sc22 O35 2.105 . S
Sc22 O38 2.105 . S
Sc22 O41 2.105 . S
Sc23 O25 2.025 . S
Sc23 O33 2.105 . S
Sc23 O37 2.105 . S
Sc23 O39 2.105 . S
Sc23 O43 2.105 . S
Sc24 O25 2.025 . S
Sc24 O34 2.105 . S
Sc24 O36 2.105 . S
Sc24 O40 2.105 . S
Sc24 O42 2.105 . S
O25 Sc22 2.025 . S
O25 Sc23 2.025 . S
O25 Sc24 2.025 . S
C26 O32 1.268 . S
C26 O42 1.268 . S
C27 O33 1.268 . S
C27 O41 1.268 . S
C28 O34 1.268 . S
C28 O43 1.268 . S
C29 O35 1.268 . S
C29 O39 1.268 . S
C30 O36 1.268 . S
C30 O38 1.268 . S
C31 O37 1.268 . S
C31 O40 1.268 . S
O32 Sc22 2.105 . S
O32 C26 1.268 . S
O33 Sc23 2.105 . S
O33 C27 1.268 . S
O34 Sc24 2.105 . S
O34 C28 1.268 . S
O35 Sc22 2.105 . S
O35 C29 1.268 . S
O36 Sc24 2.105 . S
O36 C30 1.268 . S
O37 Sc23 2.105 . S
O37 C31 1.268 . S
O38 Sc22 2.105 . S
O38 C30 1.268 . S
O39 Sc23 2.105 . S
O39 C29 1.268 . S
O40 Sc24 2.105 . S
O40 C31 1.268 . S
O41 Sc22 2.105 . S
O41 C27 1.268 . S
O42 Sc24 2.105 . S
O42 C26 1.268 . S
O43 Sc23 2.105 . S
O43 C28 1.268 . S
Sc44 O47 2.025 . S
Sc44 O54 2.105 . S
Sc44 O57 2.105 . S
Sc44 O60 2.105 . S
Sc44 O63 2.105 . S
Sc45 O47 2.025 . S
Sc45 O55 2.105 . S
Sc45 O59 2.105 . S
Sc45 O61 2.105 . S
Sc45 O65 2.105 . S
Sc46 O47 2.025 . S
Sc46 O56 2.105 . S
Sc46 O58 2.105 . S
Sc46 O62 2.105 . S
Sc46 O64 2.105 . S
O47 Sc44 2.025 . S
O47 Sc45 2.025 . S
O47 Sc46 2.025 . S
C48 O54 1.268 . S
C48 O64 1.268 . S
C49 O55 1.268 . S
C49 O63 1.268 . S
C50 O56 1.268 . S
C50 O65 1.268 . S
C51 O57 1.268 . S
C51 O61 1.268 . S
C52 O58 1.268 . S
C52 O60 1.268 . S
C53 O59 1.268 . S
C53 O62 1.268 . S
O54 Sc44 2.105 . S
O54 C48 1.268 . S
O55 Sc45 2.105 . S
O55 C49 1.268 . S
O56 Sc46 2.105 . S
O56 C50 1.268 . S
O57 Sc44 2.105 . S
O57 C51 1.268 . S
O58 Sc46 2.105 . S
O58 C52 1.268 . S
O59 Sc45 2.105 . S
O59 C53 1.268 . S
O60 Sc44 2.105 . S
O60 C52 1.268 . S
O61 Sc45 2.105 . S
O61 C51 1.268 . S
O62 Sc46 2.105 . S
O62 C53 1.268 . S
O63 Sc44 2.105 . S
O63 C49 1.268 . S
O64 Sc46 2.105 . S
O64 C48 1.268 . S
O65 Sc45 2.105 . S
O65 C50 1.268 . S
Sc66 O69 2.025 . S
Sc66 O76 2.105 . S
Sc66 O79 2.105 . S
Sc66 O82 2.105 . S
Sc66 O85 2.105 . S
Sc67 O69 2.025 . S
Sc67 O77 2.105 . S
Sc67 O81 2.105 . S
Sc67 O83 2.105 . S
Sc67 O87 2.105 . S
Sc68 O69 2.025 . S
Sc68 O78 2.105 . S
Sc68 O80 2.105 . S
Sc68 O84 2.105 . S
Sc68 O86 2.105 . S
O69 Sc66 2.025 . S
O69 Sc67 2.025 . S
O69 Sc68 2.025 . S
C70 O76 1.268 . S
C70 O86 1.268 . S
C71 O77 1.268 . S
C71 O85 1.268 . S
C72 O78 1.268 . S
C72 O87 1.268 . S
C73 O79 1.268 . S
C73 O83 1.268 . S
C74 O80 1.268 . S
C74 O82 1.268 . S
C75 O81 1.268 . S
C75 O84 1.268 . S
O76 Sc66 2.105 . S
O76 C70 1.268 . S
O77 Sc67 2.105 . S
O77 C71 1.268 . S
O78 Sc68 2.105 . S
O78 C72 1.268 . S
O79 Sc66 2.105 . S
O79 C73 1.268 . S
O80 Sc68 2.105 . S
O80 C74 1.268 . S
O81 Sc67 2.105 . S
O81 C75 1.268 . S
O82 Sc66 2.105 . S
O82 C74 1.268 . S
O83 Sc67 2.105 . S
O83 C73 1.268 . S
O84 Sc68 2.105 . S
O84 C75 1.268 . S
O85 Sc66 2.105 . S
O85 C71 1.268 . S
O86 Sc68 2.105 . S
O86 C70 1.268 . S
O87 Sc67 2.105 . S
O87 C72 1.268 . S
Sc88 O91 2.025 . S
Sc88 O98 2.105 . S
Sc88 O101 2.105 . S
Sc88 O104 2.105 . S
Sc88 O107 2.105 . S
Sc89 O91 2.025 . S
Sc89 O99 2.105 . S
Sc89 O103 2.105 . S
Sc89 O105 2.105 . S
Sc89 O109 2.105 . S
Sc90 O91 2.025 . S
Sc90 O100 2.105 . S
Sc90 O102 2.105 . S
Sc90 O106 2.105 . S
Sc90 O108 2.105 . S
O91 Sc88 2.025 . S
O91 Sc89 2.025 . S
O91 Sc90 2.025 . S
C92 O98 1.268 . S
C92 O108 1.268 . S
C93 O99 1.268 . S
C93 O107 1.268 . S
C94 O100 1.268 . S
C94 O109 1.268 . S
C95 O101 1.268 . S
C95 O105 1.268 . S
C96 O102 1.268 . S
C96 O104 1.268 . S
C97 O103 1.268 . S
C97 O106 1.268 . S
O98 Sc88 2.105 . S
O98 C92 1.268 . S
O99 Sc89 2.105 . S
O99 C93 1.268 . S
O100 Sc90 2.105 . S
O100 C94 1.268 . S
O101 Sc88 2.105 . S
O101 C95 1.268 . S
O102 Sc90 2.105 . S
O102 C96 1.268 . S
O103 Sc89 2.105 . S
O103 C97 1.268 . S
O104 Sc88 2.105 . S
O104 C96 1.268 . S
O105 Sc89 2.105 . S
O105 C95 1.268 . S
O106 Sc90 2.105 . S
O106 C97 1.268 . S
O107 Sc88 2.105 . S
O107 C93 1.268 . S
O108 Sc90 2.105 . S
O108 C92 1.268 . S
O109 Sc89 2.105 . S
O109 C94 1.268 . S
Sc110 O113 2.025 . S
Sc110 O120 2.105 . S
Sc110 O123 2.105 . S
Sc110 O126 2.105 . S
Sc110 O129 2.105 . S
Sc111 O113 2.025 . S
Sc111 O121 2.105 . S
Sc111 O125 2.105 . S
Sc111 O127 2.105 . S
Sc111 O131 2.105 . S
Sc112 O113 2.025 . S
Sc112 O122 2.105 . S
Sc112 O124 2.105 . S
Sc112 O128 2.105 . S
Sc112 O130 2.105 . S
O113 Sc110 2.025 . S
O113 Sc111 2.025 . S
O113 Sc112 2.025 . S
C114 O120 1.268 . S
C114 O130 1.268 . S
C115 O121 1.268 . S
C115 O129 1.268 . S
C116 O122 1.268 . S
C116 O131 1.268 . S
C117 O123 1.268 . S
C117 O127 1.268 . S
C118 O124 1.268 . S
C118 O126 1.268 . S
C119 O125 1.268 . S
C119 O128 1.268 . S
O120 Sc110 2.105 . S
O120 C114 1.268 . S
O121 Sc111 2.105 . S
O121 C115 1.268 . S
O122 Sc112 2.105 . S
O122 C116 1.268 . S
O123 Sc110 2.105 . S
O123 C117 1.268 . S
O124 Sc112 2.105 . S
O124 C118 1.268 . S
O125 Sc111 2.105 . S
O125 C119 1.268 . S
O126 Sc110 2.105 . S
O126 C118 1.268 . S
O127 Sc111 2.105 . S
O127 C117 1.268 . S
O128 Sc112 2.105 . S
O128 C119 1.268 . S
O129 Sc110 2.105 . S
O129 C115 1.268 . S
O130 Sc112 2.105 . S
O130 C114 1.268 . S
O131 Sc111 2.105 . S
O131 C116 1.268 . S
Sc132 O135 2.025 . S
Sc132 O142 2.105 . S
Sc132 O145 2.105 . S
Sc132 O148 2.105 . S
Sc132 O151 2.105 . S
Sc133 O135 2.025 . S
Sc133 O143 2.105 . S
Sc133 O147 2.105 . S
Sc133 O149 2.105 . S
Sc133 O153 2.105 . S
Sc134 O135 2.025 . S
Sc134 O144 2.105 . S
Sc134 O146 2.105 . S
Sc134 O150 2.105 . S
Sc134 O152 2.105 . S
O135 Sc132 2.025 . S
O135 Sc133 2.025 . S
O135 Sc134 2.025 . S
C136 O142 1.268 . S
C136 O152 1.268 . S
C137 O143 1.268 . S
C137 O151 1.268 . S
C138 O144 1.268 . S
C138 O153 1.268 . S
C139 O145 1.268 . S
C139 O149 1.268 . S
C140 O146 1.268 . S
C140 O148 1.268 . S
C141 O147 1.268 . S
C141 O150 1.268 . S
O142 Sc132 2.105 . S
O142 C136 1.268 . S
O143 Sc133 2.105 . S
O143 C137 1.268 . S
O144 Sc134 2.105 . S
O144 C138 1.268 . S
O145 Sc132 2.105 . S
O145 C139 1.268 . S
O146 Sc134 2.105 . S
O146 C140 1.268 . S
O147 Sc133 2.105 . S
O147 C141 1.268 . S
O148 Sc132 2.105 . S
O148 C140 1.268 . S
O149 Sc133 2.105 . S
O149 C139 1.268 . S
O150 Sc134 2.105 . S
O150 C141 1.268 . S
O151 Sc132 2.105 . S
O151 C137 1.268 . S
O152 Sc134 2.105 . S
O152 C136 1.268 . S
O153 Sc133 2.105 . S
O153 C138 1.268 . S
Sc154 O157 2.025 . S
Sc154 O164 2.105 . S
Sc154 O167 2.105 . S
Sc154 O170 2.105 . S
Sc154 O173 2.105 . S
Sc155 O157 2.025 . S
Sc155 O165 2.105 . S
Sc155 O169 2.105 . S
Sc155 O171 2.105 . S
Sc155 O175 2.105 . S
Sc156 O157 2.025 . S
Sc156 O166 2.105 . S
Sc156 O168 2.105 . S
Sc156 O172 2.105 . S
Sc156 O174 2.105 . S
O157 Sc154 2.025 . S
O157 Sc155 2.025 . S
O157 Sc156 2.025 . S
C158 O164 1.268 . S
C158 O174 1.268 . S
C159 O165 1.268 . S
C159 O173 1.268 . S
C160 O166 1.268 . S
C160 O175 1.268 . S
C161 O167 1.268 . S
C161 O171 1.268 . S
C162 O168 1.268 . S
C162 O170 1.268 . S
C163 O169 1.268 . S
C163 O172 1.268 . S
O164 Sc154 2.105 . S
O164 C158 1.268 . S
O165 Sc155 2.105 . S
O165 C159 1.268 . S
O166 Sc156 2.105 . S
O166 C160 1.268 . S
O167 Sc154 2.105 . S
O167 C161 1.268 . S
O168 Sc156 2.105 . S
O168 C162 1.268 . S
O169 Sc155 2.105 . S
O169 C163 1.268 . S
O170 Sc154 2.105 . S
O170 C162 1.268 . S
O171 Sc155 2.105 . S
O171 C161 1.268 . S
O172 Sc156 2.105 . S
O172 C163 1.268 . S
O173 Sc154 2.105 . S
O173 C159 1.268 . S
O174 Sc156 2.105 . S
O174 C158 1.268 . S
O175 Sc155 2.105 . S
O175 C160 1.268 . S
Sc176 O179 2.025 . S
Sc176 O186 2.105 . S
Sc176 O189 2.105 . S
Sc176 O192 2.105 . S
Sc176 O195 2.105 . S
Sc177 O179 2.025 . S
Sc177 O187 2.105 . S
Sc177 O191 2.105 . S
Sc177 O193 2.105 . S
Sc177 O197 2.105 . S
Sc178 O179 2.025 . S
Sc178 O188 2.105 . S
Sc178 O190 2.105 . S
Sc178 O194 2.105 . S
Sc178 O196 2.105 . S
O179 Sc176 2.025 . S
O179 Sc177 2.025 . S
O179 Sc178 2.025 . S
C180 O186 1.268 . S
C180 O196 1.268 . S
C181 O187 1.268 . S
C181 O195 1.268 . S
C182 O188 1.268 . S
C182 O197 1.268 . S
C183 O189 1.268 . S
C183 O193 1.268 . S
C184 O190 1.268 . S
C184 O192 1.268 . S
C185 O191 1.268 . S
C185 O194 1.268 . S
O186 Sc176 2.105 . S
O186 C180 1.268 . S
O187 Sc177 2.105 . S
O187 C181 1.268 . S
O188 Sc178 2.105 . S
O188 C182 1.268 . S
O189 Sc176 2.105 . S
O189 C183 1.268 . S
O190 Sc178 2.105 . S
O190 C184 1.268 . S
O191 Sc177 2.105 . S
O191 C185 1.268 . S
O192 Sc176 2.105 . S
O192 C184 1.268 . S
O193 Sc177 2.105 . S
O193 C183 1.268 . S
O194 Sc178 2.105 . S
O194 C185 1.268 . S
O195 Sc176 2.105 . S
O195 C181 1.268 . S
O196 Sc178 2.105 . S
O196 C180 1.268 . S
O197 Sc177 2.105 . S
O197 C182 1.268 . S
Sc198 O201 2.025 . S
Sc198 O208 2.105 . S
Sc198 O211 2.105 . S
Sc198 O214 2.105 . S
Sc198 O217 2.105 . S
Sc199 O201 2.025 . S
Sc199 O209 2.105 . S
Sc199 O213 2.105 . S
Sc199 O215 2.105 . S
Sc199 O219 2.105 . S
Sc200 O201 2.025 . S
Sc200 O210 2.105 . S
Sc200 O212 2.105 . S
Sc200 O216 2.105 . S
Sc200 O218 2.105 . S
O201 Sc198 2.025 . S
O201 Sc199 2.025 . S
O201 Sc200 2.025 . S
C202 O208 1.268 . S
C202 O218 1.268 . S
C203 O209 1.268 . S
C203 O217 1.268 . S
C204 O210 1.268 . S
C204 O219 1.268 . S
C205 O211 1.268 . S
C205 O215 1.268 . S
C206 O212 1.268 . S
C206 O214 1.268 . S
C207 O213 1.268 . S
C207 O216 1.268 . S
O208 Sc198 2.105 . S
O208 C202 1.268 . S
O209 Sc199 2.105 . S
O209 C203 1.268 . S
O210 Sc200 2.105 . S
O210 C204 1.268 . S
O211 Sc198 2.105 . S
O211 C205 1.268 . S
O212 Sc200 2.105 . S
O212 C206 1.268 . S
O213 Sc199 2.105 . S
O213 C207 1.268 . S
O214 Sc198 2.105 . S
O214 C206 1.268 . S
O215 Sc199 2.105 . S
O215 C205 1.268 . S
O216 Sc200 2.105 . S
O216 C207 1.268 . S
O217 Sc198 2.105 . S
O217 C203 1.268 . S
O218 Sc200 2.105 . S
O218 C202 1.268 . S
O219 Sc199 2.105 . S
O219 C204 1.268 . S
Sc220 O223 2.025 . S
Sc220 O230 2.105 . S
Sc220 O233 2.105 . S
Sc220 O236 2.105 . S
Sc220 O239 2.105 . S
Sc221 O223 2.025 . S
Sc221 O231 2.105 . S
Sc221 O235 2.105 . S
Sc221 O237 2.105 . S
Sc221 O241 2.105 . S
Sc222 O223 2.025 . S
Sc222 O232 2.105 . S
Sc222 O234 2.105 . S
Sc222 O238 2.105 . S
Sc222 O240 2.105 . S
O223 Sc220 2.025 . S
O223 Sc221 2.025 . S
O223 Sc222 2.025 . S
C224 O230 1.268 . S
C224 O240 1.268 . S
C225 O231 1.268 . S
C225 O239 1.268 . S
C226 O232 1.268 . S
C226 O241 1.268 . S
C227 O233 1.268 . S
C227 O237 1.268 . S
C228 O234 1.268 . S
C228 O236 1.268 . S
C229 O235 1.268 . S
C229 O238 1.268 . S
O230 Sc220 2.105 . S
O230 C224 1.268 . S
O231 Sc221 2.105 . S
O231 C225 1.268 . S
O232 Sc222 2.105 . S
O232 C226 1.268 . S
O233 Sc220 2.105 . S
O233 C227 1.268 . S
O234 Sc222 2.105 . S
O234 C228 1.268 . S
O235 Sc221 2.105 . S
O235 C229 1.268 . S
O236 Sc220 2.105 . S
O236 C228 1.268 . S
O237 Sc221 2.105 . S
O237 C227 1.268 . S
O238 Sc222 2.105 . S
O238 C229 1.268 . S
O239 Sc220 2.105 . S
O239 C225 1.268 . S
O240 Sc222 2.105 . S
O240 C224 1.268 . S
O241 Sc221 2.105 . S
O241 C226 1.268 . S
Sc242 O245 2.025 . S
Sc242 O252 2.105 . S
Sc242 O255 2.105 . S
Sc242 O258 2.105 . S
Sc242 O261 2.105 . S
Sc243 O245 2.025 . S
Sc243 O253 2.105 . S
Sc243 O257 2.105 . S
Sc243 O259 2.105 . S
Sc243 O263 2.105 . S
Sc244 O245 2.025 . S
Sc244 O254 2.105 . S
Sc244 O256 2.105 . S
Sc244 O260 2.105 . S
Sc244 O262 2.105 . S
O245 Sc242 2.025 . S
O245 Sc243 2.025 . S
O245 Sc244 2.025 . S
C246 O252 1.268 . S
C246 O262 1.268 . S
C247 O253 1.268 . S
C247 O261 1.268 . S
C248 O254 1.268 . S
C248 O263 1.268 . S
C249 O255 1.268 . S
C249 O259 1.268 . S
C250 O256 1.268 . S
C250 O258 1.268 . S
C251 O257 1.268 . S
C251 O260 1.268 . S
O252 Sc242 2.105 . S
O252 C246 1.268 . S
O253 Sc243 2.105 . S
O253 C247 1.268 . S
O254 Sc244 2.105 . S
O254 C248 1.268 . S
O255 Sc242 2.105 . S
O255 C249 1.268 . S
O256 Sc244 2.105 . S
O256 C250 1.268 . S
O257 Sc243 2.105 . S
O257 C251 1.268 . S
O258 Sc242 2.105 . S
O258 C250 1.268 . S
O259 Sc243 2.105 . S
O259 C249 1.268 . S
O260 Sc244 2.105 . S
O260 C251 1.268 . S
O261 Sc242 2.105 . S
O261 C247 1.268 . S
O262 Sc244 2.105 . S
O262 C246 1.268 . S
O263 Sc243 2.105 . S
O263 C248 1.268 . S
Sc264 O267 2.025 . S
Sc264 O274 2.105 . S
Sc264 O277 2.105 . S
Sc264 O280 2.105 . S
Sc264 O283 2.105 . S
Sc265 O267 2.025 . S
Sc265 O275 2.105 . S
Sc265 O279 2.105 . S
Sc265 O281 2.105 . S
Sc265 O285 2.105 . S
Sc266 O267 2.025 . S
Sc266 O276 2.105 . S
Sc266 O278 2.105 . S
Sc266 O282 2.105 . S
Sc266 O284 2.105 . S
O267 Sc264 2.025 . S
O267 Sc265 2.025 . S
O267 Sc266 2.025 . S
C268 O274 1.268 . S
C268 O284 1.268 . S
C269 O275 1.268 . S
C269 O283 1.268 . S
C270 O276 1.268 . S
C270 O285 1.268 . S
C271 O277 1.268 . S
C271 O281 1.268 . S
C272 O278 1.268 . S
C272 O280 1.268 . S
C273 O279 1.268 . S
C273 O282 1.268 . S
O274 Sc264 2.105 . S
O274 C268 1.268 . S
O275 Sc265 2.105 . S
O275 C269 1.268 . S
O276 Sc266 2.105 . S
O276 C270 1.268 . S
O277 Sc264 2.105 . S
O277 C271 1.268 . S
O278 Sc266 2.105 . S
O278 C272 1.268 . S
O279 Sc265 2.105 . S
O279 C273 1.268 . S
O280 Sc264 2.105 . S
O280 C272 1.268 . S
O281 Sc265 2.105 . S
O281 C271 1.268 . S
O282 Sc266 2.105 . S
O282 C273 1.268 . S
O283 Sc264 2.105 . S
O283 C269 1.268 . S
O284 Sc266 2.105 . S
O284 C268 1.268 . S
O285 Sc265 2.105 . S
O285 C270 1.268 . S
Sc286 O289 2.025 . S
Sc286 O296 2.105 . S
Sc286 O299 2.105 . S
Sc286 O302 2.105 . S
Sc286 O305 2.105 . S
Sc287 O289 2.025 . S
Sc287 O297 2.105 . S
Sc287 O301 2.105 . S
Sc287 O303 2.105 . S
Sc287 O307 2.105 . S
Sc288 O289 2.025 . S
Sc288 O298 2.105 . S
Sc288 O300 2.105 . S
Sc288 O304 2.105 . S
Sc288 O306 2.105 . S
O289 Sc286 2.025 . S
O289 Sc287 2.025 . S
O289 Sc288 2.025 . S
C290 O296 1.268 . S
C290 O306 1.268 . S
C291 O297 1.268 . S
C291 O305 1.268 . S
C292 O298 1.268 . S
C292 O307 1.268 . S
C293 O299 1.268 . S
C293 O303 1.268 . S
C294 O300 1.268 . S
C294 O302 1.268 . S
C295 O301 1.268 . S
C295 O304 1.268 . S
O296 Sc286 2.105 . S
O296 C290 1.268 . S
O297 Sc287 2.105 . S
O297 C291 1.268 . S
O298 Sc288 2.105 . S
O298 C292 1.268 . S
O299 Sc286 2.105 . S
O299 C293 1.268 . S
O300 Sc288 2.105 . S
O300 C294 1.268 . S
O301 Sc287 2.105 . S
O301 C295 1.268 . S
O302 Sc286 2.105 . S
O302 C294 1.268 . S
O303 Sc287 2.105 . S
O303 C293 1.268 . S
O304 Sc288 2.105 . S
O304 C295 1.268 . S
O305 Sc286 2.105 . S
O305 C291 1.268 . S
O306 Sc288 2.105 . S
O306 C290 1.268 . S
O307 Sc287 2.105 . S
O307 C292 1.268 . S
Sc308 O311 2.025 . S
Sc308 O318 2.105 . S
Sc308 O321 2.105 . S
Sc308 O324 2.105 . S
Sc308 O327 2.105 . S
Sc309 O311 2.025 . S
Sc309 O319 2.105 . S
Sc309 O323 2.105 . S
Sc309 O325 2.105 . S
Sc309 O329 2.105 . S
Sc310 O311 2.025 . S
Sc310 O320 2.105 . S
Sc310 O322 2.105 . S
Sc310 O326 2.105 . S
Sc310 O328 2.105 . S
O311 Sc308 2.025 . S
O311 Sc309 2.025 . S
O311 Sc310 2.025 . S
C312 O318 1.268 . S
C312 O328 1.268 . S
C313 O319 1.268 . S
C313 O327 1.268 . S
C314 O320 1.268 . S
C314 O329 1.268 . S
C315 O321 1.268 . S
C315 O325 1.268 . S
C316 O322 1.268 . S
C316 O324 1.268 . S
C317 O323 1.268 . S
C317 O326 1.268 . S
O318 Sc308 2.105 . S
O318 C312 1.268 . S
O319 Sc309 2.105 . S
O319 C313 1.268 . S
O320 Sc310 2.105 . S
O320 C314 1.268 . S
O321 Sc308 2.105 . S
O321 C315 1.268 . S
O322 Sc310 2.105 . S
O322 C316 1.268 . S
O323 Sc309 2.105 . S
O323 C317 1.268 . S
O324 Sc308 2.105 . S
O324 C316 1.268 . S
O325 Sc309 2.105 . S
O325 C315 1.268 . S
O326 Sc310 2.105 . S
O326 C317 1.268 . S
O327 Sc308 2.105 . S
O327 C313 1.268 . S
O328 Sc310 2.105 . S
O328 C312 1.268 . S
O329 Sc309 2.105 . S
O329 C314 1.268 . S
Sc330 O333 2.025 . S
Sc330 O340 2.105 . S
Sc330 O343 2.105 . S
Sc330 O346 2.105 . S
Sc330 O349 2.105 . S
Sc331 O333 2.025 . S
Sc331 O341 2.105 . S
Sc331 O345 2.105 . S
Sc331 O347 2.105 . S
Sc331 O351 2.105 . S
Sc332 O333 2.025 . S
Sc332 O342 2.105 . S
Sc332 O344 2.105 . S
Sc332 O348 2.105 . S
Sc332 O350 2.105 . S
O333 Sc330 2.025 . S
O333 Sc331 2.025 . S
O333 Sc332 2.025 . S
C334 O340 1.268 . S
C334 O350 1.268 . S
C335 O341 1.268 . S
C335 O349 1.268 . S
C336 O342 1.268 . S
C336 O351 1.268 . S
C337 O343 1.268 . S
C337 O347 1.268 . S
C338 O344 1.268 . S
C338 O346 1.268 . S
C339 O345 1.268 . S
C339 O348 1.268 . S
O340 Sc330 2.105 . S
O340 C334 1.268 . S
O341 Sc331 2.105 . S
O341 C335 1.268 . S
O342 Sc332 2.105 . S
O342 C336 1.268 . S
O343 Sc330 2.105 . S
O343 C337 1.268 . S
O344 Sc332 2.105 . S
O344 C338 1.268 . S
O345 Sc331 2.105 . S
O345 C339 1.268 . S
O346 Sc330 2.105 . S
O346 C338 1.268 . S
O347 Sc331 2.105 . S
O347 C337 1.268 . S
O348 Sc332 2.105 . S
O348 C339 1.268 . S
O349 Sc330 2.105 . S
O349 C335 1.268 . S
O350 Sc332 2.105 . S
O350 C334 1.268 . S
O351 Sc331 2.105 . S
O351 C336 1.268 . S
Sc352 O355 2.025 . S
Sc352 O362 2.105 . S
Sc352 O365 2.105 . S
Sc352 O368 2.105 . S
Sc352 O371 2.105 . S
Sc353 O355 2.025 . S
Sc353 O363 2.105 . S
Sc353 O367 2.105 . S
Sc353 O369 2.105 . S
Sc353 O373 2.105 . S
Sc354 O355 2.025 . S
Sc354 O364 2.105 . S
Sc354 O366 2.105 . S
Sc354 O370 2.105 . S
Sc354 O372 2.105 . S
O355 Sc352 2.025 . S
O355 Sc353 2.025 . S
O355 Sc354 2.025 . S
C356 O362 1.268 . S
C356 O372 1.268 . S
C357 O363 1.268 . S
C357 O371 1.268 . S
C358 O364 1.268 . S
C358 O373 1.268 . S
C359 O365 1.268 . S
C359 O369 1.268 . S
C360 O366 1.268 . S
C360 O368 1.268 . S
C361 O367 1.268 . S
C361 O370 1.268 . S
O362 Sc352 2.105 . S
O362 C356 1.268 . S
O363 Sc353 2.105 . S
O363 C357 1.268 . S
O364 Sc354 2.105 . S
O364 C358 1.268 . S
O365 Sc352 2.105 . S
O365 C359 1.268 . S
O366 Sc354 2.105 . S
O366 C360 1.268 . S
O367 Sc353 2.105 . S
O367 C361 1.268 . S
O368 Sc352 2.105 . S
O368 C360 1.268 . S
O369 Sc353 2.105 . S
O369 C359 1.268 . S
O370 Sc354 2.105 . S
O370 C361 1.268 . S
O371 Sc352 2.105 . S
O371 C357 1.268 . S
O372 Sc354 2.105 . S
O372 C356 1.268 . S
O373 Sc353 2.105 . S
O373 C358 1.268 . S
Sc374 O377 2.025 . S
Sc374 O384 2.105 . S
Sc374 O387 2.105 . S
Sc374 O390 2.105 . S
Sc374 O393 2.105 . S
Sc375 O377 2.025 . S
Sc375 O385 2.105 . S
Sc375 O389 2.105 . S
Sc375 O391 2.105 . S
Sc375 O395 2.105 . S
Sc376 O377 2.025 . S
Sc376 O386 2.105 . S
Sc376 O388 2.105 . S
Sc376 O392 2.105 . S
Sc376 O394 2.105 . S
O377 Sc374 2.025 . S
O377 Sc375 2.025 . S
O377 Sc376 2.025 . S
C378 O384 1.268 . S
C378 O394 1.268 . S
C379 O385 1.268 . S
C379 O393 1.268 . S
C380 O386 1.268 . S
C380 O395 1.268 . S
C381 O387 1.268 . S
C381 O391 1.268 . S
C382 O388 1.268 . S
C382 O390 1.268 . S
C383 O389 1.268 . S
C383 O392 1.268 . S
O384 Sc374 2.105 . S
O384 C378 1.268 . S
O385 Sc375 2.105 . S
O385 C379 1.268 . S
O386 Sc376 2.105 . S
O386 C380 1.268 . S
O387 Sc374 2.105 . S
O387 C381 1.268 . S
O388 Sc376 2.105 . S
O388 C382 1.268 . S
O389 Sc375 2.105 . S
O389 C383 1.268 . S
O390 Sc374 2.105 . S
O390 C382 1.268 . S
O391 Sc375 2.105 . S
O391 C381 1.268 . S
O392 Sc376 2.105 . S
O392 C383 1.268 . S
O393 Sc374 2.105 . S
O393 C379 1.268 . S
O394 Sc376 2.105 . S
O394 C378 1.268 . S
O395 Sc375 2.105 . S
O395 C380 1.268 . S
Sc396 O399 2.025 . S
Sc396 O406 2.105 . S
Sc396 O409 2.105 . S
Sc396 O412 2.105 . S
Sc396 O415 2.105 . S
Sc397 O399 2.025 . S
Sc397 O407 2.105 . S
Sc397 O411 2.105 . S
Sc397 O413 2.105 . S
Sc397 O417 2.105 . S
Sc398 O399 2.025 . S
Sc398 O408 2.105 . S
Sc398 O410 2.105 . S
Sc398 O414 2.105 . S
Sc398 O416 2.105 . S
O399 Sc396 2.025 . S
O399 Sc397 2.025 . S
O399 Sc398 2.025 . S
C400 O406 1.268 . S
C400 O416 1.268 . S
C401 O407 1.268 . S
C401 O415 1.268 . S
C402 O408 1.268 . S
C402 O417 1.268 . S
C403 O409 1.268 . S
C403 O413 1.268 . S
C404 O410 1.268 . S
C404 O412 1.268 . S
C405 O411 1.268 . S
C405 O414 1.268 . S
O406 Sc396 2.105 . S
O406 C400 1.268 . S
O407 Sc397 2.105 . S
O407 C401 1.268 . S
O408 Sc398 2.105 . S
O408 C402 1.268 . S
O409 Sc396 2.105 . S
O409 C403 1.268 . S
O410 Sc398 2.105 . S
O410 C404 1.268 . S
O411 Sc397 2.105 . S
O411 C405 1.268 . S
O412 Sc396 2.105 . S
O412 C404 1.268 . S
O413 Sc397 2.105 . S
O413 C403 1.268 . S
O414 Sc398 2.105 . S
O414 C405 1.268 . S
O415 Sc396 2.105 . S
O415 C401 1.268 . S
O416 Sc398 2.105 . S
O416 C400 1.268 . S
O417 Sc397 2.105 . S
O417 C402 1.268 . S
Sc418 O421 2.025 . S
Sc418 O428 2.105 . S
Sc418 O431 2.105 . S
Sc418 O434 2.105 . S
Sc418 O437 2.105 . S
Sc419 O421 2.025 . S
Sc419 O429 2.105 . S
Sc419 O433 2.105 . S
Sc419 O435 2.105 . S
Sc419 O439 2.105 . S
Sc420 O421 2.025 . S
Sc420 O430 2.105 . S
Sc420 O432 2.105 . S
Sc420 O436 2.105 . S
Sc420 O438 2.105 . S
O421 Sc418 2.025 . S
O421 Sc419 2.025 . S
O421 Sc420 2.025 . S
C422 O428 1.268 . S
C422 O438 1.268 . S
C423 O429 1.268 . S
C423 O437 1.268 . S
C424 O430 1.268 . S
C424 O439 1.268 . S
C425 O431 1.268 . S
C425 O435 1.268 . S
C426 O432 1.268 . S
C426 O434 1.268 . S
C427 O433 1.268 . S
C427 O436 1.268 . S
O428 Sc418 2.105 . S
O428 C422 1.268 . S
O429 Sc419 2.105 . S
O429 C423 1.268 . S
O430 Sc420 2.105 . S
O430 C424 1.268 . S
O431 Sc418 2.105 . S
O431 C425 1.268 . S
O432 Sc420 2.105 . S
O432 C426 1.268 . S
O433 Sc419 2.105 . S
O433 C427 1.268 . S
O434 Sc418 2.105 . S
O434 C426 1.268 . S
O435 Sc419 2.105 . S
O435 C425 1.268 . S
O436 Sc420 2.105 . S
O436 C427 1.268 . S
O437 Sc418 2.105 . S
O437 C423 1.268 . S
O438 Sc420 2.105 . S
O438 C422 1.268 . S
O439 Sc419 2.105 . S
O439 C424 1.268 . S
Sc440 O443 2.025 . S
Sc440 O450 2.105 . S
Sc440 O453 2.105 . S
Sc440 O456 2.105 . S
Sc440 O459 2.105 . S
Sc441 O443 2.025 . S
Sc441 O451 2.105 . S
Sc441 O455 2.105 . S
Sc441 O457 2.105 . S
Sc441 O461 2.105 . S
Sc442 O443 2.025 . S
Sc442 O452 2.105 . S
Sc442 O454 2.105 . S
Sc442 O458 2.105 . S
Sc442 O460 2.105 . S
O443 Sc440 2.025 . S
O443 Sc441 2.025 . S
O443 Sc442 2.025 . S
C444 O450 1.268 . S
C444 O460 1.268 . S
C445 O451 1.268 . S
C445 O459 1.268 . S
C446 O452 1.268 . S
C446 O461 1.268 . S
C447 O453 1.268 . S
C447 O457 1.268 . S
C448 O454 1.268 . S
C448 O456 1.268 . S
C449 O455 1.268 . S
C449 O458 1.268 . S
O450 Sc440 2.105 . S
O450 C444 1.268 . S
O451 Sc441 2.105 . S
O451 C445 1.268 . S
O452 Sc442 2.105 . S
O452 C446 1.268 . S
O453 Sc440 2.105 . S
O453 C447 1.268 . S
O454 Sc442 2.105 . S
O454 C448 1.268 . S
O455 Sc441 2.105 . S
O455 C449 1.268 . S
O456 Sc440 2.105 . S
O456 C448 1.268 . S
O457 Sc441 2.105 . S
O457 C447 1.268 . S
O458 Sc442 2.105 . S
O458 C449 1.268 . S
O459 Sc440 2.105 . S
O459 C445 1.268 . S
O460 Sc442 2.105 . S
O460 C444 1.268 . S
O461 Sc441 2.105 . S
O461 C446 1.268 . S
Sc462 O465 2.025 . S
Sc462 O472 2.105 . S
Sc462 O475 2.105 . S
Sc462 O478 2.105 . S
Sc462 O481 2.105 . S
Sc463 O465 2.025 . S
Sc463 O473 2.105 . S
Sc463 O477 2.105 . S
Sc463 O479 2.105 . S
Sc463 O483 2.105 . S
Sc464 O465 2.025 . S
Sc464 O474 2.105 . S
Sc464 O476 2.105 . S
Sc464 O480 2.105 . S
Sc464 O482 2.105 . S
O465 Sc462 2.025 . S
O465 Sc463 2.025 . S
O465 Sc464 2.025 . S
C466 O472 1.268 . S
C466 O482 1.268 . S
C467 O473 1.268 . S
C467 O481 1.268 . S
C468 O474 1.268 . S
C468 O483 1.268 . S
C469 O475 1.268 . S
C469 O479 1.268 . S
C470 O476 1.268 . S
C470 O478 1.268 . S
C471 O477 1.268 . S
C471 O480 1.268 . S
O472 Sc462 2.105 . S
O472 C466 1.268 . S
O473 Sc463 2.105 . S
O473 C467 1.268 . S
O474 Sc464 2.105 . S
O474 C468 1.268 . S
O475 Sc462 2.105 . S
O475 C469 1.268 . S
O476 Sc464 2.105 . S
O476 C470 1.268 . S
O477 Sc463 2.105 . S
O477 C471 1.268 . S
O478 Sc462 2.105 . S
O478 C470 1.268 . S
O479 Sc463 2.105 . S
O479 C469 1.268 . S
O480 Sc464 2.105 . S
O480 C471 1.268 . S
O481 Sc462 2.105 . S
O481 C467 1.268 . S
O482 Sc464 2.105 . S
O482 C466 1.268 . S
O483 Sc463 2.105 . S
O483 C468 1.268 . S
Sc484 O487 2.025 . S
Sc484 O494 2.105 . S
Sc484 O497 2.105 . S
Sc484 O500 2.105 . S
Sc484 O503 2.105 . S
Sc485 O487 2.025 . S
Sc485 O495 2.105 . S
Sc485 O499 2.105 . S
Sc485 O501 2.105 . S
Sc485 O505 2.105 . S
Sc486 O487 2.025 . S
Sc486 O496 2.105 . S
Sc486 O498 2.105 . S
Sc486 O502 2.105 . S
Sc486 O504 2.105 . S
O487 Sc484 2.025 . S
O487 Sc485 2.025 . S
O487 Sc486 2.025 . S
C488 O494 1.268 . S
C488 O504 1.268 . S
C489 O495 1.268 . S
C489 O503 1.268 . S
C490 O496 1.268 . S
C490 O505 1.268 . S
C491 O497 1.268 . S
C491 O501 1.268 . S
C492 O498 1.268 . S
C492 O500 1.268 . S
C493 O499 1.268 . S
C493 O502 1.268 . S
O494 Sc484 2.105 . S
O494 C488 1.268 . S
O495 Sc485 2.105 . S
O495 C489 1.268 . S
O496 Sc486 2.105 . S
O496 C490 1.268 . S
O497 Sc484 2.105 . S
O497 C491 1.268 . S
O498 Sc486 2.105 . S
O498 C492 1.268 . S
O499 Sc485 2.105 . S
O499 C493 1.268 . S
O500 Sc484 2.105 . S
O500 C492 1.268 . S
O501 Sc485 2.105 . S
O501 C491 1.268 . S
O502 Sc486 2.105 . S
O502 C493 1.268 . S
O503 Sc484 2.105 . S
O503 C489 1.268 . S
O504 Sc486 2.105 . S
O504 C488 1.268 . S
O505 Sc485 2.105 . S
O505 C490 1.268 . S
Sc506 O509 2.025 . S
Sc506 O516 2.105 . S
Sc506 O519 2.105 . S
Sc506 O522 2.105 . S
Sc506 O525 2.105 . S
Sc507 O509 2.025 . S
Sc507 O517 2.105 . S
Sc507 O521 2.105 . S
Sc507 O523 2.105 . S
Sc507 O527 2.105 . S
Sc508 O509 2.025 . S
Sc508 O518 2.105 . S
Sc508 O520 2.105 . S
Sc508 O524 2.105 . S
Sc508 O526 2.105 . S
O509 Sc506 2.025 . S
O509 Sc507 2.025 . S
O509 Sc508 2.025 . S
C510 O516 1.268 . S
C510 O526 1.268 . S
C511 O517 1.268 . S
C511 O525 1.268 . S
C512 O518 1.268 . S
C512 O527 1.268 . S
C513 O519 1.268 . S
C513 O523 1.268 . S
C514 O520 1.268 . S
C514 O522 1.268 . S
C515 O521 1.268 . S
C515 O524 1.268 . S
O516 Sc506 2.105 . S
O516 C510 1.268 . S
O517 Sc507 2.105 . S
O517 C511 1.268 . S
O518 Sc508 2.105 . S
O518 C512 1.268 . S
O519 Sc506 2.105 . S
O519 C513 1.268 . S
O520 Sc508 2.105 . S
O520 C514 1.268 . S
O521 Sc507 2.105 . S
O521 C515 1.268 . S
O522 Sc506 2.105 . S
O522 C514 1.268 . S
O523 Sc507 2.105 . S
O523 C513 1.268 . S
O524 Sc508 2.105 . S
O524 C515 1.268 . S
O525 Sc506 2.105 . S
O525 C511 1.268 . S
O526 Sc508 2.105 . S
O526 C510 1.268 . S
O527 Sc507 2.105 . S
O527 C512 1.268 . S
Sc528 O531 2.025 . S
Sc528 O538 2.105 . S
Sc528 O541 2.105 . S
Sc528 O544 2.105 . S
Sc528 O547 2.105 . S
Sc529 O531 2.025 . S
Sc529 O539 2.105 . S
Sc529 O543 2.105 . S
Sc529 O545 2.105 . S
Sc529 O549 2.105 . S
Sc530 O531 2.025 . S
Sc530 O540 2.105 . S
Sc530 O542 2.105 . S
Sc530 O546 2.105 . S
Sc530 O548 2.105 . S
O531 Sc528 2.025 . S
O531 Sc529 2.025 . S
O531 Sc530 2.025 . S
C532 O538 1.268 . S
C532 O548 1.268 . S
C533 O539 1.268 . S
C533 O547 1.268 . S
C534 O540 1.268 . S
C534 O549 1.268 . S
C535 O541 1.268 . S
C535 O545 1.268 . S
C536 O542 1.268 . S
C536 O544 1.268 . S
C537 O543 1.268 . S
C537 O546 1.268 . S
O538 Sc528 2.105 . S
O538 C532 1.268 . S
O539 Sc529 2.105 . S
O539 C533 1.268 . S
O540 Sc530 2.105 . S
O540 C534 1.268 . S
O541 Sc528 2.105 . S
O541 C535 1.268 . S
O542 Sc530 2.105 . S
O542 C536 1.268 . S
O543 Sc529 2.105 . S
O543 C537 1.268 . S
O544 Sc528 2.105 . S
O544 C536 1.268 . S
O545 Sc529 2.105 . S
O545 C535 1.268 . S
O546 Sc530 2.105 . S
O546 C537 1.268 . S
O547 Sc528 2.105 . S
O547 C533 1.268 . S
O548 Sc530 2.105 . S
O548 C532 1.268 . S
O549 Sc529 2.105 . S
O549 C534 1.268 . S
Sc550 O553 2.025 . S
Sc550 O560 2.105 . S
Sc550 O563 2.105 . S
Sc550 O566 2.105 . S
Sc550 O569 2.105 . S
Sc551 O553 2.025 . S
Sc551 O561 2.105 . S
Sc551 O565 2.105 . S
Sc551 O567 2.105 . S
Sc551 O571 2.105 . S
Sc552 O553 2.025 . S
Sc552 O562 2.105 . S
Sc552 O564 2.105 . S
Sc552 O568 2.105 . S
Sc552 O570 2.105 . S
O553 Sc550 2.025 . S
O553 Sc551 2.025 . S
O553 Sc552 2.025 . S
C554 O560 1.268 . S
C554 O570 1.268 . S
C555 O561 1.268 . S
C555 O569 1.268 . S
C556 O562 1.268 . S
C556 O571 1.268 . S
C557 O563 1.268 . S
C557 O567 1.268 . S
C558 O564 1.268 . S
C558 O566 1.268 . S
C559 O565 1.268 . S
C559 O568 1.268 . S
O560 Sc550 2.105 . S
O560 C554 1.268 . S
O561 Sc551 2.105 . S
O561 C555 1.268 . S
O562 Sc552 2.105 . S
O562 C556 1.268 . S
O563 Sc550 2.105 . S
O563 C557 1.268 . S
O564 Sc552 2.105 . S
O564 C558 1.268 . S
O565 Sc551 2.105 . S
O565 C559 1.268 . S
O566 Sc550 2.105 . S
O566 C558 1.268 . S
O567 Sc551 2.105 . S
O567 C557 1.268 . S
O568 Sc552 2.105 . S
O568 C559 1.268 . S
O569 Sc550 2.105 . S
O569 C555 1.268 . S
O570 Sc552 2.105 . S
O570 C554 1.268 . S
O571 Sc551 2.105 . S
O571 C556 1.268 . S
Sc572 O575 2.025 . S
Sc572 O582 2.105 . S
Sc572 O585 2.105 . S
Sc572 O588 2.105 . S
Sc572 O591 2.105 . S
Sc573 O575 2.025 . S
Sc573 O583 2.105 . S
Sc573 O587 2.105 . S
Sc573 O589 2.105 . S
Sc573 O593 2.105 . S
Sc574 O575 2.025 . S
Sc574 O584 2.105 . S
Sc574 O586 2.105 . S
Sc574 O590 2.105 . S
Sc574 O592 2.105 . S
O575 Sc572 2.025 . S
O575 Sc573 2.025 . S
O575 Sc574 2.025 . S
C576 O582 1.268 . S
C576 O592 1.268 . S
C577 O583 1.268 . S
C577 O591 1.268 . S
C578 O584 1.268 . S
C578 O593 1.268 . S
C579 O585 1.268 . S
C579 O589 1.268 . S
C580 O586 1.268 . S
C580 O588 1.268 . S
C581 O587 1.268 . S
C581 O590 1.268 . S
O582 Sc572 2.105 . S
O582 C576 1.268 . S
O583 Sc573 2.105 . S
O583 C577 1.268 . S
O584 Sc574 2.105 . S
O584 C578 1.268 . S
O585 Sc572 2.105 . S
O585 C579 1.268 . S
O586 Sc574 2.105 . S
O586 C580 1.268 . S
O587 Sc573 2.105 . S
O587 C581 1.268 . S
O588 Sc572 2.105 . S
O588 C580 1.268 . S
O589 Sc573 2.105 . S
O589 C579 1.268 . S
O590 Sc574 2.105 . S
O590 C581 1.268 . S
O591 Sc572 2.105 . S
O591 C577 1.268 . S
O592 Sc574 2.105 . S
O592 C576 1.268 . S
O593 Sc573 2.105 . S
O593 C578 1.268 . S
Sc594 O597 2.025 . S
Sc594 O604 2.105 . S
Sc594 O607 2.105 . S
Sc594 O610 2.105 . S
Sc594 O613 2.105 . S
Sc595 O597 2.025 . S
Sc595 O605 2.105 . S
Sc595 O609 2.105 . S
Sc595 O611 2.105 . S
Sc595 O615 2.105 . S
Sc596 O597 2.025 . S
Sc596 O606 2.105 . S
Sc596 O608 2.105 . S
Sc596 O612 2.105 . S
Sc596 O614 2.105 . S
O597 Sc594 2.025 . S
O597 Sc595 2.025 . S
O597 Sc596 2.025 . S
C598 O604 1.268 . S
C598 O614 1.268 . S
C599 O605 1.268 . S
C599 O613 1.268 . S
C600 O606 1.268 . S
C600 O615 1.268 . S
C601 O607 1.268 . S
C601 O611 1.268 . S
C602 O608 1.268 . S
C602 O610 1.268 . S
C603 O609 1.268 . S
C603 O612 1.268 . S
O604 Sc594 2.105 . S
O604 C598 1.268 . S
O605 Sc595 2.105 . S
O605 C599 1.268 . S
O606 Sc596 2.105 . S
O606 C600 1.268 . S
O607 Sc594 2.105 . S
O607 C601 1.268 . S
O608 Sc596 2.105 . S
O608 C602 1.268 . S
O609 Sc595 2.105 . S
O609 C603 1.268 . S
O610 Sc594 2.105 . S
O610 C602 1.268 . S
O611 Sc595 2.105 . S
O611 C601 1.268 . S
O612 Sc596 2.105 . S
O612 C603 1.268 . S
O613 Sc594 2.105 . S
O613 C599 1.268 . S
O614 Sc596 2.105 . S
O614 C598 1.268 . S
O615 Sc595 2.105 . S
O615 C600 1.268 . S
Sc616 O619 2.025 . S
Sc616 O626 2.105 . S
Sc616 O629 2.105 . S
Sc616 O632 2.105 . S
Sc616 O635 2.105 . S
Sc617 O619 2.025 . S
Sc617 O627 2.105 . S
Sc617 O631 2.105 . S
Sc617 O633 2.105 . S
Sc617 O637 2.105 . S
Sc618 O619 2.025 . S
Sc618 O628 2.105 . S
Sc618 O630 2.105 . S
Sc618 O634 2.105 . S
Sc618 O636 2.105 . S
O619 Sc616 2.025 . S
O619 Sc617 2.025 . S
O619 Sc618 2.025 . S
C620 O626 1.268 . S
C620 O636 1.268 . S
C621 O627 1.268 . S
C621 O635 1.268 . S
C622 O628 1.268 . S
C622 O637 1.268 . S
C623 O629 1.268 . S
C623 O633 1.268 . S
C624 O630 1.268 . S
C624 O632 1.268 . S
C625 O631 1.268 . S
C625 O634 1.268 . S
O626 Sc616 2.105 . S
O626 C620 1.268 . S
O627 Sc617 2.105 . S
O627 C621 1.268 . S
O628 Sc618 2.105 . S
O628 C622 1.268 . S
O629 Sc616 2.105 . S
O629 C623 1.268 . S
O630 Sc618 2.105 . S
O630 C624 1.268 . S
O631 Sc617 2.105 . S
O631 C625 1.268 . S
O632 Sc616 2.105 . S
O632 C624 1.268 . S
O633 Sc617 2.105 . S
O633 C623 1.268 . S
O634 Sc618 2.105 . S
O634 C625 1.268 . S
O635 Sc616 2.105 . S
O635 C621 1.268 . S
O636 Sc618 2.105 . S
O636 C620 1.268 . S
O637 Sc617 2.105 . S
O637 C622 1.268 . S
Sc638 O641 2.025 . S
Sc638 O648 2.105 . S
Sc638 O651 2.105 . S
Sc638 O654 2.105 . S
Sc638 O657 2.105 . S
Sc639 O641 2.025 . S
Sc639 O649 2.105 . S
Sc639 O653 2.105 . S
Sc639 O655 2.105 . S
Sc639 O659 2.105 . S
Sc640 O641 2.025 . S
Sc640 O650 2.105 . S
Sc640 O652 2.105 . S
Sc640 O656 2.105 . S
Sc640 O658 2.105 . S
O641 Sc638 2.025 . S
O641 Sc639 2.025 . S
O641 Sc640 2.025 . S
C642 O648 1.268 . S
C642 O658 1.268 . S
C643 O649 1.268 . S
C643 O657 1.268 . S
C644 O650 1.268 . S
C644 O659 1.268 . S
C645 O651 1.268 . S
C645 O655 1.268 . S
C646 O652 1.268 . S
C646 O654 1.268 . S
C647 O653 1.268 . S
C647 O656 1.268 . S
O648 Sc638 2.105 . S
O648 C642 1.268 . S
O649 Sc639 2.105 . S
O649 C643 1.268 . S
O650 Sc640 2.105 . S
O650 C644 1.268 . S
O651 Sc638 2.105 . S
O651 C645 1.268 . S
O652 Sc640 2.105 . S
O652 C646 1.268 . S
O653 Sc639 2.105 . S
O653 C647 1.268 . S
O654 Sc638 2.105 . S
O654 C646 1.268 . S
O655 Sc639 2.105 . S
O655 C645 1.268 . S
O656 Sc640 2.105 . S
O656 C647 1.268 . S
O657 Sc638 2.105 . S
O657 C643 1.268 . S
O658 Sc640 2.105 . S
O658 C642 1.268 . S
O659 Sc639 2.105 . S
O659 C644 1.268 . S
Sc660 O663 2.025 . S
Sc660 O670 2.105 . S
Sc660 O673 2.105 . S
Sc660 O676 2.105 . S
Sc660 O679 2.105 . S
Sc661 O663 2.025 . S
Sc661 O671 2.105 . S
Sc661 O675 2.105 . S
Sc661 O677 2.105 . S
Sc661 O681 2.105 . S
Sc662 O663 2.025 . S
Sc662 O672 2.105 . S
Sc662 O674 2.105 . S
Sc662 O678 2.105 . S
Sc662 O680 2.105 . S
O663 Sc660 2.025 . S
O663 Sc661 2.025 . S
O663 Sc662 2.025 . S
C664 O670 1.268 . S
C664 O680 1.268 . S
C665 O671 1.268 . S
C665 O679 1.268 . S
C666 O672 1.268 . S
C666 O681 1.268 . S
C667 O673 1.268 . S
C667 O677 1.268 . S
C668 O674 1.268 . S
C668 O676 1.268 . S
C669 O675 1.268 . S
C669 O678 1.268 . S
O670 Sc660 2.105 . S
O670 C664 1.268 . S
O671 Sc661 2.105 . S
O671 C665 1.268 . S
O672 Sc662 2.105 . S
O672 C666 1.268 . S
O673 Sc660 2.105 . S
O673 C667 1.268 . S
O674 Sc662 2.105 . S
O674 C668 1.268 . S
O675 Sc661 2.105 . S
O675 C669 1.268 . S
O676 Sc660 2.105 . S
O676 C668 1.268 . S
O677 Sc661 2.105 . S
O677 C667 1.268 . S
O678 Sc662 2.105 . S
O678 C669 1.268 . S
O679 Sc660 2.105 . S
O679 C665 1.268 . S
O680 Sc662 2.105 . S
O680 C664 1.268 . S
O681 Sc661 2.105 . S
O681 C666 1.268 . S
Sc682 O685 2.025 . S
Sc682 O692 2.105 . S
Sc682 O695 2.105 . S
Sc682 O698 2.105 . S
Sc682 O701 2.105 . S
Sc683 O685 2.025 . S
Sc683 O693 2.105 . S
Sc683 O697 2.105 . S
Sc683 O699 2.105 . S
Sc683 O703 2.105 . S
Sc684 O685 2.025 . S
Sc684 O694 2.105 . S
Sc684 O696 2.105 . S
Sc684 O700 2.105 . S
Sc684 O702 2.105 . S
O685 Sc682 2.025 . S
O685 Sc683 2.025 . S
O685 Sc684 2.025 . S
C686 O692 1.268 . S
C686 O702 1.268 . S
C687 O693 1.268 . S
C687 O701 1.268 . S
C688 O694 1.268 . S
C688 O703 1.268 . S
C689 O695 1.268 . S
C689 O699 1.268 . S
C690 O696 1.268 . S
C690 O698 1.268 . S
C691 O697 1.268 . S
C691 O700 1.268 . S
O692 Sc682 2.105 . S
O692 C686 1.268 . S
O693 Sc683 2.105 . S
O693 C687 1.268 . S
O694 Sc684 2.105 . S
O694 C688 1.268 . S
O695 Sc682 2.105 . S
O695 C689 1.268 . S
O696 Sc684 2.105 . S
O696 C690 1.268 . S
O697 Sc683 2.105 . S
O697 C691 1.268 . S
O698 Sc682 2.105 . S
O698 C690 1.268 . S
O699 Sc683 2.105 . S
O699 C689 1.268 . S
O700 Sc684 2.105 . S
O700 C691 1.268 . S
O701 Sc682 2.105 . S
O701 C687 1.268 . S
O702 Sc684 2.105 . S
O702 C686 1.268 . S
O703 Sc683 2.105 . S
O703 C688 1.268 . S
C704 C705 1.369 . S
C704 C706 1.419 . S
C704 H708 0.930 . S
C705 C704 1.369 . S
C705 C714 1.429 . S
C706 C704 1.419 . S
C706 C707 1.363 . S
C706 H709 0.929 . S
C707 C706 1.363 . S
C707 C713 1.428 . S
H708 C704 0.930 . S
H709 C706 0.929 . S
S710 N711 1.613 . S
S710 N712 1.610 . S
N711 S710 1.613 . S
N711 C714 1.350 . S
N712 S710 1.610 . S
N712 C713 1.351 . S
C713 C707 1.428 . S
C713 N712 1.351 . S
C713 C714 1.434 . S
C714 C705 1.429 . S
C714 N711 1.350 . S
C714 C713 1.434 . S
C715 C716 1.369 . S
C715 C717 1.419 . S
C715 H719 0.930 . S
C716 C715 1.369 . S
C716 C725 1.429 . S
C717 C715 1.419 . S
C717 C718 1.363 . S
C717 H720 0.929 . S
C718 C717 1.363 . S
C718 C724 1.428 . S
H719 C715 0.930 . S
H720 C717 0.929 . S
S721 N722 1.613 . S
S721 N723 1.610 . S
N722 S721 1.613 . S
N722 C725 1.350 . S
N723 S721 1.610 . S
N723 C724 1.351 . S
C724 C718 1.428 . S
C724 N723 1.351 . S
C724 C725 1.434 . S
C725 C716 1.429 . S
C725 N722 1.350 . S
C725 C724 1.434 . S
C726 C727 1.369 . S
C726 C728 1.419 . S
C726 H730 0.930 . S
C727 C726 1.369 . S
C727 C736 1.429 . S
C728 C726 1.419 . S
C728 C729 1.363 . S
C728 H731 0.929 . S
C729 C728 1.363 . S
C729 C735 1.428 . S
H730 C726 0.930 . S
H731 C728 0.929 . S
S732 N733 1.613 . S
S732 N734 1.610 . S
N733 S732 1.613 . S
N733 C736 1.350 . S
N734 S732 1.610 . S
N734 C735 1.351 . S
C735 C729 1.428 . S
C735 N734 1.351 . S
C735 C736 1.434 . S
C736 C727 1.429 . S
C736 N733 1.350 . S
C736 C735 1.434 . S
C737 C738 1.369 . S
C737 C739 1.419 . S
C737 H741 0.930 . S
C738 C737 1.369 . S
C738 C747 1.429 . S
C739 C737 1.419 . S
C739 C740 1.363 . S
C739 H742 0.929 . S
C740 C739 1.363 . S
C740 C746 1.428 . S
H741 C737 0.930 . S
H742 C739 0.929 . S
S743 N744 1.613 . S
S743 N745 1.610 . S
N744 S743 1.613 . S
N744 C747 1.350 . S
N745 S743 1.610 . S
N745 C746 1.351 . S
C746 C740 1.428 . S
C746 N745 1.351 . S
C746 C747 1.434 . S
C747 C738 1.429 . S
C747 N744 1.350 . S
C747 C746 1.434 . S
C748 C749 1.369 . S
C748 C750 1.419 . S
C748 H752 0.930 . S
C749 C748 1.369 . S
C749 C758 1.429 . S
C750 C748 1.419 . S
C750 C751 1.363 . S
C750 H753 0.929 . S
C751 C750 1.363 . S
C751 C757 1.428 . S
H752 C748 0.930 . S
H753 C750 0.929 . S
S754 N755 1.613 . S
S754 N756 1.610 . S
N755 S754 1.613 . S
N755 C758 1.350 . S
N756 S754 1.610 . S
N756 C757 1.351 . S
C757 C751 1.428 . S
C757 N756 1.351 . S
C757 C758 1.434 . S
C758 C749 1.429 . S
C758 N755 1.350 . S
C758 C757 1.434 . S
C759 C760 1.369 . S
C759 C761 1.419 . S
C759 H763 0.930 . S
C760 C759 1.369 . S
C760 C769 1.429 . S
C761 C759 1.419 . S
C761 C762 1.363 . S
C761 H764 0.929 . S
C762 C761 1.363 . S
C762 C768 1.428 . S
H763 C759 0.930 . S
H764 C761 0.929 . S
S765 N766 1.613 . S
S765 N767 1.610 . S
N766 S765 1.613 . S
N766 C769 1.350 . S
N767 S765 1.610 . S
N767 C768 1.351 . S
C768 C762 1.428 . S
C768 N767 1.351 . S
C768 C769 1.434 . S
C769 C760 1.429 . S
C769 N766 1.350 . S
C769 C768 1.434 . S
C770 C771 1.369 . S
C770 C772 1.419 . S
C770 H774 0.930 . S
C771 C770 1.369 . S
C771 C780 1.429 . S
C772 C770 1.419 . S
C772 C773 1.363 . S
C772 H775 0.929 . S
C773 C772 1.363 . S
C773 C779 1.428 . S
H774 C770 0.930 . S
H775 C772 0.929 . S
S776 N777 1.613 . S
S776 N778 1.610 . S
N777 S776 1.613 . S
N777 C780 1.350 . S
N778 S776 1.610 . S
N778 C779 1.351 . S
C779 C773 1.428 . S
C779 N778 1.351 . S
C779 C780 1.434 . S
C780 C771 1.429 . S
C780 N777 1.350 . S
C780 C779 1.434 . S
C781 C782 1.369 . S
C781 C783 1.419 . S
C781 H785 0.930 . S
C782 C781 1.369 . S
C782 C791 1.429 . S
C783 C781 1.419 . S
C783 C784 1.363 . S
C783 H786 0.929 . S
C784 C783 1.363 . S
C784 C790 1.428 . S
H785 C781 0.930 . S
H786 C783 0.929 . S
S787 N788 1.613 . S
S787 N789 1.610 . S
N788 S787 1.613 . S
N788 C791 1.350 . S
N789 S787 1.610 . S
N789 C790 1.351 . S
C790 C784 1.428 . S
C790 N789 1.351 . S
C790 C791 1.434 . S
C791 C782 1.429 . S
C791 N788 1.350 . S
C791 C790 1.434 . S
C792 C793 1.369 . S
C792 C794 1.419 . S
C792 H796 0.930 . S
C793 C792 1.369 . S
C793 C802 1.429 . S
C794 C792 1.419 . S
C794 C795 1.363 . S
C794 H797 0.929 . S
C795 C794 1.363 . S
C795 C801 1.428 . S
H796 C792 0.930 . S
H797 C794 0.929 . S
S798 N799 1.613 . S
S798 N800 1.610 . S
N799 S798 1.613 . S
N799 C802 1.350 . S
N800 S798 1.610 . S
N800 C801 1.351 . S
C801 C795 1.428 . S
C801 N800 1.351 . S
C801 C802 1.434 . S
C802 C793 1.429 . S
C802 N799 1.350 . S
C802 C801 1.434 . S
C803 C804 1.369 . S
C803 C805 1.419 . S
C803 H807 0.930 . S
C804 C803 1.369 . S
C804 C813 1.429 . S
C805 C803 1.419 . S
C805 C806 1.363 . S
C805 H808 0.929 . S
C806 C805 1.363 . S
C806 C812 1.428 . S
H807 C803 0.930 . S
H808 C805 0.929 . S
S809 N810 1.613 . S
S809 N811 1.610 . S
N810 S809 1.613 . S
N810 C813 1.350 . S
N811 S809 1.610 . S
N811 C812 1.351 . S
C812 C806 1.428 . S
C812 N811 1.351 . S
C812 C813 1.434 . S
C813 C804 1.429 . S
C813 N810 1.350 . S
C813 C812 1.434 . S
C814 C815 1.369 . S
C814 C816 1.419 . S
C814 H818 0.930 . S
C815 C814 1.369 . S
C815 C824 1.429 . S
C816 C814 1.419 . S
C816 C817 1.363 . S
C816 H819 0.929 . S
C817 C816 1.363 . S
C817 C823 1.428 . S
H818 C814 0.930 . S
H819 C816 0.929 . S
S820 N821 1.613 . S
S820 N822 1.610 . S
N821 S820 1.613 . S
N821 C824 1.350 . S
N822 S820 1.610 . S
N822 C823 1.351 . S
C823 C817 1.428 . S
C823 N822 1.351 . S
C823 C824 1.434 . S
C824 C815 1.429 . S
C824 N821 1.350 . S
C824 C823 1.434 . S
C825 C826 1.369 . S
C825 C827 1.419 . S
C825 H829 0.930 . S
C826 C825 1.369 . S
C826 C835 1.429 . S
C827 C825 1.419 . S
C827 C828 1.363 . S
C827 H830 0.929 . S
C828 C827 1.363 . S
C828 C834 1.428 . S
H829 C825 0.930 . S
H830 C827 0.929 . S
S831 N832 1.613 . S
S831 N833 1.610 . S
N832 S831 1.613 . S
N832 C835 1.350 . S
N833 S831 1.610 . S
N833 C834 1.351 . S
C834 C828 1.428 . S
C834 N833 1.351 . S
C834 C835 1.434 . S
C835 C826 1.429 . S
C835 N832 1.350 . S
C835 C834 1.434 . S
C836 C837 1.369 . S
C836 C838 1.419 . S
C836 H840 0.930 . S
C837 C836 1.369 . S
C837 C846 1.429 . S
C838 C836 1.419 . S
C838 C839 1.363 . S
C838 H841 0.929 . S
C839 C838 1.363 . S
C839 C845 1.428 . S
H840 C836 0.930 . S
H841 C838 0.929 . S
S842 N843 1.613 . S
S842 N844 1.610 . S
N843 S842 1.613 . S
N843 C846 1.350 . S
N844 S842 1.610 . S
N844 C845 1.351 . S
C845 C839 1.428 . S
C845 N844 1.351 . S
C845 C846 1.434 . S
C846 C837 1.429 . S
C846 N843 1.350 . S
C846 C845 1.434 . S
C847 C848 1.369 . S
C847 C849 1.419 . S
C847 H851 0.930 . S
C848 C847 1.369 . S
C848 C857 1.429 . S
C849 C847 1.419 . S
C849 C850 1.363 . S
C849 H852 0.929 . S
C850 C849 1.363 . S
C850 C856 1.428 . S
H851 C847 0.930 . S
H852 C849 0.929 . S
S853 N854 1.613 . S
S853 N855 1.610 . S
N854 S853 1.613 . S
N854 C857 1.350 . S
N855 S853 1.610 . S
N855 C856 1.351 . S
C856 C850 1.428 . S
C856 N855 1.351 . S
C856 C857 1.434 . S
C857 C848 1.429 . S
C857 N854 1.350 . S
C857 C856 1.434 . S
C858 C859 1.369 . S
C858 C860 1.419 . S
C858 H862 0.930 . S
C859 C858 1.369 . S
C859 C868 1.429 . S
C860 C858 1.419 . S
C860 C861 1.363 . S
C860 H863 0.929 . S
C861 C860 1.363 . S
C861 C867 1.428 . S
H862 C858 0.930 . S
H863 C860 0.929 . S
S864 N865 1.613 . S
S864 N866 1.610 . S
N865 S864 1.613 . S
N865 C868 1.350 . S
N866 S864 1.610 . S
N866 C867 1.351 . S
C867 C861 1.428 . S
C867 N866 1.351 . S
C867 C868 1.434 . S
C868 C859 1.429 . S
C868 N865 1.350 . S
C868 C867 1.434 . S
C869 C870 1.369 . S
C869 C871 1.419 . S
C869 H873 0.930 . S
C870 C869 1.369 . S
C870 C879 1.429 . S
C871 C869 1.419 . S
C871 C872 1.363 . S
C871 H874 0.929 . S
C872 C871 1.363 . S
C872 C878 1.428 . S
H873 C869 0.930 . S
H874 C871 0.929 . S
S875 N876 1.613 . S
S875 N877 1.610 . S
N876 S875 1.613 . S
N876 C879 1.350 . S
N877 S875 1.610 . S
N877 C878 1.351 . S
C878 C872 1.428 . S
C878 N877 1.351 . S
C878 C879 1.434 . S
C879 C870 1.429 . S
C879 N876 1.350 . S
C879 C878 1.434 . S
C880 C881 1.369 . S
C880 C882 1.419 . S
C880 H884 0.930 . S
C881 C880 1.369 . S
C881 C890 1.429 . S
C882 C880 1.419 . S
C882 C883 1.363 . S
C882 H885 0.929 . S
C883 C882 1.363 . S
C883 C889 1.428 . S
H884 C880 0.930 . S
H885 C882 0.929 . S
S886 N887 1.613 . S
S886 N888 1.610 . S
N887 S886 1.613 . S
N887 C890 1.350 . S
N888 S886 1.610 . S
N888 C889 1.351 . S
C889 C883 1.428 . S
C889 N888 1.351 . S
C889 C890 1.434 . S
C890 C881 1.429 . S
C890 N887 1.350 . S
C890 C889 1.434 . S
C891 C892 1.369 . S
C891 C893 1.419 . S
C891 H895 0.930 . S
C892 C891 1.369 . S
C892 C901 1.429 . S
C893 C891 1.419 . S
C893 C894 1.363 . S
C893 H896 0.929 . S
C894 C893 1.363 . S
C894 C900 1.428 . S
H895 C891 0.930 . S
H896 C893 0.929 . S
S897 N898 1.613 . S
S897 N899 1.610 . S
N898 S897 1.613 . S
N898 C901 1.350 . S
N899 S897 1.610 . S
N899 C900 1.351 . S
C900 C894 1.428 . S
C900 N899 1.351 . S
C900 C901 1.434 . S
C901 C892 1.429 . S
C901 N898 1.350 . S
C901 C900 1.434 . S
C902 C903 1.369 . S
C902 C904 1.419 . S
C902 H906 0.930 . S
C903 C902 1.369 . S
C903 C912 1.429 . S
C904 C902 1.419 . S
C904 C905 1.363 . S
C904 H907 0.929 . S
C905 C904 1.363 . S
C905 C911 1.428 . S
H906 C902 0.930 . S
H907 C904 0.929 . S
S908 N909 1.613 . S
S908 N910 1.610 . S
N909 S908 1.613 . S
N909 C912 1.350 . S
N910 S908 1.610 . S
N910 C911 1.351 . S
C911 C905 1.428 . S
C911 N910 1.351 . S
C911 C912 1.434 . S
C912 C903 1.429 . S
C912 N909 1.350 . S
C912 C911 1.434 . S
C913 C914 1.369 . S
C913 C915 1.419 . S
C913 H917 0.930 . S
C914 C913 1.369 . S
C914 C923 1.429 . S
C915 C913 1.419 . S
C915 C916 1.363 . S
C915 H918 0.929 . S
C916 C915 1.363 . S
C916 C922 1.428 . S
H917 C913 0.930 . S
H918 C915 0.929 . S
S919 N920 1.613 . S
S919 N921 1.610 . S
N920 S919 1.613 . S
N920 C923 1.350 . S
N921 S919 1.610 . S
N921 C922 1.351 . S
C922 C916 1.428 . S
C922 N921 1.351 . S
C922 C923 1.434 . S
C923 C914 1.429 . S
C923 N920 1.350 . S
C923 C922 1.434 . S
C924 C925 1.369 . S
C924 C926 1.419 . S
C924 H928 0.930 . S
C925 C924 1.369 . S
C925 C934 1.429 . S
C926 C924 1.419 . S
C926 C927 1.363 . S
C926 H929 0.929 . S
C927 C926 1.363 . S
C927 C933 1.428 . S
H928 C924 0.930 . S
H929 C926 0.929 . S
S930 N931 1.613 . S
S930 N932 1.610 . S
N931 S930 1.613 . S
N931 C934 1.350 . S
N932 S930 1.610 . S
N932 C933 1.351 . S
C933 C927 1.428 . S
C933 N932 1.351 . S
C933 C934 1.434 . S
C934 C925 1.429 . S
C934 N931 1.350 . S
C934 C933 1.434 . S
C935 C936 1.369 . S
C935 C937 1.419 . S
C935 H939 0.930 . S
C936 C935 1.369 . S
C936 C945 1.429 . S
C937 C935 1.419 . S
C937 C938 1.363 . S
C937 H940 0.929 . S
C938 C937 1.363 . S
C938 C944 1.428 . S
H939 C935 0.930 . S
H940 C937 0.929 . S
S941 N942 1.613 . S
S941 N943 1.610 . S
N942 S941 1.613 . S
N942 C945 1.350 . S
N943 S941 1.610 . S
N943 C944 1.351 . S
C944 C938 1.428 . S
C944 N943 1.351 . S
C944 C945 1.434 . S
C945 C936 1.429 . S
C945 N942 1.350 . S
C945 C944 1.434 . S
C946 C947 1.369 . S
C946 C948 1.419 . S
C946 H950 0.930 . S
C947 C946 1.369 . S
C947 C956 1.429 . S
C948 C946 1.419 . S
C948 C949 1.363 . S
C948 H951 0.929 . S
C949 C948 1.363 . S
C949 C955 1.428 . S
H950 C946 0.930 . S
H951 C948 0.929 . S
S952 N953 1.613 . S
S952 N954 1.610 . S
N953 S952 1.613 . S
N953 C956 1.350 . S
N954 S952 1.610 . S
N954 C955 1.351 . S
C955 C949 1.428 . S
C955 N954 1.351 . S
C955 C956 1.434 . S
C956 C947 1.429 . S
C956 N953 1.350 . S
C956 C955 1.434 . S
C957 C958 1.369 . S
C957 C959 1.419 . S
C957 H961 0.930 . S
C958 C957 1.369 . S
C958 C967 1.429 . S
C959 C957 1.419 . S
C959 C960 1.363 . S
C959 H962 0.929 . S
C960 C959 1.363 . S
C960 C966 1.428 . S
H961 C957 0.930 . S
H962 C959 0.929 . S
S963 N964 1.613 . S
S963 N965 1.610 . S
N964 S963 1.613 . S
N964 C967 1.350 . S
N965 S963 1.610 . S
N965 C966 1.351 . S
C966 C960 1.428 . S
C966 N965 1.351 . S
C966 C967 1.434 . S
C967 C958 1.429 . S
C967 N964 1.350 . S
C967 C966 1.434 . S
C968 C969 1.369 . S
C968 C970 1.419 . S
C968 H972 0.930 . S
C969 C968 1.369 . S
C969 C978 1.429 . S
C970 C968 1.419 . S
C970 C971 1.363 . S
C970 H973 0.929 . S
C971 C970 1.363 . S
C971 C977 1.428 . S
H972 C968 0.930 . S
H973 C970 0.929 . S
S974 N975 1.613 . S
S974 N976 1.610 . S
N975 S974 1.613 . S
N975 C978 1.350 . S
N976 S974 1.610 . S
N976 C977 1.351 . S
C977 C971 1.428 . S
C977 N976 1.351 . S
C977 C978 1.434 . S
C978 C969 1.429 . S
C978 N975 1.350 . S
C978 C977 1.434 . S
C979 C980 1.369 . S
C979 C981 1.419 . S
C979 H983 0.930 . S
C980 C979 1.369 . S
C980 C989 1.429 . S
C981 C979 1.419 . S
C981 C982 1.363 . S
C981 H984 0.929 . S
C982 C981 1.363 . S
C982 C988 1.428 . S
H983 C979 0.930 . S
H984 C981 0.929 . S
S985 N986 1.613 . S
S985 N987 1.610 . S
N986 S985 1.613 . S
N986 C989 1.350 . S
N987 S985 1.610 . S
N987 C988 1.351 . S
C988 C982 1.428 . S
C988 N987 1.351 . S
C988 C989 1.434 . S
C989 C980 1.429 . S
C989 N986 1.350 . S
C989 C988 1.434 . S
C990 C991 1.369 . S
C990 C992 1.419 . S
C990 H994 0.930 . S
C991 C990 1.369 . S
C991 C1000 1.429 . S
C992 C990 1.419 . S
C992 C993 1.363 . S
C992 H995 0.929 . S
C993 C992 1.363 . S
C993 C999 1.428 . S
H994 C990 0.930 . S
H995 C992 0.929 . S
S996 N997 1.613 . S
S996 N998 1.610 . S
N997 S996 1.613 . S
N997 C1000 1.350 . S
N998 S996 1.610 . S
N998 C999 1.351 . S
C999 C993 1.428 . S
C999 N998 1.351 . S
C999 C1000 1.434 . S
C1000 C991 1.429 . S
C1000 N997 1.350 . S
C1000 C999 1.434 . S
C1001 C1002 1.369 . S
C1001 C1003 1.419 . S
C1001 H1005 0.930 . S
C1002 C1001 1.369 . S
C1002 C1011 1.429 . S
C1003 C1001 1.419 . S
C1003 C1004 1.363 . S
C1003 H1006 0.929 . S
C1004 C1003 1.363 . S
C1004 C1010 1.428 . S
H1005 C1001 0.930 . S
H1006 C1003 0.929 . S
S1007 N1008 1.613 . S
S1007 N1009 1.610 . S
N1008 S1007 1.613 . S
N1008 C1011 1.350 . S
N1009 S1007 1.610 . S
N1009 C1010 1.351 . S
C1010 C1004 1.428 . S
C1010 N1009 1.351 . S
C1010 C1011 1.434 . S
C1011 C1002 1.429 . S
C1011 N1008 1.350 . S
C1011 C1010 1.434 . S
C1012 C1013 1.369 . S
C1012 C1014 1.419 . S
C1012 H1016 0.930 . S
C1013 C1012 1.369 . S
C1013 C1022 1.429 . S
C1014 C1012 1.419 . S
C1014 C1015 1.363 . S
C1014 H1017 0.929 . S
C1015 C1014 1.363 . S
C1015 C1021 1.428 . S
H1016 C1012 0.930 . S
H1017 C1014 0.929 . S
S1018 N1019 1.613 . S
S1018 N1020 1.610 . S
N1019 S1018 1.613 . S
N1019 C1022 1.350 . S
N1020 S1018 1.610 . S
N1020 C1021 1.351 . S
C1021 C1015 1.428 . S
C1021 N1020 1.351 . S
C1021 C1022 1.434 . S
C1022 C1013 1.429 . S
C1022 N1019 1.350 . S
C1022 C1021 1.434 . S
C1023 C1024 1.369 . S
C1023 C1025 1.419 . S
C1023 H1027 0.930 . S
C1024 C1023 1.369 . S
C1024 C1033 1.429 . S
C1025 C1023 1.419 . S
C1025 C1026 1.363 . S
C1025 H1028 0.929 . S
C1026 C1025 1.363 . S
C1026 C1032 1.428 . S
H1027 C1023 0.930 . S
H1028 C1025 0.929 . S
S1029 N1030 1.613 . S
S1029 N1031 1.610 . S
N1030 S1029 1.613 . S
N1030 C1033 1.350 . S
N1031 S1029 1.610 . S
N1031 C1032 1.351 . S
C1032 C1026 1.428 . S
C1032 N1031 1.351 . S
C1032 C1033 1.434 . S
C1033 C1024 1.429 . S
C1033 N1030 1.350 . S
C1033 C1032 1.434 . S
C1034 C1035 1.369 . S
C1034 C1036 1.419 . S
C1034 H1038 0.930 . S
C1035 C1034 1.369 . S
C1035 C1044 1.429 . S
C1036 C1034 1.419 . S
C1036 C1037 1.363 . S
C1036 H1039 0.929 . S
C1037 C1036 1.363 . S
C1037 C1043 1.428 . S
H1038 C1034 0.930 . S
H1039 C1036 0.929 . S
S1040 N1041 1.613 . S
S1040 N1042 1.610 . S
N1041 S1040 1.613 . S
N1041 C1044 1.350 . S
N1042 S1040 1.610 . S
N1042 C1043 1.351 . S
C1043 C1037 1.428 . S
C1043 N1042 1.351 . S
C1043 C1044 1.434 . S
C1044 C1035 1.429 . S
C1044 N1041 1.350 . S
C1044 C1043 1.434 . S
C1045 C1046 1.369 . S
C1045 C1047 1.419 . S
C1045 H1049 0.930 . S
C1046 C1045 1.369 . S
C1046 C1055 1.429 . S
C1047 C1045 1.419 . S
C1047 C1048 1.363 . S
C1047 H1050 0.929 . S
C1048 C1047 1.363 . S
C1048 C1054 1.428 . S
H1049 C1045 0.930 . S
H1050 C1047 0.929 . S
S1051 N1052 1.613 . S
S1051 N1053 1.610 . S
N1052 S1051 1.613 . S
N1052 C1055 1.350 . S
N1053 S1051 1.610 . S
N1053 C1054 1.351 . S
C1054 C1048 1.428 . S
C1054 N1053 1.351 . S
C1054 C1055 1.434 . S
C1055 C1046 1.429 . S
C1055 N1052 1.350 . S
C1055 C1054 1.434 . S
C1056 C1057 1.369 . S
C1056 C1058 1.419 . S
C1056 H1060 0.930 . S
C1057 C1056 1.369 . S
C1057 C1066 1.429 . S
C1058 C1056 1.419 . S
C1058 C1059 1.363 . S
C1058 H1061 0.929 . S
C1059 C1058 1.363 . S
C1059 C1065 1.428 . S
H1060 C1056 0.930 . S
H1061 C1058 0.929 . S
S1062 N1063 1.613 . S
S1062 N1064 1.610 . S
N1063 S1062 1.613 . S
N1063 C1066 1.350 . S
N1064 S1062 1.610 . S
N1064 C1065 1.351 . S
C1065 C1059 1.428 . S
C1065 N1064 1.351 . S
C1065 C1066 1.434 . S
C1066 C1057 1.429 . S
C1066 N1063 1.350 . S
C1066 C1065 1.434 . S
C1067 C1068 1.369 . S
C1067 C1069 1.419 . S
C1067 H1071 0.930 . S
C1068 C1067 1.369 . S
C1068 C1077 1.429 . S
C1069 C1067 1.419 . S
C1069 C1070 1.363 . S
C1069 H1072 0.929 . S
C1070 C1069 1.363 . S
C1070 C1076 1.428 . S
H1071 C1067 0.930 . S
H1072 C1069 0.929 . S
S1073 N1074 1.613 . S
S1073 N1075 1.610 . S
N1074 S1073 1.613 . S
N1074 C1077 1.350 . S
N1075 S1073 1.610 . S
N1075 C1076 1.351 . S
C1076 C1070 1.428 . S
C1076 N1075 1.351 . S
C1076 C1077 1.434 . S
C1077 C1068 1.429 . S
C1077 N1074 1.350 . S
C1077 C1076 1.434 . S
C1078 C1079 1.369 . S
C1078 C1080 1.419 . S
C1078 H1082 0.930 . S
C1079 C1078 1.369 . S
C1079 C1088 1.429 . S
C1080 C1078 1.419 . S
C1080 C1081 1.363 . S
C1080 H1083 0.929 . S
C1081 C1080 1.363 . S
C1081 C1087 1.428 . S
H1082 C1078 0.930 . S
H1083 C1080 0.929 . S
S1084 N1085 1.613 . S
S1084 N1086 1.610 . S
N1085 S1084 1.613 . S
N1085 C1088 1.350 . S
N1086 S1084 1.610 . S
N1086 C1087 1.351 . S
C1087 C1081 1.428 . S
C1087 N1086 1.351 . S
C1087 C1088 1.434 . S
C1088 C1079 1.429 . S
C1088 N1085 1.350 . S
C1088 C1087 1.434 . S
C1089 C1090 1.369 . S
C1089 C1091 1.419 . S
C1089 H1093 0.930 . S
C1090 C1089 1.369 . S
C1090 C1099 1.429 . S
C1091 C1089 1.419 . S
C1091 C1092 1.363 . S
C1091 H1094 0.929 . S
C1092 C1091 1.363 . S
C1092 C1098 1.428 . S
H1093 C1089 0.930 . S
H1094 C1091 0.929 . S
S1095 N1096 1.613 . S
S1095 N1097 1.610 . S
N1096 S1095 1.613 . S
N1096 C1099 1.350 . S
N1097 S1095 1.610 . S
N1097 C1098 1.351 . S
C1098 C1092 1.428 . S
C1098 N1097 1.351 . S
C1098 C1099 1.434 . S
C1099 C1090 1.429 . S
C1099 N1096 1.350 . S
C1099 C1098 1.434 . S
C1100 C1101 1.369 . S
C1100 C1102 1.419 . S
C1100 H1104 0.930 . S
C1101 C1100 1.369 . S
C1101 C1110 1.429 . S
C1102 C1100 1.419 . S
C1102 C1103 1.363 . S
C1102 H1105 0.929 . S
C1103 C1102 1.363 . S
C1103 C1109 1.428 . S
H1104 C1100 0.930 . S
H1105 C1102 0.929 . S
S1106 N1107 1.613 . S
S1106 N1108 1.610 . S
N1107 S1106 1.613 . S
N1107 C1110 1.350 . S
N1108 S1106 1.610 . S
N1108 C1109 1.351 . S
C1109 C1103 1.428 . S
C1109 N1108 1.351 . S
C1109 C1110 1.434 . S
C1110 C1101 1.429 . S
C1110 N1107 1.350 . S
C1110 C1109 1.434 . S
C1111 C1112 1.369 . S
C1111 C1113 1.419 . S
C1111 H1115 0.930 . S
C1112 C1111 1.369 . S
C1112 C1121 1.429 . S
C1113 C1111 1.419 . S
C1113 C1114 1.363 . S
C1113 H1116 0.929 . S
C1114 C1113 1.363 . S
C1114 C1120 1.428 . S
H1115 C1111 0.930 . S
H1116 C1113 0.929 . S
S1117 N1118 1.613 . S
S1117 N1119 1.610 . S
N1118 S1117 1.613 . S
N1118 C1121 1.350 . S
N1119 S1117 1.610 . S
N1119 C1120 1.351 . S
C1120 C1114 1.428 . S
C1120 N1119 1.351 . S
C1120 C1121 1.434 . S
C1121 C1112 1.429 . S
C1121 N1118 1.350 . S
C1121 C1120 1.434 . S
C1122 C1123 1.369 . S
C1122 C1124 1.419 . S
C1122 H1126 0.930 . S
C1123 C1122 1.369 . S
C1123 C1132 1.429 . S
C1124 C1122 1.419 . S
C1124 C1125 1.363 . S
C1124 H1127 0.929 . S
C1125 C1124 1.363 . S
C1125 C1131 1.428 . S
H1126 C1122 0.930 . S
H1127 C1124 0.929 . S
S1128 N1129 1.613 . S
S1128 N1130 1.610 . S
N1129 S1128 1.613 . S
N1129 C1132 1.350 . S
N1130 S1128 1.610 . S
N1130 C1131 1.351 . S
C1131 C1125 1.428 . S
C1131 N1130 1.351 . S
C1131 C1132 1.434 . S
C1132 C1123 1.429 . S
C1132 N1129 1.350 . S
C1132 C1131 1.434 . S
C1133 C1134 1.369 . S
C1133 C1135 1.419 . S
C1133 H1137 0.930 . S
C1134 C1133 1.369 . S
C1134 C1143 1.429 . S
C1135 C1133 1.419 . S
C1135 C1136 1.363 . S
C1135 H1138 0.929 . S
C1136 C1135 1.363 . S
C1136 C1142 1.428 . S
H1137 C1133 0.930 . S
H1138 C1135 0.929 . S
S1139 N1140 1.613 . S
S1139 N1141 1.610 . S
N1140 S1139 1.613 . S
N1140 C1143 1.350 . S
N1141 S1139 1.610 . S
N1141 C1142 1.351 . S
C1142 C1136 1.428 . S
C1142 N1141 1.351 . S
C1142 C1143 1.434 . S
C1143 C1134 1.429 . S
C1143 N1140 1.350 . S
C1143 C1142 1.434 . S
C1144 C1145 1.369 . S
C1144 C1146 1.419 . S
C1144 H1148 0.930 . S
C1145 C1144 1.369 . S
C1145 C1154 1.429 . S
C1146 C1144 1.419 . S
C1146 C1147 1.363 . S
C1146 H1149 0.929 . S
C1147 C1146 1.363 . S
C1147 C1153 1.428 . S
H1148 C1144 0.930 . S
H1149 C1146 0.929 . S
S1150 N1151 1.613 . S
S1150 N1152 1.610 . S
N1151 S1150 1.613 . S
N1151 C1154 1.350 . S
N1152 S1150 1.610 . S
N1152 C1153 1.351 . S
C1153 C1147 1.428 . S
C1153 N1152 1.351 . S
C1153 C1154 1.434 . S
C1154 C1145 1.429 . S
C1154 N1151 1.350 . S
C1154 C1153 1.434 . S
C1155 C1156 1.369 . S
C1155 C1157 1.419 . S
C1155 H1159 0.930 . S
C1156 C1155 1.369 . S
C1156 C1165 1.429 . S
C1157 C1155 1.419 . S
C1157 C1158 1.363 . S
C1157 H1160 0.929 . S
C1158 C1157 1.363 . S
C1158 C1164 1.428 . S
H1159 C1155 0.930 . S
H1160 C1157 0.929 . S
S1161 N1162 1.613 . S
S1161 N1163 1.610 . S
N1162 S1161 1.613 . S
N1162 C1165 1.350 . S
N1163 S1161 1.610 . S
N1163 C1164 1.351 . S
C1164 C1158 1.428 . S
C1164 N1163 1.351 . S
C1164 C1165 1.434 . S
C1165 C1156 1.429 . S
C1165 N1162 1.350 . S
C1165 C1164 1.434 . S
C1166 C1167 1.369 . S
C1166 C1168 1.419 . S
C1166 H1170 0.930 . S
C1167 C1166 1.369 . S
C1167 C1176 1.429 . S
C1168 C1166 1.419 . S
C1168 C1169 1.363 . S
C1168 H1171 0.929 . S
C1169 C1168 1.363 . S
C1169 C1175 1.428 . S
H1170 C1166 0.930 . S
H1171 C1168 0.929 . S
S1172 N1173 1.613 . S
S1172 N1174 1.610 . S
N1173 S1172 1.613 . S
N1173 C1176 1.350 . S
N1174 S1172 1.610 . S
N1174 C1175 1.351 . S
C1175 C1169 1.428 . S
C1175 N1174 1.351 . S
C1175 C1176 1.434 . S
C1176 C1167 1.429 . S
C1176 N1173 1.350 . S
C1176 C1175 1.434 . S
C1177 C1178 1.369 . S
C1177 C1179 1.419 . S
C1177 H1181 0.930 . S
C1178 C1177 1.369 . S
C1178 C1187 1.429 . S
C1179 C1177 1.419 . S
C1179 C1180 1.363 . S
C1179 H1182 0.929 . S
C1180 C1179 1.363 . S
C1180 C1186 1.428 . S
H1181 C1177 0.930 . S
H1182 C1179 0.929 . S
S1183 N1184 1.613 . S
S1183 N1185 1.610 . S
N1184 S1183 1.613 . S
N1184 C1187 1.350 . S
N1185 S1183 1.610 . S
N1185 C1186 1.351 . S
C1186 C1180 1.428 . S
C1186 N1185 1.351 . S
C1186 C1187 1.434 . S
C1187 C1178 1.429 . S
C1187 N1184 1.350 . S
C1187 C1186 1.434 . S
C1188 C1189 1.369 . S
C1188 C1190 1.419 . S
C1188 H1192 0.930 . S
C1189 C1188 1.369 . S
C1189 C1198 1.429 . S
C1190 C1188 1.419 . S
C1190 C1191 1.363 . S
C1190 H1193 0.929 . S
C1191 C1190 1.363 . S
C1191 C1197 1.428 . S
H1192 C1188 0.930 . S
H1193 C1190 0.929 . S
S1194 N1195 1.613 . S
S1194 N1196 1.610 . S
N1195 S1194 1.613 . S
N1195 C1198 1.350 . S
N1196 S1194 1.610 . S
N1196 C1197 1.351 . S
C1197 C1191 1.428 . S
C1197 N1196 1.351 . S
C1197 C1198 1.434 . S
C1198 C1189 1.429 . S
C1198 N1195 1.350 . S
C1198 C1197 1.434 . S
C1199 C1200 1.369 . S
C1199 C1201 1.419 . S
C1199 H1203 0.930 . S
C1200 C1199 1.369 . S
C1200 C1209 1.429 . S
C1201 C1199 1.419 . S
C1201 C1202 1.363 . S
C1201 H1204 0.929 . S
C1202 C1201 1.363 . S
C1202 C1208 1.428 . S
H1203 C1199 0.930 . S
H1204 C1201 0.929 . S
S1205 N1206 1.613 . S
S1205 N1207 1.610 . S
N1206 S1205 1.613 . S
N1206 C1209 1.350 . S
N1207 S1205 1.610 . S
N1207 C1208 1.351 . S
C1208 C1202 1.428 . S
C1208 N1207 1.351 . S
C1208 C1209 1.434 . S
C1209 C1200 1.429 . S
C1209 N1206 1.350 . S
C1209 C1208 1.434 . S
C1210 C1211 1.369 . S
C1210 C1212 1.419 . S
C1210 H1214 0.930 . S
C1211 C1210 1.369 . S
C1211 C1220 1.429 . S
C1212 C1210 1.419 . S
C1212 C1213 1.363 . S
C1212 H1215 0.929 . S
C1213 C1212 1.363 . S
C1213 C1219 1.428 . S
H1214 C1210 0.930 . S
H1215 C1212 0.929 . S
S1216 N1217 1.613 . S
S1216 N1218 1.610 . S
N1217 S1216 1.613 . S
N1217 C1220 1.350 . S
N1218 S1216 1.610 . S
N1218 C1219 1.351 . S
C1219 C1213 1.428 . S
C1219 N1218 1.351 . S
C1219 C1220 1.434 . S
C1220 C1211 1.429 . S
C1220 N1217 1.350 . S
C1220 C1219 1.434 . S
C1221 C1222 1.369 . S
C1221 C1223 1.419 . S
C1221 H1225 0.930 . S
C1222 C1221 1.369 . S
C1222 C1231 1.429 . S
C1223 C1221 1.419 . S
C1223 C1224 1.363 . S
C1223 H1226 0.929 . S
C1224 C1223 1.363 . S
C1224 C1230 1.428 . S
H1225 C1221 0.930 . S
H1226 C1223 0.929 . S
S1227 N1228 1.613 . S
S1227 N1229 1.610 . S
N1228 S1227 1.613 . S
N1228 C1231 1.350 . S
N1229 S1227 1.610 . S
N1229 C1230 1.351 . S
C1230 C1224 1.428 . S
C1230 N1229 1.351 . S
C1230 C1231 1.434 . S
C1231 C1222 1.429 . S
C1231 N1228 1.350 . S
C1231 C1230 1.434 . S
C1232 C1233 1.369 . S
C1232 C1234 1.419 1_565 S
C1232 H1236 0.930 . S
C1233 C1232 1.369 . S
C1233 C1242 1.429 . S
C1234 C1232 1.419 1_545 S
C1234 C1235 1.363 . S
C1234 H1237 0.929 . S
C1235 C1234 1.363 . S
C1235 C1241 1.428 . S
H1236 C1232 0.930 . S
H1237 C1234 0.929 . S
S1238 N1239 1.616 1_545 S
S1238 N1240 1.608 . S
N1239 S1238 1.616 1_565 S
N1239 C1242 1.350 . S
N1240 S1238 1.608 . S
N1240 C1241 1.351 . S
C1241 C1235 1.428 . S
C1241 N1240 1.351 . S
C1241 C1242 1.434 1_545 S
C1242 C1233 1.429 . S
C1242 N1239 1.350 . S
C1242 C1241 1.434 1_565 S
C1243 C1244 1.369 . S
C1243 C1245 1.419 1_655 S
C1243 H1247 0.930 . S
C1244 C1243 1.369 . S
C1244 C1253 1.429 . S
C1245 C1243 1.419 1_455 S
C1245 C1246 1.363 . S
C1245 H1248 0.929 . S
C1246 C1245 1.363 . S
C1246 C1252 1.428 . S
H1247 C1243 0.930 . S
H1248 C1245 0.929 . S
S1249 N1250 1.616 1_455 S
S1249 N1251 1.608 . S
N1250 S1249 1.616 1_655 S
N1250 C1253 1.350 . S
N1251 S1249 1.608 . S
N1251 C1252 1.351 . S
C1252 C1246 1.428 . S
C1252 N1251 1.351 . S
C1252 C1253 1.434 1_455 S
C1253 C1244 1.429 . S
C1253 N1250 1.350 . S
C1253 C1252 1.434 1_655 S
C1254 C1255 1.369 . S
C1254 C1256 1.419 1_545 S
C1254 H1258 0.930 . S
C1255 C1254 1.369 . S
C1255 C1264 1.429 . S
C1256 C1254 1.419 1_565 S
C1256 C1257 1.363 . S
C1256 H1259 0.929 . S
C1257 C1256 1.363 . S
C1257 C1263 1.428 . S
H1258 C1254 0.930 . S
H1259 C1256 0.929 . S
S1260 N1261 1.616 1_565 S
S1260 N1262 1.608 . S
N1261 S1260 1.616 1_545 S
N1261 C1264 1.350 . S
N1262 S1260 1.608 . S
N1262 C1263 1.351 . S
C1263 C1257 1.428 . S
C1263 N1262 1.351 . S
C1263 C1264 1.434 1_565 S
C1264 C1255 1.429 . S
C1264 N1261 1.350 . S
C1264 C1263 1.434 1_545 S
C1265 C1266 1.369 . S
C1265 C1267 1.419 1_655 S
C1265 H1269 0.930 . S
C1266 C1265 1.369 . S
C1266 C1275 1.429 . S
C1267 C1265 1.419 1_455 S
C1267 C1268 1.363 . S
C1267 H1270 0.929 . S
C1268 C1267 1.363 . S
C1268 C1274 1.428 . S
H1269 C1265 0.930 . S
H1270 C1267 0.929 . S
S1271 N1272 1.616 1_455 S
S1271 N1273 1.608 . S
N1272 S1271 1.616 1_655 S
N1272 C1275 1.350 . S
N1273 S1271 1.608 . S
N1273 C1274 1.351 . S
C1274 C1268 1.428 . S
C1274 N1273 1.351 . S
C1274 C1275 1.434 1_455 S
C1275 C1266 1.429 . S
C1275 N1272 1.350 . S
C1275 C1274 1.434 1_655 S
C1276 C1277 1.369 . S
C1276 C1278 1.419 1_545 S
C1276 H1280 0.930 . S
C1277 C1276 1.369 . S
C1277 C1286 1.429 . S
C1278 C1276 1.419 1_565 S
C1278 C1279 1.363 . S
C1278 H1281 0.929 . S
C1279 C1278 1.363 . S
C1279 C1285 1.428 . S
H1280 C1276 0.930 . S
H1281 C1278 0.929 . S
S1282 N1283 1.616 1_565 S
S1282 N1284 1.608 . S
N1283 S1282 1.616 1_545 S
N1283 C1286 1.350 . S
N1284 S1282 1.608 . S
N1284 C1285 1.351 . S
C1285 C1279 1.428 . S
C1285 N1284 1.351 . S
C1285 C1286 1.434 1_565 S
C1286 C1277 1.429 . S
C1286 N1283 1.350 . S
C1286 C1285 1.434 1_545 S
C1287 C1288 1.369 . S
C1287 C1289 1.419 1_655 S
C1287 H1291 0.930 . S
C1288 C1287 1.369 . S
C1288 C1297 1.429 . S
C1289 C1287 1.419 1_455 S
C1289 C1290 1.363 . S
C1289 H1292 0.929 . S
C1290 C1289 1.363 . S
C1290 C1296 1.428 . S
H1291 C1287 0.930 . S
H1292 C1289 0.929 . S
S1293 N1294 1.616 1_455 S
S1293 N1295 1.608 . S
N1294 S1293 1.616 1_655 S
N1294 C1297 1.350 . S
N1295 S1293 1.608 . S
N1295 C1296 1.351 . S
C1296 C1290 1.428 . S
C1296 N1295 1.351 . S
C1296 C1297 1.434 1_455 S
C1297 C1288 1.429 . S
C1297 N1294 1.350 . S
C1297 C1296 1.434 1_655 S
C1298 C1299 1.369 . S
C1298 C1300 1.419 1_545 S
C1298 H1302 0.930 . S
C1299 C1298 1.369 . S
C1299 C1308 1.429 . S
C1300 C1298 1.419 1_565 S
C1300 C1301 1.363 . S
C1300 H1303 0.929 . S
C1301 C1300 1.363 . S
C1301 C1307 1.428 . S
H1302 C1298 0.930 . S
H1303 C1300 0.929 . S
S1304 N1305 1.616 1_565 S
S1304 N1306 1.608 . S
N1305 S1304 1.616 1_545 S
N1305 C1308 1.350 . S
N1306 S1304 1.608 . S
N1306 C1307 1.351 . S
C1307 C1301 1.428 . S
C1307 N1306 1.351 . S
C1307 C1308 1.434 1_565 S
C1308 C1299 1.429 . S
C1308 N1305 1.350 . S
C1308 C1307 1.434 1_545 S
C1309 C1310 1.369 . S
C1309 C1311 1.419 1_655 S
C1309 H1313 0.930 . S
C1310 C1309 1.369 . S
C1310 C1319 1.429 . S
C1311 C1309 1.419 1_455 S
C1311 C1312 1.363 . S
C1311 H1314 0.929 . S
C1312 C1311 1.363 . S
C1312 C1318 1.428 . S
H1313 C1309 0.930 . S
H1314 C1311 0.929 . S
S1315 N1316 1.616 1_455 S
S1315 N1317 1.608 . S
N1316 S1315 1.616 1_655 S
N1316 C1319 1.350 . S
N1317 S1315 1.608 . S
N1317 C1318 1.351 . S
C1318 C1312 1.428 . S
C1318 N1317 1.351 . S
C1318 C1319 1.434 1_455 S
C1319 C1310 1.429 . S
C1319 N1316 1.350 . S
C1319 C1318 1.434 1_655 S
C1320 C1321 1.369 . S
C1320 C1322 1.419 1_554 S
C1320 H1324 0.930 . S
C1321 C1320 1.369 . S
C1321 C1330 1.429 . S
C1322 C1320 1.419 1_556 S
C1322 C1323 1.363 . S
C1322 H1325 0.929 . S
C1323 C1322 1.363 . S
C1323 C1329 1.428 . S
H1324 C1320 0.930 . S
H1325 C1322 0.929 . S
S1326 N1327 1.616 1_556 S
S1326 N1328 1.608 . S
N1327 S1326 1.616 1_554 S
N1327 C1330 1.350 . S
N1328 S1326 1.608 . S
N1328 C1329 1.351 . S
C1329 C1323 1.428 . S
C1329 N1328 1.351 . S
C1329 C1330 1.434 1_556 S
C1330 C1321 1.429 . S
C1330 N1327 1.350 . S
C1330 C1329 1.434 1_554 S
C1331 C1332 1.369 . S
C1331 C1333 1.419 1_556 S
C1331 H1335 0.930 . S
C1332 C1331 1.369 . S
C1332 C1341 1.429 . S
C1333 C1331 1.419 1_554 S
C1333 C1334 1.363 . S
C1333 H1336 0.929 . S
C1334 C1333 1.363 . S
C1334 C1340 1.428 . S
H1335 C1331 0.930 . S
H1336 C1333 0.929 . S
S1337 N1338 1.616 1_554 S
S1337 N1339 1.608 . S
N1338 S1337 1.616 1_556 S
N1338 C1341 1.350 . S
N1339 S1337 1.608 . S
N1339 C1340 1.351 . S
C1340 C1334 1.428 . S
C1340 N1339 1.351 . S
C1340 C1341 1.434 1_554 S
C1341 C1332 1.429 . S
C1341 N1338 1.350 . S
C1341 C1340 1.434 1_556 S
C1342 C1343 1.369 . S
C1342 C1344 1.419 1_556 S
C1342 H1346 0.930 . S
C1343 C1342 1.369 . S
C1343 C1352 1.429 . S
C1344 C1342 1.419 1_554 S
C1344 C1345 1.363 . S
C1344 H1347 0.929 . S
C1345 C1344 1.363 . S
C1345 C1351 1.428 . S
H1346 C1342 0.930 . S
H1347 C1344 0.929 . S
S1348 N1349 1.616 1_554 S
S1348 N1350 1.608 . S
N1349 S1348 1.616 1_556 S
N1349 C1352 1.350 . S
N1350 S1348 1.608 . S
N1350 C1351 1.351 . S
C1351 C1345 1.428 . S
C1351 N1350 1.351 . S
C1351 C1352 1.434 1_554 S
C1352 C1343 1.429 . S
C1352 N1349 1.350 . S
C1352 C1351 1.434 1_556 S
C1353 C1354 1.369 . S
C1353 C1355 1.419 1_554 S
C1353 H1357 0.930 . S
C1354 C1353 1.369 . S
C1354 C1363 1.429 . S
C1355 C1353 1.419 1_556 S
C1355 C1356 1.363 . S
C1355 H1358 0.929 . S
C1356 C1355 1.363 . S
C1356 C1362 1.428 . S
H1357 C1353 0.930 . S
H1358 C1355 0.929 . S
S1359 N1360 1.616 1_556 S
S1359 N1361 1.608 . S
N1360 S1359 1.616 1_554 S
N1360 C1363 1.350 . S
N1361 S1359 1.608 . S
N1361 C1362 1.351 . S
C1362 C1356 1.428 . S
C1362 N1361 1.351 . S
C1362 C1363 1.434 1_556 S
C1363 C1354 1.429 . S
C1363 N1360 1.350 . S
C1363 C1362 1.434 1_554 S
C1364 C1365 1.369 . S
C1364 C1366 1.419 1_556 S
C1364 H1368 0.930 . S
C1365 C1364 1.369 . S
C1365 C1374 1.429 . S
C1366 C1364 1.419 1_554 S
C1366 C1367 1.363 . S
C1366 H1369 0.929 . S
C1367 C1366 1.363 . S
C1367 C1373 1.428 . S
H1368 C1364 0.930 . S
H1369 C1366 0.929 . S
S1370 N1371 1.616 1_554 S
S1370 N1372 1.608 . S
N1371 S1370 1.616 1_556 S
N1371 C1374 1.350 . S
N1372 S1370 1.608 . S
N1372 C1373 1.351 . S
C1373 C1367 1.428 . S
C1373 N1372 1.351 . S
C1373 C1374 1.434 1_554 S
C1374 C1365 1.429 . S
C1374 N1371 1.350 . S
C1374 C1373 1.434 1_556 S
C1375 C1376 1.369 . S
C1375 C1377 1.419 1_554 S
C1375 H1379 0.930 . S
C1376 C1375 1.369 . S
C1376 C1385 1.429 . S
C1377 C1375 1.419 1_556 S
C1377 C1378 1.363 . S
C1377 H1380 0.929 . S
C1378 C1377 1.363 . S
C1378 C1384 1.428 . S
H1379 C1375 0.930 . S
H1380 C1377 0.929 . S
S1381 N1382 1.616 1_556 S
S1381 N1383 1.608 . S
N1382 S1381 1.616 1_554 S
N1382 C1385 1.350 . S
N1383 S1381 1.608 . S
N1383 C1384 1.351 . S
C1384 C1378 1.428 . S
C1384 N1383 1.351 . S
C1384 C1385 1.434 1_556 S
C1385 C1376 1.429 . S
C1385 N1382 1.350 . S
C1385 C1384 1.434 1_554 S
C1386 C1387 1.369 . S
C1386 C1388 1.419 1_554 S
C1386 H1390 0.930 . S
C1387 C1386 1.369 . S
C1387 C1396 1.429 . S
C1388 C1386 1.419 1_556 S
C1388 C1389 1.363 . S
C1388 H1391 0.929 . S
C1389 C1388 1.363 . S
C1389 C1395 1.428 . S
H1390 C1386 0.930 . S
H1391 C1388 0.929 . S
S1392 N1393 1.616 1_556 S
S1392 N1394 1.608 . S
N1393 S1392 1.616 1_554 S
N1393 C1396 1.350 . S
N1394 S1392 1.608 . S
N1394 C1395 1.351 . S
C1395 C1389 1.428 . S
C1395 N1394 1.351 . S
C1395 C1396 1.434 1_556 S
C1396 C1387 1.429 . S
C1396 N1393 1.350 . S
C1396 C1395 1.434 1_554 S
C1397 C1398 1.369 . S
C1397 C1399 1.419 1_556 S
C1397 H1401 0.930 . S
C1398 C1397 1.369 . S
C1398 C1407 1.429 . S
C1399 C1397 1.419 1_554 S
C1399 C1400 1.363 . S
C1399 H1402 0.929 . S
C1400 C1399 1.363 . S
C1400 C1406 1.428 . S
H1401 C1397 0.930 . S
H1402 C1399 0.929 . S
S1403 N1404 1.616 1_554 S
S1403 N1405 1.608 . S
N1404 S1403 1.616 1_556 S
N1404 C1407 1.350 . S
N1405 S1403 1.608 . S
N1405 C1406 1.351 . S
C1406 C1400 1.428 . S
C1406 N1405 1.351 . S
C1406 C1407 1.434 1_554 S
C1407 C1398 1.429 . S
C1407 N1404 1.350 . S
C1407 C1406 1.434 1_556 S
C1408 C1409 1.369 . S
C1408 C1410 1.419 1_455 S
C1408 H1412 0.930 . S
C1409 C1408 1.369 . S
C1409 C1418 1.429 . S
C1410 C1408 1.419 1_655 S
C1410 C1411 1.363 . S
C1410 H1413 0.929 . S
C1411 C1410 1.363 . S
C1411 C1417 1.428 . S
H1412 C1408 0.930 . S
H1413 C1410 0.929 . S
S1414 N1415 1.616 1_655 S
S1414 N1416 1.608 . S
N1415 S1414 1.616 1_455 S
N1415 C1418 1.350 . S
N1416 S1414 1.608 . S
N1416 C1417 1.351 . S
C1417 C1411 1.428 . S
C1417 N1416 1.351 . S
C1417 C1418 1.434 1_655 S
C1418 C1409 1.429 . S
C1418 N1415 1.350 . S
C1418 C1417 1.434 1_455 S
C1419 C1420 1.369 . S
C1419 C1421 1.419 1_455 S
C1419 H1423 0.930 . S
C1420 C1419 1.369 . S
C1420 C1429 1.429 . S
C1421 C1419 1.419 1_655 S
C1421 C1422 1.363 . S
C1421 H1424 0.929 . S
C1422 C1421 1.363 . S
C1422 C1428 1.428 . S
H1423 C1419 0.930 . S
H1424 C1421 0.929 . S
S1425 N1426 1.616 1_655 S
S1425 N1427 1.608 . S
N1426 S1425 1.616 1_455 S
N1426 C1429 1.350 . S
N1427 S1425 1.608 . S
N1427 C1428 1.351 . S
C1428 C1422 1.428 . S
C1428 N1427 1.351 . S
C1428 C1429 1.434 1_655 S
C1429 C1420 1.429 . S
C1429 N1426 1.350 . S
C1429 C1428 1.434 1_455 S
C1430 C1431 1.369 . S
C1430 C1432 1.419 1_565 S
C1430 H1434 0.930 . S
C1431 C1430 1.369 . S
C1431 C1440 1.429 . S
C1432 C1430 1.419 1_545 S
C1432 C1433 1.363 . S
C1432 H1435 0.929 . S
C1433 C1432 1.363 . S
C1433 C1439 1.428 . S
H1434 C1430 0.930 . S
H1435 C1432 0.929 . S
S1436 N1437 1.616 1_545 S
S1436 N1438 1.608 . S
N1437 S1436 1.616 1_565 S
N1437 C1440 1.350 . S
N1438 S1436 1.608 . S
N1438 C1439 1.351 . S
C1439 C1433 1.428 . S
C1439 N1438 1.351 . S
C1439 C1440 1.434 1_545 S
C1440 C1431 1.429 . S
C1440 N1437 1.350 . S
C1440 C1439 1.434 1_565 S
C1441 C1442 1.369 . S
C1441 C1443 1.419 1_455 S
C1441 H1445 0.930 . S
C1442 C1441 1.369 . S
C1442 C1451 1.429 . S
C1443 C1441 1.419 1_655 S
C1443 C1444 1.363 . S
C1443 H1446 0.929 . S
C1444 C1443 1.363 . S
C1444 C1450 1.428 . S
H1445 C1441 0.930 . S
H1446 C1443 0.929 . S
S1447 N1448 1.616 1_655 S
S1447 N1449 1.608 . S
N1448 S1447 1.616 1_455 S
N1448 C1451 1.350 . S
N1449 S1447 1.608 . S
N1449 C1450 1.351 . S
C1450 C1444 1.428 . S
C1450 N1449 1.351 . S
C1450 C1451 1.434 1_655 S
C1451 C1442 1.429 . S
C1451 N1448 1.350 . S
C1451 C1450 1.434 1_455 S
C1452 C1453 1.369 . S
C1452 C1454 1.419 1_565 S
C1452 H1456 0.930 . S
C1453 C1452 1.369 . S
C1453 C1462 1.429 . S
C1454 C1452 1.419 1_545 S
C1454 C1455 1.363 . S
C1454 H1457 0.929 . S
C1455 C1454 1.363 . S
C1455 C1461 1.428 . S
H1456 C1452 0.930 . S
H1457 C1454 0.929 . S
S1458 N1459 1.616 1_545 S
S1458 N1460 1.608 . S
N1459 S1458 1.616 1_565 S
N1459 C1462 1.350 . S
N1460 S1458 1.608 . S
N1460 C1461 1.351 . S
C1461 C1455 1.428 . S
C1461 N1460 1.351 . S
C1461 C1462 1.434 1_545 S
C1462 C1453 1.429 . S
C1462 N1459 1.350 . S
C1462 C1461 1.434 1_565 S
C1463 C1464 1.369 . S
C1463 C1465 1.419 1_655 S
C1463 H1467 0.930 . S
C1464 C1463 1.369 . S
C1464 C1473 1.429 . S
C1465 C1463 1.419 1_455 S
C1465 C1466 1.363 . S
C1465 H1468 0.929 . S
C1466 C1465 1.363 . S
C1466 C1472 1.428 . S
H1467 C1463 0.930 . S
H1468 C1465 0.929 . S
S1469 N1470 1.616 1_455 S
S1469 N1471 1.608 . S
N1470 S1469 1.616 1_655 S
N1470 C1473 1.350 . S
N1471 S1469 1.608 . S
N1471 C1472 1.351 . S
C1472 C1466 1.428 . S
C1472 N1471 1.351 . S
C1472 C1473 1.434 1_455 S
C1473 C1464 1.429 . S
C1473 N1470 1.350 . S
C1473 C1472 1.434 1_655 S
C1474 C1475 1.369 . S
C1474 C1476 1.419 1_565 S
C1474 H1478 0.930 . S
C1475 C1474 1.369 . S
C1475 C1484 1.429 . S
C1476 C1474 1.419 1_545 S
C1476 C1477 1.363 . S
C1476 H1479 0.929 . S
C1477 C1476 1.363 . S
C1477 C1483 1.428 . S
H1478 C1474 0.930 . S
H1479 C1476 0.929 . S
S1480 N1481 1.616 1_545 S
S1480 N1482 1.608 . S
N1481 S1480 1.616 1_565 S
N1481 C1484 1.350 . S
N1482 S1480 1.608 . S
N1482 C1483 1.351 . S
C1483 C1477 1.428 . S
C1483 N1482 1.351 . S
C1483 C1484 1.434 1_545 S
C1484 C1475 1.429 . S
C1484 N1481 1.350 . S
C1484 C1483 1.434 1_565 S
C1485 C1486 1.369 . S
C1485 C1487 1.419 1_565 S
C1485 H1489 0.930 . S
C1486 C1485 1.369 . S
C1486 C1495 1.429 . S
C1487 C1485 1.419 1_545 S
C1487 C1488 1.363 . S
C1487 H1490 0.929 . S
C1488 C1487 1.363 . S
C1488 C1494 1.428 . S
H1489 C1485 0.930 . S
H1490 C1487 0.929 . S
S1491 N1492 1.616 1_545 S
S1491 N1493 1.608 . S
N1492 S1491 1.616 1_565 S
N1492 C1495 1.350 . S
N1493 S1491 1.608 . S
N1493 C1494 1.351 . S
C1494 C1488 1.428 . S
C1494 N1493 1.351 . S
C1494 C1495 1.434 1_545 S
C1495 C1486 1.429 . S
C1495 N1492 1.350 . S
C1495 C1494 1.434 1_565 S
C1496 C1497 1.369 . S
C1496 C1498 1.419 . S
C1496 H1500 0.930 . S
C1497 C1496 1.369 . S
C1497 C1506 1.429 . S
C1498 C1496 1.419 . S
C1498 C1499 1.363 . S
C1498 H1501 0.929 . S
C1499 C1498 1.363 . S
C1499 C1505 1.428 . S
H1500 C1496 0.930 . S
H1501 C1498 0.929 . S
S1502 N1503 1.613 . S
S1502 N1504 1.610 . S
N1503 S1502 1.613 . S
N1503 C1506 1.350 . S
N1504 S1502 1.610 . S
N1504 C1505 1.351 . S
C1505 C1499 1.428 . S
C1505 N1504 1.351 . S
C1505 C1506 1.434 . S
C1506 C1497 1.429 . S
C1506 N1503 1.350 . S
C1506 C1505 1.434 . S
C1507 C1508 1.369 . S
C1507 C1509 1.419 . S
C1507 H1511 0.930 . S
C1508 C1507 1.369 . S
C1508 C1517 1.429 . S
C1509 C1507 1.419 . S
C1509 C1510 1.363 . S
C1509 H1512 0.929 . S
C1510 C1509 1.363 . S
C1510 C1516 1.428 . S
H1511 C1507 0.930 . S
H1512 C1509 0.929 . S
S1513 N1514 1.613 . S
S1513 N1515 1.610 . S
N1514 S1513 1.613 . S
N1514 C1517 1.350 . S
N1515 S1513 1.610 . S
N1515 C1516 1.351 . S
C1516 C1510 1.428 . S
C1516 N1515 1.351 . S
C1516 C1517 1.434 . S
C1517 C1508 1.429 . S
C1517 N1514 1.350 . S
C1517 C1516 1.434 . S
C1518 C1519 1.369 . S
C1518 C1520 1.419 . S
C1518 H1522 0.930 . S
C1519 C1518 1.369 . S
C1519 C1528 1.429 . S
C1520 C1518 1.419 . S
C1520 C1521 1.363 . S
C1520 H1523 0.929 . S
C1521 C1520 1.363 . S
C1521 C1527 1.428 . S
H1522 C1518 0.930 . S
H1523 C1520 0.929 . S
S1524 N1525 1.613 . S
S1524 N1526 1.610 . S
N1525 S1524 1.613 . S
N1525 C1528 1.350 . S
N1526 S1524 1.610 . S
N1526 C1527 1.351 . S
C1527 C1521 1.428 . S
C1527 N1526 1.351 . S
C1527 C1528 1.434 . S
C1528 C1519 1.429 . S
C1528 N1525 1.350 . S
C1528 C1527 1.434 . S
C1529 C1530 1.369 . S
C1529 C1531 1.419 . S
C1529 H1533 0.930 . S
C1530 C1529 1.369 . S
C1530 C1539 1.429 . S
C1531 C1529 1.419 . S
C1531 C1532 1.363 . S
C1531 H1534 0.929 . S
C1532 C1531 1.363 . S
C1532 C1538 1.428 . S
H1533 C1529 0.930 . S
H1534 C1531 0.929 . S
S1535 N1536 1.613 . S
S1535 N1537 1.610 . S
N1536 S1535 1.613 . S
N1536 C1539 1.350 . S
N1537 S1535 1.610 . S
N1537 C1538 1.351 . S
C1538 C1532 1.428 . S
C1538 N1537 1.351 . S
C1538 C1539 1.434 . S
C1539 C1530 1.429 . S
C1539 N1536 1.350 . S
C1539 C1538 1.434 . S
C1540 C1541 1.369 . S
C1540 C1542 1.419 . S
C1540 H1544 0.930 . S
C1541 C1540 1.369 . S
C1541 C1550 1.429 . S
C1542 C1540 1.419 . S
C1542 C1543 1.363 . S
C1542 H1545 0.929 . S
C1543 C1542 1.363 . S
C1543 C1549 1.428 . S
H1544 C1540 0.930 . S
H1545 C1542 0.929 . S
S1546 N1547 1.613 . S
S1546 N1548 1.610 . S
N1547 S1546 1.613 . S
N1547 C1550 1.350 . S
N1548 S1546 1.610 . S
N1548 C1549 1.351 . S
C1549 C1543 1.428 . S
C1549 N1548 1.351 . S
C1549 C1550 1.434 . S
C1550 C1541 1.429 . S
C1550 N1547 1.350 . S
C1550 C1549 1.434 . S
C1551 C1552 1.369 . S
C1551 C1553 1.419 . S
C1551 H1555 0.930 . S
C1552 C1551 1.369 . S
C1552 C1561 1.429 . S
C1553 C1551 1.419 . S
C1553 C1554 1.363 . S
C1553 H1556 0.929 . S
C1554 C1553 1.363 . S
C1554 C1560 1.428 . S
H1555 C1551 0.930 . S
H1556 C1553 0.929 . S
S1557 N1558 1.613 . S
S1557 N1559 1.610 . S
N1558 S1557 1.613 . S
N1558 C1561 1.350 . S
N1559 S1557 1.610 . S
N1559 C1560 1.351 . S
C1560 C1554 1.428 . S
C1560 N1559 1.351 . S
C1560 C1561 1.434 . S
C1561 C1552 1.429 . S
C1561 N1558 1.350 . S
C1561 C1560 1.434 . S
C1562 C1563 1.369 . S
C1562 C1564 1.419 . S
C1562 H1566 0.930 . S
C1563 C1562 1.369 . S
C1563 C1572 1.429 . S
C1564 C1562 1.419 . S
C1564 C1565 1.363 . S
C1564 H1567 0.929 . S
C1565 C1564 1.363 . S
C1565 C1571 1.428 . S
H1566 C1562 0.930 . S
H1567 C1564 0.929 . S
S1568 N1569 1.613 . S
S1568 N1570 1.610 . S
N1569 S1568 1.613 . S
N1569 C1572 1.350 . S
N1570 S1568 1.610 . S
N1570 C1571 1.351 . S
C1571 C1565 1.428 . S
C1571 N1570 1.351 . S
C1571 C1572 1.434 . S
C1572 C1563 1.429 . S
C1572 N1569 1.350 . S
C1572 C1571 1.434 . S
C1573 C1574 1.369 . S
C1573 C1575 1.419 . S
C1573 H1577 0.930 . S
C1574 C1573 1.369 . S
C1574 C1583 1.429 . S
C1575 C1573 1.419 . S
C1575 C1576 1.363 . S
C1575 H1578 0.929 . S
C1576 C1575 1.363 . S
C1576 C1582 1.428 . S
H1577 C1573 0.930 . S
H1578 C1575 0.929 . S
S1579 N1580 1.613 . S
S1579 N1581 1.610 . S
N1580 S1579 1.613 . S
N1580 C1583 1.350 . S
N1581 S1579 1.610 . S
N1581 C1582 1.351 . S
C1582 C1576 1.428 . S
C1582 N1581 1.351 . S
C1582 C1583 1.434 . S
C1583 C1574 1.429 . S
C1583 N1580 1.350 . S
C1583 C1582 1.434 . S
C1584 C1585 1.369 . S
C1584 C1586 1.419 . S
C1584 H1588 0.930 . S
C1585 C1584 1.369 . S
C1585 C1594 1.429 . S
C1586 C1584 1.419 . S
C1586 C1587 1.363 . S
C1586 H1589 0.929 . S
C1587 C1586 1.363 . S
C1587 C1593 1.428 . S
H1588 C1584 0.930 . S
H1589 C1586 0.929 . S
S1590 N1591 1.613 . S
S1590 N1592 1.610 . S
N1591 S1590 1.613 . S
N1591 C1594 1.350 . S
N1592 S1590 1.610 . S
N1592 C1593 1.351 . S
C1593 C1587 1.428 . S
C1593 N1592 1.351 . S
C1593 C1594 1.434 . S
C1594 C1585 1.429 . S
C1594 N1591 1.350 . S
C1594 C1593 1.434 . S
C1595 C1596 1.369 . S
C1595 C1597 1.419 . S
C1595 H1599 0.930 . S
C1596 C1595 1.369 . S
C1596 C1605 1.429 . S
C1597 C1595 1.419 . S
C1597 C1598 1.363 . S
C1597 H1600 0.929 . S
C1598 C1597 1.363 . S
C1598 C1604 1.428 . S
H1599 C1595 0.930 . S
H1600 C1597 0.929 . S
S1601 N1602 1.613 . S
S1601 N1603 1.610 . S
N1602 S1601 1.613 . S
N1602 C1605 1.350 . S
N1603 S1601 1.610 . S
N1603 C1604 1.351 . S
C1604 C1598 1.428 . S
C1604 N1603 1.351 . S
C1604 C1605 1.434 . S
C1605 C1596 1.429 . S
C1605 N1602 1.350 . S
C1605 C1604 1.434 . S
C1606 C1607 1.369 . S
C1606 C1608 1.419 . S
C1606 H1610 0.930 . S
C1607 C1606 1.369 . S
C1607 C1616 1.429 . S
C1608 C1606 1.419 . S
C1608 C1609 1.363 . S
C1608 H1611 0.929 . S
C1609 C1608 1.363 . S
C1609 C1615 1.428 . S
H1610 C1606 0.930 . S
H1611 C1608 0.929 . S
S1612 N1613 1.613 . S
S1612 N1614 1.610 . S
N1613 S1612 1.613 . S
N1613 C1616 1.350 . S
N1614 S1612 1.610 . S
N1614 C1615 1.351 . S
C1615 C1609 1.428 . S
C1615 N1614 1.351 . S
C1615 C1616 1.434 . S
C1616 C1607 1.429 . S
C1616 N1613 1.350 . S
C1616 C1615 1.434 . S
C1617 C1618 1.369 . S
C1617 C1619 1.419 . S
C1617 H1621 0.930 . S
C1618 C1617 1.369 . S
C1618 C1627 1.429 . S
C1619 C1617 1.419 . S
C1619 C1620 1.363 . S
C1619 H1622 0.929 . S
C1620 C1619 1.363 . S
C1620 C1626 1.428 . S
H1621 C1617 0.930 . S
H1622 C1619 0.929 . S
S1623 N1624 1.613 . S
S1623 N1625 1.610 . S
N1624 S1623 1.613 . S
N1624 C1627 1.350 . S
N1625 S1623 1.610 . S
N1625 C1626 1.351 . S
C1626 C1620 1.428 . S
C1626 N1625 1.351 . S
C1626 C1627 1.434 . S
C1627 C1618 1.429 . S
C1627 N1624 1.350 . S
C1627 C1626 1.434 . S
C1628 C1629 1.369 . S
C1628 C1630 1.419 . S
C1628 H1632 0.930 . S
C1629 C1628 1.369 . S
C1629 C1638 1.429 . S
C1630 C1628 1.419 . S
C1630 C1631 1.363 . S
C1630 H1633 0.929 . S
C1631 C1630 1.363 . S
C1631 C1637 1.428 . S
H1632 C1628 0.930 . S
H1633 C1630 0.929 . S
S1634 N1635 1.613 . S
S1634 N1636 1.610 . S
N1635 S1634 1.613 . S
N1635 C1638 1.350 . S
N1636 S1634 1.610 . S
N1636 C1637 1.351 . S
C1637 C1631 1.428 . S
C1637 N1636 1.351 . S
C1637 C1638 1.434 . S
C1638 C1629 1.429 . S
C1638 N1635 1.350 . S
C1638 C1637 1.434 . S
C1639 C1640 1.369 . S
C1639 C1641 1.419 . S
C1639 H1643 0.930 . S
C1640 C1639 1.369 . S
C1640 C1649 1.429 . S
C1641 C1639 1.419 . S
C1641 C1642 1.363 . S
C1641 H1644 0.929 . S
C1642 C1641 1.363 . S
C1642 C1648 1.428 . S
H1643 C1639 0.930 . S
H1644 C1641 0.929 . S
S1645 N1646 1.613 . S
S1645 N1647 1.610 . S
N1646 S1645 1.613 . S
N1646 C1649 1.350 . S
N1647 S1645 1.610 . S
N1647 C1648 1.351 . S
C1648 C1642 1.428 . S
C1648 N1647 1.351 . S
C1648 C1649 1.434 . S
C1649 C1640 1.429 . S
C1649 N1646 1.350 . S
C1649 C1648 1.434 . S
C1650 C1651 1.369 . S
C1650 C1652 1.419 . S
C1650 H1654 0.930 . S
C1651 C1650 1.369 . S
C1651 C1660 1.429 . S
C1652 C1650 1.419 . S
C1652 C1653 1.363 . S
C1652 H1655 0.929 . S
C1653 C1652 1.363 . S
C1653 C1659 1.428 . S
H1654 C1650 0.930 . S
H1655 C1652 0.929 . S
S1656 N1657 1.613 . S
S1656 N1658 1.610 . S
N1657 S1656 1.613 . S
N1657 C1660 1.350 . S
N1658 S1656 1.610 . S
N1658 C1659 1.351 . S
C1659 C1653 1.428 . S
C1659 N1658 1.351 . S
C1659 C1660 1.434 . S
C1660 C1651 1.429 . S
C1660 N1657 1.350 . S
C1660 C1659 1.434 . S
C1661 C1662 1.369 . S
C1661 C1663 1.419 . S
C1661 H1665 0.930 . S
C1662 C1661 1.369 . S
C1662 C1671 1.429 . S
C1663 C1661 1.419 . S
C1663 C1664 1.363 . S
C1663 H1666 0.929 . S
C1664 C1663 1.363 . S
C1664 C1670 1.428 . S
H1665 C1661 0.930 . S
H1666 C1663 0.929 . S
S1667 N1668 1.613 . S
S1667 N1669 1.610 . S
N1668 S1667 1.613 . S
N1668 C1671 1.350 . S
N1669 S1667 1.610 . S
N1669 C1670 1.351 . S
C1670 C1664 1.428 . S
C1670 N1669 1.351 . S
C1670 C1671 1.434 . S
C1671 C1662 1.429 . S
C1671 N1668 1.350 . S
C1671 C1670 1.434 . S
C1672 C1673 1.369 . S
C1672 C1674 1.419 . S
C1672 H1676 0.930 . S
C1673 C1672 1.369 . S
C1673 C1682 1.429 . S
C1674 C1672 1.419 . S
C1674 C1675 1.363 . S
C1674 H1677 0.929 . S
C1675 C1674 1.363 . S
C1675 C1681 1.428 . S
H1676 C1672 0.930 . S
H1677 C1674 0.929 . S
S1678 N1679 1.613 . S
S1678 N1680 1.610 . S
N1679 S1678 1.613 . S
N1679 C1682 1.350 . S
N1680 S1678 1.610 . S
N1680 C1681 1.351 . S
C1681 C1675 1.428 . S
C1681 N1680 1.351 . S
C1681 C1682 1.434 . S
C1682 C1673 1.429 . S
C1682 N1679 1.350 . S
C1682 C1681 1.434 . S
C1683 C1684 1.369 . S
C1683 C1685 1.419 . S
C1683 H1687 0.930 . S
C1684 C1683 1.369 . S
C1684 C1693 1.429 . S
C1685 C1683 1.419 . S
C1685 C1686 1.363 . S
C1685 H1688 0.929 . S
C1686 C1685 1.363 . S
C1686 C1692 1.428 . S
H1687 C1683 0.930 . S
H1688 C1685 0.929 . S
S1689 N1690 1.613 . S
S1689 N1691 1.610 . S
N1690 S1689 1.613 . S
N1690 C1693 1.350 . S
N1691 S1689 1.610 . S
N1691 C1692 1.351 . S
C1692 C1686 1.428 . S
C1692 N1691 1.351 . S
C1692 C1693 1.434 . S
C1693 C1684 1.429 . S
C1693 N1690 1.350 . S
C1693 C1692 1.434 . S
C1694 C1695 1.369 . S
C1694 C1696 1.419 . S
C1694 H1698 0.930 . S
C1695 C1694 1.369 . S
C1695 C1704 1.429 . S
C1696 C1694 1.419 . S
C1696 C1697 1.363 . S
C1696 H1699 0.929 . S
C1697 C1696 1.363 . S
C1697 C1703 1.428 . S
H1698 C1694 0.930 . S
H1699 C1696 0.929 . S
S1700 N1701 1.613 . S
S1700 N1702 1.610 . S
N1701 S1700 1.613 . S
N1701 C1704 1.350 . S
N1702 S1700 1.610 . S
N1702 C1703 1.351 . S
C1703 C1697 1.428 . S
C1703 N1702 1.351 . S
C1703 C1704 1.434 . S
C1704 C1695 1.429 . S
C1704 N1701 1.350 . S
C1704 C1703 1.434 . S
C1705 C1706 1.369 . S
C1705 C1707 1.419 . S
C1705 H1709 0.930 . S
C1706 C1705 1.369 . S
C1706 C1715 1.429 . S
C1707 C1705 1.419 . S
C1707 C1708 1.363 . S
C1707 H1710 0.929 . S
C1708 C1707 1.363 . S
C1708 C1714 1.428 . S
H1709 C1705 0.930 . S
H1710 C1707 0.929 . S
S1711 N1712 1.613 . S
S1711 N1713 1.610 . S
N1712 S1711 1.613 . S
N1712 C1715 1.350 . S
N1713 S1711 1.610 . S
N1713 C1714 1.351 . S
C1714 C1708 1.428 . S
C1714 N1713 1.351 . S
C1714 C1715 1.434 . S
C1715 C1706 1.429 . S
C1715 N1712 1.350 . S
C1715 C1714 1.434 . S
C1716 C1717 1.369 . S
C1716 C1718 1.419 . S
C1716 H1720 0.930 . S
C1717 C1716 1.369 . S
C1717 C1726 1.429 . S
C1718 C1716 1.419 . S
C1718 C1719 1.363 . S
C1718 H1721 0.929 . S
C1719 C1718 1.363 . S
C1719 C1725 1.428 . S
H1720 C1716 0.930 . S
H1721 C1718 0.929 . S
S1722 N1723 1.613 . S
S1722 N1724 1.610 . S
N1723 S1722 1.613 . S
N1723 C1726 1.350 . S
N1724 S1722 1.610 . S
N1724 C1725 1.351 . S
C1725 C1719 1.428 . S
C1725 N1724 1.351 . S
C1725 C1726 1.434 . S
C1726 C1717 1.429 . S
C1726 N1723 1.350 . S
C1726 C1725 1.434 . S
C1727 C1728 1.369 . S
C1727 C1729 1.419 . S
C1727 H1731 0.930 . S
C1728 C1727 1.369 . S
C1728 C1737 1.429 . S
C1729 C1727 1.419 . S
C1729 C1730 1.363 . S
C1729 H1732 0.929 . S
C1730 C1729 1.363 . S
C1730 C1736 1.428 . S
H1731 C1727 0.930 . S
H1732 C1729 0.929 . S
S1733 N1734 1.613 . S
S1733 N1735 1.610 . S
N1734 S1733 1.613 . S
N1734 C1737 1.350 . S
N1735 S1733 1.610 . S
N1735 C1736 1.351 . S
C1736 C1730 1.428 . S
C1736 N1735 1.351 . S
C1736 C1737 1.434 . S
C1737 C1728 1.429 . S
C1737 N1734 1.350 . S
C1737 C1736 1.434 . S
C1738 C1739 1.369 . S
C1738 C1740 1.419 . S
C1738 H1742 0.930 . S
C1739 C1738 1.369 . S
C1739 C1748 1.429 . S
C1740 C1738 1.419 . S
C1740 C1741 1.363 . S
C1740 H1743 0.929 . S
C1741 C1740 1.363 . S
C1741 C1747 1.428 . S
H1742 C1738 0.930 . S
H1743 C1740 0.929 . S
S1744 N1745 1.613 . S
S1744 N1746 1.610 . S
N1745 S1744 1.613 . S
N1745 C1748 1.350 . S
N1746 S1744 1.610 . S
N1746 C1747 1.351 . S
C1747 C1741 1.428 . S
C1747 N1746 1.351 . S
C1747 C1748 1.434 . S
C1748 C1739 1.429 . S
C1748 N1745 1.350 . S
C1748 C1747 1.434 . S
C1749 C1750 1.369 . S
C1749 C1751 1.419 . S
C1749 H1753 0.930 . S
C1750 C1749 1.369 . S
C1750 C1759 1.429 . S
C1751 C1749 1.419 . S
C1751 C1752 1.363 . S
C1751 H1754 0.929 . S
C1752 C1751 1.363 . S
C1752 C1758 1.428 . S
H1753 C1749 0.930 . S
H1754 C1751 0.929 . S
S1755 N1756 1.613 . S
S1755 N1757 1.610 . S
N1756 S1755 1.613 . S
N1756 C1759 1.350 . S
N1757 S1755 1.610 . S
N1757 C1758 1.351 . S
C1758 C1752 1.428 . S
C1758 N1757 1.351 . S
C1758 C1759 1.434 . S
C1759 C1750 1.429 . S
C1759 N1756 1.350 . S
C1759 C1758 1.434 . S
C705 C358 1.252 . S
C707 C5 1.252 . S
C716 C515 1.250 . S
C718 C30 1.251 . S
C727 C49 1.251 . S
C729 C470 1.251 . S
C738 C73 1.250 . S
C740 C493 1.251 . S
C749 C94 1.252 . S
C751 C379 1.252 . S
C760 C119 1.251 . S
C762 C404 1.251 . S
C771 C423 1.252 . S
C773 C140 1.252 . S
C782 C163 1.251 . S
C784 C447 1.251 . S
C793 C185 1.252 . S
C795 C6 1.252 . S
C804 C31 1.252 . S
C806 C205 1.252 . S
C815 C224 1.252 . S
C817 C50 1.252 . S
C826 C74 1.252 . S
C828 C249 1.252 . S
C837 C92 1.252 . S
C839 C268 1.251 . S
C848 C294 1.251 . S
C850 C117 1.251 . S
C859 C141 1.251 . S
C861 C314 1.251 . S
C870 C339 1.252 . S
C872 C161 1.252 . S
C881 C183 1.252 . S
C883 C357 1.252 . S
C892 C378 1.251 . S
C894 C269 1.251 . S
C903 C403 1.251 . S
C905 C295 1.251 . S
C914 C312 1.252 . S
C916 C422 1.252 . S
C925 C449 1.251 . S
C927 C337 1.251 . S
C936 C469 1.252 . S
C938 C225 1.252 . S
C947 C250 1.251 . S
C949 C492 1.251 . S
C958 C514 1.252 . S
C960 C206 1.252 . S
C969 C691 1.251 . S
C971 C338 1.251 . S
C980 C293 1.252 . S
C982 C669 1.252 . S
C991 C624 1.252 . S
C993 C251 1.252 . S
C1002 C645 1.252 . S
C1004 C207 1.252 . S
C1013 C380 1.252 . S
C1015 C537 1.252 . S
C1024 C424 1.252 . S
C1026 C554 1.252 . S
C1035 C578 1.252 . S
C1037 C356 1.252 . S
C1046 C600 1.252 . S
C1048 C471 1.252 . S
C1057 C535 1.251 . S
C1059 C93 1.251 . S
C1068 C576 1.250 . S
C1070 C4 1.251 . S
C1079 C75 1.252 . S
C1081 C623 1.252 . S
C1090 C598 1.251 . S
C1092 C48 1.251 . S
C1101 C647 1.250 . S
C1103 C29 1.251 . S
C1112 C139 1.250 . S
C1114 C555 1.251 . S
C1123 C668 1.252 . S
C1125 C118 1.252 . S
C1134 C162 1.250 . S
C1136 C690 1.251 . S
C1145 C313 1.252 . S
C1147 C556 1.252 . S
C1156 C270 1.251 . S
C1158 C536 1.251 . S
C1167 C599 1.251 . S
C1169 C226 1.251 . S
C1178 C577 1.251 . S
C1180 C184 1.251 . S
C1189 C405 1.252 . S
C1191 C667 1.252 . S
C1200 C448 1.252 . S
C1202 C689 1.252 . S
C1211 C646 1.252 . S
C1213 C513 1.252 . S
C1222 C491 1.251 . S
C1224 C625 1.251 . S
C1233 C71 1.576 . S
C1235 C9 1.575 . S
C1244 C28 1.573 . S
C1246 C7 1.573 . S
C1255 C26 1.570 . S
C1257 C53 1.571 . S
C1266 C51 1.574 . S
C1268 C70 1.574 . S
C1277 C116 1.573 . S
C1279 C96 1.574 . S
C1288 C136 1.570 . S
C1290 C115 1.570 . S
C1299 C138 1.573 . S
C1301 C160 1.573 . S
C1310 C159 1.570 . S
C1312 C97 1.570 . S
C1321 C181 1.575 . S
C1323 C401 1.574 . S
C1332 C426 1.570 . S
C1334 C202 1.570 . S
C1343 C446 1.574 . S
C1345 C227 1.573 . S
C1354 C246 1.570 . S
C1356 C382 1.571 . S
C1365 C271 1.577 . S
C1367 C488 1.576 . S
C1376 C359 1.570 . S
C1378 C292 1.570 . S
C1387 C510 1.572 . S
C1389 C316 1.572 . S
C1398 C335 1.573 . S
C1400 C467 1.573 . S
C1409 C361 1.574 . S
C1411 C203 1.574 . S
C1420 C381 1.573 . S
C1422 C336 1.573 . S
C1431 C272 1.570 . S
C1433 C400 1.570 . S
C1442 C290 1.576 . S
C1444 C425 1.576 . S
C1453 C445 1.575 . S
C1455 C317 1.575 . S
C1464 C466 1.576 . S
C1466 C247 1.576 . S
C1475 C490 1.575 . S
C1477 C182 1.574 . S
C1486 C228 1.575 . S
C1488 C512 1.575 . S
C1497 C383 1.575 . S
C1499 C291 1.575 . S
C1508 C334 1.570 . S
C1510 C427 1.570 . S
C1519 C360 1.572 . S
C1521 C248 1.572 . S
C1530 C204 1.570 . S
C1532 C468 1.571 . S
C1541 C533 1.576 . S
C1543 C621 1.576 . S
C1552 C52 1.575 . S
C1554 C158 1.574 . S
C1563 C557 1.572 . S
C1565 C644 1.573 . S
C1574 C114 1.572 . S
C1576 C8 1.572 . S
C1585 C664 1.576 . S
C1587 C580 1.576 . S
C1596 C72 1.574 . S
C1598 C95 1.574 . S
C1607 C602 1.574 . S
C1609 C686 1.574 . S
C1618 C137 1.574 . S
C1620 C27 1.574 . S
C1629 C620 1.570 . S
C1631 C581 1.571 . S
C1640 C603 1.576 . S
C1642 C643 1.575 . S
C1651 C534 1.571 . S
C1653 C666 1.571 . S
C1662 C558 1.570 . S
C1664 C688 1.571 . S
C1673 C402 1.576 . S
C1675 C315 1.575 . S
C1684 C444 1.575 . S
C1686 C273 1.575 . S
C1695 C180 1.576 . S
C1697 C511 1.575 . S
C1706 C229 1.575 . S
C1708 C489 1.575 . S
C1717 C665 1.574 . S
C1719 C559 1.574 . S
C1728 C622 1.572 . S
C1730 C601 1.572 . S
C1739 C642 1.570 . S
C1741 C579 1.571 . S
C1750 C532 1.576 . S
C1752 C687 1.575 . S
