# Generated by pormake.
# Topology fee, (5)-cn, num edge types: 1
# Building blocks:
#     Node 0, Type 0, BuildingBlock: XOMCOT_clean_sbu_0, # of connection points: 5
#     Node 1, Type 0, BuildingBlock: XOMCOT_clean_sbu_0, # of connection points: 5
#     Node 2, Type 0, BuildingBlock: XOMCOT_clean_sbu_0, # of connection points: 5
#     Node 3, Type 0, BuildingBlock: XOMCOT_clean_sbu_0, # of connection points: 5
#     Edge 4, Type (0, 0), BuildingBlock: MIFKUJ_clean_linker_0, # of connection points: 2
#     Edge 5, Type (0, 0), BuildingBlock: MIFKUJ_clean_linker_0, # of connection points: 2
#     Edge 6, Type (0, 0), BuildingBlock: MIFKUJ_clean_linker_0, # of connection points: 2
#     Edge 7, Type (0, 0), BuildingBlock: MIFKUJ_clean_linker_0, # of connection points: 2
#     Edge 8, Type (0, 0), BuildingBlock: MIFKUJ_clean_linker_0, # of connection points: 2
#     Edge 9, Type (0, 0), BuildingBlock: MIFKUJ_clean_linker_0, # of connection points: 2
#     Edge 10, Type (0, 0), BuildingBlock: MIFKUJ_clean_linker_0, # of connection points: 2
#     Edge 11, Type (0, 0), BuildingBlock: MIFKUJ_clean_linker_0, # of connection points: 2
#     Edge 12, Type (0, 0), BuildingBlock: MIFKUJ_clean_linker_0, # of connection points: 2
#     Edge 13, Type (0, 0), BuildingBlock: MIFKUJ_clean_linker_0, # of connection points: 2
# Relax obj value: 0.155
# Max RMSD: 0.169
# Mean RMSD: 0.153
data_MOF--net-fee--node1-XOMCOT_clean_sbu_0--edge1-MIFKUJ_clean_linker_0
_symmetry_space_group_name_H-M    P1
_symmetry_Int_Tables_number       1
_symmetry_cell_setting            triclinic
loop_
_symmetry_equiv_pos_as_xyz
'x, y, z'
_cell_length_a     49.059708
_cell_length_b     49.061626
_cell_length_c     22.13154
_cell_angle_alpha  96.112087
_cell_angle_beta   96.350571
_cell_angle_gamma 89.814524
loop_
_atom_site_label
_atom_site_type_symbol
_atom_site_fract_x
_atom_site_fract_y
_atom_site_fract_z
_atom_type_partial_charge
Co0 Co 0.18742 0.53065 0.06922 0.0
C1 C 0.19186 0.53425 0.20467 0.0
C2 C 0.20561 0.57119 0.17313 0.0
C3 C 0.20751 0.57475 0.23589 0.0
N4 N 0.19588 0.54579 0.15358 0.0
N5 N 0.19872 0.5516 0.25593 0.0
H6 H 0.18333 0.5139 0.20399 0.0
H7 H 0.21055 0.58635 0.1439 0.0
C8 C 0.23736 0.55065 0.01714 0.0
O9 O 0.24138 0.52602 0.99014 0.0
N10 N 0.17821 0.51601 0.98357 0.0
C11 C 0.16201 0.49407 0.96237 0.0
C12 C 0.15922 0.49122 0.89958 0.0
C13 C 0.18364 0.52705 0.93256 0.0
N14 N 0.17297 0.51187 0.88076 0.0
C15 C 0.20495 0.47478 0.07074 0.0
C16 C 0.25979 0.48601 0.10722 0.0
C17 C 0.2517 0.45888 0.08632 0.0
C18 C 0.22362 0.45331 0.07109 0.0
C19 C 0.24023 0.50686 0.10687 0.0
N20 N 0.21363 0.50135 0.08327 0.0
H21 H 0.18352 0.46993 0.05983 0.0
H22 H 0.24679 0.52766 0.12264 0.0
H23 H 0.15175 0.48143 0.99006 0.0
H24 H 0.19479 0.54601 0.93292 0.0
O25 O 0.15501 0.51348 0.0907 0.0
O26 O 0.15659 0.55516 0.06079 0.0
O27 O 0.21661 0.55546 0.0467 0.0
C28 C 0.1422 0.53587 0.07866 0.0
H29 H 0.21472 0.59315 0.26434 0.0
H30 H 0.14721 0.47561 0.87008 0.0
H31 H 0.2811 0.49135 0.1213 0.0
H32 H 0.21608 0.43252 0.05867 0.0
Co33 Co 0.46709 0.19124 0.09433 0.0
C34 C 0.46529 0.19658 0.22845 0.0
C35 C 0.42792 0.21006 0.18104 0.0
C36 C 0.42556 0.21313 0.24275 0.0
N37 N 0.45291 0.19995 0.17217 0.0
N38 N 0.44899 0.20456 0.27237 0.0
H39 H 0.48576 0.18853 0.23705 0.0
H40 H 0.41226 0.2145 0.14524 0.0
C41 C 0.44623 0.24004 0.03052 0.0
O42 O 0.47061 0.24386 1.01332 0.0
N43 N 0.48081 0.1817 0.01511 0.0
C44 C 0.50239 0.16548 1.00378 0.0
C45 C 0.50427 0.16201 0.94195 0.0
C46 C 0.46911 0.18661 0.95901 0.0
N47 N 0.48343 0.17549 0.91388 0.0
C48 C 0.52292 0.2108 0.11747 0.0
C49 C 0.51067 0.26521 0.14759 0.0
C50 C 0.5377 0.25827 0.13731 0.0
C51 C 0.5439 0.23041 0.12546 0.0
C52 C 0.4904 0.24478 0.14009 0.0
N53 N 0.49626 0.21838 0.11954 0.0
H54 H 0.52818 0.18958 0.1088 0.0
H55 H 0.46963 0.25054 0.1473 0.0
H56 H 0.51554 0.15583 0.03755 0.0
H57 H 0.44991 0.1971 0.95062 0.0
O58 O 0.48495 0.15958 0.12495 0.0
O59 O 0.44276 0.1598 0.0769 0.0
O60 O 0.44169 0.21964 0.05958 0.0
C61 C 0.4625 0.14611 0.1038 0.0
H62 H 0.40768 0.22032 0.26412 0.0
H63 H 0.51982 0.15048 0.91947 0.0
H64 H 0.50481 0.2863 0.15835 0.0
H65 H 0.56473 0.22377 0.12109 0.0
Co66 Co 0.80643 0.53488 0.13088 0.0
C67 C 0.8011 0.5374 0.99683 0.0
C68 C 0.78889 0.57501 0.0449 0.0
C69 C 0.78619 0.57782 0.98333 0.0
N70 N 0.79805 0.54962 0.05328 0.0
N71 N 0.79395 0.55422 0.95317 0.0
H72 H 0.80844 0.51669 0.98799 0.0
H73 H 0.78495 0.59066 0.08101 0.0
C74 C 0.75809 0.5553 0.1947 0.0
O75 O 0.75503 0.53079 0.21209 0.0
N76 N 0.81572 0.52072 0.21 0.0
C77 C 0.83107 0.49852 0.22118 0.0
C78 C 0.83489 0.49673 0.28308 0.0
C79 C 0.81188 0.53292 0.26627 0.0
N80 N 0.82267 0.51831 0.31153 0.0
C81 C 0.78511 0.47951 0.10702 0.0
C82 C 0.73136 0.49377 0.07447 0.0
C83 C 0.73727 0.46653 0.0843 0.0
C84 C 0.76472 0.45923 0.09783 0.0
C85 C 0.7525 0.51329 0.08321 0.0
N86 N 0.77856 0.50645 0.10477 0.0
H87 H 0.80605 0.47347 0.11682 0.0
H88 H 0.74755 0.53425 0.07591 0.0
H89 H 0.84003 0.48494 0.18728 0.0
H90 H 0.80233 0.55264 0.27442 0.0
O91 O 0.83767 0.5165 0.10002 0.0
O92 O 0.83841 0.55852 0.1488 0.0
O93 O 0.77836 0.56043 0.16585 0.0
C94 C 0.8516 0.53864 0.12127 0.0
H95 H 0.7799 0.59616 0.96256 0.0
H96 H 0.8459 0.48072 0.30527 0.0
H97 H 0.71053 0.50006 0.06155 0.0
H98 H 0.77031 0.43824 0.1039 0.0
Co99 Co 0.46677 0.80764 0.11541 0.0
C100 C 0.46224 0.8048 0.98023 0.0
C101 C 0.42449 0.79372 1.01236 0.0
C102 C 0.42059 0.79236 0.9496 0.0
N103 N 0.45058 0.80143 0.03144 0.0
N104 N 0.44429 0.79945 0.92928 0.0
H105 H 0.48322 0.8116 0.9806 0.0
H106 H 0.40922 0.78961 0.04198 0.0
C107 C 0.44698 0.75709 0.16504 0.0
O108 O 0.47181 0.75288 0.19107 0.0
N109 N 0.4825 0.81452 0.20084 0.0
C110 C 0.50582 0.82851 0.22263 0.0
C111 C 0.50886 0.8304 0.28538 0.0
C112 C 0.47095 0.80958 0.25151 0.0
N113 N 0.48701 0.81836 0.30359 0.0
C114 C 0.52214 0.79004 0.10552 0.0
C115 C 0.51021 0.73529 0.07061 0.0
C116 C 0.53758 0.74325 0.08923 0.0
C117 C 0.54348 0.77129 0.10319 0.0
C118 C 0.48947 0.75495 0.07295 0.0
N119 N 0.49547 0.78143 0.09649 0.0
H120 H 0.52716 0.81147 0.11548 0.0
H121 H 0.46848 0.74853 0.05893 0.0
H122 H 0.51921 0.83815 0.19561 0.0
H123 H 0.45104 0.80011 0.2506 0.0
O124 O 0.48403 0.84062 0.09708 0.0
O125 O 0.44285 0.83856 0.12908 0.0
O126 O 0.44194 0.778 0.13591 0.0
C127 C 0.46206 0.85335 0.11211 0.0
H128 H 0.4017 0.78646 0.92127 0.0
H129 H 0.52541 0.84082 0.31536 0.0
H130 H 0.50463 0.71399 0.05727 0.0
H131 H 0.56443 0.77868 0.11372 0.0
H132 H 0.172 0.47318 0.78374 0.0
H133 H 0.17649 0.4802 0.6778 0.0
H134 H 0.18558 0.56725 0.72909 0.0
H135 H 0.18052 0.56041 0.83545 0.0
H136 H 0.14992 0.55503 0.62437 0.0
H137 H 0.24072 0.52943 0.70117 0.0
H138 H 0.27526 0.5004 0.75224 0.0
H139 H 0.25236 0.43283 0.61647 0.0
H140 H 0.21739 0.46134 0.56506 0.0
H141 H 0.19626 0.59042 0.35267 0.0
H142 H 0.19237 0.58314 0.45817 0.0
H143 H 0.18991 0.49569 0.40884 0.0
H144 H 0.19512 0.50272 0.30295 0.0
H145 H 0.22202 0.50785 0.51283 0.0
H146 H 0.13134 0.53243 0.43595 0.0
H147 H 0.096 0.56053 0.38463 0.0
H148 H 0.11739 0.62874 0.51971 0.0
H149 H 0.15315 0.60116 0.57139 0.0
C150 C 0.17471 0.49387 0.77256 0.0
C151 C 0.17583 0.51624 0.81822 0.0
C152 C 0.17754 0.49781 0.71197 0.0
C153 C 0.18164 0.52422 0.69555 0.0
C154 C 0.18253 0.54667 0.74079 0.0
C155 C 0.17983 0.54272 0.80164 0.0
C156 C 0.18473 0.52828 0.63102 0.0
C157 C 0.16593 0.54505 0.60021 0.0
C158 C 0.20512 0.5146 0.59897 0.0
C159 C 0.22626 0.49745 0.62959 0.0
C160 C 0.2429 0.50831 0.68247 0.0
C161 C 0.26258 0.49196 0.71143 0.0
C162 C 0.26596 0.46477 0.6877 0.0
C163 C 0.2497 0.45389 0.63484 0.0
C164 C 0.22997 0.47014 0.60574 0.0
C165 C 0.19523 0.56956 0.36388 0.0
C166 C 0.19605 0.54716 0.31866 0.0
C167 C 0.19265 0.56546 0.42448 0.0
C168 C 0.1904 0.53888 0.44149 0.0
C169 C 0.19146 0.51641 0.39681 0.0
C170 C 0.19421 0.52049 0.33604 0.0
C171 C 0.18722 0.53467 0.50602 0.0
C172 C 0.20599 0.51785 0.53688 0.0
C173 C 0.16668 0.54818 0.53803 0.0
C174 C 0.1451 0.56479 0.50722 0.0
C175 C 0.12865 0.55348 0.45446 0.0
C176 C 0.10852 0.56931 0.42534 0.0
C177 C 0.1045 0.59642 0.44881 0.0
C178 C 0.12055 0.60775 0.50155 0.0
C179 C 0.14074 0.59202 0.5308 0.0
H180 H 0.0889 0.60864 0.4262 0.0
H181 H 0.28121 0.45214 0.71019 0.0
H182 H 0.46044 0.21863 0.86114 0.0
H183 H 0.45475 0.22458 0.7521 0.0
H184 H 0.48935 0.14464 0.71138 0.0
H185 H 0.4954 0.13881 0.82036 0.0
H186 H 0.51138 0.181 0.65021 0.0
H187 H 0.41865 0.15741 0.6835 0.0
H188 H 0.37675 0.16325 0.73563 0.0
H189 H 0.36831 0.24539 0.68615 0.0
H190 H 0.41028 0.2401 0.6341 0.0
H191 H 0.47595 0.16445 0.32855 0.0
H192 H 0.48202 0.16015 0.43845 0.0
H193 H 0.44078 0.23724 0.47247 0.0
H194 H 0.43378 0.24087 0.36242 0.0
H195 H 0.42238 0.20362 0.53829 0.0
H196 H 0.51317 0.22862 0.50417 0.0
H197 H 0.55589 0.22537 0.45475 0.0
H198 H 0.56944 0.14446 0.50863 0.0
H199 H 0.52659 0.14708 0.5577 0.0
C200 C 0.46645 0.20218 0.82884 0.0
C201 C 0.47833 0.17823 0.84937 0.0
C202 C 0.46323 0.2056 0.76649 0.0
C203 C 0.4714 0.18495 0.72332 0.0
C204 C 0.48298 0.1609 0.74375 0.0
C205 C 0.48643 0.15759 0.80607 0.0
C206 C 0.4685 0.18854 0.657 0.0
C207 C 0.49184 0.18559 0.6255 0.0
C208 C 0.44323 0.19546 0.62515 0.0
C209 C 0.41769 0.19842 0.6553 0.0
C210 C 0.4079 0.17674 0.68393 0.0
C211 C 0.38413 0.17995 0.71341 0.0
C212 C 0.36991 0.20469 0.71428 0.0
C213 C 0.37935 0.22624 0.68542 0.0
C214 C 0.40308 0.22313 0.65582 0.0
C215 C 0.46852 0.18058 0.3597 0.0
C216 C 0.45446 0.20301 0.33716 0.0
C217 C 0.47202 0.17818 0.42253 0.0
C218 C 0.46217 0.19856 0.46418 0.0
C219 C 0.4485 0.22119 0.44151 0.0
C220 C 0.44455 0.2233 0.37868 0.0
C221 C 0.46528 0.19591 0.53109 0.0
C222 C 0.44197 0.19906 0.5628 0.0
C223 C 0.49068 0.18954 0.56332 0.0
C224 C 0.51654 0.18796 0.53413 0.0
C225 C 0.52516 0.21006 0.50513 0.0
C226 C 0.54941 0.20835 0.47723 0.0
C227 C 0.56533 0.1847 0.47842 0.0
C228 C 0.55707 0.16275 0.50768 0.0
C229 C 0.53282 0.16435 0.5356 0.0
H230 H 0.58409 0.18341 0.45678 0.0
H231 H 0.35155 0.20715 0.73724 0.0
H232 H 0.83077 0.52215 0.89676 0.0
H233 H 0.83548 0.51596 0.78703 0.0
H234 H 0.76629 0.56879 0.75306 0.0
H235 H 0.76135 0.5748 0.86253 0.0
H236 H 0.76477 0.52261 0.66898 0.0
H237 H 0.82904 0.59382 0.75571 0.0
H238 H 0.86738 0.61405 0.82778 0.0
H239 H 0.92098 0.55107 0.76167 0.0
H240 H 0.88281 0.53021 0.68977 0.0
H241 H 0.7835 0.54762 0.36686 0.0
H242 H 0.77885 0.55438 0.47627 0.0
H243 H 0.85221 0.50752 0.51315 0.0
H244 H 0.85754 0.50154 0.40422 0.0
H245 H 0.85155 0.55064 0.59629 0.0
H246 H 0.7882 0.47901 0.51057 0.0
H247 H 0.75013 0.4575 0.4396 0.0
H248 H 0.69524 0.5195 0.50445 0.0
H249 H 0.7331 0.54162 0.57525 0.0
C250 C 0.81636 0.53214 0.86581 0.0
C251 C 0.79576 0.54908 0.88833 0.0
C252 C 0.81919 0.52876 0.80319 0.0
C253 C 0.80141 0.54216 0.76191 0.0
C254 C 0.7803 0.55835 0.78407 0.0
C255 C 0.77761 0.56192 0.84666 0.0
C256 C 0.80515 0.53981 0.6958 0.0
C257 C 0.78361 0.52904 0.65298 0.0
C258 C 0.82996 0.54765 0.67504 0.0
C259 C 0.853 0.5603 0.7178 0.0
C260 C 0.84895 0.58416 0.75687 0.0
C261 C 0.87065 0.59576 0.79764 0.0
C262 C 0.89658 0.58381 0.79943 0.0
C263 C 0.90087 0.56028 0.7603 0.0
C264 C 0.87921 0.54857 0.71949 0.0
C265 C 0.7989 0.53911 0.39824 0.0
C266 C 0.8208 0.52385 0.37644 0.0
C267 C 0.79605 0.54274 0.46084 0.0
C268 C 0.81492 0.53105 0.50299 0.0
C269 C 0.83728 0.51659 0.48159 0.0
C270 C 0.84017 0.51299 0.41908 0.0
C271 C 0.81114 0.53342 0.56922 0.0
C272 C 0.83269 0.54419 0.61214 0.0
C273 C 0.78639 0.52542 0.59011 0.0
C274 C 0.76355 0.51213 0.54775 0.0
C275 C 0.76806 0.48818 0.50935 0.0
C276 C 0.74651 0.47586 0.46921 0.0
C277 C 0.7203 0.48717 0.46739 0.0
C278 C 0.71557 0.51079 0.50584 0.0
C279 C 0.73706 0.52322 0.54601 0.0
H280 H 0.70364 0.47759 0.43629 0.0
H281 H 0.91336 0.59282 0.83105 0.0
H282 H 0.40598 0.80657 0.83384 0.0
H283 H 0.41351 0.80891 0.72761 0.0
H284 H 0.5005 0.80004 0.77447 0.0
H285 H 0.49314 0.79721 0.88123 0.0
H286 H 0.48862 0.84065 0.69942 0.0
H287 H 0.46294 0.74655 0.703 0.0
H288 H 0.43375 0.70879 0.72485 0.0
H289 H 0.36667 0.73722 0.60687 0.0
H290 H 0.39536 0.77542 0.58502 0.0
H291 H 0.52534 0.81397 0.39954 0.0
H292 H 0.51776 0.81051 0.50552 0.0
H293 H 0.43031 0.81308 0.45587 0.0
H294 H 0.43786 0.81626 0.34915 0.0
H295 H 0.44223 0.7757 0.53276 0.0
H296 H 0.46693 0.86979 0.52942 0.0
H297 H 0.49526 0.90833 0.50817 0.0
H298 H 0.56302 0.88103 0.62597 0.0
H299 H 0.53519 0.84208 0.64727 0.0
C300 C 0.42672 0.80476 0.82179 0.0
C301 C 0.44892 0.80144 0.86645 0.0
C302 C 0.43098 0.80621 0.76082 0.0
C303 C 0.45752 0.80431 0.74287 0.0
C304 C 0.47982 0.80151 0.7873 0.0
C305 C 0.47557 0.79998 0.84842 0.0
C306 C 0.46191 0.80544 0.67775 0.0
C307 C 0.47881 0.82621 0.66303 0.0
C308 C 0.44846 0.78708 0.6301 0.0
C309 C 0.43123 0.764 0.64282 0.0
C310 C 0.4419 0.74488 0.68208 0.0
C311 C 0.42546 0.72338 0.69441 0.0
C312 C 0.39835 0.72065 0.66738 0.0
C313 C 0.38766 0.73938 0.62783 0.0
C314 C 0.40401 0.76095 0.61542 0.0
C315 C 0.50449 0.81403 0.41118 0.0
C316 C 0.48221 0.8157 0.36592 0.0
C317 C 0.50017 0.81203 0.47188 0.0
C318 C 0.47347 0.81206 0.48909 0.0
C319 C 0.45112 0.81312 0.44381 0.0
C320 C 0.45544 0.81489 0.38278 0.0
C321 C 0.46901 0.81092 0.55427 0.0
C322 C 0.45206 0.79016 0.56906 0.0
C323 C 0.48229 0.8294 0.602 0.0
C324 C 0.49905 0.85287 0.58948 0.0
C325 C 0.48793 0.87189 0.55044 0.0
C326 C 0.50389 0.89383 0.53844 0.0
C327 C 0.53094 0.89709 0.56558 0.0
C328 C 0.54207 0.87846 0.60492 0.0
C329 C 0.52621 0.85646 0.61702 0.0
H330 H 0.54327 0.91409 0.55624 0.0
H331 H 0.38565 0.70399 0.67699 0.0
H332 H 0.89095 0.56876 0.19623 0.0
H333 H 0.94015 0.57025 0.18676 0.0
H334 H 0.92727 0.51619 0.01868 0.0
H335 H 0.87846 0.51333 0.03044 0.0
H336 H 0.96896 0.50004 0.07655 0.0
H337 H 0.94192 0.589 0.02765 0.0
H338 H 0.92041 0.63443 0.04112 0.0
H339 H 0.97428 0.65548 0.20593 0.0
H340 H 0.99589 0.61003 0.19387 0.0
H341 H 0.1063 0.57084 0.02378 0.0
H342 H 0.0566 0.57319 0.02758 0.0
H343 H 0.06204 0.51094 0.15225 0.0
H344 H 0.11134 0.50761 0.14605 0.0
H345 H 0.02377 0.58615 0.1074 0.0
H346 H 0.00696 0.47059 0.13288 0.0
H347 H 0.02726 0.42593 0.10155 0.0
H348 H 0.05843 0.45942 0.95105 0.0
H349 H 0.03799 0.50414 0.98094 0.0
C350 C 0.8987 0.55732 0.15721 0.0
C351 C 0.88101 0.54089 0.11413 0.0
C352 C 0.92681 0.55832 0.15152 0.0
C353 C 0.93758 0.54364 0.10146 0.0
C354 C 0.91966 0.5276 0.0579 0.0
C355 C 0.89173 0.52602 0.06452 0.0
C356 C 0.96759 0.54403 0.09558 0.0
C357 C 0.98083 0.51894 0.08314 0.0
C358 C 0.98324 0.56864 0.10273 0.0
C359 C 0.97035 0.59601 0.11013 0.0
C360 C 0.94905 0.60325 0.06699 0.0
C361 C 0.93686 0.62901 0.07434 0.0
C362 C 0.94593 0.6478 0.12443 0.0
C363 C 0.96726 0.64089 0.16719 0.0
C364 C 0.97951 0.61514 0.16009 0.0
C365 C 0.09682 0.5577 0.05201 0.0
C366 C 0.11257 0.53881 0.08403 0.0
C367 C 0.06844 0.5591 0.0543 0.0
C368 C 0.05538 0.54186 0.08925 0.0
C369 C 0.07141 0.5239 0.1235 0.0
C370 C 0.09964 0.52209 0.12019 0.0
C371 C 0.02499 0.54218 0.08904 0.0
C372 C 0.01176 0.56733 0.10054 0.0
C373 C 0.00909 0.51774 0.07832 0.0
C374 C 0.02116 0.49079 0.05956 0.0
C375 C 0.01805 0.46839 0.09296 0.0
C376 C 0.02959 0.44307 0.07547 0.0
C377 C 0.0442 0.43986 0.02446 0.0
C378 C 0.04719 0.46195 0.99068 0.0
C379 C 0.03565 0.48729 1.0079 0.0
H380 H 0.05314 0.42026 1.01105 0.0
H381 H 0.93647 0.66773 0.13004 0.0
H382 H 0.48828 0.88577 0.04431 0.0
H383 H 0.48567 0.93553 0.04521 0.0
H384 H 0.42866 0.9384 0.18103 0.0
H385 H 0.4301 0.88834 0.17753 0.0
H386 H 0.41355 0.97375 0.10907 0.0
H387 H 0.49953 0.95491 0.21704 0.0
H388 H 0.54457 0.93298 0.23502 0.0
H389 H 0.57168 0.96808 0.0821 0.0
H390 H 0.52664 0.98992 0.06267 0.0
H391 H 0.49023 0.11692 0.18824 0.0
H392 H 0.4872 0.06771 0.19568 0.0
H393 H 0.42751 0.0591 0.03591 0.0
H394 H 0.42939 0.1086 0.03074 0.0
H395 H 0.50052 0.02688 0.12974 0.0
H396 H 0.38675 0.00417 0.03139 0.0
H397 H 0.34175 0.02677 0.03112 0.0
H398 H 0.37027 0.07663 0.19731 0.0
H399 H 0.4153 0.05408 0.19903 0.0
C400 C 0.47509 0.89704 0.07411 0.0
C401 C 0.45954 0.88328 0.11117 0.0
C402 C 0.47372 0.92551 0.0749 0.0
C403 C 0.45749 0.94093 0.11433 0.0
C404 C 0.44141 0.92707 0.15034 0.0
C405 C 0.44228 0.89847 0.14845 0.0
C406 C 0.45766 0.97145 0.11853 0.0
C407 C 0.43257 0.98537 0.11372 0.0
C408 C 0.48243 0.98683 0.12643 0.0
C409 C 0.50962 0.97386 0.1381 0.0
C410 C 0.51504 0.95781 0.18702 0.0
C411 C 0.54057 0.94541 0.19749 0.0
C412 C 0.56095 0.94909 0.15965 0.0
C413 C 0.55586 0.96523 0.11134 0.0
C414 C 0.53034 0.97764 0.1006 0.0
C415 C 0.47626 0.10451 0.15514 0.0
C416 C 0.45996 0.11652 0.10907 0.0
C417 C 0.47458 0.07636 0.15927 0.0
C418 C 0.45693 0.05952 0.11674 0.0
C419 C 0.44076 0.07159 0.07034 0.0
C420 C 0.44195 0.09988 0.06713 0.0
C421 C 0.45639 0.02929 0.11952 0.0
C422 C 0.48145 0.01536 0.12543 0.0
C423 C 0.4316 0.01408 0.11534 0.0
C424 C 0.40449 0.0276 0.11496 0.0
C425 C 0.38338 0.01988 0.068 0.0
C426 C 0.35787 0.0327 0.06757 0.0
C427 C 0.35318 0.05318 0.11406 0.0
C428 C 0.37396 0.06083 0.1612 0.0
C429 C 0.39949 0.04806 0.16188 0.0
H430 H 0.33343 0.06309 0.11362 0.0
H431 H 0.58071 0.93947 0.16783 0.0
H432 H 0.39269 0.23683 0.05227 0.0
H433 H 0.35919 0.27366 0.05512 0.0
H434 H 0.41793 0.32849 0.99932 0.0
H435 H 0.4516 0.29161 0.99595 0.0
H436 H 0.36219 0.32019 0.12783 0.0
H437 H 0.38294 0.37673 0.91973 0.0
H438 H 0.39743 0.36579 0.81669 0.0
H439 H 0.36665 0.28358 0.81012 0.0
H440 H 0.3516 0.29414 0.91266 0.0
H441 H 0.3001 0.45085 0.15823 0.0
H442 H 0.33342 0.41428 0.14265 0.0
H443 H 0.28258 0.37956 0.9815 0.0
H444 H 0.25004 0.4167 0.99474 0.0
H445 H 0.33351 0.37698 0.95977 0.0
H446 H 0.2836 0.35298 0.1213 0.0
H447 H 0.26486 0.36002 0.22066 0.0
H448 H 0.3464 0.37014 0.31338 0.0
H449 H 0.36561 0.36352 0.21444 0.0
C450 C 0.39844 0.25663 0.03996 0.0
C451 C 0.42491 0.26131 0.02426 0.0
C452 C 0.37926 0.2777 0.04179 0.0
C453 C 0.38604 0.30387 0.02765 0.0
C454 C 0.41214 0.30839 1.0099 0.0
C455 C 0.43137 0.28727 1.00797 0.0
C456 C 0.36623 0.32665 0.03444 0.0
C457 C 0.35596 0.33262 0.09106 0.0
C458 C 0.35776 0.34263 0.98626 0.0
C459 C 0.36644 0.33617 0.92421 0.0
C460 C 0.37918 0.35636 0.8962 0.0
C461 C 0.3875 0.35021 0.83789 0.0
C462 C 0.38305 0.32398 0.80698 0.0
C463 C 0.37018 0.30386 0.83421 0.0
C464 C 0.36179 0.3099 0.89247 0.0
C465 C 0.29614 0.43562 0.1191 0.0
C466 C 0.27215 0.43662 0.07818 0.0
C467 C 0.31511 0.41456 0.11054 0.0
C468 C 0.31035 0.39391 0.06133 0.0
C469 C 0.2867 0.39516 0.0199 0.0
C470 C 0.26789 0.41627 0.0281 0.0
C471 C 0.32962 0.37065 0.05337 0.0
C472 C 0.33986 0.36463 0.99661 0.0
C473 C 0.33749 0.35411 0.1009 0.0
C474 C 0.32601 0.35804 0.16044 0.0
C475 C 0.29752 0.35691 0.16285 0.0
C476 C 0.28682 0.36079 0.21909 0.0
C477 C 0.30443 0.3656 0.27329 0.0
C478 C 0.33279 0.36646 0.27136 0.0
C479 C 0.34359 0.36263 0.21522 0.0
H480 H 0.29611 0.36859 0.31678 0.0
H481 H 0.38953 0.31927 0.76187 0.0
H482 H 0.73351 0.41378 0.02906 0.0
H483 H 0.69832 0.37938 0.03742 0.0
H484 H 0.65608 0.43891 0.15012 0.0
H485 H 0.69109 0.47338 0.14174 0.0
H486 H 0.66528 0.3878 0.19884 0.0
H487 H 0.62884 0.42284 1.01163 0.0
H488 H 0.6307 0.43552 0.90731 0.0
H489 H 0.6484 0.35215 0.84473 0.0
H490 H 0.64703 0.33904 0.94895 0.0
H491 H 0.54485 0.30844 0.20684 0.0
H492 H 0.5776 0.34463 0.19687 0.0
H493 H 0.61196 0.29285 0.05489 0.0
H494 H 0.57829 0.25736 0.06171 0.0
H495 H 0.60624 0.34141 0.02146 0.0
H496 H 0.64467 0.30556 0.20478 0.0
H497 H 0.64525 0.29141 0.30853 0.0
H498 H 0.62704 0.37373 0.3781 0.0
H499 H 0.62598 0.38831 0.27454 0.0
C500 C 0.71659 0.41954 0.05519 0.0
C501 C 0.71495 0.44626 0.08451 0.0
C502 C 0.69651 0.39994 0.05981 0.0
C503 C 0.67462 0.40666 0.09434 0.0
C504 C 0.67281 0.43336 0.12325 0.0
C505 C 0.69267 0.45306 0.11797 0.0
C506 C 0.654 0.3856 0.10164 0.0
C507 C 0.65205 0.37789 0.16027 0.0
C508 C 0.6374 0.3722 0.051 0.0
C509 C 0.63809 0.38002 0.98824 0.0
C510 C 0.63336 0.40725 0.97575 0.0
C511 C 0.63428 0.41451 0.91661 0.0
C512 C 0.63974 0.39467 0.86945 0.0
C513 C 0.64421 0.3675 0.88132 0.0
C514 C 0.64334 0.36015 0.9404 0.0
C515 C 0.55924 0.30477 0.17321 0.0
C516 C 0.55889 0.2798 0.13531 0.0
C517 C 0.57821 0.32541 0.16805 0.0
C518 C 0.59752 0.3214 0.12557 0.0
C519 C 0.59734 0.29646 0.0881 0.0
C520 C 0.57824 0.27598 0.09272 0.0
C521 C 0.61749 0.34334 0.11884 0.0
C522 C 0.61937 0.35127 0.06024 0.0
C523 C 0.63433 0.35665 0.16946 0.0
C524 C 0.63495 0.34796 0.23178 0.0
C525 C 0.64056 0.3206 0.24211 0.0
C526 C 0.64102 0.31251 0.3009 0.0
C527 C 0.6361 0.33164 0.34984 0.0
C528 C 0.63079 0.35892 0.34012 0.0
C529 C 0.63028 0.36712 0.2814 0.0
H530 H 0.63647 0.32534 0.39532 0.0
H531 H 0.64044 0.40032 0.8237 0.0
H532 H 0.54535 0.69456 0.01856 0.0
H533 H 0.5807 0.66012 0.03823 0.0
H534 H 0.61521 0.71131 0.19881 0.0
H535 H 0.57966 0.7451 0.18099 0.0
H536 H 0.63596 0.66148 0.04521 0.0
H537 H 0.6378 0.67269 0.31008 0.0
H538 H 0.60574 0.68359 0.38742 0.0
H539 H 0.53796 0.65576 0.25588 0.0
H540 H 0.56964 0.64431 0.17804 0.0
H541 H 0.75902 0.60905 0.17318 0.0
H542 H 0.71976 0.63927 0.15838 0.0
H543 H 0.66629 0.5766 0.20334 0.0
H544 H 0.70556 0.54633 0.21912 0.0
H545 H 0.65083 0.62656 0.2487 0.0
H546 H 0.67267 0.58372 0.05692 0.0
H547 H 0.70343 0.56952 0.97864 0.0
H548 H 0.7191 0.65385 0.95766 0.0
H549 H 0.6889 0.66859 0.03686 0.0
C550 C 0.56038 0.69838 0.05822 0.0
C551 C 0.55965 0.72266 0.09808 0.0
C552 C 0.58068 0.67878 0.06916 0.0
C553 C 0.6004 0.683 0.12041 0.0
C554 C 0.59999 0.70741 0.15947 0.0
C555 C 0.5798 0.72691 0.14869 0.0
C556 C 0.62149 0.66202 0.13374 0.0
C557 C 0.63914 0.65378 0.08958 0.0
C558 C 0.62529 0.65146 0.19122 0.0
C559 C 0.60611 0.65786 0.23809 0.0
C560 C 0.61608 0.66876 0.29775 0.0
C561 C 0.59796 0.67506 0.34166 0.0
C562 C 0.56982 0.67044 0.32653 0.0
C563 C 0.55975 0.65941 0.2675 0.0
C564 C 0.57778 0.65304 0.22345 0.0
C565 C 0.73899 0.60183 0.1809 0.0
C566 C 0.73537 0.57517 0.19667 0.0
C567 C 0.71655 0.61909 0.17217 0.0
C568 C 0.69002 0.60994 0.17835 0.0
C569 C 0.68657 0.58401 0.19794 0.0
C570 C 0.70906 0.56675 0.20705 0.0
C571 C 0.66583 0.62683 0.16098 0.0
C572 C 0.64757 0.6342 0.20426 0.0
C573 C 0.6611 0.63605 0.1022 0.0
C574 C 0.67864 0.62727 0.05318 0.0
C575 C 0.68278 0.59925 0.03585 0.0
C576 C 0.70013 0.5911 0.99134 0.0
C577 C 0.71322 0.61077 0.96322 0.0
C578 C 0.70894 0.63863 0.9795 0.0
C579 C 0.6917 0.6469 0.02419 0.0
H580 H 0.72663 0.60442 0.92874 0.0
H581 H 0.55584 0.67536 0.36057 0.0
H582 H 0.45415 0.70201 0.16793 0.0
H583 H 0.41878 0.66605 0.14443 0.0
H584 H 0.35637 0.72768 0.12749 0.0
H585 H 0.39162 0.76371 0.14945 0.0
H586 H 0.34416 0.68033 0.19501 0.0
H587 H 0.3742 0.7035 1.00527 0.0
H588 H 0.40964 0.71078 0.93769 0.0
H589 H 0.43511 0.62714 0.94269 0.0
H590 H 0.40013 0.61954 1.01135 0.0
H591 H 0.23146 0.60576 0.04209 0.0
H592 H 0.26778 0.64036 0.06635 0.0
H593 H 0.32845 0.57841 0.03208 0.0
H594 H 0.292 0.54379 1.00563 0.0
H595 H 0.34341 0.6246 0.99393 0.0
H596 H 0.31241 0.59964 0.17776 0.0
H597 H 0.27862 0.5917 0.24879 0.0
H598 H 0.25694 0.6768 0.26019 0.0
H599 H 0.29017 0.68516 0.18818 0.0
C600 C 0.43284 0.70789 0.16042 0.0
C601 C 0.4256 0.73564 0.16047 0.0
C602 C 0.41272 0.68735 0.14674 0.0
C603 C 0.38505 0.69429 0.13399 0.0
C604 C 0.37763 0.72198 0.1373 0.0
C605 C 0.39776 0.74249 0.14972 0.0
C606 C 0.36404 0.67275 0.1131 0.0
C607 C 0.34376 0.66827 0.15088 0.0
C608 C 0.36409 0.65665 0.05617 0.0
C609 C 0.38477 0.66104 0.014 0.0
C610 C 0.38752 0.68673 0.9924 0.0
C611 C 0.4075 0.69091 0.95384 0.0
C612 C 0.42466 0.66945 0.93603 0.0
C613 C 0.42182 0.64376 0.95661 0.0
C614 C 0.40193 0.6395 0.99534 0.0
C615 C 0.25251 0.59959 0.03874 0.0
C616 C 0.25891 0.57204 0.02239 0.0
C617 C 0.27328 0.61935 0.05301 0.0
C618 C 0.30093 0.61187 0.05272 0.0
C619 C 0.30729 0.58464 0.03307 0.0
C620 C 0.28643 0.56489 0.01783 0.0
C621 C 0.32311 0.6322 0.07559 0.0
C622 C 0.34372 0.63648 0.03824 0.0
C623 C 0.32352 0.64792 0.13337 0.0
C624 C 0.30365 0.64298 0.17714 0.0
C625 C 0.3003 0.61663 0.19505 0.0
C626 C 0.28124 0.61205 0.2355 0.0
C627 C 0.26565 0.63373 0.25896 0.0
C628 C 0.26904 0.66003 0.24196 0.0
C629 C 0.28797 0.6647 0.20131 0.0
H630 H 0.251 0.6302 0.29049 0.0
H631 H 0.44012 0.67272 0.90617 0.0
loop_
_geom_bond_atom_site_label_1
_geom_bond_atom_site_label_2
_geom_bond_distance
_geom_bond_site_symmetry_2
_ccdc_geom_bond_type
Co0 N4 2.148 . S
Co0 N10 2.128 1_554 S
Co0 N20 2.194 . S
Co0 O25 2.351 . S
Co0 O26 2.155 . S
Co0 O27 2.096 . S
C1 N4 1.301 . S
C1 N5 1.328 . S
C1 H6 0.930 . S
C2 C3 1.333 . S
C2 N4 1.317 . S
C2 H7 0.930 . S
C3 C2 1.333 . S
C3 N5 1.350 . S
C3 H29 0.931 . S
N4 Co0 2.148 . S
N4 C1 1.301 . S
N4 C2 1.317 . S
N5 C1 1.328 . S
N5 C3 1.350 . S
H6 C1 0.930 . S
H7 C2 0.930 . S
C8 O9 1.224 . S
C8 O27 1.247 . S
O9 C8 1.224 . S
N10 Co0 2.128 1_556 S
N10 C11 1.355 . S
N10 C13 1.311 . S
C11 N10 1.355 . S
C11 C12 1.363 . S
C11 H23 0.929 . S
C12 C11 1.363 . S
C12 N14 1.375 . S
C12 H30 0.931 . S
C13 N10 1.311 . S
C13 N14 1.347 . S
C13 H24 0.929 . S
N14 C12 1.375 . S
N14 C13 1.347 . S
C15 C18 1.365 . S
C15 N20 1.328 . S
C15 H21 0.929 . S
C16 C17 1.362 . S
C16 C19 1.378 . S
C16 H31 0.929 . S
C17 C16 1.362 . S
C17 C18 1.366 . S
C18 C15 1.365 . S
C18 C17 1.366 . S
C18 H32 0.930 . S
C19 C16 1.378 . S
C19 N20 1.315 . S
C19 H22 0.930 . S
N20 Co0 2.194 . S
N20 C15 1.328 . S
N20 C19 1.315 . S
H21 C15 0.929 . S
H22 C19 0.930 . S
H23 C11 0.929 . S
H24 C13 0.929 . S
O25 Co0 2.351 . S
O25 C28 1.244 . S
O26 Co0 2.155 . S
O26 C28 1.240 . S
O27 Co0 2.096 . S
O27 C8 1.247 . S
C28 O25 1.244 . S
C28 O26 1.240 . S
H29 C3 0.931 . S
H30 C12 0.931 . S
H31 C16 0.929 . S
H32 C18 0.930 . S
Co33 N37 2.148 . S
Co33 N43 2.128 1_554 S
Co33 N53 2.194 . S
Co33 O58 2.351 . S
Co33 O59 2.155 . S
Co33 O60 2.096 . S
C34 N37 1.301 . S
C34 N38 1.328 . S
C34 H39 0.930 . S
C35 C36 1.333 . S
C35 N37 1.317 . S
C35 H40 0.930 . S
C36 C35 1.333 . S
C36 N38 1.350 . S
C36 H62 0.931 . S
N37 Co33 2.148 . S
N37 C34 1.301 . S
N37 C35 1.317 . S
N38 C34 1.328 . S
N38 C36 1.350 . S
H39 C34 0.930 . S
H40 C35 0.930 . S
C41 O42 1.224 . S
C41 O60 1.247 . S
O42 C41 1.224 . S
N43 Co33 2.128 1_556 S
N43 C44 1.355 . S
N43 C46 1.311 . S
C44 N43 1.355 . S
C44 C45 1.363 . S
C44 H56 0.929 . S
C45 C44 1.363 . S
C45 N47 1.375 . S
C45 H63 0.931 . S
C46 N43 1.311 . S
C46 N47 1.347 . S
C46 H57 0.929 . S
N47 C45 1.375 . S
N47 C46 1.347 . S
C48 C51 1.365 . S
C48 N53 1.328 . S
C48 H54 0.929 . S
C49 C50 1.362 . S
C49 C52 1.378 . S
C49 H64 0.929 . S
C50 C49 1.362 . S
C50 C51 1.366 . S
C51 C48 1.365 . S
C51 C50 1.366 . S
C51 H65 0.930 . S
C52 C49 1.378 . S
C52 N53 1.315 . S
C52 H55 0.930 . S
N53 Co33 2.194 . S
N53 C48 1.328 . S
N53 C52 1.315 . S
H54 C48 0.929 . S
H55 C52 0.930 . S
H56 C44 0.929 . S
H57 C46 0.929 . S
O58 Co33 2.351 . S
O58 C61 1.244 . S
O59 Co33 2.155 . S
O59 C61 1.240 . S
O60 Co33 2.096 . S
O60 C41 1.247 . S
C61 O58 1.244 . S
C61 O59 1.240 . S
H62 C36 0.931 . S
H63 C45 0.931 . S
H64 C49 0.929 . S
H65 C51 0.930 . S
Co66 N70 2.148 . S
Co66 N76 2.128 . S
Co66 N86 2.194 . S
Co66 O91 2.351 . S
Co66 O92 2.155 . S
Co66 O93 2.096 . S
C67 N70 1.301 1_556 S
C67 N71 1.328 . S
C67 H72 0.930 . S
C68 C69 1.333 1_554 S
C68 N70 1.317 . S
C68 H73 0.930 . S
C69 C68 1.333 1_556 S
C69 N71 1.350 . S
C69 H95 0.931 . S
N70 Co66 2.148 . S
N70 C67 1.301 1_554 S
N70 C68 1.317 . S
N71 C67 1.328 . S
N71 C69 1.350 . S
H72 C67 0.930 . S
H73 C68 0.930 . S
C74 O75 1.224 . S
C74 O93 1.247 . S
O75 C74 1.224 . S
N76 Co66 2.128 . S
N76 C77 1.355 . S
N76 C79 1.311 . S
C77 N76 1.355 . S
C77 C78 1.363 . S
C77 H89 0.929 . S
C78 C77 1.363 . S
C78 N80 1.375 . S
C78 H96 0.931 . S
C79 N76 1.311 . S
C79 N80 1.347 . S
C79 H90 0.929 . S
N80 C78 1.375 . S
N80 C79 1.347 . S
C81 C84 1.365 . S
C81 N86 1.328 . S
C81 H87 0.929 . S
C82 C83 1.362 . S
C82 C85 1.378 . S
C82 H97 0.929 . S
C83 C82 1.362 . S
C83 C84 1.366 . S
C84 C81 1.365 . S
C84 C83 1.366 . S
C84 H98 0.930 . S
C85 C82 1.378 . S
C85 N86 1.315 . S
C85 H88 0.930 . S
N86 Co66 2.194 . S
N86 C81 1.328 . S
N86 C85 1.315 . S
H87 C81 0.929 . S
H88 C85 0.930 . S
H89 C77 0.929 . S
H90 C79 0.929 . S
O91 Co66 2.351 . S
O91 C94 1.244 . S
O92 Co66 2.155 . S
O92 C94 1.240 . S
O93 Co66 2.096 . S
O93 C74 1.247 . S
C94 O91 1.244 . S
C94 O92 1.240 . S
H95 C69 0.931 . S
H96 C78 0.931 . S
H97 C82 0.929 . S
H98 C84 0.930 . S
Co99 N103 2.148 . S
Co99 N109 2.128 . S
Co99 N119 2.194 . S
Co99 O124 2.351 . S
Co99 O125 2.155 . S
Co99 O126 2.096 . S
C100 N103 1.301 1_556 S
C100 N104 1.328 . S
C100 H105 0.930 . S
C101 C102 1.333 . S
C101 N103 1.317 1_556 S
C101 H106 0.930 1_556 S
C102 C101 1.333 . S
C102 N104 1.350 . S
C102 H128 0.931 . S
N103 Co99 2.148 . S
N103 C100 1.301 1_554 S
N103 C101 1.317 1_554 S
N104 C100 1.328 . S
N104 C102 1.350 . S
H105 C100 0.930 . S
H106 C101 0.930 1_554 S
C107 O108 1.224 . S
C107 O126 1.247 . S
O108 C107 1.224 . S
N109 Co99 2.128 . S
N109 C110 1.355 . S
N109 C112 1.311 . S
C110 N109 1.355 . S
C110 C111 1.363 . S
C110 H122 0.929 . S
C111 C110 1.363 . S
C111 N113 1.375 . S
C111 H129 0.931 . S
C112 N109 1.311 . S
C112 N113 1.347 . S
C112 H123 0.929 . S
N113 C111 1.375 . S
N113 C112 1.347 . S
C114 C117 1.365 . S
C114 N119 1.328 . S
C114 H120 0.929 . S
C115 C116 1.362 . S
C115 C118 1.378 . S
C115 H130 0.929 . S
C116 C115 1.362 . S
C116 C117 1.366 . S
C117 C114 1.365 . S
C117 C116 1.366 . S
C117 H131 0.930 . S
C118 C115 1.378 . S
C118 N119 1.315 . S
C118 H121 0.930 . S
N119 Co99 2.194 . S
N119 C114 1.328 . S
N119 C118 1.315 . S
H120 C114 0.929 . S
H121 C118 0.930 . S
H122 C110 0.929 . S
H123 C112 0.929 . S
O124 Co99 2.351 . S
O124 C127 1.244 . S
O125 Co99 2.155 . S
O125 C127 1.240 . S
O126 Co99 2.096 . S
O126 C107 1.247 . S
C127 O124 1.244 . S
C127 O125 1.240 . S
H128 C102 0.931 . S
H129 C111 0.931 . S
H130 C115 0.929 . S
H131 C117 0.930 . S
H132 C150 0.951 . S
H133 C152 0.951 . S
H134 C154 0.950 . S
H135 C155 0.950 . S
H136 C157 0.950 . S
H137 C160 0.950 . S
H138 C161 0.950 . S
H139 C163 0.950 . S
H140 C164 0.950 . S
H141 C165 0.951 . S
H142 C167 0.951 . S
H143 C169 0.950 . S
H144 C170 0.950 . S
H145 C172 0.950 . S
H146 C175 0.950 . S
H147 C176 0.950 . S
H148 C178 0.950 . S
H149 C179 0.950 . S
C150 H132 0.951 . S
C150 C151 1.366 . S
C150 C152 1.388 . S
C151 C150 1.366 . S
C151 C155 1.385 . S
C152 H133 0.951 . S
C152 C150 1.388 . S
C152 C153 1.366 . S
C153 C152 1.366 . S
C153 C154 1.414 . S
C153 C156 1.499 . S
C154 H134 0.950 . S
C154 C153 1.414 . S
C154 C155 1.374 . S
C155 H135 0.950 . S
C155 C151 1.385 . S
C155 C154 1.374 . S
C156 C153 1.499 . S
C156 C157 1.373 . S
C156 C158 1.389 . S
C157 H136 0.950 . S
C157 C156 1.373 . S
C157 C173 1.377 . S
C158 C156 1.389 . S
C158 C159 1.524 . S
C158 C172 1.377 . S
C159 C158 1.524 . S
C159 C160 1.397 . S
C159 C164 1.363 . S
C160 H137 0.950 . S
C160 C159 1.397 . S
C160 C161 1.334 . S
C161 H138 0.950 . S
C161 C160 1.334 . S
C161 C162 1.287 . S
C162 C161 1.287 . S
C162 C163 1.524 . S
C162 H181 0.913 . S
C163 H139 0.950 . S
C163 C162 1.524 . S
C163 C164 1.415 . S
C164 H140 0.950 . S
C164 C159 1.363 . S
C164 C163 1.415 . S
C165 H141 0.951 . S
C165 C166 1.366 . S
C165 C167 1.388 . S
C166 C165 1.366 . S
C166 C170 1.385 . S
C167 H142 0.951 . S
C167 C165 1.388 . S
C167 C168 1.366 . S
C168 C167 1.366 . S
C168 C169 1.414 . S
C168 C171 1.499 . S
C169 H143 0.950 . S
C169 C168 1.414 . S
C169 C170 1.374 . S
C170 H144 0.950 . S
C170 C166 1.385 . S
C170 C169 1.374 . S
C171 C168 1.499 . S
C171 C172 1.373 . S
C171 C173 1.389 . S
C172 H145 0.950 . S
C172 C158 1.377 . S
C172 C171 1.373 . S
C173 C157 1.377 . S
C173 C171 1.389 . S
C173 C174 1.524 . S
C174 C173 1.524 . S
C174 C175 1.397 . S
C174 C179 1.363 . S
C175 H146 0.950 . S
C175 C174 1.397 . S
C175 C176 1.334 . S
C176 H147 0.950 . S
C176 C175 1.334 . S
C176 C177 1.287 . S
C177 C176 1.287 . S
C177 C178 1.524 . S
C177 H180 0.999 . S
C178 H148 0.950 . S
C178 C177 1.524 . S
C178 C179 1.415 . S
C179 H149 0.950 . S
C179 C174 1.363 . S
C179 C178 1.415 . S
H180 C177 0.999 . S
H181 C162 0.913 . S
H182 C200 0.951 . S
H183 C202 0.951 . S
H184 C204 0.950 . S
H185 C205 0.950 . S
H186 C207 0.950 . S
H187 C210 0.950 . S
H188 C211 0.950 . S
H189 C213 0.950 . S
H190 C214 0.950 . S
H191 C215 0.951 . S
H192 C217 0.951 . S
H193 C219 0.950 . S
H194 C220 0.950 . S
H195 C222 0.950 . S
H196 C225 0.950 . S
H197 C226 0.950 . S
H198 C228 0.950 . S
H199 C229 0.950 . S
C200 H182 0.951 . S
C200 C201 1.366 . S
C200 C202 1.388 . S
C201 C200 1.366 . S
C201 C205 1.385 . S
C202 H183 0.951 . S
C202 C200 1.388 . S
C202 C203 1.366 . S
C203 C202 1.366 . S
C203 C204 1.414 . S
C203 C206 1.499 . S
C204 H184 0.950 . S
C204 C203 1.414 . S
C204 C205 1.374 . S
C205 H185 0.950 . S
C205 C201 1.385 . S
C205 C204 1.374 . S
C206 C203 1.499 . S
C206 C207 1.373 . S
C206 C208 1.389 . S
C207 H186 0.950 . S
C207 C206 1.373 . S
C207 C223 1.377 . S
C208 C206 1.389 . S
C208 C209 1.524 . S
C208 C222 1.377 . S
C209 C208 1.524 . S
C209 C210 1.397 . S
C209 C214 1.363 . S
C210 H187 0.950 . S
C210 C209 1.397 . S
C210 C211 1.334 . S
C211 H188 0.950 . S
C211 C210 1.334 . S
C211 C212 1.287 . S
C212 C211 1.287 . S
C212 C213 1.524 . S
C212 H231 0.913 . S
C213 H189 0.950 . S
C213 C212 1.524 . S
C213 C214 1.415 . S
C214 H190 0.950 . S
C214 C209 1.363 . S
C214 C213 1.415 . S
C215 H191 0.951 . S
C215 C216 1.366 . S
C215 C217 1.388 . S
C216 C215 1.366 . S
C216 C220 1.385 . S
C217 H192 0.951 . S
C217 C215 1.388 . S
C217 C218 1.366 . S
C218 C217 1.366 . S
C218 C219 1.414 . S
C218 C221 1.499 . S
C219 H193 0.950 . S
C219 C218 1.414 . S
C219 C220 1.374 . S
C220 H194 0.950 . S
C220 C216 1.385 . S
C220 C219 1.374 . S
C221 C218 1.499 . S
C221 C222 1.373 . S
C221 C223 1.389 . S
C222 H195 0.950 . S
C222 C208 1.377 . S
C222 C221 1.373 . S
C223 C207 1.377 . S
C223 C221 1.389 . S
C223 C224 1.524 . S
C224 C223 1.524 . S
C224 C225 1.397 . S
C224 C229 1.363 . S
C225 H196 0.950 . S
C225 C224 1.397 . S
C225 C226 1.334 . S
C226 H197 0.950 . S
C226 C225 1.334 . S
C226 C227 1.287 . S
C227 C226 1.287 . S
C227 C228 1.524 . S
C227 H230 0.999 . S
C228 H198 0.950 . S
C228 C227 1.524 . S
C228 C229 1.415 . S
C229 H199 0.950 . S
C229 C224 1.363 . S
C229 C228 1.415 . S
H230 C227 0.999 . S
H231 C212 0.913 . S
H232 C250 0.951 . S
H233 C252 0.951 . S
H234 C254 0.950 . S
H235 C255 0.950 . S
H236 C257 0.950 . S
H237 C260 0.950 . S
H238 C261 0.950 . S
H239 C263 0.950 . S
H240 C264 0.950 . S
H241 C265 0.951 . S
H242 C267 0.951 . S
H243 C269 0.950 . S
H244 C270 0.950 . S
H245 C272 0.950 . S
H246 C275 0.950 . S
H247 C276 0.950 . S
H248 C278 0.950 . S
H249 C279 0.950 . S
C250 H232 0.951 . S
C250 C251 1.366 . S
C250 C252 1.388 . S
C251 C250 1.366 . S
C251 C255 1.385 . S
C252 H233 0.951 . S
C252 C250 1.388 . S
C252 C253 1.366 . S
C253 C252 1.366 . S
C253 C254 1.414 . S
C253 C256 1.499 . S
C254 H234 0.950 . S
C254 C253 1.414 . S
C254 C255 1.374 . S
C255 H235 0.950 . S
C255 C251 1.385 . S
C255 C254 1.374 . S
C256 C253 1.499 . S
C256 C257 1.373 . S
C256 C258 1.389 . S
C257 H236 0.950 . S
C257 C256 1.373 . S
C257 C273 1.377 . S
C258 C256 1.389 . S
C258 C259 1.524 . S
C258 C272 1.377 . S
C259 C258 1.524 . S
C259 C260 1.397 . S
C259 C264 1.363 . S
C260 H237 0.950 . S
C260 C259 1.397 . S
C260 C261 1.334 . S
C261 H238 0.950 . S
C261 C260 1.334 . S
C261 C262 1.287 . S
C262 C261 1.287 . S
C262 C263 1.524 . S
C262 H281 0.913 . S
C263 H239 0.950 . S
C263 C262 1.524 . S
C263 C264 1.415 . S
C264 H240 0.950 . S
C264 C259 1.363 . S
C264 C263 1.415 . S
C265 H241 0.951 . S
C265 C266 1.366 . S
C265 C267 1.388 . S
C266 C265 1.366 . S
C266 C270 1.385 . S
C267 H242 0.951 . S
C267 C265 1.388 . S
C267 C268 1.366 . S
C268 C267 1.366 . S
C268 C269 1.414 . S
C268 C271 1.499 . S
C269 H243 0.950 . S
C269 C268 1.414 . S
C269 C270 1.374 . S
C270 H244 0.950 . S
C270 C266 1.385 . S
C270 C269 1.374 . S
C271 C268 1.499 . S
C271 C272 1.373 . S
C271 C273 1.389 . S
C272 H245 0.950 . S
C272 C258 1.377 . S
C272 C271 1.373 . S
C273 C257 1.377 . S
C273 C271 1.389 . S
C273 C274 1.524 . S
C274 C273 1.524 . S
C274 C275 1.397 . S
C274 C279 1.363 . S
C275 H246 0.950 . S
C275 C274 1.397 . S
C275 C276 1.334 . S
C276 H247 0.950 . S
C276 C275 1.334 . S
C276 C277 1.287 . S
C277 C276 1.287 . S
C277 C278 1.524 . S
C277 H280 0.999 . S
C278 H248 0.950 . S
C278 C277 1.524 . S
C278 C279 1.415 . S
C279 H249 0.950 . S
C279 C274 1.363 . S
C279 C278 1.415 . S
H280 C277 0.999 . S
H281 C262 0.913 . S
H282 C300 0.951 . S
H283 C302 0.951 . S
H284 C304 0.950 . S
H285 C305 0.950 . S
H286 C307 0.950 . S
H287 C310 0.950 . S
H288 C311 0.950 . S
H289 C313 0.950 . S
H290 C314 0.950 . S
H291 C315 0.951 . S
H292 C317 0.951 . S
H293 C319 0.950 . S
H294 C320 0.950 . S
H295 C322 0.950 . S
H296 C325 0.950 . S
H297 C326 0.950 . S
H298 C328 0.950 . S
H299 C329 0.950 . S
C300 H282 0.951 . S
C300 C301 1.366 . S
C300 C302 1.388 . S
C301 C300 1.366 . S
C301 C305 1.385 . S
C302 H283 0.951 . S
C302 C300 1.388 . S
C302 C303 1.366 . S
C303 C302 1.366 . S
C303 C304 1.414 . S
C303 C306 1.499 . S
C304 H284 0.950 . S
C304 C303 1.414 . S
C304 C305 1.374 . S
C305 H285 0.950 . S
C305 C301 1.385 . S
C305 C304 1.374 . S
C306 C303 1.499 . S
C306 C307 1.373 . S
C306 C308 1.389 . S
C307 H286 0.950 . S
C307 C306 1.373 . S
C307 C323 1.377 . S
C308 C306 1.389 . S
C308 C309 1.524 . S
C308 C322 1.377 . S
C309 C308 1.524 . S
C309 C310 1.397 . S
C309 C314 1.363 . S
C310 H287 0.950 . S
C310 C309 1.397 . S
C310 C311 1.334 . S
C311 H288 0.950 . S
C311 C310 1.334 . S
C311 C312 1.287 . S
C312 C311 1.287 . S
C312 C313 1.524 . S
C312 H331 0.913 . S
C313 H289 0.950 . S
C313 C312 1.524 . S
C313 C314 1.415 . S
C314 H290 0.950 . S
C314 C309 1.363 . S
C314 C313 1.415 . S
C315 H291 0.951 . S
C315 C316 1.366 . S
C315 C317 1.388 . S
C316 C315 1.366 . S
C316 C320 1.385 . S
C317 H292 0.951 . S
C317 C315 1.388 . S
C317 C318 1.366 . S
C318 C317 1.366 . S
C318 C319 1.414 . S
C318 C321 1.499 . S
C319 H293 0.950 . S
C319 C318 1.414 . S
C319 C320 1.374 . S
C320 H294 0.950 . S
C320 C316 1.385 . S
C320 C319 1.374 . S
C321 C318 1.499 . S
C321 C322 1.373 . S
C321 C323 1.389 . S
C322 H295 0.950 . S
C322 C308 1.377 . S
C322 C321 1.373 . S
C323 C307 1.377 . S
C323 C321 1.389 . S
C323 C324 1.524 . S
C324 C323 1.524 . S
C324 C325 1.397 . S
C324 C329 1.363 . S
C325 H296 0.950 . S
C325 C324 1.397 . S
C325 C326 1.334 . S
C326 H297 0.950 . S
C326 C325 1.334 . S
C326 C327 1.287 . S
C327 C326 1.287 . S
C327 C328 1.524 . S
C327 H330 0.999 . S
C328 H298 0.950 . S
C328 C327 1.524 . S
C328 C329 1.415 . S
C329 H299 0.950 . S
C329 C324 1.363 . S
C329 C328 1.415 . S
H330 C327 0.999 . S
H331 C312 0.913 . S
H332 C350 0.951 . S
H333 C352 0.951 . S
H334 C354 0.950 . S
H335 C355 0.950 . S
H336 C357 0.950 . S
H337 C360 0.950 . S
H338 C361 0.950 . S
H339 C363 0.950 . S
H340 C364 0.929 1_455 S
H341 C365 0.951 1_556 S
H342 C367 0.951 1_556 S
H343 C369 0.950 . S
H344 C370 0.950 . S
H345 C372 0.950 . S
H346 C375 0.950 . S
H347 C376 0.950 1_554 S
H348 C378 0.950 1_655 S
H349 C379 0.950 . S
C350 H332 0.951 . S
C350 C351 1.366 . S
C350 C352 1.388 . S
C351 C350 1.366 . S
C351 C355 1.385 . S
C352 H333 0.951 . S
C352 C350 1.388 . S
C352 C353 1.366 . S
C353 C352 1.366 . S
C353 C354 1.414 . S
C353 C356 1.499 . S
C354 H334 0.950 . S
C354 C353 1.414 . S
C354 C355 1.374 . S
C355 H335 0.950 . S
C355 C351 1.385 . S
C355 C354 1.374 . S
C356 C353 1.499 . S
C356 C357 1.373 . S
C356 C358 1.389 . S
C357 H336 0.950 . S
C357 C356 1.373 . S
C357 C373 1.377 1_655 S
C358 C356 1.389 . S
C358 C359 1.524 . S
C358 C372 1.377 1_655 S
C359 C358 1.524 . S
C359 C360 1.397 . S
C359 C364 1.363 . S
C360 H337 0.950 . S
C360 C359 1.397 . S
C360 C361 1.334 . S
C361 H338 0.950 . S
C361 C360 1.334 . S
C361 C362 1.287 . S
C362 C361 1.287 . S
C362 C363 1.524 . S
C362 H381 0.913 . S
C363 H339 0.950 . S
C363 C362 1.524 . S
C363 C364 1.415 . S
C364 H340 0.929 1_655 S
C364 C359 1.363 . S
C364 C363 1.415 . S
C365 H341 0.951 1_554 S
C365 C366 1.366 . S
C365 C367 1.388 . S
C366 C365 1.366 . S
C366 C370 1.385 . S
C367 H342 0.951 1_554 S
C367 C365 1.388 . S
C367 C368 1.366 . S
C368 C367 1.366 . S
C368 C369 1.414 . S
C368 C371 1.499 . S
C369 H343 0.950 . S
C369 C368 1.414 . S
C369 C370 1.374 . S
C370 H344 0.950 . S
C370 C366 1.385 . S
C370 C369 1.374 . S
C371 C368 1.499 . S
C371 C372 1.373 . S
C371 C373 1.389 . S
C372 H345 0.950 . S
C372 C358 1.377 1_455 S
C372 C371 1.373 . S
C373 C357 1.377 1_455 S
C373 C371 1.389 . S
C373 C374 1.524 . S
C374 C373 1.524 . S
C374 C375 1.397 . S
C374 C379 1.363 1_454 S
C375 H346 0.950 . S
C375 C374 1.397 . S
C375 C376 1.334 1_554 S
C376 H347 0.950 1_556 S
C376 C375 1.334 1_556 S
C376 C377 1.287 . S
C377 C376 1.287 . S
C377 C378 1.524 . S
C377 H380 0.999 . S
C378 H348 0.950 1_455 S
C378 C377 1.524 . S
C378 C379 1.415 1_455 S
C379 H349 0.950 . S
C379 C374 1.363 1_656 S
C379 C378 1.415 1_655 S
H380 C377 0.999 . S
H381 C362 0.913 . S
H382 C400 0.951 . S
H383 C402 0.951 . S
H384 C404 0.950 . S
H385 C405 0.950 . S
H386 C407 0.950 . S
H387 C410 0.950 . S
H388 C411 0.950 . S
H389 C413 0.950 . S
H390 C414 0.950 . S
H391 C415 0.951 . S
H392 C417 0.951 . S
H393 C419 0.950 1_556 S
H394 C420 0.950 1_556 S
H395 C422 0.950 . S
H396 C425 0.950 . S
H397 C426 0.950 . S
H398 C428 0.950 . S
H399 C429 0.950 . S
C400 H382 0.951 . S
C400 C401 1.366 . S
C400 C402 1.388 . S
C401 C400 1.366 . S
C401 C405 1.385 . S
C402 H383 0.951 . S
C402 C400 1.388 . S
C402 C403 1.366 . S
C403 C402 1.366 . S
C403 C404 1.414 . S
C403 C406 1.499 . S
C404 H384 0.950 . S
C404 C403 1.414 . S
C404 C405 1.374 . S
C405 H385 0.950 . S
C405 C401 1.385 . S
C405 C404 1.374 . S
C406 C403 1.499 . S
C406 C407 1.373 . S
C406 C408 1.389 . S
C407 H386 0.950 . S
C407 C406 1.373 . S
C407 C423 1.377 1_565 S
C408 C406 1.389 . S
C408 C409 1.524 . S
C408 C422 1.377 1_565 S
C409 C408 1.524 . S
C409 C410 1.397 . S
C409 C414 1.363 1_554 S
C410 H387 0.950 . S
C410 C409 1.397 . S
C410 C411 1.334 . S
C411 H388 0.950 . S
C411 C410 1.334 . S
C411 C412 1.287 . S
C412 C411 1.287 . S
C412 C413 1.524 1_554 S
C412 H431 0.913 . S
C413 H389 0.950 . S
C413 C412 1.524 1_556 S
C413 C414 1.415 . S
C414 H390 0.950 . S
C414 C409 1.363 1_556 S
C414 C413 1.415 . S
C415 H391 0.951 . S
C415 C416 1.366 . S
C415 C417 1.388 . S
C416 C415 1.366 . S
C416 C420 1.385 . S
C417 H392 0.951 . S
C417 C415 1.388 . S
C417 C418 1.366 . S
C418 C417 1.366 . S
C418 C419 1.414 . S
C418 C421 1.499 . S
C419 H393 0.950 1_554 S
C419 C418 1.414 . S
C419 C420 1.374 . S
C420 H394 0.950 1_554 S
C420 C416 1.385 . S
C420 C419 1.374 . S
C421 C418 1.499 . S
C421 C422 1.373 . S
C421 C423 1.389 . S
C422 H395 0.950 . S
C422 C408 1.377 1_545 S
C422 C421 1.373 . S
C423 C407 1.377 1_545 S
C423 C421 1.389 . S
C423 C424 1.524 . S
C424 C423 1.524 . S
C424 C425 1.397 . S
C424 C429 1.363 . S
C425 H396 0.950 . S
C425 C424 1.397 . S
C425 C426 1.334 . S
C426 H397 0.950 . S
C426 C425 1.334 . S
C426 C427 1.287 . S
C427 C426 1.287 . S
C427 C428 1.524 . S
C427 H430 0.999 . S
C428 H398 0.950 . S
C428 C427 1.524 . S
C428 C429 1.415 . S
C429 H399 0.950 . S
C429 C424 1.363 . S
C429 C428 1.415 . S
H430 C427 0.999 . S
H431 C412 0.913 . S
H432 C450 0.951 . S
H433 C452 0.951 1_556 S
H434 C454 0.950 . S
H435 C455 0.950 . S
H436 C457 0.950 . S
H437 C460 0.950 . S
H438 C461 0.950 . S
H439 C463 0.950 . S
H440 C464 0.950 . S
H441 C465 0.951 . S
H442 C467 0.951 . S
H443 C469 0.950 1_556 S
H444 C470 0.950 . S
H445 C472 0.950 . S
H446 C475 0.950 . S
H447 C476 0.950 . S
H448 C478 0.950 . S
H449 C479 0.950 . S
C450 H432 0.951 . S
C450 C451 1.366 1_556 S
C450 C452 1.388 1_556 S
C451 C450 1.366 1_554 S
C451 C455 1.385 . S
C452 H433 0.951 1_554 S
C452 C450 1.388 1_554 S
C452 C453 1.365 . S
C453 C452 1.365 . S
C453 C454 1.414 . S
C453 C456 1.499 . S
C454 H434 0.950 . S
C454 C453 1.414 . S
C454 C455 1.374 . S
C455 H435 0.950 . S
C455 C451 1.385 . S
C455 C454 1.374 . S
C456 C453 1.499 . S
C456 C457 1.373 . S
C456 C458 1.389 1_554 S
C457 H436 0.950 . S
C457 C456 1.373 . S
C457 C473 1.377 . S
C458 C456 1.389 1_556 S
C458 C459 1.524 . S
C458 C472 1.377 . S
C459 C458 1.524 . S
C459 C460 1.397 . S
C459 C464 1.363 . S
C460 H437 0.950 . S
C460 C459 1.397 . S
C460 C461 1.334 . S
C461 H438 0.950 . S
C461 C460 1.334 . S
C461 C462 1.287 . S
C462 C461 1.287 . S
C462 C463 1.524 . S
C462 H481 0.913 . S
C463 H439 0.950 . S
C463 C462 1.524 . S
C463 C464 1.415 . S
C464 H440 0.950 . S
C464 C459 1.363 . S
C464 C463 1.415 . S
C465 H441 0.951 . S
C465 C466 1.366 . S
C465 C467 1.388 . S
C466 C465 1.366 . S
C466 C470 1.385 . S
C467 H442 0.951 . S
C467 C465 1.388 . S
C467 C468 1.366 . S
C468 C467 1.366 . S
C468 C469 1.414 . S
C468 C471 1.499 . S
C469 H443 0.950 1_554 S
C469 C468 1.414 . S
C469 C470 1.374 . S
C470 H444 0.950 . S
C470 C466 1.385 . S
C470 C469 1.374 . S
C471 C468 1.499 . S
C471 C472 1.373 1_554 S
C471 C473 1.389 . S
C472 H445 0.950 . S
C472 C458 1.377 . S
C472 C471 1.373 1_556 S
C473 C457 1.377 . S
C473 C471 1.389 . S
C473 C474 1.524 . S
C474 C473 1.524 . S
C474 C475 1.397 . S
C474 C479 1.363 . S
C475 H446 0.950 . S
C475 C474 1.397 . S
C475 C476 1.334 . S
C476 H447 0.950 . S
C476 C475 1.334 . S
C476 C477 1.287 . S
C477 C476 1.287 . S
C477 C478 1.524 . S
C477 H480 0.999 . S
C478 H448 0.950 . S
C478 C477 1.524 . S
C478 C479 1.415 . S
C479 H449 0.950 . S
C479 C474 1.363 . S
C479 C478 1.415 . S
H480 C477 0.999 . S
H481 C462 0.913 . S
H482 C500 0.951 . S
H483 C502 0.951 . S
H484 C504 0.950 . S
H485 C505 0.950 . S
H486 C507 0.950 . S
H487 C510 0.950 . S
H488 C511 0.950 . S
H489 C513 0.950 . S
H490 C514 0.950 . S
H491 C515 0.951 . S
H492 C517 0.951 . S
H493 C519 0.950 1_556 S
H494 C520 0.950 1_556 S
H495 C522 0.950 . S
H496 C525 0.950 . S
H497 C526 0.950 . S
H498 C528 0.950 . S
H499 C529 0.950 . S
C500 H482 0.951 . S
C500 C501 1.366 . S
C500 C502 1.388 . S
C501 C500 1.366 . S
C501 C505 1.385 . S
C502 H483 0.951 . S
C502 C500 1.388 . S
C502 C503 1.366 . S
C503 C502 1.366 . S
C503 C504 1.414 . S
C503 C506 1.499 . S
C504 H484 0.950 . S
C504 C503 1.414 . S
C504 C505 1.374 . S
C505 H485 0.950 . S
C505 C501 1.385 . S
C505 C504 1.374 . S
C506 C503 1.499 . S
C506 C507 1.373 . S
C506 C508 1.389 . S
C507 H486 0.950 . S
C507 C506 1.373 . S
C507 C523 1.377 . S
C508 C506 1.389 . S
C508 C509 1.524 1_554 S
C508 C522 1.377 . S
C509 C508 1.524 1_556 S
C509 C510 1.397 1_556 S
C509 C514 1.363 . S
C510 H487 0.950 . S
C510 C509 1.397 1_554 S
C510 C511 1.334 1_554 S
C511 H488 0.950 . S
C511 C510 1.334 1_556 S
C511 C512 1.287 . S
C512 C511 1.287 . S
C512 C513 1.524 . S
C512 H531 0.913 . S
C513 H489 0.950 . S
C513 C512 1.524 . S
C513 C514 1.415 . S
C514 H490 0.950 . S
C514 C509 1.363 . S
C514 C513 1.415 . S
C515 H491 0.951 . S
C515 C516 1.366 . S
C515 C517 1.388 . S
C516 C515 1.366 . S
C516 C520 1.385 . S
C517 H492 0.951 . S
C517 C515 1.388 . S
C517 C518 1.366 . S
C518 C517 1.366 . S
C518 C519 1.414 . S
C518 C521 1.499 . S
C519 H493 0.950 1_554 S
C519 C518 1.414 . S
C519 C520 1.374 . S
C520 H494 0.950 1_554 S
C520 C516 1.385 . S
C520 C519 1.374 . S
C521 C518 1.499 . S
C521 C522 1.373 . S
C521 C523 1.389 . S
C522 H495 0.950 . S
C522 C508 1.377 . S
C522 C521 1.373 . S
C523 C507 1.377 . S
C523 C521 1.389 . S
C523 C524 1.524 . S
C524 C523 1.524 . S
C524 C525 1.397 . S
C524 C529 1.363 . S
C525 H496 0.950 . S
C525 C524 1.397 . S
C525 C526 1.334 . S
C526 H497 0.950 . S
C526 C525 1.334 . S
C526 C527 1.287 . S
C527 C526 1.287 . S
C527 C528 1.524 . S
C527 H530 0.999 . S
C528 H498 0.950 . S
C528 C527 1.524 . S
C528 C529 1.415 . S
C529 H499 0.950 . S
C529 C524 1.363 . S
C529 C528 1.415 . S
H530 C527 0.999 . S
H531 C512 0.913 . S
H532 C550 0.951 . S
H533 C552 0.951 . S
H534 C554 0.950 . S
H535 C555 0.950 . S
H536 C557 0.950 . S
H537 C560 0.950 . S
H538 C561 0.950 . S
H539 C563 0.950 . S
H540 C564 0.950 . S
H541 C565 0.951 . S
H542 C567 0.951 . S
H543 C569 0.950 . S
H544 C570 0.950 . S
H545 C572 0.950 . S
H546 C575 0.950 . S
H547 C576 0.950 . S
H548 C578 0.950 . S
H549 C579 0.950 . S
C550 H532 0.951 . S
C550 C551 1.366 . S
C550 C552 1.388 . S
C551 C550 1.366 . S
C551 C555 1.385 . S
C552 H533 0.951 . S
C552 C550 1.388 . S
C552 C553 1.366 . S
C553 C552 1.366 . S
C553 C554 1.414 . S
C553 C556 1.499 . S
C554 H534 0.950 . S
C554 C553 1.414 . S
C554 C555 1.374 . S
C555 H535 0.950 . S
C555 C551 1.385 . S
C555 C554 1.374 . S
C556 C553 1.499 . S
C556 C557 1.373 . S
C556 C558 1.389 . S
C557 H536 0.950 . S
C557 C556 1.373 . S
C557 C573 1.377 . S
C558 C556 1.389 . S
C558 C559 1.524 . S
C558 C572 1.377 . S
C559 C558 1.524 . S
C559 C560 1.397 . S
C559 C564 1.363 . S
C560 H537 0.950 . S
C560 C559 1.397 . S
C560 C561 1.334 . S
C561 H538 0.950 . S
C561 C560 1.334 . S
C561 C562 1.287 . S
C562 C561 1.287 . S
C562 C563 1.524 . S
C562 H581 0.913 . S
C563 H539 0.950 . S
C563 C562 1.524 . S
C563 C564 1.415 . S
C564 H540 0.950 . S
C564 C559 1.363 . S
C564 C563 1.415 . S
C565 H541 0.951 . S
C565 C566 1.366 . S
C565 C567 1.388 . S
C566 C565 1.366 . S
C566 C570 1.385 . S
C567 H542 0.951 . S
C567 C565 1.388 . S
C567 C568 1.366 . S
C568 C567 1.366 . S
C568 C569 1.414 . S
C568 C571 1.499 . S
C569 H543 0.950 . S
C569 C568 1.414 . S
C569 C570 1.374 . S
C570 H544 0.950 . S
C570 C566 1.385 . S
C570 C569 1.374 . S
C571 C568 1.499 . S
C571 C572 1.373 . S
C571 C573 1.389 . S
C572 H545 0.950 . S
C572 C558 1.377 . S
C572 C571 1.373 . S
C573 C557 1.377 . S
C573 C571 1.389 . S
C573 C574 1.524 . S
C574 C573 1.524 . S
C574 C575 1.397 . S
C574 C579 1.363 . S
C575 H546 0.950 . S
C575 C574 1.397 . S
C575 C576 1.334 1_554 S
C576 H547 0.950 . S
C576 C575 1.334 1_556 S
C576 C577 1.287 . S
C577 C576 1.287 . S
C577 C578 1.524 . S
C577 H580 0.999 . S
C578 H548 0.950 . S
C578 C577 1.524 . S
C578 C579 1.415 1_556 S
C579 H549 0.950 . S
C579 C574 1.363 . S
C579 C578 1.415 1_554 S
H580 C577 0.999 . S
H581 C562 0.913 . S
H582 C600 0.951 . S
H583 C602 0.951 . S
H584 C604 0.950 . S
H585 C605 0.950 . S
H586 C607 0.950 . S
H587 C610 0.950 . S
H588 C611 0.950 . S
H589 C613 0.950 . S
H590 C614 0.950 . S
H591 C615 0.951 . S
H592 C617 0.951 . S
H593 C619 0.950 . S
H594 C620 0.950 . S
H595 C622 0.950 . S
H596 C625 0.950 . S
H597 C626 0.950 . S
H598 C628 0.950 . S
H599 C629 0.950 . S
C600 H582 0.951 . S
C600 C601 1.366 . S
C600 C602 1.388 . S
C601 C600 1.366 . S
C601 C605 1.385 . S
C602 H583 0.951 . S
C602 C600 1.388 . S
C602 C603 1.366 . S
C603 C602 1.366 . S
C603 C604 1.414 . S
C603 C606 1.499 . S
C604 H584 0.950 . S
C604 C603 1.414 . S
C604 C605 1.374 . S
C605 H585 0.950 . S
C605 C601 1.385 . S
C605 C604 1.374 . S
C606 C603 1.499 . S
C606 C607 1.373 . S
C606 C608 1.389 . S
C607 H586 0.950 . S
C607 C606 1.373 . S
C607 C623 1.377 . S
C608 C606 1.389 . S
C608 C609 1.524 1_554 S
C608 C622 1.377 . S
C609 C608 1.524 1_556 S
C609 C610 1.397 . S
C609 C614 1.363 . S
C610 H587 0.950 . S
C610 C609 1.397 . S
C610 C611 1.334 . S
C611 H588 0.950 . S
C611 C610 1.334 . S
C611 C612 1.287 . S
C612 C611 1.287 . S
C612 C613 1.524 . S
C612 H631 0.913 . S
C613 H589 0.950 . S
C613 C612 1.524 . S
C613 C614 1.415 . S
C614 H590 0.950 . S
C614 C609 1.363 . S
C614 C613 1.415 . S
C615 H591 0.951 . S
C615 C616 1.366 . S
C615 C617 1.388 . S
C616 C615 1.366 . S
C616 C620 1.385 . S
C617 H592 0.951 . S
C617 C615 1.388 . S
C617 C618 1.366 . S
C618 C617 1.366 . S
C618 C619 1.414 . S
C618 C621 1.499 . S
C619 H593 0.950 . S
C619 C618 1.414 . S
C619 C620 1.374 . S
C620 H594 0.950 . S
C620 C616 1.385 . S
C620 C619 1.374 . S
C621 C618 1.499 . S
C621 C622 1.373 . S
C621 C623 1.389 . S
C622 H595 0.950 . S
C622 C608 1.377 . S
C622 C621 1.373 . S
C623 C607 1.377 . S
C623 C621 1.389 . S
C623 C624 1.524 . S
C624 C623 1.524 . S
C624 C625 1.397 . S
C624 C629 1.363 . S
C625 H596 0.950 . S
C625 C624 1.397 . S
C625 C626 1.334 . S
C626 H597 0.950 . S
C626 C625 1.334 . S
C626 C627 1.287 . S
C627 C626 1.287 . S
C627 C628 1.524 . S
C627 H630 0.999 . S
C628 H598 0.950 . S
C628 C627 1.524 . S
C628 C629 1.415 . S
C629 H599 0.950 . S
C629 C624 1.363 . S
C629 C628 1.415 . S
H630 C627 0.999 . S
H631 C612 0.913 . S
C151 N14 1.443 . S
C166 N5 1.450 . S
C201 N47 1.451 . S
C216 N38 1.459 . S
C251 N71 1.460 . S
C266 N80 1.452 . S
C301 N104 1.450 . S
C316 N113 1.444 . S
C351 C94 0.851 . S
C366 C28 0.851 . S
C401 C127 0.851 . S
C416 C61 0.851 . S
C451 C41 1.415 . S
C466 C17 1.432 . S
C501 C83 1.167 . S
C516 C50 1.167 . S
C551 C116 1.431 . S
C566 C74 1.415 . S
C601 C107 1.727 . S
C616 C8 1.727 . S
