# Generated by pormake.
# Topology tfs, (6)-cn, num edge types: 1
# Building blocks:
#     Node 0, Type 0, BuildingBlock: MIDCAF_clean_sbu_0, # of connection points: 6
#     Node 1, Type 0, BuildingBlock: MIDCAF_clean_sbu_0, # of connection points: 6
#     Node 2, Type 0, BuildingBlock: MIDCAF_clean_sbu_0, # of connection points: 6
#     Node 3, Type 0, BuildingBlock: MIDCAF_clean_sbu_0, # of connection points: 6
#     Node 4, Type 0, BuildingBlock: MIDCAF_clean_sbu_0, # of connection points: 6
#     Node 5, Type 0, BuildingBlock: MIDCAF_clean_sbu_0, # of connection points: 6
#     Edge 6, Type (0, 0), BuildingBlock: AJUNOK_clean_linker_0, # of connection points: 2
#     Edge 7, Type (0, 0), BuildingBlock: AJUNOK_clean_linker_0, # of connection points: 2
#     Edge 8, Type (0, 0), BuildingBlock: AJUNOK_clean_linker_0, # of connection points: 2
#     Edge 9, Type (0, 0), BuildingBlock: AJUNOK_clean_linker_0, # of connection points: 2
#     Edge 10, Type (0, 0), BuildingBlock: AJUNOK_clean_linker_0, # of connection points: 2
#     Edge 11, Type (0, 0), BuildingBlock: AJUNOK_clean_linker_0, # of connection points: 2
#     Edge 12, Type (0, 0), BuildingBlock: AJUNOK_clean_linker_0, # of connection points: 2
#     Edge 13, Type (0, 0), BuildingBlock: AJUNOK_clean_linker_0, # of connection points: 2
#     Edge 14, Type (0, 0), BuildingBlock: AJUNOK_clean_linker_0, # of connection points: 2
#     Edge 15, Type (0, 0), BuildingBlock: AJUNOK_clean_linker_0, # of connection points: 2
#     Edge 16, Type (0, 0), BuildingBlock: AJUNOK_clean_linker_0, # of connection points: 2
#     Edge 17, Type (0, 0), BuildingBlock: AJUNOK_clean_linker_0, # of connection points: 2
#     Edge 18, Type (0, 0), BuildingBlock: AJUNOK_clean_linker_0, # of connection points: 2
#     Edge 19, Type (0, 0), BuildingBlock: AJUNOK_clean_linker_0, # of connection points: 2
#     Edge 20, Type (0, 0), BuildingBlock: AJUNOK_clean_linker_0, # of connection points: 2
#     Edge 21, Type (0, 0), BuildingBlock: AJUNOK_clean_linker_0, # of connection points: 2
#     Edge 22, Type (0, 0), BuildingBlock: AJUNOK_clean_linker_0, # of connection points: 2
#     Edge 23, Type (0, 0), BuildingBlock: AJUNOK_clean_linker_0, # of connection points: 2
# Relax obj value: 0.134
# Max RMSD: 0.124
# Mean RMSD: 0.124
data_MOF--net-tfs--node1-MIDCAF_clean_sbu_0--edge1-AJUNOK_clean_linker_0
_symmetry_space_group_name_H-M    P1
_symmetry_Int_Tables_number       1
_symmetry_cell_setting            triclinic
loop_
_symmetry_equiv_pos_as_xyz
'x, y, z'
_cell_length_a     31.428158
_cell_length_b     31.205427
_cell_length_c     11.258207
_cell_angle_alpha  90.052478
_cell_angle_beta   89.54027
_cell_angle_gamma 119.89691
loop_
_atom_site_label
_atom_site_type_symbol
_atom_site_fract_x
_atom_site_fract_y
_atom_site_fract_z
_atom_type_partial_charge
Zn0 Zn 0.16687 0.43207 0.79772 0.0
Zn1 Zn 0.28547 0.41652 0.20785 0.0
Zn2 Zn 0.1907 0.40081 0.94717 0.0
C3 C 0.25154 0.3616 0.96707 0.0
C4 C 0.17369 0.36516 0.17932 0.0
O5 O 0.22228 0.48319 0.96157 0.0
O6 O 0.17785 0.49754 0.83551 0.0
C7 C 0.19516 0.38467 0.66883 0.0
O8 O 0.22399 0.3563 0.87927 0.0
O9 O 0.2494 0.38673 0.05225 0.0
O10 O 0.2172 0.3888 0.14089 0.0
O11 O 0.14129 0.35989 0.10395 0.0
O12 O 0.20417 0.42868 0.66204 0.0
O13 O 0.18778 0.36418 0.772 0.0
O14 O 0.11289 0.36338 0.99805 0.0
O15 O 0.09838 0.37614 0.81418 0.0
C16 C 0.08261 0.35428 0.91249 0.0
O17 O 0.26265 0.47342 1.00207 0.0
O18 O 0.31726 0.48659 0.14926 0.0
C19 C 0.20977 0.51315 0.91555 0.0
C20 C 0.30283 0.50193 0.06116 0.0
Zn21 Zn 0.70986 0.18722 0.78852 0.0
Zn22 Zn 0.82541 0.25195 0.07092 0.0
Zn23 Zn 0.76586 0.19956 0.94461 0.0
C24 C 0.87404 0.2746 0.88759 0.0
C25 C 0.80466 0.16935 0.16366 0.0
O26 O 0.71109 0.22708 0.97115 0.0
O27 O 0.65797 0.20293 0.82507 0.0
C28 C 0.78346 0.2063 0.65542 0.0
O29 O 0.84048 0.23005 0.8666 0.0
O30 O 0.86142 0.30152 0.94268 0.0
O31 O 0.84481 0.20257 0.12047 0.0
O32 O 0.76565 0.15756 0.10346 0.0
O33 O 0.75129 0.21911 0.64995 0.0
O34 O 0.79535 0.1973 0.75844 0.0
O35 O 0.72697 0.12084 0.97487 0.0
O36 O 0.69079 0.11595 0.80452 0.0
C37 C 0.7001 0.0949 0.88818 0.0
O38 O 0.75766 0.26221 0.02242 0.0
O39 O 0.79852 0.27838 0.19034 0.0
C40 C 0.67161 0.22299 0.92513 0.0
C41 C 0.77251 0.28711 0.12049 0.0
Zn42 Zn 0.56459 0.82897 0.04423 0.0
Zn43 Zn 0.56092 0.71404 0.78671 0.0
Zn44 Zn 0.58072 0.77682 0.92891 0.0
C45 C 0.64552 0.73221 0.918 0.0
C46 C 0.59954 0.79015 0.65102 0.0
O47 O 0.50087 0.75236 0.96753 0.0
O48 O 0.49954 0.7944 0.12361 0.0
C49 C 0.63503 0.8213 0.16688 0.0
O50 O 0.62978 0.75213 0.99383 0.0
O51 O 0.62402 0.71736 0.81975 0.0
O52 O 0.55978 0.74974 0.64654 0.0
O53 O 0.61678 0.80944 0.75305 0.0
O54 O 0.62289 0.85336 0.14506 0.0
O55 O 0.6211 0.78448 0.09518 0.0
O56 O 0.61784 0.85119 0.84615 0.0
O57 O 0.56814 0.87479 0.92027 0.0
C58 C 0.60464 0.88392 0.85608 0.0
O59 O 0.50278 0.71118 0.92585 0.0
O60 O 0.50053 0.65131 0.81672 0.0
C61 C 0.47644 0.7623 0.04546 0.0
C62 C 0.47924 0.66638 0.88614 0.0
Zn63 Zn 0.74252 0.58261 0.23845 0.0
Zn64 Zn 0.8497 0.56153 1.00871 0.0
Zn65 Zn 0.80528 0.5845 0.11368 0.0
C66 C 0.91631 0.64457 0.10497 0.0
C67 C 0.81648 0.58993 0.84662 0.0
O68 O 0.73903 0.50836 0.12972 0.0
O69 O 0.68326 0.51647 0.23226 0.0
C70 C 0.82529 0.6233 0.3738 0.0
O71 O 0.88163 0.62598 0.18385 0.0
O72 O 0.90812 0.62653 1.00241 0.0
O73 O 0.80971 0.54702 0.86521 0.0
O74 O 0.81662 0.61591 0.93549 0.0
O75 O 0.77934 0.60381 0.38182 0.0
O76 O 0.84558 0.62134 0.27579 0.0
O77 O 0.78451 0.63149 0.01246 0.0
O78 O 0.74189 0.63765 0.16139 0.0
C79 C 0.7618 0.65182 0.0608 0.0
O80 O 0.77882 0.50321 0.11473 0.0
O81 O 0.8506 0.50732 0.0997 0.0
C82 C 0.69502 0.4897 0.17266 0.0
C83 C 0.80536 0.4825 0.12291 0.0
Zn84 Zn 0.15277 0.69982 0.27766 0.0
Zn85 Zn 0.29395 0.8418 0.89386 0.0
Zn86 Zn 0.22174 0.79711 1.00338 0.0
C87 C 0.29785 0.91423 0.02238 0.0
C88 C 0.21714 0.8236 0.739 0.0
O89 O 0.22345 0.72395 0.06176 0.0
O90 O 0.19105 0.66906 0.21457 0.0
C91 C 0.20178 0.81191 0.23879 0.0
O92 O 0.25664 0.87707 0.05712 0.0
O93 O 0.32794 0.90635 0.96581 0.0
O94 O 0.26299 0.84571 0.75062 0.0
O95 O 0.1895 0.79746 0.82623 0.0
O96 O 0.18626 0.7679 0.20735 0.0
O97 O 0.22567 0.8441 0.15846 0.0
O98 O 0.14456 0.76361 0.9522 0.0
O99 O 0.14891 0.73117 0.11716 0.0
C100 C 0.12196 0.73545 0.04055 0.0
O101 O 0.27052 0.76478 1.00831 0.0
O102 O 0.32972 0.80673 0.87805 0.0
C103 C 0.21648 0.68411 0.11866 0.0
C104 C 0.30969 0.77228 0.95281 0.0
Zn105 Zn 0.43219 0.33231 0.99268 0.0
Zn106 Zn 0.42441 0.1795 0.25613 0.0
Zn107 Zn 0.40595 0.22613 0.1176 0.0
C108 C 0.35477 0.11632 0.08389 0.0
C109 C 0.3717 0.20246 0.39531 0.0
O110 O 0.48447 0.28854 0.08871 0.0
O111 O 0.50071 0.35043 0.96267 0.0
C112 C 0.36257 0.2319 0.8725 0.0
O113 O 0.36688 0.15604 0.02465 0.0
O114 O 0.37269 0.11865 0.18495 0.0
O115 O 0.40332 0.18931 0.40758 0.0
O116 O 0.36627 0.21808 0.29346 0.0
O117 O 0.38344 0.27835 0.88723 0.0
O118 O 0.36827 0.20394 0.9476 0.0
O119 O 0.36041 0.25189 0.20334 0.0
O120 O 0.42137 0.32323 0.16708 0.0
C121 C 0.37576 0.29731 0.18085 0.0
O122 O 0.48461 0.24301 0.1183 0.0
O123 O 0.49196 0.1919 0.23962 0.0
C124 C 0.51525 0.32884 0.03288 0.0
C125 C 0.51086 0.2258 0.16293 0.0
C126 C 0.29583 0.27753 0.0789 0.0
C127 C 0.3443 0.31209 0.1123 0.0
C128 C 0.26669 0.29229 0.01494 0.0
C129 C 0.28528 0.34184 0.97988 0.0
H130 H 0.27973 0.23918 0.10546 0.0
H131 H 0.2284 0.26552 1.00052 0.0
S132 S 0.40959 0.44653 0.04004 0.0
N133 N 0.40909 0.39847 0.10249 0.0
N134 N 0.35518 0.42472 0.97886 0.0
C135 C 0.3342 0.37591 1.007 0.0
C136 C 0.36333 0.36154 0.0744 0.0
C137 C 0.00206 0.29549 0.82365 0.0
C138 C 0.0288 0.3227 0.92373 0.0
C139 C 0.95134 0.27726 0.81446 0.0
C140 C 0.92585 0.28682 0.90342 0.0
H141 H 0.02107 0.29059 0.74873 0.0
H142 H 0.93275 0.25803 0.73485 0.0
S143 S 0.97731 0.34869 0.19257 0.0
N144 N 0.02487 0.35246 0.11984 0.0
N145 N 0.92988 0.31877 0.10389 0.0
C146 C 0.95151 0.31032 1.00857 0.0
C147 C 0.00291 0.3281 0.01842 0.0
C148 C 0.64164 0.01468 0.79382 0.0
C149 C 0.67998 0.04068 0.8757 0.0
C150 C 0.62134 0.96391 0.77514 0.0
C151 C 0.63888 0.9368 0.83574 0.0
H152 H 0.62566 0.03329 0.74615 0.0
H153 H 0.58943 0.94511 0.71881 0.0
S154 S 0.74042 0.98658 0.05347 0.0
N155 N 0.7364 0.03534 0.01303 0.0
N156 N 0.69806 0.93943 0.97751 0.0
C157 C 0.67879 0.96241 0.9132 0.0
C158 C 0.69921 0.01434 0.93373 0.0
C159 C 0.72324 0.67087 0.89578 0.0
C160 C 0.75083 0.68652 0.99959 0.0
C161 C 0.69134 0.68834 0.86725 0.0
C162 C 0.68593 0.72198 0.94179 0.0
H163 H 0.72203 0.64104 0.84377 0.0
H164 H 0.66822 0.6724 0.79038 0.0
S165 S 0.76093 0.78397 0.20588 0.0
N166 N 0.7786 0.7444 0.16437 0.0
N167 N 0.71911 0.77799 0.10905 0.0
C168 C 0.71813 0.74254 0.0372 0.0
C169 C 0.75072 0.7248 0.06603 0.0
C170 C 0.0433 0.7372 0.02338 0.0
C171 C 0.06902 0.71463 0.06746 0.0
C172 C 0.99378 0.71898 0.05384 0.0
C173 C 0.9683 0.67778 0.12984 0.0
H174 H 0.06117 0.7684 0.96314 0.0
H175 H 0.97404 0.73452 1.0095 0.0
S176 S 0.01916 0.60669 0.27302 0.0
N177 N 0.06528 0.64952 0.19424 0.0
N178 N 0.97292 0.61676 0.25283 0.0
C179 C 0.99444 0.65713 0.1806 0.0
C180 C 0.04446 0.67487 0.14819 0.0
C181 C 0.28011 0.97963 0.10027 0.0
C182 C 0.30735 0.966 0.02563 0.0
C183 C 0.29064 0.02899 0.10533 0.0
C184 C 0.32816 0.06626 0.03473 0.0
H185 H 0.25223 0.95265 0.15923 0.0
H186 H 0.27219 0.03893 0.17242 0.0
S187 S 0.40532 0.04914 0.81188 0.0
N188 N 0.36961 0.99344 0.86775 0.0
N189 N 0.38939 0.08563 0.88139 0.0
C190 C 0.35263 0.05243 0.95288 0.0
C191 C 0.34241 0.00252 0.94776 0.0
C192 C 0.23674 0.61591 0.13259 0.0
C193 C 0.23012 0.64944 0.06178 0.0
C194 C 0.23567 0.57395 0.0831 0.0
C195 C 0.22764 0.56395 0.96109 0.0
H196 H 0.23937 0.62027 0.22818 0.0
H197 H 0.2368 0.54716 0.14218 0.0
S198 S 0.21698 0.64415 0.73382 0.0
N199 N 0.22112 0.6723 0.8609 0.0
N200 N 0.22106 0.59492 0.76805 0.0
C201 C 0.22639 0.5999 0.88788 0.0
C202 C 0.22705 0.64225 0.93811 0.0
C203 C 0.56826 0.24927 0.98912 0.0
C204 C 0.55959 0.23905 0.11141 0.0
C205 C 0.60718 0.24783 0.9308 0.0
C206 C 0.6392 0.23657 0.99262 0.0
H207 H 0.5426 0.25451 0.93605 0.0
H208 H 0.61048 0.25278 0.83527 0.0
S209 S 0.63697 0.21501 0.31739 0.0
N210 N 0.58999 0.22378 0.29513 0.0
N211 N 0.66263 0.22043 0.18563 0.0
C212 C 0.63357 0.23076 0.1167 0.0
C213 C 0.59385 0.2321 0.176 0.0
C214 C 0.41623 0.62769 0.04705 0.0
C215 C 0.42854 0.63168 0.92583 0.0
C216 C 0.37226 0.58777 0.08985 0.0
C217 C 0.33886 0.55104 0.01254 0.0
H218 H 0.44234 0.65331 0.11028 0.0
H219 H 0.36597 0.58376 0.18498 0.0
S220 S 0.35015 0.55079 0.68427 0.0
N221 N 0.4012 0.60016 0.72715 0.0
N222 N 0.31819 0.52553 0.80689 0.0
C223 C 0.34849 0.5578 0.88973 0.0
C224 C 0.39361 0.59795 0.84655 0.0
C225 C 0.75778 0.397 0.04853 0.0
C226 C 0.78318 0.42918 0.14192 0.0
C227 C 0.74977 0.34866 0.04765 0.0
C228 C 0.7666 0.3309 0.1408 0.0
H229 H 0.74815 0.41061 0.97065 0.0
H230 H 0.73431 0.32695 0.96838 0.0
S231 S 0.82598 0.39883 0.41748 0.0
N232 N 0.819 0.43902 0.33669 0.0
N233 N 0.80233 0.34745 0.33877 0.0
C234 C 0.78702 0.36136 0.24107 0.0
C235 C 0.79593 0.41085 0.24049 0.0
C236 C 0.35334 0.7508 0.10156 0.0
C237 C 0.33622 0.74649 0.98504 0.0
C238 C 0.39645 0.74943 0.12421 0.0
C239 C 0.42324 0.74352 0.03089 0.0
H240 H 0.33703 0.76135 0.17273 0.0
H241 H 0.41145 0.75812 0.21297 0.0
S242 S 0.38434 0.71648 0.71597 0.0
N243 N 0.34199 0.72511 0.78103 0.0
N244 N 0.42311 0.72292 0.82174 0.0
C245 C 0.4018 0.73141 0.9175 0.0
C246 C 0.35805 0.73281 0.89503 0.0
C247 C 0.62056 0.41016 0.22589 0.0
C248 C 0.65683 0.43916 0.14163 0.0
C249 C 0.57642 0.36895 0.19089 0.0
C250 C 0.56678 0.35666 0.07022 0.0
H251 H 0.62486 0.42146 0.3181 0.0
H252 H 0.54775 0.3501 0.25707 0.0
S253 S 0.6531 0.41549 0.8182 0.0
N254 N 0.68334 0.44816 0.93519 0.0
N255 N 0.59933 0.37181 0.86898 0.0
C256 C 0.6046 0.38224 0.98694 0.0
C257 C 0.65005 0.42336 0.0229 0.0
C258 C 0.20937 0.34848 0.48621 0.0
C259 C 0.17716 0.35605 0.55775 0.0
C260 C 0.2032 0.34405 0.36251 0.0
C261 C 0.16582 0.34903 0.30568 0.0
H262 H 0.2421 0.35095 0.52412 0.0
H263 H 0.23088 0.34147 0.3101 0.0
S264 S 0.06582 0.35807 0.45697 0.0
N265 N 0.10102 0.35852 0.56573 0.0
N266 N 0.09118 0.35269 0.33291 0.0
C267 C 0.12988 0.35011 0.37737 0.0
C268 C 0.13539 0.35331 0.50366 0.0
C269 C 0.75142 0.15426 0.47441 0.0
C270 C 0.79255 0.1871 0.54227 0.0
C271 C 0.75587 0.14382 0.35485 0.0
C272 C 0.80183 0.16575 0.29717 0.0
H273 H 0.71483 0.13879 0.51213 0.0
H274 H 0.72262 0.12145 0.30518 0.0
S275 S 0.92197 0.24823 0.4416 0.0
N276 N 0.88091 0.2372 0.54702 0.0
N277 N 0.89052 0.21647 0.32487 0.0
C278 C 0.84384 0.19463 0.36832 0.0
C279 C 0.83894 0.20574 0.48991 0.0
C280 C 0.64631 0.85209 0.49029 0.0
C281 C 0.6291 0.80528 0.54028 0.0
C282 C 0.65737 0.85964 0.36814 0.0
C283 C 0.64948 0.82004 0.29196 0.0
H284 H 0.64654 0.88141 0.54243 0.0
H285 H 0.66615 0.89519 0.33115 0.0
S286 S 0.62025 0.69501 0.39058 0.0
N287 N 0.61809 0.72297 0.51316 0.0
N288 N 0.63499 0.73604 0.28301 0.0
C289 C 0.63986 0.77553 0.34533 0.0
C290 C 0.63023 0.76837 0.46984 0.0
C291 C 0.82614 0.64924 0.68548 0.0
C292 C 0.83471 0.61217 0.72867 0.0
C293 C 0.83496 0.66299 0.56552 0.0
C294 C 0.85131 0.63904 0.48622 0.0
H295 H 0.80863 0.66436 0.74131 0.0
H296 H 0.82162 0.68654 0.53119 0.0
S297 S 0.89688 0.55447 0.56635 0.0
N298 N 0.87476 0.56339 0.69169 0.0
N299 N 0.88914 0.58825 0.46538 0.0
C300 C 0.86873 0.60946 0.53328 0.0
C301 C 0.86003 0.59543 0.65495 0.0
C302 C 0.23119 0.86477 0.42043 0.0
C303 C 0.19489 0.82246 0.36424 0.0
C304 C 0.23349 0.86732 0.54483 0.0
C305 C 0.20037 0.82717 0.61783 0.0
H306 H 0.26044 0.89409 0.36879 0.0
H307 H 0.26455 0.89926 0.58379 0.0
S308 S 0.08882 0.71582 0.51301 0.0
N309 N 0.1167 0.74614 0.39022 0.0
N310 N 0.1237 0.74932 0.62394 0.0
C311 C 0.15997 0.78796 0.5629 0.0
C312 C 0.15676 0.78597 0.43591 0.0
C313 C 0.34457 0.25035 0.66893 0.0
C314 C 0.34151 0.21466 0.75209 0.0
C315 C 0.34671 0.24366 0.54632 0.0
C316 C 0.34408 0.20041 0.50343 0.0
H317 H 0.35136 0.28628 0.69825 0.0
H318 H 0.35649 0.27463 0.4871 0.0
S319 S 0.31326 0.08762 0.6777 0.0
N320 N 0.32036 0.12901 0.77891 0.0
N321 N 0.32219 0.11562 0.54796 0.0
C322 C 0.33056 0.16082 0.58333 0.0
C323 C 0.32969 0.16803 0.70827 0.0
loop_
_geom_bond_atom_site_label_1
_geom_bond_atom_site_label_2
_geom_bond_distance
_geom_bond_site_symmetry_2
_ccdc_geom_bond_type
Zn0 O6 1.920 . S
Zn0 O12 1.898 . S
Zn0 O15 1.905 . S
Zn1 O9 1.905 . S
Zn1 O10 1.898 . S
Zn1 O18 1.920 . S
Zn2 O5 2.080 . S
Zn2 O8 2.114 . S
Zn2 O11 2.120 . S
Zn2 O13 2.120 1_554 S
Zn2 O14 2.114 1_554 S
Zn2 O17 2.080 1_554 S
C3 O8 1.166 . S
C3 O9 1.182 . S
C4 O10 1.167 . S
C4 O11 1.299 . S
O5 Zn2 2.080 . S
O5 C19 1.305 1_554 S
O6 Zn0 1.920 . S
O6 C19 1.234 . S
C7 O12 1.167 . S
C7 O13 1.299 . S
O8 Zn2 2.114 . S
O8 C3 1.166 . S
O9 Zn1 1.905 . S
O9 C3 1.182 . S
O10 Zn1 1.898 . S
O10 C4 1.167 . S
O11 Zn2 2.120 . S
O11 C4 1.299 . S
O12 Zn0 1.898 . S
O12 C7 1.167 . S
O13 Zn2 2.120 1_556 S
O13 C7 1.299 . S
O14 Zn2 2.114 1_556 S
O14 C16 1.166 . S
O15 Zn0 1.905 . S
O15 C16 1.182 . S
C16 O14 1.166 . S
C16 O15 1.182 . S
O17 Zn2 2.080 1_556 S
O17 C20 1.305 1_556 S
O18 Zn1 1.920 . S
O18 C20 1.234 . S
C19 O5 1.305 1_556 S
C19 O6 1.234 . S
C20 O17 1.305 1_554 S
C20 O18 1.234 . S
Zn21 O27 1.920 . S
Zn21 O33 1.898 . S
Zn21 O36 1.905 . S
Zn22 O30 1.905 . S
Zn22 O31 1.898 . S
Zn22 O39 1.920 . S
Zn23 O26 2.080 . S
Zn23 O29 2.114 . S
Zn23 O32 2.120 . S
Zn23 O34 2.120 1_554 S
Zn23 O35 2.114 1_554 S
Zn23 O38 2.080 1_554 S
C24 O29 1.166 . S
C24 O30 1.182 . S
C25 O31 1.167 . S
C25 O32 1.299 . S
O26 Zn23 2.080 . S
O26 C40 1.305 1_554 S
O27 Zn21 1.920 . S
O27 C40 1.234 . S
C28 O33 1.167 . S
C28 O34 1.299 . S
O29 Zn23 2.114 . S
O29 C24 1.166 . S
O30 Zn22 1.905 . S
O30 C24 1.182 . S
O31 Zn22 1.898 . S
O31 C25 1.167 . S
O32 Zn23 2.120 . S
O32 C25 1.299 . S
O33 Zn21 1.898 . S
O33 C28 1.167 . S
O34 Zn23 2.120 1_556 S
O34 C28 1.299 . S
O35 Zn23 2.114 1_556 S
O35 C37 1.166 . S
O36 Zn21 1.905 . S
O36 C37 1.182 . S
C37 O35 1.166 . S
C37 O36 1.182 . S
O38 Zn23 2.080 1_556 S
O38 C41 1.305 1_556 S
O39 Zn22 1.920 . S
O39 C41 1.234 . S
C40 O26 1.305 1_556 S
C40 O27 1.234 . S
C41 O38 1.305 1_554 S
C41 O39 1.234 . S
Zn42 O48 1.920 . S
Zn42 O54 1.898 . S
Zn42 O57 1.905 . S
Zn43 O51 1.905 . S
Zn43 O52 1.898 . S
Zn43 O60 1.920 . S
Zn44 O47 2.080 1_554 S
Zn44 O50 2.114 1_554 S
Zn44 O53 2.120 1_554 S
Zn44 O55 2.120 . S
Zn44 O56 2.114 . S
Zn44 O59 2.080 . S
C45 O50 1.166 . S
C45 O51 1.182 . S
C46 O52 1.167 . S
C46 O53 1.299 . S
O47 Zn44 2.080 1_556 S
O47 C61 1.305 1_556 S
O48 Zn42 1.920 . S
O48 C61 1.234 . S
C49 O54 1.167 . S
C49 O55 1.299 . S
O50 Zn44 2.114 1_556 S
O50 C45 1.166 . S
O51 Zn43 1.905 . S
O51 C45 1.182 . S
O52 Zn43 1.898 . S
O52 C46 1.167 . S
O53 Zn44 2.120 1_556 S
O53 C46 1.299 . S
O54 Zn42 1.898 . S
O54 C49 1.167 . S
O55 Zn44 2.120 . S
O55 C49 1.299 . S
O56 Zn44 2.114 . S
O56 C58 1.166 . S
O57 Zn42 1.905 . S
O57 C58 1.182 . S
C58 O56 1.166 . S
C58 O57 1.182 . S
O59 Zn44 2.080 . S
O59 C62 1.305 1_554 S
O60 Zn43 1.920 . S
O60 C62 1.234 . S
C61 O47 1.305 1_554 S
C61 O48 1.234 . S
C62 O59 1.305 1_556 S
C62 O60 1.234 . S
Zn63 O69 1.920 . S
Zn63 O75 1.898 . S
Zn63 O78 1.905 . S
Zn64 O72 1.905 . S
Zn64 O73 1.898 . S
Zn64 O81 1.920 . S
Zn65 O68 2.080 1_554 S
Zn65 O71 2.114 1_554 S
Zn65 O74 2.120 1_554 S
Zn65 O76 2.120 . S
Zn65 O77 2.114 . S
Zn65 O80 2.080 . S
C66 O71 1.166 . S
C66 O72 1.182 . S
C67 O73 1.167 . S
C67 O74 1.299 . S
O68 Zn65 2.080 1_556 S
O68 C82 1.305 1_556 S
O69 Zn63 1.920 . S
O69 C82 1.234 . S
C70 O75 1.167 . S
C70 O76 1.299 . S
O71 Zn65 2.114 1_556 S
O71 C66 1.166 . S
O72 Zn64 1.905 . S
O72 C66 1.182 . S
O73 Zn64 1.898 . S
O73 C67 1.167 . S
O74 Zn65 2.120 1_556 S
O74 C67 1.299 . S
O75 Zn63 1.898 . S
O75 C70 1.167 . S
O76 Zn65 2.120 . S
O76 C70 1.299 . S
O77 Zn65 2.114 . S
O77 C79 1.166 . S
O78 Zn63 1.905 . S
O78 C79 1.182 . S
C79 O77 1.166 . S
C79 O78 1.182 . S
O80 Zn65 2.080 . S
O80 C83 1.305 1_554 S
O81 Zn64 1.920 . S
O81 C83 1.234 . S
C82 O68 1.305 1_554 S
C82 O69 1.234 . S
C83 O80 1.305 1_556 S
C83 O81 1.234 . S
Zn84 O90 1.920 . S
Zn84 O96 1.898 . S
Zn84 O99 1.905 . S
Zn85 O93 1.905 . S
Zn85 O94 1.898 . S
Zn85 O102 1.920 . S
Zn86 O89 2.080 1_554 S
Zn86 O92 2.114 1_554 S
Zn86 O95 2.120 1_554 S
Zn86 O97 2.120 . S
Zn86 O98 2.114 . S
Zn86 O101 2.080 . S
C87 O92 1.166 . S
C87 O93 1.182 . S
C88 O94 1.167 . S
C88 O95 1.299 . S
O89 Zn86 2.080 1_556 S
O89 C103 1.305 1_556 S
O90 Zn84 1.920 . S
O90 C103 1.234 . S
C91 O96 1.167 . S
C91 O97 1.299 . S
O92 Zn86 2.114 1_556 S
O92 C87 1.166 . S
O93 Zn85 1.905 . S
O93 C87 1.182 . S
O94 Zn85 1.898 . S
O94 C88 1.167 . S
O95 Zn86 2.120 1_556 S
O95 C88 1.299 . S
O96 Zn84 1.898 . S
O96 C91 1.167 . S
O97 Zn86 2.120 . S
O97 C91 1.299 . S
O98 Zn86 2.114 . S
O98 C100 1.166 . S
O99 Zn84 1.905 . S
O99 C100 1.182 . S
C100 O98 1.166 . S
C100 O99 1.182 . S
O101 Zn86 2.080 . S
O101 C104 1.305 1_554 S
O102 Zn85 1.920 . S
O102 C104 1.234 . S
C103 O89 1.305 1_554 S
C103 O90 1.234 . S
C104 O101 1.305 1_556 S
C104 O102 1.234 . S
Zn105 O111 1.920 . S
Zn105 O117 1.898 . S
Zn105 O120 1.905 . S
Zn106 O114 1.905 . S
Zn106 O115 1.898 . S
Zn106 O123 1.920 . S
Zn107 O110 2.080 . S
Zn107 O113 2.114 . S
Zn107 O116 2.120 . S
Zn107 O118 2.120 1_554 S
Zn107 O119 2.114 1_554 S
Zn107 O122 2.080 1_554 S
C108 O113 1.166 . S
C108 O114 1.182 . S
C109 O115 1.167 . S
C109 O116 1.299 . S
O110 Zn107 2.080 . S
O110 C124 1.305 1_554 S
O111 Zn105 1.920 . S
O111 C124 1.234 . S
C112 O117 1.167 . S
C112 O118 1.299 . S
O113 Zn107 2.114 . S
O113 C108 1.166 . S
O114 Zn106 1.905 . S
O114 C108 1.182 . S
O115 Zn106 1.898 . S
O115 C109 1.167 . S
O116 Zn107 2.120 . S
O116 C109 1.299 . S
O117 Zn105 1.898 . S
O117 C112 1.167 . S
O118 Zn107 2.120 1_556 S
O118 C112 1.299 . S
O119 Zn107 2.114 1_556 S
O119 C121 1.166 . S
O120 Zn105 1.905 . S
O120 C121 1.182 . S
C121 O119 1.166 . S
C121 O120 1.182 . S
O122 Zn107 2.080 1_556 S
O122 C125 1.305 1_556 S
O123 Zn106 1.920 . S
O123 C125 1.234 . S
C124 O110 1.305 1_556 S
C124 O111 1.234 . S
C125 O122 1.305 1_554 S
C125 O123 1.234 . S
C126 C127 1.369 . S
C126 C128 1.419 1_554 S
C126 H130 0.930 . S
C127 C126 1.369 . S
C127 C136 1.429 . S
C128 C126 1.419 1_556 S
C128 C129 1.363 . S
C128 H131 0.929 . S
C129 C128 1.363 . S
C129 C135 1.428 . S
H130 C126 0.930 . S
H131 C128 0.929 . S
S132 N133 1.613 . S
S132 N134 1.610 1_554 S
N133 S132 1.613 . S
N133 C136 1.350 . S
N134 S132 1.610 1_556 S
N134 C135 1.351 . S
C135 C129 1.428 . S
C135 N134 1.351 . S
C135 C136 1.434 1_556 S
C136 C127 1.429 . S
C136 N133 1.350 . S
C136 C135 1.434 1_554 S
C137 C138 1.369 1_556 S
C137 C139 1.419 1_455 S
C137 H141 0.930 . S
C138 C137 1.369 1_554 S
C138 C147 1.429 . S
C139 C137 1.419 1_655 S
C139 C140 1.363 . S
C139 H142 0.929 . S
C140 C139 1.363 . S
C140 C146 1.428 1_556 S
H141 C137 0.930 . S
H142 C139 0.929 . S
S143 N144 1.613 1_655 S
S143 N145 1.610 . S
N144 S143 1.613 1_455 S
N144 C147 1.350 . S
N145 S143 1.610 . S
N145 C146 1.351 . S
C146 C140 1.428 1_554 S
C146 N145 1.351 . S
C146 C147 1.434 1_655 S
C147 C138 1.429 . S
C147 N144 1.350 . S
C147 C146 1.434 1_455 S
C148 C149 1.369 1_556 S
C148 C150 1.419 1_545 S
C148 H152 0.930 . S
C149 C148 1.369 1_554 S
C149 C158 1.429 . S
C150 C148 1.419 1_565 S
C150 C151 1.363 . S
C150 H153 0.929 . S
C151 C150 1.363 . S
C151 C157 1.428 1_556 S
H152 C148 0.930 . S
H153 C150 0.929 . S
S154 N155 1.613 1_565 S
S154 N156 1.610 . S
N155 S154 1.613 1_545 S
N155 C158 1.350 . S
N156 S154 1.610 . S
N156 C157 1.351 . S
C157 C151 1.428 1_554 S
C157 N156 1.351 . S
C157 C158 1.434 1_565 S
C158 C149 1.429 . S
C158 N155 1.350 . S
C158 C157 1.434 1_545 S
C159 C160 1.369 . S
C159 C161 1.419 . S
C159 H163 0.930 . S
C160 C159 1.369 . S
C160 C169 1.429 1_556 S
C161 C159 1.419 . S
C161 C162 1.363 1_556 S
C161 H164 0.929 . S
C162 C161 1.363 1_554 S
C162 C168 1.428 . S
H163 C159 0.930 . S
H164 C161 0.929 . S
S165 N166 1.613 . S
S165 N167 1.610 . S
N166 S165 1.613 . S
N166 C169 1.350 . S
N167 S165 1.610 . S
N167 C168 1.351 . S
C168 C162 1.428 . S
C168 N167 1.351 . S
C168 C169 1.434 . S
C169 C160 1.429 1_554 S
C169 N166 1.350 . S
C169 C168 1.434 . S
C170 C171 1.369 . S
C170 C172 1.419 1_455 S
C170 H174 0.930 . S
C171 C170 1.369 . S
C171 C180 1.429 1_556 S
C172 C170 1.419 1_655 S
C172 C173 1.363 1_556 S
C172 H175 0.929 . S
C173 C172 1.363 1_554 S
C173 C179 1.428 . S
H174 C170 0.930 . S
H175 C172 0.929 . S
S176 N177 1.613 . S
S176 N178 1.610 1_455 S
N177 S176 1.613 . S
N177 C180 1.350 . S
N178 S176 1.610 1_655 S
N178 C179 1.351 . S
C179 C173 1.428 . S
C179 N178 1.351 . S
C179 C180 1.434 1_655 S
C180 C171 1.429 1_554 S
C180 N177 1.350 . S
C180 C179 1.434 1_455 S
C181 C182 1.369 . S
C181 C183 1.419 1_565 S
C181 H185 0.930 . S
C182 C181 1.369 . S
C182 C191 1.429 1_554 S
C183 C181 1.419 1_545 S
C183 C184 1.363 1_554 S
C183 H186 0.929 . S
C184 C183 1.363 1_556 S
C184 C190 1.428 . S
H185 C181 0.930 . S
H186 C183 0.929 . S
S187 N188 1.613 . S
S187 N189 1.610 1_565 S
N188 S187 1.613 . S
N188 C191 1.350 . S
N189 S187 1.610 1_545 S
N189 C190 1.351 . S
C190 C184 1.428 . S
C190 N189 1.351 . S
C190 C191 1.434 1_545 S
C191 C182 1.429 1_556 S
C191 N188 1.350 . S
C191 C190 1.434 1_565 S
C192 C193 1.369 . S
C192 C194 1.419 . S
C192 H196 0.930 . S
C193 C192 1.369 . S
C193 C202 1.429 1_554 S
C194 C192 1.419 . S
C194 C195 1.363 1_554 S
C194 H197 0.929 . S
C195 C194 1.363 1_556 S
C195 C201 1.428 . S
H196 C192 0.930 . S
H197 C194 0.929 . S
S198 N199 1.613 . S
S198 N200 1.610 . S
N199 S198 1.613 . S
N199 C202 1.350 . S
N200 S198 1.610 . S
N200 C201 1.351 . S
C201 C195 1.428 . S
C201 N200 1.351 . S
C201 C202 1.434 . S
C202 C193 1.429 1_556 S
C202 N199 1.350 . S
C202 C201 1.434 . S
C203 C204 1.369 1_556 S
C203 C205 1.419 . S
C203 H207 0.930 . S
C204 C203 1.369 1_554 S
C204 C213 1.429 . S
C205 C203 1.419 . S
C205 C206 1.363 . S
C205 H208 0.929 . S
C206 C205 1.363 . S
C206 C212 1.428 1_556 S
H207 C203 0.930 . S
H208 C205 0.929 . S
S209 N210 1.613 . S
S209 N211 1.610 . S
N210 S209 1.613 . S
N210 C213 1.350 . S
N211 S209 1.610 . S
N211 C212 1.351 . S
C212 C206 1.428 1_554 S
C212 N211 1.351 . S
C212 C213 1.434 . S
C213 C204 1.429 . S
C213 N210 1.350 . S
C213 C212 1.434 . S
C214 C215 1.369 1_554 S
C214 C216 1.419 . S
C214 H218 0.930 . S
C215 C214 1.369 1_556 S
C215 C224 1.429 . S
C216 C214 1.419 . S
C216 C217 1.363 . S
C216 H219 0.929 . S
C217 C216 1.363 . S
C217 C223 1.428 1_554 S
H218 C214 0.930 . S
H219 C216 0.929 . S
S220 N221 1.613 . S
S220 N222 1.610 . S
N221 S220 1.613 . S
N221 C224 1.350 . S
N222 S220 1.610 . S
N222 C223 1.351 . S
C223 C217 1.428 1_556 S
C223 N222 1.351 . S
C223 C224 1.434 . S
C224 C215 1.429 . S
C224 N221 1.350 . S
C224 C223 1.434 . S
C225 C226 1.369 . S
C225 C227 1.419 . S
C225 H229 0.930 . S
C226 C225 1.369 . S
C226 C235 1.429 1_556 S
C227 C225 1.419 . S
C227 C228 1.363 1_556 S
C227 H230 0.929 . S
C228 C227 1.363 1_554 S
C228 C234 1.428 . S
H229 C225 0.930 . S
H230 C227 0.929 . S
S231 N232 1.613 . S
S231 N233 1.610 . S
N232 S231 1.613 . S
N232 C235 1.350 . S
N233 S231 1.610 . S
N233 C234 1.351 . S
C234 C228 1.428 . S
C234 N233 1.351 . S
C234 C235 1.434 . S
C235 C226 1.429 1_554 S
C235 N232 1.350 . S
C235 C234 1.434 . S
C236 C237 1.369 1_554 S
C236 C238 1.419 . S
C236 H240 0.930 . S
C237 C236 1.369 1_556 S
C237 C246 1.429 . S
C238 C236 1.419 . S
C238 C239 1.363 . S
C238 H241 0.929 . S
C239 C238 1.363 . S
C239 C245 1.428 1_554 S
H240 C236 0.930 . S
H241 C238 0.929 . S
S242 N243 1.613 . S
S242 N244 1.610 . S
N243 S242 1.613 . S
N243 C246 1.350 . S
N244 S242 1.610 . S
N244 C245 1.351 . S
C245 C239 1.428 1_556 S
C245 N244 1.351 . S
C245 C246 1.434 . S
C246 C237 1.429 . S
C246 N243 1.350 . S
C246 C245 1.434 . S
C247 C248 1.369 . S
C247 C249 1.419 . S
C247 H251 0.930 . S
C248 C247 1.369 . S
C248 C257 1.429 1_554 S
C249 C247 1.419 . S
C249 C250 1.363 1_554 S
C249 H252 0.929 . S
C250 C249 1.363 1_556 S
C250 C256 1.428 . S
H251 C247 0.930 . S
H252 C249 0.929 . S
S253 N254 1.613 . S
S253 N255 1.610 . S
N254 S253 1.613 . S
N254 C257 1.350 . S
N255 S253 1.610 . S
N255 C256 1.351 . S
C256 C250 1.428 . S
C256 N255 1.351 . S
C256 C257 1.434 . S
C257 C248 1.429 1_556 S
C257 N254 1.350 . S
C257 C256 1.434 . S
C258 C259 1.369 . S
C258 C260 1.419 . S
C258 H262 0.930 . S
C259 C258 1.369 . S
C259 C268 1.429 . S
C260 C258 1.419 . S
C260 C261 1.363 . S
C260 H263 0.929 . S
C261 C260 1.363 . S
C261 C267 1.428 . S
H262 C258 0.930 . S
H263 C260 0.929 . S
S264 N265 1.613 . S
S264 N266 1.610 . S
N265 S264 1.613 . S
N265 C268 1.350 . S
N266 S264 1.610 . S
N266 C267 1.351 . S
C267 C261 1.428 . S
C267 N266 1.351 . S
C267 C268 1.434 . S
C268 C259 1.429 . S
C268 N265 1.350 . S
C268 C267 1.434 . S
C269 C270 1.369 . S
C269 C271 1.419 . S
C269 H273 0.930 . S
C270 C269 1.369 . S
C270 C279 1.429 . S
C271 C269 1.419 . S
C271 C272 1.363 . S
C271 H274 0.929 . S
C272 C271 1.363 . S
C272 C278 1.428 . S
H273 C269 0.930 . S
H274 C271 0.929 . S
S275 N276 1.613 . S
S275 N277 1.610 . S
N276 S275 1.613 . S
N276 C279 1.350 . S
N277 S275 1.610 . S
N277 C278 1.351 . S
C278 C272 1.428 . S
C278 N277 1.351 . S
C278 C279 1.434 . S
C279 C270 1.429 . S
C279 N276 1.350 . S
C279 C278 1.434 . S
C280 C281 1.369 . S
C280 C282 1.419 . S
C280 H284 0.930 . S
C281 C280 1.369 . S
C281 C290 1.429 . S
C282 C280 1.419 . S
C282 C283 1.363 . S
C282 H285 0.929 . S
C283 C282 1.363 . S
C283 C289 1.428 . S
H284 C280 0.930 . S
H285 C282 0.929 . S
S286 N287 1.613 . S
S286 N288 1.610 . S
N287 S286 1.613 . S
N287 C290 1.350 . S
N288 S286 1.610 . S
N288 C289 1.351 . S
C289 C283 1.428 . S
C289 N288 1.351 . S
C289 C290 1.434 . S
C290 C281 1.429 . S
C290 N287 1.350 . S
C290 C289 1.434 . S
C291 C292 1.369 . S
C291 C293 1.419 . S
C291 H295 0.930 . S
C292 C291 1.369 . S
C292 C301 1.429 . S
C293 C291 1.419 . S
C293 C294 1.363 . S
C293 H296 0.929 . S
C294 C293 1.363 . S
C294 C300 1.428 . S
H295 C291 0.930 . S
H296 C293 0.929 . S
S297 N298 1.613 . S
S297 N299 1.610 . S
N298 S297 1.613 . S
N298 C301 1.350 . S
N299 S297 1.610 . S
N299 C300 1.351 . S
C300 C294 1.428 . S
C300 N299 1.351 . S
C300 C301 1.434 . S
C301 C292 1.429 . S
C301 N298 1.350 . S
C301 C300 1.434 . S
C302 C303 1.369 . S
C302 C304 1.419 . S
C302 H306 0.930 . S
C303 C302 1.369 . S
C303 C312 1.429 . S
C304 C302 1.419 . S
C304 C305 1.363 . S
C304 H307 0.929 . S
C305 C304 1.363 . S
C305 C311 1.428 . S
H306 C302 0.930 . S
H307 C304 0.929 . S
S308 N309 1.613 . S
S308 N310 1.610 . S
N309 S308 1.613 . S
N309 C312 1.350 . S
N310 S308 1.610 . S
N310 C311 1.351 . S
C311 C305 1.428 . S
C311 N310 1.351 . S
C311 C312 1.434 . S
C312 C303 1.429 . S
C312 N309 1.350 . S
C312 C311 1.434 . S
C313 C314 1.369 . S
C313 C315 1.419 . S
C313 H317 0.930 . S
C314 C313 1.369 . S
C314 C323 1.429 . S
C315 C313 1.419 . S
C315 C316 1.363 . S
C315 H318 0.929 . S
C316 C315 1.363 . S
C316 C322 1.428 . S
H317 C313 0.930 . S
H318 C315 0.929 . S
S319 N320 1.613 . S
S319 N321 1.610 . S
N320 S319 1.613 . S
N320 C323 1.350 . S
N321 S319 1.610 . S
N321 C322 1.351 . S
C322 C316 1.428 . S
C322 N321 1.351 . S
C322 C323 1.434 . S
C323 C314 1.429 . S
C323 N320 1.350 . S
C323 C322 1.434 . S
C127 C121 1.283 1_554 S
C129 C3 1.279 1_556 S
C138 C16 1.293 1_554 S
C140 C24 1.278 1_556 S
C149 C37 1.293 1_554 S
C151 C58 1.281 1_556 S
C160 C79 1.275 1_556 S
C162 C45 1.288 1_554 S
C171 C100 1.281 1_556 S
C173 C66 1.280 1_554 S
C182 C87 1.278 1_554 S
C184 C108 1.283 1_556 S
C193 C103 1.481 . S
C195 C19 1.482 . S
C204 C125 1.487 . S
C206 C40 1.488 . S
C215 C62 1.481 . S
C217 C20 1.483 . S
C226 C83 1.480 . S
C228 C41 1.482 . S
C237 C104 1.490 . S
C239 C61 1.489 . S
C248 C82 1.487 . S
C250 C124 1.485 . S
C259 C7 1.320 . S
C261 C4 1.321 . S
C270 C28 1.321 . S
C272 C25 1.312 . S
C281 C46 1.311 . S
C283 C49 1.319 . S
C292 C67 1.316 . S
C294 C70 1.323 . S
C303 C91 1.312 . S
C305 C88 1.318 . S
C314 C112 1.316 . S
C316 C109 1.315 . S
