# Generated by pormake.
# Topology umh, (4)-cn, num edge types: 1
# Building blocks:
#     Node 0, Type 0, BuildingBlock: GALJAG_clean_sbu_0, # of connection points: 4
#     Node 1, Type 0, BuildingBlock: GALJAG_clean_sbu_0, # of connection points: 4
#     Node 2, Type 0, BuildingBlock: GALJAG_clean_sbu_0, # of connection points: 4
#     Node 3, Type 0, BuildingBlock: GALJAG_clean_sbu_0, # of connection points: 4
#     Node 4, Type 0, BuildingBlock: GALJAG_clean_sbu_0, # of connection points: 4
#     Node 5, Type 0, BuildingBlock: GALJAG_clean_sbu_0, # of connection points: 4
#     Node 6, Type 0, BuildingBlock: GALJAG_clean_sbu_0, # of connection points: 4
#     Node 7, Type 0, BuildingBlock: GALJAG_clean_sbu_0, # of connection points: 4
#     Node 8, Type 0, BuildingBlock: GALJAG_clean_sbu_0, # of connection points: 4
#     Node 9, Type 0, BuildingBlock: GALJAG_clean_sbu_0, # of connection points: 4
#     Node 10, Type 0, BuildingBlock: GALJAG_clean_sbu_0, # of connection points: 4
#     Node 11, Type 0, BuildingBlock: GALJAG_clean_sbu_0, # of connection points: 4
#     Node 12, Type 0, BuildingBlock: GALJAG_clean_sbu_0, # of connection points: 4
#     Node 13, Type 0, BuildingBlock: GALJAG_clean_sbu_0, # of connection points: 4
#     Node 14, Type 0, BuildingBlock: GALJAG_clean_sbu_0, # of connection points: 4
#     Node 15, Type 0, BuildingBlock: GALJAG_clean_sbu_0, # of connection points: 4
#     Edge 16, Type (0, 0), BuildingBlock: AJUNOK_clean_linker_0, # of connection points: 2
#     Edge 17, Type (0, 0), BuildingBlock: AJUNOK_clean_linker_0, # of connection points: 2
#     Edge 18, Type (0, 0), BuildingBlock: AJUNOK_clean_linker_0, # of connection points: 2
#     Edge 19, Type (0, 0), BuildingBlock: AJUNOK_clean_linker_0, # of connection points: 2
#     Edge 20, Type (0, 0), BuildingBlock: AJUNOK_clean_linker_0, # of connection points: 2
#     Edge 21, Type (0, 0), BuildingBlock: AJUNOK_clean_linker_0, # of connection points: 2
#     Edge 22, Type (0, 0), BuildingBlock: AJUNOK_clean_linker_0, # of connection points: 2
#     Edge 23, Type (0, 0), BuildingBlock: AJUNOK_clean_linker_0, # of connection points: 2
#     Edge 24, Type (0, 0), BuildingBlock: AJUNOK_clean_linker_0, # of connection points: 2
#     Edge 25, Type (0, 0), BuildingBlock: AJUNOK_clean_linker_0, # of connection points: 2
#     Edge 26, Type (0, 0), BuildingBlock: AJUNOK_clean_linker_0, # of connection points: 2
#     Edge 27, Type (0, 0), BuildingBlock: AJUNOK_clean_linker_0, # of connection points: 2
#     Edge 28, Type (0, 0), BuildingBlock: AJUNOK_clean_linker_0, # of connection points: 2
#     Edge 29, Type (0, 0), BuildingBlock: AJUNOK_clean_linker_0, # of connection points: 2
#     Edge 30, Type (0, 0), BuildingBlock: AJUNOK_clean_linker_0, # of connection points: 2
#     Edge 31, Type (0, 0), BuildingBlock: AJUNOK_clean_linker_0, # of connection points: 2
#     Edge 32, Type (0, 0), BuildingBlock: AJUNOK_clean_linker_0, # of connection points: 2
#     Edge 33, Type (0, 0), BuildingBlock: AJUNOK_clean_linker_0, # of connection points: 2
#     Edge 34, Type (0, 0), BuildingBlock: AJUNOK_clean_linker_0, # of connection points: 2
#     Edge 35, Type (0, 0), BuildingBlock: AJUNOK_clean_linker_0, # of connection points: 2
#     Edge 36, Type (0, 0), BuildingBlock: AJUNOK_clean_linker_0, # of connection points: 2
#     Edge 37, Type (0, 0), BuildingBlock: AJUNOK_clean_linker_0, # of connection points: 2
#     Edge 38, Type (0, 0), BuildingBlock: AJUNOK_clean_linker_0, # of connection points: 2
#     Edge 39, Type (0, 0), BuildingBlock: AJUNOK_clean_linker_0, # of connection points: 2
#     Edge 40, Type (0, 0), BuildingBlock: AJUNOK_clean_linker_0, # of connection points: 2
#     Edge 41, Type (0, 0), BuildingBlock: AJUNOK_clean_linker_0, # of connection points: 2
#     Edge 42, Type (0, 0), BuildingBlock: AJUNOK_clean_linker_0, # of connection points: 2
#     Edge 43, Type (0, 0), BuildingBlock: AJUNOK_clean_linker_0, # of connection points: 2
#     Edge 44, Type (0, 0), BuildingBlock: AJUNOK_clean_linker_0, # of connection points: 2
#     Edge 45, Type (0, 0), BuildingBlock: AJUNOK_clean_linker_0, # of connection points: 2
#     Edge 46, Type (0, 0), BuildingBlock: AJUNOK_clean_linker_0, # of connection points: 2
#     Edge 47, Type (0, 0), BuildingBlock: AJUNOK_clean_linker_0, # of connection points: 2
# Relax obj value: 0.114
# Max RMSD: 0.279
# Mean RMSD: 0.279
data_MOF--net-umh--node1-GALJAG_clean_sbu_0--edge1-AJUNOK_clean_linker_0
_symmetry_space_group_name_H-M    P1
_symmetry_Int_Tables_number       1
_symmetry_cell_setting            triclinic
loop_
_symmetry_equiv_pos_as_xyz
'x, y, z'
_cell_length_a     30.430744
_cell_length_b     30.482093
_cell_length_c     38.84078
_cell_angle_alpha  89.945191
_cell_angle_beta   90.007486
_cell_angle_gamma 90.03083
loop_
_atom_site_label
_atom_site_type_symbol
_atom_site_fract_x
_atom_site_fract_y
_atom_site_fract_z
_atom_type_partial_charge
In0 In 0.34622 0.08833 0.15532 0.0
O1 O 0.33398 0.06352 0.10089 0.0
O2 O 0.38139 0.1147 0.10916 0.0
C3 C 0.3008 0.06752 0.21092 0.0
C4 C 0.41613 0.04214 0.1728 0.0
C5 C 0.29612 0.15893 0.15473 0.0
O6 O 0.2939 0.04779 0.18248 0.0
O7 O 0.33228 0.09487 0.2112 0.0
O8 O 0.3363 0.16117 0.16397 0.0
O9 O 0.28287 0.12183 0.14425 0.0
C10 C 0.36186 0.08999 0.08787 0.0
O11 O 0.41717 0.08388 0.17373 0.0
O12 O 0.38036 0.02493 0.1629 0.0
In13 In 0.38627 0.33289 0.65484 0.0
O14 O 0.39819 0.40253 0.67412 0.0
O15 O 0.45176 0.36399 0.65396 0.0
C16 C 0.31171 0.28907 0.65898 0.0
C17 C 0.37634 0.35258 0.58845 0.0
C18 C 0.42021 0.2841 0.70477 0.0
O19 O 0.31567 0.32635 0.67348 0.0
O20 O 0.34468 0.27517 0.64243 0.0
O21 O 0.42816 0.27587 0.67323 0.0
O22 O 0.39625 0.31731 0.71048 0.0
C23 C 0.43899 0.39989 0.66702 0.0
O24 O 0.40269 0.3227 0.59843 0.0
O25 O 0.35564 0.37217 0.61222 0.0
In26 In 0.12749 0.37848 0.15402 0.0
O27 O 0.05709 0.38178 0.17444 0.0
O28 O 0.09013 0.44046 0.15709 0.0
C29 C 0.17686 0.3069 0.15749 0.0
C30 C 0.11095 0.37295 0.08664 0.0
C31 C 0.17214 0.41448 0.20551 0.0
O32 O 0.13726 0.30661 0.16818 0.0
O33 O 0.19016 0.34283 0.14493 0.0
O34 O 0.18078 0.42404 0.17431 0.0
O35 O 0.14112 0.38734 0.21012 0.0
C36 C 0.05606 0.42317 0.17001 0.0
O37 O 0.13851 0.40038 0.09863 0.0
O38 O 0.09202 0.34913 0.10886 0.0
In39 In 0.09038 0.12353 0.65716 0.0
O40 O 0.06296 0.13273 0.60307 0.0
O41 O 0.1164 0.08809 0.61064 0.0
C42 C 0.0531 0.17173 0.70628 0.0
C43 C 0.05242 0.04911 0.67597 0.0
C44 C 0.16291 0.1722 0.65775 0.0
O45 O 0.04347 0.17745 0.67473 0.0
O46 O 0.0805 0.14152 0.71242 0.0
O47 O 0.16133 0.13599 0.67401 0.0
O48 O 0.12861 0.18256 0.64137 0.0
C49 C 0.08996 0.10586 0.58972 0.0
O50 O 0.09405 0.05269 0.67672 0.0
O51 O 0.03141 0.08241 0.66563 0.0
In52 In 0.33056 0.39172 0.37519 0.0
O53 O 0.40125 0.39881 0.35632 0.0
O54 O 0.36513 0.45541 0.37383 0.0
C55 C 0.28382 0.31863 0.37195 0.0
C56 C 0.3457 0.38537 0.44264 0.0
C57 C 0.28478 0.4234 0.32261 0.0
O58 O 0.32356 0.31959 0.36154 0.0
O59 O 0.26906 0.35416 0.38417 0.0
O60 O 0.27569 0.4339 0.35353 0.0
O61 O 0.31768 0.39837 0.31873 0.0
C62 C 0.40056 0.44003 0.36166 0.0
O63 O 0.31813 0.41273 0.43053 0.0
O64 O 0.36537 0.36207 0.42047 0.0
In65 In 0.08704 0.33307 0.87103 0.0
O66 O 0.06174 0.31995 0.92538 0.0
O67 O 0.11498 0.36496 0.91844 0.0
C68 C 0.04978 0.28827 0.82 0.0
C69 C 0.04551 0.4068 0.85549 0.0
C70 C 0.1603 0.28599 0.86528 0.0
O71 O 0.04155 0.2793 0.85135 0.0
O72 O 0.07588 0.32 0.81502 0.0
O73 O 0.15913 0.326 0.8559 0.0
O74 O 0.12508 0.27112 0.87795 0.0
C75 C 0.08917 0.346 0.93919 0.0
O76 O 0.08705 0.40439 0.85236 0.0
O77 O 0.02644 0.37275 0.86665 0.0
In78 In 0.12239 0.09378 0.37343 0.0
O79 O 0.13549 0.06316 0.42609 0.0
O80 O 0.089 0.11562 0.42199 0.0
C81 C 0.17142 0.07117 0.31993 0.0
C82 C 0.05017 0.05338 0.35237 0.0
C83 C 0.16978 0.1666 0.37466 0.0
O84 O 0.17578 0.05166 0.34874 0.0
O85 O 0.14089 0.09934 0.31822 0.0
O86 O 0.12978 0.16724 0.36499 0.0
O87 O 0.18406 0.13005 0.38528 0.0
C88 C 0.10869 0.0886 0.44132 0.0
O89 O 0.05122 0.09498 0.35447 0.0
O90 O 0.08496 0.03348 0.36099 0.0
In91 In 0.38459 0.12375 0.87153 0.0
O92 O 0.38576 0.05269 0.85231 0.0
O93 O 0.44578 0.08511 0.86713 0.0
C94 C 0.31237 0.17202 0.86542 0.0
C95 C 0.38278 0.1116 0.93979 0.0
C96 C 0.42067 0.16826 0.81988 0.0
O97 O 0.3121 0.13146 0.85756 0.0
O98 O 0.34815 0.18663 0.87725 0.0
O99 O 0.42963 0.17736 0.85108 0.0
O100 O 0.39447 0.13649 0.81533 0.0
C101 C 0.42736 0.05103 0.85543 0.0
O102 O 0.41023 0.13729 0.92557 0.0
O103 O 0.35672 0.09241 0.91935 0.0
In104 In 0.63434 0.88085 0.86665 0.0
O105 O 0.56314 0.88131 0.8478 0.0
O106 O 0.59497 0.94167 0.86242 0.0
C107 C 0.68232 0.80836 0.86237 0.0
C108 C 0.61946 0.87683 0.93457 0.0
C109 C 0.67924 0.91653 0.81479 0.0
O110 O 0.64246 0.80887 0.8524 0.0
O111 O 0.69663 0.84392 0.8748 0.0
O112 O 0.68751 0.92651 0.84596 0.0
O113 O 0.64805 0.88956 0.81039 0.0
C114 C 0.5608 0.92275 0.85121 0.0
O115 O 0.64663 0.90412 0.92182 0.0
O116 O 0.60051 0.85231 0.91292 0.0
In117 In 0.58815 0.63805 0.37221 0.0
O118 O 0.56954 0.65286 0.42769 0.0
O119 O 0.61911 0.60449 0.41779 0.0
C120 C 0.55449 0.68117 0.31898 0.0
C121 C 0.53692 0.56963 0.36108 0.0
C122 C 0.66068 0.68464 0.36442 0.0
O123 O 0.54574 0.69228 0.34985 0.0
O124 O 0.57916 0.64791 0.31556 0.0
O125 O 0.66005 0.64395 0.35678 0.0
O126 O 0.62558 0.70017 0.3769 0.0
C127 C 0.59671 0.62523 0.43994 0.0
O128 O 0.57793 0.5673 0.35469 0.0
O129 O 0.52334 0.60567 0.37337 0.0
In130 In 0.84701 0.58682 0.87326 0.0
O131 O 0.83597 0.56623 0.92906 0.0
O132 O 0.88203 0.61756 0.91816 0.0
C133 C 0.80044 0.55065 0.82281 0.0
C134 C 0.91828 0.54168 0.8575 0.0
C135 C 0.79815 0.65816 0.86652 0.0
O136 O 0.79251 0.54183 0.85427 0.0
O137 O 0.83256 0.57624 0.81739 0.0
O138 O 0.83831 0.6582 0.85722 0.0
O139 O 0.78436 0.62314 0.88023 0.0
C140 C 0.86344 0.59399 0.9407 0.0
O141 O 0.91733 0.58299 0.85278 0.0
O142 O 0.88409 0.52461 0.87042 0.0
In143 In 0.88653 0.84489 0.36887 0.0
O144 O 0.91376 0.8327 0.42295 0.0
O145 O 0.85897 0.87577 0.41697 0.0
C146 C 0.92571 0.79963 0.31874 0.0
C147 C 0.92336 0.92054 0.35143 0.0
C148 C 0.81344 0.79734 0.36287 0.0
O149 O 0.93368 0.79163 0.35027 0.0
O150 O 0.89889 0.83052 0.31315 0.0
O151 O 0.81464 0.83723 0.35336 0.0
O152 O 0.84856 0.78271 0.37582 0.0
C153 C 0.88587 0.85769 0.4373 0.0
O154 O 0.88194 0.91586 0.34967 0.0
O155 O 0.94477 0.88779 0.36228 0.0
In156 In 0.64214 0.58319 0.65348 0.0
O157 O 0.65489 0.56677 0.5971 0.0
O158 O 0.6062 0.61506 0.60972 0.0
C159 C 0.68629 0.54956 0.70622 0.0
C160 C 0.57369 0.53202 0.66495 0.0
C161 C 0.6877 0.65654 0.65972 0.0
O162 O 0.6969 0.54076 0.67523 0.0
O163 O 0.65318 0.57438 0.70996 0.0
O164 O 0.64751 0.65475 0.66892 0.0
O165 O 0.70364 0.62166 0.64719 0.0
C166 C 0.62629 0.5941 0.58639 0.0
O167 O 0.57198 0.57273 0.67223 0.0
O168 O 0.60931 0.51855 0.65173 0.0
In169 In 0.89263 0.63476 0.156 0.0
O170 O 0.8904 0.56393 0.17574 0.0
O171 O 0.95203 0.59327 0.16126 0.0
C172 C 0.82071 0.68357 0.16203 0.0
C173 C 0.88911 0.62115 0.08785 0.0
C174 C 0.93046 0.68152 0.20576 0.0
O175 O 0.82064 0.6434 0.17101 0.0
O176 O 0.85621 0.69763 0.14932 0.0
O177 O 0.93911 0.68851 0.17418 0.0
O178 O 0.90433 0.65006 0.2117 0.0
C179 C 0.93182 0.56007 0.17273 0.0
O180 O 0.91779 0.64616 0.10127 0.0
O181 O 0.86293 0.60344 0.10896 0.0
In182 In 0.84812 0.88202 0.65321 0.0
O183 O 0.83822 0.90767 0.59834 0.0
O184 O 0.88205 0.85395 0.60665 0.0
C185 C 0.79893 0.91927 0.70192 0.0
C186 C 0.92247 0.9199 0.67268 0.0
C187 C 0.79971 0.80972 0.65835 0.0
O188 O 0.793 0.92789 0.67021 0.0
O189 O 0.83049 0.89359 0.70853 0.0
O190 O 0.8394 0.81026 0.66861 0.0
O191 O 0.78614 0.84469 0.64456 0.0
C192 C 0.86454 0.87991 0.58532 0.0
O193 O 0.91813 0.87852 0.67459 0.0
O194 O 0.88995 0.94088 0.66081 0.0
In195 In 0.5934 0.84083 0.15082 0.0
O196 O 0.56934 0.82703 0.09627 0.0
O197 O 0.62128 0.87342 0.10339 0.0
C198 C 0.55783 0.79377 0.20151 0.0
C199 C 0.54856 0.91214 0.16751 0.0
C200 C 0.66775 0.79589 0.15773 0.0
O201 O 0.54964 0.78527 0.17008 0.0
O202 O 0.58271 0.82639 0.20675 0.0
O203 O 0.66555 0.83606 0.16651 0.0
O204 O 0.63313 0.77996 0.14485 0.0
C205 C 0.59633 0.85358 0.0825 0.0
O206 O 0.59014 0.91147 0.17074 0.0
O207 O 0.53112 0.87796 0.1551 0.0
C208 C 0.34697 0.07758 0.99129 0.0
C209 C 0.37997 0.10494 0.97757 0.0
C210 C 0.342 0.07202 0.02692 0.0
C211 C 0.36978 0.09369 0.05029 0.0
H212 H 0.32423 0.0607 0.9744 0.0
H213 H 0.31559 0.05131 0.03617 0.0
S214 S 0.46334 0.16668 0.02767 0.0
N215 N 0.44224 0.15225 0.99021 0.0
N216 N 0.43305 0.14191 0.05709 0.0
C217 C 0.4037 0.12024 0.03691 0.0
C218 C 0.40877 0.12585 1.00061 0.0
C219 C 0.38336 0.34659 0.49102 0.0
C220 C 0.35393 0.37939 0.47999 0.0
C221 C 0.39082 0.33859 0.52606 0.0
C222 C 0.36917 0.36307 0.55157 0.0
H223 H 0.40057 0.32641 0.47244 0.0
H224 H 0.41338 0.31265 0.53313 0.0
S225 S 0.29016 0.45402 0.53644 0.0
N226 N 0.30395 0.43743 0.49747 0.0
N227 N 0.31791 0.42255 0.56335 0.0
C228 C 0.34019 0.39654 0.54095 0.0
C229 C 0.33259 0.40466 0.50519 0.0
C230 C 0.1244 0.38243 0.98978 0.0
C231 C 0.09218 0.3536 0.97684 0.0
C232 C 0.12958 0.38926 0.02522 0.0
C233 C 0.10281 0.36744 0.04923 0.0
H234 H 0.14635 0.39962 0.9724 0.0
H235 H 0.15532 0.41119 0.03382 0.0
S236 S 0.0117 0.29047 0.02881 0.0
N237 N 0.03181 0.3045 0.99089 0.0
N238 N 0.04142 0.3172 0.05751 0.0
C239 C 0.06972 0.33928 0.03667 0.0
C240 C 0.06442 0.33239 1.00051 0.0
C241 C 0.06792 0.12391 0.52935 0.0
C242 C 0.09252 0.09783 0.55211 0.0
C243 C 0.07263 0.1197 0.49363 0.0
C244 C 0.10207 0.08918 0.47916 0.0
H245 H 0.04564 0.14863 0.53913 0.0
H246 H 0.0536 0.14135 0.47727 0.0
S247 S 0.17148 0.01033 0.52751 0.0
N248 N 0.14546 0.03832 0.55762 0.0
N249 N 0.15425 0.03055 0.49045 0.0
C250 C 0.12569 0.06171 0.50158 0.0
C251 C 0.12093 0.06602 0.53804 0.0
C252 C 0.6331 0.88797 0.03147 0.0
C253 C 0.59989 0.86047 0.04473 0.0
C254 C 0.63867 0.89386 0.9959 0.0
C255 C 0.6113 0.8724 0.97212 0.0
H256 H 0.65553 0.90474 0.04869 0.0
H257 H 0.66515 0.91474 0.98702 0.0
S258 S 0.51739 0.79918 0.99341 0.0
N259 N 0.53789 0.81325 0.03117 0.0
N260 N 0.54818 0.8242 0.96443 0.0
C261 C 0.57723 0.84565 0.98502 0.0
C262 C 0.57156 0.8397 0.02126 0.0
C263 C 0.64142 0.57928 0.52402 0.0
C264 C 0.61733 0.60189 0.54927 0.0
C265 C 0.63425 0.58694 0.48884 0.0
C266 C 0.60271 0.61752 0.47742 0.0
H267 H 0.66624 0.55566 0.53142 0.0
H268 H 0.6539 0.56879 0.47046 0.0
S269 S 0.53011 0.68477 0.53306 0.0
N270 N 0.55996 0.65581 0.56031 0.0
N271 N 0.54668 0.67007 0.4943 0.0
C272 C 0.57809 0.64009 0.50237 0.0
C273 C 0.58535 0.6323 0.53822 0.0
C274 C 0.8456 0.57864 1.00246 0.0
C275 C 0.87229 0.59976 0.97801 0.0
C276 C 0.8518 0.58543 0.03782 0.0
C277 C 0.88504 0.61349 0.05024 0.0
H278 H 0.81918 0.55726 0.99427 0.0
H279 H 0.82988 0.56881 0.05555 0.0
S280 S 0.96569 0.67457 0.99696 0.0
N281 N 0.93463 0.64852 0.96875 0.0
N282 N 0.94619 0.66111 0.03519 0.0
C283 C 0.91268 0.634 0.02612 0.0
C284 C 0.90631 0.62718 0.99004 0.0
C285 C 0.85036 0.89224 0.48865 0.0
C286 C 0.88329 0.86472 0.47508 0.0
C287 C 0.84527 0.89797 0.52425 0.0
C288 C 0.87281 0.87625 0.54777 0.0
H289 H 0.8277 0.9091 0.47166 0.0
H290 H 0.81889 0.91875 0.53336 0.0
S291 S 0.96641 0.80326 0.52566 0.0
N292 N 0.94549 0.81751 0.48806 0.0
N293 N 0.936 0.82811 0.55492 0.0
C294 C 0.90675 0.84966 0.53457 0.0
C295 C 0.91199 0.84394 0.49827 0.0
C296 C 0.25184 0.27468 0.15324 0.0
C297 C 0.20649 0.26857 0.15907 0.0
C298 C 0.28096 0.23917 0.15271 0.0
C299 C 0.26562 0.19623 0.15733 0.0
H300 H 0.26506 0.3072 0.14882 0.0
H301 H 0.31546 0.24527 0.14773 0.0
S302 S 0.15093 0.16261 0.17651 0.0
N303 N 0.1483 0.21642 0.17197 0.0
N304 N 0.20294 0.14943 0.17029 0.0
C305 C 0.22064 0.18963 0.1641 0.0
C306 C 0.19108 0.22588 0.16519 0.0
C307 C 0.26032 0.23859 0.6892 0.0
C308 C 0.27135 0.26307 0.65978 0.0
C309 C 0.22577 0.20802 0.68829 0.0
C310 C 0.20118 0.20169 0.65803 0.0
H311 H 0.27928 0.24221 0.71265 0.0
H312 H 0.2179 0.18972 0.7114 0.0
S313 S 0.2186 0.25717 0.57408 0.0
N314 N 0.25652 0.27823 0.59962 0.0
N315 N 0.19077 0.22196 0.59799 0.0
C316 C 0.21198 0.2263 0.62861 0.0
C317 C 0.2474 0.2567 0.62944 0.0
C318 C 0.20985 0.28394 0.37482 0.0
C319 C 0.25561 0.27929 0.3704 0.0
C320 C 0.18199 0.24741 0.37538 0.0
C321 C 0.19904 0.20493 0.37222 0.0
H322 H 0.19532 0.31612 0.37806 0.0
H323 H 0.14708 0.25241 0.3792 0.0
S324 S 0.31575 0.17493 0.3573 0.0
N325 N 0.31621 0.22894 0.36053 0.0
N326 N 0.26397 0.16005 0.36231 0.0
C327 C 0.24453 0.19976 0.36692 0.0
C328 C 0.27281 0.23702 0.36578 0.0
C329 C 0.2313 0.18395 0.86514 0.0
C330 C 0.27387 0.20098 0.86181 0.0
C331 C 0.19477 0.21186 0.86558 0.0
C332 C 0.1995 0.2577 0.86215 0.0
H333 H 0.22626 0.14905 0.86871 0.0
H334 H 0.16257 0.19736 0.86911 0.0
S335 S 0.30399 0.31792 0.84888 0.0
N336 N 0.3188 0.26601 0.85246 0.0
N337 N 0.24995 0.31838 0.8528 0.0
C338 C 0.24178 0.27488 0.85711 0.0
C339 C 0.27904 0.24652 0.8571 0.0
C340 C 0.75693 0.77493 0.86291 0.0
C341 C 0.71103 0.76947 0.86022 0.0
C342 C 0.78529 0.7388 0.86351 0.0
C343 C 0.76863 0.69598 0.86206 0.0
H344 H 0.77112 0.80742 0.86501 0.0
H345 H 0.82026 0.7444 0.86639 0.0
S346 S 0.65162 0.66384 0.85197 0.0
N347 N 0.65062 0.71796 0.85373 0.0
N348 N 0.70385 0.64986 0.8554 0.0
C349 C 0.723 0.69001 0.85819 0.0
C350 C 0.69418 0.72684 0.85708 0.0
C351 C 0.74181 0.69571 0.36454 0.0
C352 C 0.69951 0.71285 0.35993 0.0
C353 C 0.77853 0.7234 0.36472 0.0
C354 C 0.77422 0.76905 0.35976 0.0
H355 H 0.74641 0.66102 0.36946 0.0
H356 H 0.81049 0.70892 0.36938 0.0
S357 S 0.67062 0.82902 0.3423 0.0
N358 N 0.65534 0.77744 0.34742 0.0
N359 N 0.72452 0.82943 0.34727 0.0
C360 C 0.73225 0.78618 0.35327 0.0
C361 C 0.69481 0.75806 0.35351 0.0
C362 C 0.78847 0.72897 0.66342 0.0
C363 C 0.77063 0.77132 0.66179 0.0
C364 C 0.7611 0.69205 0.66352 0.0
C365 C 0.71501 0.69627 0.66267 0.0
H366 H 0.82375 0.72425 0.66342 0.0
H367 H 0.77625 0.65989 0.66385 0.0
S368 S 0.65205 0.80025 0.66142 0.0
N369 N 0.70407 0.81569 0.66141 0.0
N370 N 0.65274 0.74609 0.66214 0.0
C371 C 0.69674 0.73847 0.66262 0.0
C372 C 0.72457 0.77608 0.662 0.0
C373 C 0.73966 0.6948 0.16213 0.0
C374 C 0.78206 0.7124 0.16484 0.0
C375 C 0.70291 0.7223 0.16053 0.0
C376 C 0.70723 0.76832 0.16214 0.0
H377 H 0.73493 0.65968 0.15987 0.0
H378 H 0.67086 0.7073 0.15752 0.0
S379 S 0.81111 0.83023 0.17332 0.0
N380 N 0.82641 0.7783 0.17177 0.0
N381 N 0.75708 0.82998 0.16928 0.0
C382 C 0.74932 0.7862 0.16666 0.0
C383 C 0.78683 0.75821 0.16783 0.0
C384 C 0.22036 0.02884 0.27962 0.0
C385 C 0.20471 0.06899 0.29255 0.0
C386 C 0.25142 0.02796 0.25271 0.0
C387 C 0.26871 0.0672 0.23924 0.0
H388 H 0.20786 -0.00181 0.28981 0.0
H389 H 0.26233 -0.00336 0.24272 0.0
S390 S 0.23897 0.18051 0.26512 0.0
N391 N 0.20863 0.14858 0.28988 0.0
N392 N 0.26808 0.14693 0.24087 0.0
C393 C 0.25377 0.10732 0.25253 0.0
C394 C 0.22148 0.10821 0.27887 0.0
C395 C 0.43345 0.27077 0.76711 0.0
C396 C 0.43249 0.25441 0.73322 0.0
C397 C 0.43421 0.24239 0.79549 0.0
C398 C 0.43319 0.19674 0.79084 0.0
H399 H 0.43102 0.30573 0.77178 0.0
H400 H 0.43186 0.25631 0.82108 0.0
S401 S 0.43702 0.13739 0.70762 0.0
N402 N 0.4361 0.18977 0.69671 0.0
N403 N 0.43649 0.13635 0.75013 0.0
C404 C 0.43585 0.18001 0.75719 0.0
C405 C 0.43584 0.20891 0.7283 0.0
C406 C 0.24544 0.43105 0.23074 0.0
C407 C 0.19964 0.4287 0.23467 0.0
C408 C 0.27306 0.43281 0.2596 0.0
C409 C 0.25571 0.4333 0.2932 0.0
H410 H 0.26015 0.42791 0.20546 0.0
H411 H 0.30827 0.43129 0.25563 0.0
S412 S 0.13766 0.43472 0.31671 0.0
N413 N 0.13789 0.43189 0.27425 0.0
N414 N 0.1898 0.43638 0.32847 0.0
C415 C 0.2099 0.43517 0.29724 0.0
C416 C 0.18182 0.4325 0.26792 0.0
C417 C 0.03747 0.18524 0.76812 0.0
C418 C 0.0388 0.20126 0.73413 0.0
C419 C 0.03605 0.21391 0.79626 0.0
C420 C 0.03691 0.25951 0.79124 0.0
H421 H 0.04039 0.15036 0.77306 0.0
H422 H 0.0383 0.20028 0.82197 0.0
S423 S 0.03343 0.31785 0.70747 0.0
N424 N 0.03494 0.26536 0.69702 0.0
N425 N 0.0334 0.31941 0.74998 0.0
C426 C 0.03428 0.27585 0.75743 0.0
C427 C 0.03489 0.24662 0.72878 0.0
C428 C 0.7531 0.93501 0.79116 0.0
C429 C 0.7078 0.9294 0.78572 0.0
C430 C 0.78252 0.93542 0.76336 0.0
C431 C 0.7675 0.93135 0.72924 0.0
H432 H 0.7663 0.93545 0.81706 0.0
H433 H 0.81745 0.93632 0.76873 0.0
S434 S 0.65145 0.9225 0.70118 0.0
N435 N 0.64885 0.9244 0.74362 0.0
N436 N 0.70414 0.92628 0.6914 0.0
C437 C 0.72202 0.9299 0.72334 0.0
C438 C 0.69213 0.9286 0.75163 0.0
C439 C 0.54208 0.75461 0.29276 0.0
C440 C 0.54338 0.70881 0.28901 0.0
C441 C 0.54335 0.78217 0.26388 0.0
C442 C 0.54506 0.76485 0.23032 0.0
H443 H 0.54365 0.76933 0.31811 0.0
H444 H 0.54548 0.81728 0.26793 0.0
S445 S 0.54209 0.64709 0.20677 0.0
N446 N 0.54152 0.64726 0.24929 0.0
N447 N 0.54292 0.69915 0.19496 0.0
C448 C 0.54223 0.71919 0.22619 0.0
C449 C 0.54171 0.6911 0.25561 0.0
C450 C 0.78786 0.5359 0.7606 0.0
C451 C 0.77095 0.53821 0.79428 0.0
C452 C 0.75989 0.53527 0.73193 0.0
C453 C 0.7141 0.53794 0.73602 0.0
H454 H 0.82303 0.53707 0.7563 0.0
H455 H 0.77437 0.53624 0.70646 0.0
S456 S 0.65326 0.53899 0.81878 0.0
N457 N 0.70555 0.53828 0.83016 0.0
N458 N 0.6529 0.53814 0.77627 0.0
C459 C 0.69673 0.53694 0.76958 0.0
C460 C 0.72521 0.53676 0.79877 0.0
C461 C 0.94346 0.72555 0.29573 0.0
C462 C 0.94024 0.771 0.29034 0.0
C463 C 0.94423 0.69646 0.26779 0.0
C464 C 0.94282 0.71195 0.23365 0.0
H465 H 0.94145 0.71217 0.32153 0.0
H466 H 0.94308 0.66154 0.27298 0.0
S467 S 0.94186 0.82839 0.2061 0.0
N468 N 0.94109 0.83045 0.24859 0.0
N469 N 0.9436 0.77577 0.1961 0.0
C470 C 0.94421 0.75743 0.22801 0.0
C471 C 0.9426 0.787 0.25641 0.0
C472 C 0.4959 0.02406 0.16677 0.0
C473 C 0.45421 0.01417 0.18043 0.0
C474 C 0.52889 -0.00823 0.16539 0.0
C475 C 0.52067 0.94917 0.17771 0.0
H476 H 0.50176 0.05547 0.15453 0.0
H477 H 0.55936 -0.00095 0.15214 0.0
S478 S 0.42041 0.91035 0.22245 0.0
N479 N 0.40918 0.96143 0.21134 0.0
N480 N 0.47093 0.90105 0.2088 0.0
C481 C 0.48081 0.9406 0.19453 0.0
C482 C 0.44754 0.97313 0.19589 0.0
C483 C 0.548 0.45639 0.67486 0.0
C484 C 0.53746 0.50097 0.67117 0.0
C485 C 0.51537 0.42441 0.67554 0.0
C486 C 0.47079 0.43563 0.6725 0.0
H487 H 0.58197 0.44583 0.67612 0.0
H488 H 0.52538 0.39036 0.67723 0.0
S489 S 0.42545 0.54811 0.66541 0.0
N490 N 0.47925 0.55536 0.66704 0.0
N491 N 0.41727 0.49461 0.66823 0.0
C492 C 0.45937 0.48027 0.671 0.0
C493 C 0.49293 0.51316 0.67034 0.0
C494 C 0.02869 0.49134 0.19565 0.0
C495 C 0.01895 0.45122 0.1797 0.0
C496 C -0.00202 0.52521 0.19634 0.0
C497 C 0.95648 0.52011 0.18112 0.0
H498 H 0.06143 0.49771 0.20547 0.0
H499 H 0.00794 0.55671 0.20667 0.0
S500 S 0.91305 0.41949 0.13998 0.0
N501 N 0.96365 0.40633 0.15156 0.0
N502 N 0.90532 0.47058 0.15289 0.0
C503 C 0.9447 0.47881 0.16802 0.0
C504 C 0.97623 0.44407 0.16729 0.0
C505 C 0.95663 0.98181 0.70278 0.0
C506 C 0.96214 0.94372 0.68302 0.0
C507 C -0.01079 0.01397 0.70376 0.0
C508 C 0.02825 0.0091 0.68492 0.0
H509 H 0.92544 -0.01153 0.71521 0.0
H510 H 0.98217 0.04454 0.71689 0.0
S511 S 0.0607 0.91283 0.6328 0.0
N512 N 0.01116 0.90042 0.64732 0.0
N513 N 0.07286 0.96146 0.64906 0.0
C514 C 0.03613 0.96924 0.66795 0.0
C515 C 0.00278 0.93626 0.66699 0.0
C516 C 0.4616 0.54535 0.34819 0.0
C517 C 0.50547 0.53386 0.35475 0.0
C518 C 0.42847 0.51388 0.34827 0.0
C519 C 0.43783 0.46959 0.35493 0.0
H520 H 0.45239 0.57935 0.34432 0.0
H521 H 0.3949 0.52472 0.3445 0.0
S522 S 0.54809 0.42166 0.36995 0.0
N523 N 0.55744 0.47474 0.36508 0.0
N524 N 0.49451 0.41492 0.36527 0.0
C525 C 0.48194 0.45692 0.35903 0.0
C526 C 0.51601 0.4893 0.35893 0.0
C527 C 0.97748 0.43935 0.83316 0.0
C528 C 0.0194 0.44591 0.84732 0.0
C529 C 0.9461 0.47257 0.8337 0.0
C530 C 0.95556 0.51355 0.84834 0.0
H531 H 0.96787 0.4073 0.82369 0.0
H532 H 0.91321 0.46516 0.82466 0.0
S533 S 0.06213 0.54906 0.88491 0.0
N534 N 0.07047 0.4976 0.87318 0.0
N535 N 0.01087 0.5607 0.87413 0.0
C536 C -0.00148 0.52205 0.85969 0.0
C537 C 0.03074 0.48793 0.85918 0.0
C538 C 0.98594 0.9564 0.32336 0.0
C539 C 0.94683 0.96082 0.34215 0.0
C540 C 0.01757 -0.01051 0.32361 0.0
C541 C 0.01111 0.02802 0.34269 0.0
H542 H -0.00626 0.92566 0.31075 0.0
H543 H 0.04883 0.98331 0.31114 0.0
S544 S 0.9115 0.05792 0.3921 0.0
N545 N 0.90078 0.00841 0.37691 0.0
N546 N 0.96073 0.07119 0.3774 0.0
C547 C 0.97022 0.03491 0.35855 0.0
C548 C 0.9378 0.00098 0.35828 0.0
C549 C 0.52768 -0.00983 0.8284 0.0
C550 C 0.52148 0.9488 0.84349 0.0
C551 C 0.4947 0.02181 0.82946 0.0
C552 C 0.4544 0.0132 0.84568 0.0
H553 H 0.55939 -0.00079 0.81781 0.0
H554 H 0.50194 0.05433 0.81963 0.0
S555 S 0.41995 0.90818 0.8853 0.0
N556 N 0.47072 0.89904 0.87196 0.0
N557 N 0.40814 0.95915 0.874 0.0
C558 C 0.44612 0.9707 0.85803 0.0
C559 C 0.47996 0.9382 0.85691 0.0
loop_
_geom_bond_atom_site_label_1
_geom_bond_atom_site_label_2
_geom_bond_distance
_geom_bond_site_symmetry_2
_ccdc_geom_bond_type
In0 O1 2.294 . S
In0 O2 2.326 . S
In0 O6 2.266 . S
In0 O7 2.326 . S
In0 O8 2.266 . S
In0 O9 2.326 . S
In0 O11 2.294 . S
In0 O12 2.326 . S
O1 In0 2.294 . S
O1 C10 1.240 . S
O2 In0 2.326 . S
O2 C10 1.252 . S
C3 O6 1.252 . S
C3 O7 1.260 . S
C4 O11 1.240 . S
C4 O12 1.252 . S
C5 O8 1.252 . S
C5 O9 1.260 . S
O6 In0 2.266 . S
O6 C3 1.252 . S
O7 In0 2.326 . S
O7 C3 1.260 . S
O8 In0 2.266 . S
O8 C5 1.252 . S
O9 In0 2.326 . S
O9 C5 1.260 . S
C10 O1 1.240 . S
C10 O2 1.252 . S
O11 In0 2.294 . S
O11 C4 1.240 . S
O12 In0 2.326 . S
O12 C4 1.252 . S
In13 O14 2.294 . S
In13 O15 2.326 . S
In13 O19 2.266 . S
In13 O20 2.326 . S
In13 O21 2.266 . S
In13 O22 2.326 . S
In13 O24 2.294 . S
In13 O25 2.326 . S
O14 In13 2.294 . S
O14 C23 1.240 . S
O15 In13 2.326 . S
O15 C23 1.252 . S
C16 O19 1.252 . S
C16 O20 1.260 . S
C17 O24 1.240 . S
C17 O25 1.252 . S
C18 O21 1.252 . S
C18 O22 1.260 . S
O19 In13 2.266 . S
O19 C16 1.252 . S
O20 In13 2.326 . S
O20 C16 1.260 . S
O21 In13 2.266 . S
O21 C18 1.252 . S
O22 In13 2.326 . S
O22 C18 1.260 . S
C23 O14 1.240 . S
C23 O15 1.252 . S
O24 In13 2.294 . S
O24 C17 1.240 . S
O25 In13 2.326 . S
O25 C17 1.252 . S
In26 O27 2.294 . S
In26 O28 2.326 . S
In26 O32 2.266 . S
In26 O33 2.326 . S
In26 O34 2.266 . S
In26 O35 2.326 . S
In26 O37 2.294 . S
In26 O38 2.326 . S
O27 In26 2.294 . S
O27 C36 1.240 . S
O28 In26 2.326 . S
O28 C36 1.252 . S
C29 O32 1.252 . S
C29 O33 1.260 . S
C30 O37 1.240 . S
C30 O38 1.252 . S
C31 O34 1.252 . S
C31 O35 1.260 . S
O32 In26 2.266 . S
O32 C29 1.252 . S
O33 In26 2.326 . S
O33 C29 1.260 . S
O34 In26 2.266 . S
O34 C31 1.252 . S
O35 In26 2.326 . S
O35 C31 1.260 . S
C36 O27 1.240 . S
C36 O28 1.252 . S
O37 In26 2.294 . S
O37 C30 1.240 . S
O38 In26 2.326 . S
O38 C30 1.252 . S
In39 O40 2.294 . S
In39 O41 2.326 . S
In39 O45 2.266 . S
In39 O46 2.326 . S
In39 O47 2.266 . S
In39 O48 2.326 . S
In39 O50 2.294 . S
In39 O51 2.326 . S
O40 In39 2.294 . S
O40 C49 1.240 . S
O41 In39 2.326 . S
O41 C49 1.252 . S
C42 O45 1.252 . S
C42 O46 1.260 . S
C43 O50 1.240 . S
C43 O51 1.252 . S
C44 O47 1.252 . S
C44 O48 1.260 . S
O45 In39 2.266 . S
O45 C42 1.252 . S
O46 In39 2.326 . S
O46 C42 1.260 . S
O47 In39 2.266 . S
O47 C44 1.252 . S
O48 In39 2.326 . S
O48 C44 1.260 . S
C49 O40 1.240 . S
C49 O41 1.252 . S
O50 In39 2.294 . S
O50 C43 1.240 . S
O51 In39 2.326 . S
O51 C43 1.252 . S
In52 O53 2.294 . S
In52 O54 2.326 . S
In52 O58 2.266 . S
In52 O59 2.326 . S
In52 O60 2.266 . S
In52 O61 2.326 . S
In52 O63 2.294 . S
In52 O64 2.326 . S
O53 In52 2.294 . S
O53 C62 1.240 . S
O54 In52 2.326 . S
O54 C62 1.252 . S
C55 O58 1.252 . S
C55 O59 1.260 . S
C56 O63 1.240 . S
C56 O64 1.252 . S
C57 O60 1.252 . S
C57 O61 1.260 . S
O58 In52 2.266 . S
O58 C55 1.252 . S
O59 In52 2.326 . S
O59 C55 1.260 . S
O60 In52 2.266 . S
O60 C57 1.252 . S
O61 In52 2.326 . S
O61 C57 1.260 . S
C62 O53 1.240 . S
C62 O54 1.252 . S
O63 In52 2.294 . S
O63 C56 1.240 . S
O64 In52 2.326 . S
O64 C56 1.252 . S
In65 O66 2.294 . S
In65 O67 2.326 . S
In65 O71 2.266 . S
In65 O72 2.326 . S
In65 O73 2.266 . S
In65 O74 2.326 . S
In65 O76 2.294 . S
In65 O77 2.326 . S
O66 In65 2.294 . S
O66 C75 1.240 . S
O67 In65 2.326 . S
O67 C75 1.252 . S
C68 O71 1.252 . S
C68 O72 1.260 . S
C69 O76 1.240 . S
C69 O77 1.252 . S
C70 O73 1.252 . S
C70 O74 1.260 . S
O71 In65 2.266 . S
O71 C68 1.252 . S
O72 In65 2.326 . S
O72 C68 1.260 . S
O73 In65 2.266 . S
O73 C70 1.252 . S
O74 In65 2.326 . S
O74 C70 1.260 . S
C75 O66 1.240 . S
C75 O67 1.252 . S
O76 In65 2.294 . S
O76 C69 1.240 . S
O77 In65 2.326 . S
O77 C69 1.252 . S
In78 O79 2.294 . S
In78 O80 2.326 . S
In78 O84 2.266 . S
In78 O85 2.326 . S
In78 O86 2.266 . S
In78 O87 2.326 . S
In78 O89 2.294 . S
In78 O90 2.326 . S
O79 In78 2.294 . S
O79 C88 1.240 . S
O80 In78 2.326 . S
O80 C88 1.252 . S
C81 O84 1.252 . S
C81 O85 1.260 . S
C82 O89 1.240 . S
C82 O90 1.252 . S
C83 O86 1.252 . S
C83 O87 1.260 . S
O84 In78 2.266 . S
O84 C81 1.252 . S
O85 In78 2.326 . S
O85 C81 1.260 . S
O86 In78 2.266 . S
O86 C83 1.252 . S
O87 In78 2.326 . S
O87 C83 1.260 . S
C88 O79 1.240 . S
C88 O80 1.252 . S
O89 In78 2.294 . S
O89 C82 1.240 . S
O90 In78 2.326 . S
O90 C82 1.252 . S
In91 O92 2.294 . S
In91 O93 2.326 . S
In91 O97 2.266 . S
In91 O98 2.326 . S
In91 O99 2.266 . S
In91 O100 2.326 . S
In91 O102 2.294 . S
In91 O103 2.326 . S
O92 In91 2.294 . S
O92 C101 1.240 . S
O93 In91 2.326 . S
O93 C101 1.252 . S
C94 O97 1.252 . S
C94 O98 1.260 . S
C95 O102 1.240 . S
C95 O103 1.252 . S
C96 O99 1.252 . S
C96 O100 1.260 . S
O97 In91 2.266 . S
O97 C94 1.252 . S
O98 In91 2.326 . S
O98 C94 1.260 . S
O99 In91 2.266 . S
O99 C96 1.252 . S
O100 In91 2.326 . S
O100 C96 1.260 . S
C101 O92 1.240 . S
C101 O93 1.252 . S
O102 In91 2.294 . S
O102 C95 1.240 . S
O103 In91 2.326 . S
O103 C95 1.252 . S
In104 O105 2.294 . S
In104 O106 2.326 . S
In104 O110 2.266 . S
In104 O111 2.326 . S
In104 O112 2.266 . S
In104 O113 2.326 . S
In104 O115 2.294 . S
In104 O116 2.326 . S
O105 In104 2.294 . S
O105 C114 1.240 . S
O106 In104 2.326 . S
O106 C114 1.252 . S
C107 O110 1.252 . S
C107 O111 1.260 . S
C108 O115 1.240 . S
C108 O116 1.252 . S
C109 O112 1.252 . S
C109 O113 1.260 . S
O110 In104 2.266 . S
O110 C107 1.252 . S
O111 In104 2.326 . S
O111 C107 1.260 . S
O112 In104 2.266 . S
O112 C109 1.252 . S
O113 In104 2.326 . S
O113 C109 1.260 . S
C114 O105 1.240 . S
C114 O106 1.252 . S
O115 In104 2.294 . S
O115 C108 1.240 . S
O116 In104 2.326 . S
O116 C108 1.252 . S
In117 O118 2.294 . S
In117 O119 2.326 . S
In117 O123 2.266 . S
In117 O124 2.326 . S
In117 O125 2.266 . S
In117 O126 2.326 . S
In117 O128 2.294 . S
In117 O129 2.326 . S
O118 In117 2.294 . S
O118 C127 1.240 . S
O119 In117 2.326 . S
O119 C127 1.252 . S
C120 O123 1.252 . S
C120 O124 1.260 . S
C121 O128 1.240 . S
C121 O129 1.252 . S
C122 O125 1.252 . S
C122 O126 1.260 . S
O123 In117 2.266 . S
O123 C120 1.252 . S
O124 In117 2.326 . S
O124 C120 1.260 . S
O125 In117 2.266 . S
O125 C122 1.252 . S
O126 In117 2.326 . S
O126 C122 1.260 . S
C127 O118 1.240 . S
C127 O119 1.252 . S
O128 In117 2.294 . S
O128 C121 1.240 . S
O129 In117 2.326 . S
O129 C121 1.252 . S
In130 O131 2.294 . S
In130 O132 2.326 . S
In130 O136 2.266 . S
In130 O137 2.326 . S
In130 O138 2.266 . S
In130 O139 2.326 . S
In130 O141 2.294 . S
In130 O142 2.326 . S
O131 In130 2.294 . S
O131 C140 1.240 . S
O132 In130 2.326 . S
O132 C140 1.252 . S
C133 O136 1.252 . S
C133 O137 1.260 . S
C134 O141 1.240 . S
C134 O142 1.252 . S
C135 O138 1.252 . S
C135 O139 1.260 . S
O136 In130 2.266 . S
O136 C133 1.252 . S
O137 In130 2.326 . S
O137 C133 1.260 . S
O138 In130 2.266 . S
O138 C135 1.252 . S
O139 In130 2.326 . S
O139 C135 1.260 . S
C140 O131 1.240 . S
C140 O132 1.252 . S
O141 In130 2.294 . S
O141 C134 1.240 . S
O142 In130 2.326 . S
O142 C134 1.252 . S
In143 O144 2.294 . S
In143 O145 2.326 . S
In143 O149 2.266 . S
In143 O150 2.326 . S
In143 O151 2.266 . S
In143 O152 2.326 . S
In143 O154 2.294 . S
In143 O155 2.326 . S
O144 In143 2.294 . S
O144 C153 1.240 . S
O145 In143 2.326 . S
O145 C153 1.252 . S
C146 O149 1.252 . S
C146 O150 1.260 . S
C147 O154 1.240 . S
C147 O155 1.252 . S
C148 O151 1.252 . S
C148 O152 1.260 . S
O149 In143 2.266 . S
O149 C146 1.252 . S
O150 In143 2.326 . S
O150 C146 1.260 . S
O151 In143 2.266 . S
O151 C148 1.252 . S
O152 In143 2.326 . S
O152 C148 1.260 . S
C153 O144 1.240 . S
C153 O145 1.252 . S
O154 In143 2.294 . S
O154 C147 1.240 . S
O155 In143 2.326 . S
O155 C147 1.252 . S
In156 O157 2.294 . S
In156 O158 2.326 . S
In156 O162 2.266 . S
In156 O163 2.326 . S
In156 O164 2.266 . S
In156 O165 2.326 . S
In156 O167 2.294 . S
In156 O168 2.326 . S
O157 In156 2.294 . S
O157 C166 1.240 . S
O158 In156 2.326 . S
O158 C166 1.252 . S
C159 O162 1.252 . S
C159 O163 1.260 . S
C160 O167 1.240 . S
C160 O168 1.252 . S
C161 O164 1.252 . S
C161 O165 1.260 . S
O162 In156 2.266 . S
O162 C159 1.252 . S
O163 In156 2.326 . S
O163 C159 1.260 . S
O164 In156 2.266 . S
O164 C161 1.252 . S
O165 In156 2.326 . S
O165 C161 1.260 . S
C166 O157 1.240 . S
C166 O158 1.252 . S
O167 In156 2.294 . S
O167 C160 1.240 . S
O168 In156 2.326 . S
O168 C160 1.252 . S
In169 O170 2.294 . S
In169 O171 2.326 . S
In169 O175 2.266 . S
In169 O176 2.326 . S
In169 O177 2.266 . S
In169 O178 2.326 . S
In169 O180 2.294 . S
In169 O181 2.326 . S
O170 In169 2.294 . S
O170 C179 1.240 . S
O171 In169 2.326 . S
O171 C179 1.252 . S
C172 O175 1.252 . S
C172 O176 1.260 . S
C173 O180 1.240 . S
C173 O181 1.252 . S
C174 O177 1.252 . S
C174 O178 1.260 . S
O175 In169 2.266 . S
O175 C172 1.252 . S
O176 In169 2.326 . S
O176 C172 1.260 . S
O177 In169 2.266 . S
O177 C174 1.252 . S
O178 In169 2.326 . S
O178 C174 1.260 . S
C179 O170 1.240 . S
C179 O171 1.252 . S
O180 In169 2.294 . S
O180 C173 1.240 . S
O181 In169 2.326 . S
O181 C173 1.252 . S
In182 O183 2.294 . S
In182 O184 2.326 . S
In182 O188 2.266 . S
In182 O189 2.326 . S
In182 O190 2.266 . S
In182 O191 2.326 . S
In182 O193 2.294 . S
In182 O194 2.326 . S
O183 In182 2.294 . S
O183 C192 1.240 . S
O184 In182 2.326 . S
O184 C192 1.252 . S
C185 O188 1.252 . S
C185 O189 1.260 . S
C186 O193 1.240 . S
C186 O194 1.252 . S
C187 O190 1.252 . S
C187 O191 1.260 . S
O188 In182 2.266 . S
O188 C185 1.252 . S
O189 In182 2.326 . S
O189 C185 1.260 . S
O190 In182 2.266 . S
O190 C187 1.252 . S
O191 In182 2.326 . S
O191 C187 1.260 . S
C192 O183 1.240 . S
C192 O184 1.252 . S
O193 In182 2.294 . S
O193 C186 1.240 . S
O194 In182 2.326 . S
O194 C186 1.252 . S
In195 O196 2.294 . S
In195 O197 2.326 . S
In195 O201 2.266 . S
In195 O202 2.326 . S
In195 O203 2.266 . S
In195 O204 2.326 . S
In195 O206 2.294 . S
In195 O207 2.326 . S
O196 In195 2.294 . S
O196 C205 1.240 . S
O197 In195 2.326 . S
O197 C205 1.252 . S
C198 O201 1.252 . S
C198 O202 1.260 . S
C199 O206 1.240 . S
C199 O207 1.252 . S
C200 O203 1.252 . S
C200 O204 1.260 . S
O201 In195 2.266 . S
O201 C198 1.252 . S
O202 In195 2.326 . S
O202 C198 1.260 . S
O203 In195 2.266 . S
O203 C200 1.252 . S
O204 In195 2.326 . S
O204 C200 1.260 . S
C205 O196 1.240 . S
C205 O197 1.252 . S
O206 In195 2.294 . S
O206 C199 1.240 . S
O207 In195 2.326 . S
O207 C199 1.252 . S
C208 C209 1.369 . S
C208 C210 1.419 1_556 S
C208 H212 0.930 . S
C209 C208 1.369 . S
C209 C218 1.429 . S
C210 C208 1.419 1_554 S
C210 C211 1.363 . S
C210 H213 0.929 . S
C211 C210 1.363 . S
C211 C217 1.428 . S
H212 C208 0.930 . S
H213 C210 0.929 . S
S214 N215 1.613 1_554 S
S214 N216 1.610 . S
N215 S214 1.613 1_556 S
N215 C218 1.350 . S
N216 S214 1.610 . S
N216 C217 1.351 . S
C217 C211 1.428 . S
C217 N216 1.351 . S
C217 C218 1.434 1_554 S
C218 C209 1.429 . S
C218 N215 1.350 . S
C218 C217 1.434 1_556 S
C219 C220 1.369 . S
C219 C221 1.419 . S
C219 H223 0.930 . S
C220 C219 1.369 . S
C220 C229 1.429 . S
C221 C219 1.419 . S
C221 C222 1.363 . S
C221 H224 0.929 . S
C222 C221 1.363 . S
C222 C228 1.428 . S
H223 C219 0.930 . S
H224 C221 0.929 . S
S225 N226 1.613 . S
S225 N227 1.610 . S
N226 S225 1.613 . S
N226 C229 1.350 . S
N227 S225 1.610 . S
N227 C228 1.351 . S
C228 C222 1.428 . S
C228 N227 1.351 . S
C228 C229 1.434 . S
C229 C220 1.429 . S
C229 N226 1.350 . S
C229 C228 1.434 . S
C230 C231 1.369 . S
C230 C232 1.419 1_556 S
C230 H234 0.930 . S
C231 C230 1.369 . S
C231 C240 1.429 . S
C232 C230 1.419 1_554 S
C232 C233 1.363 . S
C232 H235 0.929 . S
C233 C232 1.363 . S
C233 C239 1.428 . S
H234 C230 0.930 . S
H235 C232 0.929 . S
S236 N237 1.613 1_554 S
S236 N238 1.610 . S
N237 S236 1.613 1_556 S
N237 C240 1.350 . S
N238 S236 1.610 . S
N238 C239 1.351 . S
C239 C233 1.428 . S
C239 N238 1.351 . S
C239 C240 1.434 1_554 S
C240 C231 1.429 . S
C240 N237 1.350 . S
C240 C239 1.434 1_556 S
C241 C242 1.369 . S
C241 C243 1.419 . S
C241 H245 0.930 . S
C242 C241 1.369 . S
C242 C251 1.429 . S
C243 C241 1.419 . S
C243 C244 1.363 . S
C243 H246 0.929 . S
C244 C243 1.363 . S
C244 C250 1.428 . S
H245 C241 0.930 . S
H246 C243 0.929 . S
S247 N248 1.613 . S
S247 N249 1.610 . S
N248 S247 1.613 . S
N248 C251 1.350 . S
N249 S247 1.610 . S
N249 C250 1.351 . S
C250 C244 1.428 . S
C250 N249 1.351 . S
C250 C251 1.434 . S
C251 C242 1.429 . S
C251 N248 1.350 . S
C251 C250 1.434 . S
C252 C253 1.369 . S
C252 C254 1.419 1_554 S
C252 H256 0.930 . S
C253 C252 1.369 . S
C253 C262 1.429 . S
C254 C252 1.419 1_556 S
C254 C255 1.363 . S
C254 H257 0.929 . S
C255 C254 1.363 . S
C255 C261 1.428 . S
H256 C252 0.930 . S
H257 C254 0.929 . S
S258 N259 1.613 1_556 S
S258 N260 1.610 . S
N259 S258 1.613 1_554 S
N259 C262 1.350 . S
N260 S258 1.610 . S
N260 C261 1.351 . S
C261 C255 1.428 . S
C261 N260 1.351 . S
C261 C262 1.434 1_556 S
C262 C253 1.429 . S
C262 N259 1.350 . S
C262 C261 1.434 1_554 S
C263 C264 1.369 . S
C263 C265 1.419 . S
C263 H267 0.930 . S
C264 C263 1.369 . S
C264 C273 1.429 . S
C265 C263 1.419 . S
C265 C266 1.363 . S
C265 H268 0.929 . S
C266 C265 1.363 . S
C266 C272 1.428 . S
H267 C263 0.930 . S
H268 C265 0.929 . S
S269 N270 1.613 . S
S269 N271 1.610 . S
N270 S269 1.613 . S
N270 C273 1.350 . S
N271 S269 1.610 . S
N271 C272 1.351 . S
C272 C266 1.428 . S
C272 N271 1.351 . S
C272 C273 1.434 . S
C273 C264 1.429 . S
C273 N270 1.350 . S
C273 C272 1.434 . S
C274 C275 1.369 . S
C274 C276 1.419 1_556 S
C274 H278 0.930 . S
C275 C274 1.369 . S
C275 C284 1.429 . S
C276 C274 1.419 1_554 S
C276 C277 1.363 . S
C276 H279 0.929 . S
C277 C276 1.363 . S
C277 C283 1.428 . S
H278 C274 0.930 . S
H279 C276 0.929 . S
S280 N281 1.613 . S
S280 N282 1.610 1_556 S
N281 S280 1.613 . S
N281 C284 1.350 . S
N282 S280 1.610 1_554 S
N282 C283 1.351 . S
C283 C277 1.428 . S
C283 N282 1.351 . S
C283 C284 1.434 1_554 S
C284 C275 1.429 . S
C284 N281 1.350 . S
C284 C283 1.434 1_556 S
C285 C286 1.369 . S
C285 C287 1.419 . S
C285 H289 0.930 . S
C286 C285 1.369 . S
C286 C295 1.429 . S
C287 C285 1.419 . S
C287 C288 1.363 . S
C287 H290 0.929 . S
C288 C287 1.363 . S
C288 C294 1.428 . S
H289 C285 0.930 . S
H290 C287 0.929 . S
S291 N292 1.613 . S
S291 N293 1.610 . S
N292 S291 1.613 . S
N292 C295 1.350 . S
N293 S291 1.610 . S
N293 C294 1.351 . S
C294 C288 1.428 . S
C294 N293 1.351 . S
C294 C295 1.434 . S
C295 C286 1.429 . S
C295 N292 1.350 . S
C295 C294 1.434 . S
C296 C297 1.369 . S
C296 C298 1.419 . S
C296 H300 0.930 . S
C297 C296 1.369 . S
C297 C306 1.429 . S
C298 C296 1.419 . S
C298 C299 1.363 . S
C298 H301 0.929 . S
C299 C298 1.363 . S
C299 C305 1.428 . S
H300 C296 0.930 . S
H301 C298 0.929 . S
S302 N303 1.613 . S
S302 N304 1.610 . S
N303 S302 1.613 . S
N303 C306 1.350 . S
N304 S302 1.610 . S
N304 C305 1.351 . S
C305 C299 1.428 . S
C305 N304 1.351 . S
C305 C306 1.434 . S
C306 C297 1.429 . S
C306 N303 1.350 . S
C306 C305 1.434 . S
C307 C308 1.369 . S
C307 C309 1.419 . S
C307 H311 0.930 . S
C308 C307 1.369 . S
C308 C317 1.429 . S
C309 C307 1.419 . S
C309 C310 1.363 . S
C309 H312 0.929 . S
C310 C309 1.363 . S
C310 C316 1.428 . S
H311 C307 0.930 . S
H312 C309 0.929 . S
S313 N314 1.613 . S
S313 N315 1.610 . S
N314 S313 1.613 . S
N314 C317 1.350 . S
N315 S313 1.610 . S
N315 C316 1.351 . S
C316 C310 1.428 . S
C316 N315 1.351 . S
C316 C317 1.434 . S
C317 C308 1.429 . S
C317 N314 1.350 . S
C317 C316 1.434 . S
C318 C319 1.369 . S
C318 C320 1.419 . S
C318 H322 0.930 . S
C319 C318 1.369 . S
C319 C328 1.429 . S
C320 C318 1.419 . S
C320 C321 1.363 . S
C320 H323 0.929 . S
C321 C320 1.363 . S
C321 C327 1.428 . S
H322 C318 0.930 . S
H323 C320 0.929 . S
S324 N325 1.613 . S
S324 N326 1.610 . S
N325 S324 1.613 . S
N325 C328 1.350 . S
N326 S324 1.610 . S
N326 C327 1.351 . S
C327 C321 1.428 . S
C327 N326 1.351 . S
C327 C328 1.434 . S
C328 C319 1.429 . S
C328 N325 1.350 . S
C328 C327 1.434 . S
C329 C330 1.369 . S
C329 C331 1.419 . S
C329 H333 0.930 . S
C330 C329 1.369 . S
C330 C339 1.429 . S
C331 C329 1.419 . S
C331 C332 1.363 . S
C331 H334 0.929 . S
C332 C331 1.363 . S
C332 C338 1.428 . S
H333 C329 0.930 . S
H334 C331 0.929 . S
S335 N336 1.613 . S
S335 N337 1.610 . S
N336 S335 1.613 . S
N336 C339 1.350 . S
N337 S335 1.610 . S
N337 C338 1.351 . S
C338 C332 1.428 . S
C338 N337 1.351 . S
C338 C339 1.434 . S
C339 C330 1.429 . S
C339 N336 1.350 . S
C339 C338 1.434 . S
C340 C341 1.369 . S
C340 C342 1.419 . S
C340 H344 0.930 . S
C341 C340 1.369 . S
C341 C350 1.429 . S
C342 C340 1.419 . S
C342 C343 1.363 . S
C342 H345 0.929 . S
C343 C342 1.363 . S
C343 C349 1.428 . S
H344 C340 0.930 . S
H345 C342 0.929 . S
S346 N347 1.613 . S
S346 N348 1.610 . S
N347 S346 1.613 . S
N347 C350 1.350 . S
N348 S346 1.610 . S
N348 C349 1.351 . S
C349 C343 1.428 . S
C349 N348 1.351 . S
C349 C350 1.434 . S
C350 C341 1.429 . S
C350 N347 1.350 . S
C350 C349 1.434 . S
C351 C352 1.369 . S
C351 C353 1.419 . S
C351 H355 0.930 . S
C352 C351 1.369 . S
C352 C361 1.429 . S
C353 C351 1.419 . S
C353 C354 1.363 . S
C353 H356 0.929 . S
C354 C353 1.363 . S
C354 C360 1.428 . S
H355 C351 0.930 . S
H356 C353 0.929 . S
S357 N358 1.613 . S
S357 N359 1.610 . S
N358 S357 1.613 . S
N358 C361 1.350 . S
N359 S357 1.610 . S
N359 C360 1.351 . S
C360 C354 1.428 . S
C360 N359 1.351 . S
C360 C361 1.434 . S
C361 C352 1.429 . S
C361 N358 1.350 . S
C361 C360 1.434 . S
C362 C363 1.369 . S
C362 C364 1.419 . S
C362 H366 0.930 . S
C363 C362 1.369 . S
C363 C372 1.429 . S
C364 C362 1.419 . S
C364 C365 1.363 . S
C364 H367 0.929 . S
C365 C364 1.363 . S
C365 C371 1.428 . S
H366 C362 0.930 . S
H367 C364 0.929 . S
S368 N369 1.613 . S
S368 N370 1.610 . S
N369 S368 1.613 . S
N369 C372 1.350 . S
N370 S368 1.610 . S
N370 C371 1.351 . S
C371 C365 1.428 . S
C371 N370 1.351 . S
C371 C372 1.434 . S
C372 C363 1.429 . S
C372 N369 1.350 . S
C372 C371 1.434 . S
C373 C374 1.369 . S
C373 C375 1.419 . S
C373 H377 0.930 . S
C374 C373 1.369 . S
C374 C383 1.429 . S
C375 C373 1.419 . S
C375 C376 1.363 . S
C375 H378 0.929 . S
C376 C375 1.363 . S
C376 C382 1.428 . S
H377 C373 0.930 . S
H378 C375 0.929 . S
S379 N380 1.613 . S
S379 N381 1.610 . S
N380 S379 1.613 . S
N380 C383 1.350 . S
N381 S379 1.610 . S
N381 C382 1.351 . S
C382 C376 1.428 . S
C382 N381 1.351 . S
C382 C383 1.434 . S
C383 C374 1.429 . S
C383 N380 1.350 . S
C383 C382 1.434 . S
C384 C385 1.369 . S
C384 C386 1.419 . S
C384 H388 0.930 . S
C385 C384 1.369 . S
C385 C394 1.429 . S
C386 C384 1.419 . S
C386 C387 1.363 . S
C386 H389 0.929 . S
C387 C386 1.363 . S
C387 C393 1.428 . S
H388 C384 0.930 . S
H389 C386 0.929 . S
S390 N391 1.613 . S
S390 N392 1.610 . S
N391 S390 1.613 . S
N391 C394 1.350 . S
N392 S390 1.610 . S
N392 C393 1.351 . S
C393 C387 1.428 . S
C393 N392 1.351 . S
C393 C394 1.434 . S
C394 C385 1.429 . S
C394 N391 1.350 . S
C394 C393 1.434 . S
C395 C396 1.369 . S
C395 C397 1.419 . S
C395 H399 0.930 . S
C396 C395 1.369 . S
C396 C405 1.429 . S
C397 C395 1.419 . S
C397 C398 1.363 . S
C397 H400 0.929 . S
C398 C397 1.363 . S
C398 C404 1.428 . S
H399 C395 0.930 . S
H400 C397 0.929 . S
S401 N402 1.613 . S
S401 N403 1.610 . S
N402 S401 1.613 . S
N402 C405 1.350 . S
N403 S401 1.610 . S
N403 C404 1.351 . S
C404 C398 1.428 . S
C404 N403 1.351 . S
C404 C405 1.434 . S
C405 C396 1.429 . S
C405 N402 1.350 . S
C405 C404 1.434 . S
C406 C407 1.369 . S
C406 C408 1.419 . S
C406 H410 0.930 . S
C407 C406 1.369 . S
C407 C416 1.429 . S
C408 C406 1.419 . S
C408 C409 1.363 . S
C408 H411 0.929 . S
C409 C408 1.363 . S
C409 C415 1.428 . S
H410 C406 0.930 . S
H411 C408 0.929 . S
S412 N413 1.613 . S
S412 N414 1.610 . S
N413 S412 1.613 . S
N413 C416 1.350 . S
N414 S412 1.610 . S
N414 C415 1.351 . S
C415 C409 1.428 . S
C415 N414 1.351 . S
C415 C416 1.434 . S
C416 C407 1.429 . S
C416 N413 1.350 . S
C416 C415 1.434 . S
C417 C418 1.369 . S
C417 C419 1.419 . S
C417 H421 0.930 . S
C418 C417 1.369 . S
C418 C427 1.429 . S
C419 C417 1.419 . S
C419 C420 1.363 . S
C419 H422 0.929 . S
C420 C419 1.363 . S
C420 C426 1.428 . S
H421 C417 0.930 . S
H422 C419 0.929 . S
S423 N424 1.613 . S
S423 N425 1.610 . S
N424 S423 1.613 . S
N424 C427 1.350 . S
N425 S423 1.610 . S
N425 C426 1.351 . S
C426 C420 1.428 . S
C426 N425 1.351 . S
C426 C427 1.434 . S
C427 C418 1.429 . S
C427 N424 1.350 . S
C427 C426 1.434 . S
C428 C429 1.369 . S
C428 C430 1.419 . S
C428 H432 0.930 . S
C429 C428 1.369 . S
C429 C438 1.429 . S
C430 C428 1.419 . S
C430 C431 1.363 . S
C430 H433 0.929 . S
C431 C430 1.363 . S
C431 C437 1.428 . S
H432 C428 0.930 . S
H433 C430 0.929 . S
S434 N435 1.613 . S
S434 N436 1.610 . S
N435 S434 1.613 . S
N435 C438 1.350 . S
N436 S434 1.610 . S
N436 C437 1.351 . S
C437 C431 1.428 . S
C437 N436 1.351 . S
C437 C438 1.434 . S
C438 C429 1.429 . S
C438 N435 1.350 . S
C438 C437 1.434 . S
C439 C440 1.369 . S
C439 C441 1.419 . S
C439 H443 0.930 . S
C440 C439 1.369 . S
C440 C449 1.429 . S
C441 C439 1.419 . S
C441 C442 1.363 . S
C441 H444 0.929 . S
C442 C441 1.363 . S
C442 C448 1.428 . S
H443 C439 0.930 . S
H444 C441 0.929 . S
S445 N446 1.613 . S
S445 N447 1.610 . S
N446 S445 1.613 . S
N446 C449 1.350 . S
N447 S445 1.610 . S
N447 C448 1.351 . S
C448 C442 1.428 . S
C448 N447 1.351 . S
C448 C449 1.434 . S
C449 C440 1.429 . S
C449 N446 1.350 . S
C449 C448 1.434 . S
C450 C451 1.369 . S
C450 C452 1.419 . S
C450 H454 0.930 . S
C451 C450 1.369 . S
C451 C460 1.429 . S
C452 C450 1.419 . S
C452 C453 1.363 . S
C452 H455 0.929 . S
C453 C452 1.363 . S
C453 C459 1.428 . S
H454 C450 0.930 . S
H455 C452 0.929 . S
S456 N457 1.613 . S
S456 N458 1.610 . S
N457 S456 1.613 . S
N457 C460 1.350 . S
N458 S456 1.610 . S
N458 C459 1.351 . S
C459 C453 1.428 . S
C459 N458 1.351 . S
C459 C460 1.434 . S
C460 C451 1.429 . S
C460 N457 1.350 . S
C460 C459 1.434 . S
C461 C462 1.369 . S
C461 C463 1.419 . S
C461 H465 0.930 . S
C462 C461 1.369 . S
C462 C471 1.429 . S
C463 C461 1.419 . S
C463 C464 1.363 . S
C463 H466 0.929 . S
C464 C463 1.363 . S
C464 C470 1.428 . S
H465 C461 0.930 . S
H466 C463 0.929 . S
S467 N468 1.613 . S
S467 N469 1.610 . S
N468 S467 1.613 . S
N468 C471 1.350 . S
N469 S467 1.610 . S
N469 C470 1.351 . S
C470 C464 1.428 . S
C470 N469 1.351 . S
C470 C471 1.434 . S
C471 C462 1.429 . S
C471 N468 1.350 . S
C471 C470 1.434 . S
C472 C473 1.369 . S
C472 C474 1.421 . S
C472 H476 0.930 . S
C473 C472 1.369 . S
C473 C482 1.429 1_545 S
C474 C472 1.421 . S
C474 C475 1.360 1_545 S
C474 H477 0.930 . S
C475 C474 1.360 1_565 S
C475 C481 1.428 . S
H476 C472 0.930 . S
H477 C474 0.930 . S
S478 N479 1.613 . S
S478 N480 1.610 . S
N479 S478 1.613 . S
N479 C482 1.350 . S
N480 S478 1.610 . S
N480 C481 1.351 . S
C481 C475 1.428 . S
C481 N480 1.351 . S
C481 C482 1.434 . S
C482 C473 1.429 1_565 S
C482 N479 1.350 . S
C482 C481 1.434 . S
C483 C484 1.369 . S
C483 C485 1.419 . S
C483 H487 0.930 . S
C484 C483 1.369 . S
C484 C493 1.429 . S
C485 C483 1.419 . S
C485 C486 1.363 . S
C485 H488 0.929 . S
C486 C485 1.363 . S
C486 C492 1.428 . S
H487 C483 0.930 . S
H488 C485 0.929 . S
S489 N490 1.613 . S
S489 N491 1.610 . S
N490 S489 1.613 . S
N490 C493 1.350 . S
N491 S489 1.610 . S
N491 C492 1.351 . S
C492 C486 1.428 . S
C492 N491 1.351 . S
C492 C493 1.434 . S
C493 C484 1.429 . S
C493 N490 1.350 . S
C493 C492 1.434 . S
C494 C495 1.369 . S
C494 C496 1.419 . S
C494 H498 0.930 . S
C495 C494 1.369 . S
C495 C504 1.429 1_455 S
C496 C494 1.419 . S
C496 C497 1.363 1_455 S
C496 H499 0.929 . S
C497 C496 1.363 1_655 S
C497 C503 1.428 . S
H498 C494 0.930 . S
H499 C496 0.929 . S
S500 N501 1.613 . S
S500 N502 1.610 . S
N501 S500 1.613 . S
N501 C504 1.350 . S
N502 S500 1.610 . S
N502 C503 1.351 . S
C503 C497 1.428 . S
C503 N502 1.351 . S
C503 C504 1.434 . S
C504 C495 1.429 1_655 S
C504 N501 1.350 . S
C504 C503 1.434 . S
C505 C506 1.369 1_545 S
C505 C507 1.419 . S
C505 H509 0.930 . S
C506 C505 1.369 1_565 S
C506 C515 1.429 1_655 S
C507 C505 1.419 . S
C507 C508 1.363 1_655 S
C507 H510 0.929 . S
C508 C507 1.363 1_455 S
C508 C514 1.428 1_545 S
H509 C505 0.930 . S
H510 C507 0.929 . S
S511 N512 1.613 . S
S511 N513 1.610 . S
N512 S511 1.613 . S
N512 C515 1.350 . S
N513 S511 1.610 . S
N513 C514 1.351 . S
C514 C508 1.428 1_565 S
C514 N513 1.351 . S
C514 C515 1.434 . S
C515 C506 1.429 1_455 S
C515 N512 1.350 . S
C515 C514 1.434 . S
C516 C517 1.369 . S
C516 C518 1.419 . S
C516 H520 0.930 . S
C517 C516 1.369 . S
C517 C526 1.429 . S
C518 C516 1.419 . S
C518 C519 1.363 . S
C518 H521 0.929 . S
C519 C518 1.363 . S
C519 C525 1.428 . S
H520 C516 0.930 . S
H521 C518 0.929 . S
S522 N523 1.613 . S
S522 N524 1.610 . S
N523 S522 1.613 . S
N523 C526 1.350 . S
N524 S522 1.610 . S
N524 C525 1.351 . S
C525 C519 1.428 . S
C525 N524 1.351 . S
C525 C526 1.434 . S
C526 C517 1.429 . S
C526 N523 1.350 . S
C526 C525 1.434 . S
C527 C528 1.369 1_655 S
C527 C529 1.419 . S
C527 H531 0.930 . S
C528 C527 1.369 1_455 S
C528 C537 1.429 . S
C529 C527 1.419 . S
C529 C530 1.363 . S
C529 H532 0.929 . S
C530 C529 1.363 . S
C530 C536 1.428 1_655 S
H531 C527 0.930 . S
H532 C529 0.929 . S
S533 N534 1.613 . S
S533 N535 1.610 . S
N534 S533 1.613 . S
N534 C537 1.350 . S
N535 S533 1.610 . S
N535 C536 1.351 . S
C536 C530 1.428 1_455 S
C536 N535 1.351 . S
C536 C537 1.434 . S
C537 C528 1.429 . S
C537 N534 1.350 . S
C537 C536 1.434 . S
C538 C539 1.369 1_455 S
C538 C540 1.419 . S
C538 H542 0.930 . S
C539 C538 1.369 1_655 S
C539 C548 1.429 . S
C540 C538 1.419 . S
C540 C541 1.363 1_565 S
C540 H543 0.929 . S
C541 C540 1.363 1_545 S
C541 C547 1.428 . S
H542 C538 0.930 . S
H543 C540 0.929 . S
S544 N545 1.613 . S
S544 N546 1.610 . S
N545 S544 1.613 . S
N545 C548 1.350 1_545 S
N546 S544 1.610 . S
N546 C547 1.351 1_655 S
C547 C541 1.428 . S
C547 N546 1.351 1_455 S
C547 C548 1.434 1_445 S
C548 C539 1.429 . S
C548 N545 1.350 1_565 S
C548 C547 1.434 1_665 S
C549 C550 1.369 1_545 S
C549 C551 1.419 . S
C549 H553 0.930 . S
C550 C549 1.369 1_565 S
C550 C559 1.429 . S
C551 C549 1.419 . S
C551 C552 1.363 . S
C551 H554 0.929 . S
C552 C551 1.363 . S
C552 C558 1.428 1_545 S
H553 C549 0.930 . S
H554 C551 0.929 . S
S555 N556 1.613 . S
S555 N557 1.610 . S
N556 S555 1.613 . S
N556 C559 1.350 . S
N557 S555 1.610 . S
N557 C558 1.351 . S
C558 C552 1.428 1_565 S
C558 N557 1.351 . S
C558 C559 1.434 . S
C559 C550 1.429 . S
C559 N556 1.350 . S
C559 C558 1.434 . S
C209 C95 1.607 . S
C211 C10 1.609 . S
C220 C56 1.612 . S
C222 C17 1.605 . S
C231 C75 1.610 . S
C233 C30 1.607 . S
C242 C49 1.603 . S
C244 C88 1.611 . S
C253 C205 1.612 . S
C255 C108 1.605 . S
C264 C166 1.604 . S
C266 C127 1.609 . S
C275 C140 1.610 . S
C277 C173 1.608 . S
C286 C153 1.613 . S
C288 C192 1.604 . S
C297 C29 1.378 . S
C299 C5 1.366 . S
C308 C16 1.371 . S
C310 C44 1.368 . S
C319 C55 1.377 . S
C321 C83 1.366 . S
C330 C94 1.364 . S
C332 C70 1.376 . S
C341 C107 1.375 . S
C343 C135 1.370 . S
C352 C122 1.364 . S
C354 C148 1.376 . S
C363 C187 1.367 . S
C365 C161 1.376 . S
C374 C172 1.366 . S
C376 C200 1.376 . S
C385 C81 1.439 . S
C387 C3 1.442 . S
C396 C18 1.447 . S
C398 C96 1.441 . S
C407 C31 1.441 . S
C409 C57 1.446 . S
C418 C42 1.446 . S
C420 C68 1.441 . S
C429 C109 1.441 . S
C431 C185 1.441 . S
C440 C120 1.441 . S
C442 C198 1.446 . S
C451 C133 1.446 . S
C453 C159 1.444 . S
C462 C146 1.440 . S
C464 C174 1.446 . S
C473 C4 1.370 . S
C475 C199 1.370 . S
C484 C160 1.374 . S
C486 C23 1.373 . S
C495 C36 1.373 . S
C497 C179 1.373 . S
C506 C186 1.374 . S
C508 C43 1.373 . S
C517 C121 1.374 . S
C519 C62 1.373 . S
C528 C69 1.373 . S
C530 C134 1.373 . S
C539 C147 1.373 . S
C541 C82 1.372 . S
C550 C114 1.374 . S
C552 C101 1.373 . S
