# Generated by pormake.
# Topology wme, (6)-cn, num edge types: 1
# Building blocks:
#     Node 0, Type 0, BuildingBlock: MIFKUJ_clean_sbu_0, # of connection points: 6
#     Node 1, Type 0, BuildingBlock: MIFKUJ_clean_sbu_0, # of connection points: 6
#     Node 2, Type 0, BuildingBlock: MIFKUJ_clean_sbu_0, # of connection points: 6
#     Node 3, Type 0, BuildingBlock: MIFKUJ_clean_sbu_0, # of connection points: 6
#     Node 4, Type 0, BuildingBlock: MIFKUJ_clean_sbu_0, # of connection points: 6
#     Node 5, Type 0, BuildingBlock: MIFKUJ_clean_sbu_0, # of connection points: 6
#     Node 6, Type 0, BuildingBlock: MIFKUJ_clean_sbu_0, # of connection points: 6
#     Node 7, Type 0, BuildingBlock: MIFKUJ_clean_sbu_0, # of connection points: 6
#     Node 8, Type 0, BuildingBlock: MIFKUJ_clean_sbu_0, # of connection points: 6
#     Node 9, Type 0, BuildingBlock: MIFKUJ_clean_sbu_0, # of connection points: 6
#     Node 10, Type 0, BuildingBlock: MIFKUJ_clean_sbu_0, # of connection points: 6
#     Node 11, Type 0, BuildingBlock: MIFKUJ_clean_sbu_0, # of connection points: 6
#     Edge 12, Type (0, 0), BuildingBlock: AJUNOK_clean_linker_0, # of connection points: 2
#     Edge 13, Type (0, 0), BuildingBlock: AJUNOK_clean_linker_0, # of connection points: 2
#     Edge 14, Type (0, 0), BuildingBlock: AJUNOK_clean_linker_0, # of connection points: 2
#     Edge 15, Type (0, 0), BuildingBlock: AJUNOK_clean_linker_0, # of connection points: 2
#     Edge 16, Type (0, 0), BuildingBlock: AJUNOK_clean_linker_0, # of connection points: 2
#     Edge 17, Type (0, 0), BuildingBlock: AJUNOK_clean_linker_0, # of connection points: 2
#     Edge 18, Type (0, 0), BuildingBlock: AJUNOK_clean_linker_0, # of connection points: 2
#     Edge 19, Type (0, 0), BuildingBlock: AJUNOK_clean_linker_0, # of connection points: 2
#     Edge 20, Type (0, 0), BuildingBlock: AJUNOK_clean_linker_0, # of connection points: 2
#     Edge 21, Type (0, 0), BuildingBlock: AJUNOK_clean_linker_0, # of connection points: 2
#     Edge 22, Type (0, 0), BuildingBlock: AJUNOK_clean_linker_0, # of connection points: 2
#     Edge 23, Type (0, 0), BuildingBlock: AJUNOK_clean_linker_0, # of connection points: 2
#     Edge 24, Type (0, 0), BuildingBlock: AJUNOK_clean_linker_0, # of connection points: 2
#     Edge 25, Type (0, 0), BuildingBlock: AJUNOK_clean_linker_0, # of connection points: 2
#     Edge 26, Type (0, 0), BuildingBlock: AJUNOK_clean_linker_0, # of connection points: 2
#     Edge 27, Type (0, 0), BuildingBlock: AJUNOK_clean_linker_0, # of connection points: 2
#     Edge 28, Type (0, 0), BuildingBlock: AJUNOK_clean_linker_0, # of connection points: 2
#     Edge 29, Type (0, 0), BuildingBlock: AJUNOK_clean_linker_0, # of connection points: 2
#     Edge 30, Type (0, 0), BuildingBlock: AJUNOK_clean_linker_0, # of connection points: 2
#     Edge 31, Type (0, 0), BuildingBlock: AJUNOK_clean_linker_0, # of connection points: 2
#     Edge 32, Type (0, 0), BuildingBlock: AJUNOK_clean_linker_0, # of connection points: 2
#     Edge 33, Type (0, 0), BuildingBlock: AJUNOK_clean_linker_0, # of connection points: 2
#     Edge 34, Type (0, 0), BuildingBlock: AJUNOK_clean_linker_0, # of connection points: 2
#     Edge 35, Type (0, 0), BuildingBlock: AJUNOK_clean_linker_0, # of connection points: 2
#     Edge 36, Type (0, 0), BuildingBlock: AJUNOK_clean_linker_0, # of connection points: 2
#     Edge 37, Type (0, 0), BuildingBlock: AJUNOK_clean_linker_0, # of connection points: 2
#     Edge 38, Type (0, 0), BuildingBlock: AJUNOK_clean_linker_0, # of connection points: 2
#     Edge 39, Type (0, 0), BuildingBlock: AJUNOK_clean_linker_0, # of connection points: 2
#     Edge 40, Type (0, 0), BuildingBlock: AJUNOK_clean_linker_0, # of connection points: 2
#     Edge 41, Type (0, 0), BuildingBlock: AJUNOK_clean_linker_0, # of connection points: 2
#     Edge 42, Type (0, 0), BuildingBlock: AJUNOK_clean_linker_0, # of connection points: 2
#     Edge 43, Type (0, 0), BuildingBlock: AJUNOK_clean_linker_0, # of connection points: 2
#     Edge 44, Type (0, 0), BuildingBlock: AJUNOK_clean_linker_0, # of connection points: 2
#     Edge 45, Type (0, 0), BuildingBlock: AJUNOK_clean_linker_0, # of connection points: 2
#     Edge 46, Type (0, 0), BuildingBlock: AJUNOK_clean_linker_0, # of connection points: 2
#     Edge 47, Type (0, 0), BuildingBlock: AJUNOK_clean_linker_0, # of connection points: 2
# Relax obj value: 0.085
# Max RMSD: 0.184
# Mean RMSD: 0.184
data_MOF--net-wme--node1-MIFKUJ_clean_sbu_0--edge1-AJUNOK_clean_linker_0
_symmetry_space_group_name_H-M    P1
_symmetry_Int_Tables_number       1
_symmetry_cell_setting            triclinic
loop_
_symmetry_equiv_pos_as_xyz
'x, y, z'
_cell_length_a     26.657986
_cell_length_b     27.034553
_cell_length_c     38.204481
_cell_angle_alpha  89.451457
_cell_angle_beta   90.332522
_cell_angle_gamma 120.67456
loop_
_atom_site_label
_atom_site_type_symbol
_atom_site_fract_x
_atom_site_fract_y
_atom_site_fract_z
_atom_type_partial_charge
Zn0 Zn 0.22611 0.26668 0.09693 0.0
Zn1 Zn 0.2321 0.38628 0.07652 0.0
C2 C 0.10445 0.20726 0.10651 0.0
O3 O 0.12292 0.20514 0.13813 0.0
C4 C 0.34536 0.48216 0.06249 0.0
O5 O 0.32135 0.47493 0.03139 0.0
O6 O 0.22484 0.19223 0.1045 0.0
O7 O 0.2833 0.3089 0.05932 0.0
O8 O 0.23083 0.34051 0.03402 0.0
C9 C 0.22002 0.16215 0.07782 0.0
O10 O 0.22343 0.18387 0.04643 0.0
O11 O 0.14187 0.23642 0.08289 0.0
C12 C 0.19658 0.46613 0.08776 0.0
O13 O 0.2147 0.46132 0.11896 0.0
O14 O 0.19784 0.43548 0.06307 0.0
O15 O 0.19248 0.34788 0.12258 0.0
O16 O 0.24427 0.31034 0.14125 0.0
O17 O 0.31624 0.44625 0.08667 0.0
C18 C 0.26681 0.32293 0.03182 0.0
C19 C 0.21511 0.3344 0.14758 0.0
Zn20 Zn 0.9584 0.20942 0.60489 0.0
Zn21 Zn 0.84787 0.24031 0.57852 0.0
C22 C 0.88844 0.0914 0.622 0.0
O23 O 0.91223 0.11339 0.65242 0.0
C24 C 0.86405 0.35147 0.57278 0.0
O25 O 0.8572 0.33555 0.53987 0.0
O26 O 0.02832 0.20494 0.6216 0.0
O27 O 0.98066 0.25399 0.56 0.0
O28 O 0.90443 0.2565 0.53848 0.0
C29 C 0.07792 0.23085 0.60672 0.0
O30 O 0.0879 0.26943 0.58245 0.0
O31 O 0.89938 0.12539 0.59607 0.0
C32 C 0.72863 0.19723 0.58614 0.0
O33 O 0.7486 0.20861 0.61835 0.0
O34 O 0.76439 0.20607 0.56148 0.0
O35 O 0.84221 0.18951 0.61942 0.0
O36 O 0.92912 0.23838 0.64315 0.0
O37 O 0.86522 0.31789 0.59595 0.0
C38 C 0.95629 0.26618 0.53548 0.0
C39 C 0.87419 0.20799 0.64647 0.0
Zn40 Zn 0.7498 0.93976 0.10022 0.0
Zn41 Zn 0.63111 0.82441 0.08043 0.0
C42 C 0.80654 0.87657 0.1052 0.0
O43 O 0.81567 0.89981 0.13637 0.0
C44 C 0.53894 0.84534 0.06818 0.0
O45 O 0.54831 0.83369 0.0364 0.0
O46 O 0.82656 0.01386 0.10871 0.0
O47 O 0.70894 0.95668 0.06256 0.0
O48 O 0.67621 0.87258 0.03774 0.0
C49 C 0.86141 0.03291 0.08275 0.0
O50 O 0.84374 1.00566 0.05285 0.0
O51 O 0.77568 0.88548 0.08342 0.0
C52 C 0.5483 0.7069 0.09106 0.0
O53 O 0.55442 0.72781 0.12271 0.0
O54 O 0.57904 0.74086 0.06642 0.0
O55 O 0.67154 0.82129 0.12507 0.0
O56 O 0.70522 0.90893 0.14501 0.0
O57 O 0.57234 0.8474 0.09276 0.0
C58 C 0.69366 0.92603 0.03527 0.0
C59 C 0.68561 0.85578 0.1506 0.0
Zn60 Zn 0.79728 0.74205 0.61731 0.0
Zn61 Zn 0.79183 0.62111 0.59536 0.0
C62 C 0.91913 0.80208 0.62742 0.0
O63 O 0.90025 0.80819 0.65782 0.0
C64 C 0.68283 0.52928 0.57223 0.0
O65 O 0.71264 0.54427 0.54289 0.0
O66 O 0.79549 0.81466 0.62693 0.0
O67 O 0.74258 0.70237 0.57804 0.0
O68 O 0.79807 0.67365 0.55428 0.0
C69 C 0.80661 0.84944 0.60148 0.0
O70 O 0.81462 0.83451 0.57031 0.0
O71 O 0.88173 0.772 0.60414 0.0
C72 C 0.82555 0.53922 0.60555 0.0
O73 O 0.7997 0.53682 0.63521 0.0
O74 O 0.82966 0.5751 0.5822 0.0
O75 O 0.82432 0.65169 0.64421 0.0
O76 O 0.77871 0.69624 0.66111 0.0
O77 O 0.70689 0.55886 0.59952 0.0
C78 C 0.76325 0.69266 0.55097 0.0
C79 C 0.80756 0.672 0.66841 0.0
Zn80 Zn 0.06863 0.79932 0.09283 0.0
Zn81 Zn 0.19343 0.77747 0.07777 0.0
C82 C 0.10816 0.91385 0.09252 0.0
O83 O 0.07118 0.89107 0.11863 0.0
C84 C 0.17588 0.66673 0.06084 0.0
O85 O 0.19184 0.6912 0.02982 0.0
O86 O 0.98619 0.78297 0.09766 0.0
O87 O 0.0698 0.73751 0.06605 0.0
O88 O 0.1493 0.78053 0.03496 0.0
C89 C 0.96357 0.79561 0.07226 0.0
O90 O 0.9918 0.81177 0.04237 0.0
O91 O 0.11569 0.88034 0.07286 0.0
C92 C 0.31138 0.81765 0.09335 0.0
O93 O 0.28637 0.79692 0.12378 0.0
O94 O 0.27983 0.81663 0.06788 0.0
O95 O 0.1843 0.80744 0.12464 0.0
O96 O 0.10344 0.8072 0.13949 0.0
O97 O 0.17047 0.69479 0.08558 0.0
C98 C 0.09402 0.75359 0.03648 0.0
C99 C 0.15394 0.8161 0.14665 0.0
Zn100 Zn 0.27393 0.06258 0.59971 0.0
Zn101 Zn 0.40344 0.18144 0.57456 0.0
C102 C 0.21359 0.11819 0.61875 0.0
O103 O 0.20584 0.08552 0.64628 0.0
C104 C 0.50024 0.16897 0.56031 0.0
O105 O 0.49111 0.18529 0.52959 0.0
O106 O 0.2018 0.98785 0.61446 0.0
O107 O 0.30091 0.04777 0.55481 0.0
O108 O 0.35824 0.13483 0.53231 0.0
C109 C 0.16144 0.96289 0.5918 0.0
O110 O 0.17101 0.98385 0.55977 0.0
O111 O 0.24385 0.1173 0.59336 0.0
C112 C 0.48215 0.29838 0.58722 0.0
O113 O 0.4756 0.27503 0.61844 0.0
O114 O 0.45262 0.26614 0.56188 0.0
O115 O 0.36152 0.17968 0.61879 0.0
O116 O 0.3329 0.09248 0.63828 0.0
O117 O 0.46504 0.16079 0.58513 0.0
C118 C 0.32739 0.08044 0.52892 0.0
C119 C 0.35036 0.14493 0.64415 0.0
Zn120 Zn 0.77998 0.80278 0.34668 0.0
Zn121 Zn 0.64104 0.77995 0.36834 0.0
C122 C 0.82628 0.91994 0.33177 0.0
O123 O 0.83016 0.89937 0.30155 0.0
C124 C 0.55564 0.65419 0.35878 0.0
O125 O 0.59361 0.65297 0.33756 0.0
O126 O 0.85754 0.80941 0.33884 0.0
O127 O 0.7431 0.74814 0.38666 0.0
O128 O 0.6946 0.78658 0.40884 0.0
C129 C 0.89397 0.8235 0.36379 0.0
O130 O 0.87833 0.82968 0.39526 0.0
O131 O 0.80204 0.88492 0.35722 0.0
C132 C 0.56881 0.82209 0.35271 0.0
O133 O 0.55975 0.78565 0.32755 0.0
O134 O 0.60686 0.83079 0.37595 0.0
O135 O 0.66557 0.79205 0.31707 0.0
O136 O 0.73797 0.77944 0.30138 0.0
O137 O 0.56858 0.70113 0.37357 0.0
C138 C 0.72119 0.75888 0.41278 0.0
C139 C 0.69676 0.78798 0.29354 0.0
Zn140 Zn 0.97355 0.77026 0.86216 0.0
Zn141 Zn 0.85969 0.59092 0.86892 0.0
C142 C 0.93597 0.84592 0.85036 0.0
O143 O 0.97587 0.85918 0.82622 0.0
C144 C 0.89069 0.50273 0.87113 0.0
O145 O 0.91964 0.52972 0.89936 0.0
O146 O 0.05792 0.83076 0.86709 0.0
O147 O 0.94441 0.69971 0.88908 0.0
O148 O 0.90399 0.61777 0.91519 0.0
C149 C 0.07074 0.86367 0.89334 0.0
O150 O 0.0311 0.85003 0.91771 0.0
O151 O 0.92696 0.8071 0.87264 0.0
C152 C 0.73891 0.5339 0.85263 0.0
O153 O 0.76057 0.53834 0.82116 0.0
O154 O 0.77402 0.5574 0.87801 0.0
O155 O 0.88805 0.65218 0.82919 0.0
O156 O 0.94937 0.74296 0.81349 0.0
O157 O 0.86551 0.52358 0.85308 0.0
C158 C 0.94244 0.6705 0.91537 0.0
C159 C 0.90828 0.69236 0.80614 0.0
Zn160 Zn 0.2592 0.98819 0.33777 0.0
Zn161 Zn 0.27729 0.8655 0.35362 0.0
C162 C 0.14016 0.92656 0.33504 0.0
O163 O 0.15677 0.95649 0.3058 0.0
C164 C 0.38893 0.87935 0.37262 0.0
O165 O 0.3685 0.87279 0.40461 0.0
O166 O 0.26078 0.0639 0.33194 0.0
O167 O 0.32376 0.99649 0.36791 0.0
O168 O 0.27644 0.91292 0.39464 0.0
C169 C 0.24294 0.08305 0.35625 0.0
O170 O 0.22957 0.05641 0.38671 0.0
O171 O 0.17898 0.93243 0.35691 0.0
C172 C 0.23146 0.74644 0.34157 0.0
O173 O 0.25512 0.76909 0.31115 0.0
O174 O 0.23297 0.77975 0.36551 0.0
O175 O 0.25092 0.87474 0.30513 0.0
O176 O 0.26189 0.95968 0.29093 0.0
O177 O 0.35916 0.88191 0.34733 0.0
C178 C 0.306 0.96763 0.39599 0.0
C179 C 0.24934 0.90922 0.28279 0.0
Zn180 Zn 0.25117 0.20741 0.84101 0.0
Zn181 Zn 0.40216 0.24073 0.85507 0.0
C182 C 0.24342 0.09745 0.86068 0.0
O183 O 0.27988 0.1078 0.83491 0.0
C184 C 0.50113 0.34836 0.87549 0.0
O185 O 0.48615 0.32371 0.90649 0.0
O186 O 0.1736 0.20326 0.83323 0.0
O187 O 0.30304 0.27679 0.8694 0.0
O188 O 0.3529 0.24182 0.89505 0.0
C189 C 0.13866 0.19416 0.85839 0.0
O190 O 0.15512 0.19108 0.89042 0.0
O191 O 0.22931 0.13455 0.86796 0.0
C192 C 0.47239 0.1901 0.84546 0.0
O193 O 0.47228 0.20859 0.81354 0.0
O194 O 0.44186 0.19601 0.86875 0.0
O195 O 0.36848 0.2165 0.80679 0.0
O196 O 0.28218 0.20607 0.79399 0.0
O197 O 0.46972 0.32162 0.84924 0.0
C198 C 0.32549 0.26893 0.89668 0.0
C199 C 0.32825 0.20665 0.78508 0.0
Zn200 Zn 0.07645 0.27796 0.3398 0.0
Zn201 Zn 0.19133 0.41425 0.36052 0.0
C202 C 0.14841 0.23157 0.32863 0.0
O203 O 0.12259 0.22482 0.29819 0.0
C204 C 0.18347 0.51466 0.37226 0.0
O205 O 0.19611 0.50549 0.40407 0.0
O206 O 1.00512 0.20059 0.32896 0.0
O207 O 0.0537 0.30984 0.37875 0.0
O208 O 0.13955 0.36961 0.40268 0.0
C209 C 0.98127 0.16502 0.35416 0.0
O210 O 1.00191 0.18154 0.38593 0.0
O211 O 0.13777 0.25716 0.35278 0.0
C212 C 0.31762 0.45784 0.36176 0.0
O213 O 0.3047 0.41608 0.33966 0.0
O214 O 0.2763 0.46129 0.37577 0.0
O215 O 0.19185 0.37628 0.31443 0.0
O216 O 0.09998 0.32701 0.29715 0.0
O217 O 0.17515 0.47836 0.34856 0.0
C218 C 0.08411 0.33859 0.40464 0.0
C219 C 0.15397 0.35383 0.29018 0.0
Zn220 Zn 0.77212 0.03932 0.8351 0.0
Zn221 Zn 0.76426 0.14617 0.85772 0.0
C222 C 0.89353 0.10765 0.82733 0.0
O223 O 0.87596 0.08283 0.7967 0.0
C224 C 0.65727 0.14102 0.87538 0.0
O225 O 0.68396 0.15577 0.90581 0.0
O226 O 0.78298 0.97267 0.82701 0.0
O227 O 0.71264 0.01505 0.8726 0.0
O228 O 0.76429 0.09748 0.89909 0.0
C229 C 0.7985 0.95623 0.85411 0.0
O230 O 0.79732 0.97737 0.88469 0.0
O231 O 0.85495 0.09941 0.84996 0.0
C232 C 0.80789 0.2618 0.84788 0.0
O233 O 0.77849 0.23861 0.81899 0.0
O234 O 0.80885 0.22895 0.87158 0.0
O235 O 0.8005 0.15001 0.81014 0.0
O236 O 0.75185 0.06189 0.79011 0.0
O237 O 0.68192 0.13084 0.8503 0.0
C238 C 0.73018 0.04323 0.90069 0.0
C239 C 0.78225 0.1155 0.78452 0.0
C240 C 0.13648 0.01106 0.11447 0.0
C241 C 0.14084 0.97735 0.08809 0.0
C242 C 0.16481 0.07089 0.11164 0.0
C243 C 0.198 0.09985 0.08195 0.0
H244 H 0.11022 0.99119 0.13758 0.0
H245 H 0.15858 0.09431 0.13237 0.0
S246 S 0.22683 0.03283 0.00625 0.0
N247 N 0.18394 0.97799 0.03201 0.0
N248 N 0.23625 0.09095 0.02619 0.0
C249 C 0.204 0.06715 0.05558 0.0
C250 C 0.17569 1.00585 0.05875 0.0
C251 C 0.14006 0.14114 0.64122 0.0
C252 C 0.18444 0.15249 0.61707 0.0
C253 C 0.10785 0.16883 0.63868 0.0
C254 C 0.11895 0.20949 0.61207 0.0
H255 H 0.12852 0.10907 0.66165 0.0
H256 H 0.07274 0.15682 0.65717 0.0
S257 S 0.23568 0.26008 0.54489 0.0
N258 N 0.24149 0.21098 0.56759 0.0
N259 N 0.18136 0.2635 0.56285 0.0
C260 C 0.16558 0.2238 0.58896 0.0
C261 C 0.19812 0.19512 0.5914 0.0
C262 C 0.94116 0.11079 0.1189 0.0
C263 C 0.92247 0.08169 0.08679 0.0
C264 C 0.99969 0.15326 0.12445 0.0
C265 C 0.04187 0.16891 0.09804 0.0
H266 H 0.91073 0.09968 0.14033 0.0
H267 H 1.01227 0.17312 0.14998 0.0
S268 S 1.01654 0.10609 0.00932 0.0
N269 N 0.95167 0.07224 0.02801 0.0
N270 N 0.06121 0.15221 0.03862 0.0
C271 C 0.02372 0.14158 0.06549 0.0
C272 C 0.9642 0.09794 0.05984 0.0
C273 C 0.83434 0.94724 0.57858 0.0
C274 C 0.81825 0.9088 0.60719 0.0
C275 C 0.85366 1.00564 0.58337 0.0
C276 C 0.85797 0.02817 0.61701 0.0
H277 H 0.83418 0.93272 0.55223 0.0
H278 H 0.86801 0.03375 0.56063 0.0
S279 S 0.81225 0.94446 0.70017 0.0
N280 N 0.80143 0.89654 0.67008 0.0
N281 N 0.83782 1.00625 0.67905 0.0
C282 C 0.83828 0.98962 0.64563 0.0
C283 C 0.81839 0.93001 0.64075 0.0
C284 C 0.89717 0.80585 0.11358 0.0
C285 C 0.91441 0.80533 0.07889 0.0
C286 C 0.8597 0.82617 0.12152 0.0
C287 C 0.8373 0.84617 0.09513 0.0
H288 H 0.91516 0.79347 0.13512 0.0
H289 H 0.85001 0.8282 0.1488 0.0
S290 S 0.86195 0.84614 -0.00039 0.0
N291 N 0.90101 0.82085 0.01747 0.0
N292 N 0.83018 0.85871 0.03251 0.0
C293 C 0.85045 0.8418 0.06009 0.0
C294 C 0.88911 0.82148 0.05196 0.0
C295 C 1.0011 0.84798 0.58412 0.0
C296 C 0.98241 0.83638 0.61915 0.0
C297 C 0.05957 0.88707 0.57566 0.0
C298 C 0.10196 0.91589 0.60184 0.0
H299 H 0.96994 0.8287 0.56296 0.0
H300 H 0.07116 0.89601 0.54824 0.0
S301 S 0.07679 0.8953 0.69777 0.0
N302 N 1.01195 0.85293 0.68033 0.0
N303 N 0.12166 0.92612 0.66446 0.0
C304 C 0.08447 0.9021 0.63702 0.0
C305 C 0.0248 0.8625 0.64564 0.0
C306 C 0.05678 0.88648 0.37723 0.0
C307 C 0.07726 0.89138 0.34285 0.0
C308 C 0.99697 0.86188 0.38399 0.0
C309 C 0.95557 0.84092 0.35664 0.0
H310 H 0.08728 0.90453 0.39881 0.0
H311 H 0.98345 0.86143 0.41073 0.0
S312 S 0.98715 0.83563 0.26254 0.0
N313 N 0.05171 0.8676 0.28167 0.0
N314 N 0.93955 0.82094 0.29419 0.0
C315 C 0.97552 0.84195 0.32242 0.0
C316 C 0.03632 0.86735 0.31558 0.0
C317 C 0.16577 0.93529 0.86616 0.0
C318 C 0.12306 0.92216 0.89185 0.0
C319 C 0.20798 0.99234 0.85823 0.0
C320 C 0.20876 0.03851 0.87548 0.0
H321 H 0.16464 0.90142 0.85061 0.0
H322 H 0.23756 1.00016 0.83676 0.0
S323 S 0.1132 0.02712 0.94924 0.0
N324 N 0.08951 0.95991 0.93804 0.0
N325 N 0.1685 0.06706 0.9229 0.0
C326 C 0.16984 0.02585 0.90349 0.0
C327 C 0.1271 0.96767 0.91177 0.0
C328 C 0.18734 0.18625 0.36998 0.0
C329 C 0.18185 0.20218 0.33564 0.0
C330 C 0.20986 0.15 0.3765 0.0
C331 C 0.22833 0.1286 0.34899 0.0
H332 H 0.17141 0.19943 0.39192 0.0
H333 H 0.21079 0.13705 0.4033 0.0
S334 S 0.23055 0.16418 0.25458 0.0
N335 N 0.20213 0.19848 0.27404 0.0
N336 N 0.24477 0.13105 0.2862 0.0
C337 C 0.2267 0.14745 0.31471 0.0
C338 C 0.20335 0.18397 0.30808 0.0
C339 C 0.05615 0.16801 0.8166 0.0
C340 C 0.0776 0.17959 0.85112 0.0
C341 C 0.99719 0.14735 0.80922 0.0
C342 C 0.95687 0.13759 0.83595 0.0
H343 H 0.0846 0.17284 0.79506 0.0
H344 H 0.98292 0.13734 0.78227 0.0
S345 S 0.99169 0.16769 0.93031 0.0
N346 N 0.05453 0.18452 0.9121 0.0
N347 N 0.94371 0.14583 0.8981 0.0
C348 C 0.97819 0.15199 0.87038 0.0
C349 C 0.03843 0.17284 0.87798 0.0
C350 C 0.91267 0.06499 0.37622 0.0
C351 C 0.93545 0.10399 0.34782 0.0
C352 C 0.87474 1.00589 0.37099 0.0
C353 C 0.85815 0.98322 0.33712 0.0
H354 H 0.92568 0.07979 0.40279 0.0
H355 H 0.8605 0.97756 0.39363 0.0
S356 S 0.89902 0.06742 0.25406 0.0
N357 N 0.93377 0.11595 0.28468 0.0
N358 N 0.86265 1.00514 0.27488 0.0
C359 C 0.87782 0.02204 0.3086 0.0
C360 C 0.91635 0.08228 0.31392 0.0
C361 C 0.86238 0.86396 0.87841 0.0
C362 C 0.89989 0.87309 0.85016 0.0
C363 C 0.82805 0.8895 0.87891 0.0
C364 C 0.82906 0.92401 0.85088 0.0
H365 H 0.86019 0.83773 0.90063 0.0
H366 H 0.80099 0.8827 0.9016 0.0
S367 S 0.91979 0.96183 0.77078 0.0
N368 N 0.93632 0.91989 0.79354 0.0
N369 N 0.8705 0.96636 0.79419 0.0
C370 C 0.86541 0.93264 0.82217 0.0
C371 C 0.90127 0.90767 0.82194 0.0
C372 C 0.18138 0.58183 0.04033 0.0
C373 C 0.17245 0.61087 0.06783 0.0
C374 C 0.18615 0.53319 0.04671 0.0
C375 C 0.18254 0.51185 0.08089 0.0
H376 H 0.18672 0.59781 0.01369 0.0
H377 H 0.19531 0.51382 0.02484 0.0
S378 S 0.15211 0.56742 0.16165 0.0
N379 N 0.15464 0.61104 0.13029 0.0
N380 N 0.16383 0.51999 0.1422 0.0
C381 C 0.17038 0.53844 0.10839 0.0
C382 C 0.16522 0.58778 0.1019 0.0
C383 C 0.65125 0.19069 0.54548 0.0
C384 C 0.66745 0.18161 0.57893 0.0
C385 C 0.59616 0.18408 0.53946 0.0
C386 C 0.55489 0.16795 0.5666 0.0
H387 H 0.68216 0.20541 0.52407 0.0
H388 H 0.58679 0.1937 0.51348 0.0
S389 S 0.57298 0.13128 0.65792 0.0
N390 N 0.63559 0.14989 0.63878 0.0
N391 N 0.53237 0.13761 0.62748 0.0
C392 C 0.56934 0.15545 0.59969 0.0
C393 C 0.62548 0.16228 0.60584 0.0
C394 C 0.48089 0.62967 0.04959 0.0
C395 C 0.50158 0.64665 0.0839 0.0
C396 C 0.43189 0.57545 0.04283 0.0
C397 C 0.40166 0.53575 0.07006 0.0
H398 H 0.50119 0.65927 0.02785 0.0
H399 H 0.41661 0.56543 0.01606 0.0
S400 S 0.44256 0.55654 0.16417 0.0
N401 N 0.4912 0.61733 0.14514 0.0
N402 N 0.39943 0.51569 0.13245 0.0
C403 C 0.42391 0.55099 0.10428 0.0
C404 C 0.47368 0.60632 0.11118 0.0
C405 C 0.85175 0.48506 0.56372 0.0
C406 C 0.84317 0.49626 0.59835 0.0
C407 C 0.86095 0.43967 0.55596 0.0
C408 C 0.8623 0.40375 0.5825 0.0
H409 H 0.84904 0.51001 0.54222 0.0
H410 H 0.86527 0.43173 0.52872 0.0
S411 S 0.84928 0.41936 0.67795 0.0
N412 N 0.84188 0.47094 0.65981 0.0
N413 N 0.85918 0.38585 0.64521 0.0
C414 C 0.85704 0.41652 0.61743 0.0
C415 C 0.84742 0.46262 0.62534 0.0
C416 C 0.44907 0.84422 0.04763 0.0
C417 C 0.48533 0.8474 0.07556 0.0
C418 C 0.39415 0.83767 0.05359 0.0
C419 C 0.37301 0.83372 0.08777 0.0
H420 H 0.46221 0.84478 0.02078 0.0
H421 H 0.36713 0.83313 0.03116 0.0
S422 S 0.45371 0.84716 0.17014 0.0
N423 N 0.49828 0.85171 0.13881 0.0
N424 N 0.39516 0.83935 0.15003 0.0
C425 C 0.41019 0.8403 0.11598 0.0
C426 C 0.46629 0.8472 0.10989 0.0
C427 C 0.6028 0.45048 0.60776 0.0
C428 C 0.62646 0.47381 0.57471 0.0
C429 C 0.55464 0.39468 0.61126 0.0
C430 C 0.52773 0.35978 0.58187 0.0
H431 H 0.62297 0.47452 0.63136 0.0
H432 H 0.53952 0.37827 0.63744 0.0
S433 S 0.56841 0.40272 0.48907 0.0
N434 N 0.61596 0.45931 0.51165 0.0
N435 N 0.52547 0.35447 0.51833 0.0
C436 C 0.54874 0.38367 0.54851 0.0
C437 C 0.59807 0.44059 0.54492 0.0
C438 C 0.47766 0.87796 0.39334 0.0
C439 C 0.44046 0.87357 0.36568 0.0
C440 C 0.52159 0.86455 0.38854 0.0
C441 C 0.52947 0.84558 0.35599 0.0
H442 H 0.47167 0.8901 0.41924 0.0
H443 H 0.54758 0.86642 0.41094 0.0
S444 S 0.44713 0.83154 0.27425 0.0
N445 N 0.41741 0.85277 0.30383 0.0
N446 N 0.49947 0.82753 0.29491 0.0
C447 C 0.49456 0.84385 0.32767 0.0
C448 C 0.45022 0.85788 0.33247 0.0
C449 C 0.63899 0.46313 0.83079 0.0
C450 C 0.67567 0.49374 0.85901 0.0
C451 C 0.58159 0.41823 0.83627 0.0
C452 C 0.5584 0.40185 0.87024 0.0
H453 H 0.65532 0.47221 0.8042 0.0
H454 H 0.55621 0.39458 0.81369 0.0
S455 S 0.63303 0.47383 0.95281 0.0
N456 N 0.6822 0.50867 0.92203 0.0
N457 N 0.57438 0.42419 0.93229 0.0
C458 C 0.59317 0.43456 0.89856 0.0
C459 C 0.65171 0.48052 0.89297 0.0
C460 C 0.20724 0.66505 0.38347 0.0
C461 C 0.21074 0.6847 0.34884 0.0
C462 C 0.19592 0.60922 0.39071 0.0
C463 C 0.18714 0.5704 0.36367 0.0
H464 H 0.21579 0.69376 0.4052 0.0
H465 H 0.19588 0.59713 0.41783 0.0
S466 S 0.18463 0.59836 0.26847 0.0
N467 N 0.19928 0.65909 0.28721 0.0
N468 N 0.17779 0.5544 0.3008 0.0
C469 C 0.18718 0.58843 0.32896 0.0
C470 C 0.19908 0.64545 0.32157 0.0
C471 C 0.58606 0.14621 0.83448 0.0
C472 C 0.60435 0.14525 0.86899 0.0
C473 C 0.54168 0.15829 0.82736 0.0
C474 C 0.51324 0.16956 0.85441 0.0
H475 H 0.60773 0.13989 0.81256 0.0
H476 H 0.53082 0.16042 0.80024 0.0
S477 S 0.54022 0.1662 0.94963 0.0
N478 N 0.58707 0.15208 0.93079 0.0
N479 N 0.5037 0.17459 0.91737 0.0
C480 C 0.5288 0.1656 0.88916 0.0
C481 C 0.57431 0.15357 0.89644 0.0
C482 C 0.42376 0.504 0.34655 0.0
C483 C 0.3793 0.50563 0.36537 0.0
C484 C 0.48086 0.55142 0.34547 0.0
C485 C 0.49619 0.60267 0.36319 0.0
H486 H 0.41414 0.46637 0.33153 0.0
H487 H 0.51282 0.54822 0.32982 0.0
S488 S 0.3973 0.62799 0.41863 0.0
N489 N 0.35566 0.56197 0.40397 0.0
N490 N 0.46259 0.65081 0.40202 0.0
C491 C 0.45277 0.60409 0.38338 0.0
C492 C 0.39456 0.55573 0.38447 0.0
C493 C 0.84596 0.41566 0.83361 0.0
C494 C 0.87816 0.44383 0.8637 0.0
C495 C 0.82523 0.35732 0.82834 0.0
C496 C 0.83561 0.32454 0.85298 0.0
H497 H 0.83486 0.43827 0.81439 0.0
H498 H 0.79921 0.33753 0.80518 0.0
S499 S 0.92391 0.3792 0.93406 0.0
N500 N 0.92429 0.43571 0.91697 0.0
N501 N 0.88494 0.32566 0.90701 0.0
C502 C 0.8705 0.35272 0.88226 0.0
C503 C 0.89196 0.41247 0.88759 0.0
C504 C 0.13795 0.35039 0.22578 0.0
C505 C 0.17231 0.35162 0.25416 0.0
C506 C 0.15273 0.34576 0.19139 0.0
C507 C 0.20179 0.341 0.18414 0.0
H508 H 0.09931 0.35311 0.23018 0.0
H509 H 0.12476 0.34483 0.1704 0.0
S510 S 0.30594 0.34176 0.24939 0.0
N511 N 0.25766 0.34787 0.27292 0.0
N512 N 0.28521 0.3385 0.20825 0.0
C513 C 0.23665 0.34229 0.21232 0.0
C514 C 0.22203 0.34786 0.24733 0.0
C515 C 0.87601 0.21516 0.71145 0.0
C516 C 0.84918 0.18352 0.68114 0.0
C517 C 0.85337 0.19306 0.74466 0.0
C518 C 0.80362 0.13797 0.74887 0.0
H519 H 0.91456 0.25759 0.7095 0.0
H520 H 0.87572 0.21918 0.76724 0.0
S521 S 0.71805 0.03705 0.67765 0.0
N522 N 0.77037 0.09406 0.65725 0.0
N523 N 0.72852 0.05203 0.71979 0.0
C524 C 0.77659 0.10563 0.71874 0.0
C525 C 0.79911 0.12855 0.68485 0.0
C526 C 0.67116 0.85848 0.21483 0.0
C527 C 0.68548 0.83521 0.18654 0.0
C528 C 0.67226 0.84076 0.24927 0.0
C529 C 0.68926 0.80026 0.25671 0.0
H530 H 0.65902 0.89064 0.21032 0.0
H531 H 0.66175 0.86054 0.27031 0.0
S532 S 0.73044 0.72611 0.19175 0.0
N533 N 0.71563 0.76845 0.168 0.0
N534 N 0.71975 0.73668 0.23288 0.0
C535 C 0.70323 0.77633 0.2286 0.0
C536 C 0.70075 0.79336 0.19347 0.0
C537 C 0.84785 0.63655 0.7156 0.0
C538 C 0.82825 0.67392 0.70477 0.0
C539 C 0.87196 0.6409 0.74906 0.0
C540 C 0.87856 0.68373 0.77227 0.0
H541 H 0.84513 0.6041 0.69799 0.0
H542 H 0.88727 0.61202 0.75633 0.0
S543 S 0.8312 0.78967 0.75802 0.0
N544 N 0.81422 0.75289 0.72131 0.0
N545 N 0.86089 0.76179 0.78343 0.0
C546 C 0.85792 0.72025 0.76223 0.0
C547 C 0.83237 0.71516 0.72866 0.0
C548 C 0.208 0.81864 0.20073 0.0
C549 C 0.17964 0.84093 0.18071 0.0
C550 C 0.23146 0.84159 0.23363 0.0
C551 C 0.22872 0.88858 0.24696 0.0
H552 H 0.21082 0.78247 0.1913 0.0
H553 H 0.25171 0.82231 0.2487 0.0
S554 S 0.16378 0.96558 0.20245 0.0
N555 N 0.15268 0.91391 0.17525 0.0
N556 N 0.19856 0.95863 0.23622 0.0
C557 C 0.20257 0.91263 0.22628 0.0
C558 C 0.17747 0.88832 0.19335 0.0
C559 C 0.35402 0.15414 0.74278 0.0
C560 C 0.33432 0.19258 0.74898 0.0
C561 C 0.35871 0.13858 0.70867 0.0
C562 C 0.34565 0.16243 0.67973 0.0
H563 H 0.36472 0.13505 0.76449 0.0
H564 H 0.37321 0.10815 0.70491 0.0
S565 S 0.2942 0.26673 0.68228 0.0
N566 N 0.30172 0.25423 0.72382 0.0
N567 N 0.3135 0.22755 0.65946 0.0
C568 C 0.32717 0.20203 0.68563 0.0
C569 C 0.32063 0.21638 0.72038 0.0
C570 C 0.27345 0.30441 0.93392 0.0
C571 C 0.31418 0.28609 0.93111 0.0
C572 C 0.25941 0.31768 0.96643 0.0
C573 C 0.28568 0.31334 -0.00259 0.0
H574 H 0.25113 0.3074 0.91094 0.0
H575 H 0.22678 0.3302 0.96728 0.0
S576 S 0.39903 0.2722 0.00403 0.0
N577 N 0.38315 0.26761 0.96197 0.0
N578 N 0.35739 0.29297 0.02291 0.0
C579 C 0.32806 0.29703 -0.00518 0.0
C580 C 0.34212 0.28329 0.96176 0.0
C581 C 0.08062 0.32662 0.46959 0.0
C582 C 0.05376 0.3289 0.43846 0.0
C583 C 0.04903 0.30778 0.5009 0.0
C584 C 0.98945 0.29085 0.50244 0.0
H585 H 0.12555 0.3368 0.46949 0.0
H586 H 0.07151 0.3054 0.52389 0.0
S587 S 0.90157 0.29734 0.42869 0.0
N588 N 0.96615 0.3186 0.41143 0.0
N589 N 0.90682 0.28358 0.4703 0.0
C590 C 0.96318 0.29647 0.47179 0.0
C591 C 0.9953 0.31532 0.43984 0.0
C592 C 0.73017 0.01469 -0.00176 0.0
C593 C 0.69984 0.95416 0.00069 0.0
C594 C 0.73862 0.04296 0.96601 0.0
C595 C 0.7169 0.01201 0.93477 0.0
H596 H 0.74857 0.0408 0.02137 0.0
H597 H 0.76312 0.08955 0.96562 0.0
S598 S 0.63195 0.8526 0.92694 0.0
N599 N 0.64638 0.8641 0.96912 0.0
N600 N 0.6617 0.91692 0.90854 0.0
C601 C 0.68525 0.95133 0.9369 0.0
C602 C 0.67696 0.92254 0.96979 0.0
C603 C 0.77559 0.70104 0.48573 0.0
C604 C 0.75 0.70788 0.51596 0.0
C605 C 0.76564 0.71725 0.45263 0.0
C606 C 0.7297 0.74114 0.44827 0.0
H607 H 0.80407 0.68347 0.48756 0.0
H608 H 0.78694 0.71142 0.43032 0.0
S609 S 0.6505 0.76652 0.51891 0.0
N610 N 0.6856 0.73902 0.53922 0.0
N611 N 0.66724 0.7695 0.47714 0.0
C612 C 0.70319 0.7476 0.47822 0.0
C613 C 0.71319 0.73096 0.51196 0.0
C614 C 0.95917 0.68257 -0.02072 0.0
C615 C 0.98191 0.69609 0.94531 0.0
C616 C 0.99593 0.70295 0.0084 0.0
C617 C 0.05704 0.73694 0.00467 0.0
H618 H 0.91257 0.6557 -0.01661 0.0
H619 H 0.97603 0.69085 0.03408 0.0
S620 S 0.13788 0.78225 0.92059 0.0
N621 N 0.06858 0.74399 0.90899 0.0
N622 N 0.13833 0.78299 0.96382 0.0
C623 C 0.08025 0.75118 -0.02938 0.0
C624 C 0.0425 0.73054 0.9409 0.0
C625 C 0.28875 0.9659 0.46029 0.0
C626 C 0.3129 0.99785 0.42943 0.0
C627 C 0.2934 0.99312 0.49207 0.0
C628 C 0.32257 0.05355 0.49446 0.0
H629 H 0.26582 0.91934 0.46001 0.0
H630 H 0.27402 0.96621 0.51501 0.0
S631 S 0.39313 0.15738 0.42114 0.0
N632 N 0.36708 0.09364 0.40313 0.0
N633 N 0.37556 0.14463 0.46293 0.0
C634 C 0.34694 0.08619 0.46378 0.0
C635 C 0.34222 0.05842 0.43131 0.0
loop_
_geom_bond_atom_site_label_1
_geom_bond_atom_site_label_2
_geom_bond_distance
_geom_bond_site_symmetry_2
_ccdc_geom_bond_type
Zn0 O6 1.969 . S
Zn0 O7 1.965 . S
Zn0 O11 2.024 . S
Zn0 O16 1.969 . S
Zn1 O8 1.969 . S
Zn1 O14 1.969 . S
Zn1 O15 1.965 . S
Zn1 O17 2.024 . S
C2 O3 1.229 . S
C2 O11 1.058 . S
O3 C2 1.229 . S
C4 O5 1.229 . S
C4 O17 1.058 . S
O5 C4 1.229 . S
O6 Zn0 1.969 . S
O6 C9 1.267 . S
O7 Zn0 1.965 . S
O7 C18 1.260 . S
O8 Zn1 1.969 . S
O8 C18 1.258 . S
C9 O6 1.267 . S
C9 O10 1.228 . S
O10 C9 1.228 . S
O11 Zn0 2.024 . S
O11 C2 1.058 . S
C12 O13 1.228 . S
C12 O14 1.267 . S
O13 C12 1.228 . S
O14 Zn1 1.969 . S
O14 C12 1.267 . S
O15 Zn1 1.965 . S
O15 C19 1.260 . S
O16 Zn0 1.969 . S
O16 C19 1.258 . S
O17 Zn1 2.024 . S
O17 C4 1.058 . S
C18 O7 1.260 . S
C18 O8 1.258 . S
C19 O15 1.260 . S
C19 O16 1.258 . S
Zn20 O26 1.969 . S
Zn20 O27 1.965 . S
Zn20 O31 2.024 . S
Zn20 O36 1.969 . S
Zn21 O28 1.969 . S
Zn21 O34 1.969 . S
Zn21 O35 1.965 . S
Zn21 O37 2.024 . S
C22 O23 1.229 . S
C22 O31 1.058 . S
O23 C22 1.229 . S
C24 O25 1.229 . S
C24 O37 1.058 . S
O25 C24 1.229 . S
O26 Zn20 1.969 . S
O26 C29 1.267 1_655 S
O27 Zn20 1.965 . S
O27 C38 1.260 . S
O28 Zn21 1.969 . S
O28 C38 1.258 . S
C29 O26 1.267 1_455 S
C29 O30 1.228 . S
O30 C29 1.228 . S
O31 Zn20 2.024 . S
O31 C22 1.058 . S
C32 O33 1.228 . S
C32 O34 1.267 . S
O33 C32 1.228 . S
O34 Zn21 1.969 . S
O34 C32 1.267 . S
O35 Zn21 1.965 . S
O35 C39 1.260 . S
O36 Zn20 1.969 . S
O36 C39 1.258 . S
O37 Zn21 2.024 . S
O37 C24 1.058 . S
C38 O27 1.260 . S
C38 O28 1.258 . S
C39 O35 1.260 . S
C39 O36 1.258 . S
Zn40 O46 1.969 . S
Zn40 O47 1.965 . S
Zn40 O51 2.024 . S
Zn40 O56 1.969 . S
Zn41 O48 1.969 . S
Zn41 O54 1.969 . S
Zn41 O55 1.965 . S
Zn41 O57 2.024 . S
C42 O43 1.229 . S
C42 O51 1.058 . S
O43 C42 1.229 . S
C44 O45 1.229 . S
C44 O57 1.058 . S
O45 C44 1.229 . S
O46 Zn40 1.969 . S
O46 C49 1.267 1_565 S
O47 Zn40 1.965 . S
O47 C58 1.260 . S
O48 Zn41 1.969 . S
O48 C58 1.258 . S
C49 O46 1.267 1_545 S
C49 O50 1.228 . S
O50 C49 1.228 . S
O51 Zn40 2.024 . S
O51 C42 1.058 . S
C52 O53 1.228 . S
C52 O54 1.267 . S
O53 C52 1.228 . S
O54 Zn41 1.969 . S
O54 C52 1.267 . S
O55 Zn41 1.965 . S
O55 C59 1.260 . S
O56 Zn40 1.969 . S
O56 C59 1.258 . S
O57 Zn41 2.024 . S
O57 C44 1.058 . S
C58 O47 1.260 . S
C58 O48 1.258 . S
C59 O55 1.260 . S
C59 O56 1.258 . S
Zn60 O66 1.969 . S
Zn60 O67 1.965 . S
Zn60 O71 2.024 . S
Zn60 O76 1.969 . S
Zn61 O68 1.969 . S
Zn61 O74 1.969 . S
Zn61 O75 1.965 . S
Zn61 O77 2.024 . S
C62 O63 1.229 . S
C62 O71 1.058 . S
O63 C62 1.229 . S
C64 O65 1.229 . S
C64 O77 1.058 . S
O65 C64 1.229 . S
O66 Zn60 1.969 . S
O66 C69 1.267 . S
O67 Zn60 1.965 . S
O67 C78 1.260 . S
O68 Zn61 1.969 . S
O68 C78 1.258 . S
C69 O66 1.267 . S
C69 O70 1.228 . S
O70 C69 1.228 . S
O71 Zn60 2.024 . S
O71 C62 1.058 . S
C72 O73 1.228 . S
C72 O74 1.267 . S
O73 C72 1.228 . S
O74 Zn61 1.969 . S
O74 C72 1.267 . S
O75 Zn61 1.965 . S
O75 C79 1.260 . S
O76 Zn60 1.969 . S
O76 C79 1.258 . S
O77 Zn61 2.024 . S
O77 C64 1.058 . S
C78 O67 1.260 . S
C78 O68 1.258 . S
C79 O75 1.260 . S
C79 O76 1.258 . S
Zn80 O86 1.969 . S
Zn80 O87 1.965 . S
Zn80 O91 2.024 . S
Zn80 O96 1.969 . S
Zn81 O88 1.969 . S
Zn81 O94 1.969 . S
Zn81 O95 1.965 . S
Zn81 O97 2.024 . S
C82 O83 1.229 . S
C82 O91 1.058 . S
O83 C82 1.229 . S
C84 O85 1.229 . S
C84 O97 1.058 . S
O85 C84 1.229 . S
O86 Zn80 1.969 . S
O86 C89 1.267 1_455 S
O87 Zn80 1.965 . S
O87 C98 1.260 . S
O88 Zn81 1.969 . S
O88 C98 1.258 . S
C89 O86 1.267 1_655 S
C89 O90 1.228 . S
O90 C89 1.228 . S
O91 Zn80 2.024 . S
O91 C82 1.058 . S
C92 O93 1.228 . S
C92 O94 1.267 . S
O93 C92 1.228 . S
O94 Zn81 1.969 . S
O94 C92 1.267 . S
O95 Zn81 1.965 . S
O95 C99 1.260 . S
O96 Zn80 1.969 . S
O96 C99 1.258 . S
O97 Zn81 2.024 . S
O97 C84 1.058 . S
C98 O87 1.260 . S
C98 O88 1.258 . S
C99 O95 1.260 . S
C99 O96 1.258 . S
Zn100 O106 1.969 . S
Zn100 O107 1.965 . S
Zn100 O111 2.024 . S
Zn100 O116 1.969 . S
Zn101 O108 1.969 . S
Zn101 O114 1.969 . S
Zn101 O115 1.965 . S
Zn101 O117 2.024 . S
C102 O103 1.229 . S
C102 O111 1.058 . S
O103 C102 1.229 . S
C104 O105 1.229 . S
C104 O117 1.058 . S
O105 C104 1.229 . S
O106 Zn100 1.969 . S
O106 C109 1.267 1_545 S
O107 Zn100 1.965 . S
O107 C118 1.260 . S
O108 Zn101 1.969 . S
O108 C118 1.258 . S
C109 O106 1.267 1_565 S
C109 O110 1.228 . S
O110 C109 1.228 . S
O111 Zn100 2.024 . S
O111 C102 1.058 . S
C112 O113 1.228 . S
C112 O114 1.267 . S
O113 C112 1.228 . S
O114 Zn101 1.969 . S
O114 C112 1.267 . S
O115 Zn101 1.965 . S
O115 C119 1.260 . S
O116 Zn100 1.969 . S
O116 C119 1.258 . S
O117 Zn101 2.024 . S
O117 C104 1.058 . S
C118 O107 1.260 . S
C118 O108 1.258 . S
C119 O115 1.260 . S
C119 O116 1.258 . S
Zn120 O126 1.969 . S
Zn120 O127 1.965 . S
Zn120 O131 2.024 . S
Zn120 O136 1.969 . S
Zn121 O128 1.969 . S
Zn121 O134 1.969 . S
Zn121 O135 1.965 . S
Zn121 O137 2.024 . S
C122 O123 1.229 . S
C122 O131 1.058 . S
O123 C122 1.229 . S
C124 O125 1.229 . S
C124 O137 1.058 . S
O125 C124 1.229 . S
O126 Zn120 1.969 . S
O126 C129 1.267 . S
O127 Zn120 1.965 . S
O127 C138 1.260 . S
O128 Zn121 1.969 . S
O128 C138 1.258 . S
C129 O126 1.267 . S
C129 O130 1.228 . S
O130 C129 1.228 . S
O131 Zn120 2.024 . S
O131 C122 1.058 . S
C132 O133 1.228 . S
C132 O134 1.267 . S
O133 C132 1.228 . S
O134 Zn121 1.969 . S
O134 C132 1.267 . S
O135 Zn121 1.965 . S
O135 C139 1.260 . S
O136 Zn120 1.969 . S
O136 C139 1.258 . S
O137 Zn121 2.024 . S
O137 C124 1.058 . S
C138 O127 1.260 . S
C138 O128 1.258 . S
C139 O135 1.260 . S
C139 O136 1.258 . S
Zn140 O146 1.969 . S
Zn140 O147 1.965 . S
Zn140 O151 2.024 . S
Zn140 O156 1.969 . S
Zn141 O148 1.969 . S
Zn141 O154 1.969 . S
Zn141 O155 1.965 . S
Zn141 O157 2.024 . S
C142 O143 1.229 . S
C142 O151 1.058 . S
O143 C142 1.229 . S
C144 O145 1.229 . S
C144 O157 1.058 . S
O145 C144 1.229 . S
O146 Zn140 1.969 . S
O146 C149 1.267 1_655 S
O147 Zn140 1.965 . S
O147 C158 1.260 . S
O148 Zn141 1.969 . S
O148 C158 1.258 . S
C149 O146 1.267 1_455 S
C149 O150 1.228 . S
O150 C149 1.228 . S
O151 Zn140 2.024 . S
O151 C142 1.058 . S
C152 O153 1.228 . S
C152 O154 1.267 . S
O153 C152 1.228 . S
O154 Zn141 1.969 . S
O154 C152 1.267 . S
O155 Zn141 1.965 . S
O155 C159 1.260 . S
O156 Zn140 1.969 . S
O156 C159 1.258 . S
O157 Zn141 2.024 . S
O157 C144 1.058 . S
C158 O147 1.260 . S
C158 O148 1.258 . S
C159 O155 1.260 . S
C159 O156 1.258 . S
Zn160 O166 1.969 . S
Zn160 O167 1.965 . S
Zn160 O171 2.024 . S
Zn160 O176 1.969 . S
Zn161 O168 1.969 . S
Zn161 O174 1.969 . S
Zn161 O175 1.965 . S
Zn161 O177 2.024 . S
C162 O163 1.229 . S
C162 O171 1.058 . S
O163 C162 1.229 . S
C164 O165 1.229 . S
C164 O177 1.058 . S
O165 C164 1.229 . S
O166 Zn160 1.969 . S
O166 C169 1.267 1_565 S
O167 Zn160 1.965 . S
O167 C178 1.260 . S
O168 Zn161 1.969 . S
O168 C178 1.258 . S
C169 O166 1.267 1_545 S
C169 O170 1.228 . S
O170 C169 1.228 . S
O171 Zn160 2.024 . S
O171 C162 1.058 . S
C172 O173 1.228 . S
C172 O174 1.267 . S
O173 C172 1.228 . S
O174 Zn161 1.969 . S
O174 C172 1.267 . S
O175 Zn161 1.965 . S
O175 C179 1.260 . S
O176 Zn160 1.969 . S
O176 C179 1.258 . S
O177 Zn161 2.024 . S
O177 C164 1.058 . S
C178 O167 1.260 . S
C178 O168 1.258 . S
C179 O175 1.260 . S
C179 O176 1.258 . S
Zn180 O186 1.969 . S
Zn180 O187 1.965 . S
Zn180 O191 2.024 . S
Zn180 O196 1.969 . S
Zn181 O188 1.969 . S
Zn181 O194 1.969 . S
Zn181 O195 1.965 . S
Zn181 O197 2.024 . S
C182 O183 1.229 . S
C182 O191 1.058 . S
O183 C182 1.229 . S
C184 O185 1.229 . S
C184 O197 1.058 . S
O185 C184 1.229 . S
O186 Zn180 1.969 . S
O186 C189 1.267 . S
O187 Zn180 1.965 . S
O187 C198 1.260 . S
O188 Zn181 1.969 . S
O188 C198 1.258 . S
C189 O186 1.267 . S
C189 O190 1.228 . S
O190 C189 1.228 . S
O191 Zn180 2.024 . S
O191 C182 1.058 . S
C192 O193 1.228 . S
C192 O194 1.267 . S
O193 C192 1.228 . S
O194 Zn181 1.969 . S
O194 C192 1.267 . S
O195 Zn181 1.965 . S
O195 C199 1.260 . S
O196 Zn180 1.969 . S
O196 C199 1.258 . S
O197 Zn181 2.024 . S
O197 C184 1.058 . S
C198 O187 1.260 . S
C198 O188 1.258 . S
C199 O195 1.260 . S
C199 O196 1.258 . S
Zn200 O206 1.969 . S
Zn200 O207 1.965 . S
Zn200 O211 2.024 . S
Zn200 O216 1.969 . S
Zn201 O208 1.969 . S
Zn201 O214 1.969 . S
Zn201 O215 1.965 . S
Zn201 O217 2.024 . S
C202 O203 1.229 . S
C202 O211 1.058 . S
O203 C202 1.229 . S
C204 O205 1.229 . S
C204 O217 1.058 . S
O205 C204 1.229 . S
O206 Zn200 1.969 . S
O206 C209 1.267 1_455 S
O207 Zn200 1.965 . S
O207 C218 1.260 . S
O208 Zn201 1.969 . S
O208 C218 1.258 . S
C209 O206 1.267 1_655 S
C209 O210 1.228 . S
O210 C209 1.228 . S
O211 Zn200 2.024 . S
O211 C202 1.058 . S
C212 O213 1.228 . S
C212 O214 1.267 . S
O213 C212 1.228 . S
O214 Zn201 1.969 . S
O214 C212 1.267 . S
O215 Zn201 1.965 . S
O215 C219 1.260 . S
O216 Zn200 1.969 . S
O216 C219 1.258 . S
O217 Zn201 2.024 . S
O217 C204 1.058 . S
C218 O207 1.260 . S
C218 O208 1.258 . S
C219 O215 1.260 . S
C219 O216 1.258 . S
Zn220 O226 1.969 . S
Zn220 O227 1.965 . S
Zn220 O231 2.024 . S
Zn220 O236 1.969 . S
Zn221 O228 1.969 . S
Zn221 O234 1.969 . S
Zn221 O235 1.965 . S
Zn221 O237 2.024 . S
C222 O223 1.229 . S
C222 O231 1.058 . S
O223 C222 1.229 . S
C224 O225 1.229 . S
C224 O237 1.058 . S
O225 C224 1.229 . S
O226 Zn220 1.969 . S
O226 C229 1.267 1_545 S
O227 Zn220 1.965 . S
O227 C238 1.260 . S
O228 Zn221 1.969 . S
O228 C238 1.258 . S
C229 O226 1.267 1_565 S
C229 O230 1.228 . S
O230 C229 1.228 . S
O231 Zn220 2.024 . S
O231 C222 1.058 . S
C232 O233 1.228 . S
C232 O234 1.267 . S
O233 C232 1.228 . S
O234 Zn221 1.969 . S
O234 C232 1.267 . S
O235 Zn221 1.965 . S
O235 C239 1.260 . S
O236 Zn220 1.969 . S
O236 C239 1.258 . S
O237 Zn221 2.024 . S
O237 C224 1.058 . S
C238 O227 1.260 . S
C238 O228 1.258 . S
C239 O235 1.260 . S
C239 O236 1.258 . S
C240 C241 1.369 . S
C240 C242 1.419 . S
C240 H244 0.930 1_545 S
C241 C240 1.369 . S
C241 C250 1.429 . S
C242 C240 1.419 . S
C242 C243 1.363 . S
C242 H245 0.929 . S
C243 C242 1.363 . S
C243 C249 1.428 . S
H244 C240 0.930 1_565 S
H245 C242 0.929 . S
S246 N247 1.613 . S
S246 N248 1.610 . S
N247 S246 1.613 . S
N247 C250 1.350 . S
N248 S246 1.610 . S
N248 C249 1.351 . S
C249 C243 1.428 . S
C249 N248 1.351 . S
C249 C250 1.434 . S
C250 C241 1.429 . S
C250 N247 1.350 . S
C250 C249 1.434 . S
C251 C252 1.369 . S
C251 C253 1.419 . S
C251 H255 0.930 . S
C252 C251 1.369 . S
C252 C261 1.429 . S
C253 C251 1.419 . S
C253 C254 1.363 . S
C253 H256 0.929 . S
C254 C253 1.363 . S
C254 C260 1.428 . S
H255 C251 0.930 . S
H256 C253 0.929 . S
S257 N258 1.613 . S
S257 N259 1.610 . S
N258 S257 1.613 . S
N258 C261 1.350 . S
N259 S257 1.610 . S
N259 C260 1.351 . S
C260 C254 1.428 . S
C260 N259 1.351 . S
C260 C261 1.434 . S
C261 C252 1.429 . S
C261 N258 1.350 . S
C261 C260 1.434 . S
C262 C263 1.369 . S
C262 C264 1.419 . S
C262 H266 0.930 . S
C263 C262 1.369 . S
C263 C272 1.429 . S
C264 C262 1.419 . S
C264 C265 1.363 . S
C264 H267 0.929 . S
C265 C264 1.363 . S
C265 C271 1.428 . S
H266 C262 0.930 . S
H267 C264 0.929 . S
S268 N269 1.620 1_545 S
S268 N270 1.622 1_655 S
N269 S268 1.620 1_565 S
N269 C272 1.350 1_565 S
N270 S268 1.622 1_455 S
N270 C271 1.351 1_455 S
C271 C265 1.428 . S
C271 N270 1.351 1_655 S
C271 C272 1.434 . S
C272 C263 1.429 . S
C272 N269 1.350 1_545 S
C272 C271 1.434 . S
C273 C274 1.369 . S
C273 C275 1.419 . S
C273 H277 0.930 . S
C274 C273 1.369 . S
C274 C283 1.429 . S
C275 C273 1.419 . S
C275 C276 1.363 . S
C275 H278 0.929 . S
C276 C275 1.363 . S
C276 C282 1.428 . S
H277 C273 0.930 . S
H278 C275 0.929 . S
S279 N280 1.613 . S
S279 N281 1.610 1_565 S
N280 S279 1.613 . S
N280 C283 1.350 . S
N281 S279 1.610 1_545 S
N281 C282 1.351 1_545 S
C282 C276 1.428 . S
C282 N281 1.351 1_565 S
C282 C283 1.434 . S
C283 C274 1.429 . S
C283 N280 1.350 . S
C283 C282 1.434 . S
C284 C285 1.369 . S
C284 C286 1.419 . S
C284 H288 0.930 . S
C285 C284 1.369 . S
C285 C294 1.429 . S
C286 C284 1.419 . S
C286 C287 1.363 . S
C286 H289 0.929 . S
C287 C286 1.363 . S
C287 C293 1.428 . S
H288 C284 0.930 . S
H289 C286 0.929 . S
S290 N291 1.613 . S
S290 N292 1.610 . S
N291 S290 1.613 . S
N291 C294 1.350 . S
N292 S290 1.610 . S
N292 C293 1.351 . S
C293 C287 1.428 . S
C293 N292 1.351 . S
C293 C294 1.434 . S
C294 C285 1.429 . S
C294 N291 1.350 . S
C294 C293 1.434 . S
C295 C296 1.369 . S
C295 C297 1.419 . S
C295 H299 0.930 . S
C296 C295 1.369 . S
C296 C305 1.429 . S
C297 C295 1.419 . S
C297 C298 1.363 . S
C297 H300 0.929 . S
C298 C297 1.363 . S
C298 C304 1.428 . S
H299 C295 0.930 . S
H300 C297 0.929 . S
S301 N302 1.613 . S
S301 N303 1.610 . S
N302 S301 1.613 . S
N302 C305 1.350 . S
N303 S301 1.610 . S
N303 C304 1.351 . S
C304 C298 1.428 . S
C304 N303 1.351 . S
C304 C305 1.434 . S
C305 C296 1.429 . S
C305 N302 1.350 . S
C305 C304 1.434 . S
C306 C307 1.369 . S
C306 C308 1.419 . S
C306 H310 0.930 . S
C307 C306 1.369 . S
C307 C316 1.429 . S
C308 C306 1.419 . S
C308 C309 1.363 . S
C308 H311 0.929 . S
C309 C308 1.363 . S
C309 C315 1.428 . S
H310 C306 0.930 . S
H311 C308 0.929 . S
S312 N313 1.613 . S
S312 N314 1.610 . S
N313 S312 1.613 . S
N313 C316 1.350 . S
N314 S312 1.610 . S
N314 C315 1.351 . S
C315 C309 1.428 . S
C315 N314 1.351 . S
C315 C316 1.434 . S
C316 C307 1.429 . S
C316 N313 1.350 . S
C316 C315 1.434 . S
C317 C318 1.369 . S
C317 C319 1.419 . S
C317 H321 0.930 . S
C318 C317 1.369 . S
C318 C327 1.429 . S
C319 C317 1.419 . S
C319 C320 1.363 . S
C319 H322 0.929 1_565 S
C320 C319 1.363 . S
C320 C326 1.428 . S
H321 C317 0.930 . S
H322 C319 0.929 1_545 S
S323 N324 1.613 . S
S323 N325 1.610 . S
N324 S323 1.613 . S
N324 C327 1.350 . S
N325 S323 1.610 . S
N325 C326 1.351 . S
C326 C320 1.428 . S
C326 N325 1.351 . S
C326 C327 1.434 . S
C327 C318 1.429 . S
C327 N324 1.350 . S
C327 C326 1.434 . S
C328 C329 1.369 . S
C328 C330 1.419 . S
C328 H332 0.930 . S
C329 C328 1.369 . S
C329 C338 1.429 . S
C330 C328 1.419 . S
C330 C331 1.363 . S
C330 H333 0.929 . S
C331 C330 1.363 . S
C331 C337 1.428 . S
H332 C328 0.930 . S
H333 C330 0.929 . S
S334 N335 1.613 . S
S334 N336 1.610 . S
N335 S334 1.613 . S
N335 C338 1.350 . S
N336 S334 1.610 . S
N336 C337 1.351 . S
C337 C331 1.428 . S
C337 N336 1.351 . S
C337 C338 1.434 . S
C338 C329 1.429 . S
C338 N335 1.350 . S
C338 C337 1.434 . S
C339 C340 1.369 . S
C339 C341 1.419 . S
C339 H343 0.930 . S
C340 C339 1.369 . S
C340 C349 1.429 . S
C341 C339 1.419 . S
C341 C342 1.363 . S
C341 H344 0.929 . S
C342 C341 1.363 . S
C342 C348 1.428 . S
H343 C339 0.930 . S
H344 C341 0.929 . S
S345 N346 1.613 . S
S345 N347 1.610 . S
N346 S345 1.613 . S
N346 C349 1.350 . S
N347 S345 1.610 . S
N347 C348 1.351 . S
C348 C342 1.428 . S
C348 N347 1.351 . S
C348 C349 1.434 . S
C349 C340 1.429 . S
C349 N346 1.350 . S
C349 C348 1.434 . S
C350 C351 1.369 . S
C350 C352 1.419 . S
C350 H354 0.930 . S
C351 C350 1.369 . S
C351 C360 1.429 . S
C352 C350 1.419 . S
C352 C353 1.363 . S
C352 H355 0.929 . S
C353 C352 1.363 . S
C353 C359 1.428 . S
H354 C350 0.930 . S
H355 C352 0.929 . S
S356 N357 1.613 . S
S356 N358 1.610 1_545 S
N357 S356 1.613 . S
N357 C360 1.350 . S
N358 S356 1.610 1_565 S
N358 C359 1.351 1_565 S
C359 C353 1.428 . S
C359 N358 1.351 1_545 S
C359 C360 1.434 . S
C360 C351 1.429 . S
C360 N357 1.350 . S
C360 C359 1.434 . S
C361 C362 1.369 . S
C361 C363 1.419 . S
C361 H365 0.930 . S
C362 C361 1.369 . S
C362 C371 1.429 . S
C363 C361 1.419 . S
C363 C364 1.363 . S
C363 H366 0.929 . S
C364 C363 1.363 . S
C364 C370 1.428 . S
H365 C361 0.930 . S
H366 C363 0.929 . S
S367 N368 1.597 1_545 S
S367 N369 1.619 . S
N368 S367 1.597 1_565 S
N368 C371 1.350 . S
N369 S367 1.619 . S
N369 C370 1.351 1_545 S
C370 C364 1.428 . S
C370 N369 1.351 1_565 S
C370 C371 1.434 . S
C371 C362 1.429 . S
C371 N368 1.350 . S
C371 C370 1.434 . S
C372 C373 1.369 . S
C372 C374 1.419 . S
C372 H376 0.930 . S
C373 C372 1.369 . S
C373 C382 1.429 . S
C374 C372 1.419 . S
C374 C375 1.363 . S
C374 H377 0.929 . S
C375 C374 1.363 . S
C375 C381 1.428 . S
H376 C372 0.930 . S
H377 C374 0.929 . S
S378 N379 1.613 . S
S378 N380 1.610 . S
N379 S378 1.613 . S
N379 C382 1.350 . S
N380 S378 1.610 . S
N380 C381 1.351 . S
C381 C375 1.428 . S
C381 N380 1.351 . S
C381 C382 1.434 . S
C382 C373 1.429 . S
C382 N379 1.350 . S
C382 C381 1.434 . S
C383 C384 1.369 . S
C383 C385 1.419 . S
C383 H387 0.930 . S
C384 C383 1.369 . S
C384 C393 1.429 . S
C385 C383 1.419 . S
C385 C386 1.363 . S
C385 H388 0.929 . S
C386 C385 1.363 . S
C386 C392 1.428 . S
H387 C383 0.930 . S
H388 C385 0.929 . S
S389 N390 1.613 . S
S389 N391 1.610 . S
N390 S389 1.613 . S
N390 C393 1.350 . S
N391 S389 1.610 . S
N391 C392 1.351 . S
C392 C386 1.428 . S
C392 N391 1.351 . S
C392 C393 1.434 . S
C393 C384 1.429 . S
C393 N390 1.350 . S
C393 C392 1.434 . S
C394 C395 1.369 . S
C394 C396 1.419 . S
C394 H398 0.930 . S
C395 C394 1.369 . S
C395 C404 1.429 . S
C396 C394 1.419 . S
C396 C397 1.363 . S
C396 H399 0.929 . S
C397 C396 1.363 . S
C397 C403 1.428 . S
H398 C394 0.930 . S
H399 C396 0.929 . S
S400 N401 1.613 . S
S400 N402 1.610 . S
N401 S400 1.613 . S
N401 C404 1.350 . S
N402 S400 1.610 . S
N402 C403 1.351 . S
C403 C397 1.428 . S
C403 N402 1.351 . S
C403 C404 1.434 . S
C404 C395 1.429 . S
C404 N401 1.350 . S
C404 C403 1.434 . S
C405 C406 1.369 . S
C405 C407 1.419 . S
C405 H409 0.930 . S
C406 C405 1.369 . S
C406 C415 1.429 . S
C407 C405 1.419 . S
C407 C408 1.363 . S
C407 H410 0.929 . S
C408 C407 1.363 . S
C408 C414 1.428 . S
H409 C405 0.930 . S
H410 C407 0.929 . S
S411 N412 1.613 . S
S411 N413 1.610 . S
N412 S411 1.613 . S
N412 C415 1.350 . S
N413 S411 1.610 . S
N413 C414 1.351 . S
C414 C408 1.428 . S
C414 N413 1.351 . S
C414 C415 1.434 . S
C415 C406 1.429 . S
C415 N412 1.350 . S
C415 C414 1.434 . S
C416 C417 1.369 . S
C416 C418 1.419 . S
C416 H420 0.930 . S
C417 C416 1.369 . S
C417 C426 1.429 . S
C418 C416 1.419 . S
C418 C419 1.363 . S
C418 H421 0.929 . S
C419 C418 1.363 . S
C419 C425 1.428 . S
H420 C416 0.930 . S
H421 C418 0.929 . S
S422 N423 1.613 . S
S422 N424 1.610 . S
N423 S422 1.613 . S
N423 C426 1.350 . S
N424 S422 1.610 . S
N424 C425 1.351 . S
C425 C419 1.428 . S
C425 N424 1.351 . S
C425 C426 1.434 . S
C426 C417 1.429 . S
C426 N423 1.350 . S
C426 C425 1.434 . S
C427 C428 1.369 . S
C427 C429 1.419 . S
C427 H431 0.930 . S
C428 C427 1.369 . S
C428 C437 1.429 . S
C429 C427 1.419 . S
C429 C430 1.363 . S
C429 H432 0.929 . S
C430 C429 1.363 . S
C430 C436 1.428 . S
H431 C427 0.930 . S
H432 C429 0.929 . S
S433 N434 1.613 . S
S433 N435 1.610 . S
N434 S433 1.613 . S
N434 C437 1.350 . S
N435 S433 1.610 . S
N435 C436 1.351 . S
C436 C430 1.428 . S
C436 N435 1.351 . S
C436 C437 1.434 . S
C437 C428 1.429 . S
C437 N434 1.350 . S
C437 C436 1.434 . S
C438 C439 1.369 . S
C438 C440 1.419 . S
C438 H442 0.930 . S
C439 C438 1.369 . S
C439 C448 1.429 . S
C440 C438 1.419 . S
C440 C441 1.363 . S
C440 H443 0.929 . S
C441 C440 1.363 . S
C441 C447 1.428 . S
H442 C438 0.930 . S
H443 C440 0.929 . S
S444 N445 1.613 . S
S444 N446 1.610 . S
N445 S444 1.613 . S
N445 C448 1.350 . S
N446 S444 1.610 . S
N446 C447 1.351 . S
C447 C441 1.428 . S
C447 N446 1.351 . S
C447 C448 1.434 . S
C448 C439 1.429 . S
C448 N445 1.350 . S
C448 C447 1.434 . S
C449 C450 1.369 . S
C449 C451 1.419 . S
C449 H453 0.930 . S
C450 C449 1.369 . S
C450 C459 1.429 . S
C451 C449 1.419 . S
C451 C452 1.363 . S
C451 H454 0.929 . S
C452 C451 1.363 . S
C452 C458 1.428 . S
H453 C449 0.930 . S
H454 C451 0.929 . S
S455 N456 1.613 . S
S455 N457 1.610 . S
N456 S455 1.613 . S
N456 C459 1.350 . S
N457 S455 1.610 . S
N457 C458 1.351 . S
C458 C452 1.428 . S
C458 N457 1.351 . S
C458 C459 1.434 . S
C459 C450 1.429 . S
C459 N456 1.350 . S
C459 C458 1.434 . S
C460 C461 1.369 . S
C460 C462 1.419 . S
C460 H464 0.930 . S
C461 C460 1.369 . S
C461 C470 1.429 . S
C462 C460 1.419 . S
C462 C463 1.363 . S
C462 H465 0.929 . S
C463 C462 1.363 . S
C463 C469 1.428 . S
H464 C460 0.930 . S
H465 C462 0.929 . S
S466 N467 1.613 . S
S466 N468 1.610 . S
N467 S466 1.613 . S
N467 C470 1.350 . S
N468 S466 1.610 . S
N468 C469 1.351 . S
C469 C463 1.428 . S
C469 N468 1.351 . S
C469 C470 1.434 . S
C470 C461 1.429 . S
C470 N467 1.350 . S
C470 C469 1.434 . S
C471 C472 1.369 . S
C471 C473 1.419 . S
C471 H475 0.930 . S
C472 C471 1.369 . S
C472 C481 1.429 . S
C473 C471 1.419 . S
C473 C474 1.363 . S
C473 H476 0.929 . S
C474 C473 1.363 . S
C474 C480 1.428 . S
H475 C471 0.930 . S
H476 C473 0.929 . S
S477 N478 1.613 . S
S477 N479 1.610 . S
N478 S477 1.613 . S
N478 C481 1.350 . S
N479 S477 1.610 . S
N479 C480 1.351 . S
C480 C474 1.428 . S
C480 N479 1.351 . S
C480 C481 1.434 . S
C481 C472 1.429 . S
C481 N478 1.350 . S
C481 C480 1.434 . S
C482 C483 1.369 . S
C482 C484 1.419 . S
C482 H486 0.930 . S
C483 C482 1.369 . S
C483 C492 1.429 . S
C484 C482 1.419 . S
C484 C485 1.363 . S
C484 H487 0.929 . S
C485 C484 1.363 . S
C485 C491 1.428 . S
H486 C482 0.930 . S
H487 C484 0.929 . S
S488 N489 1.613 . S
S488 N490 1.610 . S
N489 S488 1.613 . S
N489 C492 1.350 . S
N490 S488 1.610 . S
N490 C491 1.351 . S
C491 C485 1.428 . S
C491 N490 1.351 . S
C491 C492 1.434 . S
C492 C483 1.429 . S
C492 N489 1.350 . S
C492 C491 1.434 . S
C493 C494 1.369 . S
C493 C495 1.419 . S
C493 H497 0.930 . S
C494 C493 1.369 . S
C494 C503 1.429 . S
C495 C493 1.419 . S
C495 C496 1.363 . S
C495 H498 0.929 . S
C496 C495 1.363 . S
C496 C502 1.428 . S
H497 C493 0.930 . S
H498 C495 0.929 . S
S499 N500 1.613 . S
S499 N501 1.610 . S
N500 S499 1.613 . S
N500 C503 1.350 . S
N501 S499 1.610 . S
N501 C502 1.351 . S
C502 C496 1.428 . S
C502 N501 1.351 . S
C502 C503 1.434 . S
C503 C494 1.429 . S
C503 N500 1.350 . S
C503 C502 1.434 . S
C504 C505 1.369 . S
C504 C506 1.419 . S
C504 H508 0.930 . S
C505 C504 1.369 . S
C505 C514 1.429 . S
C506 C504 1.419 . S
C506 C507 1.363 . S
C506 H509 0.929 . S
C507 C506 1.363 . S
C507 C513 1.428 . S
H508 C504 0.930 . S
H509 C506 0.929 . S
S510 N511 1.613 . S
S510 N512 1.610 . S
N511 S510 1.613 . S
N511 C514 1.350 . S
N512 S510 1.610 . S
N512 C513 1.351 . S
C513 C507 1.428 . S
C513 N512 1.351 . S
C513 C514 1.434 . S
C514 C505 1.429 . S
C514 N511 1.350 . S
C514 C513 1.434 . S
C515 C516 1.369 . S
C515 C517 1.419 . S
C515 H519 0.930 . S
C516 C515 1.369 . S
C516 C525 1.429 . S
C517 C515 1.419 . S
C517 C518 1.363 . S
C517 H520 0.929 . S
C518 C517 1.363 . S
C518 C524 1.428 . S
H519 C515 0.930 . S
H520 C517 0.929 . S
S521 N522 1.613 . S
S521 N523 1.610 . S
N522 S521 1.613 . S
N522 C525 1.350 . S
N523 S521 1.610 . S
N523 C524 1.351 . S
C524 C518 1.428 . S
C524 N523 1.351 . S
C524 C525 1.434 . S
C525 C516 1.429 . S
C525 N522 1.350 . S
C525 C524 1.434 . S
C526 C527 1.369 . S
C526 C528 1.419 . S
C526 H530 0.930 . S
C527 C526 1.369 . S
C527 C536 1.429 . S
C528 C526 1.419 . S
C528 C529 1.363 . S
C528 H531 0.929 . S
C529 C528 1.363 . S
C529 C535 1.428 . S
H530 C526 0.930 . S
H531 C528 0.929 . S
S532 N533 1.613 . S
S532 N534 1.610 . S
N533 S532 1.613 . S
N533 C536 1.350 . S
N534 S532 1.610 . S
N534 C535 1.351 . S
C535 C529 1.428 . S
C535 N534 1.351 . S
C535 C536 1.434 . S
C536 C527 1.429 . S
C536 N533 1.350 . S
C536 C535 1.434 . S
C537 C538 1.369 . S
C537 C539 1.419 . S
C537 H541 0.930 . S
C538 C537 1.369 . S
C538 C547 1.429 . S
C539 C537 1.419 . S
C539 C540 1.363 . S
C539 H542 0.929 . S
C540 C539 1.363 . S
C540 C546 1.428 . S
H541 C537 0.930 . S
H542 C539 0.929 . S
S543 N544 1.613 . S
S543 N545 1.610 . S
N544 S543 1.613 . S
N544 C547 1.350 . S
N545 S543 1.610 . S
N545 C546 1.351 . S
C546 C540 1.428 . S
C546 N545 1.351 . S
C546 C547 1.434 . S
C547 C538 1.429 . S
C547 N544 1.350 . S
C547 C546 1.434 . S
C548 C549 1.369 . S
C548 C550 1.419 . S
C548 H552 0.930 . S
C549 C548 1.369 . S
C549 C558 1.429 . S
C550 C548 1.419 . S
C550 C551 1.363 . S
C550 H553 0.929 . S
C551 C550 1.363 . S
C551 C557 1.428 . S
H552 C548 0.930 . S
H553 C550 0.929 . S
S554 N555 1.613 . S
S554 N556 1.610 . S
N555 S554 1.613 . S
N555 C558 1.350 . S
N556 S554 1.610 . S
N556 C557 1.351 . S
C557 C551 1.428 . S
C557 N556 1.351 . S
C557 C558 1.434 . S
C558 C549 1.429 . S
C558 N555 1.350 . S
C558 C557 1.434 . S
C559 C560 1.369 . S
C559 C561 1.419 . S
C559 H563 0.930 . S
C560 C559 1.369 . S
C560 C569 1.429 . S
C561 C559 1.419 . S
C561 C562 1.363 . S
C561 H564 0.929 . S
C562 C561 1.363 . S
C562 C568 1.428 . S
H563 C559 0.930 . S
H564 C561 0.929 . S
S565 N566 1.613 . S
S565 N567 1.610 . S
N566 S565 1.613 . S
N566 C569 1.350 . S
N567 S565 1.610 . S
N567 C568 1.351 . S
C568 C562 1.428 . S
C568 N567 1.351 . S
C568 C569 1.434 . S
C569 C560 1.429 . S
C569 N566 1.350 . S
C569 C568 1.434 . S
C570 C571 1.369 . S
C570 C572 1.419 . S
C570 H574 0.930 . S
C571 C570 1.369 . S
C571 C580 1.429 1_556 S
C572 C570 1.419 . S
C572 C573 1.363 1_556 S
C572 H575 0.929 . S
C573 C572 1.363 1_554 S
C573 C579 1.428 . S
H574 C570 0.930 . S
H575 C572 0.929 . S
S576 N577 1.613 . S
S576 N578 1.610 . S
N577 S576 1.613 . S
N577 C580 1.350 . S
N578 S576 1.610 . S
N578 C579 1.351 . S
C579 C573 1.428 . S
C579 N578 1.351 . S
C579 C580 1.434 . S
C580 C571 1.429 1_554 S
C580 N577 1.350 . S
C580 C579 1.434 . S
C581 C582 1.369 . S
C581 C583 1.419 1_455 S
C581 H585 0.930 . S
C582 C581 1.369 . S
C582 C591 1.429 . S
C583 C581 1.419 1_655 S
C583 C584 1.363 . S
C583 H586 0.929 . S
C584 C583 1.363 . S
C584 C590 1.428 . S
H585 C581 0.930 . S
H586 C583 0.929 . S
S587 N588 1.613 . S
S587 N589 1.610 1_455 S
N588 S587 1.613 . S
N588 C591 1.350 . S
N589 S587 1.610 1_655 S
N589 C590 1.351 . S
C590 C584 1.428 . S
C590 N589 1.351 . S
C590 C591 1.434 1_655 S
C591 C582 1.429 . S
C591 N588 1.350 . S
C591 C590 1.434 1_455 S
C592 C593 1.369 . S
C592 C594 1.419 1_565 S
C592 H596 0.930 . S
C593 C592 1.369 . S
C593 C602 1.429 1_554 S
C594 C592 1.419 1_545 S
C594 C595 1.363 1_554 S
C594 H597 0.929 . S
C595 C594 1.363 1_556 S
C595 C601 1.428 . S
H596 C592 0.930 . S
H597 C594 0.929 . S
S598 N599 1.613 . S
S598 N600 1.610 1_565 S
N599 S598 1.613 . S
N599 C602 1.350 . S
N600 S598 1.610 1_545 S
N600 C601 1.351 . S
C601 C595 1.428 . S
C601 N600 1.351 . S
C601 C602 1.434 1_545 S
C602 C593 1.429 1_556 S
C602 N599 1.350 . S
C602 C601 1.434 1_565 S
C603 C604 1.369 . S
C603 C605 1.419 . S
C603 H607 0.930 . S
C604 C603 1.369 . S
C604 C613 1.429 . S
C605 C603 1.419 . S
C605 C606 1.363 . S
C605 H608 0.929 . S
C606 C605 1.363 . S
C606 C612 1.428 . S
H607 C603 0.930 . S
H608 C605 0.929 . S
S609 N610 1.613 . S
S609 N611 1.610 . S
N610 S609 1.613 . S
N610 C613 1.350 . S
N611 S609 1.610 . S
N611 C612 1.351 . S
C612 C606 1.428 . S
C612 N611 1.351 . S
C612 C613 1.434 . S
C613 C604 1.429 . S
C613 N610 1.350 . S
C613 C612 1.434 . S
C614 C615 1.369 1_554 S
C614 C616 1.419 1_655 S
C614 H618 0.930 . S
C615 C614 1.369 1_556 S
C615 C624 1.429 . S
C616 C614 1.419 1_455 S
C616 C617 1.363 . S
C616 H619 0.929 . S
C617 C616 1.363 . S
C617 C623 1.428 1_554 S
H618 C614 0.930 . S
H619 C616 0.929 . S
S620 N621 1.613 . S
S620 N622 1.610 . S
N621 S620 1.613 . S
N621 C624 1.350 1_455 S
N622 S620 1.610 . S
N622 C623 1.351 . S
C623 C617 1.428 1_556 S
C623 N622 1.351 . S
C623 C624 1.434 1_455 S
C624 C615 1.429 . S
C624 N621 1.350 1_655 S
C624 C623 1.434 1_655 S
C625 C626 1.369 . S
C625 C627 1.419 1_565 S
C625 H629 0.930 . S
C626 C625 1.369 . S
C626 C635 1.429 . S
C627 C625 1.419 1_545 S
C627 C628 1.363 . S
C627 H630 0.929 . S
C628 C627 1.363 . S
C628 C634 1.428 . S
H629 C625 0.930 . S
H630 C627 0.929 . S
S631 N632 1.613 1_545 S
S631 N633 1.610 . S
N632 S631 1.613 1_565 S
N632 C635 1.350 . S
N633 S631 1.610 . S
N633 C634 1.351 . S
C634 C628 1.428 . S
C634 N633 1.351 . S
C634 C635 1.434 1_545 S
C635 C626 1.429 . S
C635 N632 1.350 . S
C635 C634 1.434 1_565 S
C241 C82 1.249 1_545 S
C243 C9 1.181 . S
C252 C102 1.249 . S
C254 C29 1.181 . S
C263 C49 1.171 . S
C265 C2 1.242 1_655 S
C274 C69 1.176 . S
C276 C22 1.241 1_565 S
C285 C89 1.179 . S
C287 C42 1.250 . S
C296 C62 1.244 1_455 S
C298 C109 1.181 . S
C307 C162 1.242 1_655 S
C309 C129 1.180 . S
C318 C149 1.172 . S
C320 C182 1.250 1_565 S
C329 C202 1.241 . S
C331 C169 1.172 . S
C340 C189 1.167 . S
C342 C222 1.244 1_455 S
C351 C209 1.179 . S
C353 C122 1.242 1_545 S
C362 C142 1.246 . S
C364 C229 1.169 . S
C373 C84 1.310 . S
C375 C12 1.466 . S
C384 C32 1.466 . S
C386 C104 1.309 . S
C395 C52 1.464 . S
C397 C4 1.306 . S
C406 C72 1.464 . S
C408 C24 1.304 . S
C417 C44 1.302 . S
C419 C92 1.465 . S
C428 C64 1.296 . S
C430 C112 1.470 . S
C439 C164 1.294 . S
C441 C132 1.468 . S
C450 C152 1.472 . S
C452 C184 1.303 . S
C461 C172 1.464 . S
C463 C204 1.302 . S
C472 C224 1.297 . S
C474 C192 1.471 . S
C483 C212 1.467 . S
C485 C124 1.297 . S
C494 C144 1.312 . S
C496 C232 1.469 . S
C505 C219 1.663 . S
C507 C19 1.662 . S
C516 C39 1.665 . S
C518 C239 1.664 . S
C527 C59 1.665 . S
C529 C139 1.663 . S
C538 C79 1.662 . S
C540 C159 1.662 . S
C549 C99 1.662 . S
C551 C179 1.662 . S
C560 C199 1.662 . S
C562 C119 1.663 . S
C571 C198 1.895 . S
C573 C18 1.887 . S
C582 C218 1.892 . S
C584 C38 1.888 . S
C593 C58 1.894 . S
C595 C238 1.887 . S
C604 C78 1.887 . S
C606 C138 1.891 . S
C615 C158 1.886 . S
C617 C98 1.894 . S
C626 C178 1.887 . S
C628 C118 1.892 . S
