# Generated by pormake.
# Topology wjd, (6)-cn, num edge types: 1
# Building blocks:
#     Node 0, Type 0, BuildingBlock: KUMBOL_clean_sbu_0, # of connection points: 6
#     Node 1, Type 0, BuildingBlock: KUMBOL_clean_sbu_0, # of connection points: 6
#     Node 2, Type 0, BuildingBlock: KUMBOL_clean_sbu_0, # of connection points: 6
#     Node 3, Type 0, BuildingBlock: KUMBOL_clean_sbu_0, # of connection points: 6
#     Node 4, Type 0, BuildingBlock: KUMBOL_clean_sbu_0, # of connection points: 6
#     Node 5, Type 0, BuildingBlock: KUMBOL_clean_sbu_0, # of connection points: 6
#     Node 6, Type 0, BuildingBlock: KUMBOL_clean_sbu_0, # of connection points: 6
#     Node 7, Type 0, BuildingBlock: KUMBOL_clean_sbu_0, # of connection points: 6
#     Node 8, Type 0, BuildingBlock: KUMBOL_clean_sbu_0, # of connection points: 6
#     Node 9, Type 0, BuildingBlock: KUMBOL_clean_sbu_0, # of connection points: 6
#     Node 10, Type 0, BuildingBlock: KUMBOL_clean_sbu_0, # of connection points: 6
#     Node 11, Type 0, BuildingBlock: KUMBOL_clean_sbu_0, # of connection points: 6
#     Edge 12, Type (0, 0), BuildingBlock: OJICUG_clean_linker_0, # of connection points: 2
#     Edge 13, Type (0, 0), BuildingBlock: OJICUG_clean_linker_0, # of connection points: 2
#     Edge 14, Type (0, 0), BuildingBlock: OJICUG_clean_linker_0, # of connection points: 2
#     Edge 15, Type (0, 0), BuildingBlock: OJICUG_clean_linker_0, # of connection points: 2
#     Edge 16, Type (0, 0), BuildingBlock: OJICUG_clean_linker_0, # of connection points: 2
#     Edge 17, Type (0, 0), BuildingBlock: OJICUG_clean_linker_0, # of connection points: 2
#     Edge 18, Type (0, 0), BuildingBlock: OJICUG_clean_linker_0, # of connection points: 2
#     Edge 19, Type (0, 0), BuildingBlock: OJICUG_clean_linker_0, # of connection points: 2
#     Edge 20, Type (0, 0), BuildingBlock: OJICUG_clean_linker_0, # of connection points: 2
#     Edge 21, Type (0, 0), BuildingBlock: OJICUG_clean_linker_0, # of connection points: 2
#     Edge 22, Type (0, 0), BuildingBlock: OJICUG_clean_linker_0, # of connection points: 2
#     Edge 23, Type (0, 0), BuildingBlock: OJICUG_clean_linker_0, # of connection points: 2
#     Edge 24, Type (0, 0), BuildingBlock: OJICUG_clean_linker_0, # of connection points: 2
#     Edge 25, Type (0, 0), BuildingBlock: OJICUG_clean_linker_0, # of connection points: 2
#     Edge 26, Type (0, 0), BuildingBlock: OJICUG_clean_linker_0, # of connection points: 2
#     Edge 27, Type (0, 0), BuildingBlock: OJICUG_clean_linker_0, # of connection points: 2
#     Edge 28, Type (0, 0), BuildingBlock: OJICUG_clean_linker_0, # of connection points: 2
#     Edge 29, Type (0, 0), BuildingBlock: OJICUG_clean_linker_0, # of connection points: 2
#     Edge 30, Type (0, 0), BuildingBlock: OJICUG_clean_linker_0, # of connection points: 2
#     Edge 31, Type (0, 0), BuildingBlock: OJICUG_clean_linker_0, # of connection points: 2
#     Edge 32, Type (0, 0), BuildingBlock: OJICUG_clean_linker_0, # of connection points: 2
#     Edge 33, Type (0, 0), BuildingBlock: OJICUG_clean_linker_0, # of connection points: 2
#     Edge 34, Type (0, 0), BuildingBlock: OJICUG_clean_linker_0, # of connection points: 2
#     Edge 35, Type (0, 0), BuildingBlock: OJICUG_clean_linker_0, # of connection points: 2
#     Edge 36, Type (0, 0), BuildingBlock: OJICUG_clean_linker_0, # of connection points: 2
#     Edge 37, Type (0, 0), BuildingBlock: OJICUG_clean_linker_0, # of connection points: 2
#     Edge 38, Type (0, 0), BuildingBlock: OJICUG_clean_linker_0, # of connection points: 2
#     Edge 39, Type (0, 0), BuildingBlock: OJICUG_clean_linker_0, # of connection points: 2
#     Edge 40, Type (0, 0), BuildingBlock: OJICUG_clean_linker_0, # of connection points: 2
#     Edge 41, Type (0, 0), BuildingBlock: OJICUG_clean_linker_0, # of connection points: 2
#     Edge 42, Type (0, 0), BuildingBlock: OJICUG_clean_linker_0, # of connection points: 2
#     Edge 43, Type (0, 0), BuildingBlock: OJICUG_clean_linker_0, # of connection points: 2
#     Edge 44, Type (0, 0), BuildingBlock: OJICUG_clean_linker_0, # of connection points: 2
#     Edge 45, Type (0, 0), BuildingBlock: OJICUG_clean_linker_0, # of connection points: 2
#     Edge 46, Type (0, 0), BuildingBlock: OJICUG_clean_linker_0, # of connection points: 2
#     Edge 47, Type (0, 0), BuildingBlock: OJICUG_clean_linker_0, # of connection points: 2
# Relax obj value: 0.094
# Max RMSD: 0.225
# Mean RMSD: 0.225
data_MOF--net-wjd--node1-KUMBOL_clean_sbu_0--edge1-OJICUG_clean_linker_0
_symmetry_space_group_name_H-M    P1
_symmetry_Int_Tables_number       1
_symmetry_cell_setting            triclinic
loop_
_symmetry_equiv_pos_as_xyz
'x, y, z'
_cell_length_a     30.342949
_cell_length_b     30.284031
_cell_length_c     40.077175
_cell_angle_alpha  90.032735
_cell_angle_beta   90.104657
_cell_angle_gamma 120.03448
loop_
_atom_site_label
_atom_site_type_symbol
_atom_site_fract_x
_atom_site_fract_y
_atom_site_fract_z
_atom_type_partial_charge
Gd0 Gd 0.32218 0.09263 0.12627 0.0
Gd1 Gd 0.41196 0.21505 0.0983 0.0
C2 C 0.34054 0.3154 0.08497 0.0
C3 C 0.33908 0.32232 0.02492 0.0
C4 C 0.3652 0.26567 0.0501 0.0
C5 C 0.35907 0.28106 0.08158 0.0
C6 C 0.35749 0.28834 0.0215 0.0
C7 C 0.32895 0.33444 0.0565 0.0
C8 C 0.33739 0.33244 0.11679 0.0
C9 C 0.35588 0.3183 0.1441 0.0
N10 N 0.37484 0.26584 0.10873 0.0
C11 C 0.3758 0.28602 0.13948 0.0
H12 H 0.39206 0.27804 0.1608 0.0
C13 C 0.40187 0.22793 0.01678 0.0
N14 N 0.38604 0.23507 0.04743 0.0
C15 C 0.39431 0.24903 0.98798 0.0
C16 C 0.3729 0.28003 0.99046 0.0
H17 H 0.42459 0.20981 0.01431 0.0
H18 H 0.31513 0.3611 0.05867 0.0
H19 H 0.29561 1.00281 0.06685 0.0
H20 H 0.3229 0.35833 0.12036 0.0
H21 H 0.35551 0.33286 0.16871 0.0
H22 H 0.33426 0.34095 0.00332 0.0
H23 H 0.34158 0.0966 0.21158 0.0
H24 H 0.40699 0.95638 0.07418 0.0
H25 H 0.33547 0.9559 0.04394 0.0
H26 H 0.48001 1.01833 0.18234 0.0
H27 H 0.40808 0.24406 0.96417 0.0
H28 H 0.37157 0.30009 0.96856 0.0
H29 H 0.46129 0.98039 0.12607 0.0
H30 H 0.40421 0.09419 0.24895 0.0
N31 N 0.34823 0.0355 0.107 0.0
C32 C 0.3902 0.97799 0.08389 0.0
C33 C 0.3501 0.97784 0.06668 0.0
C34 C 0.40577 1.00327 0.11459 0.0
C35 C 0.38272 0.03094 0.12595 0.0
C36 C 0.32843 1.0057 0.07928 0.0
N37 N 0.36694 0.07486 0.16815 0.0
C38 C 0.39267 0.0516 0.15757 0.0
C39 C 0.40232 0.08313 0.22306 0.0
C40 C 0.43292 0.06416 0.2115 0.0
C41 C 0.3677 0.08589 0.20134 0.0
C42 C 0.42689 0.04622 0.17871 0.0
H43 H 0.45897 0.06101 0.22854 0.0
O44 O 0.26696 0.05033 0.16533 0.0
O45 O 0.33518 0.17172 0.12026 0.0
O46 O 0.41675 0.2163 0.15587 0.0
O47 O 0.33784 0.14764 0.16886 0.0
O48 O 0.26931 0.11381 0.10019 0.0
O49 O 0.24806 0.0303 0.11344 0.0
O50 O 0.48027 0.26018 0.06805 0.0
O51 O 0.40208 0.13722 0.10401 0.0
O52 O 0.30857 0.08803 0.07199 0.0
O53 O 0.38843 0.15078 0.05611 0.0
O54 O 0.46331 0.19789 0.12779 0.0
O55 O 0.47381 0.28775 0.11606 0.0
C56 C 0.29413 0.16198 0.1058 0.0
C57 C 0.4529 0.02203 0.16669 0.0
C58 C 0.44228 1.00049 0.13465 0.0
C59 C 0.23226 1.02071 0.14397 0.0
C60 C 0.1999 0.96687 0.15168 0.0
C61 C 0.22012 0.93718 0.16326 0.0
C62 C 0.14775 0.94426 0.14463 0.0
C63 C 0.1151 0.89194 0.14981 0.0
C64 C 0.1878 0.88537 0.16938 0.0
C65 C 0.13565 0.86285 0.16287 0.0
C66 C 0.381 0.18832 0.17796 0.0
C67 C 0.44371 0.15074 0.11972 0.0
C68 C 0.49985 0.2988 0.08866 0.0
C69 C 0.51651 0.35077 0.07525 0.0
C70 C 0.49062 0.35672 0.04826 0.0
C71 C 0.55619 0.39515 0.09061 0.0
C72 C 0.56835 0.44464 0.07947 0.0
C73 C 0.50023 0.40467 0.03838 0.0
C74 C 0.538 0.44813 0.05412 0.0
C75 C 0.34303 0.10924 0.04892 0.0
H76 H 0.2607 0.95399 0.16709 0.0
H77 H 0.13276 0.96759 0.13498 0.0
H78 H 0.20327 0.8624 0.17872 0.0
H79 H 0.11176 0.82241 0.16736 0.0
H80 H 0.4627 0.32438 0.03469 0.0
H81 H 0.57769 0.39083 0.11066 0.0
H82 H 0.47837 0.40819 0.01823 0.0
H83 H 0.5435 0.4846 0.04598 0.0
Gd84 Gd 0.84521 0.65247 0.39899 0.0
Gd85 Gd 0.80088 0.73605 0.37044 0.0
C86 C 0.63244 0.64461 0.34476 0.0
C87 C 0.63236 0.65986 0.28534 0.0
C88 C 0.71231 0.69798 0.31616 0.0
C89 C 0.68599 0.6753 0.34529 0.0
C90 C 0.68525 0.69254 0.28633 0.0
C91 C 0.60606 0.63552 0.31444 0.0
C92 C 0.60668 0.62598 0.37496 0.0
C93 C 0.6339 0.64062 0.40485 0.0
N94 N 0.71208 0.68656 0.37452 0.0
C95 C 0.68674 0.67198 0.40416 0.0
H96 H 0.70693 0.68363 0.42736 0.0
C97 C 0.78917 0.75982 0.29103 0.0
N98 N 0.76357 0.72928 0.31765 0.0
C99 C 0.76385 0.75548 0.26107 0.0
C100 C 0.71171 0.72193 0.25873 0.0
H101 H 0.82955 0.78679 0.29273 0.0
H102 H 0.56501 0.61164 0.31353 0.0
H103 H 0.9217 0.64022 0.343 0.0
H104 H 0.56563 0.60206 0.37556 0.0
H105 H 0.61424 0.6279 0.42846 0.0
H106 H 0.61124 0.65446 0.26241 0.0
H107 H 0.84457 0.66618 0.48525 0.0
H108 H 0.07614 0.74481 0.36887 0.0
H109 H 1.01271 0.67956 0.33081 0.0
H110 H 0.06267 0.81478 0.47289 0.0
H111 H 0.78432 0.77772 0.23969 0.0
H112 H 0.6921 0.71955 0.23558 0.0
H113 H 0.09412 0.79795 0.42057 0.0
H114 H 0.90128 0.72607 0.52741 0.0
N115 N 0.93218 0.68538 0.3865 0.0
C116 C 0.03594 0.72791 0.37425 0.0
C117 C 1.00029 0.69133 0.35266 0.0
C118 C 1.01929 0.74134 0.40296 0.0
C119 C 0.96653 0.71768 0.40908 0.0
C120 C 0.94839 0.66982 0.35943 0.0
N121 N 0.89837 0.6985 0.44521 0.0
C122 C 0.94894 0.72615 0.43875 0.0
C123 C 0.91491 0.72781 0.50222 0.0
C124 C 0.96543 0.7621 0.49428 0.0
C125 C 0.88232 0.69478 0.47764 0.0
C126 C 0.98363 0.75971 0.46276 0.0
H127 H 0.99097 0.78726 0.51334 0.0
O128 O 0.83498 0.59532 0.43613 0.0
O129 O 0.77415 0.65646 0.39077 0.0
O130 O 0.80593 0.74285 0.42487 0.0
O131 O 0.7976 0.66574 0.44009 0.0
O132 O 0.77957 0.59805 0.36782 0.0
O133 O 0.84403 0.58251 0.38462 0.0
O134 O 0.83608 0.81447 0.35397 0.0
O135 O 0.86926 0.72731 0.37597 0.0
O136 O 0.85364 0.6561 0.34191 0.0
O137 O 0.82727 0.71292 0.32473 0.0
O138 O 0.87677 0.79517 0.39114 0.0
O139 O 0.77367 0.78486 0.3898 0.0
C140 C 0.74936 0.61524 0.37394 0.0
C141 C 0.03568 0.78757 0.4552 0.0
C142 C 0.05359 0.77777 0.42554 0.0
C143 C 0.84334 0.56761 0.41498 0.0
C144 C 0.88389 0.55549 0.42331 0.0
C145 C 0.92632 0.59022 0.4421 0.0
C146 C 0.88214 0.51077 0.41096 0.0
C147 C 0.92214 0.5007 0.41797 0.0
C148 C 0.96603 0.58089 0.44863 0.0
C149 C 0.96403 0.53665 0.43677 0.0
C150 C 0.79712 0.70876 0.44748 0.0
C151 C 0.9005 0.77059 0.38757 0.0
C152 C 0.80733 0.82446 0.37304 0.0
C153 C 0.79162 0.85922 0.35968 0.0
C154 C 0.75169 0.84261 0.33667 0.0
C155 C 0.81838 0.91052 0.36975 0.0
C156 C 0.8057 0.94566 0.35655 0.0
C157 C 0.73868 0.87726 0.32362 0.0
C158 C 0.76545 0.92843 0.33341 0.0
C159 C 0.84416 0.68121 0.31842 0.0
H160 H 0.92907 0.62489 0.45166 0.0
H161 H 0.84963 0.48386 0.39631 0.0
H162 H 0.99869 0.60822 0.46294 0.0
H163 H 0.99581 0.53089 0.44205 0.0
H164 H 0.73078 0.80312 0.32882 0.0
H165 H 0.84979 0.92322 0.38723 0.0
H166 H 0.70784 0.86448 0.3058 0.0
H167 H 0.75445 0.9545 0.323 0.0
Gd168 Gd 0.97511 0.2618 0.12859 0.0
Gd169 Gd 0.84987 0.21853 0.0977 0.0
C170 C 0.77188 0.04466 0.0967 0.0
C171 C 0.80244 0.02856 0.04474 0.0
C172 C 0.8231 0.11475 0.0594 0.0
C173 C 0.7979 0.09726 0.08939 0.0
C174 C 0.82385 0.08018 0.03613 0.0
C175 C 0.77596 1.01071 0.07484 0.0
C176 C 0.74317 0.02796 0.126 0.0
C177 C 0.74054 0.06342 0.14692 0.0
N178 N 0.79885 0.13165 0.11149 0.0
C179 C 0.76832 0.11532 0.13908 0.0
H180 H 0.7651 0.14195 0.15533 0.0
C181 C 0.85723 0.18083 0.01987 0.0
N182 N 0.84438 0.1651 0.05227 0.0
C183 C 0.85887 0.14818 0.99585 0.0
C184 C 0.84405 0.09807 0.00443 0.0
H185 H 0.866 0.21839 0.01191 0.0
H186 H 0.75792 0.97044 0.08065 0.0
H187 H 0.05648 0.3413 0.07028 0.0
H188 H 0.72254 0.98788 0.13248 0.0
H189 H 0.71754 0.05088 0.16927 0.0
H190 H 0.80402 1.00173 0.02758 0.0
H191 H 0.97176 0.26118 0.2149 0.0
H192 H 0.08765 0.49218 0.09271 0.0
H193 H 0.09459 0.43158 0.05459 0.0
H194 H 1.02507 0.47612 0.20442 0.0
H195 H 0.87099 0.16155 0.97065 0.0
H196 H 0.84514 0.07272 0.98577 0.0
H197 H 0.0607 0.50828 0.14868 0.0
H198 H 0.96715 0.31539 0.25859 0.0
N199 N 1.02308 0.34905 0.11493 0.0
C200 C 0.07014 0.45228 0.09943 0.0
C201 C 0.07389 0.41818 0.0778 0.0
C202 C 0.04613 0.43486 0.13028 0.0
C203 C 1.02376 0.3825 0.13766 0.0
C204 C 0.05106 0.36664 0.08641 0.0
N205 N 0.98682 0.31466 0.17565 0.0
C206 C 1.00407 0.3645 0.16891 0.0
C207 C 0.97702 0.32964 0.23337 0.0
C208 C 0.98982 0.37961 0.22603 0.0
C209 C 0.97838 0.29848 0.20813 0.0
C210 C 1.00562 0.39828 0.19376 0.0
H211 H 0.98997 0.4041 0.24579 0.0
O212 O 1.02248 0.24857 0.16365 0.0
O213 O 0.89906 0.19217 0.12105 0.0
O214 O 0.84546 0.21787 0.15515 0.0
O215 O 0.91931 0.21734 0.16935 0.0
O216 O 0.96061 0.18828 0.10443 0.0
O217 O 0.04323 0.26313 0.11148 0.0
O218 O 0.80168 0.22573 0.05989 0.0
O219 O 0.92455 0.29001 0.1062 0.0
O220 O 0.98029 0.25875 0.07409 0.0
O221 O 0.91194 0.26714 0.05705 0.0
O222 O 0.85994 0.28561 0.12674 0.0
O223 O 0.77891 0.21546 0.11119 0.0
C224 C 0.91239 0.16198 0.10901 0.0
C225 C 1.02441 0.4498 0.18585 0.0
C226 C 0.04477 0.46811 0.15415 0.0
C227 C 0.05366 0.25122 0.14033 0.0
C228 C 0.10757 0.27193 0.14811 0.0
C229 C 0.13553 0.31795 0.16537 0.0
C230 C 0.13154 0.24498 0.13718 0.0
C231 C 0.18306 0.26305 0.14455 0.0
C232 C 0.18671 0.33602 0.17287 0.0
C233 C 0.2103 0.30867 0.16276 0.0
C234 C 0.87567 0.21421 0.17759 0.0
C235 C 0.90761 0.31562 0.12133 0.0
C236 C 0.76504 0.21631 0.08076 0.0
C237 C 0.71242 0.17542 0.07207 0.0
C238 C 0.70504 0.13314 0.05328 0.0
C239 C 0.66908 0.17689 0.08395 0.0
C240 C 0.61899 0.1369 0.07636 0.0
C241 C 0.65606 0.09362 0.04601 0.0
C242 C 0.61352 0.09545 0.0573 0.0
C243 C 0.95661 0.2693 0.05107 0.0
H244 H 0.11779 0.33975 0.17285 0.0
H245 H 0.10985 0.20952 0.1235 0.0
H246 H 0.20823 0.37137 0.18654 0.0
H247 H 0.25005 0.32347 0.16886 0.0
H248 H 0.73719 0.1304 0.0443 0.0
H249 H 0.67444 0.20919 0.09874 0.0
H250 H 0.65099 0.06115 0.03161 0.0
H251 H 0.57611 0.06371 0.05151 0.0
Gd252 Gd 0.39998 0.20004 0.40362 0.0
Gd253 Gd 0.31942 0.07672 0.36722 0.0
C254 C 0.35924 0.99011 0.29197 0.0
C255 C 0.30295 0.97962 0.24573 0.0
C256 C 0.30616 0.02886 0.29444 0.0
C257 C 0.34206 1.01944 0.30893 0.0
C258 C 0.28599 1.0089 0.26272 0.0
C259 C 0.33982 0.97064 0.26016 0.0
C260 C 0.39354 0.97916 0.30818 0.0
C261 C 0.40711 0.99443 0.34126 0.0
N262 N 0.35729 0.03563 0.34062 0.0
C263 C 0.38702 0.02128 0.35743 0.0
H264 H 0.39329 0.02852 0.38367 0.0
C265 C 0.25096 0.06251 0.29998 0.0
N266 N 0.28918 0.05553 0.31217 0.0
C267 C 0.23104 0.04502 0.2681 0.0
C268 C 0.24851 1.01791 0.24942 0.0
H269 H 0.23622 0.08185 0.31497 0.0
H270 H 0.35239 0.94786 0.24676 0.0
H271 H 0.3622 0.25467 0.34732 0.0
H272 H 0.40793 0.95704 0.29593 0.0
H273 H 0.43154 0.984 0.35468 0.0
H274 H 0.28785 0.96369 0.22147 0.0
H275 H 0.42455 0.19108 0.48308 0.0
H276 H 0.30496 0.3396 0.39796 0.0
H277 H 0.32606 0.31136 0.34548 0.0
H278 H 0.33813 0.32299 0.51246 0.0
H279 H 0.20153 0.0515 0.25825 0.0
H280 H 0.23209 1.00323 0.22512 0.0
H281 H 0.30977 0.34381 0.46045 0.0
H282 H 0.41771 0.22469 0.53773 0.0
N283 N 0.35837 0.24754 0.4002 0.0
C284 C 0.31972 0.31362 0.39889 0.0
C285 C 0.33181 0.29801 0.36924 0.0
C286 C 0.32887 0.29723 0.42941 0.0
C287 C 0.34745 0.26282 0.42926 0.0
C288 C 0.35213 0.26561 0.3704 0.0
N289 N 0.38205 0.21884 0.45715 0.0
C290 C 0.35953 0.24783 0.45881 0.0
C291 C 0.40052 0.23084 0.51585 0.0
C292 C 0.37775 0.26087 0.51789 0.0
C293 C 0.40364 0.21126 0.48498 0.0
C294 C 0.35717 0.27005 0.48923 0.0
H295 H 0.37878 0.27902 0.54134 0.0
O296 O 0.47535 0.25214 0.42426 0.0
O297 O 0.40273 0.13598 0.3784 0.0
O298 O 0.34775 0.06404 0.41494 0.0
O299 O 0.35334 0.13328 0.44272 0.0
O300 O 0.44643 0.16713 0.42151 0.0
O301 O 0.45308 0.27115 0.37832 0.0
O302 O 0.23754 0.03155 0.37134 0.0
O303 O 0.32608 0.15204 0.37982 0.0
O304 O 0.40626 0.20604 0.34563 0.0
O305 O 0.34509 0.12765 0.32295 0.0
O306 O 0.26087 0.08967 0.39386 0.0
O307 O 0.28525 1.00007 0.38699 0.0
C308 C 0.43609 0.13506 0.39756 0.0
C309 C 0.33886 0.30443 0.48953 0.0
C310 C 0.32335 0.31685 0.45982 0.0
C311 C 0.48719 0.28736 0.4018 0.0
C312 C 0.50543 0.34033 0.41417 0.0
C313 C 0.47997 0.34737 0.4409 0.0
C314 C 0.54754 0.38404 0.39992 0.0
C315 C 0.56256 0.43369 0.41244 0.0
C316 C 0.49238 0.39572 0.45183 0.0
C317 C 0.53285 0.43848 0.43755 0.0
C318 C 0.34455 0.08497 0.44256 0.0
C319 C 0.28404 0.13825 0.39382 0.0
C320 C 0.23896 0.99143 0.38162 0.0
C321 C 0.20291 0.94355 0.36516 0.0
C322 C 0.21979 0.91718 0.34505 0.0
C323 C 0.15055 0.92426 0.3696 0.0
C324 C 0.11457 0.87741 0.3552 0.0
C325 C 0.18469 0.87119 0.33031 0.0
C326 C 0.13267 0.85103 0.33564 0.0
C327 C 0.38071 0.17578 0.31987 0.0
H328 H 0.45089 0.31539 0.4539 0.0
H329 H 0.56908 0.37929 0.38012 0.0
H330 H 0.47106 0.40002 0.47195 0.0
H331 H 0.54153 0.4756 0.4468 0.0
H332 H 0.25998 0.93174 0.34098 0.0
H333 H 0.13833 0.94622 0.38428 0.0
H334 H 0.19788 0.8506 0.3151 0.0
H335 H 0.10704 0.81417 0.32484 0.0
Gd336 Gd 0.80575 0.74399 0.13019 0.0
Gd337 Gd 0.84863 0.66183 0.09723 0.0
C338 C 1.02138 0.7597 0.08775 0.0
C339 C 1.03025 0.80518 0.03605 0.0
C340 C 0.94687 0.73853 0.05438 0.0
C341 C 0.96815 0.73266 0.08329 0.0
C342 C 0.97811 0.77319 0.02966 0.0
C343 C 0.05211 0.79757 0.06472 0.0
C344 C 0.04196 0.74804 0.11531 0.0
C345 C 1.00956 0.71065 0.13774 0.0
N346 N 0.9369 0.69961 0.10675 0.0
C347 C 0.95688 0.68647 0.13297 0.0
H348 H 0.93261 0.65688 0.15018 0.0
C349 C 0.87698 0.70206 0.01772 0.0
N350 N 0.89622 0.70759 0.04942 0.0
C351 C 0.90621 0.73552 0.9923 0.0
C352 C 0.95655 0.77273 -0.00128 0.0
H353 H 0.83897 0.67204 0.0116 0.0
H354 H 0.09282 0.82054 0.06857 0.0
H355 H 0.75409 0.78844 0.07402 0.0
H356 H 0.08273 0.76707 0.11914 0.0
H357 H 1.0251 0.7006 0.15882 0.0
H358 H 0.05459 0.83327 0.01786 0.0
H359 H 0.77908 0.69219 0.20982 0.0
H360 H 0.59359 0.68561 0.07143 0.0
H361 H 0.67005 0.76184 0.04967 0.0
H362 H 0.56542 0.57898 0.16651 0.0
H363 H 0.89003 0.73223 0.9677 0.0
H364 H 0.97931 0.79842 0.97895 0.0
H365 H 0.55496 0.61677 0.11487 0.0
H366 H 0.70812 0.62106 0.23765 0.0
N367 N 0.72628 0.72662 0.10852 0.0
C368 C 0.63053 0.69717 0.08228 0.0
C369 C 0.67353 0.74015 0.06993 0.0
C370 C 0.63537 0.6714 0.10973 0.0
C371 C 0.68432 0.68821 0.12299 0.0
C372 C 0.72125 0.75484 0.08373 0.0
N373 N 0.73755 0.68777 0.1655 0.0
C374 C 0.69008 0.66813 0.15246 0.0
C375 C 0.70253 0.63318 0.21337 0.0
C376 C 0.65411 0.6107 0.19928 0.0
C377 C 0.74352 0.67299 0.19669 0.0
C378 C 0.64714 0.629 0.16888 0.0
H379 H 0.62221 0.58049 0.21255 0.0
O380 O 0.8229 0.79184 0.17432 0.0
O381 O 0.87423 0.73662 0.12155 0.0
O382 O 0.85667 0.66042 0.15417 0.0
O383 O 0.84436 0.72674 0.17196 0.0
O384 O 0.87779 0.80246 0.10467 0.0
O385 O 0.81083 0.81835 0.1263 0.0
O386 O 0.84091 0.60562 0.0598 0.0
O387 O 0.77826 0.66511 0.10835 0.0
O388 O 0.8128 0.7552 0.07556 0.0
O389 O 0.79676 0.67539 0.05913 0.0
O390 O 0.78342 0.60429 0.12714 0.0
O391 O 0.84966 0.59303 0.11141 0.0
C392 C 0.90384 0.78012 0.10947 0.0
C393 C 0.5987 0.60956 0.15453 0.0
C394 C 0.59278 0.63089 0.12506 0.0
C395 C 0.82367 0.829 0.15742 0.0
C396 C 0.83391 0.87753 0.17302 0.0
C397 C 0.84322 0.88393 0.20746 0.0
C398 C 0.83971 0.91932 0.15375 0.0
C399 C 0.85412 0.96666 0.16922 0.0
C400 C 0.85658 0.93005 0.22283 0.0
C401 C 0.86237 0.9711 0.20399 0.0
C402 C 0.85489 0.69003 0.1779 0.0
C403 C 0.75358 0.62252 0.12347 0.0
C404 C 0.84891 0.5778 0.08113 0.0
C405 C 0.889 0.56468 0.07342 0.0
C406 C 0.93276 0.59952 0.05597 0.0
C407 C 0.88551 0.51884 0.08532 0.0
C408 C 0.92511 0.50774 0.07916 0.0
C409 C 0.97195 0.58914 0.05014 0.0
C410 C 0.96826 0.54387 0.06154 0.0
C411 C 0.79655 0.71904 0.05316 0.0
H412 H 0.842 0.85389 0.22256 0.0
H413 H 0.83374 0.91528 0.12699 0.0
H414 H 0.86379 0.93442 0.24943 0.0
H415 H 0.87478 1.00696 0.21675 0.0
H416 H 0.93697 0.63515 0.04704 0.0
H417 H 0.85198 0.49192 0.09904 0.0
H418 H 1.00564 0.61655 0.03683 0.0
H419 H 0.99986 0.53759 0.05693 0.0
Gd420 Gd 0.8512 0.21529 0.39891 0.0
Gd421 Gd 0.97856 0.25919 0.37224 0.0
C422 C 0.07314 0.38592 0.2988 0.0
C423 C 0.08557 0.33925 0.25387 0.0
C424 C 0.03305 0.29395 0.30145 0.0
C425 C 0.04236 0.33952 0.31545 0.0
C426 C 0.05447 0.2931 0.27052 0.0
C427 C 0.09457 0.38554 0.26783 0.0
C428 C 0.08255 0.43131 0.31426 0.0
C429 C 0.06319 0.42968 0.34613 0.0
N430 N 1.02306 0.33858 0.34609 0.0
C431 C 0.03432 0.38273 0.36205 0.0
H432 H 1.02206 0.38189 0.38737 0.0
C433 C 0.9951 0.20449 0.30681 0.0
N434 N 1.00343 0.25034 0.31854 0.0
C435 C 1.01435 0.20141 0.27573 0.0
C436 C 0.04421 0.24595 0.25747 0.0
H437 H 0.97353 0.17045 0.32155 0.0
H438 H 0.11847 0.42081 0.25463 0.0
H439 H 0.79264 0.11344 0.34737 0.0
H440 H 0.10575 0.4678 0.30221 0.0
H441 H 0.07143 0.4646 0.35875 0.0
H442 H 0.10263 0.33955 0.23017 0.0
H443 H 0.86257 0.26205 0.47736 0.0
H444 H 0.70265 0.98222 0.40686 0.0
H445 H 0.73412 0.02172 0.35172 0.0
H446 H 0.71949 0.05021 0.5165 0.0
H447 H 1.0068 0.16486 0.26612 0.0
H448 H 0.05957 0.24361 0.23357 0.0
H449 H 0.6954 0.99382 0.46776 0.0
H450 H 0.83048 0.22857 0.53374 0.0
N451 N 0.79964 0.12636 0.4 0.0
C452 C 0.72981 0.02268 0.40525 0.0
C453 C 0.74732 0.0448 0.3741 0.0
C454 C 0.74564 0.05338 0.43382 0.0
C455 C 0.78185 0.10578 0.43059 0.0
C456 C 0.78117 0.09714 0.37184 0.0
N457 N 0.8295 0.18845 0.45473 0.0
C458 C 0.79684 0.13756 0.45856 0.0
C459 C 0.82114 0.20257 0.51293 0.0
C460 C 0.78857 0.15042 0.5174 0.0
C461 C 0.8398 0.22125 0.4811 0.0
C462 C 0.77488 0.11749 0.48997 0.0
H463 H 0.77282 0.13616 0.5419 0.0
O464 O 0.81159 0.25359 0.41749 0.0
O465 O 0.92616 0.28672 0.39145 0.0
O466 O 0.97849 0.29853 0.41891 0.0
O467 O 0.91087 0.2302 0.44213 0.0
O468 O 0.86442 0.28238 0.36802 0.0
O469 O 0.77437 0.19099 0.38205 0.0
O470 O 1.02128 0.2209 0.38364 0.0
O471 O 0.90083 0.19033 0.37722 0.0
O472 O 0.84863 0.20076 0.34264 0.0
O473 O 0.93339 0.24556 0.32462 0.0
O474 O 0.95907 0.18301 0.39526 0.0
O475 O 0.05402 0.3013 0.39439 0.0
C476 C 0.91135 0.31258 0.37481 0.0
C477 C 0.738 0.06576 0.49284 0.0
C478 C 0.72402 0.03367 0.46502 0.0
C479 C 0.76946 0.22301 0.40131 0.0
C480 C 0.72046 0.20201 0.41942 0.0
C481 C 0.7194 0.19988 0.45437 0.0
C482 C 0.67407 0.18393 0.40172 0.0
C483 C 0.62739 0.16317 0.4191 0.0
C484 C 0.67363 0.1793 0.47156 0.0
C485 C 0.62811 0.16135 0.45421 0.0
C486 C 0.95771 0.27054 0.44531 0.0
C487 C 0.91088 0.15934 0.39114 0.0
C488 C 0.0618 0.26259 0.39297 0.0
C489 C 0.11003 0.27142 0.37801 0.0
C490 C 0.13574 0.31114 0.35503 0.0
C491 C 0.12981 0.23907 0.38568 0.0
C492 C 0.17485 0.24651 0.3702 0.0
C493 C 0.18027 0.31882 0.33996 0.0
C494 C 0.19979 0.28705 0.34749 0.0
C495 C 0.88374 0.22032 0.31881 0.0
H496 H 0.75388 0.21491 0.46867 0.0
H497 H 0.67432 0.18578 0.37471 0.0
H498 H 0.6735 0.17798 0.49855 0.0
H499 H 0.59335 0.14701 0.4685 0.0
H500 H 0.1216 0.33651 0.34873 0.0
H501 H 0.10976 0.20783 0.40304 0.0
H502 H 0.19985 0.34968 0.32234 0.0
H503 H 0.23489 0.29458 0.33561 0.0
Gd504 Gd 0.2092 0.37519 0.5977 0.0
Gd505 Gd 0.08272 0.29468 0.62787 0.0
C506 C 0.99313 0.37285 0.65487 0.0
C507 C 0.96965 0.34634 0.71243 0.0
C508 C 1.02058 0.31885 0.68157 0.0
C509 C 1.01952 0.3456 0.65381 0.0
C510 C 0.99388 0.31727 0.71071 0.0
C511 C 0.96955 0.37435 0.68464 0.0
C512 C 0.98933 0.39592 0.62558 0.0
C513 C 1.00919 0.38918 0.59586 0.0
N514 N 0.0409 0.34177 0.62505 0.0
C515 C 0.03399 0.36083 0.59596 0.0
H516 H 0.04872 0.35534 0.57295 0.0
C517 C 0.04063 0.25889 0.70427 0.0
N518 N 0.04433 0.29116 0.67918 0.0
C519 C 1.01434 0.25582 0.73355 0.0
C520 C 0.99098 0.28525 0.73685 0.0
H521 H 0.05758 0.23512 0.70175 0.0
H522 H 0.94951 0.3955 0.68602 0.0
H523 H 0.30099 0.39921 0.65434 0.0
H524 H 0.96959 0.41742 0.62539 0.0
H525 H 1.00525 0.40561 0.57286 0.0
H526 H 0.94978 0.34639 0.73485 0.0
H527 H 0.1888 0.3474 0.51341 0.0
H528 H 0.35591 0.29608 0.6366 0.0
H529 H 0.35679 0.36533 0.66986 0.0
H530 H 0.26779 0.20809 0.53718 0.0
H531 H 1.01197 0.23065 0.75352 0.0
H532 H 0.97058 0.2828 0.75956 0.0
H533 H 0.31946 0.23479 0.58853 0.0
H534 H 0.186 0.28255 0.47567 0.0
N535 N 0.2659 0.34731 0.61383 0.0
C536 C 0.331 0.3106 0.62976 0.0
C537 C 0.33149 0.34955 0.64865 0.0
C538 C 0.29924 0.29171 0.6018 0.0
C539 C 0.26811 0.31247 0.59368 0.0
C540 C 0.29907 0.36806 0.64001 0.0
N541 N 0.21601 0.32407 0.55539 0.0
C542 C 0.24043 0.29872 0.56431 0.0
C543 C 0.2 0.28551 0.50091 0.0
C544 C 0.21874 0.25418 0.51145 0.0
C545 C 0.20046 0.32154 0.52295 0.0
C546 C 0.24149 0.26225 0.54293 0.0
H547 H 0.21901 0.22671 0.49423 0.0
O548 O 0.25496 0.42606 0.5574 0.0
O549 O 0.13525 0.373 0.60598 0.0
O550 O 0.0932 0.28115 0.57453 0.0
O551 O 0.14754 0.36175 0.55766 0.0
O552 O 0.19975 0.43202 0.62766 0.0
O553 O 0.27615 0.44861 0.60844 0.0
O554 O 0.04078 0.21221 0.6317 0.0
O555 O 0.15329 0.29548 0.61204 0.0
O556 O 0.21197 0.37075 0.65492 0.0
O557 O 0.12777 0.33775 0.67313 0.0
O558 O 0.11757 0.25674 0.65623 0.0
O559 O 1.01012 0.25072 0.60252 0.0
C560 C 0.15232 0.41517 0.62167 0.0
C561 C 0.26783 0.23732 0.5528 0.0
C562 C 0.29753 0.25279 0.58187 0.0
C563 C 0.29029 0.45838 0.57756 0.0
C564 C 0.34383 0.47177 0.57116 0.0
C565 C 0.35399 0.43686 0.55477 0.0
C566 C 0.38519 0.51803 0.58332 0.0
C567 C 0.43614 0.52945 0.57846 0.0
C568 C 0.40393 0.44764 0.55027 0.0
C569 C 0.44458 0.49337 0.56191 0.0
C570 C 0.10619 0.31638 0.552 0.0
C571 C 0.15513 0.26921 0.63625 0.0
C572 C 1.00259 0.20729 0.61414 0.0
C573 C 0.95229 0.1723 0.62782 0.0
C574 C 0.92598 0.19064 0.64663 0.0
C575 C 0.93103 0.11962 0.62269 0.0
C576 C 0.88302 0.085 0.63599 0.0
C577 C 0.87853 0.15673 0.65996 0.0
C578 C 0.85701 0.10444 0.65458 0.0
C579 C 0.17738 0.36001 0.67867 0.0
H580 H 0.32332 0.4009 0.54562 0.0
H581 H 0.37768 0.54505 0.5962 0.0
H582 H 0.41121 0.42023 0.53777 0.0
H583 H 0.48285 0.5002 0.55826 0.0
H584 H 0.9419 0.23107 0.65088 0.0
H585 H 0.95226 0.10582 0.60868 0.0
H586 H 0.85813 0.17105 0.67429 0.0
H587 H 0.81945 0.07944 0.66454 0.0
Gd588 Gd 0.26483 0.96788 0.86765 0.0
Gd589 Gd 0.21676 0.8424 0.89913 0.0
C590 C 0.05326 0.74842 0.93495 0.0
C591 C 0.06478 0.74387 0.99436 0.0
C592 C 0.13767 0.79845 0.9594 0.0
C593 C 0.10614 0.78229 0.93139 0.0
C594 C 0.117 0.77863 0.99118 0.0
C595 C 0.03279 0.73013 0.96658 0.0
C596 C 1.0229 0.73019 0.90635 0.0
C597 C 0.04575 0.74219 0.87509 0.0
N598 N 0.12749 0.79503 0.90057 0.0
C599 C 0.09841 0.7734 0.87269 0.0
H600 H 0.1151 0.78016 0.84826 0.0
C601 C 0.22133 0.83485 0.9814 0.0
N602 N 0.18901 0.82685 0.95511 0.0
C603 C 0.20237 0.81869 0.0135 0.0
C604 C 0.14996 0.79046 0.01843 0.0
H605 H 0.26204 0.85385 0.97737 0.0
H606 H 0.99259 0.70303 0.96959 0.0
H607 H 0.38739 1.01143 0.88318 0.0
H608 H 0.98217 0.70469 0.90814 0.0
H609 H 1.023 0.72646 0.85279 0.0
H610 H 0.0488 0.72618 0.01814 0.0
H611 H 0.17677 0.96019 0.81521 0.0
H612 H 0.47318 0.08742 0.79629 0.0
H613 H 0.46973 0.05722 0.85416 0.0
H614 H 0.34605 0.0811 0.72197 0.0
H615 H 0.2282 0.82622 0.03418 0.0
H616 H 0.13544 0.77573 0.04307 0.0
H617 H 0.42671 0.0975 0.74735 0.0
H618 H 0.1716 0.98974 0.75833 0.0
N619 N 0.34411 1.00974 0.84116 0.0
C620 C 0.43675 0.06564 0.80861 0.0
C621 C 0.43497 0.04856 0.84121 0.0
C622 C 0.39161 0.05585 0.79272 0.0
C623 C 0.34526 0.02697 0.80978 0.0
C624 C 0.38812 0.02154 0.85741 0.0
N625 N 0.25641 0.98932 0.81274 0.0
C626 C 0.29998 1.0173 0.7953 0.0
C627 C 0.20795 0.99763 0.76841 0.0
C628 C 0.25247 0.02585 0.74988 0.0
C629 C 0.2108 0.9805 0.80034 0.0
C630 C 0.29936 0.03648 0.76344 0.0
H631 H 0.2503 0.03963 0.72535 0.0
O632 O 0.22739 1.01196 0.8761 0.0
O633 O 0.19385 0.89171 0.87454 0.0
O634 O 0.20141 0.83721 0.84236 0.0
O635 O 0.25163 0.91976 0.82155 0.0
O636 O 0.18989 0.95278 0.89052 0.0
O637 O 0.30773 0.04491 0.88732 0.0
O638 O 0.24627 0.79642 0.92181 0.0
O639 O 0.28977 0.91502 0.8898 0.0
O640 O 0.3066 0.97413 0.91466 0.0
O641 O 0.23957 0.90813 0.94063 0.0
O642 O 0.28237 0.85005 0.86945 0.0
O643 O 0.19171 0.76564 0.88149 0.0
C644 C 0.16414 0.90436 0.88745 0.0
C645 C 0.34549 0.06579 0.7464 0.0
C646 C 0.39148 0.07509 0.76087 0.0
C647 C 0.26924 0.05278 0.88476 0.0
C648 C 0.27816 0.10002 0.86846 0.0
C649 C 0.31934 0.12627 0.84673 0.0
C650 C 0.24448 0.11854 0.87423 0.0
C651 C 0.25265 0.16412 0.85908 0.0
C652 C 0.32781 0.17117 0.83169 0.0
C653 C 0.29538 0.19032 0.83805 0.0
C654 C 0.22325 0.86992 0.81724 0.0
C655 C 0.31397 0.89734 0.87423 0.0
C656 C 0.21744 0.75615 0.90352 0.0
C657 C 0.18829 0.7055 0.92012 0.0
C658 C 0.16329 0.70121 0.95023 0.0
C659 C 0.18195 0.6604 0.9048 0.0
C660 C 0.14931 0.61162 0.91913 0.0
C661 C 0.12915 0.65382 0.96342 0.0
C662 C 0.12136 0.60953 0.94776 0.0
C663 C 0.2806 0.9554 0.94202 0.0
H664 H 0.34531 0.11243 0.84157 0.0
H665 H 0.21191 0.09703 0.89028 0.0
H666 H 0.3601 0.19164 0.81529 0.0
H667 H 0.3048 0.22634 0.8267 0.0
H668 H 0.16982 0.73437 0.96365 0.0
H669 H 0.20287 0.6637 0.8822 0.0
H670 H 0.10863 0.65142 0.98606 0.0
H671 H 0.09347 0.57358 0.95859 0.0
Gd672 Gd 0.65373 0.82249 0.59684 0.0
Gd673 Gd 0.72828 0.76825 0.62719 0.0
C674 C 0.69395 0.64384 0.70287 0.0
C675 C 0.75496 0.69111 0.74688 0.0
C676 C 0.74734 0.73551 0.6988 0.0
C677 C 0.71009 0.68979 0.68552 0.0
C678 C 0.77024 0.73692 0.72964 0.0
C679 C 0.71658 0.64472 0.73367 0.0
C680 C 0.65658 0.59832 0.68826 0.0
C681 C 0.63789 0.59935 0.65654 0.0
N682 N 0.69103 0.69014 0.65497 0.0
C683 C 0.65654 0.64584 0.63989 0.0
H684 H 0.64462 0.6461 0.61461 0.0
C685 C 0.79911 0.82478 0.69243 0.0
N686 N 0.7615 0.77868 0.68114 0.0
C687 C 0.82208 0.82847 0.72342 0.0
C688 C 0.80775 0.78429 0.74206 0.0
H689 H 0.81124 0.85853 0.67739 0.0
H690 H 0.70487 0.60977 0.74738 0.0
H691 H 0.66948 0.9165 0.6499 0.0
H692 H 0.64287 0.56214 0.70085 0.0
H693 H 0.61011 0.56427 0.64456 0.0
H694 H 0.77207 0.69112 0.77057 0.0
H695 H 0.63152 0.79942 0.51247 0.0
H696 H 0.77261 0.05913 0.60472 0.0
H697 H 0.7182 1.00996 0.65225 0.0
H698 H 0.79817 1.01202 0.49563 0.0
H699 H 0.85132 0.86518 0.73266 0.0
H700 H 0.82596 0.78712 0.76586 0.0
H701 H 0.80699 0.05891 0.54773 0.0
H702 H 0.67238 0.84393 0.46004 0.0
N703 N 0.69653 0.91185 0.6016 0.0
C704 C 0.751 1.01788 0.60348 0.0
C705 C 0.72037 0.99028 0.63032 0.0
C706 C 0.7524 0.99198 0.57497 0.0
C707 C 0.72265 0.93834 0.57425 0.0
C708 C 0.69318 0.93701 0.62896 0.0
N709 N 0.68188 0.86161 0.54373 0.0
C710 C 0.71658 0.91214 0.54471 0.0
C711 C 0.68581 0.86334 0.48374 0.0
C712 C 0.72667 0.91329 0.48485 0.0
C713 C 0.66255 0.83847 0.51347 0.0
C714 C 0.74117 0.93896 0.51546 0.0
H715 H 0.74448 0.93267 0.46179 0.0
O716 O 0.5854 0.80273 0.56735 0.0
O717 O 0.65093 0.74824 0.60627 0.0
O718 O 0.68882 0.72754 0.58088 0.0
O719 O 0.69254 0.79642 0.55577 0.0
O720 O 0.59086 0.75432 0.62271 0.0
O721 O 0.59684 0.83992 0.61508 0.0
O722 O 0.80876 0.80284 0.61526 0.0
O723 O 0.72561 0.84059 0.6208 0.0
O724 O 0.66644 0.83692 0.65342 0.0
O725 O 0.69502 0.78279 0.67342 0.0
O726 O 0.78996 0.84242 0.605 0.0
O727 O 0.75864 0.722 0.60728 0.0
C728 C 0.6078 0.72338 0.62022 0.0
C729 C 0.77695 0.99122 0.51747 0.0
C730 C 0.78191 1.01793 0.54709 0.0
C731 C 0.56896 0.82447 0.58827 0.0
C732 C 0.55375 0.86074 0.5749 0.0
C733 C 0.58524 0.89821 0.55199 0.0
C734 C 0.50983 0.86085 0.58692 0.0
C735 C 0.49748 0.89798 0.57579 0.0
C736 C 0.57375 0.93502 0.54121 0.0
C737 C 0.53056 0.93509 0.55298 0.0
C738 C 0.69706 0.75473 0.55394 0.0
C739 C 0.76848 0.86918 0.60813 0.0
C740 C 0.80572 0.75976 0.60746 0.0
C741 C 0.84503 0.75086 0.62269 0.0
C742 C 0.83125 0.71234 0.64657 0.0
C743 C 0.89702 0.78211 0.61427 0.0
C744 C 0.93473 0.77463 0.62974 0.0
C745 C 0.86814 0.70454 0.66163 0.0
C746 C 0.91926 0.73505 0.65323 0.0
C747 C 0.67584 0.81314 0.67807 0.0
H748 H 0.6192 0.89958 0.54266 0.0
H749 H 0.48546 0.83203 0.60472 0.0
H750 H 0.5988 0.96405 0.52378 0.0
H751 H 0.52362 0.965 0.54448 0.0
H752 H 0.79189 0.68799 0.65357 0.0
H753 H 0.90801 0.81254 0.59626 0.0
H754 H 0.85701 0.67448 0.67987 0.0
H755 H 0.94675 0.72719 0.665 0.0
Gd756 Gd 0.08616 0.31022 0.86894 0.0
Gd757 Gd 0.21169 0.39487 0.89866 0.0
C758 C 0.29421 0.30374 0.90373 0.0
C759 C 0.26671 0.26157 0.95736 0.0
C760 C 0.24189 0.32285 0.93976 0.0
C761 C 0.26615 0.3286 0.90953 0.0
C762 C 0.24341 0.29045 0.96445 0.0
C763 C 0.29306 0.26906 0.92733 0.0
C764 C 0.32182 0.31374 0.87411 0.0
C765 C 0.32079 0.34762 0.85104 0.0
N766 N 0.26247 0.35853 0.8858 0.0
C767 C 0.29123 0.37018 0.85745 0.0
H768 H 0.29272 0.39769 0.83978 0.0
C769 C 0.20655 0.3556 0.9778 0.0
N770 N 0.21913 0.35088 0.94564 0.0
C771 C 0.20664 0.32381 0.00303 0.0
C772 C 0.22324 0.2895 0.99594 0.0
H773 H 0.19679 0.38409 0.98468 0.0
H774 H 0.31247 0.24784 0.92262 0.0
H775 H 1.00026 0.29931 0.92704 0.0
H776 H 0.34445 0.29599 0.86902 0.0
H777 H 0.34283 0.35649 0.82832 0.0
H778 H 0.26635 0.2349 0.9755 0.0
H779 H 0.09291 0.32047 0.78308 0.0
H780 H 0.96467 0.41706 0.90919 0.0
H781 H 0.95813 0.34694 0.9444 0.0
H782 H 0.03088 0.47473 0.79936 0.0
H783 H 0.19464 0.32637 0.02803 0.0
H784 H 0.22359 0.26505 0.01556 0.0
H785 H 0.99269 0.46519 0.85496 0.0
H786 H 0.09716 0.38185 0.74159 0.0
N787 N 0.03484 0.34517 0.88411 0.0
C788 C 0.98385 0.39663 0.90167 0.0
C789 C 0.98027 0.35727 0.92167 0.0
C790 C 1.0095 0.40694 0.87119 0.0
C791 C 0.03378 0.37919 0.86268 0.0
C792 C 1.00515 0.331 0.91203 0.0
N793 N 0.07426 0.35387 0.8236 0.0
C794 C 0.05471 0.38414 0.83146 0.0
C795 C 0.08596 0.38367 0.76696 0.0
C796 C 0.07055 0.41845 0.77556 0.0
C797 C 0.08504 0.34981 0.79099 0.0
C798 C 0.05276 0.41764 0.80784 0.0
H799 H 0.07009 0.44385 0.75672 0.0
O800 O 0.04088 0.25129 0.83226 0.0
O801 O 0.1624 0.3177 0.8772 0.0
O802 O 0.2151 0.39648 0.84142 0.0
O803 O 0.14186 0.32052 0.82841 0.0
O804 O 0.10071 0.25323 0.89567 0.0
O805 O 1.0195 0.24061 0.88441 0.0
O806 O 0.2598 0.45319 0.93514 0.0
O807 O 0.13671 0.38996 0.88962 0.0
O808 O 0.08169 0.30408 0.9236 0.0
O809 O 0.14975 0.38223 0.93913 0.0
O810 O 0.2003 0.44996 0.86822 0.0
O811 O 0.28271 0.46185 0.88389 0.0
C812 C 0.14893 0.2753 0.89108 0.0
C813 C 0.03192 0.44812 0.81696 0.0
C814 C 1.01022 0.44271 0.8486 0.0
C815 C 1.00973 0.22055 0.85483 0.0
C816 C 0.95595 0.18738 0.84667 0.0
C817 C 0.929 0.20462 0.82751 0.0
C818 C 0.9312 0.13706 0.85887 0.0
C819 C 0.87986 0.10339 0.85116 0.0
C820 C 0.8778 0.17143 0.82 0.0
C821 C 0.85341 0.12112 0.83155 0.0
C822 C 0.18538 0.36096 0.81969 0.0
C823 C 0.15258 0.43167 0.87371 0.0
C824 C 0.29656 0.47883 0.91397 0.0
C825 C 0.34903 0.4909 0.92327 0.0
C826 C 0.35599 0.4567 0.9431 0.0
C827 C 0.39262 0.535 0.91078 0.0
C828 C 0.44254 0.54497 0.91863 0.0
C829 C 0.40476 0.46588 0.95051 0.0
C830 C 0.44753 0.50942 0.93849 0.0
C831 C 0.10531 0.33974 0.94587 0.0
H832 H 0.94751 0.2435 0.81841 0.0
H833 H 0.95228 0.12382 0.87367 0.0
H834 H 0.85696 0.18464 0.80506 0.0
H835 H 0.81373 0.09605 0.82526 0.0
H836 H 0.3237 0.42256 0.95278 0.0
H837 H 0.38758 0.56148 0.89532 0.0
H838 H 0.40947 0.43888 0.96562 0.0
H839 H 0.48475 0.51481 0.94442 0.0
Gd840 Gd 0.21383 0.82423 0.59632 0.0
Gd841 Gd 0.24789 0.94755 0.62366 0.0
C842 C 0.42145 0.03189 0.6156 0.0
C843 C 0.4463 1.01408 0.66934 0.0
C844 C 0.35747 0.98618 0.65766 0.0
C845 C 0.37016 1.00585 0.62589 0.0
C846 C 0.39561 0.99143 0.68016 0.0
C847 C 0.45923 0.03433 0.63707 0.0
C848 C 0.43325 0.05592 0.58447 0.0
C849 C 0.3948 0.05648 0.56566 0.0
N850 N 0.3325 1.00164 0.60559 0.0
C851 C 0.34463 0.03026 0.57721 0.0
H852 H 0.316 0.03376 0.56352 0.0
C853 C 0.29612 0.95509 0.70017 0.0
N854 N 0.30806 0.96432 0.66705 0.0
C855 C 0.33199 0.95791 0.72329 0.0
C856 C 0.38184 0.97511 0.71306 0.0
H857 H 0.25904 0.94568 0.70922 0.0
H858 H 0.4987 0.05321 0.62936 0.0
H859 H 0.12733 0.76599 0.6576 0.0
H860 H 0.47214 0.07626 0.57556 0.0
H861 H 0.40379 0.07758 0.5425 0.0
H862 H 0.47599 1.01762 0.68606 0.0
H863 H 0.2363 0.82723 0.51303 0.0
H864 H 0.98033 0.68385 0.6136 0.0
H865 H 0.03553 0.71183 0.66351 0.0
H866 H 1.01526 0.69722 0.49719 0.0
H867 H 0.32146 0.94818 0.74917 0.0
H868 H 0.40988 0.97827 0.73114 0.0
H869 H 0.9732 0.67863 0.55163 0.0
H870 H 0.18806 0.79199 0.46186 0.0
N871 N 0.12543 0.77489 0.60484 0.0
C872 C 1.02093 0.7093 0.61083 0.0
C873 C 0.05191 0.7249 0.63903 0.0
C874 C 0.04295 0.72466 0.5793 0.0
C875 C 0.09601 0.75852 0.57695 0.0
C876 C 0.10437 0.75673 0.63551 0.0
N877 N 0.17079 0.80289 0.54431 0.0
C878 C 0.11925 0.77263 0.54589 0.0
C879 C 0.16814 0.78755 0.4851 0.0
C880 C 0.11556 0.75695 0.48643 0.0
C881 C 0.19534 0.80913 0.51439 0.0
C882 C 0.09032 0.74941 0.51681 0.0
H883 H 0.09513 0.73685 0.46419 0.0
O884 O 0.23957 0.77897 0.56851 0.0
O885 O 0.28229 0.90168 0.60228 0.0
O886 O 0.23926 0.95197 0.56953 0.0
O887 O 0.25445 0.88762 0.5539 0.0
O888 O 0.28159 0.84097 0.62672 0.0
O889 O 0.19972 0.75078 0.61482 0.0
O890 O 0.23206 0.98876 0.66194 0.0
O891 O 0.18076 0.86914 0.61662 0.0
O892 O 0.21568 0.82383 0.65387 0.0
O893 O 0.20586 0.89315 0.66557 0.0
O894 O 0.17527 0.9282 0.59613 0.0
O895 O 0.24329 1.01403 0.61061 0.0
C896 C 0.30974 0.88786 0.61842 0.0
C897 C 0.03771 0.71591 0.51919 0.0
C898 C 1.01384 0.70481 0.55024 0.0
C899 C 0.2184 0.74024 0.58893 0.0
C900 C 0.1857 0.68826 0.5747 0.0
C901 C 0.15531 0.68167 0.54673 0.0
C902 C 0.18245 0.64441 0.58988 0.0
C903 C 0.14855 0.59494 0.57706 0.0
C904 C 0.12023 0.63337 0.53513 0.0
C905 C 0.11641 0.59041 0.5503 0.0
C906 C 0.25134 0.9295 0.54661 0.0
C907 C 0.15092 0.87982 0.601 0.0
C908 C 0.23373 0.02213 0.64077 0.0
C909 C 0.25933 0.07536 0.65067 0.0
C910 C 0.3101 0.10076 0.6612 0.0
C911 C 0.23308 0.10201 0.64662 0.0
C912 C 0.2571 0.15428 0.65361 0.0
C913 C 0.33409 0.15266 0.66876 0.0
C914 C 0.30785 0.17935 0.66503 0.0
C915 C 0.20775 0.85252 0.6753 0.0
H916 H 0.15851 0.71373 0.53358 0.0
H917 H 0.20678 0.64897 0.61096 0.0
H918 H 0.09615 0.62925 0.514 0.0
H919 H 0.08845 0.55339 0.54064 0.0
H920 H 0.33104 0.08057 0.66322 0.0
H921 H 0.1939 0.08189 0.63797 0.0
H922 H 0.37326 0.17239 0.67717 0.0
H923 H 0.3276 0.21973 0.67058 0.0
Gd924 Gd 0.74165 0.79479 0.87047 0.0
Gd925 Gd 0.65048 0.82691 0.89818 0.0
C926 C 0.724 0.99901 0.91317 0.0
C927 C 0.72868 1.00689 0.97334 0.0
C928 C 0.69715 0.92359 0.94734 0.0
C929 C 0.70369 0.94576 0.91611 0.0
C930 C 0.70808 0.95403 0.97631 0.0
C931 C 0.73783 0.0295 0.94188 0.0
C932 C 0.72742 1.0199 0.88155 0.0
C933 C 0.70809 0.98772 0.85401 0.0
N934 N 0.68748 0.9152 0.88872 0.0
C935 C 0.68719 0.93522 0.85816 0.0
H936 H 0.67075 0.91138 0.83663 0.0
C937 C 0.65943 0.84881 0.98011 0.0
N938 N 0.67509 0.87201 0.94955 0.0
C939 C 0.67045 0.87741 0.00934 0.0
C940 C 0.69485 0.93023 0.00743 0.0
H941 H 0.63551 0.80798 0.98236 0.0
H942 H 0.75324 0.07033 0.94007 0.0
H943 H 0.76335 0.72823 0.93013 0.0
H944 H 0.74316 0.06058 0.87831 0.0
H945 H 0.7089 1.00326 0.82956 0.0
H946 H 0.73582 0.03044 0.99524 0.0
H947 H 0.72738 0.78342 0.78479 0.0
H948 H 0.65235 0.57065 0.91794 0.0
H949 H 0.72259 0.63977 0.95027 0.0
H950 H 0.58397 0.5659 0.80913 0.0
H951 H 0.65787 0.85853 0.03322 0.0
H952 H 0.70054 0.95199 0.02999 0.0
H953 H 0.59997 0.54346 0.86517 0.0
H954 H 0.66477 0.72087 0.74583 0.0
N955 N 0.71378 0.7105 0.88828 0.0
C956 C 0.66987 0.60962 0.90912 0.0
C957 C 0.7093 0.64853 0.9275 0.0
C958 C 0.6558 0.62115 0.87853 0.0
C959 C 0.67996 0.6725 0.86828 0.0
C960 C 0.73171 0.6989 0.91625 0.0
N961 N 0.69901 0.73435 0.8271 0.0
C962 C 0.67184 0.68492 0.83669 0.0
C963 C 0.66561 0.7103 0.77152 0.0
C964 C 0.63356 0.66032 0.78201 0.0
C965 C 0.70016 0.74622 0.79408 0.0
C966 C 0.63801 0.64657 0.8146 0.0
H967 H 0.60767 0.6322 0.7643 0.0
O968 O 0.80002 0.81064 0.83307 0.0
O969 O 0.72804 0.86025 0.87742 0.0
O970 O 0.64725 0.82502 0.84097 0.0
O971 O 0.72631 0.83494 0.82844 0.0
O972 O 0.794 0.86879 0.89713 0.0
O973 O 0.81453 0.80476 0.88521 0.0
O974 O 0.57943 0.79469 0.92606 0.0
O975 O 0.66089 0.75954 0.89105 0.0
O976 O 0.75066 0.80023 0.9249 0.0
O977 O 0.67095 0.78496 0.9401 0.0
O978 O 0.60159 0.76059 0.86584 0.0
O979 O 0.59075 0.84275 0.88349 0.0
C980 C 0.76883 0.89183 0.89198 0.0
C981 C 0.61075 0.59579 0.82555 0.0
C982 C 0.61981 0.58304 0.85745 0.0
C983 C 0.83292 0.81366 0.85527 0.0
C984 C 0.86642 0.7933 0.84743 0.0
C985 C 0.8484 0.74714 0.83035 0.0
C986 C 0.91747 0.82057 0.85819 0.0
C987 C 0.95105 0.80268 0.85081 0.0
C988 C 0.88155 0.72914 0.82294 0.0
C989 C 0.93256 0.75679 0.83287 0.0
C990 C 0.68345 0.833 0.81931 0.0
C991 C 0.62006 0.73219 0.87438 0.0
C992 C 0.56169 0.81883 0.90864 0.0
C993 C 0.53939 0.84589 0.92669 0.0
C994 C 0.54619 0.85401 0.96117 0.0
C995 C 0.50923 0.86209 0.90942 0.0
C996 C 0.48401 0.8842 0.92664 0.0
C997 C 0.52278 0.87659 0.97829 0.0
C998 C 0.49136 0.89056 0.96153 0.0
C999 C 0.71533 0.7874 0.9473 0.0
H1000 H 0.80886 0.72521 0.82287 0.0
H1001 H 0.93123 0.85617 0.8717 0.0
H1002 H 0.86771 0.69366 0.80943 0.0
H1003 H 0.95751 0.74205 0.82672 0.0
H1004 H 0.56851 0.8418 0.97522 0.0
H1005 H 0.50541 0.85665 0.8827 0.0
H1006 H 0.52778 0.88192 0.00503 0.0
H1007 H 0.47185 0.90487 0.97668 0.0
C1008 C 0.20688 0.21811 0.10114 0.0
C1009 C 0.20843 0.23405 0.13437 0.0
H1010 H 0.23388 0.18331 0.06587 0.0
C1011 C 0.23622 0.22382 0.15805 0.0
H1012 H 0.18541 0.22521 0.0824 0.0
C1013 C 0.26353 0.20009 0.1486 0.0
C1014 C 0.2646 0.18686 0.11519 0.0
H1015 H 0.23725 0.23469 0.18392 0.0
H1016 H 0.28467 0.19302 0.16744 0.0
C1017 C 0.2347 0.19448 0.09165 0.0
C1018 C 1.02264 0.81946 0.33915 0.0
C1019 C 0.05883 0.85477 0.36171 0.0
H1020 H 0.94487 0.76316 0.33054 0.0
C1021 C 0.04103 0.86519 0.39156 0.0
H1022 H 0.03382 0.81195 0.31516 0.0
C1023 C 0.98925 0.83854 0.39944 0.0
C1024 C 0.95452 0.7998 0.37835 0.0
H1025 H 0.06692 0.89162 0.40995 0.0
H1026 H 0.97667 0.84629 0.42289 0.0
C1027 C 0.97128 0.79165 0.34769 0.0
C1028 C 0.86424 0.09381 0.15124 0.0
C1029 C 0.89173 0.10894 0.12135 0.0
H1030 H 0.82746 0.0363 0.18809 0.0
C1031 C 0.90333 0.07463 0.10534 0.0
H1032 H 0.85469 0.11884 0.16438 0.0
C1033 C 0.8886 0.0267 0.11957 0.0
C1034 C 0.86238 1.0126 0.15021 0.0
H1035 H 0.92486 0.08542 0.08232 0.0
H1036 H 0.89988 1.00194 0.10746 0.0
C1037 C 0.84886 0.04618 0.16503 0.0
C1038 C 0.23039 0.17418 0.41523 0.0
C1039 C 0.25351 0.16338 0.38853 0.0
H1040 H 0.18762 0.20988 0.43057 0.0
C1041 C 0.24493 0.17402 0.35593 0.0
H1042 H 0.23552 0.16509 0.44057 0.0
C1043 C 0.21679 0.19821 0.35012 0.0
C1044 C 0.19679 0.21287 0.37682 0.0
H1045 H 0.26139 0.16503 0.33491 0.0
H1046 H 0.21206 0.20696 0.32462 0.0
C1047 C 0.20259 0.19925 0.40947 0.0
C1048 C 0.0437 0.88086 0.11173 0.0
C1049 C 0.06015 0.86741 0.14099 0.0
H1050 H 0.98092 0.8632 0.07875 0.0
C1051 C 1.02378 0.82822 0.16105 0.0
H1052 H 0.07066 0.91091 0.09561 0.0
C1053 C 0.97313 0.80051 0.15092 0.0
C1054 C 0.95725 0.81151 0.12069 0.0
H1055 H 0.03464 0.81792 0.18425 0.0
H1056 H 0.94684 0.76958 0.16648 0.0
C1057 C 0.99249 0.85336 0.10186 0.0
C1058 C 0.8493 0.0378 0.34113 0.0
C1059 C 0.835 1.00041 0.36594 0.0
H1060 H 0.88354 0.11721 0.33011 0.0
C1061 C 0.84773 1.01587 0.39944 0.0
H1062 H 0.84111 0.02722 0.31508 0.0
C1063 C 0.87266 0.06781 0.40791 0.0
C1064 C 0.88465 0.10466 0.38304 0.0
H1065 H 0.83729 0.98787 0.41911 0.0
H1066 H 0.88154 0.07911 0.43381 0.0
C1067 C 0.87388 0.0893 0.34962 0.0
C1068 C 0.19786 0.17388 0.62101 0.0
C1069 C 0.22948 0.18263 0.64899 0.0
H1070 H 0.15063 0.19639 0.59437 0.0
C1071 C 0.23573 0.21983 0.67235 0.0
H1072 H 0.19209 0.1453 0.60257 0.0
C1073 C 0.21297 0.2493 0.66718 0.0
C1074 C 0.1838 0.24247 0.63854 0.0
H1075 H 0.25846 0.22639 0.69463 0.0
H1076 H 0.21894 0.2781 0.6854 0.0
C1077 C 0.17501 0.20362 0.61589 0.0
C1078 C 0.09427 0.86507 0.84574 0.0
C1079 C 0.10952 0.88002 0.87878 0.0
H1080 H 0.0326 0.82921 0.81102 0.0
C1081 C 0.07271 0.87339 0.90252 0.0
H1082 H 0.12203 0.87043 0.82713 0.0
C1083 C 1.02098 0.84946 0.89347 0.0
C1084 C 1.00567 0.83218 0.86051 0.0
H1085 H 0.08378 0.88548 0.92811 0.0
H1086 H 0.99293 0.84309 0.91236 0.0
C1087 C 0.04306 0.84127 0.83667 0.0
C1088 C 0.83605 0.95723 0.59235 0.0
C1089 C 0.80019 0.92394 0.6155 0.0
H1090 H 0.88923 0.03483 0.57995 0.0
C1091 C 0.79706 0.94269 0.64674 0.0
H1092 H 0.83992 0.94315 0.56831 0.0
C1093 C 0.82664 0.99441 0.65416 0.0
C1094 C 0.85902 0.02904 0.62997 0.0
H1095 H 0.77069 0.91742 0.66515 0.0
H1096 H 0.82263 1.00738 0.67854 0.0
C1097 C 0.86474 1.00959 0.59929 0.0
C1098 C 0.16833 0.20579 0.90417 0.0
C1099 C 0.17067 0.24276 0.88202 0.0
H1100 H 0.19398 0.15332 0.91533 0.0
C1101 C 0.19246 0.24727 0.85053 0.0
H1102 H 0.15033 0.20058 0.92829 0.0
C1103 C 0.21509 0.21853 0.84224 0.0
C1104 C 0.21866 0.18591 0.86576 0.0
H1105 H 0.19322 0.27391 0.83242 0.0
H1106 H 0.23139 0.22357 0.8176 0.0
C1107 C 0.1928 0.17814 0.89639 0.0
C1108 C 0.07826 0.8447 0.64083 0.0
C1109 C 0.09565 0.85504 0.60783 0.0
H1110 H 1.01436 0.81265 0.67363 0.0
C1111 C 0.06029 0.84481 0.58206 0.0
H1112 H 0.10482 0.8541 0.66129 0.0
C1113 C 1.00788 0.82063 0.58908 0.0
C1114 C 0.99018 0.80696 0.62203 0.0
H1115 H 0.07306 0.85394 0.55646 0.0
H1116 H 0.98117 0.81095 0.56869 0.0
C1117 C 1.02631 0.82101 0.64785 0.0
C1118 C 0.85591 0.03564 0.89544 0.0
C1119 C 0.85414 0.04926 0.86205 0.0
H1120 H 0.82922 0.97455 0.93128 0.0
C1121 C 0.82624 1.01059 0.83872 0.0
H1122 H 0.87755 0.0647 0.91392 0.0
C1123 C 0.79896 0.95975 0.84863 0.0
C1124 C 0.7981 0.94617 0.8822 0.0
H1125 H 0.82518 1.01974 0.8127 0.0
H1126 H 0.77781 0.93119 0.82995 0.0
C1127 C 0.82817 0.98432 0.90541 0.0
C1128 C 0.34426 0.18803 0.26782 0.0
C1129 C 0.38777 0.19569 0.2852 0.0
H1130 H 0.30837 0.18049 0.22071 0.0
C1131 C 0.4325 0.20993 0.26691 0.0
H1132 H 0.30901 0.17622 0.28108 0.0
C1133 C 0.43236 0.21302 0.23168 0.0
C1134 C 0.38729 0.20119 0.21431 0.0
H1135 H 0.46617 0.21455 0.2795 0.0
H1136 H 0.466 0.22 0.218 0.0
C1137 C 0.34395 0.19056 0.23303 0.0
C1138 C 0.88717 0.72726 0.26705 0.0
C1139 C 0.85884 0.68038 0.28342 0.0
H1140 H 0.90988 0.76664 0.22074 0.0
C1141 C 0.8376 0.63512 0.26457 0.0
H1142 H 0.90329 0.76279 0.28082 0.0
C1143 C 0.84109 0.63734 0.22947 0.0
C1144 C 0.86599 0.68482 0.21317 0.0
H1145 H 0.81474 0.59858 0.27664 0.0
H1146 H 0.82036 0.60249 0.21515 0.0
C1147 C 0.89102 0.72944 0.23248 0.0
C1148 C 0.87674 0.17409 0.2312 0.0
C1149 C 0.86154 0.20414 0.21326 0.0
H1150 H 0.89531 0.15573 0.2786 0.0
C1151 C 0.8454 0.23353 0.23106 0.0
H1152 H 0.89024 0.15169 0.21832 0.0
C1153 C 0.84872 0.236 0.26613 0.0
C1154 C 0.86794 0.20894 0.28358 0.0
H1155 H 0.83479 0.25804 0.21787 0.0
H1156 H 0.83992 0.26184 0.27935 0.0
C1157 C 0.88011 0.17668 0.26587 0.0
C1158 C 0.2149 0.41022 0.73133 0.0
C1159 C 0.1926 0.36375 0.71385 0.0
H1160 H 0.23109 0.44614 0.7797 0.0
C1161 C 0.17675 0.31836 0.73141 0.0
H1162 H 0.22631 0.44556 0.71818 0.0
C1163 C 0.18079 0.31875 0.76595 0.0
C1164 C 0.19898 0.36443 0.784 0.0
H1165 H 0.15805 0.28194 0.71866 0.0
H1166 H 0.16508 0.28245 0.77868 0.0
C1167 C 0.21805 0.41058 0.76639 0.0
C1168 C 0.17568 0.86108 0.76468 0.0
C1169 C 0.21037 0.85197 0.7822 0.0
H1170 H 0.14602 0.86601 0.71739 0.0
C1171 C 0.2385 0.83436 0.76434 0.0
H1172 H 0.15442 0.87585 0.77729 0.0
C1173 C 0.23388 0.82882 0.72931 0.0
C1174 C 0.20137 0.84129 0.71172 0.0
H1175 H 0.26646 0.82824 0.77713 0.0
H1176 H 0.25889 0.81924 0.71585 0.0
C1177 C 0.17088 0.85538 0.73008 0.0
C1178 C 0.62895 0.80042 0.73199 0.0
C1179 C 0.67356 0.82736 0.713 0.0
H1180 H 0.59667 0.7821 0.78131 0.0
C1181 C 0.71884 0.86211 0.72914 0.0
H1182 H 0.59379 0.77253 0.72013 0.0
C1183 C 0.72047 0.86789 0.76369 0.0
C1184 C 0.67693 0.83847 0.78315 0.0
H1185 H 0.75403 0.88243 0.71547 0.0
H1186 H 0.75696 0.89253 0.77537 0.0
C1187 C 0.63054 0.80616 0.76691 0.0
C1188 C 0.26117 1.00113 0.98789 0.0
C1189 C 0.29644 0.9922 0.9711 0.0
H1190 H 0.24851 0.04702 0.02296 0.0
C1191 C 0.34884 0.027 0.97728 0.0
H1192 H 0.22085 0.97707 0.98295 0.0
C1193 C 0.36529 0.06772 0.00053 0.0
C1194 C 0.32983 0.07609 0.01781 0.0
H1195 H 0.37747 0.02257 0.96404 0.0
H1196 H 0.40554 0.09138 0.00573 0.0
C1197 C 0.27751 0.0425 0.01029 0.0
C1198 C 0.73548 0.67937 0.49635 0.0
C1199 C 0.77617 0.71837 0.47869 0.0
H1200 H 0.67753 0.66055 0.53338 0.0
C1201 C 0.7898 0.76951 0.48599 0.0
H1202 H 0.72316 0.63979 0.49107 0.0
C1203 C 0.76213 0.78132 0.50864 0.0
C1204 C 0.72085 0.74246 0.52569 0.0
H1205 H 0.82112 0.80087 0.47301 0.0
H1206 H 0.77393 0.82094 0.51345 0.0
C1207 C 0.70851 0.69139 0.51984 0.0
C1208 C 0.05311 0.35886 0.98724 0.0
C1209 C 0.0747 0.32915 0.97706 0.0
H1210 H 0.9958 0.36262 0.01716 0.0
C1211 C 0.05193 0.27872 0.98883 0.0
H1212 H 0.06803 0.39713 0.97776 0.0
C1213 C 1.00872 0.25802 0.00899 0.0
C1214 C 0.98707 0.28719 0.01969 0.0
H1215 H 0.06625 0.25401 0.9809 0.0
H1216 H 0.99352 0.21923 0.01781 0.0
C1217 C 1.00991 0.33817 0.00851 0.0
C1218 C 0.34212 1.01432 0.47774 0.0
C1219 C 0.32357 0.04823 0.47131 0.0
H1220 H 0.33425 0.94956 0.50561 0.0
C1221 C 0.27753 0.03716 0.48633 0.0
H1222 H 0.37652 1.02037 0.46553 0.0
C1223 C 0.25173 0.99469 0.50759 0.0
C1224 C 0.27137 0.96208 0.51556 0.0
H1225 H 0.2605 0.06038 0.48082 0.0
H1226 H 0.21689 0.98861 0.51918 0.0
C1227 C 0.31694 0.97241 0.49985 0.0
C1228 C 0.80125 0.78106 0.01144 0.0
C1229 C 0.77481 0.7304 0.02291 0.0
H1230 H 0.80108 0.83954 0.98191 0.0
C1231 C 0.72395 0.69944 0.01209 0.0
H1232 H 0.83994 0.80664 0.0197 0.0
C1233 C 0.70092 0.71899 0.99015 0.0
C1234 C 0.72806 0.77007 0.97899 0.0
H1235 H 0.7015 0.66084 0.02118 0.0
H1236 H 0.66292 0.6936 0.98087 0.0
C1237 C 0.77823 0.80059 0.9906 0.0
C1238 C 0.07278 0.34326 0.50238 0.0
C1239 C 0.06881 0.30525 0.52414 0.0
H1240 H 0.03994 0.36229 0.46144 0.0
C1241 C 1.02534 0.25588 0.52112 0.0
H1242 H 0.10494 0.38165 0.50408 0.0
C1243 C 0.98726 0.24483 0.49713 0.0
C1244 C 0.99177 0.28264 0.47505 0.0
H1245 H 1.02059 0.22523 0.53734 0.0
H1246 H 0.9554 0.20629 0.49508 0.0
C1247 C 0.03491 0.33208 0.47821 0.0
C1248 C 0.56905 0.15272 0.12073 0.0
C1249 C 0.57201 0.13703 0.08822 0.0
H1250 H 0.52473 0.16646 0.15647 0.0
C1251 C 0.52876 0.11957 0.06734 0.0
H1252 H 0.60095 0.16566 0.13773 0.0
C1253 C 0.48464 0.11941 0.07828 0.0
C1254 C 0.48246 0.13644 0.11049 0.0
H1255 H 0.52958 0.10757 0.04201 0.0
H1256 H 0.45337 0.10841 0.06101 0.0
C1257 C 0.5249 0.1522 0.13168 0.0
C1258 C 0.66796 0.53674 0.35836 0.0
C1259 C 0.69702 0.57441 0.38227 0.0
H1260 H 0.60299 0.46261 0.34875 0.0
C1261 C 0.68212 0.5647 0.41579 0.0
H1262 H 0.67993 0.54226 0.33251 0.0
C1263 C 0.63933 0.51893 0.42519 0.0
C1264 C 0.60967 0.48116 0.40139 0.0
H1265 H 0.70486 0.5914 0.43512 0.0
H1266 H 0.63023 0.51266 0.4515 0.0
C1267 C 0.62463 0.49067 0.36775 0.0
C1268 C 0.90266 0.39399 0.13321 0.0
C1269 C 0.9208 0.36871 0.11273 0.0
H1270 H 0.88912 0.45676 0.13893 0.0
C1271 C 0.9406 0.38964 0.08134 0.0
H1272 H 0.88603 0.37809 0.15726 0.0
C1273 C 0.94174 0.43434 0.07059 0.0
C1274 C 0.9228 0.45936 0.09082 0.0
H1275 H 0.95321 0.37035 0.06452 0.0
H1276 H 0.95619 0.44847 0.04586 0.0
C1277 C 0.90355 0.43859 0.12244 0.0
C1278 C 0.52051 0.16616 0.37188 0.0
C1279 C 0.478 0.12636 0.38809 0.0
H1280 H 0.60227 0.21004 0.36938 0.0
C1281 C 0.48556 0.09294 0.40833 0.0
H1282 H 0.51618 0.194 0.3574 0.0
C1283 C 0.53433 0.10111 0.41434 0.0
C1284 C 0.57735 0.14492 0.40209 0.0
H1285 H 0.45456 0.06403 0.42295 0.0
H1286 H 0.53861 0.07624 0.43184 0.0
C1287 C 0.56997 0.17572 0.37906 0.0
C1288 C 0.63861 0.53622 0.07205 0.0
C1289 C 0.61294 0.49286 0.09279 0.0
H1290 H 0.70082 0.61214 0.06623 0.0
C1291 C 0.63112 0.49641 0.1256 0.0
H1292 H 0.62767 0.53528 0.04625 0.0
C1293 C 0.67465 0.54091 0.13662 0.0
C1294 C 0.70043 0.58342 0.1155 0.0
H1295 H 0.61255 0.4646 0.14264 0.0
H1296 H 0.68962 0.54139 0.16128 0.0
C1297 C 0.68103 0.58095 0.08345 0.0
C1298 C 0.90557 0.43438 0.37364 0.0
C1299 C 0.92138 0.45336 0.40613 0.0
H1300 H 0.89246 0.37609 0.33794 0.0
C1301 C 0.93845 0.42767 0.42722 0.0
H1302 H 0.89244 0.45316 0.35664 0.0
C1303 C 0.9391 0.38401 0.41637 0.0
C1304 C 0.92314 0.36495 0.38394 0.0
H1305 H 0.94999 0.44049 0.45263 0.0
H1306 H 0.94978 0.36396 0.43399 0.0
C1307 C 0.90658 0.39084 0.36271 0.0
C1308 C 0.15193 0.53979 0.62387 0.0
C1309 C 0.14686 0.54758 0.58977 0.0
H1310 H 0.15563 0.49019 0.66087 0.0
C1311 C 0.13906 0.50871 0.56708 0.0
H1312 H 0.15815 0.56876 0.64209 0.0
C1313 C 0.13608 0.46357 0.57793 0.0
C1314 C 0.14112 0.45566 0.61185 0.0
H1315 H 0.13676 0.51365 0.5405 0.0
H1316 H 0.13238 0.43605 0.55936 0.0
C1317 C 0.14935 0.49437 0.63473 0.0
C1318 C 0.3857 0.8815 0.86508 0.0
C1319 C 0.36621 0.90819 0.88266 0.0
H1320 H 0.43471 0.85037 0.86511 0.0
C1321 C 0.3905 0.93286 0.91239 0.0
H1322 H 0.36736 0.86135 0.84227 0.0
C1323 C 0.43162 0.92903 0.92487 0.0
C1324 C 0.44759 0.89734 0.90935 0.0
H1325 H 0.3762 0.95278 0.92718 0.0
H1326 H 0.44906 0.94952 0.94762 0.0
C1327 C 0.42491 0.87524 0.87843 0.0
C1328 C 0.5674 0.64926 0.58029 0.0
C1329 C 0.56859 0.67002 0.61188 0.0
H1330 H 0.52494 0.58985 0.54495 0.0
C1331 C 0.52532 0.64447 0.63236 0.0
H1332 H 0.59836 0.669 0.56292 0.0
C1333 C 0.48209 0.59933 0.62162 0.0
C1334 C 0.48111 0.57845 0.59008 0.0
H1335 H 0.52428 0.66056 0.65631 0.0
H1336 H 0.44951 0.58079 0.63804 0.0
C1337 C 0.52457 0.60402 0.56971 0.0
C1338 C 0.13215 0.52144 0.92751 0.0
C1339 C 0.14464 0.56283 0.90577 0.0
H1340 H 0.12132 0.44682 0.93405 0.0
C1341 C 0.15326 0.55676 0.87195 0.0
H1342 H 0.12722 0.5243 0.95398 0.0
C1343 C 0.15135 0.51177 0.86081 0.0
C1344 C 0.13949 0.47119 0.88287 0.0
H1345 H 0.1625 0.58694 0.85412 0.0
H1346 H 0.1612 0.50944 0.83515 0.0
C1347 C 0.12869 0.47623 0.91611 0.0
C1348 C 0.38998 0.88763 0.63122 0.0
C1349 C 0.36248 0.90123 0.60922 0.0
H1350 H 0.45337 0.87575 0.63835 0.0
C1351 C 0.38048 0.91526 0.57653 0.0
H1352 H 0.37639 0.87561 0.65642 0.0
C1353 C 0.42399 0.91413 0.56585 0.0
C1354 C 0.45098 0.89921 0.58759 0.0
H1355 H 0.35945 0.92439 0.55868 0.0
H1356 H 0.43534 0.92325 0.54003 0.0
C1357 C 0.43359 0.88669 0.62063 0.0
C1358 C 0.53744 0.65326 0.86267 0.0
C1359 C 0.58019 0.67949 0.8837 0.0
H1360 H 0.46078 0.59135 0.85697 0.0
C1361 C 0.5778 0.6604 0.91593 0.0
H1362 H 0.53775 0.66764 0.83786 0.0
C1363 C 0.5333 0.61708 0.92712 0.0
C1364 C 0.48984 0.59156 0.90642 0.0
H1365 H 0.60927 0.68038 0.93308 0.0
H1366 H 0.53245 0.60456 0.95253 0.0
C1367 C 0.49289 0.61007 0.87385 0.0
loop_
_geom_bond_atom_site_label_1
_geom_bond_atom_site_label_2
_geom_bond_distance
_geom_bond_site_symmetry_2
_ccdc_geom_bond_type
Gd0 N31 2.661 . S
Gd0 N37 2.601 . S
Gd0 O44 2.545 . S
Gd0 O45 2.606 . S
Gd0 O47 2.429 . S
Gd0 O48 2.545 . S
Gd0 O49 2.412 . S
Gd0 O51 2.362 . S
Gd0 O52 2.324 . S
Gd0 C59 2.828 1_545 S
Gd1 N10 2.661 . S
Gd1 N14 2.601 . S
Gd1 O45 2.362 . S
Gd1 O46 2.324 . S
Gd1 O50 2.545 . S
Gd1 O51 2.606 . S
Gd1 O53 2.429 . S
Gd1 O54 2.545 . S
Gd1 O55 2.412 . S
Gd1 C68 2.828 . S
C2 C5 1.417 . S
C2 C7 1.431 . S
C2 C8 1.412 . S
C3 C6 1.437 . S
C3 C7 1.317 . S
C3 H22 0.929 . S
C4 C5 1.426 . S
C4 C6 1.413 . S
C4 N14 1.359 . S
C5 C2 1.417 . S
C5 C4 1.426 . S
C5 N10 1.350 . S
C6 C3 1.437 . S
C6 C4 1.413 . S
C6 C16 1.391 1_554 S
C7 C2 1.431 . S
C7 C3 1.317 . S
C7 H18 0.930 . S
C8 C2 1.412 . S
C8 C9 1.355 . S
C8 H20 0.930 . S
C9 C8 1.355 . S
C9 C11 1.402 . S
C9 H21 0.930 . S
N10 Gd1 2.661 . S
N10 C5 1.350 . S
N10 C11 1.307 . S
C11 C9 1.402 . S
C11 N10 1.307 . S
C11 H12 0.930 . S
H12 C11 0.930 . S
C13 N14 1.334 . S
C13 C15 1.394 1_554 S
C13 H17 0.930 . S
N14 Gd1 2.601 . S
N14 C4 1.359 . S
N14 C13 1.334 . S
C15 C13 1.394 1_556 S
C15 C16 1.359 . S
C15 H27 0.930 . S
C16 C6 1.391 1_556 S
C16 C15 1.359 . S
C16 H28 0.929 . S
H17 C13 0.930 . S
H18 C7 0.930 . S
H19 C36 0.930 . S
H20 C8 0.930 . S
H21 C9 0.930 . S
H22 C3 0.929 . S
H23 C41 0.930 . S
H24 C32 0.930 . S
H25 C33 0.930 . S
H26 C57 0.929 . S
H27 C15 0.930 . S
H28 C16 0.929 . S
H29 C58 0.930 . S
H30 C39 0.930 . S
N31 Gd0 2.661 . S
N31 C35 1.350 . S
N31 C36 1.307 . S
C32 H24 0.930 . S
C32 C33 1.355 1_565 S
C32 C34 1.412 . S
C33 H25 0.930 . S
C33 C32 1.355 1_545 S
C33 C36 1.402 . S
C34 C32 1.412 . S
C34 C35 1.417 1_565 S
C34 C58 1.431 . S
C35 N31 1.350 . S
C35 C34 1.417 1_545 S
C35 C38 1.426 . S
C36 H19 0.930 . S
C36 N31 1.307 . S
C36 C33 1.402 . S
N37 Gd0 2.601 . S
N37 C38 1.359 . S
N37 C41 1.334 . S
C38 C35 1.426 . S
C38 N37 1.359 . S
C38 C42 1.413 1_545 S
C39 H30 0.930 . S
C39 C40 1.359 . S
C39 C41 1.394 . S
C40 C39 1.359 . S
C40 C42 1.391 1_545 S
C40 H43 0.929 1_545 S
C41 H23 0.930 . S
C41 N37 1.334 . S
C41 C39 1.394 . S
C42 C38 1.413 1_565 S
C42 C40 1.391 1_565 S
C42 C57 1.437 . S
H43 C40 0.929 1_565 S
O44 Gd0 2.545 . S
O44 C59 1.258 1_545 S
O45 Gd0 2.606 . S
O45 Gd1 2.362 . S
O45 C56 1.284 . S
O46 Gd1 2.324 . S
O46 C66 1.254 . S
O47 Gd0 2.429 . S
O47 C66 1.268 . S
O48 Gd0 2.545 . S
O48 C56 1.250 . S
O49 Gd0 2.412 . S
O49 C59 1.252 1_545 S
O50 Gd1 2.545 . S
O50 C68 1.258 . S
O51 Gd0 2.362 . S
O51 Gd1 2.606 . S
O51 C67 1.284 . S
O52 Gd0 2.324 . S
O52 C75 1.254 . S
O53 Gd1 2.429 . S
O53 C75 1.268 . S
O54 Gd1 2.545 . S
O54 C67 1.250 . S
O55 Gd1 2.412 . S
O55 C68 1.252 . S
C56 O45 1.284 . S
C56 O48 1.250 . S
C57 H26 0.929 . S
C57 C42 1.437 . S
C57 C58 1.317 . S
C58 H29 0.930 . S
C58 C34 1.431 . S
C58 C57 1.317 . S
C59 Gd0 2.828 1_565 S
C59 O44 1.258 1_565 S
C59 O49 1.252 1_565 S
C59 C60 1.497 . S
C60 C59 1.497 . S
C60 C61 1.395 . S
C60 C62 1.380 . S
C61 C60 1.395 . S
C61 C64 1.398 . S
C61 H76 0.930 . S
C62 C60 1.380 . S
C62 C63 1.391 . S
C62 H77 0.930 . S
C63 C62 1.391 . S
C63 C65 1.387 . S
C64 C61 1.398 . S
C64 C65 1.380 . S
C64 H78 0.930 . S
C65 C63 1.387 . S
C65 C64 1.380 . S
C65 H79 0.930 . S
C66 O46 1.254 . S
C66 O47 1.268 . S
C67 O51 1.284 . S
C67 O54 1.250 . S
C68 Gd1 2.828 . S
C68 O50 1.258 . S
C68 O55 1.252 . S
C68 C69 1.497 . S
C69 C68 1.497 . S
C69 C70 1.395 . S
C69 C71 1.380 . S
C70 C69 1.395 . S
C70 C73 1.398 . S
C70 H80 0.930 . S
C71 C69 1.380 . S
C71 C72 1.391 . S
C71 H81 0.930 . S
C72 C71 1.391 . S
C72 C74 1.387 . S
C73 C70 1.398 . S
C73 C74 1.380 . S
C73 H82 0.930 . S
C74 C72 1.387 . S
C74 C73 1.380 . S
C74 H83 0.930 . S
C75 O52 1.254 . S
C75 O53 1.268 . S
H76 C61 0.930 . S
H77 C62 0.930 . S
H78 C64 0.930 . S
H79 C65 0.930 . S
H80 C70 0.930 . S
H81 C71 0.930 . S
H82 C73 0.930 . S
H83 C74 0.930 . S
Gd84 N115 2.661 . S
Gd84 N121 2.601 . S
Gd84 O128 2.545 . S
Gd84 O129 2.606 . S
Gd84 O131 2.429 . S
Gd84 O132 2.545 . S
Gd84 O133 2.412 . S
Gd84 O135 2.362 . S
Gd84 O136 2.324 . S
Gd84 C143 2.828 . S
Gd85 N94 2.661 . S
Gd85 N98 2.601 . S
Gd85 O129 2.362 . S
Gd85 O130 2.324 . S
Gd85 O134 2.545 . S
Gd85 O135 2.606 . S
Gd85 O137 2.429 . S
Gd85 O138 2.545 . S
Gd85 O139 2.412 . S
Gd85 C152 2.828 . S
C86 C89 1.417 . S
C86 C91 1.431 . S
C86 C92 1.412 . S
C87 C90 1.437 . S
C87 C91 1.317 . S
C87 H106 0.929 . S
C88 C89 1.426 . S
C88 C90 1.413 . S
C88 N98 1.359 . S
C89 C86 1.417 . S
C89 C88 1.426 . S
C89 N94 1.350 . S
C90 C87 1.437 . S
C90 C88 1.413 . S
C90 C100 1.391 . S
C91 C86 1.431 . S
C91 C87 1.317 . S
C91 H102 0.930 . S
C92 C86 1.412 . S
C92 C93 1.355 . S
C92 H104 0.930 . S
C93 C92 1.355 . S
C93 C95 1.402 . S
C93 H105 0.930 . S
N94 Gd85 2.661 . S
N94 C89 1.350 . S
N94 C95 1.307 . S
C95 C93 1.402 . S
C95 N94 1.307 . S
C95 H96 0.930 . S
H96 C95 0.930 . S
C97 N98 1.334 . S
C97 C99 1.394 . S
C97 H101 0.930 . S
N98 Gd85 2.601 . S
N98 C88 1.359 . S
N98 C97 1.334 . S
C99 C97 1.394 . S
C99 C100 1.359 . S
C99 H111 0.930 . S
C100 C90 1.391 . S
C100 C99 1.359 . S
C100 H112 0.929 . S
H101 C97 0.930 . S
H102 C91 0.930 . S
H103 C120 0.930 . S
H104 C92 0.930 . S
H105 C93 0.930 . S
H106 C87 0.929 . S
H107 C125 0.930 . S
H108 C116 0.930 . S
H109 C117 0.930 . S
H110 C141 0.929 . S
H111 C99 0.930 . S
H112 C100 0.929 . S
H113 C142 0.930 . S
H114 C123 0.930 . S
N115 Gd84 2.661 . S
N115 C119 1.350 . S
N115 C120 1.307 . S
C116 H108 0.930 . S
C116 C117 1.355 . S
C116 C118 1.412 . S
C117 H109 0.930 . S
C117 C116 1.355 . S
C117 C120 1.402 1_455 S
C118 C116 1.412 . S
C118 C119 1.417 1_455 S
C118 C142 1.431 . S
C119 N115 1.350 . S
C119 C118 1.417 1_655 S
C119 C122 1.426 . S
C120 H103 0.930 . S
C120 N115 1.307 . S
C120 C117 1.402 1_655 S
N121 Gd84 2.601 . S
N121 C122 1.359 . S
N121 C125 1.334 . S
C122 C119 1.426 . S
C122 N121 1.359 . S
C122 C126 1.413 . S
C123 H114 0.930 . S
C123 C124 1.359 . S
C123 C125 1.394 . S
C124 C123 1.359 . S
C124 C126 1.391 . S
C124 H127 0.929 . S
C125 H107 0.930 . S
C125 N121 1.334 . S
C125 C123 1.394 . S
C126 C122 1.413 . S
C126 C124 1.391 . S
C126 C141 1.437 1_655 S
H127 C124 0.929 . S
O128 Gd84 2.545 . S
O128 C143 1.258 . S
O129 Gd84 2.606 . S
O129 Gd85 2.362 . S
O129 C140 1.284 . S
O130 Gd85 2.324 . S
O130 C150 1.254 . S
O131 Gd84 2.429 . S
O131 C150 1.268 . S
O132 Gd84 2.545 . S
O132 C140 1.250 . S
O133 Gd84 2.412 . S
O133 C143 1.252 . S
O134 Gd85 2.545 . S
O134 C152 1.258 . S
O135 Gd84 2.362 . S
O135 Gd85 2.606 . S
O135 C151 1.284 . S
O136 Gd84 2.324 . S
O136 C159 1.254 . S
O137 Gd85 2.429 . S
O137 C159 1.268 . S
O138 Gd85 2.545 . S
O138 C151 1.250 . S
O139 Gd85 2.412 . S
O139 C152 1.252 . S
C140 O129 1.284 . S
C140 O132 1.250 . S
C141 H110 0.929 . S
C141 C126 1.437 1_455 S
C141 C142 1.317 . S
C142 H113 0.930 . S
C142 C118 1.431 . S
C142 C141 1.317 . S
C143 Gd84 2.828 . S
C143 O128 1.258 . S
C143 O133 1.252 . S
C143 C144 1.497 . S
C144 C143 1.497 . S
C144 C145 1.395 . S
C144 C146 1.380 . S
C145 C144 1.395 . S
C145 C148 1.398 . S
C145 H160 0.930 . S
C146 C144 1.380 . S
C146 C147 1.391 . S
C146 H161 0.930 . S
C147 C146 1.391 . S
C147 C149 1.387 . S
C148 C145 1.398 . S
C148 C149 1.380 . S
C148 H162 0.930 . S
C149 C147 1.387 . S
C149 C148 1.380 . S
C149 H163 0.930 . S
C150 O130 1.254 . S
C150 O131 1.268 . S
C151 O135 1.284 . S
C151 O138 1.250 . S
C152 Gd85 2.828 . S
C152 O134 1.258 . S
C152 O139 1.252 . S
C152 C153 1.497 . S
C153 C152 1.497 . S
C153 C154 1.395 . S
C153 C155 1.380 . S
C154 C153 1.395 . S
C154 C157 1.398 . S
C154 H164 0.930 . S
C155 C153 1.380 . S
C155 C156 1.391 . S
C155 H165 0.930 . S
C156 C155 1.391 . S
C156 C158 1.387 . S
C157 C154 1.398 . S
C157 C158 1.380 . S
C157 H166 0.930 . S
C158 C156 1.387 . S
C158 C157 1.380 . S
C158 H167 0.930 . S
C159 O136 1.254 . S
C159 O137 1.268 . S
H160 C145 0.930 . S
H161 C146 0.930 . S
H162 C148 0.930 . S
H163 C149 0.930 . S
H164 C154 0.930 . S
H165 C155 0.930 . S
H166 C157 0.930 . S
H167 C158 0.930 . S
Gd168 N199 2.661 . S
Gd168 N205 2.601 . S
Gd168 O212 2.545 . S
Gd168 O213 2.606 . S
Gd168 O215 2.429 . S
Gd168 O216 2.545 . S
Gd168 O217 2.412 . S
Gd168 O219 2.362 . S
Gd168 O220 2.324 . S
Gd168 C227 2.828 1_655 S
Gd169 N178 2.661 . S
Gd169 N182 2.601 . S
Gd169 O213 2.362 . S
Gd169 O214 2.324 . S
Gd169 O218 2.545 . S
Gd169 O219 2.606 . S
Gd169 O221 2.429 . S
Gd169 O222 2.545 . S
Gd169 O223 2.412 . S
Gd169 C236 2.828 . S
C170 C173 1.417 1_565 S
C170 C175 1.431 . S
C170 C176 1.412 . S
C171 C174 1.437 1_565 S
C171 C175 1.317 . S
C171 H190 0.929 . S
C172 C173 1.426 . S
C172 C174 1.413 . S
C172 N182 1.359 . S
C173 C170 1.417 1_545 S
C173 C172 1.426 . S
C173 N178 1.350 . S
C174 C171 1.437 1_545 S
C174 C172 1.413 . S
C174 C184 1.391 1_554 S
C175 C170 1.431 . S
C175 C171 1.317 . S
C175 H186 0.930 . S
C176 C170 1.412 . S
C176 C177 1.355 . S
C176 H188 0.930 . S
C177 C176 1.355 . S
C177 C179 1.402 1_565 S
C177 H189 0.930 . S
N178 Gd169 2.661 . S
N178 C173 1.350 . S
N178 C179 1.307 . S
C179 C177 1.402 1_545 S
C179 N178 1.307 . S
C179 H180 0.930 . S
H180 C179 0.930 . S
C181 N182 1.334 . S
C181 C183 1.394 1_554 S
C181 H185 0.930 . S
N182 Gd169 2.601 . S
N182 C172 1.359 . S
N182 C181 1.334 . S
C183 C181 1.394 1_556 S
C183 C184 1.359 . S
C183 H195 0.930 . S
C184 C174 1.391 1_556 S
C184 C183 1.359 . S
C184 H196 0.929 . S
H185 C181 0.930 . S
H186 C175 0.930 . S
H187 C204 0.930 . S
H188 C176 0.930 . S
H189 C177 0.930 . S
H190 C171 0.929 . S
H191 C209 0.930 . S
H192 C200 0.930 . S
H193 C201 0.930 . S
H194 C225 0.929 . S
H195 C183 0.930 . S
H196 C184 0.929 . S
H197 C226 0.930 . S
H198 C207 0.930 . S
N199 Gd168 2.661 . S
N199 C203 1.350 . S
N199 C204 1.307 . S
C200 H192 0.930 . S
C200 C201 1.355 1_455 S
C200 C202 1.412 . S
C201 H193 0.930 . S
C201 C200 1.355 1_655 S
C201 C204 1.402 . S
C202 C200 1.412 . S
C202 C203 1.417 1_455 S
C202 C226 1.431 . S
C203 N199 1.350 . S
C203 C202 1.417 1_655 S
C203 C206 1.426 . S
C204 H187 0.930 . S
C204 N199 1.307 . S
C204 C201 1.402 . S
N205 Gd168 2.601 . S
N205 C206 1.359 . S
N205 C209 1.334 . S
C206 C203 1.426 . S
C206 N205 1.359 . S
C206 C210 1.413 1_655 S
C207 H198 0.930 . S
C207 C208 1.359 . S
C207 C209 1.394 . S
C208 C207 1.359 . S
C208 C210 1.391 1_655 S
C208 H211 0.929 1_655 S
C209 H191 0.930 . S
C209 N205 1.334 . S
C209 C207 1.394 . S
C210 C206 1.413 1_455 S
C210 C208 1.391 1_455 S
C210 C225 1.437 . S
H211 C208 0.929 1_455 S
O212 Gd168 2.545 . S
O212 C227 1.258 1_655 S
O213 Gd168 2.606 . S
O213 Gd169 2.362 . S
O213 C224 1.284 . S
O214 Gd169 2.324 . S
O214 C234 1.254 . S
O215 Gd168 2.429 . S
O215 C234 1.268 . S
O216 Gd168 2.545 . S
O216 C224 1.250 . S
O217 Gd168 2.412 . S
O217 C227 1.252 1_655 S
O218 Gd169 2.545 . S
O218 C236 1.258 . S
O219 Gd168 2.362 . S
O219 Gd169 2.606 . S
O219 C235 1.284 . S
O220 Gd168 2.324 . S
O220 C243 1.254 . S
O221 Gd169 2.429 . S
O221 C243 1.268 . S
O222 Gd169 2.545 . S
O222 C235 1.250 . S
O223 Gd169 2.412 . S
O223 C236 1.252 . S
C224 O213 1.284 . S
C224 O216 1.250 . S
C225 H194 0.929 . S
C225 C210 1.437 . S
C225 C226 1.317 . S
C226 H197 0.930 . S
C226 C202 1.431 . S
C226 C225 1.317 . S
C227 Gd168 2.828 1_455 S
C227 O212 1.258 1_455 S
C227 O217 1.252 1_455 S
C227 C228 1.497 . S
C228 C227 1.497 . S
C228 C229 1.395 . S
C228 C230 1.380 . S
C229 C228 1.395 . S
C229 C232 1.398 . S
C229 H244 0.930 . S
C230 C228 1.380 . S
C230 C231 1.391 . S
C230 H245 0.930 . S
C231 C230 1.391 . S
C231 C233 1.387 . S
C232 C229 1.398 . S
C232 C233 1.380 . S
C232 H246 0.930 . S
C233 C231 1.387 . S
C233 C232 1.380 . S
C233 H247 0.930 . S
C234 O214 1.254 . S
C234 O215 1.268 . S
C235 O219 1.284 . S
C235 O222 1.250 . S
C236 Gd169 2.828 . S
C236 O218 1.258 . S
C236 O223 1.252 . S
C236 C237 1.497 . S
C237 C236 1.497 . S
C237 C238 1.395 . S
C237 C239 1.380 . S
C238 C237 1.395 . S
C238 C241 1.398 . S
C238 H248 0.930 . S
C239 C237 1.380 . S
C239 C240 1.391 . S
C239 H249 0.930 . S
C240 C239 1.391 . S
C240 C242 1.387 . S
C241 C238 1.398 . S
C241 C242 1.380 . S
C241 H250 0.930 . S
C242 C240 1.387 . S
C242 C241 1.380 . S
C242 H251 0.930 . S
C243 O220 1.254 . S
C243 O221 1.268 . S
H244 C229 0.930 . S
H245 C230 0.930 . S
H246 C232 0.930 . S
H247 C233 0.930 . S
H248 C238 0.930 . S
H249 C239 0.930 . S
H250 C241 0.930 . S
H251 C242 0.930 . S
Gd252 N283 2.661 . S
Gd252 N289 2.601 . S
Gd252 O296 2.545 . S
Gd252 O297 2.606 . S
Gd252 O299 2.429 . S
Gd252 O300 2.545 . S
Gd252 O301 2.412 . S
Gd252 O303 2.362 . S
Gd252 O304 2.324 . S
Gd252 C311 2.828 . S
Gd253 N262 2.661 . S
Gd253 N266 2.601 . S
Gd253 O297 2.362 . S
Gd253 O298 2.324 . S
Gd253 O302 2.545 . S
Gd253 O303 2.606 . S
Gd253 O305 2.429 . S
Gd253 O306 2.545 . S
Gd253 O307 2.412 . S
Gd253 C320 2.828 1_545 S
C254 C257 1.417 1_565 S
C254 C259 1.431 . S
C254 C260 1.412 . S
C255 C258 1.437 . S
C255 C259 1.317 . S
C255 H274 0.929 . S
C256 C257 1.426 . S
C256 C258 1.413 1_545 S
C256 N266 1.359 . S
C257 C254 1.417 1_545 S
C257 C256 1.426 . S
C257 N262 1.350 . S
C258 C255 1.437 . S
C258 C256 1.413 1_565 S
C258 C268 1.391 1_565 S
C259 C254 1.431 . S
C259 C255 1.317 . S
C259 H270 0.930 . S
C260 C254 1.412 . S
C260 C261 1.355 1_565 S
C260 H272 0.930 . S
C261 C260 1.355 1_545 S
C261 C263 1.402 . S
C261 H273 0.930 . S
N262 Gd253 2.661 . S
N262 C257 1.350 . S
N262 C263 1.307 . S
C263 C261 1.402 . S
C263 N262 1.307 . S
C263 H264 0.930 . S
H264 C263 0.930 . S
C265 N266 1.334 . S
C265 C267 1.394 . S
C265 H269 0.930 . S
N266 Gd253 2.601 . S
N266 C256 1.359 . S
N266 C265 1.334 . S
C267 C265 1.394 . S
C267 C268 1.359 . S
C267 H279 0.930 . S
C268 C258 1.391 1_545 S
C268 C267 1.359 . S
C268 H280 0.929 1_545 S
H269 C265 0.930 . S
H270 C259 0.930 . S
H271 C288 0.930 . S
H272 C260 0.930 . S
H273 C261 0.930 . S
H274 C255 0.929 . S
H275 C293 0.930 . S
H276 C284 0.930 . S
H277 C285 0.930 . S
H278 C309 0.929 . S
H279 C267 0.930 . S
H280 C268 0.929 1_565 S
H281 C310 0.930 . S
H282 C291 0.930 . S
N283 Gd252 2.661 . S
N283 C287 1.350 . S
N283 C288 1.307 . S
C284 H276 0.930 . S
C284 C285 1.355 . S
C284 C286 1.412 . S
C285 H277 0.930 . S
C285 C284 1.355 . S
C285 C288 1.402 . S
C286 C284 1.412 . S
C286 C287 1.417 . S
C286 C310 1.431 . S
C287 N283 1.350 . S
C287 C286 1.417 . S
C287 C290 1.426 . S
C288 H271 0.930 . S
C288 N283 1.307 . S
C288 C285 1.402 . S
N289 Gd252 2.601 . S
N289 C290 1.359 . S
N289 C293 1.334 . S
C290 C287 1.426 . S
C290 N289 1.359 . S
C290 C294 1.413 . S
C291 H282 0.930 . S
C291 C292 1.359 . S
C291 C293 1.394 . S
C292 C291 1.359 . S
C292 C294 1.391 . S
C292 H295 0.929 . S
C293 H275 0.930 . S
C293 N289 1.334 . S
C293 C291 1.394 . S
C294 C290 1.413 . S
C294 C292 1.391 . S
C294 C309 1.437 . S
H295 C292 0.929 . S
O296 Gd252 2.545 . S
O296 C311 1.258 . S
O297 Gd252 2.606 . S
O297 Gd253 2.362 . S
O297 C308 1.284 . S
O298 Gd253 2.324 . S
O298 C318 1.254 . S
O299 Gd252 2.429 . S
O299 C318 1.268 . S
O300 Gd252 2.545 . S
O300 C308 1.250 . S
O301 Gd252 2.412 . S
O301 C311 1.252 . S
O302 Gd253 2.545 . S
O302 C320 1.258 1_545 S
O303 Gd252 2.362 . S
O303 Gd253 2.606 . S
O303 C319 1.284 . S
O304 Gd252 2.324 . S
O304 C327 1.254 . S
O305 Gd253 2.429 . S
O305 C327 1.268 . S
O306 Gd253 2.545 . S
O306 C319 1.250 . S
O307 Gd253 2.412 . S
O307 C320 1.252 1_545 S
C308 O297 1.284 . S
C308 O300 1.250 . S
C309 H278 0.929 . S
C309 C294 1.437 . S
C309 C310 1.317 . S
C310 H281 0.930 . S
C310 C286 1.431 . S
C310 C309 1.317 . S
C311 Gd252 2.828 . S
C311 O296 1.258 . S
C311 O301 1.252 . S
C311 C312 1.497 . S
C312 C311 1.497 . S
C312 C313 1.395 . S
C312 C314 1.380 . S
C313 C312 1.395 . S
C313 C316 1.398 . S
C313 H328 0.930 . S
C314 C312 1.380 . S
C314 C315 1.391 . S
C314 H329 0.930 . S
C315 C314 1.391 . S
C315 C317 1.387 . S
C316 C313 1.398 . S
C316 C317 1.380 . S
C316 H330 0.930 . S
C317 C315 1.387 . S
C317 C316 1.380 . S
C317 H331 0.930 . S
C318 O298 1.254 . S
C318 O299 1.268 . S
C319 O303 1.284 . S
C319 O306 1.250 . S
C320 Gd253 2.828 1_565 S
C320 O302 1.258 1_565 S
C320 O307 1.252 1_565 S
C320 C321 1.497 . S
C321 C320 1.497 . S
C321 C322 1.395 . S
C321 C323 1.380 . S
C322 C321 1.395 . S
C322 C325 1.398 . S
C322 H332 0.930 . S
C323 C321 1.380 . S
C323 C324 1.391 . S
C323 H333 0.930 . S
C324 C323 1.391 . S
C324 C326 1.387 . S
C325 C322 1.398 . S
C325 C326 1.380 . S
C325 H334 0.930 . S
C326 C324 1.387 . S
C326 C325 1.380 . S
C326 H335 0.930 . S
C327 O304 1.254 . S
C327 O305 1.268 . S
H328 C313 0.930 . S
H329 C314 0.930 . S
H330 C316 0.930 . S
H331 C317 0.930 . S
H332 C322 0.930 . S
H333 C323 0.930 . S
H334 C325 0.930 . S
H335 C326 0.930 . S
Gd336 N367 2.661 . S
Gd336 N373 2.601 . S
Gd336 O380 2.545 . S
Gd336 O381 2.606 . S
Gd336 O383 2.429 . S
Gd336 O384 2.545 . S
Gd336 O385 2.412 . S
Gd336 O387 2.362 . S
Gd336 O388 2.324 . S
Gd336 C395 2.828 . S
Gd337 N346 2.661 . S
Gd337 N350 2.601 . S
Gd337 O381 2.362 . S
Gd337 O382 2.324 . S
Gd337 O386 2.545 . S
Gd337 O387 2.606 . S
Gd337 O389 2.429 . S
Gd337 O390 2.545 . S
Gd337 O391 2.412 . S
Gd337 C404 2.828 . S
C338 C341 1.417 1_455 S
C338 C343 1.431 . S
C338 C344 1.412 . S
C339 C342 1.437 1_455 S
C339 C343 1.317 . S
C339 H358 0.929 . S
C340 C341 1.426 . S
C340 C342 1.413 . S
C340 N350 1.359 . S
C341 C338 1.417 1_655 S
C341 C340 1.426 . S
C341 N346 1.350 . S
C342 C339 1.437 1_655 S
C342 C340 1.413 . S
C342 C352 1.391 1_554 S
C343 C338 1.431 . S
C343 C339 1.317 . S
C343 H354 0.930 . S
C344 C338 1.412 . S
C344 C345 1.355 . S
C344 H356 0.930 . S
C345 C344 1.355 . S
C345 C347 1.402 1_455 S
C345 H357 0.930 . S
N346 Gd337 2.661 . S
N346 C341 1.350 . S
N346 C347 1.307 . S
C347 C345 1.402 1_655 S
C347 N346 1.307 . S
C347 H348 0.930 . S
H348 C347 0.930 . S
C349 N350 1.334 . S
C349 C351 1.394 1_554 S
C349 H353 0.930 . S
N350 Gd337 2.601 . S
N350 C340 1.359 . S
N350 C349 1.334 . S
C351 C349 1.394 1_556 S
C351 C352 1.359 . S
C351 H363 0.930 . S
C352 C342 1.391 1_556 S
C352 C351 1.359 . S
C352 H364 0.929 . S
H353 C349 0.930 . S
H354 C343 0.930 . S
H355 C372 0.930 . S
H356 C344 0.930 . S
H357 C345 0.930 . S
H358 C339 0.929 . S
H359 C377 0.930 . S
H360 C368 0.930 . S
H361 C369 0.930 . S
H362 C393 0.929 . S
H363 C351 0.930 . S
H364 C352 0.929 . S
H365 C394 0.930 . S
H366 C375 0.930 . S
N367 Gd336 2.661 . S
N367 C371 1.350 . S
N367 C372 1.307 . S
C368 H360 0.930 . S
C368 C369 1.355 . S
C368 C370 1.412 . S
C369 H361 0.930 . S
C369 C368 1.355 . S
C369 C372 1.402 . S
C370 C368 1.412 . S
C370 C371 1.417 . S
C370 C394 1.431 . S
C371 N367 1.350 . S
C371 C370 1.417 . S
C371 C374 1.426 . S
C372 H355 0.930 . S
C372 N367 1.307 . S
C372 C369 1.402 . S
N373 Gd336 2.601 . S
N373 C374 1.359 . S
N373 C377 1.334 . S
C374 C371 1.426 . S
C374 N373 1.359 . S
C374 C378 1.413 . S
C375 H366 0.930 . S
C375 C376 1.359 . S
C375 C377 1.394 . S
C376 C375 1.359 . S
C376 C378 1.391 . S
C376 H379 0.929 . S
C377 H359 0.930 . S
C377 N373 1.334 . S
C377 C375 1.394 . S
C378 C374 1.413 . S
C378 C376 1.391 . S
C378 C393 1.437 . S
H379 C376 0.929 . S
O380 Gd336 2.545 . S
O380 C395 1.258 . S
O381 Gd336 2.606 . S
O381 Gd337 2.362 . S
O381 C392 1.284 . S
O382 Gd337 2.324 . S
O382 C402 1.254 . S
O383 Gd336 2.429 . S
O383 C402 1.268 . S
O384 Gd336 2.545 . S
O384 C392 1.250 . S
O385 Gd336 2.412 . S
O385 C395 1.252 . S
O386 Gd337 2.545 . S
O386 C404 1.258 . S
O387 Gd336 2.362 . S
O387 Gd337 2.606 . S
O387 C403 1.284 . S
O388 Gd336 2.324 . S
O388 C411 1.254 . S
O389 Gd337 2.429 . S
O389 C411 1.268 . S
O390 Gd337 2.545 . S
O390 C403 1.250 . S
O391 Gd337 2.412 . S
O391 C404 1.252 . S
C392 O381 1.284 . S
C392 O384 1.250 . S
C393 H362 0.929 . S
C393 C378 1.437 . S
C393 C394 1.317 . S
C394 H365 0.930 . S
C394 C370 1.431 . S
C394 C393 1.317 . S
C395 Gd336 2.828 . S
C395 O380 1.258 . S
C395 O385 1.252 . S
C395 C396 1.497 . S
C396 C395 1.497 . S
C396 C397 1.395 . S
C396 C398 1.380 . S
C397 C396 1.395 . S
C397 C400 1.398 . S
C397 H412 0.930 . S
C398 C396 1.380 . S
C398 C399 1.391 . S
C398 H413 0.930 . S
C399 C398 1.391 . S
C399 C401 1.387 . S
C400 C397 1.398 . S
C400 C401 1.380 . S
C400 H414 0.930 . S
C401 C399 1.387 . S
C401 C400 1.380 . S
C401 H415 0.930 . S
C402 O382 1.254 . S
C402 O383 1.268 . S
C403 O387 1.284 . S
C403 O390 1.250 . S
C404 Gd337 2.828 . S
C404 O386 1.258 . S
C404 O391 1.252 . S
C404 C405 1.497 . S
C405 C404 1.497 . S
C405 C406 1.395 . S
C405 C407 1.380 . S
C406 C405 1.395 . S
C406 C409 1.398 . S
C406 H416 0.930 . S
C407 C405 1.380 . S
C407 C408 1.391 . S
C407 H417 0.930 . S
C408 C407 1.391 . S
C408 C410 1.387 . S
C409 C406 1.398 . S
C409 C410 1.380 . S
C409 H418 0.930 . S
C410 C408 1.387 . S
C410 C409 1.380 . S
C410 H419 0.930 . S
C411 O388 1.254 . S
C411 O389 1.268 . S
H412 C397 0.930 . S
H413 C398 0.930 . S
H414 C400 0.930 . S
H415 C401 0.930 . S
H416 C406 0.930 . S
H417 C407 0.930 . S
H418 C409 0.930 . S
H419 C410 0.930 . S
Gd420 N451 2.661 . S
Gd420 N457 2.601 . S
Gd420 O464 2.545 . S
Gd420 O465 2.606 . S
Gd420 O467 2.429 . S
Gd420 O468 2.545 . S
Gd420 O469 2.412 . S
Gd420 O471 2.362 . S
Gd420 O472 2.324 . S
Gd420 C479 2.828 . S
Gd421 N430 2.661 . S
Gd421 N434 2.601 . S
Gd421 O465 2.362 . S
Gd421 O466 2.324 . S
Gd421 O470 2.545 . S
Gd421 O471 2.606 . S
Gd421 O473 2.429 . S
Gd421 O474 2.545 . S
Gd421 O475 2.412 . S
Gd421 C488 2.828 1_655 S
C422 C425 1.417 1_455 S
C422 C427 1.431 . S
C422 C428 1.412 . S
C423 C426 1.437 . S
C423 C427 1.317 . S
C423 H442 0.929 . S
C424 C425 1.426 . S
C424 C426 1.413 1_655 S
C424 N434 1.359 . S
C425 C422 1.417 1_655 S
C425 C424 1.426 . S
C425 N430 1.350 . S
C426 C423 1.437 . S
C426 C424 1.413 1_455 S
C426 C436 1.391 1_455 S
C427 C422 1.431 . S
C427 C423 1.317 . S
C427 H438 0.930 . S
C428 C422 1.412 . S
C428 C429 1.355 1_455 S
C428 H440 0.930 . S
C429 C428 1.355 1_655 S
C429 C431 1.402 . S
C429 H441 0.930 . S
N430 Gd421 2.661 . S
N430 C425 1.350 . S
N430 C431 1.307 . S
C431 C429 1.402 . S
C431 N430 1.307 . S
C431 H432 0.930 . S
H432 C431 0.930 . S
C433 N434 1.334 . S
C433 C435 1.394 . S
C433 H437 0.930 . S
N434 Gd421 2.601 . S
N434 C424 1.359 . S
N434 C433 1.334 . S
C435 C433 1.394 . S
C435 C436 1.359 . S
C435 H447 0.930 . S
C436 C426 1.391 1_655 S
C436 C435 1.359 . S
C436 H448 0.929 1_655 S
H437 C433 0.930 . S
H438 C427 0.930 . S
H439 C456 0.930 . S
H440 C428 0.930 . S
H441 C429 0.930 . S
H442 C423 0.929 . S
H443 C461 0.930 . S
H444 C452 0.930 . S
H445 C453 0.930 . S
H446 C477 0.929 . S
H447 C435 0.930 . S
H448 C436 0.929 1_455 S
H449 C478 0.930 . S
H450 C459 0.930 . S
N451 Gd420 2.661 . S
N451 C455 1.350 . S
N451 C456 1.307 . S
C452 H444 0.930 . S
C452 C453 1.355 . S
C452 C454 1.412 . S
C453 H445 0.930 . S
C453 C452 1.355 . S
C453 C456 1.402 1_565 S
C454 C452 1.412 . S
C454 C455 1.417 1_565 S
C454 C478 1.431 . S
C455 N451 1.350 . S
C455 C454 1.417 1_545 S
C455 C458 1.426 . S
C456 H439 0.930 . S
C456 N451 1.307 . S
C456 C453 1.402 1_545 S
N457 Gd420 2.601 . S
N457 C458 1.359 . S
N457 C461 1.334 . S
C458 C455 1.426 . S
C458 N457 1.359 . S
C458 C462 1.413 . S
C459 H450 0.930 . S
C459 C460 1.359 . S
C459 C461 1.394 . S
C460 C459 1.359 . S
C460 C462 1.391 . S
C460 H463 0.929 . S
C461 H443 0.930 . S
C461 N457 1.334 . S
C461 C459 1.394 . S
C462 C458 1.413 . S
C462 C460 1.391 . S
C462 C477 1.437 1_545 S
H463 C460 0.929 . S
O464 Gd420 2.545 . S
O464 C479 1.258 . S
O465 Gd420 2.606 . S
O465 Gd421 2.362 . S
O465 C476 1.284 . S
O466 Gd421 2.324 . S
O466 C486 1.254 . S
O467 Gd420 2.429 . S
O467 C486 1.268 . S
O468 Gd420 2.545 . S
O468 C476 1.250 . S
O469 Gd420 2.412 . S
O469 C479 1.252 . S
O470 Gd421 2.545 . S
O470 C488 1.258 1_655 S
O471 Gd420 2.362 . S
O471 Gd421 2.606 . S
O471 C487 1.284 . S
O472 Gd420 2.324 . S
O472 C495 1.254 . S
O473 Gd421 2.429 . S
O473 C495 1.268 . S
O474 Gd421 2.545 . S
O474 C487 1.250 . S
O475 Gd421 2.412 . S
O475 C488 1.252 1_655 S
C476 O465 1.284 . S
C476 O468 1.250 . S
C477 H446 0.929 . S
C477 C462 1.437 1_565 S
C477 C478 1.317 . S
C478 H449 0.930 . S
C478 C454 1.431 . S
C478 C477 1.317 . S
C479 Gd420 2.828 . S
C479 O464 1.258 . S
C479 O469 1.252 . S
C479 C480 1.497 . S
C480 C479 1.497 . S
C480 C481 1.395 . S
C480 C482 1.380 . S
C481 C480 1.395 . S
C481 C484 1.398 . S
C481 H496 0.930 . S
C482 C480 1.380 . S
C482 C483 1.391 . S
C482 H497 0.930 . S
C483 C482 1.391 . S
C483 C485 1.387 . S
C484 C481 1.398 . S
C484 C485 1.380 . S
C484 H498 0.930 . S
C485 C483 1.387 . S
C485 C484 1.380 . S
C485 H499 0.930 . S
C486 O466 1.254 . S
C486 O467 1.268 . S
C487 O471 1.284 . S
C487 O474 1.250 . S
C488 Gd421 2.828 1_455 S
C488 O470 1.258 1_455 S
C488 O475 1.252 1_455 S
C488 C489 1.497 . S
C489 C488 1.497 . S
C489 C490 1.395 . S
C489 C491 1.380 . S
C490 C489 1.395 . S
C490 C493 1.398 . S
C490 H500 0.930 . S
C491 C489 1.380 . S
C491 C492 1.391 . S
C491 H501 0.930 . S
C492 C491 1.391 . S
C492 C494 1.387 . S
C493 C490 1.398 . S
C493 C494 1.380 . S
C493 H502 0.930 . S
C494 C492 1.387 . S
C494 C493 1.380 . S
C494 H503 0.930 . S
C495 O472 1.254 . S
C495 O473 1.268 . S
H496 C481 0.930 . S
H497 C482 0.930 . S
H498 C484 0.930 . S
H499 C485 0.930 . S
H500 C490 0.930 . S
H501 C491 0.930 . S
H502 C493 0.930 . S
H503 C494 0.930 . S
Gd504 N535 2.661 . S
Gd504 N541 2.601 . S
Gd504 O548 2.545 . S
Gd504 O549 2.606 . S
Gd504 O551 2.429 . S
Gd504 O552 2.545 . S
Gd504 O553 2.412 . S
Gd504 O555 2.362 . S
Gd504 O556 2.324 . S
Gd504 C563 2.828 . S
Gd505 N514 2.661 . S
Gd505 N518 2.601 . S
Gd505 O549 2.362 . S
Gd505 O550 2.324 . S
Gd505 O554 2.545 . S
Gd505 O555 2.606 . S
Gd505 O557 2.429 . S
Gd505 O558 2.545 . S
Gd505 O559 2.412 . S
Gd505 C572 2.828 1_455 S
C506 C509 1.417 1_655 S
C506 C511 1.431 . S
C506 C512 1.412 . S
C507 C510 1.437 . S
C507 C511 1.317 . S
C507 H526 0.929 . S
C508 C509 1.426 . S
C508 C510 1.413 1_455 S
C508 N518 1.359 . S
C509 C506 1.417 1_455 S
C509 C508 1.426 . S
C509 N514 1.350 . S
C510 C507 1.437 . S
C510 C508 1.413 1_655 S
C510 C520 1.391 1_655 S
C511 C506 1.431 . S
C511 C507 1.317 . S
C511 H522 0.930 . S
C512 C506 1.412 . S
C512 C513 1.355 1_655 S
C512 H524 0.930 . S
C513 C512 1.355 1_455 S
C513 C515 1.402 . S
C513 H525 0.930 . S
N514 Gd505 2.661 . S
N514 C509 1.350 . S
N514 C515 1.307 . S
C515 C513 1.402 . S
C515 N514 1.307 . S
C515 H516 0.930 . S
H516 C515 0.930 . S
C517 N518 1.334 . S
C517 C519 1.394 . S
C517 H521 0.930 . S
N518 Gd505 2.601 . S
N518 C508 1.359 . S
N518 C517 1.334 . S
C519 C517 1.394 . S
C519 C520 1.359 . S
C519 H531 0.930 . S
C520 C510 1.391 1_455 S
C520 C519 1.359 . S
C520 H532 0.929 1_455 S
H521 C517 0.930 . S
H522 C511 0.930 . S
H523 C540 0.930 . S
H524 C512 0.930 . S
H525 C513 0.930 . S
H526 C507 0.929 . S
H527 C545 0.930 . S
H528 C536 0.930 . S
H529 C537 0.930 . S
H530 C561 0.929 . S
H531 C519 0.930 . S
H532 C520 0.929 1_655 S
H533 C562 0.930 . S
H534 C543 0.930 . S
N535 Gd504 2.661 . S
N535 C539 1.350 . S
N535 C540 1.307 . S
C536 H528 0.930 . S
C536 C537 1.355 . S
C536 C538 1.412 . S
C537 H529 0.930 . S
C537 C536 1.355 . S
C537 C540 1.402 . S
C538 C536 1.412 . S
C538 C539 1.417 . S
C538 C562 1.431 . S
C539 N535 1.350 . S
C539 C538 1.417 . S
C539 C542 1.426 . S
C540 H523 0.930 . S
C540 N535 1.307 . S
C540 C537 1.402 . S
N541 Gd504 2.601 . S
N541 C542 1.359 . S
N541 C545 1.334 . S
C542 C539 1.426 . S
C542 N541 1.359 . S
C542 C546 1.413 . S
C543 H534 0.930 . S
C543 C544 1.359 . S
C543 C545 1.394 . S
C544 C543 1.359 . S
C544 C546 1.391 . S
C544 H547 0.929 . S
C545 H527 0.930 . S
C545 N541 1.334 . S
C545 C543 1.394 . S
C546 C542 1.413 . S
C546 C544 1.391 . S
C546 C561 1.437 . S
H547 C544 0.929 . S
O548 Gd504 2.545 . S
O548 C563 1.258 . S
O549 Gd504 2.606 . S
O549 Gd505 2.362 . S
O549 C560 1.284 . S
O550 Gd505 2.324 . S
O550 C570 1.254 . S
O551 Gd504 2.429 . S
O551 C570 1.268 . S
O552 Gd504 2.545 . S
O552 C560 1.250 . S
O553 Gd504 2.412 . S
O553 C563 1.252 . S
O554 Gd505 2.545 . S
O554 C572 1.258 1_455 S
O555 Gd504 2.362 . S
O555 Gd505 2.606 . S
O555 C571 1.284 . S
O556 Gd504 2.324 . S
O556 C579 1.254 . S
O557 Gd505 2.429 . S
O557 C579 1.268 . S
O558 Gd505 2.545 . S
O558 C571 1.250 . S
O559 Gd505 2.412 . S
O559 C572 1.252 1_455 S
C560 O549 1.284 . S
C560 O552 1.250 . S
C561 H530 0.929 . S
C561 C546 1.437 . S
C561 C562 1.317 . S
C562 H533 0.930 . S
C562 C538 1.431 . S
C562 C561 1.317 . S
C563 Gd504 2.828 . S
C563 O548 1.258 . S
C563 O553 1.252 . S
C563 C564 1.497 . S
C564 C563 1.497 . S
C564 C565 1.395 . S
C564 C566 1.380 . S
C565 C564 1.395 . S
C565 C568 1.398 . S
C565 H580 0.930 . S
C566 C564 1.380 . S
C566 C567 1.391 . S
C566 H581 0.930 . S
C567 C566 1.391 . S
C567 C569 1.387 . S
C568 C565 1.398 . S
C568 C569 1.380 . S
C568 H582 0.930 . S
C569 C567 1.387 . S
C569 C568 1.380 . S
C569 H583 0.930 . S
C570 O550 1.254 . S
C570 O551 1.268 . S
C571 O555 1.284 . S
C571 O558 1.250 . S
C572 Gd505 2.828 1_655 S
C572 O554 1.258 1_655 S
C572 O559 1.252 1_655 S
C572 C573 1.497 . S
C573 C572 1.497 . S
C573 C574 1.395 . S
C573 C575 1.380 . S
C574 C573 1.395 . S
C574 C577 1.398 . S
C574 H584 0.930 . S
C575 C573 1.380 . S
C575 C576 1.391 . S
C575 H585 0.930 . S
C576 C575 1.391 . S
C576 C578 1.387 . S
C577 C574 1.398 . S
C577 C578 1.380 . S
C577 H586 0.930 . S
C578 C576 1.387 . S
C578 C577 1.380 . S
C578 H587 0.930 . S
C579 O556 1.254 . S
C579 O557 1.268 . S
H580 C565 0.930 . S
H581 C566 0.930 . S
H582 C568 0.930 . S
H583 C569 0.930 . S
H584 C574 0.930 . S
H585 C575 0.930 . S
H586 C577 0.930 . S
H587 C578 0.930 . S
Gd588 N619 2.661 . S
Gd588 N625 2.601 . S
Gd588 O632 2.545 . S
Gd588 O633 2.606 . S
Gd588 O635 2.429 . S
Gd588 O636 2.545 . S
Gd588 O637 2.412 . S
Gd588 O639 2.362 . S
Gd588 O640 2.324 . S
Gd588 C647 2.828 1_565 S
Gd589 N598 2.661 . S
Gd589 N602 2.601 . S
Gd589 O633 2.362 . S
Gd589 O634 2.324 . S
Gd589 O638 2.545 . S
Gd589 O639 2.606 . S
Gd589 O641 2.429 . S
Gd589 O642 2.545 . S
Gd589 O643 2.412 . S
Gd589 C656 2.828 . S
C590 C593 1.417 1_655 S
C590 C595 1.431 . S
C590 C596 1.412 . S
C591 C594 1.437 1_655 S
C591 C595 1.317 . S
C591 H610 0.929 . S
C592 C593 1.426 . S
C592 C594 1.413 . S
C592 N602 1.359 . S
C593 C590 1.417 1_455 S
C593 C592 1.426 . S
C593 N598 1.350 . S
C594 C591 1.437 1_455 S
C594 C592 1.413 . S
C594 C604 1.391 1_556 S
C595 C590 1.431 . S
C595 C591 1.317 . S
C595 H606 0.930 . S
C596 C590 1.412 . S
C596 C597 1.355 . S
C596 H608 0.930 . S
C597 C596 1.355 . S
C597 C599 1.402 1_655 S
C597 H609 0.930 . S
N598 Gd589 2.661 . S
N598 C593 1.350 . S
N598 C599 1.307 . S
C599 C597 1.402 1_455 S
C599 N598 1.307 . S
C599 H600 0.930 . S
H600 C599 0.930 . S
C601 N602 1.334 . S
C601 C603 1.394 1_556 S
C601 H605 0.930 . S
N602 Gd589 2.601 . S
N602 C592 1.359 . S
N602 C601 1.334 . S
C603 C601 1.394 1_554 S
C603 C604 1.359 . S
C603 H615 0.930 . S
C604 C594 1.391 1_554 S
C604 C603 1.359 . S
C604 H616 0.929 . S
H605 C601 0.930 . S
H606 C595 0.930 . S
H607 C624 0.930 . S
H608 C596 0.930 . S
H609 C597 0.930 . S
H610 C591 0.929 . S
H611 C629 0.930 . S
H612 C620 0.930 . S
H613 C621 0.930 . S
H614 C645 0.929 . S
H615 C603 0.930 . S
H616 C604 0.929 . S
H617 C646 0.930 . S
H618 C627 0.930 . S
N619 Gd588 2.661 . S
N619 C623 1.350 . S
N619 C624 1.307 . S
C620 H612 0.930 . S
C620 C621 1.355 1_545 S
C620 C622 1.412 . S
C621 H613 0.930 . S
C621 C620 1.355 1_565 S
C621 C624 1.402 . S
C622 C620 1.412 . S
C622 C623 1.417 1_545 S
C622 C646 1.431 . S
C623 N619 1.350 . S
C623 C622 1.417 1_565 S
C623 C626 1.426 . S
C624 H607 0.930 . S
C624 N619 1.307 . S
C624 C621 1.402 . S
N625 Gd588 2.601 . S
N625 C626 1.359 . S
N625 C629 1.334 . S
C626 C623 1.426 . S
C626 N625 1.359 . S
C626 C630 1.413 1_565 S
C627 H618 0.930 . S
C627 C628 1.359 . S
C627 C629 1.394 . S
C628 C627 1.359 . S
C628 C630 1.391 1_565 S
C628 H631 0.929 1_565 S
C629 H611 0.930 . S
C629 N625 1.334 . S
C629 C627 1.394 . S
C630 C626 1.413 1_545 S
C630 C628 1.391 1_545 S
C630 C645 1.437 . S
H631 C628 0.929 1_545 S
O632 Gd588 2.545 . S
O632 C647 1.258 1_565 S
O633 Gd588 2.606 . S
O633 Gd589 2.362 . S
O633 C644 1.284 . S
O634 Gd589 2.324 . S
O634 C654 1.254 . S
O635 Gd588 2.429 . S
O635 C654 1.268 . S
O636 Gd588 2.545 . S
O636 C644 1.250 . S
O637 Gd588 2.412 . S
O637 C647 1.252 1_565 S
O638 Gd589 2.545 . S
O638 C656 1.258 . S
O639 Gd588 2.362 . S
O639 Gd589 2.606 . S
O639 C655 1.284 . S
O640 Gd588 2.324 . S
O640 C663 1.254 . S
O641 Gd589 2.429 . S
O641 C663 1.268 . S
O642 Gd589 2.545 . S
O642 C655 1.250 . S
O643 Gd589 2.412 . S
O643 C656 1.252 . S
C644 O633 1.284 . S
C644 O636 1.250 . S
C645 H614 0.929 . S
C645 C630 1.437 . S
C645 C646 1.317 . S
C646 H617 0.930 . S
C646 C622 1.431 . S
C646 C645 1.317 . S
C647 Gd588 2.828 1_545 S
C647 O632 1.258 1_545 S
C647 O637 1.252 1_545 S
C647 C648 1.497 . S
C648 C647 1.497 . S
C648 C649 1.395 . S
C648 C650 1.380 . S
C649 C648 1.395 . S
C649 C652 1.398 . S
C649 H664 0.930 . S
C650 C648 1.380 . S
C650 C651 1.391 . S
C650 H665 0.930 . S
C651 C650 1.391 . S
C651 C653 1.387 . S
C652 C649 1.398 . S
C652 C653 1.380 . S
C652 H666 0.930 . S
C653 C651 1.387 . S
C653 C652 1.380 . S
C653 H667 0.930 . S
C654 O634 1.254 . S
C654 O635 1.268 . S
C655 O639 1.284 . S
C655 O642 1.250 . S
C656 Gd589 2.828 . S
C656 O638 1.258 . S
C656 O643 1.252 . S
C656 C657 1.497 . S
C657 C656 1.497 . S
C657 C658 1.395 . S
C657 C659 1.380 . S
C658 C657 1.395 . S
C658 C661 1.398 . S
C658 H668 0.930 . S
C659 C657 1.380 . S
C659 C660 1.391 . S
C659 H669 0.930 . S
C660 C659 1.391 . S
C660 C662 1.387 . S
C661 C658 1.398 . S
C661 C662 1.380 . S
C661 H670 0.930 . S
C662 C660 1.387 . S
C662 C661 1.380 . S
C662 H671 0.930 . S
C663 O640 1.254 . S
C663 O641 1.268 . S
H664 C649 0.930 . S
H665 C650 0.930 . S
H666 C652 0.930 . S
H667 C653 0.930 . S
H668 C658 0.930 . S
H669 C659 0.930 . S
H670 C661 0.930 . S
H671 C662 0.930 . S
Gd672 N703 2.661 . S
Gd672 N709 2.601 . S
Gd672 O716 2.545 . S
Gd672 O717 2.606 . S
Gd672 O719 2.429 . S
Gd672 O720 2.545 . S
Gd672 O721 2.412 . S
Gd672 O723 2.362 . S
Gd672 O724 2.324 . S
Gd672 C731 2.828 . S
Gd673 N682 2.661 . S
Gd673 N686 2.601 . S
Gd673 O717 2.362 . S
Gd673 O718 2.324 . S
Gd673 O722 2.545 . S
Gd673 O723 2.606 . S
Gd673 O725 2.429 . S
Gd673 O726 2.545 . S
Gd673 O727 2.412 . S
Gd673 C740 2.828 . S
C674 C677 1.417 . S
C674 C679 1.431 . S
C674 C680 1.412 . S
C675 C678 1.437 . S
C675 C679 1.317 . S
C675 H694 0.929 . S
C676 C677 1.426 . S
C676 C678 1.413 . S
C676 N686 1.359 . S
C677 C674 1.417 . S
C677 C676 1.426 . S
C677 N682 1.350 . S
C678 C675 1.437 . S
C678 C676 1.413 . S
C678 C688 1.391 . S
C679 C674 1.431 . S
C679 C675 1.317 . S
C679 H690 0.930 . S
C680 C674 1.412 . S
C680 C681 1.355 . S
C680 H692 0.930 . S
C681 C680 1.355 . S
C681 C683 1.402 . S
C681 H693 0.930 . S
N682 Gd673 2.661 . S
N682 C677 1.350 . S
N682 C683 1.307 . S
C683 C681 1.402 . S
C683 N682 1.307 . S
C683 H684 0.930 . S
H684 C683 0.930 . S
C685 N686 1.334 . S
C685 C687 1.394 . S
C685 H689 0.930 . S
N686 Gd673 2.601 . S
N686 C676 1.359 . S
N686 C685 1.334 . S
C687 C685 1.394 . S
C687 C688 1.359 . S
C687 H699 0.930 . S
C688 C678 1.391 . S
C688 C687 1.359 . S
C688 H700 0.929 . S
H689 C685 0.930 . S
H690 C679 0.930 . S
H691 C708 0.930 . S
H692 C680 0.930 . S
H693 C681 0.930 . S
H694 C675 0.929 . S
H695 C713 0.930 . S
H696 C704 0.930 . S
H697 C705 0.930 . S
H698 C729 0.929 . S
H699 C687 0.930 . S
H700 C688 0.929 . S
H701 C730 0.930 . S
H702 C711 0.930 . S
N703 Gd672 2.661 . S
N703 C707 1.350 . S
N703 C708 1.307 . S
C704 H696 0.930 . S
C704 C705 1.355 . S
C704 C706 1.412 . S
C705 H697 0.930 . S
C705 C704 1.355 . S
C705 C708 1.402 1_545 S
C706 C704 1.412 . S
C706 C707 1.417 1_545 S
C706 C730 1.431 . S
C707 N703 1.350 . S
C707 C706 1.417 1_565 S
C707 C710 1.426 . S
C708 H691 0.930 . S
C708 N703 1.307 . S
C708 C705 1.402 1_565 S
N709 Gd672 2.601 . S
N709 C710 1.359 . S
N709 C713 1.334 . S
C710 C707 1.426 . S
C710 N709 1.359 . S
C710 C714 1.413 . S
C711 H702 0.930 . S
C711 C712 1.359 . S
C711 C713 1.394 . S
C712 C711 1.359 . S
C712 C714 1.391 . S
C712 H715 0.929 . S
C713 H695 0.930 . S
C713 N709 1.334 . S
C713 C711 1.394 . S
C714 C710 1.413 . S
C714 C712 1.391 . S
C714 C729 1.437 1_565 S
H715 C712 0.929 . S
O716 Gd672 2.545 . S
O716 C731 1.258 . S
O717 Gd672 2.606 . S
O717 Gd673 2.362 . S
O717 C728 1.284 . S
O718 Gd673 2.324 . S
O718 C738 1.254 . S
O719 Gd672 2.429 . S
O719 C738 1.268 . S
O720 Gd672 2.545 . S
O720 C728 1.250 . S
O721 Gd672 2.412 . S
O721 C731 1.252 . S
O722 Gd673 2.545 . S
O722 C740 1.258 . S
O723 Gd672 2.362 . S
O723 Gd673 2.606 . S
O723 C739 1.284 . S
O724 Gd672 2.324 . S
O724 C747 1.254 . S
O725 Gd673 2.429 . S
O725 C747 1.268 . S
O726 Gd673 2.545 . S
O726 C739 1.250 . S
O727 Gd673 2.412 . S
O727 C740 1.252 . S
C728 O717 1.284 . S
C728 O720 1.250 . S
C729 H698 0.929 . S
C729 C714 1.437 1_545 S
C729 C730 1.317 . S
C730 H701 0.930 . S
C730 C706 1.431 . S
C730 C729 1.317 . S
C731 Gd672 2.828 . S
C731 O716 1.258 . S
C731 O721 1.252 . S
C731 C732 1.497 . S
C732 C731 1.497 . S
C732 C733 1.395 . S
C732 C734 1.380 . S
C733 C732 1.395 . S
C733 C736 1.398 . S
C733 H748 0.930 . S
C734 C732 1.380 . S
C734 C735 1.391 . S
C734 H749 0.930 . S
C735 C734 1.391 . S
C735 C737 1.387 . S
C736 C733 1.398 . S
C736 C737 1.380 . S
C736 H750 0.930 . S
C737 C735 1.387 . S
C737 C736 1.380 . S
C737 H751 0.930 . S
C738 O718 1.254 . S
C738 O719 1.268 . S
C739 O723 1.284 . S
C739 O726 1.250 . S
C740 Gd673 2.828 . S
C740 O722 1.258 . S
C740 O727 1.252 . S
C740 C741 1.497 . S
C741 C740 1.497 . S
C741 C742 1.395 . S
C741 C743 1.380 . S
C742 C741 1.395 . S
C742 C745 1.398 . S
C742 H752 0.930 . S
C743 C741 1.380 . S
C743 C744 1.391 . S
C743 H753 0.930 . S
C744 C743 1.391 . S
C744 C746 1.387 . S
C745 C742 1.398 . S
C745 C746 1.380 . S
C745 H754 0.930 . S
C746 C744 1.387 . S
C746 C745 1.380 . S
C746 H755 0.930 . S
C747 O724 1.254 . S
C747 O725 1.268 . S
H748 C733 0.930 . S
H749 C734 0.930 . S
H750 C736 0.930 . S
H751 C737 0.930 . S
H752 C742 0.930 . S
H753 C743 0.930 . S
H754 C745 0.930 . S
H755 C746 0.930 . S
Gd756 N787 2.661 . S
Gd756 N793 2.601 . S
Gd756 O800 2.545 . S
Gd756 O801 2.606 . S
Gd756 O803 2.429 . S
Gd756 O804 2.545 . S
Gd756 O805 2.412 . S
Gd756 O807 2.362 . S
Gd756 O808 2.324 . S
Gd756 C815 2.828 1_455 S
Gd757 N766 2.661 . S
Gd757 N770 2.601 . S
Gd757 O801 2.362 . S
Gd757 O802 2.324 . S
Gd757 O806 2.545 . S
Gd757 O807 2.606 . S
Gd757 O809 2.429 . S
Gd757 O810 2.545 . S
Gd757 O811 2.412 . S
Gd757 C824 2.828 . S
C758 C761 1.417 . S
C758 C763 1.431 . S
C758 C764 1.412 . S
C759 C762 1.437 . S
C759 C763 1.317 . S
C759 H778 0.929 . S
C760 C761 1.426 . S
C760 C762 1.413 . S
C760 N770 1.359 . S
C761 C758 1.417 . S
C761 C760 1.426 . S
C761 N766 1.350 . S
C762 C759 1.437 . S
C762 C760 1.413 . S
C762 C772 1.391 1_556 S
C763 C758 1.431 . S
C763 C759 1.317 . S
C763 H774 0.930 . S
C764 C758 1.412 . S
C764 C765 1.355 . S
C764 H776 0.930 . S
C765 C764 1.355 . S
C765 C767 1.402 . S
C765 H777 0.930 . S
N766 Gd757 2.661 . S
N766 C761 1.350 . S
N766 C767 1.307 . S
C767 C765 1.402 . S
C767 N766 1.307 . S
C767 H768 0.930 . S
H768 C767 0.930 . S
C769 N770 1.334 . S
C769 C771 1.394 1_556 S
C769 H773 0.930 . S
N770 Gd757 2.601 . S
N770 C760 1.359 . S
N770 C769 1.334 . S
C771 C769 1.394 1_554 S
C771 C772 1.359 . S
C771 H783 0.930 . S
C772 C762 1.391 1_554 S
C772 C771 1.359 . S
C772 H784 0.929 . S
H773 C769 0.930 . S
H774 C763 0.930 . S
H775 C792 0.930 . S
H776 C764 0.930 . S
H777 C765 0.930 . S
H778 C759 0.929 . S
H779 C797 0.930 . S
H780 C788 0.930 . S
H781 C789 0.930 . S
H782 C813 0.929 . S
H783 C771 0.930 . S
H784 C772 0.929 . S
H785 C814 0.930 . S
H786 C795 0.930 . S
N787 Gd756 2.661 . S
N787 C791 1.350 . S
N787 C792 1.307 . S
C788 H780 0.930 . S
C788 C789 1.355 1_655 S
C788 C790 1.412 . S
C789 H781 0.930 . S
C789 C788 1.355 1_455 S
C789 C792 1.402 . S
C790 C788 1.412 . S
C790 C791 1.417 1_655 S
C790 C814 1.431 . S
C791 N787 1.350 . S
C791 C790 1.417 1_455 S
C791 C794 1.426 . S
C792 H775 0.930 . S
C792 N787 1.307 . S
C792 C789 1.402 . S
N793 Gd756 2.601 . S
N793 C794 1.359 . S
N793 C797 1.334 . S
C794 C791 1.426 . S
C794 N793 1.359 . S
C794 C798 1.413 1_455 S
C795 H786 0.930 . S
C795 C796 1.359 . S
C795 C797 1.394 . S
C796 C795 1.359 . S
C796 C798 1.391 1_455 S
C796 H799 0.929 1_455 S
C797 H779 0.930 . S
C797 N793 1.334 . S
C797 C795 1.394 . S
C798 C794 1.413 1_655 S
C798 C796 1.391 1_655 S
C798 C813 1.437 . S
H799 C796 0.929 1_655 S
O800 Gd756 2.545 . S
O800 C815 1.258 1_455 S
O801 Gd756 2.606 . S
O801 Gd757 2.362 . S
O801 C812 1.284 . S
O802 Gd757 2.324 . S
O802 C822 1.254 . S
O803 Gd756 2.429 . S
O803 C822 1.268 . S
O804 Gd756 2.545 . S
O804 C812 1.250 . S
O805 Gd756 2.412 . S
O805 C815 1.252 1_455 S
O806 Gd757 2.545 . S
O806 C824 1.258 . S
O807 Gd756 2.362 . S
O807 Gd757 2.606 . S
O807 C823 1.284 . S
O808 Gd756 2.324 . S
O808 C831 1.254 . S
O809 Gd757 2.429 . S
O809 C831 1.268 . S
O810 Gd757 2.545 . S
O810 C823 1.250 . S
O811 Gd757 2.412 . S
O811 C824 1.252 . S
C812 O801 1.284 . S
C812 O804 1.250 . S
C813 H782 0.929 . S
C813 C798 1.437 . S
C813 C814 1.317 . S
C814 H785 0.930 . S
C814 C790 1.431 . S
C814 C813 1.317 . S
C815 Gd756 2.828 1_655 S
C815 O800 1.258 1_655 S
C815 O805 1.252 1_655 S
C815 C816 1.497 . S
C816 C815 1.497 . S
C816 C817 1.395 . S
C816 C818 1.380 . S
C817 C816 1.395 . S
C817 C820 1.398 . S
C817 H832 0.930 . S
C818 C816 1.380 . S
C818 C819 1.391 . S
C818 H833 0.930 . S
C819 C818 1.391 . S
C819 C821 1.387 . S
C820 C817 1.398 . S
C820 C821 1.380 . S
C820 H834 0.930 . S
C821 C819 1.387 . S
C821 C820 1.380 . S
C821 H835 0.930 . S
C822 O802 1.254 . S
C822 O803 1.268 . S
C823 O807 1.284 . S
C823 O810 1.250 . S
C824 Gd757 2.828 . S
C824 O806 1.258 . S
C824 O811 1.252 . S
C824 C825 1.497 . S
C825 C824 1.497 . S
C825 C826 1.395 . S
C825 C827 1.380 . S
C826 C825 1.395 . S
C826 C829 1.398 . S
C826 H836 0.930 . S
C827 C825 1.380 . S
C827 C828 1.391 . S
C827 H837 0.930 . S
C828 C827 1.391 . S
C828 C830 1.387 . S
C829 C826 1.398 . S
C829 C830 1.380 . S
C829 H838 0.930 . S
C830 C828 1.387 . S
C830 C829 1.380 . S
C830 H839 0.930 . S
C831 O808 1.254 . S
C831 O809 1.268 . S
H832 C817 0.930 . S
H833 C818 0.930 . S
H834 C820 0.930 . S
H835 C821 0.930 . S
H836 C826 0.930 . S
H837 C827 0.930 . S
H838 C829 0.930 . S
H839 C830 0.930 . S
Gd840 N871 2.661 . S
Gd840 N877 2.601 . S
Gd840 O884 2.545 . S
Gd840 O885 2.606 . S
Gd840 O887 2.429 . S
Gd840 O888 2.545 . S
Gd840 O889 2.412 . S
Gd840 O891 2.362 . S
Gd840 O892 2.324 . S
Gd840 C899 2.828 . S
Gd841 N850 2.661 . S
Gd841 N854 2.601 . S
Gd841 O885 2.362 . S
Gd841 O886 2.324 . S
Gd841 O890 2.545 . S
Gd841 O891 2.606 . S
Gd841 O893 2.429 . S
Gd841 O894 2.545 . S
Gd841 O895 2.412 . S
Gd841 C908 2.828 1_565 S
C842 C845 1.417 1_545 S
C842 C847 1.431 . S
C842 C848 1.412 . S
C843 C846 1.437 . S
C843 C847 1.317 . S
C843 H862 0.929 . S
C844 C845 1.426 . S
C844 C846 1.413 1_565 S
C844 N854 1.359 . S
C845 C842 1.417 1_565 S
C845 C844 1.426 . S
C845 N850 1.350 . S
C846 C843 1.437 . S
C846 C844 1.413 1_545 S
C846 C856 1.391 1_545 S
C847 C842 1.431 . S
C847 C843 1.317 . S
C847 H858 0.930 . S
C848 C842 1.412 . S
C848 C849 1.355 1_545 S
C848 H860 0.930 . S
C849 C848 1.355 1_565 S
C849 C851 1.402 . S
C849 H861 0.930 . S
N850 Gd841 2.661 . S
N850 C845 1.350 . S
N850 C851 1.307 . S
C851 C849 1.402 . S
C851 N850 1.307 . S
C851 H852 0.930 . S
H852 C851 0.930 . S
C853 N854 1.334 . S
C853 C855 1.394 . S
C853 H857 0.930 . S
N854 Gd841 2.601 . S
N854 C844 1.359 . S
N854 C853 1.334 . S
C855 C853 1.394 . S
C855 C856 1.359 . S
C855 H867 0.930 . S
C856 C846 1.391 1_565 S
C856 C855 1.359 . S
C856 H868 0.929 1_565 S
H857 C853 0.930 . S
H858 C847 0.930 . S
H859 C876 0.930 . S
H860 C848 0.930 . S
H861 C849 0.930 . S
H862 C843 0.929 . S
H863 C881 0.930 . S
H864 C872 0.930 . S
H865 C873 0.930 . S
H866 C897 0.929 . S
H867 C855 0.930 . S
H868 C856 0.929 1_545 S
H869 C898 0.930 . S
H870 C879 0.930 . S
N871 Gd840 2.661 . S
N871 C875 1.350 . S
N871 C876 1.307 . S
C872 H864 0.930 . S
C872 C873 1.355 . S
C872 C874 1.412 . S
C873 H865 0.930 . S
C873 C872 1.355 . S
C873 C876 1.402 1_655 S
C874 C872 1.412 . S
C874 C875 1.417 1_655 S
C874 C898 1.431 . S
C875 N871 1.350 . S
C875 C874 1.417 1_455 S
C875 C878 1.426 . S
C876 H859 0.930 . S
C876 N871 1.307 . S
C876 C873 1.402 1_455 S
N877 Gd840 2.601 . S
N877 C878 1.359 . S
N877 C881 1.334 . S
C878 C875 1.426 . S
C878 N877 1.359 . S
C878 C882 1.413 . S
C879 H870 0.930 . S
C879 C880 1.359 . S
C879 C881 1.394 . S
C880 C879 1.359 . S
C880 C882 1.391 . S
C880 H883 0.929 . S
C881 H863 0.930 . S
C881 N877 1.334 . S
C881 C879 1.394 . S
C882 C878 1.413 . S
C882 C880 1.391 . S
C882 C897 1.437 1_455 S
H883 C880 0.929 . S
O884 Gd840 2.545 . S
O884 C899 1.258 . S
O885 Gd840 2.606 . S
O885 Gd841 2.362 . S
O885 C896 1.284 . S
O886 Gd841 2.324 . S
O886 C906 1.254 . S
O887 Gd840 2.429 . S
O887 C906 1.268 . S
O888 Gd840 2.545 . S
O888 C896 1.250 . S
O889 Gd840 2.412 . S
O889 C899 1.252 . S
O890 Gd841 2.545 . S
O890 C908 1.258 1_565 S
O891 Gd840 2.362 . S
O891 Gd841 2.606 . S
O891 C907 1.284 . S
O892 Gd840 2.324 . S
O892 C915 1.254 . S
O893 Gd841 2.429 . S
O893 C915 1.268 . S
O894 Gd841 2.545 . S
O894 C907 1.250 . S
O895 Gd841 2.412 . S
O895 C908 1.252 1_565 S
C896 O885 1.284 . S
C896 O888 1.250 . S
C897 H866 0.929 . S
C897 C882 1.437 1_655 S
C897 C898 1.317 . S
C898 H869 0.930 . S
C898 C874 1.431 . S
C898 C897 1.317 . S
C899 Gd840 2.828 . S
C899 O884 1.258 . S
C899 O889 1.252 . S
C899 C900 1.497 . S
C900 C899 1.497 . S
C900 C901 1.395 . S
C900 C902 1.380 . S
C901 C900 1.395 . S
C901 C904 1.398 . S
C901 H916 0.930 . S
C902 C900 1.380 . S
C902 C903 1.391 . S
C902 H917 0.930 . S
C903 C902 1.391 . S
C903 C905 1.387 . S
C904 C901 1.398 . S
C904 C905 1.380 . S
C904 H918 0.930 . S
C905 C903 1.387 . S
C905 C904 1.380 . S
C905 H919 0.930 . S
C906 O886 1.254 . S
C906 O887 1.268 . S
C907 O891 1.284 . S
C907 O894 1.250 . S
C908 Gd841 2.828 1_545 S
C908 O890 1.258 1_545 S
C908 O895 1.252 1_545 S
C908 C909 1.497 . S
C909 C908 1.497 . S
C909 C910 1.395 . S
C909 C911 1.380 . S
C910 C909 1.395 . S
C910 C913 1.398 . S
C910 H920 0.930 . S
C911 C909 1.380 . S
C911 C912 1.391 . S
C911 H921 0.930 . S
C912 C911 1.391 . S
C912 C914 1.387 . S
C913 C910 1.398 . S
C913 C914 1.380 . S
C913 H922 0.930 . S
C914 C912 1.387 . S
C914 C913 1.380 . S
C914 H923 0.930 . S
C915 O892 1.254 . S
C915 O893 1.268 . S
H916 C901 0.930 . S
H917 C902 0.930 . S
H918 C904 0.930 . S
H919 C905 0.930 . S
H920 C910 0.930 . S
H921 C911 0.930 . S
H922 C913 0.930 . S
H923 C914 0.930 . S
Gd924 N955 2.661 . S
Gd924 N961 2.601 . S
Gd924 O968 2.545 . S
Gd924 O969 2.606 . S
Gd924 O971 2.429 . S
Gd924 O972 2.545 . S
Gd924 O973 2.412 . S
Gd924 O975 2.362 . S
Gd924 O976 2.324 . S
Gd924 C983 2.828 . S
Gd925 N934 2.661 . S
Gd925 N938 2.601 . S
Gd925 O969 2.362 . S
Gd925 O970 2.324 . S
Gd925 O974 2.545 . S
Gd925 O975 2.606 . S
Gd925 O977 2.429 . S
Gd925 O978 2.545 . S
Gd925 O979 2.412 . S
Gd925 C992 2.828 . S
C926 C929 1.417 1_545 S
C926 C931 1.431 . S
C926 C932 1.412 . S
C927 C930 1.437 1_545 S
C927 C931 1.317 . S
C927 H946 0.929 . S
C928 C929 1.426 . S
C928 C930 1.413 . S
C928 N938 1.359 . S
C929 C926 1.417 1_565 S
C929 C928 1.426 . S
C929 N934 1.350 . S
C930 C927 1.437 1_565 S
C930 C928 1.413 . S
C930 C940 1.391 1_556 S
C931 C926 1.431 . S
C931 C927 1.317 . S
C931 H942 0.930 . S
C932 C926 1.412 . S
C932 C933 1.355 . S
C932 H944 0.930 . S
C933 C932 1.355 . S
C933 C935 1.402 1_545 S
C933 H945 0.930 . S
N934 Gd925 2.661 . S
N934 C929 1.350 . S
N934 C935 1.307 . S
C935 C933 1.402 1_565 S
C935 N934 1.307 . S
C935 H936 0.930 . S
H936 C935 0.930 . S
C937 N938 1.334 . S
C937 C939 1.394 1_556 S
C937 H941 0.930 . S
N938 Gd925 2.601 . S
N938 C928 1.359 . S
N938 C937 1.334 . S
C939 C937 1.394 1_554 S
C939 C940 1.359 . S
C939 H951 0.930 . S
C940 C930 1.391 1_554 S
C940 C939 1.359 . S
C940 H952 0.929 . S
H941 C937 0.930 . S
H942 C931 0.930 . S
H943 C960 0.930 . S
H944 C932 0.930 . S
H945 C933 0.930 . S
H946 C927 0.929 . S
H947 C965 0.930 . S
H948 C956 0.930 . S
H949 C957 0.930 . S
H950 C981 0.929 . S
H951 C939 0.930 . S
H952 C940 0.929 . S
H953 C982 0.930 . S
H954 C963 0.930 . S
N955 Gd924 2.661 . S
N955 C959 1.350 . S
N955 C960 1.307 . S
C956 H948 0.930 . S
C956 C957 1.355 . S
C956 C958 1.412 . S
C957 H949 0.930 . S
C957 C956 1.355 . S
C957 C960 1.402 . S
C958 C956 1.412 . S
C958 C959 1.417 . S
C958 C982 1.431 . S
C959 N955 1.350 . S
C959 C958 1.417 . S
C959 C962 1.426 . S
C960 H943 0.930 . S
C960 N955 1.307 . S
C960 C957 1.402 . S
N961 Gd924 2.601 . S
N961 C962 1.359 . S
N961 C965 1.334 . S
C962 C959 1.426 . S
C962 N961 1.359 . S
C962 C966 1.413 . S
C963 H954 0.930 . S
C963 C964 1.359 . S
C963 C965 1.394 . S
C964 C963 1.359 . S
C964 C966 1.391 . S
C964 H967 0.929 . S
C965 H947 0.930 . S
C965 N961 1.334 . S
C965 C963 1.394 . S
C966 C962 1.413 . S
C966 C964 1.391 . S
C966 C981 1.437 . S
H967 C964 0.929 . S
O968 Gd924 2.545 . S
O968 C983 1.258 . S
O969 Gd924 2.606 . S
O969 Gd925 2.362 . S
O969 C980 1.284 . S
O970 Gd925 2.324 . S
O970 C990 1.254 . S
O971 Gd924 2.429 . S
O971 C990 1.268 . S
O972 Gd924 2.545 . S
O972 C980 1.250 . S
O973 Gd924 2.412 . S
O973 C983 1.252 . S
O974 Gd925 2.545 . S
O974 C992 1.258 . S
O975 Gd924 2.362 . S
O975 Gd925 2.606 . S
O975 C991 1.284 . S
O976 Gd924 2.324 . S
O976 C999 1.254 . S
O977 Gd925 2.429 . S
O977 C999 1.268 . S
O978 Gd925 2.545 . S
O978 C991 1.250 . S
O979 Gd925 2.412 . S
O979 C992 1.252 . S
C980 O969 1.284 . S
C980 O972 1.250 . S
C981 H950 0.929 . S
C981 C966 1.437 . S
C981 C982 1.317 . S
C982 H953 0.930 . S
C982 C958 1.431 . S
C982 C981 1.317 . S
C983 Gd924 2.828 . S
C983 O968 1.258 . S
C983 O973 1.252 . S
C983 C984 1.497 . S
C984 C983 1.497 . S
C984 C985 1.395 . S
C984 C986 1.380 . S
C985 C984 1.395 . S
C985 C988 1.398 . S
C985 H1000 0.930 . S
C986 C984 1.380 . S
C986 C987 1.391 . S
C986 H1001 0.930 . S
C987 C986 1.391 . S
C987 C989 1.387 . S
C988 C985 1.398 . S
C988 C989 1.380 . S
C988 H1002 0.930 . S
C989 C987 1.387 . S
C989 C988 1.380 . S
C989 H1003 0.930 . S
C990 O970 1.254 . S
C990 O971 1.268 . S
C991 O975 1.284 . S
C991 O978 1.250 . S
C992 Gd925 2.828 . S
C992 O974 1.258 . S
C992 O979 1.252 . S
C992 C993 1.497 . S
C993 C992 1.497 . S
C993 C994 1.395 . S
C993 C995 1.380 . S
C994 C993 1.395 . S
C994 C997 1.398 . S
C994 H1004 0.930 . S
C995 C993 1.380 . S
C995 C996 1.391 . S
C995 H1005 0.930 . S
C996 C995 1.391 . S
C996 C998 1.387 . S
C997 C994 1.398 . S
C997 C998 1.380 . S
C997 H1006 0.930 . S
C998 C996 1.387 . S
C998 C997 1.380 . S
C998 H1007 0.930 . S
C999 O976 1.254 . S
C999 O977 1.268 . S
H1000 C985 0.930 . S
H1001 C986 0.930 . S
H1002 C988 0.930 . S
H1003 C989 0.930 . S
H1004 C994 0.930 . S
H1005 C995 0.930 . S
H1006 C997 0.930 . S
H1007 C998 0.930 . S
C1008 C1009 1.387 . S
C1008 H1012 0.950 . S
C1008 C1017 1.390 . S
C1009 C1008 1.387 . S
C1009 C1011 1.387 . S
H1010 C1017 0.950 . S
C1011 C1009 1.387 . S
C1011 C1013 1.390 . S
C1011 H1015 0.950 . S
H1012 C1008 0.950 . S
C1013 C1011 1.390 . S
C1013 C1014 1.387 . S
C1013 H1016 0.950 . S
C1014 C1013 1.387 . S
C1014 C1017 1.387 . S
H1015 C1011 0.950 . S
H1016 C1013 0.950 . S
C1017 C1008 1.390 . S
C1017 H1010 0.950 . S
C1017 C1014 1.387 . S
C1018 C1019 1.387 . S
C1018 H1022 0.950 . S
C1018 C1027 1.390 1_455 S
C1019 C1018 1.387 . S
C1019 C1021 1.387 . S
H1020 C1027 0.950 . S
C1021 C1019 1.387 . S
C1021 C1023 1.390 1_455 S
C1021 H1025 0.950 . S
H1022 C1018 0.950 . S
C1023 C1021 1.390 1_655 S
C1023 C1024 1.387 . S
C1023 H1026 0.950 . S
C1024 C1023 1.387 . S
C1024 C1027 1.387 . S
H1025 C1021 0.950 . S
H1026 C1023 0.950 . S
C1027 C1018 1.390 1_655 S
C1027 H1020 0.950 . S
C1027 C1024 1.387 . S
C1028 C1029 1.387 . S
C1028 H1032 0.950 . S
C1028 C1037 1.390 1_545 S
C1029 C1028 1.387 . S
C1029 C1031 1.387 . S
H1030 C1037 0.950 . S
C1031 C1029 1.387 . S
C1031 C1033 1.390 1_545 S
C1031 H1035 0.950 . S
H1032 C1028 0.950 . S
C1033 C1031 1.390 1_565 S
C1033 C1034 1.387 . S
C1033 H1036 0.950 . S
C1034 C1033 1.387 . S
C1034 C1037 1.387 . S
H1035 C1031 0.950 . S
H1036 C1033 0.950 . S
C1037 C1028 1.390 1_565 S
C1037 H1030 0.950 . S
C1037 C1034 1.387 . S
C1038 C1039 1.387 . S
C1038 H1042 0.950 . S
C1038 C1047 1.390 . S
C1039 C1038 1.387 . S
C1039 C1041 1.387 . S
H1040 C1047 0.950 . S
C1041 C1039 1.387 . S
C1041 C1043 1.390 . S
C1041 H1045 0.950 . S
H1042 C1038 0.950 . S
C1043 C1041 1.390 . S
C1043 C1044 1.387 . S
C1043 H1046 0.950 . S
C1044 C1043 1.387 . S
C1044 C1047 1.387 . S
H1045 C1041 0.950 . S
H1046 C1043 0.950 . S
C1047 C1038 1.390 . S
C1047 H1040 0.950 . S
C1047 C1044 1.387 . S
C1048 C1049 1.387 . S
C1048 H1052 0.950 . S
C1048 C1057 1.390 1_455 S
C1049 C1048 1.387 . S
C1049 C1051 1.387 . S
H1050 C1057 0.950 . S
C1051 C1049 1.387 . S
C1051 C1053 1.390 1_455 S
C1051 H1055 0.950 . S
H1052 C1048 0.950 . S
C1053 C1051 1.390 1_655 S
C1053 C1054 1.387 . S
C1053 H1056 0.950 . S
C1054 C1053 1.387 . S
C1054 C1057 1.387 . S
H1055 C1051 0.950 . S
H1056 C1053 0.950 . S
C1057 C1048 1.390 1_655 S
C1057 H1050 0.950 . S
C1057 C1054 1.387 . S
C1058 C1059 1.387 . S
C1058 H1062 0.950 . S
C1058 C1067 1.390 1_565 S
C1059 C1058 1.387 . S
C1059 C1061 1.387 . S
H1060 C1067 0.950 . S
C1061 C1059 1.387 . S
C1061 C1063 1.390 1_565 S
C1061 H1065 0.950 . S
H1062 C1058 0.950 . S
C1063 C1061 1.390 1_545 S
C1063 C1064 1.387 . S
C1063 H1066 0.950 . S
C1064 C1063 1.387 . S
C1064 C1067 1.387 . S
H1065 C1061 0.950 . S
H1066 C1063 0.950 . S
C1067 C1058 1.390 1_545 S
C1067 H1060 0.950 . S
C1067 C1064 1.387 . S
C1068 C1069 1.387 . S
C1068 H1072 0.950 . S
C1068 C1077 1.390 . S
C1069 C1068 1.387 . S
C1069 C1071 1.387 . S
H1070 C1077 0.950 . S
C1071 C1069 1.387 . S
C1071 C1073 1.390 . S
C1071 H1075 0.950 . S
H1072 C1068 0.950 . S
C1073 C1071 1.390 . S
C1073 C1074 1.387 . S
C1073 H1076 0.950 . S
C1074 C1073 1.387 . S
C1074 C1077 1.387 . S
H1075 C1071 0.950 . S
H1076 C1073 0.950 . S
C1077 C1068 1.390 . S
C1077 H1070 0.950 . S
C1077 C1074 1.387 . S
C1078 C1079 1.387 . S
C1078 H1082 0.950 . S
C1078 C1087 1.390 1_455 S
C1079 C1078 1.387 . S
C1079 C1081 1.387 . S
H1080 C1087 0.950 . S
C1081 C1079 1.387 . S
C1081 C1083 1.390 1_455 S
C1081 H1085 0.950 . S
H1082 C1078 0.950 . S
C1083 C1081 1.390 1_655 S
C1083 C1084 1.387 . S
C1083 H1086 0.950 . S
C1084 C1083 1.387 . S
C1084 C1087 1.387 . S
H1085 C1081 0.950 . S
H1086 C1083 0.950 . S
C1087 C1078 1.390 1_655 S
C1087 H1080 0.950 . S
C1087 C1084 1.387 . S
C1088 C1089 1.387 . S
C1088 H1092 0.950 . S
C1088 C1097 1.390 1_565 S
C1089 C1088 1.387 . S
C1089 C1091 1.387 . S
H1090 C1097 0.950 . S
C1091 C1089 1.387 . S
C1091 C1093 1.390 1_565 S
C1091 H1095 0.950 . S
H1092 C1088 0.950 . S
C1093 C1091 1.390 1_545 S
C1093 C1094 1.387 . S
C1093 H1096 0.950 . S
C1094 C1093 1.387 . S
C1094 C1097 1.387 . S
H1095 C1091 0.950 . S
H1096 C1093 0.950 . S
C1097 C1088 1.390 1_545 S
C1097 H1090 0.950 . S
C1097 C1094 1.387 . S
C1098 C1099 1.387 . S
C1098 H1102 0.950 . S
C1098 C1107 1.390 . S
C1099 C1098 1.387 . S
C1099 C1101 1.387 . S
H1100 C1107 0.950 . S
C1101 C1099 1.387 . S
C1101 C1103 1.390 . S
C1101 H1105 0.950 . S
H1102 C1098 0.950 . S
C1103 C1101 1.390 . S
C1103 C1104 1.387 . S
C1103 H1106 0.950 . S
C1104 C1103 1.387 . S
C1104 C1107 1.387 . S
H1105 C1101 0.950 . S
H1106 C1103 0.950 . S
C1107 C1098 1.390 . S
C1107 H1100 0.950 . S
C1107 C1104 1.387 . S
C1108 C1109 1.387 . S
C1108 H1112 0.950 . S
C1108 C1117 1.390 1_455 S
C1109 C1108 1.387 . S
C1109 C1111 1.387 . S
H1110 C1117 0.950 . S
C1111 C1109 1.387 . S
C1111 C1113 1.390 1_455 S
C1111 H1115 0.950 . S
H1112 C1108 0.950 . S
C1113 C1111 1.390 1_655 S
C1113 C1114 1.387 . S
C1113 H1116 0.950 . S
C1114 C1113 1.387 . S
C1114 C1117 1.387 . S
H1115 C1111 0.950 . S
H1116 C1113 0.950 . S
C1117 C1108 1.390 1_655 S
C1117 H1110 0.950 . S
C1117 C1114 1.387 . S
C1118 C1119 1.387 . S
C1118 H1122 0.950 . S
C1118 C1127 1.390 1_545 S
C1119 C1118 1.387 . S
C1119 C1121 1.387 . S
H1120 C1127 0.950 . S
C1121 C1119 1.387 . S
C1121 C1123 1.390 1_545 S
C1121 H1125 0.950 . S
H1122 C1118 0.950 . S
C1123 C1121 1.390 1_565 S
C1123 C1124 1.387 . S
C1123 H1126 0.950 . S
C1124 C1123 1.387 . S
C1124 C1127 1.387 . S
H1125 C1121 0.950 . S
H1126 C1123 0.950 . S
C1127 C1118 1.390 1_565 S
C1127 H1120 0.950 . S
C1127 C1124 1.387 . S
C1128 C1129 1.387 . S
C1128 H1132 0.950 . S
C1128 C1137 1.390 . S
C1129 C1128 1.387 . S
C1129 C1131 1.387 . S
H1130 C1137 0.950 . S
C1131 C1129 1.387 . S
C1131 C1133 1.390 . S
C1131 H1135 0.950 . S
H1132 C1128 0.950 . S
C1133 C1131 1.390 . S
C1133 C1134 1.387 . S
C1133 H1136 0.950 . S
C1134 C1133 1.387 . S
C1134 C1137 1.387 . S
H1135 C1131 0.950 . S
H1136 C1133 0.950 . S
C1137 C1128 1.390 . S
C1137 H1130 0.950 . S
C1137 C1134 1.387 . S
C1138 C1139 1.387 . S
C1138 H1142 0.950 . S
C1138 C1147 1.390 . S
C1139 C1138 1.387 . S
C1139 C1141 1.387 . S
H1140 C1147 0.950 . S
C1141 C1139 1.387 . S
C1141 C1143 1.390 . S
C1141 H1145 0.950 . S
H1142 C1138 0.950 . S
C1143 C1141 1.390 . S
C1143 C1144 1.387 . S
C1143 H1146 0.950 . S
C1144 C1143 1.387 . S
C1144 C1147 1.387 . S
H1145 C1141 0.950 . S
H1146 C1143 0.950 . S
C1147 C1138 1.390 . S
C1147 H1140 0.950 . S
C1147 C1144 1.387 . S
C1148 C1149 1.387 . S
C1148 H1152 0.950 . S
C1148 C1157 1.390 . S
C1149 C1148 1.387 . S
C1149 C1151 1.387 . S
H1150 C1157 0.950 . S
C1151 C1149 1.387 . S
C1151 C1153 1.390 . S
C1151 H1155 0.950 . S
H1152 C1148 0.950 . S
C1153 C1151 1.390 . S
C1153 C1154 1.387 . S
C1153 H1156 0.950 . S
C1154 C1153 1.387 . S
C1154 C1157 1.387 . S
H1155 C1151 0.950 . S
H1156 C1153 0.950 . S
C1157 C1148 1.390 . S
C1157 H1150 0.950 . S
C1157 C1154 1.387 . S
C1158 C1159 1.387 . S
C1158 H1162 0.950 . S
C1158 C1167 1.390 . S
C1159 C1158 1.387 . S
C1159 C1161 1.387 . S
H1160 C1167 0.950 . S
C1161 C1159 1.387 . S
C1161 C1163 1.390 . S
C1161 H1165 0.950 . S
H1162 C1158 0.950 . S
C1163 C1161 1.390 . S
C1163 C1164 1.387 . S
C1163 H1166 0.950 . S
C1164 C1163 1.387 . S
C1164 C1167 1.387 . S
H1165 C1161 0.950 . S
H1166 C1163 0.950 . S
C1167 C1158 1.390 . S
C1167 H1160 0.950 . S
C1167 C1164 1.387 . S
C1168 C1169 1.387 . S
C1168 H1172 0.950 . S
C1168 C1177 1.390 . S
C1169 C1168 1.387 . S
C1169 C1171 1.387 . S
H1170 C1177 0.950 . S
C1171 C1169 1.387 . S
C1171 C1173 1.390 . S
C1171 H1175 0.950 . S
H1172 C1168 0.950 . S
C1173 C1171 1.390 . S
C1173 C1174 1.387 . S
C1173 H1176 0.950 . S
C1174 C1173 1.387 . S
C1174 C1177 1.387 . S
H1175 C1171 0.950 . S
H1176 C1173 0.950 . S
C1177 C1168 1.390 . S
C1177 H1170 0.950 . S
C1177 C1174 1.387 . S
C1178 C1179 1.387 . S
C1178 H1182 0.950 . S
C1178 C1187 1.390 . S
C1179 C1178 1.387 . S
C1179 C1181 1.387 . S
H1180 C1187 0.950 . S
C1181 C1179 1.387 . S
C1181 C1183 1.390 . S
C1181 H1185 0.950 . S
H1182 C1178 0.950 . S
C1183 C1181 1.390 . S
C1183 C1184 1.387 . S
C1183 H1186 0.950 . S
C1184 C1183 1.387 . S
C1184 C1187 1.387 . S
H1185 C1181 0.950 . S
H1186 C1183 0.950 . S
C1187 C1178 1.390 . S
C1187 H1180 0.950 . S
C1187 C1184 1.387 . S
C1188 C1189 1.387 . S
C1188 H1192 0.950 . S
C1188 C1197 1.390 1_566 S
C1189 C1188 1.387 . S
C1189 C1191 1.387 . S
H1190 C1197 0.950 . S
C1191 C1189 1.387 . S
C1191 C1193 1.390 1_566 S
C1191 H1195 0.950 . S
H1192 C1188 0.950 . S
C1193 C1191 1.390 1_544 S
C1193 C1194 1.387 . S
C1193 H1196 0.950 . S
C1194 C1193 1.387 . S
C1194 C1197 1.387 . S
H1195 C1191 0.950 . S
H1196 C1193 0.950 . S
C1197 C1188 1.390 1_544 S
C1197 H1190 0.950 . S
C1197 C1194 1.387 . S
C1198 C1199 1.387 . S
C1198 H1202 0.950 . S
C1198 C1207 1.390 . S
C1199 C1198 1.387 . S
C1199 C1201 1.387 . S
H1200 C1207 0.950 . S
C1201 C1199 1.387 . S
C1201 C1203 1.390 . S
C1201 H1205 0.950 . S
H1202 C1198 0.950 . S
C1203 C1201 1.390 . S
C1203 C1204 1.387 . S
C1203 H1206 0.950 . S
C1204 C1203 1.387 . S
C1204 C1207 1.387 . S
H1205 C1201 0.950 . S
H1206 C1203 0.950 . S
C1207 C1198 1.390 . S
C1207 H1200 0.950 . S
C1207 C1204 1.387 . S
C1208 C1209 1.387 1_554 S
C1208 H1212 0.950 . S
C1208 C1217 1.390 1_455 S
C1209 C1208 1.387 1_556 S
C1209 C1211 1.387 . S
H1210 C1217 0.950 . S
C1211 C1209 1.387 . S
C1211 C1213 1.390 1_455 S
C1211 H1215 0.950 . S
H1212 C1208 0.950 . S
C1213 C1211 1.390 1_655 S
C1213 C1214 1.387 1_556 S
C1213 H1216 0.950 . S
C1214 C1213 1.387 1_554 S
C1214 C1217 1.387 . S
H1215 C1211 0.950 . S
H1216 C1213 0.950 . S
C1217 C1208 1.390 1_655 S
C1217 H1210 0.950 . S
C1217 C1214 1.387 . S
C1218 C1219 1.387 . S
C1218 H1222 0.950 . S
C1218 C1227 1.390 1_545 S
C1219 C1218 1.387 . S
C1219 C1221 1.387 . S
H1220 C1227 0.950 . S
C1221 C1219 1.387 . S
C1221 C1223 1.390 1_545 S
C1221 H1225 0.950 . S
H1222 C1218 0.950 . S
C1223 C1221 1.390 1_565 S
C1223 C1224 1.387 . S
C1223 H1226 0.950 . S
C1224 C1223 1.387 . S
C1224 C1227 1.387 . S
H1225 C1221 0.950 . S
H1226 C1223 0.950 . S
C1227 C1218 1.390 1_565 S
C1227 H1220 0.950 . S
C1227 C1224 1.387 . S
C1228 C1229 1.387 . S
C1228 H1232 0.950 . S
C1228 C1237 1.390 . S
C1229 C1228 1.387 . S
C1229 C1231 1.387 1_554 S
H1230 C1237 0.950 . S
C1231 C1229 1.387 1_556 S
C1231 C1233 1.390 . S
C1231 H1235 0.950 . S
H1232 C1228 0.950 . S
C1233 C1231 1.390 . S
C1233 C1234 1.387 . S
C1233 H1236 0.950 . S
C1234 C1233 1.387 . S
C1234 C1237 1.387 1_556 S
H1235 C1231 0.950 . S
H1236 C1233 0.950 . S
C1237 C1228 1.390 . S
C1237 H1230 0.950 . S
C1237 C1234 1.387 1_554 S
C1238 C1239 1.387 . S
C1238 H1242 0.950 . S
C1238 C1247 1.390 1_455 S
C1239 C1238 1.387 . S
C1239 C1241 1.387 . S
H1240 C1247 0.950 . S
C1241 C1239 1.387 . S
C1241 C1243 1.390 1_455 S
C1241 H1245 0.950 . S
H1242 C1238 0.950 . S
C1243 C1241 1.390 1_655 S
C1243 C1244 1.387 . S
C1243 H1246 0.950 . S
C1244 C1243 1.387 . S
C1244 C1247 1.387 . S
H1245 C1241 0.950 . S
H1246 C1243 0.950 . S
C1247 C1238 1.390 1_655 S
C1247 H1240 0.950 . S
C1247 C1244 1.387 . S
C1248 C1249 1.387 . S
C1248 H1252 0.950 . S
C1248 C1257 1.390 . S
C1249 C1248 1.387 . S
C1249 C1251 1.387 . S
H1250 C1257 0.950 . S
C1251 C1249 1.387 . S
C1251 C1253 1.390 . S
C1251 H1255 0.950 . S
H1252 C1248 0.950 . S
C1253 C1251 1.390 . S
C1253 C1254 1.387 . S
C1253 H1256 0.950 . S
C1254 C1253 1.387 . S
C1254 C1257 1.387 . S
H1255 C1251 0.950 . S
H1256 C1253 0.950 . S
C1257 C1248 1.390 . S
C1257 H1250 0.950 . S
C1257 C1254 1.387 . S
C1258 C1259 1.387 . S
C1258 H1262 0.950 . S
C1258 C1267 1.390 . S
C1259 C1258 1.387 . S
C1259 C1261 1.387 . S
H1260 C1267 0.950 . S
C1261 C1259 1.387 . S
C1261 C1263 1.390 . S
C1261 H1265 0.950 . S
H1262 C1258 0.950 . S
C1263 C1261 1.390 . S
C1263 C1264 1.387 . S
C1263 H1266 0.950 . S
C1264 C1263 1.387 . S
C1264 C1267 1.387 . S
H1265 C1261 0.950 . S
H1266 C1263 0.950 . S
C1267 C1258 1.390 . S
C1267 H1260 0.950 . S
C1267 C1264 1.387 . S
C1268 C1269 1.387 . S
C1268 H1272 0.950 . S
C1268 C1277 1.390 . S
C1269 C1268 1.387 . S
C1269 C1271 1.387 . S
H1270 C1277 0.950 . S
C1271 C1269 1.387 . S
C1271 C1273 1.390 . S
C1271 H1275 0.950 . S
H1272 C1268 0.950 . S
C1273 C1271 1.390 . S
C1273 C1274 1.387 . S
C1273 H1276 0.950 . S
C1274 C1273 1.387 . S
C1274 C1277 1.387 . S
H1275 C1271 0.950 . S
H1276 C1273 0.950 . S
C1277 C1268 1.390 . S
C1277 H1270 0.950 . S
C1277 C1274 1.387 . S
C1278 C1279 1.387 . S
C1278 H1282 0.950 . S
C1278 C1287 1.390 . S
C1279 C1278 1.387 . S
C1279 C1281 1.387 . S
H1280 C1287 0.950 . S
C1281 C1279 1.387 . S
C1281 C1283 1.390 . S
C1281 H1285 0.950 . S
H1282 C1278 0.950 . S
C1283 C1281 1.390 . S
C1283 C1284 1.387 . S
C1283 H1286 0.950 . S
C1284 C1283 1.387 . S
C1284 C1287 1.387 . S
H1285 C1281 0.950 . S
H1286 C1283 0.950 . S
C1287 C1278 1.390 . S
C1287 H1280 0.950 . S
C1287 C1284 1.387 . S
C1288 C1289 1.387 . S
C1288 H1292 0.950 . S
C1288 C1297 1.390 . S
C1289 C1288 1.387 . S
C1289 C1291 1.387 . S
H1290 C1297 0.950 . S
C1291 C1289 1.387 . S
C1291 C1293 1.390 . S
C1291 H1295 0.950 . S
H1292 C1288 0.950 . S
C1293 C1291 1.390 . S
C1293 C1294 1.387 . S
C1293 H1296 0.950 . S
C1294 C1293 1.387 . S
C1294 C1297 1.387 . S
H1295 C1291 0.950 . S
H1296 C1293 0.950 . S
C1297 C1288 1.390 . S
C1297 H1290 0.950 . S
C1297 C1294 1.387 . S
C1298 C1299 1.387 . S
C1298 H1302 0.950 . S
C1298 C1307 1.390 . S
C1299 C1298 1.387 . S
C1299 C1301 1.387 . S
H1300 C1307 0.950 . S
C1301 C1299 1.387 . S
C1301 C1303 1.390 . S
C1301 H1305 0.950 . S
H1302 C1298 0.950 . S
C1303 C1301 1.390 . S
C1303 C1304 1.387 . S
C1303 H1306 0.950 . S
C1304 C1303 1.387 . S
C1304 C1307 1.387 . S
H1305 C1301 0.950 . S
H1306 C1303 0.950 . S
C1307 C1298 1.390 . S
C1307 H1300 0.950 . S
C1307 C1304 1.387 . S
C1308 C1309 1.387 . S
C1308 H1312 0.950 . S
C1308 C1317 1.390 . S
C1309 C1308 1.387 . S
C1309 C1311 1.387 . S
H1310 C1317 0.950 . S
C1311 C1309 1.387 . S
C1311 C1313 1.390 . S
C1311 H1315 0.950 . S
H1312 C1308 0.950 . S
C1313 C1311 1.390 . S
C1313 C1314 1.387 . S
C1313 H1316 0.950 . S
C1314 C1313 1.387 . S
C1314 C1317 1.387 . S
H1315 C1311 0.950 . S
H1316 C1313 0.950 . S
C1317 C1308 1.390 . S
C1317 H1310 0.950 . S
C1317 C1314 1.387 . S
C1318 C1319 1.387 . S
C1318 H1322 0.950 . S
C1318 C1327 1.390 . S
C1319 C1318 1.387 . S
C1319 C1321 1.387 . S
H1320 C1327 0.950 . S
C1321 C1319 1.387 . S
C1321 C1323 1.390 . S
C1321 H1325 0.950 . S
H1322 C1318 0.950 . S
C1323 C1321 1.390 . S
C1323 C1324 1.387 . S
C1323 H1326 0.950 . S
C1324 C1323 1.387 . S
C1324 C1327 1.387 . S
H1325 C1321 0.950 . S
H1326 C1323 0.950 . S
C1327 C1318 1.390 . S
C1327 H1320 0.950 . S
C1327 C1324 1.387 . S
C1328 C1329 1.387 . S
C1328 H1332 0.950 . S
C1328 C1337 1.390 . S
C1329 C1328 1.387 . S
C1329 C1331 1.387 . S
H1330 C1337 0.950 . S
C1331 C1329 1.387 . S
C1331 C1333 1.390 . S
C1331 H1335 0.950 . S
H1332 C1328 0.950 . S
C1333 C1331 1.390 . S
C1333 C1334 1.387 . S
C1333 H1336 0.950 . S
C1334 C1333 1.387 . S
C1334 C1337 1.387 . S
H1335 C1331 0.950 . S
H1336 C1333 0.950 . S
C1337 C1328 1.390 . S
C1337 H1330 0.950 . S
C1337 C1334 1.387 . S
C1338 C1339 1.387 . S
C1338 H1342 0.950 . S
C1338 C1347 1.390 . S
C1339 C1338 1.387 . S
C1339 C1341 1.387 . S
H1340 C1347 0.950 . S
C1341 C1339 1.387 . S
C1341 C1343 1.390 . S
C1341 H1345 0.950 . S
H1342 C1338 0.950 . S
C1343 C1341 1.390 . S
C1343 C1344 1.387 . S
C1343 H1346 0.950 . S
C1344 C1343 1.387 . S
C1344 C1347 1.387 . S
H1345 C1341 0.950 . S
H1346 C1343 0.950 . S
C1347 C1338 1.390 . S
C1347 H1340 0.950 . S
C1347 C1344 1.387 . S
C1348 C1349 1.387 . S
C1348 H1352 0.950 . S
C1348 C1357 1.390 . S
C1349 C1348 1.387 . S
C1349 C1351 1.387 . S
H1350 C1357 0.950 . S
C1351 C1349 1.387 . S
C1351 C1353 1.390 . S
C1351 H1355 0.950 . S
H1352 C1348 0.950 . S
C1353 C1351 1.390 . S
C1353 C1354 1.387 . S
C1353 H1356 0.950 . S
C1354 C1353 1.387 . S
C1354 C1357 1.387 . S
H1355 C1351 0.950 . S
H1356 C1353 0.950 . S
C1357 C1348 1.390 . S
C1357 H1350 0.950 . S
C1357 C1354 1.387 . S
C1358 C1359 1.387 . S
C1358 H1362 0.950 . S
C1358 C1367 1.390 . S
C1359 C1358 1.387 . S
C1359 C1361 1.387 . S
H1360 C1367 0.950 . S
C1361 C1359 1.387 . S
C1361 C1363 1.390 . S
C1361 H1365 0.950 . S
H1362 C1358 0.950 . S
C1363 C1361 1.390 . S
C1363 C1364 1.387 . S
C1363 H1366 0.950 . S
C1364 C1363 1.387 . S
C1364 C1367 1.387 . S
H1365 C1361 0.950 . S
H1366 C1363 0.950 . S
C1367 C1358 1.390 . S
C1367 H1360 0.950 . S
C1367 C1364 1.387 . S
C1009 C231 1.287 . S
C1014 C56 1.364 . S
C1019 C324 1.287 . S
C1024 C151 1.364 . S
C1029 C224 1.362 . S
C1034 C399 1.287 . S
C1039 C319 1.363 . S
C1044 C492 1.285 . S
C1049 C63 1.287 . S
C1054 C392 1.364 . S
C1059 C156 1.287 . S
C1064 C487 1.364 . S
C1069 C912 1.286 . S
C1074 C571 1.362 . S
C1079 C644 1.363 . S
C1084 C987 1.285 . S
C1089 C739 1.362 . S
C1094 C576 1.286 . S
C1099 C812 1.364 . S
C1104 C651 1.286 . S
C1109 C907 1.364 . S
C1114 C744 1.287 . S
C1119 C819 1.288 . S
C1124 C980 1.363 . S
C1129 C327 1.904 . S
C1134 C66 1.902 . S
C1139 C159 1.904 . S
C1144 C402 1.903 . S
C1149 C234 1.905 . S
C1154 C495 1.902 . S
C1159 C579 1.903 . S
C1164 C822 1.904 . S
C1169 C654 1.904 . S
C1174 C915 1.902 . S
C1179 C747 1.905 . S
C1184 C990 1.902 . S
C1189 C663 2.209 . S
C1194 C75 2.209 . S
C1199 C150 2.211 . S
C1204 C738 2.209 . S
C1209 C831 2.212 . S
C1214 C243 2.210 . S
C1219 C318 2.209 . S
C1224 C906 2.209 . S
C1229 C411 2.209 . S
C1234 C999 2.210 . S
C1239 C570 2.209 . S
C1244 C486 2.211 . S
C1249 C240 1.332 . S
C1254 C67 1.394 . S
C1259 C140 1.398 . S
C1264 C315 1.333 . S
C1269 C235 1.394 . S
C1274 C408 1.330 . S
C1279 C308 1.398 . S
C1284 C483 1.331 . S
C1289 C72 1.333 . S
C1294 C403 1.398 . S
C1299 C147 1.333 . S
C1304 C476 1.398 . S
C1309 C903 1.333 . S
C1314 C560 1.397 . S
C1319 C655 1.394 . S
C1324 C996 1.332 . S
C1329 C728 1.394 . S
C1334 C567 1.331 . S
C1339 C660 1.333 . S
C1344 C823 1.397 . S
C1349 C896 1.398 . S
C1354 C735 1.332 . S
C1359 C991 1.394 . S
C1364 C828 1.331 . S
