# Generated by pormake.
# Topology snk, (6)-cn, num edge types: 1
# Building blocks:
#     Node 0, Type 0, BuildingBlock: KUMJIN_clean_sbu_0, # of connection points: 6
#     Node 1, Type 0, BuildingBlock: KUMJIN_clean_sbu_0, # of connection points: 6
#     Node 2, Type 0, BuildingBlock: KUMJIN_clean_sbu_0, # of connection points: 6
#     Node 3, Type 0, BuildingBlock: KUMJIN_clean_sbu_0, # of connection points: 6
#     Node 4, Type 0, BuildingBlock: KUMJIN_clean_sbu_0, # of connection points: 6
#     Node 5, Type 0, BuildingBlock: KUMJIN_clean_sbu_0, # of connection points: 6
#     Node 6, Type 0, BuildingBlock: KUMJIN_clean_sbu_0, # of connection points: 6
#     Node 7, Type 0, BuildingBlock: KUMJIN_clean_sbu_0, # of connection points: 6
#     Edge 8, Type (0, 0), BuildingBlock: AJUNOK_clean_linker_0, # of connection points: 2
#     Edge 9, Type (0, 0), BuildingBlock: AJUNOK_clean_linker_0, # of connection points: 2
#     Edge 10, Type (0, 0), BuildingBlock: AJUNOK_clean_linker_0, # of connection points: 2
#     Edge 11, Type (0, 0), BuildingBlock: AJUNOK_clean_linker_0, # of connection points: 2
#     Edge 12, Type (0, 0), BuildingBlock: AJUNOK_clean_linker_0, # of connection points: 2
#     Edge 13, Type (0, 0), BuildingBlock: AJUNOK_clean_linker_0, # of connection points: 2
#     Edge 14, Type (0, 0), BuildingBlock: AJUNOK_clean_linker_0, # of connection points: 2
#     Edge 15, Type (0, 0), BuildingBlock: AJUNOK_clean_linker_0, # of connection points: 2
#     Edge 16, Type (0, 0), BuildingBlock: AJUNOK_clean_linker_0, # of connection points: 2
#     Edge 17, Type (0, 0), BuildingBlock: AJUNOK_clean_linker_0, # of connection points: 2
#     Edge 18, Type (0, 0), BuildingBlock: AJUNOK_clean_linker_0, # of connection points: 2
#     Edge 19, Type (0, 0), BuildingBlock: AJUNOK_clean_linker_0, # of connection points: 2
#     Edge 20, Type (0, 0), BuildingBlock: AJUNOK_clean_linker_0, # of connection points: 2
#     Edge 21, Type (0, 0), BuildingBlock: AJUNOK_clean_linker_0, # of connection points: 2
#     Edge 22, Type (0, 0), BuildingBlock: AJUNOK_clean_linker_0, # of connection points: 2
#     Edge 23, Type (0, 0), BuildingBlock: AJUNOK_clean_linker_0, # of connection points: 2
#     Edge 24, Type (0, 0), BuildingBlock: AJUNOK_clean_linker_0, # of connection points: 2
#     Edge 25, Type (0, 0), BuildingBlock: AJUNOK_clean_linker_0, # of connection points: 2
#     Edge 26, Type (0, 0), BuildingBlock: AJUNOK_clean_linker_0, # of connection points: 2
#     Edge 27, Type (0, 0), BuildingBlock: AJUNOK_clean_linker_0, # of connection points: 2
#     Edge 28, Type (0, 0), BuildingBlock: AJUNOK_clean_linker_0, # of connection points: 2
#     Edge 29, Type (0, 0), BuildingBlock: AJUNOK_clean_linker_0, # of connection points: 2
#     Edge 30, Type (0, 0), BuildingBlock: AJUNOK_clean_linker_0, # of connection points: 2
#     Edge 31, Type (0, 0), BuildingBlock: AJUNOK_clean_linker_0, # of connection points: 2
# Relax obj value: 0.002
# Max RMSD: 0.036
# Mean RMSD: 0.036
data_MOF--net-snk--node1-KUMJIN_clean_sbu_0--edge1-AJUNOK_clean_linker_0
_symmetry_space_group_name_H-M    P1
_symmetry_Int_Tables_number       1
_symmetry_cell_setting            triclinic
loop_
_symmetry_equiv_pos_as_xyz
'x, y, z'
_cell_length_a     26.916228
_cell_length_b     26.918346
_cell_length_c     20.252033
_cell_angle_alpha  87.44295
_cell_angle_beta   87.625041
_cell_angle_gamma 89.575794
loop_
_atom_site_label
_atom_site_type_symbol
_atom_site_fract_x
_atom_site_fract_y
_atom_site_fract_z
_atom_type_partial_charge
Eu0 Eu 1.00053 0.97144 0.4662 0.0
C1 C 1.00481 0.16436 0.64098 0.0
C2 C 0.08961 0.1941 0.63928 0.0
C3 C 0.02295 0.24345 0.68813 0.0
C4 C 0.05466 0.15777 0.62435 0.0
C5 C 0.98828 0.20754 0.67247 0.0
C6 C 0.07349 0.2367 0.67178 0.0
C7 C 0.90455 0.17609 0.67196 0.0
N8 N 0.97273 0.12759 0.62889 0.0
C9 C 0.92296 0.13305 0.64317 0.0
C10 C 0.93746 0.21303 0.68806 0.0
Eu11 Eu 0.0091 0.05024 0.60232 0.0
N12 N 0.06954 0.11402 0.59893 0.0
C13 C 0.11891 0.10459 0.58685 0.0
C14 C 0.13996 0.18552 0.62376 0.0
C15 C 0.15462 0.14064 0.59693 0.0
H16 H 0.89724 0.10401 0.63339 0.0
H17 H 0.19362 0.13298 0.58642 0.0
H18 H 0.09984 0.26462 0.68451 0.0
H19 H 0.86512 0.18016 0.68311 0.0
H20 H 0.13124 0.06865 0.57128 0.0
H21 H 0.81612 0.88837 0.47925 0.0
H22 H 0.16783 0.21271 0.63388 0.0
H23 H 0.1126 0.91678 0.4369 0.0
H24 H 0.87857 0.95171 0.49863 0.0
H25 H 0.14495 0.84134 0.38538 0.0
H26 H 0.01104 0.27668 0.71252 0.0
H27 H 0.84174 0.81078 0.42591 0.0
H28 H 0.90966 0.76028 0.37298 0.0
H29 H 0.92325 0.24579 0.71191 0.0
H30 H 0.99863 0.74819 0.34512 0.0
N31 N 0.94007 0.90788 0.46611 0.0
C32 C 0.8908 0.91672 0.47981 0.0
C33 C 0.86959 0.83751 0.43752 0.0
C34 C 0.91988 0.82946 0.42103 0.0
C35 C 0.85505 0.8812 0.4676 0.0
C36 C 0.95477 0.86527 0.43752 0.0
H37 H 0.08682 0.77719 0.35206 0.0
N38 N 0.03678 0.89446 0.43697 0.0
C39 C 0.10535 0.8458 0.3951 0.0
C40 C 1.00467 0.8586 0.4218 0.0
C41 C 0.08677 0.88848 0.4247 0.0
C42 C 0.07245 0.80969 0.37632 0.0
C43 C 0.02138 0.81586 0.3894 0.0
O44 O 0.02608 0.9804 0.36211 0.0
O45 O 0.0323 0.045 0.49476 0.0
O46 O 0.96503 0.09408 0.5238 0.0
O47 O 0.93406 0.02439 0.47793 0.0
O48 O 0.07817 0.9997 0.44018 0.0
O49 O 0.94878 0.99398 0.39093 0.0
O50 O 0.98216 0.03887 0.70538 0.0
O51 O 0.97824 0.97633 0.5739 0.0
O52 O 0.04485 0.92751 0.54387 0.0
O53 O 0.07516 0.99629 0.593 0.0
O54 O 0.9313 0.02092 0.62794 0.0
O55 O 0.06112 0.03524 0.68077 0.0
C56 C 0.07532 0.04242 0.46601 0.0
C57 C 0.96573 0.96912 0.28199 0.0
C58 C 0.96644 0.97116 0.16191 0.0
C59 C 0.98408 0.98866 0.2206 0.0
C60 C 0.93103 0.9331 0.16464 0.0
C61 C 0.92955 0.93168 0.28429 0.0
C62 C 0.91259 0.91359 0.22579 0.0
C63 C 0.93344 0.07312 0.4848 0.0
C64 C 0.98174 0.9916 0.34222 0.0
C65 C 0.98665 0.78096 0.37076 0.0
C66 C 0.93602 0.7877 0.38681 0.0
C67 C 0.93512 0.97802 0.60255 0.0
C68 C 0.03656 0.06016 0.78836 0.0
C69 C 0.0203 0.03902 0.84991 0.0
C70 C 0.0286 0.06333 0.90846 0.0
C71 C 0.05173 0.11 0.90472 0.0
C72 C 0.06206 0.1055 0.78592 0.0
C73 C 0.06859 0.1308 0.8436 0.0
C74 C 0.07648 0.94788 0.58331 0.0
C75 C 0.02666 0.03395 0.72798 0.0
H76 H 0.01119 0.01837 0.21844 0.0
H77 H 0.91676 0.9196 0.11958 0.0
H78 H 0.91347 0.91734 0.33093 0.0
H79 H 0.88418 0.88532 0.228 0.0
H80 H 1.00126 1.00358 0.85227 0.0
H81 H 0.05787 0.12967 0.94916 0.0
H82 H 0.07735 0.12118 0.73989 0.0
H83 H 0.08727 0.16633 0.84094 0.0
Eu84 Eu 0.29981 0.75397 0.70664 0.0
C85 C 0.10084 0.79783 0.80257 0.0
C86 C 0.10328 0.88751 0.80807 0.0
C87 C 0.03203 0.84858 0.76318 0.0
C88 C 0.12574 0.84025 0.81793 0.0
C89 C 0.05296 0.80147 0.77684 0.0
C90 C 0.05708 0.89148 0.77879 0.0
C91 C 0.04607 0.71232 0.79203 0.0
N92 N 0.12153 0.75298 0.81808 0.0
C93 C 0.09322 0.71089 0.81835 0.0
C94 C 0.02624 0.75773 0.76992 0.0
Eu95 Eu 0.20666 0.75326 0.84643 0.0
N96 N 0.17084 0.83525 0.84529 0.0
C97 C 0.19187 0.87567 0.87184 0.0
C98 C 0.12735 0.92931 0.82931 0.0
C99 C 0.17112 0.92314 0.86306 0.0
H100 H 0.10726 0.67578 0.83792 0.0
H101 H 0.18883 0.95496 0.88273 0.0
H102 H 0.03951 0.92741 0.77039 0.0
H103 H 0.02457 0.67861 0.79032 0.0
H104 H 0.22432 0.87237 0.90084 0.0
H105 H 0.31506 0.54988 0.69033 0.0
H106 H 0.11149 0.96619 0.8222 0.0
H107 H 0.39868 0.83122 0.70025 0.0
H108 H 0.27958 0.63176 0.66534 0.0
H109 H 0.48373 0.8313 0.74098 0.0
H110 H 0.99505 0.85238 0.74491 0.0
H111 H 0.39477 0.54181 0.74632 0.0
H112 H 0.46876 0.58365 0.79067 0.0
H113 H 0.98884 0.75881 0.75255 0.0
H114 H 0.51377 0.66081 0.80829 0.0
N115 N 0.33608 0.67187 0.7115 0.0
C116 C 0.31338 0.62995 0.69173 0.0
C117 C 0.37911 0.57838 0.73582 0.0
C118 C 0.40453 0.62133 0.75032 0.0
C119 C 0.334 0.58281 0.70465 0.0
C120 C 0.38217 0.66804 0.73615 0.0
H121 H 0.52026 0.75322 0.78829 0.0
N122 N 0.38642 0.75485 0.7264 0.0
C123 C 0.46248 0.79728 0.74389 0.0
C124 C 0.40779 0.71106 0.74494 0.0
C125 C 0.4144 0.79709 0.72055 0.0
C126 C 0.48286 0.75331 0.77056 0.0
C127 C 0.45622 0.70907 0.76896 0.0
O128 O 0.34065 0.78343 0.61727 0.0
O129 O 0.22441 0.78169 0.74141 0.0
O130 O 0.18668 0.69056 0.783 0.0
O131 O 0.23645 0.70401 0.68682 0.0
O132 O 0.27313 0.83363 0.69649 0.0
O133 O 0.27173 0.74506 0.60785 0.0
O134 O 0.15957 0.73167 0.93427 0.0
O135 O 0.282 0.72657 0.81186 0.0
O136 O 0.32438 0.81267 0.77481 0.0
O137 O 0.26864 0.80501 0.86577 0.0
O138 O 0.23497 0.67405 0.85878 0.0
O139 O 0.23556 0.75254 0.94582 0.0
C140 C 0.22804 0.82661 0.71954 0.0
C141 C 0.32661 0.74795 0.513 0.0
C142 C 0.31471 0.73733 0.39453 0.0
C143 C 0.29808 0.75534 0.45622 0.0
C144 C 0.36083 0.71245 0.39063 0.0
C145 C 0.37214 0.72251 0.50765 0.0
C146 C 0.38912 0.70511 0.44669 0.0
C147 C 0.2 0.6816 0.72136 0.0
C148 C 0.30845 0.76807 0.57658 0.0
C149 C 0.47705 0.66298 0.78828 0.0
C150 C 0.45149 0.61907 0.77812 0.0
C151 C 0.2799 0.68197 0.83543 0.0
C152 C 0.18108 0.76207 0.03939 0.0
C153 C 0.21134 0.75315 0.09426 0.0
C154 C 0.19853 0.77271 0.15651 0.0
C155 C 0.15515 0.80201 0.16219 0.0
C156 C 0.13826 0.79161 0.04678 0.0
C157 C 0.12551 0.81137 0.10787 0.0
C158 C 0.30859 0.82392 0.83498 0.0
C159 C 0.19421 0.7387 0.97597 0.0
H160 H 0.26278 0.77487 0.46022 0.0
H161 H 0.37546 0.69928 0.34389 0.0
H162 H 0.3947 0.71643 0.5504 0.0
H163 H 0.42462 0.68612 0.44269 0.0
H164 H 0.24495 0.73114 0.08816 0.0
H165 H 0.14359 0.81714 0.2091 0.0
H166 H 0.11447 0.79911 1.00559 0.0
H167 H 0.09212 0.83367 0.11346 0.0
Eu168 Eu 0.50847 0.95789 0.10293 0.0
C169 C 0.46262 0.15542 0.99706 0.0
C170 C 0.37307 0.15073 0.99398 0.0
C171 C 0.41137 0.22497 0.03173 0.0
C172 C 0.42056 0.12876 0.98548 0.0
C173 C 0.45861 0.20449 1.01822 0.0
C174 C 0.36875 0.19831 1.01911 0.0
C175 C 0.54721 0.21273 0.99771 0.0
N176 N 0.50744 0.13511 0.98143 0.0
C177 C 0.54895 0.16422 0.97636 0.0
C178 C 0.502 0.23255 1.02046 0.0
Eu179 Eu 0.50903 0.04898 0.96133 0.0
N180 N 0.42625 0.08263 0.96173 0.0
C181 C 0.38608 0.05943 0.93763 0.0
C182 C 0.33158 0.12495 0.97488 0.0
C183 C 0.33829 0.07966 0.94505 0.0
H184 H 0.58379 0.14951 0.957 0.0
H185 H 0.30667 0.06043 0.92717 0.0
H186 H 0.33286 0.21578 1.02614 0.0
H187 H 0.58052 0.23509 0.9952 0.0
H188 H 0.38992 0.02583 0.91114 0.0
H189 H 0.71115 0.93406 0.13119 0.0
H190 H 0.29454 0.14045 0.98059 0.0
H191 H 0.4297 0.85926 0.10668 0.0
H192 H 0.63014 0.97225 0.15207 0.0
H193 H 0.4282 0.77625 0.06057 0.0
H194 H 0.40715 0.26264 0.04737 0.0
H195 H 0.71838 0.85665 0.07041 0.0
H196 H 0.67592 0.78718 1.01665 0.0
H197 H 0.50056 0.27089 0.03396 0.0
H198 H 0.59812 0.74546 0.99285 0.0
N199 N 0.58971 0.91958 0.0994 0.0
C200 C 0.63159 0.93953 0.12364 0.0
C201 C 0.68217 0.87348 0.07912 0.0
C202 C 0.63907 0.85088 0.05928 0.0
C203 C 0.67823 0.91731 0.11303 0.0
C204 C 0.59276 0.87449 0.07189 0.0
H205 H 0.50586 0.74001 1.0118 0.0
N206 N 0.50569 0.87215 0.07865 0.0
C207 C 0.46238 0.79723 0.05805 0.0
C208 C 0.54927 0.8506 0.05968 0.0
C209 C 0.46327 0.8444 0.0839 0.0
C210 C 0.50606 0.77706 0.03046 0.0
C211 C 0.55062 0.80293 0.03344 0.0
O212 O 0.48762 0.91276 0.19284 0.0
O213 O 0.48238 0.03399 0.06759 0.0
O214 O 0.56813 0.07408 1.02851 0.0
O215 O 0.56253 0.01809 0.11958 0.0
O216 O 0.42967 0.98691 0.1141 0.0
O217 O 0.50925 0.98882 0.20098 0.0
O218 O 0.53861 0.091 0.87301 0.0
O219 O 0.5363 0.9743 0.9976 0.0
O220 O 0.44518 0.93683 0.04051 0.0
O221 O 0.46053 0.98397 0.94263 0.0
O222 O 0.58857 0.02201 0.95161 0.0
O223 O 0.50142 0.02158 0.86205 0.0
C224 C 0.43774 0.03187 0.09077 0.0
C225 C 0.5194 0.93596 0.29608 0.0
C226 C 0.52818 0.95216 0.41348 0.0
C227 C 0.50805 0.96466 0.35162 0.0
C228 C 0.56059 0.91111 0.41865 0.0
C229 C 0.55231 0.89552 0.30245 0.0
C230 C 0.57276 0.88331 0.36345 0.0
C231 C 0.58077 0.05804 0.08812 0.0
C232 C 0.49529 0.94819 0.23292 0.0
C233 C 0.59647 0.78154 1.01457 0.0
C234 C 0.64074 0.8052 1.02832 0.0
C235 C 0.58109 0.97711 0.97525 0.0
C236 C 0.50288 0.07794 0.76865 0.0
C237 C 0.51011 0.05004 0.71157 0.0
C238 C 0.49215 0.06736 0.65006 0.0
C239 C 0.46703 0.11333 0.64664 0.0
C240 C 0.47704 0.12332 0.76404 0.0
C241 C 0.45936 0.14085 0.70327 0.0
C242 C 0.43718 0.94844 0.97794 0.0
C243 C 0.52367 0.05916 0.83163 0.0
H244 H 0.48277 0.99606 0.34703 0.0
H245 H 0.57691 0.90084 0.46538 0.0
H246 H 0.56194 0.87323 0.2605 0.0
H247 H 0.59801 0.85197 0.36807 0.0
H248 H 0.53045 0.01516 0.71489 0.0
H249 H 0.45269 0.12765 0.6003 0.0
H250 H 0.47076 0.14527 0.80722 0.0
H251 H 0.4396 0.17599 0.70001 0.0
Eu252 Eu 0.29558 0.2609 0.34732 0.0
C253 C 0.11082 0.25193 0.15162 0.0
C254 C 0.08278 0.16662 0.15462 0.0
C255 C 0.03689 0.23054 0.09385 0.0
C256 C 0.11702 0.20283 0.17212 0.0
C257 C 0.07068 0.26646 0.11224 0.0
C258 C 0.04281 0.18073 0.11525 0.0
C259 C 0.09951 0.35109 0.11371 0.0
N260 N 0.1447 0.28539 0.16908 0.0
C261 C 0.13929 0.33466 0.15139 0.0
C262 C 0.0656 0.31673 0.09283 0.0
Eu263 Eu 0.22014 0.252 0.20862 0.0
N264 N 0.15762 0.19018 0.2069 0.0
C265 C 0.1664 0.14144 0.22454 0.0
C266 C 0.09032 0.11716 0.17601 0.0
C267 C 0.13227 0.10457 0.21142 0.0
H268 H 0.16603 0.36155 0.16514 0.0
H269 H 0.13939 0.06617 0.22642 0.0
H270 H 0.01626 0.15345 0.10125 0.0
H271 H 0.09563 0.39016 0.09991 0.0
H272 H 0.20059 0.13023 0.24659 0.0
H273 H 0.37478 0.44731 0.3346 0.0
H274 H 0.06469 0.08835 0.16408 0.0
H275 H 0.35095 0.15065 0.38306 0.0
H276 H 0.31293 0.38359 0.31474 0.0
H277 H 0.42339 0.12077 0.44434 0.0
H278 H 0.00578 0.241 0.06379 0.0
H279 H 0.45138 0.42384 0.392 0.0
H280 H 0.50169 0.35755 0.44969 0.0
H281 H 0.03515 0.32946 0.06297 0.0
H282 H 0.51355 0.26927 0.4825 0.0
N283 N 0.3576 0.32298 0.34906 0.0
C284 C 0.34798 0.37203 0.33433 0.0
C285 C 0.42556 0.39528 0.37988 0.0
C286 C 0.43394 0.34538 0.39846 0.0
C287 C 0.38246 0.40861 0.34732 0.0
C288 C 0.39939 0.30953 0.38083 0.0
H289 H 0.48441 0.18086 0.48107 0.0
N290 N 0.37216 0.22676 0.38146 0.0
C291 C 0.41901 0.16005 0.43193 0.0
C292 C 0.40639 0.25994 0.39872 0.0
C293 C 0.37824 0.17714 0.39654 0.0
C294 C 0.45329 0.19407 0.45277 0.0
C295 C 0.44762 0.24467 0.43556 0.0
O296 O 0.28787 0.23392 0.45157 0.0
O297 O 0.22152 0.23011 0.31751 0.0
O298 O 0.1747 0.29846 0.28255 0.0
O299 O 0.24202 0.32728 0.33709 0.0
O300 O 0.26685 0.1833 0.3714 0.0
O301 O 0.27133 0.31046 0.42304 0.0
O302 O 0.23047 0.2764 0.104 0.0
O303 O 0.29313 0.2839 0.23915 0.0
O304 O 0.34132 0.21589 0.27173 0.0
O305 O 0.27259 0.18535 0.22332 0.0
O306 O 0.24785 0.3305 0.18526 0.0
O307 O 0.24701 0.20035 0.13601 0.0
C308 C 0.22375 0.18707 0.34655 0.0
C309 C 0.29801 0.29508 0.53139 0.0
C310 C 0.2982 0.29426 0.65173 0.0
C311 C 0.28248 0.2741 0.59334 0.0
C312 C 0.33149 0.33434 0.64747 0.0
C313 C 0.33061 0.33574 0.5281 0.0
C314 C 0.34758 0.35486 0.58587 0.0
C315 C 0.19403 0.32904 0.32451 0.0
C316 C 0.27528 0.27777 0.4718 0.0
C317 C 0.48165 0.28028 0.45425 0.0
C318 C 0.47495 0.33051 0.43546 0.0
C319 C 0.2905 0.32731 0.21132 0.0
C320 C 0.22104 0.21344 1.0267 0.0
C321 C 0.23562 0.23498 0.96479 0.0
C322 C 0.22001 0.21481 0.90636 0.0
C323 C 0.189 0.17293 0.91063 0.0
C324 C 0.18995 0.1716 1.03012 0.0
C325 C 0.1738 0.15174 0.97229 0.0
C326 C 0.32107 0.18413 0.23235 0.0
C327 C 0.24315 0.232 0.086 0.0
H328 H 0.25606 0.24378 0.59609 0.0
H329 H 0.34446 0.3502 0.69179 0.0
H330 H 0.34178 0.35378 0.48121 0.0
H331 H 0.37214 0.38656 0.58281 0.0
H332 H 0.26105 0.2661 0.96215 0.0
H333 H 0.17691 0.15642 0.86628 0.0
H334 H 0.17937 0.1533 0.07711 0.0
H335 H 0.15038 0.11915 0.97528 0.0
Eu336 Eu 0.80564 0.25561 0.20892 0.0
C337 C 0.59312 0.26746 0.3266 0.0
C338 C 0.56974 0.35177 0.29573 0.0
C339 C 0.50996 0.28503 0.29026 0.0
C340 C 0.60565 0.3166 0.31585 0.0
C341 C 0.54498 0.251 0.31502 0.0
C342 C 0.52216 0.33555 0.28109 0.0
C343 C 0.56752 0.17085 0.36344 0.0
N344 N 0.62769 0.2361 0.35161 0.0
C345 C 0.61483 0.18925 0.37447 0.0
C346 C 0.53313 0.20128 0.33096 0.0
Eu347 Eu 0.71073 0.26467 0.34634 0.0
N348 N 0.65243 0.33029 0.3286 0.0
C349 C 0.66437 0.37954 0.32899 0.0
C350 C 0.58248 0.40207 0.2924 0.0
C351 C 0.62962 0.41614 0.31079 0.0
H352 H 0.64217 0.16515 0.39717 0.0
H353 H 0.63954 0.45507 0.30969 0.0
H354 H 0.49416 0.36195 0.2648 0.0
H355 H 0.55787 0.1331 0.3789 0.0
H356 H 0.70096 0.391 0.34149 0.0
H357 H 0.86333 0.05959 0.23894 0.0
H358 H 0.55596 0.4302 0.27699 0.0
H359 H 0.87864 0.3535 0.1719 0.0
H360 H 0.80657 0.12775 0.20871 0.0
H361 H 0.96718 0.3764 0.18016 0.0
H362 H 0.47268 0.27294 0.28138 0.0
H363 H 0.94817 0.07816 0.27302 0.0
H364 H 0.01435 0.14127 0.28867 0.0
H365 H 0.49685 0.18677 0.32122 0.0
H366 H 0.04276 0.22795 0.27261 0.0
N367 N 0.85885 0.18517 0.22359 0.0
C368 C 0.84369 0.13685 0.22164 0.0
C369 C 0.92374 0.10816 0.25801 0.0
C370 C 0.94003 0.15733 0.25575 0.0
C371 C 0.87587 0.09771 0.23888 0.0
C372 C 0.90663 0.19532 0.2364 0.0
H373 H 0.0268 0.3138 0.22486 0.0
N374 N 0.88983 0.27892 0.20716 0.0
C375 C 0.95496 0.33906 0.19423 0.0
C376 C 0.92274 0.24364 0.22714 0.0
C377 C 0.90519 0.32592 0.18882 0.0
C378 C 0.98849 0.30387 0.21944 0.0
C379 C 0.97263 0.25552 0.23632 0.0
O380 O 0.81355 0.29459 0.11193 0.0
O381 O 0.73064 0.28549 0.23985 0.0
O382 O 0.68008 0.21391 0.27284 0.0
O383 O 0.74997 0.19413 0.20595 0.0
O384 O 0.7775 0.33439 0.18715 0.0
O385 O 0.7968 0.21578 0.11833 0.0
O386 O 0.70796 0.23254 0.44794 0.0
O387 O 0.78448 0.23309 0.31417 0.0
O388 O 0.83792 0.29623 0.29163 0.0
O389 O 0.76532 0.32845 0.33801 0.0
O390 O 0.73868 0.18671 0.37211 0.0
O391 O 0.72286 0.31078 0.4304 0.0
C392 C 0.73285 0.3286 0.21192 0.0
C393 C 0.82893 0.24978 1.01457 0.0
C394 C 0.8248 0.2553 0.89384 0.0
C395 C 0.80248 0.261 0.95721 0.0
C396 C 0.87421 0.238 0.88886 0.0
C397 C 0.87827 0.23311 1.00867 0.0
C398 C 0.90072 0.22722 0.94592 0.0
C399 C 0.70351 0.18789 0.22729 0.0
C400 C 0.8035 0.2554 0.07951 0.0
C401 C 1.00487 0.2189 0.26191 0.0
C402 C 0.98863 0.16967 0.27137 0.0
C403 C 0.78217 0.19038 0.34317 0.0
C404 C 0.69665 0.28428 0.53981 0.0
C405 C 0.72615 0.27846 0.5955 0.0
C406 C 0.7068 0.28906 0.6591 0.0
C407 C 0.65704 0.30515 0.66598 0.0
C408 C 0.64729 0.30054 0.54766 0.0
C409 C 0.62764 0.31086 0.61063 0.0
C410 C 0.81419 0.32531 0.33343 0.0
C411 C 0.71901 0.27405 0.47425 0.0
H412 H 0.76408 0.27327 0.962 0.0
H413 H 0.89241 0.23319 0.84084 0.0
H414 H 0.89918 0.22448 0.05237 0.0
H415 H 0.9388 0.21416 0.94145 0.0
H416 H 0.76449 0.26627 0.58915 0.0
H417 H 0.64062 0.31265 0.71429 0.0
H418 H 0.62415 0.30527 0.50526 0.0
H419 H 0.58942 0.32324 0.61662 0.0
Eu420 Eu 0.79842 0.76192 0.85167 0.0
C421 C 0.6062 0.74516 0.67788 0.0
C422 C 0.58275 0.65828 0.68381 0.0
C423 C 0.5286 0.71974 0.63209 0.0
C424 C 0.61674 0.69622 0.69608 0.0
C425 C 0.56199 0.75744 0.64567 0.0
C426 C 0.53879 0.67034 0.65162 0.0
C427 C 0.5881 0.84321 0.63916 0.0
N428 N 0.64083 0.78023 0.68708 0.0
C429 C 0.63226 0.82893 0.66891 0.0
C430 C 0.55329 0.80711 0.62628 0.0
Eu431 Eu 0.72083 0.75092 0.71393 0.0
N432 N 0.66231 0.6851 0.71908 0.0
C433 C 0.67597 0.63661 0.73069 0.0
C434 C 0.59534 0.60896 0.70041 0.0
C435 C 0.64223 0.5981 0.72413 0.0
H436 H 0.66006 0.85674 0.67565 0.0
H437 H 0.6531 0.55992 0.73511 0.0
H438 H 0.51274 0.64161 0.641 0.0
H439 H 0.58167 0.88176 0.62425 0.0
H440 H 0.71306 0.62715 0.74494 0.0
H441 H 0.88558 0.9442 0.83493 0.0
H442 H 0.56998 0.57892 0.6926 0.0
H443 H 0.85043 0.64783 0.88107 0.0
H444 H 0.81854 0.88368 0.82358 0.0
H445 H 0.92902 0.61343 0.92156 0.0
H446 H 0.49461 0.72844 0.607 0.0
H447 H 0.96661 0.91567 0.87626 0.0
H448 H 0.01922 0.84556 0.92029 0.0
H449 H 0.51998 0.8177 0.60094 0.0
H450 H 0.03024 0.75642 0.94664 0.0
N451 N 0.86347 0.82069 0.84746 0.0
C452 C 0.85493 0.87036 0.83649 0.0
C453 C 0.93815 0.8887 0.86775 0.0
C454 C 0.94595 0.83797 0.88191 0.0
C455 C 0.8925 0.90492 0.84444 0.0
C456 C 0.90788 0.80425 0.8695 0.0
H457 H 0.99766 0.6695 0.94478 0.0
N458 N 0.8754 0.723 0.87607 0.0
C459 C 0.92491 0.6531 0.91235 0.0
C460 C 0.91378 0.75402 0.88515 0.0
C461 C 0.88043 0.67291 0.88899 0.0
C462 C 0.9637 0.68484 0.92513 0.0
C463 C 0.95835 0.73599 0.91203 0.0
O464 O 0.78485 0.73672 0.95468 0.0
O465 O 0.72548 0.72951 0.82181 0.0
O466 O 0.67623 0.79583 0.79002 0.0
O467 O 0.74428 0.8272 0.84023 0.0
O468 O 0.7693 0.68443 0.87969 0.0
O469 O 0.78722 0.81574 0.92853 0.0
O470 O 0.73061 0.78048 0.61204 0.0
O471 O 0.79269 0.78451 0.74407 0.0
O472 O 0.84475 0.72189 0.774 0.0
O473 O 0.77854 0.68778 0.72311 0.0
O474 O 0.74724 0.83013 0.68893 0.0
O475 O 0.73906 0.70133 0.63392 0.0
C476 C 0.72723 0.68687 0.85183 0.0
C477 C 0.81147 0.78923 0.03575 0.0
C478 C 0.81561 0.7787 0.15508 0.0
C479 C 0.78974 0.77401 0.09708 0.0
C480 C 0.86428 0.7973 0.15117 0.0
C481 C 0.85905 0.81033 0.0328 0.0
C482 C 0.88573 0.81341 0.09012 0.0
C483 C 0.69595 0.8273 0.83031 0.0
C484 C 0.78372 0.78163 0.97624 0.0
C485 C 0.99593 0.76949 0.9255 0.0
C486 C 0.98966 0.82032 0.91056 0.0
C487 C 0.78992 0.8276 0.71542 0.0
C488 C 0.71338 0.72687 0.52712 0.0
C489 C 0.73746 0.73959 0.46625 0.0
C490 C 0.71428 0.73153 0.40701 0.0
C491 C 0.66592 0.71245 0.40896 0.0
C492 C 0.66596 0.70561 0.52832 0.0
C493 C 0.64195 0.69935 0.46955 0.0
C494 C 0.82672 0.68947 0.73405 0.0
C495 C 0.73847 0.73688 0.58804 0.0
H496 H 0.75256 0.75855 0.09972 0.0
H497 H 0.88508 0.80056 0.19539 0.0
H498 H 0.87549 0.82469 0.98676 0.0
H499 H 0.92283 0.82883 0.08727 0.0
H500 H 0.77412 0.756 0.46484 0.0
H501 H 0.64731 0.70704 0.36357 0.0
H502 H 0.64749 0.69378 0.57415 0.0
H503 H 0.60485 0.68418 0.47111 0.0
Eu504 Eu 0.50187 0.46584 0.95527 0.0
C505 C 0.50789 0.65926 0.13105 0.0
C506 C 0.5928 0.68867 0.12854 0.0
C507 C 0.52671 0.73806 0.17876 0.0
C508 C 0.55761 0.65244 0.11402 0.0
C509 C 0.49174 0.70251 0.16278 0.0
C510 C 0.57712 0.73121 0.16154 0.0
C511 C 0.40778 0.6717 0.16243 0.0
N512 N 0.47558 0.62262 0.11924 0.0
C513 C 0.42585 0.62849 0.13372 0.0
C514 C 0.44097 0.70845 0.17826 0.0
Eu515 Eu 0.51125 0.54504 0.0912 0.0
N516 N 0.57218 0.60846 0.08897 0.0
C517 C 0.62154 0.59858 0.0774 0.0
C518 C 0.64304 0.67988 0.11257 0.0
C519 C 0.65743 0.63464 0.08655 0.0
H520 H 0.39981 0.59975 0.12398 0.0
H521 H 0.69637 0.62673 0.076 0.0
H522 H 0.60369 0.75903 0.17395 0.0
H523 H 0.3684 0.67611 0.17378 0.0
H524 H 0.63373 0.56237 0.06254 0.0
H525 H 0.31674 0.38449 0.97338 0.0
H526 H 0.67109 0.70702 0.12219 0.0
H527 H 0.61332 0.41132 0.9237 0.0
H528 H 0.3795 0.44889 0.98628 0.0
H529 H 0.64475 0.33358 0.87699 0.0
H530 H 0.51508 0.77127 0.20368 0.0
H531 H 0.34202 0.30383 0.92839 0.0
H532 H 0.40933 0.25119 0.87803 0.0
H533 H 0.42702 0.74134 0.20204 0.0
H534 H 0.49795 0.23836 0.84904 0.0
N535 N 0.441 0.40241 0.96077 0.0
C536 C 0.39165 0.41245 0.97224 0.0
C537 C 0.37008 0.33089 0.93812 0.0
C538 C 0.42037 0.32172 0.92292 0.0
C539 C 0.35571 0.37637 0.96341 0.0
C540 C 0.45562 0.35798 0.93711 0.0
H541 H 0.58608 0.26786 0.85095 0.0
N542 N 0.53778 0.38787 0.93052 0.0
C543 C 0.60543 0.33822 0.88837 0.0
C544 C 0.50541 0.35093 0.92013 0.0
C545 C 0.58742 0.38204 0.91552 0.0
C546 C 0.57221 0.30111 0.87388 0.0
C547 C 0.52146 0.30731 0.88923 0.0
O548 O 0.52866 0.47718 0.85237 0.0
O549 O 0.53342 0.53952 0.98371 0.0
O550 O 0.46671 0.58891 1.01391 0.0
O551 O 0.43623 0.5203 0.96411 0.0
O552 O 0.57933 0.49514 0.9278 0.0
O553 O 0.44948 0.47859 0.87661 0.0
O554 O 0.48394 0.53143 0.19342 0.0
O555 O 0.47936 0.4717 0.06276 0.0
O556 O 0.54639 0.42219 0.03292 0.0
O557 O 0.57749 0.49126 0.08062 0.0
O558 O 0.43292 0.51717 0.11615 0.0
O559 O 0.56309 0.528 0.16911 0.0
C560 C 0.57627 0.53768 0.95432 0.0
C561 C 0.47552 0.45328 0.76975 0.0
C562 C 0.48216 0.45066 0.64977 0.0
C563 C 0.48887 0.47576 0.70805 0.0
C564 C 0.46431 0.40172 0.65392 0.0
C565 C 0.45466 0.40563 0.77271 0.0
C566 C 0.45025 0.37949 0.7153 0.0
C567 C 0.43518 0.56864 0.97422 0.0
C568 C 0.48411 0.48043 0.82961 0.0
C569 C 0.4864 0.27177 0.87354 0.0
C570 C 0.43598 0.27895 0.89039 0.0
C571 C 0.43614 0.47417 0.09102 0.0
C572 C 0.5379 0.55062 0.27692 0.0
C573 C 0.52286 0.52736 0.33748 0.0
C574 C 0.53023 0.55066 0.39674 0.0
C575 C 0.55181 0.59801 0.39498 0.0
C576 C 0.56104 0.59714 0.27593 0.0
C577 C 0.56704 0.62113 0.33462 0.0
C578 C 0.57806 0.44267 0.07218 0.0
C579 C 0.52836 0.5257 0.21594 0.0
H580 H 0.50431 0.51292 0.70538 0.0
H581 H 0.45991 0.38131 0.60965 0.0
H582 H 0.44142 0.38873 0.81884 0.0
H583 H 0.43527 0.34222 0.71836 0.0
H584 H 0.50515 0.49128 0.33855 0.0
H585 H 0.55755 0.61654 0.44033 0.0
H586 H 0.57474 0.61478 0.23029 0.0
H587 H 0.58374 0.65751 0.33319 0.0
Eu588 Eu 1.00422 0.45399 0.60979 0.0
C589 C 0.95923 0.65074 0.49511 0.0
C590 C 0.86939 0.64751 0.50413 0.0
C591 C 0.9118 0.72364 0.52658 0.0
C592 C 0.91583 0.62436 0.49185 0.0
C593 C 0.95782 0.70104 0.51145 0.0
C594 C 0.86776 0.69686 0.52336 0.0
C595 C 0.04619 0.70481 0.48609 0.0
N596 N 1.00262 0.62802 0.47806 0.0
C597 C 0.04514 0.6553 0.46812 0.0
C598 C 1.0025 0.72741 0.50962 0.0
Eu599 Eu 0.99982 0.54076 0.4648 0.0
N600 N 0.91896 0.57659 0.47386 0.0
C601 C 0.87699 0.55209 0.45866 0.0
C602 C 0.82609 0.62077 0.49478 0.0
C603 C 0.82998 0.57334 0.46991 0.0
H604 H 0.07882 0.63801 0.44904 0.0
H605 H 0.79684 0.55318 0.45917 0.0
H606 H 0.8327 0.71515 0.534 0.0
H607 H 0.08053 0.72555 0.48136 0.0
H608 H 0.87934 0.51662 0.43653 0.0
H609 H 0.19734 0.38683 0.63105 0.0
H610 H 0.78969 0.63715 0.50381 0.0
H611 H 0.90697 0.37136 0.6235 0.0
H612 H 0.12603 0.44174 0.65428 0.0
H613 H 0.88756 0.28947 0.58201 0.0
H614 H 0.90938 0.7624 0.53763 0.0
H615 H 0.18713 0.31309 0.56423 0.0
H616 H 0.13014 0.25773 0.50551 0.0
H617 H 1.00326 0.76599 0.52241 0.0
H618 H 0.0441 0.23028 0.49297 0.0
N619 N 0.07528 0.40042 0.59995 0.0
C620 C 0.12066 0.41006 0.62462 0.0
C621 C 0.15557 0.33699 0.57464 0.0
C622 C 0.10839 0.32535 0.55374 0.0
C623 C 0.16136 0.37856 0.61235 0.0
C624 C 0.0682 0.35709 0.57006 0.0
H625 H 0.95338 0.2402 0.52598 0.0
N626 N 0.98276 0.37029 0.58783 0.0
C627 C 0.92495 0.30394 0.57561 0.0
C628 C 0.02014 0.34159 0.56346 0.0
C629 C 0.93626 0.35047 0.59905 0.0
C630 C 0.96212 0.27631 0.5438 0.0
C631 C 0.01084 0.29428 0.53933 0.0
O632 O 0.95118 0.43561 0.69283 0.0
O633 O 0.96439 0.52166 0.56525 0.0
O634 O 0.05598 0.56918 0.53486 0.0
O635 O 0.07209 0.502 0.60816 0.0
O636 O 0.99206 0.52687 0.65876 0.0
O637 O 0.02908 0.447 0.71149 0.0
O638 O 0.03204 0.5712 0.3701 0.0
O639 O 0.03048 0.46739 0.5021 0.0
O640 O 0.93157 0.44659 0.55876 0.0
O641 O 0.95905 0.47005 0.45263 0.0
O642 O 0.07956 0.51588 0.45107 0.0
O643 O 0.97243 0.51822 0.37032 0.0
C644 C 0.96685 0.54951 0.61411 0.0
C645 C 0.97727 0.41744 0.80431 0.0
C646 C 0.97092 0.42713 0.92432 0.0
C647 C 0.97468 0.44806 0.85921 0.0
C648 C 0.96959 0.37511 0.93368 0.0
C649 C 0.97508 0.36575 0.81477 0.0
C650 C 0.97135 0.34475 0.87923 0.0
C651 C 0.08041 0.54751 0.58386 0.0
C652 C 0.98435 0.44057 0.73718 0.0
C653 C 0.05063 0.26586 0.51397 0.0
C654 C 0.09958 0.28152 0.52105 0.0
C655 C 0.07484 0.47142 0.47752 0.0
C656 C 0.98739 0.56618 0.2701 0.0
C657 C 0.98405 0.53466 0.21652 0.0
C658 C 0.97058 0.55351 0.15348 0.0
C659 C 0.96066 0.60483 0.14528 0.0
C660 C 0.97663 0.61693 0.26068 0.0
C661 C 0.96333 0.63603 0.19851 0.0
C662 C 0.92871 0.44548 0.49421 0.0
C663 C 1.00388 0.54504 0.33423 0.0
H664 H 0.97664 0.48813 0.85132 0.0
H665 H 0.96677 0.35801 0.98313 0.0
H666 H 0.97669 0.34182 0.77323 0.0
H667 H 0.97021 0.30475 0.88702 0.0
H668 H 0.99204 0.49535 0.22401 0.0
H669 H 0.95178 0.62119 0.09736 0.0
H670 H 0.97895 0.64178 0.30108 0.0
H671 H 0.9556 0.67538 0.19129 0.0
C672 C 0.09762 0.13247 0.42116 0.0
C673 C 0.11129 0.083 0.44037 0.0
C674 C 0.13261 0.16642 0.38866 0.0
C675 C 0.1826 0.15217 0.37371 0.0
H676 H 0.05962 0.14471 0.43011 0.0
H677 H 0.12061 0.204 0.37596 0.0
S678 S 0.23682 0.02731 0.41291 0.0
N679 N 0.17872 0.02283 0.44154 0.0
N680 N 0.24246 0.08449 0.38092 0.0
C681 C 0.19589 0.10292 0.39276 0.0
C682 C 0.16098 0.06911 0.42564 0.0
C683 C 0.11253 0.86415 0.62251 0.0
C684 C 0.11536 0.91664 0.61774 0.0
C685 C 0.1478 0.83491 0.6573 0.0
C686 C 0.18732 0.85691 0.68901 0.0
H687 H 0.08263 0.84541 0.5997 0.0
H688 H 0.14441 0.7948 0.65871 0.0
S689 S 0.21366 0.99181 0.68983 0.0
N690 N 0.16293 0.98854 0.64727 0.0
N691 N 0.22823 0.93382 0.71112 0.0
C692 C 0.19108 0.90891 0.68362 0.0
C693 C 0.15534 0.93865 0.64882 0.0
C694 C 0.37592 0.88658 0.8392 0.0
C695 C 0.33872 0.85769 0.87239 0.0
C696 C 0.40711 0.91623 0.87387 0.0
C697 C 0.40188 0.91867 0.94308 0.0
H698 H 0.38133 0.88634 0.78602 0.0
H699 H 0.43609 0.93673 0.84601 0.0
S700 S 0.307 0.85463 0.0534 0.0
N701 N 0.2971 0.83518 0.97905 0.0
N702 N 0.35377 0.8938 0.04303 0.0
C703 C 0.36348 0.89191 0.97678 0.0
C704 C 0.33229 0.86081 0.94173 0.0
C705 C 0.43198 0.1137 0.15059 0.0
C706 C 0.40886 0.07355 0.12148 0.0
C707 C 0.40399 0.14892 0.18722 0.0
C708 C 0.35171 0.14538 0.19654 0.0
H709 H 0.47203 0.11742 0.14608 0.0
H710 H 0.42347 0.17923 0.20803 0.0
S711 S 0.27393 0.04623 0.13069 0.0
N712 N 0.33108 0.03231 0.10505 0.0
N713 N 0.27889 0.09684 0.17285 0.0
C714 C 0.32866 0.10507 0.16738 0.0
C715 C 0.35705 0.06964 0.13049 0.0
C716 C 0.85203 0.94921 0.65106 0.0
C717 C 0.90057 0.93625 0.62843 0.0
C718 C 0.81827 0.91395 0.6803 0.0
C719 C 0.83095 0.86335 0.69074 0.0
H720 H 0.83958 0.98749 0.64577 0.0
H721 H 0.78135 0.92668 0.69509 0.0
S722 S 0.95257 0.8084 0.63882 0.0
N723 N 0.95904 0.86793 0.61716 0.0
N724 N 0.89607 0.80177 0.67321 0.0
C725 C 0.87944 0.8494 0.66851 0.0
C726 C 0.91392 0.88562 0.63736 0.0
C727 C 0.90128 0.15513 0.43349 0.0
C728 C 0.8954 0.10353 0.44753 0.0
C729 C 0.86631 0.18311 0.3964 0.0
C730 C 0.82417 0.16065 0.37147 0.0
H731 H 0.93318 0.17405 0.45108 0.0
H732 H 0.87146 0.22276 0.389 0.0
S733 S 0.79076 0.02743 0.39315 0.0
N734 N 0.84307 0.0318 0.4321 0.0
N735 N 0.7786 0.08413 0.36365 0.0
C736 C 0.81804 0.10941 0.38489 0.0
C737 C 0.85333 0.08097 0.42213 0.0
C738 C 0.67176 0.15819 0.12435 0.0
C739 C 0.67514 0.15231 0.19308 0.0
C740 C 0.64248 0.1263 0.09031 0.0
C741 C 0.61541 0.08792 0.12417 0.0
H742 H 0.69102 0.18829 0.09696 0.0
H743 H 0.64094 0.13216 0.03732 0.0
S744 S 0.61973 0.05326 0.30413 0.0
N745 N 0.65584 0.10243 0.29304 0.0
N746 N 0.59827 0.0434 0.23076 0.0
C747 C 0.62076 0.08051 0.19313 0.0
C748 C 0.6512 0.1127 0.22727 0.0
C749 C 0.68797 0.90368 0.89754 0.0
C750 C 0.66455 0.86488 0.866 0.0
C751 C 0.66066 0.93869 0.93393 0.0
C752 C 0.60865 0.93619 0.94195 0.0
H753 H 0.72802 0.90751 0.89396 0.0
H754 H 0.68056 0.96808 0.95619 0.0
S755 S 0.52838 0.8434 0.86958 0.0
N756 N 0.58527 0.8269 0.84538 0.0
N757 N 0.53431 0.89309 0.91324 0.0
C758 C 0.58447 0.89815 0.91041 0.0
C759 C 0.61226 0.86244 0.87282 0.0
C760 C 0.59983 0.62905 0.91671 0.0
C761 C 0.61294 0.57875 0.93199 0.0
C762 C 0.63549 0.66425 0.88861 0.0
C763 C 0.68586 0.65073 0.87489 0.0
H764 H 0.56174 0.64111 0.92544 0.0
H765 H 0.6237 0.70227 0.87844 0.0
S766 S 0.73907 0.52425 0.90474 0.0
N767 N 0.68027 0.51841 0.92993 0.0
N768 N 0.74562 0.58293 0.87908 0.0
C769 C 0.69876 0.60077 0.89033 0.0
C770 C 0.66295 0.56541 0.91795 0.0
C771 C 0.69524 0.40794 0.16613 0.0
C772 C 0.69068 0.35653 0.1809 0.0
C773 C 0.65885 0.43498 0.13125 0.0
C774 C 0.61669 0.41174 0.10732 0.0
H775 H 0.72734 0.4276 0.18191 0.0
H776 H 0.66433 0.47457 0.12229 0.0
S777 S 0.58838 0.27705 0.13032 0.0
N778 N 0.64119 0.28313 0.1675 0.0
N779 N 0.57356 0.33317 0.1007 0.0
C780 C 0.61218 0.36002 0.1208 0.0
C781 C 0.64889 0.33269 0.15766 0.0
C782 C 0.84655 0.41672 0.46151 0.0
C783 C 0.89784 0.40922 0.46518 0.0
C784 C 0.81937 0.38921 0.4186 0.0
C785 C 0.84289 0.35305 0.37951 0.0
H786 H 0.82805 0.44577 0.48877 0.0
H787 H 0.78011 0.39733 0.41488 0.0
S788 S 0.97565 0.31523 0.38189 0.0
N789 N 0.97068 0.36232 0.43097 0.0
N790 N 0.9193 0.30695 0.35579 0.0
C791 C 0.89365 0.34319 0.3872 0.0
C792 C 0.92124 0.37228 0.42876 0.0
C793 C 0.91287 0.66366 0.69466 0.0
C794 C 0.86143 0.65388 0.70037 0.0
C795 C 0.94633 0.63093 0.66325 0.0
C796 C 0.92983 0.58732 0.63538 0.0
H797 H 0.9276 0.69674 0.71502 0.0
H798 H 0.98568 0.63941 0.66165 0.0
S799 S 0.80024 0.54125 0.64244 0.0
N800 N 0.79638 0.59525 0.67798 0.0
N801 N 0.85951 0.53379 0.62052 0.0
C802 C 0.87885 0.57651 0.64155 0.0
C803 C 0.84463 0.60986 0.67328 0.0
C804 C 0.31829 0.4121 0.16831 0.0
C805 C 0.33152 0.3624 0.18494 0.0
C806 C 0.35217 0.44628 0.13698 0.0
C807 C 0.40149 0.43301 0.11851 0.0
H808 H 0.2808 0.42498 0.17968 0.0
H809 H 0.33929 0.48398 0.12685 0.0
S810 S 0.45564 0.30752 0.14884 0.0
N811 N 0.39814 0.30155 0.17966 0.0
N812 N 0.46173 0.36559 0.11991 0.0
C813 C 0.41553 0.38331 0.1343 0.0
C814 C 0.38079 0.34828 0.16751 0.0
C815 C 0.35551 0.57574 0.91288 0.0
C816 C 0.39602 0.59951 0.94031 0.0
C817 C 0.31891 0.60267 0.87842 0.0
C818 C 0.32154 0.65459 0.86798 0.0
H819 H 0.35167 0.53573 0.91823 0.0
H820 H 0.28837 0.58251 0.85918 0.0
S821 S 0.41817 0.73568 0.92989 0.0
N822 N 0.43537 0.67911 0.955 0.0
N823 N 0.36643 0.72918 0.89054 0.0
C824 C 0.36112 0.67908 0.89576 0.0
C825 C 0.39836 0.65176 0.93153 0.0
C826 C 0.16783 0.65047 0.61843 0.0
C827 C 0.17217 0.64477 0.6873 0.0
C828 C 0.13975 0.61741 0.58461 0.0
C829 C 0.11519 0.57763 0.61853 0.0
H830 H 0.18521 0.68142 0.59051 0.0
H831 H 0.13688 0.62343 0.53176 0.0
S832 S 0.11859 0.54416 0.7984 0.0
N833 N 0.15323 0.59441 0.78764 0.0
N834 N 0.09895 0.53276 0.72452 0.0
C835 C 0.12083 0.57038 0.68716 0.0
C836 C 0.14958 0.60402 0.72153 0.0
C837 C 0.1803 0.38762 0.41843 0.0
C838 C 0.16196 0.36542 0.36223 0.0
C839 C 0.15134 0.42036 0.45653 0.0
C840 C 0.10194 0.4314 0.44217 0.0
H841 H 0.21784 0.38103 0.43314 0.0
H842 H 0.16825 0.43804 0.4969 0.0
S843 S 0.04393 0.40295 0.28595 0.0
N844 N 0.09558 0.36944 0.28475 0.0
N845 N 0.04177 0.43073 0.35688 0.0
C846 C 0.08462 0.41378 0.38299 0.0
C847 C 0.11422 0.38063 0.34341 0.0
C848 C 0.98366 0.06554 1.01895 0.0
C849 C 0.01377 0.03963 0.97347 0.0
C850 C 0.96875 0.04321 0.08037 0.0
C851 C 0.98339 0.99432 0.09784 0.0
H852 H 0.97108 0.10302 1.00662 0.0
H853 H 0.9452 0.064 0.11409 0.0
S854 S 0.06762 0.91363 1.00062 0.0
N855 N 0.06147 0.9645 0.95297 0.0
N856 N 0.03267 0.92233 0.06814 0.0
C857 C 0.01446 0.96859 0.05381 0.0
C858 C 0.02985 0.99132 0.99158 0.0
C859 C 0.2656 0.79264 0.31665 0.0
C860 C 0.28485 0.74526 0.33389 0.0
C861 C 0.2387 0.80121 0.25899 0.0
C862 C 0.22943 0.76273 0.21599 0.0
H863 H 0.27201 0.82364 0.34746 0.0
H864 H 0.2253 0.83856 0.24783 0.0
S865 S 0.26834 0.63079 0.24147 0.0
N866 N 0.29079 0.65875 0.30466 0.0
N867 N 0.23984 0.67457 0.19733 0.0
C868 C 0.24805 0.715 0.23314 0.0
C869 C 0.2757 0.70636 0.2917 0.0
C870 C 0.51858 0.06032 0.5295 0.0
C871 C 0.49958 0.03777 0.58946 0.0
C872 C 0.52656 0.03278 0.47238 0.0
C873 C 0.51596 0.98164 0.47292 0.0
H874 H 0.52827 0.09936 0.52701 0.0
H875 H 0.54225 0.0513 0.4279 0.0
S876 S 0.45854 0.90686 0.6138 0.0
N877 N 0.46558 0.96241 0.64336 0.0
N878 N 0.48102 0.91078 0.5366 0.0
C879 C 0.49539 0.95911 0.53176 0.0
C880 C 0.48713 0.9871 0.58977 0.0
C881 C 0.25896 0.20423 0.79351 0.0
C882 C 0.23844 0.23583 0.84111 0.0
C883 C 0.27827 0.22338 0.73237 0.0
C884 C 0.27795 0.27482 0.71684 0.0
H885 H 0.2609 0.16446 0.80403 0.0
H886 H 0.29417 0.19783 0.69733 0.0
S887 S 0.22473 0.37289 0.82216 0.0
N888 N 0.21639 0.32071 0.86713 0.0
N889 N 0.25285 0.35674 0.75228 0.0
C890 C 0.25684 0.30674 0.76355 0.0
C891 C 0.23707 0.28724 0.82568 0.0
C892 C 0.79391 0.22992 0.78481 0.0
C893 C 0.79603 0.26573 0.8332 0.0
C894 C 0.76556 0.23799 0.7285 0.0
C895 C 0.7381 0.28224 0.7182 0.0
H896 H 0.8135 0.19485 0.79125 0.0
H897 H 0.76431 0.20886 0.69341 0.0
S898 S 0.73627 0.39043 0.82584 0.0
N899 N 0.77147 0.34879 0.86434 0.0
N900 N 0.71842 0.36409 0.75867 0.0
C901 C 0.74109 0.31897 0.7653 0.0
C902 C 0.76993 0.3107 0.82265 0.0
C903 C 0.71922 0.77555 0.29621 0.0
C904 C 0.7407 0.74294 0.3431 0.0
C905 C 0.74388 0.78694 0.23537 0.0
C906 C 0.79067 0.76594 0.21961 0.0
H907 H 0.6834 0.7927 0.30693 0.0
H908 H 0.72645 0.81269 0.20063 0.0
S909 S 0.85965 0.67398 0.32263 0.0
N910 N 0.80937 0.68715 0.3682 0.0
N911 N 0.8558 0.70844 0.25346 0.0
C912 C 0.81206 0.73258 0.26556 0.0
C913 C 0.78699 0.72107 0.32748 0.0
C914 C 0.52315 0.45288 0.53673 0.0
C915 C 0.49291 0.47603 0.58471 0.0
C916 C 0.53456 0.47706 0.47543 0.0
C917 C 0.51616 0.52511 0.46046 0.0
H918 H 0.53875 0.41627 0.54709 0.0
H919 H 0.55865 0.45847 0.43998 0.0
S920 S 0.43039 0.59882 0.56572 0.0
N921 N 0.44126 0.54758 0.61082 0.0
N922 N 0.4632 0.59319 0.49573 0.0
C923 C 0.4848 0.54798 0.50715 0.0
C924 C 0.47304 0.52337 0.56931 0.0
C925 C 0.00691 0.45481 1.02923 0.0
C926 C 0.96958 0.45924 0.98265 0.0
C927 C 0.00664 0.48479 0.0845 0.0
C928 C 0.96875 0.5203 0.09584 0.0
H929 H 0.03704 0.42848 1.02214 0.0
H930 H 0.03697 0.48072 0.11788 0.0
S931 S 0.85867 0.54136 0.99295 0.0
N932 N 0.89178 0.49896 0.95391 0.0
N933 N 0.89022 0.55432 0.05822 0.0
C934 C 0.93027 0.52379 0.0505 0.0
C935 C 0.93094 0.49358 0.99391 0.0
loop_
_geom_bond_atom_site_label_1
_geom_bond_atom_site_label_2
_geom_bond_distance
_geom_bond_site_symmetry_2
_ccdc_geom_bond_type
Eu0 N31 2.645 1_455 S
Eu0 N38 2.609 1_455 S
Eu0 O44 2.565 . S
Eu0 O45 2.617 1_565 S
Eu0 O47 2.329 1_465 S
Eu0 O48 2.572 1_565 S
Eu0 O49 2.416 1_455 S
Eu0 O51 2.375 1_455 S
Eu0 O52 2.442 . S
Eu0 C64 2.850 . S
C1 C4 1.429 . S
C1 C5 1.411 . S
C1 N8 1.377 . S
C2 C4 1.420 . S
C2 C6 1.423 . S
C2 C14 1.392 . S
C3 C5 1.420 . S
C3 C6 1.351 . S
C3 H26 0.931 . S
C4 C1 1.429 . S
C4 C2 1.420 . S
C4 N12 1.362 . S
C5 C1 1.411 . S
C5 C3 1.420 . S
C5 C10 1.395 . S
C6 C2 1.423 . S
C6 C3 1.351 . S
C6 H18 0.930 . S
C7 C9 1.400 . S
C7 C10 1.386 1_655 S
C7 H19 0.930 . S
N8 C1 1.377 . S
N8 C9 1.321 1_455 S
N8 Eu11 2.609 1_455 S
C9 C7 1.400 . S
C9 N8 1.321 1_655 S
C9 H16 0.930 . S
C10 C5 1.395 . S
C10 C7 1.386 1_455 S
C10 H29 0.930 . S
Eu11 N8 2.609 1_655 S
Eu11 N12 2.649 1_655 S
Eu11 O45 2.377 1_655 S
Eu11 O46 2.438 . S
Eu11 O50 2.562 . S
Eu11 O51 2.615 1_545 S
Eu11 O53 2.333 1_645 S
Eu11 O54 2.569 1_545 S
Eu11 O55 2.417 1_655 S
Eu11 C75 2.849 . S
N12 C4 1.362 . S
N12 Eu11 2.649 1_455 S
N12 C13 1.334 . S
C13 N12 1.334 . S
C13 C15 1.413 . S
C13 H20 0.929 . S
C14 C2 1.392 . S
C14 C15 1.367 . S
C14 H22 0.930 . S
C15 C13 1.413 . S
C15 C14 1.367 . S
C15 H17 0.930 . S
H16 C9 0.930 . S
H17 C15 0.930 . S
H18 C6 0.930 . S
H19 C7 0.930 . S
H20 C13 0.929 . S
H21 C35 0.930 . S
H22 C14 0.930 . S
H23 C41 0.930 . S
H24 C32 0.929 . S
H25 C39 0.930 . S
H26 C3 0.931 . S
H27 C33 0.930 . S
H28 C66 0.930 . S
H29 C10 0.930 . S
H30 C65 0.931 . S
N31 Eu0 2.645 1_655 S
N31 C32 1.334 . S
N31 C36 1.362 . S
C32 H24 0.929 . S
C32 N31 1.334 . S
C32 C35 1.413 . S
C33 H27 0.930 . S
C33 C34 1.392 . S
C33 C35 1.367 . S
C34 C33 1.392 . S
C34 C36 1.420 . S
C34 C66 1.423 . S
C35 H21 0.930 . S
C35 C32 1.413 . S
C35 C33 1.367 . S
C36 N31 1.362 . S
C36 C34 1.420 . S
C36 C40 1.429 . S
H37 C42 0.930 . S
N38 Eu0 2.609 1_655 S
N38 C40 1.377 . S
N38 C41 1.321 1_655 S
C39 H25 0.930 . S
C39 C41 1.400 . S
C39 C42 1.386 1_455 S
C40 C36 1.429 . S
C40 N38 1.377 . S
C40 C43 1.411 . S
C41 H23 0.930 . S
C41 N38 1.321 1_455 S
C41 C39 1.400 . S
C42 H37 0.930 . S
C42 C39 1.386 1_655 S
C42 C43 1.395 . S
C43 C40 1.411 . S
C43 C42 1.395 . S
C43 C65 1.420 . S
O44 Eu0 2.565 . S
O44 C64 1.257 . S
O45 Eu0 2.617 1_545 S
O45 Eu11 2.377 1_455 S
O45 C56 1.276 . S
O46 Eu11 2.438 . S
O46 C63 1.264 . S
O47 Eu0 2.329 1_645 S
O47 C63 1.254 . S
O48 Eu0 2.572 1_545 S
O48 C56 1.235 . S
O49 Eu0 2.416 1_655 S
O49 C64 1.249 1_655 S
O50 Eu11 2.562 . S
O50 C75 1.257 . S
O51 Eu0 2.375 1_655 S
O51 Eu11 2.615 1_565 S
O51 C67 1.276 . S
O52 Eu0 2.442 . S
O52 C74 1.264 . S
O53 Eu11 2.333 1_465 S
O53 C74 1.254 . S
O54 Eu11 2.569 1_565 S
O54 C67 1.235 . S
O55 Eu11 2.417 1_455 S
O55 C75 1.249 1_455 S
C56 O45 1.276 . S
C56 O48 1.235 . S
C57 C59 1.393 . S
C57 C61 1.395 . S
C57 C64 1.492 . S
C58 C59 1.392 . S
C58 C60 1.386 . S
C59 C57 1.393 . S
C59 C58 1.392 . S
C59 H76 0.930 1_455 S
C60 C58 1.386 . S
C60 C62 1.395 . S
C60 H77 0.930 . S
C61 C57 1.395 . S
C61 C62 1.379 . S
C61 H78 0.930 . S
C62 C60 1.395 . S
C62 C61 1.379 . S
C62 H79 0.930 . S
C63 O46 1.264 . S
C63 O47 1.254 . S
C64 Eu0 2.850 . S
C64 O44 1.257 . S
C64 O49 1.249 1_455 S
C64 C57 1.492 . S
C65 H30 0.931 . S
C65 C43 1.420 . S
C65 C66 1.351 . S
C66 H28 0.930 . S
C66 C34 1.423 . S
C66 C65 1.351 . S
C67 O51 1.276 . S
C67 O54 1.235 . S
C68 C69 1.393 . S
C68 C72 1.395 . S
C68 C75 1.492 . S
C69 C68 1.393 . S
C69 C70 1.392 . S
C69 H80 0.930 1_655 S
C70 C69 1.392 . S
C70 C71 1.386 . S
C71 C70 1.386 . S
C71 C73 1.395 . S
C71 H81 0.930 . S
C72 C68 1.395 . S
C72 C73 1.379 . S
C72 H82 0.930 . S
C73 C71 1.395 . S
C73 C72 1.379 . S
C73 H83 0.930 . S
C74 O52 1.264 . S
C74 O53 1.254 . S
C75 Eu11 2.849 . S
C75 O50 1.257 . S
C75 O55 1.249 1_655 S
C75 C68 1.492 . S
H76 C59 0.930 1_655 S
H77 C60 0.930 . S
H78 C61 0.930 . S
H79 C62 0.930 . S
H80 C69 0.930 1_455 S
H81 C71 0.930 . S
H82 C72 0.930 . S
H83 C73 0.930 . S
Eu84 N115 2.657 . S
Eu84 N122 2.609 . S
Eu84 O128 2.558 . S
Eu84 O129 2.612 . S
Eu84 O131 2.339 . S
Eu84 O132 2.563 . S
Eu84 O133 2.419 . S
Eu84 O135 2.380 . S
Eu84 O136 2.432 . S
Eu84 C148 2.848 . S
C85 C88 1.429 . S
C85 C89 1.411 . S
C85 N92 1.377 . S
C86 C88 1.420 . S
C86 C90 1.423 . S
C86 C98 1.392 . S
C87 C89 1.420 . S
C87 C90 1.351 . S
C87 H110 0.931 1_455 S
C88 C85 1.429 . S
C88 C86 1.420 . S
C88 N96 1.362 . S
C89 C85 1.411 . S
C89 C87 1.420 . S
C89 C94 1.395 . S
C90 C86 1.423 . S
C90 C87 1.351 . S
C90 H102 0.930 . S
C91 C93 1.400 . S
C91 C94 1.386 . S
C91 H103 0.930 . S
N92 C85 1.377 . S
N92 C93 1.321 . S
N92 Eu95 2.609 . S
C93 C91 1.400 . S
C93 N92 1.321 . S
C93 H100 0.930 . S
C94 C89 1.395 . S
C94 C91 1.386 . S
C94 H113 0.930 1_455 S
Eu95 N92 2.609 . S
Eu95 N96 2.657 . S
Eu95 O129 2.380 . S
Eu95 O130 2.432 . S
Eu95 O134 2.558 . S
Eu95 O135 2.612 . S
Eu95 O137 2.339 . S
Eu95 O138 2.563 . S
Eu95 O139 2.419 . S
Eu95 C159 2.848 . S
N96 C88 1.362 . S
N96 Eu95 2.657 . S
N96 C97 1.334 . S
C97 N96 1.334 . S
C97 C99 1.413 . S
C97 H104 0.929 . S
C98 C86 1.392 . S
C98 C99 1.367 . S
C98 H106 0.930 . S
C99 C97 1.413 . S
C99 C98 1.367 . S
C99 H101 0.930 . S
H100 C93 0.930 . S
H101 C99 0.930 . S
H102 C90 0.930 . S
H103 C91 0.930 . S
H104 C97 0.929 . S
H105 C119 0.930 . S
H106 C98 0.930 . S
H107 C125 0.930 . S
H108 C116 0.929 . S
H109 C123 0.930 . S
H110 C87 0.931 1_655 S
H111 C117 0.930 . S
H112 C150 0.930 . S
H113 C94 0.930 1_655 S
H114 C149 0.931 . S
N115 Eu84 2.657 . S
N115 C116 1.334 . S
N115 C120 1.362 . S
C116 H108 0.929 . S
C116 N115 1.334 . S
C116 C119 1.413 . S
C117 H111 0.930 . S
C117 C118 1.392 . S
C117 C119 1.367 . S
C118 C117 1.392 . S
C118 C120 1.420 . S
C118 C150 1.423 . S
C119 H105 0.930 . S
C119 C116 1.413 . S
C119 C117 1.367 . S
C120 N115 1.362 . S
C120 C118 1.420 . S
C120 C124 1.429 . S
H121 C126 0.930 . S
N122 Eu84 2.609 . S
N122 C124 1.377 . S
N122 C125 1.321 . S
C123 H109 0.930 . S
C123 C125 1.400 . S
C123 C126 1.386 . S
C124 C120 1.429 . S
C124 N122 1.377 . S
C124 C127 1.411 . S
C125 H107 0.930 . S
C125 N122 1.321 . S
C125 C123 1.400 . S
C126 H121 0.930 . S
C126 C123 1.386 . S
C126 C127 1.395 . S
C127 C124 1.411 . S
C127 C126 1.395 . S
C127 C149 1.420 . S
O128 Eu84 2.558 . S
O128 C148 1.257 . S
O129 Eu84 2.612 . S
O129 Eu95 2.380 . S
O129 C140 1.276 . S
O130 Eu95 2.432 . S
O130 C147 1.264 . S
O131 Eu84 2.339 . S
O131 C147 1.254 . S
O132 Eu84 2.563 . S
O132 C140 1.235 . S
O133 Eu84 2.419 . S
O133 C148 1.249 . S
O134 Eu95 2.558 . S
O134 C159 1.257 . S
O135 Eu84 2.380 . S
O135 Eu95 2.612 . S
O135 C151 1.276 . S
O136 Eu84 2.432 . S
O136 C158 1.264 . S
O137 Eu95 2.339 . S
O137 C158 1.254 . S
O138 Eu95 2.563 . S
O138 C151 1.235 . S
O139 Eu95 2.419 . S
O139 C159 1.249 . S
C140 O129 1.276 . S
C140 O132 1.235 . S
C141 C143 1.393 . S
C141 C145 1.395 . S
C141 C148 1.492 . S
C142 C143 1.392 . S
C142 C144 1.386 . S
C143 C141 1.393 . S
C143 C142 1.392 . S
C143 H160 0.930 . S
C144 C142 1.386 . S
C144 C146 1.395 . S
C144 H161 0.930 . S
C145 C141 1.395 . S
C145 C146 1.379 . S
C145 H162 0.930 . S
C146 C144 1.395 . S
C146 C145 1.379 . S
C146 H163 0.930 . S
C147 O130 1.264 . S
C147 O131 1.254 . S
C148 Eu84 2.848 . S
C148 O128 1.257 . S
C148 O133 1.249 . S
C148 C141 1.492 . S
C149 H114 0.931 . S
C149 C127 1.420 . S
C149 C150 1.351 . S
C150 H112 0.930 . S
C150 C118 1.423 . S
C150 C149 1.351 . S
C151 O135 1.276 . S
C151 O138 1.235 . S
C152 C153 1.393 . S
C152 C156 1.395 . S
C152 C159 1.492 1_554 S
C153 C152 1.393 . S
C153 C154 1.392 . S
C153 H164 0.930 . S
C154 C153 1.392 . S
C154 C155 1.386 . S
C155 C154 1.386 . S
C155 C157 1.395 . S
C155 H165 0.930 . S
C156 C152 1.395 . S
C156 C157 1.379 . S
C156 H166 0.930 . S
C157 C155 1.395 . S
C157 C156 1.379 . S
C157 H167 0.930 . S
C158 O136 1.264 . S
C158 O137 1.254 . S
C159 Eu95 2.848 . S
C159 O134 1.257 . S
C159 O139 1.249 . S
C159 C152 1.492 1_556 S
H160 C143 0.930 . S
H161 C144 0.930 . S
H162 C145 0.930 . S
H163 C146 0.930 . S
H164 C153 0.930 . S
H165 C155 0.930 . S
H166 C156 0.930 . S
H167 C157 0.930 . S
Eu168 N199 2.657 . S
Eu168 N206 2.609 . S
Eu168 O212 2.558 . S
Eu168 O213 2.612 1_565 S
Eu168 O215 2.339 1_565 S
Eu168 O216 2.563 1_565 S
Eu168 O217 2.419 . S
Eu168 O219 2.380 1_554 S
Eu168 O220 2.432 . S
Eu168 C232 2.848 . S
C169 C172 1.429 . S
C169 C173 1.411 . S
C169 N176 1.377 . S
C170 C172 1.420 . S
C170 C174 1.423 . S
C170 C182 1.392 . S
C171 C173 1.420 . S
C171 C174 1.351 . S
C171 H194 0.931 . S
C172 C169 1.429 . S
C172 C170 1.420 . S
C172 N180 1.362 . S
C173 C169 1.411 . S
C173 C171 1.420 . S
C173 C178 1.395 . S
C174 C170 1.423 . S
C174 C171 1.351 . S
C174 H186 0.930 . S
C175 C177 1.400 . S
C175 C178 1.386 . S
C175 H187 0.930 . S
N176 C169 1.377 . S
N176 C177 1.321 . S
N176 Eu179 2.609 . S
C177 C175 1.400 . S
C177 N176 1.321 . S
C177 H184 0.930 . S
C178 C173 1.395 . S
C178 C175 1.386 . S
C178 H197 0.930 . S
Eu179 N176 2.609 . S
Eu179 N180 2.657 . S
Eu179 O213 2.380 1_556 S
Eu179 O214 2.432 . S
Eu179 O218 2.558 . S
Eu179 O219 2.612 1_545 S
Eu179 O221 2.339 1_545 S
Eu179 O222 2.563 1_545 S
Eu179 O223 2.419 . S
Eu179 C243 2.848 . S
N180 C172 1.362 . S
N180 Eu179 2.657 . S
N180 C181 1.334 . S
C181 N180 1.334 . S
C181 C183 1.413 . S
C181 H188 0.929 . S
C182 C170 1.392 . S
C182 C183 1.367 . S
C182 H190 0.930 . S
C183 C181 1.413 . S
C183 C182 1.367 . S
C183 H185 0.930 . S
H184 C177 0.930 . S
H185 C183 0.930 . S
H186 C174 0.930 . S
H187 C175 0.930 . S
H188 C181 0.929 . S
H189 C203 0.930 . S
H190 C182 0.930 . S
H191 C209 0.930 . S
H192 C200 0.929 . S
H193 C207 0.930 . S
H194 C171 0.931 . S
H195 C201 0.930 . S
H196 C234 0.930 . S
H197 C178 0.930 . S
H198 C233 0.931 . S
N199 Eu168 2.657 . S
N199 C200 1.334 . S
N199 C204 1.362 . S
C200 H192 0.929 . S
C200 N199 1.334 . S
C200 C203 1.413 . S
C201 H195 0.930 . S
C201 C202 1.392 . S
C201 C203 1.367 . S
C202 C201 1.392 . S
C202 C204 1.420 . S
C202 C234 1.423 . S
C203 H189 0.930 . S
C203 C200 1.413 . S
C203 C201 1.367 . S
C204 N199 1.362 . S
C204 C202 1.420 . S
C204 C208 1.429 . S
H205 C210 0.930 . S
N206 Eu168 2.609 . S
N206 C208 1.377 . S
N206 C209 1.321 . S
C207 H193 0.930 . S
C207 C209 1.400 . S
C207 C210 1.386 . S
C208 C204 1.429 . S
C208 N206 1.377 . S
C208 C211 1.411 . S
C209 H191 0.930 . S
C209 N206 1.321 . S
C209 C207 1.400 . S
C210 H205 0.930 . S
C210 C207 1.386 . S
C210 C211 1.395 . S
C211 C208 1.411 . S
C211 C210 1.395 . S
C211 C233 1.420 . S
O212 Eu168 2.558 . S
O212 C232 1.257 . S
O213 Eu168 2.612 1_545 S
O213 Eu179 2.380 1_554 S
O213 C224 1.276 . S
O214 Eu179 2.432 . S
O214 C231 1.264 1_556 S
O215 Eu168 2.339 1_545 S
O215 C231 1.254 . S
O216 Eu168 2.563 1_545 S
O216 C224 1.235 . S
O217 Eu168 2.419 . S
O217 C232 1.249 . S
O218 Eu179 2.558 . S
O218 C243 1.257 . S
O219 Eu168 2.380 1_556 S
O219 Eu179 2.612 1_565 S
O219 C235 1.276 . S
O220 Eu168 2.432 . S
O220 C242 1.264 1_554 S
O221 Eu179 2.339 1_565 S
O221 C242 1.254 . S
O222 Eu179 2.563 1_565 S
O222 C235 1.235 . S
O223 Eu179 2.419 . S
O223 C243 1.249 . S
C224 O213 1.276 . S
C224 O216 1.235 . S
C225 C227 1.393 . S
C225 C229 1.395 . S
C225 C232 1.492 . S
C226 C227 1.392 . S
C226 C228 1.386 . S
C227 C225 1.393 . S
C227 C226 1.392 . S
C227 H244 0.938 . S
C228 C226 1.386 . S
C228 C230 1.395 . S
C228 H245 0.930 . S
C229 C225 1.395 . S
C229 C230 1.379 . S
C229 H246 0.930 . S
C230 C228 1.395 . S
C230 C229 1.379 . S
C230 H247 0.930 . S
C231 O214 1.264 1_554 S
C231 O215 1.254 . S
C232 Eu168 2.848 . S
C232 O212 1.257 . S
C232 O217 1.249 . S
C232 C225 1.492 . S
C233 H198 0.931 . S
C233 C211 1.420 . S
C233 C234 1.351 . S
C234 H196 0.930 . S
C234 C202 1.423 . S
C234 C233 1.351 . S
C235 O219 1.276 . S
C235 O222 1.235 . S
C236 C237 1.393 . S
C236 C240 1.395 . S
C236 C243 1.492 . S
C237 C236 1.393 . S
C237 C238 1.392 . S
C237 H248 0.942 . S
C238 C237 1.392 . S
C238 C239 1.386 . S
C239 C238 1.386 . S
C239 C241 1.395 . S
C239 H249 0.930 . S
C240 C236 1.395 . S
C240 C241 1.379 . S
C240 H250 0.930 . S
C241 C239 1.395 . S
C241 C240 1.379 . S
C241 H251 0.930 . S
C242 O220 1.264 1_556 S
C242 O221 1.254 . S
C243 Eu179 2.848 . S
C243 O218 1.257 . S
C243 O223 1.249 . S
C243 C236 1.492 . S
H244 C227 0.938 . S
H245 C228 0.930 . S
H246 C229 0.930 . S
H247 C230 0.930 . S
H248 C237 0.942 . S
H249 C239 0.930 . S
H250 C240 0.930 . S
H251 C241 0.930 . S
Eu252 N283 2.657 . S
Eu252 N290 2.609 . S
Eu252 O296 2.558 . S
Eu252 O297 2.612 . S
Eu252 O299 2.339 . S
Eu252 O300 2.563 . S
Eu252 O301 2.419 . S
Eu252 O303 2.380 . S
Eu252 O304 2.432 . S
Eu252 C316 2.848 . S
C253 C256 1.429 . S
C253 C257 1.411 . S
C253 N260 1.377 . S
C254 C256 1.420 . S
C254 C258 1.423 . S
C254 C266 1.392 . S
C255 C257 1.420 . S
C255 C258 1.351 . S
C255 H278 0.931 1_455 S
C256 C253 1.429 . S
C256 C254 1.420 . S
C256 N264 1.362 . S
C257 C253 1.411 . S
C257 C255 1.420 . S
C257 C262 1.395 . S
C258 C254 1.423 . S
C258 C255 1.351 . S
C258 H270 0.930 . S
C259 C261 1.400 . S
C259 C262 1.386 . S
C259 H271 0.930 . S
N260 C253 1.377 . S
N260 C261 1.321 . S
N260 Eu263 2.609 . S
C261 C259 1.400 . S
C261 N260 1.321 . S
C261 H268 0.930 . S
C262 C257 1.395 . S
C262 C259 1.386 . S
C262 H281 0.930 1_455 S
Eu263 N260 2.609 . S
Eu263 N264 2.657 . S
Eu263 O297 2.380 . S
Eu263 O298 2.432 . S
Eu263 O302 2.558 . S
Eu263 O303 2.612 . S
Eu263 O305 2.339 . S
Eu263 O306 2.563 . S
Eu263 O307 2.419 . S
Eu263 C327 2.848 . S
N264 C256 1.362 . S
N264 Eu263 2.657 . S
N264 C265 1.334 . S
C265 N264 1.334 . S
C265 C267 1.413 . S
C265 H272 0.929 . S
C266 C254 1.392 . S
C266 C267 1.367 . S
C266 H274 0.930 . S
C267 C265 1.413 . S
C267 C266 1.367 . S
C267 H269 0.930 . S
H268 C261 0.930 . S
H269 C267 0.930 . S
H270 C258 0.930 . S
H271 C259 0.930 . S
H272 C265 0.929 . S
H273 C287 0.930 . S
H274 C266 0.930 . S
H275 C293 0.930 . S
H276 C284 0.929 . S
H277 C291 0.930 . S
H278 C255 0.931 1_655 S
H279 C285 0.930 . S
H280 C318 0.930 . S
H281 C262 0.930 1_655 S
H282 C317 0.931 . S
N283 Eu252 2.657 . S
N283 C284 1.334 . S
N283 C288 1.362 . S
C284 H276 0.929 . S
C284 N283 1.334 . S
C284 C287 1.413 . S
C285 H279 0.930 . S
C285 C286 1.392 . S
C285 C287 1.367 . S
C286 C285 1.392 . S
C286 C288 1.420 . S
C286 C318 1.423 . S
C287 H273 0.930 . S
C287 C284 1.413 . S
C287 C285 1.367 . S
C288 N283 1.362 . S
C288 C286 1.420 . S
C288 C292 1.429 . S
H289 C294 0.930 . S
N290 Eu252 2.609 . S
N290 C292 1.377 . S
N290 C293 1.321 . S
C291 H277 0.930 . S
C291 C293 1.400 . S
C291 C294 1.386 . S
C292 C288 1.429 . S
C292 N290 1.377 . S
C292 C295 1.411 . S
C293 H275 0.930 . S
C293 N290 1.321 . S
C293 C291 1.400 . S
C294 H289 0.930 . S
C294 C291 1.386 . S
C294 C295 1.395 . S
C295 C292 1.411 . S
C295 C294 1.395 . S
C295 C317 1.420 . S
O296 Eu252 2.558 . S
O296 C316 1.257 . S
O297 Eu252 2.612 . S
O297 Eu263 2.380 . S
O297 C308 1.276 . S
O298 Eu263 2.432 . S
O298 C315 1.264 . S
O299 Eu252 2.339 . S
O299 C315 1.254 . S
O300 Eu252 2.563 . S
O300 C308 1.235 . S
O301 Eu252 2.419 . S
O301 C316 1.249 . S
O302 Eu263 2.558 . S
O302 C327 1.257 . S
O303 Eu252 2.380 . S
O303 Eu263 2.612 . S
O303 C319 1.276 . S
O304 Eu252 2.432 . S
O304 C326 1.264 . S
O305 Eu263 2.339 . S
O305 C326 1.254 . S
O306 Eu263 2.563 . S
O306 C319 1.235 . S
O307 Eu263 2.419 . S
O307 C327 1.249 . S
C308 O297 1.276 . S
C308 O300 1.235 . S
C309 C311 1.393 . S
C309 C313 1.395 . S
C309 C316 1.492 . S
C310 C311 1.392 . S
C310 C312 1.386 . S
C311 C309 1.393 . S
C311 C310 1.392 . S
C311 H328 0.930 . S
C312 C310 1.386 . S
C312 C314 1.395 . S
C312 H329 0.930 . S
C313 C309 1.395 . S
C313 C314 1.379 . S
C313 H330 0.930 . S
C314 C312 1.395 . S
C314 C313 1.379 . S
C314 H331 0.930 . S
C315 O298 1.264 . S
C315 O299 1.254 . S
C316 Eu252 2.848 . S
C316 O296 1.257 . S
C316 O301 1.249 . S
C316 C309 1.492 . S
C317 H282 0.931 . S
C317 C295 1.420 . S
C317 C318 1.351 . S
C318 H280 0.930 . S
C318 C286 1.423 . S
C318 C317 1.351 . S
C319 O303 1.276 . S
C319 O306 1.235 . S
C320 C321 1.393 . S
C320 C324 1.395 . S
C320 C327 1.492 1_556 S
C321 C320 1.393 . S
C321 C322 1.392 . S
C321 H332 0.930 . S
C322 C321 1.392 . S
C322 C323 1.386 . S
C323 C322 1.386 . S
C323 C325 1.395 . S
C323 H333 0.930 . S
C324 C320 1.395 . S
C324 C325 1.379 . S
C324 H334 0.930 . S
C325 C323 1.395 . S
C325 C324 1.379 . S
C325 H335 0.930 . S
C326 O304 1.264 . S
C326 O305 1.254 . S
C327 Eu263 2.848 . S
C327 O302 1.257 . S
C327 O307 1.249 . S
C327 C320 1.492 1_554 S
H328 C311 0.930 . S
H329 C312 0.930 . S
H330 C313 0.930 . S
H331 C314 0.930 . S
H332 C321 0.930 . S
H333 C323 0.930 . S
H334 C324 0.930 . S
H335 C325 0.930 . S
Eu336 N367 2.657 . S
Eu336 N374 2.609 . S
Eu336 O380 2.558 . S
Eu336 O381 2.612 . S
Eu336 O383 2.339 . S
Eu336 O384 2.563 . S
Eu336 O385 2.419 . S
Eu336 O387 2.380 . S
Eu336 O388 2.432 . S
Eu336 C400 2.848 . S
C337 C340 1.429 . S
C337 C341 1.411 . S
C337 N344 1.377 . S
C338 C340 1.420 . S
C338 C342 1.423 . S
C338 C350 1.392 . S
C339 C341 1.420 . S
C339 C342 1.351 . S
C339 H362 0.931 . S
C340 C337 1.429 . S
C340 C338 1.420 . S
C340 N348 1.362 . S
C341 C337 1.411 . S
C341 C339 1.420 . S
C341 C346 1.395 . S
C342 C338 1.423 . S
C342 C339 1.351 . S
C342 H354 0.930 . S
C343 C345 1.400 . S
C343 C346 1.386 . S
C343 H355 0.930 . S
N344 C337 1.377 . S
N344 C345 1.321 . S
N344 Eu347 2.609 . S
C345 C343 1.400 . S
C345 N344 1.321 . S
C345 H352 0.930 . S
C346 C341 1.395 . S
C346 C343 1.386 . S
C346 H365 0.930 . S
Eu347 N344 2.609 . S
Eu347 N348 2.657 . S
Eu347 O381 2.380 . S
Eu347 O382 2.432 . S
Eu347 O386 2.558 . S
Eu347 O387 2.612 . S
Eu347 O389 2.339 . S
Eu347 O390 2.563 . S
Eu347 O391 2.419 . S
Eu347 C411 2.848 . S
N348 C340 1.362 . S
N348 Eu347 2.657 . S
N348 C349 1.334 . S
C349 N348 1.334 . S
C349 C351 1.413 . S
C349 H356 0.929 . S
C350 C338 1.392 . S
C350 C351 1.367 . S
C350 H358 0.930 . S
C351 C349 1.413 . S
C351 C350 1.367 . S
C351 H353 0.930 . S
H352 C345 0.930 . S
H353 C351 0.930 . S
H354 C342 0.930 . S
H355 C343 0.930 . S
H356 C349 0.929 . S
H357 C371 0.930 . S
H358 C350 0.930 . S
H359 C377 0.930 . S
H360 C368 0.929 . S
H361 C375 0.930 . S
H362 C339 0.931 . S
H363 C369 0.930 . S
H364 C402 0.930 . S
H365 C346 0.930 . S
H366 C401 0.931 1_455 S
N367 Eu336 2.657 . S
N367 C368 1.334 . S
N367 C372 1.362 . S
C368 H360 0.929 . S
C368 N367 1.334 . S
C368 C371 1.413 . S
C369 H363 0.930 . S
C369 C370 1.392 . S
C369 C371 1.367 . S
C370 C369 1.392 . S
C370 C372 1.420 . S
C370 C402 1.423 . S
C371 H357 0.930 . S
C371 C368 1.413 . S
C371 C369 1.367 . S
C372 N367 1.362 . S
C372 C370 1.420 . S
C372 C376 1.429 . S
H373 C378 0.930 1_455 S
N374 Eu336 2.609 . S
N374 C376 1.377 . S
N374 C377 1.321 . S
C375 H361 0.930 . S
C375 C377 1.400 . S
C375 C378 1.386 . S
C376 C372 1.429 . S
C376 N374 1.377 . S
C376 C379 1.411 . S
C377 H359 0.930 . S
C377 N374 1.321 . S
C377 C375 1.400 . S
C378 H373 0.930 1_655 S
C378 C375 1.386 . S
C378 C379 1.395 . S
C379 C376 1.411 . S
C379 C378 1.395 . S
C379 C401 1.420 . S
O380 Eu336 2.558 . S
O380 C400 1.257 . S
O381 Eu336 2.612 . S
O381 Eu347 2.380 . S
O381 C392 1.276 . S
O382 Eu347 2.432 . S
O382 C399 1.264 . S
O383 Eu336 2.339 . S
O383 C399 1.254 . S
O384 Eu336 2.563 . S
O384 C392 1.235 . S
O385 Eu336 2.419 . S
O385 C400 1.249 . S
O386 Eu347 2.558 . S
O386 C411 1.257 . S
O387 Eu336 2.380 . S
O387 Eu347 2.612 . S
O387 C403 1.276 . S
O388 Eu336 2.432 . S
O388 C410 1.264 . S
O389 Eu347 2.339 . S
O389 C410 1.254 . S
O390 Eu347 2.563 . S
O390 C403 1.235 . S
O391 Eu347 2.419 . S
O391 C411 1.249 . S
C392 O381 1.276 . S
C392 O384 1.235 . S
C393 C395 1.393 . S
C393 C397 1.395 . S
C393 C400 1.492 1_556 S
C394 C395 1.392 . S
C394 C396 1.386 . S
C395 C393 1.393 . S
C395 C394 1.392 . S
C395 H412 0.930 . S
C396 C394 1.386 . S
C396 C398 1.395 . S
C396 H413 0.930 . S
C397 C393 1.395 . S
C397 C398 1.379 . S
C397 H414 0.930 . S
C398 C396 1.395 . S
C398 C397 1.379 . S
C398 H415 0.930 . S
C399 O382 1.264 . S
C399 O383 1.254 . S
C400 Eu336 2.848 . S
C400 O380 1.257 . S
C400 O385 1.249 . S
C400 C393 1.492 1_554 S
C401 H366 0.931 1_655 S
C401 C379 1.420 . S
C401 C402 1.351 . S
C402 H364 0.930 . S
C402 C370 1.423 . S
C402 C401 1.351 . S
C403 O387 1.276 . S
C403 O390 1.235 . S
C404 C405 1.393 . S
C404 C408 1.395 . S
C404 C411 1.492 . S
C405 C404 1.393 . S
C405 C406 1.392 . S
C405 H416 0.930 . S
C406 C405 1.392 . S
C406 C407 1.386 . S
C407 C406 1.386 . S
C407 C409 1.395 . S
C407 H417 0.930 . S
C408 C404 1.395 . S
C408 C409 1.379 . S
C408 H418 0.930 . S
C409 C407 1.395 . S
C409 C408 1.379 . S
C409 H419 0.930 . S
C410 O388 1.264 . S
C410 O389 1.254 . S
C411 Eu347 2.848 . S
C411 O386 1.257 . S
C411 O391 1.249 . S
C411 C404 1.492 . S
H412 C395 0.930 . S
H413 C396 0.930 . S
H414 C397 0.930 . S
H415 C398 0.930 . S
H416 C405 0.930 . S
H417 C407 0.930 . S
H418 C408 0.930 . S
H419 C409 0.930 . S
Eu420 N451 2.657 . S
Eu420 N458 2.609 . S
Eu420 O464 2.558 . S
Eu420 O465 2.612 . S
Eu420 O467 2.339 . S
Eu420 O468 2.563 . S
Eu420 O469 2.419 . S
Eu420 O471 2.380 . S
Eu420 O472 2.432 . S
Eu420 C484 2.848 . S
C421 C424 1.429 . S
C421 C425 1.411 . S
C421 N428 1.377 . S
C422 C424 1.420 . S
C422 C426 1.423 . S
C422 C434 1.392 . S
C423 C425 1.420 . S
C423 C426 1.351 . S
C423 H446 0.931 . S
C424 C421 1.429 . S
C424 C422 1.420 . S
C424 N432 1.362 . S
C425 C421 1.411 . S
C425 C423 1.420 . S
C425 C430 1.395 . S
C426 C422 1.423 . S
C426 C423 1.351 . S
C426 H438 0.930 . S
C427 C429 1.400 . S
C427 C430 1.386 . S
C427 H439 0.930 . S
N428 C421 1.377 . S
N428 C429 1.321 . S
N428 Eu431 2.609 . S
C429 C427 1.400 . S
C429 N428 1.321 . S
C429 H436 0.930 . S
C430 C425 1.395 . S
C430 C427 1.386 . S
C430 H449 0.930 . S
Eu431 N428 2.609 . S
Eu431 N432 2.657 . S
Eu431 O465 2.380 . S
Eu431 O466 2.432 . S
Eu431 O470 2.558 . S
Eu431 O471 2.612 . S
Eu431 O473 2.339 . S
Eu431 O474 2.563 . S
Eu431 O475 2.419 . S
Eu431 C495 2.848 . S
N432 C424 1.362 . S
N432 Eu431 2.657 . S
N432 C433 1.334 . S
C433 N432 1.334 . S
C433 C435 1.413 . S
C433 H440 0.929 . S
C434 C422 1.392 . S
C434 C435 1.367 . S
C434 H442 0.930 . S
C435 C433 1.413 . S
C435 C434 1.367 . S
C435 H437 0.930 . S
H436 C429 0.930 . S
H437 C435 0.930 . S
H438 C426 0.930 . S
H439 C427 0.930 . S
H440 C433 0.929 . S
H441 C455 0.930 . S
H442 C434 0.930 . S
H443 C461 0.930 . S
H444 C452 0.929 . S
H445 C459 0.930 . S
H446 C423 0.931 . S
H447 C453 0.930 . S
H448 C486 0.930 . S
H449 C430 0.930 . S
H450 C485 0.931 1_455 S
N451 Eu420 2.657 . S
N451 C452 1.334 . S
N451 C456 1.362 . S
C452 H444 0.929 . S
C452 N451 1.334 . S
C452 C455 1.413 . S
C453 H447 0.930 . S
C453 C454 1.392 . S
C453 C455 1.367 . S
C454 C453 1.392 . S
C454 C456 1.420 . S
C454 C486 1.423 . S
C455 H441 0.930 . S
C455 C452 1.413 . S
C455 C453 1.367 . S
C456 N451 1.362 . S
C456 C454 1.420 . S
C456 C460 1.429 . S
H457 C462 0.930 1_455 S
N458 Eu420 2.609 . S
N458 C460 1.377 . S
N458 C461 1.321 . S
C459 H445 0.930 . S
C459 C461 1.400 . S
C459 C462 1.386 . S
C460 C456 1.429 . S
C460 N458 1.377 . S
C460 C463 1.411 . S
C461 H443 0.930 . S
C461 N458 1.321 . S
C461 C459 1.400 . S
C462 H457 0.930 1_655 S
C462 C459 1.386 . S
C462 C463 1.395 . S
C463 C460 1.411 . S
C463 C462 1.395 . S
C463 C485 1.420 . S
O464 Eu420 2.558 . S
O464 C484 1.257 . S
O465 Eu420 2.612 . S
O465 Eu431 2.380 . S
O465 C476 1.276 . S
O466 Eu431 2.432 . S
O466 C483 1.264 . S
O467 Eu420 2.339 . S
O467 C483 1.254 . S
O468 Eu420 2.563 . S
O468 C476 1.235 . S
O469 Eu420 2.419 . S
O469 C484 1.249 . S
O470 Eu431 2.558 . S
O470 C495 1.257 . S
O471 Eu420 2.380 . S
O471 Eu431 2.612 . S
O471 C487 1.276 . S
O472 Eu420 2.432 . S
O472 C494 1.264 . S
O473 Eu431 2.339 . S
O473 C494 1.254 . S
O474 Eu431 2.563 . S
O474 C487 1.235 . S
O475 Eu431 2.419 . S
O475 C495 1.249 . S
C476 O465 1.276 . S
C476 O468 1.235 . S
C477 C479 1.393 . S
C477 C481 1.395 . S
C477 C484 1.492 1_554 S
C478 C479 1.392 . S
C478 C480 1.386 . S
C479 C477 1.393 . S
C479 C478 1.392 . S
C479 H496 0.930 . S
C480 C478 1.386 . S
C480 C482 1.395 . S
C480 H497 0.930 . S
C481 C477 1.395 . S
C481 C482 1.379 . S
C481 H498 0.930 . S
C482 C480 1.395 . S
C482 C481 1.379 . S
C482 H499 0.930 . S
C483 O466 1.264 . S
C483 O467 1.254 . S
C484 Eu420 2.848 . S
C484 O464 1.257 . S
C484 O469 1.249 . S
C484 C477 1.492 1_556 S
C485 H450 0.931 1_655 S
C485 C463 1.420 . S
C485 C486 1.351 . S
C486 H448 0.930 . S
C486 C454 1.423 . S
C486 C485 1.351 . S
C487 O471 1.276 . S
C487 O474 1.235 . S
C488 C489 1.393 . S
C488 C492 1.395 . S
C488 C495 1.492 . S
C489 C488 1.393 . S
C489 C490 1.392 . S
C489 H500 0.930 . S
C490 C489 1.392 . S
C490 C491 1.386 . S
C491 C490 1.386 . S
C491 C493 1.395 . S
C491 H501 0.930 . S
C492 C488 1.395 . S
C492 C493 1.379 . S
C492 H502 0.930 . S
C493 C491 1.395 . S
C493 C492 1.379 . S
C493 H503 0.930 . S
C494 O472 1.264 . S
C494 O473 1.254 . S
C495 Eu431 2.848 . S
C495 O470 1.257 . S
C495 O475 1.249 . S
C495 C488 1.492 . S
H496 C479 0.930 . S
H497 C480 0.930 . S
H498 C481 0.930 . S
H499 C482 0.930 . S
H500 C489 0.930 . S
H501 C491 0.930 . S
H502 C492 0.930 . S
H503 C493 0.930 . S
Eu504 N535 2.657 . S
Eu504 N542 2.609 . S
Eu504 O548 2.558 . S
Eu504 O549 2.612 . S
Eu504 O551 2.339 . S
Eu504 O552 2.563 . S
Eu504 O553 2.419 . S
Eu504 O555 2.380 1_556 S
Eu504 O556 2.432 . S
Eu504 C568 2.848 . S
C505 C508 1.429 . S
C505 C509 1.411 . S
C505 N512 1.377 . S
C506 C508 1.420 . S
C506 C510 1.423 . S
C506 C518 1.392 . S
C507 C509 1.420 . S
C507 C510 1.351 . S
C507 H530 0.931 . S
C508 C505 1.429 . S
C508 C506 1.420 . S
C508 N516 1.362 . S
C509 C505 1.411 . S
C509 C507 1.420 . S
C509 C514 1.395 . S
C510 C506 1.423 . S
C510 C507 1.351 . S
C510 H522 0.930 . S
C511 C513 1.400 . S
C511 C514 1.386 . S
C511 H523 0.930 . S
N512 C505 1.377 . S
N512 C513 1.321 . S
N512 Eu515 2.609 . S
C513 C511 1.400 . S
C513 N512 1.321 . S
C513 H520 0.930 . S
C514 C509 1.395 . S
C514 C511 1.386 . S
C514 H533 0.930 . S
Eu515 N512 2.609 . S
Eu515 N516 2.657 . S
Eu515 O549 2.380 1_554 S
Eu515 O550 2.432 . S
Eu515 O554 2.558 . S
Eu515 O555 2.612 . S
Eu515 O557 2.339 . S
Eu515 O558 2.563 . S
Eu515 O559 2.419 . S
Eu515 C579 2.848 . S
N516 C508 1.362 . S
N516 Eu515 2.657 . S
N516 C517 1.334 . S
C517 N516 1.334 . S
C517 C519 1.413 . S
C517 H524 0.929 . S
C518 C506 1.392 . S
C518 C519 1.367 . S
C518 H526 0.930 . S
C519 C517 1.413 . S
C519 C518 1.367 . S
C519 H521 0.930 . S
H520 C513 0.930 . S
H521 C519 0.930 . S
H522 C510 0.930 . S
H523 C511 0.930 . S
H524 C517 0.929 . S
H525 C539 0.930 . S
H526 C518 0.930 . S
H527 C545 0.930 . S
H528 C536 0.929 . S
H529 C543 0.930 . S
H530 C507 0.931 . S
H531 C537 0.930 . S
H532 C570 0.930 . S
H533 C514 0.930 . S
H534 C569 0.931 . S
N535 Eu504 2.657 . S
N535 C536 1.334 . S
N535 C540 1.362 . S
C536 H528 0.929 . S
C536 N535 1.334 . S
C536 C539 1.413 . S
C537 H531 0.930 . S
C537 C538 1.392 . S
C537 C539 1.367 . S
C538 C537 1.392 . S
C538 C540 1.420 . S
C538 C570 1.423 . S
C539 H525 0.930 . S
C539 C536 1.413 . S
C539 C537 1.367 . S
C540 N535 1.362 . S
C540 C538 1.420 . S
C540 C544 1.429 . S
H541 C546 0.930 . S
N542 Eu504 2.609 . S
N542 C544 1.377 . S
N542 C545 1.321 . S
C543 H529 0.930 . S
C543 C545 1.400 . S
C543 C546 1.386 . S
C544 C540 1.429 . S
C544 N542 1.377 . S
C544 C547 1.411 . S
C545 H527 0.930 . S
C545 N542 1.321 . S
C545 C543 1.400 . S
C546 H541 0.930 . S
C546 C543 1.386 . S
C546 C547 1.395 . S
C547 C544 1.411 . S
C547 C546 1.395 . S
C547 C569 1.420 . S
O548 Eu504 2.558 . S
O548 C568 1.257 . S
O549 Eu504 2.612 . S
O549 Eu515 2.380 1_556 S
O549 C560 1.276 . S
O550 Eu515 2.432 . S
O550 C567 1.264 1_554 S
O551 Eu504 2.339 . S
O551 C567 1.254 . S
O552 Eu504 2.563 . S
O552 C560 1.235 . S
O553 Eu504 2.419 . S
O553 C568 1.249 . S
O554 Eu515 2.558 . S
O554 C579 1.257 . S
O555 Eu504 2.380 1_554 S
O555 Eu515 2.612 . S
O555 C571 1.276 . S
O556 Eu504 2.432 . S
O556 C578 1.264 1_556 S
O557 Eu515 2.339 . S
O557 C578 1.254 . S
O558 Eu515 2.563 . S
O558 C571 1.235 . S
O559 Eu515 2.419 . S
O559 C579 1.249 . S
C560 O549 1.276 . S
C560 O552 1.235 . S
C561 C563 1.393 . S
C561 C565 1.395 . S
C561 C568 1.492 . S
C562 C563 1.392 . S
C562 C564 1.386 . S
C563 C561 1.393 . S
C563 C562 1.392 . S
C563 H580 0.930 . S
C564 C562 1.386 . S
C564 C566 1.395 . S
C564 H581 0.930 . S
C565 C561 1.395 . S
C565 C566 1.379 . S
C565 H582 0.930 . S
C566 C564 1.395 . S
C566 C565 1.379 . S
C566 H583 0.930 . S
C567 O550 1.264 1_556 S
C567 O551 1.254 . S
C568 Eu504 2.848 . S
C568 O548 1.257 . S
C568 O553 1.249 . S
C568 C561 1.492 . S
C569 H534 0.931 . S
C569 C547 1.420 . S
C569 C570 1.351 . S
C570 H532 0.930 . S
C570 C538 1.423 . S
C570 C569 1.351 . S
C571 O555 1.276 . S
C571 O558 1.235 . S
C572 C573 1.393 . S
C572 C576 1.395 . S
C572 C579 1.492 . S
C573 C572 1.393 . S
C573 C574 1.392 . S
C573 H584 0.930 . S
C574 C573 1.392 . S
C574 C575 1.386 . S
C575 C574 1.386 . S
C575 C577 1.395 . S
C575 H585 0.930 . S
C576 C572 1.395 . S
C576 C577 1.379 . S
C576 H586 0.930 . S
C577 C575 1.395 . S
C577 C576 1.379 . S
C577 H587 0.930 . S
C578 O556 1.264 1_554 S
C578 O557 1.254 . S
C579 Eu515 2.848 . S
C579 O554 1.257 . S
C579 O559 1.249 . S
C579 C572 1.492 . S
H580 C563 0.930 . S
H581 C564 0.930 . S
H582 C565 0.930 . S
H583 C566 0.930 . S
H584 C573 0.930 . S
H585 C575 0.930 . S
H586 C576 0.930 . S
H587 C577 0.930 . S
Eu588 N619 2.650 1_655 S
Eu588 N626 2.609 1_655 S
Eu588 O632 2.562 . S
Eu588 O633 2.615 . S
Eu588 O635 2.333 1_655 S
Eu588 O636 2.569 . S
Eu588 O637 2.417 1_655 S
Eu588 O639 2.378 1_655 S
Eu588 O640 2.438 . S
Eu588 C652 2.849 . S
C589 C592 1.429 . S
C589 C593 1.411 . S
C589 N596 1.377 . S
C590 C592 1.420 . S
C590 C594 1.423 . S
C590 C602 1.392 . S
C591 C593 1.420 . S
C591 C594 1.351 . S
C591 H614 0.931 . S
C592 C589 1.429 . S
C592 C590 1.420 . S
C592 N600 1.362 . S
C593 C589 1.411 . S
C593 C591 1.420 . S
C593 C598 1.395 . S
C594 C590 1.423 . S
C594 C591 1.351 . S
C594 H606 0.930 . S
C595 C597 1.400 . S
C595 C598 1.386 1_455 S
C595 H607 0.930 . S
N596 C589 1.377 . S
N596 C597 1.321 1_655 S
N596 Eu599 2.609 1_655 S
C597 C595 1.400 . S
C597 N596 1.321 1_455 S
C597 H604 0.930 . S
C598 C593 1.395 . S
C598 C595 1.386 1_655 S
C598 H617 0.930 . S
Eu599 N596 2.609 1_455 S
Eu599 N600 2.645 1_455 S
Eu599 O633 2.376 1_455 S
Eu599 O634 2.442 . S
Eu599 O638 2.565 . S
Eu599 O639 2.616 . S
Eu599 O641 2.330 1_455 S
Eu599 O642 2.572 . S
Eu599 O643 2.416 1_455 S
Eu599 C663 2.850 . S
N600 C592 1.362 . S
N600 Eu599 2.645 1_655 S
N600 C601 1.334 . S
C601 N600 1.334 . S
C601 C603 1.413 . S
C601 H608 0.929 . S
C602 C590 1.392 . S
C602 C603 1.367 . S
C602 H610 0.930 . S
C603 C601 1.413 . S
C603 C602 1.367 . S
C603 H605 0.930 . S
H604 C597 0.930 . S
H605 C603 0.930 . S
H606 C594 0.930 . S
H607 C595 0.930 . S
H608 C601 0.929 . S
H609 C623 0.930 . S
H610 C602 0.930 . S
H611 C629 0.930 . S
H612 C620 0.929 . S
H613 C627 0.930 . S
H614 C591 0.931 . S
H615 C621 0.930 . S
H616 C654 0.930 . S
H617 C598 0.930 . S
H618 C653 0.931 . S
N619 Eu588 2.650 1_455 S
N619 C620 1.334 . S
N619 C624 1.362 . S
C620 H612 0.929 . S
C620 N619 1.334 . S
C620 C623 1.413 . S
C621 H615 0.930 . S
C621 C622 1.392 . S
C621 C623 1.367 . S
C622 C621 1.392 . S
C622 C624 1.420 . S
C622 C654 1.423 . S
C623 H609 0.930 . S
C623 C620 1.413 . S
C623 C621 1.367 . S
C624 N619 1.362 . S
C624 C622 1.420 . S
C624 C628 1.429 . S
H625 C630 0.930 . S
N626 Eu588 2.609 1_455 S
N626 C628 1.377 . S
N626 C629 1.321 1_455 S
C627 H613 0.930 . S
C627 C629 1.400 . S
C627 C630 1.386 1_655 S
C628 C624 1.429 . S
C628 N626 1.377 . S
C628 C631 1.411 . S
C629 H611 0.930 . S
C629 N626 1.321 1_655 S
C629 C627 1.400 . S
C630 H625 0.930 . S
C630 C627 1.386 1_455 S
C630 C631 1.395 . S
C631 C628 1.411 . S
C631 C630 1.395 . S
C631 C653 1.420 . S
O632 Eu588 2.562 . S
O632 C652 1.257 . S
O633 Eu588 2.615 . S
O633 Eu599 2.376 1_655 S
O633 C644 1.276 . S
O634 Eu599 2.442 . S
O634 C651 1.264 . S
O635 Eu588 2.333 1_455 S
O635 C651 1.254 . S
O636 Eu588 2.569 . S
O636 C644 1.235 . S
O637 Eu588 2.417 1_455 S
O637 C652 1.249 1_455 S
O638 Eu599 2.565 . S
O638 C663 1.257 . S
O639 Eu588 2.378 1_455 S
O639 Eu599 2.616 . S
O639 C655 1.276 . S
O640 Eu588 2.438 . S
O640 C662 1.264 . S
O641 Eu599 2.330 1_655 S
O641 C662 1.254 . S
O642 Eu599 2.572 . S
O642 C655 1.235 . S
O643 Eu599 2.416 1_655 S
O643 C663 1.249 1_655 S
C644 O633 1.276 . S
C644 O636 1.235 . S
C645 C647 1.393 . S
C645 C649 1.395 . S
C645 C652 1.492 . S
C646 C647 1.392 . S
C646 C648 1.386 . S
C647 C645 1.393 . S
C647 C646 1.392 . S
C647 H664 0.930 1_655 S
C648 C646 1.386 . S
C648 C650 1.395 . S
C648 H665 0.930 . S
C649 C645 1.395 . S
C649 C650 1.379 . S
C649 H666 0.930 . S
C650 C648 1.395 . S
C650 C649 1.379 . S
C650 H667 0.930 . S
C651 O634 1.264 . S
C651 O635 1.254 . S
C652 Eu588 2.849 . S
C652 O632 1.257 . S
C652 O637 1.249 1_655 S
C652 C645 1.492 . S
C653 H618 0.931 . S
C653 C631 1.420 . S
C653 C654 1.351 . S
C654 H616 0.930 . S
C654 C622 1.423 . S
C654 C653 1.351 . S
C655 O639 1.276 . S
C655 O642 1.235 . S
C656 C657 1.393 . S
C656 C660 1.395 . S
C656 C663 1.492 . S
C657 C656 1.393 . S
C657 C658 1.392 . S
C657 H668 0.930 1_455 S
C658 C657 1.392 . S
C658 C659 1.386 . S
C659 C658 1.386 . S
C659 C661 1.395 . S
C659 H669 0.930 . S
C660 C656 1.395 . S
C660 C661 1.379 . S
C660 H670 0.930 . S
C661 C659 1.395 . S
C661 C660 1.379 . S
C661 H671 0.930 . S
C662 O640 1.264 . S
C662 O641 1.254 . S
C663 Eu599 2.850 . S
C663 O638 1.257 . S
C663 O643 1.249 1_455 S
C663 C656 1.492 . S
H664 C647 0.930 1_455 S
H665 C648 0.930 . S
H666 C649 0.930 . S
H667 C650 0.930 . S
H668 C657 0.930 1_655 S
H669 C659 0.930 . S
H670 C660 0.930 . S
H671 C661 0.930 . S
C672 C673 1.369 . S
C672 C674 1.419 . S
C672 H676 0.930 . S
C673 C672 1.369 . S
C673 C682 1.429 . S
C674 C672 1.419 . S
C674 C675 1.363 . S
C674 H677 0.929 . S
C675 C674 1.363 . S
C675 C681 1.428 . S
H676 C672 0.930 . S
H677 C674 0.929 . S
S678 N679 1.613 . S
S678 N680 1.610 . S
N679 S678 1.613 . S
N679 C682 1.350 . S
N680 S678 1.610 . S
N680 C681 1.351 . S
C681 C675 1.428 . S
C681 N680 1.351 . S
C681 C682 1.434 . S
C682 C673 1.429 . S
C682 N679 1.350 . S
C682 C681 1.434 . S
C683 C684 1.369 . S
C683 C685 1.419 . S
C683 H687 0.930 . S
C684 C683 1.369 . S
C684 C693 1.429 . S
C685 C683 1.419 . S
C685 C686 1.363 . S
C685 H688 0.929 . S
C686 C685 1.363 . S
C686 C692 1.428 . S
H687 C683 0.930 . S
H688 C685 0.929 . S
S689 N690 1.613 . S
S689 N691 1.610 . S
N690 S689 1.613 . S
N690 C693 1.350 . S
N691 S689 1.610 . S
N691 C692 1.351 . S
C692 C686 1.428 . S
C692 N691 1.351 . S
C692 C693 1.434 . S
C693 C684 1.429 . S
C693 N690 1.350 . S
C693 C692 1.434 . S
C694 C695 1.369 . S
C694 C696 1.419 . S
C694 H698 0.930 . S
C695 C694 1.369 . S
C695 C704 1.429 . S
C696 C694 1.419 . S
C696 C697 1.363 . S
C696 H699 0.929 . S
C697 C696 1.363 . S
C697 C703 1.428 . S
H698 C694 0.930 . S
H699 C696 0.929 . S
S700 N701 1.613 . S
S700 N702 1.610 . S
N701 S700 1.613 . S
N701 C704 1.350 . S
N702 S700 1.610 . S
N702 C703 1.351 . S
C703 C697 1.428 . S
C703 N702 1.351 . S
C703 C704 1.434 . S
C704 C695 1.429 . S
C704 N701 1.350 . S
C704 C703 1.434 . S
C705 C706 1.369 . S
C705 C707 1.419 . S
C705 H709 0.930 . S
C706 C705 1.369 . S
C706 C715 1.429 . S
C707 C705 1.419 . S
C707 C708 1.363 . S
C707 H710 0.929 . S
C708 C707 1.363 . S
C708 C714 1.428 . S
H709 C705 0.930 . S
H710 C707 0.929 . S
S711 N712 1.613 . S
S711 N713 1.610 . S
N712 S711 1.613 . S
N712 C715 1.350 . S
N713 S711 1.610 . S
N713 C714 1.351 . S
C714 C708 1.428 . S
C714 N713 1.351 . S
C714 C715 1.434 . S
C715 C706 1.429 . S
C715 N712 1.350 . S
C715 C714 1.434 . S
C716 C717 1.369 . S
C716 C718 1.419 . S
C716 H720 0.930 . S
C717 C716 1.369 . S
C717 C726 1.429 . S
C718 C716 1.419 . S
C718 C719 1.363 . S
C718 H721 0.929 . S
C719 C718 1.363 . S
C719 C725 1.428 . S
H720 C716 0.930 . S
H721 C718 0.929 . S
S722 N723 1.613 . S
S722 N724 1.610 . S
N723 S722 1.613 . S
N723 C726 1.350 . S
N724 S722 1.610 . S
N724 C725 1.351 . S
C725 C719 1.428 . S
C725 N724 1.351 . S
C725 C726 1.434 . S
C726 C717 1.429 . S
C726 N723 1.350 . S
C726 C725 1.434 . S
C727 C728 1.369 . S
C727 C729 1.419 . S
C727 H731 0.930 . S
C728 C727 1.369 . S
C728 C737 1.429 . S
C729 C727 1.419 . S
C729 C730 1.363 . S
C729 H732 0.929 . S
C730 C729 1.363 . S
C730 C736 1.428 . S
H731 C727 0.930 . S
H732 C729 0.929 . S
S733 N734 1.613 . S
S733 N735 1.610 . S
N734 S733 1.613 . S
N734 C737 1.350 . S
N735 S733 1.610 . S
N735 C736 1.351 . S
C736 C730 1.428 . S
C736 N735 1.351 . S
C736 C737 1.434 . S
C737 C728 1.429 . S
C737 N734 1.350 . S
C737 C736 1.434 . S
C738 C739 1.369 . S
C738 C740 1.419 . S
C738 H742 0.930 . S
C739 C738 1.369 . S
C739 C748 1.429 . S
C740 C738 1.419 . S
C740 C741 1.363 . S
C740 H743 0.929 . S
C741 C740 1.363 . S
C741 C747 1.428 . S
H742 C738 0.930 . S
H743 C740 0.929 . S
S744 N745 1.613 . S
S744 N746 1.610 . S
N745 S744 1.613 . S
N745 C748 1.350 . S
N746 S744 1.610 . S
N746 C747 1.351 . S
C747 C741 1.428 . S
C747 N746 1.351 . S
C747 C748 1.434 . S
C748 C739 1.429 . S
C748 N745 1.350 . S
C748 C747 1.434 . S
C749 C750 1.369 . S
C749 C751 1.419 . S
C749 H753 0.930 . S
C750 C749 1.369 . S
C750 C759 1.429 . S
C751 C749 1.419 . S
C751 C752 1.363 . S
C751 H754 0.929 . S
C752 C751 1.363 . S
C752 C758 1.428 . S
H753 C749 0.930 . S
H754 C751 0.929 . S
S755 N756 1.613 . S
S755 N757 1.610 . S
N756 S755 1.613 . S
N756 C759 1.350 . S
N757 S755 1.610 . S
N757 C758 1.351 . S
C758 C752 1.428 . S
C758 N757 1.351 . S
C758 C759 1.434 . S
C759 C750 1.429 . S
C759 N756 1.350 . S
C759 C758 1.434 . S
C760 C761 1.369 . S
C760 C762 1.419 . S
C760 H764 0.930 . S
C761 C760 1.369 . S
C761 C770 1.429 . S
C762 C760 1.419 . S
C762 C763 1.363 . S
C762 H765 0.929 . S
C763 C762 1.363 . S
C763 C769 1.428 . S
H764 C760 0.930 . S
H765 C762 0.929 . S
S766 N767 1.613 . S
S766 N768 1.610 . S
N767 S766 1.613 . S
N767 C770 1.350 . S
N768 S766 1.610 . S
N768 C769 1.351 . S
C769 C763 1.428 . S
C769 N768 1.351 . S
C769 C770 1.434 . S
C770 C761 1.429 . S
C770 N767 1.350 . S
C770 C769 1.434 . S
C771 C772 1.369 . S
C771 C773 1.419 . S
C771 H775 0.930 . S
C772 C771 1.369 . S
C772 C781 1.429 . S
C773 C771 1.419 . S
C773 C774 1.363 . S
C773 H776 0.929 . S
C774 C773 1.363 . S
C774 C780 1.428 . S
H775 C771 0.930 . S
H776 C773 0.929 . S
S777 N778 1.613 . S
S777 N779 1.610 . S
N778 S777 1.613 . S
N778 C781 1.350 . S
N779 S777 1.610 . S
N779 C780 1.351 . S
C780 C774 1.428 . S
C780 N779 1.351 . S
C780 C781 1.434 . S
C781 C772 1.429 . S
C781 N778 1.350 . S
C781 C780 1.434 . S
C782 C783 1.369 . S
C782 C784 1.419 . S
C782 H786 0.930 . S
C783 C782 1.369 . S
C783 C792 1.429 . S
C784 C782 1.419 . S
C784 C785 1.363 . S
C784 H787 0.929 . S
C785 C784 1.363 . S
C785 C791 1.428 . S
H786 C782 0.930 . S
H787 C784 0.929 . S
S788 N789 1.613 . S
S788 N790 1.610 . S
N789 S788 1.613 . S
N789 C792 1.350 . S
N790 S788 1.610 . S
N790 C791 1.351 . S
C791 C785 1.428 . S
C791 N790 1.351 . S
C791 C792 1.434 . S
C792 C783 1.429 . S
C792 N789 1.350 . S
C792 C791 1.434 . S
C793 C794 1.369 . S
C793 C795 1.419 . S
C793 H797 0.930 . S
C794 C793 1.369 . S
C794 C803 1.429 . S
C795 C793 1.419 . S
C795 C796 1.363 . S
C795 H798 0.929 . S
C796 C795 1.363 . S
C796 C802 1.428 . S
H797 C793 0.930 . S
H798 C795 0.929 . S
S799 N800 1.613 . S
S799 N801 1.610 . S
N800 S799 1.613 . S
N800 C803 1.350 . S
N801 S799 1.610 . S
N801 C802 1.351 . S
C802 C796 1.428 . S
C802 N801 1.351 . S
C802 C803 1.434 . S
C803 C794 1.429 . S
C803 N800 1.350 . S
C803 C802 1.434 . S
C804 C805 1.369 . S
C804 C806 1.419 . S
C804 H808 0.930 . S
C805 C804 1.369 . S
C805 C814 1.429 . S
C806 C804 1.419 . S
C806 C807 1.363 . S
C806 H809 0.929 . S
C807 C806 1.363 . S
C807 C813 1.428 . S
H808 C804 0.930 . S
H809 C806 0.929 . S
S810 N811 1.613 . S
S810 N812 1.610 . S
N811 S810 1.613 . S
N811 C814 1.350 . S
N812 S810 1.610 . S
N812 C813 1.351 . S
C813 C807 1.428 . S
C813 N812 1.351 . S
C813 C814 1.434 . S
C814 C805 1.429 . S
C814 N811 1.350 . S
C814 C813 1.434 . S
C815 C816 1.369 . S
C815 C817 1.419 . S
C815 H819 0.930 . S
C816 C815 1.369 . S
C816 C825 1.429 . S
C817 C815 1.419 . S
C817 C818 1.363 . S
C817 H820 0.929 . S
C818 C817 1.363 . S
C818 C824 1.428 . S
H819 C815 0.930 . S
H820 C817 0.929 . S
S821 N822 1.613 . S
S821 N823 1.610 . S
N822 S821 1.613 . S
N822 C825 1.350 . S
N823 S821 1.610 . S
N823 C824 1.351 . S
C824 C818 1.428 . S
C824 N823 1.351 . S
C824 C825 1.434 . S
C825 C816 1.429 . S
C825 N822 1.350 . S
C825 C824 1.434 . S
C826 C827 1.369 . S
C826 C828 1.419 . S
C826 H830 0.930 . S
C827 C826 1.369 . S
C827 C836 1.429 . S
C828 C826 1.419 . S
C828 C829 1.363 . S
C828 H831 0.929 . S
C829 C828 1.363 . S
C829 C835 1.428 . S
H830 C826 0.930 . S
H831 C828 0.929 . S
S832 N833 1.613 . S
S832 N834 1.610 . S
N833 S832 1.613 . S
N833 C836 1.350 . S
N834 S832 1.610 . S
N834 C835 1.351 . S
C835 C829 1.428 . S
C835 N834 1.351 . S
C835 C836 1.434 . S
C836 C827 1.429 . S
C836 N833 1.350 . S
C836 C835 1.434 . S
C837 C838 1.369 . S
C837 C839 1.419 . S
C837 H841 0.930 . S
C838 C837 1.369 . S
C838 C847 1.429 . S
C839 C837 1.419 . S
C839 C840 1.363 . S
C839 H842 0.929 . S
C840 C839 1.363 . S
C840 C846 1.428 . S
H841 C837 0.930 . S
H842 C839 0.929 . S
S843 N844 1.613 . S
S843 N845 1.610 . S
N844 S843 1.613 . S
N844 C847 1.350 . S
N845 S843 1.610 . S
N845 C846 1.351 . S
C846 C840 1.428 . S
C846 N845 1.351 . S
C846 C847 1.434 . S
C847 C838 1.429 . S
C847 N844 1.350 . S
C847 C846 1.434 . S
C848 C849 1.369 . S
C848 C850 1.419 1_556 S
C848 H852 0.930 . S
C849 C848 1.369 . S
C849 C858 1.429 1_645 S
C850 C848 1.419 1_554 S
C850 C851 1.363 1_645 S
C850 H853 0.929 . S
C851 C850 1.363 1_465 S
C851 C857 1.428 . S
H852 C848 0.930 . S
H853 C850 0.929 . S
S854 N855 1.613 . S
S854 N856 1.610 1_556 S
N855 S854 1.613 . S
N855 C858 1.350 . S
N856 S854 1.610 1_554 S
N856 C857 1.351 . S
C857 C851 1.428 . S
C857 N856 1.351 . S
C857 C858 1.434 1_554 S
C858 C849 1.429 1_465 S
C858 N855 1.350 . S
C858 C857 1.434 1_556 S
C859 C860 1.369 . S
C859 C861 1.419 . S
C859 H863 0.930 . S
C860 C859 1.369 . S
C860 C869 1.429 . S
C861 C859 1.419 . S
C861 C862 1.363 . S
C861 H864 0.929 . S
C862 C861 1.363 . S
C862 C868 1.428 . S
H863 C859 0.930 . S
H864 C861 0.929 . S
S865 N866 1.613 . S
S865 N867 1.610 . S
N866 S865 1.613 . S
N866 C869 1.350 . S
N867 S865 1.610 . S
N867 C868 1.351 . S
C868 C862 1.428 . S
C868 N867 1.351 . S
C868 C869 1.434 . S
C869 C860 1.429 . S
C869 N866 1.350 . S
C869 C868 1.434 . S
C870 C871 1.369 . S
C870 C872 1.419 . S
C870 H874 0.930 . S
C871 C870 1.369 . S
C871 C880 1.429 1_545 S
C872 C870 1.419 . S
C872 C873 1.363 1_545 S
C872 H875 0.929 . S
C873 C872 1.363 1_565 S
C873 C879 1.428 . S
H874 C870 0.930 . S
H875 C872 0.929 . S
S876 N877 1.613 . S
S876 N878 1.610 . S
N877 S876 1.613 . S
N877 C880 1.350 . S
N878 S876 1.610 . S
N878 C879 1.351 . S
C879 C873 1.428 . S
C879 N878 1.351 . S
C879 C880 1.434 . S
C880 C871 1.429 1_565 S
C880 N877 1.350 . S
C880 C879 1.434 . S
C881 C882 1.369 . S
C881 C883 1.419 . S
C881 H885 0.930 . S
C882 C881 1.369 . S
C882 C891 1.429 . S
C883 C881 1.419 . S
C883 C884 1.363 . S
C883 H886 0.929 . S
C884 C883 1.363 . S
C884 C890 1.428 . S
H885 C881 0.930 . S
H886 C883 0.929 . S
S887 N888 1.613 . S
S887 N889 1.610 . S
N888 S887 1.613 . S
N888 C891 1.350 . S
N889 S887 1.610 . S
N889 C890 1.351 . S
C890 C884 1.428 . S
C890 N889 1.351 . S
C890 C891 1.434 . S
C891 C882 1.429 . S
C891 N888 1.350 . S
C891 C890 1.434 . S
C892 C893 1.369 . S
C892 C894 1.419 . S
C892 H896 0.930 . S
C893 C892 1.369 . S
C893 C902 1.429 . S
C894 C892 1.419 . S
C894 C895 1.363 . S
C894 H897 0.929 . S
C895 C894 1.363 . S
C895 C901 1.428 . S
H896 C892 0.930 . S
H897 C894 0.929 . S
S898 N899 1.613 . S
S898 N900 1.610 . S
N899 S898 1.613 . S
N899 C902 1.350 . S
N900 S898 1.610 . S
N900 C901 1.351 . S
C901 C895 1.428 . S
C901 N900 1.351 . S
C901 C902 1.434 . S
C902 C893 1.429 . S
C902 N899 1.350 . S
C902 C901 1.434 . S
C903 C904 1.369 . S
C903 C905 1.419 . S
C903 H907 0.930 . S
C904 C903 1.369 . S
C904 C913 1.429 . S
C905 C903 1.419 . S
C905 C906 1.363 . S
C905 H908 0.929 . S
C906 C905 1.363 . S
C906 C912 1.428 . S
H907 C903 0.930 . S
H908 C905 0.929 . S
S909 N910 1.613 . S
S909 N911 1.610 . S
N910 S909 1.613 . S
N910 C913 1.350 . S
N911 S909 1.610 . S
N911 C912 1.351 . S
C912 C906 1.428 . S
C912 N911 1.351 . S
C912 C913 1.434 . S
C913 C904 1.429 . S
C913 N910 1.350 . S
C913 C912 1.434 . S
C914 C915 1.369 . S
C914 C916 1.419 . S
C914 H918 0.930 . S
C915 C914 1.369 . S
C915 C924 1.429 . S
C916 C914 1.419 . S
C916 C917 1.363 . S
C916 H919 0.929 . S
C917 C916 1.363 . S
C917 C923 1.428 . S
H918 C914 0.930 . S
H919 C916 0.929 . S
S920 N921 1.613 . S
S920 N922 1.610 . S
N921 S920 1.613 . S
N921 C924 1.350 . S
N922 S920 1.610 . S
N922 C923 1.351 . S
C923 C917 1.428 . S
C923 N922 1.351 . S
C923 C924 1.434 . S
C924 C915 1.429 . S
C924 N921 1.350 . S
C924 C923 1.434 . S
C925 C926 1.369 . S
C925 C927 1.417 1_656 S
C925 H929 0.930 . S
C926 C925 1.369 . S
C926 C935 1.429 1_655 S
C927 C925 1.417 1_454 S
C927 C928 1.365 . S
C927 H930 0.929 . S
C928 C927 1.365 . S
C928 C934 1.428 . S
H929 C925 0.930 . S
H930 C927 0.929 . S
S931 N932 1.613 . S
S931 N933 1.610 1_556 S
N932 S931 1.613 . S
N932 C935 1.350 . S
N933 S931 1.610 1_554 S
N933 C934 1.351 . S
C934 C928 1.428 . S
C934 N933 1.351 . S
C934 C935 1.434 1_554 S
C935 C926 1.429 1_455 S
C935 N932 1.350 . S
C935 C934 1.434 1_556 S
C673 C56 1.568 . S
C675 C308 1.562 . S
C684 C74 1.474 . S
C686 C140 1.439 . S
C695 C158 1.342 . S
C697 C242 1.344 . S
C706 C224 1.438 . S
C708 C326 1.471 . S
C717 C67 1.573 . S
C719 C487 1.570 . S
C728 C63 1.473 . S
C730 C403 1.439 . S
C739 C399 1.341 . S
C741 C231 1.343 . S
C750 C483 1.475 . S
C752 C235 1.440 . S
C761 C560 1.565 . S
C763 C476 1.568 . S
C772 C392 1.435 . S
C774 C578 1.473 . S
C783 C662 1.348 . S
C785 C410 1.348 . S
C794 C494 1.470 . S
C796 C644 1.437 . S
C805 C319 1.573 . S
C807 C571 1.568 . S
C816 C567 1.474 . S
C818 C151 1.437 . S
C827 C147 1.342 . S
C829 C651 1.345 . S
C838 C315 1.473 . S
C840 C655 1.434 . S
C849 C70 1.388 . S
C851 C58 1.377 . S
C860 C142 1.357 . S
C862 C154 1.367 . S
C871 C238 1.370 . S
C873 C226 1.357 . S
C882 C322 1.385 . S
C884 C310 1.379 . S
C893 C394 1.368 . S
C895 C406 1.359 . S
C904 C490 1.381 . S
C906 C478 1.383 . S
C915 C562 1.375 . S
C917 C574 1.387 . S
C926 C646 1.370 . S
C928 C658 1.357 . S
