# Generated by pormake.
# Topology zfo, (5)-cn, num edge types: 1
# Building blocks:
#     Node 0, Type 0, BuildingBlock: XOMCOT_clean_sbu_0, # of connection points: 5
#     Node 1, Type 0, BuildingBlock: XOMCOT_clean_sbu_0, # of connection points: 5
#     Node 2, Type 0, BuildingBlock: XOMCOT_clean_sbu_0, # of connection points: 5
#     Node 3, Type 0, BuildingBlock: XOMCOT_clean_sbu_0, # of connection points: 5
#     Node 4, Type 0, BuildingBlock: XOMCOT_clean_sbu_0, # of connection points: 5
#     Node 5, Type 0, BuildingBlock: XOMCOT_clean_sbu_0, # of connection points: 5
#     Node 6, Type 0, BuildingBlock: XOMCOT_clean_sbu_0, # of connection points: 5
#     Node 7, Type 0, BuildingBlock: XOMCOT_clean_sbu_0, # of connection points: 5
#     Node 8, Type 0, BuildingBlock: XOMCOT_clean_sbu_0, # of connection points: 5
#     Node 9, Type 0, BuildingBlock: XOMCOT_clean_sbu_0, # of connection points: 5
#     Node 10, Type 0, BuildingBlock: XOMCOT_clean_sbu_0, # of connection points: 5
#     Node 11, Type 0, BuildingBlock: XOMCOT_clean_sbu_0, # of connection points: 5
#     Node 12, Type 0, BuildingBlock: XOMCOT_clean_sbu_0, # of connection points: 5
#     Node 13, Type 0, BuildingBlock: XOMCOT_clean_sbu_0, # of connection points: 5
#     Node 14, Type 0, BuildingBlock: XOMCOT_clean_sbu_0, # of connection points: 5
#     Node 15, Type 0, BuildingBlock: XOMCOT_clean_sbu_0, # of connection points: 5
#     Edge 16, Type (0, 0), BuildingBlock: EZIPEK_clean_linker_0, # of connection points: 2
#     Edge 17, Type (0, 0), BuildingBlock: EZIPEK_clean_linker_0, # of connection points: 2
#     Edge 18, Type (0, 0), BuildingBlock: EZIPEK_clean_linker_0, # of connection points: 2
#     Edge 19, Type (0, 0), BuildingBlock: EZIPEK_clean_linker_0, # of connection points: 2
#     Edge 20, Type (0, 0), BuildingBlock: EZIPEK_clean_linker_0, # of connection points: 2
#     Edge 21, Type (0, 0), BuildingBlock: EZIPEK_clean_linker_0, # of connection points: 2
#     Edge 22, Type (0, 0), BuildingBlock: EZIPEK_clean_linker_0, # of connection points: 2
#     Edge 23, Type (0, 0), BuildingBlock: EZIPEK_clean_linker_0, # of connection points: 2
#     Edge 24, Type (0, 0), BuildingBlock: EZIPEK_clean_linker_0, # of connection points: 2
#     Edge 25, Type (0, 0), BuildingBlock: EZIPEK_clean_linker_0, # of connection points: 2
#     Edge 26, Type (0, 0), BuildingBlock: EZIPEK_clean_linker_0, # of connection points: 2
#     Edge 27, Type (0, 0), BuildingBlock: EZIPEK_clean_linker_0, # of connection points: 2
#     Edge 28, Type (0, 0), BuildingBlock: EZIPEK_clean_linker_0, # of connection points: 2
#     Edge 29, Type (0, 0), BuildingBlock: EZIPEK_clean_linker_0, # of connection points: 2
#     Edge 30, Type (0, 0), BuildingBlock: EZIPEK_clean_linker_0, # of connection points: 2
#     Edge 31, Type (0, 0), BuildingBlock: EZIPEK_clean_linker_0, # of connection points: 2
#     Edge 32, Type (0, 0), BuildingBlock: EZIPEK_clean_linker_0, # of connection points: 2
#     Edge 33, Type (0, 0), BuildingBlock: EZIPEK_clean_linker_0, # of connection points: 2
#     Edge 34, Type (0, 0), BuildingBlock: EZIPEK_clean_linker_0, # of connection points: 2
#     Edge 35, Type (0, 0), BuildingBlock: EZIPEK_clean_linker_0, # of connection points: 2
#     Edge 36, Type (0, 0), BuildingBlock: EZIPEK_clean_linker_0, # of connection points: 2
#     Edge 37, Type (0, 0), BuildingBlock: EZIPEK_clean_linker_0, # of connection points: 2
#     Edge 38, Type (0, 0), BuildingBlock: EZIPEK_clean_linker_0, # of connection points: 2
#     Edge 39, Type (0, 0), BuildingBlock: EZIPEK_clean_linker_0, # of connection points: 2
#     Edge 40, Type (0, 0), BuildingBlock: EZIPEK_clean_linker_0, # of connection points: 2
#     Edge 41, Type (0, 0), BuildingBlock: EZIPEK_clean_linker_0, # of connection points: 2
#     Edge 42, Type (0, 0), BuildingBlock: EZIPEK_clean_linker_0, # of connection points: 2
#     Edge 43, Type (0, 0), BuildingBlock: EZIPEK_clean_linker_0, # of connection points: 2
#     Edge 44, Type (0, 0), BuildingBlock: EZIPEK_clean_linker_0, # of connection points: 2
#     Edge 45, Type (0, 0), BuildingBlock: EZIPEK_clean_linker_0, # of connection points: 2
#     Edge 46, Type (0, 0), BuildingBlock: EZIPEK_clean_linker_0, # of connection points: 2
#     Edge 47, Type (0, 0), BuildingBlock: EZIPEK_clean_linker_0, # of connection points: 2
#     Edge 48, Type (0, 0), BuildingBlock: EZIPEK_clean_linker_0, # of connection points: 2
#     Edge 49, Type (0, 0), BuildingBlock: EZIPEK_clean_linker_0, # of connection points: 2
#     Edge 50, Type (0, 0), BuildingBlock: EZIPEK_clean_linker_0, # of connection points: 2
#     Edge 51, Type (0, 0), BuildingBlock: EZIPEK_clean_linker_0, # of connection points: 2
#     Edge 52, Type (0, 0), BuildingBlock: EZIPEK_clean_linker_0, # of connection points: 2
#     Edge 53, Type (0, 0), BuildingBlock: EZIPEK_clean_linker_0, # of connection points: 2
#     Edge 54, Type (0, 0), BuildingBlock: EZIPEK_clean_linker_0, # of connection points: 2
#     Edge 55, Type (0, 0), BuildingBlock: EZIPEK_clean_linker_0, # of connection points: 2
# Relax obj value: 0.197
# Max RMSD: 0.189
# Mean RMSD: 0.189
data_MOF--net-zfo--node1-XOMCOT_clean_sbu_0--edge1-EZIPEK_clean_linker_0
_symmetry_space_group_name_H-M    P1
_symmetry_Int_Tables_number       1
_symmetry_cell_setting            triclinic
loop_
_symmetry_equiv_pos_as_xyz
'x, y, z'
_cell_length_a     26.098644
_cell_length_b     26.120993
_cell_length_c     44.018343
_cell_angle_alpha  89.955171
_cell_angle_beta   90.106418
_cell_angle_gamma 89.954377
loop_
_atom_site_label
_atom_site_type_symbol
_atom_site_fract_x
_atom_site_fract_y
_atom_site_fract_z
_atom_type_partial_charge
Co0 Co 0.09244 0.21881 0.17422 0.0
C1 C 0.20387 0.20976 0.17228 0.0
C2 C 0.17253 0.16338 0.2078 0.0
C3 C 0.22507 0.16499 0.21132 0.0
N4 N 0.15939 0.19087 0.18296 0.0
N5 N 0.24417 0.19451 0.18896 0.0
H6 H 0.20702 0.23791 0.15453 0.0
H7 H 0.14555 0.1472 0.22374 0.0
C8 C 0.07774 0.10323 0.17204 0.0
O9 O 0.12466 0.09912 0.16164 0.0
N10 N 0.02571 0.24893 0.16599 0.0
C11 C 0.01052 0.27206 0.13998 0.0
C12 C 0.96206 0.29116 0.14369 0.0
C13 C 0.98605 0.25515 0.18541 0.0
N14 N 0.94682 0.2807 0.17215 0.0
C15 C 0.13125 0.25208 0.11639 0.0
C16 C 0.08475 0.17867 0.08075 0.0
C17 C 0.11105 0.21876 0.06669 0.0
C18 C 0.13502 0.25543 0.08482 0.0
C19 C 0.08147 0.17697 0.11244 0.0
N20 N 0.10463 0.21326 0.13017 0.0
H21 H 0.14748 0.28285 0.1295 0.0
H22 H 0.05777 0.14797 0.12203 0.0
H23 H 0.03297 0.27652 0.11965 0.0
H24 H 0.98618 0.24237 0.2088 0.0
O25 O 0.12084 0.2865 0.18098 0.0
O26 O 0.08806 0.23869 0.21679 0.0
O27 O 0.0587 0.14779 0.1773 0.0
C28 C 0.11112 0.28125 0.2097 0.0
H29 H 0.24706 0.14912 0.22996 0.0
H30 H 0.94008 0.31254 0.12708 0.0
H31 H 0.06503 0.15009 0.06728 0.0
H32 H 0.15499 0.28745 0.07462 0.0
Co33 Co 0.82136 0.10055 0.68439 0.0
C34 C 0.80878 0.20565 0.66285 0.0
C35 C 0.87885 0.19787 0.68817 0.0
C36 C 0.86965 0.24927 0.68292 0.0
N37 N 0.83992 0.17083 0.67616 0.0
N38 N 0.82508 0.25399 0.66752 0.0
H39 H 0.77294 0.196 0.65187 0.0
H40 H 0.9092 0.18189 0.702 0.0
C41 C 0.91647 0.03707 0.67501 0.0
O42 O 0.88771 1.00551 0.65924 0.0
N43 N 0.80099 0.03043 0.69281 0.0
C44 C 0.81213 1.00521 0.71874 0.0
C45 C 0.79234 0.95655 0.71708 0.0
C46 C 0.77375 0.99669 0.67588 0.0
N47 N 0.76784 0.95166 0.69036 0.0
C48 C 0.76741 0.08988 0.62797 0.0
C49 C 0.85252 0.09338 0.59077 0.0
C50 C 0.80387 0.08981 0.5776 0.0
C51 C 0.76085 0.08864 0.59649 0.0
C52 C 0.85723 0.09565 0.62229 0.0
N53 N 0.81526 0.09115 0.64063 0.0
H54 H 0.73382 0.08986 0.64225 0.0
H55 H 0.89457 0.10301 0.63168 0.0
H56 H 0.83474 0.02055 0.73721 0.0
H57 H 0.75949 1.00341 0.65329 0.0
O58 O 0.752 0.12334 0.69361 0.0
O59 O 0.81448 0.11663 0.72735 0.0
O60 O 0.89688 0.07858 0.68553 0.0
C61 C 0.76724 0.12907 0.72155 0.0
H62 H 0.89232 0.28094 0.69133 0.0
H63 H 0.79732 0.92642 0.73358 0.0
H64 H 0.88645 0.09628 0.57673 0.0
H65 H 0.72259 0.08733 0.58695 0.0
Co66 Co 0.91549 0.81221 0.17243 0.0
C67 C 0.80589 0.83002 0.16926 0.0
C68 C 0.84089 0.88757 0.19684 0.0
C69 C 0.78834 0.89384 0.19746 0.0
N70 N 0.8515 0.84735 0.17907 0.0
N71 N 0.7658 0.85869 0.17897 0.0
H72 H 0.80247 0.79449 0.15691 0.0
H73 H 0.86884 0.9084 0.21013 0.0
C74 C 0.99087 0.89973 0.15923 0.0
O75 O 0.01216 0.8729 0.13742 0.0
N76 N 0.97855 0.77374 0.1655 0.0
C77 C 0.98019 0.72659 0.15284 0.0
C78 C 0.02833 0.70669 0.15554 0.0
C79 C 0.0265 0.78109 0.17658 0.0
N80 N 0.05743 0.74079 0.17035 0.0
C81 C 0.8908 0.77489 0.11249 0.0
C82 C 0.89849 0.86781 0.083 0.0
C83 C 0.89393 0.82302 0.06579 0.0
C84 C 0.8877 0.77638 0.08086 0.0
C85 C 0.90137 0.86429 0.11471 0.0
N86 N 0.90286 0.81772 0.12878 0.0
H87 H 0.88292 0.73924 0.12377 0.0
H88 H 0.90228 0.89894 0.12795 0.0
H89 H 0.94813 0.70544 0.14413 0.0
H90 H 0.03827 0.81405 0.1896 0.0
O91 O 0.88027 0.74812 0.18074 0.0
O92 O 0.9197 0.79557 0.21517 0.0
O93 O 0.95328 0.88108 0.1744 0.0
C94 C 0.89216 0.75532 0.20912 0.0
H95 H 0.76939 0.92025 0.21249 0.0
H96 H 0.04095 0.66934 0.14792 0.0
H97 H 0.90051 0.90489 0.07203 0.0
H98 H 0.88112 0.74139 0.06825 0.0
Co99 Co 0.23013 0.91695 0.67685 0.0
C100 C 0.20444 0.80865 0.67046 0.0
C101 C 0.16624 0.8419 0.70857 0.0
C102 C 0.16125 0.78943 0.71038 0.0
N103 N 0.19265 0.85402 0.68321 0.0
N104 N 0.18641 0.76894 0.68665 0.0
H105 H 0.23058 0.80388 0.65178 0.0
H106 H 0.15734 0.86862 0.7265 0.0
C107 C 0.11781 0.94618 0.67457 0.0
O108 O 0.11019 0.90275 0.66025 0.0
N109 N 0.27073 0.97782 0.67029 0.0
C110 C 0.31921 0.97666 0.65961 0.0
C111 C 0.3369 0.0256 0.65654 0.0
C112 C 0.25894 0.02801 0.67273 0.0
N113 N 0.29919 0.05777 0.66469 0.0
C114 C 0.25668 0.88163 0.61704 0.0
C115 C 0.18989 0.94298 0.58469 0.0
C116 C 0.2229 0.91047 0.5688 0.0
C117 C 0.25704 0.87994 0.58531 0.0
C118 C 0.19165 0.94433 0.61642 0.0
N119 N 0.22306 0.91224 0.63251 0.0
H120 H 0.28474 0.85902 0.62904 0.0
H121 H 0.16902 0.97284 0.62751 0.0
H122 H 0.34046 0.94253 0.65383 0.0
H123 H 0.22242 0.04255 0.68044 0.0
O124 O 0.2931 0.87823 0.68217 0.0
O125 O 0.2507 0.91387 0.71954 0.0
O126 O 0.16377 0.95929 0.68198 0.0
C127 C 0.28921 0.88542 0.7112 0.0
H128 H 0.14564 0.76796 0.72927 0.0
H129 H 0.37445 0.037 0.6486 0.0
H130 H 0.1641 0.96838 0.57261 0.0
H131 H 0.28415 0.85537 0.57373 0.0
Co132 Co 0.60478 0.29661 0.84056 0.0
C133 C 0.7122 0.31695 0.84971 0.0
C134 C 0.68292 0.368 0.81558 0.0
C135 C 0.73595 0.36956 0.8151 0.0
N136 N 0.6684 0.33373 0.83672 0.0
N137 N 0.75393 0.33662 0.83623 0.0
H138 H 0.71366 0.28619 0.86619 0.0
H139 H 0.65734 0.38614 0.79948 0.0
C140 C 0.52842 0.38511 0.84956 0.0
O141 O 0.50907 0.3624 0.87359 0.0
N142 N 0.54304 0.25524 0.84574 0.0
C143 C 0.54382 0.20698 0.85694 0.0
C144 C 0.49537 0.1875 0.85755 0.0
C145 C 0.49332 0.26334 0.83819 0.0
N146 N 0.46364 0.22282 0.84601 0.0
C147 C 0.61838 0.26505 0.9033 0.0
C148 C 0.61602 0.36249 0.92768 0.0
C149 C 0.61853 0.32044 0.94718 0.0
C150 C 0.62116 0.27126 0.9348 0.0
C151 C 0.61347 0.35444 0.89639 0.0
N152 N 0.61088 0.30609 0.88455 0.0
H153 H 0.62385 0.22737 0.89416 0.0
H154 H 0.61395 0.38736 0.88175 0.0
H155 H 0.57755 0.18543 0.86295 0.0
H156 H 0.47951 0.29665 0.82627 0.0
O157 O 0.64437 0.23371 0.83433 0.0
O158 O 0.6068 0.27814 0.79795 0.0
O159 O 0.56447 0.36333 0.83462 0.0
C160 C 0.63596 0.23989 0.80533 0.0
H161 H 0.75941 0.38992 0.79884 0.0
H162 H 0.48426 0.14954 0.86492 0.0
H163 H 0.61606 0.40115 0.93658 0.0
H164 H 0.62549 0.23806 0.94934 0.0
Co165 Co 0.72867 0.59477 0.32972 0.0
C166 C 0.7036 0.70453 0.33387 0.0
C167 C 0.6587 0.66719 0.2999 0.0
C168 C 0.65024 0.7192 0.29775 0.0
N169 N 0.69076 0.65776 0.32332 0.0
N170 N 0.6796 0.74246 0.31879 0.0
H171 H 0.73317 0.71173 0.35036 0.0
H172 H 0.64594 0.63863 0.28381 0.0
C173 C 0.61759 0.5632 0.33137 0.0
O174 O 0.61071 0.60202 0.34989 0.0
N175 N 0.76934 0.53383 0.33603 0.0
C176 C 0.81421 0.53421 0.35134 0.0
C177 C 0.83332 0.48552 0.35269 0.0
C178 C 0.76125 0.48436 0.32852 0.0
N179 N 0.80004 0.45426 0.33859 0.0
C180 C 0.74555 0.63119 0.39022 0.0
C181 C 0.68836 0.55818 0.42025 0.0
C182 C 0.715 0.59493 0.43719 0.0
C183 C 0.74434 0.63129 0.42183 0.0
C184 C 0.69171 0.55871 0.38852 0.0
N185 N 0.71791 0.59657 0.37367 0.0
H186 H 0.77121 0.65761 0.37936 0.0
H187 H 0.6746 0.52757 0.37616 0.0
H188 H 0.83161 0.56762 0.36149 0.0
H189 H 0.72802 0.47056 0.31632 0.0
O190 O 0.79126 0.63374 0.32812 0.0
O191 O 0.75314 0.60114 0.28804 0.0
O192 O 0.6631 0.55294 0.32181 0.0
C193 C 0.79019 0.62925 0.29892 0.0
H194 H 0.62791 0.73864 0.28048 0.0
H195 H 0.86833 0.47352 0.36386 0.0
H196 H 0.66657 0.52845 0.43151 0.0
H197 H 0.76684 0.65917 0.43425 0.0
Co198 Co 0.41836 0.70142 0.83431 0.0
C199 C 0.31192 0.69122 0.81015 0.0
C200 C 0.32103 0.64805 0.85096 0.0
C201 C 0.26973 0.65233 0.8449 0.0
N202 N 0.34849 0.6733 0.82953 0.0
N203 N 0.26398 0.68048 0.81969 0.0
H204 H 0.31908 0.71706 0.79155 0.0
H205 H 0.33518 0.63422 0.8724 0.0
C206 C 0.4415 0.58755 0.84266 0.0
O207 O 0.40797 0.58586 0.86464 0.0
N208 N 0.48538 0.73239 0.83977 0.0
C209 C 0.49481 0.76764 0.8615 0.0
C210 C 0.54315 0.7866 0.85787 0.0
C211 C 0.52806 0.73172 0.82233 0.0
N212 N 0.56402 0.76439 0.8333 0.0
C213 C 0.37713 0.72006 0.89378 0.0
C214 C 0.45353 0.66908 0.92543 0.0
C215 C 0.41411 0.69295 0.94145 0.0
C216 C 0.37561 0.7189 0.9255 0.0
C217 C 0.45343 0.67088 0.89383 0.0
N218 N 0.4146 0.69453 0.87831 0.0
H219 H 0.34816 0.74127 0.88147 0.0
H220 H 0.48547 0.65451 0.88181 0.0
H221 H 0.46753 0.78028 0.87835 0.0
H222 H 0.5321 0.70947 0.80174 0.0
O223 O 0.39088 0.77034 0.82955 0.0
O224 O 0.41889 0.7223 0.79224 0.0
O225 O 0.45068 0.62996 0.82878 0.0
C226 C 0.40108 0.76667 0.80067 0.0
H227 H 0.23888 0.64111 0.85992 0.0
H228 H 0.56111 0.81608 0.8715 0.0
H229 H 0.48457 0.65005 0.9373 0.0
H230 H 0.34531 0.73874 0.93748 0.0
Co231 Co 0.32274 0.40987 0.32085 0.0
C232 C 0.31545 0.30376 0.34343 0.0
C233 C 0.38228 0.31553 0.31594 0.0
C234 C 0.37761 0.26397 0.32173 0.0
N235 N 0.34292 0.34025 0.32919 0.0
N236 N 0.33532 0.25669 0.33868 0.0
H237 H 0.27921 0.31073 0.35453 0.0
H238 H 0.40981 0.33303 0.30084 0.0
C239 C 0.41977 0.47018 0.32347 0.0
O240 O 0.39339 0.503 0.33973 0.0
N241 N 0.30335 0.47974 0.3109 0.0
C242 C 0.31113 0.5 0.28314 0.0
C243 C 0.29278 0.54914 0.28256 0.0
C244 C 0.28118 0.51776 0.32719 0.0
N245 N 0.27396 0.56024 0.31021 0.0
C246 C 0.28217 0.4318 0.37971 0.0
C247 C 0.37116 0.41304 0.41196 0.0
C248 C 0.32579 0.42286 0.42774 0.0
C249 C 0.28099 0.43275 0.41138 0.0
C250 C 0.37072 0.41286 0.38021 0.0
N251 N 0.32688 0.42355 0.36433 0.0
H252 H 0.24651 0.43637 0.36753 0.0
H253 H 0.40497 0.4012 0.36855 0.0
H254 H 0.33026 0.48063 0.26467 0.0
H255 H 0.27123 0.51581 0.35087 0.0
O256 O 0.25103 0.39041 0.31911 0.0
O257 O 0.30212 0.38809 0.27982 0.0
O258 O 0.39799 0.42922 0.31377 0.0
C259 C 0.25619 0.38 0.29055 0.0
H260 H 0.40052 0.23374 0.31182 0.0
H261 H 0.29468 0.57534 0.26365 0.0
H262 H 0.4061 0.4037 0.42409 0.0
H263 H 0.24502 0.43916 0.42302 0.0
Co264 Co 0.91861 0.81046 0.8265 0.0
C265 C 0.80621 0.82261 0.83106 0.0
C266 C 0.83817 0.86979 0.79619 0.0
C267 C 0.78598 0.8663 0.79164 0.0
N268 N 0.85126 0.84142 0.82064 0.0
N269 N 0.76609 0.83627 0.81345 0.0
H270 H 0.80271 0.79471 0.84888 0.0
H271 H 0.86529 0.88674 0.78061 0.0
C272 C 0.93807 0.92381 0.83201 0.0
O273 O 0.89446 0.92727 0.84672 0.0
N274 N 0.98416 0.77766 0.83174 0.0
C275 C 0.99308 0.73813 0.85073 0.0
C276 C 0.04232 0.72122 0.84651 0.0
C277 C 0.02791 0.78399 0.8158 0.0
N278 N 0.06402 0.74997 0.82467 0.0
C279 C 0.88145 0.7827 0.88605 0.0
C280 C 0.94116 0.85034 0.91879 0.0
C281 C 0.90637 0.81923 0.93427 0.0
C282 C 0.87682 0.78447 0.91767 0.0
C283 C 0.94474 0.84705 0.88719 0.0
N284 N 0.91298 0.81573 0.87086 0.0
H285 H 0.86085 0.75333 0.87396 0.0
H286 H 0.9744 0.86866 0.87628 0.0
H287 H 0.96522 0.72179 0.86605 0.0
H288 H 0.03297 0.81204 0.79794 0.0
O289 O 0.88722 0.74385 0.82009 0.0
O290 O 0.91942 0.79253 0.78389 0.0
O291 O 0.95361 0.88002 0.82264 0.0
C292 C 0.89494 0.75104 0.79118 0.0
H293 H 0.76454 0.88127 0.77259 0.0
H294 H 0.06081 0.68978 0.85827 0.0
H295 H 0.96625 0.87604 0.93111 0.0
H296 H 0.85118 0.75823 0.92913 0.0
Co297 Co 0.19695 0.90997 0.32993 0.0
C298 C 0.20242 0.79949 0.34196 0.0
C299 C 0.13327 0.82039 0.31853 0.0
C300 C 0.13872 0.76802 0.31724 0.0
N301 N 0.17356 0.84011 0.33366 0.0
N302 N 0.18263 0.75508 0.3315 0.0
H303 H 0.24005 0.8028 0.35215 0.0
H304 H 0.10492 0.84275 0.30643 0.0
C305 C 0.10439 0.97271 0.34604 0.0
O306 O 0.13406 0.99894 0.36436 0.0
N307 N 0.22073 0.98059 0.32398 0.0
C308 C 0.22705 1.00176 0.29614 0.0
C309 C 0.24656 0.04984 0.29895 0.0
C310 C 0.23525 0.01812 0.34356 0.0
N311 N 0.25149 0.06039 0.32864 0.0
C312 C 0.25042 0.92315 0.38662 0.0
C313 C 0.16859 0.89656 0.42323 0.0
C314 C 0.21516 0.91 0.43685 0.0
C315 C 0.25681 0.92245 0.4182 0.0
C316 C 0.16422 0.89702 0.39164 0.0
N317 N 0.20375 0.91318 0.37384 0.0
H318 H 0.28285 0.93216 0.37233 0.0
H319 H 0.12913 0.88372 0.38129 0.0
H320 H 0.21752 0.98444 0.27463 0.0
H321 H 0.23261 0.01591 0.368 0.0
O322 O 0.26492 0.88493 0.3208 0.0
O323 O 0.20438 0.89862 0.28674 0.0
O324 O 0.12278 0.93502 0.3309 0.0
C325 C 0.25121 0.88402 0.29243 0.0
H326 H 0.11468 0.74187 0.30459 0.0
H327 H 0.25467 0.07617 0.28055 0.0
H328 H 0.13613 0.88504 0.43692 0.0
H329 H 0.2938 0.93158 0.42798 0.0
Co330 Co 0.10663 0.21197 0.82789 0.0
C331 C 0.2159 0.19616 0.83918 0.0
C332 C 0.18078 0.12407 0.82884 0.0
C333 C 0.23254 0.1163 0.83411 0.0
N334 N 0.17059 0.17442 0.83202 0.0
N335 N 0.25464 0.16221 0.83939 0.0
H336 H 0.22125 0.23669 0.84305 0.0
H337 H 0.15294 0.09507 0.82299 0.0
C338 C 0.03689 0.12034 0.84511 0.0
O339 O 0.02396 0.13992 0.87144 0.0
N340 N 0.04364 0.253 0.82389 0.0
C341 C 0.04189 0.30174 0.81324 0.0
C342 C 0.99333 0.32071 0.81556 0.0
C343 C 0.99512 0.24408 0.83357 0.0
N344 N 0.96401 0.28478 0.82849 0.0
C345 C 0.09392 0.26444 0.88526 0.0
C346 C 0.11911 0.18133 0.92138 0.0
C347 C 0.10707 0.22778 0.93525 0.0
C348 C 0.09481 0.27001 0.91695 0.0
C349 C 0.11828 0.17763 0.88987 0.0
N350 N 0.10426 0.21822 0.87208 0.0
H351 H 0.08568 0.2975 0.87134 0.0
H352 H 0.12839 0.1416 0.87984 0.0
H353 H 0.07383 0.32406 0.80526 0.0
H354 H 0.98236 0.20948 0.84439 0.0
O355 O 0.14686 0.27229 0.81795 0.0
O356 O 0.11762 0.21637 0.7843 0.0
O357 O 0.06676 0.14442 0.82694 0.0
C358 C 0.14394 0.25756 0.78968 0.0
H359 H 0.25279 0.0802 0.83262 0.0
H360 H 0.98063 0.35866 0.80906 0.0
H361 H 0.12944 0.14814 0.93485 0.0
H362 H 0.08624 0.30682 0.92705 0.0
Co363 Co 0.79365 0.09473 0.3387 0.0
C364 C 0.82011 0.20359 0.34756 0.0
C365 C 0.87163 0.16673 0.31685 0.0
C366 C 0.88007 0.21874 0.31548 0.0
N367 N 0.83421 0.15706 0.33726 0.0
N368 N 0.84663 0.24167 0.33434 0.0
H369 H 0.78782 0.21063 0.36207 0.0
H370 H 0.88834 0.13845 0.30193 0.0
C371 C 0.90212 0.06269 0.34954 0.0
O372 O 0.9054 0.10338 0.36698 0.0
N373 N 0.7513 0.03407 0.33939 0.0
C374 C 0.70293 0.03335 0.35015 0.0
C375 C 0.68359 0.98485 0.34742 0.0
C376 C 0.76119 0.98553 0.33056 0.0
N377 N 0.72012 0.9549 0.33526 0.0
C378 C 0.76582 0.12843 0.39871 0.0
C379 C 0.81406 0.05008 0.42975 0.0
C380 C 0.79021 0.08913 0.44621 0.0
C381 C 0.76431 0.12772 0.43038 0.0
C382 C 0.81367 0.05182 0.39805 0.0
N383 N 0.79344 0.09285 0.38294 0.0
H384 H 0.74321 0.1567 0.38701 0.0
H385 H 0.82942 0.0198 0.38572 0.0
H386 H 0.68313 0.06585 0.3598 0.0
H387 H 0.79736 0.97274 0.32127 0.0
O388 O 0.7326 0.13507 0.33247 0.0
O389 O 0.7805 0.10406 0.29556 0.0
O390 O 0.85925 0.05175 0.33664 0.0
C391 C 0.7408 0.13131 0.30353 0.0
H392 H 0.90504 0.23845 0.29972 0.0
H393 H 0.646 0.97203 0.35447 0.0
H394 H 0.83251 0.01838 0.44131 0.0
H395 H 0.74327 0.15712 0.44244 0.0
Co396 Co 0.417 0.72135 0.17885 0.0
C397 C 0.30498 0.70799 0.17734 0.0
C398 C 0.33902 0.65595 0.20882 0.0
C399 C 0.28635 0.65129 0.21065 0.0
N400 N 0.35079 0.68979 0.18671 0.0
N401 N 0.26532 0.685 0.19115 0.0
H402 H 0.29979 0.7403 0.16254 0.0
H403 H 0.36653 0.63896 0.22417 0.0
C404 C 0.44073 0.60884 0.17958 0.0
O405 O 0.40093 0.60407 0.16147 0.0
N406 N 0.48118 0.75605 0.17099 0.0
C407 C 0.48504 0.79234 0.1493 0.0
C408 C 0.53327 0.81251 0.14977 0.0
C409 C 0.52769 0.75475 0.18474 0.0
N410 N 0.56003 0.78921 0.17193 0.0
C411 C 0.37805 0.72841 0.11787 0.0
C412 C 0.45348 0.67051 0.09047 0.0
C413 C 0.41563 0.69344 0.07255 0.0
C414 C 0.37765 0.72263 0.08645 0.0
C415 C 0.4526 0.67757 0.12194 0.0
N416 N 0.41398 0.7046 0.13556 0.0
H417 H 0.35163 0.75536 0.1274 0.0
H418 H 0.48432 0.66324 0.13507 0.0
H419 H 0.45438 0.80384 0.13423 0.0
H420 H 0.53752 0.72979 0.2035 0.0
O421 O 0.38333 0.78684 0.1772 0.0
O422 O 0.41271 0.75161 0.2192 0.0
O423 O 0.45362 0.6537 0.18906 0.0
C424 C 0.3875 0.78916 0.20644 0.0
H425 H 0.26499 0.62793 0.22642 0.0
H426 H 0.54793 0.84217 0.13494 0.0
H427 H 0.48455 0.64929 0.08011 0.0
H428 H 0.34916 0.74261 0.07298 0.0
Co429 Co 0.30459 0.41607 0.66618 0.0
C430 C 0.32063 0.30602 0.66148 0.0
C431 C 0.39025 0.3419 0.67634 0.0
C432 C 0.39819 0.28959 0.67468 0.0
N433 N 0.34144 0.35186 0.66801 0.0
N434 N 0.35392 0.26757 0.66576 0.0
H435 H 0.28137 0.30036 0.65432 0.0
H436 H 0.4178 0.37021 0.68369 0.0
C437 C 0.39405 0.48802 0.65218 0.0
O438 O 0.36984 0.50749 0.62865 0.0
N439 N 0.26468 0.47939 0.66427 0.0
C440 C 0.21325 0.48065 0.66034 0.0
C441 C 0.19578 0.52956 0.66336 0.0
C442 C 0.27762 0.5288 0.66968 0.0
N443 N 0.23607 0.55986 0.66912 0.0
C444 C 0.26362 0.41513 0.60484 0.0
C445 C 0.35699 0.40166 0.57638 0.0
C446 C 0.3132 0.40963 0.55873 0.0
C447 C 0.26584 0.41503 0.57312 0.0
C448 C 0.35295 0.40195 0.60799 0.0
N449 N 0.30725 0.41182 0.62192 0.0
H450 H 0.22668 0.41728 0.6154 0.0
H451 H 0.38697 0.39512 0.62133 0.0
H452 H 0.18894 0.4481 0.65602 0.0
H453 H 0.31578 0.54209 0.67466 0.0
O454 O 0.24196 0.37807 0.67426 0.0
O455 O 0.29199 0.41217 0.70943 0.0
O456 O 0.37261 0.45389 0.66866 0.0
C457 C 0.2524 0.38405 0.70299 0.0
H458 H 0.43267 0.26912 0.68101 0.0
H459 H 0.15639 0.54222 0.6614 0.0
H460 H 0.39397 0.39577 0.5658 0.0
H461 H 0.231 0.41938 0.55995 0.0
Co462 Co 0.59808 0.314 0.18457 0.0
C463 C 0.70781 0.33282 0.18043 0.0
C464 C 0.67288 0.38048 0.21426 0.0
C465 C 0.72529 0.38229 0.21803 0.0
N466 N 0.66208 0.34907 0.19084 0.0
N467 N 0.74698 0.352 0.19685 0.0
H468 H 0.71212 0.3032 0.16342 0.0
H469 H 0.64464 0.39663 0.22945 0.0
C470 C 0.53241 0.41006 0.17461 0.0
O471 O 0.51748 0.39362 0.14786 0.0
N472 N 0.53391 0.27561 0.17925 0.0
C473 C 0.53148 0.22381 0.17743 0.0
C474 C 0.48178 0.20812 0.17759 0.0
C475 C 0.48413 0.29041 0.18036 0.0
N476 N 0.45206 0.24975 0.17951 0.0
C477 C 0.59811 0.2816 0.12264 0.0
C478 C 0.62378 0.3745 0.09676 0.0
C479 C 0.61433 0.33229 0.078 0.0
C480 C 0.60206 0.28535 0.0912 0.0
C481 C 0.61919 0.36904 0.12831 0.0
N482 N 0.60432 0.32349 0.14081 0.0
H483 H 0.59091 0.24451 0.1323 0.0
H484 H 0.6274 0.40138 0.14263 0.0
H485 H 0.56349 0.19793 0.17608 0.0
H486 H 0.4711 0.32925 0.18219 0.0
O487 O 0.63504 0.24992 0.18824 0.0
O488 O 0.60008 0.29175 0.22622 0.0
O489 O 0.56119 0.38221 0.19144 0.0
C490 C 0.62493 0.25133 0.21713 0.0
H491 H 0.74557 0.40142 0.23617 0.0
H492 H 0.4682 0.169 0.1764 0.0
H493 H 0.63445 0.41113 0.08713 0.0
H494 H 0.59592 0.25172 0.07726 0.0
Co495 Co 0.70567 0.60567 0.67627 0.0
C496 C 0.68989 0.71278 0.65957 0.0
C497 C 0.64373 0.69261 0.69789 0.0
C498 C 0.646 0.74511 0.69589 0.0
N499 N 0.67168 0.67204 0.67525 0.0
N500 N 0.67723 0.75782 0.67272 0.0
H501 H 0.71773 0.70933 0.64148 0.0
H502 H 0.62818 0.67122 0.71681 0.0
C503 C 0.5907 0.5795 0.67357 0.0
O504 O 0.57825 0.62788 0.67139 0.0
N505 N 0.74289 0.54059 0.67682 0.0
C506 C 0.79281 0.53449 0.68431 0.0
C507 C 0.80672 0.4845 0.68026 0.0
C508 C 0.72776 0.49367 0.66709 0.0
N509 N 0.76607 0.45873 0.66949 0.0
C510 C 0.75544 0.59878 0.61826 0.0
C511 C 0.66791 0.61083 0.58344 0.0
C512 C 0.71463 0.6021 0.56889 0.0
C513 C 0.75906 0.59686 0.58656 0.0
C514 C 0.66625 0.61365 0.61499 0.0
N515 N 0.70917 0.60576 0.63212 0.0
H516 H 0.78982 0.59465 0.63174 0.0
H517 H 0.63027 0.62255 0.62542 0.0
H518 H 0.81883 0.56443 0.69107 0.0
H519 H 0.69015 0.48531 0.65798 0.0
O520 O 0.76838 0.6424 0.6858 0.0
O521 O 0.71522 0.61233 0.72044 0.0
O522 O 0.63786 0.56532 0.67526 0.0
C523 C 0.75716 0.63736 0.71444 0.0
H524 H 0.63171 0.77165 0.71278 0.0
H525 H 0.8444 0.46834 0.68412 0.0
H526 H 0.63302 0.61614 0.57043 0.0
H527 H 0.79601 0.59107 0.57594 0.0
C528 C 0.0619 0.0148 0.19392 0.0
C529 C 0.04626 0.05517 0.17425 0.0
C530 C 0.99579 0.99375 0.14464 0.0
C531 C 1.00875 0.95359 0.16512 0.0
N532 N 0.04497 0.92949 0.21356 0.0
N533 N 0.9819 0.08484 0.13905 0.0
C534 C 0.03868 0.96534 0.19126 0.0
C535 C 1.0078 0.0453 0.15229 0.0
N536 N 0.09947 0.02351 0.21491 0.0
N537 N 0.97396 0.98299 0.1172 0.0
H538 H 0.98642 0.12262 0.1461 0.0
H539 H 0.95102 0.07932 0.12436 0.0
H540 H 0.96805 0.94581 0.10962 0.0
H541 H 0.96779 0.01074 0.10056 0.0
H542 H 0.11711 0.99448 0.22736 0.0
H543 H 0.11453 0.05986 0.21889 0.0
H544 H 0.06239 0.93727 0.23435 0.0
H545 H 0.02873 0.89315 0.21236 0.0
C546 C 0.06311 0.0274 0.66938 0.0
C547 C 0.0713 0.97798 0.68221 0.0
C548 C 0.98005 0.9736 0.69622 0.0
C549 C 0.97086 0.02142 0.68169 0.0
N550 N 1.00568 0.09978 0.66142 0.0
N551 N 0.04154 0.91325 0.71672 0.0
C552 C 0.01315 0.05042 0.67071 0.0
C553 C 0.03085 0.95405 0.69836 0.0
N554 N 0.10234 0.05139 0.6547 0.0
N555 N 0.9399 0.94611 0.7076 0.0
H556 H 0.07857 0.89942 0.71952 0.0
H557 H 0.01534 0.8969 0.73165 0.0
H558 H 0.90309 0.96095 0.70936 0.0
H559 H 0.94251 0.9079 0.71419 0.0
H560 H 0.0977 0.08354 0.64099 0.0
H561 H 0.1399 0.03824 0.65561 0.0
H562 H 0.0353 0.1248 0.65602 0.0
H563 H 0.96994 0.11747 0.66147 0.0
C564 C 0.52102 0.53145 0.83974 0.0
C565 C 0.46771 0.53827 0.83493 0.0
C566 C 0.45558 0.44488 0.83495 0.0
C567 C 0.50887 0.43743 0.84058 0.0
N568 N 0.59413 0.47433 0.83957 0.0
N569 N 0.38818 0.50236 0.8178 0.0
C570 C 0.54223 0.48087 0.83989 0.0
C571 C 0.43641 0.49508 0.8292 0.0
N572 N 0.55109 0.57294 0.84601 0.0
N573 N 0.42272 0.40422 0.83575 0.0
H574 H 0.37376 0.53874 0.81287 0.0
H575 H 0.3648 0.47267 0.81025 0.0
H576 H 0.43486 0.36653 0.83807 0.0
H577 H 0.383 0.40809 0.83583 0.0
H578 H 0.5885 0.57017 0.85411 0.0
H579 H 0.53779 0.61046 0.84464 0.0
H580 H 0.61984 0.50405 0.8356 0.0
H581 H 0.61182 0.43882 0.84041 0.0
C582 C 0.5659 0.48009 0.3292 0.0
C583 C 0.57113 0.53299 0.32165 0.0
C584 C 0.48241 0.53219 0.30225 0.0
C585 C 0.47401 0.48404 0.31591 0.0
N586 N 0.50844 0.40885 0.33995 0.0
N587 N 0.53191 0.60988 0.30122 0.0
C588 C 0.51625 0.45652 0.32812 0.0
C589 C 0.52885 0.55893 0.30788 0.0
N590 N 0.60794 0.45253 0.33788 0.0
N591 N 0.4457 0.55212 0.28348 0.0
H592 H 0.56512 0.63114 0.30383 0.0
H593 H 0.50034 0.632 0.29501 0.0
H594 H 0.41212 0.53226 0.27844 0.0
H595 H 0.45107 0.5848 0.27028 0.0
H596 H 0.60785 0.41298 0.34074 0.0
H597 H 0.64423 0.46847 0.33999 0.0
H598 H 0.53524 0.38933 0.35311 0.0
H599 H 0.47416 0.38909 0.33703 0.0
C600 C 0.04011 0.02382 0.84878 0.0
C601 C 0.01687 0.0686 0.83667 0.0
C602 C 0.94724 0.016 0.81548 0.0
C603 C 0.96986 0.97133 0.82838 0.0
N604 N 0.04723 0.93148 0.84748 0.0
N605 N 0.95615 0.10591 0.80194 0.0
C606 C 0.01933 0.97473 0.84184 0.0
C607 C 0.97291 0.06416 0.81783 0.0
N608 N 0.08142 0.02808 0.86769 0.0
N609 N 0.90089 0.01232 0.80114 0.0
H610 H 0.9745 0.14127 0.80309 0.0
H611 H 0.92716 0.10468 0.78569 0.0
H612 H 0.88347 0.97728 0.79646 0.0
H613 H 0.87895 0.04379 0.79465 0.0
H614 H 0.09577 0.99778 0.88055 0.0
H615 H 0.09938 0.06279 0.87212 0.0
H616 H 0.08532 0.93209 0.85456 0.0
H617 H 0.03501 0.89498 0.84162 0.0
C618 C 0.02078 0.98665 0.37291 0.0
C619 C 0.04851 0.98558 0.34521 0.0
C620 C 0.97259 0.02019 0.31866 0.0
C621 C 0.94832 0.02881 0.34718 0.0
N622 N 0.95072 0.02127 0.40195 0.0
N623 N 0.05228 1.00447 0.29164 0.0
C624 C 0.97269 0.01188 0.37434 0.0
C625 C 0.02448 1.00226 0.31791 0.0
N626 N 0.03988 0.96237 0.39798 0.0
N627 N 0.94669 0.03008 0.2923 0.0
H628 H 0.09008 0.99185 0.29009 0.0
H629 H 0.03933 0.02215 0.27187 0.0
H630 H 0.9098 0.04521 0.29173 0.0
H631 H 0.96005 0.01941 0.27095 0.0
H632 H 0.01877 0.95571 0.41764 0.0
H633 H 0.07533 0.94451 0.39827 0.0
H634 H 0.97018 0.01785 0.42253 0.0
H635 H 0.91374 0.03518 0.40445 0.0
C636 C 0.54578 0.50579 0.17926 0.0
C637 C 0.51528 0.46197 0.18503 0.0
C638 C 0.44249 0.5171 0.198 0.0
C639 C 0.47012 0.56096 0.18761 0.0
N640 N 0.55047 0.59768 0.17114 0.0
N641 N 0.44444 0.42736 0.21269 0.0
C642 C 0.52292 0.55567 0.17977 0.0
C643 C 0.46647 0.46806 0.19827 0.0
N644 N 0.59714 0.49954 0.17469 0.0
N645 N 0.39252 0.52195 0.20668 0.0
H646 H 0.46369 0.39269 0.21539 0.0
H647 H 0.41076 0.42955 0.22525 0.0
H648 H 0.37475 0.55721 0.2094 0.0
H649 H 0.36799 0.49107 0.21006 0.0
H650 H 0.62315 0.52944 0.1725 0.0
H651 H 0.61475 0.46388 0.17647 0.0
H652 H 0.58622 0.59593 0.1608 0.0
H653 H 0.53739 0.63498 0.17377 0.0
C654 C 0.4871 0.49875 0.63709 0.0
C655 C 0.44776 0.50454 0.65929 0.0
C656 C 0.51122 0.54094 0.69477 0.0
C657 C 0.5479 0.54207 0.67116 0.0
N658 N 0.57384 0.51845 0.62082 0.0
N659 N 0.42213 0.53256 0.7094 0.0
C660 C 0.53693 0.51909 0.64277 0.0
C661 C 0.45998 0.52513 0.68842 0.0
N662 N 0.47728 0.47257 0.61086 0.0
N663 N 0.52597 0.55482 0.72342 0.0
H664 H 0.38426 0.52152 0.70602 0.0
H665 H 0.4272 0.55285 0.72952 0.0
H666 H 0.56345 0.56608 0.72839 0.0
H667 H 0.5031 0.55058 0.7426 0.0
H668 H 0.5053 0.46148 0.59542 0.0
H669 H 0.44122 0.4589 0.60513 0.0
H670 H 0.56698 0.51013 0.59806 0.0
H671 H 0.61198 0.52703 0.62554 0.0
C672 C 0.0641 0.23677 0.01791 0.0
C673 C 0.11058 0.2243 0.03304 0.0
C674 C 0.15598 0.22601 0.98435 0.0
C675 C 0.10841 0.23132 0.96896 0.0
N676 N 0.01601 0.23451 0.97083 0.0
N677 N 0.19977 0.20035 0.03051 0.0
C678 C 0.06209 0.23502 0.98566 0.0
C679 C 0.15639 0.21732 0.01623 0.0
N680 N 0.02224 0.2517 0.03431 0.0
N681 N 0.20078 0.23026 0.9685 0.0
H682 H 0.20149 0.19309 0.05379 0.0
H683 H 0.23272 0.18926 0.01893 0.0
H684 H 0.20185 0.2373 0.94517 0.0
H685 H 0.23668 0.23173 0.97884 0.0
H686 H 0.98904 0.26631 0.02438 0.0
H687 H 0.02235 0.25417 0.05796 0.0
H688 H 0.98101 0.23113 0.98199 0.0
H689 H 0.01272 0.23321 0.94724 0.0
C690 C 0.81715 0.13058 0.49517 0.0
C691 C 0.79222 0.08966 0.47995 0.0
C692 C 0.77802 0.04677 0.52873 0.0
C693 C 0.79814 0.09017 0.54402 0.0
N694 N 0.82522 0.17849 0.5419 0.0
N695 N 0.73885 0.01432 0.48272 0.0
C696 C 0.81423 0.13367 0.52727 0.0
C697 C 0.76965 0.04928 0.49687 0.0
N698 N 0.84548 0.16534 0.47916 0.0
N699 N 0.76873 1.00251 0.54435 0.0
H700 H 0.73066 0.01569 0.45953 0.0
H701 H 0.71743 0.98713 0.49447 0.0
H702 H 0.77524 0.99874 0.56763 0.0
H703 H 0.75913 0.96818 0.53373 0.0
H704 H 0.86858 0.19277 0.48954 0.0
H705 H 0.85012 0.16362 0.45566 0.0
H706 H 0.83224 0.21272 0.53047 0.0
H707 H 0.82208 0.18282 0.56538 0.0
C708 C 0.94379 0.80069 0.98577 0.0
C709 C 0.90313 0.82098 0.968 0.0
C710 C 0.8549 0.84069 0.01442 0.0
C711 C 0.89732 0.8242 0.03209 0.0
N712 N 0.98571 0.79747 0.0349 0.0
N713 N 0.82366 0.86793 0.96502 0.0
C714 C 0.94286 0.80683 0.01783 0.0
C715 C 0.85964 0.84316 0.98223 0.0
N716 N 0.98238 0.77382 0.9721 0.0
N717 N 0.8096 0.85242 0.02833 0.0
H718 H 0.82581 0.87044 0.94141 0.0
H719 H 0.794 0.88955 0.97424 0.0
H720 H 0.80493 0.85154 0.05186 0.0
H721 H 0.77563 0.85918 0.01655 0.0
H722 H 1.01003 0.75334 0.98412 0.0
H723 H 0.98427 0.76808 0.94868 0.0
H724 H 0.02157 0.79014 0.02552 0.0
H725 H 0.9866 0.80152 0.05847 0.0
C726 C 0.22899 0.95617 0.48654 0.0
C727 C 0.22017 0.90975 0.47059 0.0
C728 C 0.20938 0.86457 0.51903 0.0
C729 C 0.22301 0.90986 0.53492 0.0
N730 N 0.25764 0.99554 0.53334 0.0
N731 N 0.21393 0.81759 0.47171 0.0
C732 C 0.23635 0.95477 0.51853 0.0
C733 C 0.21396 0.86324 0.48687 0.0
N734 N 0.22821 1.00188 0.4714 0.0
N735 N 0.18999 0.82349 0.53444 0.0
H736 H 0.2185 0.81496 0.44823 0.0
H737 H 0.21462 0.78226 0.48272 0.0
H738 H 0.18473 0.82328 0.55792 0.0
H739 H 0.17451 0.79157 0.52362 0.0
H740 H 0.22899 0.03715 0.48243 0.0
H741 H 0.22192 1.00481 0.44806 0.0
H742 H 0.27272 0.0272 0.52208 0.0
H743 H 0.26503 0.99552 0.55664 0.0
C744 C 0.66403 0.3267 0.02932 0.0
C745 C 0.617 0.3362 0.04443 0.0
C746 C 0.57112 0.33593 0.9958 0.0
C747 C 0.61835 0.3279 0.98059 0.0
N748 N 0.71061 0.32492 0.98162 0.0
N749 N 0.52769 0.35933 0.04249 0.0
C750 C 0.66515 0.32615 0.99701 0.0
C751 C 0.57111 0.34391 0.02774 0.0
N752 N 0.70718 0.31647 0.04592 0.0
N753 N 0.52612 0.33386 0.97985 0.0
H754 H 0.52627 0.36489 0.06595 0.0
H755 H 0.49433 0.37074 0.03139 0.0
H756 H 0.52456 0.32884 0.95636 0.0
H757 H 0.49015 0.33346 0.99 0.0
H758 H 0.74122 0.30319 0.03647 0.0
H759 H 0.70817 0.31839 0.06959 0.0
H760 H 0.7462 0.32894 0.99205 0.0
H761 H 0.71273 0.32385 0.95796 0.0
C762 C 0.70169 0.64372 0.51805 0.0
C763 C 0.71653 0.60006 0.53514 0.0
C764 C 0.73466 0.55393 0.48788 0.0
C765 C 0.71369 0.59533 0.47098 0.0
N766 N 0.66697 0.67517 0.47062 0.0
N767 N 0.73755 0.50998 0.53629 0.0
C768 C 0.69416 0.63897 0.48627 0.0
C769 C 0.73035 0.55404 0.52007 0.0
N770 N 0.6965 0.69019 0.53197 0.0
N771 N 0.76054 0.51556 0.47341 0.0
H772 H 0.73384 0.50812 0.55985 0.0
H773 H 0.74244 0.47432 0.5261 0.0
H774 H 0.76582 0.51464 0.44994 0.0
H775 H 0.78101 0.48732 0.48495 0.0
H776 H 0.69065 0.72417 0.52004 0.0
H777 H 0.70337 0.69565 0.5551 0.0
H778 H 0.64767 0.70516 0.48122 0.0
H779 H 0.65922 0.67234 0.44742 0.0
C780 C 0.44602 0.72881 0.02296 0.0
C781 C 0.41777 0.69108 0.03898 0.0
C782 C 0.38985 0.6525 0.99099 0.0
C783 C 0.41481 0.69256 0.97506 0.0
N784 N 0.4624 0.77162 0.97499 0.0
N785 N 0.35917 0.61984 0.03931 0.0
C786 C 0.44187 0.73146 0.99081 0.0
C787 C 0.38874 0.65357 0.02328 0.0
N788 N 0.47735 0.76161 0.03854 0.0
N789 N 0.36818 0.61295 0.97518 0.0
H790 H 0.35912 0.61817 0.06299 0.0
H791 H 0.33247 0.59546 0.02937 0.0
H792 H 0.36688 0.61176 0.9515 0.0
H793 H 0.35441 0.5797 0.98531 0.0
H794 H 0.50334 0.78619 0.02816 0.0
H795 H 0.48017 0.76192 0.06218 0.0
H796 H 0.47753 0.8042 0.98519 0.0
H797 H 0.46132 0.77416 0.95135 0.0
C798 C 0.31223 0.36766 0.50748 0.0
C799 C 0.3171 0.41276 0.52517 0.0
C800 C 0.33264 0.46357 0.47917 0.0
C801 C 0.3241 0.41917 0.46136 0.0
N802 N 0.30065 0.33011 0.45751 0.0
N803 N 0.32664 0.50438 0.52858 0.0
C804 C 0.31255 0.37145 0.47524 0.0
C805 C 0.32592 0.46097 0.51121 0.0
N806 N 0.30839 0.32115 0.5216 0.0
N807 N 0.34817 0.50789 0.46543 0.0
H808 H 0.32344 0.50384 0.5522 0.0
H809 H 0.32706 0.54126 0.51964 0.0
H810 H 0.35219 0.51146 0.44195 0.0
H811 H 0.36051 0.54013 0.47723 0.0
H812 H 0.3105 0.28627 0.51027 0.0
H813 H 0.30651 0.3171 0.54515 0.0
H814 H 0.28608 0.29591 0.46601 0.0
H815 H 0.30226 0.33086 0.43384 0.0
C816 C 0.16359 0.35949 0.22293 0.0
C817 C 0.13462 0.31697 0.23299 0.0
C818 C 0.17349 0.32685 0.28384 0.0
C819 C 0.21167 0.36062 0.27143 0.0
N820 N 0.2376 0.41369 0.22887 0.0
N821 N 0.09996 0.27133 0.27565 0.0
C822 C 0.20513 0.37812 0.24088 0.0
C823 C 0.13549 0.30461 0.26436 0.0
N824 N 0.14829 0.38514 0.1974 0.0
N825 N 0.17267 0.31574 0.3142 0.0
H826 H 0.06507 0.26484 0.26476 0.0
H827 H 0.1039 0.25167 0.29609 0.0
H828 H 0.20289 0.32184 0.32899 0.0
H829 H 0.14125 0.29998 0.32529 0.0
H830 H 0.16483 0.41917 0.18996 0.0
H831 H 0.11411 0.37645 0.1862 0.0
H832 H 0.24028 0.42081 0.20563 0.0
H833 H 0.26219 0.43589 0.24188 0.0
C834 C 0.7432 0.207 0.7512 0.0
C835 C 0.73428 0.15481 0.74455 0.0
C836 C 0.65931 0.15672 0.7785 0.0
C837 C 0.66516 0.21054 0.78181 0.0
N838 N 0.70396 0.28799 0.76239 0.0
N839 N 0.68077 0.08021 0.74949 0.0
C840 C 0.70415 0.23603 0.76522 0.0
C841 C 0.6912 0.12966 0.75743 0.0
N842 N 0.78924 0.22902 0.74459 0.0
N843 N 0.62326 0.13164 0.79528 0.0
H844 H 0.70465 0.05895 0.73528 0.0
H845 H 0.64725 0.06128 0.75561 0.0
H846 H 0.59735 0.15087 0.80921 0.0
H847 H 0.62056 0.09192 0.7964 0.0
H848 H 0.79934 0.26581 0.75149 0.0
H849 H 0.81982 0.20828 0.73597 0.0
H850 H 0.73168 0.30832 0.75045 0.0
H851 H 0.67234 0.31012 0.7679 0.0
C852 C 0.83476 0.71219 0.28455 0.0
C853 C 0.82561 0.65914 0.2789 0.0
C854 C 0.87255 0.66758 0.23068 0.0
C855 C 0.87144 0.72178 0.23365 0.0
N856 N 0.84158 0.79567 0.26172 0.0
N857 N 0.83939 0.58532 0.24699 0.0
C858 C 0.8501 0.74408 0.26017 0.0
C859 C 0.84539 0.6366 0.25196 0.0
N860 N 0.82997 0.73287 0.31295 0.0
N861 N 0.90182 0.64553 0.20856 0.0
H862 H 0.82641 0.56014 0.26369 0.0
H863 H 0.8462 0.56797 0.22609 0.0
H864 H 0.9244 0.66681 0.19374 0.0
H865 H 0.90814 0.60628 0.20691 0.0
H866 H 0.84092 0.77027 0.318 0.0
H867 H 0.82289 0.71221 0.33257 0.0
H868 H 0.82229 0.8132 0.27961 0.0
H869 H 0.84806 0.8206 0.24377 0.0
C870 C 0.38853 0.79419 0.74635 0.0
C871 C 0.38519 0.80658 0.77756 0.0
C872 C 0.33472 0.8825 0.76253 0.0
C873 C 0.32504 0.86005 0.73353 0.0
N874 N 0.33933 0.78588 0.70075 0.0
N875 N 0.36223 0.8709 0.81469 0.0
C876 C 0.35127 0.81373 0.72604 0.0
C877 C 0.36015 0.85316 0.78559 0.0
N878 N 0.42819 0.76532 0.73569 0.0
N879 N 0.32343 0.93293 0.76743 0.0
H880 H 0.38927 0.85821 0.83041 0.0
H881 H 0.33771 0.89922 0.82285 0.0
H882 H 0.31052 0.95728 0.75029 0.0
H883 H 0.33328 0.95238 0.78724 0.0
H884 H 0.43338 0.75805 0.71259 0.0
H885 H 0.45974 0.756 0.7492 0.0
H886 H 0.35596 0.75032 0.69635 0.0
H887 H 0.30815 0.79333 0.68678 0.0
C888 C 0.8667 0.66493 0.77059 0.0
C889 C 0.86731 0.71936 0.76817 0.0
C890 C 0.78675 0.71598 0.74072 0.0
C891 C 0.78957 0.66245 0.73827 0.0
N892 N 0.83077 0.58398 0.75289 0.0
N893 N 0.8349 0.79396 0.74133 0.0
C894 C 0.82944 0.63611 0.75373 0.0
C895 C 0.8302 0.74392 0.74969 0.0
N896 N 0.90155 0.64116 0.78899 0.0
N897 N 0.74063 0.7396 0.73825 0.0
H898 H 0.86882 0.81442 0.7435 0.0
H899 H 0.80718 0.81291 0.72851 0.0
H900 H 0.7075 0.71769 0.73943 0.0
H901 H 0.73551 0.77881 0.74162 0.0
H902 H 0.90032 0.60236 0.79433 0.0
H903 H 0.93136 0.66103 0.79953 0.0
H904 H 0.86153 0.56219 0.76066 0.0
H905 H 0.80038 0.56266 0.74414 0.0
C906 C 0.34156 0.87254 0.2723 0.0
C907 C 0.28757 0.86744 0.26803 0.0
C908 C 0.30483 0.8363 0.21673 0.0
C909 C 0.3568 0.82657 0.22464 0.0
N910 N 0.42599 0.83974 0.26013 0.0
N911 N 0.21903 0.83382 0.23624 0.0
C912 C 0.37556 0.84566 0.25265 0.0
C913 C 0.26934 0.84663 0.2402 0.0
N914 N 0.36061 0.90563 0.29351 0.0
N915 N 0.28896 0.83712 0.18716 0.0
H916 H 0.1925 0.83248 0.25381 0.0
H917 H 0.20536 0.81724 0.2163 0.0
H918 H 0.31409 0.83708 0.16888 0.0
H919 H 0.25163 0.84679 0.1809 0.0
H920 H 0.3996 0.91317 0.29594 0.0
H921 H 0.33753 0.93097 0.30562 0.0
H922 H 0.44023 0.84736 0.2818 0.0
H923 H 0.45313 0.82586 0.24482 0.0
C924 C 0.143 0.31989 0.74585 0.0
C925 C 0.17045 0.28622 0.76511 0.0
C926 C 0.25193 0.31889 0.74543 0.0
C927 C 0.22467 0.35405 0.72665 0.0
N928 N 0.14514 0.39625 0.71467 0.0
N929 N 0.24816 0.24018 0.77427 0.0
C930 C 0.17032 0.35647 0.72819 0.0
C931 C 0.22424 0.28241 0.76276 0.0
N932 N 0.09109 0.31501 0.74319 0.0
N933 N 0.30422 0.31997 0.74699 0.0
H934 H 0.22735 0.2085 0.78155 0.0
H935 H 0.28722 0.23312 0.77249 0.0
H936 H 0.32737 0.34173 0.73284 0.0
H937 H 0.32497 0.30125 0.76391 0.0
H938 H 0.06912 0.33518 0.72745 0.0
H939 H 0.07071 0.28633 0.75431 0.0
H940 H 0.1061 0.4032 0.71714 0.0
H941 H 0.16458 0.42606 0.70411 0.0
C942 C 0.68019 0.20335 0.2895 0.0
C943 C 0.70673 0.15784 0.28114 0.0
C944 C 0.6709 0.16641 0.22967 0.0
C945 C 0.64373 0.21127 0.23901 0.0
N946 N 0.60074 0.24812 0.28249 0.0
N947 N 0.70961 0.08663 0.24601 0.0
C948 C 0.64114 0.22199 0.2704 0.0
C949 C 0.69726 0.13651 0.25194 0.0
N950 N 0.6933 0.23104 0.31456 0.0
N951 N 0.67057 0.15083 0.20011 0.0
H952 H 0.72381 0.06169 0.26248 0.0
H953 H 0.69944 0.06803 0.22596 0.0
H954 H 0.64397 0.16342 0.18419 0.0
H955 H 0.69668 0.12421 0.19164 0.0
H956 H 0.67625 0.26616 0.31962 0.0
H957 H 0.7254 0.22325 0.3276 0.0
H958 H 0.59716 0.25439 0.30581 0.0
H959 H 0.56741 0.25552 0.27014 0.0
C960 C 0.3723 0.22425 0.15483 0.0
C961 C 0.39708 0.24783 0.17973 0.0
C962 C 0.31685 0.24579 0.20826 0.0
C963 C 0.2955 0.2135 0.18571 0.0
N964 N 0.30355 0.16865 0.13825 0.0
N965 N 0.39457 0.27809 0.23137 0.0
C966 C 0.32321 0.20228 0.15894 0.0
C967 C 0.36966 0.25853 0.20671 0.0
N968 N 0.3965 0.22268 0.12738 0.0
N969 N 0.28629 0.26552 0.23048 0.0
H970 H 0.43323 0.2879 0.23106 0.0
H971 H 0.37758 0.28123 0.25268 0.0
H972 H 0.24709 0.25814 0.23155 0.0
H973 H 0.29881 0.29326 0.24577 0.0
H974 H 0.37913 0.20956 0.10754 0.0
H975 H 0.43238 0.23938 0.12407 0.0
H976 H 0.32403 0.15522 0.11959 0.0
H977 H 0.26824 0.1507 0.14118 0.0
C978 C 0.75374 0.3159 0.67676 0.0
C979 C 0.79898 0.30169 0.66081 0.0
C980 C 0.80432 0.38867 0.64004 0.0
C981 C 0.76741 0.40514 0.66144 0.0
N982 N 0.70476 0.38498 0.69956 0.0
N983 N 0.86339 0.32196 0.62398 0.0
C984 C 0.74043 0.36872 0.67905 0.0
C985 C 0.82261 0.33733 0.64108 0.0
N986 N 0.72367 0.27938 0.68983 0.0
N987 N 0.82179 0.42286 0.61902 0.0
H988 H 0.87505 0.28375 0.62304 0.0
H989 H 0.88625 0.34679 0.61144 0.0
H990 H 0.80764 0.46025 0.61791 0.0
H991 H 0.84644 0.41337 0.60135 0.0
H992 H 0.68721 0.28686 0.69829 0.0
H993 H 0.73268 0.24069 0.68984 0.0
H994 H 0.68684 0.36109 0.71517 0.0
H995 H 0.69446 0.42325 0.70203 0.0
C996 C 0.6497 0.78164 0.15712 0.0
C997 C 0.61311 0.80036 0.1779 0.0
C998 C 0.67212 0.86937 0.19209 0.0
C999 C 0.71141 0.8464 0.17444 0.0
N1000 N 0.72293 0.80362 0.12651 0.0
N1001 N 0.59038 0.85894 0.2175 0.0
C1002 C 0.69656 0.80831 0.15311 0.0
C1003 C 0.62507 0.84286 0.19644 0.0
N1004 N 0.63878 0.73879 0.14065 0.0
N1005 N 0.67529 0.91998 0.1993 0.0
H1006 H 0.55525 0.84055 0.22049 0.0
H1007 H 0.59869 0.88706 0.23356 0.0
H1008 H 0.70213 0.94377 0.18892 0.0
H1009 H 0.64639 0.93985 0.21057 0.0
H1010 H 0.66567 0.72051 0.12694 0.0
H1011 H 0.60423 0.71909 0.14311 0.0
H1012 H 0.71164 0.77953 0.10888 0.0
H1013 H 0.75157 0.82954 0.12042 0.0
C1014 C 0.20919 0.64276 0.64864 0.0
C1015 C 0.23266 0.61457 0.67232 0.0
C1016 C 0.23325 0.69145 0.70411 0.0
C1017 C 0.20162 0.71648 0.68235 0.0
N1018 N 0.15502 0.71451 0.6352 0.0
N1019 N 0.26551 0.61051 0.72342 0.0
C1020 C 0.18865 0.69179 0.65484 0.0
C1021 C 0.24483 0.63858 0.70026 0.0
N1022 N 0.20739 0.62248 0.62008 0.0
N1023 N 0.25331 0.71851 0.72783 0.0
H1024 H 0.27246 0.57136 0.72182 0.0
H1025 H 0.27332 0.62523 0.74485 0.0
H1026 H 0.24675 0.75748 0.73097 0.0
H1027 H 0.28086 0.70386 0.74255 0.0
H1028 H 0.19457 0.64276 0.60115 0.0
H1029 H 0.22398 0.58716 0.61492 0.0
H1030 H 0.14035 0.69628 0.61604 0.0
H1031 H 0.13811 0.74994 0.63963 0.0
C1032 C 0.89515 0.33314 0.85386 0.0
C1033 C 0.9105 0.29129 0.83549 0.0
C1034 C 0.82064 0.27072 0.8261 0.0
C1035 C 0.80596 0.31835 0.83907 0.0
N1036 N 0.82861 0.3949 0.86599 0.0
N1037 N 0.88802 0.22385 0.80073 0.0
C1038 C 0.84315 0.34951 0.85332 0.0
C1039 C 0.87329 0.26048 0.82104 0.0
N1040 N 0.93044 0.35636 0.87215 0.0
N1041 N 0.78467 0.23506 0.8188 0.0
H1042 H 0.92611 0.21782 0.79475 0.0
H1043 H 0.86231 0.20274 0.78769 0.0
H1044 H 0.74578 0.24087 0.82204 0.0
H1045 H 0.79387 0.19773 0.81248 0.0
H1046 H 0.92126 0.38468 0.88786 0.0
H1047 H 0.96825 0.34349 0.87361 0.0
H1048 H 0.85446 0.4221 0.87397 0.0
H1049 H 0.7903 0.40629 0.86712 0.0
C1050 C 0.68678 0.81868 0.35155 0.0
C1051 C 0.69019 0.79637 0.32229 0.0
C1052 C 0.71417 0.87986 0.3011 0.0
C1053 C 0.71545 0.90054 0.33078 0.0
N1054 N 0.71479 0.88706 0.38475 0.0
N1055 N 0.71908 0.80327 0.27029 0.0
C1056 C 0.70549 0.86897 0.35619 0.0
C1057 C 0.70721 0.82625 0.29724 0.0
N1058 N 0.66343 0.79261 0.37458 0.0
N1059 N 0.7178 0.91166 0.27662 0.0
H1060 H 0.7192 0.76371 0.26743 0.0
H1061 H 0.73469 0.82285 0.25188 0.0
H1062 H 0.72265 0.95112 0.27867 0.0
H1063 H 0.71151 0.89933 0.25448 0.0
H1064 H 0.65592 0.80876 0.39575 0.0
H1065 H 0.64661 0.75679 0.37147 0.0
H1066 H 0.71247 0.86429 0.40415 0.0
H1067 H 0.73004 0.9234 0.38862 0.0
C1068 C 0.12706 0.69938 0.79655 0.0
C1069 C 0.11562 0.74329 0.81395 0.0
C1070 C 0.20698 0.7559 0.82422 0.0
C1071 C 0.217 0.70654 0.81194 0.0
N1072 N 0.18757 0.63084 0.78657 0.0
N1073 N 0.14299 0.81485 0.84384 0.0
C1074 C 0.17742 0.67868 0.79745 0.0
C1075 C 0.15535 0.77287 0.82689 0.0
N1076 N 0.08885 0.6769 0.78012 0.0
N1077 N 0.24649 0.78553 0.83442 0.0
H1078 H 0.10549 0.82823 0.84568 0.0
H1079 H 0.16905 0.83497 0.85717 0.0
H1080 H 0.28441 0.77337 0.8346 0.0
H1081 H 0.24235 0.8237 0.84072 0.0
H1082 H 0.09477 0.64677 0.76507 0.0
H1083 H 0.0517 0.69181 0.77977 0.0
H1084 H 0.1597 0.60614 0.77815 0.0
H1085 H 0.2241 0.61472 0.7877 0.0
C1086 C 0.26411 0.19939 0.32438 0.0
C1087 C 0.30892 0.20861 0.34165 0.0
C1088 C 0.31128 0.11807 0.35628 0.0
C1089 C 0.26491 0.11022 0.34007 0.0
N1090 N 0.18891 0.14668 0.31819 0.0
N1091 N 0.36974 0.17987 0.37889 0.0
C1092 C 0.23823 0.15249 0.32788 0.0
C1093 C 0.33051 0.16889 0.35947 0.0
N1094 N 0.24929 0.23275 0.30222 0.0
N1095 N 0.33852 0.07707 0.36672 0.0
H1096 H 0.38429 0.2169 0.38116 0.0
H1097 H 0.38464 0.15351 0.39433 0.0
H1098 H 0.3255 0.03955 0.36465 0.0
H1099 H 0.37527 0.08009 0.37581 0.0
H1100 H 0.2202 0.22433 0.28674 0.0
H1101 H 0.26974 0.26581 0.29705 0.0
H1102 H 0.16661 0.1773 0.31062 0.0
H1103 H 0.16924 0.11215 0.32086 0.0
C1104 C 0.6215 0.83042 0.81328 0.0
C1105 C 0.6132 0.77857 0.8211 0.0
C1106 C 0.70525 0.76261 0.81664 0.0
C1107 C 0.71428 0.81634 0.81467 0.0
N1108 N 0.67987 0.90207 0.81579 0.0
N1109 N 0.64743 0.69555 0.83309 0.0
C1110 C 0.67201 0.8505 0.81381 0.0
C1111 C 0.65511 0.74449 0.82322 0.0
N1112 N 0.58055 0.86045 0.80585 0.0
N1113 N 0.74402 0.72878 0.81135 0.0
H1114 H 0.61116 0.68105 0.8379 0.0
H1115 H 0.67729 0.67065 0.83852 0.0
H1116 H 0.78064 0.74037 0.80529 0.0
H1117 H 0.73841 0.6894 0.80958 0.0
H1118 H 0.58422 0.89762 0.79752 0.0
H1119 H 0.5433 0.84593 0.80507 0.0
H1120 H 0.65016 0.92846 0.81801 0.0
H1121 H 0.71609 0.91817 0.81857 0.0
C1122 C 0.20216 0.61245 0.33067 0.0
C1123 C 0.25298 0.60887 0.31947 0.0
C1124 C 0.25698 0.70199 0.31528 0.0
C1125 C 0.20803 0.70606 0.32916 0.0
N1126 N 0.13931 0.66541 0.35629 0.0
N1127 N 0.33341 0.65055 0.30955 0.0
C1128 C 0.18233 0.66123 0.3389 0.0
C1129 C 0.28194 0.65387 0.31462 0.0
N1130 N 0.17178 0.56998 0.33171 0.0
N1131 N 0.27797 0.74285 0.30057 0.0
H1132 H 0.35307 0.61574 0.31023 0.0
H1133 H 0.35709 0.68257 0.30814 0.0
H1134 H 0.25821 0.77699 0.29743 0.0
H1135 H 0.31158 0.74046 0.28791 0.0
H1136 H 0.13289 0.57143 0.33692 0.0
H1137 H 0.18411 0.53404 0.3245 0.0
H1138 H 0.12134 0.63404 0.36627 0.0
H1139 H 0.12479 0.70078 0.36318 0.0
C1140 C 0.37583 0.22692 0.86574 0.0
C1141 C 0.40967 0.21437 0.84187 0.0
C1142 C 0.34234 0.16438 0.81671 0.0
C1143 C 0.30837 0.1759 0.8411 0.0
N1144 N 0.29536 0.20938 0.89134 0.0
N1145 N 0.42644 0.17611 0.79363 0.0
C1146 C 0.32581 0.20524 0.86622 0.0
C1147 C 0.39322 0.18415 0.81714 0.0
N1148 N 0.39207 0.25974 0.88788 0.0
N1149 N 0.32618 0.13418 0.79333 0.0
H1150 H 0.46346 0.19118 0.79353 0.0
H1151 H 0.4173 0.15725 0.77356 0.0
H1152 H 0.28802 0.12485 0.78966 0.0
H1153 H 0.35054 0.11731 0.77758 0.0
H1154 H 0.36844 0.27454 0.90474 0.0
H1155 H 0.42888 0.27533 0.88796 0.0
H1156 H 0.30664 0.22682 0.9115 0.0
H1157 H 0.26 0.19101 0.89302 0.0
C1158 C 0.81877 0.32115 0.30812 0.0
C1159 C 0.8327 0.29507 0.3352 0.0
C1160 C 0.8101 0.37133 0.36443 0.0
C1161 C 0.80525 0.39953 0.33708 0.0
N1162 N 0.81526 0.40306 0.28276 0.0
N1163 N 0.84828 0.2977 0.3891 0.0
C1164 C 0.81223 0.37497 0.30881 0.0
C1165 C 0.82998 0.32079 0.36345 0.0
N1166 N 0.80883 0.2945 0.28215 0.0
N1167 N 0.79494 0.39283 0.39119 0.0
H1168 H 0.86505 0.26144 0.38885 0.0
H1169 H 0.85137 0.31643 0.40991 0.0
H1170 H 0.77854 0.42926 0.39221 0.0
H1171 H 0.79366 0.37268 0.41161 0.0
H1172 H 0.79391 0.31206 0.26282 0.0
H1173 H 0.80908 0.25463 0.28123 0.0
H1174 H 0.82661 0.38713 0.26212 0.0
H1175 H 0.81124 0.44278 0.28242 0.0
C1176 C 0.14461 0.72636 0.152 0.0
C1177 C 0.11098 0.73342 0.17674 0.0
C1178 C 0.18057 0.71219 0.21195 0.0
C1179 C 0.21212 0.69859 0.1869 0.0
N1180 N 0.21882 0.68111 0.13331 0.0
N1181 N 0.09378 0.72447 0.23014 0.0
C1182 C 0.19261 0.70255 0.15692 0.0
C1183 C 0.12802 0.72396 0.20677 0.0
N1184 N 0.13035 0.74259 0.12374 0.0
N1185 N 0.20117 0.71687 0.24032 0.0
H1186 H 0.05514 0.7332 0.22706 0.0
H1187 H 0.10295 0.71201 0.25197 0.0
H1188 H 0.24023 0.71342 0.24457 0.0
H1189 H 0.18057 0.7305 0.25887 0.0
H1190 H 0.15505 0.74239 0.10516 0.0
H1191 H 0.09553 0.76115 0.11978 0.0
H1192 H 0.20429 0.67923 0.11127 0.0
H1193 H 0.25232 0.65994 0.13644 0.0
C1194 C 0.32978 0.1902 0.63706 0.0
C1195 C 0.34044 0.21422 0.66522 0.0
C1196 C 0.30947 0.13869 0.69252 0.0
C1197 C 0.30415 0.11258 0.66466 0.0
N1198 N 0.30547 0.11239 0.61019 0.0
N1199 N 0.34544 0.21032 0.71975 0.0
C1200 C 0.31296 0.13831 0.63678 0.0
C1201 C 0.3313 0.18832 0.69293 0.0
N1202 N 0.33597 0.21738 0.61079 0.0
N1203 N 0.2927 0.11651 0.71869 0.0
H1204 H 0.36045 0.24705 0.72129 0.0
H1205 H 0.34629 0.19044 0.74023 0.0
H1206 H 0.28051 0.07868 0.72011 0.0
H1207 H 0.28561 0.13787 0.73815 0.0
H1208 H 0.32505 0.20438 0.58942 0.0
H1209 H 0.35115 0.25432 0.61052 0.0
H1210 H 0.31536 0.12633 0.58886 0.0
H1211 H 0.28947 0.07579 0.60965 0.0
C1212 C 0.81069 0.28198 0.19987 0.0
C1213 C 0.79946 0.33476 0.19589 0.0
C1214 C 0.8904 0.35158 0.1871 0.0
C1215 C 0.8995 0.29824 0.18527 0.0
N1216 N 0.86805 0.21184 0.188 0.0
N1217 N 0.82786 0.42003 0.18394 0.0
C1218 C 0.85973 0.26308 0.19156 0.0
C1219 C 0.83929 0.36988 0.18949 0.0
N1220 N 0.77479 0.25042 0.21237 0.0
N1221 N 0.931 0.38445 0.18643 0.0
H1222 H 0.79056 0.43431 0.18476 0.0
H1223 H 0.85459 0.44653 0.17618 0.0
H1224 H 0.96878 0.37139 0.18512 0.0
H1225 H 0.92767 0.42367 0.19014 0.0
H1226 H 0.78207 0.21247 0.21823 0.0
H1227 H 0.73966 0.26411 0.22019 0.0
H1228 H 0.83895 0.18465 0.189 0.0
H1229 H 0.90363 0.19686 0.18191 0.0
C1230 C 0.77694 0.86388 0.67136 0.0
C1231 C 0.74499 0.90547 0.6788 0.0
C1232 C 0.66971 0.85181 0.66995 0.0
C1233 C 0.7014 0.80763 0.66945 0.0
N1234 N 0.78793 0.77265 0.6728 0.0
N1235 N 0.66072 0.94026 0.68594 0.0
C1236 C 0.75593 0.81377 0.67021 0.0
C1237 C 0.69116 0.90004 0.67785 0.0
N1238 N 0.8278 0.8725 0.66624 0.0
N1239 N 0.61904 0.84725 0.66275 0.0
H1240 H 0.67561 0.97602 0.69169 0.0
H1241 H 0.62125 0.93715 0.68887 0.0
H1242 H 0.60308 0.81242 0.65601 0.0
H1243 H 0.5945 0.87848 0.66044 0.0
H1244 H 0.85266 0.84479 0.65775 0.0
H1245 H 0.84379 0.90903 0.66751 0.0
H1246 H 0.82737 0.77578 0.67584 0.0
H1247 H 0.7756 0.73549 0.67588 0.0
loop_
_geom_bond_atom_site_label_1
_geom_bond_atom_site_label_2
_geom_bond_distance
_geom_bond_site_symmetry_2
_ccdc_geom_bond_type
Co0 N4 2.148 . S
Co0 N10 2.128 1_455 S
Co0 N20 2.194 . S
Co0 O25 2.351 . S
Co0 O26 2.155 . S
Co0 O27 2.096 . S
C1 N4 1.301 . S
C1 N5 1.328 . S
C1 H6 0.930 . S
C2 C3 1.333 . S
C2 N4 1.317 . S
C2 H7 0.930 . S
C3 C2 1.333 . S
C3 N5 1.350 . S
C3 H29 0.931 . S
N4 Co0 2.148 . S
N4 C1 1.301 . S
N4 C2 1.317 . S
N5 C1 1.328 . S
N5 C3 1.350 . S
H6 C1 0.930 . S
H7 C2 0.930 . S
C8 O9 1.224 . S
C8 O27 1.247 . S
O9 C8 1.224 . S
N10 Co0 2.128 1_655 S
N10 C11 1.355 . S
N10 C13 1.311 . S
C11 N10 1.355 . S
C11 C12 1.363 . S
C11 H23 0.929 . S
C12 C11 1.363 . S
C12 N14 1.375 . S
C12 H30 0.931 . S
C13 N10 1.311 . S
C13 N14 1.347 . S
C13 H24 0.929 . S
N14 C12 1.375 . S
N14 C13 1.347 . S
C15 C18 1.365 . S
C15 N20 1.328 . S
C15 H21 0.929 . S
C16 C17 1.362 . S
C16 C19 1.378 . S
C16 H31 0.929 . S
C17 C16 1.362 . S
C17 C18 1.366 . S
C18 C15 1.365 . S
C18 C17 1.366 . S
C18 H32 0.930 . S
C19 C16 1.378 . S
C19 N20 1.315 . S
C19 H22 0.930 . S
N20 Co0 2.194 . S
N20 C15 1.328 . S
N20 C19 1.315 . S
H21 C15 0.929 . S
H22 C19 0.930 . S
H23 C11 0.929 . S
H24 C13 0.929 . S
O25 Co0 2.351 . S
O25 C28 1.244 . S
O26 Co0 2.155 . S
O26 C28 1.240 . S
O27 Co0 2.096 . S
O27 C8 1.247 . S
C28 O25 1.244 . S
C28 O26 1.240 . S
H29 C3 0.931 . S
H30 C12 0.931 . S
H31 C16 0.929 . S
H32 C18 0.930 . S
Co33 N37 2.148 . S
Co33 N43 2.128 1_545 S
Co33 N53 2.194 . S
Co33 O58 2.351 . S
Co33 O59 2.155 . S
Co33 O60 2.096 . S
C34 N37 1.301 . S
C34 N38 1.328 . S
C34 H39 0.930 . S
C35 C36 1.333 . S
C35 N37 1.317 . S
C35 H40 0.930 . S
C36 C35 1.333 . S
C36 N38 1.350 . S
C36 H62 0.931 . S
N37 Co33 2.148 . S
N37 C34 1.301 . S
N37 C35 1.317 . S
N38 C34 1.328 . S
N38 C36 1.350 . S
H39 C34 0.930 . S
H40 C35 0.930 . S
C41 O42 1.224 . S
C41 O60 1.247 . S
O42 C41 1.224 . S
N43 Co33 2.128 1_565 S
N43 C44 1.355 . S
N43 C46 1.311 . S
C44 N43 1.355 . S
C44 C45 1.363 . S
C44 H56 0.929 . S
C45 C44 1.363 . S
C45 N47 1.375 . S
C45 H63 0.931 . S
C46 N43 1.311 . S
C46 N47 1.347 . S
C46 H57 0.929 . S
N47 C45 1.375 . S
N47 C46 1.347 . S
C48 C51 1.365 . S
C48 N53 1.328 . S
C48 H54 0.929 . S
C49 C50 1.362 . S
C49 C52 1.378 . S
C49 H64 0.929 . S
C50 C49 1.362 . S
C50 C51 1.366 . S
C51 C48 1.365 . S
C51 C50 1.366 . S
C51 H65 0.930 . S
C52 C49 1.378 . S
C52 N53 1.315 . S
C52 H55 0.930 . S
N53 Co33 2.194 . S
N53 C48 1.328 . S
N53 C52 1.315 . S
H54 C48 0.929 . S
H55 C52 0.930 . S
H56 C44 0.929 . S
H57 C46 0.929 . S
O58 Co33 2.351 . S
O58 C61 1.244 . S
O59 Co33 2.155 . S
O59 C61 1.240 . S
O60 Co33 2.096 . S
O60 C41 1.247 . S
C61 O58 1.244 . S
C61 O59 1.240 . S
H62 C36 0.931 . S
H63 C45 0.931 . S
H64 C49 0.929 . S
H65 C51 0.930 . S
Co66 N70 2.148 . S
Co66 N76 2.128 1_655 S
Co66 N86 2.194 . S
Co66 O91 2.351 . S
Co66 O92 2.155 . S
Co66 O93 2.096 . S
C67 N70 1.301 . S
C67 N71 1.328 . S
C67 H72 0.930 . S
C68 C69 1.333 . S
C68 N70 1.317 . S
C68 H73 0.930 . S
C69 C68 1.333 . S
C69 N71 1.350 . S
C69 H95 0.931 . S
N70 Co66 2.148 . S
N70 C67 1.301 . S
N70 C68 1.317 . S
N71 C67 1.328 . S
N71 C69 1.350 . S
H72 C67 0.930 . S
H73 C68 0.930 . S
C74 O75 1.224 . S
C74 O93 1.247 . S
O75 C74 1.224 . S
N76 Co66 2.128 1_455 S
N76 C77 1.355 . S
N76 C79 1.311 . S
C77 N76 1.355 . S
C77 C78 1.363 . S
C77 H89 0.929 . S
C78 C77 1.363 . S
C78 N80 1.375 . S
C78 H96 0.931 . S
C79 N76 1.311 . S
C79 N80 1.347 . S
C79 H90 0.929 . S
N80 C78 1.375 . S
N80 C79 1.347 . S
C81 C84 1.365 . S
C81 N86 1.328 . S
C81 H87 0.929 . S
C82 C83 1.362 . S
C82 C85 1.378 . S
C82 H97 0.929 . S
C83 C82 1.362 . S
C83 C84 1.366 . S
C84 C81 1.365 . S
C84 C83 1.366 . S
C84 H98 0.930 . S
C85 C82 1.378 . S
C85 N86 1.315 . S
C85 H88 0.930 . S
N86 Co66 2.194 . S
N86 C81 1.328 . S
N86 C85 1.315 . S
H87 C81 0.929 . S
H88 C85 0.930 . S
H89 C77 0.929 . S
H90 C79 0.929 . S
O91 Co66 2.351 . S
O91 C94 1.244 . S
O92 Co66 2.155 . S
O92 C94 1.240 . S
O93 Co66 2.096 . S
O93 C74 1.247 . S
C94 O91 1.244 . S
C94 O92 1.240 . S
H95 C69 0.931 . S
H96 C78 0.931 . S
H97 C82 0.929 . S
H98 C84 0.930 . S
Co99 N103 2.148 . S
Co99 N109 2.128 1_565 S
Co99 N119 2.194 . S
Co99 O124 2.351 . S
Co99 O125 2.155 . S
Co99 O126 2.096 . S
C100 N103 1.301 . S
C100 N104 1.328 . S
C100 H105 0.930 . S
C101 C102 1.333 . S
C101 N103 1.317 . S
C101 H106 0.930 . S
C102 C101 1.333 . S
C102 N104 1.350 . S
C102 H128 0.931 . S
N103 Co99 2.148 . S
N103 C100 1.301 . S
N103 C101 1.317 . S
N104 C100 1.328 . S
N104 C102 1.350 . S
H105 C100 0.930 . S
H106 C101 0.930 . S
C107 O108 1.224 . S
C107 O126 1.247 . S
O108 C107 1.224 . S
N109 Co99 2.128 1_545 S
N109 C110 1.355 . S
N109 C112 1.311 . S
C110 N109 1.355 . S
C110 C111 1.363 . S
C110 H122 0.929 . S
C111 C110 1.363 . S
C111 N113 1.375 . S
C111 H129 0.931 . S
C112 N109 1.311 . S
C112 N113 1.347 . S
C112 H123 0.929 . S
N113 C111 1.375 . S
N113 C112 1.347 . S
C114 C117 1.365 . S
C114 N119 1.328 . S
C114 H120 0.929 . S
C115 C116 1.362 . S
C115 C118 1.378 . S
C115 H130 0.929 . S
C116 C115 1.362 . S
C116 C117 1.366 . S
C117 C114 1.365 . S
C117 C116 1.366 . S
C117 H131 0.930 . S
C118 C115 1.378 . S
C118 N119 1.315 . S
C118 H121 0.930 . S
N119 Co99 2.194 . S
N119 C114 1.328 . S
N119 C118 1.315 . S
H120 C114 0.929 . S
H121 C118 0.930 . S
H122 C110 0.929 . S
H123 C112 0.929 . S
O124 Co99 2.351 . S
O124 C127 1.244 . S
O125 Co99 2.155 . S
O125 C127 1.240 . S
O126 Co99 2.096 . S
O126 C107 1.247 . S
C127 O124 1.244 . S
C127 O125 1.240 . S
H128 C102 0.931 . S
H129 C111 0.931 . S
H130 C115 0.929 . S
H131 C117 0.930 . S
Co132 N136 2.148 . S
Co132 N142 2.128 . S
Co132 N152 2.194 . S
Co132 O157 2.351 . S
Co132 O158 2.155 . S
Co132 O159 2.096 . S
C133 N136 1.301 . S
C133 N137 1.328 . S
C133 H138 0.930 . S
C134 C135 1.333 . S
C134 N136 1.317 . S
C134 H139 0.930 . S
C135 C134 1.333 . S
C135 N137 1.350 . S
C135 H161 0.931 . S
N136 Co132 2.148 . S
N136 C133 1.301 . S
N136 C134 1.317 . S
N137 C133 1.328 . S
N137 C135 1.350 . S
H138 C133 0.930 . S
H139 C134 0.930 . S
C140 O141 1.224 . S
C140 O159 1.247 . S
O141 C140 1.224 . S
N142 Co132 2.128 . S
N142 C143 1.355 . S
N142 C145 1.311 . S
C143 N142 1.355 . S
C143 C144 1.363 . S
C143 H155 0.929 . S
C144 C143 1.363 . S
C144 N146 1.375 . S
C144 H162 0.931 . S
C145 N142 1.311 . S
C145 N146 1.347 . S
C145 H156 0.929 . S
N146 C144 1.375 . S
N146 C145 1.347 . S
C147 C150 1.365 . S
C147 N152 1.328 . S
C147 H153 0.929 . S
C148 C149 1.362 . S
C148 C151 1.378 . S
C148 H163 0.929 . S
C149 C148 1.362 . S
C149 C150 1.366 . S
C150 C147 1.365 . S
C150 C149 1.366 . S
C150 H164 0.930 . S
C151 C148 1.378 . S
C151 N152 1.315 . S
C151 H154 0.930 . S
N152 Co132 2.194 . S
N152 C147 1.328 . S
N152 C151 1.315 . S
H153 C147 0.929 . S
H154 C151 0.930 . S
H155 C143 0.929 . S
H156 C145 0.929 . S
O157 Co132 2.351 . S
O157 C160 1.244 . S
O158 Co132 2.155 . S
O158 C160 1.240 . S
O159 Co132 2.096 . S
O159 C140 1.247 . S
C160 O157 1.244 . S
C160 O158 1.240 . S
H161 C135 0.931 . S
H162 C144 0.931 . S
H163 C148 0.929 . S
H164 C150 0.930 . S
Co165 N169 2.148 . S
Co165 N175 2.128 . S
Co165 N185 2.194 . S
Co165 O190 2.351 . S
Co165 O191 2.155 . S
Co165 O192 2.096 . S
C166 N169 1.301 . S
C166 N170 1.328 . S
C166 H171 0.930 . S
C167 C168 1.333 . S
C167 N169 1.317 . S
C167 H172 0.930 . S
C168 C167 1.333 . S
C168 N170 1.350 . S
C168 H194 0.931 . S
N169 Co165 2.148 . S
N169 C166 1.301 . S
N169 C167 1.317 . S
N170 C166 1.328 . S
N170 C168 1.350 . S
H171 C166 0.930 . S
H172 C167 0.930 . S
C173 O174 1.224 . S
C173 O192 1.247 . S
O174 C173 1.224 . S
N175 Co165 2.128 . S
N175 C176 1.355 . S
N175 C178 1.311 . S
C176 N175 1.355 . S
C176 C177 1.363 . S
C176 H188 0.929 . S
C177 C176 1.363 . S
C177 N179 1.375 . S
C177 H195 0.931 . S
C178 N175 1.311 . S
C178 N179 1.347 . S
C178 H189 0.929 . S
N179 C177 1.375 . S
N179 C178 1.347 . S
C180 C183 1.365 . S
C180 N185 1.328 . S
C180 H186 0.929 . S
C181 C182 1.362 . S
C181 C184 1.378 . S
C181 H196 0.929 . S
C182 C181 1.362 . S
C182 C183 1.366 . S
C183 C180 1.365 . S
C183 C182 1.366 . S
C183 H197 0.930 . S
C184 C181 1.378 . S
C184 N185 1.315 . S
C184 H187 0.930 . S
N185 Co165 2.194 . S
N185 C180 1.328 . S
N185 C184 1.315 . S
H186 C180 0.929 . S
H187 C184 0.930 . S
H188 C176 0.929 . S
H189 C178 0.929 . S
O190 Co165 2.351 . S
O190 C193 1.244 . S
O191 Co165 2.155 . S
O191 C193 1.240 . S
O192 Co165 2.096 . S
O192 C173 1.247 . S
C193 O190 1.244 . S
C193 O191 1.240 . S
H194 C168 0.931 . S
H195 C177 0.931 . S
H196 C181 0.929 . S
H197 C183 0.930 . S
Co198 N202 2.148 . S
Co198 N208 2.128 . S
Co198 N218 2.194 . S
Co198 O223 2.351 . S
Co198 O224 2.155 . S
Co198 O225 2.096 . S
C199 N202 1.301 . S
C199 N203 1.328 . S
C199 H204 0.930 . S
C200 C201 1.333 . S
C200 N202 1.317 . S
C200 H205 0.930 . S
C201 C200 1.333 . S
C201 N203 1.350 . S
C201 H227 0.931 . S
N202 Co198 2.148 . S
N202 C199 1.301 . S
N202 C200 1.317 . S
N203 C199 1.328 . S
N203 C201 1.350 . S
H204 C199 0.930 . S
H205 C200 0.930 . S
C206 O207 1.224 . S
C206 O225 1.247 . S
O207 C206 1.224 . S
N208 Co198 2.128 . S
N208 C209 1.355 . S
N208 C211 1.311 . S
C209 N208 1.355 . S
C209 C210 1.363 . S
C209 H221 0.929 . S
C210 C209 1.363 . S
C210 N212 1.375 . S
C210 H228 0.931 . S
C211 N208 1.311 . S
C211 N212 1.347 . S
C211 H222 0.929 . S
N212 C210 1.375 . S
N212 C211 1.347 . S
C213 C216 1.365 . S
C213 N218 1.328 . S
C213 H219 0.929 . S
C214 C215 1.362 . S
C214 C217 1.378 . S
C214 H229 0.929 . S
C215 C214 1.362 . S
C215 C216 1.366 . S
C216 C213 1.365 . S
C216 C215 1.366 . S
C216 H230 0.930 . S
C217 C214 1.378 . S
C217 N218 1.315 . S
C217 H220 0.930 . S
N218 Co198 2.194 . S
N218 C213 1.328 . S
N218 C217 1.315 . S
H219 C213 0.929 . S
H220 C217 0.930 . S
H221 C209 0.929 . S
H222 C211 0.929 . S
O223 Co198 2.351 . S
O223 C226 1.244 . S
O224 Co198 2.155 . S
O224 C226 1.240 . S
O225 Co198 2.096 . S
O225 C206 1.247 . S
C226 O223 1.244 . S
C226 O224 1.240 . S
H227 C201 0.931 . S
H228 C210 0.931 . S
H229 C214 0.929 . S
H230 C216 0.930 . S
Co231 N235 2.148 . S
Co231 N241 2.128 . S
Co231 N251 2.194 . S
Co231 O256 2.351 . S
Co231 O257 2.155 . S
Co231 O258 2.096 . S
C232 N235 1.301 . S
C232 N236 1.328 . S
C232 H237 0.930 . S
C233 C234 1.333 . S
C233 N235 1.317 . S
C233 H238 0.930 . S
C234 C233 1.333 . S
C234 N236 1.350 . S
C234 H260 0.931 . S
N235 Co231 2.148 . S
N235 C232 1.301 . S
N235 C233 1.317 . S
N236 C232 1.328 . S
N236 C234 1.350 . S
H237 C232 0.930 . S
H238 C233 0.930 . S
C239 O240 1.224 . S
C239 O258 1.247 . S
O240 C239 1.224 . S
N241 Co231 2.128 . S
N241 C242 1.355 . S
N241 C244 1.311 . S
C242 N241 1.355 . S
C242 C243 1.363 . S
C242 H254 0.929 . S
C243 C242 1.363 . S
C243 N245 1.375 . S
C243 H261 0.931 . S
C244 N241 1.311 . S
C244 N245 1.347 . S
C244 H255 0.929 . S
N245 C243 1.375 . S
N245 C244 1.347 . S
C246 C249 1.365 . S
C246 N251 1.328 . S
C246 H252 0.929 . S
C247 C248 1.362 . S
C247 C250 1.378 . S
C247 H262 0.929 . S
C248 C247 1.362 . S
C248 C249 1.366 . S
C249 C246 1.365 . S
C249 C248 1.366 . S
C249 H263 0.930 . S
C250 C247 1.378 . S
C250 N251 1.315 . S
C250 H253 0.930 . S
N251 Co231 2.194 . S
N251 C246 1.328 . S
N251 C250 1.315 . S
H252 C246 0.929 . S
H253 C250 0.930 . S
H254 C242 0.929 . S
H255 C244 0.929 . S
O256 Co231 2.351 . S
O256 C259 1.244 . S
O257 Co231 2.155 . S
O257 C259 1.240 . S
O258 Co231 2.096 . S
O258 C239 1.247 . S
C259 O256 1.244 . S
C259 O257 1.240 . S
H260 C234 0.931 . S
H261 C243 0.931 . S
H262 C247 0.929 . S
H263 C249 0.930 . S
Co264 N268 2.148 . S
Co264 N274 2.128 1_655 S
Co264 N284 2.194 . S
Co264 O289 2.351 . S
Co264 O290 2.155 . S
Co264 O291 2.096 . S
C265 N268 1.301 . S
C265 N269 1.328 . S
C265 H270 0.930 . S
C266 C267 1.333 . S
C266 N268 1.317 . S
C266 H271 0.930 . S
C267 C266 1.333 . S
C267 N269 1.350 . S
C267 H293 0.931 . S
N268 Co264 2.148 . S
N268 C265 1.301 . S
N268 C266 1.317 . S
N269 C265 1.328 . S
N269 C267 1.350 . S
H270 C265 0.930 . S
H271 C266 0.930 . S
C272 O273 1.224 . S
C272 O291 1.247 . S
O273 C272 1.224 . S
N274 Co264 2.128 1_455 S
N274 C275 1.355 . S
N274 C277 1.311 . S
C275 N274 1.355 . S
C275 C276 1.363 . S
C275 H287 0.929 . S
C276 C275 1.363 . S
C276 N278 1.375 . S
C276 H294 0.931 . S
C277 N274 1.311 . S
C277 N278 1.347 . S
C277 H288 0.929 . S
N278 C276 1.375 . S
N278 C277 1.347 . S
C279 C282 1.365 . S
C279 N284 1.328 . S
C279 H285 0.929 . S
C280 C281 1.362 . S
C280 C283 1.378 . S
C280 H295 0.929 . S
C281 C280 1.362 . S
C281 C282 1.366 . S
C282 C279 1.365 . S
C282 C281 1.366 . S
C282 H296 0.930 . S
C283 C280 1.378 . S
C283 N284 1.315 . S
C283 H286 0.930 . S
N284 Co264 2.194 . S
N284 C279 1.328 . S
N284 C283 1.315 . S
H285 C279 0.929 . S
H286 C283 0.930 . S
H287 C275 0.929 . S
H288 C277 0.929 . S
O289 Co264 2.351 . S
O289 C292 1.244 . S
O290 Co264 2.155 . S
O290 C292 1.240 . S
O291 Co264 2.096 . S
O291 C272 1.247 . S
C292 O289 1.244 . S
C292 O290 1.240 . S
H293 C267 0.931 . S
H294 C276 0.931 . S
H295 C280 0.929 . S
H296 C282 0.930 . S
Co297 N301 2.148 . S
Co297 N307 2.128 1_565 S
Co297 N317 2.194 . S
Co297 O322 2.351 . S
Co297 O323 2.155 . S
Co297 O324 2.096 . S
C298 N301 1.301 . S
C298 N302 1.328 . S
C298 H303 0.930 . S
C299 C300 1.333 . S
C299 N301 1.317 . S
C299 H304 0.930 . S
C300 C299 1.333 . S
C300 N302 1.350 . S
C300 H326 0.931 . S
N301 Co297 2.148 . S
N301 C298 1.301 . S
N301 C299 1.317 . S
N302 C298 1.328 . S
N302 C300 1.350 . S
H303 C298 0.930 . S
H304 C299 0.930 . S
C305 O306 1.224 . S
C305 O324 1.247 . S
O306 C305 1.224 . S
N307 Co297 2.128 1_545 S
N307 C308 1.355 . S
N307 C310 1.311 . S
C308 N307 1.355 . S
C308 C309 1.363 . S
C308 H320 0.929 . S
C309 C308 1.363 . S
C309 N311 1.375 . S
C309 H327 0.931 . S
C310 N307 1.311 . S
C310 N311 1.347 . S
C310 H321 0.929 . S
N311 C309 1.375 . S
N311 C310 1.347 . S
C312 C315 1.365 . S
C312 N317 1.328 . S
C312 H318 0.929 . S
C313 C314 1.362 . S
C313 C316 1.378 . S
C313 H328 0.929 . S
C314 C313 1.362 . S
C314 C315 1.366 . S
C315 C312 1.365 . S
C315 C314 1.366 . S
C315 H329 0.930 . S
C316 C313 1.378 . S
C316 N317 1.315 . S
C316 H319 0.930 . S
N317 Co297 2.194 . S
N317 C312 1.328 . S
N317 C316 1.315 . S
H318 C312 0.929 . S
H319 C316 0.930 . S
H320 C308 0.929 . S
H321 C310 0.929 . S
O322 Co297 2.351 . S
O322 C325 1.244 . S
O323 Co297 2.155 . S
O323 C325 1.240 . S
O324 Co297 2.096 . S
O324 C305 1.247 . S
C325 O322 1.244 . S
C325 O323 1.240 . S
H326 C300 0.931 . S
H327 C309 0.931 . S
H328 C313 0.929 . S
H329 C315 0.930 . S
Co330 N334 2.148 . S
Co330 N340 2.128 1_455 S
Co330 N350 2.194 . S
Co330 O355 2.351 . S
Co330 O356 2.155 . S
Co330 O357 2.096 . S
C331 N334 1.301 . S
C331 N335 1.328 . S
C331 H336 0.930 . S
C332 C333 1.333 . S
C332 N334 1.317 . S
C332 H337 0.930 . S
C333 C332 1.333 . S
C333 N335 1.350 . S
C333 H359 0.931 . S
N334 Co330 2.148 . S
N334 C331 1.301 . S
N334 C332 1.317 . S
N335 C331 1.328 . S
N335 C333 1.350 . S
H336 C331 0.930 . S
H337 C332 0.930 . S
C338 O339 1.224 . S
C338 O357 1.247 . S
O339 C338 1.224 . S
N340 Co330 2.128 1_655 S
N340 C341 1.355 . S
N340 C343 1.311 . S
C341 N340 1.355 . S
C341 C342 1.363 . S
C341 H353 0.929 . S
C342 C341 1.363 . S
C342 N344 1.375 . S
C342 H360 0.931 . S
C343 N340 1.311 . S
C343 N344 1.347 . S
C343 H354 0.929 . S
N344 C342 1.375 . S
N344 C343 1.347 . S
C345 C348 1.365 . S
C345 N350 1.328 . S
C345 H351 0.929 . S
C346 C347 1.362 . S
C346 C349 1.378 . S
C346 H361 0.929 . S
C347 C346 1.362 . S
C347 C348 1.366 . S
C348 C345 1.365 . S
C348 C347 1.366 . S
C348 H362 0.930 . S
C349 C346 1.378 . S
C349 N350 1.315 . S
C349 H352 0.930 . S
N350 Co330 2.194 . S
N350 C345 1.328 . S
N350 C349 1.315 . S
H351 C345 0.929 . S
H352 C349 0.930 . S
H353 C341 0.929 . S
H354 C343 0.929 . S
O355 Co330 2.351 . S
O355 C358 1.244 . S
O356 Co330 2.155 . S
O356 C358 1.240 . S
O357 Co330 2.096 . S
O357 C338 1.247 . S
C358 O355 1.244 . S
C358 O356 1.240 . S
H359 C333 0.931 . S
H360 C342 0.931 . S
H361 C346 0.929 . S
H362 C348 0.930 . S
Co363 N367 2.148 . S
Co363 N373 2.128 1_545 S
Co363 N383 2.194 . S
Co363 O388 2.351 . S
Co363 O389 2.155 . S
Co363 O390 2.096 . S
C364 N367 1.301 . S
C364 N368 1.328 . S
C364 H369 0.930 . S
C365 C366 1.333 . S
C365 N367 1.317 . S
C365 H370 0.930 . S
C366 C365 1.333 . S
C366 N368 1.350 . S
C366 H392 0.931 . S
N367 Co363 2.148 . S
N367 C364 1.301 . S
N367 C365 1.317 . S
N368 C364 1.328 . S
N368 C366 1.350 . S
H369 C364 0.930 . S
H370 C365 0.930 . S
C371 O372 1.224 . S
C371 O390 1.247 . S
O372 C371 1.224 . S
N373 Co363 2.128 1_565 S
N373 C374 1.355 . S
N373 C376 1.311 . S
C374 N373 1.355 . S
C374 C375 1.363 . S
C374 H386 0.929 . S
C375 C374 1.363 . S
C375 N377 1.375 . S
C375 H393 0.931 . S
C376 N373 1.311 . S
C376 N377 1.347 . S
C376 H387 0.929 . S
N377 C375 1.375 . S
N377 C376 1.347 . S
C378 C381 1.365 . S
C378 N383 1.328 . S
C378 H384 0.929 . S
C379 C380 1.362 . S
C379 C382 1.378 . S
C379 H394 0.929 . S
C380 C379 1.362 . S
C380 C381 1.366 . S
C381 C378 1.365 . S
C381 C380 1.366 . S
C381 H395 0.930 . S
C382 C379 1.378 . S
C382 N383 1.315 . S
C382 H385 0.930 . S
N383 Co363 2.194 . S
N383 C378 1.328 . S
N383 C382 1.315 . S
H384 C378 0.929 . S
H385 C382 0.930 . S
H386 C374 0.929 . S
H387 C376 0.929 . S
O388 Co363 2.351 . S
O388 C391 1.244 . S
O389 Co363 2.155 . S
O389 C391 1.240 . S
O390 Co363 2.096 . S
O390 C371 1.247 . S
C391 O388 1.244 . S
C391 O389 1.240 . S
H392 C366 0.931 . S
H393 C375 0.931 . S
H394 C379 0.929 . S
H395 C381 0.930 . S
Co396 N400 2.148 . S
Co396 N406 2.128 . S
Co396 N416 2.194 . S
Co396 O421 2.351 . S
Co396 O422 2.155 . S
Co396 O423 2.096 . S
C397 N400 1.301 . S
C397 N401 1.328 . S
C397 H402 0.930 . S
C398 C399 1.333 . S
C398 N400 1.317 . S
C398 H403 0.930 . S
C399 C398 1.333 . S
C399 N401 1.350 . S
C399 H425 0.931 . S
N400 Co396 2.148 . S
N400 C397 1.301 . S
N400 C398 1.317 . S
N401 C397 1.328 . S
N401 C399 1.350 . S
H402 C397 0.930 . S
H403 C398 0.930 . S
C404 O405 1.224 . S
C404 O423 1.247 . S
O405 C404 1.224 . S
N406 Co396 2.128 . S
N406 C407 1.355 . S
N406 C409 1.311 . S
C407 N406 1.355 . S
C407 C408 1.363 . S
C407 H419 0.929 . S
C408 C407 1.363 . S
C408 N410 1.375 . S
C408 H426 0.931 . S
C409 N406 1.311 . S
C409 N410 1.347 . S
C409 H420 0.929 . S
N410 C408 1.375 . S
N410 C409 1.347 . S
C411 C414 1.365 . S
C411 N416 1.328 . S
C411 H417 0.929 . S
C412 C413 1.362 . S
C412 C415 1.378 . S
C412 H427 0.929 . S
C413 C412 1.362 . S
C413 C414 1.366 . S
C414 C411 1.365 . S
C414 C413 1.366 . S
C414 H428 0.930 . S
C415 C412 1.378 . S
C415 N416 1.315 . S
C415 H418 0.930 . S
N416 Co396 2.194 . S
N416 C411 1.328 . S
N416 C415 1.315 . S
H417 C411 0.929 . S
H418 C415 0.930 . S
H419 C407 0.929 . S
H420 C409 0.929 . S
O421 Co396 2.351 . S
O421 C424 1.244 . S
O422 Co396 2.155 . S
O422 C424 1.240 . S
O423 Co396 2.096 . S
O423 C404 1.247 . S
C424 O421 1.244 . S
C424 O422 1.240 . S
H425 C399 0.931 . S
H426 C408 0.931 . S
H427 C412 0.929 . S
H428 C414 0.930 . S
Co429 N433 2.148 . S
Co429 N439 2.128 . S
Co429 N449 2.194 . S
Co429 O454 2.351 . S
Co429 O455 2.155 . S
Co429 O456 2.096 . S
C430 N433 1.301 . S
C430 N434 1.328 . S
C430 H435 0.930 . S
C431 C432 1.333 . S
C431 N433 1.317 . S
C431 H436 0.930 . S
C432 C431 1.333 . S
C432 N434 1.350 . S
C432 H458 0.931 . S
N433 Co429 2.148 . S
N433 C430 1.301 . S
N433 C431 1.317 . S
N434 C430 1.328 . S
N434 C432 1.350 . S
H435 C430 0.930 . S
H436 C431 0.930 . S
C437 O438 1.224 . S
C437 O456 1.247 . S
O438 C437 1.224 . S
N439 Co429 2.128 . S
N439 C440 1.355 . S
N439 C442 1.311 . S
C440 N439 1.355 . S
C440 C441 1.363 . S
C440 H452 0.929 . S
C441 C440 1.363 . S
C441 N443 1.375 . S
C441 H459 0.931 . S
C442 N439 1.311 . S
C442 N443 1.347 . S
C442 H453 0.929 . S
N443 C441 1.375 . S
N443 C442 1.347 . S
C444 C447 1.365 . S
C444 N449 1.328 . S
C444 H450 0.929 . S
C445 C446 1.362 . S
C445 C448 1.378 . S
C445 H460 0.929 . S
C446 C445 1.362 . S
C446 C447 1.366 . S
C447 C444 1.365 . S
C447 C446 1.366 . S
C447 H461 0.930 . S
C448 C445 1.378 . S
C448 N449 1.315 . S
C448 H451 0.930 . S
N449 Co429 2.194 . S
N449 C444 1.328 . S
N449 C448 1.315 . S
H450 C444 0.929 . S
H451 C448 0.930 . S
H452 C440 0.929 . S
H453 C442 0.929 . S
O454 Co429 2.351 . S
O454 C457 1.244 . S
O455 Co429 2.155 . S
O455 C457 1.240 . S
O456 Co429 2.096 . S
O456 C437 1.247 . S
C457 O454 1.244 . S
C457 O455 1.240 . S
H458 C432 0.931 . S
H459 C441 0.931 . S
H460 C445 0.929 . S
H461 C447 0.930 . S
Co462 N466 2.148 . S
Co462 N472 2.128 . S
Co462 N482 2.194 . S
Co462 O487 2.351 . S
Co462 O488 2.155 . S
Co462 O489 2.096 . S
C463 N466 1.301 . S
C463 N467 1.328 . S
C463 H468 0.930 . S
C464 C465 1.333 . S
C464 N466 1.317 . S
C464 H469 0.930 . S
C465 C464 1.333 . S
C465 N467 1.350 . S
C465 H491 0.931 . S
N466 Co462 2.148 . S
N466 C463 1.301 . S
N466 C464 1.317 . S
N467 C463 1.328 . S
N467 C465 1.350 . S
H468 C463 0.930 . S
H469 C464 0.930 . S
C470 O471 1.224 . S
C470 O489 1.247 . S
O471 C470 1.224 . S
N472 Co462 2.128 . S
N472 C473 1.355 . S
N472 C475 1.311 . S
C473 N472 1.355 . S
C473 C474 1.363 . S
C473 H485 0.929 . S
C474 C473 1.363 . S
C474 N476 1.375 . S
C474 H492 0.931 . S
C475 N472 1.311 . S
C475 N476 1.347 . S
C475 H486 0.929 . S
N476 C474 1.375 . S
N476 C475 1.347 . S
C477 C480 1.365 . S
C477 N482 1.328 . S
C477 H483 0.929 . S
C478 C479 1.362 . S
C478 C481 1.378 . S
C478 H493 0.929 . S
C479 C478 1.362 . S
C479 C480 1.366 . S
C480 C477 1.365 . S
C480 C479 1.366 . S
C480 H494 0.930 . S
C481 C478 1.378 . S
C481 N482 1.315 . S
C481 H484 0.930 . S
N482 Co462 2.194 . S
N482 C477 1.328 . S
N482 C481 1.315 . S
H483 C477 0.929 . S
H484 C481 0.930 . S
H485 C473 0.929 . S
H486 C475 0.929 . S
O487 Co462 2.351 . S
O487 C490 1.244 . S
O488 Co462 2.155 . S
O488 C490 1.240 . S
O489 Co462 2.096 . S
O489 C470 1.247 . S
C490 O487 1.244 . S
C490 O488 1.240 . S
H491 C465 0.931 . S
H492 C474 0.931 . S
H493 C478 0.929 . S
H494 C480 0.930 . S
Co495 N499 2.148 . S
Co495 N505 2.128 . S
Co495 N515 2.194 . S
Co495 O520 2.351 . S
Co495 O521 2.155 . S
Co495 O522 2.096 . S
C496 N499 1.301 . S
C496 N500 1.328 . S
C496 H501 0.930 . S
C497 C498 1.333 . S
C497 N499 1.317 . S
C497 H502 0.930 . S
C498 C497 1.333 . S
C498 N500 1.350 . S
C498 H524 0.931 . S
N499 Co495 2.148 . S
N499 C496 1.301 . S
N499 C497 1.317 . S
N500 C496 1.328 . S
N500 C498 1.350 . S
H501 C496 0.930 . S
H502 C497 0.930 . S
C503 O504 1.224 . S
C503 O522 1.247 . S
O504 C503 1.224 . S
N505 Co495 2.128 . S
N505 C506 1.355 . S
N505 C508 1.311 . S
C506 N505 1.355 . S
C506 C507 1.363 . S
C506 H518 0.929 . S
C507 C506 1.363 . S
C507 N509 1.375 . S
C507 H525 0.931 . S
C508 N505 1.311 . S
C508 N509 1.347 . S
C508 H519 0.929 . S
N509 C507 1.375 . S
N509 C508 1.347 . S
C510 C513 1.365 . S
C510 N515 1.328 . S
C510 H516 0.929 . S
C511 C512 1.362 . S
C511 C514 1.378 . S
C511 H526 0.929 . S
C512 C511 1.362 . S
C512 C513 1.366 . S
C513 C510 1.365 . S
C513 C512 1.366 . S
C513 H527 0.930 . S
C514 C511 1.378 . S
C514 N515 1.315 . S
C514 H517 0.930 . S
N515 Co495 2.194 . S
N515 C510 1.328 . S
N515 C514 1.315 . S
H516 C510 0.929 . S
H517 C514 0.930 . S
H518 C506 0.929 . S
H519 C508 0.929 . S
O520 Co495 2.351 . S
O520 C523 1.244 . S
O521 Co495 2.155 . S
O521 C523 1.240 . S
O522 Co495 2.096 . S
O522 C503 1.247 . S
C523 O520 1.244 . S
C523 O521 1.240 . S
H524 C498 0.931 . S
H525 C507 0.931 . S
H526 C511 0.929 . S
H527 C513 0.930 . S
C528 C529 1.363 . S
C528 C534 1.379 1_545 S
C528 N536 1.356 . S
C529 C528 1.363 . S
C529 C535 1.363 1_455 S
C530 C531 1.363 . S
C530 C535 1.379 1_565 S
C530 N537 1.356 . S
C531 C530 1.363 . S
C531 C534 1.363 1_655 S
N532 C534 1.356 . S
N532 H544 0.984 . S
N532 H545 0.985 . S
N533 C535 1.356 . S
N533 H538 0.984 . S
N533 H539 0.985 . S
C534 C528 1.379 1_565 S
C534 C531 1.363 1_455 S
C534 N532 1.356 . S
C535 C529 1.363 1_655 S
C535 C530 1.379 1_545 S
C535 N533 1.356 . S
N536 C528 1.356 . S
N536 H542 0.984 . S
N536 H543 0.984 . S
N537 C530 1.356 . S
N537 H540 0.984 . S
N537 H541 0.985 . S
H538 N533 0.984 . S
H539 N533 0.985 . S
H540 N537 0.984 . S
H541 N537 0.985 . S
H542 N536 0.984 . S
H543 N536 0.984 . S
H544 N532 0.984 . S
H545 N532 0.985 . S
C546 C547 1.363 1_545 S
C546 C552 1.379 1_455 S
C546 N554 1.356 . S
C547 C546 1.363 1_565 S
C547 C553 1.363 . S
C548 C549 1.363 1_565 S
C548 C553 1.379 1_655 S
C548 N555 1.356 . S
C549 C548 1.363 1_545 S
C549 C552 1.363 . S
N550 C552 1.356 . S
N550 H562 0.984 . S
N550 H563 0.985 . S
N551 C553 1.356 . S
N551 H556 0.984 . S
N551 H557 0.985 . S
C552 C546 1.379 1_655 S
C552 C549 1.363 . S
C552 N550 1.356 . S
C553 C547 1.363 . S
C553 C548 1.379 1_455 S
C553 N551 1.356 . S
N554 C546 1.356 . S
N554 H560 0.984 . S
N554 H561 0.984 . S
N555 C548 1.356 . S
N555 H558 0.984 . S
N555 H559 0.985 . S
H556 N551 0.984 . S
H557 N551 0.985 . S
H558 N555 0.984 . S
H559 N555 0.985 . S
H560 N554 0.984 . S
H561 N554 0.984 . S
H562 N550 0.984 . S
H563 N550 0.985 . S
C564 C565 1.363 . S
C564 C570 1.379 . S
C564 N572 1.356 . S
C565 C564 1.363 . S
C565 C571 1.363 . S
C566 C567 1.363 . S
C566 C571 1.379 . S
C566 N573 1.356 . S
C567 C566 1.363 . S
C567 C570 1.363 . S
N568 C570 1.356 . S
N568 H580 0.984 . S
N568 H581 0.985 . S
N569 C571 1.356 . S
N569 H574 0.984 . S
N569 H575 0.985 . S
C570 C564 1.379 . S
C570 C567 1.363 . S
C570 N568 1.356 . S
C571 C565 1.363 . S
C571 C566 1.379 . S
C571 N569 1.356 . S
N572 C564 1.356 . S
N572 H578 0.984 . S
N572 H579 0.984 . S
N573 C566 1.356 . S
N573 H576 0.984 . S
N573 H577 0.985 . S
H574 N569 0.984 . S
H575 N569 0.985 . S
H576 N573 0.984 . S
H577 N573 0.985 . S
H578 N572 0.984 . S
H579 N572 0.984 . S
H580 N568 0.984 . S
H581 N568 0.985 . S
C582 C583 1.363 . S
C582 C588 1.379 . S
C582 N590 1.356 . S
C583 C582 1.363 . S
C583 C589 1.363 . S
C584 C585 1.363 . S
C584 C589 1.379 . S
C584 N591 1.356 . S
C585 C584 1.363 . S
C585 C588 1.363 . S
N586 C588 1.356 . S
N586 H598 0.984 . S
N586 H599 0.985 . S
N587 C589 1.356 . S
N587 H592 0.984 . S
N587 H593 0.985 . S
C588 C582 1.379 . S
C588 C585 1.363 . S
C588 N586 1.356 . S
C589 C583 1.363 . S
C589 C584 1.379 . S
C589 N587 1.356 . S
N590 C582 1.356 . S
N590 H596 0.984 . S
N590 H597 0.984 . S
N591 C584 1.356 . S
N591 H594 0.984 . S
N591 H595 0.985 . S
H592 N587 0.984 . S
H593 N587 0.985 . S
H594 N591 0.984 . S
H595 N591 0.985 . S
H596 N590 0.984 . S
H597 N590 0.984 . S
H598 N586 0.984 . S
H599 N586 0.985 . S
C600 C601 1.363 . S
C600 C606 1.379 1_545 S
C600 N608 1.356 . S
C601 C600 1.363 . S
C601 C607 1.363 1_455 S
C602 C603 1.363 . S
C602 C607 1.379 1_565 S
C602 N609 1.356 . S
C603 C602 1.363 . S
C603 C606 1.363 1_655 S
N604 C606 1.356 . S
N604 H616 0.984 . S
N604 H617 0.985 . S
N605 C607 1.356 . S
N605 H610 0.984 . S
N605 H611 0.985 . S
C606 C600 1.379 1_565 S
C606 C603 1.363 1_455 S
C606 N604 1.356 . S
C607 C601 1.363 1_655 S
C607 C602 1.379 1_545 S
C607 N605 1.356 . S
N608 C600 1.356 . S
N608 H614 0.984 . S
N608 H615 0.984 . S
N609 C602 1.356 . S
N609 H612 0.984 . S
N609 H613 0.985 . S
H610 N605 0.984 . S
H611 N605 0.985 . S
H612 N609 0.984 . S
H613 N609 0.985 . S
H614 N608 0.984 . S
H615 N608 0.984 . S
H616 N604 0.984 . S
H617 N604 0.985 . S
C618 C619 1.363 . S
C618 C624 1.379 1_455 S
C618 N626 1.356 . S
C619 C618 1.363 . S
C619 C625 1.363 1_565 S
C620 C621 1.363 . S
C620 C625 1.379 1_655 S
C620 N627 1.356 . S
C621 C620 1.363 . S
C621 C624 1.363 1_545 S
N622 C624 1.356 . S
N622 H634 0.984 . S
N622 H635 0.985 . S
N623 C625 1.356 . S
N623 H628 0.984 . S
N623 H629 0.985 . S
C624 C618 1.379 1_655 S
C624 C621 1.363 1_565 S
C624 N622 1.356 . S
C625 C619 1.363 1_545 S
C625 C620 1.379 1_455 S
C625 N623 1.356 . S
N626 C618 1.356 . S
N626 H632 0.984 . S
N626 H633 0.984 . S
N627 C620 1.356 . S
N627 H630 0.984 . S
N627 H631 0.985 . S
H628 N623 0.984 . S
H629 N623 0.985 . S
H630 N627 0.984 . S
H631 N627 0.985 . S
H632 N626 0.984 . S
H633 N626 0.984 . S
H634 N622 0.984 . S
H635 N622 0.985 . S
C636 C637 1.363 . S
C636 C642 1.379 . S
C636 N644 1.356 . S
C637 C636 1.363 . S
C637 C643 1.363 . S
C638 C639 1.363 . S
C638 C643 1.379 . S
C638 N645 1.356 . S
C639 C638 1.363 . S
C639 C642 1.363 . S
N640 C642 1.356 . S
N640 H652 0.984 . S
N640 H653 0.985 . S
N641 C643 1.356 . S
N641 H646 0.984 . S
N641 H647 0.985 . S
C642 C636 1.379 . S
C642 C639 1.363 . S
C642 N640 1.356 . S
C643 C637 1.363 . S
C643 C638 1.379 . S
C643 N641 1.356 . S
N644 C636 1.356 . S
N644 H650 0.984 . S
N644 H651 0.984 . S
N645 C638 1.356 . S
N645 H648 0.984 . S
N645 H649 0.985 . S
H646 N641 0.984 . S
H647 N641 0.985 . S
H648 N645 0.984 . S
H649 N645 0.985 . S
H650 N644 0.984 . S
H651 N644 0.984 . S
H652 N640 0.984 . S
H653 N640 0.985 . S
C654 C655 1.363 . S
C654 C660 1.379 . S
C654 N662 1.356 . S
C655 C654 1.363 . S
C655 C661 1.363 . S
C656 C657 1.363 . S
C656 C661 1.379 . S
C656 N663 1.356 . S
C657 C656 1.363 . S
C657 C660 1.363 . S
N658 C660 1.356 . S
N658 H670 0.984 . S
N658 H671 0.985 . S
N659 C661 1.356 . S
N659 H664 0.984 . S
N659 H665 0.985 . S
C660 C654 1.379 . S
C660 C657 1.363 . S
C660 N658 1.356 . S
C661 C655 1.363 . S
C661 C656 1.379 . S
C661 N659 1.356 . S
N662 C654 1.356 . S
N662 H668 0.984 . S
N662 H669 0.984 . S
N663 C656 1.356 . S
N663 H666 0.984 . S
N663 H667 0.985 . S
H664 N659 0.984 . S
H665 N659 0.985 . S
H666 N663 0.984 . S
H667 N663 0.985 . S
H668 N662 0.984 . S
H669 N662 0.984 . S
H670 N658 0.984 . S
H671 N658 0.985 . S
C672 C673 1.363 . S
C672 C678 1.379 1_554 S
C672 N680 1.356 . S
C673 C672 1.363 . S
C673 C679 1.363 . S
C674 C675 1.363 . S
C674 C679 1.379 1_556 S
C674 N681 1.356 . S
C675 C674 1.363 . S
C675 C678 1.363 . S
N676 C678 1.356 . S
N676 H688 0.984 1_455 S
N676 H689 0.985 . S
N677 C679 1.356 . S
N677 H682 0.984 . S
N677 H683 0.985 . S
C678 C672 1.379 1_556 S
C678 C675 1.363 . S
C678 N676 1.356 . S
C679 C673 1.363 . S
C679 C674 1.379 1_554 S
C679 N677 1.356 . S
N680 C672 1.356 . S
N680 H686 0.984 1_455 S
N680 H687 0.984 . S
N681 C674 1.356 . S
N681 H684 0.984 . S
N681 H685 0.985 . S
H682 N677 0.984 . S
H683 N677 0.985 . S
H684 N681 0.984 . S
H685 N681 0.985 . S
H686 N680 0.984 1_655 S
H687 N680 0.984 . S
H688 N676 0.984 1_655 S
H689 N676 0.985 . S
C690 C691 1.363 . S
C690 C696 1.379 . S
C690 N698 1.356 . S
C691 C690 1.363 . S
C691 C697 1.363 . S
C692 C693 1.363 . S
C692 C697 1.379 . S
C692 N699 1.356 1_545 S
C693 C692 1.363 . S
C693 C696 1.363 . S
N694 C696 1.356 . S
N694 H706 0.984 . S
N694 H707 0.985 . S
N695 C697 1.356 1_565 S
N695 H700 0.984 1_565 S
N695 H701 0.985 . S
C696 C690 1.379 . S
C696 C693 1.363 . S
C696 N694 1.356 . S
C697 C691 1.363 . S
C697 C692 1.379 . S
C697 N695 1.356 1_545 S
N698 C690 1.356 . S
N698 H704 0.984 . S
N698 H705 0.984 . S
N699 C692 1.356 1_565 S
N699 H702 0.984 1_565 S
N699 H703 0.985 . S
H700 N695 0.984 1_545 S
H701 N695 0.985 . S
H702 N699 0.984 1_545 S
H703 N699 0.985 . S
H704 N698 0.984 . S
H705 N698 0.984 . S
H706 N694 0.984 . S
H707 N694 0.985 . S
C708 C709 1.363 . S
C708 C714 1.379 1_556 S
C708 N716 1.356 . S
C709 C708 1.363 . S
C709 C715 1.363 . S
C710 C711 1.363 . S
C710 C715 1.379 1_554 S
C710 N717 1.356 . S
C711 C710 1.363 . S
C711 C714 1.363 . S
N712 C714 1.356 . S
N712 H724 0.984 1_655 S
N712 H725 0.985 . S
N713 C715 1.356 . S
N713 H718 0.984 . S
N713 H719 0.985 . S
C714 C708 1.379 1_554 S
C714 C711 1.363 . S
C714 N712 1.356 . S
C715 C709 1.363 . S
C715 C710 1.379 1_556 S
C715 N713 1.356 . S
N716 C708 1.356 . S
N716 H722 0.984 1_655 S
N716 H723 0.984 . S
N717 C710 1.356 . S
N717 H720 0.984 . S
N717 H721 0.985 . S
H718 N713 0.984 . S
H719 N713 0.985 . S
H720 N717 0.984 . S
H721 N717 0.985 . S
H722 N716 0.984 1_455 S
H723 N716 0.984 . S
H724 N712 0.984 1_455 S
H725 N712 0.985 . S
C726 C727 1.363 . S
C726 C732 1.379 . S
C726 N734 1.356 1_565 S
C727 C726 1.363 . S
C727 C733 1.363 . S
C728 C729 1.363 . S
C728 C733 1.379 . S
C728 N735 1.356 . S
C729 C728 1.363 . S
C729 C732 1.363 . S
N730 C732 1.356 1_545 S
N730 H742 0.985 . S
N730 H743 0.984 1_545 S
N731 C733 1.356 . S
N731 H736 0.984 . S
N731 H737 0.985 . S
C732 C726 1.379 . S
C732 C729 1.363 . S
C732 N730 1.356 1_565 S
C733 C727 1.363 . S
C733 C728 1.379 . S
C733 N731 1.356 . S
N734 C726 1.356 1_545 S
N734 H740 0.985 . S
N734 H741 0.984 1_545 S
N735 C728 1.356 . S
N735 H738 0.984 . S
N735 H739 0.985 . S
H736 N731 0.984 . S
H737 N731 0.985 . S
H738 N735 0.984 . S
H739 N735 0.985 . S
H740 N734 0.985 . S
H741 N734 0.984 1_565 S
H742 N730 0.985 . S
H743 N730 0.984 1_565 S
C744 C745 1.363 . S
C744 C750 1.379 1_554 S
C744 N752 1.356 . S
C745 C744 1.363 . S
C745 C751 1.363 . S
C746 C747 1.363 . S
C746 C751 1.379 1_556 S
C746 N753 1.356 . S
C747 C746 1.363 . S
C747 C750 1.363 . S
N748 C750 1.356 . S
N748 H760 0.984 . S
N748 H761 0.985 . S
N749 C751 1.356 . S
N749 H754 0.984 . S
N749 H755 0.985 . S
C750 C744 1.379 1_556 S
C750 C747 1.363 . S
C750 N748 1.356 . S
C751 C745 1.363 . S
C751 C746 1.379 1_554 S
C751 N749 1.356 . S
N752 C744 1.356 . S
N752 H758 0.984 . S
N752 H759 0.984 . S
N753 C746 1.356 . S
N753 H756 0.984 . S
N753 H757 0.985 . S
H754 N749 0.984 . S
H755 N749 0.985 . S
H756 N753 0.984 . S
H757 N753 0.985 . S
H758 N752 0.984 . S
H759 N752 0.984 . S
H760 N748 0.984 . S
H761 N748 0.985 . S
C762 C763 1.363 . S
C762 C768 1.379 . S
C762 N770 1.356 . S
C763 C762 1.363 . S
C763 C769 1.363 . S
C764 C765 1.363 . S
C764 C769 1.379 . S
C764 N771 1.356 . S
C765 C764 1.363 . S
C765 C768 1.363 . S
N766 C768 1.356 . S
N766 H778 0.984 . S
N766 H779 0.985 . S
N767 C769 1.356 . S
N767 H772 0.984 . S
N767 H773 0.985 . S
C768 C762 1.379 . S
C768 C765 1.363 . S
C768 N766 1.356 . S
C769 C763 1.363 . S
C769 C764 1.379 . S
C769 N767 1.356 . S
N770 C762 1.356 . S
N770 H776 0.984 . S
N770 H777 0.984 . S
N771 C764 1.356 . S
N771 H774 0.984 . S
N771 H775 0.985 . S
H772 N767 0.984 . S
H773 N767 0.985 . S
H774 N771 0.984 . S
H775 N771 0.985 . S
H776 N770 0.984 . S
H777 N770 0.984 . S
H778 N766 0.984 . S
H779 N766 0.985 . S
C780 C781 1.363 . S
C780 C786 1.379 1_554 S
C780 N788 1.356 . S
C781 C780 1.363 . S
C781 C787 1.363 . S
C782 C783 1.363 . S
C782 C787 1.379 1_556 S
C782 N789 1.356 . S
C783 C782 1.363 . S
C783 C786 1.363 . S
N784 C786 1.356 . S
N784 H796 0.984 . S
N784 H797 0.985 . S
N785 C787 1.356 . S
N785 H790 0.984 . S
N785 H791 0.985 . S
C786 C780 1.379 1_556 S
C786 C783 1.363 . S
C786 N784 1.356 . S
C787 C781 1.363 . S
C787 C782 1.379 1_554 S
C787 N785 1.356 . S
N788 C780 1.356 . S
N788 H794 0.984 . S
N788 H795 0.984 . S
N789 C782 1.356 . S
N789 H792 0.984 . S
N789 H793 0.985 . S
H790 N785 0.984 . S
H791 N785 0.985 . S
H792 N789 0.984 . S
H793 N789 0.985 . S
H794 N788 0.984 . S
H795 N788 0.984 . S
H796 N784 0.984 . S
H797 N784 0.985 . S
C798 C799 1.363 . S
C798 C804 1.379 . S
C798 N806 1.356 . S
C799 C798 1.363 . S
C799 C805 1.363 . S
C800 C801 1.363 . S
C800 C805 1.379 . S
C800 N807 1.356 . S
C801 C800 1.363 . S
C801 C804 1.363 . S
N802 C804 1.356 . S
N802 H814 0.984 . S
N802 H815 0.985 . S
N803 C805 1.356 . S
N803 H808 0.984 . S
N803 H809 0.985 . S
C804 C798 1.379 . S
C804 C801 1.363 . S
C804 N802 1.356 . S
C805 C799 1.363 . S
C805 C800 1.379 . S
C805 N803 1.356 . S
N806 C798 1.356 . S
N806 H812 0.984 . S
N806 H813 0.984 . S
N807 C800 1.356 . S
N807 H810 0.984 . S
N807 H811 0.985 . S
H808 N803 0.984 . S
H809 N803 0.985 . S
H810 N807 0.984 . S
H811 N807 0.985 . S
H812 N806 0.984 . S
H813 N806 0.984 . S
H814 N802 0.984 . S
H815 N802 0.985 . S
C816 C817 1.363 . S
C816 C822 1.379 . S
C816 N824 1.356 . S
C817 C816 1.363 . S
C817 C823 1.363 . S
C818 C819 1.363 . S
C818 C823 1.379 . S
C818 N825 1.356 . S
C819 C818 1.363 . S
C819 C822 1.363 . S
N820 C822 1.356 . S
N820 H832 0.984 . S
N820 H833 0.985 . S
N821 C823 1.356 . S
N821 H826 0.984 . S
N821 H827 0.985 . S
C822 C816 1.379 . S
C822 C819 1.363 . S
C822 N820 1.356 . S
C823 C817 1.363 . S
C823 C818 1.379 . S
C823 N821 1.356 . S
N824 C816 1.356 . S
N824 H830 0.984 . S
N824 H831 0.984 . S
N825 C818 1.356 . S
N825 H828 0.984 . S
N825 H829 0.985 . S
H826 N821 0.984 . S
H827 N821 0.985 . S
H828 N825 0.984 . S
H829 N825 0.985 . S
H830 N824 0.984 . S
H831 N824 0.984 . S
H832 N820 0.984 . S
H833 N820 0.985 . S
C834 C835 1.363 . S
C834 C840 1.379 . S
C834 N842 1.356 . S
C835 C834 1.363 . S
C835 C841 1.363 . S
C836 C837 1.363 . S
C836 C841 1.379 . S
C836 N843 1.356 . S
C837 C836 1.363 . S
C837 C840 1.363 . S
N838 C840 1.356 . S
N838 H850 0.984 . S
N838 H851 0.985 . S
N839 C841 1.356 . S
N839 H844 0.984 . S
N839 H845 0.985 . S
C840 C834 1.379 . S
C840 C837 1.363 . S
C840 N838 1.356 . S
C841 C835 1.363 . S
C841 C836 1.379 . S
C841 N839 1.356 . S
N842 C834 1.356 . S
N842 H848 0.984 . S
N842 H849 0.984 . S
N843 C836 1.356 . S
N843 H846 0.984 . S
N843 H847 0.985 . S
H844 N839 0.984 . S
H845 N839 0.985 . S
H846 N843 0.984 . S
H847 N843 0.985 . S
H848 N842 0.984 . S
H849 N842 0.984 . S
H850 N838 0.984 . S
H851 N838 0.985 . S
C852 C853 1.363 . S
C852 C858 1.379 . S
C852 N860 1.356 . S
C853 C852 1.363 . S
C853 C859 1.363 . S
C854 C855 1.363 . S
C854 C859 1.379 . S
C854 N861 1.356 . S
C855 C854 1.363 . S
C855 C858 1.363 . S
N856 C858 1.356 . S
N856 H868 0.984 . S
N856 H869 0.985 . S
N857 C859 1.356 . S
N857 H862 0.984 . S
N857 H863 0.985 . S
C858 C852 1.379 . S
C858 C855 1.363 . S
C858 N856 1.356 . S
C859 C853 1.363 . S
C859 C854 1.379 . S
C859 N857 1.356 . S
N860 C852 1.356 . S
N860 H866 0.984 . S
N860 H867 0.984 . S
N861 C854 1.356 . S
N861 H864 0.984 . S
N861 H865 0.985 . S
H862 N857 0.984 . S
H863 N857 0.985 . S
H864 N861 0.984 . S
H865 N861 0.985 . S
H866 N860 0.984 . S
H867 N860 0.984 . S
H868 N856 0.984 . S
H869 N856 0.985 . S
C870 C871 1.363 . S
C870 C876 1.379 . S
C870 N878 1.356 . S
C871 C870 1.363 . S
C871 C877 1.363 . S
C872 C873 1.363 . S
C872 C877 1.379 . S
C872 N879 1.356 . S
C873 C872 1.363 . S
C873 C876 1.363 . S
N874 C876 1.356 . S
N874 H886 0.984 . S
N874 H887 0.985 . S
N875 C877 1.356 . S
N875 H880 0.984 . S
N875 H881 0.985 . S
C876 C870 1.379 . S
C876 C873 1.363 . S
C876 N874 1.356 . S
C877 C871 1.363 . S
C877 C872 1.379 . S
C877 N875 1.356 . S
N878 C870 1.356 . S
N878 H884 0.984 . S
N878 H885 0.984 . S
N879 C872 1.356 . S
N879 H882 0.984 . S
N879 H883 0.985 . S
H880 N875 0.984 . S
H881 N875 0.985 . S
H882 N879 0.984 . S
H883 N879 0.985 . S
H884 N878 0.984 . S
H885 N878 0.984 . S
H886 N874 0.984 . S
H887 N874 0.985 . S
C888 C889 1.363 . S
C888 C894 1.379 . S
C888 N896 1.356 . S
C889 C888 1.363 . S
C889 C895 1.363 . S
C890 C891 1.363 . S
C890 C895 1.379 . S
C890 N897 1.356 . S
C891 C890 1.363 . S
C891 C894 1.363 . S
N892 C894 1.356 . S
N892 H904 0.984 . S
N892 H905 0.985 . S
N893 C895 1.356 . S
N893 H898 0.984 . S
N893 H899 0.985 . S
C894 C888 1.379 . S
C894 C891 1.363 . S
C894 N892 1.356 . S
C895 C889 1.363 . S
C895 C890 1.379 . S
C895 N893 1.356 . S
N896 C888 1.356 . S
N896 H902 0.984 . S
N896 H903 0.984 . S
N897 C890 1.356 . S
N897 H900 0.984 . S
N897 H901 0.985 . S
H898 N893 0.984 . S
H899 N893 0.985 . S
H900 N897 0.984 . S
H901 N897 0.985 . S
H902 N896 0.984 . S
H903 N896 0.984 . S
H904 N892 0.984 . S
H905 N892 0.985 . S
C906 C907 1.363 . S
C906 C912 1.379 . S
C906 N914 1.356 . S
C907 C906 1.363 . S
C907 C913 1.363 . S
C908 C909 1.363 . S
C908 C913 1.379 . S
C908 N915 1.356 . S
C909 C908 1.363 . S
C909 C912 1.363 . S
N910 C912 1.356 . S
N910 H922 0.984 . S
N910 H923 0.985 . S
N911 C913 1.356 . S
N911 H916 0.984 . S
N911 H917 0.985 . S
C912 C906 1.379 . S
C912 C909 1.363 . S
C912 N910 1.356 . S
C913 C907 1.363 . S
C913 C908 1.379 . S
C913 N911 1.356 . S
N914 C906 1.356 . S
N914 H920 0.984 . S
N914 H921 0.984 . S
N915 C908 1.356 . S
N915 H918 0.984 . S
N915 H919 0.985 . S
H916 N911 0.984 . S
H917 N911 0.985 . S
H918 N915 0.984 . S
H919 N915 0.985 . S
H920 N914 0.984 . S
H921 N914 0.984 . S
H922 N910 0.984 . S
H923 N910 0.985 . S
C924 C925 1.363 . S
C924 C930 1.379 . S
C924 N932 1.356 . S
C925 C924 1.363 . S
C925 C931 1.363 . S
C926 C927 1.363 . S
C926 C931 1.379 . S
C926 N933 1.356 . S
C927 C926 1.363 . S
C927 C930 1.363 . S
N928 C930 1.356 . S
N928 H940 0.984 . S
N928 H941 0.985 . S
N929 C931 1.356 . S
N929 H934 0.984 . S
N929 H935 0.985 . S
C930 C924 1.379 . S
C930 C927 1.363 . S
C930 N928 1.356 . S
C931 C925 1.363 . S
C931 C926 1.379 . S
C931 N929 1.356 . S
N932 C924 1.356 . S
N932 H938 0.984 . S
N932 H939 0.984 . S
N933 C926 1.356 . S
N933 H936 0.984 . S
N933 H937 0.985 . S
H934 N929 0.984 . S
H935 N929 0.985 . S
H936 N933 0.984 . S
H937 N933 0.985 . S
H938 N932 0.984 . S
H939 N932 0.984 . S
H940 N928 0.984 . S
H941 N928 0.985 . S
C942 C943 1.363 . S
C942 C948 1.379 . S
C942 N950 1.356 . S
C943 C942 1.363 . S
C943 C949 1.363 . S
C944 C945 1.363 . S
C944 C949 1.379 . S
C944 N951 1.356 . S
C945 C944 1.363 . S
C945 C948 1.363 . S
N946 C948 1.356 . S
N946 H958 0.984 . S
N946 H959 0.985 . S
N947 C949 1.356 . S
N947 H952 0.984 . S
N947 H953 0.985 . S
C948 C942 1.379 . S
C948 C945 1.363 . S
C948 N946 1.356 . S
C949 C943 1.363 . S
C949 C944 1.379 . S
C949 N947 1.356 . S
N950 C942 1.356 . S
N950 H956 0.984 . S
N950 H957 0.984 . S
N951 C944 1.356 . S
N951 H954 0.984 . S
N951 H955 0.985 . S
H952 N947 0.984 . S
H953 N947 0.985 . S
H954 N951 0.984 . S
H955 N951 0.985 . S
H956 N950 0.984 . S
H957 N950 0.984 . S
H958 N946 0.984 . S
H959 N946 0.985 . S
C960 C961 1.363 . S
C960 C966 1.379 . S
C960 N968 1.356 . S
C961 C960 1.363 . S
C961 C967 1.363 . S
C962 C963 1.363 . S
C962 C967 1.379 . S
C962 N969 1.356 . S
C963 C962 1.363 . S
C963 C966 1.363 . S
N964 C966 1.356 . S
N964 H976 0.984 . S
N964 H977 0.985 . S
N965 C967 1.356 . S
N965 H970 0.984 . S
N965 H971 0.985 . S
C966 C960 1.379 . S
C966 C963 1.363 . S
C966 N964 1.356 . S
C967 C961 1.363 . S
C967 C962 1.379 . S
C967 N965 1.356 . S
N968 C960 1.356 . S
N968 H974 0.984 . S
N968 H975 0.984 . S
N969 C962 1.356 . S
N969 H972 0.984 . S
N969 H973 0.985 . S
H970 N965 0.984 . S
H971 N965 0.985 . S
H972 N969 0.984 . S
H973 N969 0.985 . S
H974 N968 0.984 . S
H975 N968 0.984 . S
H976 N964 0.984 . S
H977 N964 0.985 . S
C978 C979 1.363 . S
C978 C984 1.379 . S
C978 N986 1.356 . S
C979 C978 1.363 . S
C979 C985 1.363 . S
C980 C981 1.363 . S
C980 C985 1.379 . S
C980 N987 1.356 . S
C981 C980 1.363 . S
C981 C984 1.363 . S
N982 C984 1.356 . S
N982 H994 0.984 . S
N982 H995 0.985 . S
N983 C985 1.356 . S
N983 H988 0.984 . S
N983 H989 0.985 . S
C984 C978 1.379 . S
C984 C981 1.363 . S
C984 N982 1.356 . S
C985 C979 1.363 . S
C985 C980 1.379 . S
C985 N983 1.356 . S
N986 C978 1.356 . S
N986 H992 0.984 . S
N986 H993 0.984 . S
N987 C980 1.356 . S
N987 H990 0.984 . S
N987 H991 0.985 . S
H988 N983 0.984 . S
H989 N983 0.985 . S
H990 N987 0.984 . S
H991 N987 0.985 . S
H992 N986 0.984 . S
H993 N986 0.984 . S
H994 N982 0.984 . S
H995 N982 0.985 . S
C996 C997 1.363 . S
C996 C1002 1.379 . S
C996 N1004 1.356 . S
C997 C996 1.363 . S
C997 C1003 1.363 . S
C998 C999 1.363 . S
C998 C1003 1.379 . S
C998 N1005 1.356 . S
C999 C998 1.363 . S
C999 C1002 1.363 . S
N1000 C1002 1.356 . S
N1000 H1012 0.984 . S
N1000 H1013 0.985 . S
N1001 C1003 1.356 . S
N1001 H1006 0.984 . S
N1001 H1007 0.985 . S
C1002 C996 1.379 . S
C1002 C999 1.363 . S
C1002 N1000 1.356 . S
C1003 C997 1.363 . S
C1003 C998 1.379 . S
C1003 N1001 1.356 . S
N1004 C996 1.356 . S
N1004 H1010 0.984 . S
N1004 H1011 0.984 . S
N1005 C998 1.356 . S
N1005 H1008 0.984 . S
N1005 H1009 0.985 . S
H1006 N1001 0.984 . S
H1007 N1001 0.985 . S
H1008 N1005 0.984 . S
H1009 N1005 0.985 . S
H1010 N1004 0.984 . S
H1011 N1004 0.984 . S
H1012 N1000 0.984 . S
H1013 N1000 0.985 . S
C1014 C1015 1.363 . S
C1014 C1020 1.379 . S
C1014 N1022 1.356 . S
C1015 C1014 1.363 . S
C1015 C1021 1.363 . S
C1016 C1017 1.363 . S
C1016 C1021 1.379 . S
C1016 N1023 1.356 . S
C1017 C1016 1.363 . S
C1017 C1020 1.363 . S
N1018 C1020 1.356 . S
N1018 H1030 0.984 . S
N1018 H1031 0.985 . S
N1019 C1021 1.356 . S
N1019 H1024 0.984 . S
N1019 H1025 0.985 . S
C1020 C1014 1.379 . S
C1020 C1017 1.363 . S
C1020 N1018 1.356 . S
C1021 C1015 1.363 . S
C1021 C1016 1.379 . S
C1021 N1019 1.356 . S
N1022 C1014 1.356 . S
N1022 H1028 0.984 . S
N1022 H1029 0.984 . S
N1023 C1016 1.356 . S
N1023 H1026 0.984 . S
N1023 H1027 0.985 . S
H1024 N1019 0.984 . S
H1025 N1019 0.985 . S
H1026 N1023 0.984 . S
H1027 N1023 0.985 . S
H1028 N1022 0.984 . S
H1029 N1022 0.984 . S
H1030 N1018 0.984 . S
H1031 N1018 0.985 . S
C1032 C1033 1.363 . S
C1032 C1038 1.379 . S
C1032 N1040 1.356 . S
C1033 C1032 1.363 . S
C1033 C1039 1.363 . S
C1034 C1035 1.363 . S
C1034 C1039 1.379 . S
C1034 N1041 1.356 . S
C1035 C1034 1.363 . S
C1035 C1038 1.363 . S
N1036 C1038 1.356 . S
N1036 H1048 0.984 . S
N1036 H1049 0.985 . S
N1037 C1039 1.356 . S
N1037 H1042 0.984 . S
N1037 H1043 0.985 . S
C1038 C1032 1.379 . S
C1038 C1035 1.363 . S
C1038 N1036 1.356 . S
C1039 C1033 1.363 . S
C1039 C1034 1.379 . S
C1039 N1037 1.356 . S
N1040 C1032 1.356 . S
N1040 H1046 0.984 . S
N1040 H1047 0.984 . S
N1041 C1034 1.356 . S
N1041 H1044 0.984 . S
N1041 H1045 0.985 . S
H1042 N1037 0.984 . S
H1043 N1037 0.985 . S
H1044 N1041 0.984 . S
H1045 N1041 0.985 . S
H1046 N1040 0.984 . S
H1047 N1040 0.984 . S
H1048 N1036 0.984 . S
H1049 N1036 0.985 . S
C1050 C1051 1.363 . S
C1050 C1056 1.379 . S
C1050 N1058 1.356 . S
C1051 C1050 1.363 . S
C1051 C1057 1.363 . S
C1052 C1053 1.363 . S
C1052 C1057 1.379 . S
C1052 N1059 1.356 . S
C1053 C1052 1.363 . S
C1053 C1056 1.363 . S
N1054 C1056 1.356 . S
N1054 H1066 0.984 . S
N1054 H1067 0.985 . S
N1055 C1057 1.356 . S
N1055 H1060 0.984 . S
N1055 H1061 0.985 . S
C1056 C1050 1.379 . S
C1056 C1053 1.363 . S
C1056 N1054 1.356 . S
C1057 C1051 1.363 . S
C1057 C1052 1.379 . S
C1057 N1055 1.356 . S
N1058 C1050 1.356 . S
N1058 H1064 0.984 . S
N1058 H1065 0.984 . S
N1059 C1052 1.356 . S
N1059 H1062 0.984 . S
N1059 H1063 0.985 . S
H1060 N1055 0.984 . S
H1061 N1055 0.985 . S
H1062 N1059 0.984 . S
H1063 N1059 0.985 . S
H1064 N1058 0.984 . S
H1065 N1058 0.984 . S
H1066 N1054 0.984 . S
H1067 N1054 0.985 . S
C1068 C1069 1.363 . S
C1068 C1074 1.379 . S
C1068 N1076 1.356 . S
C1069 C1068 1.363 . S
C1069 C1075 1.363 . S
C1070 C1071 1.363 . S
C1070 C1075 1.379 . S
C1070 N1077 1.356 . S
C1071 C1070 1.363 . S
C1071 C1074 1.363 . S
N1072 C1074 1.356 . S
N1072 H1084 0.984 . S
N1072 H1085 0.985 . S
N1073 C1075 1.356 . S
N1073 H1078 0.984 . S
N1073 H1079 0.985 . S
C1074 C1068 1.379 . S
C1074 C1071 1.363 . S
C1074 N1072 1.356 . S
C1075 C1069 1.363 . S
C1075 C1070 1.379 . S
C1075 N1073 1.356 . S
N1076 C1068 1.356 . S
N1076 H1082 0.984 . S
N1076 H1083 0.984 . S
N1077 C1070 1.356 . S
N1077 H1080 0.984 . S
N1077 H1081 0.985 . S
H1078 N1073 0.984 . S
H1079 N1073 0.985 . S
H1080 N1077 0.984 . S
H1081 N1077 0.985 . S
H1082 N1076 0.984 . S
H1083 N1076 0.984 . S
H1084 N1072 0.984 . S
H1085 N1072 0.985 . S
C1086 C1087 1.363 . S
C1086 C1092 1.379 . S
C1086 N1094 1.356 . S
C1087 C1086 1.363 . S
C1087 C1093 1.363 . S
C1088 C1089 1.363 . S
C1088 C1093 1.379 . S
C1088 N1095 1.356 . S
C1089 C1088 1.363 . S
C1089 C1092 1.363 . S
N1090 C1092 1.356 . S
N1090 H1102 0.984 . S
N1090 H1103 0.985 . S
N1091 C1093 1.356 . S
N1091 H1096 0.984 . S
N1091 H1097 0.985 . S
C1092 C1086 1.379 . S
C1092 C1089 1.363 . S
C1092 N1090 1.356 . S
C1093 C1087 1.363 . S
C1093 C1088 1.379 . S
C1093 N1091 1.356 . S
N1094 C1086 1.356 . S
N1094 H1100 0.984 . S
N1094 H1101 0.984 . S
N1095 C1088 1.356 . S
N1095 H1098 0.984 . S
N1095 H1099 0.985 . S
H1096 N1091 0.984 . S
H1097 N1091 0.985 . S
H1098 N1095 0.984 . S
H1099 N1095 0.985 . S
H1100 N1094 0.984 . S
H1101 N1094 0.984 . S
H1102 N1090 0.984 . S
H1103 N1090 0.985 . S
C1104 C1105 1.363 . S
C1104 C1110 1.379 . S
C1104 N1112 1.356 . S
C1105 C1104 1.363 . S
C1105 C1111 1.363 . S
C1106 C1107 1.363 . S
C1106 C1111 1.379 . S
C1106 N1113 1.356 . S
C1107 C1106 1.363 . S
C1107 C1110 1.363 . S
N1108 C1110 1.356 . S
N1108 H1120 0.984 . S
N1108 H1121 0.985 . S
N1109 C1111 1.356 . S
N1109 H1114 0.984 . S
N1109 H1115 0.985 . S
C1110 C1104 1.379 . S
C1110 C1107 1.363 . S
C1110 N1108 1.356 . S
C1111 C1105 1.363 . S
C1111 C1106 1.379 . S
C1111 N1109 1.356 . S
N1112 C1104 1.356 . S
N1112 H1118 0.984 . S
N1112 H1119 0.984 . S
N1113 C1106 1.356 . S
N1113 H1116 0.984 . S
N1113 H1117 0.985 . S
H1114 N1109 0.984 . S
H1115 N1109 0.985 . S
H1116 N1113 0.984 . S
H1117 N1113 0.985 . S
H1118 N1112 0.984 . S
H1119 N1112 0.984 . S
H1120 N1108 0.984 . S
H1121 N1108 0.985 . S
C1122 C1123 1.363 . S
C1122 C1128 1.379 . S
C1122 N1130 1.356 . S
C1123 C1122 1.363 . S
C1123 C1129 1.363 . S
C1124 C1125 1.363 . S
C1124 C1129 1.379 . S
C1124 N1131 1.356 . S
C1125 C1124 1.363 . S
C1125 C1128 1.363 . S
N1126 C1128 1.356 . S
N1126 H1138 0.984 . S
N1126 H1139 0.985 . S
N1127 C1129 1.356 . S
N1127 H1132 0.984 . S
N1127 H1133 0.985 . S
C1128 C1122 1.379 . S
C1128 C1125 1.363 . S
C1128 N1126 1.356 . S
C1129 C1123 1.363 . S
C1129 C1124 1.379 . S
C1129 N1127 1.356 . S
N1130 C1122 1.356 . S
N1130 H1136 0.984 . S
N1130 H1137 0.984 . S
N1131 C1124 1.356 . S
N1131 H1134 0.984 . S
N1131 H1135 0.985 . S
H1132 N1127 0.984 . S
H1133 N1127 0.985 . S
H1134 N1131 0.984 . S
H1135 N1131 0.985 . S
H1136 N1130 0.984 . S
H1137 N1130 0.984 . S
H1138 N1126 0.984 . S
H1139 N1126 0.985 . S
C1140 C1141 1.363 . S
C1140 C1146 1.379 . S
C1140 N1148 1.356 . S
C1141 C1140 1.363 . S
C1141 C1147 1.363 . S
C1142 C1143 1.363 . S
C1142 C1147 1.379 . S
C1142 N1149 1.356 . S
C1143 C1142 1.363 . S
C1143 C1146 1.363 . S
N1144 C1146 1.356 . S
N1144 H1156 0.984 . S
N1144 H1157 0.985 . S
N1145 C1147 1.356 . S
N1145 H1150 0.984 . S
N1145 H1151 0.985 . S
C1146 C1140 1.379 . S
C1146 C1143 1.363 . S
C1146 N1144 1.356 . S
C1147 C1141 1.363 . S
C1147 C1142 1.379 . S
C1147 N1145 1.356 . S
N1148 C1140 1.356 . S
N1148 H1154 0.984 . S
N1148 H1155 0.984 . S
N1149 C1142 1.356 . S
N1149 H1152 0.984 . S
N1149 H1153 0.985 . S
H1150 N1145 0.984 . S
H1151 N1145 0.985 . S
H1152 N1149 0.984 . S
H1153 N1149 0.985 . S
H1154 N1148 0.984 . S
H1155 N1148 0.984 . S
H1156 N1144 0.984 . S
H1157 N1144 0.985 . S
C1158 C1159 1.363 . S
C1158 C1164 1.379 . S
C1158 N1166 1.356 . S
C1159 C1158 1.363 . S
C1159 C1165 1.363 . S
C1160 C1161 1.363 . S
C1160 C1165 1.379 . S
C1160 N1167 1.356 . S
C1161 C1160 1.363 . S
C1161 C1164 1.363 . S
N1162 C1164 1.356 . S
N1162 H1174 0.984 . S
N1162 H1175 0.985 . S
N1163 C1165 1.356 . S
N1163 H1168 0.984 . S
N1163 H1169 0.985 . S
C1164 C1158 1.379 . S
C1164 C1161 1.363 . S
C1164 N1162 1.356 . S
C1165 C1159 1.363 . S
C1165 C1160 1.379 . S
C1165 N1163 1.356 . S
N1166 C1158 1.356 . S
N1166 H1172 0.984 . S
N1166 H1173 0.984 . S
N1167 C1160 1.356 . S
N1167 H1170 0.984 . S
N1167 H1171 0.985 . S
H1168 N1163 0.984 . S
H1169 N1163 0.985 . S
H1170 N1167 0.984 . S
H1171 N1167 0.985 . S
H1172 N1166 0.984 . S
H1173 N1166 0.984 . S
H1174 N1162 0.984 . S
H1175 N1162 0.985 . S
C1176 C1177 1.363 . S
C1176 C1182 1.379 . S
C1176 N1184 1.356 . S
C1177 C1176 1.363 . S
C1177 C1183 1.363 . S
C1178 C1179 1.363 . S
C1178 C1183 1.379 . S
C1178 N1185 1.356 . S
C1179 C1178 1.363 . S
C1179 C1182 1.363 . S
N1180 C1182 1.356 . S
N1180 H1192 0.984 . S
N1180 H1193 0.985 . S
N1181 C1183 1.356 . S
N1181 H1186 0.984 . S
N1181 H1187 0.985 . S
C1182 C1176 1.379 . S
C1182 C1179 1.363 . S
C1182 N1180 1.356 . S
C1183 C1177 1.363 . S
C1183 C1178 1.379 . S
C1183 N1181 1.356 . S
N1184 C1176 1.356 . S
N1184 H1190 0.984 . S
N1184 H1191 0.984 . S
N1185 C1178 1.356 . S
N1185 H1188 0.984 . S
N1185 H1189 0.985 . S
H1186 N1181 0.984 . S
H1187 N1181 0.985 . S
H1188 N1185 0.984 . S
H1189 N1185 0.985 . S
H1190 N1184 0.984 . S
H1191 N1184 0.984 . S
H1192 N1180 0.984 . S
H1193 N1180 0.985 . S
C1194 C1195 1.363 . S
C1194 C1200 1.379 . S
C1194 N1202 1.356 . S
C1195 C1194 1.363 . S
C1195 C1201 1.363 . S
C1196 C1197 1.363 . S
C1196 C1201 1.379 . S
C1196 N1203 1.356 . S
C1197 C1196 1.363 . S
C1197 C1200 1.363 . S
N1198 C1200 1.356 . S
N1198 H1210 0.984 . S
N1198 H1211 0.985 . S
N1199 C1201 1.356 . S
N1199 H1204 0.984 . S
N1199 H1205 0.985 . S
C1200 C1194 1.379 . S
C1200 C1197 1.363 . S
C1200 N1198 1.356 . S
C1201 C1195 1.363 . S
C1201 C1196 1.379 . S
C1201 N1199 1.356 . S
N1202 C1194 1.356 . S
N1202 H1208 0.984 . S
N1202 H1209 0.984 . S
N1203 C1196 1.356 . S
N1203 H1206 0.984 . S
N1203 H1207 0.985 . S
H1204 N1199 0.984 . S
H1205 N1199 0.985 . S
H1206 N1203 0.984 . S
H1207 N1203 0.985 . S
H1208 N1202 0.984 . S
H1209 N1202 0.984 . S
H1210 N1198 0.984 . S
H1211 N1198 0.985 . S
C1212 C1213 1.363 . S
C1212 C1218 1.379 . S
C1212 N1220 1.356 . S
C1213 C1212 1.363 . S
C1213 C1219 1.363 . S
C1214 C1215 1.363 . S
C1214 C1219 1.379 . S
C1214 N1221 1.356 . S
C1215 C1214 1.363 . S
C1215 C1218 1.363 . S
N1216 C1218 1.356 . S
N1216 H1228 0.984 . S
N1216 H1229 0.985 . S
N1217 C1219 1.356 . S
N1217 H1222 0.984 . S
N1217 H1223 0.985 . S
C1218 C1212 1.379 . S
C1218 C1215 1.363 . S
C1218 N1216 1.356 . S
C1219 C1213 1.363 . S
C1219 C1214 1.379 . S
C1219 N1217 1.356 . S
N1220 C1212 1.356 . S
N1220 H1226 0.984 . S
N1220 H1227 0.984 . S
N1221 C1214 1.356 . S
N1221 H1224 0.984 . S
N1221 H1225 0.985 . S
H1222 N1217 0.984 . S
H1223 N1217 0.985 . S
H1224 N1221 0.984 . S
H1225 N1221 0.985 . S
H1226 N1220 0.984 . S
H1227 N1220 0.984 . S
H1228 N1216 0.984 . S
H1229 N1216 0.985 . S
C1230 C1231 1.363 . S
C1230 C1236 1.379 . S
C1230 N1238 1.356 . S
C1231 C1230 1.363 . S
C1231 C1237 1.363 . S
C1232 C1233 1.363 . S
C1232 C1237 1.379 . S
C1232 N1239 1.356 . S
C1233 C1232 1.363 . S
C1233 C1236 1.363 . S
N1234 C1236 1.356 . S
N1234 H1246 0.984 . S
N1234 H1247 0.985 . S
N1235 C1237 1.356 . S
N1235 H1240 0.984 . S
N1235 H1241 0.985 . S
C1236 C1230 1.379 . S
C1236 C1233 1.363 . S
C1236 N1234 1.356 . S
C1237 C1231 1.363 . S
C1237 C1232 1.379 . S
C1237 N1235 1.356 . S
N1238 C1230 1.356 . S
N1238 H1244 0.984 . S
N1238 H1245 0.984 . S
N1239 C1232 1.356 . S
N1239 H1242 0.984 . S
N1239 H1243 0.985 . S
H1240 N1235 0.984 . S
H1241 N1235 0.985 . S
H1242 N1239 0.984 . S
H1243 N1239 0.985 . S
H1244 N1238 0.984 . S
H1245 N1238 0.984 . S
H1246 N1234 0.984 . S
H1247 N1234 0.985 . S
C529 C8 2.248 . S
C531 C74 2.248 . S
C547 C107 2.248 . S
C549 C41 2.248 . S
C565 C206 2.248 . S
C567 C140 2.248 . S
C583 C173 2.248 . S
C585 C239 2.248 . S
C601 C338 2.248 . S
C603 C272 2.248 . S
C619 C305 2.248 . S
C621 C371 2.248 . S
C637 C470 2.248 . S
C639 C404 2.248 . S
C655 C437 2.248 . S
C657 C503 2.248 . S
C673 C17 1.577 . S
C675 C347 1.577 . S
C691 C380 1.577 . S
C693 C50 1.577 . S
C709 C281 1.577 . S
C711 C83 1.577 . S
C727 C314 1.577 . S
C729 C116 1.577 . S
C745 C479 1.577 . S
C747 C149 1.577 . S
C763 C512 1.577 . S
C765 C182 1.577 . S
C781 C413 1.577 . S
C783 C215 1.577 . S
C799 C446 1.577 . S
C801 C248 1.577 . S
C817 C28 1.237 . S
C819 C259 1.237 . S
C835 C61 1.237 . S
C837 C160 1.237 . S
C853 C193 1.237 . S
C855 C94 1.237 . S
C871 C226 1.237 . S
C873 C127 1.237 . S
C889 C292 1.237 . S
C891 C523 1.237 . S
C907 C325 1.237 . S
C909 C424 1.237 . S
C925 C358 1.237 . S
C927 C457 1.237 . S
C943 C391 1.237 . S
C945 C490 1.237 . S
C961 N476 1.093 . S
C963 N5 1.152 . S
C979 N38 1.152 . S
C981 N509 1.093 . S
C997 N410 1.093 . S
C999 N71 1.152 . S
C1015 N443 1.093 . S
C1017 N104 1.152 . S
C1033 N344 1.093 . S
C1035 N137 1.152 . S
C1051 N170 1.152 . S
C1053 N377 1.093 . S
C1069 N278 1.093 . S
C1071 N203 1.152 . S
C1087 N236 1.152 . S
C1089 N311 1.093 . S
C1105 N212 1.093 . S
C1107 N269 1.152 . S
C1123 N245 1.093 . S
C1125 N302 1.152 . S
C1141 N146 1.093 . S
C1143 N335 1.152 . S
C1159 N368 1.152 . S
C1161 N179 1.093 . S
C1177 N80 1.093 . S
C1179 N401 1.152 . S
C1195 N434 1.152 . S
C1197 N113 1.093 . S
C1213 N467 1.152 . S
C1215 N14 1.093 . S
C1231 N47 1.093 . S
C1233 N500 1.152 . S
