# Generated by pormake.
# Topology snk, (6)-cn, num edge types: 1
# Building blocks:
#     Node 0, Type 0, BuildingBlock: CIFDUS_clean_sbu_1, # of connection points: 6
#     Node 1, Type 0, BuildingBlock: CIFDUS_clean_sbu_1, # of connection points: 6
#     Node 2, Type 0, BuildingBlock: CIFDUS_clean_sbu_1, # of connection points: 6
#     Node 3, Type 0, BuildingBlock: CIFDUS_clean_sbu_1, # of connection points: 6
#     Node 4, Type 0, BuildingBlock: CIFDUS_clean_sbu_1, # of connection points: 6
#     Node 5, Type 0, BuildingBlock: CIFDUS_clean_sbu_1, # of connection points: 6
#     Node 6, Type 0, BuildingBlock: CIFDUS_clean_sbu_1, # of connection points: 6
#     Node 7, Type 0, BuildingBlock: CIFDUS_clean_sbu_1, # of connection points: 6
#     Edge 8, Type (0, 0), BuildingBlock: UVAHIK_clean_linker_0, # of connection points: 2
#     Edge 9, Type (0, 0), BuildingBlock: UVAHIK_clean_linker_0, # of connection points: 2
#     Edge 10, Type (0, 0), BuildingBlock: UVAHIK_clean_linker_0, # of connection points: 2
#     Edge 11, Type (0, 0), BuildingBlock: UVAHIK_clean_linker_0, # of connection points: 2
#     Edge 12, Type (0, 0), BuildingBlock: UVAHIK_clean_linker_0, # of connection points: 2
#     Edge 13, Type (0, 0), BuildingBlock: UVAHIK_clean_linker_0, # of connection points: 2
#     Edge 14, Type (0, 0), BuildingBlock: UVAHIK_clean_linker_0, # of connection points: 2
#     Edge 15, Type (0, 0), BuildingBlock: UVAHIK_clean_linker_0, # of connection points: 2
#     Edge 16, Type (0, 0), BuildingBlock: UVAHIK_clean_linker_0, # of connection points: 2
#     Edge 17, Type (0, 0), BuildingBlock: UVAHIK_clean_linker_0, # of connection points: 2
#     Edge 18, Type (0, 0), BuildingBlock: UVAHIK_clean_linker_0, # of connection points: 2
#     Edge 19, Type (0, 0), BuildingBlock: UVAHIK_clean_linker_0, # of connection points: 2
#     Edge 20, Type (0, 0), BuildingBlock: UVAHIK_clean_linker_0, # of connection points: 2
#     Edge 21, Type (0, 0), BuildingBlock: UVAHIK_clean_linker_0, # of connection points: 2
#     Edge 22, Type (0, 0), BuildingBlock: UVAHIK_clean_linker_0, # of connection points: 2
#     Edge 23, Type (0, 0), BuildingBlock: UVAHIK_clean_linker_0, # of connection points: 2
#     Edge 24, Type (0, 0), BuildingBlock: UVAHIK_clean_linker_0, # of connection points: 2
#     Edge 25, Type (0, 0), BuildingBlock: UVAHIK_clean_linker_0, # of connection points: 2
#     Edge 26, Type (0, 0), BuildingBlock: UVAHIK_clean_linker_0, # of connection points: 2
#     Edge 27, Type (0, 0), BuildingBlock: UVAHIK_clean_linker_0, # of connection points: 2
#     Edge 28, Type (0, 0), BuildingBlock: UVAHIK_clean_linker_0, # of connection points: 2
#     Edge 29, Type (0, 0), BuildingBlock: UVAHIK_clean_linker_0, # of connection points: 2
#     Edge 30, Type (0, 0), BuildingBlock: UVAHIK_clean_linker_0, # of connection points: 2
#     Edge 31, Type (0, 0), BuildingBlock: UVAHIK_clean_linker_0, # of connection points: 2
# Relax obj value: 0.031
# Max RMSD: 0.087
# Mean RMSD: 0.083
data_MOF--net-snk--node1-CIFDUS_clean_sbu_1--edge1-UVAHIK_clean_linker_0
_symmetry_space_group_name_H-M    P1
_symmetry_Int_Tables_number       1
_symmetry_cell_setting            triclinic
loop_
_symmetry_equiv_pos_as_xyz
'x, y, z'
_cell_length_a     54.80302
_cell_length_b     54.698588
_cell_length_c     20.242005
_cell_angle_alpha  90.548414
_cell_angle_beta   90.053984
_cell_angle_gamma 89.584396
loop_
_atom_site_label
_atom_site_type_symbol
_atom_site_fract_x
_atom_site_fract_y
_atom_site_fract_z
_atom_type_partial_charge
O0 O 0.98581 0.97446 0.52293 0.0
Mn1 Mn 0.00557 0.00673 0.50867 0.0
O2 O 0.94909 0.98559 0.56291 0.0
Mn3 Mn 0.9568 0.01808 0.57535 0.0
O4 O 0.02529 0.03918 0.49485 0.0
O5 O 0.03633 0.98509 0.5087 0.0
Mn6 Mn 0.05509 0.99646 0.44511 0.0
O7 O 1.00153 1.00292 0.40562 0.0
O8 O 0.06339 0.02818 0.46628 0.0
O9 O 0.00983 0.01064 0.61196 0.0
O10 O 0.9741 0.02493 0.65128 0.0
O11 O 0.07244 0.971 0.47897 0.0
O12 O 0.03851 0.99215 0.36636 0.0
C13 C 0.957 0.04371 0.49831 0.0
C14 C 0.96424 0.96941 0.54314 0.0
C15 C 0.04762 0.04433 0.48207 0.0
C16 C 0.05368 0.96892 0.51726 0.0
C17 C 0.0159 0.99664 0.35802 0.0
C18 C 0.99636 0.01899 0.65931 0.0
O19 O 0.97463 0.02797 0.50807 0.0
O20 O 0.93858 0.04221 0.53808 0.0
O21 O 0.28656 0.73487 0.76727 0.0
Mn22 Mn 0.25363 0.75548 0.75933 0.0
O23 O 0.27615 0.69748 0.80082 0.0
Mn24 Mn 0.24443 0.70628 0.81906 0.0
O25 O 0.2205 0.77607 0.75114 0.0
O26 O 0.27592 0.78592 0.76153 0.0
Mn27 Mn 0.26132 0.80595 0.70529 0.0
O28 O 0.25616 0.75309 0.65599 0.0
O29 O 0.23104 0.81496 0.73609 0.0
O30 O 0.2508 0.75846 0.8633 0.0
O31 O 0.23887 0.72172 0.89853 0.0
O32 O 0.28734 0.82322 0.73301 0.0
O33 O 0.26251 0.79159 0.62243 0.0
C34 C 0.21706 0.70595 0.74784 0.0
C35 C 0.29202 0.71261 0.78188 0.0
C36 C 0.21502 0.79899 0.74725 0.0
C37 C 0.29172 0.80377 0.76718 0.0
C38 C 0.25984 0.76888 0.61046 0.0
C39 C 0.24358 0.74408 0.90922 0.0
O40 O 0.23197 0.72452 0.75499 0.0
O41 O 0.22046 0.68745 0.78637 0.0
O42 O 0.5236 0.97234 0.98237 0.0
Mn43 Mn 0.50392 0.00583 0.99226 0.0
O44 O 0.56039 0.98158 0.94323 0.0
Mn45 Mn 0.55133 0.01319 0.92592 0.0
O46 O 0.48382 0.03908 0.00337 0.0
O47 O 0.47301 0.98419 0.99208 0.0
Mn48 Mn 0.45451 0.99764 0.05449 0.0
O49 O 0.50778 1.00335 0.09559 0.0
O50 O 0.44571 0.02889 0.03122 0.0
O51 O 0.49911 0.00847 0.88911 0.0
O52 O 0.53537 0.01872 0.8478 0.0
O53 O 0.43629 0.97249 0.0245 0.0
O54 O 0.47048 0.99421 0.13402 0.0
C55 C 0.5551 0.0415 0.99267 0.0
C56 C 0.5454 0.96621 0.96514 0.0
C57 C 0.46131 0.04471 0.01489 0.0
C58 C 0.45489 0.96871 0.98623 0.0
C59 C 0.49313 0.99798 0.14289 0.0
C60 C 0.51275 0.01492 0.84084 0.0
O61 O 0.53532 0.02773 0.99256 0.0
O62 O 0.57231 0.0361 0.951 0.0
O63 O 0.28658 0.27483 0.22864 0.0
Mn64 Mn 0.25425 0.25491 0.24121 0.0
O65 O 0.27568 0.31162 0.1887 0.0
Mn66 Mn 0.24349 0.30382 0.17305 0.0
O67 O 0.22152 0.23522 0.25367 0.0
O68 O 0.27573 0.22445 0.24513 0.0
Mn69 Mn 0.26146 0.20425 0.30024 0.0
O70 O 0.25639 0.259 0.34368 0.0
O71 O 0.23191 0.19591 0.26336 0.0
O72 O 0.25201 0.25026 0.13822 0.0
O73 O 0.23853 0.28594 0.09667 0.0
O74 O 0.28943 0.18843 0.27458 0.0
O75 O 0.2591 0.22033 0.38123 0.0
C76 C 0.21752 0.30306 0.25046 0.0
C77 C 0.2917 0.29648 0.20887 0.0
C78 C 0.21585 0.21246 0.25592 0.0
C79 C 0.29262 0.20775 0.23926 0.0
C80 C 0.25708 0.24336 0.39066 0.0
C81 C 0.24483 0.26363 0.08992 0.0
O82 O 0.23343 0.28578 0.23929 0.0
O83 O 0.21856 0.32142 0.21067 0.0
O84 O 0.78749 0.23602 0.27101 0.0
Mn85 Mn 0.75442 0.25636 0.26135 0.0
O86 O 0.77718 0.19802 0.29975 0.0
Mn87 Mn 0.74561 0.20673 0.3202 0.0
O88 O 0.72122 0.27648 0.25149 0.0
O89 O 0.77609 0.28736 0.26487 0.0
Mn90 Mn 0.76254 0.30613 0.20348 0.0
O91 O 0.7575 0.25348 0.15781 0.0
O92 O 0.731 0.31474 0.22465 0.0
O93 O 0.75111 0.25932 0.36502 0.0
O94 O 0.74066 0.22206 0.40032 0.0
O95 O 0.78702 0.32471 0.23468 0.0
O96 O 0.76673 0.29107 0.12249 0.0
C97 C 0.71794 0.2069 0.24956 0.0
C98 C 0.79303 0.21354 0.28307 0.0
C99 C 0.71532 0.29889 0.24004 0.0
C100 C 0.79121 0.30583 0.27123 0.0
C101 C 0.76301 0.26847 0.11165 0.0
C102 C 0.74467 0.2446 0.41099 0.0
O103 O 0.73296 0.22533 0.25727 0.0
O104 O 0.72129 0.18825 0.28757 0.0
O105 O 0.7845 0.77917 0.72651 0.0
Mn106 Mn 0.75449 0.75661 0.74204 0.0
O107 O 0.77077 0.81077 0.66587 0.0
Mn108 Mn 0.73861 0.80066 0.6596 0.0
O109 O 0.72454 0.73383 0.75851 0.0
O110 O 0.77831 0.72816 0.75079 0.0
Mn111 Mn 0.77143 0.71302 0.82484 0.0
O112 O 0.75534 0.76467 0.84447 0.0
O113 O 0.73953 0.70236 0.81791 0.0
O114 O 0.75332 0.74851 0.63947 0.0
O115 O 0.73262 0.7791 0.59138 0.0
O116 O 0.79697 0.69572 0.78916 0.0
O117 O 0.77669 0.73474 0.89324 0.0
C118 C 0.71432 0.80217 0.74104 0.0
C119 C 0.78783 0.79915 0.69504 0.0
C120 C 0.72194 0.71369 0.79003 0.0
C121 C 0.79546 0.71185 0.74291 0.0
C122 C 0.76578 0.75527 0.89536 0.0
C123 C 0.74274 0.75817 0.58904 0.0
O124 O 0.73114 0.7855 0.7335 0.0
O125 O 0.71345 0.81851 0.69522 0.0
O126 O 0.48293 0.47639 0.02489 0.0
Mn127 Mn 0.50473 0.50715 0.0096 0.0
O128 O 0.4506 0.48974 0.08428 0.0
Mn129 Mn 0.46017 0.52206 0.09193 0.0
O130 O 0.52629 0.53801 -0.00568 0.0
O131 O 0.53417 0.48418 0.00101 0.0
Mn132 Mn 0.55008 0.49289 0.92917 0.0
O133 O 0.49719 0.50558 0.90706 0.0
O134 O 0.56005 0.52491 0.94091 0.0
O135 O 0.51252 0.5088 0.11211 0.0
O136 O 0.48117 0.52841 0.16073 0.0
O137 O 0.56789 0.46752 0.96256 0.0
O138 O 0.52965 0.48782 0.85821 0.0
C139 C 0.4584 0.54671 0.01209 0.0
C140 C 0.46273 0.47277 0.05548 0.0
C141 C 0.54715 0.54177 0.9675 0.0
C142 C 0.55119 0.46762 0.00777 0.0
C143 C 0.50812 0.49652 0.85599 0.0
C144 C 0.50241 0.51905 0.16278 0.0
O145 O 0.47534 0.53006 0.01832 0.0
O146 O 0.44197 0.54705 0.05803 0.0
O147 O 0.02995 0.47684 0.48339 0.0
Mn148 Mn 0.00658 0.50714 0.4938 0.0
O149 O 0.05899 0.48822 0.41232 0.0
Mn150 Mn 0.05076 0.52114 0.40887 0.0
O151 O 0.98255 0.53761 0.50455 0.0
O152 O 0.97855 0.48201 0.50402 0.0
Mn153 Mn 0.96307 0.49308 0.57528 0.0
O154 O 0.01472 0.50808 0.59597 0.0
O155 O 0.94978 0.52331 0.55781 0.0
O156 O 0.9993 0.50696 0.39031 0.0
O157 O 0.02909 0.52903 0.3432 0.0
O158 O 0.94581 0.46644 0.55248 0.0
O159 O 0.98315 0.49096 0.6476 0.0
C160 C 0.05468 0.54193 0.49855 0.0
C161 C 0.04884 0.47225 0.44792 0.0
C162 C 0.96091 0.54042 0.52867 0.0
C163 C 0.96169 0.46499 0.50523 0.0
C164 C 0.00444 0.49982 0.64819 0.0
C165 C 0.00847 0.51847 0.34063 0.0
O166 O 0.03461 0.53118 0.48007 0.0
O167 O 0.07151 0.54141 0.4538 0.0
C168 C 0.07518 0.07807 0.5141 0.0
C169 C 0.05539 0.06987 0.47634 0.0
C170 C 0.08812 0.09877 0.49518 0.0
C171 C 0.09092 0.14953 0.37117 0.0
H172 H 0.16047 0.13924 0.39478 0.0
C173 C 0.1748 0.19429 0.23169 0.0
C174 C 0.19109 0.20553 0.27589 0.0
C175 C 0.15443 0.18169 0.25583 0.0
C176 C 0.14107 0.14237 0.38801 0.0
H177 H 0.03265 0.0773 0.39144 0.0
H178 H 0.05566 0.11302 0.35669 0.0
H179 H 0.13199 0.11041 0.44161 0.0
H180 H 0.19907 0.21263 0.37877 0.0
H181 H 0.16408 0.19029 0.42088 0.0
H182 H 0.10071 0.18115 0.31457 0.0
C183 C 0.06093 0.10406 0.40202 0.0
C184 C 0.12464 0.12602 0.41558 0.0
C185 C 0.04762 0.08363 0.422 0.0
C186 C 0.1863 0.20478 0.34388 0.0
C187 C 0.16644 0.19183 0.36793 0.0
C188 C 0.10752 0.16575 0.34252 0.0
C189 C 0.08209 0.11119 0.43661 0.0
C190 C 0.09928 0.12944 0.40831 0.0
C191 C 0.15069 0.17966 0.32432 0.0
C192 C 0.13271 0.16235 0.35129 0.0
H193 H 0.08158 0.06758 0.55591 0.0
H194 H 0.10373 0.10417 0.52458 0.0
H195 H 0.07158 0.15287 0.36464 0.0
H196 H 0.17854 0.1941 0.17916 0.0
H197 H 0.14262 0.17217 0.2214 0.0
C198 C 0.06396 0.94993 0.62458 0.0
C199 C 0.05304 0.94781 0.56204 0.0
C200 C 0.07469 0.92946 0.65478 0.0
C201 C 0.10496 0.87196 0.60163 0.0
H202 H 0.11382 0.86197 0.78941 0.0
C203 C 0.17303 0.79896 0.69793 0.0
C204 C 0.18936 0.80781 0.74591 0.0
C205 C 0.15178 0.81229 0.68219 0.0
C206 C 0.11156 0.86449 0.73675 0.0
H207 H 0.04341 0.92236 0.48411 0.0
H208 H 0.06121 0.88657 0.5374 0.0
H209 H 0.08397 0.89212 0.75095 0.0
H210 H 0.19561 0.83679 0.8173 0.0
H211 H 0.15837 0.85947 0.79185 0.0
H212 H 0.13301 0.84493 0.58733 0.0
C213 C 0.06186 0.90401 0.5631 0.0
C214 C 0.09443 0.88183 0.71468 0.0
C215 C 0.05112 0.92444 0.53316 0.0
C216 C 0.18314 0.82928 0.78094 0.0
C217 C 0.16178 0.84235 0.76607 0.0
C218 C 0.12203 0.85462 0.62368 0.0
C219 C 0.07495 0.90646 0.62267 0.0
C220 C 0.09113 0.88611 0.64677 0.0
C221 C 0.14625 0.83458 0.71475 0.0
C222 C 0.1259 0.8509 0.69159 0.0
H223 H 0.06642 0.96782 0.64698 0.0
H224 H 0.08463 0.9322 0.70047 0.0
H225 H 0.10343 0.87499 0.549 0.0
H226 H 0.17763 0.7828 0.66904 0.0
H227 H 0.14017 0.80561 0.64275 0.0
C228 C 0.33655 0.80108 0.76521 0.0
C229 C 0.31512 0.80293 0.8032 0.0
C230 C 0.35792 0.81315 0.78493 0.0
C231 C 0.38634 0.85029 0.92204 0.0
H232 H 0.41462 0.88631 0.77721 0.0
C233 C 0.45862 0.92394 0.97459 0.0
C234 C 0.45435 0.94653 0.94402 0.0
C235 C 0.44687 0.90268 0.95222 0.0
C236 C 0.40701 0.87641 0.81833 0.0
H237 H 0.3 0.81717 0.89425 0.0
H238 H 0.33718 0.83756 0.92997 0.0
H239 H 0.3844 0.85485 0.75444 0.0
H240 H 0.43542 0.96417 0.86365 0.0
H241 H 0.41555 0.92716 0.82304 0.0
H242 H 0.40799 0.8727 0.98614 0.0
C243 C 0.33774 0.82683 0.88479 0.0
C244 C 0.38982 0.85805 0.80523 0.0
C245 C 0.31638 0.81478 0.86487 0.0
C246 C 0.43981 0.94691 0.88683 0.0
C247 C 0.42809 0.92563 0.86417 0.0
C248 C 0.40354 0.86862 0.93512 0.0
C249 C 0.35839 0.82741 0.84325 0.0
C250 C 0.37889 0.84492 0.85697 0.0
C251 C 0.43043 0.90346 0.89868 0.0
C252 C 0.41393 0.88224 0.88358 0.0
H253 H 0.336 0.79263 0.71658 0.0
H254 H 0.37355 0.81258 0.75225 0.0
H255 H 0.37858 0.84058 0.96327 0.0
H256 H 0.46905 0.92317 0.02005 0.0
H257 H 0.44955 0.88593 0.97945 0.0
C258 C 0.43105 0.07648 0.98246 0.0
C259 C 0.45266 0.07041 0.01615 0.0
C260 C 0.41834 0.09814 -0.00275 0.0
C261 C 0.40711 0.13921 0.13804 0.0
H262 H 0.37137 0.17792 0.01037 0.0
C263 C 0.33738 0.20996 0.23014 0.0
C264 C 0.31467 0.20918 0.19806 0.0
C265 C 0.35815 0.19953 0.20059 0.0
C266 C 0.38111 0.16728 0.04685 0.0
H267 H 0.47821 0.08253 0.09086 0.0
H268 H 0.45597 0.12054 0.1171 0.0
H269 H 0.4004 0.14679 0.97227 0.0
H270 H 0.29621 0.19867 0.10806 0.0
H271 H 0.33215 0.18047 0.05614 0.0
H272 H 0.38706 0.15855 0.21261 0.0
C273 C 0.44898 0.1086 0.07862 0.0
C274 C 0.39785 0.14944 0.0249 0.0
C275 C 0.46195 0.08705 0.06292 0.0
C276 C 0.31362 0.20006 0.13318 0.0
C277 C 0.33432 0.18936 0.10374 0.0
C278 C 0.39023 0.15685 0.15999 0.0
C279 C 0.42664 0.11409 0.0472 0.0
C280 C 0.41085 0.13493 0.07018 0.0
C281 C 0.35656 0.18764 0.13867 0.0
C282 C 0.37668 0.17098 0.11477 0.0
H283 H 0.42322 0.06372 0.94722 0.0
H284 H 0.40113 0.10154 0.97253 0.0
H285 H 0.41639 0.12809 0.1744 0.0
H286 H 0.3386 0.21648 0.28077 0.0
H287 H 0.37504 0.19933 0.22838 0.0
C288 C 0.94634 0.92958 0.50714 0.0
C289 C 0.95752 0.944 0.55595 0.0
C290 C 0.93366 0.90845 0.52494 0.0
C291 C 0.89729 0.88882 0.66339 0.0
H292 H 0.89412 0.82594 0.57404 0.0
C293 C 0.82592 0.81807 0.73938 0.0
C294 C 0.81268 0.80834 0.68621 0.0
C295 C 0.84776 0.8305 0.72781 0.0
C296 C 0.8948 0.84344 0.59943 0.0
H297 H 0.96558 0.94741 0.66025 0.0
H298 H 0.94362 0.91059 0.69133 0.0
H299 H 0.92554 0.85532 0.54255 0.0
H300 H 0.81207 0.80244 0.58041 0.0
H301 H 0.85018 0.82381 0.56003 0.0
H302 H 0.86604 0.87771 0.71808 0.0
C303 C 0.94458 0.9154 0.6396 0.0
C304 C 0.91277 0.8602 0.58138 0.0
C305 C 0.9573 0.93629 0.6218 0.0
C306 C 0.82212 0.80988 0.62205 0.0
C307 C 0.844 0.82199 0.61053 0.0
C308 C 0.87929 0.87222 0.68105 0.0
C309 C 0.93178 0.90184 0.5918 0.0
C310 C 0.91406 0.88311 0.61296 0.0
C311 C 0.85671 0.83312 0.66298 0.0
C312 C 0.87764 0.84942 0.64889 0.0
H313 H 0.94596 0.93553 0.45626 0.0
H314 H 0.92384 0.89837 0.48717 0.0
H315 H 0.89752 0.90656 0.68764 0.0
H316 H 0.8188 0.81716 0.78919 0.0
H317 H 0.85725 0.83867 0.76934 0.0
C318 C 0.94412 0.06113 0.39128 0.0
C319 C 0.95707 0.06392 0.45074 0.0
C320 C 0.93286 0.08137 0.3614 0.0
C321 C 0.90383 0.13834 0.41692 0.0
H322 H 0.89316 0.15042 0.23079 0.0
C323 C 0.83474 0.21223 0.33312 0.0
C324 C 0.81862 0.20472 0.28308 0.0
C325 C 0.85596 0.19855 0.34659 0.0
C326 C 0.89585 0.14726 0.28301 0.0
H327 H 0.9698 0.09023 0.52304 0.0
H328 H 0.9507 0.12556 0.47058 0.0
H329 H 0.92332 0.11977 0.26472 0.0
H330 H 0.81241 0.17767 0.20645 0.0
H331 H 0.84951 0.15425 0.22828 0.0
H332 H 0.87572 0.16488 0.43558 0.0
C333 C 0.94909 0.10779 0.44692 0.0
C334 C 0.91321 0.12971 0.3024 0.0
C335 C 0.9605 0.08762 0.47625 0.0
C336 C 0.82483 0.18418 0.24429 0.0
C337 C 0.84611 0.1707 0.25713 0.0
C338 C 0.88639 0.15573 0.3976 0.0
C339 C 0.93406 0.10473 0.39112 0.0
C340 C 0.9173 0.12488 0.36963 0.0
C341 C 0.86155 0.17713 0.31003 0.0
C342 C 0.88193 0.16031 0.33032 0.0
H343 H 0.94052 0.043 0.37171 0.0
H344 H 0.92139 0.0783 0.31857 0.0
H345 H 0.90604 0.13473 0.46911 0.0
H346 H 0.83005 0.22759 0.36494 0.0
H347 H 0.86749 0.20424 0.38729 0.0
C348 C 0.67358 0.20773 0.23226 0.0
C349 C 0.69696 0.20577 0.20406 0.0
C350 C 0.65408 0.19393 0.20729 0.0
C351 C 0.64591 0.13471 0.12086 0.0
H352 H 0.57697 0.15115 0.12436 0.0
C353 C 0.56331 0.08556 0.99357 0.0
C354 C 0.55841 0.06449 0.0306 0.0
C355 C 0.57664 0.10494 0.02057 0.0
C356 C 0.59616 0.1463 0.12405 0.0
H357 H 0.7176 0.1896 0.12377 0.0
H358 H 0.68344 0.16645 0.07796 0.0
H359 H 0.60729 0.18268 0.15051 0.0
H360 H 0.5631 0.04771 0.1261 0.0
H361 H 0.58609 0.08218 0.17441 0.0
H362 H 0.63467 0.09838 0.09404 0.0
C363 C 0.68022 0.17814 0.1206 0.0
C364 C 0.61356 0.16434 0.1387 0.0
C365 C 0.69969 0.19196 0.1457 0.0
C366 C 0.5658 0.06401 0.0971 0.0
C367 C 0.57932 0.08352 0.12429 0.0
C368 C 0.62852 0.11667 0.10707 0.0
C369 C 0.65755 0.17779 0.15346 0.0
C370 C 0.63874 0.15889 0.13648 0.0
C371 C 0.5855 0.10378 0.08539 0.0
C372 C 0.60349 0.12229 0.10821 0.0
H373 H 0.67108 0.21762 0.27845 0.0
H374 H 0.63699 0.19424 0.23406 0.0
H375 H 0.66503 0.12958 0.11994 0.0
H376 H 0.5588 0.08605 0.94143 0.0
H377 H 0.58153 0.12009 0.98921 0.0
C378 C 0.70122 0.82009 0.84806 0.0
C379 C 0.69658 0.80385 0.79542 0.0
C380 C 0.68185 0.83163 0.88174 0.0
C381 C 0.62324 0.85619 0.83709 0.0
H382 H 0.61235 0.86941 0.02313 0.0
C383 C 0.54781 0.92409 0.91721 0.0
C384 C 0.55421 0.94066 0.96754 0.0
C385 C 0.56214 0.90312 0.90522 0.0
C386 C 0.6152 0.86609 0.9709 0.0
H387 H 0.66826 0.78566 0.73968 0.0
H388 H 0.63449 0.80552 0.79861 0.0
H389 H 0.64416 0.8402 0.98917 0.0
H390 H 0.57987 0.94795 0.04625 0.0
H391 H 0.60465 0.91154 0.02637 0.0
H392 H 0.59561 0.88292 0.81783 0.0
C393 C 0.65302 0.8093 0.81419 0.0
C394 C 0.63338 0.84923 0.95162 0.0
C395 C 0.67234 0.79761 0.78121 0.0
C396 C 0.57421 0.93512 0.00818 0.0
C397 C 0.5885 0.91422 -0.00359 0.0
C398 C 0.60541 0.87328 0.85617 0.0
C399 C 0.65758 0.82735 0.86241 0.0
C400 C 0.63755 0.8441 0.88446 0.0
C401 C 0.5833 0.89837 0.94305 0.0
C402 C 0.60109 0.8786 0.9234 0.0
H403 H 0.71973 0.82581 0.85854 0.0
H404 H 0.68593 0.84555 0.91844 0.0
H405 H 0.62642 0.85304 0.78486 0.0
H406 H 0.53286 0.92827 0.88402 0.0
H407 H 0.55721 0.8912 0.86441 0.0
C408 C 0.57261 0.57652 0.00559 0.0
C409 C 0.55601 0.5668 0.96004 0.0
C410 C 0.58619 0.59718 0.98951 0.0
C411 C 0.59488 0.64601 0.86277 0.0
H412 H 0.66256 0.63807 0.91463 0.0
C413 C 0.68153 0.69601 0.7552 0.0
C414 C 0.69739 0.70453 0.80468 0.0
C415 C 0.66066 0.68271 0.7726 0.0
C416 C 0.64368 0.64062 0.90006 0.0
H417 H 0.53953 0.57118 0.86376 0.0
H418 H 0.56343 0.60702 0.83489 0.0
H419 H 0.63259 0.60894 0.95212 0.0
H420 H 0.70322 0.70782 0.91018 0.0
H421 H 0.667 0.68499 0.94028 0.0
H422 H 0.6067 0.67749 0.80864 0.0
C423 C 0.56575 0.59925 0.88351 0.0
C424 C 0.6264 0.62405 0.92213 0.0
C425 C 0.55204 0.57874 0.89994 0.0
C426 C 0.6913 0.70122 0.87124 0.0
C427 C 0.67065 0.68813 0.88845 0.0
C428 C 0.61237 0.66255 0.84 0.0
C429 C 0.58376 0.60811 0.92697 0.0
C430 C 0.6017 0.62662 0.90453 0.0
C431 C 0.65565 0.67792 0.83946 0.0
C432 C 0.63687 0.6601 0.85924 0.0
H433 H 0.57611 0.56734 0.05187 0.0
H434 H 0.59945 0.60386 0.02489 0.0
H435 H 0.57602 0.64855 0.8482 0.0
H436 H 0.68605 0.69827 0.70354 0.0
H437 H 0.64935 0.67493 0.73398 0.0
C438 C 0.67976 0.30819 0.16903 0.0
C439 C 0.68954 0.3066 0.23292 0.0
C440 C 0.65883 0.32227 0.15671 0.0
C441 C 0.62324 0.37446 0.23169 0.0
H442 H 0.58489 0.36564 0.07266 0.0
C443 C 0.57234 0.45482 0.10912 0.0
C444 C 0.55377 0.45039 0.06293 0.0
C445 C 0.5837 0.43547 0.14234 0.0
C446 C 0.5949 0.36835 0.11819 0.0
H447 H 0.68468 0.31789 0.33463 0.0
H448 H 0.64714 0.34116 0.3146 0.0
H449 H 0.6129 0.3338 0.10652 0.0
H450 H 0.53147 0.42235 0.01817 0.0
H451 H 0.54992 0.38864 0.07934 0.0
H452 H 0.60445 0.40854 0.2449 0.0
C453 C 0.65591 0.33214 0.27309 0.0
C454 C 0.61156 0.35009 0.13707 0.0
C455 C 0.67718 0.31831 0.28512 0.0
C456 C 0.54528 0.42639 0.05494 0.0
C457 C 0.55642 0.40697 0.08883 0.0
C458 C 0.60619 0.39247 0.21362 0.0
C459 C 0.64688 0.33516 0.20819 0.0
C460 C 0.62661 0.35311 0.19307 0.0
C461 C 0.57673 0.41103 0.13046 0.0
C462 C 0.59222 0.39014 0.15541 0.0
H463 H 0.68938 0.29994 0.12758 0.0
H464 H 0.65311 0.32422 0.10587 0.0
H465 H 0.63441 0.37792 0.2748 0.0
H466 H 0.57979 0.47303 0.11458 0.0
H467 H 0.59931 0.43973 0.17299 0.0
C468 C 0.9433 0.44686 0.4043 0.0
C469 C 0.95914 0.44422 0.45846 0.0
C470 C 0.93 0.42678 0.37986 0.0
C471 C 0.90352 0.37007 0.44515 0.0
H472 H 0.88288 0.35853 0.26455 0.0
C473 C 0.81429 0.31939 0.37 0.0
C474 C 0.81401 0.30611 0.31025 0.0
C475 C 0.8355 0.33151 0.3911 0.0
C476 C 0.88865 0.36124 0.31526 0.0
H477 H 0.97455 0.41809 0.52653 0.0
H478 H 0.95214 0.38304 0.48291 0.0
H479 H 0.91433 0.38889 0.28807 0.0
H480 H 0.83625 0.29393 0.22799 0.0
H481 H 0.87334 0.31443 0.26526 0.0
H482 H 0.87737 0.34292 0.47255 0.0
C483 C 0.9497 0.40061 0.45951 0.0
C484 C 0.90657 0.37887 0.32877 0.0
C485 C 0.96305 0.42062 0.4835 0.0
C486 C 0.83604 0.30339 0.27529 0.0
C487 C 0.85717 0.31569 0.29585 0.0
C488 C 0.88541 0.35266 0.43173 0.0
C489 C 0.93206 0.40364 0.40962 0.0
C490 C 0.91421 0.38365 0.39398 0.0
C491 C 0.85686 0.33093 0.35229 0.0
C492 C 0.87758 0.34805 0.36662 0.0
H493 H 0.93918 0.46491 0.3855 0.0
H494 H 0.91658 0.42992 0.34152 0.0
H495 H 0.90858 0.37345 0.49613 0.0
H496 H 0.79744 0.32257 0.39681 0.0
H497 H 0.83446 0.34307 0.43474 0.0
C498 C 0.80593 0.69298 0.63593 0.0
C499 C 0.81212 0.70963 0.68621 0.0
C500 C 0.82417 0.67986 0.60222 0.0
C501 C 0.88912 0.66986 0.56616 0.0
H502 H 0.87561 0.60305 0.61603 0.0
C503 C 0.95806 0.58655 0.53976 0.0
C504 C 0.94735 0.56393 0.52412 0.0
C505 C 0.94327 0.60747 0.55024 0.0
C506 C 0.87959 0.62149 0.60053 0.0
H507 H 0.84215 0.72741 0.73616 0.0
H508 H 0.8741 0.70519 0.67529 0.0
H509 H 0.84658 0.63525 0.64369 0.0
H510 H 0.91319 0.54593 0.50186 0.0
H511 H 0.88788 0.58199 0.51764 0.0
H512 H 0.92223 0.65578 0.52228 0.0
C513 C 0.85519 0.70222 0.66202 0.0
C514 C 0.8629 0.63997 0.61656 0.0
C515 C 0.83688 0.71515 0.69635 0.0
C516 C 0.92198 0.56305 0.51442 0.0
C517 C 0.90741 0.58373 0.52421 0.0
C518 C 0.90586 0.65114 0.54917 0.0
C519 C 0.84894 0.68334 0.61779 0.0
C520 C 0.86723 0.66429 0.59882 0.0
C521 C 0.91763 0.606 0.545 0.0
C522 C 0.90105 0.62662 0.56527 0.0
H523 H 0.78705 0.6879 0.62836 0.0
H524 H 0.81885 0.66544 0.56819 0.0
H525 H 0.89304 0.68854 0.55276 0.0
H526 H 0.97754 0.58772 0.54808 0.0
H527 H 0.95178 0.62436 0.56594 0.0
C528 C 0.3251 0.303 0.13037 0.0
C529 C 0.31711 0.30324 0.19619 0.0
C530 C 0.3458 0.31598 0.1121 0.0
C531 C 0.40029 0.34881 0.17067 0.0
H532 H 0.38436 0.39379 0.02969 0.0
C533 C 0.45141 0.43881 0.12845 0.0
C534 C 0.45375 0.44777 0.06412 0.0
C535 C 0.43892 0.41714 0.14004 0.0
C536 C 0.38941 0.38102 0.06799 0.0
H537 H 0.32486 0.31603 0.29529 0.0
H538 H 0.36175 0.33841 0.26373 0.0
H539 H 0.35528 0.36249 0.06039 0.0
H540 H 0.44576 0.44104 0.96099 0.0
H541 H 0.42372 0.40284 0.9809 0.0
H542 H 0.43431 0.36765 0.17895 0.0
C543 C 0.35203 0.32808 0.2263 0.0
C544 C 0.37268 0.36311 0.0858 0.0
C545 C 0.33106 0.31522 0.24451 0.0
C546 C 0.44435 0.43423 0.01092 0.0
C547 C 0.43156 0.41257 0.02254 0.0
C548 C 0.41716 0.36663 0.15249 0.0
C549 C 0.35894 0.32944 0.15942 0.0
C550 C 0.37779 0.34701 0.13784 0.0
C551 C 0.4282 0.4041 0.08749 0.0
C552 C 0.41176 0.38322 0.10159 0.0
H553 H 0.31432 0.29419 0.0922 0.0
H554 H 0.35082 0.3165 0.06038 0.0
H555 H 0.40475 0.33653 0.21067 0.0
H556 H 0.45844 0.44913 0.17019 0.0
H557 H 0.43649 0.41141 0.19065 0.0
C558 C 0.4435 0.55913 0.90174 0.0
C559 C 0.45661 0.56495 0.95922 0.0
C560 C 0.43132 0.57752 0.86646 0.0
C561 C 0.42009 0.64561 0.85711 0.0
H562 H 0.35438 0.62472 0.81572 0.0
C563 C 0.33484 0.7105 0.82561 0.0
C564 C 0.31737 0.7032 0.77865 0.0
C565 C 0.35574 0.69599 0.83696 0.0
C566 C 0.37275 0.63089 0.82589 0.0
H567 H 0.46872 0.59457 0.02227 0.0
H568 H 0.44794 0.62661 0.96088 0.0
H569 H 0.38442 0.59483 0.85077 0.0
H570 H 0.30866 0.67598 0.70436 0.0
H571 H 0.34522 0.65127 0.72219 0.0
H572 H 0.40771 0.68203 0.83447 0.0
C573 C 0.44708 0.60805 0.94202 0.0
C574 C 0.39013 0.61363 0.84578 0.0
C575 C 0.45926 0.58966 0.97707 0.0
C576 C 0.32201 0.6822 0.74018 0.0
C577 C 0.34279 0.66785 0.75117 0.0
C578 C 0.40254 0.663 0.83746 0.0
C579 C 0.43179 0.6021 0.88843 0.0
C580 C 0.4141 0.62063 0.86175 0.0
C581 C 0.35938 0.6739 0.80169 0.0
C582 C 0.37863 0.65582 0.82142 0.0
H583 H 0.44065 0.54018 0.88783 0.0
H584 H 0.42022 0.57223 0.8245 0.0
H585 H 0.43833 0.65177 0.86882 0.0
H586 H 0.33139 0.72628 0.85712 0.0
H587 H 0.36808 0.70115 0.87643 0.0
C588 C 0.19794 0.69 0.64579 0.0
C589 C 0.19588 0.70467 0.70298 0.0
C590 C 0.17782 0.67675 0.62194 0.0
C591 C 0.12658 0.6448 0.69246 0.0
H592 H 0.10403 0.63396 0.51316 0.0
C593 C 0.07571 0.55779 0.59756 0.0
C594 C 0.05717 0.56097 0.55025 0.0
C595 C 0.08869 0.57792 0.62255 0.0
C596 C 0.10995 0.63694 0.56365 0.0
H597 H 0.1707 0.71827 0.77699 0.0
H598 H 0.13561 0.69547 0.73526 0.0
H599 H 0.13444 0.66568 0.53601 0.0
H600 H 0.03678 0.58799 0.49539 0.0
H601 H 0.05918 0.62313 0.53931 0.0
H602 H 0.10303 0.61533 0.71977 0.0
C603 C 0.15273 0.6942 0.70868 0.0
C604 C 0.12747 0.65501 0.57657 0.0
C605 C 0.17271 0.70771 0.73172 0.0
C606 C 0.05039 0.58495 0.53337 0.0
C607 C 0.06367 0.60506 0.55726 0.0
C608 C 0.10949 0.62639 0.67935 0.0
C609 C 0.15536 0.67762 0.65561 0.0
C610 C 0.13594 0.65924 0.64121 0.0
C611 C 0.08372 0.60168 0.59978 0.0
C612 C 0.10087 0.62223 0.6148 0.0
H613 H 0.21571 0.68661 0.62395 0.0
H614 H 0.18048 0.66412 0.581 0.0
H615 H 0.13303 0.64731 0.74266 0.0
H616 H 0.08198 0.53955 0.60978 0.0
H617 H 0.10404 0.57461 0.65511 0.0
C618 C 0.17449 0.29906 0.28084 0.0
C619 C 0.19854 0.30322 0.30171 0.0
C620 C 0.155 0.3114 0.31123 0.0
C621 C 0.13288 0.35088 0.44634 0.0
H622 H 0.10805 0.39166 0.30545 0.0
C623 C 0.07588 0.43977 0.49466 0.0
C624 C 0.05953 0.44747 0.44561 0.0
C625 C 0.09036 0.41878 0.48478 0.0
C626 C 0.11414 0.38015 0.3455 0.0
H627 H 0.22087 0.32145 0.37492 0.0
H628 H 0.18665 0.34227 0.43005 0.0
H629 H 0.13668 0.35894 0.28008 0.0
H630 H 0.04472 0.43914 0.3491 0.0
H631 H 0.06869 0.40186 0.33311 0.0
H632 H 0.11007 0.37194 0.51188 0.0
C633 C 0.18287 0.32957 0.39 0.0
C634 C 0.13074 0.3614 0.33078 0.0
C635 C 0.20244 0.3174 0.35897 0.0
C636 C 0.05701 0.43332 0.38799 0.0
C637 C 0.07113 0.41218 0.3785 0.0
C638 C 0.11578 0.36944 0.46108 0.0
C639 C 0.15921 0.32792 0.36354 0.0
C640 C 0.14034 0.34658 0.38087 0.0
C641 C 0.0887 0.40502 0.42564 0.0
C642 C 0.10618 0.38443 0.41079 0.0
H643 H 0.17104 0.28872 0.23589 0.0
H644 H 0.13692 0.30971 0.29008 0.0
H645 H 0.14016 0.33982 0.48594 0.0
H646 H 0.07847 0.45077 0.53888 0.0
H647 H 0.10374 0.41417 0.52207 0.0
C648 C 0.0169 0.99919 0.75572 0.0
C649 C 0.00541 0.0197 0.72801 0.0
C650 C 0.01891 0.99716 0.82459 0.0
C651 C 0.98736 0.01995 0.97506 0.0
H652 H 0.04064 0.9883 0.0673 0.0
C653 C 0.99538 0.01664 0.26193 0.0
C654 C 0.00714 0.99617 0.28909 0.0
C655 C 0.99344 0.01896 0.1931 0.0
C656 C 0.0254 0.99686 0.04224 0.0
H657 H 0.98903 0.05502 0.74951 0.0
H658 H 0.99348 0.05201 0.86892 0.0
H659 H 0.04356 0.9946 0.94867 0.0
H660 H 0.02412 0.96124 0.26675 0.0
H661 H 0.01968 0.96463 0.14743 0.0
H662 H 0.96917 0.02217 0.06862 0.0
C663 C 1.00012 0.03708 0.8382 0.0
C664 C 0.02716 1.00056 0.97412 0.0
C665 C 0.99788 0.03897 0.76976 0.0
C666 C 0.01506 0.97724 0.24687 0.0
C667 C 0.01282 0.97937 0.17849 0.0
C668 C 0.98558 0.01623 0.04321 0.0
C669 C 0.00963 0.0157 0.86669 0.0
C670 C 0.00818 0.01217 0.93959 0.0
C671 C 1.00304 1.00073 0.15052 0.0
C672 C 0.00454 0.00454 0.07771 0.0
H673 H 0.02253 0.98394 0.72463 0.0
H674 H 0.02632 0.98041 0.84477 0.0
H675 H 0.97214 0.02853 0.94994 0.0
H676 H 0.98945 0.03165 0.29349 0.0
H677 H 0.98581 0.03568 0.17339 0.0
C678 C 0.27731 0.77302 0.49855 0.0
C679 C 0.26076 0.76134 0.5404 0.0
C680 C 0.27557 0.77031 0.43027 0.0
C681 C 0.24682 0.73512 0.29414 0.0
H682 H 0.25504 0.79603 0.1999 0.0
C683 C 0.22389 0.74172 0.01909 0.0
C684 C 0.24158 0.75247 0.97859 0.0
C685 C 0.22492 0.7444 0.08752 0.0
C686 C 0.25289 0.77885 0.22535 0.0
H687 H 0.23022 0.73652 0.54425 0.0
H688 H 0.22679 0.73199 0.42375 0.0
H689 H 0.2603 0.79526 0.31934 0.0
H690 H 0.27321 0.77593 0.97752 0.0
H691 H 0.27509 0.78072 0.09815 0.0
H692 H 0.23927 0.71877 0.19995 0.0
C693 C 0.24133 0.74309 0.44398 0.0
C694 C 0.25597 0.77834 0.29385 0.0
C695 C 0.2433 0.74559 0.51289 0.0
C696 C 0.25928 0.76758 0.00761 0.0
C697 C 0.26039 0.77019 0.07662 0.0
C698 C 0.24366 0.73565 0.22558 0.0
C699 C 0.25694 0.75616 0.40194 0.0
C700 C 0.25318 0.75644 0.32909 0.0
C701 C 0.24374 0.75781 0.11732 0.0
C702 C 0.24671 0.75752 0.19036 0.0
H703 H 0.29114 0.78506 0.51868 0.0
H704 H 0.2884 0.77997 0.39956 0.0
H705 H 0.24476 0.71792 0.31954 0.0
H706 H 0.20984 0.73022 -0.00211 0.0
H707 H 0.2114 0.73525 0.11727 0.0
C708 C 0.49042 0.99769 0.74338 0.0
C709 C 0.50306 0.01706 0.77329 0.0
C710 C 0.48788 0.99674 0.67443 0.0
C711 C 0.52082 0.01861 0.52798 0.0
H712 H 0.46613 0.99199 0.43056 0.0
C713 C 0.5142 0.01679 0.24053 0.0
C714 C 0.50165 0.99708 0.21189 0.0
C715 C 0.51587 0.01895 0.30955 0.0
C716 C 0.48173 0.99916 0.45712 0.0
H717 H 0.52067 0.05175 0.75646 0.0
H718 H 0.51545 0.0506 0.63695 0.0
H719 H 0.46288 0.99786 0.54974 0.0
H720 H 0.48303 0.96316 0.23168 0.0
H721 H 0.48685 0.96632 0.35123 0.0
H722 H 0.53973 0.01976 0.43546 0.0
C723 C 0.50829 0.03571 0.66582 0.0
C724 C 0.47977 1.00261 0.52544 0.0
C725 C 0.51101 0.03652 0.73426 0.0
C726 C 0.4927 0.9786 0.25274 0.0
C727 C 0.49459 0.98059 0.32122 0.0
C728 C 0.52279 0.01512 0.45965 0.0
C729 C 0.49782 0.01525 0.63479 0.0
C730 C 0.49931 0.01235 0.56173 0.0
C731 C 0.50515 1.00133 0.35063 0.0
C732 C 0.50332 0.00519 0.42341 0.0
H733 H 0.48435 0.98238 0.77252 0.0
H734 H 0.47966 0.98074 0.65205 0.0
H735 H 0.53642 0.02572 0.55461 0.0
H736 H 0.52097 0.03142 0.21001 0.0
H737 H 0.52419 0.03515 0.3306 0.0
C738 C 0.22867 0.24476 0.98651 0.0
C739 C 0.2481 0.2551 0.02177 0.0
C740 C 0.22972 0.24305 0.91747 0.0
C741 C 0.25699 0.27484 0.77778 0.0
H742 H 0.2374 0.21816 0.67518 0.0
C743 C 0.27053 0.26506 0.4936 0.0
C744 C 0.25304 0.25142 0.45911 0.0
C745 C 0.26885 0.26764 0.56246 0.0
C746 C 0.24254 0.23432 0.70304 0.0
H747 H 0.28386 0.2713 0.01424 0.0
H748 H 0.28582 0.2682 0.89387 0.0
H749 H 0.23735 0.21625 0.79535 0.0
H750 H 0.21925 0.23151 0.46732 0.0
H751 H 0.21568 0.2368 0.58626 0.0
H752 H 0.26197 0.29302 0.68547 0.0
C753 C 0.26986 0.26136 0.91903 0.0
C754 C 0.24262 0.23312 0.77189 0.0
C755 C 0.26892 0.26279 0.98779 0.0
C756 C 0.233 0.24199 0.49316 0.0
C757 C 0.23114 0.24479 0.56136 0.0
C758 C 0.25675 0.27611 0.70881 0.0
C759 C 0.25 0.25213 0.88306 0.0
C760 C 0.24993 0.25332 0.80994 0.0
C761 C 0.24957 0.25669 0.59725 0.0
C762 C 0.2495 0.25585 0.67063 0.0
H763 H 0.21222 0.23933 0.01191 0.0
H764 H 0.2141 0.23595 0.89086 0.0
H765 H 0.26237 0.29084 0.80603 0.0
H766 H 0.28622 0.27231 0.46806 0.0
H767 H 0.28336 0.27694 0.58866 0.0
C768 C 0.74562 0.24553 0.01469 0.0
C769 C 0.7639 0.2604 0.04192 0.0
C770 C 0.74333 0.24317 0.94582 0.0
C771 C 0.75867 0.27797 0.79569 0.0
H772 H 0.73958 0.21917 0.70167 0.0
C773 C 0.76068 0.26773 0.50938 0.0
C774 C 0.74276 0.25289 0.48039 0.0
C775 C 0.76189 0.27026 0.57838 0.0
C776 C 0.7446 0.23586 0.72731 0.0
H777 H 0.79534 0.28261 0.01952 0.0
H778 H 0.79195 0.27779 0.90034 0.0
H779 H 0.74552 0.21794 0.82102 0.0
H780 H 0.7108 0.23097 0.49963 0.0
H781 H 0.71242 0.23601 0.61908 0.0
H782 H 0.75784 0.29586 0.70201 0.0
C783 C 0.77881 0.26869 0.93138 0.0
C784 C 0.74805 0.2351 0.79575 0.0
C785 C 0.78093 0.27122 -0.00031 0.0
C786 C 0.72498 0.24231 0.52088 0.0
C787 C 0.72606 0.24498 0.58934 0.0
C788 C 0.75524 0.27872 0.7273 0.0
C789 C 0.7594 0.25553 0.90345 0.0
C790 C 0.75532 0.25611 0.83073 0.0
C791 C 0.7451 0.25811 0.61915 0.0
C792 C 0.74821 0.25767 0.69221 0.0
H793 H 0.73214 0.23718 0.04624 0.0
H794 H 0.72819 0.23283 0.92589 0.0
H795 H 0.76373 0.29466 0.82127 0.0
H796 H 0.77471 0.27589 0.47925 0.0
H797 H 0.77679 0.28054 0.59981 0.0
C798 C 0.72573 0.74309 0.48272 0.0
C799 C 0.74624 0.74796 0.52217 0.0
C800 C 0.72766 0.7426 0.41373 0.0
C801 C 0.76332 0.7727 0.28619 0.0
H802 H 0.7309 0.72865 0.16399 0.0
C803 C 0.78049 0.77045 0.00414 0.0
C804 C 0.76088 0.765 0.96209 0.0
C805 C 0.77723 0.77113 0.0727 0.0
C806 C 0.73971 0.74136 0.19755 0.0
H807 H 0.78498 0.7552 0.52104 0.0
H808 H 0.78845 0.75441 0.40046 0.0
H809 H 0.72961 0.72059 0.2826 0.0
H810 H 0.72235 0.75672 0.95805 0.0
H811 H 0.71657 0.75784 0.07804 0.0
H812 H 0.7734 0.7935 0.20135 0.0
C813 C 0.7709 0.75074 0.42272 0.0
C814 C 0.73912 0.73661 0.26544 0.0
C815 C 0.76904 0.75073 0.49173 0.0
C816 C 0.73761 0.76166 0.98945 0.0
C817 C 0.73442 0.76184 0.05813 0.0
C818 C 0.76387 0.77747 0.2184 0.0
C819 C 0.75004 0.74766 0.38297 0.0
C820 C 0.7511 0.75212 0.31051 0.0
C821 C 0.75441 0.7657 0.10061 0.0
C822 C 0.75219 0.7618 0.17316 0.0
H823 H 0.70787 0.7415 0.5051 0.0
H824 H 0.71126 0.74021 0.38457 0.0
H825 H 0.77222 0.78535 0.31975 0.0
H826 H 0.79869 0.77249 0.98418 0.0
H827 H 0.79302 0.77407 0.10389 0.0
C828 C 0.49648 0.5227 0.76143 0.0
C829 C 0.49782 0.49931 0.78923 0.0
C830 C 0.496 0.52541 0.6926 0.0
C831 C 0.48819 0.49208 0.53264 0.0
H832 H 0.5364 0.53778 0.46901 0.0
C833 C 0.51476 0.49348 0.25791 0.0
C834 C 0.51301 0.51671 0.22932 0.0
C835 C 0.51541 0.49113 0.32682 0.0
C836 C 0.5228 0.52501 0.48595 0.0
H837 H 0.49812 0.46053 0.76781 0.0
H838 H 0.49621 0.4651 0.64814 0.0
H839 H 0.52804 0.53536 0.5873 0.0
H840 H 0.51243 0.5556 0.24935 0.0
H841 H 0.51462 0.55164 0.3692 0.0
H842 H 0.48298 0.48171 0.43135 0.0
C843 C 0.49567 0.4814 0.67891 0.0
C844 C 0.51784 0.52376 0.55372 0.0
C845 C 0.49657 0.47873 0.74751 0.0
C846 C 0.51421 0.53752 0.27028 0.0
C847 C 0.51528 0.5352 0.33897 0.0
C848 C 0.49317 0.49331 0.46493 0.0
C849 C 0.49656 0.50475 0.65051 0.0
C850 C 0.50049 0.50726 0.57796 0.0
C851 C 0.51463 0.51199 0.36817 0.0
C852 C 0.51058 0.50975 0.4407 0.0
H853 H 0.49804 0.53886 0.79254 0.0
H854 H 0.49636 0.54366 0.67231 0.0
H855 H 0.47458 0.47932 0.54951 0.0
H856 H 0.51331 0.47716 0.22743 0.0
H857 H 0.51526 0.47299 0.34778 0.0
C858 C 0.01826 0.48192 0.75344 0.0
C859 C 0.01563 0.50268 0.71381 0.0
C860 C 0.0195 0.48422 0.82217 0.0
C861 C 0.99514 0.52507 0.95033 0.0
H862 H 0.03113 0.48325 0.07 0.0
C863 C 0.99584 0.53697 0.23478 0.0
C864 C 0.99807 0.51599 0.27384 0.0
C865 C 0.99541 0.53504 0.16588 0.0
C866 C 0.02063 0.49478 0.03713 0.0
H867 H 0.01376 0.54218 0.71406 0.0
H868 H 0.01615 0.54636 0.83459 0.0
H869 H 0.04036 0.48196 0.95203 0.0
H870 H 1.00012 0.47649 0.27202 0.0
H871 H 0.99912 0.47298 0.15127 0.0
H872 H 0.97538 0.53785 0.03538 0.0
C873 C 0.0172 0.52826 0.81257 0.0
C874 C 0.02609 0.49419 0.96958 0.0
C875 C 0.01629 0.52593 0.74358 0.0
C876 C 0.99785 0.49291 0.24302 0.0
C877 C 0.99777 0.49096 0.17391 0.0
C878 C 0.98968 0.52566 0.01787 0.0
C879 C 0.01767 0.50736 0.85271 0.0
C880 C 0.0134 0.50931 0.92529 0.0
C881 C 0.99763 0.51207 0.13459 0.0
C882 C 1.00231 0.51047 0.06212 0.0
H883 H 0.01732 0.46379 0.73154 0.0
H884 H 0.0198 0.46774 0.8514 0.0
H885 H 0.9846 0.53656 0.91746 0.0
H886 H 0.99645 0.55499 0.25745 0.0
H887 H 0.99534 0.55167 0.13728 0.0
loop_
_geom_bond_atom_site_label_1
_geom_bond_atom_site_label_2
_geom_bond_distance
_geom_bond_site_symmetry_2
_ccdc_geom_bond_type
O0 Mn1 2.163 1_665 S
O0 C14 1.244 . S
Mn1 O0 2.163 1_445 S
Mn1 O4 2.160 . S
Mn1 O5 2.221 1_545 S
Mn1 O7 2.163 1_455 S
Mn1 O9 2.160 . S
Mn1 O19 2.221 1_455 S
O2 Mn3 2.087 1_565 S
O2 C14 1.256 . S
Mn3 O2 2.087 1_545 S
Mn3 O10 2.089 . S
Mn3 O19 2.290 . S
Mn3 O20 2.251 . S
O4 Mn1 2.160 . S
O4 C15 1.239 . S
O5 Mn1 2.221 1_565 S
O5 Mn6 2.290 . S
O5 C16 1.278 . S
Mn6 O5 2.290 . S
Mn6 O8 2.089 1_565 S
Mn6 O11 2.251 . S
Mn6 O12 2.087 . S
O7 Mn1 2.163 1_655 S
O7 C17 1.244 1_645 S
O8 Mn6 2.089 1_545 S
O8 C15 1.256 . S
O9 Mn1 2.160 . S
O9 C18 1.239 1_455 S
O10 Mn3 2.089 . S
O10 C18 1.256 . S
O11 Mn6 2.251 . S
O11 C16 1.241 . S
O12 Mn6 2.087 . S
O12 C17 1.256 . S
C13 O19 1.278 . S
C13 O20 1.241 . S
C14 O0 1.244 . S
C14 O2 1.256 . S
C15 O4 1.239 . S
C15 O8 1.256 . S
C16 O5 1.278 . S
C16 O11 1.241 . S
C17 O7 1.244 1_465 S
C17 O12 1.256 . S
C18 O9 1.239 1_655 S
C18 O10 1.256 . S
O19 Mn1 2.221 1_655 S
O19 Mn3 2.290 . S
O19 C13 1.278 . S
O20 Mn3 2.251 . S
O20 C13 1.241 . S
O21 Mn22 2.163 . S
O21 C35 1.244 . S
Mn22 O21 2.163 . S
Mn22 O25 2.160 . S
Mn22 O26 2.221 . S
Mn22 O28 2.163 . S
Mn22 O30 2.160 . S
Mn22 O40 2.221 . S
O23 Mn24 2.087 . S
O23 C35 1.256 . S
Mn24 O23 2.087 . S
Mn24 O31 2.089 . S
Mn24 O40 2.290 . S
Mn24 O41 2.251 . S
O25 Mn22 2.160 . S
O25 C36 1.239 . S
O26 Mn22 2.221 . S
O26 Mn27 2.290 . S
O26 C37 1.278 . S
Mn27 O26 2.290 . S
Mn27 O29 2.089 . S
Mn27 O32 2.251 . S
Mn27 O33 2.087 . S
O28 Mn22 2.163 . S
O28 C38 1.244 . S
O29 Mn27 2.089 . S
O29 C36 1.256 . S
O30 Mn22 2.160 . S
O30 C39 1.239 . S
O31 Mn24 2.089 . S
O31 C39 1.256 . S
O32 Mn27 2.251 . S
O32 C37 1.241 . S
O33 Mn27 2.087 . S
O33 C38 1.256 . S
C34 O40 1.278 . S
C34 O41 1.241 . S
C35 O21 1.244 . S
C35 O23 1.256 . S
C36 O25 1.239 . S
C36 O29 1.256 . S
C37 O26 1.278 . S
C37 O32 1.241 . S
C38 O28 1.244 . S
C38 O33 1.256 . S
C39 O30 1.239 . S
C39 O31 1.256 . S
O40 Mn22 2.221 . S
O40 Mn24 2.290 . S
O40 C34 1.278 . S
O41 Mn24 2.251 . S
O41 C34 1.241 . S
O42 Mn43 2.163 1_565 S
O42 C56 1.244 . S
Mn43 O42 2.163 1_545 S
Mn43 O46 2.160 1_556 S
Mn43 O47 2.221 1_545 S
Mn43 O49 2.163 1_556 S
Mn43 O51 2.160 . S
Mn43 O61 2.221 . S
O44 Mn45 2.087 1_565 S
O44 C56 1.256 . S
Mn45 O44 2.087 1_545 S
Mn45 O52 2.089 . S
Mn45 O61 2.290 . S
Mn45 O62 2.251 1_556 S
O46 Mn43 2.160 1_554 S
O46 C57 1.239 . S
O47 Mn43 2.221 1_565 S
O47 Mn48 2.290 1_556 S
O47 C58 1.278 . S
Mn48 O47 2.290 1_554 S
Mn48 O50 2.089 1_565 S
Mn48 O53 2.251 . S
Mn48 O54 2.087 . S
O49 Mn43 2.163 1_554 S
O49 C59 1.244 1_545 S
O50 Mn48 2.089 1_545 S
O50 C57 1.256 . S
O51 Mn43 2.160 . S
O51 C60 1.239 . S
O52 Mn45 2.089 . S
O52 C60 1.256 . S
O53 Mn48 2.251 . S
O53 C58 1.241 1_554 S
O54 Mn48 2.087 . S
O54 C59 1.256 . S
C55 O61 1.278 1_554 S
C55 O62 1.241 . S
C56 O42 1.244 . S
C56 O44 1.256 . S
C57 O46 1.239 . S
C57 O50 1.256 . S
C58 O47 1.278 . S
C58 O53 1.241 1_556 S
C59 O49 1.244 1_565 S
C59 O54 1.256 . S
C60 O51 1.239 . S
C60 O52 1.256 . S
O61 Mn43 2.221 . S
O61 Mn45 2.290 . S
O61 C55 1.278 1_556 S
O62 Mn45 2.251 1_554 S
O62 C55 1.241 . S
O63 Mn64 2.163 . S
O63 C77 1.244 . S
Mn64 O63 2.163 . S
Mn64 O67 2.160 . S
Mn64 O68 2.221 . S
Mn64 O70 2.163 . S
Mn64 O72 2.160 . S
Mn64 O82 2.221 . S
O65 Mn66 2.087 . S
O65 C77 1.256 . S
Mn66 O65 2.087 . S
Mn66 O73 2.089 . S
Mn66 O82 2.290 . S
Mn66 O83 2.251 . S
O67 Mn64 2.160 . S
O67 C78 1.239 . S
O68 Mn64 2.221 . S
O68 Mn69 2.290 . S
O68 C79 1.278 . S
Mn69 O68 2.290 . S
Mn69 O71 2.089 . S
Mn69 O74 2.251 . S
Mn69 O75 2.087 . S
O70 Mn64 2.163 . S
O70 C80 1.244 . S
O71 Mn69 2.089 . S
O71 C78 1.256 . S
O72 Mn64 2.160 . S
O72 C81 1.239 . S
O73 Mn66 2.089 . S
O73 C81 1.256 . S
O74 Mn69 2.251 . S
O74 C79 1.241 . S
O75 Mn69 2.087 . S
O75 C80 1.256 . S
C76 O82 1.278 . S
C76 O83 1.241 . S
C77 O63 1.244 . S
C77 O65 1.256 . S
C78 O67 1.239 . S
C78 O71 1.256 . S
C79 O68 1.278 . S
C79 O74 1.241 . S
C80 O70 1.244 . S
C80 O75 1.256 . S
C81 O72 1.239 . S
C81 O73 1.256 . S
O82 Mn64 2.221 . S
O82 Mn66 2.290 . S
O82 C76 1.278 . S
O83 Mn66 2.251 . S
O83 C76 1.241 . S
O84 Mn85 2.163 . S
O84 C98 1.244 . S
Mn85 O84 2.163 . S
Mn85 O88 2.160 . S
Mn85 O89 2.221 . S
Mn85 O91 2.163 . S
Mn85 O93 2.160 . S
Mn85 O103 2.221 . S
O86 Mn87 2.087 . S
O86 C98 1.256 . S
Mn87 O86 2.087 . S
Mn87 O94 2.089 . S
Mn87 O103 2.290 . S
Mn87 O104 2.251 . S
O88 Mn85 2.160 . S
O88 C99 1.239 . S
O89 Mn85 2.221 . S
O89 Mn90 2.290 . S
O89 C100 1.278 . S
Mn90 O89 2.290 . S
Mn90 O92 2.089 . S
Mn90 O95 2.251 . S
Mn90 O96 2.087 . S
O91 Mn85 2.163 . S
O91 C101 1.244 . S
O92 Mn90 2.089 . S
O92 C99 1.256 . S
O93 Mn85 2.160 . S
O93 C102 1.239 . S
O94 Mn87 2.089 . S
O94 C102 1.256 . S
O95 Mn90 2.251 . S
O95 C100 1.241 . S
O96 Mn90 2.087 . S
O96 C101 1.256 . S
C97 O103 1.278 . S
C97 O104 1.241 . S
C98 O84 1.244 . S
C98 O86 1.256 . S
C99 O88 1.239 . S
C99 O92 1.256 . S
C100 O89 1.278 . S
C100 O95 1.241 . S
C101 O91 1.244 . S
C101 O96 1.256 . S
C102 O93 1.239 . S
C102 O94 1.256 . S
O103 Mn85 2.221 . S
O103 Mn87 2.290 . S
O103 C97 1.278 . S
O104 Mn87 2.251 . S
O104 C97 1.241 . S
O105 Mn106 2.163 . S
O105 C119 1.244 . S
Mn106 O105 2.163 . S
Mn106 O109 2.160 . S
Mn106 O110 2.221 . S
Mn106 O112 2.163 . S
Mn106 O114 2.160 . S
Mn106 O124 2.221 . S
O107 Mn108 2.087 . S
O107 C119 1.256 . S
Mn108 O107 2.087 . S
Mn108 O115 2.089 . S
Mn108 O124 2.290 . S
Mn108 O125 2.251 . S
O109 Mn106 2.160 . S
O109 C120 1.239 . S
O110 Mn106 2.221 . S
O110 Mn111 2.290 . S
O110 C121 1.278 . S
Mn111 O110 2.290 . S
Mn111 O113 2.089 . S
Mn111 O116 2.251 . S
Mn111 O117 2.087 . S
O112 Mn106 2.163 . S
O112 C122 1.244 . S
O113 Mn111 2.089 . S
O113 C120 1.256 . S
O114 Mn106 2.160 . S
O114 C123 1.239 . S
O115 Mn108 2.089 . S
O115 C123 1.256 . S
O116 Mn111 2.251 . S
O116 C121 1.241 . S
O117 Mn111 2.087 . S
O117 C122 1.256 . S
C118 O124 1.278 . S
C118 O125 1.241 . S
C119 O105 1.244 . S
C119 O107 1.256 . S
C120 O109 1.239 . S
C120 O113 1.256 . S
C121 O110 1.278 . S
C121 O116 1.241 . S
C122 O112 1.244 . S
C122 O117 1.256 . S
C123 O114 1.239 . S
C123 O115 1.256 . S
O124 Mn106 2.221 . S
O124 Mn108 2.290 . S
O124 C118 1.278 . S
O125 Mn108 2.251 . S
O125 C118 1.241 . S
O126 Mn127 2.163 . S
O126 C140 1.244 . S
Mn127 O126 2.163 . S
Mn127 O130 2.160 . S
Mn127 O131 2.221 . S
Mn127 O133 2.163 1_554 S
Mn127 O135 2.160 . S
Mn127 O145 2.221 . S
O128 Mn129 2.087 . S
O128 C140 1.256 . S
Mn129 O128 2.087 . S
Mn129 O136 2.089 . S
Mn129 O145 2.290 . S
Mn129 O146 2.251 . S
O130 Mn127 2.160 . S
O130 C141 1.239 1_554 S
O131 Mn127 2.221 . S
O131 Mn132 2.290 1_554 S
O131 C142 1.278 . S
Mn132 O131 2.290 1_556 S
Mn132 O134 2.089 . S
Mn132 O137 2.251 . S
Mn132 O138 2.087 . S
O133 Mn127 2.163 1_556 S
O133 C143 1.244 . S
O134 Mn132 2.089 . S
O134 C141 1.256 . S
O135 Mn127 2.160 . S
O135 C144 1.239 . S
O136 Mn129 2.089 . S
O136 C144 1.256 . S
O137 Mn132 2.251 . S
O137 C142 1.241 1_556 S
O138 Mn132 2.087 . S
O138 C143 1.256 . S
C139 O145 1.278 1_556 S
C139 O146 1.241 1_556 S
C140 O126 1.244 . S
C140 O128 1.256 . S
C141 O130 1.239 1_556 S
C141 O134 1.256 . S
C142 O131 1.278 . S
C142 O137 1.241 1_554 S
C143 O133 1.244 . S
C143 O138 1.256 . S
C144 O135 1.239 . S
C144 O136 1.256 . S
O145 Mn127 2.221 . S
O145 Mn129 2.290 . S
O145 C139 1.278 1_554 S
O146 Mn129 2.251 . S
O146 C139 1.241 1_554 S
O147 Mn148 2.163 . S
O147 C161 1.244 . S
Mn148 O147 2.163 . S
Mn148 O151 2.160 1_455 S
Mn148 O152 2.221 1_455 S
Mn148 O154 2.163 . S
Mn148 O156 2.160 1_455 S
Mn148 O166 2.221 . S
O149 Mn150 2.087 . S
O149 C161 1.256 . S
Mn150 O149 2.087 . S
Mn150 O157 2.089 . S
Mn150 O166 2.290 . S
Mn150 O167 2.251 . S
O151 Mn148 2.160 1_655 S
O151 C162 1.239 . S
O152 Mn148 2.221 1_655 S
O152 Mn153 2.290 . S
O152 C163 1.278 . S
Mn153 O152 2.290 . S
Mn153 O155 2.089 . S
Mn153 O158 2.251 . S
Mn153 O159 2.087 . S
O154 Mn148 2.163 . S
O154 C164 1.244 1_455 S
O155 Mn153 2.089 . S
O155 C162 1.256 . S
O156 Mn148 2.160 1_655 S
O156 C165 1.239 1_655 S
O157 Mn150 2.089 . S
O157 C165 1.256 . S
O158 Mn153 2.251 . S
O158 C163 1.241 . S
O159 Mn153 2.087 . S
O159 C164 1.256 . S
C160 O166 1.278 . S
C160 O167 1.241 . S
C161 O147 1.244 . S
C161 O149 1.256 . S
C162 O151 1.239 . S
C162 O155 1.256 . S
C163 O152 1.278 . S
C163 O158 1.241 . S
C164 O154 1.244 1_655 S
C164 O159 1.256 . S
C165 O156 1.239 1_455 S
C165 O157 1.256 . S
O166 Mn148 2.221 . S
O166 Mn150 2.290 . S
O166 C160 1.278 . S
O167 Mn150 2.251 . S
O167 C160 1.241 . S
C168 C169 1.349 . S
C168 C170 1.327 . S
C168 H193 0.950 . S
C169 C168 1.349 . S
C169 C185 1.349 . S
C170 C168 1.327 . S
C170 C189 1.429 . S
C170 H194 0.950 . S
C171 C188 1.574 . S
C171 C190 1.368 . S
C171 H195 0.949 . S
H172 C176 0.949 . S
C173 C174 1.349 . S
C173 C175 1.327 . S
C173 H196 0.950 . S
C174 C173 1.349 . S
C174 C186 1.349 . S
C175 C173 1.327 . S
C175 C191 1.429 . S
C175 H197 0.950 . S
C176 H172 0.949 . S
C176 C184 1.574 . S
C176 C192 1.368 . S
H177 C185 0.950 . S
H178 C183 0.950 . S
H179 C184 0.949 . S
H180 C186 0.950 . S
H181 C187 0.950 . S
H182 C188 0.949 . S
C183 H178 0.950 . S
C183 C185 1.327 . S
C183 C189 1.429 . S
C184 C176 1.574 . S
C184 H179 0.949 . S
C184 C190 1.368 . S
C185 C169 1.349 . S
C185 H177 0.950 . S
C185 C183 1.327 . S
C186 C174 1.349 . S
C186 H180 0.950 . S
C186 C187 1.327 . S
C187 H181 0.950 . S
C187 C186 1.327 . S
C187 C191 1.429 . S
C188 C171 1.574 . S
C188 H182 0.949 . S
C188 C192 1.368 . S
C189 C170 1.429 . S
C189 C183 1.429 . S
C189 C190 1.523 . S
C190 C171 1.368 . S
C190 C184 1.368 . S
C190 C189 1.523 . S
C191 C175 1.429 . S
C191 C187 1.429 . S
C191 C192 1.523 . S
C192 C176 1.368 . S
C192 C188 1.368 . S
C192 C191 1.523 . S
H193 C168 0.950 . S
H194 C170 0.950 . S
H195 C171 0.949 . S
H196 C173 0.950 . S
H197 C175 0.950 . S
C198 C199 1.349 . S
C198 C200 1.327 . S
C198 H223 0.950 . S
C199 C198 1.349 . S
C199 C215 1.349 . S
C200 C198 1.327 . S
C200 C219 1.429 . S
C200 H224 0.950 . S
C201 C218 1.574 . S
C201 C220 1.368 . S
C201 H225 0.949 . S
H202 C206 0.949 . S
C203 C204 1.349 . S
C203 C205 1.327 . S
C203 H226 0.950 . S
C204 C203 1.349 . S
C204 C216 1.349 . S
C205 C203 1.327 . S
C205 C221 1.429 . S
C205 H227 0.950 . S
C206 H202 0.949 . S
C206 C214 1.574 . S
C206 C222 1.368 . S
H207 C215 0.950 . S
H208 C213 0.950 . S
H209 C214 0.949 . S
H210 C216 0.950 . S
H211 C217 0.950 . S
H212 C218 0.949 . S
C213 H208 0.950 . S
C213 C215 1.327 . S
C213 C219 1.429 . S
C214 C206 1.574 . S
C214 H209 0.949 . S
C214 C220 1.368 . S
C215 C199 1.349 . S
C215 H207 0.950 . S
C215 C213 1.327 . S
C216 C204 1.349 . S
C216 H210 0.950 . S
C216 C217 1.327 . S
C217 H211 0.950 . S
C217 C216 1.327 . S
C217 C221 1.429 . S
C218 C201 1.574 . S
C218 H212 0.949 . S
C218 C222 1.368 . S
C219 C200 1.429 . S
C219 C213 1.429 . S
C219 C220 1.523 . S
C220 C201 1.368 . S
C220 C214 1.368 . S
C220 C219 1.523 . S
C221 C205 1.429 . S
C221 C217 1.429 . S
C221 C222 1.523 . S
C222 C206 1.368 . S
C222 C218 1.368 . S
C222 C221 1.523 . S
H223 C198 0.950 . S
H224 C200 0.950 . S
H225 C201 0.949 . S
H226 C203 0.950 . S
H227 C205 0.950 . S
C228 C229 1.349 . S
C228 C230 1.327 . S
C228 H253 0.950 . S
C229 C228 1.349 . S
C229 C245 1.349 . S
C230 C228 1.327 . S
C230 C249 1.429 . S
C230 H254 0.950 . S
C231 C248 1.574 . S
C231 C250 1.368 . S
C231 H255 0.949 . S
H232 C236 0.949 . S
C233 C234 1.349 1_554 S
C233 C235 1.327 1_554 S
C233 H256 0.950 . S
C234 C233 1.349 1_556 S
C234 C246 1.349 . S
C235 C233 1.327 1_556 S
C235 C251 1.429 . S
C235 H257 0.950 1_556 S
C236 H232 0.949 . S
C236 C244 1.574 . S
C236 C252 1.368 . S
H237 C245 0.950 . S
H238 C243 0.950 . S
H239 C244 0.949 . S
H240 C246 0.950 . S
H241 C247 0.950 . S
H242 C248 0.949 . S
C243 H238 0.950 . S
C243 C245 1.327 . S
C243 C249 1.429 . S
C244 C236 1.574 . S
C244 H239 0.949 . S
C244 C250 1.368 . S
C245 C229 1.349 . S
C245 H237 0.950 . S
C245 C243 1.327 . S
C246 C234 1.349 . S
C246 H240 0.950 . S
C246 C247 1.327 . S
C247 H241 0.950 . S
C247 C246 1.327 . S
C247 C251 1.429 . S
C248 C231 1.574 . S
C248 H242 0.949 . S
C248 C252 1.368 . S
C249 C230 1.429 . S
C249 C243 1.429 . S
C249 C250 1.523 . S
C250 C231 1.368 . S
C250 C244 1.368 . S
C250 C249 1.523 . S
C251 C235 1.429 . S
C251 C247 1.429 . S
C251 C252 1.523 . S
C252 C236 1.368 . S
C252 C248 1.368 . S
C252 C251 1.523 . S
H253 C228 0.950 . S
H254 C230 0.950 . S
H255 C231 0.949 . S
H256 C233 0.950 . S
H257 C235 0.950 1_554 S
C258 C259 1.349 . S
C258 C260 1.327 . S
C258 H283 0.950 1_554 S
C259 C258 1.349 . S
C259 C275 1.349 . S
C260 C258 1.327 . S
C260 C279 1.429 . S
C260 H284 0.950 1_554 S
C261 C278 1.574 . S
C261 C280 1.368 . S
C261 H285 0.949 . S
H262 C266 0.949 . S
C263 C264 1.349 . S
C263 C265 1.327 . S
C263 H286 0.950 . S
C264 C263 1.349 . S
C264 C276 1.349 . S
C265 C263 1.327 . S
C265 C281 1.429 . S
C265 H287 0.950 . S
C266 H262 0.949 . S
C266 C274 1.574 . S
C266 C282 1.368 . S
H267 C275 0.950 . S
H268 C273 0.950 . S
H269 C274 0.949 . S
H270 C276 0.950 . S
H271 C277 0.950 . S
H272 C278 0.949 . S
C273 H268 0.950 . S
C273 C275 1.327 . S
C273 C279 1.429 . S
C274 C266 1.574 . S
C274 H269 0.949 . S
C274 C280 1.368 . S
C275 C259 1.349 . S
C275 H267 0.950 . S
C275 C273 1.327 . S
C276 C264 1.349 . S
C276 H270 0.950 . S
C276 C277 1.327 . S
C277 H271 0.950 . S
C277 C276 1.327 . S
C277 C281 1.429 . S
C278 C261 1.574 . S
C278 H272 0.949 . S
C278 C282 1.368 . S
C279 C260 1.429 . S
C279 C273 1.429 . S
C279 C280 1.523 . S
C280 C261 1.368 . S
C280 C274 1.368 . S
C280 C279 1.523 . S
C281 C265 1.429 . S
C281 C277 1.429 . S
C281 C282 1.523 . S
C282 C266 1.368 . S
C282 C278 1.368 . S
C282 C281 1.523 . S
H283 C258 0.950 1_556 S
H284 C260 0.950 1_556 S
H285 C261 0.949 . S
H286 C263 0.950 . S
H287 C265 0.950 . S
C288 C289 1.349 . S
C288 C290 1.327 . S
C288 H313 0.950 . S
C289 C288 1.349 . S
C289 C305 1.349 . S
C290 C288 1.327 . S
C290 C309 1.429 . S
C290 H314 0.950 . S
C291 C308 1.574 . S
C291 C310 1.368 . S
C291 H315 0.949 . S
H292 C296 0.949 . S
C293 C294 1.349 . S
C293 C295 1.327 . S
C293 H316 0.950 . S
C294 C293 1.349 . S
C294 C306 1.349 . S
C295 C293 1.327 . S
C295 C311 1.429 . S
C295 H317 0.950 . S
C296 H292 0.949 . S
C296 C304 1.574 . S
C296 C312 1.368 . S
H297 C305 0.950 . S
H298 C303 0.950 . S
H299 C304 0.949 . S
H300 C306 0.950 . S
H301 C307 0.950 . S
H302 C308 0.949 . S
C303 H298 0.950 . S
C303 C305 1.327 . S
C303 C309 1.429 . S
C304 C296 1.574 . S
C304 H299 0.949 . S
C304 C310 1.368 . S
C305 C289 1.349 . S
C305 H297 0.950 . S
C305 C303 1.327 . S
C306 C294 1.349 . S
C306 H300 0.950 . S
C306 C307 1.327 . S
C307 H301 0.950 . S
C307 C306 1.327 . S
C307 C311 1.429 . S
C308 C291 1.574 . S
C308 H302 0.949 . S
C308 C312 1.368 . S
C309 C290 1.429 . S
C309 C303 1.429 . S
C309 C310 1.523 . S
C310 C291 1.368 . S
C310 C304 1.368 . S
C310 C309 1.523 . S
C311 C295 1.429 . S
C311 C307 1.429 . S
C311 C312 1.523 . S
C312 C296 1.368 . S
C312 C308 1.368 . S
C312 C311 1.523 . S
H313 C288 0.950 . S
H314 C290 0.950 . S
H315 C291 0.949 . S
H316 C293 0.950 . S
H317 C295 0.950 . S
C318 C319 1.349 . S
C318 C320 1.327 . S
C318 H343 0.950 . S
C319 C318 1.349 . S
C319 C335 1.349 . S
C320 C318 1.327 . S
C320 C339 1.429 . S
C320 H344 0.950 . S
C321 C338 1.574 . S
C321 C340 1.368 . S
C321 H345 0.949 . S
H322 C326 0.949 . S
C323 C324 1.349 . S
C323 C325 1.327 . S
C323 H346 0.950 . S
C324 C323 1.349 . S
C324 C336 1.349 . S
C325 C323 1.327 . S
C325 C341 1.429 . S
C325 H347 0.950 . S
C326 H322 0.949 . S
C326 C334 1.574 . S
C326 C342 1.368 . S
H327 C335 0.950 . S
H328 C333 0.950 . S
H329 C334 0.949 . S
H330 C336 0.950 . S
H331 C337 0.950 . S
H332 C338 0.949 . S
C333 H328 0.950 . S
C333 C335 1.327 . S
C333 C339 1.429 . S
C334 C326 1.574 . S
C334 H329 0.949 . S
C334 C340 1.368 . S
C335 C319 1.349 . S
C335 H327 0.950 . S
C335 C333 1.327 . S
C336 C324 1.349 . S
C336 H330 0.950 . S
C336 C337 1.327 . S
C337 H331 0.950 . S
C337 C336 1.327 . S
C337 C341 1.429 . S
C338 C321 1.574 . S
C338 H332 0.949 . S
C338 C342 1.368 . S
C339 C320 1.429 . S
C339 C333 1.429 . S
C339 C340 1.523 . S
C340 C321 1.368 . S
C340 C334 1.368 . S
C340 C339 1.523 . S
C341 C325 1.429 . S
C341 C337 1.429 . S
C341 C342 1.523 . S
C342 C326 1.368 . S
C342 C338 1.368 . S
C342 C341 1.523 . S
H343 C318 0.950 . S
H344 C320 0.950 . S
H345 C321 0.949 . S
H346 C323 0.950 . S
H347 C325 0.950 . S
C348 C349 1.349 . S
C348 C350 1.327 . S
C348 H373 0.950 . S
C349 C348 1.349 . S
C349 C365 1.349 . S
C350 C348 1.327 . S
C350 C369 1.429 . S
C350 H374 0.950 . S
C351 C368 1.574 . S
C351 C370 1.368 . S
C351 H375 0.949 . S
H352 C356 0.949 . S
C353 C354 1.349 . S
C353 C355 1.327 . S
C353 H376 0.950 . S
C354 C353 1.349 . S
C354 C366 1.349 . S
C355 C353 1.327 . S
C355 C371 1.429 . S
C355 H377 0.950 . S
C356 H352 0.949 . S
C356 C364 1.574 . S
C356 C372 1.368 . S
H357 C365 0.950 . S
H358 C363 0.950 . S
H359 C364 0.949 . S
H360 C366 0.950 . S
H361 C367 0.950 . S
H362 C368 0.949 . S
C363 H358 0.950 . S
C363 C365 1.327 . S
C363 C369 1.429 . S
C364 C356 1.574 . S
C364 H359 0.949 . S
C364 C370 1.368 . S
C365 C349 1.349 . S
C365 H357 0.950 . S
C365 C363 1.327 . S
C366 C354 1.349 . S
C366 H360 0.950 . S
C366 C367 1.327 . S
C367 H361 0.950 . S
C367 C366 1.327 . S
C367 C371 1.429 . S
C368 C351 1.574 . S
C368 H362 0.949 . S
C368 C372 1.368 . S
C369 C350 1.429 . S
C369 C363 1.429 . S
C369 C370 1.523 . S
C370 C351 1.368 . S
C370 C364 1.368 . S
C370 C369 1.523 . S
C371 C355 1.429 . S
C371 C367 1.429 . S
C371 C372 1.523 . S
C372 C356 1.368 . S
C372 C368 1.368 . S
C372 C371 1.523 . S
H373 C348 0.950 . S
H374 C350 0.950 . S
H375 C351 0.949 . S
H376 C353 0.950 . S
H377 C355 0.950 . S
C378 C379 1.349 . S
C378 C380 1.327 . S
C378 H403 0.950 . S
C379 C378 1.349 . S
C379 C395 1.349 . S
C380 C378 1.327 . S
C380 C399 1.429 . S
C380 H404 0.950 . S
C381 C398 1.574 . S
C381 C400 1.368 . S
C381 H405 0.949 . S
H382 C386 0.949 . S
C383 C384 1.349 . S
C383 C385 1.327 . S
C383 H406 0.950 . S
C384 C383 1.349 . S
C384 C396 1.349 . S
C385 C383 1.327 . S
C385 C401 1.429 . S
C385 H407 0.950 . S
C386 H382 0.949 . S
C386 C394 1.574 . S
C386 C402 1.368 . S
H387 C395 0.950 . S
H388 C393 0.950 . S
H389 C394 0.949 . S
H390 C396 0.950 1_554 S
H391 C397 0.950 1_554 S
H392 C398 0.949 . S
C393 H388 0.950 . S
C393 C395 1.327 . S
C393 C399 1.429 . S
C394 C386 1.574 . S
C394 H389 0.949 . S
C394 C400 1.368 . S
C395 C379 1.349 . S
C395 H387 0.950 . S
C395 C393 1.327 . S
C396 C384 1.349 . S
C396 H390 0.950 1_556 S
C396 C397 1.327 . S
C397 H391 0.950 1_556 S
C397 C396 1.327 . S
C397 C401 1.429 . S
C398 C381 1.574 . S
C398 H392 0.949 . S
C398 C402 1.368 . S
C399 C380 1.429 . S
C399 C393 1.429 . S
C399 C400 1.523 . S
C400 C381 1.368 . S
C400 C394 1.368 . S
C400 C399 1.523 . S
C401 C385 1.429 . S
C401 C397 1.429 . S
C401 C402 1.523 . S
C402 C386 1.368 . S
C402 C398 1.368 . S
C402 C401 1.523 . S
H403 C378 0.950 . S
H404 C380 0.950 . S
H405 C381 0.949 . S
H406 C383 0.950 . S
H407 C385 0.950 . S
C408 C409 1.349 1_554 S
C408 C410 1.327 1_554 S
C408 H433 0.950 . S
C409 C408 1.349 1_556 S
C409 C425 1.349 . S
C410 C408 1.327 1_556 S
C410 C429 1.429 . S
C410 H434 0.950 1_556 S
C411 C428 1.574 . S
C411 C430 1.368 . S
C411 H435 0.949 . S
H412 C416 0.949 . S
C413 C414 1.349 . S
C413 C415 1.327 . S
C413 H436 0.950 . S
C414 C413 1.349 . S
C414 C426 1.349 . S
C415 C413 1.327 . S
C415 C431 1.429 . S
C415 H437 0.950 . S
C416 H412 0.949 . S
C416 C424 1.574 . S
C416 C432 1.368 . S
H417 C425 0.950 . S
H418 C423 0.950 . S
H419 C424 0.949 . S
H420 C426 0.950 . S
H421 C427 0.950 . S
H422 C428 0.949 . S
C423 H418 0.950 . S
C423 C425 1.327 . S
C423 C429 1.429 . S
C424 C416 1.574 . S
C424 H419 0.949 . S
C424 C430 1.368 . S
C425 C409 1.349 . S
C425 H417 0.950 . S
C425 C423 1.327 . S
C426 C414 1.349 . S
C426 H420 0.950 . S
C426 C427 1.327 . S
C427 H421 0.950 . S
C427 C426 1.327 . S
C427 C431 1.429 . S
C428 C411 1.574 . S
C428 H422 0.949 . S
C428 C432 1.368 . S
C429 C410 1.429 . S
C429 C423 1.429 . S
C429 C430 1.523 . S
C430 C411 1.368 . S
C430 C424 1.368 . S
C430 C429 1.523 . S
C431 C415 1.429 . S
C431 C427 1.429 . S
C431 C432 1.523 . S
C432 C416 1.368 . S
C432 C428 1.368 . S
C432 C431 1.523 . S
H433 C408 0.950 . S
H434 C410 0.950 1_554 S
H435 C411 0.949 . S
H436 C413 0.950 . S
H437 C415 0.950 . S
C438 C439 1.349 . S
C438 C440 1.327 . S
C438 H463 0.950 . S
C439 C438 1.349 . S
C439 C455 1.349 . S
C440 C438 1.327 . S
C440 C459 1.429 . S
C440 H464 0.950 . S
C441 C458 1.574 . S
C441 C460 1.368 . S
C441 H465 0.949 . S
H442 C446 0.949 . S
C443 C444 1.349 . S
C443 C445 1.327 . S
C443 H466 0.950 . S
C444 C443 1.349 . S
C444 C456 1.349 . S
C445 C443 1.327 . S
C445 C461 1.429 . S
C445 H467 0.950 . S
C446 H442 0.949 . S
C446 C454 1.574 . S
C446 C462 1.368 . S
H447 C455 0.950 . S
H448 C453 0.950 . S
H449 C454 0.949 . S
H450 C456 0.950 1_556 S
H451 C457 0.950 . S
H452 C458 0.949 . S
C453 H448 0.950 . S
C453 C455 1.327 . S
C453 C459 1.429 . S
C454 C446 1.574 . S
C454 H449 0.949 . S
C454 C460 1.368 . S
C455 C439 1.349 . S
C455 H447 0.950 . S
C455 C453 1.327 . S
C456 C444 1.349 . S
C456 H450 0.950 1_554 S
C456 C457 1.327 . S
C457 H451 0.950 . S
C457 C456 1.327 . S
C457 C461 1.429 . S
C458 C441 1.574 . S
C458 H452 0.949 . S
C458 C462 1.368 . S
C459 C440 1.429 . S
C459 C453 1.429 . S
C459 C460 1.523 . S
C460 C441 1.368 . S
C460 C454 1.368 . S
C460 C459 1.523 . S
C461 C445 1.429 . S
C461 C457 1.429 . S
C461 C462 1.523 . S
C462 C446 1.368 . S
C462 C458 1.368 . S
C462 C461 1.523 . S
H463 C438 0.950 . S
H464 C440 0.950 . S
H465 C441 0.949 . S
H466 C443 0.950 . S
H467 C445 0.950 . S
C468 C469 1.349 . S
C468 C470 1.327 . S
C468 H493 0.950 . S
C469 C468 1.349 . S
C469 C485 1.349 . S
C470 C468 1.327 . S
C470 C489 1.429 . S
C470 H494 0.950 . S
C471 C488 1.574 . S
C471 C490 1.368 . S
C471 H495 0.949 . S
H472 C476 0.949 . S
C473 C474 1.349 . S
C473 C475 1.327 . S
C473 H496 0.950 . S
C474 C473 1.349 . S
C474 C486 1.349 . S
C475 C473 1.327 . S
C475 C491 1.429 . S
C475 H497 0.950 . S
C476 H472 0.949 . S
C476 C484 1.574 . S
C476 C492 1.368 . S
H477 C485 0.950 . S
H478 C483 0.950 . S
H479 C484 0.949 . S
H480 C486 0.950 . S
H481 C487 0.950 . S
H482 C488 0.949 . S
C483 H478 0.950 . S
C483 C485 1.327 . S
C483 C489 1.429 . S
C484 C476 1.574 . S
C484 H479 0.949 . S
C484 C490 1.368 . S
C485 C469 1.349 . S
C485 H477 0.950 . S
C485 C483 1.327 . S
C486 C474 1.349 . S
C486 H480 0.950 . S
C486 C487 1.327 . S
C487 H481 0.950 . S
C487 C486 1.327 . S
C487 C491 1.429 . S
C488 C471 1.574 . S
C488 H482 0.949 . S
C488 C492 1.368 . S
C489 C470 1.429 . S
C489 C483 1.429 . S
C489 C490 1.523 . S
C490 C471 1.368 . S
C490 C484 1.368 . S
C490 C489 1.523 . S
C491 C475 1.429 . S
C491 C487 1.429 . S
C491 C492 1.523 . S
C492 C476 1.368 . S
C492 C488 1.368 . S
C492 C491 1.523 . S
H493 C468 0.950 . S
H494 C470 0.950 . S
H495 C471 0.949 . S
H496 C473 0.950 . S
H497 C475 0.950 . S
C498 C499 1.349 . S
C498 C500 1.327 . S
C498 H523 0.950 . S
C499 C498 1.349 . S
C499 C515 1.349 . S
C500 C498 1.327 . S
C500 C519 1.429 . S
C500 H524 0.950 . S
C501 C518 1.574 . S
C501 C520 1.368 . S
C501 H525 0.949 . S
H502 C506 0.949 . S
C503 C504 1.349 . S
C503 C505 1.327 . S
C503 H526 0.950 . S
C504 C503 1.349 . S
C504 C516 1.349 . S
C505 C503 1.327 . S
C505 C521 1.429 . S
C505 H527 0.950 . S
C506 H502 0.949 . S
C506 C514 1.574 . S
C506 C522 1.368 . S
H507 C515 0.950 . S
H508 C513 0.950 . S
H509 C514 0.949 . S
H510 C516 0.950 . S
H511 C517 0.950 . S
H512 C518 0.949 . S
C513 H508 0.950 . S
C513 C515 1.327 . S
C513 C519 1.429 . S
C514 C506 1.574 . S
C514 H509 0.949 . S
C514 C520 1.368 . S
C515 C499 1.349 . S
C515 H507 0.950 . S
C515 C513 1.327 . S
C516 C504 1.349 . S
C516 H510 0.950 . S
C516 C517 1.327 . S
C517 H511 0.950 . S
C517 C516 1.327 . S
C517 C521 1.429 . S
C518 C501 1.574 . S
C518 H512 0.949 . S
C518 C522 1.368 . S
C519 C500 1.429 . S
C519 C513 1.429 . S
C519 C520 1.523 . S
C520 C501 1.368 . S
C520 C514 1.368 . S
C520 C519 1.523 . S
C521 C505 1.429 . S
C521 C517 1.429 . S
C521 C522 1.523 . S
C522 C506 1.368 . S
C522 C518 1.368 . S
C522 C521 1.523 . S
H523 C498 0.950 . S
H524 C500 0.950 . S
H525 C501 0.949 . S
H526 C503 0.950 . S
H527 C505 0.950 . S
C528 C529 1.349 . S
C528 C530 1.327 . S
C528 H553 0.950 . S
C529 C528 1.349 . S
C529 C545 1.349 . S
C530 C528 1.327 . S
C530 C549 1.429 . S
C530 H554 0.950 . S
C531 C548 1.574 . S
C531 C550 1.368 . S
C531 H555 0.949 . S
H532 C536 0.949 . S
C533 C534 1.349 . S
C533 C535 1.327 . S
C533 H556 0.950 . S
C534 C533 1.349 . S
C534 C546 1.349 . S
C535 C533 1.327 . S
C535 C551 1.429 . S
C535 H557 0.950 . S
C536 H532 0.949 . S
C536 C544 1.574 . S
C536 C552 1.368 . S
H537 C545 0.950 . S
H538 C543 0.950 . S
H539 C544 0.949 . S
H540 C546 0.950 1_556 S
H541 C547 0.950 . S
H542 C548 0.949 . S
C543 H538 0.950 . S
C543 C545 1.327 . S
C543 C549 1.429 . S
C544 C536 1.574 . S
C544 H539 0.949 . S
C544 C550 1.368 . S
C545 C529 1.349 . S
C545 H537 0.950 . S
C545 C543 1.327 . S
C546 C534 1.349 . S
C546 H540 0.950 1_554 S
C546 C547 1.327 . S
C547 H541 0.950 . S
C547 C546 1.327 . S
C547 C551 1.429 . S
C548 C531 1.574 . S
C548 H542 0.949 . S
C548 C552 1.368 . S
C549 C530 1.429 . S
C549 C543 1.429 . S
C549 C550 1.523 . S
C550 C531 1.368 . S
C550 C544 1.368 . S
C550 C549 1.523 . S
C551 C535 1.429 . S
C551 C547 1.429 . S
C551 C552 1.523 . S
C552 C536 1.368 . S
C552 C548 1.368 . S
C552 C551 1.523 . S
H553 C528 0.950 . S
H554 C530 0.950 . S
H555 C531 0.949 . S
H556 C533 0.950 . S
H557 C535 0.950 . S
C558 C559 1.349 . S
C558 C560 1.327 . S
C558 H583 0.950 . S
C559 C558 1.349 . S
C559 C575 1.349 . S
C560 C558 1.327 . S
C560 C579 1.429 . S
C560 H584 0.950 . S
C561 C578 1.574 . S
C561 C580 1.368 . S
C561 H585 0.949 . S
H562 C566 0.949 . S
C563 C564 1.349 . S
C563 C565 1.327 . S
C563 H586 0.950 . S
C564 C563 1.349 . S
C564 C576 1.349 . S
C565 C563 1.327 . S
C565 C581 1.429 . S
C565 H587 0.950 . S
C566 H562 0.949 . S
C566 C574 1.574 . S
C566 C582 1.368 . S
H567 C575 0.950 . S
H568 C573 0.950 . S
H569 C574 0.949 . S
H570 C576 0.950 . S
H571 C577 0.950 . S
H572 C578 0.949 . S
C573 H568 0.950 . S
C573 C575 1.327 . S
C573 C579 1.429 . S
C574 C566 1.574 . S
C574 H569 0.949 . S
C574 C580 1.368 . S
C575 C559 1.349 . S
C575 H567 0.950 . S
C575 C573 1.327 . S
C576 C564 1.349 . S
C576 H570 0.950 . S
C576 C577 1.327 . S
C577 H571 0.950 . S
C577 C576 1.327 . S
C577 C581 1.429 . S
C578 C561 1.574 . S
C578 H572 0.949 . S
C578 C582 1.368 . S
C579 C560 1.429 . S
C579 C573 1.429 . S
C579 C580 1.523 . S
C580 C561 1.368 . S
C580 C574 1.368 . S
C580 C579 1.523 . S
C581 C565 1.429 . S
C581 C577 1.429 . S
C581 C582 1.523 . S
C582 C566 1.368 . S
C582 C578 1.368 . S
C582 C581 1.523 . S
H583 C558 0.950 . S
H584 C560 0.950 . S
H585 C561 0.949 . S
H586 C563 0.950 . S
H587 C565 0.950 . S
C588 C589 1.349 . S
C588 C590 1.327 . S
C588 H613 0.950 . S
C589 C588 1.349 . S
C589 C605 1.349 . S
C590 C588 1.327 . S
C590 C609 1.429 . S
C590 H614 0.950 . S
C591 C608 1.574 . S
C591 C610 1.368 . S
C591 H615 0.949 . S
H592 C596 0.949 . S
C593 C594 1.349 . S
C593 C595 1.327 . S
C593 H616 0.950 . S
C594 C593 1.349 . S
C594 C606 1.349 . S
C595 C593 1.327 . S
C595 C611 1.429 . S
C595 H617 0.950 . S
C596 H592 0.949 . S
C596 C604 1.574 . S
C596 C612 1.368 . S
H597 C605 0.950 . S
H598 C603 0.950 . S
H599 C604 0.949 . S
H600 C606 0.950 . S
H601 C607 0.950 . S
H602 C608 0.949 . S
C603 H598 0.950 . S
C603 C605 1.327 . S
C603 C609 1.429 . S
C604 C596 1.574 . S
C604 H599 0.949 . S
C604 C610 1.368 . S
C605 C589 1.349 . S
C605 H597 0.950 . S
C605 C603 1.327 . S
C606 C594 1.349 . S
C606 H600 0.950 . S
C606 C607 1.327 . S
C607 H601 0.950 . S
C607 C606 1.327 . S
C607 C611 1.429 . S
C608 C591 1.574 . S
C608 H602 0.949 . S
C608 C612 1.368 . S
C609 C590 1.429 . S
C609 C603 1.429 . S
C609 C610 1.523 . S
C610 C591 1.368 . S
C610 C604 1.368 . S
C610 C609 1.523 . S
C611 C595 1.429 . S
C611 C607 1.429 . S
C611 C612 1.523 . S
C612 C596 1.368 . S
C612 C608 1.368 . S
C612 C611 1.523 . S
H613 C588 0.950 . S
H614 C590 0.950 . S
H615 C591 0.949 . S
H616 C593 0.950 . S
H617 C595 0.950 . S
C618 C619 1.349 . S
C618 C620 1.327 . S
C618 H643 0.950 . S
C619 C618 1.349 . S
C619 C635 1.349 . S
C620 C618 1.327 . S
C620 C639 1.429 . S
C620 H644 0.950 . S
C621 C638 1.574 . S
C621 C640 1.368 . S
C621 H645 0.949 . S
H622 C626 0.949 . S
C623 C624 1.349 . S
C623 C625 1.327 . S
C623 H646 0.950 . S
C624 C623 1.349 . S
C624 C636 1.349 . S
C625 C623 1.327 . S
C625 C641 1.429 . S
C625 H647 0.950 . S
C626 H622 0.949 . S
C626 C634 1.574 . S
C626 C642 1.368 . S
H627 C635 0.950 . S
H628 C633 0.950 . S
H629 C634 0.949 . S
H630 C636 0.950 . S
H631 C637 0.950 . S
H632 C638 0.949 . S
C633 H628 0.950 . S
C633 C635 1.327 . S
C633 C639 1.429 . S
C634 C626 1.574 . S
C634 H629 0.949 . S
C634 C640 1.368 . S
C635 C619 1.349 . S
C635 H627 0.950 . S
C635 C633 1.327 . S
C636 C624 1.349 . S
C636 H630 0.950 . S
C636 C637 1.327 . S
C637 H631 0.950 . S
C637 C636 1.327 . S
C637 C641 1.429 . S
C638 C621 1.574 . S
C638 H632 0.949 . S
C638 C642 1.368 . S
C639 C620 1.429 . S
C639 C633 1.429 . S
C639 C640 1.523 . S
C640 C621 1.368 . S
C640 C634 1.368 . S
C640 C639 1.523 . S
C641 C625 1.429 . S
C641 C637 1.429 . S
C641 C642 1.523 . S
C642 C626 1.368 . S
C642 C638 1.368 . S
C642 C641 1.523 . S
H643 C618 0.950 . S
H644 C620 0.950 . S
H645 C621 0.949 . S
H646 C623 0.950 . S
H647 C625 0.950 . S
C648 C649 1.349 1_565 S
C648 C650 1.327 . S
C648 H673 0.950 . S
C649 C648 1.349 1_545 S
C649 C665 1.349 1_455 S
C650 C648 1.327 . S
C650 C669 1.429 1_565 S
C650 H674 0.950 . S
C651 C668 1.574 1_556 S
C651 C670 1.368 1_655 S
C651 H675 0.949 . S
H652 C656 0.949 . S
C653 C654 1.386 1_655 S
C653 C655 1.327 . S
C653 H676 0.950 . S
C654 C653 1.386 1_455 S
C654 C666 1.316 1_545 S
C655 C653 1.327 . S
C655 C671 1.429 1_655 S
C655 H677 0.950 . S
C656 H652 0.949 . S
C656 C664 1.574 1_554 S
C656 C672 1.368 1_565 S
H657 C665 0.950 . S
H658 C663 0.950 . S
H659 C664 0.949 . S
H660 C666 0.950 . S
H661 C667 0.950 . S
H662 C668 0.949 . S
C663 H658 0.950 . S
C663 C665 1.327 . S
C663 C669 1.429 1_655 S
C664 C656 1.574 1_556 S
C664 H659 0.949 . S
C664 C670 1.368 1_565 S
C665 C649 1.349 1_655 S
C665 H657 0.950 . S
C665 C663 1.327 . S
C666 C654 1.316 1_565 S
C666 H660 0.950 . S
C666 C667 1.327 . S
C667 H661 0.950 . S
C667 C666 1.327 . S
C667 C671 1.429 1_565 S
C668 C651 1.574 1_554 S
C668 H662 0.949 . S
C668 C672 1.368 1_655 S
C669 C650 1.429 1_545 S
C669 C663 1.429 1_455 S
C669 C670 1.523 . S
C670 C651 1.368 1_455 S
C670 C664 1.368 1_545 S
C670 C669 1.523 . S
C671 C655 1.429 1_455 S
C671 C667 1.429 1_545 S
C671 C672 1.523 . S
C672 C656 1.368 1_545 S
C672 C668 1.368 1_455 S
C672 C671 1.523 . S
H673 C648 0.950 . S
H674 C650 0.950 . S
H675 C651 0.949 . S
H676 C653 0.950 . S
H677 C655 0.950 . S
C678 C679 1.349 . S
C678 C680 1.327 . S
C678 H703 0.950 . S
C679 C678 1.349 . S
C679 C695 1.349 . S
C680 C678 1.327 . S
C680 C699 1.429 . S
C680 H704 0.950 . S
C681 C698 1.574 . S
C681 C700 1.368 . S
C681 H705 0.949 . S
H682 C686 0.949 . S
C683 C684 1.349 1_554 S
C683 C685 1.327 . S
C683 H706 0.950 1_554 S
C684 C683 1.349 1_556 S
C684 C696 1.349 1_556 S
C685 C683 1.327 . S
C685 C701 1.429 . S
C685 H707 0.950 . S
C686 H682 0.949 . S
C686 C694 1.574 . S
C686 C702 1.368 . S
H687 C695 0.950 . S
H688 C693 0.950 . S
H689 C694 0.949 . S
H690 C696 0.950 1_556 S
H691 C697 0.950 . S
H692 C698 0.949 . S
C693 H688 0.950 . S
C693 C695 1.327 . S
C693 C699 1.429 . S
C694 C686 1.574 . S
C694 H689 0.949 . S
C694 C700 1.368 . S
C695 C679 1.349 . S
C695 H687 0.950 . S
C695 C693 1.327 . S
C696 C684 1.349 1_554 S
C696 H690 0.950 1_554 S
C696 C697 1.327 . S
C697 H691 0.950 . S
C697 C696 1.327 . S
C697 C701 1.429 . S
C698 C681 1.574 . S
C698 H692 0.949 . S
C698 C702 1.368 . S
C699 C680 1.429 . S
C699 C693 1.429 . S
C699 C700 1.523 . S
C700 C681 1.368 . S
C700 C694 1.368 . S
C700 C699 1.523 . S
C701 C685 1.429 . S
C701 C697 1.429 . S
C701 C702 1.523 . S
C702 C686 1.368 . S
C702 C698 1.368 . S
C702 C701 1.523 . S
H703 C678 0.950 . S
H704 C680 0.950 . S
H705 C681 0.949 . S
H706 C683 0.950 1_556 S
H707 C685 0.950 . S
C708 C709 1.349 1_565 S
C708 C710 1.327 . S
C708 H733 0.950 . S
C709 C708 1.349 1_545 S
C709 C725 1.349 . S
C710 C708 1.327 . S
C710 C729 1.429 1_565 S
C710 H734 0.950 . S
C711 C728 1.574 . S
C711 C730 1.368 . S
C711 H735 0.949 . S
H712 C716 0.949 . S
C713 C714 1.349 . S
C713 C715 1.327 . S
C713 H736 0.950 . S
C714 C713 1.349 . S
C714 C726 1.349 1_545 S
C715 C713 1.327 . S
C715 C731 1.429 . S
C715 H737 0.950 . S
C716 H712 0.949 . S
C716 C724 1.574 . S
C716 C732 1.368 1_565 S
H717 C725 0.950 . S
H718 C723 0.950 . S
H719 C724 0.949 . S
H720 C726 0.950 . S
H721 C727 0.950 . S
H722 C728 0.949 . S
C723 H718 0.950 . S
C723 C725 1.327 . S
C723 C729 1.429 . S
C724 C716 1.574 . S
C724 H719 0.949 . S
C724 C730 1.368 1_565 S
C725 C709 1.349 . S
C725 H717 0.950 . S
C725 C723 1.327 . S
C726 C714 1.349 1_565 S
C726 H720 0.950 . S
C726 C727 1.327 . S
C727 H721 0.950 . S
C727 C726 1.327 . S
C727 C731 1.429 1_565 S
C728 C711 1.574 . S
C728 H722 0.949 . S
C728 C732 1.368 . S
C729 C710 1.429 1_545 S
C729 C723 1.429 . S
C729 C730 1.523 . S
C730 C711 1.368 . S
C730 C724 1.368 1_545 S
C730 C729 1.523 . S
C731 C715 1.429 . S
C731 C727 1.429 1_545 S
C731 C732 1.523 . S
C732 C716 1.368 1_545 S
C732 C728 1.368 . S
C732 C731 1.523 . S
H733 C708 0.950 . S
H734 C710 0.950 . S
H735 C711 0.949 . S
H736 C713 0.950 . S
H737 C715 0.950 . S
C738 C739 1.349 1_556 S
C738 C740 1.327 . S
C738 H763 0.950 1_556 S
C739 C738 1.349 1_554 S
C739 C755 1.349 1_554 S
C740 C738 1.327 . S
C740 C759 1.429 . S
C740 H764 0.950 . S
C741 C758 1.574 . S
C741 C760 1.368 . S
C741 H765 0.949 . S
H742 C746 0.949 . S
C743 C744 1.349 . S
C743 C745 1.327 . S
C743 H766 0.950 . S
C744 C743 1.349 . S
C744 C756 1.349 . S
C745 C743 1.327 . S
C745 C761 1.429 . S
C745 H767 0.950 . S
C746 H742 0.949 . S
C746 C754 1.574 . S
C746 C762 1.368 . S
H747 C755 0.950 1_554 S
H748 C753 0.950 . S
H749 C754 0.949 . S
H750 C756 0.950 . S
H751 C757 0.950 . S
H752 C758 0.949 . S
C753 H748 0.950 . S
C753 C755 1.327 . S
C753 C759 1.429 . S
C754 C746 1.574 . S
C754 H749 0.949 . S
C754 C760 1.368 . S
C755 C739 1.349 1_556 S
C755 H747 0.950 1_556 S
C755 C753 1.327 . S
C756 C744 1.349 . S
C756 H750 0.950 . S
C756 C757 1.327 . S
C757 H751 0.950 . S
C757 C756 1.327 . S
C757 C761 1.429 . S
C758 C741 1.574 . S
C758 H752 0.949 . S
C758 C762 1.368 . S
C759 C740 1.429 . S
C759 C753 1.429 . S
C759 C760 1.523 . S
C760 C741 1.368 . S
C760 C754 1.368 . S
C760 C759 1.523 . S
C761 C745 1.429 . S
C761 C757 1.429 . S
C761 C762 1.523 . S
C762 C746 1.368 . S
C762 C758 1.368 . S
C762 C761 1.523 . S
H763 C738 0.950 1_554 S
H764 C740 0.950 . S
H765 C741 0.949 . S
H766 C743 0.950 . S
H767 C745 0.950 . S
C768 C769 1.349 . S
C768 C770 1.327 1_554 S
C768 H793 0.950 . S
C769 C768 1.349 . S
C769 C785 1.349 . S
C770 C768 1.327 1_556 S
C770 C789 1.429 . S
C770 H794 0.950 . S
C771 C788 1.574 . S
C771 C790 1.368 . S
C771 H795 0.949 . S
H772 C776 0.949 . S
C773 C774 1.349 . S
C773 C775 1.327 . S
C773 H796 0.950 . S
C774 C773 1.349 . S
C774 C786 1.349 . S
C775 C773 1.327 . S
C775 C791 1.429 . S
C775 H797 0.950 . S
C776 H772 0.949 . S
C776 C784 1.574 . S
C776 C792 1.368 . S
H777 C785 0.950 . S
H778 C783 0.950 . S
H779 C784 0.949 . S
H780 C786 0.950 . S
H781 C787 0.950 . S
H782 C788 0.949 . S
C783 H778 0.950 . S
C783 C785 1.327 1_556 S
C783 C789 1.429 . S
C784 C776 1.574 . S
C784 H779 0.949 . S
C784 C790 1.368 . S
C785 C769 1.349 . S
C785 H777 0.950 . S
C785 C783 1.327 1_554 S
C786 C774 1.349 . S
C786 H780 0.950 . S
C786 C787 1.327 . S
C787 H781 0.950 . S
C787 C786 1.327 . S
C787 C791 1.429 . S
C788 C771 1.574 . S
C788 H782 0.949 . S
C788 C792 1.368 . S
C789 C770 1.429 . S
C789 C783 1.429 . S
C789 C790 1.523 . S
C790 C771 1.368 . S
C790 C784 1.368 . S
C790 C789 1.523 . S
C791 C775 1.429 . S
C791 C787 1.429 . S
C791 C792 1.523 . S
C792 C776 1.368 . S
C792 C788 1.368 . S
C792 C791 1.523 . S
H793 C768 0.950 . S
H794 C770 0.950 . S
H795 C771 0.949 . S
H796 C773 0.950 . S
H797 C775 0.950 . S
C798 C799 1.349 . S
C798 C800 1.327 . S
C798 H823 0.950 . S
C799 C798 1.349 . S
C799 C815 1.349 . S
C800 C798 1.327 . S
C800 C819 1.429 . S
C800 H824 0.950 . S
C801 C818 1.574 . S
C801 C820 1.368 . S
C801 H825 0.949 . S
H802 C806 0.949 . S
C803 C804 1.349 . S
C803 C805 1.327 1_556 S
C803 H826 0.950 . S
C804 C803 1.349 . S
C804 C816 1.349 . S
C805 C803 1.327 1_554 S
C805 C821 1.429 . S
C805 H827 0.950 . S
C806 H802 0.949 . S
C806 C814 1.574 . S
C806 C822 1.368 . S
H807 C815 0.950 . S
H808 C813 0.950 . S
H809 C814 0.949 . S
H810 C816 0.950 . S
H811 C817 0.950 . S
H812 C818 0.949 . S
C813 H808 0.950 . S
C813 C815 1.327 . S
C813 C819 1.429 . S
C814 C806 1.574 . S
C814 H809 0.949 . S
C814 C820 1.368 . S
C815 C799 1.349 . S
C815 H807 0.950 . S
C815 C813 1.327 . S
C816 C804 1.349 . S
C816 H810 0.950 . S
C816 C817 1.327 1_556 S
C817 H811 0.950 . S
C817 C816 1.327 1_554 S
C817 C821 1.429 . S
C818 C801 1.574 . S
C818 H812 0.949 . S
C818 C822 1.368 . S
C819 C800 1.429 . S
C819 C813 1.429 . S
C819 C820 1.523 . S
C820 C801 1.368 . S
C820 C814 1.368 . S
C820 C819 1.523 . S
C821 C805 1.429 . S
C821 C817 1.429 . S
C821 C822 1.523 . S
C822 C806 1.368 . S
C822 C818 1.368 . S
C822 C821 1.523 . S
H823 C798 0.950 . S
H824 C800 0.950 . S
H825 C801 0.949 . S
H826 C803 0.950 . S
H827 C805 0.950 . S
C828 C829 1.349 . S
C828 C830 1.327 . S
C828 H853 0.950 . S
C829 C828 1.349 . S
C829 C845 1.349 . S
C830 C828 1.327 . S
C830 C849 1.429 . S
C830 H854 0.950 . S
C831 C848 1.574 . S
C831 C850 1.368 . S
C831 H855 0.949 . S
H832 C836 0.949 . S
C833 C834 1.349 . S
C833 C835 1.327 . S
C833 H856 0.950 . S
C834 C833 1.349 . S
C834 C846 1.349 . S
C835 C833 1.327 . S
C835 C851 1.429 . S
C835 H857 0.950 . S
C836 H832 0.949 . S
C836 C844 1.574 . S
C836 C852 1.368 . S
H837 C845 0.950 . S
H838 C843 0.950 . S
H839 C844 0.949 . S
H840 C846 0.950 . S
H841 C847 0.950 . S
H842 C848 0.949 . S
C843 H838 0.950 . S
C843 C845 1.327 . S
C843 C849 1.429 . S
C844 C836 1.574 . S
C844 H839 0.949 . S
C844 C850 1.368 . S
C845 C829 1.349 . S
C845 H837 0.950 . S
C845 C843 1.327 . S
C846 C834 1.349 . S
C846 H840 0.950 . S
C846 C847 1.327 . S
C847 H841 0.950 . S
C847 C846 1.327 . S
C847 C851 1.429 . S
C848 C831 1.574 . S
C848 H842 0.949 . S
C848 C852 1.368 . S
C849 C830 1.429 . S
C849 C843 1.429 . S
C849 C850 1.523 . S
C850 C831 1.368 . S
C850 C844 1.368 . S
C850 C849 1.523 . S
C851 C835 1.429 . S
C851 C847 1.429 . S
C851 C852 1.523 . S
C852 C836 1.368 . S
C852 C848 1.368 . S
C852 C851 1.523 . S
H853 C828 0.950 . S
H854 C830 0.950 . S
H855 C831 0.949 . S
H856 C833 0.950 . S
H857 C835 0.950 . S
C858 C859 1.349 . S
C858 C860 1.327 . S
C858 H883 0.950 . S
C859 C858 1.349 . S
C859 C875 1.349 1_455 S
C860 C858 1.327 . S
C860 C879 1.429 . S
C860 H884 0.950 . S
C861 C878 1.574 1_556 S
C861 C880 1.368 1_655 S
C861 H885 0.949 . S
H862 C866 0.949 . S
C863 C864 1.349 1_655 S
C863 C865 1.327 . S
C863 H886 0.950 . S
C864 C863 1.349 1_455 S
C864 C876 1.349 . S
C865 C863 1.327 . S
C865 C881 1.429 1_655 S
C865 H887 0.950 . S
C866 H862 0.949 . S
C866 C874 1.574 1_554 S
C866 C882 1.368 . S
H867 C875 0.950 . S
H868 C873 0.950 . S
H869 C874 0.949 . S
H870 C876 0.950 . S
H871 C877 0.950 . S
H872 C878 0.949 . S
C873 H868 0.950 . S
C873 C875 1.327 . S
C873 C879 1.429 1_655 S
C874 C866 1.574 1_556 S
C874 H869 0.949 . S
C874 C880 1.368 . S
C875 C859 1.349 1_655 S
C875 H867 0.950 . S
C875 C873 1.327 . S
C876 C864 1.349 . S
C876 H870 0.950 . S
C876 C877 1.327 . S
C877 H871 0.950 . S
C877 C876 1.327 . S
C877 C881 1.429 . S
C878 C861 1.574 1_554 S
C878 H872 0.949 . S
C878 C882 1.368 1_655 S
C879 C860 1.429 . S
C879 C873 1.429 1_455 S
C879 C880 1.523 . S
C880 C861 1.368 1_455 S
C880 C874 1.368 . S
C880 C879 1.523 . S
C881 C865 1.429 1_455 S
C881 C877 1.429 . S
C881 C882 1.523 . S
C882 C866 1.368 . S
C882 C878 1.368 1_455 S
C882 C881 1.523 . S
H883 C858 0.950 . S
H884 C860 0.950 . S
H885 C861 0.949 . S
H886 C863 0.950 . S
H887 C865 0.950 . S
C169 C15 1.269 . S
C174 C78 1.269 . S
C199 C16 1.327 . S
C204 C36 1.453 . S
C229 C37 1.494 . S
C234 C58 1.495 . S
C259 C57 1.453 . S
C264 C79 1.326 . S
C289 C14 1.514 . S
C294 C119 1.514 . S
C319 C13 1.296 . S
C324 C98 1.428 . S
C349 C97 1.222 . S
C354 C55 1.221 . S
C379 C118 1.296 . S
C384 C56 1.428 . S
C409 C141 1.269 . S
C414 C120 1.269 . S
C439 C99 1.453 . S
C444 C142 1.327 . S
C469 C163 1.494 . S
C474 C100 1.494 . S
C499 C121 1.327 . S
C504 C162 1.453 . S
C529 C77 1.514 . S
C534 C140 1.514 . S
C559 C139 1.296 . S
C564 C35 1.428 . S
C589 C34 1.222 . S
C594 C160 1.222 . S
C619 C76 1.296 . S
C624 C161 1.428 . S
C649 C18 1.293 1_455 S
C654 C17 1.293 1_545 S
C679 C38 1.292 . S
C684 C39 1.288 . S
C709 C60 1.288 . S
C714 C59 1.292 1_545 S
C739 C81 1.293 . S
C744 C80 1.298 . S
C769 C101 1.292 . S
C774 C102 1.288 . S
C799 C123 1.293 . S
C804 C122 1.298 . S
C829 C143 1.298 . S
C834 C144 1.293 . S
C859 C164 1.292 1_455 S
C864 C165 1.288 . S
