# Generated by pormake.
# Topology umd, (4)-cn, num edge types: 1
# Building blocks:
#     Node 0, Type 0, BuildingBlock: GALJAG_clean_sbu_0, # of connection points: 4
#     Node 1, Type 0, BuildingBlock: GALJAG_clean_sbu_0, # of connection points: 4
#     Node 2, Type 0, BuildingBlock: GALJAG_clean_sbu_0, # of connection points: 4
#     Node 3, Type 0, BuildingBlock: GALJAG_clean_sbu_0, # of connection points: 4
#     Node 4, Type 0, BuildingBlock: GALJAG_clean_sbu_0, # of connection points: 4
#     Node 5, Type 0, BuildingBlock: GALJAG_clean_sbu_0, # of connection points: 4
#     Node 6, Type 0, BuildingBlock: GALJAG_clean_sbu_0, # of connection points: 4
#     Node 7, Type 0, BuildingBlock: GALJAG_clean_sbu_0, # of connection points: 4
#     Node 8, Type 0, BuildingBlock: GALJAG_clean_sbu_0, # of connection points: 4
#     Node 9, Type 0, BuildingBlock: GALJAG_clean_sbu_0, # of connection points: 4
#     Node 10, Type 0, BuildingBlock: GALJAG_clean_sbu_0, # of connection points: 4
#     Node 11, Type 0, BuildingBlock: GALJAG_clean_sbu_0, # of connection points: 4
#     Node 12, Type 0, BuildingBlock: GALJAG_clean_sbu_0, # of connection points: 4
#     Node 13, Type 0, BuildingBlock: GALJAG_clean_sbu_0, # of connection points: 4
#     Node 14, Type 0, BuildingBlock: GALJAG_clean_sbu_0, # of connection points: 4
#     Node 15, Type 0, BuildingBlock: GALJAG_clean_sbu_0, # of connection points: 4
#     Edge 16, Type (0, 0), BuildingBlock: EYOCIG_clean_linker_4, # of connection points: 2
#     Edge 17, Type (0, 0), BuildingBlock: EYOCIG_clean_linker_4, # of connection points: 2
#     Edge 18, Type (0, 0), BuildingBlock: EYOCIG_clean_linker_4, # of connection points: 2
#     Edge 19, Type (0, 0), BuildingBlock: EYOCIG_clean_linker_4, # of connection points: 2
#     Edge 20, Type (0, 0), BuildingBlock: EYOCIG_clean_linker_4, # of connection points: 2
#     Edge 21, Type (0, 0), BuildingBlock: EYOCIG_clean_linker_4, # of connection points: 2
#     Edge 22, Type (0, 0), BuildingBlock: EYOCIG_clean_linker_4, # of connection points: 2
#     Edge 23, Type (0, 0), BuildingBlock: EYOCIG_clean_linker_4, # of connection points: 2
#     Edge 24, Type (0, 0), BuildingBlock: EYOCIG_clean_linker_4, # of connection points: 2
#     Edge 25, Type (0, 0), BuildingBlock: EYOCIG_clean_linker_4, # of connection points: 2
#     Edge 26, Type (0, 0), BuildingBlock: EYOCIG_clean_linker_4, # of connection points: 2
#     Edge 27, Type (0, 0), BuildingBlock: EYOCIG_clean_linker_4, # of connection points: 2
#     Edge 28, Type (0, 0), BuildingBlock: EYOCIG_clean_linker_4, # of connection points: 2
#     Edge 29, Type (0, 0), BuildingBlock: EYOCIG_clean_linker_4, # of connection points: 2
#     Edge 30, Type (0, 0), BuildingBlock: EYOCIG_clean_linker_4, # of connection points: 2
#     Edge 31, Type (0, 0), BuildingBlock: EYOCIG_clean_linker_4, # of connection points: 2
#     Edge 32, Type (0, 0), BuildingBlock: EYOCIG_clean_linker_4, # of connection points: 2
#     Edge 33, Type (0, 0), BuildingBlock: EYOCIG_clean_linker_4, # of connection points: 2
#     Edge 34, Type (0, 0), BuildingBlock: EYOCIG_clean_linker_4, # of connection points: 2
#     Edge 35, Type (0, 0), BuildingBlock: EYOCIG_clean_linker_4, # of connection points: 2
#     Edge 36, Type (0, 0), BuildingBlock: EYOCIG_clean_linker_4, # of connection points: 2
#     Edge 37, Type (0, 0), BuildingBlock: EYOCIG_clean_linker_4, # of connection points: 2
#     Edge 38, Type (0, 0), BuildingBlock: EYOCIG_clean_linker_4, # of connection points: 2
#     Edge 39, Type (0, 0), BuildingBlock: EYOCIG_clean_linker_4, # of connection points: 2
#     Edge 40, Type (0, 0), BuildingBlock: EYOCIG_clean_linker_4, # of connection points: 2
#     Edge 41, Type (0, 0), BuildingBlock: EYOCIG_clean_linker_4, # of connection points: 2
#     Edge 42, Type (0, 0), BuildingBlock: EYOCIG_clean_linker_4, # of connection points: 2
#     Edge 43, Type (0, 0), BuildingBlock: EYOCIG_clean_linker_4, # of connection points: 2
#     Edge 44, Type (0, 0), BuildingBlock: EYOCIG_clean_linker_4, # of connection points: 2
#     Edge 45, Type (0, 0), BuildingBlock: EYOCIG_clean_linker_4, # of connection points: 2
#     Edge 46, Type (0, 0), BuildingBlock: EYOCIG_clean_linker_4, # of connection points: 2
#     Edge 47, Type (0, 0), BuildingBlock: EYOCIG_clean_linker_4, # of connection points: 2
# Relax obj value: 0.079
# Max RMSD: 0.208
# Mean RMSD: 0.208
data_MOF--net-umd--node1-GALJAG_clean_sbu_0--edge1-EYOCIG_clean_linker_4
_symmetry_space_group_name_H-M    P1
_symmetry_Int_Tables_number       1
_symmetry_cell_setting            triclinic
loop_
_symmetry_equiv_pos_as_xyz
'x, y, z'
_cell_length_a     31.860366
_cell_length_b     31.866499
_cell_length_c     45.138117
_cell_angle_alpha  89.997526
_cell_angle_beta   90.032452
_cell_angle_gamma 89.980044
loop_
_atom_site_label
_atom_site_type_symbol
_atom_site_fract_x
_atom_site_fract_y
_atom_site_fract_z
_atom_type_partial_charge
In0 In 0.17448 0.43224 0.12497 0.0
O1 O 0.17128 0.3603 0.12791 0.0
O2 O 0.23141 0.38959 0.12537 0.0
C3 C 0.09418 0.45836 0.12608 0.0
C4 C 0.19347 0.45317 0.06889 0.0
C5 C 0.19905 0.46219 0.1778 0.0
O6 O 0.10366 0.41989 0.12745 0.0
O7 O 0.12472 0.4833 0.12413 0.0
O8 O 0.21334 0.47691 0.15384 0.0
O9 O 0.17294 0.43277 0.17512 0.0
C10 C 0.2107 0.35603 0.12716 0.0
O11 O 0.20981 0.47199 0.09067 0.0
O12 O 0.16805 0.4243 0.07532 0.0
In13 In 0.56085 0.17376 0.62495 0.0
O14 O 0.52094 0.20896 0.59063 0.0
O15 O 0.56885 0.16743 0.5753 0.0
C16 C 0.53034 0.19796 0.67769 0.0
C17 C 0.63684 0.21043 0.6273 0.0
C18 C 0.53545 0.09327 0.62602 0.0
O19 O 0.51563 0.21216 0.6537 0.0
O20 O 0.56006 0.17214 0.67511 0.0
O21 O 0.57384 0.10306 0.62752 0.0
O22 O 0.51025 0.12359 0.62395 0.0
C23 C 0.53984 0.19272 0.56885 0.0
O24 O 0.63281 0.17099 0.62795 0.0
O25 O 0.60313 0.23095 0.62554 0.0
In26 In 0.81808 0.56082 0.12505 0.0
O27 O 0.78277 0.5207 0.09094 0.0
O28 O 0.82412 0.56856 0.07536 0.0
C29 C 0.79399 0.53073 0.17793 0.0
C30 C 0.78139 0.63681 0.12724 0.0
C31 C 0.89859 0.53531 0.12608 0.0
O32 O 0.77971 0.51589 0.15401 0.0
O33 O 0.81986 0.56037 0.17521 0.0
O34 O 0.88884 0.57371 0.12741 0.0
O35 O 0.86823 0.51014 0.1242 0.0
C36 C 0.79884 0.5395 0.06908 0.0
O37 O 0.82084 0.63279 0.12786 0.0
O38 O 0.76088 0.60311 0.12558 0.0
In39 In 0.43168 0.8178 0.62495 0.0
O40 O 0.35977 0.82149 0.62808 0.0
O41 O 0.38868 0.76118 0.62549 0.0
C42 C 0.4582 0.89793 0.62606 0.0
C43 C 0.45209 0.79878 0.56878 0.0
C44 C 0.462 0.79313 0.67766 0.0
O45 O 0.41969 0.88866 0.6276 0.0
O46 O 0.48298 0.86727 0.62394 0.0
O47 O 0.47644 0.77873 0.65366 0.0
O48 O 0.43264 0.81936 0.6751 0.0
C49 C 0.35524 0.78211 0.62735 0.0
O50 O 0.47091 0.78221 0.59049 0.0
O51 O 0.42347 0.82442 0.57533 0.0
In52 In 0.17452 0.56054 0.36802 0.0
O53 O 0.17091 0.63244 0.36487 0.0
O54 O 0.23121 0.60348 0.36748 0.0
C55 C 0.09427 0.53434 0.36685 0.0
C56 C 0.19353 0.53999 0.4242 0.0
C57 C 0.19921 0.53014 0.31535 0.0
O58 O 0.1037 0.5728 0.36533 0.0
O59 O 0.12484 0.50944 0.36899 0.0
O60 O 0.21354 0.51568 0.33939 0.0
O61 O 0.17303 0.55955 0.31787 0.0
C62 C 0.2103 0.63693 0.3656 0.0
O63 O 0.21003 0.52116 0.40249 0.0
O64 O 0.16796 0.56869 0.41765 0.0
In65 In 0.43177 0.17424 0.8681 0.0
O66 O 0.47158 0.2096 0.90239 0.0
O67 O 0.42394 0.16783 0.91776 0.0
C68 C 0.46186 0.19835 0.81523 0.0
C69 C 0.35568 0.21073 0.86585 0.0
C70 C 0.45764 0.09389 0.86699 0.0
O71 O 0.47666 0.21269 0.83916 0.0
O72 O 0.43224 0.17246 0.81795 0.0
O73 O 0.41918 0.10348 0.86561 0.0
O74 O 0.48267 0.12435 0.86898 0.0
C75 C 0.45282 0.19326 0.92418 0.0
O76 O 0.3598 0.1713 0.86526 0.0
O77 O 0.38934 0.23132 0.86752 0.0
In78 In 0.81821 0.43213 0.36829 0.0
O79 O 0.82106 0.36018 0.3654 0.0
O80 O 0.76106 0.38978 0.36775 0.0
C81 C 0.89869 0.4576 0.36707 0.0
C82 C 0.79934 0.45316 0.42437 0.0
C83 C 0.79389 0.46251 0.31552 0.0
O84 O 0.88893 0.41921 0.36564 0.0
O85 O 0.86835 0.48277 0.36916 0.0
O86 O 0.77973 0.47727 0.3395 0.0
O87 O 0.81971 0.4328 0.31813 0.0
C88 C 0.78162 0.3561 0.36605 0.0
O89 O 0.78301 0.472 0.4026 0.0
O90 O 0.82469 0.42422 0.41794 0.0
In91 In 0.56031 0.81798 0.86799 0.0
O92 O 0.52033 0.78298 0.90231 0.0
O93 O 0.56821 0.82453 0.91764 0.0
C94 C 0.53019 0.79339 0.8152 0.0
C95 C 0.63641 0.78147 0.86592 0.0
C96 C 0.53461 0.89839 0.86674 0.0
O97 O 0.51546 0.77921 0.83918 0.0
O98 O 0.55972 0.8194 0.81782 0.0
O99 O 0.57304 0.88872 0.8654 0.0
O100 O 0.50951 0.86799 0.86871 0.0
C101 C 0.53919 0.79929 0.92408 0.0
O102 O 0.63227 0.8209 0.86506 0.0
O103 O 0.60276 0.7609 0.86776 0.0
In104 In 0.81773 0.5601 0.8685 0.0
O105 O 0.82077 0.63204 0.86566 0.0
O106 O 0.76069 0.6026 0.86787 0.0
C107 C 0.89814 0.53434 0.86755 0.0
C108 C 0.79854 0.53906 0.92452 0.0
C109 C 0.79367 0.52994 0.81562 0.0
O110 O 0.88849 0.57276 0.86612 0.0
O111 O 0.8677 0.50927 0.8695 0.0
O112 O 0.7793 0.51518 0.83953 0.0
O113 O 0.81958 0.55953 0.81835 0.0
C114 C 0.78133 0.63623 0.86622 0.0
O115 O 0.78227 0.52028 0.9027 0.0
O116 O 0.82397 0.56794 0.91816 0.0
In117 In 0.4311 0.81807 0.36792 0.0
O118 O 0.47056 0.78252 0.40231 0.0
O119 O 0.42302 0.82454 0.41756 0.0
C120 C 0.4611 0.79343 0.31515 0.0
C121 C 0.35475 0.7822 0.36557 0.0
C122 C 0.45766 0.89819 0.36686 0.0
O123 O 0.47568 0.77902 0.33912 0.0
O124 O 0.43178 0.81969 0.31777 0.0
O125 O 0.41913 0.88896 0.36542 0.0
O126 O 0.48243 0.8675 0.36885 0.0
C127 C 0.45175 0.79897 0.42405 0.0
O128 O 0.35916 0.8216 0.36483 0.0
O129 O 0.38825 0.76136 0.36743 0.0
In130 In 0.17425 0.43206 0.86817 0.0
O131 O 0.20965 0.47185 0.90244 0.0
O132 O 0.16805 0.42408 0.91783 0.0
C133 C 0.19826 0.46249 0.81535 0.0
C134 C 0.21072 0.35597 0.86582 0.0
C135 C 0.09381 0.45771 0.86729 0.0
O136 O 0.21265 0.47712 0.83931 0.0
O137 O 0.17235 0.43288 0.81801 0.0
O138 O 0.1035 0.4193 0.86578 0.0
O139 O 0.12421 0.48281 0.86927 0.0
C140 C 0.19342 0.453 0.92424 0.0
O141 O 0.17128 0.36013 0.86517 0.0
O142 O 0.23133 0.3896 0.86758 0.0
In143 In 0.56094 0.17381 0.36815 0.0
O144 O 0.63292 0.17116 0.36532 0.0
O145 O 0.60312 0.23106 0.36766 0.0
C146 C 0.53541 0.09336 0.36705 0.0
C147 C 0.53986 0.19275 0.42421 0.0
C148 C 0.53068 0.19795 0.3153 0.0
O149 O 0.57382 0.10307 0.36564 0.0
O150 O 0.51026 0.12373 0.36904 0.0
O151 O 0.51585 0.21216 0.33925 0.0
O152 O 0.5604 0.17215 0.31799 0.0
C153 C 0.63687 0.21061 0.36597 0.0
O154 O 0.52097 0.20899 0.40241 0.0
O155 O 0.56887 0.16746 0.41781 0.0
In156 In 0.81809 0.43181 0.62509 0.0
O157 O 0.82113 0.35987 0.62806 0.0
O158 O 0.76106 0.38933 0.62555 0.0
C159 C 0.89844 0.45767 0.6261 0.0
C160 C 0.7991 0.45288 0.56902 0.0
C161 C 0.7939 0.46193 0.67794 0.0
O162 O 0.88889 0.41922 0.62748 0.0
O163 O 0.86795 0.4827 0.6242 0.0
O164 O 0.77947 0.47662 0.654 0.0
O165 O 0.81994 0.43243 0.67524 0.0
C166 C 0.7817 0.35571 0.62734 0.0
O167 O 0.78279 0.47169 0.59081 0.0
O168 O 0.82444 0.42392 0.57544 0.0
In169 In 0.5596 0.81776 0.12497 0.0
O170 O 0.63154 0.82083 0.12809 0.0
O171 O 0.60217 0.76076 0.12536 0.0
C172 C 0.5338 0.89814 0.12621 0.0
C173 C 0.53879 0.79914 0.06879 0.0
C174 C 0.52919 0.79316 0.17765 0.0
O175 O 0.57223 0.8885 0.12769 0.0
O176 O 0.50874 0.86772 0.12408 0.0
O177 O 0.51462 0.77895 0.15362 0.0
O178 O 0.55873 0.81918 0.17513 0.0
C179 C 0.63577 0.78142 0.12727 0.0
O180 O 0.51989 0.7827 0.09049 0.0
O181 O 0.56769 0.82446 0.07535 0.0
In182 In 0.17395 0.56135 0.62494 0.0
O183 O 0.2096 0.52176 0.5907 0.0
O184 O 0.16762 0.56923 0.57527 0.0
C185 C 0.19815 0.53117 0.67781 0.0
C186 C 0.21001 0.6376 0.62729 0.0
C187 C 0.09369 0.53522 0.62591 0.0
O188 O 0.21259 0.51653 0.65387 0.0
O189 O 0.17211 0.56068 0.6751 0.0
O190 O 0.10312 0.57369 0.62735 0.0
O191 O 0.12425 0.51029 0.62393 0.0
C192 C 0.19321 0.54047 0.56889 0.0
O193 O 0.17059 0.63328 0.62785 0.0
O194 O 0.2308 0.60406 0.62561 0.0
In195 In 0.43171 0.17426 0.12489 0.0
O196 O 0.47155 0.20956 0.09063 0.0
O197 O 0.42385 0.16786 0.07522 0.0
C198 C 0.46209 0.19833 0.17772 0.0
C199 C 0.35565 0.21082 0.12713 0.0
C200 C 0.45725 0.0938 0.12603 0.0
O201 O 0.47684 0.21259 0.15377 0.0
O202 O 0.43237 0.17255 0.17505 0.0
O203 O 0.41884 0.10355 0.12746 0.0
O204 O 0.4824 0.12414 0.12398 0.0
C205 C 0.45276 0.19324 0.06883 0.0
O206 O 0.35975 0.17139 0.12772 0.0
O207 O 0.38932 0.23139 0.12548 0.0
C208 C 0.01672 0.48798 0.12689 0.0
C209 C 0.05161 0.47325 0.12659 0.0
C210 C 0.97621 0.50611 0.12689 0.0
C211 C 0.94126 0.52071 0.12658 0.0
C212 C 0.48812 0.97523 0.62689 0.0
C213 C 0.47328 0.9404 0.62658 0.0
C214 C 0.50631 0.01568 0.62688 0.0
C215 C 0.52091 0.05061 0.62656 0.0
C216 C 0.01683 0.50475 0.36602 0.0
C217 C 0.05173 0.51944 0.36633 0.0
C218 C 0.97631 0.4867 0.36607 0.0
C219 C 0.94135 0.47215 0.36645 0.0
C220 C 0.50527 0.97593 0.86594 0.0
C221 C 0.51993 0.94101 0.86624 0.0
C222 C 0.48712 0.01641 0.86601 0.0
C223 C 0.47242 0.0513 0.86639 0.0
C224 C 0.97569 0.50501 0.86673 0.0
C225 C 0.94075 0.51963 0.86704 0.0
C226 C 0.01622 0.48695 0.86666 0.0
C227 C 0.05116 0.47235 0.86688 0.0
C228 C 0.50606 0.01584 0.36614 0.0
C229 C 0.52078 0.05072 0.36648 0.0
C230 C 0.48773 0.97545 0.3661 0.0
C231 C 0.47279 0.94066 0.36638 0.0
C232 C 0.97589 0.48721 0.62681 0.0
C233 C 0.94103 0.47245 0.62655 0.0
C234 C 0.01631 0.50549 0.62676 0.0
C235 C 0.05115 0.5203 0.62644 0.0
C236 C 0.48642 0.0162 0.12701 0.0
C237 C 0.47185 0.05115 0.12663 0.0
C238 C 0.50446 0.97567 0.12706 0.0
C239 C 0.51908 0.94075 0.12674 0.0
C240 C 0.21518 0.50211 0.26165 0.0
C241 C 0.20967 0.5131 0.28689 0.0
C242 C 0.21511 0.48985 0.23161 0.0
C243 C 0.2095 0.47899 0.20634 0.0
C244 C 0.50217 0.21372 0.7314 0.0
C245 C 0.51326 0.20821 0.70618 0.0
C246 C 0.48977 0.21382 0.76141 0.0
C247 C 0.47879 0.20845 0.78667 0.0
C248 C 0.77827 0.50294 0.23175 0.0
C249 C 0.78377 0.51388 0.20649 0.0
C250 C 0.77821 0.4906 0.26177 0.0
C251 C 0.78366 0.47957 0.28702 0.0
C252 C 0.50236 0.77731 0.76143 0.0
C253 C 0.5133 0.78294 0.78668 0.0
C254 C 0.49004 0.7772 0.7314 0.0
C255 C 0.47904 0.78269 0.70614 0.0
C256 C 0.77813 0.50206 0.76178 0.0
C257 C 0.78352 0.51302 0.78705 0.0
C258 C 0.77818 0.48977 0.73175 0.0
C259 C 0.78365 0.47882 0.70649 0.0
C260 C 0.48883 0.77732 0.26138 0.0
C261 C 0.47794 0.78293 0.28663 0.0
C262 C 0.50112 0.77725 0.23135 0.0
C263 C 0.51213 0.78276 0.20611 0.0
C264 C 0.21378 0.49067 0.7616 0.0
C265 C 0.20838 0.47956 0.78683 0.0
C266 C 0.21377 0.50314 0.7316 0.0
C267 C 0.20833 0.51419 0.70635 0.0
C268 C 0.50267 0.21366 0.26152 0.0
C269 C 0.51371 0.20815 0.28676 0.0
C270 C 0.49024 0.21377 0.2315 0.0
C271 C 0.47916 0.20842 0.20625 0.0
C272 C 0.20644 0.4676 0.98091 0.0
C273 C 0.20258 0.46332 0.95451 0.0
C274 C 0.20645 0.46764 0.0122 0.0
C275 C 0.20261 0.46341 0.0386 0.0
C276 C 0.52523 0.20567 0.48088 0.0
C277 C 0.52951 0.20185 0.45448 0.0
C278 C 0.52524 0.20566 0.51217 0.0
C279 C 0.52952 0.20183 0.53857 0.0
C280 C 0.78561 0.52461 0.01247 0.0
C281 C 0.78958 0.52902 0.03885 0.0
C282 C 0.78552 0.5245 0.98118 0.0
C283 C 0.78934 0.52873 0.95478 0.0
C284 C 0.46621 0.78585 0.51204 0.0
C285 C 0.46211 0.78965 0.53846 0.0
C286 C 0.46613 0.7859 0.48076 0.0
C287 C 0.4619 0.78979 0.45435 0.0
C288 C 0.20645 0.52579 0.48094 0.0
C289 C 0.20265 0.52991 0.45452 0.0
C290 C 0.20637 0.5259 0.51223 0.0
C291 C 0.20245 0.5302 0.53863 0.0
C292 C 0.4674 0.20622 0.98086 0.0
C293 C 0.46313 0.2024 0.95446 0.0
C294 C 0.46739 0.20621 0.01215 0.0
C295 C 0.46309 0.20238 0.03855 0.0
C296 C 0.78636 0.46768 0.48106 0.0
C297 C 0.79021 0.46343 0.45465 0.0
C298 C 0.78628 0.46762 0.51234 0.0
C299 C 0.79004 0.46328 0.53875 0.0
C300 C 0.52439 0.7865 0.01205 0.0
C301 C 0.52859 0.7902 0.03847 0.0
C302 C 0.52447 0.78654 0.98076 0.0
C303 C 0.52882 0.79031 0.95436 0.0
C304 C 0.25384 0.2855 0.12853 0.0
C305 C 0.23136 0.31597 0.12805 0.0
C306 C 0.28521 0.25413 0.12851 0.0
C307 C 0.31566 0.23163 0.12801 0.0
C308 C 0.7385 0.28524 0.62875 0.0
C309 C 0.76097 0.3157 0.62825 0.0
C310 C 0.70718 0.25385 0.62875 0.0
C311 C 0.67678 0.2313 0.62822 0.0
C312 C 0.73786 0.7071 0.12864 0.0
C313 C 0.76048 0.67674 0.12813 0.0
C314 C 0.70635 0.73833 0.12867 0.0
C315 C 0.67582 0.76073 0.12818 0.0
C316 C 0.25304 0.70815 0.62877 0.0
C317 C 0.23059 0.67769 0.62822 0.0
C318 C 0.28448 0.73943 0.6288 0.0
C319 C 0.31506 0.76173 0.62829 0.0
C320 C 0.28418 0.7392 0.36408 0.0
C321 C 0.31463 0.76169 0.36461 0.0
C322 C 0.25296 0.70771 0.36409 0.0
C323 C 0.2307 0.6771 0.36463 0.0
C324 C 0.28526 0.25406 0.86444 0.0
C325 C 0.31568 0.23153 0.86496 0.0
C326 C 0.25394 0.28548 0.86442 0.0
C327 C 0.23147 0.31596 0.86492 0.0
C328 C 0.70711 0.2542 0.36465 0.0
C329 C 0.67676 0.23157 0.36512 0.0
C330 C 0.73836 0.28566 0.36466 0.0
C331 C 0.76081 0.31614 0.36516 0.0
C332 C 0.73815 0.70673 0.86477 0.0
C333 C 0.76061 0.67624 0.86531 0.0
C334 C 0.70683 0.73814 0.86469 0.0
C335 C 0.6764 0.76067 0.86511 0.0
loop_
_geom_bond_atom_site_label_1
_geom_bond_atom_site_label_2
_geom_bond_distance
_geom_bond_site_symmetry_2
_ccdc_geom_bond_type
In0 O1 2.294 . S
In0 O2 2.326 . S
In0 O6 2.266 . S
In0 O7 2.326 . S
In0 O8 2.266 . S
In0 O9 2.326 . S
In0 O11 2.294 . S
In0 O12 2.326 . S
O1 In0 2.294 . S
O1 C10 1.240 . S
O2 In0 2.326 . S
O2 C10 1.252 . S
C3 O6 1.252 . S
C3 O7 1.260 . S
C4 O11 1.240 . S
C4 O12 1.252 . S
C5 O8 1.252 . S
C5 O9 1.260 . S
O6 In0 2.266 . S
O6 C3 1.252 . S
O7 In0 2.326 . S
O7 C3 1.260 . S
O8 In0 2.266 . S
O8 C5 1.252 . S
O9 In0 2.326 . S
O9 C5 1.260 . S
C10 O1 1.240 . S
C10 O2 1.252 . S
O11 In0 2.294 . S
O11 C4 1.240 . S
O12 In0 2.326 . S
O12 C4 1.252 . S
In13 O14 2.294 . S
In13 O15 2.326 . S
In13 O19 2.266 . S
In13 O20 2.326 . S
In13 O21 2.266 . S
In13 O22 2.326 . S
In13 O24 2.294 . S
In13 O25 2.326 . S
O14 In13 2.294 . S
O14 C23 1.240 . S
O15 In13 2.326 . S
O15 C23 1.252 . S
C16 O19 1.252 . S
C16 O20 1.260 . S
C17 O24 1.240 . S
C17 O25 1.252 . S
C18 O21 1.252 . S
C18 O22 1.260 . S
O19 In13 2.266 . S
O19 C16 1.252 . S
O20 In13 2.326 . S
O20 C16 1.260 . S
O21 In13 2.266 . S
O21 C18 1.252 . S
O22 In13 2.326 . S
O22 C18 1.260 . S
C23 O14 1.240 . S
C23 O15 1.252 . S
O24 In13 2.294 . S
O24 C17 1.240 . S
O25 In13 2.326 . S
O25 C17 1.252 . S
In26 O27 2.294 . S
In26 O28 2.326 . S
In26 O32 2.266 . S
In26 O33 2.326 . S
In26 O34 2.266 . S
In26 O35 2.326 . S
In26 O37 2.294 . S
In26 O38 2.326 . S
O27 In26 2.294 . S
O27 C36 1.240 . S
O28 In26 2.326 . S
O28 C36 1.252 . S
C29 O32 1.252 . S
C29 O33 1.260 . S
C30 O37 1.240 . S
C30 O38 1.252 . S
C31 O34 1.252 . S
C31 O35 1.260 . S
O32 In26 2.266 . S
O32 C29 1.252 . S
O33 In26 2.326 . S
O33 C29 1.260 . S
O34 In26 2.266 . S
O34 C31 1.252 . S
O35 In26 2.326 . S
O35 C31 1.260 . S
C36 O27 1.240 . S
C36 O28 1.252 . S
O37 In26 2.294 . S
O37 C30 1.240 . S
O38 In26 2.326 . S
O38 C30 1.252 . S
In39 O40 2.294 . S
In39 O41 2.326 . S
In39 O45 2.266 . S
In39 O46 2.326 . S
In39 O47 2.266 . S
In39 O48 2.326 . S
In39 O50 2.294 . S
In39 O51 2.326 . S
O40 In39 2.294 . S
O40 C49 1.240 . S
O41 In39 2.326 . S
O41 C49 1.252 . S
C42 O45 1.252 . S
C42 O46 1.260 . S
C43 O50 1.240 . S
C43 O51 1.252 . S
C44 O47 1.252 . S
C44 O48 1.260 . S
O45 In39 2.266 . S
O45 C42 1.252 . S
O46 In39 2.326 . S
O46 C42 1.260 . S
O47 In39 2.266 . S
O47 C44 1.252 . S
O48 In39 2.326 . S
O48 C44 1.260 . S
C49 O40 1.240 . S
C49 O41 1.252 . S
O50 In39 2.294 . S
O50 C43 1.240 . S
O51 In39 2.326 . S
O51 C43 1.252 . S
In52 O53 2.294 . S
In52 O54 2.326 . S
In52 O58 2.266 . S
In52 O59 2.326 . S
In52 O60 2.266 . S
In52 O61 2.326 . S
In52 O63 2.294 . S
In52 O64 2.326 . S
O53 In52 2.294 . S
O53 C62 1.240 . S
O54 In52 2.326 . S
O54 C62 1.252 . S
C55 O58 1.252 . S
C55 O59 1.260 . S
C56 O63 1.240 . S
C56 O64 1.252 . S
C57 O60 1.252 . S
C57 O61 1.260 . S
O58 In52 2.266 . S
O58 C55 1.252 . S
O59 In52 2.326 . S
O59 C55 1.260 . S
O60 In52 2.266 . S
O60 C57 1.252 . S
O61 In52 2.326 . S
O61 C57 1.260 . S
C62 O53 1.240 . S
C62 O54 1.252 . S
O63 In52 2.294 . S
O63 C56 1.240 . S
O64 In52 2.326 . S
O64 C56 1.252 . S
In65 O66 2.294 . S
In65 O67 2.326 . S
In65 O71 2.266 . S
In65 O72 2.326 . S
In65 O73 2.266 . S
In65 O74 2.326 . S
In65 O76 2.294 . S
In65 O77 2.326 . S
O66 In65 2.294 . S
O66 C75 1.240 . S
O67 In65 2.326 . S
O67 C75 1.252 . S
C68 O71 1.252 . S
C68 O72 1.260 . S
C69 O76 1.240 . S
C69 O77 1.252 . S
C70 O73 1.252 . S
C70 O74 1.260 . S
O71 In65 2.266 . S
O71 C68 1.252 . S
O72 In65 2.326 . S
O72 C68 1.260 . S
O73 In65 2.266 . S
O73 C70 1.252 . S
O74 In65 2.326 . S
O74 C70 1.260 . S
C75 O66 1.240 . S
C75 O67 1.252 . S
O76 In65 2.294 . S
O76 C69 1.240 . S
O77 In65 2.326 . S
O77 C69 1.252 . S
In78 O79 2.294 . S
In78 O80 2.326 . S
In78 O84 2.266 . S
In78 O85 2.326 . S
In78 O86 2.266 . S
In78 O87 2.326 . S
In78 O89 2.294 . S
In78 O90 2.326 . S
O79 In78 2.294 . S
O79 C88 1.240 . S
O80 In78 2.326 . S
O80 C88 1.252 . S
C81 O84 1.252 . S
C81 O85 1.260 . S
C82 O89 1.240 . S
C82 O90 1.252 . S
C83 O86 1.252 . S
C83 O87 1.260 . S
O84 In78 2.266 . S
O84 C81 1.252 . S
O85 In78 2.326 . S
O85 C81 1.260 . S
O86 In78 2.266 . S
O86 C83 1.252 . S
O87 In78 2.326 . S
O87 C83 1.260 . S
C88 O79 1.240 . S
C88 O80 1.252 . S
O89 In78 2.294 . S
O89 C82 1.240 . S
O90 In78 2.326 . S
O90 C82 1.252 . S
In91 O92 2.294 . S
In91 O93 2.326 . S
In91 O97 2.266 . S
In91 O98 2.326 . S
In91 O99 2.266 . S
In91 O100 2.326 . S
In91 O102 2.294 . S
In91 O103 2.326 . S
O92 In91 2.294 . S
O92 C101 1.240 . S
O93 In91 2.326 . S
O93 C101 1.252 . S
C94 O97 1.252 . S
C94 O98 1.260 . S
C95 O102 1.240 . S
C95 O103 1.252 . S
C96 O99 1.252 . S
C96 O100 1.260 . S
O97 In91 2.266 . S
O97 C94 1.252 . S
O98 In91 2.326 . S
O98 C94 1.260 . S
O99 In91 2.266 . S
O99 C96 1.252 . S
O100 In91 2.326 . S
O100 C96 1.260 . S
C101 O92 1.240 . S
C101 O93 1.252 . S
O102 In91 2.294 . S
O102 C95 1.240 . S
O103 In91 2.326 . S
O103 C95 1.252 . S
In104 O105 2.294 . S
In104 O106 2.326 . S
In104 O110 2.266 . S
In104 O111 2.326 . S
In104 O112 2.266 . S
In104 O113 2.326 . S
In104 O115 2.294 . S
In104 O116 2.326 . S
O105 In104 2.294 . S
O105 C114 1.240 . S
O106 In104 2.326 . S
O106 C114 1.252 . S
C107 O110 1.252 . S
C107 O111 1.260 . S
C108 O115 1.240 . S
C108 O116 1.252 . S
C109 O112 1.252 . S
C109 O113 1.260 . S
O110 In104 2.266 . S
O110 C107 1.252 . S
O111 In104 2.326 . S
O111 C107 1.260 . S
O112 In104 2.266 . S
O112 C109 1.252 . S
O113 In104 2.326 . S
O113 C109 1.260 . S
C114 O105 1.240 . S
C114 O106 1.252 . S
O115 In104 2.294 . S
O115 C108 1.240 . S
O116 In104 2.326 . S
O116 C108 1.252 . S
In117 O118 2.294 . S
In117 O119 2.326 . S
In117 O123 2.266 . S
In117 O124 2.326 . S
In117 O125 2.266 . S
In117 O126 2.326 . S
In117 O128 2.294 . S
In117 O129 2.326 . S
O118 In117 2.294 . S
O118 C127 1.240 . S
O119 In117 2.326 . S
O119 C127 1.252 . S
C120 O123 1.252 . S
C120 O124 1.260 . S
C121 O128 1.240 . S
C121 O129 1.252 . S
C122 O125 1.252 . S
C122 O126 1.260 . S
O123 In117 2.266 . S
O123 C120 1.252 . S
O124 In117 2.326 . S
O124 C120 1.260 . S
O125 In117 2.266 . S
O125 C122 1.252 . S
O126 In117 2.326 . S
O126 C122 1.260 . S
C127 O118 1.240 . S
C127 O119 1.252 . S
O128 In117 2.294 . S
O128 C121 1.240 . S
O129 In117 2.326 . S
O129 C121 1.252 . S
In130 O131 2.294 . S
In130 O132 2.326 . S
In130 O136 2.266 . S
In130 O137 2.326 . S
In130 O138 2.266 . S
In130 O139 2.326 . S
In130 O141 2.294 . S
In130 O142 2.326 . S
O131 In130 2.294 . S
O131 C140 1.240 . S
O132 In130 2.326 . S
O132 C140 1.252 . S
C133 O136 1.252 . S
C133 O137 1.260 . S
C134 O141 1.240 . S
C134 O142 1.252 . S
C135 O138 1.252 . S
C135 O139 1.260 . S
O136 In130 2.266 . S
O136 C133 1.252 . S
O137 In130 2.326 . S
O137 C133 1.260 . S
O138 In130 2.266 . S
O138 C135 1.252 . S
O139 In130 2.326 . S
O139 C135 1.260 . S
C140 O131 1.240 . S
C140 O132 1.252 . S
O141 In130 2.294 . S
O141 C134 1.240 . S
O142 In130 2.326 . S
O142 C134 1.252 . S
In143 O144 2.294 . S
In143 O145 2.326 . S
In143 O149 2.266 . S
In143 O150 2.326 . S
In143 O151 2.266 . S
In143 O152 2.326 . S
In143 O154 2.294 . S
In143 O155 2.326 . S
O144 In143 2.294 . S
O144 C153 1.240 . S
O145 In143 2.326 . S
O145 C153 1.252 . S
C146 O149 1.252 . S
C146 O150 1.260 . S
C147 O154 1.240 . S
C147 O155 1.252 . S
C148 O151 1.252 . S
C148 O152 1.260 . S
O149 In143 2.266 . S
O149 C146 1.252 . S
O150 In143 2.326 . S
O150 C146 1.260 . S
O151 In143 2.266 . S
O151 C148 1.252 . S
O152 In143 2.326 . S
O152 C148 1.260 . S
C153 O144 1.240 . S
C153 O145 1.252 . S
O154 In143 2.294 . S
O154 C147 1.240 . S
O155 In143 2.326 . S
O155 C147 1.252 . S
In156 O157 2.294 . S
In156 O158 2.326 . S
In156 O162 2.266 . S
In156 O163 2.326 . S
In156 O164 2.266 . S
In156 O165 2.326 . S
In156 O167 2.294 . S
In156 O168 2.326 . S
O157 In156 2.294 . S
O157 C166 1.240 . S
O158 In156 2.326 . S
O158 C166 1.252 . S
C159 O162 1.252 . S
C159 O163 1.260 . S
C160 O167 1.240 . S
C160 O168 1.252 . S
C161 O164 1.252 . S
C161 O165 1.260 . S
O162 In156 2.266 . S
O162 C159 1.252 . S
O163 In156 2.326 . S
O163 C159 1.260 . S
O164 In156 2.266 . S
O164 C161 1.252 . S
O165 In156 2.326 . S
O165 C161 1.260 . S
C166 O157 1.240 . S
C166 O158 1.252 . S
O167 In156 2.294 . S
O167 C160 1.240 . S
O168 In156 2.326 . S
O168 C160 1.252 . S
In169 O170 2.294 . S
In169 O171 2.326 . S
In169 O175 2.266 . S
In169 O176 2.326 . S
In169 O177 2.266 . S
In169 O178 2.326 . S
In169 O180 2.294 . S
In169 O181 2.326 . S
O170 In169 2.294 . S
O170 C179 1.240 . S
O171 In169 2.326 . S
O171 C179 1.252 . S
C172 O175 1.252 . S
C172 O176 1.260 . S
C173 O180 1.240 . S
C173 O181 1.252 . S
C174 O177 1.252 . S
C174 O178 1.260 . S
O175 In169 2.266 . S
O175 C172 1.252 . S
O176 In169 2.326 . S
O176 C172 1.260 . S
O177 In169 2.266 . S
O177 C174 1.252 . S
O178 In169 2.326 . S
O178 C174 1.260 . S
C179 O170 1.240 . S
C179 O171 1.252 . S
O180 In169 2.294 . S
O180 C173 1.240 . S
O181 In169 2.326 . S
O181 C173 1.252 . S
In182 O183 2.294 . S
In182 O184 2.326 . S
In182 O188 2.266 . S
In182 O189 2.326 . S
In182 O190 2.266 . S
In182 O191 2.326 . S
In182 O193 2.294 . S
In182 O194 2.326 . S
O183 In182 2.294 . S
O183 C192 1.240 . S
O184 In182 2.326 . S
O184 C192 1.252 . S
C185 O188 1.252 . S
C185 O189 1.260 . S
C186 O193 1.240 . S
C186 O194 1.252 . S
C187 O190 1.252 . S
C187 O191 1.260 . S
O188 In182 2.266 . S
O188 C185 1.252 . S
O189 In182 2.326 . S
O189 C185 1.260 . S
O190 In182 2.266 . S
O190 C187 1.252 . S
O191 In182 2.326 . S
O191 C187 1.260 . S
C192 O183 1.240 . S
C192 O184 1.252 . S
O193 In182 2.294 . S
O193 C186 1.240 . S
O194 In182 2.326 . S
O194 C186 1.252 . S
In195 O196 2.294 . S
In195 O197 2.326 . S
In195 O201 2.266 . S
In195 O202 2.326 . S
In195 O203 2.266 . S
In195 O204 2.326 . S
In195 O206 2.294 . S
In195 O207 2.326 . S
O196 In195 2.294 . S
O196 C205 1.240 . S
O197 In195 2.326 . S
O197 C205 1.252 . S
C198 O201 1.252 . S
C198 O202 1.260 . S
C199 O206 1.240 . S
C199 O207 1.252 . S
C200 O203 1.252 . S
C200 O204 1.260 . S
O201 In195 2.266 . S
O201 C198 1.252 . S
O202 In195 2.326 . S
O202 C198 1.260 . S
O203 In195 2.266 . S
O203 C200 1.252 . S
O204 In195 2.326 . S
O204 C200 1.260 . S
C205 O196 1.240 . S
C205 O197 1.252 . S
O206 In195 2.294 . S
O206 C199 1.240 . S
O207 In195 2.326 . S
O207 C199 1.252 . S
C208 C209 1.170 . S
C208 C210 1.380 1_455 S
C209 C208 1.170 . S
C210 C208 1.380 1_655 S
C210 C211 1.170 . S
C211 C210 1.170 . S
C212 C213 1.170 . S
C212 C214 1.380 1_565 S
C213 C212 1.170 . S
C214 C212 1.380 1_545 S
C214 C215 1.170 . S
C215 C214 1.170 . S
C216 C217 1.170 . S
C216 C218 1.380 1_455 S
C217 C216 1.170 . S
C218 C216 1.380 1_655 S
C218 C219 1.170 . S
C219 C218 1.170 . S
C220 C221 1.170 . S
C220 C222 1.380 1_565 S
C221 C220 1.170 . S
C222 C220 1.380 1_545 S
C222 C223 1.170 . S
C223 C222 1.170 . S
C224 C225 1.170 . S
C224 C226 1.380 1_655 S
C225 C224 1.170 . S
C226 C224 1.380 1_455 S
C226 C227 1.170 . S
C227 C226 1.170 . S
C228 C229 1.170 . S
C228 C230 1.380 1_545 S
C229 C228 1.170 . S
C230 C228 1.380 1_565 S
C230 C231 1.170 . S
C231 C230 1.170 . S
C232 C233 1.170 . S
C232 C234 1.380 1_655 S
C233 C232 1.170 . S
C234 C232 1.380 1_455 S
C234 C235 1.170 . S
C235 C234 1.170 . S
C236 C237 1.170 . S
C236 C238 1.380 1_545 S
C237 C236 1.170 . S
C238 C236 1.380 1_565 S
C238 C239 1.170 . S
C239 C238 1.170 . S
C240 C241 1.170 . S
C240 C242 1.380 . S
C241 C240 1.170 . S
C242 C240 1.380 . S
C242 C243 1.170 . S
C243 C242 1.170 . S
C244 C245 1.170 . S
C244 C246 1.380 . S
C245 C244 1.170 . S
C246 C244 1.380 . S
C246 C247 1.170 . S
C247 C246 1.170 . S
C248 C249 1.170 . S
C248 C250 1.380 . S
C249 C248 1.170 . S
C250 C248 1.380 . S
C250 C251 1.170 . S
C251 C250 1.170 . S
C252 C253 1.170 . S
C252 C254 1.380 . S
C253 C252 1.170 . S
C254 C252 1.380 . S
C254 C255 1.170 . S
C255 C254 1.170 . S
C256 C257 1.170 . S
C256 C258 1.380 . S
C257 C256 1.170 . S
C258 C256 1.380 . S
C258 C259 1.170 . S
C259 C258 1.170 . S
C260 C261 1.170 . S
C260 C262 1.380 . S
C261 C260 1.170 . S
C262 C260 1.380 . S
C262 C263 1.170 . S
C263 C262 1.170 . S
C264 C265 1.170 . S
C264 C266 1.380 . S
C265 C264 1.170 . S
C266 C264 1.380 . S
C266 C267 1.170 . S
C267 C266 1.170 . S
C268 C269 1.170 . S
C268 C270 1.380 . S
C269 C268 1.170 . S
C270 C268 1.380 . S
C270 C271 1.170 . S
C271 C270 1.170 . S
C272 C273 1.170 . S
C272 C274 1.380 1_556 S
C273 C272 1.170 . S
C274 C272 1.380 1_554 S
C274 C275 1.170 . S
C275 C274 1.170 . S
C276 C277 1.170 . S
C276 C278 1.380 . S
C277 C276 1.170 . S
C278 C276 1.380 . S
C278 C279 1.170 . S
C279 C278 1.170 . S
C280 C281 1.170 . S
C280 C282 1.380 1_554 S
C281 C280 1.170 . S
C282 C280 1.380 1_556 S
C282 C283 1.170 . S
C283 C282 1.170 . S
C284 C285 1.170 . S
C284 C286 1.380 . S
C285 C284 1.170 . S
C286 C284 1.380 . S
C286 C287 1.170 . S
C287 C286 1.170 . S
C288 C289 1.170 . S
C288 C290 1.380 . S
C289 C288 1.170 . S
C290 C288 1.380 . S
C290 C291 1.170 . S
C291 C290 1.170 . S
C292 C293 1.170 . S
C292 C294 1.380 1_556 S
C293 C292 1.170 . S
C294 C292 1.380 1_554 S
C294 C295 1.170 . S
C295 C294 1.170 . S
C296 C297 1.170 . S
C296 C298 1.380 . S
C297 C296 1.170 . S
C298 C296 1.380 . S
C298 C299 1.170 . S
C299 C298 1.170 . S
C300 C301 1.170 . S
C300 C302 1.380 1_554 S
C301 C300 1.170 . S
C302 C300 1.380 1_556 S
C302 C303 1.170 . S
C303 C302 1.170 . S
C304 C305 1.170 . S
C304 C306 1.380 . S
C305 C304 1.170 . S
C306 C304 1.380 . S
C306 C307 1.170 . S
C307 C306 1.170 . S
C308 C309 1.170 . S
C308 C310 1.380 . S
C309 C308 1.170 . S
C310 C308 1.380 . S
C310 C311 1.170 . S
C311 C310 1.170 . S
C312 C313 1.170 . S
C312 C314 1.380 . S
C313 C312 1.170 . S
C314 C312 1.380 . S
C314 C315 1.170 . S
C315 C314 1.170 . S
C316 C317 1.170 . S
C316 C318 1.380 . S
C317 C316 1.170 . S
C318 C316 1.380 . S
C318 C319 1.170 . S
C319 C318 1.170 . S
C320 C321 1.170 . S
C320 C322 1.380 . S
C321 C320 1.170 . S
C322 C320 1.380 . S
C322 C323 1.170 . S
C323 C322 1.170 . S
C324 C325 1.170 . S
C324 C326 1.380 . S
C325 C324 1.170 . S
C326 C324 1.380 . S
C326 C327 1.170 . S
C327 C326 1.170 . S
C328 C329 1.170 . S
C328 C330 1.380 . S
C329 C328 1.170 . S
C330 C328 1.380 . S
C330 C331 1.170 . S
C331 C330 1.170 . S
C332 C333 1.170 . S
C332 C334 1.380 . S
C333 C332 1.170 . S
C334 C332 1.380 . S
C334 C335 1.170 . S
C335 C334 1.170 . S
C209 C3 1.427 . S
C211 C31 1.462 . S
C213 C42 1.429 . S
C215 C18 1.461 . S
C217 C55 1.452 . S
C219 C81 1.435 . S
C221 C96 1.461 . S
C223 C70 1.428 . S
C225 C107 1.438 . S
C227 C135 1.434 . S
C229 C146 1.461 . S
C231 C122 1.432 . S
C233 C159 1.434 . S
C235 C187 1.462 . S
C237 C200 1.460 . S
C239 C172 1.444 . S
C241 C57 1.388 . S
C243 C5 1.379 . S
C245 C16 1.365 . S
C247 C68 1.357 . S
C249 C29 1.354 . S
C251 C83 1.377 . S
C253 C94 1.370 . S
C255 C44 1.391 . S
C257 C109 1.379 . S
C259 C161 1.362 . S
C261 C120 1.355 . S
C263 C174 1.388 . S
C265 C133 1.386 . S
C267 C185 1.356 . S
C269 C148 1.359 . S
C271 C198 1.382 . S
C273 C140 1.405 . S
C275 C4 1.411 . S
C277 C147 1.407 . S
C279 C23 1.401 . S
C281 C36 1.404 . S
C283 C108 1.410 . S
C285 C43 1.395 . S
C287 C127 1.394 . S
C289 C56 1.408 . S
C291 C192 1.413 . S
C293 C75 1.414 . S
C295 C205 1.414 . S
C297 C82 1.409 . S
C299 C160 1.403 . S
C301 C173 1.400 . S
C303 C101 1.406 . S
C305 C10 1.366 . S
C307 C199 1.363 . S
C309 C166 1.365 . S
C311 C17 1.370 . S
C313 C30 1.366 . S
C315 C179 1.363 . S
C317 C186 1.375 . S
C319 C49 1.373 . S
C321 C121 1.372 . S
C323 C62 1.374 . S
C325 C69 1.368 . S
C327 C134 1.364 . S
C329 C153 1.361 . S
C331 C88 1.362 . S
C333 C114 1.363 . S
C335 C95 1.361 . S
