# Generated by pormake.
# Topology smw, (6)-cn, num edge types: 1
# Building blocks:
#     Node 0, Type 0, BuildingBlock: IZENUY_clean_sbu_0, # of connection points: 6
#     Node 1, Type 0, BuildingBlock: IZENUY_clean_sbu_0, # of connection points: 6
#     Node 2, Type 0, BuildingBlock: IZENUY_clean_sbu_0, # of connection points: 6
#     Node 3, Type 0, BuildingBlock: IZENUY_clean_sbu_0, # of connection points: 6
#     Node 4, Type 0, BuildingBlock: IZENUY_clean_sbu_0, # of connection points: 6
#     Node 5, Type 0, BuildingBlock: IZENUY_clean_sbu_0, # of connection points: 6
#     Node 6, Type 0, BuildingBlock: IZENUY_clean_sbu_0, # of connection points: 6
#     Node 7, Type 0, BuildingBlock: IZENUY_clean_sbu_0, # of connection points: 6
#     Node 8, Type 0, BuildingBlock: IZENUY_clean_sbu_0, # of connection points: 6
#     Node 9, Type 0, BuildingBlock: IZENUY_clean_sbu_0, # of connection points: 6
#     Node 10, Type 0, BuildingBlock: IZENUY_clean_sbu_0, # of connection points: 6
#     Node 11, Type 0, BuildingBlock: IZENUY_clean_sbu_0, # of connection points: 6
#     Edge 12, Type (0, 0), BuildingBlock: UVAHIK_clean_linker_0, # of connection points: 2
#     Edge 13, Type (0, 0), BuildingBlock: UVAHIK_clean_linker_0, # of connection points: 2
#     Edge 14, Type (0, 0), BuildingBlock: UVAHIK_clean_linker_0, # of connection points: 2
#     Edge 15, Type (0, 0), BuildingBlock: UVAHIK_clean_linker_0, # of connection points: 2
#     Edge 16, Type (0, 0), BuildingBlock: UVAHIK_clean_linker_0, # of connection points: 2
#     Edge 17, Type (0, 0), BuildingBlock: UVAHIK_clean_linker_0, # of connection points: 2
#     Edge 18, Type (0, 0), BuildingBlock: UVAHIK_clean_linker_0, # of connection points: 2
#     Edge 19, Type (0, 0), BuildingBlock: UVAHIK_clean_linker_0, # of connection points: 2
#     Edge 20, Type (0, 0), BuildingBlock: UVAHIK_clean_linker_0, # of connection points: 2
#     Edge 21, Type (0, 0), BuildingBlock: UVAHIK_clean_linker_0, # of connection points: 2
#     Edge 22, Type (0, 0), BuildingBlock: UVAHIK_clean_linker_0, # of connection points: 2
#     Edge 23, Type (0, 0), BuildingBlock: UVAHIK_clean_linker_0, # of connection points: 2
#     Edge 24, Type (0, 0), BuildingBlock: UVAHIK_clean_linker_0, # of connection points: 2
#     Edge 25, Type (0, 0), BuildingBlock: UVAHIK_clean_linker_0, # of connection points: 2
#     Edge 26, Type (0, 0), BuildingBlock: UVAHIK_clean_linker_0, # of connection points: 2
#     Edge 27, Type (0, 0), BuildingBlock: UVAHIK_clean_linker_0, # of connection points: 2
#     Edge 28, Type (0, 0), BuildingBlock: UVAHIK_clean_linker_0, # of connection points: 2
#     Edge 29, Type (0, 0), BuildingBlock: UVAHIK_clean_linker_0, # of connection points: 2
#     Edge 30, Type (0, 0), BuildingBlock: UVAHIK_clean_linker_0, # of connection points: 2
#     Edge 31, Type (0, 0), BuildingBlock: UVAHIK_clean_linker_0, # of connection points: 2
#     Edge 32, Type (0, 0), BuildingBlock: UVAHIK_clean_linker_0, # of connection points: 2
#     Edge 33, Type (0, 0), BuildingBlock: UVAHIK_clean_linker_0, # of connection points: 2
#     Edge 34, Type (0, 0), BuildingBlock: UVAHIK_clean_linker_0, # of connection points: 2
#     Edge 35, Type (0, 0), BuildingBlock: UVAHIK_clean_linker_0, # of connection points: 2
#     Edge 36, Type (0, 0), BuildingBlock: UVAHIK_clean_linker_0, # of connection points: 2
#     Edge 37, Type (0, 0), BuildingBlock: UVAHIK_clean_linker_0, # of connection points: 2
#     Edge 38, Type (0, 0), BuildingBlock: UVAHIK_clean_linker_0, # of connection points: 2
#     Edge 39, Type (0, 0), BuildingBlock: UVAHIK_clean_linker_0, # of connection points: 2
#     Edge 40, Type (0, 0), BuildingBlock: UVAHIK_clean_linker_0, # of connection points: 2
#     Edge 41, Type (0, 0), BuildingBlock: UVAHIK_clean_linker_0, # of connection points: 2
#     Edge 42, Type (0, 0), BuildingBlock: UVAHIK_clean_linker_0, # of connection points: 2
#     Edge 43, Type (0, 0), BuildingBlock: UVAHIK_clean_linker_0, # of connection points: 2
#     Edge 44, Type (0, 0), BuildingBlock: UVAHIK_clean_linker_0, # of connection points: 2
#     Edge 45, Type (0, 0), BuildingBlock: UVAHIK_clean_linker_0, # of connection points: 2
#     Edge 46, Type (0, 0), BuildingBlock: UVAHIK_clean_linker_0, # of connection points: 2
#     Edge 47, Type (0, 0), BuildingBlock: UVAHIK_clean_linker_0, # of connection points: 2
# Relax obj value: 0.142
# Max RMSD: 0.113
# Mean RMSD: 0.113
data_MOF--net-smw--node1-IZENUY_clean_sbu_0--edge1-UVAHIK_clean_linker_0
_symmetry_space_group_name_H-M    P1
_symmetry_Int_Tables_number       1
_symmetry_cell_setting            triclinic
loop_
_symmetry_equiv_pos_as_xyz
'x, y, z'
_cell_length_a     72.969014
_cell_length_b     72.952239
_cell_length_c     25.692692
_cell_angle_alpha  89.834412
_cell_angle_beta   89.969724
_cell_angle_gamma 119.98089
loop_
_atom_site_label
_atom_site_type_symbol
_atom_site_fract_x
_atom_site_fract_y
_atom_site_fract_z
_atom_type_partial_charge
Fe0 Fe 0.47329 0.14293 0.99481 0.0
Fe1 Fe 0.45264 0.09471 0.98695 0.0
O2 O 0.45026 0.11761 0.99222 0.0
Fe3 Fe 0.42473 0.11495 0.99493 0.0
O4 O 0.4297 0.13083 0.9367 0.0
O5 O 0.46155 0.15627 0.95865 0.0
O6 O 0.48293 0.13928 0.93272 0.0
C7 C 0.48605 0.12415 0.92281 0.0
C8 C 0.44843 0.14813 0.0662 0.0
O9 O 0.47743 0.1075 0.95015 0.0
C10 C 0.41814 0.08168 0.05609 0.0
O11 O 0.48891 0.13385 0.03164 0.0
O12 O 0.46663 0.10021 0.04828 0.0
O13 O 0.43254 0.13793 0.03706 0.0
O14 O 0.46565 0.14868 0.05693 0.0
C15 C 0.42034 0.08473 0.91956 0.0
O16 O 0.42822 0.07736 0.02291 0.0
O17 O 0.4181 0.09892 0.05373 0.0
C18 C 0.48339 0.11726 0.05852 0.0
O19 O 0.43891 0.08805 0.92526 0.0
O20 O 0.41223 0.09142 0.95279 0.0
C21 C 0.44527 0.1492 0.93003 0.0
Fe22 Fe 0.329 0.47396 -0.00131 0.0
Fe23 Fe 0.35854 0.4557 0.00421 0.0
O24 O 0.33263 0.4517 0.00014 0.0
Fe25 Fe 0.31054 0.42559 -0.00286 0.0
O26 O 0.30208 0.43086 0.93519 0.0
O27 O 0.30554 0.46153 0.9571 0.0
O28 O 0.34474 0.48422 0.93961 0.0
C29 C 0.36363 0.48824 0.93564 0.0
C30 C 0.29658 0.44746 0.06314 0.0
O31 O 0.37112 0.48073 0.96822 0.0
C32 C 0.33502 0.42005 0.06891 0.0
O33 O 0.35181 0.49048 0.04048 0.0
O34 O 0.36309 0.4691 0.0661 0.0
O35 O 0.29278 0.43199 0.03382 0.0
O36 O 0.31311 0.46521 0.05722 0.0
C37 C 0.34111 0.42416 0.93208 0.0
O38 O 0.351 0.43145 0.04091 0.0
O39 O 0.31726 0.4182 0.05889 0.0
C40 C 0.36183 0.48557 0.07262 0.0
O41 O 0.35549 0.4427 0.94259 0.0
O42 O 0.32455 0.41474 0.95985 0.0
C43 C 0.29845 0.4458 0.92683 0.0
Fe44 Fe 0.88369 0.30958 0.99328 0.0
Fe45 Fe 0.85518 0.32958 0.98958 0.0
O46 O 0.88061 0.33213 0.98589 0.0
Fe47 Fe 0.90317 0.35721 0.97471 0.0
O48 O 0.90928 0.34805 0.91534 0.0
O49 O 0.90689 0.31943 0.95003 0.0
O50 O 0.86723 0.29701 0.93688 0.0
C51 C 0.84871 0.29392 0.93088 0.0
C52 C 0.91696 0.33872 0.05042 0.0
O53 O 0.84174 0.30344 0.95877 0.0
C54 C 0.88153 0.36783 0.04396 0.0
O55 O 0.86113 0.29541 0.03761 0.0
O56 O 0.8507 0.31825 0.05437 0.0
O57 O 0.92092 0.35171 0.01349 0.0
O58 O 0.90028 0.32086 0.05035 0.0
C59 C 0.87234 0.35826 0.90982 0.0
O60 O 0.86439 0.35538 0.02089 0.0
O61 O 0.89847 0.368 0.03317 0.0
C62 C 0.85125 0.30175 0.06601 0.0
O63 O 0.85742 0.34066 0.92499 0.0
O64 O 0.88964 0.36744 0.93428 0.0
C65 C 0.91311 0.33303 0.91375 0.0
Fe66 Fe 0.54383 0.90385 -0.0001 0.0
Fe67 Fe 0.5734 0.88539 0.99419 0.0
O68 O 0.54742 0.88164 -0.00174 0.0
Fe69 Fe 0.52496 0.85587 0.00098 0.0
O70 O 0.50773 0.86294 0.96429 0.0
O71 O 0.52879 0.89594 0.93995 0.0
O72 O 0.5672 0.92089 0.96106 0.0
C73 C 0.57762 0.91678 0.92857 0.0
C74 C 0.51303 0.87607 0.07105 0.0
O75 O 0.57891 0.90025 0.93341 0.0
C76 C 0.55498 0.85255 0.06435 0.0
O77 O 0.55859 0.91283 0.0599 0.0
O78 O 0.58564 0.90977 0.0334 0.0
O79 O 0.5165 0.86101 0.06334 0.0
O80 O 0.51979 0.8913 0.03929 0.0
C81 C 0.54918 0.85011 0.92839 0.0
O82 O 0.57002 0.87091 0.05438 0.0
O83 O 0.53819 0.8443 0.03765 0.0
C84 C 0.57741 0.91683 0.06533 0.0
O85 O 0.56565 0.8617 0.95474 0.0
O86 O 0.53169 0.84877 0.93933 0.0
C87 C 0.51211 0.87832 0.93386 0.0
Fe88 Fe 0.6431 0.54641 0.99402 0.0
Fe89 Fe 0.69126 0.57536 0.99086 0.0
O90 O 0.66873 0.54961 0.99144 0.0
Fe91 Fe 0.67161 0.52695 0.98977 0.0
O92 O 0.64725 0.51081 0.95278 0.0
O93 O 0.63606 0.5328 0.93183 0.0
O94 O 0.6501 0.57099 0.95915 0.0
C95 C 0.66509 0.58201 0.92812 0.0
C96 C 0.63953 0.51397 0.06025 0.0
O97 O 0.68254 0.58249 0.93169 0.0
C98 C 0.70502 0.55492 0.05573 0.0
O99 O 0.64874 0.55956 0.0562 0.0
O100 O 0.67919 0.58702 0.03299 0.0
O101 O 0.65802 0.51741 0.05184 0.0
O102 O 0.63121 0.52141 0.02998 0.0
C103 C 0.70187 0.55236 0.91937 0.0
O104 O 0.70164 0.57015 0.0498 0.0
O105 O 0.69652 0.53903 0.02594 0.0
C106 C 0.66371 0.57807 0.0644 0.0
O107 O 0.70717 0.56811 0.94902 0.0
O108 O 0.68529 0.53493 0.928 0.0
C109 C 0.63667 0.51605 0.9234 0.0
Fe110 Fe 0.09619 0.6403 0.00506 0.0
Fe111 Fe 0.11537 0.68846 -0.00183 0.0
O112 O 0.11863 0.66594 0.00068 0.0
Fe113 Fe 0.14415 0.66875 -0.00114 0.0
O114 O 0.13806 0.65299 0.94011 0.0
O115 O 0.1081 0.62706 0.9698 0.0
O116 O 0.08663 0.64375 0.94329 0.0
C117 C 0.08289 0.65845 0.93269 0.0
C118 C 0.12233 0.63631 0.07378 0.0
O119 O 0.09055 0.6751 0.96025 0.0
C120 C 0.15124 0.70138 0.06347 0.0
O121 O 0.0797 0.64846 0.04053 0.0
O122 O 0.10135 0.68169 0.06006 0.0
O123 O 0.1372 0.64581 0.04107 0.0
O124 O 0.10479 0.63551 0.06734 0.0
C125 C 0.14754 0.70019 0.92768 0.0
O126 O 0.13958 0.70559 0.03508 0.0
O127 O 0.15201 0.68465 0.05706 0.0
C128 C 0.08458 0.66446 0.06846 0.0
O129 O 0.12922 0.69714 0.93644 0.0
O130 O 0.15572 0.69223 0.9569 0.0
C131 C 0.123 0.6342 0.93693 0.0
Fe132 Fe 0.88575 0.57251 0.49488 0.0
Fe133 Fe 0.85729 0.52442 0.48159 0.0
O134 O 0.8827 0.5469 0.48965 0.0
Fe135 Fe 0.9052 0.54379 0.49242 0.0
O136 O 0.91133 0.55466 0.55725 0.0
O137 O 0.90859 0.58267 0.5394 0.0
O138 O 0.86903 0.56496 0.55215 0.0
C139 C 0.85032 0.54963 0.55434 0.0
C140 C 0.91979 0.58153 0.43414 0.0
O141 O 0.84357 0.53489 0.52105 0.0
C142 C 0.88336 0.51646 0.414 0.0
O143 O 0.86344 0.56698 0.45177 0.0
O144 O 0.853 0.53504 0.42216 0.0
O145 O 0.92333 0.56959 0.46304 0.0
O146 O 0.9027 0.5818 0.43762 0.0
C147 C 0.8745 0.50816 0.5487 0.0
O148 O 0.86655 0.51006 0.44042 0.0
O149 O 0.90034 0.53266 0.42759 0.0
C150 C 0.85376 0.55262 0.41822 0.0
O151 O 0.85976 0.51207 0.54062 0.0
O152 O 0.89146 0.51748 0.52257 0.0
C153 C 0.91512 0.57303 0.5685 0.0
Fe154 Fe 0.30972 0.8847 0.49554 0.0
Fe155 Fe 0.32984 0.85631 0.49973 0.0
O156 O 0.33241 0.88177 0.4991 0.0
Fe157 Fe 0.35787 0.90448 0.50214 0.0
O158 O 0.35136 0.91242 0.56285 0.0
O159 O 0.32108 0.90874 0.53589 0.0
O160 O 0.29875 0.86958 0.55498 0.0
C161 C 0.29579 0.85123 0.56328 0.0
C162 C 0.33634 0.91707 0.43205 0.0
O163 O 0.30479 0.84369 0.53563 0.0
C164 C 0.36545 0.88032 0.43443 0.0
O165 O 0.29442 0.86126 0.45495 0.0
O166 O 0.31643 0.84973 0.43755 0.0
O167 O 0.35096 0.92152 0.46449 0.0
O168 O 0.31898 0.89999 0.43553 0.0
C169 C 0.36151 0.87617 0.57074 0.0
O170 O 0.35446 0.86449 0.46361 0.0
O171 O 0.36581 0.89763 0.44158 0.0
C172 C 0.30002 0.85063 0.42704 0.0
O173 O 0.34313 0.86099 0.56228 0.0
O174 O 0.36971 0.89201 0.54062 0.0
C175 C 0.33618 0.91589 0.56829 0.0
Fe176 Fe 0.47634 0.33113 0.49282 0.0
Fe177 Fe 0.45785 0.36049 0.49223 0.0
O178 O 0.45396 0.33458 0.49217 0.0
Fe179 Fe 0.42782 0.31245 0.49204 0.0
O180 O 0.43231 0.30203 0.55204 0.0
O181 O 0.46372 0.30687 0.53168 0.0
O182 O 0.48599 0.34559 0.55373 0.0
C183 C 0.48975 0.36429 0.56002 0.0
C184 C 0.45069 0.30017 0.42426 0.0
O185 O 0.48266 0.37239 0.52818 0.0
C186 C 0.42263 0.33889 0.4258 0.0
O187 O 0.49296 0.35483 0.4534 0.0
O188 O 0.47163 0.36658 0.43034 0.0
O189 O 0.43465 0.29585 0.45206 0.0
O190 O 0.46837 0.31644 0.43264 0.0
C191 C 0.42589 0.34104 0.56301 0.0
O192 O 0.43375 0.35383 0.45653 0.0
O193 O 0.42105 0.32099 0.43178 0.0
C194 C 0.48819 0.36551 0.42293 0.0
O195 O 0.4445 0.35575 0.55411 0.0
O196 O 0.41665 0.32537 0.53252 0.0
C197 C 0.44742 0.29865 0.56028 0.0
Fe198 Fe 0.11325 0.42441 0.49654 0.0
Fe199 Fe 0.14344 0.47261 0.50337 0.0
O200 O 0.11751 0.45055 0.501 0.0
Fe201 Fe 0.09571 0.45476 0.50286 0.0
O202 O 0.0779 0.42978 0.53526 0.0
O203 O 0.09774 0.41621 0.55647 0.0
O204 O 0.13651 0.42985 0.53603 0.0
C205 C 0.14788 0.44488 0.56675 0.0
C206 C 0.08266 0.42442 0.42809 0.0
O207 O 0.1493 0.46275 0.56191 0.0
C208 C 0.12481 0.48848 0.43969 0.0
O209 O 0.12831 0.43049 0.43643 0.0
O210 O 0.15516 0.46074 0.46205 0.0
O211 O 0.08718 0.44304 0.43935 0.0
O212 O 0.0893 0.41452 0.45587 0.0
C213 C 0.12079 0.48303 0.57599 0.0
O214 O 0.13937 0.48406 0.44449 0.0
O215 O 0.10918 0.48052 0.47039 0.0
C216 C 0.14702 0.44548 0.43037 0.0
O217 O 0.13639 0.48843 0.54563 0.0
O218 O 0.10315 0.46682 0.56663 0.0
C219 C 0.08123 0.41742 0.56296 0.0
Fe220 Fe 0.66838 0.1437 0.49193 0.0
Fe221 Fe 0.64006 0.0956 0.50088 0.0
O222 O 0.66552 0.11811 0.49457 0.0
Fe223 Fe 0.68803 0.1148 0.49115 0.0
O224 O 0.69919 0.13042 0.54926 0.0
O225 O 0.69354 0.15646 0.5276 0.0
O226 O 0.65542 0.14036 0.55436 0.0
C227 C 0.63723 0.12541 0.56551 0.0
C228 C 0.69823 0.14864 0.42032 0.0
O229 O 0.62869 0.10872 0.53862 0.0
C230 C 0.66063 0.08201 0.43041 0.0
O231 O 0.64363 0.1352 0.45573 0.0
O232 O 0.63146 0.10139 0.4402 0.0
O233 O 0.70353 0.1379 0.44892 0.0
O234 O 0.68159 0.14925 0.42951 0.0
C235 C 0.66202 0.08454 0.5669 0.0
O236 O 0.6465 0.0781 0.46416 0.0
O237 O 0.67828 0.09888 0.43254 0.0
C238 C 0.63203 0.11857 0.42978 0.0
O239 O 0.64718 0.08854 0.56206 0.0
O240 O 0.67673 0.09109 0.53333 0.0
C241 C 0.70233 0.14888 0.55622 0.0
Fe242 Fe 0.57377 0.68943 0.49691 0.0
Fe243 Fe 0.52528 0.66974 0.49695 0.0
O244 O 0.54798 0.6669 0.49682 0.0
Fe245 Fe 0.54484 0.64125 0.49652 0.0
O246 O 0.56934 0.64856 0.53184 0.0
O247 O 0.58058 0.68112 0.55717 0.0
O248 O 0.56647 0.7057 0.53693 0.0
C249 C 0.55048 0.70088 0.56543 0.0
C250 C 0.57667 0.66125 0.42584 0.0
O251 O 0.53307 0.68428 0.55732 0.0
C252 C 0.51203 0.63665 0.43002 0.0
O253 O 0.56894 0.69954 0.43701 0.0
O254 O 0.5374 0.69415 0.45823 0.0
O255 O 0.55812 0.64634 0.43443 0.0
O256 O 0.58551 0.67699 0.45635 0.0
C257 C 0.51439 0.63546 0.56659 0.0
O258 O 0.51576 0.65533 0.43617 0.0
O259 O 0.51985 0.62886 0.46079 0.0
C260 C 0.55371 0.70279 0.42955 0.0
O261 O 0.50917 0.64584 0.53629 0.0
O262 O 0.53117 0.63483 0.55872 0.0
C263 C 0.58017 0.66375 0.5623 0.0
C264 C 0.46627 0.17728 0.13128 0.0
C265 C 0.44758 0.16169 0.10773 0.0
C266 C 0.46565 0.19121 0.16745 0.0
C267 C 0.43201 0.2132 0.20921 0.0
H268 H 0.47101 0.23403 0.32541 0.0
C269 C 0.42974 0.26715 0.37182 0.0
C270 C 0.44939 0.28459 0.38554 0.0
C271 C 0.42873 0.2517 0.33798 0.0
C272 C 0.46012 0.22843 0.29292 0.0
H273 H 0.41348 0.14789 0.10538 0.0
H274 H 0.41234 0.17182 0.16958 0.0
H275 H 0.47032 0.20694 0.26881 0.0
H276 H 0.48335 0.29967 0.3735 0.0
H277 H 0.48151 0.27264 0.31484 0.0
H278 H 0.42168 0.2346 0.23404 0.0
C279 C 0.42755 0.17368 0.15901 0.0
C280 C 0.45974 0.21295 0.26041 0.0
C281 C 0.42819 0.15987 0.12245 0.0
C282 C 0.46795 0.28644 0.36386 0.0
C283 C 0.46694 0.2709 0.33054 0.0
C284 C 0.43224 0.22854 0.24209 0.0
C285 C 0.44631 0.18973 0.18138 0.0
C286 C 0.44585 0.20531 0.21777 0.0
C287 C 0.44735 0.25328 0.31769 0.0
C288 C 0.44648 0.23647 0.28387 0.0
H289 H 0.48149 0.17918 0.12068 0.0
H290 H 0.48045 0.20354 0.18328 0.0
H291 H 0.42134 0.20795 0.17629 0.0
H292 H 0.41515 0.26528 0.38773 0.0
H293 H 0.41343 0.23823 0.32876 0.0
C294 C 0.15354 0.42633 0.35772 0.0
C295 C 0.16044 0.44456 0.38838 0.0
C296 C 0.1668 0.4255 0.31952 0.0
C297 C 0.21392 0.45984 0.23971 0.0
H298 H 0.22099 0.41065 0.23173 0.0
C299 C 0.28422 0.46279 0.1326 0.0
C300 C 0.28035 0.44555 0.10088 0.0
C301 C 0.26855 0.46158 0.16591 0.0
C302 C 0.21899 0.42438 0.23303 0.0
H303 H 0.18656 0.47632 0.40218 0.0
H304 H 0.20952 0.4748 0.33611 0.0
H305 H 0.19486 0.41051 0.2916 0.0
H306 H 0.25708 0.41329 0.08041 0.0
H307 H 0.22965 0.41127 0.13862 0.0
H308 H 0.23813 0.47383 0.18173 0.0
C309 C 0.19386 0.4612 0.34121 0.0
C310 C 0.20401 0.42429 0.26723 0.0
C311 C 0.18071 0.462 0.37941 0.0
C312 C 0.26059 0.42687 0.10427 0.0
C313 C 0.24488 0.42567 0.13773 0.0
C314 C 0.22884 0.45993 0.20561 0.0
C315 C 0.18712 0.44294 0.31097 0.0
C316 C 0.20159 0.44217 0.27154 0.0
C317 C 0.24862 0.44313 0.16839 0.0
C318 C 0.23181 0.44235 0.2025 0.0
H319 H 0.13801 0.41263 0.3636 0.0
H320 H 0.16113 0.41127 0.29651 0.0
H321 H 0.21213 0.4737 0.24141 0.0
H322 H 0.29931 0.47736 0.13137 0.0
H323 H 0.27208 0.47516 0.18984 0.0
C324 C 0.83936 0.27047 0.12522 0.0
C325 C 0.83745 0.28778 0.10818 0.0
C326 C 0.82492 0.25592 0.16088 0.0
C327 C 0.77021 0.23397 0.20378 0.0
H328 H 0.78694 0.212 0.3208 0.0
C329 C 0.71023 0.17897 0.35786 0.0
C330 C 0.71323 0.1631 0.38051 0.0
C331 C 0.72536 0.19391 0.32409 0.0
C332 C 0.78196 0.2177 0.28783 0.0
H333 H 0.81929 0.30377 0.11674 0.0
H334 H 0.794 0.27823 0.17878 0.0
H335 H 0.814 0.23934 0.26531 0.0
H336 H 0.73413 0.14999 0.38368 0.0
H337 H 0.76023 0.17566 0.32351 0.0
H338 H 0.73823 0.21211 0.22525 0.0
C339 C 0.80663 0.27591 0.16422 0.0
C340 C 0.79749 0.23346 0.25627 0.0
C341 C 0.82121 0.29061 0.12899 0.0
C342 C 0.7314 0.1621 0.3672 0.0
C343 C 0.74646 0.17694 0.33302 0.0
C344 C 0.75469 0.21807 0.23497 0.0
C345 C 0.80815 0.25825 0.17987 0.0
C346 C 0.79177 0.24181 0.21406 0.0
C347 C 0.74379 0.19324 0.31165 0.0
C348 C 0.76034 0.20977 0.27754 0.0
H349 H 0.85174 0.26789 0.1101 0.0
H350 H 0.82642 0.24241 0.17212 0.0
H351 H 0.76534 0.23985 0.17093 0.0
H352 H 0.69648 0.1803 0.36741 0.0
H353 H 0.72286 0.20636 0.309 0.0
C354 C 0.57544 0.73326 0.36902 0.0
C355 C 0.5557 0.71869 0.3906 0.0
C356 C 0.57731 0.74925 0.33538 0.0
C357 C 0.54902 0.77781 0.29854 0.0
H358 H 0.58509 0.79474 0.1763 0.0
C359 C 0.53904 0.82237 0.12699 0.0
C360 C 0.55723 0.83966 0.10565 0.0
C361 C 0.54077 0.80952 0.16462 0.0
C362 C 0.57519 0.79036 0.21072 0.0
H363 H 0.52231 0.7089 0.3919 0.0
H364 H 0.52545 0.73626 0.33248 0.0
H365 H 0.58426 0.76792 0.23519 0.0
H366 H 0.59153 0.85712 0.10731 0.0
H367 H 0.59454 0.83423 0.17292 0.0
H368 H 0.53941 0.7997 0.27309 0.0
C369 C 0.53964 0.73585 0.3427 0.0
C370 C 0.5747 0.77502 0.24447 0.0
C371 C 0.5378 0.72003 0.37651 0.0
C372 C 0.57724 0.84393 0.12316 0.0
C373 C 0.57897 0.83081 0.1604 0.0
C374 C 0.54937 0.79295 0.26465 0.0
C375 C 0.55946 0.7509 0.3224 0.0
C376 C 0.56129 0.76827 0.28827 0.0
C377 C 0.56072 0.81349 0.18143 0.0
C378 C 0.56217 0.79911 0.21996 0.0
H379 H 0.58955 0.73269 0.3792 0.0
H380 H 0.59283 0.76064 0.32067 0.0
H381 H 0.53895 0.77344 0.33265 0.0
H382 H 0.52339 0.81871 0.11453 0.0
H383 H 0.52644 0.79616 0.1798 0.0
C384 C 0.72434 0.53923 0.10057 0.0
C385 C 0.72047 0.55617 0.09494 0.0
C386 C 0.73904 0.5402 0.13665 0.0
C387 C 0.78568 0.57714 0.2125 0.0
H388 H 0.77214 0.5264 0.29097 0.0
C389 C 0.83862 0.57343 0.377 0.0
C390 C 0.84066 0.55525 0.37813 0.0
C391 C 0.82465 0.57488 0.34223 0.0
C392 C 0.77624 0.54064 0.26899 0.0
H393 H 0.72903 0.58745 0.12316 0.0
H394 H 0.75474 0.58906 0.18682 0.0
H395 H 0.74588 0.52644 0.23278 0.0
H396 H 0.83038 0.5248 0.34175 0.0
H397 H 0.8062 0.52744 0.28117 0.0
H398 H 0.81615 0.59129 0.249 0.0
C399 C 0.74645 0.57511 0.16272 0.0
C400 C 0.76119 0.54068 0.2357 0.0
C401 C 0.73166 0.57414 0.12649 0.0
C402 C 0.82905 0.53894 0.34238 0.0
C403 C 0.81509 0.54039 0.30782 0.0
C404 C 0.80079 0.57712 0.24604 0.0
C405 C 0.75024 0.5581 0.16823 0.0
C406 C 0.76583 0.5588 0.20644 0.0
C407 C 0.81242 0.55817 0.30805 0.0
C408 C 0.79631 0.55875 0.274 0.0
H409 H 0.71609 0.52515 0.07688 0.0
H410 H 0.74184 0.52698 0.13927 0.0
H411 H 0.78978 0.5913 0.19016 0.0
H412 H 0.84738 0.58631 0.40391 0.0
H413 H 0.82288 0.58876 0.34336 0.0
C414 C 0.28852 0.82125 0.36244 0.0
C415 C 0.28588 0.83732 0.38491 0.0
C416 C 0.27429 0.80781 0.32509 0.0
C417 C 0.21978 0.78819 0.27763 0.0
H418 H 0.23839 0.76656 0.16391 0.0
C419 C 0.16442 0.7353 0.11282 0.0
C420 C 0.16597 0.71733 0.10081 0.0
C421 C 0.179 0.75076 0.1464 0.0
C422 C 0.23298 0.77242 0.19565 0.0
H423 H 0.26673 0.85244 0.38421 0.0
H424 H 0.24224 0.82934 0.31813 0.0
H425 H 0.26449 0.79278 0.2227 0.0
H426 H 0.18392 0.7014 0.11518 0.0
H427 H 0.20932 0.72841 0.17336 0.0
H428 H 0.18825 0.76787 0.25005 0.0
C429 C 0.25496 0.82674 0.33038 0.0
C430 C 0.2479 0.78738 0.22942 0.0
C431 C 0.26908 0.84006 0.36806 0.0
C432 C 0.18225 0.71505 0.12352 0.0
C433 C 0.19691 0.73058 0.15657 0.0
C434 C 0.20487 0.77337 0.24353 0.0
C435 C 0.25721 0.81026 0.30896 0.0
C436 C 0.24147 0.79526 0.27122 0.0
C437 C 0.19551 0.74863 0.16809 0.0
C438 C 0.21132 0.76515 0.20264 0.0
H439 H 0.30127 0.81867 0.37467 0.0
H440 H 0.27636 0.79512 0.30998 0.0
H441 H 0.21422 0.79366 0.30985 0.0
H442 H 0.15203 0.7375 0.09606 0.0
H443 H 0.17761 0.76457 0.15458 0.0
C444 C 0.53272 0.71311 0.62855 0.0
C445 C 0.5514 0.71613 0.60474 0.0
C446 C 0.53324 0.72817 0.66281 0.0
C447 C 0.56765 0.77155 0.74955 0.0
H448 H 0.52614 0.78936 0.72986 0.0
C449 C 0.56955 0.83901 0.87057 0.0
C450 C 0.55001 0.83623 0.88766 0.0
C451 C 0.57033 0.82521 0.83417 0.0
C452 C 0.53768 0.7844 0.73635 0.0
H453 H 0.58537 0.73705 0.59966 0.0
H454 H 0.58624 0.76328 0.66017 0.0
H455 H 0.52634 0.76313 0.67172 0.0
H456 H 0.51596 0.81691 0.87936 0.0
H457 H 0.51729 0.7926 0.81697 0.0
H458 H 0.57871 0.7924 0.8149 0.0
C459 C 0.57122 0.74926 0.65196 0.0
C460 C 0.53782 0.76941 0.70293 0.0
C461 C 0.5707 0.73427 0.61721 0.0
C462 C 0.53128 0.81957 0.86688 0.0
C463 C 0.53206 0.80567 0.83083 0.0
C464 C 0.5674 0.78642 0.78333 0.0
C465 C 0.55245 0.74648 0.67447 0.0
C466 C 0.55272 0.76275 0.70936 0.0
C467 C 0.55159 0.80823 0.81428 0.0
C468 C 0.55234 0.79295 0.7773 0.0
H469 H 0.51758 0.6993 0.61999 0.0
H470 H 0.51856 0.72548 0.6802 0.0
H471 H 0.57919 0.76656 0.75564 0.0
H472 H 0.58429 0.8518 0.88547 0.0
H473 H 0.58565 0.8279 0.82159 0.0
C474 C 0.73706 0.57102 0.8739 0.0
C475 C 0.71656 0.55342 0.87812 0.0
C476 C 0.75144 0.57115 0.83768 0.0
C477 C 0.76202 0.53449 0.76202 0.0
H478 H 0.80088 0.58497 0.68503 0.0
C479 C 0.81439 0.53319 0.59555 0.0
C480 C 0.8354 0.54999 0.59289 0.0
C481 C 0.80005 0.53383 0.63048 0.0
C482 C 0.79027 0.57081 0.70669 0.0
H483 H 0.69482 0.52255 0.84588 0.0
H484 H 0.71976 0.52296 0.78239 0.0
H485 H 0.7752 0.586 0.74417 0.0
H486 H 0.85784 0.58052 0.62556 0.0
H487 H 0.83279 0.58152 0.68676 0.0
H488 H 0.77703 0.51928 0.72452 0.0
C489 C 0.72489 0.53645 0.80787 0.0
C490 C 0.77556 0.57139 0.74053 0.0
C491 C 0.71055 0.53629 0.8441 0.0
C492 C 0.84177 0.56733 0.62645 0.0
C493 C 0.82739 0.56798 0.66129 0.0
C494 C 0.77668 0.5339 0.72815 0.0
C495 C 0.74562 0.55372 0.80479 0.0
C496 C 0.76123 0.55321 0.76851 0.0
C497 C 0.80635 0.55127 0.66355 0.0
C498 C 0.79096 0.55204 0.70004 0.0
H499 H 0.74222 0.58448 0.89951 0.0
H500 H 0.76733 0.58465 0.83658 0.0
H501 H 0.75149 0.52031 0.78375 0.0
H502 H 0.80892 0.51959 0.57029 0.0
H503 H 0.7839 0.5208 0.6309 0.0
C504 C 0.28094 0.81959 0.62146 0.0
C505 C 0.2804 0.83749 0.60322 0.0
C506 C 0.26617 0.80604 0.65786 0.0
C507 C 0.21277 0.78697 0.70627 0.0
H508 H 0.23196 0.76765 0.82389 0.0
C509 C 0.15604 0.73031 0.86623 0.0
C510 C 0.16084 0.7153 0.8867 0.0
C511 C 0.16996 0.74589 0.83147 0.0
C512 C 0.22628 0.77265 0.79092 0.0
H513 H 0.26391 0.85524 0.60902 0.0
H514 H 0.23774 0.8312 0.67256 0.0
H515 H 0.25778 0.79416 0.76497 0.0
H516 H 0.18335 0.70413 0.88449 0.0
H517 H 0.20719 0.73077 0.82302 0.0
H518 H 0.18122 0.765 0.73141 0.0
C519 C 0.24974 0.82781 0.65851 0.0
C520 C 0.2411 0.78794 0.75739 0.0
C521 C 0.26476 0.8416 0.62247 0.0
C522 C 0.17934 0.71565 0.87002 0.0
C523 C 0.1931 0.73104 0.83503 0.0
C524 C 0.19787 0.77148 0.73966 0.0
C525 C 0.25035 0.80992 0.67655 0.0
C526 C 0.23452 0.79504 0.71433 0.0
C527 C 0.18887 0.74667 0.81623 0.0
C528 C 0.20447 0.76389 0.78194 0.0
H529 H 0.29282 0.816 0.60757 0.0
H530 H 0.2669 0.79226 0.67073 0.0
H531 H 0.20729 0.79209 0.67311 0.0
H532 H 0.14192 0.73048 0.87845 0.0
H533 H 0.16624 0.75773 0.81793 0.0
C534 C 0.46394 0.28376 0.61893 0.0
C535 C 0.44562 0.28347 0.60103 0.0
C536 C 0.46256 0.26869 0.6546 0.0
C537 C 0.42694 0.22816 0.74992 0.0
H538 H 0.46631 0.2076 0.73076 0.0
C539 C 0.42445 0.15901 0.86959 0.0
C540 C 0.444 0.1634 0.89076 0.0
C541 C 0.4234 0.17286 0.83346 0.0
C542 C 0.45527 0.21326 0.73669 0.0
H543 H 0.41144 0.26742 0.60753 0.0
H544 H 0.40893 0.24063 0.66919 0.0
H545 H 0.46648 0.23322 0.66961 0.0
H546 H 0.47779 0.18558 0.89 0.0
H547 H 0.47595 0.20948 0.8265 0.0
H548 H 0.41561 0.20779 0.81687 0.0
C549 C 0.42443 0.25276 0.65613 0.0
C550 C 0.45542 0.22802 0.70184 0.0
C551 C 0.42585 0.26806 0.62071 0.0
C552 C 0.46247 0.18176 0.87458 0.0
C553 C 0.46145 0.1954 0.83802 0.0
C554 C 0.42665 0.21316 0.78457 0.0
C555 C 0.44279 0.25271 0.67288 0.0
C556 C 0.44154 0.23599 0.70851 0.0
C557 C 0.44191 0.19114 0.81723 0.0
C558 C 0.44106 0.20585 0.77871 0.0
H559 H 0.47945 0.29563 0.60516 0.0
H560 H 0.47708 0.26956 0.66773 0.0
H561 H 0.41614 0.23405 0.75649 0.0
H562 H 0.40993 0.14502 0.88137 0.0
H563 H 0.40816 0.16916 0.81777 0.0
C564 C 0.17563 0.45968 0.63594 0.0
C565 C 0.16198 0.44254 0.60434 0.0
C566 C 0.19034 0.45836 0.668 0.0
C567 C 0.20356 0.42162 0.73331 0.0
H568 H 0.26005 0.47064 0.73428 0.0
C569 C 0.27229 0.42536 0.85607 0.0
C570 C 0.28402 0.4442 0.88434 0.0
C571 C 0.25788 0.42386 0.81794 0.0
C572 C 0.24433 0.45686 0.73465 0.0
H573 H 0.15259 0.41022 0.58331 0.0
H574 H 0.17837 0.40794 0.63977 0.0
H575 H 0.23328 0.47015 0.67687 0.0
H576 H 0.29013 0.47635 0.89378 0.0
H577 H 0.26511 0.47367 0.828 0.0
H578 H 0.2146 0.40854 0.79201 0.0
C579 C 0.17762 0.4224 0.63944 0.0
C580 C 0.22899 0.4566 0.70181 0.0
C581 C 0.1629 0.42374 0.60706 0.0
C582 C 0.28135 0.46158 0.87289 0.0
C583 C 0.26709 0.4601 0.83482 0.0
C584 C 0.21894 0.42191 0.76638 0.0
C585 C 0.19177 0.43986 0.66946 0.0
C586 C 0.20832 0.43918 0.70155 0.0
C587 C 0.25509 0.44121 0.80709 0.0
C588 C 0.23937 0.43974 0.76816 0.0
H589 H 0.17528 0.47434 0.63527 0.0
H590 H 0.20072 0.47192 0.69154 0.0
H591 H 0.18774 0.40801 0.73402 0.0
H592 H 0.27398 0.41169 0.86391 0.0
H593 H 0.24896 0.40915 0.79691 0.0
C594 C 0.83861 0.26277 0.87228 0.0
C595 C 0.83422 0.27794 0.89327 0.0
C596 C 0.82446 0.24748 0.8376 0.0
C597 C 0.76863 0.22271 0.79252 0.0
H598 H 0.78933 0.20566 0.67374 0.0
C599 C 0.7172 0.18047 0.61435 0.0
C600 C 0.71752 0.16246 0.59639 0.0
C601 C 0.73142 0.19332 0.65245 0.0
C602 C 0.78336 0.21014 0.70706 0.0
H603 H 0.81189 0.28937 0.89312 0.0
H604 H 0.78769 0.26331 0.83182 0.0
H605 H 0.81447 0.23067 0.73653 0.0
H606 H 0.73309 0.14386 0.60402 0.0
H607 H 0.75827 0.16667 0.67013 0.0
H608 H 0.73758 0.20273 0.76189 0.0
C609 C 0.80163 0.26265 0.84327 0.0
C610 C 0.79772 0.2244 0.74314 0.0
C611 C 0.81561 0.27773 0.87823 0.0
C612 C 0.73244 0.15762 0.61716 0.0
C613 C 0.7469 0.17069 0.65475 0.0
C614 C 0.75434 0.2087 0.75616 0.0
C615 C 0.80574 0.2472 0.82282 0.0
C616 C 0.79054 0.23107 0.78599 0.0
C617 C 0.74643 0.18859 0.67287 0.0
C618 C 0.76158 0.20246 0.71283 0.0
H619 H 0.85281 0.2625 0.88322 0.0
H620 H 0.82804 0.23571 0.82302 0.0
H621 H 0.76246 0.22704 0.82571 0.0
H622 H 0.70585 0.18457 0.59928 0.0
H623 H 0.73086 0.20714 0.66549 0.0
C624 C 0.34786 0.95458 0.41237 0.0
C625 C 0.33881 0.93361 0.39517 0.0
C626 C 0.35234 0.9709 0.37727 0.0
C627 C 0.34502 0.98238 0.23888 0.0
H628 H 0.39751 0.03441 0.266 0.0
C629 C 0.39697 0.04387 0.08329 0.0
C630 C 0.40478 0.06536 0.09458 0.0
C631 C 0.38549 0.02831 0.12047 0.0
C632 C 0.38265 0.0201 0.25832 0.0
H633 H 0.32669 0.91297 0.32846 0.0
H634 H 0.33558 0.94161 0.26605 0.0
H635 H 0.38407 0.00598 0.3297 0.0
H636 H 0.40635 0.08742 0.1531 0.0
H637 H 0.38676 0.06007 0.21916 0.0
H638 H 0.34466 0.99637 0.16553 0.0
C639 C 0.33863 0.94551 0.30691 0.0
C640 C 0.37482 0.00375 0.29495 0.0
C641 C 0.33362 0.92906 0.34248 0.0
C642 C 0.40047 0.07097 0.14343 0.0
C643 C 0.38934 0.05538 0.18112 0.0
C644 C 0.35311 0.99864 0.20175 0.0
C645 C 0.34848 0.96673 0.32374 0.0
C646 C 0.35596 0.98456 0.28567 0.0
C647 C 0.38193 0.03394 0.17004 0.0
C648 C 0.37209 0.01756 0.21105 0.0
H649 H 0.35168 0.95839 0.45311 0.0
H650 H 0.35921 0.98685 0.39217 0.0
H651 H 0.33028 0.96805 0.23061 0.0
H652 H 0.39992 0.03908 0.04579 0.0
H653 H 0.38011 0.01192 0.11116 0.0
C654 C 0.39137 0.32573 0.36466 0.0
C655 C 0.40971 0.34245 0.387 0.0
C656 C 0.37831 0.33002 0.33269 0.0
C657 C 0.366 0.37267 0.30896 0.0
H658 H 0.34731 0.34879 0.17152 0.0
C659 C 0.35628 0.4175 0.14059 0.0
C660 C 0.33747 0.40798 0.11173 0.0
C661 C 0.35996 0.40605 0.1785 0.0
C662 C 0.35201 0.35521 0.21032 0.0
H663 H 0.42942 0.37665 0.39044 0.0
H664 H 0.40703 0.38396 0.33508 0.0
H665 H 0.36406 0.33448 0.22912 0.0
H666 H 0.30766 0.37909 0.09974 0.0
H667 H 0.3145 0.35861 0.16578 0.0
H668 H 0.35528 0.39426 0.28913 0.0
C669 C 0.40228 0.3676 0.34324 0.0
C670 C 0.36159 0.34706 0.24319 0.0
C671 C 0.4152 0.36337 0.3748 0.0
C672 C 0.3222 0.38678 0.12191 0.0
C673 C 0.32614 0.37509 0.15926 0.0
C674 C 0.35662 0.38086 0.27616 0.0
C675 C 0.38342 0.35105 0.32288 0.0
C676 C 0.36949 0.35635 0.29197 0.0
C677 C 0.3451 0.38469 0.18773 0.0
C678 C 0.35028 0.37274 0.22588 0.0
H679 H 0.38676 0.30945 0.37328 0.0
H680 H 0.36393 0.31696 0.31707 0.0
H681 H 0.37147 0.37982 0.34684 0.0
H682 H 0.36829 0.43382 0.13347 0.0
H683 H 0.37477 0.41375 0.19967 0.0
C684 C 0.05525 0.39096 0.38513 0.0
C685 C 0.06668 0.4132 0.38721 0.0
C686 C 0.03837 0.38056 0.35037 0.0
C687 C 0.00041 0.39027 0.27816 0.0
H688 H 0.98936 0.34111 0.19672 0.0
C689 C 0.94852 0.3659 0.09789 0.0
C690 C 0.93285 0.34456 0.09212 0.0
C691 C 0.96358 0.37201 0.13707 0.0
C692 C 0.99212 0.35464 0.21989 0.0
H693 H 0.07033 0.44194 0.35216 0.0
H694 H 0.04133 0.42389 0.29119 0.0
H695 H 0.01912 0.35636 0.25791 0.0
H696 H 0.92081 0.31284 0.12278 0.0
H697 H 0.94765 0.32368 0.19158 0.0
H698 H 0.97391 0.38899 0.23934 0.0
C699 C 0.04491 0.41444 0.31738 0.0
C700 C 0.00913 0.36337 0.25477 0.0
C701 C 0.06163 0.42479 0.35211 0.0
C702 C 0.93268 0.3294 0.12637 0.0
C703 C 0.94804 0.33555 0.16547 0.0
C704 C 0.98359 0.38165 0.24332 0.0
C705 C 0.03271 0.39224 0.31707 0.0
C706 C 0.01375 0.38162 0.28327 0.0
C707 C 0.96347 0.35697 0.17134 0.0
C708 C 0.97957 0.36408 0.21295 0.0
H709 H 0.05877 0.38159 0.41172 0.0
H710 H 0.02926 0.36343 0.351 0.0
H711 H 0.00317 0.40395 0.30065 0.0
H712 H 0.94907 0.37802 0.07237 0.0
H713 H 0.97546 0.38859 0.14035 0.0
C714 C 0.61272 0.94437 0.09952 0.0
C715 C 0.59064 0.93209 0.10559 0.0
C716 C 0.6249 0.96 0.13591 0.0
C717 C 0.62459 0.97664 0.27023 0.0
H718 H 0.65711 0.03431 0.21889 0.0
C719 C 0.63738 0.04628 0.39307 0.0
C720 C 0.65692 0.06524 0.39257 0.0
C721 C 0.63354 0.02995 0.35916 0.0
C722 C 0.64854 0.01828 0.23385 0.0
H723 H 0.56411 0.92589 0.15528 0.0
H724 H 0.58539 0.95282 0.21917 0.0
H725 H 0.64266 0.00481 0.15736 0.0
H726 H 0.6877 0.082 0.35523 0.0
H727 H 0.68083 0.05315 0.2951 0.0
H728 H 0.62981 0.98995 0.34643 0.0
C729 C 0.59327 0.95048 0.18623 0.0
C730 C 0.64026 0.00142 0.19867 0.0
C731 C 0.58108 0.93518 0.14952 0.0
C732 C 0.6725 0.06756 0.35663 0.0
C733 C 0.66858 0.05109 0.32227 0.0
C734 C 0.63296 0.99341 0.3053 0.0
C735 C 0.61523 0.96322 0.17943 0.0
C736 C 0.62751 0.98055 0.21653 0.0
C737 C 0.6491 0.03204 0.32366 0.0
C738 C 0.64423 0.01444 0.28734 0.0
H739 H 0.62049 0.94237 0.06586 0.0
H740 H 0.64182 0.96965 0.12992 0.0
H741 H 0.61509 0.96065 0.28495 0.0
H742 H 0.62489 0.04394 0.4198 0.0
H743 H 0.61816 0.01571 0.36029 0.0
C744 C 0.64974 0.57945 0.15154 0.0
C745 C 0.66105 0.59015 0.10671 0.0
C746 C 0.64412 0.58976 0.18835 0.0
C747 C 0.65139 0.6419 0.22982 0.0
H748 H 0.59361 0.60644 0.27729 0.0
C749 C 0.5783 0.64562 0.34135 0.0
C750 C 0.58894 0.65831 0.38433 0.0
C751 C 0.58904 0.64013 0.30545 0.0
C752 C 0.60968 0.6167 0.26399 0.0
H753 H 0.67638 0.6203 0.06632 0.0
H754 H 0.66592 0.63827 0.13003 0.0
H755 H 0.60947 0.59164 0.22126 0.0
H756 H 0.61939 0.67617 0.42215 0.0
H757 H 0.63817 0.66603 0.35998 0.0
H758 H 0.65112 0.66719 0.27167 0.0
C759 C 0.66174 0.62201 0.13728 0.0
C760 C 0.61896 0.60807 0.23253 0.0
C761 C 0.66771 0.61173 0.10073 0.0
C762 C 0.61083 0.66638 0.38924 0.0
C763 C 0.62157 0.6606 0.35358 0.0
C764 C 0.642 0.65062 0.26131 0.0
C765 C 0.64926 0.61091 0.18063 0.0
C766 C 0.63995 0.62048 0.21515 0.0
C767 C 0.61062 0.64686 0.31218 0.0
C768 C 0.62097 0.63811 0.2785 0.0
H769 H 0.64469 0.56287 0.1574 0.0
H770 H 0.63509 0.58091 0.22207 0.0
H771 H 0.66762 0.65187 0.21727 0.0
H772 H 0.56148 0.63946 0.33617 0.0
H773 H 0.58025 0.63007 0.27314 0.0
C774 C 0.93346 0.60017 0.3491 0.0
C775 C 0.93708 0.59703 0.40104 0.0
C776 C 0.95052 0.61285 0.31627 0.0
C777 C 0.00862 0.63371 0.30772 0.0
H778 H 0.00311 0.66022 0.18232 0.0
C779 C 0.07572 0.67377 0.15512 0.0
C780 C 0.06914 0.66328 0.1072 0.0
C781 C 0.06075 0.67059 0.19351 0.0
C782 C 0.0049 0.65309 0.21758 0.0
H783 H 0.96084 0.60579 0.46094 0.0
H784 H 0.99042 0.62895 0.40504 0.0
H785 H 0.97461 0.64604 0.24674 0.0
H786 H 0.04193 0.64238 0.06037 0.0
H787 H 0.01587 0.63736 0.12671 0.0
H788 H 0.03896 0.64089 0.27826 0.0
C789 C 0.97471 0.62088 0.38838 0.0
C790 C 0.98851 0.64474 0.25426 0.0
C791 C 0.95776 0.60776 0.42064 0.0
C792 C 0.04741 0.65052 0.0972 0.0
C793 C 0.0325 0.64779 0.13491 0.0
C794 C 0.02514 0.64245 0.27162 0.0
C795 C 0.97147 0.62303 0.33523 0.0
C796 C 0.98988 0.63438 0.29919 0.0
C797 C 0.03904 0.65739 0.18377 0.0
C798 C 0.02319 0.6517 0.22564 0.0
H799 H 0.9176 0.59194 0.33324 0.0
H800 H 0.94729 0.61382 0.27557 0.0
H801 H 0.01026 0.62553 0.34103 0.0
H802 H 0.0924 0.68365 0.16367 0.0
H803 H 0.06611 0.67809 0.23108 0.0
C804 C 0.6697 0.05677 0.60078 0.0
C805 C 0.66015 0.06926 0.60736 0.0
C806 C 0.66592 0.04075 0.63662 0.0
C807 C 0.64737 0.02258 0.77028 0.0
H808 H 0.62364 0.9656 0.71603 0.0
C809 C 0.58861 0.95151 0.88651 0.0
C810 C 0.59036 0.93319 0.88926 0.0
C811 C 0.60121 0.96792 0.85263 0.0
C812 C 0.63069 0.98144 0.73177 0.0
H813 H 0.63996 0.07541 0.65758 0.0
H814 H 0.63368 0.0478 0.72036 0.0
H815 H 0.63942 0.9959 0.65617 0.0
H816 H 0.60638 0.91752 0.85688 0.0
H817 H 0.6285 0.94651 0.79635 0.0
H818 H 0.63797 0.00824 0.84547 0.0
C819 C 0.644 0.05028 0.68752 0.0
C820 C 0.63969 0.99877 0.69758 0.0
C821 C 0.64749 0.06602 0.65142 0.0
C822 C 0.60471 0.93146 0.85584 0.0
C823 C 0.61735 0.948 0.82131 0.0
C824 C 0.63849 0.00535 0.80429 0.0
C825 C 0.65289 0.03726 0.6801 0.0
C826 C 0.64734 0.01942 0.71643 0.0
C827 C 0.61594 0.96654 0.8202 0.0
C828 C 0.62924 0.98458 0.7852 0.0
H829 H 0.67946 0.05885 0.56701 0.0
H830 H 0.67298 0.03095 0.63011 0.0
H831 H 0.6535 0.03835 0.7859 0.0
H832 H 0.57758 0.95339 0.91104 0.0
H833 H 0.59934 0.98174 0.85167 0.0
C834 C 0.6539 0.60848 0.91199 0.0
C835 C 0.66282 0.59668 0.89298 0.0
C836 C 0.64947 0.62079 0.87838 0.0
C837 C 0.65627 0.64071 0.74086 0.0
H838 H 0.60365 0.63963 0.77135 0.0
C839 C 0.6022 0.64808 0.58894 0.0
C840 C 0.59415 0.66156 0.60015 0.0
C841 C 0.61433 0.6447 0.62551 0.0
C842 C 0.61856 0.64039 0.76278 0.0
H843 H 0.67474 0.58882 0.82465 0.0
H844 H 0.6659 0.60936 0.76484 0.0
H845 H 0.6177 0.62477 0.83361 0.0
H846 H 0.59284 0.68249 0.65778 0.0
H847 H 0.61354 0.6759 0.72302 0.0
H848 H 0.656 0.65503 0.66796 0.0
C849 C 0.66296 0.6098 0.80597 0.0
C850 C 0.62674 0.63194 0.79857 0.0
C851 C 0.66794 0.59791 0.84005 0.0
C852 C 0.59889 0.67204 0.64824 0.0
C853 C 0.61067 0.66827 0.68543 0.0
C854 C 0.64782 0.6488 0.70457 0.0
C855 C 0.65322 0.62106 0.82456 0.0
C856 C 0.64559 0.63172 0.78793 0.0
C857 C 0.61831 0.65441 0.67443 0.0
C858 C 0.62876 0.64846 0.71503 0.0
H859 H 0.65012 0.60798 0.95297 0.0
H860 H 0.64267 0.62974 0.89462 0.0
H861 H 0.67101 0.64126 0.73159 0.0
H862 H 0.59893 0.63993 0.55197 0.0
H863 H 0.61987 0.6338 0.61631 0.0
C864 C 0.93624 0.60558 0.62294 0.0
C865 C 0.93075 0.58472 0.60984 0.0
C866 C 0.95295 0.61736 0.65732 0.0
C867 C 0.00277 0.62261 0.69471 0.0
H868 H 0.99866 0.64524 0.82782 0.0
C869 C 0.06105 0.63753 0.85743 0.0
C870 C 0.06748 0.65484 0.891 0.0
C871 C 0.04563 0.63299 0.81993 0.0
C872 C 0.00019 0.63945 0.79023 0.0
H873 H 0.93784 0.55957 0.62473 0.0
H874 H 0.96705 0.58022 0.68357 0.0
H875 H 0.968 0.6294 0.76936 0.0
H876 H 0.06307 0.68128 0.91069 0.0
H877 H 0.03594 0.67329 0.8444 0.0
H878 H 0.03467 0.63223 0.71515 0.0
C879 C 0.95847 0.58743 0.66712 0.0
C880 C 0.98265 0.63035 0.75701 0.0
C881 C 0.94168 0.57561 0.63356 0.0
C882 C 0.05844 0.66783 0.88537 0.0
C883 C 0.04285 0.6632 0.84768 0.0
C884 C 0.02028 0.63186 0.72743 0.0
C885 C 0.96453 0.6085 0.67838 0.0
C886 C 0.98365 0.6212 0.70991 0.0
C887 C 0.03623 0.64565 0.81474 0.0
C888 C 0.01895 0.63963 0.77644 0.0
H889 H 0.92805 0.61301 0.60553 0.0
H890 H 0.95737 0.63359 0.66576 0.0
H891 H 0.00395 0.61593 0.6581 0.0
H892 H 0.0677 0.62721 0.86052 0.0
H893 H 0.04065 0.61912 0.79589 0.0
C894 C 0.35009 0.93444 0.65273 0.0
C895 C 0.33802 0.93136 0.60768 0.0
C896 C 0.35369 0.95052 0.68757 0.0
C897 C 0.35023 0.98057 0.76515 0.0
H898 H 0.37912 0.03651 0.70231 0.0
C899 C 0.38495 0.05703 0.88693 0.0
C900 C 0.40689 0.06969 0.87922 0.0
C901 C 0.37266 0.04085 0.85196 0.0
C902 C 0.37081 0.02097 0.72022 0.0
H903 H 0.31978 0.94228 0.56427 0.0
H904 H 0.32664 0.97091 0.62476 0.0
H905 H 0.3634 0.00511 0.64668 0.0
H906 H 0.43298 0.07627 0.82753 0.0
H907 H 0.4114 0.04832 0.76577 0.0
H908 H 0.35819 0.99642 0.8387 0.0
C909 C 0.33303 0.96064 0.63323 0.0
C910 C 0.36175 0.00306 0.68853 0.0
C911 C 0.32906 0.94425 0.59887 0.0
C912 C 0.41612 0.06668 0.83448 0.0
C913 C 0.40377 0.05079 0.79904 0.0
C914 C 0.35896 0.99847 0.79683 0.0
C915 C 0.3456 0.96406 0.67748 0.0
C916 C 0.35194 0.98274 0.71079 0.0
C917 C 0.38205 0.03742 0.80818 0.0
C918 C 0.36985 0.0188 0.77461 0.0
H919 H 0.35711 0.92467 0.66049 0.0
H920 H 0.36359 0.95299 0.72122 0.0
H921 H 0.34271 0.96503 0.78309 0.0
H922 H 0.37743 0.05896 0.92121 0.0
H923 H 0.35593 0.03072 0.85968 0.0
C924 C 0.337 0.39078 0.89371 0.0
C925 C 0.34513 0.41273 0.8906 0.0
C926 C 0.34325 0.38064 0.85752 0.0
C927 C 0.38781 0.39383 0.76825 0.0
H928 H 0.35269 0.33651 0.71829 0.0
C929 C 0.42504 0.35515 0.65013 0.0
C930 C 0.41413 0.34396 0.60562 0.0
C931 C 0.41485 0.36054 0.68783 0.0
C932 C 0.36265 0.35258 0.73168 0.0
H933 H 0.36468 0.44102 0.84524 0.0
H934 H 0.37486 0.42332 0.78109 0.0
H935 H 0.33726 0.35236 0.77431 0.0
H936 H 0.38381 0.32865 0.56651 0.0
H937 H 0.36609 0.33885 0.63155 0.0
H938 H 0.41293 0.39461 0.72439 0.0
C939 C 0.36442 0.41399 0.8125 0.0
C940 C 0.35387 0.36158 0.76416 0.0
C941 C 0.35849 0.42413 0.84903 0.0
C942 C 0.39253 0.33728 0.60064 0.0
C943 C 0.38239 0.34306 0.63799 0.0
C944 C 0.39648 0.38497 0.73562 0.0
C945 C 0.35749 0.39228 0.81731 0.0
C946 C 0.36636 0.38238 0.7826 0.0
C947 C 0.39365 0.35532 0.68124 0.0
C948 C 0.38409 0.36421 0.71703 0.0
H949 H 0.32667 0.38164 0.9255 0.0
H950 H 0.33768 0.36393 0.8625 0.0
H951 H 0.39806 0.40971 0.78252 0.0
H952 H 0.44164 0.36017 0.65522 0.0
H953 H 0.42383 0.36938 0.72146 0.0
C954 C 0.93071 0.34455 0.82708 0.0
C955 C 0.92801 0.33359 0.87401 0.0
C956 C 0.94625 0.34698 0.79158 0.0
C957 C 0.99832 0.35305 0.78691 0.0
H958 H 0.98877 0.34922 0.63793 0.0
C959 C 0.06687 0.38975 0.63438 0.0
C960 C 0.06402 0.40256 0.59798 0.0
C961 C 0.05012 0.37603 0.66714 0.0
C962 C 0.99169 0.35025 0.67945 0.0
H963 H 0.9391 0.3161 0.9201 0.0
H964 H 0.96672 0.32085 0.85819 0.0
H965 H 0.9586 0.33427 0.69733 0.0
H966 H 0.04126 0.41072 0.56712 0.0
H967 H 0.01262 0.38724 0.62354 0.0
H968 H 0.03146 0.37027 0.76896 0.0
C969 C 0.95661 0.32734 0.84889 0.0
C970 C 0.97443 0.34168 0.71335 0.0
C971 C 0.94077 0.32456 0.88408 0.0
C972 C 0.04413 0.40116 0.59464 0.0
C973 C 0.02754 0.38746 0.6267 0.0
C974 C 0.01565 0.3618 0.75288 0.0
C975 C 0.95962 0.33877 0.80259 0.0
C976 C 0.97759 0.34374 0.76735 0.0
C977 C 0.03026 0.37473 0.66332 0.0
C978 C 0.01247 0.36129 0.69885 0.0
H979 H 0.92108 0.35163 0.81825 0.0
H980 H 0.94838 0.35608 0.75642 0.0
H981 H 0.00117 0.3549 0.82845 0.0
H982 H 0.08201 0.39048 0.6379 0.0
H983 H 0.05266 0.36644 0.69524 0.0
C984 C 0.51534 0.13664 0.11517 0.0
C985 C 0.49797 0.11741 0.0988 0.0
C986 C 0.52962 0.13683 0.15167 0.0
C987 C 0.55029 0.10393 0.20344 0.0
H988 H 0.5699 0.14359 0.31825 0.0
C989 C 0.6014 0.09963 0.36889 0.0
C990 C 0.61733 0.11871 0.39024 0.0
C991 C 0.587 0.09963 0.3331 0.0
C992 C 0.56484 0.13262 0.28599 0.0
H993 H 0.48185 0.08329 0.10857 0.0
H994 H 0.50691 0.08367 0.1721 0.0
H995 H 0.54418 0.14324 0.25707 0.0
H996 H 0.63091 0.15281 0.38964 0.0
H997 H 0.6061 0.15284 0.32621 0.0
H998 H 0.57115 0.09352 0.23157 0.0
C999 C 0.50948 0.09857 0.15641 0.0
C1000 C 0.55003 0.13238 0.25109 0.0
C1001 C 0.49507 0.09838 0.12027 0.0
C1002 C 0.61873 0.13782 0.37426 0.0
C1003 C 0.60441 0.13782 0.33812 0.0
C1004 C 0.56523 0.10429 0.23805 0.0
C1005 C 0.52695 0.11779 0.17228 0.0
C1006 C 0.54256 0.11799 0.20955 0.0
C1007 C 0.58827 0.1187 0.31735 0.0
C1008 C 0.57265 0.1186 0.27989 0.0
H1009 H 0.518 0.15159 0.09957 0.0
H1010 H 0.54302 0.15187 0.16291 0.0
H1011 H 0.54506 0.09289 0.1713 0.0
H1012 H 0.59978 0.08461 0.38047 0.0
H1013 H 0.5746 0.08458 0.31859 0.0
C1014 C 0.37538 0.52041 0.11758 0.0
C1015 C 0.37469 0.50084 0.11355 0.0
C1016 C 0.3887 0.53551 0.15359 0.0
C1017 C 0.41939 0.5422 0.27336 0.0
H1018 H 0.45369 0.60021 0.22562 0.0
C1019 C 0.49291 0.60198 0.38434 0.0
C1020 C 0.49628 0.62255 0.39136 0.0
C1021 C 0.47721 0.58788 0.35091 0.0
C1022 C 0.44401 0.58415 0.23974 0.0
H1023 H 0.387 0.48158 0.14545 0.0
H1024 H 0.41032 0.50796 0.20799 0.0
H1025 H 0.42719 0.57373 0.16774 0.0
H1026 H 0.48617 0.64464 0.36732 0.0
H1027 H 0.45852 0.61979 0.30853 0.0
H1028 H 0.43637 0.55249 0.34501 0.0
C1029 C 0.40045 0.51158 0.18349 0.0
C1030 C 0.42883 0.56898 0.20664 0.0
C1031 C 0.38716 0.49648 0.14743 0.0
C1032 C 0.48394 0.62889 0.36284 0.0
C1033 C 0.46815 0.61469 0.32915 0.0
C1034 C 0.43454 0.55732 0.30637 0.0
C1035 C 0.40156 0.53135 0.18653 0.0
C1036 C 0.41659 0.54777 0.22285 0.0
C1037 C 0.46443 0.59393 0.32353 0.0
C1038 C 0.44727 0.57838 0.28962 0.0
H1039 H 0.36589 0.52425 0.09229 0.0
H1040 H 0.38898 0.55048 0.15552 0.0
H1041 H 0.40993 0.52609 0.28734 0.0
H1042 H 0.50228 0.59661 0.40515 0.0
H1043 H 0.47508 0.57216 0.34649 0.0
C1044 C 0.86469 0.48618 0.35221 0.0
C1045 C 0.88369 0.5032 0.37087 0.0
C1046 C 0.86496 0.47276 0.31393 0.0
C1047 C 0.89866 0.45322 0.2618 0.0
H1048 H 0.85892 0.4334 0.14704 0.0
C1049 C 0.90149 0.3999 0.1001 0.0
C1050 C 0.8821 0.38367 0.08088 0.0
C1051 C 0.90207 0.41515 0.1339 0.0
C1052 C 0.86995 0.43857 0.17921 0.0
H1053 H 0.91788 0.51978 0.36286 0.0
H1054 H 0.91831 0.49623 0.29615 0.0
H1055 H 0.8593 0.45922 0.20779 0.0
H1056 H 0.84807 0.37056 0.08292 0.0
H1057 H 0.84906 0.39685 0.14279 0.0
H1058 H 0.90904 0.4323 0.23415 0.0
C1059 C 0.90323 0.49324 0.31149 0.0
C1060 C 0.87021 0.45343 0.21386 0.0
C1061 C 0.90295 0.50679 0.34947 0.0
C1062 C 0.86329 0.38292 0.0967 0.0
C1063 C 0.86387 0.3981 0.13077 0.0
C1064 C 0.89831 0.43826 0.22739 0.0
C1065 C 0.88424 0.47596 0.29372 0.0
C1066 C 0.88451 0.46085 0.25562 0.0
C1067 C 0.88328 0.41446 0.14964 0.0
C1068 C 0.88389 0.43067 0.18576 0.0
H1069 H 0.84956 0.48302 0.36768 0.0
H1070 H 0.85008 0.45949 0.30128 0.0
H1071 H 0.90965 0.45842 0.29408 0.0
H1072 H 0.91629 0.40101 0.08858 0.0
H1073 H 0.91731 0.42767 0.14707 0.0
C1074 C 0.39498 0.89712 0.36893 0.0
C1075 C 0.38006 0.87909 0.39637 0.0
C1076 C 0.40957 0.896 0.33566 0.0
C1077 C 0.41963 0.85846 0.26177 0.0
H1078 H 0.47787 0.9042 0.26511 0.0
C1079 C 0.48613 0.85663 0.14174 0.0
C1080 C 0.49924 0.87538 0.11415 0.0
C1081 C 0.47214 0.85623 0.1798 0.0
C1082 C 0.46165 0.89134 0.26356 0.0
H1083 H 0.36844 0.8456 0.40917 0.0
H1084 H 0.3939 0.84376 0.35154 0.0
H1085 H 0.45178 0.90539 0.3221 0.0
H1086 H 0.50855 0.90858 0.10632 0.0
H1087 H 0.48431 0.9078 0.17186 0.0
H1088 H 0.42951 0.84454 0.20272 0.0
C1089 C 0.39427 0.85872 0.35549 0.0
C1090 C 0.44668 0.89207 0.29605 0.0
C1091 C 0.37974 0.85983 0.38878 0.0
C1092 C 0.49857 0.8938 0.12654 0.0
C1093 C 0.48478 0.89343 0.16453 0.0
C1094 C 0.43462 0.85773 0.2292 0.0
C1095 C 0.4095 0.87682 0.32897 0.0
C1096 C 0.42546 0.87576 0.29511 0.0
C1097 C 0.47123 0.87462 0.19125 0.0
C1098 C 0.45574 0.87431 0.22926 0.0
H1099 H 0.39562 0.91217 0.3737 0.0
H1100 H 0.42091 0.91016 0.31511 0.0
H1101 H 0.40336 0.84572 0.25983 0.0
H1102 H 0.48632 0.8422 0.13315 0.0
H1103 H 0.462 0.84153 0.20013 0.0
C1104 C 0.63215 0.48624 0.12858 0.0
C1105 C 0.62633 0.49948 0.1023 0.0
C1106 C 0.61868 0.47186 0.16625 0.0
C1107 C 0.57351 0.46086 0.25209 0.0
H1108 H 0.56056 0.40249 0.24571 0.0
C1109 C 0.50088 0.3943 0.35562 0.0
C1110 C 0.50388 0.37944 0.38369 0.0
C1111 C 0.51662 0.40867 0.32208 0.0
C1112 C 0.56419 0.41878 0.24832 0.0
H1113 H 0.6022 0.50851 0.09613 0.0
H1114 H 0.57892 0.48359 0.16101 0.0
H1115 H 0.58781 0.42892 0.18853 0.0
H1116 H 0.52545 0.36751 0.39687 0.0
H1117 H 0.55287 0.39262 0.33842 0.0
H1118 H 0.54976 0.45076 0.31123 0.0
C1119 C 0.59383 0.48428 0.15297 0.0
C1120 C 0.57984 0.43392 0.21575 0.0
C1121 C 0.60713 0.49846 0.11536 0.0
C1122 C 0.52265 0.3788 0.37602 0.0
C1123 C 0.53835 0.39313 0.34235 0.0
C1124 C 0.55789 0.44577 0.28449 0.0
C1125 C 0.59934 0.47071 0.1786 0.0
C1126 C 0.58441 0.45505 0.21673 0.0
C1127 C 0.53565 0.40844 0.31571 0.0
C1128 C 0.55282 0.42451 0.28241 0.0
H1129 H 0.64686 0.48669 0.11941 0.0
H1130 H 0.62339 0.46168 0.18572 0.0
H1131 H 0.57695 0.4771 0.25441 0.0
H1132 H 0.48658 0.39516 0.36035 0.0
H1133 H 0.51394 0.42006 0.30131 0.0
C1134 C 0.14505 0.51659 0.37197 0.0
C1135 C 0.12667 0.5047 0.40194 0.0
C1136 C 0.14657 0.53236 0.33795 0.0
C1137 C 0.12294 0.56625 0.31375 0.0
H1138 H 0.14492 0.57135 0.17386 0.0
C1139 C 0.10803 0.61153 0.15025 0.0
C1140 C 0.1247 0.62361 0.11554 0.0
C1141 C 0.10998 0.59859 0.18746 0.0
C1142 C 0.139 0.57032 0.21306 0.0
H1143 H 0.09526 0.49967 0.41846 0.0
H1144 H 0.09786 0.52674 0.35925 0.0
H1145 H 0.14557 0.54574 0.23413 0.0
H1146 H 0.15677 0.63205 0.09389 0.0
H1147 H 0.16012 0.60956 0.15887 0.0
H1148 H 0.11602 0.59054 0.29248 0.0
C1149 C 0.11129 0.52431 0.36272 0.0
C1150 C 0.13941 0.55567 0.24757 0.0
C1151 C 0.10977 0.50866 0.39649 0.0
C1152 C 0.14354 0.62285 0.11975 0.0
C1153 C 0.14545 0.60988 0.15681 0.0
C1154 C 0.12249 0.58084 0.27927 0.0
C1155 C 0.12974 0.5365 0.33341 0.0
C1156 C 0.13106 0.55324 0.29803 0.0
C1157 C 0.12863 0.59744 0.19071 0.0
C1158 C 0.13025 0.58284 0.22832 0.0
H1159 H 0.15832 0.51391 0.37523 0.0
H1160 H 0.16102 0.54153 0.3159 0.0
H1161 H 0.11677 0.56505 0.35274 0.0
H1162 H 0.09332 0.61176 0.14814 0.0
H1163 H 0.09665 0.58904 0.21276 0.0
C1164 C 0.47693 0.85721 0.89017 0.0
C1165 C 0.4963 0.87626 0.89476 0.0
C1166 C 0.46163 0.85547 0.8547 0.0
C1167 C 0.45488 0.88003 0.73594 0.0
H1168 H 0.39618 0.85379 0.77967 0.0
C1169 C 0.3949 0.89238 0.62198 0.0
C1170 C 0.37498 0.87467 0.61167 0.0
C1171 C 0.4087 0.891 0.65698 0.0
C1172 C 0.41245 0.8609 0.76673 0.0
H1173 H 0.51486 0.90831 0.86502 0.0
H1174 H 0.48814 0.9053 0.80348 0.0
H1175 H 0.42262 0.85432 0.83908 0.0
H1176 H 0.35359 0.84181 0.63188 0.0
H1177 H 0.37796 0.83941 0.69362 0.0
H1178 H 0.44484 0.88689 0.66399 0.0
C1179 C 0.48486 0.89165 0.827 0.0
C1180 C 0.4276 0.86121 0.80067 0.0
C1181 C 0.50014 0.89341 0.8625 0.0
C1182 C 0.36886 0.85571 0.63886 0.0
C1183 C 0.38277 0.85434 0.6742 0.0
C1184 C 0.43979 0.87975 0.70216 0.0
C1185 C 0.46539 0.87269 0.82288 0.0
C1186 C 0.44903 0.87109 0.7859 0.0
C1187 C 0.403 0.8719 0.68273 0.0
C1188 C 0.41849 0.87052 0.71749 0.0
H1189 H 0.47347 0.84364 0.91426 0.0
H1190 H 0.44691 0.84058 0.85198 0.0
H1191 H 0.47116 0.88734 0.72296 0.0
H1192 H 0.40004 0.90734 0.60238 0.0
H1193 H 0.42396 0.90494 0.6637 0.0
C1194 C 0.60846 0.50437 0.85488 0.0
C1195 C 0.62278 0.50081 0.88355 0.0
C1196 C 0.59464 0.48924 0.81947 0.0
C1197 C 0.56962 0.43229 0.78923 0.0
H1198 H 0.55798 0.44947 0.65619 0.0
C1199 C 0.51804 0.37298 0.62744 0.0
C1200 C 0.5043 0.37806 0.601 0.0
C1201 C 0.53284 0.38732 0.66289 0.0
C1202 C 0.56093 0.44442 0.6934 0.0
H1203 H 0.63423 0.47879 0.89629 0.0
H1204 H 0.61034 0.45264 0.83439 0.0
H1205 H 0.58336 0.47618 0.71508 0.0
H1206 H 0.49444 0.40153 0.59333 0.0
H1207 H 0.51983 0.42614 0.65502 0.0
H1208 H 0.54702 0.4005 0.76749 0.0
C1209 C 0.6095 0.46692 0.83992 0.0
C1210 C 0.57545 0.45974 0.72713 0.0
C1211 C 0.62328 0.48201 0.8752 0.0
C1212 C 0.50506 0.39727 0.61225 0.0
C1213 C 0.5197 0.41147 0.64749 0.0
C1214 C 0.55504 0.41694 0.75542 0.0
C1215 C 0.59489 0.47026 0.81199 0.0
C1216 C 0.57984 0.45388 0.77561 0.0
C1217 C 0.53406 0.4069 0.67243 0.0
C1218 C 0.55037 0.42288 0.7074 0.0
H1219 H 0.60764 0.51866 0.86039 0.0
H1220 H 0.58344 0.49219 0.7988 0.0
H1221 H 0.5725 0.4273 0.82658 0.0
H1222 H 0.51778 0.35827 0.61966 0.0
H1223 H 0.54372 0.38338 0.6816 0.0
C1224 C 0.14139 0.51699 0.62472 0.0
C1225 C 0.12247 0.49769 0.61783 0.0
C1226 C 0.14258 0.5317 0.66113 0.0
C1227 C 0.1168 0.53777 0.77794 0.0
H1228 H 0.1422 0.59622 0.73244 0.0
C1229 C 0.10618 0.59903 0.89321 0.0
C1230 C 0.12376 0.61944 0.89878 0.0
C1231 C 0.10691 0.5845 0.85942 0.0
C1232 C 0.13533 0.58004 0.74601 0.0
H1233 H 0.09016 0.47842 0.64529 0.0
H1234 H 0.09226 0.50417 0.70887 0.0
H1235 H 0.14205 0.56982 0.67411 0.0
H1236 H 0.1558 0.64076 0.87233 0.0
H1237 H 0.15717 0.6152 0.81346 0.0
H1238 H 0.11002 0.54792 0.84975 0.0
C1239 C 0.10619 0.50785 0.68609 0.0
C1240 C 0.13523 0.56491 0.7126 0.0
C1241 C 0.10497 0.49314 0.6495 0.0
C1242 C 0.14199 0.62516 0.86891 0.0
C1243 C 0.14275 0.61054 0.83509 0.0
C1244 C 0.11696 0.55289 0.81139 0.0
C1245 C 0.12492 0.52742 0.6917 0.0
C1246 C 0.1258 0.54359 0.72806 0.0
C1247 C 0.12527 0.58998 0.83042 0.0
C1248 C 0.12603 0.57416 0.79561 0.0
H1249 H 0.15524 0.52097 0.60125 0.0
H1250 H 0.15732 0.5465 0.66518 0.0
H1251 H 0.10972 0.52152 0.79122 0.0
H1252 H 0.09178 0.59417 0.91516 0.0
H1253 H 0.09301 0.56897 0.85587 0.0
C1254 C 0.60717 0.10988 0.62834 0.0
C1255 C 0.62467 0.12791 0.60714 0.0
C1256 C 0.59437 0.11189 0.66548 0.0
C1257 C 0.57598 0.14721 0.70972 0.0
H1258 H 0.5567 0.10993 0.82991 0.0
C1259 C 0.51721 0.1467 0.86477 0.0
C1260 C 0.50203 0.12665 0.88367 0.0
C1261 C 0.53353 0.14885 0.83195 0.0
C1262 C 0.56178 0.12033 0.79631 0.0
H1263 H 0.64265 0.16221 0.60874 0.0
H1264 H 0.61989 0.16571 0.67361 0.0
H1265 H 0.58352 0.11031 0.7728 0.0
H1266 H 0.49134 0.09307 0.88051 0.0
H1267 H 0.51932 0.09676 0.82279 0.0
H1268 H 0.5537 0.15674 0.73244 0.0
C1269 C 0.61623 0.15005 0.66131 0.0
C1270 C 0.57722 0.12061 0.7638 0.0
C1271 C 0.62929 0.14804 0.62451 0.0
C1272 C 0.50297 0.10878 0.86732 0.0
C1273 C 0.51912 0.11091 0.83448 0.0
C1274 C 0.56037 0.14683 0.74218 0.0
C1275 C 0.59861 0.13197 0.68198 0.0
C1276 C 0.58416 0.13371 0.71959 0.0
C1277 C 0.53489 0.13099 0.81734 0.0
C1278 C 0.55274 0.133 0.78517 0.0
H1279 H 0.60325 0.09416 0.61594 0.0
H1280 H 0.58078 0.09768 0.68036 0.0
H1281 H 0.58098 0.15737 0.67567 0.0
H1282 H 0.51691 0.16077 0.87669 0.0
H1283 H 0.54544 0.16454 0.81941 0.0
C1284 C 0.47957 0.62085 0.61265 0.0
C1285 C 0.49922 0.6218 0.60719 0.0
C1286 C 0.46471 0.60721 0.64893 0.0
C1287 C 0.45903 0.57677 0.76858 0.0
H1288 H 0.40041 0.54319 0.72581 0.0
C1289 C 0.39854 0.50641 0.89016 0.0
C1290 C 0.37809 0.5035 0.89623 0.0
C1291 C 0.41279 0.52127 0.85498 0.0
C1292 C 0.41665 0.55266 0.7386 0.0
H1293 H 0.51878 0.60942 0.63656 0.0
H1294 H 0.49277 0.58556 0.69987 0.0
H1295 H 0.42661 0.5686 0.66512 0.0
H1296 H 0.35645 0.51368 0.86902 0.0
H1297 H 0.38158 0.53994 0.80751 0.0
H1298 H 0.44916 0.56086 0.84194 0.0
C1299 C 0.48894 0.59548 0.67615 0.0
C1300 C 0.43167 0.5672 0.70382 0.0
C1301 C 0.50381 0.60908 0.6397 0.0
C1302 C 0.37209 0.51555 0.86533 0.0
C1303 C 0.38646 0.53054 0.83 0.0
C1304 C 0.44403 0.56229 0.80334 0.0
C1305 C 0.46915 0.59425 0.68082 0.0
C1306 C 0.45307 0.57929 0.71829 0.0
C1307 C 0.40706 0.5337 0.82489 0.0
C1308 C 0.4227 0.54989 0.7886 0.0
H1309 H 0.47551 0.63048 0.58848 0.0
H1310 H 0.44974 0.60686 0.65212 0.0
H1311 H 0.47531 0.58611 0.78123 0.0
H1312 H 0.40364 0.49722 0.91279 0.0
H1313 H 0.42834 0.52292 0.85118 0.0
C1314 C 0.85134 0.47687 0.60597 0.0
C1315 C 0.87133 0.49087 0.58457 0.0
C1316 C 0.8485 0.45993 0.63751 0.0
C1317 C 0.87377 0.42789 0.66825 0.0
H1318 H 0.84126 0.41401 0.79621 0.0
C1319 C 0.88683 0.38545 0.83945 0.0
C1320 C 0.86917 0.36952 0.86595 0.0
C1321 C 0.88432 0.39733 0.80046 0.0
C1322 C 0.85009 0.41747 0.76013 0.0
H1323 H 0.90411 0.49846 0.58109 0.0
H1324 H 0.89927 0.4694 0.63642 0.0
H1325 H 0.84212 0.44096 0.73774 0.0
H1326 H 0.83495 0.35325 0.87173 0.0
H1327 H 0.83058 0.37446 0.80371 0.0
H1328 H 0.88242 0.40505 0.69163 0.0
C1329 C 0.88563 0.47105 0.62782 0.0
C1330 C 0.85059 0.4329 0.72665 0.0
C1331 C 0.88844 0.48785 0.59635 0.0
C1332 C 0.84884 0.3654 0.85184 0.0
C1333 C 0.84634 0.37758 0.81323 0.0
C1334 C 0.87339 0.41264 0.7018 0.0
C1335 C 0.8656 0.4567 0.64826 0.0
C1336 C 0.86291 0.43868 0.681 0.0
C1337 C 0.8641 0.39374 0.78743 0.0
C1338 C 0.86197 0.40764 0.74866 0.0
H1339 H 0.83783 0.47876 0.59763 0.0
H1340 H 0.83286 0.44913 0.65259 0.0
H1341 H 0.88297 0.43155 0.63273 0.0
H1342 H 0.90269 0.38892 0.84927 0.0
H1343 H 0.8983 0.40982 0.7816 0.0
loop_
_geom_bond_atom_site_label_1
_geom_bond_atom_site_label_2
_geom_bond_distance
_geom_bond_site_symmetry_2
_ccdc_geom_bond_type
Fe0 O2 1.918 . S
Fe0 O5 1.997 1_554 S
Fe0 O6 2.002 1_554 S
Fe0 O11 1.976 . S
Fe0 O14 1.996 . S
Fe1 O2 1.918 . S
Fe1 O9 1.997 1_554 S
Fe1 O12 1.996 . S
Fe1 O16 1.976 . S
Fe1 O19 2.002 1_554 S
O2 Fe0 1.918 . S
O2 Fe1 1.918 . S
O2 Fe3 1.918 . S
Fe3 O2 1.918 . S
Fe3 O4 2.002 1_554 S
Fe3 O13 1.976 . S
Fe3 O17 1.996 . S
Fe3 O20 1.997 1_554 S
O4 Fe3 2.002 1_556 S
O4 C21 1.295 . S
O5 Fe0 1.997 1_556 S
O5 C21 1.235 . S
O6 Fe0 2.002 1_556 S
O6 C7 1.295 . S
C7 O6 1.295 . S
C7 O9 1.235 . S
C8 O13 1.287 . S
C8 O14 1.255 . S
O9 Fe1 1.997 1_556 S
O9 C7 1.235 . S
C10 O16 1.287 . S
C10 O17 1.255 . S
O11 Fe0 1.976 . S
O11 C18 1.287 . S
O12 Fe1 1.996 . S
O12 C18 1.255 . S
O13 Fe3 1.976 . S
O13 C8 1.287 . S
O14 Fe0 1.996 . S
O14 C8 1.255 . S
C15 O19 1.295 . S
C15 O20 1.235 . S
O16 Fe1 1.976 . S
O16 C10 1.287 . S
O17 Fe3 1.996 . S
O17 C10 1.255 . S
C18 O11 1.287 . S
C18 O12 1.255 . S
O19 Fe1 2.002 1_556 S
O19 C15 1.295 . S
O20 Fe3 1.997 1_556 S
O20 C15 1.235 . S
C21 O4 1.295 . S
C21 O5 1.235 . S
Fe22 O24 1.918 . S
Fe22 O27 1.997 1_554 S
Fe22 O28 2.002 1_554 S
Fe22 O33 1.976 . S
Fe22 O36 1.996 . S
Fe23 O24 1.918 . S
Fe23 O31 1.997 1_554 S
Fe23 O34 1.996 . S
Fe23 O38 1.976 . S
Fe23 O41 2.002 1_554 S
O24 Fe22 1.918 . S
O24 Fe23 1.918 . S
O24 Fe25 1.918 . S
Fe25 O24 1.918 . S
Fe25 O26 2.002 1_554 S
Fe25 O35 1.976 . S
Fe25 O39 1.996 . S
Fe25 O42 1.997 1_554 S
O26 Fe25 2.002 1_556 S
O26 C43 1.295 . S
O27 Fe22 1.997 1_556 S
O27 C43 1.235 . S
O28 Fe22 2.002 1_556 S
O28 C29 1.295 . S
C29 O28 1.295 . S
C29 O31 1.235 . S
C30 O35 1.287 . S
C30 O36 1.255 . S
O31 Fe23 1.997 1_556 S
O31 C29 1.235 . S
C32 O38 1.287 . S
C32 O39 1.255 . S
O33 Fe22 1.976 . S
O33 C40 1.287 . S
O34 Fe23 1.996 . S
O34 C40 1.255 . S
O35 Fe25 1.976 . S
O35 C30 1.287 . S
O36 Fe22 1.996 . S
O36 C30 1.255 . S
C37 O41 1.295 . S
C37 O42 1.235 . S
O38 Fe23 1.976 . S
O38 C32 1.287 . S
O39 Fe25 1.996 . S
O39 C32 1.255 . S
C40 O33 1.287 . S
C40 O34 1.255 . S
O41 Fe23 2.002 1_556 S
O41 C37 1.295 . S
O42 Fe25 1.997 1_556 S
O42 C37 1.235 . S
C43 O26 1.295 . S
C43 O27 1.235 . S
Fe44 O46 1.918 . S
Fe44 O49 1.997 1_554 S
Fe44 O50 2.002 1_554 S
Fe44 O55 1.976 . S
Fe44 O58 1.996 . S
Fe45 O46 1.918 . S
Fe45 O53 1.997 1_554 S
Fe45 O56 1.996 . S
Fe45 O60 1.976 . S
Fe45 O63 2.002 1_554 S
O46 Fe44 1.918 . S
O46 Fe45 1.918 . S
O46 Fe47 1.918 . S
Fe47 O46 1.918 . S
Fe47 O48 2.002 1_554 S
Fe47 O57 1.976 . S
Fe47 O61 1.996 . S
Fe47 O64 1.997 1_554 S
O48 Fe47 2.002 1_556 S
O48 C65 1.295 . S
O49 Fe44 1.997 1_556 S
O49 C65 1.235 . S
O50 Fe44 2.002 1_556 S
O50 C51 1.295 . S
C51 O50 1.295 . S
C51 O53 1.235 . S
C52 O57 1.287 . S
C52 O58 1.255 . S
O53 Fe45 1.997 1_556 S
O53 C51 1.235 . S
C54 O60 1.287 . S
C54 O61 1.255 . S
O55 Fe44 1.976 . S
O55 C62 1.287 . S
O56 Fe45 1.996 . S
O56 C62 1.255 . S
O57 Fe47 1.976 . S
O57 C52 1.287 . S
O58 Fe44 1.996 . S
O58 C52 1.255 . S
C59 O63 1.295 . S
C59 O64 1.235 . S
O60 Fe45 1.976 . S
O60 C54 1.287 . S
O61 Fe47 1.996 . S
O61 C54 1.255 . S
C62 O55 1.287 . S
C62 O56 1.255 . S
O63 Fe45 2.002 1_556 S
O63 C59 1.295 . S
O64 Fe47 1.997 1_556 S
O64 C59 1.235 . S
C65 O48 1.295 . S
C65 O49 1.235 . S
Fe66 O68 1.918 . S
Fe66 O71 1.997 1_554 S
Fe66 O72 2.002 1_554 S
Fe66 O77 1.976 . S
Fe66 O80 1.996 . S
Fe67 O68 1.918 . S
Fe67 O75 1.997 1_554 S
Fe67 O78 1.996 . S
Fe67 O82 1.976 . S
Fe67 O85 2.002 1_554 S
O68 Fe66 1.918 . S
O68 Fe67 1.918 . S
O68 Fe69 1.918 . S
Fe69 O68 1.918 . S
Fe69 O70 2.002 1_554 S
Fe69 O79 1.976 . S
Fe69 O83 1.996 . S
Fe69 O86 1.997 1_554 S
O70 Fe69 2.002 1_556 S
O70 C87 1.295 . S
O71 Fe66 1.997 1_556 S
O71 C87 1.235 . S
O72 Fe66 2.002 1_556 S
O72 C73 1.295 . S
C73 O72 1.295 . S
C73 O75 1.235 . S
C74 O79 1.287 . S
C74 O80 1.255 . S
O75 Fe67 1.997 1_556 S
O75 C73 1.235 . S
C76 O82 1.287 . S
C76 O83 1.255 . S
O77 Fe66 1.976 . S
O77 C84 1.287 . S
O78 Fe67 1.996 . S
O78 C84 1.255 . S
O79 Fe69 1.976 . S
O79 C74 1.287 . S
O80 Fe66 1.996 . S
O80 C74 1.255 . S
C81 O85 1.295 . S
C81 O86 1.235 . S
O82 Fe67 1.976 . S
O82 C76 1.287 . S
O83 Fe69 1.996 . S
O83 C76 1.255 . S
C84 O77 1.287 . S
C84 O78 1.255 . S
O85 Fe67 2.002 1_556 S
O85 C81 1.295 . S
O86 Fe69 1.997 1_556 S
O86 C81 1.235 . S
C87 O70 1.295 . S
C87 O71 1.235 . S
Fe88 O90 1.918 . S
Fe88 O93 1.997 1_554 S
Fe88 O94 2.002 1_554 S
Fe88 O99 1.976 . S
Fe88 O102 1.996 . S
Fe89 O90 1.918 . S
Fe89 O97 1.997 1_554 S
Fe89 O100 1.996 . S
Fe89 O104 1.976 . S
Fe89 O107 2.002 1_554 S
O90 Fe88 1.918 . S
O90 Fe89 1.918 . S
O90 Fe91 1.918 . S
Fe91 O90 1.918 . S
Fe91 O92 2.002 1_554 S
Fe91 O101 1.976 . S
Fe91 O105 1.996 . S
Fe91 O108 1.997 1_554 S
O92 Fe91 2.002 1_556 S
O92 C109 1.295 . S
O93 Fe88 1.997 1_556 S
O93 C109 1.235 . S
O94 Fe88 2.002 1_556 S
O94 C95 1.295 . S
C95 O94 1.295 . S
C95 O97 1.235 . S
C96 O101 1.287 . S
C96 O102 1.255 . S
O97 Fe89 1.997 1_556 S
O97 C95 1.235 . S
C98 O104 1.287 . S
C98 O105 1.255 . S
O99 Fe88 1.976 . S
O99 C106 1.287 . S
O100 Fe89 1.996 . S
O100 C106 1.255 . S
O101 Fe91 1.976 . S
O101 C96 1.287 . S
O102 Fe88 1.996 . S
O102 C96 1.255 . S
C103 O107 1.295 . S
C103 O108 1.235 . S
O104 Fe89 1.976 . S
O104 C98 1.287 . S
O105 Fe91 1.996 . S
O105 C98 1.255 . S
C106 O99 1.287 . S
C106 O100 1.255 . S
O107 Fe89 2.002 1_556 S
O107 C103 1.295 . S
O108 Fe91 1.997 1_556 S
O108 C103 1.235 . S
C109 O92 1.295 . S
C109 O93 1.235 . S
Fe110 O112 1.918 . S
Fe110 O115 1.997 1_554 S
Fe110 O116 2.002 1_554 S
Fe110 O121 1.976 . S
Fe110 O124 1.996 . S
Fe111 O112 1.918 . S
Fe111 O119 1.997 1_554 S
Fe111 O122 1.996 . S
Fe111 O126 1.976 . S
Fe111 O129 2.002 1_554 S
O112 Fe110 1.918 . S
O112 Fe111 1.918 . S
O112 Fe113 1.918 . S
Fe113 O112 1.918 . S
Fe113 O114 2.002 1_554 S
Fe113 O123 1.976 . S
Fe113 O127 1.996 . S
Fe113 O130 1.997 1_554 S
O114 Fe113 2.002 1_556 S
O114 C131 1.295 . S
O115 Fe110 1.997 1_556 S
O115 C131 1.235 . S
O116 Fe110 2.002 1_556 S
O116 C117 1.295 . S
C117 O116 1.295 . S
C117 O119 1.235 . S
C118 O123 1.287 . S
C118 O124 1.255 . S
O119 Fe111 1.997 1_556 S
O119 C117 1.235 . S
C120 O126 1.287 . S
C120 O127 1.255 . S
O121 Fe110 1.976 . S
O121 C128 1.287 . S
O122 Fe111 1.996 . S
O122 C128 1.255 . S
O123 Fe113 1.976 . S
O123 C118 1.287 . S
O124 Fe110 1.996 . S
O124 C118 1.255 . S
C125 O129 1.295 . S
C125 O130 1.235 . S
O126 Fe111 1.976 . S
O126 C120 1.287 . S
O127 Fe113 1.996 . S
O127 C120 1.255 . S
C128 O121 1.287 . S
C128 O122 1.255 . S
O129 Fe111 2.002 1_556 S
O129 C125 1.295 . S
O130 Fe113 1.997 1_556 S
O130 C125 1.235 . S
C131 O114 1.295 . S
C131 O115 1.235 . S
Fe132 O134 1.918 . S
Fe132 O137 1.997 . S
Fe132 O138 2.002 . S
Fe132 O143 1.976 . S
Fe132 O146 1.996 . S
Fe133 O134 1.918 . S
Fe133 O141 1.997 . S
Fe133 O144 1.996 . S
Fe133 O148 1.976 . S
Fe133 O151 2.002 . S
O134 Fe132 1.918 . S
O134 Fe133 1.918 . S
O134 Fe135 1.918 . S
Fe135 O134 1.918 . S
Fe135 O136 2.002 . S
Fe135 O145 1.976 . S
Fe135 O149 1.996 . S
Fe135 O152 1.997 . S
O136 Fe135 2.002 . S
O136 C153 1.295 . S
O137 Fe132 1.997 . S
O137 C153 1.235 . S
O138 Fe132 2.002 . S
O138 C139 1.295 . S
C139 O138 1.295 . S
C139 O141 1.235 . S
C140 O145 1.287 . S
C140 O146 1.255 . S
O141 Fe133 1.997 . S
O141 C139 1.235 . S
C142 O148 1.287 . S
C142 O149 1.255 . S
O143 Fe132 1.976 . S
O143 C150 1.287 . S
O144 Fe133 1.996 . S
O144 C150 1.255 . S
O145 Fe135 1.976 . S
O145 C140 1.287 . S
O146 Fe132 1.996 . S
O146 C140 1.255 . S
C147 O151 1.295 . S
C147 O152 1.235 . S
O148 Fe133 1.976 . S
O148 C142 1.287 . S
O149 Fe135 1.996 . S
O149 C142 1.255 . S
C150 O143 1.287 . S
C150 O144 1.255 . S
O151 Fe133 2.002 . S
O151 C147 1.295 . S
O152 Fe135 1.997 . S
O152 C147 1.235 . S
C153 O136 1.295 . S
C153 O137 1.235 . S
Fe154 O156 1.918 . S
Fe154 O159 1.997 . S
Fe154 O160 2.002 . S
Fe154 O165 1.976 . S
Fe154 O168 1.996 . S
Fe155 O156 1.918 . S
Fe155 O163 1.997 . S
Fe155 O166 1.996 . S
Fe155 O170 1.976 . S
Fe155 O173 2.002 . S
O156 Fe154 1.918 . S
O156 Fe155 1.918 . S
O156 Fe157 1.918 . S
Fe157 O156 1.918 . S
Fe157 O158 2.002 . S
Fe157 O167 1.976 . S
Fe157 O171 1.996 . S
Fe157 O174 1.997 . S
O158 Fe157 2.002 . S
O158 C175 1.295 . S
O159 Fe154 1.997 . S
O159 C175 1.235 . S
O160 Fe154 2.002 . S
O160 C161 1.295 . S
C161 O160 1.295 . S
C161 O163 1.235 . S
C162 O167 1.287 . S
C162 O168 1.255 . S
O163 Fe155 1.997 . S
O163 C161 1.235 . S
C164 O170 1.287 . S
C164 O171 1.255 . S
O165 Fe154 1.976 . S
O165 C172 1.287 . S
O166 Fe155 1.996 . S
O166 C172 1.255 . S
O167 Fe157 1.976 . S
O167 C162 1.287 . S
O168 Fe154 1.996 . S
O168 C162 1.255 . S
C169 O173 1.295 . S
C169 O174 1.235 . S
O170 Fe155 1.976 . S
O170 C164 1.287 . S
O171 Fe157 1.996 . S
O171 C164 1.255 . S
C172 O165 1.287 . S
C172 O166 1.255 . S
O173 Fe155 2.002 . S
O173 C169 1.295 . S
O174 Fe157 1.997 . S
O174 C169 1.235 . S
C175 O158 1.295 . S
C175 O159 1.235 . S
Fe176 O178 1.918 . S
Fe176 O181 1.997 . S
Fe176 O182 2.002 . S
Fe176 O187 1.976 . S
Fe176 O190 1.996 . S
Fe177 O178 1.918 . S
Fe177 O185 1.997 . S
Fe177 O188 1.996 . S
Fe177 O192 1.976 . S
Fe177 O195 2.002 . S
O178 Fe176 1.918 . S
O178 Fe177 1.918 . S
O178 Fe179 1.918 . S
Fe179 O178 1.918 . S
Fe179 O180 2.002 . S
Fe179 O189 1.976 . S
Fe179 O193 1.996 . S
Fe179 O196 1.997 . S
O180 Fe179 2.002 . S
O180 C197 1.295 . S
O181 Fe176 1.997 . S
O181 C197 1.235 . S
O182 Fe176 2.002 . S
O182 C183 1.295 . S
C183 O182 1.295 . S
C183 O185 1.235 . S
C184 O189 1.287 . S
C184 O190 1.255 . S
O185 Fe177 1.997 . S
O185 C183 1.235 . S
C186 O192 1.287 . S
C186 O193 1.255 . S
O187 Fe176 1.976 . S
O187 C194 1.287 . S
O188 Fe177 1.996 . S
O188 C194 1.255 . S
O189 Fe179 1.976 . S
O189 C184 1.287 . S
O190 Fe176 1.996 . S
O190 C184 1.255 . S
C191 O195 1.295 . S
C191 O196 1.235 . S
O192 Fe177 1.976 . S
O192 C186 1.287 . S
O193 Fe179 1.996 . S
O193 C186 1.255 . S
C194 O187 1.287 . S
C194 O188 1.255 . S
O195 Fe177 2.002 . S
O195 C191 1.295 . S
O196 Fe179 1.997 . S
O196 C191 1.235 . S
C197 O180 1.295 . S
C197 O181 1.235 . S
Fe198 O200 1.918 . S
Fe198 O203 1.997 . S
Fe198 O204 2.002 . S
Fe198 O209 1.976 . S
Fe198 O212 1.996 . S
Fe199 O200 1.918 . S
Fe199 O207 1.997 . S
Fe199 O210 1.996 . S
Fe199 O214 1.976 . S
Fe199 O217 2.002 . S
O200 Fe198 1.918 . S
O200 Fe199 1.918 . S
O200 Fe201 1.918 . S
Fe201 O200 1.918 . S
Fe201 O202 2.002 . S
Fe201 O211 1.976 . S
Fe201 O215 1.996 . S
Fe201 O218 1.997 . S
O202 Fe201 2.002 . S
O202 C219 1.295 . S
O203 Fe198 1.997 . S
O203 C219 1.235 . S
O204 Fe198 2.002 . S
O204 C205 1.295 . S
C205 O204 1.295 . S
C205 O207 1.235 . S
C206 O211 1.287 . S
C206 O212 1.255 . S
O207 Fe199 1.997 . S
O207 C205 1.235 . S
C208 O214 1.287 . S
C208 O215 1.255 . S
O209 Fe198 1.976 . S
O209 C216 1.287 . S
O210 Fe199 1.996 . S
O210 C216 1.255 . S
O211 Fe201 1.976 . S
O211 C206 1.287 . S
O212 Fe198 1.996 . S
O212 C206 1.255 . S
C213 O217 1.295 . S
C213 O218 1.235 . S
O214 Fe199 1.976 . S
O214 C208 1.287 . S
O215 Fe201 1.996 . S
O215 C208 1.255 . S
C216 O209 1.287 . S
C216 O210 1.255 . S
O217 Fe199 2.002 . S
O217 C213 1.295 . S
O218 Fe201 1.997 . S
O218 C213 1.235 . S
C219 O202 1.295 . S
C219 O203 1.235 . S
Fe220 O222 1.918 . S
Fe220 O225 1.997 . S
Fe220 O226 2.002 . S
Fe220 O231 1.976 . S
Fe220 O234 1.996 . S
Fe221 O222 1.918 . S
Fe221 O229 1.997 . S
Fe221 O232 1.996 . S
Fe221 O236 1.976 . S
Fe221 O239 2.002 . S
O222 Fe220 1.918 . S
O222 Fe221 1.918 . S
O222 Fe223 1.918 . S
Fe223 O222 1.918 . S
Fe223 O224 2.002 . S
Fe223 O233 1.976 . S
Fe223 O237 1.996 . S
Fe223 O240 1.997 . S
O224 Fe223 2.002 . S
O224 C241 1.295 . S
O225 Fe220 1.997 . S
O225 C241 1.235 . S
O226 Fe220 2.002 . S
O226 C227 1.295 . S
C227 O226 1.295 . S
C227 O229 1.235 . S
C228 O233 1.287 . S
C228 O234 1.255 . S
O229 Fe221 1.997 . S
O229 C227 1.235 . S
C230 O236 1.287 . S
C230 O237 1.255 . S
O231 Fe220 1.976 . S
O231 C238 1.287 . S
O232 Fe221 1.996 . S
O232 C238 1.255 . S
O233 Fe223 1.976 . S
O233 C228 1.287 . S
O234 Fe220 1.996 . S
O234 C228 1.255 . S
C235 O239 1.295 . S
C235 O240 1.235 . S
O236 Fe221 1.976 . S
O236 C230 1.287 . S
O237 Fe223 1.996 . S
O237 C230 1.255 . S
C238 O231 1.287 . S
C238 O232 1.255 . S
O239 Fe221 2.002 . S
O239 C235 1.295 . S
O240 Fe223 1.997 . S
O240 C235 1.235 . S
C241 O224 1.295 . S
C241 O225 1.235 . S
Fe242 O244 1.918 . S
Fe242 O247 1.997 . S
Fe242 O248 2.002 . S
Fe242 O253 1.976 . S
Fe242 O256 1.996 . S
Fe243 O244 1.918 . S
Fe243 O251 1.997 . S
Fe243 O254 1.996 . S
Fe243 O258 1.976 . S
Fe243 O261 2.002 . S
O244 Fe242 1.918 . S
O244 Fe243 1.918 . S
O244 Fe245 1.918 . S
Fe245 O244 1.918 . S
Fe245 O246 2.002 . S
Fe245 O255 1.976 . S
Fe245 O259 1.996 . S
Fe245 O262 1.997 . S
O246 Fe245 2.002 . S
O246 C263 1.295 . S
O247 Fe242 1.997 . S
O247 C263 1.235 . S
O248 Fe242 2.002 . S
O248 C249 1.295 . S
C249 O248 1.295 . S
C249 O251 1.235 . S
C250 O255 1.287 . S
C250 O256 1.255 . S
O251 Fe243 1.997 . S
O251 C249 1.235 . S
C252 O258 1.287 . S
C252 O259 1.255 . S
O253 Fe242 1.976 . S
O253 C260 1.287 . S
O254 Fe243 1.996 . S
O254 C260 1.255 . S
O255 Fe245 1.976 . S
O255 C250 1.287 . S
O256 Fe242 1.996 . S
O256 C250 1.255 . S
C257 O261 1.295 . S
C257 O262 1.235 . S
O258 Fe243 1.976 . S
O258 C252 1.287 . S
O259 Fe245 1.996 . S
O259 C252 1.255 . S
C260 O253 1.287 . S
C260 O254 1.255 . S
O261 Fe243 2.002 . S
O261 C257 1.295 . S
O262 Fe245 1.997 . S
O262 C257 1.235 . S
C263 O246 1.295 . S
C263 O247 1.235 . S
C264 C265 1.349 . S
C264 C266 1.327 . S
C264 H289 0.950 . S
C265 C264 1.349 . S
C265 C281 1.349 . S
C266 C264 1.327 . S
C266 C285 1.429 . S
C266 H290 0.950 . S
C267 C284 1.574 . S
C267 C286 1.368 . S
C267 H291 0.949 . S
H268 C272 0.949 . S
C269 C270 1.349 . S
C269 C271 1.327 . S
C269 H292 0.950 . S
C270 C269 1.349 . S
C270 C282 1.349 . S
C271 C269 1.327 . S
C271 C287 1.429 . S
C271 H293 0.950 . S
C272 H268 0.949 . S
C272 C280 1.574 . S
C272 C288 1.368 . S
H273 C281 0.950 . S
H274 C279 0.950 . S
H275 C280 0.949 . S
H276 C282 0.950 . S
H277 C283 0.950 . S
H278 C284 0.949 . S
C279 H274 0.950 . S
C279 C281 1.327 . S
C279 C285 1.429 . S
C280 C272 1.574 . S
C280 H275 0.949 . S
C280 C286 1.368 . S
C281 C265 1.349 . S
C281 H273 0.950 . S
C281 C279 1.327 . S
C282 C270 1.349 . S
C282 H276 0.950 . S
C282 C283 1.327 . S
C283 H277 0.950 . S
C283 C282 1.327 . S
C283 C287 1.429 . S
C284 C267 1.574 . S
C284 H278 0.949 . S
C284 C288 1.368 . S
C285 C266 1.429 . S
C285 C279 1.429 . S
C285 C286 1.523 . S
C286 C267 1.368 . S
C286 C280 1.368 . S
C286 C285 1.523 . S
C287 C271 1.429 . S
C287 C283 1.429 . S
C287 C288 1.523 . S
C288 C272 1.368 . S
C288 C284 1.368 . S
C288 C287 1.523 . S
H289 C264 0.950 . S
H290 C266 0.950 . S
H291 C267 0.949 . S
H292 C269 0.950 . S
H293 C271 0.950 . S
C294 C295 1.349 . S
C294 C296 1.327 . S
C294 H319 0.950 . S
C295 C294 1.349 . S
C295 C311 1.349 . S
C296 C294 1.327 . S
C296 C315 1.429 . S
C296 H320 0.950 . S
C297 C314 1.574 . S
C297 C316 1.368 . S
C297 H321 0.949 . S
H298 C302 0.949 . S
C299 C300 1.349 . S
C299 C301 1.327 . S
C299 H322 0.950 . S
C300 C299 1.349 . S
C300 C312 1.349 . S
C301 C299 1.327 . S
C301 C317 1.429 . S
C301 H323 0.950 . S
C302 H298 0.949 . S
C302 C310 1.574 . S
C302 C318 1.368 . S
H303 C311 0.950 . S
H304 C309 0.950 . S
H305 C310 0.949 . S
H306 C312 0.950 . S
H307 C313 0.950 . S
H308 C314 0.949 . S
C309 H304 0.950 . S
C309 C311 1.327 . S
C309 C315 1.429 . S
C310 C302 1.574 . S
C310 H305 0.949 . S
C310 C316 1.368 . S
C311 C295 1.349 . S
C311 H303 0.950 . S
C311 C309 1.327 . S
C312 C300 1.349 . S
C312 H306 0.950 . S
C312 C313 1.327 . S
C313 H307 0.950 . S
C313 C312 1.327 . S
C313 C317 1.429 . S
C314 C297 1.574 . S
C314 H308 0.949 . S
C314 C318 1.368 . S
C315 C296 1.429 . S
C315 C309 1.429 . S
C315 C316 1.523 . S
C316 C297 1.368 . S
C316 C310 1.368 . S
C316 C315 1.523 . S
C317 C301 1.429 . S
C317 C313 1.429 . S
C317 C318 1.523 . S
C318 C302 1.368 . S
C318 C314 1.368 . S
C318 C317 1.523 . S
H319 C294 0.950 . S
H320 C296 0.950 . S
H321 C297 0.949 . S
H322 C299 0.950 . S
H323 C301 0.950 . S
C324 C325 1.349 . S
C324 C326 1.327 . S
C324 H349 0.950 . S
C325 C324 1.349 . S
C325 C341 1.349 . S
C326 C324 1.327 . S
C326 C345 1.429 . S
C326 H350 0.950 . S
C327 C344 1.574 . S
C327 C346 1.368 . S
C327 H351 0.949 . S
H328 C332 0.949 . S
C329 C330 1.349 . S
C329 C331 1.327 . S
C329 H352 0.950 . S
C330 C329 1.349 . S
C330 C342 1.349 . S
C331 C329 1.327 . S
C331 C347 1.429 . S
C331 H353 0.950 . S
C332 H328 0.949 . S
C332 C340 1.574 . S
C332 C348 1.368 . S
H333 C341 0.950 . S
H334 C339 0.950 . S
H335 C340 0.949 . S
H336 C342 0.950 . S
H337 C343 0.950 . S
H338 C344 0.949 . S
C339 H334 0.950 . S
C339 C341 1.327 . S
C339 C345 1.429 . S
C340 C332 1.574 . S
C340 H335 0.949 . S
C340 C346 1.368 . S
C341 C325 1.349 . S
C341 H333 0.950 . S
C341 C339 1.327 . S
C342 C330 1.349 . S
C342 H336 0.950 . S
C342 C343 1.327 . S
C343 H337 0.950 . S
C343 C342 1.327 . S
C343 C347 1.429 . S
C344 C327 1.574 . S
C344 H338 0.949 . S
C344 C348 1.368 . S
C345 C326 1.429 . S
C345 C339 1.429 . S
C345 C346 1.523 . S
C346 C327 1.368 . S
C346 C340 1.368 . S
C346 C345 1.523 . S
C347 C331 1.429 . S
C347 C343 1.429 . S
C347 C348 1.523 . S
C348 C332 1.368 . S
C348 C344 1.368 . S
C348 C347 1.523 . S
H349 C324 0.950 . S
H350 C326 0.950 . S
H351 C327 0.949 . S
H352 C329 0.950 . S
H353 C331 0.950 . S
C354 C355 1.349 . S
C354 C356 1.327 . S
C354 H379 0.950 . S
C355 C354 1.349 . S
C355 C371 1.349 . S
C356 C354 1.327 . S
C356 C375 1.429 . S
C356 H380 0.950 . S
C357 C374 1.574 . S
C357 C376 1.368 . S
C357 H381 0.949 . S
H358 C362 0.949 . S
C359 C360 1.349 . S
C359 C361 1.327 . S
C359 H382 0.950 . S
C360 C359 1.349 . S
C360 C372 1.349 . S
C361 C359 1.327 . S
C361 C377 1.429 . S
C361 H383 0.950 . S
C362 H358 0.949 . S
C362 C370 1.574 . S
C362 C378 1.368 . S
H363 C371 0.950 . S
H364 C369 0.950 . S
H365 C370 0.949 . S
H366 C372 0.950 . S
H367 C373 0.950 . S
H368 C374 0.949 . S
C369 H364 0.950 . S
C369 C371 1.327 . S
C369 C375 1.429 . S
C370 C362 1.574 . S
C370 H365 0.949 . S
C370 C376 1.368 . S
C371 C355 1.349 . S
C371 H363 0.950 . S
C371 C369 1.327 . S
C372 C360 1.349 . S
C372 H366 0.950 . S
C372 C373 1.327 . S
C373 H367 0.950 . S
C373 C372 1.327 . S
C373 C377 1.429 . S
C374 C357 1.574 . S
C374 H368 0.949 . S
C374 C378 1.368 . S
C375 C356 1.429 . S
C375 C369 1.429 . S
C375 C376 1.523 . S
C376 C357 1.368 . S
C376 C370 1.368 . S
C376 C375 1.523 . S
C377 C361 1.429 . S
C377 C373 1.429 . S
C377 C378 1.523 . S
C378 C362 1.368 . S
C378 C374 1.368 . S
C378 C377 1.523 . S
H379 C354 0.950 . S
H380 C356 0.950 . S
H381 C357 0.949 . S
H382 C359 0.950 . S
H383 C361 0.950 . S
C384 C385 1.349 . S
C384 C386 1.327 . S
C384 H409 0.950 . S
C385 C384 1.349 . S
C385 C401 1.349 . S
C386 C384 1.327 . S
C386 C405 1.429 . S
C386 H410 0.950 . S
C387 C404 1.574 . S
C387 C406 1.368 . S
C387 H411 0.949 . S
H388 C392 0.949 . S
C389 C390 1.349 . S
C389 C391 1.327 . S
C389 H412 0.950 . S
C390 C389 1.349 . S
C390 C402 1.349 . S
C391 C389 1.327 . S
C391 C407 1.429 . S
C391 H413 0.950 . S
C392 H388 0.949 . S
C392 C400 1.574 . S
C392 C408 1.368 . S
H393 C401 0.950 . S
H394 C399 0.950 . S
H395 C400 0.949 . S
H396 C402 0.950 . S
H397 C403 0.950 . S
H398 C404 0.949 . S
C399 H394 0.950 . S
C399 C401 1.327 . S
C399 C405 1.429 . S
C400 C392 1.574 . S
C400 H395 0.949 . S
C400 C406 1.368 . S
C401 C385 1.349 . S
C401 H393 0.950 . S
C401 C399 1.327 . S
C402 C390 1.349 . S
C402 H396 0.950 . S
C402 C403 1.327 . S
C403 H397 0.950 . S
C403 C402 1.327 . S
C403 C407 1.429 . S
C404 C387 1.574 . S
C404 H398 0.949 . S
C404 C408 1.368 . S
C405 C386 1.429 . S
C405 C399 1.429 . S
C405 C406 1.523 . S
C406 C387 1.368 . S
C406 C400 1.368 . S
C406 C405 1.523 . S
C407 C391 1.429 . S
C407 C403 1.429 . S
C407 C408 1.523 . S
C408 C392 1.368 . S
C408 C404 1.368 . S
C408 C407 1.523 . S
H409 C384 0.950 . S
H410 C386 0.950 . S
H411 C387 0.949 . S
H412 C389 0.950 . S
H413 C391 0.950 . S
C414 C415 1.349 . S
C414 C416 1.327 . S
C414 H439 0.950 . S
C415 C414 1.349 . S
C415 C431 1.349 . S
C416 C414 1.327 . S
C416 C435 1.429 . S
C416 H440 0.950 . S
C417 C434 1.574 . S
C417 C436 1.368 . S
C417 H441 0.949 . S
H418 C422 0.949 . S
C419 C420 1.349 . S
C419 C421 1.327 . S
C419 H442 0.950 . S
C420 C419 1.349 . S
C420 C432 1.349 . S
C421 C419 1.327 . S
C421 C437 1.429 . S
C421 H443 0.950 . S
C422 H418 0.949 . S
C422 C430 1.574 . S
C422 C438 1.368 . S
H423 C431 0.950 . S
H424 C429 0.950 . S
H425 C430 0.949 . S
H426 C432 0.950 . S
H427 C433 0.950 . S
H428 C434 0.949 . S
C429 H424 0.950 . S
C429 C431 1.327 . S
C429 C435 1.429 . S
C430 C422 1.574 . S
C430 H425 0.949 . S
C430 C436 1.368 . S
C431 C415 1.349 . S
C431 H423 0.950 . S
C431 C429 1.327 . S
C432 C420 1.349 . S
C432 H426 0.950 . S
C432 C433 1.327 . S
C433 H427 0.950 . S
C433 C432 1.327 . S
C433 C437 1.429 . S
C434 C417 1.574 . S
C434 H428 0.949 . S
C434 C438 1.368 . S
C435 C416 1.429 . S
C435 C429 1.429 . S
C435 C436 1.523 . S
C436 C417 1.368 . S
C436 C430 1.368 . S
C436 C435 1.523 . S
C437 C421 1.429 . S
C437 C433 1.429 . S
C437 C438 1.523 . S
C438 C422 1.368 . S
C438 C434 1.368 . S
C438 C437 1.523 . S
H439 C414 0.950 . S
H440 C416 0.950 . S
H441 C417 0.949 . S
H442 C419 0.950 . S
H443 C421 0.950 . S
C444 C445 1.349 . S
C444 C446 1.327 . S
C444 H469 0.950 . S
C445 C444 1.349 . S
C445 C461 1.349 . S
C446 C444 1.327 . S
C446 C465 1.429 . S
C446 H470 0.950 . S
C447 C464 1.574 . S
C447 C466 1.368 . S
C447 H471 0.949 . S
H448 C452 0.949 . S
C449 C450 1.349 . S
C449 C451 1.327 . S
C449 H472 0.950 . S
C450 C449 1.349 . S
C450 C462 1.349 . S
C451 C449 1.327 . S
C451 C467 1.429 . S
C451 H473 0.950 . S
C452 H448 0.949 . S
C452 C460 1.574 . S
C452 C468 1.368 . S
H453 C461 0.950 . S
H454 C459 0.950 . S
H455 C460 0.949 . S
H456 C462 0.950 . S
H457 C463 0.950 . S
H458 C464 0.949 . S
C459 H454 0.950 . S
C459 C461 1.327 . S
C459 C465 1.429 . S
C460 C452 1.574 . S
C460 H455 0.949 . S
C460 C466 1.368 . S
C461 C445 1.349 . S
C461 H453 0.950 . S
C461 C459 1.327 . S
C462 C450 1.349 . S
C462 H456 0.950 . S
C462 C463 1.327 . S
C463 H457 0.950 . S
C463 C462 1.327 . S
C463 C467 1.429 . S
C464 C447 1.574 . S
C464 H458 0.949 . S
C464 C468 1.368 . S
C465 C446 1.429 . S
C465 C459 1.429 . S
C465 C466 1.523 . S
C466 C447 1.368 . S
C466 C460 1.368 . S
C466 C465 1.523 . S
C467 C451 1.429 . S
C467 C463 1.429 . S
C467 C468 1.523 . S
C468 C452 1.368 . S
C468 C464 1.368 . S
C468 C467 1.523 . S
H469 C444 0.950 . S
H470 C446 0.950 . S
H471 C447 0.949 . S
H472 C449 0.950 . S
H473 C451 0.950 . S
C474 C475 1.349 . S
C474 C476 1.327 . S
C474 H499 0.950 . S
C475 C474 1.349 . S
C475 C491 1.349 . S
C476 C474 1.327 . S
C476 C495 1.429 . S
C476 H500 0.950 . S
C477 C494 1.574 . S
C477 C496 1.368 . S
C477 H501 0.949 . S
H478 C482 0.949 . S
C479 C480 1.349 . S
C479 C481 1.327 . S
C479 H502 0.950 . S
C480 C479 1.349 . S
C480 C492 1.349 . S
C481 C479 1.327 . S
C481 C497 1.429 . S
C481 H503 0.950 . S
C482 H478 0.949 . S
C482 C490 1.574 . S
C482 C498 1.368 . S
H483 C491 0.950 . S
H484 C489 0.950 . S
H485 C490 0.949 . S
H486 C492 0.950 . S
H487 C493 0.950 . S
H488 C494 0.949 . S
C489 H484 0.950 . S
C489 C491 1.327 . S
C489 C495 1.429 . S
C490 C482 1.574 . S
C490 H485 0.949 . S
C490 C496 1.368 . S
C491 C475 1.349 . S
C491 H483 0.950 . S
C491 C489 1.327 . S
C492 C480 1.349 . S
C492 H486 0.950 . S
C492 C493 1.327 . S
C493 H487 0.950 . S
C493 C492 1.327 . S
C493 C497 1.429 . S
C494 C477 1.574 . S
C494 H488 0.949 . S
C494 C498 1.368 . S
C495 C476 1.429 . S
C495 C489 1.429 . S
C495 C496 1.523 . S
C496 C477 1.368 . S
C496 C490 1.368 . S
C496 C495 1.523 . S
C497 C481 1.429 . S
C497 C493 1.429 . S
C497 C498 1.523 . S
C498 C482 1.368 . S
C498 C494 1.368 . S
C498 C497 1.523 . S
H499 C474 0.950 . S
H500 C476 0.950 . S
H501 C477 0.949 . S
H502 C479 0.950 . S
H503 C481 0.950 . S
C504 C505 1.349 . S
C504 C506 1.327 . S
C504 H529 0.950 . S
C505 C504 1.349 . S
C505 C521 1.349 . S
C506 C504 1.327 . S
C506 C525 1.429 . S
C506 H530 0.950 . S
C507 C524 1.574 . S
C507 C526 1.368 . S
C507 H531 0.949 . S
H508 C512 0.949 . S
C509 C510 1.349 . S
C509 C511 1.327 . S
C509 H532 0.950 . S
C510 C509 1.349 . S
C510 C522 1.349 . S
C511 C509 1.327 . S
C511 C527 1.429 . S
C511 H533 0.950 . S
C512 H508 0.949 . S
C512 C520 1.574 . S
C512 C528 1.368 . S
H513 C521 0.950 . S
H514 C519 0.950 . S
H515 C520 0.949 . S
H516 C522 0.950 . S
H517 C523 0.950 . S
H518 C524 0.949 . S
C519 H514 0.950 . S
C519 C521 1.327 . S
C519 C525 1.429 . S
C520 C512 1.574 . S
C520 H515 0.949 . S
C520 C526 1.368 . S
C521 C505 1.349 . S
C521 H513 0.950 . S
C521 C519 1.327 . S
C522 C510 1.349 . S
C522 H516 0.950 . S
C522 C523 1.327 . S
C523 H517 0.950 . S
C523 C522 1.327 . S
C523 C527 1.429 . S
C524 C507 1.574 . S
C524 H518 0.949 . S
C524 C528 1.368 . S
C525 C506 1.429 . S
C525 C519 1.429 . S
C525 C526 1.523 . S
C526 C507 1.368 . S
C526 C520 1.368 . S
C526 C525 1.523 . S
C527 C511 1.429 . S
C527 C523 1.429 . S
C527 C528 1.523 . S
C528 C512 1.368 . S
C528 C524 1.368 . S
C528 C527 1.523 . S
H529 C504 0.950 . S
H530 C506 0.950 . S
H531 C507 0.949 . S
H532 C509 0.950 . S
H533 C511 0.950 . S
C534 C535 1.349 . S
C534 C536 1.327 . S
C534 H559 0.950 . S
C535 C534 1.349 . S
C535 C551 1.349 . S
C536 C534 1.327 . S
C536 C555 1.429 . S
C536 H560 0.950 . S
C537 C554 1.574 . S
C537 C556 1.368 . S
C537 H561 0.949 . S
H538 C542 0.949 . S
C539 C540 1.349 . S
C539 C541 1.327 . S
C539 H562 0.950 . S
C540 C539 1.349 . S
C540 C552 1.349 . S
C541 C539 1.327 . S
C541 C557 1.429 . S
C541 H563 0.950 . S
C542 H538 0.949 . S
C542 C550 1.574 . S
C542 C558 1.368 . S
H543 C551 0.950 . S
H544 C549 0.950 . S
H545 C550 0.949 . S
H546 C552 0.950 . S
H547 C553 0.950 . S
H548 C554 0.949 . S
C549 H544 0.950 . S
C549 C551 1.327 . S
C549 C555 1.429 . S
C550 C542 1.574 . S
C550 H545 0.949 . S
C550 C556 1.368 . S
C551 C535 1.349 . S
C551 H543 0.950 . S
C551 C549 1.327 . S
C552 C540 1.349 . S
C552 H546 0.950 . S
C552 C553 1.327 . S
C553 H547 0.950 . S
C553 C552 1.327 . S
C553 C557 1.429 . S
C554 C537 1.574 . S
C554 H548 0.949 . S
C554 C558 1.368 . S
C555 C536 1.429 . S
C555 C549 1.429 . S
C555 C556 1.523 . S
C556 C537 1.368 . S
C556 C550 1.368 . S
C556 C555 1.523 . S
C557 C541 1.429 . S
C557 C553 1.429 . S
C557 C558 1.523 . S
C558 C542 1.368 . S
C558 C554 1.368 . S
C558 C557 1.523 . S
H559 C534 0.950 . S
H560 C536 0.950 . S
H561 C537 0.949 . S
H562 C539 0.950 . S
H563 C541 0.950 . S
C564 C565 1.349 . S
C564 C566 1.327 . S
C564 H589 0.950 . S
C565 C564 1.349 . S
C565 C581 1.349 . S
C566 C564 1.327 . S
C566 C585 1.429 . S
C566 H590 0.950 . S
C567 C584 1.574 . S
C567 C586 1.368 . S
C567 H591 0.949 . S
H568 C572 0.949 . S
C569 C570 1.349 . S
C569 C571 1.327 . S
C569 H592 0.950 . S
C570 C569 1.349 . S
C570 C582 1.349 . S
C571 C569 1.327 . S
C571 C587 1.429 . S
C571 H593 0.950 . S
C572 H568 0.949 . S
C572 C580 1.574 . S
C572 C588 1.368 . S
H573 C581 0.950 . S
H574 C579 0.950 . S
H575 C580 0.949 . S
H576 C582 0.950 . S
H577 C583 0.950 . S
H578 C584 0.949 . S
C579 H574 0.950 . S
C579 C581 1.327 . S
C579 C585 1.429 . S
C580 C572 1.574 . S
C580 H575 0.949 . S
C580 C586 1.368 . S
C581 C565 1.349 . S
C581 H573 0.950 . S
C581 C579 1.327 . S
C582 C570 1.349 . S
C582 H576 0.950 . S
C582 C583 1.327 . S
C583 H577 0.950 . S
C583 C582 1.327 . S
C583 C587 1.429 . S
C584 C567 1.574 . S
C584 H578 0.949 . S
C584 C588 1.368 . S
C585 C566 1.429 . S
C585 C579 1.429 . S
C585 C586 1.523 . S
C586 C567 1.368 . S
C586 C580 1.368 . S
C586 C585 1.523 . S
C587 C571 1.429 . S
C587 C583 1.429 . S
C587 C588 1.523 . S
C588 C572 1.368 . S
C588 C584 1.368 . S
C588 C587 1.523 . S
H589 C564 0.950 . S
H590 C566 0.950 . S
H591 C567 0.949 . S
H592 C569 0.950 . S
H593 C571 0.950 . S
C594 C595 1.349 . S
C594 C596 1.327 . S
C594 H619 0.950 . S
C595 C594 1.349 . S
C595 C611 1.349 . S
C596 C594 1.327 . S
C596 C615 1.429 . S
C596 H620 0.950 . S
C597 C614 1.574 . S
C597 C616 1.368 . S
C597 H621 0.949 . S
H598 C602 0.949 . S
C599 C600 1.349 . S
C599 C601 1.327 . S
C599 H622 0.950 . S
C600 C599 1.349 . S
C600 C612 1.349 . S
C601 C599 1.327 . S
C601 C617 1.429 . S
C601 H623 0.950 . S
C602 H598 0.949 . S
C602 C610 1.574 . S
C602 C618 1.368 . S
H603 C611 0.950 . S
H604 C609 0.950 . S
H605 C610 0.949 . S
H606 C612 0.950 . S
H607 C613 0.950 . S
H608 C614 0.949 . S
C609 H604 0.950 . S
C609 C611 1.327 . S
C609 C615 1.429 . S
C610 C602 1.574 . S
C610 H605 0.949 . S
C610 C616 1.368 . S
C611 C595 1.349 . S
C611 H603 0.950 . S
C611 C609 1.327 . S
C612 C600 1.349 . S
C612 H606 0.950 . S
C612 C613 1.327 . S
C613 H607 0.950 . S
C613 C612 1.327 . S
C613 C617 1.429 . S
C614 C597 1.574 . S
C614 H608 0.949 . S
C614 C618 1.368 . S
C615 C596 1.429 . S
C615 C609 1.429 . S
C615 C616 1.523 . S
C616 C597 1.368 . S
C616 C610 1.368 . S
C616 C615 1.523 . S
C617 C601 1.429 . S
C617 C613 1.429 . S
C617 C618 1.523 . S
C618 C602 1.368 . S
C618 C614 1.368 . S
C618 C617 1.523 . S
H619 C594 0.950 . S
H620 C596 0.950 . S
H621 C597 0.949 . S
H622 C599 0.950 . S
H623 C601 0.950 . S
C624 C625 1.349 . S
C624 C626 1.327 . S
C624 H649 0.950 . S
C625 C624 1.349 . S
C625 C641 1.349 . S
C626 C624 1.327 . S
C626 C645 1.429 . S
C626 H650 0.950 . S
C627 C644 1.584 . S
C627 C646 1.368 . S
C627 H651 0.949 . S
H628 C632 0.949 . S
C629 C630 1.349 . S
C629 C631 1.327 . S
C629 H652 0.950 . S
C630 C629 1.349 . S
C630 C642 1.349 . S
C631 C629 1.327 . S
C631 C647 1.429 . S
C631 H653 0.950 . S
C632 H628 0.949 . S
C632 C640 1.584 . S
C632 C648 1.368 . S
H633 C641 0.950 . S
H634 C639 0.950 . S
H635 C640 0.946 . S
H636 C642 0.950 . S
H637 C643 0.950 . S
H638 C644 0.946 . S
C639 H634 0.950 . S
C639 C641 1.327 . S
C639 C645 1.429 . S
C640 C632 1.584 . S
C640 H635 0.946 . S
C640 C646 1.363 1_545 S
C641 C625 1.349 . S
C641 H633 0.950 . S
C641 C639 1.327 . S
C642 C630 1.349 . S
C642 H636 0.950 . S
C642 C643 1.327 . S
C643 H637 0.950 . S
C643 C642 1.327 . S
C643 C647 1.429 . S
C644 C627 1.584 . S
C644 H638 0.946 . S
C644 C648 1.363 1_565 S
C645 C626 1.429 . S
C645 C639 1.429 . S
C645 C646 1.523 . S
C646 C627 1.368 . S
C646 C640 1.363 1_565 S
C646 C645 1.523 . S
C647 C631 1.429 . S
C647 C643 1.429 . S
C647 C648 1.523 . S
C648 C632 1.368 . S
C648 C644 1.363 1_545 S
C648 C647 1.523 . S
H649 C624 0.950 . S
H650 C626 0.950 . S
H651 C627 0.949 . S
H652 C629 0.950 . S
H653 C631 0.950 . S
C654 C655 1.349 . S
C654 C656 1.327 . S
C654 H679 0.950 . S
C655 C654 1.349 . S
C655 C671 1.349 . S
C656 C654 1.327 . S
C656 C675 1.429 . S
C656 H680 0.950 . S
C657 C674 1.574 . S
C657 C676 1.368 . S
C657 H681 0.949 . S
H658 C662 0.949 . S
C659 C660 1.349 . S
C659 C661 1.327 . S
C659 H682 0.950 . S
C660 C659 1.349 . S
C660 C672 1.349 . S
C661 C659 1.327 . S
C661 C677 1.429 . S
C661 H683 0.950 . S
C662 H658 0.949 . S
C662 C670 1.574 . S
C662 C678 1.368 . S
H663 C671 0.950 . S
H664 C669 0.950 . S
H665 C670 0.949 . S
H666 C672 0.950 . S
H667 C673 0.950 . S
H668 C674 0.949 . S
C669 H664 0.950 . S
C669 C671 1.327 . S
C669 C675 1.429 . S
C670 C662 1.574 . S
C670 H665 0.949 . S
C670 C676 1.368 . S
C671 C655 1.349 . S
C671 H663 0.950 . S
C671 C669 1.327 . S
C672 C660 1.349 . S
C672 H666 0.950 . S
C672 C673 1.327 . S
C673 H667 0.950 . S
C673 C672 1.327 . S
C673 C677 1.429 . S
C674 C657 1.574 . S
C674 H668 0.949 . S
C674 C678 1.368 . S
C675 C656 1.429 . S
C675 C669 1.429 . S
C675 C676 1.523 . S
C676 C657 1.368 . S
C676 C670 1.368 . S
C676 C675 1.523 . S
C677 C661 1.429 . S
C677 C673 1.429 . S
C677 C678 1.523 . S
C678 C662 1.368 . S
C678 C674 1.368 . S
C678 C677 1.523 . S
H679 C654 0.950 . S
H680 C656 0.950 . S
H681 C657 0.949 . S
H682 C659 0.950 . S
H683 C661 0.950 . S
C684 C685 1.349 . S
C684 C686 1.327 . S
C684 H709 0.950 . S
C685 C684 1.349 . S
C685 C701 1.349 . S
C686 C684 1.327 . S
C686 C705 1.429 . S
C686 H710 0.950 . S
C687 C704 1.575 1_455 S
C687 C706 1.368 . S
C687 H711 0.949 . S
H688 C692 0.949 . S
C689 C690 1.349 . S
C689 C691 1.327 . S
C689 H712 0.950 . S
C690 C689 1.349 . S
C690 C702 1.349 . S
C691 C689 1.327 . S
C691 C707 1.429 . S
C691 H713 0.950 . S
C692 H688 0.949 . S
C692 C700 1.575 1_655 S
C692 C708 1.368 . S
H693 C701 0.950 . S
H694 C699 0.950 . S
H695 C700 0.940 . S
H696 C702 0.950 . S
H697 C703 0.950 . S
H698 C704 0.940 . S
C699 H694 0.950 . S
C699 C701 1.327 . S
C699 C705 1.429 . S
C700 C692 1.575 1_455 S
C700 H695 0.940 . S
C700 C706 1.368 . S
C701 C685 1.349 . S
C701 H693 0.950 . S
C701 C699 1.327 . S
C702 C690 1.349 . S
C702 H696 0.950 . S
C702 C703 1.327 . S
C703 H697 0.950 . S
C703 C702 1.327 . S
C703 C707 1.429 . S
C704 C687 1.575 1_655 S
C704 H698 0.940 . S
C704 C708 1.368 . S
C705 C686 1.429 . S
C705 C699 1.429 . S
C705 C706 1.523 . S
C706 C687 1.368 . S
C706 C700 1.368 . S
C706 C705 1.523 . S
C707 C691 1.429 . S
C707 C703 1.429 . S
C707 C708 1.523 . S
C708 C692 1.368 . S
C708 C704 1.368 . S
C708 C707 1.523 . S
H709 C684 0.950 . S
H710 C686 0.950 . S
H711 C687 0.949 . S
H712 C689 0.950 . S
H713 C691 0.950 . S
C714 C715 1.349 . S
C714 C716 1.327 . S
C714 H739 0.950 . S
C715 C714 1.349 . S
C715 C731 1.349 . S
C716 C714 1.327 . S
C716 C735 1.429 . S
C716 H740 0.950 . S
C717 C734 1.547 1_565 S
C717 C736 1.408 . S
C717 H741 0.939 . S
H718 C722 0.939 . S
C719 C720 1.349 . S
C719 C721 1.327 . S
C719 H742 0.950 . S
C720 C719 1.349 . S
C720 C732 1.349 . S
C721 C719 1.327 . S
C721 C737 1.429 . S
C721 H743 0.950 . S
C722 H718 0.939 . S
C722 C730 1.547 1_545 S
C722 C738 1.408 . S
H723 C731 0.950 . S
H724 C729 0.950 . S
H725 C730 0.949 . S
H726 C732 0.950 . S
H727 C733 0.950 . S
H728 C734 0.949 . S
C729 H724 0.950 . S
C729 C731 1.327 . S
C729 C735 1.429 . S
C730 C722 1.547 1_565 S
C730 H725 0.949 . S
C730 C736 1.368 . S
C731 C715 1.349 . S
C731 H723 0.950 . S
C731 C729 1.327 . S
C732 C720 1.349 . S
C732 H726 0.950 . S
C732 C733 1.327 . S
C733 H727 0.950 . S
C733 C732 1.327 . S
C733 C737 1.429 . S
C734 C717 1.547 1_545 S
C734 H728 0.949 . S
C734 C738 1.368 . S
C735 C716 1.429 . S
C735 C729 1.429 . S
C735 C736 1.523 . S
C736 C717 1.408 . S
C736 C730 1.368 . S
C736 C735 1.523 . S
C737 C721 1.429 . S
C737 C733 1.429 . S
C737 C738 1.523 . S
C738 C722 1.408 . S
C738 C734 1.368 . S
C738 C737 1.523 . S
H739 C714 0.950 . S
H740 C716 0.950 . S
H741 C717 0.939 . S
H742 C719 0.950 . S
H743 C721 0.950 . S
C744 C745 1.349 . S
C744 C746 1.327 . S
C744 H769 0.950 . S
C745 C744 1.349 . S
C745 C761 1.349 . S
C746 C744 1.327 . S
C746 C765 1.429 . S
C746 H770 0.950 . S
C747 C764 1.574 . S
C747 C766 1.368 . S
C747 H771 0.949 . S
H748 C752 0.949 . S
C749 C750 1.349 . S
C749 C751 1.327 . S
C749 H772 0.950 . S
C750 C749 1.349 . S
C750 C762 1.349 . S
C751 C749 1.327 . S
C751 C767 1.429 . S
C751 H773 0.950 . S
C752 H748 0.949 . S
C752 C760 1.574 . S
C752 C768 1.368 . S
H753 C761 0.950 . S
H754 C759 0.950 . S
H755 C760 0.949 . S
H756 C762 0.950 . S
H757 C763 0.950 . S
H758 C764 0.949 . S
C759 H754 0.950 . S
C759 C761 1.327 . S
C759 C765 1.429 . S
C760 C752 1.574 . S
C760 H755 0.949 . S
C760 C766 1.368 . S
C761 C745 1.349 . S
C761 H753 0.950 . S
C761 C759 1.327 . S
C762 C750 1.349 . S
C762 H756 0.950 . S
C762 C763 1.327 . S
C763 H757 0.950 . S
C763 C762 1.327 . S
C763 C767 1.429 . S
C764 C747 1.574 . S
C764 H758 0.949 . S
C764 C768 1.368 . S
C765 C746 1.429 . S
C765 C759 1.429 . S
C765 C766 1.523 . S
C766 C747 1.368 . S
C766 C760 1.368 . S
C766 C765 1.523 . S
C767 C751 1.429 . S
C767 C763 1.429 . S
C767 C768 1.523 . S
C768 C752 1.368 . S
C768 C764 1.368 . S
C768 C767 1.523 . S
H769 C744 0.950 . S
H770 C746 0.950 . S
H771 C747 0.949 . S
H772 C749 0.950 . S
H773 C751 0.950 . S
C774 C775 1.349 . S
C774 C776 1.327 . S
C774 H799 0.950 . S
C775 C774 1.349 . S
C775 C791 1.349 . S
C776 C774 1.327 . S
C776 C795 1.429 . S
C776 H800 0.950 . S
C777 C794 1.574 . S
C777 C796 1.368 1_455 S
C777 H801 0.949 . S
H778 C782 0.949 . S
C779 C780 1.349 . S
C779 C781 1.327 . S
C779 H802 0.950 . S
C780 C779 1.349 . S
C780 C792 1.349 . S
C781 C779 1.327 . S
C781 C797 1.429 . S
C781 H803 0.950 . S
C782 H778 0.949 . S
C782 C790 1.574 . S
C782 C798 1.368 1_655 S
H783 C791 0.950 . S
H784 C789 0.950 . S
H785 C790 0.949 . S
H786 C792 0.950 . S
H787 C793 0.950 . S
H788 C794 0.949 . S
C789 H784 0.950 . S
C789 C791 1.327 . S
C789 C795 1.429 . S
C790 C782 1.574 . S
C790 H785 0.949 . S
C790 C796 1.368 . S
C791 C775 1.349 . S
C791 H783 0.950 . S
C791 C789 1.327 . S
C792 C780 1.349 . S
C792 H786 0.950 . S
C792 C793 1.327 . S
C793 H787 0.950 . S
C793 C792 1.327 . S
C793 C797 1.429 . S
C794 C777 1.574 . S
C794 H788 0.949 . S
C794 C798 1.368 . S
C795 C776 1.429 . S
C795 C789 1.429 . S
C795 C796 1.523 . S
C796 C777 1.368 1_655 S
C796 C790 1.368 . S
C796 C795 1.523 . S
C797 C781 1.429 . S
C797 C793 1.429 . S
C797 C798 1.523 . S
C798 C782 1.368 1_455 S
C798 C794 1.368 . S
C798 C797 1.523 . S
H799 C774 0.950 . S
H800 C776 0.950 . S
H801 C777 0.949 . S
H802 C779 0.950 . S
H803 C781 0.950 . S
C804 C805 1.349 . S
C804 C806 1.327 . S
C804 H829 0.950 . S
C805 C804 1.349 . S
C805 C821 1.349 . S
C806 C804 1.327 . S
C806 C825 1.429 . S
C806 H830 0.950 . S
C807 C824 1.574 1_545 S
C807 C826 1.368 . S
C807 H831 0.949 . S
H808 C812 0.949 . S
C809 C810 1.349 . S
C809 C811 1.327 . S
C809 H832 0.950 . S
C810 C809 1.349 . S
C810 C822 1.349 . S
C811 C809 1.327 . S
C811 C827 1.429 . S
C811 H833 0.950 . S
C812 H808 0.949 . S
C812 C820 1.574 1_565 S
C812 C828 1.368 . S
H813 C821 0.950 . S
H814 C819 0.950 . S
H815 C820 0.949 . S
H816 C822 0.950 . S
H817 C823 0.950 . S
H818 C824 0.949 . S
C819 H814 0.950 . S
C819 C821 1.327 . S
C819 C825 1.429 . S
C820 C812 1.574 1_545 S
C820 H815 0.949 . S
C820 C826 1.368 . S
C821 C805 1.349 . S
C821 H813 0.950 . S
C821 C819 1.327 . S
C822 C810 1.349 . S
C822 H816 0.950 . S
C822 C823 1.327 . S
C823 H817 0.950 . S
C823 C822 1.327 . S
C823 C827 1.429 . S
C824 C807 1.574 1_565 S
C824 H818 0.949 . S
C824 C828 1.368 . S
C825 C806 1.429 . S
C825 C819 1.429 . S
C825 C826 1.523 . S
C826 C807 1.368 . S
C826 C820 1.368 . S
C826 C825 1.523 . S
C827 C811 1.429 . S
C827 C823 1.429 . S
C827 C828 1.523 . S
C828 C812 1.368 . S
C828 C824 1.368 . S
C828 C827 1.523 . S
H829 C804 0.950 . S
H830 C806 0.950 . S
H831 C807 0.949 . S
H832 C809 0.950 . S
H833 C811 0.950 . S
C834 C835 1.349 . S
C834 C836 1.327 . S
C834 H859 0.950 . S
C835 C834 1.349 . S
C835 C851 1.349 . S
C836 C834 1.327 . S
C836 C855 1.429 . S
C836 H860 0.950 . S
C837 C854 1.574 . S
C837 C856 1.368 . S
C837 H861 0.949 . S
H838 C842 0.949 . S
C839 C840 1.349 . S
C839 C841 1.327 . S
C839 H862 0.950 . S
C840 C839 1.349 . S
C840 C852 1.349 . S
C841 C839 1.327 . S
C841 C857 1.429 . S
C841 H863 0.950 . S
C842 H838 0.949 . S
C842 C850 1.574 . S
C842 C858 1.368 . S
H843 C851 0.950 . S
H844 C849 0.950 . S
H845 C850 0.949 . S
H846 C852 0.950 . S
H847 C853 0.950 . S
H848 C854 0.949 . S
C849 H844 0.950 . S
C849 C851 1.327 . S
C849 C855 1.429 . S
C850 C842 1.574 . S
C850 H845 0.949 . S
C850 C856 1.368 . S
C851 C835 1.349 . S
C851 H843 0.950 . S
C851 C849 1.327 . S
C852 C840 1.349 . S
C852 H846 0.950 . S
C852 C853 1.327 . S
C853 H847 0.950 . S
C853 C852 1.327 . S
C853 C857 1.429 . S
C854 C837 1.574 . S
C854 H848 0.949 . S
C854 C858 1.368 . S
C855 C836 1.429 . S
C855 C849 1.429 . S
C855 C856 1.523 . S
C856 C837 1.368 . S
C856 C850 1.368 . S
C856 C855 1.523 . S
C857 C841 1.429 . S
C857 C853 1.429 . S
C857 C858 1.523 . S
C858 C842 1.368 . S
C858 C854 1.368 . S
C858 C857 1.523 . S
H859 C834 0.950 . S
H860 C836 0.950 . S
H861 C837 0.949 . S
H862 C839 0.950 . S
H863 C841 0.950 . S
C864 C865 1.349 . S
C864 C866 1.327 . S
C864 H889 0.950 . S
C865 C864 1.349 . S
C865 C881 1.349 . S
C866 C864 1.327 . S
C866 C885 1.429 . S
C866 H890 0.950 . S
C867 C884 1.574 1_655 S
C867 C886 1.368 . S
C867 H891 0.949 . S
H868 C872 0.949 . S
C869 C870 1.349 . S
C869 C871 1.327 . S
C869 H892 0.950 . S
C870 C869 1.349 . S
C870 C882 1.349 . S
C871 C869 1.327 . S
C871 C887 1.429 . S
C871 H893 0.950 . S
C872 H868 0.949 . S
C872 C880 1.574 1_455 S
C872 C888 1.368 . S
H873 C881 0.950 . S
H874 C879 0.950 . S
H875 C880 0.949 . S
H876 C882 0.950 . S
H877 C883 0.950 . S
H878 C884 0.949 . S
C879 H874 0.950 . S
C879 C881 1.327 . S
C879 C885 1.429 . S
C880 C872 1.574 1_655 S
C880 H875 0.949 . S
C880 C886 1.368 . S
C881 C865 1.349 . S
C881 H873 0.950 . S
C881 C879 1.327 . S
C882 C870 1.349 . S
C882 H876 0.950 . S
C882 C883 1.327 . S
C883 H877 0.950 . S
C883 C882 1.327 . S
C883 C887 1.429 . S
C884 C867 1.574 1_455 S
C884 H878 0.949 . S
C884 C888 1.368 . S
C885 C866 1.429 . S
C885 C879 1.429 . S
C885 C886 1.523 . S
C886 C867 1.368 . S
C886 C880 1.368 . S
C886 C885 1.523 . S
C887 C871 1.429 . S
C887 C883 1.429 . S
C887 C888 1.523 . S
C888 C872 1.368 . S
C888 C884 1.368 . S
C888 C887 1.523 . S
H889 C864 0.950 . S
H890 C866 0.950 . S
H891 C867 0.949 . S
H892 C869 0.950 . S
H893 C871 0.950 . S
C894 C895 1.349 . S
C894 C896 1.327 . S
C894 H919 0.950 . S
C895 C894 1.349 . S
C895 C911 1.349 . S
C896 C894 1.327 . S
C896 C915 1.429 . S
C896 H920 0.950 . S
C897 C914 1.607 . S
C897 C916 1.321 1_545 S
C897 H921 0.947 . S
H898 C902 0.947 . S
C899 C900 1.349 . S
C899 C901 1.327 . S
C899 H922 0.950 . S
C900 C899 1.349 . S
C900 C912 1.349 . S
C901 C899 1.327 . S
C901 C917 1.429 . S
C901 H923 0.950 . S
C902 H898 0.947 . S
C902 C910 1.607 . S
C902 C918 1.321 1_565 S
H903 C911 0.950 . S
H904 C909 0.950 . S
H905 C910 0.949 . S
H906 C912 0.950 . S
H907 C913 0.950 . S
H908 C914 0.949 . S
C909 H904 0.950 . S
C909 C911 1.327 . S
C909 C915 1.429 . S
C910 C902 1.607 . S
C910 H905 0.949 . S
C910 C916 1.368 . S
C911 C895 1.349 . S
C911 H903 0.950 . S
C911 C909 1.327 . S
C912 C900 1.349 . S
C912 H906 0.950 . S
C912 C913 1.327 . S
C913 H907 0.950 . S
C913 C912 1.327 . S
C913 C917 1.429 . S
C914 C897 1.607 . S
C914 H908 0.949 . S
C914 C918 1.368 . S
C915 C896 1.429 . S
C915 C909 1.429 . S
C915 C916 1.523 . S
C916 C897 1.321 1_565 S
C916 C910 1.368 . S
C916 C915 1.523 . S
C917 C901 1.429 . S
C917 C913 1.429 . S
C917 C918 1.523 . S
C918 C902 1.321 1_545 S
C918 C914 1.368 . S
C918 C917 1.523 . S
H919 C894 0.950 . S
H920 C896 0.950 . S
H921 C897 0.947 . S
H922 C899 0.950 . S
H923 C901 0.950 . S
C924 C925 1.349 . S
C924 C926 1.327 . S
C924 H949 0.950 . S
C925 C924 1.349 . S
C925 C941 1.349 . S
C926 C924 1.327 . S
C926 C945 1.429 . S
C926 H950 0.950 . S
C927 C944 1.574 . S
C927 C946 1.368 . S
C927 H951 0.949 . S
H928 C932 0.949 . S
C929 C930 1.349 . S
C929 C931 1.327 . S
C929 H952 0.950 . S
C930 C929 1.349 . S
C930 C942 1.349 . S
C931 C929 1.327 . S
C931 C947 1.429 . S
C931 H953 0.950 . S
C932 H928 0.949 . S
C932 C940 1.574 . S
C932 C948 1.368 . S
H933 C941 0.950 . S
H934 C939 0.950 . S
H935 C940 0.949 . S
H936 C942 0.950 . S
H937 C943 0.950 . S
H938 C944 0.949 . S
C939 H934 0.950 . S
C939 C941 1.327 . S
C939 C945 1.429 . S
C940 C932 1.574 . S
C940 H935 0.949 . S
C940 C946 1.368 . S
C941 C925 1.349 . S
C941 H933 0.950 . S
C941 C939 1.327 . S
C942 C930 1.349 . S
C942 H936 0.950 . S
C942 C943 1.327 . S
C943 H937 0.950 . S
C943 C942 1.327 . S
C943 C947 1.429 . S
C944 C927 1.574 . S
C944 H938 0.949 . S
C944 C948 1.368 . S
C945 C926 1.429 . S
C945 C939 1.429 . S
C945 C946 1.523 . S
C946 C927 1.368 . S
C946 C940 1.368 . S
C946 C945 1.523 . S
C947 C931 1.429 . S
C947 C943 1.429 . S
C947 C948 1.523 . S
C948 C932 1.368 . S
C948 C944 1.368 . S
C948 C947 1.523 . S
H949 C924 0.950 . S
H950 C926 0.950 . S
H951 C927 0.949 . S
H952 C929 0.950 . S
H953 C931 0.950 . S
C954 C955 1.349 . S
C954 C956 1.327 . S
C954 H979 0.950 . S
C955 C954 1.349 . S
C955 C971 1.349 . S
C956 C954 1.327 . S
C956 C975 1.429 . S
C956 H980 0.950 . S
C957 C974 1.615 . S
C957 C976 1.345 1_455 S
C957 H981 0.937 . S
H958 C962 0.937 . S
C959 C960 1.349 . S
C959 C961 1.327 . S
C959 H982 0.950 . S
C960 C959 1.349 . S
C960 C972 1.349 . S
C961 C959 1.327 . S
C961 C977 1.429 . S
C961 H983 0.950 . S
C962 H958 0.937 . S
C962 C970 1.614 . S
C962 C978 1.345 1_655 S
H963 C971 0.950 . S
H964 C969 0.950 . S
H965 C970 0.949 . S
H966 C972 0.950 . S
H967 C973 0.950 . S
H968 C974 0.949 . S
C969 H964 0.950 . S
C969 C971 1.327 . S
C969 C975 1.429 . S
C970 C962 1.614 . S
C970 H965 0.949 . S
C970 C976 1.368 . S
C971 C955 1.349 . S
C971 H963 0.950 . S
C971 C969 1.327 . S
C972 C960 1.349 . S
C972 H966 0.950 . S
C972 C973 1.327 . S
C973 H967 0.950 . S
C973 C972 1.327 . S
C973 C977 1.429 . S
C974 C957 1.615 . S
C974 H968 0.949 . S
C974 C978 1.368 . S
C975 C956 1.429 . S
C975 C969 1.429 . S
C975 C976 1.523 . S
C976 C957 1.345 1_655 S
C976 C970 1.368 . S
C976 C975 1.523 . S
C977 C961 1.429 . S
C977 C973 1.429 . S
C977 C978 1.523 . S
C978 C962 1.345 1_455 S
C978 C974 1.368 . S
C978 C977 1.523 . S
H979 C954 0.950 . S
H980 C956 0.950 . S
H981 C957 0.937 . S
H982 C959 0.950 . S
H983 C961 0.950 . S
C984 C985 1.349 . S
C984 C986 1.327 . S
C984 H1009 0.950 . S
C985 C984 1.349 . S
C985 C1001 1.349 . S
C986 C984 1.327 . S
C986 C1005 1.429 . S
C986 H1010 0.950 . S
C987 C1004 1.574 . S
C987 C1006 1.368 . S
C987 H1011 0.949 . S
H988 C992 0.949 . S
C989 C990 1.349 . S
C989 C991 1.327 . S
C989 H1012 0.950 . S
C990 C989 1.349 . S
C990 C1002 1.349 . S
C991 C989 1.327 . S
C991 C1007 1.429 . S
C991 H1013 0.950 . S
C992 H988 0.949 . S
C992 C1000 1.574 . S
C992 C1008 1.368 . S
H993 C1001 0.950 . S
H994 C999 0.950 . S
H995 C1000 0.949 . S
H996 C1002 0.950 . S
H997 C1003 0.950 . S
H998 C1004 0.949 . S
C999 H994 0.950 . S
C999 C1001 1.327 . S
C999 C1005 1.429 . S
C1000 C992 1.574 . S
C1000 H995 0.949 . S
C1000 C1006 1.368 . S
C1001 C985 1.349 . S
C1001 H993 0.950 . S
C1001 C999 1.327 . S
C1002 C990 1.349 . S
C1002 H996 0.950 . S
C1002 C1003 1.327 . S
C1003 H997 0.950 . S
C1003 C1002 1.327 . S
C1003 C1007 1.429 . S
C1004 C987 1.574 . S
C1004 H998 0.949 . S
C1004 C1008 1.368 . S
C1005 C986 1.429 . S
C1005 C999 1.429 . S
C1005 C1006 1.523 . S
C1006 C987 1.368 . S
C1006 C1000 1.368 . S
C1006 C1005 1.523 . S
C1007 C991 1.429 . S
C1007 C1003 1.429 . S
C1007 C1008 1.523 . S
C1008 C992 1.368 . S
C1008 C1004 1.368 . S
C1008 C1007 1.523 . S
H1009 C984 0.950 . S
H1010 C986 0.950 . S
H1011 C987 0.949 . S
H1012 C989 0.950 . S
H1013 C991 0.950 . S
C1014 C1015 1.349 . S
C1014 C1016 1.327 . S
C1014 H1039 0.950 . S
C1015 C1014 1.349 . S
C1015 C1031 1.349 . S
C1016 C1014 1.327 . S
C1016 C1035 1.429 . S
C1016 H1040 0.950 . S
C1017 C1034 1.574 . S
C1017 C1036 1.368 . S
C1017 H1041 0.949 . S
H1018 C1022 0.949 . S
C1019 C1020 1.349 . S
C1019 C1021 1.327 . S
C1019 H1042 0.950 . S
C1020 C1019 1.349 . S
C1020 C1032 1.349 . S
C1021 C1019 1.327 . S
C1021 C1037 1.429 . S
C1021 H1043 0.950 . S
C1022 H1018 0.949 . S
C1022 C1030 1.574 . S
C1022 C1038 1.368 . S
H1023 C1031 0.950 . S
H1024 C1029 0.950 . S
H1025 C1030 0.949 . S
H1026 C1032 0.950 . S
H1027 C1033 0.950 . S
H1028 C1034 0.949 . S
C1029 H1024 0.950 . S
C1029 C1031 1.327 . S
C1029 C1035 1.429 . S
C1030 C1022 1.574 . S
C1030 H1025 0.949 . S
C1030 C1036 1.368 . S
C1031 C1015 1.349 . S
C1031 H1023 0.950 . S
C1031 C1029 1.327 . S
C1032 C1020 1.349 . S
C1032 H1026 0.950 . S
C1032 C1033 1.327 . S
C1033 H1027 0.950 . S
C1033 C1032 1.327 . S
C1033 C1037 1.429 . S
C1034 C1017 1.574 . S
C1034 H1028 0.949 . S
C1034 C1038 1.368 . S
C1035 C1016 1.429 . S
C1035 C1029 1.429 . S
C1035 C1036 1.523 . S
C1036 C1017 1.368 . S
C1036 C1030 1.368 . S
C1036 C1035 1.523 . S
C1037 C1021 1.429 . S
C1037 C1033 1.429 . S
C1037 C1038 1.523 . S
C1038 C1022 1.368 . S
C1038 C1034 1.368 . S
C1038 C1037 1.523 . S
H1039 C1014 0.950 . S
H1040 C1016 0.950 . S
H1041 C1017 0.949 . S
H1042 C1019 0.950 . S
H1043 C1021 0.950 . S
C1044 C1045 1.349 . S
C1044 C1046 1.327 . S
C1044 H1069 0.950 . S
C1045 C1044 1.349 . S
C1045 C1061 1.349 . S
C1046 C1044 1.327 . S
C1046 C1065 1.429 . S
C1046 H1070 0.950 . S
C1047 C1064 1.574 . S
C1047 C1066 1.368 . S
C1047 H1071 0.949 . S
H1048 C1052 0.949 . S
C1049 C1050 1.349 . S
C1049 C1051 1.327 . S
C1049 H1072 0.950 . S
C1050 C1049 1.349 . S
C1050 C1062 1.349 . S
C1051 C1049 1.327 . S
C1051 C1067 1.429 . S
C1051 H1073 0.950 . S
C1052 H1048 0.949 . S
C1052 C1060 1.574 . S
C1052 C1068 1.368 . S
H1053 C1061 0.950 . S
H1054 C1059 0.950 . S
H1055 C1060 0.949 . S
H1056 C1062 0.950 . S
H1057 C1063 0.950 . S
H1058 C1064 0.949 . S
C1059 H1054 0.950 . S
C1059 C1061 1.327 . S
C1059 C1065 1.429 . S
C1060 C1052 1.574 . S
C1060 H1055 0.949 . S
C1060 C1066 1.368 . S
C1061 C1045 1.349 . S
C1061 H1053 0.950 . S
C1061 C1059 1.327 . S
C1062 C1050 1.349 . S
C1062 H1056 0.950 . S
C1062 C1063 1.327 . S
C1063 H1057 0.950 . S
C1063 C1062 1.327 . S
C1063 C1067 1.429 . S
C1064 C1047 1.574 . S
C1064 H1058 0.949 . S
C1064 C1068 1.368 . S
C1065 C1046 1.429 . S
C1065 C1059 1.429 . S
C1065 C1066 1.523 . S
C1066 C1047 1.368 . S
C1066 C1060 1.368 . S
C1066 C1065 1.523 . S
C1067 C1051 1.429 . S
C1067 C1063 1.429 . S
C1067 C1068 1.523 . S
C1068 C1052 1.368 . S
C1068 C1064 1.368 . S
C1068 C1067 1.523 . S
H1069 C1044 0.950 . S
H1070 C1046 0.950 . S
H1071 C1047 0.949 . S
H1072 C1049 0.950 . S
H1073 C1051 0.950 . S
C1074 C1075 1.349 . S
C1074 C1076 1.327 . S
C1074 H1099 0.950 . S
C1075 C1074 1.349 . S
C1075 C1091 1.349 . S
C1076 C1074 1.327 . S
C1076 C1095 1.429 . S
C1076 H1100 0.950 . S
C1077 C1094 1.574 . S
C1077 C1096 1.368 . S
C1077 H1101 0.949 . S
H1078 C1082 0.949 . S
C1079 C1080 1.349 . S
C1079 C1081 1.327 . S
C1079 H1102 0.950 . S
C1080 C1079 1.349 . S
C1080 C1092 1.349 . S
C1081 C1079 1.327 . S
C1081 C1097 1.429 . S
C1081 H1103 0.950 . S
C1082 H1078 0.949 . S
C1082 C1090 1.574 . S
C1082 C1098 1.368 . S
H1083 C1091 0.950 . S
H1084 C1089 0.950 . S
H1085 C1090 0.949 . S
H1086 C1092 0.950 . S
H1087 C1093 0.950 . S
H1088 C1094 0.949 . S
C1089 H1084 0.950 . S
C1089 C1091 1.327 . S
C1089 C1095 1.429 . S
C1090 C1082 1.574 . S
C1090 H1085 0.949 . S
C1090 C1096 1.368 . S
C1091 C1075 1.349 . S
C1091 H1083 0.950 . S
C1091 C1089 1.327 . S
C1092 C1080 1.349 . S
C1092 H1086 0.950 . S
C1092 C1093 1.327 . S
C1093 H1087 0.950 . S
C1093 C1092 1.327 . S
C1093 C1097 1.429 . S
C1094 C1077 1.574 . S
C1094 H1088 0.949 . S
C1094 C1098 1.368 . S
C1095 C1076 1.429 . S
C1095 C1089 1.429 . S
C1095 C1096 1.523 . S
C1096 C1077 1.368 . S
C1096 C1090 1.368 . S
C1096 C1095 1.523 . S
C1097 C1081 1.429 . S
C1097 C1093 1.429 . S
C1097 C1098 1.523 . S
C1098 C1082 1.368 . S
C1098 C1094 1.368 . S
C1098 C1097 1.523 . S
H1099 C1074 0.950 . S
H1100 C1076 0.950 . S
H1101 C1077 0.949 . S
H1102 C1079 0.950 . S
H1103 C1081 0.950 . S
C1104 C1105 1.349 . S
C1104 C1106 1.327 . S
C1104 H1129 0.950 . S
C1105 C1104 1.349 . S
C1105 C1121 1.349 . S
C1106 C1104 1.327 . S
C1106 C1125 1.429 . S
C1106 H1130 0.950 . S
C1107 C1124 1.574 . S
C1107 C1126 1.368 . S
C1107 H1131 0.949 . S
H1108 C1112 0.949 . S
C1109 C1110 1.349 . S
C1109 C1111 1.327 . S
C1109 H1132 0.950 . S
C1110 C1109 1.349 . S
C1110 C1122 1.349 . S
C1111 C1109 1.327 . S
C1111 C1127 1.429 . S
C1111 H1133 0.950 . S
C1112 H1108 0.949 . S
C1112 C1120 1.574 . S
C1112 C1128 1.368 . S
H1113 C1121 0.950 . S
H1114 C1119 0.950 . S
H1115 C1120 0.949 . S
H1116 C1122 0.950 . S
H1117 C1123 0.950 . S
H1118 C1124 0.949 . S
C1119 H1114 0.950 . S
C1119 C1121 1.327 . S
C1119 C1125 1.429 . S
C1120 C1112 1.574 . S
C1120 H1115 0.949 . S
C1120 C1126 1.368 . S
C1121 C1105 1.349 . S
C1121 H1113 0.950 . S
C1121 C1119 1.327 . S
C1122 C1110 1.349 . S
C1122 H1116 0.950 . S
C1122 C1123 1.327 . S
C1123 H1117 0.950 . S
C1123 C1122 1.327 . S
C1123 C1127 1.429 . S
C1124 C1107 1.574 . S
C1124 H1118 0.949 . S
C1124 C1128 1.368 . S
C1125 C1106 1.429 . S
C1125 C1119 1.429 . S
C1125 C1126 1.523 . S
C1126 C1107 1.368 . S
C1126 C1120 1.368 . S
C1126 C1125 1.523 . S
C1127 C1111 1.429 . S
C1127 C1123 1.429 . S
C1127 C1128 1.523 . S
C1128 C1112 1.368 . S
C1128 C1124 1.368 . S
C1128 C1127 1.523 . S
H1129 C1104 0.950 . S
H1130 C1106 0.950 . S
H1131 C1107 0.949 . S
H1132 C1109 0.950 . S
H1133 C1111 0.950 . S
C1134 C1135 1.349 . S
C1134 C1136 1.327 . S
C1134 H1159 0.950 . S
C1135 C1134 1.349 . S
C1135 C1151 1.349 . S
C1136 C1134 1.327 . S
C1136 C1155 1.429 . S
C1136 H1160 0.950 . S
C1137 C1154 1.574 . S
C1137 C1156 1.368 . S
C1137 H1161 0.949 . S
H1138 C1142 0.949 . S
C1139 C1140 1.349 . S
C1139 C1141 1.327 . S
C1139 H1162 0.950 . S
C1140 C1139 1.349 . S
C1140 C1152 1.349 . S
C1141 C1139 1.327 . S
C1141 C1157 1.429 . S
C1141 H1163 0.950 . S
C1142 H1138 0.949 . S
C1142 C1150 1.574 . S
C1142 C1158 1.368 . S
H1143 C1151 0.950 . S
H1144 C1149 0.950 . S
H1145 C1150 0.949 . S
H1146 C1152 0.950 . S
H1147 C1153 0.950 . S
H1148 C1154 0.949 . S
C1149 H1144 0.950 . S
C1149 C1151 1.327 . S
C1149 C1155 1.429 . S
C1150 C1142 1.574 . S
C1150 H1145 0.949 . S
C1150 C1156 1.368 . S
C1151 C1135 1.349 . S
C1151 H1143 0.950 . S
C1151 C1149 1.327 . S
C1152 C1140 1.349 . S
C1152 H1146 0.950 . S
C1152 C1153 1.327 . S
C1153 H1147 0.950 . S
C1153 C1152 1.327 . S
C1153 C1157 1.429 . S
C1154 C1137 1.574 . S
C1154 H1148 0.949 . S
C1154 C1158 1.368 . S
C1155 C1136 1.429 . S
C1155 C1149 1.429 . S
C1155 C1156 1.523 . S
C1156 C1137 1.368 . S
C1156 C1150 1.368 . S
C1156 C1155 1.523 . S
C1157 C1141 1.429 . S
C1157 C1153 1.429 . S
C1157 C1158 1.523 . S
C1158 C1142 1.368 . S
C1158 C1154 1.368 . S
C1158 C1157 1.523 . S
H1159 C1134 0.950 . S
H1160 C1136 0.950 . S
H1161 C1137 0.949 . S
H1162 C1139 0.950 . S
H1163 C1141 0.950 . S
C1164 C1165 1.349 . S
C1164 C1166 1.327 . S
C1164 H1189 0.950 . S
C1165 C1164 1.349 . S
C1165 C1181 1.349 . S
C1166 C1164 1.327 . S
C1166 C1185 1.429 . S
C1166 H1190 0.950 . S
C1167 C1184 1.574 . S
C1167 C1186 1.368 . S
C1167 H1191 0.949 . S
H1168 C1172 0.949 . S
C1169 C1170 1.349 . S
C1169 C1171 1.327 . S
C1169 H1192 0.950 . S
C1170 C1169 1.349 . S
C1170 C1182 1.349 . S
C1171 C1169 1.327 . S
C1171 C1187 1.429 . S
C1171 H1193 0.950 . S
C1172 H1168 0.949 . S
C1172 C1180 1.574 . S
C1172 C1188 1.368 . S
H1173 C1181 0.950 . S
H1174 C1179 0.950 . S
H1175 C1180 0.949 . S
H1176 C1182 0.950 . S
H1177 C1183 0.950 . S
H1178 C1184 0.949 . S
C1179 H1174 0.950 . S
C1179 C1181 1.327 . S
C1179 C1185 1.429 . S
C1180 C1172 1.574 . S
C1180 H1175 0.949 . S
C1180 C1186 1.368 . S
C1181 C1165 1.349 . S
C1181 H1173 0.950 . S
C1181 C1179 1.327 . S
C1182 C1170 1.349 . S
C1182 H1176 0.950 . S
C1182 C1183 1.327 . S
C1183 H1177 0.950 . S
C1183 C1182 1.327 . S
C1183 C1187 1.429 . S
C1184 C1167 1.574 . S
C1184 H1178 0.949 . S
C1184 C1188 1.368 . S
C1185 C1166 1.429 . S
C1185 C1179 1.429 . S
C1185 C1186 1.523 . S
C1186 C1167 1.368 . S
C1186 C1180 1.368 . S
C1186 C1185 1.523 . S
C1187 C1171 1.429 . S
C1187 C1183 1.429 . S
C1187 C1188 1.523 . S
C1188 C1172 1.368 . S
C1188 C1184 1.368 . S
C1188 C1187 1.523 . S
H1189 C1164 0.950 . S
H1190 C1166 0.950 . S
H1191 C1167 0.949 . S
H1192 C1169 0.950 . S
H1193 C1171 0.950 . S
C1194 C1195 1.349 . S
C1194 C1196 1.327 . S
C1194 H1219 0.950 . S
C1195 C1194 1.349 . S
C1195 C1211 1.349 . S
C1196 C1194 1.327 . S
C1196 C1215 1.429 . S
C1196 H1220 0.950 . S
C1197 C1214 1.574 . S
C1197 C1216 1.368 . S
C1197 H1221 0.949 . S
H1198 C1202 0.949 . S
C1199 C1200 1.349 . S
C1199 C1201 1.327 . S
C1199 H1222 0.950 . S
C1200 C1199 1.349 . S
C1200 C1212 1.349 . S
C1201 C1199 1.327 . S
C1201 C1217 1.429 . S
C1201 H1223 0.950 . S
C1202 H1198 0.949 . S
C1202 C1210 1.574 . S
C1202 C1218 1.368 . S
H1203 C1211 0.950 . S
H1204 C1209 0.950 . S
H1205 C1210 0.949 . S
H1206 C1212 0.950 . S
H1207 C1213 0.950 . S
H1208 C1214 0.949 . S
C1209 H1204 0.950 . S
C1209 C1211 1.327 . S
C1209 C1215 1.429 . S
C1210 C1202 1.574 . S
C1210 H1205 0.949 . S
C1210 C1216 1.368 . S
C1211 C1195 1.349 . S
C1211 H1203 0.950 . S
C1211 C1209 1.327 . S
C1212 C1200 1.349 . S
C1212 H1206 0.950 . S
C1212 C1213 1.327 . S
C1213 H1207 0.950 . S
C1213 C1212 1.327 . S
C1213 C1217 1.429 . S
C1214 C1197 1.574 . S
C1214 H1208 0.949 . S
C1214 C1218 1.368 . S
C1215 C1196 1.429 . S
C1215 C1209 1.429 . S
C1215 C1216 1.523 . S
C1216 C1197 1.368 . S
C1216 C1210 1.368 . S
C1216 C1215 1.523 . S
C1217 C1201 1.429 . S
C1217 C1213 1.429 . S
C1217 C1218 1.523 . S
C1218 C1202 1.368 . S
C1218 C1214 1.368 . S
C1218 C1217 1.523 . S
H1219 C1194 0.950 . S
H1220 C1196 0.950 . S
H1221 C1197 0.949 . S
H1222 C1199 0.950 . S
H1223 C1201 0.950 . S
C1224 C1225 1.349 . S
C1224 C1226 1.327 . S
C1224 H1249 0.950 . S
C1225 C1224 1.349 . S
C1225 C1241 1.349 . S
C1226 C1224 1.327 . S
C1226 C1245 1.429 . S
C1226 H1250 0.950 . S
C1227 C1244 1.574 . S
C1227 C1246 1.368 . S
C1227 H1251 0.949 . S
H1228 C1232 0.949 . S
C1229 C1230 1.349 . S
C1229 C1231 1.327 . S
C1229 H1252 0.950 . S
C1230 C1229 1.349 . S
C1230 C1242 1.349 . S
C1231 C1229 1.327 . S
C1231 C1247 1.429 . S
C1231 H1253 0.950 . S
C1232 H1228 0.949 . S
C1232 C1240 1.574 . S
C1232 C1248 1.368 . S
H1233 C1241 0.950 . S
H1234 C1239 0.950 . S
H1235 C1240 0.949 . S
H1236 C1242 0.950 . S
H1237 C1243 0.950 . S
H1238 C1244 0.949 . S
C1239 H1234 0.950 . S
C1239 C1241 1.327 . S
C1239 C1245 1.429 . S
C1240 C1232 1.574 . S
C1240 H1235 0.949 . S
C1240 C1246 1.368 . S
C1241 C1225 1.349 . S
C1241 H1233 0.950 . S
C1241 C1239 1.327 . S
C1242 C1230 1.349 . S
C1242 H1236 0.950 . S
C1242 C1243 1.327 . S
C1243 H1237 0.950 . S
C1243 C1242 1.327 . S
C1243 C1247 1.429 . S
C1244 C1227 1.574 . S
C1244 H1238 0.949 . S
C1244 C1248 1.368 . S
C1245 C1226 1.429 . S
C1245 C1239 1.429 . S
C1245 C1246 1.523 . S
C1246 C1227 1.368 . S
C1246 C1240 1.368 . S
C1246 C1245 1.523 . S
C1247 C1231 1.429 . S
C1247 C1243 1.429 . S
C1247 C1248 1.523 . S
C1248 C1232 1.368 . S
C1248 C1244 1.368 . S
C1248 C1247 1.523 . S
H1249 C1224 0.950 . S
H1250 C1226 0.950 . S
H1251 C1227 0.949 . S
H1252 C1229 0.950 . S
H1253 C1231 0.950 . S
C1254 C1255 1.349 . S
C1254 C1256 1.327 . S
C1254 H1279 0.950 . S
C1255 C1254 1.349 . S
C1255 C1271 1.349 . S
C1256 C1254 1.327 . S
C1256 C1275 1.429 . S
C1256 H1280 0.950 . S
C1257 C1274 1.574 . S
C1257 C1276 1.368 . S
C1257 H1281 0.949 . S
H1258 C1262 0.949 . S
C1259 C1260 1.349 . S
C1259 C1261 1.327 . S
C1259 H1282 0.950 . S
C1260 C1259 1.349 . S
C1260 C1272 1.349 . S
C1261 C1259 1.327 . S
C1261 C1277 1.429 . S
C1261 H1283 0.950 . S
C1262 H1258 0.949 . S
C1262 C1270 1.574 . S
C1262 C1278 1.368 . S
H1263 C1271 0.950 . S
H1264 C1269 0.950 . S
H1265 C1270 0.949 . S
H1266 C1272 0.950 . S
H1267 C1273 0.950 . S
H1268 C1274 0.949 . S
C1269 H1264 0.950 . S
C1269 C1271 1.327 . S
C1269 C1275 1.429 . S
C1270 C1262 1.574 . S
C1270 H1265 0.949 . S
C1270 C1276 1.368 . S
C1271 C1255 1.349 . S
C1271 H1263 0.950 . S
C1271 C1269 1.327 . S
C1272 C1260 1.349 . S
C1272 H1266 0.950 . S
C1272 C1273 1.327 . S
C1273 H1267 0.950 . S
C1273 C1272 1.327 . S
C1273 C1277 1.429 . S
C1274 C1257 1.574 . S
C1274 H1268 0.949 . S
C1274 C1278 1.368 . S
C1275 C1256 1.429 . S
C1275 C1269 1.429 . S
C1275 C1276 1.523 . S
C1276 C1257 1.368 . S
C1276 C1270 1.368 . S
C1276 C1275 1.523 . S
C1277 C1261 1.429 . S
C1277 C1273 1.429 . S
C1277 C1278 1.523 . S
C1278 C1262 1.368 . S
C1278 C1274 1.368 . S
C1278 C1277 1.523 . S
H1279 C1254 0.950 . S
H1280 C1256 0.950 . S
H1281 C1257 0.949 . S
H1282 C1259 0.950 . S
H1283 C1261 0.950 . S
C1284 C1285 1.349 . S
C1284 C1286 1.327 . S
C1284 H1309 0.950 . S
C1285 C1284 1.349 . S
C1285 C1301 1.349 . S
C1286 C1284 1.327 . S
C1286 C1305 1.429 . S
C1286 H1310 0.950 . S
C1287 C1304 1.574 . S
C1287 C1306 1.368 . S
C1287 H1311 0.949 . S
H1288 C1292 0.949 . S
C1289 C1290 1.349 . S
C1289 C1291 1.327 . S
C1289 H1312 0.950 . S
C1290 C1289 1.349 . S
C1290 C1302 1.349 . S
C1291 C1289 1.327 . S
C1291 C1307 1.429 . S
C1291 H1313 0.950 . S
C1292 H1288 0.949 . S
C1292 C1300 1.574 . S
C1292 C1308 1.368 . S
H1293 C1301 0.950 . S
H1294 C1299 0.950 . S
H1295 C1300 0.949 . S
H1296 C1302 0.950 . S
H1297 C1303 0.950 . S
H1298 C1304 0.949 . S
C1299 H1294 0.950 . S
C1299 C1301 1.327 . S
C1299 C1305 1.429 . S
C1300 C1292 1.574 . S
C1300 H1295 0.949 . S
C1300 C1306 1.368 . S
C1301 C1285 1.349 . S
C1301 H1293 0.950 . S
C1301 C1299 1.327 . S
C1302 C1290 1.349 . S
C1302 H1296 0.950 . S
C1302 C1303 1.327 . S
C1303 H1297 0.950 . S
C1303 C1302 1.327 . S
C1303 C1307 1.429 . S
C1304 C1287 1.574 . S
C1304 H1298 0.949 . S
C1304 C1308 1.368 . S
C1305 C1286 1.429 . S
C1305 C1299 1.429 . S
C1305 C1306 1.523 . S
C1306 C1287 1.368 . S
C1306 C1300 1.368 . S
C1306 C1305 1.523 . S
C1307 C1291 1.429 . S
C1307 C1303 1.429 . S
C1307 C1308 1.523 . S
C1308 C1292 1.368 . S
C1308 C1304 1.368 . S
C1308 C1307 1.523 . S
H1309 C1284 0.950 . S
H1310 C1286 0.950 . S
H1311 C1287 0.949 . S
H1312 C1289 0.950 . S
H1313 C1291 0.950 . S
C1314 C1315 1.349 . S
C1314 C1316 1.327 . S
C1314 H1339 0.950 . S
C1315 C1314 1.349 . S
C1315 C1331 1.349 . S
C1316 C1314 1.327 . S
C1316 C1335 1.429 . S
C1316 H1340 0.950 . S
C1317 C1334 1.574 . S
C1317 C1336 1.368 . S
C1317 H1341 0.949 . S
H1318 C1322 0.949 . S
C1319 C1320 1.349 . S
C1319 C1321 1.327 . S
C1319 H1342 0.950 . S
C1320 C1319 1.349 . S
C1320 C1332 1.349 . S
C1321 C1319 1.327 . S
C1321 C1337 1.429 . S
C1321 H1343 0.950 . S
C1322 H1318 0.949 . S
C1322 C1330 1.574 . S
C1322 C1338 1.368 . S
H1323 C1331 0.950 . S
H1324 C1329 0.950 . S
H1325 C1330 0.949 . S
H1326 C1332 0.950 . S
H1327 C1333 0.950 . S
H1328 C1334 0.949 . S
C1329 H1324 0.950 . S
C1329 C1331 1.327 . S
C1329 C1335 1.429 . S
C1330 C1322 1.574 . S
C1330 H1325 0.949 . S
C1330 C1336 1.368 . S
C1331 C1315 1.349 . S
C1331 H1323 0.950 . S
C1331 C1329 1.327 . S
C1332 C1320 1.349 . S
C1332 H1326 0.950 . S
C1332 C1333 1.327 . S
C1333 H1327 0.950 . S
C1333 C1332 1.327 . S
C1333 C1337 1.429 . S
C1334 C1317 1.574 . S
C1334 H1328 0.949 . S
C1334 C1338 1.368 . S
C1335 C1316 1.429 . S
C1335 C1329 1.429 . S
C1335 C1336 1.523 . S
C1336 C1317 1.368 . S
C1336 C1330 1.368 . S
C1336 C1335 1.523 . S
C1337 C1321 1.429 . S
C1337 C1333 1.429 . S
C1337 C1338 1.523 . S
C1338 C1322 1.368 . S
C1338 C1334 1.368 . S
C1338 C1337 1.523 . S
H1339 C1314 0.950 . S
H1340 C1316 0.950 . S
H1341 C1317 0.949 . S
H1342 C1319 0.950 . S
H1343 C1321 0.950 . S
C265 C8 1.073 . S
C270 C184 1.073 . S
C295 C216 1.073 . S
C300 C30 1.073 . S
C325 C62 1.073 . S
C330 C228 1.073 . S
C355 C260 1.073 . S
C360 C76 1.073 . S
C385 C98 1.073 . S
C390 C150 1.073 . S
C415 C172 1.073 . S
C420 C120 1.073 . S
C445 C249 1.204 . S
C450 C81 1.204 . S
C475 C103 1.204 . S
C480 C139 1.204 . S
C505 C161 1.204 . S
C510 C125 1.204 . S
C535 C197 1.204 . S
C540 C21 1.204 . S
C565 C205 1.204 . S
C570 C43 1.204 . S
C595 C51 1.204 . S
C600 C241 1.204 . S
C625 C162 1.146 . S
C630 C10 1.146 . S
C655 C186 1.146 . S
C660 C32 1.146 . S
C685 C206 1.146 . S
C690 C52 1.146 . S
C715 C84 1.146 . S
C720 C230 1.146 . S
C745 C106 1.145 . S
C750 C250 1.145 . S
C775 C140 1.146 . S
C780 C128 1.146 . S
C805 C235 1.253 . S
C810 C73 1.253 . S
C835 C95 1.253 . S
C840 C263 1.253 . S
C865 C153 1.254 . S
C870 C117 1.254 . S
C895 C175 1.253 . S
C900 C15 1.254 . S
C925 C37 1.253 . S
C930 C191 1.253 . S
C955 C65 1.253 . S
C960 C219 1.253 . S
C985 C18 1.520 . S
C990 C238 1.520 . S
C1015 C40 1.520 . S
C1020 C252 1.520 . S
C1045 C142 1.520 . S
C1050 C54 1.520 . S
C1075 C164 1.520 . S
C1080 C74 1.520 . S
C1105 C96 1.520 . S
C1110 C194 1.520 . S
C1135 C208 1.520 . S
C1140 C118 1.520 . S
C1165 C87 1.650 . S
C1170 C169 1.650 . S
C1195 C109 1.650 . S
C1200 C183 1.650 . S
C1225 C213 1.650 . S
C1230 C131 1.650 . S
C1255 C227 1.650 . S
C1260 C7 1.650 . S
C1285 C257 1.650 . S
C1290 C29 1.650 . S
C1315 C147 1.650 . S
C1320 C59 1.650 . S
