# Generated by pormake.
# Topology uov, (4)-cn, num edge types: 1
# Building blocks:
#     Node 0, Type 0, BuildingBlock: QUQFOY_clean_sbu_1, # of connection points: 4
#     Node 1, Type 0, BuildingBlock: QUQFOY_clean_sbu_1, # of connection points: 4
#     Node 2, Type 0, BuildingBlock: QUQFOY_clean_sbu_1, # of connection points: 4
#     Node 3, Type 0, BuildingBlock: QUQFOY_clean_sbu_1, # of connection points: 4
#     Node 4, Type 0, BuildingBlock: QUQFOY_clean_sbu_1, # of connection points: 4
#     Node 5, Type 0, BuildingBlock: QUQFOY_clean_sbu_1, # of connection points: 4
#     Node 6, Type 0, BuildingBlock: QUQFOY_clean_sbu_1, # of connection points: 4
#     Node 7, Type 0, BuildingBlock: QUQFOY_clean_sbu_1, # of connection points: 4
#     Edge 8, Type (0, 0), BuildingBlock: TEMPAE_clean_linker_10, # of connection points: 2
#     Edge 9, Type (0, 0), BuildingBlock: TEMPAE_clean_linker_10, # of connection points: 2
#     Edge 10, Type (0, 0), BuildingBlock: TEMPAE_clean_linker_10, # of connection points: 2
#     Edge 11, Type (0, 0), BuildingBlock: TEMPAE_clean_linker_10, # of connection points: 2
#     Edge 12, Type (0, 0), BuildingBlock: TEMPAE_clean_linker_10, # of connection points: 2
#     Edge 13, Type (0, 0), BuildingBlock: TEMPAE_clean_linker_10, # of connection points: 2
#     Edge 14, Type (0, 0), BuildingBlock: TEMPAE_clean_linker_10, # of connection points: 2
#     Edge 15, Type (0, 0), BuildingBlock: TEMPAE_clean_linker_10, # of connection points: 2
#     Edge 16, Type (0, 0), BuildingBlock: TEMPAE_clean_linker_10, # of connection points: 2
#     Edge 17, Type (0, 0), BuildingBlock: TEMPAE_clean_linker_10, # of connection points: 2
#     Edge 18, Type (0, 0), BuildingBlock: TEMPAE_clean_linker_10, # of connection points: 2
#     Edge 19, Type (0, 0), BuildingBlock: TEMPAE_clean_linker_10, # of connection points: 2
#     Edge 20, Type (0, 0), BuildingBlock: TEMPAE_clean_linker_10, # of connection points: 2
#     Edge 21, Type (0, 0), BuildingBlock: TEMPAE_clean_linker_10, # of connection points: 2
#     Edge 22, Type (0, 0), BuildingBlock: TEMPAE_clean_linker_10, # of connection points: 2
#     Edge 23, Type (0, 0), BuildingBlock: TEMPAE_clean_linker_10, # of connection points: 2
# Relax obj value: 0.031
# Max RMSD: 0.047
# Mean RMSD: 0.047
data_MOF--net-uov--node1-QUQFOY_clean_sbu_1--edge1-TEMPAE_clean_linker_10
_symmetry_space_group_name_H-M    P1
_symmetry_Int_Tables_number       1
_symmetry_cell_setting            triclinic
loop_
_symmetry_equiv_pos_as_xyz
'x, y, z'
_cell_length_a     32.245644
_cell_length_b     32.250783
_cell_length_c     45.718119
_cell_angle_alpha  89.993754
_cell_angle_beta   90.002174
_cell_angle_gamma 90.005514
loop_
_atom_site_label
_atom_site_type_symbol
_atom_site_fract_x
_atom_site_fract_y
_atom_site_fract_z
_atom_type_partial_charge
O0 O 0.98079 0.26364 0.57221 0.0
Cd1 Cd 0.03781 0.28563 0.58539 0.0
Cd2 Cd 0.03776 0.21151 0.61502 0.0
O3 O 0.9766 0.20959 0.60167 0.0
O4 O 0.03751 0.34507 0.57403 0.0
O5 O 0.03863 0.32419 0.62017 0.0
C6 C 0.03706 0.35416 0.60146 0.0
C7 C 0.05774 0.18478 0.66056 0.0
C8 C 0.9606 0.23295 0.58229 0.0
C9 C 0.09883 0.22345 0.56509 0.0
O10 O 0.08089 0.1995 0.58312 0.0
O11 O 0.08871 0.26147 0.56373 0.0
O12 O 0.0445 0.16119 0.63987 0.0
O13 O 0.05755 0.22431 0.65603 0.0
O14 O 0.26191 0.02016 0.43199 0.0
Cd15 Cd 0.28335 0.96279 0.41921 0.0
Cd16 Cd 0.21013 0.96312 0.38912 0.0
O17 O 0.20842 0.02447 0.40204 0.0
O18 O 0.34292 0.9626 0.43024 0.0
O19 O 0.32145 0.96118 0.38422 0.0
C20 C 0.35167 0.96271 0.40275 0.0
C21 C 0.18497 0.94281 0.34322 0.0
C22 C 0.23159 0.0405 0.42152 0.0
C23 C 0.22036 0.90265 0.43952 0.0
O24 O 0.19689 0.92052 0.42114 0.0
O25 O 0.25846 0.91244 0.44112 0.0
O26 O 0.16071 0.95645 0.36339 0.0
O27 O 0.22432 0.94272 0.34849 0.0
O28 O 0.01479 0.73992 0.57196 0.0
Cd29 Cd 0.95753 0.71764 0.58432 0.0
Cd30 Cd 0.95633 0.79156 0.61414 0.0
O31 O 0.0177 0.79418 0.60131 0.0
O32 O 0.9584 0.65819 0.57303 0.0
O33 O 0.95582 0.67915 0.61912 0.0
C34 C 0.95805 0.64915 0.60047 0.0
C35 C 0.93549 0.81778 0.65963 0.0
C36 C 0.03442 0.77087 0.58221 0.0
C37 C 0.89654 0.77949 0.56343 0.0
O38 O 0.91364 0.80338 0.58191 0.0
O39 O 0.90717 0.74163 0.56193 0.0
O40 O 0.94858 0.84165 0.63906 0.0
O41 O 0.93625 0.77828 0.65501 0.0
O42 O 0.73752 0.98384 0.42892 0.0
Cd43 Cd 0.71573 0.04122 0.41642 0.0
Cd44 Cd 0.79 0.04154 0.38679 0.0
O45 O 0.79183 0.98018 0.39965 0.0
O46 O 0.65642 0.04085 0.42814 0.0
O47 O 0.6767 0.04284 0.38189 0.0
C48 C 0.64697 0.04095 0.40078 0.0
C49 C 0.81645 0.06208 0.34129 0.0
C50 C 0.76825 0.96381 0.41875 0.0
C51 C 0.77822 0.10172 0.43725 0.0
O52 O 0.80213 0.08416 0.419 0.0
O53 O 0.7402 0.09158 0.43855 0.0
O54 O 0.84018 0.04864 0.36184 0.0
O55 O 0.77694 0.06184 0.34594 0.0
O56 O 0.01602 0.26509 0.06911 0.0
Cd57 Cd 0.95921 0.28628 0.08335 0.0
Cd58 Cd 0.96156 0.21345 0.11338 0.0
O59 O 0.0226 0.21262 0.09971 0.0
O60 O 0.95835 0.34593 0.07264 0.0
O61 O 0.95927 0.32398 0.11855 0.0
C62 C 0.95988 0.3544 0.10016 0.0
C63 C 0.94256 0.1879 0.15944 0.0
C64 C 0.03737 0.23543 0.07953 0.0
C65 C 0.89902 0.22294 0.0642 0.0
O66 O 0.91835 0.19958 0.0819 0.0
O67 O 0.90783 0.26128 0.06275 0.0
O68 O 0.95623 0.1639 0.13912 0.0
O69 O 0.9418 0.22726 0.15422 0.0
O70 O 0.26449 0.98411 0.93088 0.0
Cd71 Cd 0.2851 0.04127 0.91694 0.0
Cd72 Cd 0.21162 0.0385 0.88727 0.0
O73 O 0.21148 0.97739 0.90073 0.0
O74 O 0.34462 0.04243 0.92801 0.0
O75 O 0.32328 0.04173 0.88197 0.0
C76 C 0.35346 0.04111 0.90055 0.0
C77 C 0.18535 0.05767 0.84145 0.0
C78 C 0.23483 0.96262 0.92059 0.0
C79 C 0.22125 0.10074 0.93663 0.0
O80 O 0.19784 0.08137 0.91898 0.0
O81 O 0.25967 0.09222 0.93784 0.0
O82 O 0.1617 0.04367 0.86185 0.0
O83 O 0.22477 0.05866 0.84642 0.0
O84 O 0.98788 0.73807 0.07082 0.0
Cd85 Cd 0.0446 0.7163 0.08477 0.0
Cd86 Cd 0.04347 0.78991 0.11453 0.0
O87 O 0.9825 0.79152 0.1007 0.0
O88 O 0.04468 0.65678 0.07365 0.0
O89 O 0.04456 0.67805 0.11971 0.0
C90 C 0.04344 0.64792 0.10111 0.0
C91 C 0.06249 0.81611 0.16042 0.0
C92 C 0.96717 0.76839 0.08091 0.0
C93 C 0.10562 0.77878 0.0652 0.0
O94 O 0.08703 0.80253 0.08303 0.0
O95 O 0.09595 0.74065 0.06376 0.0
O96 O 0.04948 0.8399 0.13978 0.0
O97 O 0.06264 0.77664 0.15562 0.0
O98 O 0.73553 0.01648 0.93298 0.0
Cd99 Cd 0.71522 0.95918 0.91916 0.0
Cd100 Cd 0.78734 0.96217 0.88878 0.0
O101 O 0.7875 0.02341 0.902 0.0
O102 O 0.65552 0.95755 0.92971 0.0
O103 O 0.67775 0.9583 0.88386 0.0
C104 C 0.64721 0.95875 0.90216 0.0
C105 C 0.81177 0.94294 0.84248 0.0
C106 C 0.76472 0.03812 0.92221 0.0
C107 C 0.77969 0.90029 0.93847 0.0
O108 O 0.80254 0.91965 0.92044 0.0
O109 O 0.74124 0.90856 0.94008 0.0
O110 O 0.83617 0.95724 0.86234 0.0
O111 O 0.77259 0.94159 0.84831 0.0
C112 C 0.94627 0.5739 0.59297 0.0
C113 C 0.96378 0.60575 0.60967 0.0
C114 C 0.95749 0.53245 0.59763 0.0
C115 C 0.98808 0.52283 0.61882 0.0
C116 C 0.00417 0.55471 0.63688 0.0
C117 C 0.99136 0.5959 0.63231 0.0
C118 C 0.93856 0.4993 0.57848 0.0
C119 C 0.03732 0.54591 0.65933 0.0
C120 C 0.00272 0.40755 0.63261 0.0
C121 C 0.03115 0.39759 0.61052 0.0
C122 C 0.98981 0.44878 0.63685 0.0
C123 C 0.00665 0.48057 0.61906 0.0
C124 C 0.03806 0.47084 0.5985 0.0
C125 C 0.04937 0.42936 0.59413 0.0
C126 C 0.9558 0.45769 0.65862 0.0
C127 C 0.05778 0.50391 0.57968 0.0
H128 H 0.92478 0.58159 0.57555 0.0
H129 H 0.00522 0.62068 0.64502 0.0
H130 H 0.96202 0.48814 0.56257 0.0
H131 H 0.92876 0.47233 0.59188 0.0
H132 H 0.9113 0.51094 0.5661 0.0
H133 H 0.0416 0.57229 0.67466 0.0
H134 H 0.02977 0.51768 0.67211 0.0
H135 H 0.06719 0.54014 0.64798 0.0
H136 H 0.98831 0.38284 0.64507 0.0
H137 H 0.07152 0.42158 0.57714 0.0
H138 H 0.92639 0.46343 0.64668 0.0
H139 H 0.96285 0.48597 0.67149 0.0
H140 H 0.95089 0.43138 0.67392 0.0
H141 H 0.03499 0.515 0.56326 0.0
H142 H 0.08553 0.4922 0.56788 0.0
H143 H 0.06703 0.53093 0.59321 0.0
C144 C 0.59314 0.00714 0.36971 0.0
C145 C 0.60341 0.03522 0.39194 0.0
C146 C 0.55183 0.99433 0.36562 0.0
C147 C 0.52028 0.01092 0.38374 0.0
C148 C 0.53031 0.04198 0.40449 0.0
C149 C 0.57187 0.05319 0.40868 0.0
C150 C 0.5426 0.96068 0.34365 0.0
C151 C 0.4975 0.06144 0.42366 0.0
C152 C 0.40476 0.99624 0.3709 0.0
C153 C 0.39501 0.96835 0.39337 0.0
C154 C 0.44597 0.00897 0.36625 0.0
C155 C 0.47795 0.99248 0.38403 0.0
C156 C 0.46842 0.96158 0.40502 0.0
C157 C 0.42696 0.95045 0.40978 0.0
C158 C 0.45467 0.04245 0.34403 0.0
C159 C 0.50169 0.94223 0.42385 0.0
H160 H 0.61768 0.99291 0.35698 0.0
H161 H 0.5799 0.07505 0.4258 0.0
H162 H 0.5369 0.93111 0.3554 0.0
H163 H 0.5142 0.96799 0.33098 0.0
H164 H 0.56875 0.95594 0.32818 0.0
H165 H 0.50941 0.08896 0.43563 0.0
H166 H 0.47035 0.07099 0.41036 0.0
H167 H 0.48654 0.0384 0.43994 0.0
H168 H 0.37993 0.01041 0.35842 0.0
H169 H 0.41935 0.92871 0.42707 0.0
H170 H 0.48273 0.035 0.33103 0.0
H171 H 0.46072 0.0721 0.3556 0.0
H172 H 0.42814 0.04712 0.32888 0.0
H173 H 0.52851 0.93259 0.41025 0.0
H174 H 0.49007 0.9148 0.43605 0.0
H175 H 0.51307 0.96537 0.43991 0.0
C176 C 0.94873 0.4299 0.09329 0.0
C177 C 0.96619 0.39763 0.10961 0.0
C178 C 0.96064 0.47114 0.098 0.0
C179 C 0.99181 0.48012 0.11891 0.0
C180 C 0.00776 0.44787 0.13669 0.0
C181 C 0.99432 0.40689 0.13205 0.0
C182 C 0.94188 0.50473 0.07915 0.0
C183 C 0.04141 0.456 0.15889 0.0
C184 C 0.05439 0.5725 0.09377 0.0
C185 C 0.03696 0.60459 0.11028 0.0
C186 C 0.04239 0.53122 0.09821 0.0
C187 C 0.01115 0.52204 0.11903 0.0
C188 C 0.9952 0.5541 0.13697 0.0
C189 C 0.00874 0.59511 0.1326 0.0
C190 C 0.06115 0.49784 0.0792 0.0
C191 C 0.96146 0.54576 0.15906 0.0
H192 H 0.92678 0.4227 0.07604 0.0
H193 H 0.00813 0.38183 0.1445 0.0
H194 H 0.93278 0.53176 0.09272 0.0
H195 H 0.9652 0.51561 0.06304 0.0
H196 H 0.91419 0.49361 0.067 0.0
H197 H 0.04544 0.4295 0.17416 0.0
H198 H 0.07121 0.46123 0.14731 0.0
H199 H 0.0346 0.48434 0.17176 0.0
H200 H 0.0764 0.57988 0.0766 0.0
H201 H 0.99495 0.62005 0.14518 0.0
H202 H 0.03784 0.48714 0.06301 0.0
H203 H 0.07022 0.47066 0.09263 0.0
H204 H 0.08886 0.50907 0.06712 0.0
H205 H 0.93169 0.54071 0.14741 0.0
H206 H 0.95742 0.57208 0.17448 0.0
H207 H 0.96818 0.51726 0.17178 0.0
C208 C 0.42884 0.05248 0.90789 0.0
C209 C 0.39683 0.03489 0.89138 0.0
C210 C 0.47017 0.04056 0.90353 0.0
C211 C 0.47949 0.00928 0.88279 0.0
C212 C 0.44751 0.99319 0.86482 0.0
C213 C 0.40645 0.00663 0.86911 0.0
C214 C 0.50346 0.05947 0.92257 0.0
C215 C 0.45599 0.9594 0.8428 0.0
C216 C 0.59473 0.99271 0.87002 0.0
C217 C 0.604 0.96472 0.89254 0.0
C218 C 0.55373 0.00599 0.86526 0.0
C219 C 0.52145 0.99003 0.88301 0.0
C220 C 0.53044 0.95897 0.904 0.0
C221 C 0.57171 0.94721 0.90883 0.0
C222 C 0.54559 0.03954 0.84298 0.0
C223 C 0.49683 0.94018 0.92281 0.0
H224 H 0.42136 0.07451 0.92502 0.0
H225 H 0.38157 0.99271 0.85653 0.0
H226 H 0.51415 0.03625 0.93881 0.0
H227 H 0.53067 0.06855 0.90916 0.0
H228 H 0.49213 0.08719 0.93457 0.0
H229 H 0.42974 0.9553 0.82732 0.0
H230 H 0.48455 0.96611 0.83014 0.0
H231 H 0.461 0.92968 0.85451 0.0
H232 H 0.61981 0.00656 0.8576 0.0
H233 H 0.57892 0.92538 0.92614 0.0
H234 H 0.54029 0.06937 0.85449 0.0
H235 H 0.51729 0.03263 0.83009 0.0
H236 H 0.57212 0.04354 0.82773 0.0
H237 H 0.48583 0.96352 0.93887 0.0
H238 H 0.50797 0.91256 0.93503 0.0
H239 H 0.46987 0.93097 0.90921 0.0
C240 C 0.17872 0.09456 0.4332 0.0
C241 C 0.21964 0.0802 0.43544 0.0
C242 C 0.16386 0.12556 0.45199 0.0
C243 C 0.19079 0.14303 0.47315 0.0
C244 C 0.23328 0.13209 0.47315 0.0
C245 C 0.24716 0.10046 0.45447 0.0
C246 C 0.11831 0.13636 0.4512 0.0
C247 C 0.2633 0.15102 0.49466 0.0
C248 C 0.14325 0.22835 0.5199 0.0
C249 C 0.12819 0.20525 0.54368 0.0
C250 C 0.16582 0.20909 0.49732 0.0
C251 C 0.17285 0.16578 0.49845 0.0
C252 C 0.15967 0.14287 0.52317 0.0
C253 C 0.13786 0.16292 0.54551 0.0
C254 C 0.18032 0.23474 0.47168 0.0
C255 C 0.16656 0.09659 0.52538 0.0
H256 H 0.15731 0.07932 0.41842 0.0
H257 H 0.27907 0.09006 0.45595 0.0
H258 H 0.10267 0.12258 0.47053 0.0
H259 H 0.11386 0.17041 0.45231 0.0
H260 H 0.10288 0.1245 0.43115 0.0
H261 H 0.29602 0.14624 0.48782 0.0
H262 H 0.25754 0.18476 0.49715 0.0
H263 H 0.25897 0.13641 0.51641 0.0
H264 H 0.13614 0.26112 0.51836 0.0
H265 H 0.12683 0.14481 0.56391 0.0
H266 H 0.15942 0.2294 0.45278 0.0
H267 H 0.21206 0.22556 0.4649 0.0
H268 H 0.18016 0.26841 0.47679 0.0
H269 H 0.14985 0.08063 0.50738 0.0
H270 H 0.15556 0.08365 0.54652 0.0
H271 H 0.19999 0.08928 0.52299 0.0
C272 C 0.22397 0.85922 0.48524 0.0
C273 C 0.20154 0.87375 0.46098 0.0
C274 C 0.20409 0.83708 0.50777 0.0
C275 C 0.16084 0.82988 0.50607 0.0
C276 C 0.13862 0.84256 0.48091 0.0
C277 C 0.15927 0.864 0.45866 0.0
C278 C 0.229 0.82319 0.53394 0.0
C279 C 0.09243 0.83545 0.4781 0.0
C280 C 0.09509 0.7556 0.54984 0.0
C281 C 0.07415 0.78316 0.56846 0.0
C282 C 0.12693 0.76955 0.53136 0.0
C283 C 0.13744 0.81214 0.53116 0.0
C284 C 0.11918 0.83921 0.55189 0.0
C285 C 0.08795 0.82429 0.57048 0.0
C286 C 0.14663 0.73942 0.51027 0.0
C287 C 0.12951 0.88487 0.55244 0.0
H288 H 0.25668 0.86643 0.48718 0.0
H289 H 0.14168 0.87464 0.43989 0.0
H290 H 0.22258 0.8441 0.55266 0.0
H291 H 0.22006 0.79136 0.54065 0.0
H292 H 0.26286 0.82385 0.52948 0.0
H293 H 0.08009 0.846 0.45666 0.0
H294 H 0.08517 0.80205 0.4807 0.0
H295 H 0.07588 0.85243 0.49569 0.0
H296 H 0.08511 0.72355 0.54853 0.0
H297 H 0.07217 0.84575 0.58494 0.0
H298 H 0.18039 0.74537 0.5082 0.0
H299 H 0.13259 0.74345 0.4883 0.0
H300 H 0.14185 0.70675 0.51721 0.0
H301 H 0.16354 0.88966 0.5517 0.0
H302 H 0.11701 0.90049 0.57223 0.0
H303 H 0.11604 0.90007 0.53283 0.0
C304 C 0.75181 0.90303 0.4507 0.0
C305 C 0.78002 0.92402 0.4326 0.0
C306 C 0.76512 0.87117 0.4694 0.0
C307 C 0.80772 0.86077 0.47038 0.0
C308 C 0.8355 0.87906 0.45014 0.0
C309 C 0.82121 0.91025 0.43128 0.0
C310 C 0.73425 0.85135 0.48989 0.0
C311 C 0.88121 0.86886 0.45043 0.0
C312 C 0.85726 0.83983 0.54379 0.0
C313 C 0.86771 0.79771 0.54167 0.0
C314 C 0.83622 0.8601 0.52118 0.0
C315 C 0.82463 0.83763 0.49587 0.0
C316 C 0.83235 0.79446 0.4944 0.0
C317 C 0.85412 0.77498 0.51728 0.0
C318 C 0.82854 0.90621 0.52377 0.0
C319 C 0.81951 0.76925 0.46812 0.0
H320 H 0.71971 0.91299 0.45145 0.0
H321 H 0.84317 0.92609 0.41722 0.0
H322 H 0.74033 0.81764 0.49215 0.0
H323 H 0.73723 0.86551 0.5119 0.0
H324 H 0.70185 0.85588 0.48225 0.0
H325 H 0.89754 0.88146 0.43096 0.0
H326 H 0.89561 0.88232 0.47034 0.0
H327 H 0.88605 0.83485 0.45122 0.0
H328 H 0.86714 0.85763 0.56266 0.0
H329 H 0.86184 0.74237 0.5155 0.0
H330 H 0.79516 0.91312 0.52059 0.0
H331 H 0.84595 0.92287 0.50642 0.0
H332 H 0.83824 0.91877 0.54534 0.0
H333 H 0.78805 0.77823 0.4606 0.0
H334 H 0.81979 0.73547 0.47287 0.0
H335 H 0.84134 0.77524 0.44985 0.0
C336 C 0.77338 0.14533 0.48282 0.0
C337 C 0.79648 0.13067 0.45892 0.0
C338 C 0.79265 0.16752 0.50559 0.0
C339 C 0.83597 0.17461 0.50451 0.0
C340 C 0.85888 0.16181 0.47968 0.0
C341 C 0.83882 0.14035 0.45718 0.0
C342 C 0.76702 0.18159 0.53135 0.0
C343 C 0.90515 0.16877 0.47753 0.0
C344 C 0.90088 0.24858 0.54913 0.0
C345 C 0.92114 0.22091 0.56805 0.0
C346 C 0.86946 0.23479 0.53023 0.0
C347 C 0.8587 0.19227 0.52992 0.0
C348 C 0.87621 0.16512 0.55093 0.0
C349 C 0.90701 0.17988 0.56993 0.0
C350 C 0.85051 0.26501 0.50887 0.0
C351 C 0.8656 0.11952 0.55137 0.0
H352 H 0.74061 0.1382 0.48431 0.0
H353 H 0.85692 0.12962 0.43869 0.0
H354 H 0.77267 0.16062 0.55017 0.0
H355 H 0.77598 0.21335 0.53822 0.0
H356 H 0.73331 0.18118 0.52634 0.0
H357 H 0.91809 0.15812 0.4563 0.0
H358 H 0.91245 0.20216 0.48018 0.0
H359 H 0.92114 0.1518 0.49539 0.0
H360 H 0.91111 0.28056 0.54792 0.0
H361 H 0.92226 0.15835 0.58462 0.0
H362 H 0.81679 0.25921 0.5063 0.0
H363 H 0.86518 0.26095 0.4871 0.0
H364 H 0.85521 0.29766 0.51588 0.0
H365 H 0.83158 0.11493 0.55018 0.0
H366 H 0.87749 0.10385 0.57133 0.0
H367 H 0.87951 0.10423 0.53195 0.0
C368 C 0.74913 0.0961 0.95687 0.0
C369 C 0.77597 0.07783 0.93642 0.0
C370 C 0.763 0.12774 0.97554 0.0
C371 C 0.80483 0.14079 0.97402 0.0
C372 C 0.83078 0.12537 0.95151 0.0
C373 C 0.81591 0.09426 0.93281 0.0
C374 C 0.73395 0.1444 0.9986 0.0
C375 C 0.87559 0.1385 0.94905 0.0
C376 C 0.85155 0.2269 0.02051 0.0
C377 C 0.86948 0.20384 0.0433 0.0
C378 C 0.82839 0.20723 0.9984 0.0
C379 C 0.82371 0.16358 0.99896 0.0
C380 C 0.83996 0.14056 0.0227 0.0
C381 C 0.86227 0.16098 0.04462 0.0
C382 C 0.8106 0.23293 0.97384 0.0
C383 C 0.8357 0.09391 0.02426 0.0
H384 H 0.71792 0.08412 0.95944 0.0
H385 H 0.83677 0.08061 0.9169 0.0
H386 H 0.74086 0.12932 0.01986 0.0
H387 H 0.73823 0.17829 0.00147 0.0
H388 H 0.70099 0.13815 0.99305 0.0
H389 H 0.88984 0.12817 0.92816 0.0
H390 H 0.87847 0.17267 0.95067 0.0
H391 H 0.8935 0.12481 0.96741 0.0
H392 H 0.85675 0.26006 0.01937 0.0
H393 H 0.87557 0.14286 0.06225 0.0
H394 H 0.77877 0.22251 0.96827 0.0
H395 H 0.83003 0.22907 0.954 0.0
H396 H 0.80971 0.26643 0.97947 0.0
H397 H 0.80255 0.0849 0.02308 0.0
H398 H 0.84909 0.08083 0.04466 0.0
H399 H 0.85168 0.07951 0.00531 0.0
C400 C 0.15925 0.13718 0.95646 0.0
C401 C 0.20214 0.13005 0.95769 0.0
C402 C 0.13886 0.15939 0.97844 0.0
C403 C 0.16193 0.17558 0.00217 0.0
C404 C 0.20559 0.17089 0.00269 0.0
C405 C 0.22523 0.14786 0.9805 0.0
C406 C 0.09221 0.16367 0.97693 0.0
C407 C 0.23132 0.18856 0.02727 0.0
C408 C 0.09501 0.25051 0.04446 0.0
C409 C 0.07676 0.22381 0.06501 0.0
C410 C 0.12638 0.23643 0.02563 0.0
C411 C 0.13921 0.19453 0.02712 0.0
C412 C 0.12376 0.16867 0.04968 0.0
C413 C 0.0929 0.18374 0.06851 0.0
C414 C 0.14302 0.26536 0.00249 0.0
C415 C 0.13663 0.12378 0.05208 0.0
H416 H 0.14109 0.12395 0.93881 0.0
H417 H 0.2584 0.1427 0.98158 0.0
H418 H 0.07783 0.14764 0.99587 0.0
H419 H 0.08321 0.19681 0.97816 0.0
H420 H 0.07908 0.15033 0.95653 0.0
H421 H 0.26488 0.18906 0.02177 0.0
H422 H 0.2212 0.22055 0.03266 0.0
H423 H 0.22708 0.16937 0.04718 0.0
H424 H 0.08324 0.2818 0.04195 0.0
H425 H 0.07925 0.16297 0.08448 0.0
H426 H 0.12788 0.25839 0.98126 0.0
H427 H 0.17691 0.26102 0.99958 0.0
H428 H 0.13687 0.29835 0.00798 0.0
H429 H 0.12274 0.10597 0.03376 0.0
H430 H 0.12633 0.10958 0.073 0.0
H431 H 0.17079 0.12071 0.05037 0.0
C432 C 0.15098 0.77428 0.02047 0.0
C433 C 0.13506 0.79732 0.04398 0.0
C434 C 0.17339 0.79378 0.9979 0.0
C435 C 0.17935 0.83727 0.99878 0.0
C436 C 0.16541 0.86015 0.0233 0.0
C437 C 0.14381 0.83987 0.04564 0.0
C438 C 0.1888 0.76817 0.97252 0.0
C439 C 0.17113 0.90661 0.02523 0.0
C440 C 0.2519 0.90394 0.95431 0.0
C441 C 0.22388 0.92301 0.93503 0.0
C442 C 0.23886 0.8723 0.97329 0.0
C443 C 0.19671 0.86016 0.97333 0.0
C444 C 0.16934 0.87647 0.952 0.0
C445 C 0.18338 0.90749 0.93291 0.0
C446 C 0.26936 0.85459 0.99498 0.0
C447 C 0.12411 0.86437 0.95126 0.0
H448 H 0.14462 0.74135 0.01907 0.0
H449 H 0.13213 0.85794 0.06386 0.0
H450 H 0.16782 0.77253 0.95354 0.0
H451 H 0.22028 0.7782 0.96572 0.0
H452 H 0.18964 0.7346 0.97793 0.0
H453 H 0.15974 0.91952 0.04628 0.0
H454 H 0.20437 0.91475 0.02285 0.0
H455 H 0.15408 0.92193 0.00712 0.0
H456 H 0.2835 0.91525 0.9557 0.0
H457 H 0.1616 0.92182 0.91793 0.0
H458 H 0.26451 0.82076 0.99779 0.0
H459 H 0.26461 0.86948 0.0166 0.0
H460 H 0.30194 0.86014 0.98811 0.0
H461 H 0.12064 0.83021 0.95252 0.0
H462 H 0.10834 0.8756 0.93116 0.0
H463 H 0.10809 0.87785 0.97054 0.0
C464 C 0.84226 0.86394 0.95751 0.0
C465 C 0.79949 0.87141 0.9595 0.0
C466 C 0.86341 0.84231 0.97943 0.0
C467 C 0.84124 0.82711 0.00391 0.0
C468 C 0.79765 0.83212 0.00524 0.0
C469 C 0.77724 0.85449 0.98306 0.0
C470 C 0.90995 0.83763 0.97705 0.0
C471 C 0.77286 0.81552 0.03066 0.0
C472 C 0.90871 0.75299 0.04659 0.0
C473 C 0.92778 0.78017 0.06645 0.0
C474 C 0.8771 0.7668 0.02786 0.0
C475 C 0.86483 0.8089 0.02874 0.0
C476 C 0.88127 0.83542 0.05055 0.0
C477 C 0.91236 0.82062 0.06931 0.0
C478 C 0.85948 0.73723 0.0055 0.0
C479 C 0.86904 0.88055 0.05226 0.0
H480 H 0.85975 0.87648 0.93929 0.0
H481 H 0.74416 0.85992 0.98474 0.0
H482 H 0.92522 0.85436 0.99533 0.0
H483 H 0.91879 0.80449 0.97881 0.0
H484 H 0.92229 0.85 0.9561 0.0
H485 H 0.73904 0.81549 0.02602 0.0
H486 H 0.7827 0.78349 0.03618 0.0
H487 H 0.77848 0.83508 0.05022 0.0
H488 H 0.91995 0.72144 0.04457 0.0
H489 H 0.92668 0.84178 0.08472 0.0
H490 H 0.87395 0.74338 0.98391 0.0
H491 H 0.82554 0.74175 0.00306 0.0
H492 H 0.86556 0.70438 0.01143 0.0
H493 H 0.88244 0.89742 0.03332 0.0
H494 H 0.8803 0.89548 0.07267 0.0
H495 H 0.83487 0.88398 0.05111 0.0
C496 C 0.08754 0.19154 0.71111 0.0
C497 C 0.07503 0.16643 0.68768 0.0
C498 C 0.10595 0.17416 0.73617 0.0
C499 C 0.11238 0.13073 0.73764 0.0
C500 C 0.09976 0.10529 0.71407 0.0
C501 C 0.08106 0.12339 0.68949 0.0
C502 C 0.11853 0.20223 0.76106 0.0
C503 C 0.10627 0.05891 0.7147 0.0
C504 C 0.19238 0.08841 0.79119 0.0
C505 C 0.16711 0.07459 0.81417 0.0
C506 C 0.17502 0.1067 0.76608 0.0
C507 C 0.13144 0.11163 0.76409 0.0
C508 C 0.10583 0.09759 0.78717 0.0
C509 C 0.12393 0.07907 0.81181 0.0
C510 C 0.20329 0.12083 0.74172 0.0
C511 C 0.05926 0.10246 0.78598 0.0
H512 H 0.08306 0.2248 0.70985 0.0
H513 H 0.07178 0.10372 0.67142 0.0
H514 H 0.10239 0.1927 0.78141 0.0
H515 H 0.15232 0.19935 0.76514 0.0
H516 H 0.11121 0.23529 0.75659 0.0
H517 H 0.0954 0.04358 0.69433 0.0
H518 H 0.13968 0.05184 0.71772 0.0
H519 H 0.08944 0.04519 0.73352 0.0
H520 H 0.22575 0.08514 0.79288 0.0
H521 H 0.10412 0.06874 0.82953 0.0
H522 H 0.19945 0.15461 0.73805 0.0
H523 H 0.19478 0.10497 0.72104 0.0
H524 H 0.23645 0.11443 0.74651 0.0
H525 H 0.05108 0.13567 0.78333 0.0
H526 H 0.04377 0.09046 0.80596 0.0
H527 H 0.04667 0.08571 0.76673 0.0
C528 C 0.08478 0.87722 0.19003 0.0
C529 C 0.07912 0.83417 0.18784 0.0
C530 C 0.10279 0.8951 0.21493 0.0
C531 C 0.11509 0.86941 0.23846 0.0
C532 C 0.10905 0.82596 0.2366 0.0
C533 C 0.09132 0.80881 0.21123 0.0
C534 C 0.10891 0.94153 0.21597 0.0
C535 C 0.12132 0.79763 0.26142 0.0
C536 C 0.19345 0.91207 0.29308 0.0
C537 C 0.16753 0.9255 0.3158 0.0
C538 C 0.17686 0.8937 0.26774 0.0
C539 C 0.13338 0.8883 0.26525 0.0
C540 C 0.10711 0.90185 0.28812 0.0
C541 C 0.12446 0.92044 0.313 0.0
C542 C 0.20581 0.88008 0.24364 0.0
C543 C 0.06063 0.89647 0.28639 0.0
H544 H 0.07573 0.89709 0.172 0.0
H545 H 0.08713 0.77553 0.20968 0.0
H546 H 0.09152 0.95482 0.23468 0.0
H547 H 0.14217 0.94883 0.21943 0.0
H548 H 0.09839 0.95707 0.19559 0.0
H549 H 0.11442 0.76457 0.25662 0.0
H550 H 0.15498 0.80076 0.26593 0.0
H551 H 0.10461 0.80669 0.28166 0.0
H552 H 0.22674 0.91579 0.29511 0.0
H553 H 0.10415 0.93046 0.33051 0.0
H554 H 0.19775 0.89622 0.22298 0.0
H555 H 0.20223 0.84634 0.23967 0.0
H556 H 0.23881 0.88657 0.24889 0.0
H557 H 0.04827 0.91344 0.26717 0.0
H558 H 0.04459 0.90794 0.30631 0.0
H559 H 0.05287 0.86323 0.28336 0.0
C560 C 0.90754 0.81054 0.71067 0.0
C561 C 0.91794 0.83575 0.68678 0.0
C562 C 0.88946 0.82758 0.73596 0.0
C563 C 0.88114 0.8707 0.73719 0.0
C564 C 0.89136 0.89618 0.71306 0.0
C565 C 0.90986 0.87847 0.68828 0.0
C566 C 0.87947 0.79951 0.76143 0.0
C567 C 0.88269 0.94221 0.71339 0.0
C568 C 0.80286 0.91088 0.79279 0.0
C569 C 0.82896 0.92618 0.81482 0.0
C570 C 0.81936 0.89274 0.76734 0.0
C571 C 0.86294 0.88954 0.76402 0.0
C572 C 0.88937 0.90513 0.78613 0.0
C573 C 0.87209 0.9234 0.81115 0.0
C574 C 0.7902 0.8769 0.74405 0.0
C575 C 0.93599 0.9022 0.78349 0.0
H576 H 0.91361 0.77752 0.70964 0.0
H577 H 0.91744 0.89816 0.66982 0.0
H578 H 0.89656 0.80994 0.78117 0.0
H579 H 0.8459 0.80126 0.76659 0.0
H580 H 0.88768 0.76665 0.75698 0.0
H581 H 0.89141 0.95751 0.6925 0.0
H582 H 0.84924 0.94781 0.71749 0.0
H583 H 0.90015 0.95717 0.73144 0.0
H584 H 0.76952 0.91283 0.79549 0.0
H585 H 0.89256 0.93492 0.82811 0.0
H586 H 0.79524 0.84323 0.74059 0.0
H587 H 0.79671 0.89263 0.72296 0.0
H588 H 0.75713 0.88202 0.74982 0.0
H589 H 0.9454 0.86931 0.78086 0.0
H590 H 0.95221 0.91523 0.80286 0.0
H591 H 0.94661 0.91909 0.76373 0.0
C592 C 0.80937 0.09168 0.29071 0.0
C593 C 0.83461 0.0795 0.31415 0.0
C594 C 0.82659 0.10996 0.26555 0.0
C595 C 0.86999 0.11659 0.26398 0.0
C596 C 0.89556 0.10439 0.28761 0.0
C597 C 0.87761 0.08581 0.31229 0.0
C598 C 0.7984 0.1221 0.24061 0.0
C599 C 0.94191 0.11114 0.28689 0.0
C600 C 0.9214 0.12697 0.18965 0.0
C601 C 0.92577 0.17011 0.1869 0.0
C602 C 0.90301 0.10926 0.21447 0.0
C603 C 0.88896 0.13524 0.23735 0.0
C604 C 0.89377 0.17879 0.23496 0.0
C605 C 0.91195 0.19575 0.20967 0.0
C606 C 0.89828 0.06271 0.2161 0.0
C607 C 0.87962 0.20745 0.25908 0.0
H608 H 0.77614 0.08699 0.29201 0.0
H609 H 0.89738 0.07679 0.33038 0.0
H610 H 0.80126 0.1558 0.23621 0.0
H611 H 0.80783 0.10559 0.22039 0.0
H612 H 0.76536 0.11486 0.24522 0.0
H613 H 0.95732 0.10077 0.30735 0.0
H614 H 0.95569 0.09399 0.26824 0.0
H615 H 0.94882 0.14451 0.28352 0.0
H616 H 0.93174 0.10688 0.1721 0.0
H617 H 0.91513 0.22909 0.20769 0.0
H618 H 0.8651 0.05448 0.21888 0.0
H619 H 0.91514 0.05053 0.23542 0.0
H620 H 0.91026 0.0469 0.19623 0.0
H621 H 0.84586 0.20356 0.26284 0.0
H622 H 0.88591 0.24054 0.25399 0.0
H623 H 0.89557 0.19936 0.27982 0.0
loop_
_geom_bond_atom_site_label_1
_geom_bond_atom_site_label_2
_geom_bond_distance
_geom_bond_site_symmetry_2
_ccdc_geom_bond_type
O0 Cd1 2.223 . S
O0 C8 1.315 . S
Cd1 O0 2.223 . S
Cd1 O4 2.297 . S
Cd1 O5 2.439 . S
Cd1 O11 2.240 . S
Cd2 O3 2.240 . S
Cd2 O10 2.223 . S
Cd2 O12 2.297 . S
Cd2 O13 2.439 . S
O3 Cd2 2.240 . S
O3 C8 1.279 . S
O4 Cd1 2.297 . S
O4 C6 1.247 . S
O5 Cd1 2.439 . S
O5 C6 1.208 . S
C6 O4 1.247 . S
C6 O5 1.208 . S
C7 O12 1.247 . S
C7 O13 1.208 . S
C8 O0 1.315 . S
C8 O3 1.279 . S
C9 O10 1.315 . S
C9 O11 1.279 . S
O10 Cd2 2.223 . S
O10 C9 1.315 . S
O11 Cd1 2.240 . S
O11 C9 1.279 . S
O12 Cd2 2.297 . S
O12 C7 1.247 . S
O13 Cd2 2.439 . S
O13 C7 1.208 . S
O14 Cd15 2.223 . S
O14 C22 1.315 . S
Cd15 O14 2.223 . S
Cd15 O18 2.297 . S
Cd15 O19 2.439 . S
Cd15 O25 2.240 . S
Cd16 O17 2.240 . S
Cd16 O24 2.223 . S
Cd16 O26 2.297 . S
Cd16 O27 2.439 . S
O17 Cd16 2.240 . S
O17 C22 1.279 . S
O18 Cd15 2.297 . S
O18 C20 1.247 . S
O19 Cd15 2.439 . S
O19 C20 1.208 . S
C20 O18 1.247 . S
C20 O19 1.208 . S
C21 O26 1.247 . S
C21 O27 1.208 . S
C22 O14 1.315 . S
C22 O17 1.279 . S
C23 O24 1.315 . S
C23 O25 1.279 . S
O24 Cd16 2.223 . S
O24 C23 1.315 . S
O25 Cd15 2.240 . S
O25 C23 1.279 . S
O26 Cd16 2.297 . S
O26 C21 1.247 . S
O27 Cd16 2.439 . S
O27 C21 1.208 . S
O28 Cd29 2.223 . S
O28 C36 1.315 . S
Cd29 O28 2.223 . S
Cd29 O32 2.297 . S
Cd29 O33 2.439 . S
Cd29 O39 2.240 . S
Cd30 O31 2.240 . S
Cd30 O38 2.223 . S
Cd30 O40 2.297 . S
Cd30 O41 2.439 . S
O31 Cd30 2.240 . S
O31 C36 1.279 . S
O32 Cd29 2.297 . S
O32 C34 1.247 . S
O33 Cd29 2.439 . S
O33 C34 1.208 . S
C34 O32 1.247 . S
C34 O33 1.208 . S
C35 O40 1.247 . S
C35 O41 1.208 . S
C36 O28 1.315 . S
C36 O31 1.279 . S
C37 O38 1.315 . S
C37 O39 1.279 . S
O38 Cd30 2.223 . S
O38 C37 1.315 . S
O39 Cd29 2.240 . S
O39 C37 1.279 . S
O40 Cd30 2.297 . S
O40 C35 1.247 . S
O41 Cd30 2.439 . S
O41 C35 1.208 . S
O42 Cd43 2.223 . S
O42 C50 1.315 . S
Cd43 O42 2.223 . S
Cd43 O46 2.297 . S
Cd43 O47 2.439 . S
Cd43 O53 2.240 . S
Cd44 O45 2.240 . S
Cd44 O52 2.223 . S
Cd44 O54 2.297 . S
Cd44 O55 2.439 . S
O45 Cd44 2.240 . S
O45 C50 1.279 . S
O46 Cd43 2.297 . S
O46 C48 1.247 . S
O47 Cd43 2.439 . S
O47 C48 1.208 . S
C48 O46 1.247 . S
C48 O47 1.208 . S
C49 O54 1.247 . S
C49 O55 1.208 . S
C50 O42 1.315 . S
C50 O45 1.279 . S
C51 O52 1.315 . S
C51 O53 1.279 . S
O52 Cd44 2.223 . S
O52 C51 1.315 . S
O53 Cd43 2.240 . S
O53 C51 1.279 . S
O54 Cd44 2.297 . S
O54 C49 1.247 . S
O55 Cd44 2.439 . S
O55 C49 1.208 . S
O56 Cd57 2.223 . S
O56 C64 1.315 . S
Cd57 O56 2.223 . S
Cd57 O60 2.297 . S
Cd57 O61 2.439 . S
Cd57 O67 2.240 . S
Cd58 O59 2.240 . S
Cd58 O66 2.223 . S
Cd58 O68 2.297 . S
Cd58 O69 2.439 . S
O59 Cd58 2.240 . S
O59 C64 1.279 . S
O60 Cd57 2.297 . S
O60 C62 1.247 . S
O61 Cd57 2.439 . S
O61 C62 1.208 . S
C62 O60 1.247 . S
C62 O61 1.208 . S
C63 O68 1.247 . S
C63 O69 1.208 . S
C64 O56 1.315 . S
C64 O59 1.279 . S
C65 O66 1.315 . S
C65 O67 1.279 . S
O66 Cd58 2.223 . S
O66 C65 1.315 . S
O67 Cd57 2.240 . S
O67 C65 1.279 . S
O68 Cd58 2.297 . S
O68 C63 1.247 . S
O69 Cd58 2.439 . S
O69 C63 1.208 . S
O70 Cd71 2.223 . S
O70 C78 1.315 . S
Cd71 O70 2.223 . S
Cd71 O74 2.297 . S
Cd71 O75 2.439 . S
Cd71 O81 2.240 . S
Cd72 O73 2.240 . S
Cd72 O80 2.223 . S
Cd72 O82 2.297 . S
Cd72 O83 2.439 . S
O73 Cd72 2.240 . S
O73 C78 1.279 . S
O74 Cd71 2.297 . S
O74 C76 1.247 . S
O75 Cd71 2.439 . S
O75 C76 1.208 . S
C76 O74 1.247 . S
C76 O75 1.208 . S
C77 O82 1.247 . S
C77 O83 1.208 . S
C78 O70 1.315 . S
C78 O73 1.279 . S
C79 O80 1.315 . S
C79 O81 1.279 . S
O80 Cd72 2.223 . S
O80 C79 1.315 . S
O81 Cd71 2.240 . S
O81 C79 1.279 . S
O82 Cd72 2.297 . S
O82 C77 1.247 . S
O83 Cd72 2.439 . S
O83 C77 1.208 . S
O84 Cd85 2.223 . S
O84 C92 1.315 . S
Cd85 O84 2.223 . S
Cd85 O88 2.297 . S
Cd85 O89 2.439 . S
Cd85 O95 2.240 . S
Cd86 O87 2.240 . S
Cd86 O94 2.223 . S
Cd86 O96 2.297 . S
Cd86 O97 2.439 . S
O87 Cd86 2.240 . S
O87 C92 1.279 . S
O88 Cd85 2.297 . S
O88 C90 1.247 . S
O89 Cd85 2.439 . S
O89 C90 1.208 . S
C90 O88 1.247 . S
C90 O89 1.208 . S
C91 O96 1.247 . S
C91 O97 1.208 . S
C92 O84 1.315 . S
C92 O87 1.279 . S
C93 O94 1.315 . S
C93 O95 1.279 . S
O94 Cd86 2.223 . S
O94 C93 1.315 . S
O95 Cd85 2.240 . S
O95 C93 1.279 . S
O96 Cd86 2.297 . S
O96 C91 1.247 . S
O97 Cd86 2.439 . S
O97 C91 1.208 . S
O98 Cd99 2.223 . S
O98 C106 1.315 . S
Cd99 O98 2.223 . S
Cd99 O102 2.297 . S
Cd99 O103 2.439 . S
Cd99 O109 2.240 . S
Cd100 O101 2.240 . S
Cd100 O108 2.223 . S
Cd100 O110 2.297 . S
Cd100 O111 2.439 . S
O101 Cd100 2.240 . S
O101 C106 1.279 . S
O102 Cd99 2.297 . S
O102 C104 1.247 . S
O103 Cd99 2.439 . S
O103 C104 1.208 . S
C104 O102 1.247 . S
C104 O103 1.208 . S
C105 O110 1.247 . S
C105 O111 1.208 . S
C106 O98 1.315 . S
C106 O101 1.279 . S
C107 O108 1.315 . S
C107 O109 1.279 . S
O108 Cd100 2.223 . S
O108 C107 1.315 . S
O109 Cd99 2.240 . S
O109 C107 1.279 . S
O110 Cd100 2.297 . S
O110 C105 1.247 . S
O111 Cd100 2.439 . S
O111 C105 1.208 . S
C112 C113 1.391 . S
C112 C114 1.394 . S
C112 H128 0.931 . S
C113 C112 1.391 . S
C113 C117 1.376 . S
C114 C112 1.394 . S
C114 C115 1.369 . S
C114 C118 1.531 . S
C115 C114 1.369 . S
C115 C116 1.410 1_655 S
C115 C123 1.503 1_655 S
C116 C115 1.410 1_455 S
C116 C117 1.392 1_455 S
C116 C119 1.511 . S
C117 C113 1.376 . S
C117 C116 1.392 1_655 S
C117 H129 0.930 1_655 S
C118 C114 1.531 . S
C118 H130 0.960 . S
C118 H131 0.962 . S
C118 H132 0.960 . S
C119 C116 1.511 . S
C119 H133 0.961 . S
C119 H134 0.961 . S
C119 H135 0.961 . S
C120 C121 1.370 . S
C120 C122 1.363 . S
C120 H136 0.931 . S
C121 C120 1.370 . S
C121 C125 1.408 . S
C122 C120 1.363 . S
C122 C123 1.370 . S
C122 C126 1.524 1_455 S
C123 C115 1.503 1_455 S
C123 C122 1.370 . S
C123 C124 1.403 . S
C124 C123 1.403 . S
C124 C125 1.404 . S
C124 C127 1.539 . S
C125 C121 1.408 . S
C125 C124 1.404 . S
C125 H137 0.930 . S
C126 C122 1.524 1_655 S
C126 H138 0.956 . S
C126 H139 0.961 . S
C126 H140 0.961 . S
C127 C124 1.539 . S
C127 H141 0.958 . S
C127 H142 0.961 . S
C127 H143 0.960 . S
H128 C112 0.931 . S
H129 C117 0.930 1_455 S
H130 C118 0.960 . S
H131 C118 0.962 . S
H132 C118 0.960 . S
H133 C119 0.961 . S
H134 C119 0.961 . S
H135 C119 0.961 . S
H136 C120 0.931 . S
H137 C125 0.930 . S
H138 C126 0.956 . S
H139 C126 0.961 . S
H140 C126 0.961 . S
H141 C127 0.958 . S
H142 C127 0.961 . S
H143 C127 0.960 . S
C144 C145 1.391 . S
C144 C146 1.394 1_545 S
C144 H160 0.931 . S
C145 C144 1.391 . S
C145 C149 1.376 . S
C146 C144 1.394 1_565 S
C146 C147 1.369 1_565 S
C146 C150 1.531 . S
C147 C146 1.369 1_545 S
C147 C148 1.410 . S
C147 C155 1.503 1_545 S
C148 C147 1.410 . S
C148 C149 1.392 . S
C148 C151 1.511 . S
C149 C145 1.376 . S
C149 C148 1.392 . S
C149 H161 0.929 . S
C150 C146 1.531 . S
C150 H162 0.960 . S
C150 H163 0.962 . S
C150 H164 0.960 . S
C151 C148 1.511 . S
C151 H165 0.961 . S
C151 H166 0.961 . S
C151 H167 0.961 . S
C152 C153 1.370 . S
C152 C154 1.363 . S
C152 H168 0.931 . S
C153 C152 1.370 . S
C153 C157 1.408 . S
C154 C152 1.363 . S
C154 C155 1.370 . S
C154 C158 1.524 1_565 S
C155 C147 1.503 1_565 S
C155 C154 1.370 . S
C155 C156 1.403 . S
C156 C155 1.403 . S
C156 C157 1.404 . S
C156 C159 1.539 . S
C157 C153 1.408 . S
C157 C156 1.404 . S
C157 H169 0.930 . S
C158 C154 1.524 1_545 S
C158 H170 0.956 . S
C158 H171 0.961 . S
C158 H172 0.961 . S
C159 C156 1.539 . S
C159 H173 0.958 . S
C159 H174 0.961 . S
C159 H175 0.960 . S
H160 C144 0.931 . S
H161 C149 0.929 . S
H162 C150 0.960 . S
H163 C150 0.962 . S
H164 C150 0.960 . S
H165 C151 0.961 . S
H166 C151 0.961 . S
H167 C151 0.961 . S
H168 C152 0.931 . S
H169 C157 0.930 . S
H170 C158 0.956 . S
H171 C158 0.961 . S
H172 C158 0.961 . S
H173 C159 0.958 . S
H174 C159 0.961 . S
H175 C159 0.960 . S
C176 C177 1.391 . S
C176 C178 1.394 . S
C176 H192 0.931 . S
C177 C176 1.391 . S
C177 C181 1.376 . S
C178 C176 1.394 . S
C178 C179 1.369 . S
C178 C182 1.531 . S
C179 C178 1.369 . S
C179 C180 1.410 . S
C179 C187 1.503 1_655 S
C180 C179 1.410 . S
C180 C181 1.392 . S
C180 C183 1.511 . S
C181 C177 1.376 . S
C181 C180 1.392 . S
C181 H193 0.929 . S
C182 C178 1.531 . S
C182 H194 0.960 . S
C182 H195 0.962 1_655 S
C182 H196 0.960 . S
C183 C180 1.511 . S
C183 H197 0.961 . S
C183 H198 0.961 . S
C183 H199 0.961 . S
C184 C185 1.370 . S
C184 C186 1.363 . S
C184 H200 0.931 . S
C185 C184 1.370 . S
C185 C189 1.408 . S
C186 C184 1.363 . S
C186 C187 1.370 . S
C186 C190 1.524 . S
C187 C179 1.503 1_455 S
C187 C186 1.370 . S
C187 C188 1.403 1_455 S
C188 C187 1.403 1_655 S
C188 C189 1.404 1_655 S
C188 C191 1.539 . S
C189 C185 1.408 . S
C189 C188 1.404 1_455 S
C189 H201 0.930 1_455 S
C190 C186 1.524 . S
C190 H202 0.956 . S
C190 H203 0.961 . S
C190 H204 0.961 . S
C191 C188 1.539 . S
C191 H205 0.958 . S
C191 H206 0.961 . S
C191 H207 0.960 . S
H192 C176 0.931 . S
H193 C181 0.929 . S
H194 C182 0.960 . S
H195 C182 0.962 1_455 S
H196 C182 0.960 . S
H197 C183 0.961 . S
H198 C183 0.961 . S
H199 C183 0.961 . S
H200 C184 0.931 . S
H201 C189 0.930 1_655 S
H202 C190 0.956 . S
H203 C190 0.961 . S
H204 C190 0.961 . S
H205 C191 0.958 . S
H206 C191 0.961 . S
H207 C191 0.960 . S
C208 C209 1.391 . S
C208 C210 1.394 . S
C208 H224 0.931 . S
C209 C208 1.391 . S
C209 C213 1.376 . S
C210 C208 1.394 . S
C210 C211 1.369 . S
C210 C214 1.531 . S
C211 C210 1.369 . S
C211 C212 1.410 1_545 S
C211 C219 1.503 1_545 S
C212 C211 1.410 1_565 S
C212 C213 1.392 1_565 S
C212 C215 1.511 . S
C213 C209 1.376 . S
C213 C212 1.392 1_545 S
C213 H225 0.929 1_545 S
C214 C210 1.531 . S
C214 H226 0.960 . S
C214 H227 0.962 . S
C214 H228 0.960 . S
C215 C212 1.511 . S
C215 H229 0.961 . S
C215 H230 0.961 . S
C215 H231 0.961 . S
C216 C217 1.370 . S
C216 C218 1.363 . S
C216 H232 0.931 . S
C217 C216 1.370 . S
C217 C221 1.408 . S
C218 C216 1.363 . S
C218 C219 1.370 . S
C218 C222 1.517 1_565 S
C219 C211 1.503 1_565 S
C219 C218 1.370 . S
C219 C220 1.403 . S
C220 C219 1.403 . S
C220 C221 1.404 . S
C220 C223 1.539 . S
C221 C217 1.408 . S
C221 C220 1.404 . S
C221 H233 0.930 . S
C222 C218 1.517 1_545 S
C222 H234 0.976 . S
C222 H235 0.954 1_545 S
C222 H236 0.955 1_545 S
C223 C220 1.539 . S
C223 H237 0.958 . S
C223 H238 0.961 . S
C223 H239 0.960 . S
H224 C208 0.931 . S
H225 C213 0.929 1_565 S
H226 C214 0.960 . S
H227 C214 0.962 . S
H228 C214 0.960 . S
H229 C215 0.961 . S
H230 C215 0.961 . S
H231 C215 0.961 . S
H232 C216 0.931 . S
H233 C221 0.930 . S
H234 C222 0.976 . S
H235 C222 0.954 1_565 S
H236 C222 0.955 1_565 S
H237 C223 0.958 . S
H238 C223 0.961 . S
H239 C223 0.960 . S
C240 C241 1.391 . S
C240 C242 1.396 . S
C240 H256 0.928 1_545 S
C241 C240 1.391 . S
C241 C245 1.376 . S
C242 C240 1.396 . S
C242 C243 1.369 . S
C242 C246 1.531 . S
C243 C242 1.369 . S
C243 C244 1.410 . S
C243 C251 1.503 . S
C244 C243 1.410 . S
C244 C245 1.392 . S
C244 C247 1.511 . S
C245 C241 1.376 . S
C245 C244 1.392 . S
C245 H257 0.929 . S
C246 C242 1.531 . S
C246 H258 0.960 . S
C246 H259 0.962 . S
C246 H260 0.960 . S
C247 C244 1.511 . S
C247 H261 0.961 . S
C247 H262 0.961 . S
C247 H263 0.961 . S
C248 C249 1.370 . S
C248 C250 1.363 . S
C248 H264 0.931 . S
C249 C248 1.370 . S
C249 C253 1.408 . S
C250 C248 1.363 . S
C250 C251 1.370 . S
C250 C254 1.524 . S
C251 C243 1.503 . S
C251 C250 1.370 . S
C251 C252 1.403 . S
C252 C251 1.403 . S
C252 C253 1.404 . S
C252 C255 1.539 . S
C253 C249 1.408 . S
C253 C252 1.404 . S
C253 H265 0.930 . S
C254 C250 1.524 . S
C254 H266 0.956 . S
C254 H267 0.961 . S
C254 H268 0.961 . S
C255 C252 1.539 . S
C255 H269 0.958 . S
C255 H270 0.961 . S
C255 H271 0.960 . S
H256 C240 0.928 1_565 S
H257 C245 0.929 . S
H258 C246 0.960 . S
H259 C246 0.962 . S
H260 C246 0.960 . S
H261 C247 0.961 . S
H262 C247 0.961 . S
H263 C247 0.961 . S
H264 C248 0.931 . S
H265 C253 0.930 . S
H266 C254 0.956 . S
H267 C254 0.961 . S
H268 C254 0.961 . S
H269 C255 0.958 . S
H270 C255 0.961 . S
H271 C255 0.960 . S
C272 C273 1.391 . S
C272 C274 1.394 . S
C272 H288 0.931 . S
C273 C272 1.391 . S
C273 C277 1.376 . S
C274 C272 1.394 . S
C274 C275 1.369 . S
C274 C278 1.531 . S
C275 C274 1.369 . S
C275 C276 1.410 . S
C275 C283 1.503 . S
C276 C275 1.410 . S
C276 C277 1.392 . S
C276 C279 1.511 . S
C277 C273 1.376 . S
C277 C276 1.392 . S
C277 H289 0.929 . S
C278 C274 1.531 . S
C278 H290 0.960 . S
C278 H291 0.962 . S
C278 H292 0.960 . S
C279 C276 1.511 . S
C279 H293 0.961 . S
C279 H294 0.961 . S
C279 H295 0.961 . S
C280 C281 1.394 . S
C280 C282 1.363 . S
C280 H296 0.931 . S
C281 C280 1.394 . S
C281 C285 1.406 1_455 S
C282 C280 1.363 . S
C282 C283 1.370 . S
C282 C286 1.524 . S
C283 C275 1.503 . S
C283 C282 1.370 . S
C283 C284 1.403 . S
C284 C283 1.403 . S
C284 C285 1.404 1_455 S
C284 C287 1.539 . S
C285 C281 1.406 1_655 S
C285 C284 1.404 1_655 S
C285 H297 0.930 . S
C286 C282 1.524 . S
C286 H298 0.956 . S
C286 H299 0.961 . S
C286 H300 0.961 . S
C287 C284 1.539 . S
C287 H301 0.958 . S
C287 H302 0.961 1_455 S
C287 H303 0.960 . S
H288 C272 0.931 . S
H289 C277 0.929 . S
H290 C278 0.960 . S
H291 C278 0.962 . S
H292 C278 0.960 . S
H293 C279 0.961 . S
H294 C279 0.961 . S
H295 C279 0.961 . S
H296 C280 0.931 . S
H297 C285 0.930 . S
H298 C286 0.956 . S
H299 C286 0.961 . S
H300 C286 0.961 . S
H301 C287 0.958 . S
H302 C287 0.961 1_655 S
H303 C287 0.960 . S
C304 C305 1.391 . S
C304 C306 1.394 . S
C304 H320 0.931 . S
C305 C304 1.391 . S
C305 C309 1.376 . S
C306 C304 1.394 . S
C306 C307 1.369 . S
C306 C310 1.531 . S
C307 C306 1.369 . S
C307 C308 1.410 . S
C307 C315 1.503 . S
C308 C307 1.410 . S
C308 C309 1.392 . S
C308 C311 1.511 . S
C309 C305 1.376 . S
C309 C308 1.392 . S
C309 H321 0.929 . S
C310 C306 1.531 . S
C310 H322 0.960 . S
C310 H323 0.962 . S
C310 H324 0.960 . S
C311 C308 1.511 . S
C311 H325 0.961 . S
C311 H326 0.961 . S
C311 H327 0.961 . S
C312 C313 1.370 . S
C312 C314 1.363 . S
C312 H328 0.931 . S
C313 C312 1.370 . S
C313 C317 1.408 . S
C314 C312 1.363 . S
C314 C315 1.370 . S
C314 C318 1.524 . S
C315 C307 1.503 . S
C315 C314 1.370 . S
C315 C316 1.403 . S
C316 C315 1.403 . S
C316 C317 1.404 . S
C316 C319 1.539 . S
C317 C313 1.408 . S
C317 C316 1.404 . S
C317 H329 0.930 . S
C318 C314 1.524 . S
C318 H330 0.956 . S
C318 H331 0.961 . S
C318 H332 0.961 . S
C319 C316 1.539 . S
C319 H333 0.958 . S
C319 H334 0.961 . S
C319 H335 0.960 . S
H320 C304 0.931 . S
H321 C309 0.929 . S
H322 C310 0.960 . S
H323 C310 0.962 . S
H324 C310 0.960 . S
H325 C311 0.961 . S
H326 C311 0.961 . S
H327 C311 0.961 . S
H328 C312 0.931 . S
H329 C317 0.930 . S
H330 C318 0.956 . S
H331 C318 0.961 . S
H332 C318 0.961 . S
H333 C319 0.958 . S
H334 C319 0.961 . S
H335 C319 0.960 . S
C336 C337 1.391 . S
C336 C338 1.394 . S
C336 H352 0.931 . S
C337 C336 1.391 . S
C337 C341 1.376 . S
C338 C336 1.394 . S
C338 C339 1.369 . S
C338 C342 1.531 . S
C339 C338 1.369 . S
C339 C340 1.410 . S
C339 C347 1.503 . S
C340 C339 1.410 . S
C340 C341 1.392 . S
C340 C343 1.511 . S
C341 C337 1.376 . S
C341 C340 1.392 . S
C341 H353 0.929 . S
C342 C338 1.531 . S
C342 H354 0.960 . S
C342 H355 0.962 . S
C342 H356 0.960 . S
C343 C340 1.511 . S
C343 H357 0.961 . S
C343 H358 0.961 . S
C343 H359 0.961 . S
C344 C345 1.370 . S
C344 C346 1.363 . S
C344 H360 0.931 . S
C345 C344 1.370 . S
C345 C349 1.408 . S
C346 C344 1.363 . S
C346 C347 1.370 . S
C346 C350 1.524 . S
C347 C339 1.503 . S
C347 C346 1.370 . S
C347 C348 1.403 . S
C348 C347 1.403 . S
C348 C349 1.404 . S
C348 C351 1.539 . S
C349 C345 1.408 . S
C349 C348 1.404 . S
C349 H361 0.930 . S
C350 C346 1.524 . S
C350 H362 0.956 . S
C350 H363 0.961 . S
C350 H364 0.961 . S
C351 C348 1.539 . S
C351 H365 0.958 . S
C351 H366 0.961 . S
C351 H367 0.960 . S
H352 C336 0.931 . S
H353 C341 0.929 . S
H354 C342 0.960 . S
H355 C342 0.962 . S
H356 C342 0.960 . S
H357 C343 0.961 . S
H358 C343 0.961 . S
H359 C343 0.961 . S
H360 C344 0.931 . S
H361 C349 0.930 . S
H362 C350 0.956 . S
H363 C350 0.961 . S
H364 C350 0.961 . S
H365 C351 0.958 . S
H366 C351 0.961 . S
H367 C351 0.960 . S
C368 C369 1.390 1_565 S
C368 C370 1.394 1_566 S
C368 H384 0.931 1_556 S
C369 C368 1.390 1_545 S
C369 C373 1.389 . S
C370 C368 1.394 1_544 S
C370 C371 1.369 1_554 S
C370 C374 1.531 . S
C371 C370 1.369 1_556 S
C371 C372 1.410 . S
C371 C379 1.503 1_556 S
C372 C371 1.410 . S
C372 C373 1.392 . S
C372 C375 1.511 . S
C373 C369 1.389 . S
C373 C372 1.392 . S
C373 H385 0.929 . S
C374 C370 1.531 . S
C374 H386 0.960 . S
C374 H387 0.962 . S
C374 H388 0.982 . S
C375 C372 1.511 . S
C375 H389 0.961 . S
C375 H390 0.961 . S
C375 H391 0.961 . S
C376 C377 1.370 . S
C376 C378 1.363 . S
C376 H392 0.931 . S
C377 C376 1.370 . S
C377 C381 1.408 . S
C378 C376 1.363 . S
C378 C379 1.370 . S
C378 C382 1.524 . S
C379 C371 1.503 1_554 S
C379 C378 1.370 . S
C379 C380 1.403 . S
C380 C379 1.403 . S
C380 C381 1.404 . S
C380 C383 1.539 1_554 S
C381 C377 1.408 . S
C381 C380 1.404 . S
C381 H393 0.930 . S
C382 C378 1.524 . S
C382 H394 0.956 . S
C382 H395 0.961 1_554 S
C382 H396 0.961 . S
C383 C380 1.539 1_556 S
C383 H397 0.958 1_556 S
C383 H398 0.961 . S
C383 H399 0.960 . S
H384 C368 0.931 1_554 S
H385 C373 0.929 . S
H386 C374 0.960 . S
H387 C374 0.962 . S
H388 C374 0.982 . S
H389 C375 0.961 . S
H390 C375 0.961 . S
H391 C375 0.961 . S
H392 C376 0.931 . S
H393 C381 0.930 . S
H394 C382 0.956 . S
H395 C382 0.961 1_556 S
H396 C382 0.961 . S
H397 C383 0.958 1_554 S
H398 C383 0.961 . S
H399 C383 0.960 . S
C400 C401 1.391 . S
C400 C402 1.394 . S
C400 H416 0.931 . S
C401 C400 1.391 . S
C401 C405 1.376 . S
C402 C400 1.394 . S
C402 C403 1.369 . S
C402 C406 1.531 1_556 S
C403 C402 1.369 . S
C403 C404 1.410 . S
C403 C411 1.503 1_556 S
C404 C403 1.410 . S
C404 C405 1.392 . S
C404 C407 1.511 . S
C405 C401 1.376 . S
C405 C404 1.392 . S
C405 H417 0.929 . S
C406 C402 1.531 1_554 S
C406 H418 0.960 . S
C406 H419 0.962 . S
C406 H420 0.960 . S
C407 C404 1.511 . S
C407 H421 0.961 . S
C407 H422 0.961 . S
C407 H423 0.961 . S
C408 C409 1.370 . S
C408 C410 1.363 1_554 S
C408 H424 0.931 1_454 S
C409 C408 1.370 . S
C409 C413 1.408 . S
C410 C408 1.363 1_556 S
C410 C411 1.370 1_556 S
C410 C414 1.524 . S
C411 C403 1.503 1_554 S
C411 C410 1.370 1_554 S
C411 C412 1.403 . S
C412 C411 1.403 . S
C412 C413 1.404 . S
C412 C415 1.539 . S
C413 C409 1.408 . S
C413 C412 1.404 . S
C413 H425 0.930 . S
C414 C410 1.524 . S
C414 H426 0.956 . S
C414 H427 0.961 . S
C414 H428 0.961 . S
C415 C412 1.539 . S
C415 H429 0.958 . S
C415 H430 0.961 . S
C415 H431 0.960 . S
H416 C400 0.931 . S
H417 C405 0.929 . S
H418 C406 0.960 . S
H419 C406 0.962 . S
H420 C406 0.960 . S
H421 C407 0.961 . S
H422 C407 0.961 . S
H423 C407 0.961 . S
H424 C408 0.931 1_656 S
H425 C413 0.930 . S
H426 C414 0.956 . S
H427 C414 0.961 . S
H428 C414 0.961 . S
H429 C415 0.958 . S
H430 C415 0.961 . S
H431 C415 0.960 . S
C432 C433 1.391 . S
C432 C434 1.394 . S
C432 H448 0.931 . S
C433 C432 1.391 . S
C433 C437 1.376 . S
C434 C432 1.394 . S
C434 C435 1.369 . S
C434 C438 1.531 1_554 S
C435 C434 1.369 . S
C435 C436 1.410 . S
C435 C443 1.503 1_554 S
C436 C435 1.410 . S
C436 C437 1.392 . S
C436 C439 1.511 . S
C437 C433 1.376 . S
C437 C436 1.392 . S
C437 H449 0.929 . S
C438 C434 1.531 1_556 S
C438 H450 0.960 . S
C438 H451 0.962 1_556 S
C438 H452 0.960 . S
C439 C436 1.511 . S
C439 H453 0.961 . S
C439 H454 0.961 . S
C439 H455 0.961 1_554 S
C440 C441 1.370 . S
C440 C442 1.363 1_556 S
C440 H456 0.931 1_566 S
C441 C440 1.370 . S
C441 C445 1.408 . S
C442 C440 1.363 1_554 S
C442 C443 1.370 1_554 S
C442 C446 1.524 . S
C443 C435 1.503 1_556 S
C443 C442 1.370 1_556 S
C443 C444 1.403 . S
C444 C443 1.403 . S
C444 C445 1.404 . S
C444 C447 1.539 . S
C445 C441 1.408 . S
C445 C444 1.404 . S
C445 H457 0.930 . S
C446 C442 1.524 . S
C446 H458 0.956 . S
C446 H459 0.961 . S
C446 H460 0.961 . S
C447 C444 1.539 . S
C447 H461 0.958 . S
C447 H462 0.961 . S
C447 H463 0.960 . S
H448 C432 0.931 . S
H449 C437 0.929 . S
H450 C438 0.960 . S
H451 C438 0.962 1_554 S
H452 C438 0.960 . S
H453 C439 0.961 . S
H454 C439 0.961 . S
H455 C439 0.961 1_556 S
H456 C440 0.931 1_544 S
H457 C445 0.930 . S
H458 C446 0.956 . S
H459 C446 0.961 . S
H460 C446 0.961 . S
H461 C447 0.958 . S
H462 C447 0.961 . S
H463 C447 0.960 . S
C464 C465 1.391 . S
C464 C466 1.394 . S
C464 H480 0.931 . S
C465 C464 1.391 . S
C465 C469 1.376 . S
C466 C464 1.394 . S
C466 C467 1.369 . S
C466 C470 1.531 . S
C467 C466 1.369 . S
C467 C468 1.410 . S
C467 C475 1.503 1_556 S
C468 C467 1.410 . S
C468 C469 1.392 . S
C468 C471 1.511 1_556 S
C469 C465 1.376 . S
C469 C468 1.392 . S
C469 H481 0.929 . S
C470 C466 1.531 . S
C470 H482 0.960 . S
C470 H483 0.962 . S
C470 H484 0.960 . S
C471 C468 1.511 1_554 S
C471 H485 0.961 . S
C471 H486 0.961 . S
C471 H487 0.961 . S
C472 C473 1.370 . S
C472 C474 1.363 1_554 S
C472 H488 0.931 1_654 S
C473 C472 1.370 . S
C473 C477 1.408 . S
C474 C472 1.363 1_556 S
C474 C475 1.370 1_556 S
C474 C478 1.524 . S
C475 C467 1.503 1_554 S
C475 C474 1.370 1_554 S
C475 C476 1.403 . S
C476 C475 1.403 . S
C476 C477 1.404 . S
C476 C479 1.539 . S
C477 C473 1.408 . S
C477 C476 1.404 . S
C477 H489 0.930 . S
C478 C474 1.524 . S
C478 H490 0.956 . S
C478 H491 0.961 . S
C478 H492 0.961 . S
C479 C476 1.539 . S
C479 H493 0.958 . S
C479 H494 0.961 . S
C479 H495 0.960 . S
H480 C464 0.931 . S
H481 C469 0.929 . S
H482 C470 0.960 . S
H483 C470 0.962 . S
H484 C470 0.960 . S
H485 C471 0.961 . S
H486 C471 0.961 . S
H487 C471 0.961 . S
H488 C472 0.931 1_456 S
H489 C477 0.930 . S
H490 C478 0.956 . S
H491 C478 0.961 . S
H492 C478 0.961 . S
H493 C479 0.958 . S
H494 C479 0.961 . S
H495 C479 0.960 . S
C496 C497 1.391 . S
C496 C498 1.394 . S
C496 H512 0.931 . S
C497 C496 1.391 . S
C497 C501 1.376 . S
C498 C496 1.394 . S
C498 C499 1.369 . S
C498 C502 1.531 . S
C499 C498 1.369 . S
C499 C500 1.410 . S
C499 C507 1.503 . S
C500 C499 1.410 . S
C500 C501 1.392 . S
C500 C503 1.511 . S
C501 C497 1.376 . S
C501 C500 1.392 . S
C501 H513 0.929 . S
C502 C498 1.531 . S
C502 H514 0.960 . S
C502 H515 0.962 . S
C502 H516 0.960 . S
C503 C500 1.511 . S
C503 H517 0.961 . S
C503 H518 0.961 . S
C503 H519 0.961 . S
C504 C505 1.370 . S
C504 C506 1.363 . S
C504 H520 0.931 . S
C505 C504 1.370 . S
C505 C509 1.408 . S
C506 C504 1.363 . S
C506 C507 1.370 . S
C506 C510 1.524 . S
C507 C499 1.503 . S
C507 C506 1.370 . S
C507 C508 1.403 . S
C508 C507 1.403 . S
C508 C509 1.404 . S
C508 C511 1.539 . S
C509 C505 1.408 . S
C509 C508 1.404 . S
C509 H521 0.930 . S
C510 C506 1.524 . S
C510 H522 0.956 . S
C510 H523 0.961 . S
C510 H524 0.961 . S
C511 C508 1.539 . S
C511 H525 0.958 . S
C511 H526 0.961 . S
C511 H527 0.960 . S
H512 C496 0.931 . S
H513 C501 0.929 . S
H514 C502 0.960 . S
H515 C502 0.962 . S
H516 C502 0.960 . S
H517 C503 0.961 . S
H518 C503 0.961 . S
H519 C503 0.961 . S
H520 C504 0.931 . S
H521 C509 0.930 . S
H522 C510 0.956 . S
H523 C510 0.961 . S
H524 C510 0.961 . S
H525 C511 0.958 . S
H526 C511 0.961 . S
H527 C511 0.960 . S
C528 C529 1.391 . S
C528 C530 1.394 . S
C528 H544 0.931 . S
C529 C528 1.391 . S
C529 C533 1.376 . S
C530 C528 1.394 . S
C530 C531 1.369 . S
C530 C534 1.531 . S
C531 C530 1.369 . S
C531 C532 1.410 . S
C531 C539 1.503 . S
C532 C531 1.410 . S
C532 C533 1.392 . S
C532 C535 1.511 . S
C533 C529 1.376 . S
C533 C532 1.392 . S
C533 H545 0.929 . S
C534 C530 1.531 . S
C534 H546 0.960 . S
C534 H547 0.962 . S
C534 H548 0.960 . S
C535 C532 1.511 . S
C535 H549 0.961 . S
C535 H550 0.961 . S
C535 H551 0.961 . S
C536 C537 1.370 . S
C536 C538 1.363 . S
C536 H552 0.931 . S
C537 C536 1.370 . S
C537 C541 1.408 . S
C538 C536 1.363 . S
C538 C539 1.370 . S
C538 C542 1.524 . S
C539 C531 1.503 . S
C539 C538 1.370 . S
C539 C540 1.403 . S
C540 C539 1.403 . S
C540 C541 1.404 . S
C540 C543 1.539 . S
C541 C537 1.408 . S
C541 C540 1.404 . S
C541 H553 0.930 . S
C542 C538 1.524 . S
C542 H554 0.956 . S
C542 H555 0.961 . S
C542 H556 0.961 . S
C543 C540 1.539 . S
C543 H557 0.958 . S
C543 H558 0.961 . S
C543 H559 0.960 . S
H544 C528 0.931 . S
H545 C533 0.929 . S
H546 C534 0.960 . S
H547 C534 0.962 . S
H548 C534 0.960 . S
H549 C535 0.961 . S
H550 C535 0.961 . S
H551 C535 0.961 . S
H552 C536 0.931 . S
H553 C541 0.930 . S
H554 C542 0.956 . S
H555 C542 0.961 . S
H556 C542 0.961 . S
H557 C543 0.958 . S
H558 C543 0.961 . S
H559 C543 0.960 . S
C560 C561 1.391 . S
C560 C562 1.394 . S
C560 H576 0.931 . S
C561 C560 1.391 . S
C561 C565 1.376 . S
C562 C560 1.394 . S
C562 C563 1.369 . S
C562 C566 1.531 . S
C563 C562 1.369 . S
C563 C564 1.410 . S
C563 C571 1.503 . S
C564 C563 1.410 . S
C564 C565 1.392 . S
C564 C567 1.511 . S
C565 C561 1.376 . S
C565 C564 1.392 . S
C565 H577 0.929 . S
C566 C562 1.531 . S
C566 H578 0.960 . S
C566 H579 0.962 . S
C566 H580 0.960 . S
C567 C564 1.511 . S
C567 H581 0.961 . S
C567 H582 0.961 . S
C567 H583 0.961 . S
C568 C569 1.370 . S
C568 C570 1.363 . S
C568 H584 0.931 . S
C569 C568 1.370 . S
C569 C573 1.408 . S
C570 C568 1.363 . S
C570 C571 1.370 . S
C570 C574 1.524 . S
C571 C563 1.503 . S
C571 C570 1.370 . S
C571 C572 1.403 . S
C572 C571 1.403 . S
C572 C573 1.404 . S
C572 C575 1.539 . S
C573 C569 1.408 . S
C573 C572 1.404 . S
C573 H585 0.930 . S
C574 C570 1.524 . S
C574 H586 0.956 . S
C574 H587 0.961 . S
C574 H588 0.961 . S
C575 C572 1.539 . S
C575 H589 0.958 . S
C575 H590 0.961 . S
C575 H591 0.960 . S
H576 C560 0.931 . S
H577 C565 0.929 . S
H578 C566 0.960 . S
H579 C566 0.962 . S
H580 C566 0.960 . S
H581 C567 0.961 . S
H582 C567 0.961 . S
H583 C567 0.961 . S
H584 C568 0.931 . S
H585 C573 0.930 . S
H586 C574 0.956 . S
H587 C574 0.961 . S
H588 C574 0.961 . S
H589 C575 0.958 . S
H590 C575 0.961 . S
H591 C575 0.960 . S
C592 C593 1.391 . S
C592 C594 1.394 . S
C592 H608 0.931 . S
C593 C592 1.391 . S
C593 C597 1.376 . S
C594 C592 1.394 . S
C594 C595 1.369 . S
C594 C598 1.531 . S
C595 C594 1.369 . S
C595 C596 1.410 . S
C595 C603 1.503 . S
C596 C595 1.410 . S
C596 C597 1.392 . S
C596 C599 1.511 . S
C597 C593 1.376 . S
C597 C596 1.392 . S
C597 H609 0.929 . S
C598 C594 1.531 . S
C598 H610 0.960 . S
C598 H611 0.962 . S
C598 H612 0.960 . S
C599 C596 1.511 . S
C599 H613 0.961 . S
C599 H614 0.961 . S
C599 H615 0.961 . S
C600 C601 1.370 . S
C600 C602 1.363 . S
C600 H616 0.931 . S
C601 C600 1.370 . S
C601 C605 1.408 . S
C602 C600 1.363 . S
C602 C603 1.370 . S
C602 C606 1.524 . S
C603 C595 1.503 . S
C603 C602 1.370 . S
C603 C604 1.403 . S
C604 C603 1.403 . S
C604 C605 1.404 . S
C604 C607 1.539 . S
C605 C601 1.408 . S
C605 C604 1.404 . S
C605 H617 0.930 . S
C606 C602 1.524 . S
C606 H618 0.956 . S
C606 H619 0.961 . S
C606 H620 0.961 . S
C607 C604 1.539 . S
C607 H621 0.958 . S
C607 H622 0.961 . S
C607 H623 0.960 . S
H608 C592 0.931 . S
H609 C597 0.929 . S
H610 C598 0.960 . S
H611 C598 0.962 . S
H612 C598 0.960 . S
H613 C599 0.961 . S
H614 C599 0.961 . S
H615 C599 0.961 . S
H616 C600 0.931 . S
H617 C605 0.930 . S
H618 C606 0.956 . S
H619 C606 0.961 . S
H620 C606 0.961 . S
H621 C607 0.958 . S
H622 C607 0.961 . S
H623 C607 0.960 . S
C113 C34 1.398 . S
C121 C6 1.420 . S
C145 C48 1.398 . S
C153 C20 1.418 . S
C177 C62 1.426 . S
C185 C90 1.419 . S
C209 C76 1.399 . S
C217 C104 1.418 . S
C241 C22 1.409 1_545 S
C249 C9 1.374 . S
C273 C23 1.346 . S
C281 C36 1.408 1_455 S
C305 C50 1.422 1_565 S
C313 C37 1.396 . S
C337 C51 1.376 . S
C345 C8 1.434 1_655 S
C369 C106 1.426 1_545 S
C377 C65 1.375 . S
C401 C79 1.410 . S
C409 C64 1.429 1_455 S
C433 C93 1.395 . S
C441 C78 1.434 1_565 S
C465 C107 1.391 . S
C473 C92 1.433 1_655 S
C497 C7 1.594 . S
C505 C77 1.589 . S
C529 C91 1.564 . S
C537 C21 1.581 . S
C561 C35 1.566 . S
C569 C105 1.584 . S
C593 C49 1.611 . S
C601 C63 1.600 . S
