# Generated by pormake.
# Topology dei, (4)-cn, num edge types: 1
# Building blocks:
#     Node 0, Type 0, BuildingBlock: AZAVOO_clean_sbu_0, # of connection points: 4
#     Node 1, Type 0, BuildingBlock: AZAVOO_clean_sbu_0, # of connection points: 4
#     Node 2, Type 0, BuildingBlock: AZAVOO_clean_sbu_0, # of connection points: 4
#     Node 3, Type 0, BuildingBlock: AZAVOO_clean_sbu_0, # of connection points: 4
#     Node 4, Type 0, BuildingBlock: AZAVOO_clean_sbu_0, # of connection points: 4
#     Node 5, Type 0, BuildingBlock: AZAVOO_clean_sbu_0, # of connection points: 4
#     Node 6, Type 0, BuildingBlock: AZAVOO_clean_sbu_0, # of connection points: 4
#     Node 7, Type 0, BuildingBlock: AZAVOO_clean_sbu_0, # of connection points: 4
#     Node 8, Type 0, BuildingBlock: AZAVOO_clean_sbu_0, # of connection points: 4
#     Node 9, Type 0, BuildingBlock: AZAVOO_clean_sbu_0, # of connection points: 4
#     Node 10, Type 0, BuildingBlock: AZAVOO_clean_sbu_0, # of connection points: 4
#     Node 11, Type 0, BuildingBlock: AZAVOO_clean_sbu_0, # of connection points: 4
#     Node 12, Type 0, BuildingBlock: AZAVOO_clean_sbu_0, # of connection points: 4
#     Node 13, Type 0, BuildingBlock: AZAVOO_clean_sbu_0, # of connection points: 4
#     Node 14, Type 0, BuildingBlock: AZAVOO_clean_sbu_0, # of connection points: 4
#     Node 15, Type 0, BuildingBlock: AZAVOO_clean_sbu_0, # of connection points: 4
#     Node 16, Type 0, BuildingBlock: AZAVOO_clean_sbu_0, # of connection points: 4
#     Node 17, Type 0, BuildingBlock: AZAVOO_clean_sbu_0, # of connection points: 4
#     Node 18, Type 0, BuildingBlock: AZAVOO_clean_sbu_0, # of connection points: 4
#     Node 19, Type 0, BuildingBlock: AZAVOO_clean_sbu_0, # of connection points: 4
#     Node 20, Type 0, BuildingBlock: AZAVOO_clean_sbu_0, # of connection points: 4
#     Node 21, Type 0, BuildingBlock: AZAVOO_clean_sbu_0, # of connection points: 4
#     Node 22, Type 0, BuildingBlock: AZAVOO_clean_sbu_0, # of connection points: 4
#     Node 23, Type 0, BuildingBlock: AZAVOO_clean_sbu_0, # of connection points: 4
#     Node 24, Type 0, BuildingBlock: AZAVOO_clean_sbu_0, # of connection points: 4
#     Node 25, Type 0, BuildingBlock: AZAVOO_clean_sbu_0, # of connection points: 4
#     Node 26, Type 0, BuildingBlock: AZAVOO_clean_sbu_0, # of connection points: 4
#     Node 27, Type 0, BuildingBlock: AZAVOO_clean_sbu_0, # of connection points: 4
#     Node 28, Type 0, BuildingBlock: AZAVOO_clean_sbu_0, # of connection points: 4
#     Node 29, Type 0, BuildingBlock: AZAVOO_clean_sbu_0, # of connection points: 4
#     Node 30, Type 0, BuildingBlock: AZAVOO_clean_sbu_0, # of connection points: 4
#     Node 31, Type 0, BuildingBlock: AZAVOO_clean_sbu_0, # of connection points: 4
#     Edge 32, Type (0, 0), BuildingBlock: MIFKUJ_clean_linker_0, # of connection points: 2
#     Edge 33, Type (0, 0), BuildingBlock: MIFKUJ_clean_linker_0, # of connection points: 2
#     Edge 34, Type (0, 0), BuildingBlock: MIFKUJ_clean_linker_0, # of connection points: 2
#     Edge 35, Type (0, 0), BuildingBlock: MIFKUJ_clean_linker_0, # of connection points: 2
#     Edge 36, Type (0, 0), BuildingBlock: MIFKUJ_clean_linker_0, # of connection points: 2
#     Edge 37, Type (0, 0), BuildingBlock: MIFKUJ_clean_linker_0, # of connection points: 2
#     Edge 38, Type (0, 0), BuildingBlock: MIFKUJ_clean_linker_0, # of connection points: 2
#     Edge 39, Type (0, 0), BuildingBlock: MIFKUJ_clean_linker_0, # of connection points: 2
#     Edge 40, Type (0, 0), BuildingBlock: MIFKUJ_clean_linker_0, # of connection points: 2
#     Edge 41, Type (0, 0), BuildingBlock: MIFKUJ_clean_linker_0, # of connection points: 2
#     Edge 42, Type (0, 0), BuildingBlock: MIFKUJ_clean_linker_0, # of connection points: 2
#     Edge 43, Type (0, 0), BuildingBlock: MIFKUJ_clean_linker_0, # of connection points: 2
#     Edge 44, Type (0, 0), BuildingBlock: MIFKUJ_clean_linker_0, # of connection points: 2
#     Edge 45, Type (0, 0), BuildingBlock: MIFKUJ_clean_linker_0, # of connection points: 2
#     Edge 46, Type (0, 0), BuildingBlock: MIFKUJ_clean_linker_0, # of connection points: 2
#     Edge 47, Type (0, 0), BuildingBlock: MIFKUJ_clean_linker_0, # of connection points: 2
#     Edge 48, Type (0, 0), BuildingBlock: MIFKUJ_clean_linker_0, # of connection points: 2
#     Edge 49, Type (0, 0), BuildingBlock: MIFKUJ_clean_linker_0, # of connection points: 2
#     Edge 50, Type (0, 0), BuildingBlock: MIFKUJ_clean_linker_0, # of connection points: 2
#     Edge 51, Type (0, 0), BuildingBlock: MIFKUJ_clean_linker_0, # of connection points: 2
#     Edge 52, Type (0, 0), BuildingBlock: MIFKUJ_clean_linker_0, # of connection points: 2
#     Edge 53, Type (0, 0), BuildingBlock: MIFKUJ_clean_linker_0, # of connection points: 2
#     Edge 54, Type (0, 0), BuildingBlock: MIFKUJ_clean_linker_0, # of connection points: 2
#     Edge 55, Type (0, 0), BuildingBlock: MIFKUJ_clean_linker_0, # of connection points: 2
#     Edge 56, Type (0, 0), BuildingBlock: MIFKUJ_clean_linker_0, # of connection points: 2
#     Edge 57, Type (0, 0), BuildingBlock: MIFKUJ_clean_linker_0, # of connection points: 2
#     Edge 58, Type (0, 0), BuildingBlock: MIFKUJ_clean_linker_0, # of connection points: 2
#     Edge 59, Type (0, 0), BuildingBlock: MIFKUJ_clean_linker_0, # of connection points: 2
#     Edge 60, Type (0, 0), BuildingBlock: MIFKUJ_clean_linker_0, # of connection points: 2
#     Edge 61, Type (0, 0), BuildingBlock: MIFKUJ_clean_linker_0, # of connection points: 2
#     Edge 62, Type (0, 0), BuildingBlock: MIFKUJ_clean_linker_0, # of connection points: 2
#     Edge 63, Type (0, 0), BuildingBlock: MIFKUJ_clean_linker_0, # of connection points: 2
#     Edge 64, Type (0, 0), BuildingBlock: MIFKUJ_clean_linker_0, # of connection points: 2
#     Edge 65, Type (0, 0), BuildingBlock: MIFKUJ_clean_linker_0, # of connection points: 2
#     Edge 66, Type (0, 0), BuildingBlock: MIFKUJ_clean_linker_0, # of connection points: 2
#     Edge 67, Type (0, 0), BuildingBlock: MIFKUJ_clean_linker_0, # of connection points: 2
#     Edge 68, Type (0, 0), BuildingBlock: MIFKUJ_clean_linker_0, # of connection points: 2
#     Edge 69, Type (0, 0), BuildingBlock: MIFKUJ_clean_linker_0, # of connection points: 2
#     Edge 70, Type (0, 0), BuildingBlock: MIFKUJ_clean_linker_0, # of connection points: 2
#     Edge 71, Type (0, 0), BuildingBlock: MIFKUJ_clean_linker_0, # of connection points: 2
#     Edge 72, Type (0, 0), BuildingBlock: MIFKUJ_clean_linker_0, # of connection points: 2
#     Edge 73, Type (0, 0), BuildingBlock: MIFKUJ_clean_linker_0, # of connection points: 2
#     Edge 74, Type (0, 0), BuildingBlock: MIFKUJ_clean_linker_0, # of connection points: 2
#     Edge 75, Type (0, 0), BuildingBlock: MIFKUJ_clean_linker_0, # of connection points: 2
#     Edge 76, Type (0, 0), BuildingBlock: MIFKUJ_clean_linker_0, # of connection points: 2
#     Edge 77, Type (0, 0), BuildingBlock: MIFKUJ_clean_linker_0, # of connection points: 2
#     Edge 78, Type (0, 0), BuildingBlock: MIFKUJ_clean_linker_0, # of connection points: 2
#     Edge 79, Type (0, 0), BuildingBlock: MIFKUJ_clean_linker_0, # of connection points: 2
#     Edge 80, Type (0, 0), BuildingBlock: MIFKUJ_clean_linker_0, # of connection points: 2
#     Edge 81, Type (0, 0), BuildingBlock: MIFKUJ_clean_linker_0, # of connection points: 2
#     Edge 82, Type (0, 0), BuildingBlock: MIFKUJ_clean_linker_0, # of connection points: 2
#     Edge 83, Type (0, 0), BuildingBlock: MIFKUJ_clean_linker_0, # of connection points: 2
#     Edge 84, Type (0, 0), BuildingBlock: MIFKUJ_clean_linker_0, # of connection points: 2
#     Edge 85, Type (0, 0), BuildingBlock: MIFKUJ_clean_linker_0, # of connection points: 2
#     Edge 86, Type (0, 0), BuildingBlock: MIFKUJ_clean_linker_0, # of connection points: 2
#     Edge 87, Type (0, 0), BuildingBlock: MIFKUJ_clean_linker_0, # of connection points: 2
#     Edge 88, Type (0, 0), BuildingBlock: MIFKUJ_clean_linker_0, # of connection points: 2
#     Edge 89, Type (0, 0), BuildingBlock: MIFKUJ_clean_linker_0, # of connection points: 2
#     Edge 90, Type (0, 0), BuildingBlock: MIFKUJ_clean_linker_0, # of connection points: 2
#     Edge 91, Type (0, 0), BuildingBlock: MIFKUJ_clean_linker_0, # of connection points: 2
#     Edge 92, Type (0, 0), BuildingBlock: MIFKUJ_clean_linker_0, # of connection points: 2
#     Edge 93, Type (0, 0), BuildingBlock: MIFKUJ_clean_linker_0, # of connection points: 2
#     Edge 94, Type (0, 0), BuildingBlock: MIFKUJ_clean_linker_0, # of connection points: 2
#     Edge 95, Type (0, 0), BuildingBlock: MIFKUJ_clean_linker_0, # of connection points: 2
# Relax obj value: 0.222
# Max RMSD: 0.106
# Mean RMSD: 0.106
data_MOF--net-dei--node1-AZAVOO_clean_sbu_0--edge1-MIFKUJ_clean_linker_0
_symmetry_space_group_name_H-M    P1
_symmetry_Int_Tables_number       1
_symmetry_cell_setting            triclinic
loop_
_symmetry_equiv_pos_as_xyz
'x, y, z'
_cell_length_a     65.171577
_cell_length_b     65.134986
_cell_length_c     132.68654
_cell_angle_alpha  89.959441
_cell_angle_beta   89.99866
_cell_angle_gamma 89.950652
loop_
_atom_site_label
_atom_site_type_symbol
_atom_site_fract_x
_atom_site_fract_y
_atom_site_fract_z
_atom_type_partial_charge
Mg0 Mg 0.15776 0.60088 0.04021 0.0
O1 O 0.12263 0.6051 0.04116 0.0
O2 O 0.11672 0.6324 0.05095 0.0
Mg3 Mg 0.14724 0.64457 0.05679 0.0
C4 C 0.11032 0.61771 0.04542 0.0
C5 C 0.16528 0.57113 0.02404 0.0
O6 O 0.17808 0.58652 0.0229 0.0
O7 O 0.15782 0.58611 0.0559 0.0
O8 O 0.15115 0.6141 0.06519 0.0
O9 O 0.15863 0.6233 0.02751 0.0
O10 O 0.16231 0.6317 0.04353 0.0
C11 C 0.15473 0.59489 0.06438 0.0
C12 C 0.1606 0.63739 0.03428 0.0
O13 O 0.15382 0.5708 0.0318 0.0
Mg14 Mg 0.63992 0.92989 0.29016 0.0
O15 O 0.63729 0.89463 0.29143 0.0
O16 O 0.608 0.88726 0.29941 0.0
Mg17 Mg 0.5936 0.91742 0.30445 0.0
C18 C 0.62434 0.88166 0.29486 0.0
C19 C 0.67544 0.93676 0.27615 0.0
O20 O 0.66145 0.9501 0.2733 0.0
O21 O 0.65081 0.93167 0.3065 0.0
O22 O 0.62174 0.92316 0.31449 0.0
O23 O 0.62096 0.92879 0.27624 0.0
O24 O 0.60818 0.93271 0.29155 0.0
C25 C 0.64069 0.92813 0.31455 0.0
C26 C 0.60508 0.92978 0.28206 0.0
O27 O 0.67208 0.92602 0.28397 0.0
Mg28 Mg 0.35765 0.39097 0.53709 0.0
O29 O 0.39077 0.38143 0.54034 0.0
O30 O 0.38995 0.35152 0.54859 0.0
Mg31 Mg 0.35626 0.34173 0.55032 0.0
C32 C 0.39986 0.36647 0.54469 0.0
C33 C 0.35343 0.43564 0.53134 0.0
O34 O 0.33557 0.43112 0.53537 0.0
O35 O 0.35358 0.40036 0.55361 0.0
O36 O 0.35006 0.36925 0.56067 0.0
O37 O 0.35836 0.37322 0.52266 0.0
O38 O 0.34827 0.36064 0.53731 0.0
C39 C 0.34989 0.38884 0.56119 0.0
C40 C 0.35218 0.35769 0.52793 0.0
O41 O 0.36781 0.42257 0.53204 0.0
Mg42 Mg 0.85616 0.09307 0.7937 0.0
O43 O 0.85991 0.12821 0.79522 0.0
O44 O 0.88797 0.13327 0.80459 0.0
Mg45 Mg 0.90172 0.1025 0.80919 0.0
C46 C 0.87278 0.14015 0.79952 0.0
C47 C 0.82402 0.08402 0.77897 0.0
O48 O 0.83914 0.07086 0.77785 0.0
O49 O 0.84336 0.09098 0.80988 0.0
O50 O 0.8728 0.0955 0.8182 0.0
O51 O 0.87708 0.09344 0.78029 0.0
O52 O 0.88747 0.08886 0.79594 0.0
C53 C 0.85355 0.09192 0.81811 0.0
C54 C 0.89204 0.09126 0.78659 0.0
O55 O 0.82495 0.09672 0.78623 0.0
Mg56 Mg 0.14532 0.37281 0.94138 0.0
O57 O 0.11035 0.36914 0.93884 0.0
O58 O 0.10602 0.33779 0.93231 0.0
Mg59 Mg 0.13707 0.32236 0.93011 0.0
C60 C 0.09876 0.35476 0.93556 0.0
C61 C 0.15719 0.41098 0.95093 0.0
O62 O 0.17124 0.39688 0.95259 0.0
O63 O 0.1507 0.3787 0.92462 0.0
O64 O 0.14654 0.34694 0.91863 0.0
O65 O 0.1418 0.35841 0.95648 0.0
O66 O 0.14856 0.34128 0.94248 0.0
C67 C 0.1508 0.3659 0.91733 0.0
C68 C 0.14407 0.34099 0.95194 0.0
O69 O 0.14227 0.40653 0.94517 0.0
Mg70 Mg 0.85408 0.89598 0.18461 0.0
O71 O 0.85477 0.86082 0.18247 0.0
O72 O 0.87965 0.85372 0.17142 0.0
Mg73 Mg 0.89391 0.88377 0.1661 0.0
C74 C 0.86537 0.84798 0.17737 0.0
C75 C 0.82372 0.88257 0.20119 0.0
O76 O 0.83983 0.87129 0.2034 0.0
O77 O 0.83762 0.90002 0.16954 0.0
O78 O 0.8631 0.89242 0.15883 0.0
O79 O 0.87799 0.89349 0.19656 0.0
O80 O 0.88473 0.89796 0.18039 0.0
C81 C 0.8446 0.89778 0.16063 0.0
C82 C 0.8914 0.89488 0.1894 0.0
O83 O 0.82421 0.89381 0.19335 0.0
Mg84 Mg 0.31794 0.59323 0.43435 0.0
O85 O 0.35225 0.6009 0.43332 0.0
O86 O 0.35553 0.63242 0.42687 0.0
Mg87 Mg 0.32338 0.64442 0.42338 0.0
C88 C 0.36334 0.61597 0.43044 0.0
C89 C 0.31317 0.55221 0.44419 0.0
O90 O 0.29543 0.56144 0.44549 0.0
O91 O 0.31736 0.5869 0.4174 0.0
O92 O 0.32016 0.61896 0.41154 0.0
O93 O 0.31704 0.60794 0.44946 0.0
O94 O 0.31095 0.62438 0.43519 0.0
C95 C 0.31831 0.59965 0.41008 0.0
C96 C 0.31392 0.62509 0.44479 0.0
O97 O 0.32631 0.56061 0.43846 0.0
Mg98 Mg 0.63432 0.08701 0.68804 0.0
O99 O 0.62807 0.12132 0.6854 0.0
O100 O 0.60038 0.12347 0.6755 0.0
Mg101 Mg 0.58883 0.09102 0.67193 0.0
C102 C 0.61482 0.13189 0.68053 0.0
C103 C 0.66604 0.08269 0.70352 0.0
O104 O 0.65121 0.06951 0.7053 0.0
O105 O 0.64774 0.08439 0.67205 0.0
O106 O 0.6184 0.08448 0.66323 0.0
O107 O 0.61271 0.08738 0.70121 0.0
O108 O 0.60366 0.0801 0.68561 0.0
C109 C 0.6379 0.08276 0.66374 0.0
C110 C 0.5984 0.08305 0.69482 0.0
O111 O 0.66496 0.09369 0.69562 0.0
Mg112 Mg 0.83427 0.3856 0.94217 0.0
O113 O 0.86804 0.37692 0.93968 0.0
O114 O 0.86908 0.34518 0.93334 0.0
Mg115 Mg 0.83598 0.33415 0.93125 0.0
C116 C 0.87807 0.36138 0.93648 0.0
C117 C 0.82858 0.43078 0.94701 0.0
O118 O 0.80998 0.42483 0.94455 0.0
O119 O 0.83032 0.39175 0.9253 0.0
O120 O 0.83047 0.35951 0.91952 0.0
O121 O 0.83551 0.37063 0.9573 0.0
O122 O 0.82612 0.35497 0.94325 0.0
C123 C 0.82887 0.37885 0.91807 0.0
C124 C 0.83021 0.35393 0.95272 0.0
O125 O 0.84334 0.41832 0.94575 0.0
Mg126 Mg 0.35043 0.07769 0.68426 0.0
O127 O 0.35779 0.11185 0.68196 0.0
O128 O 0.38627 0.11345 0.67259 0.0
Mg129 Mg 0.3971 0.08076 0.66902 0.0
C130 C 0.37171 0.12215 0.67743 0.0
C131 C 0.31765 0.07265 0.69871 0.0
O132 O 0.33161 0.05828 0.6999 0.0
O133 O 0.3382 0.0759 0.66809 0.0
O134 O 0.36802 0.07529 0.65964 0.0
O135 O 0.37044 0.07747 0.69787 0.0
O136 O 0.38119 0.07014 0.6825 0.0
C137 C 0.34845 0.07425 0.65992 0.0
C138 C 0.38543 0.07322 0.69185 0.0
O139 O 0.31949 0.08493 0.69131 0.0
Mg140 Mg 0.6304 0.60139 0.43645 0.0
O141 O 0.59529 0.60557 0.43494 0.0
O142 O 0.59022 0.63355 0.42549 0.0
Mg143 Mg 0.62108 0.64607 0.42035 0.0
C144 C 0.58336 0.61855 0.43069 0.0
C145 C 0.64298 0.56391 0.44774 0.0
O146 O 0.66005 0.57359 0.44547 0.0
O147 O 0.63209 0.58779 0.42056 0.0
O148 O 0.62616 0.61629 0.41152 0.0
O149 O 0.63053 0.6228 0.44956 0.0
O150 O 0.63501 0.63237 0.43374 0.0
C151 C 0.62983 0.59706 0.41214 0.0
C152 C 0.63279 0.63741 0.44305 0.0
O153 O 0.62625 0.57059 0.44409 0.0
Mg154 Mg 0.14469 0.91382 0.19124 0.0
O155 O 0.14132 0.87937 0.18755 0.0
O156 O 0.11639 0.87651 0.17605 0.0
Mg157 Mg 0.10476 0.90851 0.17195 0.0
C158 C 0.12986 0.86849 0.18183 0.0
C159 C 0.17223 0.916 0.20912 0.0
O160 O 0.15624 0.92763 0.21107 0.0
O161 O 0.16239 0.91888 0.17648 0.0
O162 O 0.13632 0.91654 0.1655 0.0
O163 O 0.1199 0.91074 0.20275 0.0
O164 O 0.1144 0.91903 0.18685 0.0
C165 C 0.15521 0.91965 0.16752 0.0
C166 C 0.10703 0.91434 0.19555 0.0
O167 O 0.17343 0.90749 0.20051 0.0
Mg168 Mg 0.84381 0.59945 0.04476 0.0
O169 O 0.87914 0.60248 0.04544 0.0
O170 O 0.88603 0.62949 0.05527 0.0
Mg171 Mg 0.85607 0.64302 0.06103 0.0
C172 C 0.89189 0.61463 0.0497 0.0
C173 C 0.83055 0.56437 0.03191 0.0
O174 O 0.81437 0.57627 0.03285 0.0
O175 O 0.84323 0.5854 0.06055 0.0
O176 O 0.85079 0.61311 0.06982 0.0
O177 O 0.84299 0.62085 0.03175 0.0
O178 O 0.84061 0.63067 0.04765 0.0
C179 C 0.84647 0.59405 0.06903 0.0
C180 C 0.84205 0.63559 0.03827 0.0
O181 O 0.84657 0.56874 0.03692 0.0
Mg182 Mg 0.13921 0.08796 0.79372 0.0
O183 O 0.13399 0.12312 0.79312 0.0
O184 O 0.10534 0.12968 0.80183 0.0
Mg185 Mg 0.09382 0.10004 0.80885 0.0
C186 C 0.12039 0.13563 0.7964 0.0
C187 C 0.17085 0.07722 0.77916 0.0
O188 O 0.15643 0.06313 0.77905 0.0
O189 O 0.15242 0.09069 0.80967 0.0
O190 O 0.12358 0.09846 0.81804 0.0
O191 O 0.11844 0.08445 0.78055 0.0
O192 O 0.10809 0.08331 0.7964 0.0
C193 C 0.14289 0.09514 0.8178 0.0
C194 C 0.10353 0.08363 0.78695 0.0
O195 O 0.16994 0.0912 0.78582 0.0
Mg196 Mg 0.66335 0.39297 0.5409 0.0
O197 O 0.63021 0.38205 0.54291 0.0
O198 O 0.63078 0.35075 0.5498 0.0
Mg199 Mg 0.66454 0.34162 0.552 0.0
C200 C 0.62099 0.36621 0.54631 0.0
C201 C 0.66611 0.4365 0.53358 0.0
O202 O 0.68524 0.43016 0.53404 0.0
O203 O 0.66516 0.39932 0.55781 0.0
O204 O 0.66817 0.36725 0.56376 0.0
O205 O 0.66403 0.37819 0.5258 0.0
O206 O 0.67339 0.36282 0.53995 0.0
C207 C 0.66777 0.38668 0.56507 0.0
C208 C 0.66969 0.36165 0.53043 0.0
O209 O 0.65216 0.42492 0.53708 0.0
Mg210 Mg 0.36794 0.88249 0.29486 0.0
O211 O 0.36888 0.84744 0.29694 0.0
O212 O 0.39674 0.84078 0.30622 0.0
Mg213 Mg 0.4142 0.87061 0.30934 0.0
C214 C 0.38073 0.83483 0.30149 0.0
C215 C 0.33373 0.89463 0.28166 0.0
O216 O 0.34949 0.90659 0.27976 0.0
O217 O 0.35767 0.88675 0.3113 0.0
O218 O 0.38789 0.88269 0.31911 0.0
O219 O 0.38664 0.88009 0.28077 0.0
O220 O 0.39979 0.88388 0.29596 0.0
C221 C 0.36885 0.88733 0.31922 0.0
C222 C 0.40271 0.88131 0.28645 0.0
O223 O 0.33537 0.88149 0.28871 0.0
Mg224 Mg 0.64348 0.12034 0.53794 0.0
O225 O 0.60941 0.12635 0.54125 0.0
O226 O 0.60779 0.15547 0.55012 0.0
Mg227 Mg 0.64036 0.16813 0.55232 0.0
C228 C 0.59911 0.14017 0.54586 0.0
C229 C 0.64825 0.08587 0.52417 0.0
O230 O 0.66138 0.10042 0.52185 0.0
O231 O 0.64864 0.10963 0.55426 0.0
O232 O 0.64936 0.14028 0.56194 0.0
O233 O 0.64125 0.13957 0.52396 0.0
O234 O 0.65005 0.15139 0.53892 0.0
C235 C 0.65146 0.12077 0.56208 0.0
C236 C 0.64619 0.15497 0.52959 0.0
O237 O 0.63689 0.08838 0.53187 0.0
Mg238 Mg 0.14595 0.40052 0.79209 0.0
O239 O 0.1383 0.36596 0.79178 0.0
O240 O 0.11091 0.36081 0.80159 0.0
Mg241 Mg 0.10228 0.39133 0.80884 0.0
C242 C 0.12476 0.35412 0.79563 0.0
C243 C 0.18027 0.40949 0.77779 0.0
O244 O 0.17017 0.42686 0.7787 0.0
O245 O 0.1613 0.39673 0.80748 0.0
O246 O 0.13333 0.39111 0.81693 0.0
O247 O 0.12322 0.40615 0.77983 0.0
O248 O 0.11603 0.40761 0.7961 0.0
C249 C 0.15273 0.39307 0.81595 0.0
C250 C 0.10975 0.40838 0.78691 0.0
O251 O 0.17504 0.3944 0.78328 0.0
Mg252 Mg 0.84091 0.88254 0.03806 0.0
O253 O 0.87508 0.88392 0.04249 0.0
O254 O 0.88117 0.85643 0.05218 0.0
Mg255 Mg 0.85195 0.83721 0.05354 0.0
C256 C 0.88716 0.87289 0.04784 0.0
C257 C 0.82532 0.92072 0.02763 0.0
O258 O 0.80914 0.90874 0.02816 0.0
O259 O 0.83162 0.89279 0.05403 0.0
O260 O 0.83688 0.86331 0.06226 0.0
O261 O 0.84854 0.86373 0.02436 0.0
O262 O 0.8418 0.85093 0.03943 0.0
C263 C 0.83065 0.88189 0.06203 0.0
C264 C 0.84757 0.84798 0.03028 0.0
O265 O 0.84175 0.91501 0.03195 0.0
Mg266 Mg 0.35879 0.57128 0.28338 0.0
O267 O 0.36524 0.60568 0.28618 0.0
O268 O 0.396 0.608 0.29355 0.0
Mg269 Mg 0.40898 0.57564 0.29545 0.0
C270 C 0.37974 0.61631 0.29004 0.0
C271 C 0.3154 0.56318 0.27628 0.0
O272 O 0.32328 0.54469 0.27721 0.0
O273 O 0.35151 0.56713 0.3001 0.0
O274 O 0.38301 0.56902 0.30669 0.0
O275 O 0.37441 0.57343 0.26852 0.0
O276 O 0.39007 0.56534 0.28276 0.0
C277 C 0.36366 0.56654 0.30766 0.0
C278 C 0.39131 0.56977 0.27331 0.0
O279 O 0.32588 0.57844 0.27925 0.0
Mg280 Mg 0.64992 0.88576 0.43934 0.0
O281 O 0.61539 0.87986 0.43661 0.0
O282 O 0.61326 0.85144 0.42722 0.0
Mg283 Mg 0.64539 0.83987 0.42353 0.0
C284 C 0.60484 0.8662 0.43202 0.0
C285 C 0.65401 0.91786 0.45462 0.0
O286 O 0.66713 0.90305 0.45656 0.0
O287 O 0.65354 0.89886 0.42329 0.0
O288 O 0.65168 0.86935 0.41477 0.0
O289 O 0.64839 0.86476 0.45266 0.0
O290 O 0.65623 0.8547 0.43726 0.0
C291 C 0.65414 0.8888 0.41502 0.0
C292 C 0.65217 0.84996 0.44645 0.0
O293 O 0.64332 0.91669 0.44662 0.0
Mg294 Mg 0.35929 0.38785 0.68932 0.0
O295 O 0.3648 0.35346 0.6864 0.0
O296 O 0.3959 0.35062 0.67938 0.0
Mg297 Mg 0.41057 0.38249 0.67841 0.0
C298 C 0.37923 0.34263 0.6826 0.0
C299 C 0.31489 0.39826 0.69404 0.0
O300 O 0.32311 0.41634 0.69231 0.0
O301 O 0.35414 0.39317 0.67247 0.0
O302 O 0.38641 0.39212 0.66677 0.0
O303 O 0.37297 0.38497 0.70468 0.0
O304 O 0.39061 0.39187 0.69084 0.0
C305 C 0.36724 0.39502 0.66536 0.0
C306 C 0.39052 0.38759 0.70032 0.0
O307 O 0.32562 0.38233 0.69242 0.0
Mg308 Mg 0.8333 0.11444 0.94235 0.0
O309 O 0.86763 0.1192 0.93907 0.0
O310 O 0.87095 0.1496 0.93143 0.0
Mg311 Mg 0.83902 0.16378 0.92954 0.0
C312 C 0.87872 0.13316 0.93505 0.0
C313 C 0.8232 0.07118 0.94918 0.0
O314 O 0.80509 0.07932 0.94742 0.0
O315 O 0.82737 0.10636 0.9258 0.0
O316 O 0.83011 0.13754 0.91888 0.0
O317 O 0.83706 0.1313 0.95691 0.0
O318 O 0.82842 0.14586 0.94246 0.0
C319 C 0.82654 0.1183 0.91815 0.0
C320 C 0.83314 0.14781 0.95182 0.0
O321 O 0.8391 0.08145 0.94693 0.0
Mg322 Mg 0.12724 0.60154 0.18985 0.0
O323 O 0.12736 0.63663 0.18728 0.0
O324 O 0.09843 0.6439 0.17892 0.0
Mg325 Mg 0.07985 0.61461 0.17648 0.0
C326 C 0.11527 0.64947 0.18302 0.0
C327 C 0.16684 0.58431 0.19786 0.0
O328 O 0.15511 0.56817 0.19641 0.0
O329 O 0.13545 0.59599 0.17325 0.0
O330 O 0.10507 0.60237 0.16609 0.0
O331 O 0.11031 0.60536 0.20444 0.0
O332 O 0.09555 0.60174 0.18955 0.0
C333 C 0.12378 0.59662 0.1655 0.0
C334 C 0.09378 0.60516 0.19906 0.0
O335 O 0.16038 0.60173 0.19494 0.0
Mg336 Mg 0.33983 0.8672 0.44521 0.0
O337 O 0.37406 0.86196 0.44216 0.0
O338 O 0.37717 0.83445 0.43224 0.0
Mg339 Mg 0.345 0.82159 0.42927 0.0
C340 C 0.38506 0.84931 0.43717 0.0
C341 C 0.35882 0.89967 0.45928 0.0
O342 O 0.36791 0.88285 0.46245 0.0
O343 O 0.33615 0.87987 0.42915 0.0
O344 O 0.33691 0.85053 0.42035 0.0
O345 O 0.34103 0.84613 0.45861 0.0
O346 O 0.334 0.83619 0.44311 0.0
C347 C 0.33455 0.86997 0.42087 0.0
C348 C 0.33727 0.83136 0.45237 0.0
O349 O 0.34672 0.89864 0.45178 0.0
Mg350 Mg 0.85259 0.58353 0.19476 0.0
O351 O 0.85424 0.61817 0.19114 0.0
O352 O 0.88466 0.62375 0.18384 0.0
Mg353 Mg 0.90266 0.59371 0.18332 0.0
C354 C 0.86731 0.63016 0.18701 0.0
C355 C 0.81046 0.57027 0.20201 0.0
O356 O 0.82098 0.55305 0.20209 0.0
O357 O 0.84727 0.57639 0.17798 0.0
O358 O 0.87903 0.58139 0.17213 0.0
O359 O 0.86708 0.58927 0.20985 0.0
O360 O 0.88418 0.58244 0.19584 0.0
C361 C 0.86035 0.57612 0.1708 0.0
C362 C 0.88441 0.58761 0.20518 0.0
O363 O 0.81876 0.58622 0.19832 0.0
Mg364 Mg 0.14464 0.1123 0.94454 0.0
O365 O 0.11021 0.11666 0.94095 0.0
O366 O 0.10716 0.14862 0.93493 0.0
Mg367 Mg 0.13863 0.16388 0.93421 0.0
C368 C 0.09929 0.13144 0.9375 0.0
C369 C 0.15605 0.07395 0.95357 0.0
O370 O 0.1701 0.08806 0.95513 0.0
O371 O 0.15177 0.10772 0.92777 0.0
O372 O 0.14849 0.14009 0.9224 0.0
O373 O 0.13908 0.12555 0.95977 0.0
O374 O 0.14837 0.14361 0.94639 0.0
C375 C 0.15252 0.12118 0.92076 0.0
C376 C 0.14263 0.1432 0.95567 0.0
O377 O 0.14108 0.07835 0.94782 0.0
Mg378 Mg 0.62601 0.3976 0.6924 0.0
O379 O 0.62085 0.36323 0.68938 0.0
O380 O 0.59105 0.36056 0.68113 0.0
Mg381 Mg 0.57711 0.39267 0.67925 0.0
C382 C 0.60706 0.35245 0.68503 0.0
C383 C 0.66331 0.40571 0.7038 0.0
O384 O 0.64965 0.41999 0.70583 0.0
O385 O 0.63455 0.40217 0.6759 0.0
O386 O 0.60363 0.40118 0.66857 0.0
O387 O 0.60922 0.39502 0.70694 0.0
O388 O 0.59471 0.40284 0.69237 0.0
C389 C 0.62307 0.40369 0.66813 0.0
C390 C 0.59275 0.39878 0.70183 0.0
O391 O 0.65884 0.39219 0.69726 0.0
Mg392 Mg 0.33516 0.11513 0.53379 0.0
O393 O 0.36869 0.12358 0.53733 0.0
O394 O 0.36848 0.15374 0.54536 0.0
Mg395 Mg 0.3351 0.16406 0.54731 0.0
C396 C 0.37808 0.13848 0.54157 0.0
C397 C 0.33495 0.07863 0.52064 0.0
O398 O 0.3215 0.09183 0.5171 0.0
O399 O 0.33034 0.10552 0.55022 0.0
O400 O 0.3291 0.13634 0.55761 0.0
O401 O 0.33726 0.13317 0.51952 0.0
O402 O 0.32683 0.14585 0.53409 0.0
C403 C 0.32793 0.11677 0.55802 0.0
C404 C 0.3316 0.14886 0.5248 0.0
O405 O 0.34445 0.08312 0.52871 0.0
Mg406 Mg 0.62263 0.61681 0.28734 0.0
O407 O 0.62555 0.65177 0.28944 0.0
O408 O 0.59802 0.66178 0.29821 0.0
Mg409 Mg 0.57689 0.63427 0.30077 0.0
C410 C 0.61501 0.6657 0.29383 0.0
C411 C 0.66133 0.59654 0.27964 0.0
O412 O 0.64914 0.581 0.28164 0.0
O413 O 0.63073 0.61097 0.30394 0.0
O414 O 0.6009 0.61958 0.31109 0.0
O415 O 0.60558 0.62124 0.27288 0.0
O416 O 0.59086 0.6189 0.2878 0.0
C417 C 0.61908 0.61231 0.31167 0.0
C418 C 0.589 0.62159 0.27824 0.0
O419 O 0.65556 0.6145 0.28206 0.0
Mg420 Mg 0.15158 0.88703 0.04448 0.0
O421 O 0.11688 0.88766 0.04762 0.0
O422 O 0.11029 0.86132 0.05793 0.0
Mg423 Mg 0.13997 0.84372 0.06113 0.0
C424 C 0.10438 0.87688 0.05283 0.0
C425 C 0.16107 0.91648 0.02863 0.0
O426 O 0.17209 0.89978 0.02734 0.0
O427 O 0.15839 0.90022 0.06023 0.0
O428 O 0.15307 0.87169 0.06927 0.0
O429 O 0.14641 0.86561 0.03153 0.0
O430 O 0.15265 0.85561 0.0471 0.0
C431 C 0.15875 0.89041 0.0686 0.0
C432 C 0.14846 0.85082 0.03794 0.0
O433 O 0.15015 0.91793 0.03655 0.0
Mg434 Mg 0.85571 0.40665 0.79209 0.0
O435 O 0.86081 0.37181 0.79377 0.0
O436 O 0.88644 0.36726 0.80474 0.0
Mg437 Mg 0.89707 0.3986 0.81038 0.0
C438 C 0.8729 0.36011 0.79874 0.0
C439 C 0.82778 0.41022 0.77449 0.0
O440 O 0.84351 0.42229 0.77272 0.0
O441 O 0.83883 0.40736 0.80722 0.0
O442 O 0.86551 0.40308 0.8177 0.0
O443 O 0.87983 0.4077 0.78019 0.0
O444 O 0.88593 0.41243 0.79638 0.0
C445 C 0.8464 0.40586 0.81607 0.0
C446 C 0.89292 0.41066 0.78735 0.0
O447 O 0.82679 0.40096 0.78291 0.0
H448 H 0.16274 0.58351 0.1603 0.0
H449 H 0.17459 0.57254 0.14355 0.0
H450 H 0.11417 0.58393 0.13149 0.0
H451 H 0.10228 0.59463 0.14796 0.0
H452 H 0.12941 0.54803 0.12459 0.0
H453 H 0.15311 0.61896 0.12908 0.0
H454 H 0.17338 0.64581 0.13761 0.0
H455 H 0.22864 0.61155 0.13224 0.0
H456 H 0.20862 0.58439 0.12377 0.0
H457 H 0.12279 0.58969 0.07687 0.0
H458 H 0.12411 0.57808 0.09433 0.0
H459 H 0.18834 0.56343 0.09091 0.0
H460 H 0.18688 0.57498 0.07323 0.0
H461 H 0.18101 0.59006 0.10647 0.0
H462 H 0.15593 0.52493 0.09692 0.0
H463 H 0.13433 0.50012 0.08776 0.0
H464 H 0.08054 0.52436 0.10217 0.0
H465 H 0.10175 0.54951 0.11131 0.0
C466 C 0.15201 0.58363 0.15407 0.0
C467 C 0.13158 0.59005 0.1555 0.0
C468 C 0.15879 0.57732 0.14452 0.0
C469 C 0.14523 0.57735 0.13628 0.0
C470 C 0.12486 0.58356 0.13775 0.0
C471 C 0.11813 0.58986 0.1472 0.0
C472 C 0.15197 0.57201 0.12593 0.0
C473 C 0.14082 0.55707 0.12062 0.0
C474 C 0.16739 0.58325 0.12086 0.0
C475 C 0.17937 0.59955 0.12593 0.0
C476 C 0.16957 0.6171 0.12979 0.0
C477 C 0.181 0.63237 0.1346 0.0
C478 C 0.20227 0.63035 0.1355 0.0
C479 C 0.21216 0.61307 0.13156 0.0
C480 C 0.20078 0.59773 0.12676 0.0
C481 C 0.13696 0.58322 0.07974 0.0
C482 C 0.15466 0.58293 0.07375 0.0
C483 C 0.13774 0.57657 0.08971 0.0
C484 C 0.1563 0.56972 0.09392 0.0
C485 C 0.17383 0.56847 0.08778 0.0
C486 C 0.17297 0.5749 0.0777 0.0
C487 C 0.15758 0.56692 0.105 0.0
C488 C 0.17023 0.58033 0.11047 0.0
C489 C 0.14338 0.55439 0.1102 0.0
C490 C 0.13049 0.53912 0.10482 0.0
C491 C 0.13949 0.52503 0.09811 0.0
C492 C 0.12731 0.5109 0.09292 0.0
C493 C 0.10608 0.51066 0.09438 0.0
C494 C 0.09699 0.52453 0.10106 0.0
C495 C 0.1091 0.5387 0.10627 0.0
H496 H 0.09667 0.49972 0.09035 0.0
H497 H 0.21111 0.64219 0.13922 0.0
H498 H 0.65776 0.87094 0.39663 0.0
H499 H 0.66455 0.88695 0.38057 0.0
H500 H 0.6668 0.94645 0.39477 0.0
H501 H 0.65973 0.93031 0.41122 0.0
H502 H 0.64363 0.9464 0.37727 0.0
H503 H 0.71093 0.92762 0.3858 0.0
H504 H 0.73891 0.90626 0.39263 0.0
H505 H 0.72725 0.86043 0.37011 0.0
H506 H 0.699 0.88133 0.36324 0.0
H507 H 0.65852 0.96149 0.32341 0.0
H508 H 0.66991 0.96406 0.3411 0.0
H509 H 0.65678 0.89972 0.34532 0.0
H510 H 0.64483 0.89735 0.32789 0.0
H511 H 0.69533 0.91503 0.35451 0.0
H512 H 0.62099 0.93036 0.35106 0.0
H513 H 0.59267 0.95155 0.3444 0.0
H514 H 0.61959 0.00536 0.3576 0.0
H515 H 0.64822 0.98446 0.36423 0.0
C516 C 0.65976 0.88744 0.39646 0.0
C517 C 0.65824 0.89931 0.40529 0.0
C518 C 0.66383 0.89658 0.38722 0.0
C519 C 0.66668 0.91784 0.38649 0.0
C520 C 0.66492 0.92996 0.39521 0.0
C521 C 0.66085 0.92073 0.40458 0.0
C522 C 0.67027 0.92685 0.37637 0.0
C523 C 0.65542 0.94016 0.37237 0.0
C524 C 0.68569 0.9188 0.36996 0.0
C525 C 0.70281 0.90611 0.37399 0.0
C526 C 0.71426 0.91295 0.38232 0.0
C527 C 0.73018 0.90091 0.38621 0.0
C528 C 0.73486 0.88201 0.3818 0.0
C529 C 0.72364 0.8751 0.3735 0.0
C530 C 0.70769 0.88707 0.36959 0.0
C531 C 0.65858 0.94787 0.3281 0.0
C532 C 0.65095 0.92919 0.32438 0.0
C533 C 0.665 0.94936 0.33816 0.0
C534 C 0.66421 0.93206 0.34447 0.0
C535 C 0.65765 0.91319 0.34054 0.0
C536 C 0.65081 0.91183 0.33062 0.0
C537 C 0.66808 0.93353 0.35543 0.0
C538 C 0.68427 0.9221 0.35953 0.0
C539 C 0.65407 0.94349 0.36194 0.0
C540 C 0.63683 0.95594 0.35801 0.0
C541 C 0.62094 0.94674 0.35246 0.0
C542 C 0.60483 0.95868 0.34871 0.0
C543 C 0.60437 0.9798 0.35054 0.0
C544 C 0.61999 0.98901 0.35616 0.0
C545 C 0.63616 0.97713 0.35991 0.0
H546 H 0.59188 0.98903 0.34763 0.0
H547 H 0.74719 0.87271 0.38482 0.0
H548 H 0.32862 0.39131 0.65723 0.0
H549 H 0.3187 0.39705 0.6396 0.0
H550 H 0.38036 0.41652 0.63271 0.0
H551 H 0.39038 0.41084 0.65018 0.0
H552 H 0.35027 0.44007 0.62281 0.0
H553 H 0.36787 0.36813 0.62906 0.0
H554 H 0.36365 0.33459 0.63748 0.0
H555 H 0.30083 0.33214 0.62781 0.0
H556 H 0.30462 0.36579 0.61944 0.0
H557 H 0.37368 0.41503 0.57209 0.0
H558 H 0.36971 0.42296 0.59003 0.0
H559 H 0.31171 0.3909 0.59034 0.0
H560 H 0.3164 0.38197 0.5726 0.0
H561 H 0.33335 0.37639 0.60414 0.0
H562 H 0.31701 0.44495 0.59509 0.0
H563 H 0.32057 0.47828 0.58645 0.0
H564 H 0.37855 0.4881 0.60104 0.0
H565 H 0.37549 0.45469 0.60966 0.0
C566 C 0.33996 0.3971 0.65199 0.0
C567 C 0.36035 0.40034 0.65506 0.0
C568 C 0.33427 0.40038 0.64193 0.0
C569 C 0.34886 0.4071 0.63486 0.0
C570 C 0.36888 0.41139 0.63806 0.0
C571 C 0.37461 0.40794 0.64803 0.0
C572 C 0.34411 0.4077 0.62396 0.0
C573 C 0.34651 0.42622 0.61867 0.0
C574 C 0.33871 0.38971 0.61866 0.0
C575 C 0.33645 0.36956 0.62374 0.0
C576 C 0.35311 0.36051 0.62881 0.0
C577 C 0.35081 0.34148 0.63356 0.0
C578 C 0.33197 0.33128 0.6332 0.0
C579 C 0.3154 0.34008 0.62809 0.0
C580 C 0.31761 0.35912 0.62335 0.0
C581 C 0.35984 0.41026 0.57596 0.0
C582 C 0.34534 0.39792 0.57106 0.0
C583 C 0.35749 0.41485 0.5862 0.0
C584 C 0.34034 0.40759 0.59159 0.0
C585 C 0.32512 0.39658 0.5864 0.0
C586 C 0.32774 0.39156 0.57627 0.0
C587 C 0.33968 0.40882 0.60278 0.0
C588 C 0.33647 0.39052 0.60818 0.0
C589 C 0.34413 0.42708 0.60814 0.0
C590 C 0.34606 0.44722 0.60298 0.0
C591 C 0.33059 0.45414 0.5964 0.0
C592 C 0.33251 0.47306 0.59152 0.0
C593 C 0.34979 0.48528 0.59318 0.0
C594 C 0.36517 0.47861 0.59975 0.0
C595 C 0.36333 0.4597 0.60466 0.0
H596 H 0.35125 0.49993 0.58939 0.0
H597 H 0.33021 0.31653 0.63684 0.0
H598 H 0.82626 0.13908 0.90035 0.0
H599 H 0.81926 0.12599 0.88366 0.0
H600 H 0.80765 0.0658 0.89601 0.0
H601 H 0.81525 0.07883 0.91297 0.0
H602 H 0.83103 0.0621 0.88058 0.0
H603 H 0.76783 0.09393 0.88474 0.0
H604 H 0.74242 0.11998 0.88983 0.0
H605 H 0.76814 0.1628 0.86872 0.0
H606 H 0.79393 0.13716 0.86361 0.0
H607 H 0.81258 0.08397 0.82227 0.0
H608 H 0.79708 0.07856 0.839 0.0
H609 H 0.85634 0.08722 0.85283 0.0
H610 H 0.87174 0.09228 0.8365 0.0
H611 H 0.7944 0.10369 0.85489 0.0
H612 H 0.86453 0.05864 0.87208 0.0
H613 H 0.88768 0.03066 0.8669 0.0
H614 H 0.84315 0.00978 0.8454 0.0
H615 H 0.81954 0.03744 0.85054 0.0
C616 C 0.82204 0.12308 0.89961 0.0
C617 C 0.82139 0.11001 0.90805 0.0
C618 C 0.81776 0.11564 0.89001 0.0
C619 C 0.8124 0.095 0.88855 0.0
C620 C 0.81152 0.08185 0.89695 0.0
C621 C 0.81594 0.0893 0.90663 0.0
C622 C 0.81006 0.08716 0.87809 0.0
C623 C 0.82271 0.07093 0.87498 0.0
C624 C 0.79837 0.09795 0.8708 0.0
C625 C 0.78284 0.11355 0.87378 0.0
C626 C 0.76815 0.10893 0.88121 0.0
C627 C 0.75366 0.12363 0.8841 0.0
C628 C 0.75366 0.14302 0.8796 0.0
C629 C 0.76813 0.14775 0.87219 0.0
C630 C 0.78266 0.13311 0.86927 0.0
C631 C 0.82226 0.08455 0.82889 0.0
C632 C 0.84342 0.08852 0.828 0.0
C633 C 0.8134 0.08141 0.83843 0.0
C634 C 0.82564 0.08197 0.84716 0.0
C635 C 0.84666 0.08606 0.84622 0.0
C636 C 0.85543 0.08918 0.83681 0.0
C637 C 0.81687 0.08003 0.85744 0.0
C638 C 0.80208 0.09435 0.86052 0.0
C639 C 0.82613 0.06707 0.86471 0.0
C640 C 0.84021 0.05016 0.86172 0.0
C641 C 0.85955 0.04798 0.86632 0.0
C642 C 0.87279 0.0322 0.86337 0.0
C643 C 0.86689 0.01845 0.85583 0.0
C644 C 0.84771 0.02045 0.85123 0.0
C645 C 0.8344 0.0362 0.85415 0.0
H646 H 0.87718 0.00626 0.85355 0.0
H647 H 0.74243 0.15439 0.88185 0.0
H648 H 0.16594 0.40353 0.91135 0.0
H649 H 0.17728 0.41342 0.89437 0.0
H650 H 0.16067 0.35343 0.88331 0.0
H651 H 0.14964 0.34341 0.90006 0.0
H652 H 0.19758 0.36483 0.87618 0.0
H653 H 0.1294 0.39578 0.88023 0.0
H654 H 0.10459 0.41911 0.88837 0.0
H655 H 0.14401 0.47043 0.88228 0.0
H656 H 0.16917 0.44734 0.8742 0.0
H657 H 0.15422 0.36109 0.82874 0.0
H658 H 0.16664 0.36161 0.84608 0.0
H659 H 0.18946 0.42316 0.84174 0.0
H660 H 0.1773 0.42243 0.82417 0.0
H661 H 0.16123 0.41966 0.85734 0.0
H662 H 0.22351 0.38797 0.8483 0.0
H663 H 0.24651 0.36378 0.83955 0.0
H664 H 0.21748 0.31308 0.85453 0.0
H665 H 0.19408 0.3369 0.86325 0.0
C666 C 0.16466 0.39249 0.90528 0.0
C667 C 0.15685 0.37267 0.90708 0.0
C668 C 0.1712 0.39815 0.8956 0.0
C669 C 0.16991 0.38412 0.88759 0.0
C670 C 0.16206 0.36443 0.8894 0.0
C671 C 0.1556 0.35877 0.899 0.0
C672 C 0.17588 0.38971 0.87716 0.0
C673 C 0.18976 0.3769 0.87205 0.0
C674 C 0.16635 0.40601 0.87189 0.0
C675 C 0.15126 0.41983 0.87675 0.0
C676 C 0.13284 0.41202 0.8807 0.0
C677 C 0.11871 0.4252 0.88529 0.0
C678 C 0.12276 0.44623 0.88588 0.0
C679 C 0.14093 0.45413 0.88185 0.0
C680 C 0.15512 0.44101 0.87726 0.0
C681 C 0.16265 0.37438 0.83137 0.0
C682 C 0.16503 0.39163 0.82518 0.0
C683 C 0.16976 0.37469 0.84127 0.0
C684 C 0.17907 0.3924 0.84519 0.0
C685 C 0.18248 0.4093 0.83882 0.0
C686 C 0.17568 0.40883 0.82881 0.0
C687 C 0.18196 0.39395 0.85623 0.0
C688 C 0.16976 0.40812 0.8615 0.0
C689 C 0.1929 0.37878 0.86163 0.0
C690 C 0.207 0.36428 0.85644 0.0
C691 C 0.22194 0.37165 0.84969 0.0
C692 C 0.23506 0.358 0.84474 0.0
C693 C 0.23346 0.33691 0.84648 0.0
C694 C 0.21873 0.32943 0.8532 0.0
C695 C 0.20556 0.34301 0.85817 0.0
H696 H 0.24363 0.32636 0.84264 0.0
H697 H 0.1118 0.45641 0.88943 0.0
H698 H 0.82415 0.92258 0.06714 0.0
H699 H 0.81411 0.93586 0.08379 0.0
H700 H 0.80901 0.87375 0.09489 0.0
H701 H 0.81837 0.86061 0.07849 0.0
H702 H 0.78012 0.89636 0.10311 0.0
H703 H 0.85468 0.9032 0.09679 0.0
H704 H 0.88427 0.91771 0.08762 0.0
H705 H 0.86339 0.97874 0.09436 0.0
H706 H 0.83357 0.96453 0.10349 0.0
H707 H 0.83268 0.87049 0.14658 0.0
H708 H 0.81724 0.87815 0.13021 0.0
H709 H 0.81325 0.94222 0.13822 0.0
H710 H 0.82822 0.93436 0.15484 0.0
H711 H 0.83648 0.93324 0.12047 0.0
H712 H 0.76986 0.92123 0.13305 0.0
H713 H 0.74288 0.90371 0.14282 0.0
H714 H 0.7505 0.84952 0.1248 0.0
H715 H 0.77776 0.86656 0.11502 0.0
C716 C 0.82051 0.91184 0.0731 0.0
C717 C 0.82244 0.89056 0.07154 0.0
C718 C 0.8148 0.91942 0.08261 0.0
C719 C 0.811 0.9058 0.09063 0.0
C720 C 0.81178 0.88461 0.08884 0.0
C721 C 0.8174 0.8771 0.07945 0.0
C722 C 0.80849 0.91286 0.1012 0.0
C723 C 0.79228 0.90468 0.10691 0.0
C724 C 0.82393 0.92435 0.10614 0.0
C725 C 0.84182 0.93284 0.10068 0.0
C726 C 0.85637 0.91971 0.09625 0.0
C727 C 0.87317 0.92787 0.09108 0.0
C728 C 0.87567 0.94913 0.09037 0.0
C729 C 0.8614 0.96227 0.09488 0.0
C730 C 0.84455 0.95418 0.10005 0.0
C731 C 0.82777 0.88605 0.14497 0.0
C732 C 0.83136 0.90182 0.15192 0.0
C733 C 0.81894 0.89044 0.13565 0.0
C734 C 0.81397 0.91074 0.13304 0.0
C735 C 0.81677 0.92644 0.14015 0.0
C736 C 0.82522 0.92195 0.14961 0.0
C737 C 0.80893 0.91541 0.1224 0.0
C738 C 0.82372 0.92584 0.11668 0.0
C739 C 0.7924 0.90561 0.11749 0.0
C740 C 0.77588 0.89523 0.12328 0.0
C741 C 0.76587 0.90554 0.1312 0.0
C742 C 0.75051 0.89569 0.13673 0.0
C743 C 0.74497 0.87552 0.13442 0.0
C744 C 0.75478 0.86516 0.12656 0.0
C745 C 0.77015 0.87494 0.121 0.0
H746 H 0.73308 0.86791 0.13872 0.0
H747 H 0.88869 0.95543 0.08636 0.0
H748 H 0.3109 0.56046 0.4031 0.0
H749 H 0.312 0.54865 0.38554 0.0
H750 H 0.32687 0.61012 0.37583 0.0
H751 H 0.32521 0.62203 0.3931 0.0
H752 H 0.30131 0.59439 0.36311 0.0
H753 H 0.36403 0.57157 0.37964 0.0
H754 H 0.3838 0.55232 0.3924 0.0
H755 H 0.35666 0.49593 0.38227 0.0
H756 H 0.33657 0.51491 0.36953 0.0
H757 H 0.38481 0.56781 0.32537 0.0
H758 H 0.37122 0.56679 0.34237 0.0
H759 H 0.31013 0.55779 0.33064 0.0
H760 H 0.32363 0.55941 0.31341 0.0
H761 H 0.35205 0.54083 0.35388 0.0
H762 H 0.27654 0.58308 0.34618 0.0
H763 H 0.26104 0.60633 0.33359 0.0
H764 H 0.32063 0.63016 0.32627 0.0
H765 H 0.33641 0.60723 0.3389 0.0
C766 C 0.31424 0.57145 0.39719 0.0
C767 C 0.31806 0.59218 0.39953 0.0
C768 C 0.31489 0.56468 0.38717 0.0
C769 C 0.31965 0.57847 0.37935 0.0
C770 C 0.323 0.59919 0.38169 0.0
C771 C 0.32217 0.60597 0.39162 0.0
C772 C 0.32235 0.57157 0.36876 0.0
C773 C 0.31217 0.58244 0.3611 0.0
C774 C 0.33657 0.55606 0.3661 0.0
C775 C 0.34862 0.54467 0.37374 0.0
C776 C 0.36218 0.55508 0.3802 0.0
C777 C 0.37346 0.54423 0.38741 0.0
C778 C 0.37143 0.52292 0.38817 0.0
C779 C 0.35817 0.51243 0.38169 0.0
C780 C 0.34684 0.52323 0.37448 0.0
C781 C 0.36848 0.56545 0.32634 0.0
C782 C 0.35528 0.56395 0.31798 0.0
C783 C 0.36074 0.56472 0.33611 0.0
C784 C 0.33963 0.56238 0.33781 0.0
C785 C 0.32645 0.55988 0.32951 0.0
C786 C 0.3342 0.56079 0.31967 0.0
C787 C 0.33166 0.56425 0.34826 0.0
C788 C 0.34071 0.55233 0.35589 0.0
C789 C 0.31695 0.57931 0.35092 0.0
C790 C 0.30764 0.59325 0.34337 0.0
C791 C 0.2863 0.59331 0.34188 0.0
C792 C 0.27748 0.60643 0.33475 0.0
C793 C 0.28985 0.61965 0.3291 0.0
C794 C 0.31107 0.61985 0.33062 0.0
C795 C 0.31996 0.60679 0.33775 0.0
H796 H 0.283 0.62978 0.32358 0.0
H797 H 0.38017 0.51454 0.39376 0.0
H798 H 0.62609 0.05867 0.64826 0.0
H799 H 0.63882 0.05968 0.631 0.0
H800 H 0.68644 0.10182 0.64001 0.0
H801 H 0.67373 0.10067 0.65746 0.0
H802 H 0.6608 0.1172 0.6255 0.0
H803 H 0.69977 0.05622 0.63 0.0
H804 H 0.70655 0.02061 0.63536 0.0
H805 H 0.66007 -0.00123 0.61511 0.0
H806 H 0.65277 0.03427 0.60973 0.0
H807 H 0.68043 0.1348 0.57484 0.0
H808 H 0.68755 0.12305 0.59195 0.0
H809 H 0.64294 0.07464 0.58844 0.0
H810 H 0.63653 0.08586 0.57102 0.0
H811 H 0.67359 0.06211 0.60046 0.0
H812 H 0.62983 0.12152 0.59864 0.0
H813 H 0.62001 0.15669 0.5937 0.0
H814 H 0.67214 0.18079 0.60955 0.0
H815 H 0.68243 0.14571 0.61446 0.0
C816 C 0.6397 0.06763 0.64662 0.0
C817 C 0.64888 0.07971 0.65414 0.0
C818 C 0.64705 0.06809 0.63676 0.0
C819 C 0.66361 0.08078 0.63421 0.0
C820 C 0.67371 0.09182 0.64185 0.0
C821 C 0.66651 0.09111 0.6518 0.0
C822 C 0.66768 0.08515 0.62342 0.0
C823 C 0.66423 0.10526 0.62005 0.0
C824 C 0.6713 0.06939 0.6163 0.0
C825 C 0.67565 0.04796 0.61949 0.0
C826 C 0.69087 0.04385 0.62674 0.0
C827 C 0.69483 0.02367 0.62977 0.0
C828 C 0.68373 0.00744 0.62559 0.0
C829 C 0.66866 0.01136 0.61834 0.0
C830 C 0.66464 0.03151 0.61529 0.0
C831 C 0.67246 0.12138 0.57765 0.0
C832 C 0.65774 0.11137 0.5717 0.0
C833 C 0.6765 0.11471 0.58743 0.0
C834 C 0.66537 0.09833 0.59159 0.0
C835 C 0.65163 0.0874 0.58542 0.0
C836 C 0.64793 0.09381 0.57549 0.0
C837 C 0.66652 0.09411 0.60258 0.0
C838 C 0.67072 0.0741 0.60595 0.0
C839 C 0.66319 0.10987 0.60976 0.0
C840 C 0.65704 0.13098 0.60681 0.0
C841 C 0.63929 0.13431 0.601 0.0
C842 C 0.63363 0.15422 0.59822 0.0
C843 C 0.64548 0.17096 0.60128 0.0
C844 C 0.663 0.16781 0.60716 0.0
C845 C 0.66875 0.14792 0.60995 0.0
H846 H 0.64107 0.18637 0.59912 0.0
H847 H 0.68682 0.99183 0.62795 0.0
H848 H 0.83238 0.37443 0.82729 0.0
H849 H 0.8193 0.37667 0.84451 0.0
H850 H 0.81948 0.44282 0.8425 0.0
H851 H 0.83266 0.44046 0.82517 0.0
H852 H 0.84212 0.42939 0.85799 0.0
H853 H 0.7743 0.4177 0.84671 0.0
H854 H 0.74648 0.40144 0.837 0.0
H855 H 0.75799 0.34404 0.8519 0.0
H856 H 0.78608 0.35985 0.8616 0.0
H857 H 0.82447 0.41863 0.91124 0.0
H858 H 0.81845 0.42987 0.89383 0.0
H859 H 0.81856 0.36673 0.88403 0.0
H860 H 0.82424 0.35543 0.90123 0.0
H861 H 0.78846 0.38782 0.87487 0.0
H862 H 0.86135 0.39719 0.88206 0.0
H863 H 0.89053 0.4121 0.89137 0.0
H864 H 0.86999 0.47281 0.88373 0.0
H865 H 0.84055 0.45823 0.87447 0.0
C866 C 0.82874 0.38938 0.83039 0.0
C867 C 0.83312 0.40726 0.82494 0.0
C868 C 0.82128 0.39069 0.84023 0.0
C869 C 0.81827 0.40993 0.84479 0.0
C870 C 0.82155 0.42784 0.8391 0.0
C871 C 0.8289 0.4265 0.82921 0.0
C872 C 0.81496 0.41104 0.85583 0.0
C873 C 0.82999 0.42083 0.86169 0.0
C874 C 0.79934 0.39962 0.86066 0.0
C875 C 0.78237 0.38999 0.85487 0.0
C876 C 0.771 0.40158 0.84788 0.0
C877 C 0.75516 0.39244 0.84238 0.0
C878 C 0.75048 0.37172 0.84383 0.0
C879 C 0.76161 0.3601 0.85079 0.0
C880 C 0.77748 0.36916 0.85631 0.0
C881 C 0.82312 0.40716 0.90538 0.0
C882 C 0.82498 0.38613 0.90765 0.0
C883 C 0.81966 0.41361 0.89544 0.0
C884 C 0.81809 0.39913 0.88763 0.0
C885 C 0.81956 0.37818 0.88993 0.0
C886 C 0.82298 0.37175 0.8998 0.0
C887 C 0.81611 0.40539 0.87692 0.0
C888 C 0.80012 0.39697 0.87116 0.0
C889 C 0.83094 0.41792 0.87215 0.0
C890 C 0.84863 0.42665 0.8777 0.0
C891 C 0.86299 0.41372 0.88244 0.0
C892 C 0.87958 0.4221 0.88769 0.0
C893 C 0.88207 0.44339 0.88817 0.0
C894 C 0.86801 0.45633 0.88337 0.0
C895 C 0.85137 0.44802 0.87812 0.0
H896 H 0.89493 0.44985 0.89224 0.0
H897 H 0.73821 0.36467 0.83956 0.0
H898 H 0.32096 0.10023 0.65127 0.0
H899 H 0.31066 0.10037 0.63353 0.0
H900 H 0.34202 0.04261 0.62908 0.0
H901 H 0.35335 0.04328 0.64664 0.0
H902 H 0.35468 0.0668 0.61599 0.0
H903 H 0.28727 0.04948 0.62635 0.0
H904 H 0.2553 0.05143 0.63624 0.0
H905 H 0.24465 0.11263 0.62539 0.0
H906 H 0.2767 0.11119 0.61554 0.0
H907 H 0.33306 0.07637 0.56359 0.0
H908 H 0.32971 0.06187 0.58059 0.0
H909 H 0.31093 0.12106 0.59187 0.0
H910 H 0.31409 0.13557 0.57504 0.0
H911 H 0.28902 0.08919 0.60062 0.0
H912 H 0.36042 0.10688 0.59295 0.0
H913 H 0.39235 0.10391 0.58305 0.0
H914 H 0.39433 0.03911 0.58897 0.0
H915 H 0.36226 0.04168 0.5988 0.0
C916 C 0.32503 0.08729 0.64654 0.0
C917 C 0.33783 0.07171 0.65024 0.0
C918 C 0.3191 0.0873 0.6364 0.0
C919 C 0.32546 0.07142 0.6299 0.0
C920 C 0.33699 0.05508 0.63388 0.0
C921 C 0.34335 0.05537 0.64392 0.0
C922 C 0.32268 0.07333 0.6188 0.0
C923 C 0.34011 0.07112 0.61264 0.0
C924 C 0.30383 0.07929 0.61435 0.0
C925 C 0.28449 0.08025 0.62025 0.0
C926 C 0.27819 0.06341 0.62612 0.0
C927 C 0.26004 0.06442 0.63171 0.0
C928 C 0.24797 0.08215 0.63145 0.0
C929 C 0.25401 0.09891 0.62558 0.0
C930 C 0.27216 0.09799 0.61998 0.0
C931 C 0.32794 0.0862 0.56967 0.0
C932 C 0.32413 0.10719 0.56798 0.0
C933 C 0.32602 0.0779 0.57936 0.0
C934 C 0.32021 0.09045 0.58749 0.0
C935 C 0.31539 0.1111 0.58571 0.0
C936 C 0.3174 0.1194 0.57608 0.0
C937 C 0.321 0.0829 0.59802 0.0
C938 C 0.30332 0.08423 0.60403 0.0
C939 C 0.33953 0.07588 0.60236 0.0
C940 C 0.35884 0.07443 0.5965 0.0
C941 C 0.36759 0.09198 0.59208 0.0
C942 C 0.38572 0.09038 0.58649 0.0
C943 C 0.39531 0.07132 0.58536 0.0
C944 C 0.38685 0.05385 0.58983 0.0
C945 C 0.36871 0.05537 0.59541 0.0
H946 H 0.40934 0.07008 0.58105 0.0
H947 H 0.23392 0.0829 0.63579 0.0
H948 H 0.66327 0.57628 0.40515 0.0
H949 H 0.66943 0.56651 0.38748 0.0
H950 H 0.6074 0.58413 0.38004 0.0
H951 H 0.60147 0.59419 0.39752 0.0
H952 H 0.62134 0.54973 0.36901 0.0
H953 H 0.64417 0.6193 0.37914 0.0
H954 H 0.66604 0.64241 0.38921 0.0
H955 H 0.71997 0.61226 0.37791 0.0
H956 H 0.69834 0.58881 0.36786 0.0
H957 H 0.59607 0.60824 0.32862 0.0
H958 H 0.60601 0.59401 0.34475 0.0
H959 H 0.66733 0.58343 0.33369 0.0
H960 H 0.6574 0.59779 0.31721 0.0
H961 H 0.6655 0.60248 0.35294 0.0
H962 H 0.64038 0.54226 0.33783 0.0
H963 H 0.61741 0.52071 0.32755 0.0
H964 H 0.56768 0.53284 0.34792 0.0
H965 H 0.59023 0.55472 0.35824 0.0
C966 C 0.65079 0.57726 0.39978 0.0
C967 C 0.63189 0.58586 0.40261 0.0
C968 C 0.65433 0.5718 0.38971 0.0
C969 C 0.63889 0.57472 0.38245 0.0
C970 C 0.61948 0.58164 0.38552 0.0
C971 C 0.61608 0.58739 0.39549 0.0
C972 C 0.64331 0.5738 0.37151 0.0
C973 C 0.63123 0.56099 0.36545 0.0
C974 C 0.65675 0.58804 0.36689 0.0
C975 C 0.66968 0.60218 0.37287 0.0
C976 C 0.66069 0.61753 0.37886 0.0
C977 C 0.67303 0.63069 0.38455 0.0
C978 C 0.69438 0.62876 0.38422 0.0
C979 C 0.70343 0.6137 0.37818 0.0
C980 C 0.69114 0.60047 0.37249 0.0
C981 C 0.61172 0.60294 0.32952 0.0
C982 C 0.62593 0.60419 0.32156 0.0
C983 C 0.61732 0.5946 0.33876 0.0
C984 C 0.63727 0.58727 0.34035 0.0
C985 C 0.65176 0.58879 0.33255 0.0
C986 C 0.64608 0.59704 0.32317 0.0
C987 C 0.64263 0.57918 0.35045 0.0
C988 C 0.65644 0.59039 0.35638 0.0
C989 C 0.63078 0.56343 0.35495 0.0
C990 C 0.61706 0.55015 0.34882 0.0
C991 C 0.62452 0.54042 0.3401 0.0
C992 C 0.61157 0.52814 0.33426 0.0
C993 C 0.5911 0.5254 0.33709 0.0
C994 C 0.58355 0.53493 0.34576 0.0
C995 C 0.59644 0.54725 0.35162 0.0
H996 H 0.5811 0.51589 0.33256 0.0
H997 H 0.70392 0.63897 0.38863 0.0
H998 H 0.17657 0.89218 0.15652 0.0
H999 H 0.18841 0.89731 0.13925 0.0
H1000 H 0.17417 0.9619 0.14147 0.0
H1001 H 0.16182 0.95651 0.15874 0.0
H1002 H 0.15442 0.94603 0.12655 0.0
H1003 H 0.22428 0.94482 0.13587 0.0
H1004 H 0.25554 0.9332 0.14465 0.0
H1005 H 0.25176 0.87485 0.12975 0.0
H1006 H 0.22031 0.88596 0.12098 0.0
H1007 H 0.16213 0.93178 0.07302 0.0
H1008 H 0.17215 0.9469 0.08931 0.0
H1009 H 0.1825 0.88619 0.10132 0.0
H1010 H 0.17283 0.87121 0.08532 0.0
H1011 H 0.21141 0.91263 0.10801 0.0
H1012 H 0.13616 0.91074 0.10425 0.0
H1013 H 0.10383 0.92086 0.09592 0.0
H1014 H 0.11806 0.98444 0.10082 0.0
H1015 H 0.15059 0.97465 0.10909 0.0
C1016 C 0.17696 0.90761 0.15347 0.0
C1017 C 0.16867 0.92402 0.15894 0.0
C1018 C 0.18373 0.91059 0.14359 0.0
C1019 C 0.18233 0.93006 0.13903 0.0
C1020 C 0.17551 0.94678 0.14482 0.0
C1021 C 0.16862 0.94375 0.1547 0.0
C1022 C 0.18427 0.9319 0.1279 0.0
C1023 C 0.16726 0.93936 0.1225 0.0
C1024 C 0.20087 0.92306 0.12255 0.0
C1025 C 0.21988 0.91626 0.12777 0.0
C1026 C 0.23004 0.92947 0.1345 0.0
C1027 C 0.24781 0.92297 0.13947 0.0
C1028 C 0.25563 0.9033 0.13776 0.0
C1029 C 0.2457 0.89009 0.13106 0.0
C1030 C 0.22792 0.89651 0.12606 0.0
C1031 C 0.16683 0.92176 0.07912 0.0
C1032 C 0.16635 0.9003 0.07793 0.0
C1033 C 0.17256 0.93039 0.0884 0.0
C1034 C 0.17799 0.91765 0.09655 0.0
C1035 C 0.17848 0.89635 0.09515 0.0
C1036 C 0.17269 0.88779 0.08599 0.0
C1037 C 0.18118 0.92575 0.10688 0.0
C1038 C 0.19909 0.92013 0.11209 0.0
C1039 C 0.16539 0.93615 0.1121 0.0
C1040 C 0.14587 0.942 0.10715 0.0
C1041 C 0.13243 0.92687 0.10348 0.0
C1042 C 0.11408 0.93254 0.09879 0.0
C1043 C 0.10893 0.95328 0.09781 0.0
C1044 C 0.1221 0.96839 0.10155 0.0
C1045 C 0.14049 0.96279 0.10625 0.0
H1046 H 0.09471 0.95764 0.09417 0.0
H1047 H 0.26938 0.8983 0.14162 0.0
H1048 H 0.8148 0.56983 0.07539 0.0
H1049 H 0.81018 0.5557 0.09249 0.0
H1050 H 0.87031 0.57765 0.10071 0.0
H1051 H 0.8746 0.59234 0.08388 0.0
H1052 H 0.8584 0.53583 0.10828 0.0
H1053 H 0.83455 0.60817 0.10538 0.0
H1054 H 0.81169 0.63433 0.09795 0.0
H1055 H 0.759 0.59921 0.1069 0.0
H1056 H 0.78162 0.57271 0.11427 0.0
H1057 H 0.88509 0.57206 0.15443 0.0
H1058 H 0.8756 0.56415 0.13728 0.0
H1059 H 0.81224 0.55786 0.14619 0.0
H1060 H 0.82167 0.56637 0.16365 0.0
H1061 H 0.81508 0.58068 0.12978 0.0
H1062 H 0.83943 0.51517 0.13806 0.0
H1063 H 0.86179 0.48877 0.1456 0.0
H1064 H 0.91158 0.50795 0.12663 0.0
H1065 H 0.88966 0.53469 0.11908 0.0
C1066 C 0.82717 0.57112 0.08081 0.0
C1067 C 0.84505 0.5821 0.0784 0.0
C1068 C 0.82451 0.56311 0.09053 0.0
C1069 C 0.83993 0.56563 0.09782 0.0
C1070 C 0.85831 0.57543 0.09516 0.0
C1071 C 0.86073 0.58385 0.08558 0.0
C1072 C 0.83646 0.56047 0.10853 0.0
C1073 C 0.84878 0.54539 0.11302 0.0
C1074 C 0.82324 0.57241 0.11461 0.0
C1075 C 0.80973 0.58838 0.11025 0.0
C1076 C 0.81809 0.60597 0.10569 0.0
C1077 C 0.80519 0.62086 0.1015 0.0
C1078 C 0.7839 0.6184 0.10192 0.0
C1079 C 0.77549 0.60107 0.10656 0.0
C1080 C 0.78833 0.58611 0.11074 0.0
C1081 C 0.86911 0.56884 0.15286 0.0
C1082 C 0.85413 0.56993 0.16047 0.0
C1083 C 0.86373 0.56406 0.143 0.0
C1084 C 0.84326 0.55993 0.14045 0.0
C1085 C 0.82818 0.56076 0.14801 0.0
C1086 C 0.83358 0.56564 0.15798 0.0
C1087 C 0.83795 0.55671 0.12967 0.0
C1088 C 0.82403 0.57032 0.12512 0.0
C1089 C 0.84949 0.54313 0.12354 0.0
C1090 C 0.86284 0.52697 0.12799 0.0
C1091 C 0.85518 0.51384 0.13553 0.0
C1092 C 0.86778 0.4988 0.1398 0.0
C1093 C 0.88808 0.49668 0.13659 0.0
C1094 C 0.89583 0.50958 0.12909 0.0
C1095 C 0.88329 0.52466 0.12479 0.0
H1096 H 0.89782 0.48503 0.13992 0.0
H1097 H 0.77393 0.62995 0.09868 0.0
H1098 H 0.14077 0.12571 0.83139 0.0
H1099 H 0.15349 0.12532 0.84871 0.0
H1100 H 0.18119 0.06606 0.84361 0.0
H1101 H 0.16887 0.06671 0.82603 0.0
H1102 H 0.15218 0.06905 0.86043 0.0
H1103 H 0.2131 0.1009 0.84866 0.0
H1104 H 0.23364 0.12541 0.83873 0.0
H1105 H 0.20585 0.17581 0.8545 0.0
H1106 H 0.18491 0.15164 0.86443 0.0
H1107 H 0.16618 0.08358 0.91384 0.0
H1108 H 0.17461 0.07428 0.89639 0.0
H1109 H 0.15911 0.13563 0.88672 0.0
H1110 H 0.15123 0.1451 0.90395 0.0
H1111 H 0.19239 0.12363 0.87738 0.0
H1112 H 0.12531 0.09385 0.88476 0.0
H1113 H 0.10161 0.07112 0.89402 0.0
H1114 H 0.13825 0.01879 0.88599 0.0
H1115 H 0.16229 0.04128 0.87677 0.0
C1116 C 0.15009 0.11288 0.83389 0.0
C1117 C 0.15398 0.0963 0.82743 0.0
C1118 C 0.15735 0.11267 0.84376 0.0
C1119 C 0.16831 0.09568 0.84741 0.0
C1120 C 0.17287 0.07934 0.84088 0.0
C1121 C 0.16596 0.07978 0.83087 0.0
C1122 C 0.1728 0.09451 0.85833 0.0
C1123 C 0.16151 0.08054 0.86417 0.0
C1124 C 0.18466 0.10975 0.86316 0.0
C1125 C 0.19739 0.12441 0.85729 0.0
C1126 C 0.21128 0.11721 0.84998 0.0
C1127 C 0.22301 0.13105 0.84435 0.0
C1128 C 0.22105 0.15215 0.84598 0.0
C1129 C 0.20738 0.15945 0.85326 0.0
C1130 C 0.1956 0.14568 0.8589 0.0
C1131 C 0.16467 0.09508 0.90799 0.0
C1132 C 0.15795 0.11507 0.91032 0.0
C1133 C 0.16949 0.08974 0.89802 0.0
C1134 C 0.16744 0.10424 0.89022 0.0
C1135 C 0.16101 0.12421 0.89259 0.0
C1136 C 0.15636 0.12957 0.90249 0.0
C1137 C 0.17093 0.09884 0.87948 0.0
C1138 C 0.1837 0.11161 0.87368 0.0
C1139 C 0.16013 0.08273 0.87467 0.0
C1140 C 0.14572 0.06925 0.88021 0.0
C1141 C 0.12838 0.07751 0.88504 0.0
C1142 C 0.11488 0.06467 0.89027 0.0
C1143 C 0.11847 0.04353 0.89063 0.0
C1144 C 0.13553 0.03517 0.88573 0.0
C1145 C 0.14909 0.04795 0.88051 0.0
H1146 H 0.108 0.03361 0.89468 0.0
H1147 H 0.23013 0.16284 0.84161 0.0
H1148 H 0.64563 0.41732 0.57391 0.0
H1149 H 0.64399 0.42519 0.59193 0.0
H1150 H 0.69243 0.38136 0.5976 0.0
H1151 H 0.69308 0.3726 0.57971 0.0
H1152 H 0.66414 0.37359 0.60955 0.0
H1153 H 0.69734 0.43621 0.60104 0.0
H1154 H 0.70354 0.46845 0.59178 0.0
H1155 H 0.64499 0.49159 0.60134 0.0
H1156 H 0.6383 0.45938 0.61054 0.0
H1157 H 0.66228 0.39513 0.66201 0.0
H1158 H 0.67595 0.39752 0.64482 0.0
H1159 H 0.61869 0.42341 0.63462 0.0
H1160 H 0.6048 0.42078 0.65169 0.0
H1161 H 0.65609 0.44167 0.62581 0.0
H1162 H 0.62251 0.37581 0.63216 0.0
H1163 H 0.61773 0.34369 0.64173 0.0
H1164 H 0.6806 0.32725 0.63634 0.0
H1165 H 0.68581 0.35946 0.62686 0.0
C1166 C 0.6562 0.40975 0.57901 0.0
C1167 C 0.6694 0.39431 0.57548 0.0
C1168 C 0.65536 0.41431 0.5893 0.0
C1169 C 0.66818 0.40396 0.59618 0.0
C1170 C 0.68227 0.38946 0.5925 0.0
C1171 C 0.6827 0.38451 0.58227 0.0
C1172 C 0.6653 0.40641 0.60725 0.0
C1173 C 0.66293 0.38855 0.61309 0.0
C1174 C 0.6633 0.42586 0.61194 0.0
C1175 C 0.66726 0.4453 0.60643 0.0
C1176 C 0.68572 0.44811 0.60111 0.0
C1177 C 0.68933 0.46639 0.59588 0.0
C1178 C 0.67465 0.48204 0.59595 0.0
C1179 C 0.65634 0.47945 0.60128 0.0
C1180 C 0.65264 0.4612 0.60652 0.0
C1181 C 0.65275 0.40168 0.65614 0.0
C1182 C 0.6324 0.40755 0.65816 0.0
C1183 C 0.66058 0.40306 0.64635 0.0
C1184 C 0.64828 0.4106 0.63849 0.0
C1185 C 0.62842 0.41764 0.64061 0.0
C1186 C 0.62047 0.41596 0.65034 0.0
C1187 C 0.65503 0.40894 0.62789 0.0
C1188 C 0.65788 0.42685 0.62219 0.0
C1189 C 0.65781 0.38958 0.62331 0.0
C1190 C 0.65461 0.37014 0.62892 0.0
C1191 C 0.63535 0.36543 0.63309 0.0
C1192 C 0.63256 0.3472 0.63848 0.0
C1193 C 0.64887 0.33347 0.63967 0.0
C1194 C 0.66799 0.33792 0.63543 0.0
C1195 C 0.67087 0.35615 0.63005 0.0
H1196 H 0.64668 0.31936 0.64385 0.0
H1197 H 0.67748 0.49618 0.5919 0.0
H1198 H 0.33284 0.87507 0.328 0.0
H1199 H 0.32222 0.88152 0.34545 0.0
H1200 H 0.37446 0.92144 0.34952 0.0
H1201 H 0.3856 0.91402 0.33235 0.0
H1202 H 0.37454 0.89618 0.36367 0.0
H1203 H 0.32211 0.93868 0.35006 0.0
H1204 H 0.29325 0.94847 0.33904 0.0
H1205 H 0.2565 0.90019 0.35167 0.0
H1206 H 0.28523 0.88991 0.36267 0.0
H1207 H 0.34997 0.90716 0.41491 0.0
H1208 H 0.35045 0.92051 0.39758 0.0
H1209 H 0.31182 0.87044 0.38802 0.0
H1210 H 0.31151 0.857 0.40519 0.0
H1211 H 0.30457 0.90798 0.3772 0.0
H1212 H 0.36051 0.86228 0.38775 0.0
H1213 H 0.3892 0.85304 0.39901 0.0
H1214 H 0.41931 0.90988 0.39194 0.0
H1215 H 0.39061 0.91957 0.38075 0.0
C1216 C 0.34173 0.88555 0.33259 0.0
C1217 C 0.36008 0.89393 0.32892 0.0
C1218 C 0.33562 0.88935 0.34255 0.0
C1219 C 0.3475 0.90207 0.34885 0.0
C1220 C 0.3651 0.91148 0.34488 0.0
C1221 C 0.37145 0.90727 0.33506 0.0
C1222 C 0.34316 0.90355 0.35985 0.0
C1223 C 0.35931 0.89937 0.36657 0.0
C1224 C 0.32326 0.90733 0.36375 0.0
C1225 C 0.3059 0.91343 0.35714 0.0
C1226 C 0.30793 0.93004 0.35043 0.0
C1227 C 0.29158 0.9357 0.3442 0.0
C1228 C 0.27306 0.92494 0.34464 0.0
C1229 C 0.27085 0.90851 0.35133 0.0
C1230 C 0.28716 0.90278 0.35758 0.0
C1231 C 0.34103 0.89946 0.40917 0.0
C1232 C 0.33094 0.88093 0.41131 0.0
C1233 C 0.34131 0.90707 0.39929 0.0
C1234 C 0.33131 0.89633 0.39152 0.0
C1235 C 0.31958 0.87898 0.3939 0.0
C1236 C 0.31955 0.87123 0.40369 0.0
C1237 C 0.33591 0.90061 0.3808 0.0
C1238 C 0.31985 0.90555 0.37418 0.0
C1239 C 0.35592 0.89775 0.37695 0.0
C1240 C 0.37334 0.89174 0.38351 0.0
C1241 C 0.3732 0.87285 0.38865 0.0
C1242 C 0.38946 0.86753 0.39501 0.0
C1243 C 0.40604 0.88089 0.39621 0.0
C1244 C 0.40644 0.89957 0.39102 0.0
C1245 C 0.39018 0.90498 0.38467 0.0
H1246 H 0.41861 0.87673 0.40115 0.0
H1247 H 0.26042 0.92934 0.33981 0.0
H1248 H 0.07992 0.63848 0.0552 0.0
H1249 H 0.0431 0.63274 0.05428 0.0
H1250 H 0.05242 0.58502 0.03226 0.0
H1251 H 0.08967 0.59054 0.03315 0.0
H1252 H 0.01875 0.61373 0.02797 0.0
H1253 H 0.04244 0.5689 0.05393 0.0
H1254 H 0.06231 0.55938 0.06904 0.0
H1255 H 0.02915 0.60387 0.08649 0.0
H1256 H 0.0093 0.61391 0.07145 0.0
H1257 H 0.91158 0.58908 0.03626 0.0
H1258 H 0.94874 0.5847 0.03405 0.0
H1259 H 0.95973 0.6287 0.05771 0.0
H1260 H 0.92297 0.63315 0.05998 0.0
H1261 H 0.98356 0.59438 0.05976 0.0
H1262 H 0.96418 0.64266 0.03359 0.0
H1263 H 0.94476 0.65368 0.01858 0.0
H1264 H 0.96984 0.60339 0.00167 0.0
H1265 H 0.98922 0.59191 0.01664 0.0
C1266 C 0.07427 0.62681 0.0501 0.0
C1267 C 0.08784 0.61486 0.0443 0.0
C1268 C 0.05317 0.62354 0.0496 0.0
C1269 C 0.0451 0.60833 0.04328 0.0
C1270 C 0.05842 0.5968 0.0372 0.0
C1271 C 0.07967 0.59994 0.03776 0.0
C1272 C 0.02273 0.60431 0.04341 0.0
C1273 C 0.01103 0.609 0.03484 0.0
C1274 C 0.01274 0.59839 0.05241 0.0
C1275 C 0.02446 0.59224 0.06153 0.0
C1276 C 0.03948 0.57676 0.06097 0.0
C1277 C 0.05073 0.57125 0.06953 0.0
C1278 C 0.04702 0.58103 0.07872 0.0
C1279 C 0.03201 0.59631 0.07937 0.0
C1280 C 0.02073 0.60189 0.07083 0.0
C1281 C 0.92193 0.59777 0.041 0.0
C1282 C 0.91426 0.6115 0.04828 0.0
C1283 C 0.94313 0.59529 0.03971 0.0
C1284 C 0.95697 0.60641 0.04571 0.0
C1285 C 0.94933 0.61991 0.05303 0.0
C1286 C 0.92825 0.6225 0.05427 0.0
C1287 C 0.97949 0.6044 0.04442 0.0
C1288 C 0.99125 0.59859 0.05281 0.0
C1289 C 0.98948 0.60934 0.03526 0.0
C1290 C 0.97793 0.61627 0.02626 0.0
C1291 C 0.96541 0.63385 0.02669 0.0
C1292 C 0.95444 0.6402 0.01819 0.0
C1293 C 0.956 0.62921 0.00919 0.0
C1294 C 0.9686 0.61187 0.00866 0.0
C1295 C 0.97959 0.60543 0.01714 0.0
H1296 H 0.94749 0.63416 0.00261 0.0
H1297 H 0.05575 0.57676 0.08533 0.0
H1298 H 0.64176 0.68357 0.28048 0.0
H1299 H 0.65126 0.71998 0.27946 0.0
H1300 H 0.6141 0.73277 0.3056 0.0
H1301 H 0.60435 0.69665 0.30661 0.0
H1302 H 0.62364 0.75296 0.27689 0.0
H1303 H 0.63861 0.76987 0.31932 0.0
H1304 H 0.65366 0.75246 0.33409 0.0
H1305 H 0.69024 0.71465 0.3146 0.0
H1306 H 0.67566 0.73202 0.29972 0.0
H1307 H 0.59676 0.85046 0.2967 0.0
H1308 H 0.60293 0.81369 0.29486 0.0
H1309 H 0.66673 0.8253 0.28855 0.0
H1310 H 0.66066 0.86241 0.29016 0.0
H1311 H 0.65329 0.79289 0.3052 0.0
H1312 H 0.64975 0.81107 0.27034 0.0
H1313 H 0.6356 0.82804 0.25525 0.0
H1314 H 0.57896 0.79527 0.25899 0.0
H1315 H 0.59266 0.77836 0.27421 0.0
C1316 C 0.63581 0.69411 0.28608 0.0
C1317 C 0.62223 0.68725 0.2936 0.0
C1318 C 0.64121 0.71489 0.28546 0.0
C1319 C 0.63348 0.72901 0.29249 0.0
C1320 C 0.6204 0.72208 0.30016 0.0
C1321 C 0.61476 0.70144 0.30069 0.0
C1322 C 0.63781 0.75126 0.29153 0.0
C1323 C 0.6304 0.76166 0.28301 0.0
C1324 C 0.64689 0.76256 0.29947 0.0
C1325 C 0.65592 0.75218 0.3084 0.0
C1326 C 0.64995 0.75792 0.31818 0.0
C1327 C 0.65838 0.74804 0.32658 0.0
C1328 C 0.67286 0.73243 0.32528 0.0
C1329 C 0.67897 0.7267 0.31559 0.0
C1330 C 0.6706 0.73654 0.30718 0.0
C1331 C 0.61211 0.84528 0.29488 0.0
C1332 C 0.62822 0.8594 0.29357 0.0
C1333 C 0.61558 0.82426 0.29381 0.0
C1334 C 0.63522 0.81689 0.29153 0.0
C1335 C 0.65144 0.8308 0.29028 0.0
C1336 C 0.64792 0.85195 0.29118 0.0
C1337 C 0.63852 0.7945 0.29073 0.0
C1338 C 0.64708 0.7841 0.29897 0.0
C1339 C 0.63066 0.78319 0.28251 0.0
C1340 C 0.62219 0.79355 0.27346 0.0
C1341 C 0.63419 0.80765 0.26801 0.0
C1342 C 0.62628 0.81721 0.25941 0.0
C1343 C 0.60642 0.81268 0.25614 0.0
C1344 C 0.59438 0.79868 0.2615 0.0
C1345 C 0.60222 0.78911 0.27012 0.0
H1346 H 0.60032 0.82008 0.24948 0.0
H1347 H 0.67936 0.72479 0.33179 0.0
H1348 H 0.42506 0.33733 0.55306 0.0
H1349 H 0.46254 0.33703 0.55343 0.0
H1350 H 0.46376 0.39495 0.53766 0.0
H1351 H 0.42632 0.39529 0.53713 0.0
H1352 H 0.49086 0.36846 0.52972 0.0
H1353 H 0.47351 0.39245 0.56283 0.0
H1354 H 0.4562 0.39136 0.57934 0.0
H1355 H 0.48605 0.33423 0.58618 0.0
H1356 H 0.50333 0.33484 0.56963 0.0
H1357 H 0.59492 0.39438 0.53788 0.0
H1358 H 0.55751 0.39381 0.5377 0.0
H1359 H 0.55789 0.33657 0.55407 0.0
H1360 H 0.59536 0.33735 0.5546 0.0
H1361 H 0.52994 0.36203 0.56166 0.0
H1362 H 0.54703 0.338 0.52846 0.0
H1363 H 0.5647 0.33944 0.51201 0.0
H1364 H 0.53514 0.39681 0.50539 0.0
H1365 H 0.51763 0.39589 0.52188 0.0
C1366 C 0.43327 0.35005 0.54969 0.0
C1367 C 0.42262 0.36636 0.54508 0.0
C1368 C 0.45471 0.34988 0.54994 0.0
C1369 C 0.46595 0.36606 0.54565 0.0
C1370 C 0.4554 0.3823 0.54102 0.0
C1371 C 0.43397 0.38249 0.54075 0.0
C1372 C 0.48872 0.36595 0.54588 0.0
C1373 C 0.49941 0.36731 0.53672 0.0
C1374 C 0.49988 0.36397 0.55498 0.0
C1375 C 0.48955 0.36359 0.56495 0.0
C1376 C 0.47625 0.37957 0.56782 0.0
C1377 C 0.46647 0.37906 0.57719 0.0
C1378 C 0.46998 0.36271 0.58379 0.0
C1379 C 0.48332 0.34687 0.58105 0.0
C1380 C 0.49313 0.3473 0.57168 0.0
C1381 C 0.5871 0.38164 0.54146 0.0
C1382 C 0.59822 0.3658 0.54618 0.0
C1383 C 0.56567 0.38128 0.54128 0.0
C1384 C 0.55487 0.36498 0.54573 0.0
C1385 C 0.56589 0.34926 0.55055 0.0
C1386 C 0.58734 0.34967 0.55078 0.0
C1387 C 0.53209 0.36455 0.54551 0.0
C1388 C 0.52139 0.36311 0.55467 0.0
C1389 C 0.52091 0.36647 0.5364 0.0
C1390 C 0.53123 0.36697 0.52644 0.0
C1391 C 0.54448 0.351 0.52353 0.0
C1392 C 0.55443 0.35171 0.5142 0.0
C1393 C 0.55108 0.36822 0.50767 0.0
C1394 C 0.53774 0.38404 0.51046 0.0
C1395 C 0.5278 0.38343 0.51979 0.0
H1396 H 0.55879 0.36874 0.50045 0.0
H1397 H 0.4624 0.36234 0.59105 0.0
H1398 H 0.89607 0.33064 0.80799 0.0
H1399 H 0.89358 0.29356 0.80619 0.0
H1400 H 0.84373 0.30086 0.78511 0.0
H1401 H 0.84591 0.33825 0.78695 0.0
H1402 H 0.83608 0.27037 0.79886 0.0
H1403 H 0.89041 0.28836 0.77651 0.0
H1404 H 0.9225 0.3053 0.77131 0.0
H1405 H 0.95584 0.27143 0.79376 0.0
H1406 H 0.92386 0.25453 0.79921 0.0
H1407 H 0.84468 0.16183 0.7882 0.0
H1408 H 0.84234 0.1992 0.78623 0.0
H1409 H 0.8933 0.2068 0.80663 0.0
H1410 H 0.89594 0.16978 0.80854 0.0
H1411 H 0.89817 0.22993 0.79022 0.0
H1412 H 0.84337 0.21564 0.81394 0.0
H1413 H 0.81129 0.19908 0.81951 0.0
H1414 H 0.77907 0.22598 0.79454 0.0
H1415 H 0.81105 0.2425 0.78875 0.0
C1416 C 0.88456 0.32447 0.80295 0.0
C1417 C 0.87126 0.33751 0.79757 0.0
C1418 C 0.88321 0.30321 0.80191 0.0
C1419 C 0.86867 0.29445 0.79541 0.0
C1420 C 0.85513 0.30732 0.79013 0.0
C1421 C 0.85645 0.32868 0.79118 0.0
C1422 C 0.86774 0.2718 0.79425 0.0
C1423 C 0.84953 0.26151 0.79677 0.0
C1424 C 0.88535 0.26026 0.79163 0.0
C1425 C 0.90469 0.27026 0.78831 0.0
C1426 C 0.90455 0.28462 0.78038 0.0
C1427 C 0.92274 0.29421 0.77739 0.0
C1428 C 0.94121 0.28946 0.78221 0.0
C1429 C 0.94152 0.27509 0.79003 0.0
C1430 C 0.92337 0.26548 0.79307 0.0
C1431 C 0.85533 0.17147 0.79229 0.0
C1432 C 0.87052 0.16274 0.79851 0.0
C1433 C 0.85394 0.19283 0.79117 0.0
C1434 C 0.86763 0.2058 0.79631 0.0
C1435 C 0.88265 0.1971 0.80255 0.0
C1436 C 0.88408 0.17587 0.80366 0.0
C1437 C 0.86673 0.22847 0.79517 0.0
C1438 C 0.88462 0.23877 0.79216 0.0
C1439 C 0.84884 0.23998 0.79736 0.0
C1440 C 0.82964 0.23009 0.80085 0.0
C1441 C 0.82948 0.21788 0.80959 0.0
C1442 C 0.81131 0.20853 0.81279 0.0
C1443 C 0.79317 0.21142 0.80736 0.0
C1444 C 0.79315 0.22372 0.79873 0.0
C1445 C 0.81128 0.23309 0.79548 0.0
H1446 H 0.77912 0.20417 0.80985 0.0
H1447 H 0.95529 0.29687 0.77988 0.0
H1448 H 0.90302 0.39366 0.94159 0.0
H1449 H 0.94053 0.39431 0.94196 0.0
H1450 H 0.94223 0.33132 0.93199 0.0
H1451 H 0.90481 0.3305 0.93157 0.0
H1452 H 0.96816 0.33827 0.94782 0.0
H1453 H 0.95251 0.36965 0.9158 0.0
H1454 H 0.93588 0.39494 0.90463 0.0
H1455 H 0.9662 0.44403 0.92023 0.0
H1456 H 0.98279 0.41904 0.9316 0.0
H1457 H 0.06978 0.32568 0.93149 0.0
H1458 H 0.03267 0.32887 0.93257 0.0
H1459 H 0.03884 0.39214 0.94164 0.0
H1460 H 0.0763 0.38914 0.94054 0.0
H1461 H 0.00902 0.38741 0.92747 0.0
H1462 H 0.02582 0.3566 0.95899 0.0
H1463 H 0.0413 0.33196 0.97089 0.0
H1464 H 0.00863 0.28253 0.95677 0.0
H1465 H 0.99307 0.30685 0.94472 0.0
C1466 C 0.91135 0.37994 0.93945 0.0
C1467 C 0.90084 0.36201 0.93655 0.0
C1468 C 0.9328 0.38037 0.93964 0.0
C1469 C 0.94417 0.36291 0.93694 0.0
C1470 C 0.93375 0.34498 0.93411 0.0
C1471 C 0.91233 0.34456 0.93385 0.0
C1472 C 0.96694 0.36316 0.93716 0.0
C1473 C 0.97712 0.34886 0.94328 0.0
C1474 C 0.97857 0.37745 0.9315 0.0
C1475 C 0.96872 0.39249 0.92462 0.0
C1476 C 0.9555 0.38585 0.9169 0.0
C1477 C 0.94611 0.40013 0.91052 0.0
C1478 C 0.94993 0.42108 0.91173 0.0
C1479 C 0.96322 0.4278 0.91931 0.0
C1480 C 0.97264 0.41358 0.92572 0.0
C1481 C 0.06335 0.34035 0.9337 0.0
C1482 C 0.07611 0.35717 0.93593 0.0
C1483 C 0.04206 0.34208 0.93437 0.0
C1484 C 0.03297 0.36066 0.93731 0.0
C1485 C 0.04556 0.37763 0.93939 0.0
C1486 C 0.06696 0.37588 0.93877 0.0
C1487 C 0.01028 0.36226 0.93801 0.0
C1488 C 9e-05 0.37691 0.93206 0.0
C1489 C -0.00139 0.34833 0.94386 0.0
C1490 C 0.00837 0.33355 0.95091 0.0
C1491 C 0.02207 0.34046 0.95837 0.0
C1492 C 0.03077 0.32656 0.96517 0.0
C1493 C 0.02586 0.30571 0.96462 0.0
C1494 C 0.01234 0.2987 0.95722 0.0
C1495 C 0.00355 0.31253 0.95041 0.0
H1496 H 0.03265 0.29498 0.96989 0.0
H1497 H 0.94264 0.43211 0.90679 0.0
H1498 H 0.83686 0.82879 0.18945 0.0
H1499 H 0.83113 0.7918 0.19131 0.0
H1500 H 0.87913 0.77981 0.16971 0.0
H1501 H 0.88473 0.81648 0.16768 0.0
H1502 H 0.84681 0.75583 0.1662 0.0
H1503 H 0.88713 0.77585 0.19533 0.0
H1504 H 0.89394 0.79564 0.21082 0.0
H1505 H 0.83895 0.77171 0.22423 0.0
H1506 H 0.83169 0.75198 0.20876 0.0
H1507 H 0.88758 0.65843 0.17559 0.0
H1508 H 0.88081 0.69509 0.17422 0.0
H1509 H 0.82973 0.68918 0.19467 0.0
H1510 H 0.83639 0.65218 0.19611 0.0
H1511 H 0.85601 0.72192 0.19939 0.0
H1512 H 0.81921 0.69734 0.17089 0.0
H1513 H 0.81362 0.67712 0.15544 0.0
H1514 H 0.86272 0.70932 0.14077 0.0
H1515 H 0.86883 0.72954 0.15618 0.0
C1516 C 0.84614 0.81828 0.18506 0.0
C1517 C 0.86131 0.82566 0.17844 0.0
C1518 C 0.84288 0.79714 0.18616 0.0
C1519 C 0.85481 0.78302 0.1807 0.0
C1520 C 0.86969 0.79039 0.17398 0.0
C1521 C 0.87293 0.81143 0.17286 0.0
C1522 C 0.85231 0.76052 0.18203 0.0
C1523 C 0.84888 0.74842 0.17345 0.0
C1524 C 0.85434 0.75087 0.19155 0.0
C1525 C 0.85874 0.76266 0.20085 0.0
C1526 C 0.87641 0.77494 0.20155 0.0
C1527 C 0.88037 0.78612 0.21033 0.0
C1528 C 0.86685 0.78499 0.21849 0.0
C1529 C 0.84938 0.77262 0.21789 0.0
C1530 C 0.84534 0.76143 0.20913 0.0
C1531 C 0.87483 0.66482 0.17978 0.0
C1532 C 0.86252 0.65232 0.18596 0.0
C1533 C 0.87093 0.6858 0.17895 0.0
C1534 C 0.85466 0.69481 0.18427 0.0
C1535 C 0.84231 0.68248 0.19047 0.0
C1536 C 0.8461 0.66135 0.19125 0.0
C1537 C 0.8512 0.71726 0.1835 0.0
C1538 C 0.85351 0.72935 0.19217 0.0
C1539 C 0.84823 0.72692 0.17406 0.0
C1540 C 0.84455 0.71488 0.16473 0.0
C1541 C 0.82892 0.70002 0.1644 0.0
C1542 C 0.82564 0.68857 0.15564 0.0
C1543 C 0.83783 0.69191 0.14713 0.0
C1544 C 0.85329 0.70675 0.14736 0.0
C1545 C 0.85665 0.71823 0.15611 0.0
H1546 H 0.83527 0.68303 0.14036 0.0
H1547 H 0.86994 0.79365 0.22528 0.0
H1548 H 0.38606 0.58546 0.4394 0.0
H1549 H 0.42347 0.58254 0.44009 0.0
H1550 H 0.42919 0.63955 0.42378 0.0
H1551 H 0.39195 0.64241 0.42286 0.0
H1552 H 0.45415 0.6106 0.41621 0.0
H1553 H 0.43725 0.63686 0.44948 0.0
H1554 H 0.41937 0.63566 0.46586 0.0
H1555 H 0.44694 0.57722 0.4723 0.0
H1556 H 0.46493 0.57803 0.45593 0.0
H1557 H 0.55381 0.64474 0.42382 0.0
H1558 H 0.51679 0.64063 0.42461 0.0
H1559 H 0.52421 0.58316 0.44035 0.0
H1560 H 0.56164 0.58723 0.4397 0.0
H1561 H 0.49287 0.60678 0.44836 0.0
H1562 H 0.51255 0.58201 0.41603 0.0
H1563 H 0.53035 0.58264 0.39964 0.0
H1564 H 0.49701 0.63687 0.3912 0.0
H1565 H 0.47922 0.63676 0.4076 0.0
C1566 C 0.39527 0.59739 0.43596 0.0
C1567 C 0.38597 0.61422 0.4311 0.0
C1568 C 0.41666 0.59573 0.43641 0.0
C1569 C 0.42912 0.61091 0.43205 0.0
C1570 C 0.41987 0.62765 0.42718 0.0
C1571 C 0.39855 0.6293 0.42671 0.0
C1572 C 0.45182 0.60939 0.43238 0.0
C1573 C 0.46261 0.60993 0.42324 0.0
C1574 C 0.46283 0.60772 0.44155 0.0
C1575 C 0.4523 0.60742 0.45145 0.0
C1576 C 0.43943 0.62372 0.45437 0.0
C1577 C 0.42929 0.62312 0.46365 0.0
C1578 C 0.43199 0.60636 0.4701 0.0
C1579 C 0.44488 0.59019 0.4673 0.0
C1580 C 0.45509 0.59073 0.45803 0.0
C1581 C 0.54769 0.63119 0.42748 0.0
C1582 C 0.56078 0.6162 0.43161 0.0
C1583 C 0.52646 0.62887 0.42791 0.0
C1584 C 0.51775 0.61143 0.43239 0.0
C1585 C 0.53065 0.59669 0.43681 0.0
C1586 C 0.55202 0.59902 0.43641 0.0
C1587 C 0.49516 0.60867 0.43219 0.0
C1588 C 0.4844 0.60723 0.44133 0.0
C1589 C 0.48411 0.60941 0.42301 0.0
C1590 C 0.49464 0.60945 0.41308 0.0
C1591 C 0.50911 0.59415 0.41071 0.0
C1592 C 0.51919 0.59441 0.40141 0.0
C1593 C 0.51484 0.6098 0.39439 0.0
C1594 C 0.50037 0.62495 0.39664 0.0
C1595 C 0.49026 0.62479 0.40594 0.0
H1596 H 0.52267 0.60997 0.38719 0.0
H1597 H 0.42411 0.60591 0.47728 0.0
H1598 H 0.58951 0.15952 0.67117 0.0
H1599 H 0.59104 0.19688 0.67184 0.0
H1600 H 0.6443 0.19346 0.69106 0.0
H1601 H 0.64275 0.15594 0.69056 0.0
H1602 H 0.61721 0.22115 0.69802 0.0
H1603 H 0.64918 0.20701 0.66645 0.0
H1604 H 0.65275 0.19147 0.6496 0.0
H1605 H 0.59835 0.22275 0.63969 0.0
H1606 H 0.59428 0.23826 0.65653 0.0
H1607 H 0.63716 0.32871 0.69366 0.0
H1608 H 0.64096 0.29138 0.69277 0.0
H1609 H 0.58669 0.28762 0.67427 0.0
H1610 H 0.58282 0.32485 0.67504 0.0
H1611 H 0.61756 0.26366 0.66698 0.0
H1612 H 0.58458 0.27575 0.699 0.0
H1613 H 0.58118 0.29119 0.71588 0.0
H1614 H 0.63821 0.26368 0.72489 0.0
H1615 H 0.64208 0.2483 0.708 0.0
C1616 C 0.60162 0.16664 0.67553 0.0
C1617 C 0.61604 0.15465 0.6808 0.0
C1618 C 0.60252 0.18805 0.67586 0.0
C1619 C 0.61794 0.19798 0.6814 0.0
C1620 C 0.6323 0.18611 0.68671 0.0
C1621 C 0.63142 0.16465 0.68639 0.0
C1622 C 0.61866 0.22076 0.6818 0.0
C1623 C 0.61766 0.23045 0.69124 0.0
C1624 C 0.61891 0.23291 0.67295 0.0
C1625 C 0.62133 0.22367 0.66279 0.0
C1626 C 0.63789 0.21046 0.66071 0.0
C1627 C 0.64001 0.20167 0.65115 0.0
C1628 C 0.62576 0.20609 0.64359 0.0
C1629 C 0.60937 0.21933 0.64556 0.0
C1630 C 0.60716 0.22814 0.6551 0.0
C1631 C 0.62603 0.31997 0.68939 0.0
C1632 C 0.60962 0.32983 0.68446 0.0
C1633 C 0.6282 0.29862 0.68892 0.0
C1634 C 0.61401 0.28671 0.68352 0.0
C1635 C 0.59782 0.29651 0.67848 0.0
C1636 C 0.59559 0.31782 0.67897 0.0
C1637 C 0.61582 0.26399 0.68318 0.0
C1638 C 0.6173 0.25434 0.67376 0.0
C1639 C 0.61607 0.25188 0.69204 0.0
C1640 C 0.61373 0.26107 0.7022 0.0
C1641 C 0.59648 0.27314 0.70455 0.0
C1642 C 0.59445 0.28185 0.71412 0.0
C1643 C 0.6095 0.27847 0.72144 0.0
C1644 C 0.62659 0.26632 0.71921 0.0
C1645 C 0.6287 0.25759 0.70964 0.0
H1646 H 0.60791 0.28523 0.72885 0.0
H1647 H 0.62743 0.19927 0.6362 0.0
H1648 H 0.40352 0.31529 0.6725 0.0
H1649 H 0.40007 0.27804 0.67177 0.0
H1650 H 0.34637 0.28123 0.69069 0.0
H1651 H 0.34966 0.31867 0.69148 0.0
H1652 H 0.37405 0.25061 0.69659 0.0
H1653 H 0.33954 0.27248 0.66672 0.0
H1654 H 0.33559 0.29203 0.65095 0.0
H1655 H 0.38756 0.26074 0.63828 0.0
H1656 H 0.392 0.24118 0.65407 0.0
H1657 H 0.34476 0.1466 0.68786 0.0
H1658 H 0.34442 0.18409 0.6888 0.0
H1659 H 0.39705 0.18677 0.66914 0.0
H1660 H 0.3975 0.14936 0.6681 0.0
H1661 H 0.36763 0.21464 0.66378 0.0
H1662 H 0.40282 0.19365 0.69396 0.0
H1663 H 0.40702 0.17465 0.70992 0.0
H1664 H 0.35374 0.20452 0.72206 0.0
H1665 H 0.34902 0.22349 0.70612 0.0
C1666 C 0.39093 0.30814 0.6765 0.0
C1667 C 0.37683 0.32002 0.68202 0.0
C1668 C 0.38896 0.28682 0.67605 0.0
C1669 C 0.37289 0.2769 0.68112 0.0
C1670 C 0.35887 0.28862 0.68672 0.0
C1671 C 0.36073 0.31001 0.68711 0.0
C1672 C 0.37087 0.25426 0.68054 0.0
C1673 C 0.37229 0.24273 0.68944 0.0
C1674 C 0.36898 0.24403 0.67118 0.0
C1675 C 0.36621 0.2555 0.66161 0.0
C1676 C 0.35022 0.26987 0.6606 0.0
C1677 C 0.34788 0.28094 0.65164 0.0
C1678 C 0.36136 0.27769 0.64361 0.0
C1679 C 0.37715 0.26327 0.64451 0.0
C1680 C 0.37957 0.25216 0.65345 0.0
C1681 C 0.35625 0.15514 0.68371 0.0
C1682 C 0.37118 0.14491 0.67791 0.0
C1683 C 0.35607 0.17657 0.68429 0.0
C1684 C 0.3708 0.1882 0.6791 0.0
C1685 C 0.38553 0.17808 0.6732 0.0
C1686 C 0.38578 0.15667 0.67264 0.0
C1687 C 0.37098 0.21093 0.67983 0.0
C1688 C 0.36924 0.2225 0.67094 0.0
C1689 C 0.37257 0.22117 0.68921 0.0
C1690 C 0.37543 0.20982 0.69881 0.0
C1691 C 0.39189 0.19604 0.7 0.0
C1692 C 0.39439 0.1853 0.70905 0.0
C1693 C 0.38063 0.18834 0.71698 0.0
C1694 C 0.36437 0.20216 0.7159 0.0
C1695 C 0.36178 0.21292 0.70687 0.0
H1696 H 0.38259 0.18001 0.72398 0.0
H1697 H 0.35954 0.2863 0.63669 0.0
H1698 H 0.09395 0.6806 0.17405 0.0
H1699 H 0.10188 0.71704 0.17402 0.0
H1700 H 0.15636 0.70556 0.1916 0.0
H1701 H 0.14841 0.66874 0.19178 0.0
H1702 H 0.13463 0.73854 0.19873 0.0
H1703 H 0.16131 0.7171 0.16714 0.0
H1704 H 0.16137 0.6993 0.15075 0.0
H1705 H 0.11072 0.73635 0.14082 0.0
H1706 H 0.11015 0.75417 0.15721 0.0
H1707 H 0.15936 0.84508 0.19123 0.0
H1708 H 0.16208 0.80757 0.19148 0.0
H1709 H 0.10739 0.80313 0.1733 0.0
H1710 H 0.10476 0.84039 0.17284 0.0
H1711 H 0.13629 0.77748 0.16658 0.0
H1712 H 0.10697 0.79504 0.19921 0.0
H1713 H 0.10701 0.8127 0.21565 0.0
H1714 H 0.1636 0.78291 0.22351 0.0
H1715 H 0.16399 0.76522 0.20706 0.0
C1716 C 0.10769 0.68569 0.1779 0.0
C1717 C 0.12058 0.67164 0.18289 0.0
C1718 C 0.11224 0.7066 0.17783 0.0
C1719 C 0.12986 0.71401 0.18268 0.0
C1720 C 0.14273 0.70014 0.18776 0.0
C1721 C 0.13819 0.6791 0.18783 0.0
C1722 C 0.13434 0.73636 0.18253 0.0
C1723 C 0.13544 0.74703 0.1917 0.0
C1724 C 0.13524 0.74745 0.17336 0.0
C1725 C 0.13562 0.7369 0.16344 0.0
C1726 C 0.1501 0.72137 0.16149 0.0
C1727 C 0.15023 0.71128 0.15219 0.0
C1728 C 0.13604 0.71667 0.14475 0.0
C1729 C 0.12171 0.73219 0.14659 0.0
C1730 C 0.12149 0.74231 0.15588 0.0
C1731 C 0.14794 0.83611 0.18727 0.0
C1732 C 0.13186 0.84579 0.18201 0.0
C1733 C 0.14949 0.81467 0.18745 0.0
C1734 C 0.13486 0.80252 0.18246 0.0
C1735 C 0.11891 0.81216 0.17716 0.0
C1736 C 0.11742 0.83353 0.17693 0.0
C1737 C 0.13582 0.77973 0.18277 0.0
C1738 C 0.13582 0.76897 0.17361 0.0
C1739 C 0.13601 0.76859 0.19194 0.0
C1740 C 0.13562 0.77899 0.20187 0.0
C1741 C 0.11947 0.79235 0.20442 0.0
C1742 C 0.11941 0.80234 0.21374 0.0
C1743 C 0.13533 0.79897 0.22061 0.0
C1744 C 0.1513 0.78553 0.21818 0.0
C1745 C 0.15144 0.7755 0.20886 0.0
H1746 H 0.13526 0.80674 0.22782 0.0
H1747 H 0.13616 0.70884 0.13756 0.0
H1748 H 0.15189 0.15599 0.78683 0.0
H1749 H 0.15472 0.19302 0.78378 0.0
H1750 H 0.09561 0.20237 0.79768 0.0
H1751 H 0.09254 0.16567 0.80064 0.0
H1752 H 0.0993 0.22536 0.78105 0.0
H1753 H 0.14032 0.21033 0.81064 0.0
H1754 H 0.16812 0.19295 0.81995 0.0
H1755 H 0.21256 0.21779 0.7994 0.0
H1756 H 0.18495 0.2351 0.78989 0.0
H1757 H 0.09608 0.32523 0.80052 0.0
H1758 H 0.09763 0.28835 0.79766 0.0
H1759 H 0.15615 0.29519 0.78287 0.0
H1760 H 0.15483 0.33235 0.78576 0.0
H1761 H 0.15636 0.26413 0.79684 0.0
H1762 H 0.11477 0.28397 0.76899 0.0
H1763 H 0.08644 0.30178 0.7603 0.0
H1764 H 0.04252 0.26823 0.77792 0.0
H1765 H 0.07059 0.25043 0.78683 0.0
C1766 C 0.13944 0.16593 0.78918 0.0
C1767 C 0.12205 0.15784 0.79405 0.0
C1768 C 0.14111 0.18709 0.78745 0.0
C1769 C 0.12546 0.20049 0.79059 0.0
C1770 C 0.10788 0.19235 0.79518 0.0
C1771 C 0.10621 0.17131 0.79692 0.0
C1772 C 0.12743 0.22308 0.78948 0.0
C1773 C 0.11175 0.23386 0.78451 0.0
C1774 C 0.14398 0.23413 0.79376 0.0
C1775 C 0.16057 0.22378 0.79949 0.0
C1776 C 0.15601 0.21194 0.80806 0.0
C1777 C 0.17173 0.20213 0.81339 0.0
C1778 C 0.19209 0.20421 0.81025 0.0
C1779 C 0.19678 0.21615 0.80181 0.0
C1780 C 0.1811 0.22597 0.79645 0.0
C1781 C 0.10926 0.319 0.7966 0.0
C1782 C 0.12535 0.33181 0.79337 0.0
C1783 C 0.11005 0.29787 0.79492 0.0
C1784 C 0.12689 0.28904 0.78996 0.0
C1785 C 0.14297 0.30173 0.78668 0.0
C1786 C 0.14215 0.32296 0.78831 0.0
C1787 C 0.1279 0.26643 0.78865 0.0
C1788 C 0.14413 0.25565 0.79317 0.0
C1789 C 0.11179 0.25538 0.78401 0.0
C1790 C 0.09482 0.26595 0.77862 0.0
C1791 C 0.09908 0.28049 0.77106 0.0
C1792 C 0.08306 0.29057 0.76609 0.0
C1793 C 0.0627 0.28616 0.76856 0.0
C1794 C 0.05831 0.27163 0.77601 0.0
C1795 C 0.07427 0.26152 0.78101 0.0
H1796 H 0.05032 0.29399 0.76471 0.0
H1797 H 0.20424 0.19661 0.81438 0.0
H1798 H 0.35141 0.64113 0.28067 0.0
H1799 H 0.34755 0.67839 0.28238 0.0
H1800 H 0.39914 0.67987 0.30273 0.0
H1801 H 0.40293 0.64278 0.30119 0.0
H1802 H 0.36716 0.70154 0.31007 0.0
H1803 H 0.4063 0.70225 0.27811 0.0
H1804 H 0.41291 0.69234 0.26045 0.0
H1805 H 0.35118 0.70876 0.25249 0.0
H1806 H 0.34446 0.7194 0.27005 0.0
H1807 H 0.40137 0.80371 0.31092 0.0
H1808 H 0.39616 0.76691 0.30906 0.0
H1809 H 0.34532 0.7781 0.28898 0.0
H1810 H 0.3506 0.81517 0.29068 0.0
H1811 H 0.37097 0.75004 0.28129 0.0
H1812 H 0.33689 0.75928 0.3126 0.0
H1813 H 0.33206 0.77144 0.33003 0.0
H1814 H 0.38386 0.73572 0.33969 0.0
H1815 H 0.3892 0.72356 0.32229 0.0
C1816 C 0.36196 0.6494 0.2855 0.0
C1817 C 0.3775 0.63893 0.29078 0.0
C1818 C 0.35981 0.67072 0.28641 0.0
C1819 C 0.37314 0.68195 0.29263 0.0
C1820 C 0.38866 0.67153 0.29789 0.0
C1821 C 0.39084 0.6503 0.29697 0.0
C1822 C 0.37065 0.70445 0.294 0.0
C1823 C 0.36813 0.71218 0.3038 0.0
C1824 C 0.37112 0.7183 0.28579 0.0
C1825 C 0.37482 0.71133 0.27536 0.0
C1826 C 0.39413 0.70361 0.27259 0.0
C1827 C 0.39791 0.69795 0.2626 0.0
C1828 C 0.38241 0.69968 0.25537 0.0
C1829 C 0.36315 0.70733 0.2581 0.0
C1830 C 0.35938 0.71331 0.26805 0.0
C1831 C 0.38893 0.79844 0.30617 0.0
C1832 C 0.37643 0.81247 0.30093 0.0
C1833 C 0.38589 0.77733 0.30517 0.0
C1834 C 0.3702 0.76972 0.29897 0.0
C1835 C 0.35748 0.78364 0.29383 0.0
C1836 C 0.36049 0.80482 0.29484 0.0
C1837 C 0.36807 0.74723 0.29742 0.0
C1838 C 0.36966 0.73947 0.28759 0.0
C1839 C 0.36669 0.73337 0.30562 0.0
C1840 C 0.36353 0.74061 0.31612 0.0
C1841 C 0.34735 0.75413 0.31843 0.0
C1842 C 0.34451 0.761 0.32831 0.0
C1843 C 0.35766 0.75438 0.33596 0.0
C1844 C 0.37368 0.74084 0.33376 0.0
C1845 C 0.37661 0.73392 0.32389 0.0
H1846 H 0.35543 0.75973 0.34361 0.0
H1847 H 0.38535 0.6952 0.24765 0.0
H1848 H 0.40427 0.10821 0.5351 0.0
H1849 H 0.44174 0.10793 0.53594 0.0
H1850 H 0.44099 0.16761 0.54999 0.0
H1851 H 0.40359 0.16812 0.54914 0.0
H1852 H 0.46974 0.16566 0.53547 0.0
H1853 H 0.44981 0.12499 0.56389 0.0
H1854 H 0.43163 0.09713 0.57271 0.0
H1855 H 0.46336 0.05236 0.55476 0.0
H1856 H 0.48156 0.08003 0.54573 0.0
H1857 H 0.57181 0.16815 0.55348 0.0
H1858 H 0.53441 0.16695 0.55281 0.0
H1859 H 0.53721 0.10841 0.53772 0.0
H1860 H 0.57472 0.10936 0.53839 0.0
H1861 H 0.50753 0.1093 0.55252 0.0
H1862 H 0.52803 0.15082 0.52435 0.0
H1863 H 0.5462 0.17922 0.5159 0.0
H1864 H 0.5132 0.22299 0.53388 0.0
H1865 H 0.49505 0.19482 0.54254 0.0
C1866 C 0.41204 0.12129 0.53838 0.0
C1867 C 0.40085 0.13817 0.54207 0.0
C1868 C 0.43348 0.12106 0.53888 0.0
C1869 C 0.44417 0.13766 0.54312 0.0
C1870 C 0.43307 0.15463 0.5467 0.0
C1871 C 0.41165 0.15485 0.54623 0.0
C1872 C 0.46692 0.13741 0.5438 0.0
C1873 C 0.47799 0.15347 0.53931 0.0
C1874 C 0.47771 0.12128 0.54862 0.0
C1875 C 0.46689 0.10459 0.55406 0.0
C1876 C 0.45279 0.10921 0.56177 0.0
C1877 C 0.4425 0.09345 0.56681 0.0
C1878 C 0.44629 0.07297 0.56428 0.0
C1879 C 0.46042 0.06823 0.55671 0.0
C1880 C 0.47075 0.08395 0.55163 0.0
C1881 C 0.56454 0.15493 0.55006 0.0
C1882 C 0.57635 0.1389 0.54593 0.0
C1883 C 0.54312 0.15433 0.54965 0.0
C1884 C 0.53303 0.13772 0.5451 0.0
C1885 C 0.5447 0.1214 0.54124 0.0
C1886 C 0.56615 0.12202 0.54161 0.0
C1887 C 0.51031 0.13759 0.54423 0.0
C1888 C 0.49927 0.12146 0.54867 0.0
C1889 C 0.49952 0.15372 0.5394 0.0
C1890 C 0.51033 0.17069 0.53416 0.0
C1891 C 0.52477 0.16649 0.52656 0.0
C1892 C 0.53504 0.18255 0.52172 0.0
C1893 C 0.5309 0.20289 0.52437 0.0
C1894 C 0.51642 0.20722 0.53184 0.0
C1895 C 0.50612 0.19121 0.53671 0.0
H1896 H 0.53887 0.2153 0.52062 0.0
H1897 H 0.43831 0.06077 0.56819 0.0
H1898 H 0.90813 0.90277 0.03743 0.0
H1899 H 0.94486 0.91059 0.03839 0.0
H1900 H 0.95231 0.86427 0.06135 0.0
H1901 H 0.91581 0.85646 0.0605 0.0
H1902 H 0.97417 0.89899 0.06568 0.0
H1903 H 0.9631 0.85379 0.037 0.0
H1904 H 0.94765 0.84439 0.02067 0.0
H1905 H 0.97337 0.89843 0.0071 0.0
H1906 H 0.98875 0.90827 0.02339 0.0
H1907 H 0.07405 0.86006 0.06438 0.0
H1908 H 0.03735 0.86678 0.06357 0.0
H1909 H 0.04736 0.91191 0.04029 0.0
H1910 H 0.08434 0.90514 0.04097 0.0
H1911 H 0.01673 0.88571 0.03537 0.0
H1912 H 0.03313 0.92747 0.06344 0.0
H1913 H 0.04902 0.93644 0.07971 0.0
H1914 H 0.01368 0.88965 0.09447 0.0
H1915 H -0.0022 0.88016 0.07826 0.0
C1916 C 0.91755 0.89439 0.04275 0.0
C1917 C 0.90903 0.87886 0.04883 0.0
C1918 C 0.93854 0.89885 0.04327 0.0
C1919 C 0.95134 0.88789 0.04988 0.0
C1920 C 0.94272 0.87293 0.0562 0.0
C1921 C 0.92184 0.86841 0.05566 0.0
C1922 C 0.97388 0.89101 0.04994 0.0
C1923 C 0.98351 0.89608 0.05907 0.0
C1924 C 0.986 0.88786 0.04122 0.0
C1925 C 0.97684 0.88189 0.03143 0.0
C1926 C 0.96532 0.86374 0.03055 0.0
C1927 C 0.9566 0.85832 0.0213 0.0
C1928 C 0.95947 0.87084 0.01286 0.0
C1929 C 0.97112 0.88877 0.01365 0.0
C1930 C 0.97984 0.89428 0.02288 0.0
C1931 C 0.06855 0.87155 0.05913 0.0
C1932 C 0.0822 0.88203 0.05273 0.0
C1933 C 0.04753 0.87546 0.05872 0.0
C1934 C 0.03962 0.89002 0.05195 0.0
C1935 C 0.05316 0.90069 0.0456 0.0
C1936 C 0.07429 0.89682 0.04602 0.0
C1937 C 0.0171 0.89305 0.0512 0.0
C1938 C 0.00744 0.88913 0.04194 0.0
C1939 C 0.00496 0.8973 0.0598 0.0
C1940 C 0.01435 0.90303 0.06961 0.0
C1941 C 0.02884 0.91899 0.07014 0.0
C1942 C 0.03783 0.92418 0.07936 0.0
C1943 C 0.03238 0.9136 0.08812 0.0
C1944 C 0.01789 0.89784 0.08768 0.0
C1945 C 0.00886 0.89256 0.07848 0.0
H1946 H 0.03937 0.91764 0.09524 0.0
H1947 H 0.95272 0.86662 0.0057 0.0
H1948 H 0.40775 0.87921 0.44654 0.0
H1949 H 0.44498 0.88367 0.44619 0.0
H1950 H 0.45081 0.8304 0.42711 0.0
H1951 H 0.41367 0.82566 0.42748 0.0
H1952 H 0.4786 0.82981 0.44216 0.0
H1953 H 0.45489 0.87855 0.41746 0.0
H1954 H 0.43428 0.90775 0.4113 0.0
H1955 H 0.46225 0.9472 0.43325 0.0
H1956 H 0.48285 0.91817 0.43964 0.0
H1957 H 0.57777 0.84124 0.42227 0.0
H1958 H 0.54063 0.83996 0.42412 0.0
H1959 H 0.54279 0.8912 0.44464 0.0
H1960 H 0.58027 0.89239 0.44299 0.0
H1961 H 0.5112 0.8942 0.43018 0.0
H1962 H 0.53563 0.84582 0.45453 0.0
H1963 H 0.55556 0.81648 0.46107 0.0
H1964 H 0.52617 0.77643 0.43983 0.0
H1965 H 0.50616 0.80557 0.43311 0.0
C1966 C 0.41692 0.86842 0.44226 0.0
C1967 C 0.40766 0.85207 0.43703 0.0
C1968 C 0.43821 0.87106 0.44204 0.0
C1969 C 0.45066 0.85747 0.43655 0.0
C1970 C 0.44149 0.84107 0.4314 0.0
C1971 C 0.42023 0.83842 0.4316 0.0
C1972 C 0.47327 0.86015 0.43625 0.0
C1973 C 0.48572 0.84381 0.43943 0.0
C1974 C 0.48255 0.87865 0.43297 0.0
C1975 C 0.47026 0.89614 0.4291 0.0
C1976 C 0.45653 0.89341 0.42102 0.0
C1977 C 0.44487 0.90993 0.41748 0.0
C1978 C 0.44691 0.92929 0.42189 0.0
C1979 C 0.46066 0.93219 0.42985 0.0
C1980 C 0.47235 0.91571 0.43343 0.0
C1981 C 0.57044 0.85223 0.42722 0.0
C1982 C 0.5821 0.86673 0.43259 0.0
C1983 C 0.54917 0.85147 0.42825 0.0
C1984 C 0.539 0.86529 0.43463 0.0
C1985 C 0.5504 0.88032 0.43973 0.0
C1986 C 0.5718 0.88098 0.43876 0.0
C1987 C 0.51647 0.86374 0.43596 0.0
C1988 C 0.50405 0.88027 0.43297 0.0
C1989 C 0.50718 0.84541 0.4394 0.0
C1990 C 0.51948 0.82791 0.44328 0.0
C1991 C 0.53353 0.83079 0.4512 0.0
C1992 C 0.54476 0.81417 0.45498 0.0
C1993 C 0.54205 0.79459 0.4509 0.0
C1994 C 0.52818 0.79159 0.44301 0.0
C1995 C 0.51686 0.80814 0.43923 0.0
H1996 H 0.55079 0.78175 0.45382 0.0
H1997 H 0.43787 0.94206 0.41914 0.0
H1998 H 0.07534 0.09926 0.94405 0.0
H1999 H 0.03782 0.09694 0.94368 0.0
H2000 H 0.03466 0.15588 0.92891 0.0
H2001 H 0.07189 0.15848 0.92936 0.0
H2002 H 0.00859 0.15422 0.94431 0.0
H2003 H 0.02608 0.11087 0.91613 0.0
H2004 H 0.04333 0.08184 0.90774 0.0
H2005 H 0.01275 0.03951 0.92749 0.0
H2006 H -0.00448 0.06833 0.93609 0.0
H2007 H 0.90721 0.1593 0.92702 0.0
H2008 H 0.94446 0.15619 0.92754 0.0
H2009 H 0.93911 0.09848 0.94326 0.0
H2010 H 0.90165 0.10129 0.94269 0.0
H2011 H 0.9692 0.09737 0.9287 0.0
H2012 H 0.95035 0.14078 0.95627 0.0
H2013 H 0.93296 0.16989 0.96453 0.0
H2014 H 0.96632 0.21222 0.9459 0.0
H2015 H 0.9837 0.18333 0.93742 0.0
C2016 C 0.06666 0.11165 0.94065 0.0
C2017 C 0.07668 0.12909 0.93677 0.0
C2018 C 0.04521 0.11028 0.94042 0.0
C2019 C 0.03342 0.12622 0.93624 0.0
C2020 C 0.04342 0.14343 0.93222 0.0
C2021 C 0.06476 0.14485 0.93246 0.0
C2022 C 0.01063 0.12552 0.93631 0.0
C2023 C 0.0 0.14188 0.9408 0.0
C2024 C -0.0006 0.10911 0.93202 0.0
C2025 C 0.00969 0.09177 0.92683 0.0
C2026 C 0.02316 0.09538 0.91874 0.0
C2027 C 0.03291 0.07896 0.91393 0.0
C2028 C 0.02919 0.05884 0.9171 0.0
C2029 C 0.01565 0.0551 0.92506 0.0
C2030 C 0.00588 0.07147 0.9299 0.0
C2031 C 0.91387 0.14586 0.93055 0.0
C2032 C 0.90136 0.13063 0.93489 0.0
C2033 C 0.93521 0.14415 0.93086 0.0
C2034 C 0.94457 0.12726 0.93557 0.0
C2035 C 0.9322 0.11167 0.93962 0.0
C2036 C 0.91079 0.11336 0.93931 0.0
C2037 C 0.96725 0.12631 0.93649 0.0
C2038 C 0.97783 0.10963 0.93225 0.0
C2039 C 0.9785 0.14244 0.94101 0.0
C2040 C 0.9682 0.15987 0.94616 0.0
C2041 C 0.95388 0.15629 0.95389 0.0
C2042 C 0.94403 0.17275 0.95861 0.0
C2043 C 0.9485 0.19289 0.95573 0.0
C2044 C 0.96286 0.19661 0.94812 0.0
C2045 C 0.97273 0.1802 0.94336 0.0
H2046 H 0.94086 0.20562 0.95939 0.0
H2047 H 0.03675 0.04615 0.91336 0.0
H2048 H 0.1307 0.4438 0.94977 0.0
H2049 H 0.13069 0.47451 0.96049 0.0
H2050 H 0.18408 0.45166 0.97616 0.0
H2051 H 0.18463 0.42164 0.96537 0.0
H2052 H 0.12549 0.47854 0.97997 0.0
H2053 H 0.21413 0.48846 0.98429 0.0
H2054 H 0.24528 0.48466 0.9739 0.0
H2055 H 0.20956 0.49301 0.94702 0.0
H2056 H 0.17824 0.49715 0.95724 0.0
H2057 H 0.14886 0.53236 0.02499 0.0
H2058 H 0.14573 0.50769 0.01111 0.0
H2059 H 0.17217 0.55204 -0.00931 0.0
H2060 H 0.17625 0.57611 0.00453 0.0
H2061 H 0.1887 0.51832 0.98712 0.0
H2062 H 0.11929 0.53932 -0.00911 0.0
H2063 H 0.08683 0.54635 -0.0002 0.0
H2064 H 0.08155 0.4826 0.00762 0.0
H2065 H 0.11414 0.47522 -0.00112 0.0
C2066 C 0.1426 0.44554 0.9554 0.0
C2067 C 0.15772 0.43035 0.95669 0.0
C2068 C 0.14251 0.46301 0.96155 0.0
C2069 C 0.15752 0.46549 0.96905 0.0
C2070 C 0.17262 0.45035 0.97028 0.0
C2071 C 0.17286 0.4331 0.96411 0.0
C2072 C 0.15716 0.48337 0.97595 0.0
C2073 C 0.13924 0.48739 0.98148 0.0
C2074 C 0.17496 0.49523 0.97775 0.0
C2075 C 0.1938 0.49297 0.97154 0.0
C2076 C 0.21293 0.4896 0.97616 0.0
C2077 C 0.23062 0.48736 0.9703 0.0
C2078 C 0.22939 0.48854 0.9598 0.0
C2079 C 0.21048 0.49203 0.95515 0.0
C2080 C 0.19275 0.49429 0.96097 0.0
C2081 C 0.154 0.53675 0.01753 0.0
C2082 C 0.16294 0.55604 0.01585 0.0
C2083 C 0.15206 0.52275 0.00959 0.0
C2084 C 0.15851 0.52809 -0.00019 0.0
C2085 C 0.16718 0.54749 -0.00185 0.0
C2086 C 0.16952 0.56125 0.00609 0.0
C2087 C 0.15715 0.51325 -0.00865 0.0
C2088 C 0.17482 0.50973 0.98554 0.0
C2089 C 0.13891 0.50242 0.98906 0.0
C2090 C 0.11925 0.50675 -0.0057 0.0
C2091 C 0.11128 0.52682 -0.00543 0.0
C2092 C 0.09285 0.53087 -0.00042 0.0
C2093 C 0.08216 0.51494 0.00429 0.0
C2094 C 0.08986 0.49492 0.00398 0.0
C2095 C 0.1083 0.4908 -0.00101 0.0
H2096 H 0.06789 0.51811 0.00817 0.0
H2097 H 0.2431 0.48679 0.95528 0.0
H2098 H 0.78971 0.90701 0.1997 0.0
H2099 H 0.7647 0.91444 0.21291 0.0
H2100 H 0.79456 0.87097 0.23259 0.0
H2101 H 0.81956 0.86325 0.21938 0.0
H2102 H 0.75211 0.86994 0.23429 0.0
H2103 H 0.8062 0.92023 0.23477 0.0
H2104 H 0.82906 0.94632 0.22734 0.0
H2105 H 0.77686 0.98313 0.2193 0.0
H2106 H 0.75367 0.95711 0.22657 0.0
H2107 H 0.70606 0.90841 0.279 0.0
H2108 H 0.73234 0.89807 0.26682 0.0
H2109 H 0.71002 0.94359 0.24586 0.0
H2110 H 0.68419 0.95434 0.25803 0.0
H2111 H 0.75029 0.94259 0.24553 0.0
H2112 H 0.69601 0.89236 0.24422 0.0
H2113 H 0.67252 0.86649 0.25137 0.0
H2114 H 0.72397 0.8298 0.26061 0.0
H2115 H 0.74778 0.8556 0.25363 0.0
C2116 C 0.79079 0.89877 0.20677 0.0
C2117 C 0.8068 0.88474 0.20853 0.0
C2118 C 0.77652 0.90309 0.21432 0.0
C2119 C 0.77806 0.89354 0.22378 0.0
C2120 C 0.7932 0.87858 0.22535 0.0
C2121 C 0.8075 0.87424 0.2178 0.0
C2122 C 0.76473 0.90019 0.2322 0.0
C2123 C 0.75187 0.88575 0.23685 0.0
C2124 C 0.76427 0.92088 0.23543 0.0
C2125 C 0.7782 0.93664 0.23114 0.0
C2126 C 0.7996 0.93382 0.23136 0.0
C2127 C 0.81261 0.94861 0.22718 0.0
C2128 C 0.80442 0.96635 0.22283 0.0
C2129 C 0.78319 0.96937 0.22267 0.0
C2130 C 0.77011 0.95462 0.22682 0.0
C2131 C 0.70696 0.9164 0.27185 0.0
C2132 C 0.69294 0.93209 0.26945 0.0
C2133 C 0.72187 0.91038 0.26488 0.0
C2134 C 0.72286 0.91978 0.25536 0.0
C2135 C 0.70949 0.93605 0.25314 0.0
C2136 C 0.6947 0.94217 0.26012 0.0
C2137 C 0.73736 0.91243 0.24755 0.0
C2138 C 0.75053 0.92674 0.24302 0.0
C2139 C 0.73797 0.89165 0.2444 0.0
C2140 C 0.72368 0.87602 0.2485 0.0
C2141 C 0.70232 0.87884 0.24784 0.0
C2142 C 0.68894 0.86418 0.25185 0.0
C2143 C 0.69674 0.84654 0.25647 0.0
C2144 C 0.71794 0.84349 0.25705 0.0
C2145 C 0.73138 0.85811 0.25306 0.0
H2146 H 0.68636 0.83522 0.25958 0.0
H2147 H 0.81452 0.97778 0.2196 0.0
H2148 H 0.32371 0.46324 0.52625 0.0
H2149 H 0.32209 0.48332 0.51076 0.0
H2150 H 0.38398 0.46539 0.50341 0.0
H2151 H 0.38579 0.44504 0.51891 0.0
H2152 H 0.37087 0.50827 0.49744 0.0
H2153 H 0.35271 0.43692 0.49393 0.0
H2154 H 0.33494 0.40516 0.49904 0.0
H2155 H 0.27665 0.43501 0.49534 0.0
H2156 H 0.2941 0.46708 0.49038 0.0
H2157 H 0.35133 0.53491 0.44641 0.0
H2158 H 0.3629 0.51337 0.46043 0.0
H2159 H 0.30112 0.51166 0.47209 0.0
H2160 H 0.28938 0.53266 0.45805 0.0
H2161 H 0.31939 0.47589 0.4749 0.0
H2162 H 0.33685 0.54765 0.48009 0.0
H2163 H 0.35371 0.58019 0.47541 0.0
H2164 H 0.41252 0.55045 0.47611 0.0
H2165 H 0.39595 0.51764 0.48067 0.0
C2166 C 0.33723 0.464 0.52152 0.0
C2167 C 0.35472 0.45217 0.52371 0.0
C2168 C 0.33626 0.4755 0.51267 0.0
C2169 C 0.35278 0.47546 0.5059 0.0
C2170 C 0.37106 0.46549 0.50855 0.0
C2171 C 0.37203 0.45386 0.51741 0.0
C2172 C 0.34968 0.48325 0.49555 0.0
C2173 C 0.35992 0.50104 0.49241 0.0
C2174 C 0.33529 0.4738 0.48907 0.0
C2175 C 0.32472 0.45444 0.49187 0.0
C2176 C 0.33611 0.43675 0.49428 0.0
C2177 C 0.32609 0.41869 0.49714 0.0
C2178 C 0.30468 0.41808 0.49753 0.0
C2179 C 0.29323 0.43551 0.49504 0.0
C2180 C 0.30318 0.45363 0.4922 0.0
C2181 C 0.34012 0.5295 0.45182 0.0
C2182 C 0.31947 0.53574 0.4512 0.0
C2183 C 0.3468 0.51734 0.45987 0.0
C2184 C 0.33296 0.51136 0.46743 0.0
C2185 C 0.3121 0.51623 0.46638 0.0
C2186 C 0.30541 0.52828 0.45834 0.0
C2187 C 0.34013 0.50132 0.47682 0.0
C2188 C 0.33064 0.48299 0.47981 0.0
C2189 C 0.35515 0.51037 0.48315 0.0
C2190 C 0.36514 0.53016 0.48061 0.0
C2191 C 0.35336 0.54803 0.4792 0.0
C2192 C 0.36286 0.56652 0.47657 0.0
C2193 C 0.38416 0.56736 0.47543 0.0
C2194 C 0.39602 0.54975 0.47697 0.0
C2195 C 0.38658 0.53121 0.47958 0.0
H2196 H 0.39148 0.58167 0.47337 0.0
H2197 H 0.29695 0.40408 0.49974 0.0
H2198 H 0.82274 0.06353 0.7612 0.0
H2199 H 0.79699 0.06576 0.74803 0.0
H2200 H 0.76205 0.10843 0.76606 0.0
H2201 H 0.7884 0.10682 0.77926 0.0
H2202 H 0.75952 0.05504 0.74757 0.0
H2203 H 0.73451 0.14025 0.75048 0.0
H2204 H 0.7492 0.1737 0.75537 0.0
H2205 H 0.80959 0.15197 0.748 0.0
H2206 H 0.79523 0.11851 0.74295 0.0
H2207 H 0.66687 0.06758 0.72254 0.0
H2208 H 0.69422 0.07016 0.73491 0.0
H2209 H 0.73066 0.10517 0.71389 0.0
H2210 H 0.7028 0.10313 0.70142 0.0
H2211 H 0.73421 0.12034 0.7328 0.0
H2212 H 0.7404 0.05457 0.71731 0.0
H2213 H 0.72862 0.02091 0.7111 0.0
H2214 H 0.71174 0.0034 0.74118 0.0
H2215 H 0.72316 0.03708 0.74755 0.0
C2216 C 0.8096 0.07341 0.76242 0.0
C2217 C 0.8076 0.08499 0.7713 0.0
C2218 C 0.79485 0.07466 0.75485 0.0
C2219 C 0.77764 0.08737 0.756 0.0
C2220 C 0.77539 0.09879 0.76492 0.0
C2221 C 0.79036 0.09774 0.77249 0.0
C2222 C 0.76194 0.08804 0.74789 0.0
C2223 C 0.75402 0.06935 0.74436 0.0
C2224 C 0.75503 0.10666 0.74353 0.0
C2225 C 0.7638 0.12681 0.74644 0.0
C2226 C 0.75091 0.14265 0.74987 0.0
C2227 C 0.75918 0.1616 0.75268 0.0
C2228 C 0.78032 0.16493 0.75203 0.0
C2229 C 0.79322 0.14934 0.74854 0.0
C2230 C 0.78503 0.13037 0.74571 0.0
C2231 C 0.68067 0.07586 0.7205 0.0
C2232 C 0.6828 0.08493 0.71094 0.0
C2233 C 0.69631 0.07731 0.7276 0.0
C2234 C 0.71463 0.08751 0.72526 0.0
C2235 C 0.71665 0.09714 0.71583 0.0
C2236 C 0.7008 0.09589 0.70871 0.0
C2237 C 0.73174 0.08737 0.73262 0.0
C2238 C 0.73983 0.10609 0.73602 0.0
C2239 C 0.73931 0.06874 0.73668 0.0
C2240 C 0.73249 0.04842 0.73289 0.0
C2241 C 0.73405 0.04359 0.72259 0.0
C2242 C 0.72745 0.0245 0.71905 0.0
C2243 C 0.71939 0.01004 0.72574 0.0
C2244 C 0.71796 0.01462 0.736 0.0
C2245 C 0.72452 0.0337 0.73959 0.0
H2246 H 0.7143 -0.00473 0.72298 0.0
H2247 H 0.78669 0.17961 0.75422 0.0
H2248 H 0.86361 0.54202 0.02531 0.0
H2249 H 0.86508 0.51974 0.01047 0.0
H2250 H 0.80043 0.52955 0.00536 0.0
H2251 H 0.79876 0.55152 0.0202 0.0
H2252 H 0.81077 0.49025 0.00222 0.0
H2253 H 0.83627 0.55679 -0.00762 0.0
H2254 H 0.85905 0.5869 -0.00645 0.0
H2255 H 0.91151 0.54842 0.98832 0.0
H2256 H 0.88904 0.51801 0.98726 0.0
H2257 H 0.79965 0.45893 0.95253 0.0
H2258 H 0.80207 0.48341 0.96639 0.0
H2259 H 0.86588 0.46791 0.97043 0.0
H2260 H 0.8637 0.44349 0.95649 0.0
H2261 H 0.85765 0.50933 0.97425 0.0
H2262 H 0.83206 0.44293 0.98388 0.0
H2263 H 0.80923 0.41287 0.98264 0.0
H2264 H 0.75691 0.45126 0.98835 0.0
H2265 H 0.77942 0.48162 0.98948 0.0
C2266 C 0.84965 0.53916 0.02112 0.0
C2267 C 0.83109 0.54865 0.02389 0.0
C2268 C 0.85055 0.52657 0.0126 0.0
C2269 C 0.83294 0.52333 0.00672 0.0
C2270 C 0.81422 0.53195 0.00976 0.0
C2271 C 0.81331 0.54452 0.01825 0.0
C2272 C 0.83397 0.51145 -0.00279 0.0
C2273 C 0.82088 0.49455 -0.00392 0.0
C2274 C 0.84748 0.51683 0.98928 0.0
C2275 C 0.86099 0.5351 -0.01015 0.0
C2276 C 0.85268 0.55473 -0.00845 0.0
C2277 C 0.86553 0.57185 -0.00781 0.0
C2278 C 0.88672 0.56957 -0.00896 0.0
C2279 C 0.8951 0.55016 0.98923 0.0
C2280 C 0.88231 0.53298 0.9886 0.0
C2281 C 0.81435 0.46108 0.95618 0.0
C2282 C 0.83137 0.44896 0.95354 0.0
C2283 C 0.81568 0.47504 0.96412 0.0
C2284 C 0.83402 0.47704 0.96958 0.0
C2285 C 0.85156 0.46643 0.96636 0.0
C2286 C 0.85026 0.45247 0.95839 0.0
C2287 C 0.83423 0.48838 0.97924 0.0
C2288 C 0.84759 0.50506 0.98041 0.0
C2289 C 0.82096 0.48283 0.98724 0.0
C2290 C 0.80741 0.46457 0.98667 0.0
C2291 C 0.81567 0.44498 0.9848 0.0
C2292 C 0.80279 0.42789 0.98413 0.0
C2293 C 0.78163 0.43016 0.98539 0.0
C2294 C 0.77331 0.44953 0.98736 0.0
C2295 C 0.78612 0.46668 0.98802 0.0
H2296 H 0.77168 0.41691 0.98487 0.0
H2297 H 0.89665 0.58284 -0.00847 0.0
H2298 H 0.20676 0.09932 0.778 0.0
H2299 H 0.23068 0.10063 0.76371 0.0
H2300 H 0.19151 0.05939 0.74704 0.0
H2301 H 0.16835 0.05728 0.76132 0.0
H2302 H 0.22768 0.04754 0.74473 0.0
H2303 H 0.19467 0.1128 0.74219 0.0
H2304 H 0.18274 0.14669 0.74805 0.0
H2305 H 0.24506 0.16528 0.7532 0.0
H2306 H 0.25735 0.13139 0.74749 0.0
H2307 H 0.28197 0.09532 0.69766 0.0
H2308 H 0.25535 0.09815 0.71075 0.0
H2309 H 0.29139 0.05947 0.73037 0.0
H2310 H 0.31735 0.05603 0.71738 0.0
H2311 H 0.25424 0.11217 0.72985 0.0
H2312 H 0.26241 0.02741 0.74317 0.0
H2313 H 0.27098 0.99357 0.73597 0.0
H2314 H 0.25146 0.01412 0.70674 0.0
H2315 H 0.24251 0.04798 0.7138 0.0
C2316 C 0.20339 0.09048 0.77129 0.0
C2317 C 0.1858 0.07807 0.77081 0.0
C2318 C 0.21693 0.09138 0.7631 0.0
C2319 C 0.21279 0.08027 0.75424 0.0
C2320 C 0.19514 0.06802 0.75379 0.0
C2321 C 0.1819 0.06681 0.76199 0.0
C2322 C 0.22706 0.0806 0.74552 0.0
C2323 C 0.23341 0.06172 0.74149 0.0
C2324 C 0.23424 0.09906 0.7411 0.0
C2325 C 0.22691 0.11949 0.7445 0.0
C2326 C 0.20582 0.12407 0.74464 0.0
C2327 C 0.19899 0.14329 0.74792 0.0
C2328 C 0.21313 0.15811 0.75102 0.0
C2329 C 0.23412 0.15377 0.75081 0.0
C2330 C 0.24103 0.13457 0.74754 0.0
C2331 C 0.28409 0.0874 0.70477 0.0
C2332 C 0.30154 0.07516 0.70643 0.0
C2333 C 0.26897 0.08911 0.71224 0.0
C2334 C 0.27124 0.07871 0.72146 0.0
C2335 C 0.28906 0.06721 0.72323 0.0
C2336 C 0.30391 0.06526 0.71577 0.0
C2337 C 0.25491 0.07914 0.72922 0.0
C2338 C 0.24831 0.09808 0.73309 0.0
C2339 C 0.24687 0.06074 0.73329 0.0
C2340 C 0.25195 0.04029 0.72901 0.0
C2341 C 0.25985 0.02467 0.73522 0.0
C2342 C 0.2648 0.0055 0.73116 0.0
C2343 C 0.26182 0.00172 0.7209 0.0
C2344 C 0.25383 0.01709 0.71468 0.0
C2345 C 0.24884 0.03629 0.71871 0.0
H2346 H 0.26568 0.98687 0.71777 0.0
H2347 H 0.20781 0.17298 0.75356 0.0
H2348 H 0.69232 0.46277 0.52415 0.0
H2349 H 0.6841 0.48676 0.51068 0.0
H2350 H 0.6196 0.47404 0.51452 0.0
H2351 H 0.62777 0.44954 0.52793 0.0
H2352 H 0.63034 0.46968 0.49542 0.0
H2353 H 0.63945 0.52176 0.52001 0.0
H2354 H 0.65626 0.54032 0.53392 0.0
H2355 H 0.70865 0.55193 0.51516 0.0
H2356 H 0.6923 0.53319 0.50116 0.0
H2357 H 0.6098 0.5459 0.45691 0.0
H2358 H 0.61009 0.52529 0.47236 0.0
H2359 H 0.67625 0.5271 0.4727 0.0
H2360 H 0.67613 0.54767 0.45735 0.0
H2361 H 0.65943 0.53934 0.49064 0.0
H2362 H 0.65138 0.48358 0.46687 0.0
H2363 H 0.63437 0.46489 0.45304 0.0
H2364 H 0.57914 0.46074 0.47058 0.0
H2365 H 0.59577 0.47966 0.48446 0.0
C2366 C 0.67634 0.46538 0.5223 0.0
C2367 C 0.66072 0.4541 0.52705 0.0
C2368 C 0.67164 0.47921 0.51461 0.0
C2369 C 0.65122 0.48224 0.5116 0.0
C2370 C 0.63547 0.47189 0.51672 0.0
C2371 C 0.64016 0.45799 0.52442 0.0
C2372 C 0.64671 0.4946 0.50247 0.0
C2373 C 0.63628 0.48512 0.49446 0.0
C2374 C 0.65476 0.51458 0.50115 0.0
C2375 C 0.66467 0.52595 0.50954 0.0
C2376 C 0.65461 0.52815 0.51886 0.0
C2377 C 0.66406 0.53872 0.52677 0.0
C2378 C 0.68352 0.54727 0.52543 0.0
C2379 C 0.69357 0.5453 0.51618 0.0
C2380 C 0.68421 0.53473 0.50825 0.0
C2381 C 0.62442 0.54156 0.46017 0.0
C2382 C 0.64295 0.54855 0.45595 0.0
C2383 C 0.62455 0.52983 0.469 0.0
C2384 C 0.64319 0.52484 0.4737 0.0
C2385 C 0.66169 0.53097 0.46923 0.0
C2386 C 0.66159 0.54263 0.46042 0.0
C2387 C 0.6436 0.51417 0.48356 0.0
C2388 C 0.65322 0.52403 0.49169 0.0
C2389 C 0.63472 0.49461 0.48499 0.0
C2390 C 0.62474 0.48325 0.47665 0.0
C2391 C 0.63555 0.47885 0.46774 0.0
C2392 C 0.62599 0.46818 0.4599 0.0
C2393 C 0.60566 0.46169 0.46092 0.0
C2394 C 0.59487 0.46581 0.46979 0.0
C2395 C 0.60436 0.4765 0.47765 0.0
H2396 H 0.59829 0.45343 0.45484 0.0
H2397 H 0.69081 0.55545 0.53156 0.0
H2398 H 0.20919 0.89584 0.20754 0.0
H2399 H 0.23451 0.89027 0.22094 0.0
H2400 H 0.19506 0.9216 0.24206 0.0
H2401 H 0.17014 0.92768 0.22874 0.0
H2402 H 0.23178 0.93494 0.24421 0.0
H2403 H 0.20112 0.8688 0.24239 0.0
H2404 H 0.18898 0.83701 0.23427 0.0
H2405 H 0.25065 0.82239 0.22541 0.0
H2406 H 0.26313 0.85426 0.23335 0.0
H2407 H 0.29774 0.87271 0.28323 0.0
H2408 H 0.26779 0.87478 0.27202 0.0
H2409 H 0.29869 0.92065 0.25413 0.0
H2410 H 0.32817 0.91906 0.2653 0.0
H2411 H 0.2629 0.86731 0.2522 0.0
H2412 H 0.26601 0.95565 0.24569 0.0
H2413 H 0.27535 0.98692 0.2551 0.0
H2414 H 0.26322 0.95605 0.28307 0.0
H2415 H 0.25353 0.92469 0.27383 0.0
C2416 C 0.20596 0.90152 0.21504 0.0
C2417 C 0.18772 0.91229 0.21706 0.0
C2418 C 0.22035 0.8982 0.22271 0.0
C2419 C 0.2166 0.90536 0.23254 0.0
C2420 C 0.19833 0.91598 0.23454 0.0
C2421 C 0.18408 0.91944 0.2269 0.0
C2422 C 0.23201 0.90265 0.24067 0.0
C2423 C 0.23852 0.92012 0.24596 0.0
C2424 C 0.24045 0.88325 0.24315 0.0
C2425 C 0.23303 0.86402 0.2384 0.0
C2426 C 0.21208 0.85889 0.23865 0.0
C2427 C 0.20513 0.84084 0.23408 0.0
C2428 C 0.21903 0.82772 0.22931 0.0
C2429 C 0.2399 0.83259 0.2291 0.0
C2430 C 0.24692 0.85063 0.23364 0.0
C2431 C 0.29804 0.88333 0.27694 0.0
C2432 C 0.31526 0.89584 0.27521 0.0
C2433 C 0.28099 0.88441 0.27052 0.0
C2434 C 0.28092 0.89805 0.26232 0.0
C2435 C 0.29822 0.91031 0.26053 0.0
C2436 C 0.31511 0.90933 0.26693 0.0
C2437 C 0.26293 0.89968 0.25552 0.0
C2438 C 0.25599 0.88206 0.25048 0.0
C2439 C 0.25363 0.91886 0.25344 0.0
C2440 C 0.25919 0.93776 0.25906 0.0
C2441 C 0.26523 0.95556 0.25385 0.0
C2442 C 0.27062 0.9733 0.25915 0.0
C2443 C 0.26993 0.97346 0.26968 0.0
C2444 C 0.26381 0.95589 0.27492 0.0
C2445 C 0.2584 0.93812 0.26965 0.0
H2446 H 0.27412 0.9872 0.27377 0.0
H2447 H 0.21362 0.81375 0.22578 0.0
H2448 H 0.62538 0.05079 0.52711 0.0
H2449 H 0.62375 0.02064 0.51599 0.0
H2450 H 0.66493 0.05037 0.49514 0.0
H2451 H 0.66698 0.08002 0.50616 0.0
H2452 H 0.61193 0.01483 0.49628 0.0
H2453 H 0.6986 0.01676 0.48613 0.0
H2454 H 0.73143 0.02679 0.49396 0.0
H2455 H 0.7058 0.01686 0.52337 0.0
H2456 H 0.67292 0.0065 0.51572 0.0
H2457 H 0.63305 0.95431 0.45236 0.0
H2458 H 0.62929 0.98169 0.46495 0.0
H2459 H 0.66391 0.94558 0.48631 0.0
H2460 H 0.66825 0.91876 0.47379 0.0
H2461 H 0.67773 0.98214 0.48641 0.0
H2462 H 0.61091 0.95225 0.48815 0.0
H2463 H 0.57775 0.93988 0.48159 0.0
H2464 H 0.56295 0.00071 0.47143 0.0
H2465 H 0.59616 0.0134 0.4778 0.0
C2466 C 0.63407 0.05082 0.52016 0.0
C2467 C 0.64651 0.06766 0.51759 0.0
C2468 C 0.63304 0.03368 0.5138 0.0
C2469 C 0.64445 0.03319 0.50481 0.0
C2470 C 0.65631 0.05027 0.50212 0.0
C2471 C 0.65745 0.06723 0.50846 0.0
C2472 C 0.64472 0.01473 0.49831 0.0
C2473 C 0.62627 0.00757 0.49414 0.0
C2474 C 0.66341 0.00507 0.49568 0.0
C2475 C 0.68324 0.01102 0.50035 0.0
C2476 C 0.7 0.01663 0.49427 0.0
C2477 C 0.71861 0.02239 0.49868 0.0
C2478 C 0.72068 0.02252 0.50916 0.0
C2479 C 0.70415 0.01682 0.51526 0.0
C2480 C 0.68552 0.01103 0.51089 0.0
C2481 C 0.63981 0.95228 0.45975 0.0
C2482 C 0.65109 0.93448 0.46205 0.0
C2483 C 0.63754 0.96783 0.46696 0.0
C2484 C 0.64622 0.96563 0.47661 0.0
C2485 C 0.65716 0.9477 0.47892 0.0
C2486 C 0.65965 0.93236 0.47172 0.0
C2487 C 0.64495 0.98229 0.48421 0.0
C2488 C 0.6633 0.98922 0.48857 0.0
C2489 C 0.62612 0.99129 0.48719 0.0
C2490 C 0.60611 0.98374 0.48337 0.0
C2491 C 0.60065 0.96296 0.48444 0.0
C2492 C 0.58184 0.9559 0.48077 0.0
C2493 C 0.56827 0.96949 0.47607 0.0
C2494 C 0.57348 0.9902 0.47506 0.0
C2495 C 0.59229 -0.00266 0.47871 0.0
H2496 H 0.55371 0.96399 0.47324 0.0
H2497 H 0.73509 0.027 0.51255 0.0
H2498 H 0.19795 0.37377 0.77117 0.0
H2499 H 0.21863 0.36904 0.75596 0.0
H2500 H 0.21629 0.43422 0.75024 0.0
H2501 H 0.19537 0.43904 0.7653 0.0
H2502 H 0.20698 0.41294 0.73362 0.0
H2503 H 0.25988 0.41096 0.75902 0.0
H2504 H 0.2768 0.39843 0.77447 0.0
H2505 H 0.28081 0.3379 0.76182 0.0
H2506 H 0.26367 0.35002 0.74633 0.0
H2507 H 0.28987 0.4295 0.70012 0.0
H2508 H 0.26355 0.42793 0.71315 0.0
H2509 H 0.27073 0.36217 0.71489 0.0
H2510 H 0.29732 0.36362 0.70191 0.0
H2511 H 0.27549 0.37979 0.73295 0.0
H2512 H 0.22585 0.38315 0.70666 0.0
H2513 H 0.20953 0.39629 0.69118 0.0
H2514 H 0.19974 0.4547 0.70538 0.0
H2515 H 0.21627 0.44202 0.7209 0.0
C2516 C 0.20209 0.38713 0.76675 0.0
C2517 C 0.19499 0.40678 0.76943 0.0
C2518 C 0.21389 0.38439 0.75806 0.0
C2519 C 0.21896 0.40128 0.75196 0.0
C2520 C 0.21241 0.42096 0.7548 0.0
C2521 C 0.20056 0.4237 0.76344 0.0
C2522 C 0.23064 0.3985 0.74248 0.0
C2523 C 0.22205 0.40586 0.73347 0.0
C2524 C 0.24997 0.38864 0.74226 0.0
C2525 C 0.26028 0.38134 0.75156 0.0
C2526 C 0.26421 0.39494 0.75956 0.0
C2527 C 0.27387 0.38792 0.76832 0.0
C2528 C 0.27981 0.36736 0.76914 0.0
C2529 C 0.27616 0.3538 0.76118 0.0
C2530 C 0.26649 0.36074 0.75241 0.0
C2531 C 0.28551 0.41463 0.70308 0.0
C2532 C 0.29588 0.39672 0.70008 0.0
C2533 C 0.27038 0.41374 0.71051 0.0
C2534 C 0.26523 0.39493 0.71501 0.0
C2535 C 0.27456 0.37685 0.71153 0.0
C2536 C 0.28968 0.37771 0.70409 0.0
C2537 C 0.252 0.39456 0.72409 0.0
C2538 C 0.2603 0.38662 0.73305 0.0
C2539 C 0.23244 0.40395 0.72426 0.0
C2540 C 0.22244 0.41166 0.71493 0.0
C2541 C 0.22037 0.39885 0.70646 0.0
C2542 C 0.21105 0.40621 0.69768 0.0
C2543 C 0.20364 0.42632 0.69729 0.0
C2544 C 0.20549 0.43912 0.70569 0.0
C2545 C 0.21481 0.43184 0.71449 0.0
H2546 H 0.19642 0.43199 0.69049 0.0
H2547 H 0.28729 0.36196 0.77592 0.0
H2548 H 0.79279 0.93683 0.01738 0.0
H2549 H 0.79377 0.96218 0.00384 0.0
H2550 H 0.85898 0.96937 0.00811 0.0
H2551 H 0.85811 0.94421 0.0218 0.0
H2552 H 0.84064 0.00578 0.00421 0.0
H2553 H 0.84109 0.93845 0.98967 0.0
H2554 H 0.82871 0.90313 0.98692 0.0
H2555 H 0.77123 0.9265 0.976 0.0
H2556 H 0.78316 0.96198 0.97882 0.0
H2557 H 0.85795 0.05451 0.95743 0.0
H2558 H 0.85972 0.02779 0.97035 0.0
H2559 H 0.79417 0.01955 0.96849 0.0
H2560 H 0.79224 0.04611 0.95552 0.0
H2561 H 0.81455 0.983 0.97089 0.0
H2562 H 0.81367 0.05018 0.98618 0.0
H2563 H 0.82608 0.0855 0.98891 0.0
H2564 H 0.88465 0.06218 -0.00165 0.0
H2565 H 0.87268 0.0267 -0.00446 0.0
C2566 C 0.8073 0.94401 0.01555 0.0
C2567 C 0.82541 0.93833 0.02059 0.0
C2568 C 0.80785 0.95841 0.00776 0.0
C2569 C 0.82653 0.96727 0.00481 0.0
C2570 C 0.84443 0.96257 0.01022 0.0
C2571 C 0.84389 0.94821 0.01805 0.0
C2572 C 0.82747 0.98074 -0.00418 0.0
C2573 C 0.83522 0.0007 -0.00311 0.0
C2574 C 0.82013 0.97418 0.98631 0.0
C2575 C 0.81296 0.95287 0.98454 0.0
C2576 C 0.82575 0.93606 0.98675 0.0
C2577 C 0.81883 0.91601 0.98517 0.0
C2578 C 0.79918 0.91257 0.98131 0.0
C2579 C 0.78644 0.92919 0.979 0.0
C2580 C 0.79328 0.94927 0.98058 0.0
C2581 C 0.84395 0.04673 0.95961 0.0
C2582 C 0.82491 0.05261 0.95554 0.0
C2583 C 0.84499 0.03155 0.96704 0.0
C2584 C 0.82702 0.02202 0.9705 0.0
C2585 C 0.8082 0.02683 0.96596 0.0
C2586 C 0.80713 0.04204 0.95855 0.0
C2587 C 0.82756 0.00804 0.9793 0.0
C2588 C 0.82009 0.988 0.9782 0.0
C2589 C 0.83518 0.01451 0.98878 0.0
C2590 C 0.84235 0.03581 -0.00946 0.0
C2591 C 0.82925 0.0526 0.98876 0.0
C2592 C 0.83619 0.07264 -0.00966 0.0
C2593 C 0.85616 0.07608 -0.00622 0.0
C2594 C 0.8692 0.05949 -0.00433 0.0
C2595 C 0.86234 0.03941 -0.00591 0.0
H2596 H 0.86151 0.09161 -0.00501 0.0
H2597 H 0.79385 0.89704 0.98009 0.0
H2598 H 0.29027 0.53394 0.26828 0.0
H2599 H 0.26454 0.53875 0.25511 0.0
H2600 H 0.27387 0.60425 0.25629 0.0
H2601 H 0.29944 0.59964 0.26958 0.0
H2602 H 0.2336 0.59452 0.25318 0.0
H2603 H 0.29898 0.57648 0.23903 0.0
H2604 H 0.33023 0.55547 0.23711 0.0
H2605 H 0.2936 0.50354 0.22858 0.0
H2606 H 0.26209 0.52418 0.23059 0.0
H2607 H 0.19038 0.61558 0.20538 0.0
H2608 H 0.21633 0.61309 0.21865 0.0
H2609 H 0.20966 0.54721 0.21894 0.0
H2610 H 0.18394 0.54951 0.20562 0.0
H2611 H 0.24939 0.55856 0.22112 0.0
H2612 H 0.184 0.57631 0.23575 0.0
H2613 H 0.15272 0.59724 0.23775 0.0
H2614 H 0.18939 0.64974 0.24534 0.0
H2615 H 0.22093 0.62918 0.24325 0.0
C2616 C 0.28657 0.54941 0.26589 0.0
C2617 C 0.29712 0.56638 0.26987 0.0
C2618 C 0.27194 0.55212 0.25832 0.0
C2619 C 0.26771 0.57181 0.25456 0.0
C2620 C 0.27706 0.58891 0.25904 0.0
C2621 C 0.29166 0.58623 0.26664 0.0
C2622 C 0.25466 0.5744 0.24551 0.0
C2623 C 0.23718 0.58688 0.24613 0.0
C2624 C 0.25925 0.56422 0.23636 0.0
C2625 C 0.27818 0.55182 0.23505 0.0
C2626 C 0.29758 0.56054 0.23681 0.0
C2627 C 0.31534 0.5487 0.2357 0.0
C2628 C 0.3139 0.52817 0.23274 0.0
C2629 C 0.29469 0.51944 0.23087 0.0
C2630 C 0.27688 0.53121 0.23199 0.0
C2631 C 0.19472 0.60053 0.20813 0.0
C2632 C 0.18493 0.58275 0.20453 0.0
C2633 C 0.20944 0.59915 0.21576 0.0
C2634 C 0.21457 0.58 0.21991 0.0
C2635 C 0.20581 0.56215 0.21588 0.0
C2636 C 0.19109 0.5635 0.20827 0.0
C2637 C 0.22821 0.57853 0.2288 0.0
C2638 C 0.24585 0.56627 0.22815 0.0
C2639 C 0.22376 0.58892 0.23792 0.0
C2640 C 0.20482 0.60127 0.23924 0.0
C2641 C 0.1854 0.59236 0.23777 0.0
C2642 C 0.16762 0.60415 0.23893 0.0
C2643 C 0.16906 0.62483 0.24164 0.0
C2644 C 0.18829 0.63374 0.24322 0.0
C2645 C 0.20612 0.62202 0.24206 0.0
H2646 H 0.15528 0.63393 0.24253 0.0
H2647 H 0.32766 0.51903 0.23189 0.0
H2648 H 0.32059 0.06838 0.50213 0.0
H2649 H 0.32741 0.03739 0.49252 0.0
H2650 H 0.36568 0.01443 0.51656 0.0
H2651 H 0.35926 0.04596 0.52624 0.0
H2652 H 0.38287 0.00752 0.49821 0.0
H2653 H 0.31768 -0.00454 0.51342 0.0
H2654 H 0.28207 0.0034 0.51835 0.0
H2655 H 0.26473 0.00765 0.4872 0.0
H2656 H 0.3003 3e-05 0.48207 0.0
H2657 H 0.38006 0.90588 0.4768 0.0
H2658 H 0.37889 0.9361 0.48768 0.0
H2659 H 0.34004 0.96696 0.46613 0.0
H2660 H 0.34088 0.93673 0.45527 0.0
H2661 H 0.32397 0.96779 0.4848 0.0
H2662 H 0.39004 0.98126 0.46976 0.0
H2663 H 0.42571 0.97304 0.46505 0.0
H2664 H 0.44137 0.96521 0.49625 0.0
H2665 H 0.4057 0.97311 0.50114 0.0
C2666 C 0.33043 0.05677 0.50543 0.0
C2667 C 0.33924 0.05955 0.515 0.0
C2668 C 0.33427 0.03901 0.49992 0.0
C2669 C 0.34674 0.02344 0.5039 0.0
C2670 C 0.35591 0.02624 0.51338 0.0
C2671 C 0.35218 0.04419 0.51891 0.0
C2672 C 0.34997 0.00433 0.49805 0.0
C2673 C 0.37003 -0.00141 0.49542 0.0
C2674 C 0.33318 0.99286 0.49431 0.0
C2675 C 0.31171 -0.0027 0.49736 0.0
C2676 C 0.3063 -0.00178 0.50762 0.0
C2677 C 0.28612 0.00264 0.51045 0.0
C2678 C 0.27115 0.00606 0.5031 0.0
C2679 C 0.27634 0.00501 0.49289 0.0
C2680 C 0.2965 0.00061 0.49002 0.0
C2681 C 0.37151 0.9192 0.47429 0.0
C2682 C 0.36042 0.91884 0.4652 0.0
C2683 C 0.37092 0.93649 0.48052 0.0
C2684 C 0.35938 0.95377 0.47772 0.0
C2685 C 0.34897 0.95374 0.46845 0.0
C2686 C 0.34952 0.93647 0.46224 0.0
C2687 C 0.35683 0.97129 0.48472 0.0
C2688 C 0.33684 0.97664 0.48763 0.0
C2689 C 0.37369 0.98225 0.48874 0.0
C2690 C 0.39515 0.97756 0.48581 0.0
C2691 C 0.40105 0.97762 0.47561 0.0
C2692 C 0.42128 0.97305 0.47291 0.0
C2693 C 0.43579 0.96854 0.48034 0.0
C2694 C 0.43011 0.96866 0.4905 0.0
C2695 C 0.4099 0.9732 0.49324 0.0
H2696 H 0.45144 0.96501 0.47824 0.0
H2697 H 0.25554 0.00949 0.5053 0.0
H2698 H 0.67782 0.56031 0.27321 0.0
H2699 H 0.70325 0.55549 0.2599 0.0
H2700 H 0.71015 0.62112 0.25724 0.0
H2701 H 0.68467 0.62612 0.27054 0.0
H2702 H 0.70235 0.6024 0.23904 0.0
H2703 H 0.74811 0.59317 0.26708 0.0
H2704 H 0.75989 0.57807 0.28312 0.0
H2705 H 0.76124 0.51827 0.26954 0.0
H2706 H 0.74918 0.53297 0.25345 0.0
H2707 H 0.78979 0.60531 0.2071 0.0
H2708 H 0.76316 0.60881 0.21989 0.0
H2709 H 0.76185 0.54302 0.22368 0.0
H2710 H 0.78889 0.53941 0.21106 0.0
H2711 H 0.76617 0.56111 0.24124 0.0
H2712 H 0.72109 0.56969 0.2132 0.0
H2713 H 0.70884 0.58412 0.1971 0.0
H2714 H 0.70542 0.64406 0.21044 0.0
H2715 H 0.71792 0.63004 0.22659 0.0
C2716 C 0.68502 0.57372 0.26993 0.0
C2717 C 0.67914 0.5936 0.27289 0.0
C2718 C 0.69956 0.57093 0.26232 0.0
C2719 C 0.70851 0.58796 0.25757 0.0
C2720 C 0.70333 0.6078 0.2608 0.0
C2721 C 0.68887 0.61061 0.26844 0.0
C2722 C 0.72228 0.58506 0.24882 0.0
C2723 C 0.71648 0.59363 0.23953 0.0
C2724 C 0.74028 0.57302 0.24942 0.0
C2725 C 0.74754 0.56415 0.25909 0.0
C2726 C 0.75074 0.57677 0.26754 0.0
C2727 C 0.75751 0.56829 0.27663 0.0
C2728 C 0.76126 0.54722 0.27736 0.0
C2729 C 0.7583 0.53458 0.26897 0.0
C2730 C 0.75152 0.54299 0.25986 0.0
C2731 C 0.78353 0.59153 0.21048 0.0
C2732 C 0.79159 0.57208 0.20813 0.0
C2733 C 0.76825 0.59356 0.21779 0.0
C2734 C 0.76051 0.57617 0.22276 0.0
C2735 C 0.76769 0.55665 0.21999 0.0
C2736 C 0.78308 0.55461 0.21273 0.0
C2737 C 0.74631 0.5785 0.23142 0.0
C2738 C 0.75202 0.56983 0.2407 0.0
C2739 C 0.72815 0.59034 0.23079 0.0
C2740 C 0.72062 0.59884 0.22109 0.0
C2741 C 0.71789 0.58598 0.21268 0.0
C2742 C 0.71087 0.59408 0.20355 0.0
C2743 C 0.7064 0.615 0.20274 0.0
C2744 C 0.7089 0.62786 0.21108 0.0
C2745 C 0.71593 0.61984 0.22023 0.0
H2746 H 0.70097 0.62124 0.19567 0.0
H2747 H 0.7665 0.54068 0.2844 0.0
H2748 H 0.14553 0.95575 0.02928 0.0
H2749 H 0.14332 0.98024 0.01526 0.0
H2750 H 0.17039 0.93533 -0.00464 0.0
H2751 H 0.17347 0.91139 0.00931 0.0
H2752 H 0.18711 0.96909 -0.00826 0.0
H2753 H 0.11768 0.94781 -0.00495 0.0
H2754 H 0.0849 0.94098 0.0037 0.0
H2755 H 0.07894 0.00501 0.01082 0.0
H2756 H 0.11184 0.01218 0.00232 0.0
H2757 H 0.12964 0.04098 0.95279 0.0
H2758 H 0.12947 0.01098 0.96403 0.0
H2759 H 0.18242 0.03496 0.97959 0.0
H2760 H 0.1832 0.06415 0.96829 0.0
H2761 H 0.12382 0.00795 0.98347 0.0
H2762 H 0.21232 -0.00086 0.98876 0.0
H2763 H 0.24386 0.00268 0.97863 0.0
H2764 H 0.2094 0.99231 0.95153 0.0
H2765 H 0.1777 0.98842 0.9615 0.0
C2766 C 0.15107 0.95121 0.02191 0.0
C2767 C 0.15979 0.93172 0.02042 0.0
C2768 C 0.14964 0.96511 0.01389 0.0
C2769 C 0.15647 0.95955 0.0042 0.0
C2770 C 0.16509 0.94005 0.00275 0.0
C2771 C 0.16685 0.92636 0.01076 0.0
C2772 C 0.15538 0.97414 -0.00439 0.0
C2773 C 0.17323 0.97751 -0.01007 0.0
C2774 C 0.13713 0.98472 -0.00698 0.0
C2775 C 0.11732 0.9805 -0.00188 0.0
C2776 C 0.10945 0.96041 -0.00148 0.0
C2777 C 0.09084 0.95648 0.00339 0.0
C2778 C 0.07986 0.97255 0.00783 0.0
C2779 C 0.08746 0.99258 0.00738 0.0
C2780 C 0.10609 -0.00341 0.00254 0.0
C2781 C 0.14143 0.0396 0.95851 0.0
C2782 C 0.15649 0.05487 0.9596 0.0
C2783 C 0.14125 0.02255 0.96495 0.0
C2784 C 0.1561 0.02058 0.97258 0.0
C2785 C 0.17112 0.03582 0.97362 0.0
C2786 C 0.17147 0.05261 0.96715 0.0
C2787 C 0.15567 0.00315 0.97978 0.0
C2788 C 0.1376 -0.00068 0.98523 0.0
C2789 C 0.17353 0.99157 0.98194 0.0
C2790 C 0.1926 0.99363 0.97588 0.0
C2791 C 0.21149 -0.00251 0.98064 0.0
C2792 C 0.22939 -0.00041 0.97493 0.0
C2793 C 0.22862 -0.00223 0.96445 0.0
C2794 C 0.20996 0.99378 0.95965 0.0
C2795 C 0.19201 0.99166 0.96533 0.0
H2796 H 0.2425 -0.00059 0.96004 0.0
H2797 H 0.06545 0.96947 0.01159 0.0
H2798 H 0.78878 0.39474 0.77631 0.0
H2799 H 0.76327 0.39089 0.76286 0.0
H2800 H 0.80728 0.41335 0.74117 0.0
H2801 H 0.83233 0.41798 0.75456 0.0
H2802 H 0.77375 0.43186 0.73828 0.0
H2803 H 0.79215 0.36169 0.74234 0.0
H2804 H 0.79851 0.32928 0.75142 0.0
H2805 H 0.73532 0.32704 0.7605 0.0
H2806 H 0.72862 0.3596 0.75159 0.0
H2807 H 0.6949 0.3779 0.70214 0.0
H2808 H 0.7259 0.37605 0.71264 0.0
H2809 H 0.70533 0.42892 0.72943 0.0
H2810 H 0.67488 0.43116 0.71894 0.0
H2811 H 0.73072 0.37016 0.73255 0.0
H2812 H 0.74418 0.45828 0.7362 0.0
H2813 H 0.74019 0.48947 0.72583 0.0
H2814 H 0.7448 0.45333 0.69888 0.0
H2815 H 0.74911 0.42196 0.70908 0.0
C2816 C 0.79296 0.39876 0.76866 0.0
C2817 C 0.81244 0.40685 0.76649 0.0
C2818 C 0.77846 0.39641 0.76097 0.0
C2819 C 0.78341 0.40169 0.75098 0.0
C2820 C 0.80305 0.40928 0.74882 0.0
C2821 C 0.81736 0.41194 0.75649 0.0
C2822 C 0.76782 0.40064 0.74285 0.0
C2823 C 0.76445 0.4183 0.73701 0.0
C2824 C 0.756 0.38281 0.741 0.0
C2825 C 0.75993 0.36319 0.74636 0.0
C2826 C 0.77964 0.35437 0.74633 0.0
C2827 C 0.7833 0.33595 0.75144 0.0
C2828 C 0.76734 0.32613 0.75655 0.0
C2829 C 0.74767 0.33467 0.75655 0.0
C2830 C 0.74393 0.3531 0.75145 0.0
C2831 C 0.69714 0.38922 0.70801 0.0
C2832 C 0.68252 0.40475 0.70967 0.0
C2833 C 0.71476 0.38809 0.71402 0.0
C2834 C 0.718 0.40249 0.72173 0.0
C2835 C 0.70335 0.41788 0.7234 0.0
C2836 C 0.68589 0.4191 0.7174 0.0
C2837 C 0.73644 0.40152 0.72822 0.0
C2838 C 0.74027 0.38356 0.73377 0.0
C2839 C 0.74914 0.41888 0.72962 0.0
C2840 C 0.74683 0.43774 0.72342 0.0
C2841 C 0.74446 0.457 0.72806 0.0
C2842 C 0.74212 0.47471 0.72222 0.0
C2843 C 0.74219 0.47337 0.71171 0.0
C2844 C 0.74467 0.45433 0.70702 0.0
C2845 C 0.74704 0.43658 0.71283 0.0
H2846 H 0.74036 0.4871 0.70719 0.0
H2847 H 0.77021 0.31187 0.76051 0.0
H2848 H 0.15662 0.81725 0.04938 0.0
H2849 H 0.15704 0.78155 0.04408 0.0
H2850 H 0.13699 0.79918 0.01434 0.0
H2851 H 0.13647 0.83539 0.01961 0.0
H2852 H 0.1174 0.76129 0.0241 0.0
H2853 H 0.18193 0.78927 0.01412 0.0
H2854 H 0.21298 0.81045 0.01615 0.0
H2855 H 0.23093 0.77452 0.04182 0.0
H2856 H 0.19981 0.75332 0.04005 0.0
H2857 H 0.14687 0.65457 0.01668 0.0
H2858 H 0.1439 0.69134 0.01279 0.0
H2859 H 0.16863 0.70604 0.04207 0.0
H2860 H 0.17161 0.66962 0.04599 0.0
H2861 H 0.18613 0.72866 0.02636 0.0
H2862 H 0.11862 0.70684 0.03855 0.0
H2863 H 0.08715 0.68594 0.03747 0.0
H2864 H 0.07481 0.71032 0.008 0.0
H2865 H 0.10641 0.73113 0.00886 0.0
C2866 C 0.15194 0.81363 0.04176 0.0
C2867 C 0.14655 0.82914 0.0349 0.0
C2868 C 0.15227 0.79321 0.03874 0.0
C2869 C 0.14724 0.78788 0.02881 0.0
C2870 C 0.14094 0.80313 0.02202 0.0
C2871 C 0.14072 0.82372 0.02504 0.0
C2872 C 0.1499 0.76638 0.02564 0.0
C2873 C 0.13245 0.75415 0.02426 0.0
C2874 C 0.16955 0.75722 0.02593 0.0
C2875 C 0.18848 0.76973 0.02696 0.0
C2876 C 0.19243 0.78595 0.02023 0.0
C2877 C 0.21006 0.79796 0.02134 0.0
C2878 C 0.22391 0.79384 0.02911 0.0
C2879 C 0.22019 0.77768 0.0358 0.0
C2880 C 0.20257 0.76564 0.03473 0.0
C2881 C 0.15177 0.66569 0.02224 0.0
C2882 C 0.15935 0.6593 0.03166 0.0
C2883 C 0.15004 0.68661 0.02001 0.0
C2884 C 0.15604 0.70129 0.02715 0.0
C2885 C 0.164 0.69489 0.03645 0.0
C2886 C 0.16555 0.67409 0.03871 0.0
C2887 C 0.15359 0.72346 0.02527 0.0
C2888 C 0.17114 0.73582 0.02574 0.0
C2889 C 0.13405 0.73266 0.02416 0.0
C2890 C 0.11499 0.72031 0.02371 0.0
C2891 C 0.10928 0.7076 0.03181 0.0
C2892 C 0.09141 0.6958 0.03124 0.0
C2893 C 0.07902 0.69675 0.02266 0.0
C2894 C 0.08445 0.70956 0.01464 0.0
C2895 C 0.10233 0.72136 0.01516 0.0
H2896 H 0.06519 0.6876 0.02224 0.0
H2897 H 0.23755 0.80316 0.02996 0.0
H2898 H 0.56889 0.93208 0.29227 0.0
H2899 H 0.53542 0.91988 0.28675 0.0
H2900 H 0.5603 0.90514 0.25754 0.0
H2901 H 0.59435 0.91653 0.26316 0.0
H2902 H 0.5131 0.93182 0.26478 0.0
H2903 H 0.55121 0.86855 0.25922 0.0
H2904 H 0.57872 0.84387 0.26312 0.0
H2905 H 0.5548 0.83622 0.29304 0.0
H2906 H 0.52741 0.8614 0.28938 0.0
H2907 H 0.4139 0.88412 0.26661 0.0
H2908 H 0.44881 0.88766 0.2599 0.0
H2909 H 0.47336 0.88039 0.28988 0.0
H2910 H 0.4389 0.87713 0.29659 0.0
H2911 H 0.49692 0.86041 0.27515 0.0
H2912 H 0.46328 0.92736 0.28129 0.0
H2913 H 0.43605 0.95286 0.27803 0.0
H2914 H 0.45152 0.95318 0.24657 0.0
H2915 H 0.47871 0.92749 0.24965 0.0
C2916 C 0.56738 0.92616 0.28469 0.0
C2917 C 0.58439 0.92481 0.27824 0.0
C2918 C 0.54819 0.91936 0.28153 0.0
C2919 C 0.54558 0.91136 0.27182 0.0
C2920 C 0.56218 0.91101 0.26512 0.0
C2921 C 0.58155 0.91759 0.26833 0.0
C2922 C 0.52549 0.90251 0.26918 0.0
C2923 C 0.50955 0.91597 0.26661 0.0
C2924 C 0.52097 0.88196 0.27171 0.0
C2925 C 0.53744 0.86701 0.27405 0.0
C2926 C 0.55199 0.86182 0.26667 0.0
C2927 C 0.56752 0.84769 0.26883 0.0
C2928 C 0.56848 0.83841 0.27831 0.0
C2929 C 0.55401 0.8434 0.28569 0.0
C2930 C 0.5385 0.85763 0.28358 0.0
C2931 C 0.42678 0.88288 0.27173 0.0
C2932 C 0.42361 0.88049 0.28216 0.0
C2933 C 0.44667 0.88489 0.26788 0.0
C2934 C 0.4636 0.88434 0.27441 0.0
C2935 C 0.46049 0.88073 0.28471 0.0
C2936 C 0.4407 0.87897 0.28856 0.0
C2937 C 0.48443 0.88984 0.27095 0.0
C2938 C 0.50045 0.87586 0.27264 0.0
C2939 C 0.48901 0.90987 0.26749 0.0
C2940 C 0.4728 0.92537 0.26567 0.0
C2941 C 0.46076 0.93278 0.27367 0.0
C2942 C 0.44536 0.94727 0.27186 0.0
C2943 C 0.44201 0.95459 0.26209 0.0
C2944 C 0.4541 0.94747 0.25412 0.0
C2945 C 0.4695 0.93295 0.2559 0.0
H2946 H 0.43008 0.96581 0.2607 0.0
H2947 H 0.5804 0.82732 0.27992 0.0
H2948 H 0.3538 0.16266 0.50863 0.0
H2949 H 0.35794 0.19851 0.5032 0.0
H2950 H 0.31573 0.21786 0.52639 0.0
H2951 H 0.31171 0.18237 0.53187 0.0
H2952 H 0.3102 0.23862 0.50798 0.0
H2953 H 0.3645 0.21829 0.53145 0.0
H2954 H 0.39375 0.19658 0.53652 0.0
H2955 H 0.42649 0.21433 0.50981 0.0
H2956 H 0.39723 0.23594 0.50451 0.0
H2957 H 0.32979 0.32613 0.53523 0.0
H2958 H 0.32723 0.2914 0.52857 0.0
H2959 H 0.36835 0.30724 0.50432 0.0
H2960 H 0.37073 0.34253 0.5109 0.0
H2961 H 0.37774 0.26933 0.51639 0.0
H2962 H 0.32484 0.29896 0.49657 0.0
H2963 H 0.2949 0.32104 0.49314 0.0
H2964 H 0.25887 0.28625 0.51417 0.0
H2965 H 0.28867 0.26415 0.51785 0.0
C2966 C 0.34518 0.17457 0.51244 0.0
C2967 C 0.33259 0.16985 0.52073 0.0
C2968 C 0.34755 0.19497 0.50934 0.0
C2969 C 0.33715 0.21074 0.51441 0.0
C2970 C 0.32379 0.20586 0.52234 0.0
C2971 C 0.32164 0.18562 0.52552 0.0
C2972 C 0.34145 0.23257 0.51231 0.0
C2973 C 0.32502 0.24538 0.50966 0.0
C2974 C 0.36094 0.24122 0.51428 0.0
C2975 C 0.3786 0.22847 0.51751 0.0
C2976 C 0.37788 0.21743 0.52662 0.0
C2977 C 0.39446 0.20516 0.52954 0.0
C2978 C 0.41194 0.204 0.52347 0.0
C2979 C 0.41291 0.21519 0.51449 0.0
C2980 C 0.39633 0.22744 0.51152 0.0
C2981 C 0.33824 0.3223 0.52845 0.0
C2982 C 0.3505 0.33697 0.52359 0.0
C2983 C 0.33667 0.3025 0.52463 0.0
C2984 C 0.34747 0.2969 0.51593 0.0
C2985 C 0.35982 0.31142 0.51101 0.0
C2986 C 0.36113 0.33148 0.51476 0.0
C2987 C 0.34624 0.27543 0.51247 0.0
C2988 C 0.3632 0.26262 0.51416 0.0
C2989 C 0.32715 0.26678 0.50973 0.0
C2990 C 0.30905 0.27989 0.50749 0.0
C2991 C 0.31057 0.29608 0.50051 0.0
C2992 C 0.29361 0.3086 0.49851 0.0
C2993 C 0.275 0.30505 0.50343 0.0
C2994 C 0.2733 0.28896 0.51035 0.0
C2995 C 0.29021 0.2764 0.51238 0.0
H2996 H 0.26189 0.31476 0.50188 0.0
H2997 H 0.42476 0.19449 0.52575 0.0
H2998 H 0.90709 0.101 0.76782 0.0
H2999 H 0.94337 0.10475 0.76299 0.0
H3000 H 0.96158 0.08966 0.79335 0.0
H3001 H 0.92593 0.08519 0.79811 0.0
H3002 H 0.98031 0.12647 0.7847 0.0
H3003 H 0.9639 0.05383 0.77722 0.0
H3004 H 0.94497 0.02726 0.7678 0.0
H3005 H 0.96654 0.05258 0.73985 0.0
H3006 H 0.98541 0.07946 0.74913 0.0
H3007 H 0.06919 0.07963 0.79841 0.0
H3008 H 0.03388 0.08623 0.7934 0.0
H3009 H 0.05354 0.09818 0.76292 0.0
H3010 H 0.0893 0.09194 0.76793 0.0
H3011 H 0.01651 0.0721 0.76544 0.0
H3012 H 0.04206 0.13769 0.77399 0.0
H3013 H 0.06188 0.16281 0.78389 0.0
H3014 H 0.02342 0.15169 0.80959 0.0
H3015 H 0.00364 0.12616 0.79993 0.0
C3016 C 0.91888 0.09847 0.77344 0.0
C3017 C 0.91364 0.09316 0.7834 0.0
C3018 C 0.9395 0.10068 0.77068 0.0
C3019 C 0.95499 0.09777 0.77787 0.0
C3020 C 0.94976 0.09231 0.78775 0.0
C3021 C 0.92933 0.08983 0.79046 0.0
C3022 C 0.97691 0.09971 0.77534 0.0
C3023 C 0.98829 0.11483 0.78036 0.0
C3024 C 0.9871 0.08492 0.76938 0.0
C3025 C 0.97579 0.06879 0.76385 0.0
C3026 C 0.96443 0.05383 0.76907 0.0
C3027 C 0.95376 0.0387 0.76375 0.0
C3028 C 0.95449 0.03828 0.75323 0.0
C3029 C 0.96594 0.05296 0.748 0.0
C3030 C 0.97663 0.06814 0.75328 0.0
C3031 C 0.0661 0.08374 0.79065 0.0
C3032 C 0.08206 0.08567 0.78362 0.0
C3033 C 0.04592 0.08743 0.78779 0.0
C3034 C 0.04127 0.09301 0.77784 0.0
C3035 C 0.05696 0.09402 0.77065 0.0
C3036 C 0.0773 0.09046 0.77353 0.0
C3037 C 0.01989 0.09816 0.77529 0.0
C3038 C 0.00861 0.08441 0.76935 0.0
C3039 C 0.00975 0.11431 0.78037 0.0
C3040 C 0.02135 0.12996 0.78621 0.0
C3041 C 0.03789 0.1405 0.78177 0.0
C3042 C 0.04912 0.15482 0.78735 0.0
C3043 C 0.04389 0.15886 0.79736 0.0
C3044 C 0.02742 0.14857 0.80182 0.0
C3045 C 0.01617 0.13419 0.79629 0.0
H3046 H 0.05259 0.16997 0.80166 0.0
H3047 H 0.94622 0.02655 0.74913 0.0
H3048 H 0.16371 0.17855 0.95395 0.0
H3049 H 0.15531 0.21172 0.96144 0.0
H3050 H 0.10321 0.18481 0.97652 0.0
H3051 H 0.11213 0.15109 0.96929 0.0
H3052 H 0.09728 0.22117 0.96198 0.0
H3053 H 0.12934 0.20325 -0.00767 0.0
H3054 H 0.15517 0.18711 0.00336 0.0
H3055 H 0.20183 0.22638 -0.00888 0.0
H3056 H 0.1764 0.24254 0.9799 0.0
H3057 H 0.12789 0.33529 0.97084 0.0
H3058 H 0.11832 0.3024 0.97867 0.0
H3059 H 0.14015 0.27022 0.95238 0.0
H3060 H 0.1502 0.30253 0.94469 0.0
H3061 H 0.14574 0.26458 0.98138 0.0
H3062 H 0.09949 0.23856 0.94587 0.0
H3063 H 0.07772 0.25491 0.93301 0.0
H3064 H 0.06307 0.30357 0.95355 0.0
H3065 H 0.08364 0.28688 0.96681 0.0
C3066 C 0.15074 0.17962 0.95903 0.0
C3067 C 0.13854 0.16242 0.96106 0.0
C3068 C 0.14603 0.19848 0.96335 0.0
C3069 C 0.12879 0.20056 0.96959 0.0
C3070 C 0.11673 0.18334 0.97182 0.0
C3071 C 0.12181 0.1642 0.9677 0.0
C3072 C 0.12245 0.22147 0.97245 0.0
C3073 C 0.10734 0.23076 0.96647 0.0
C3074 C 0.13537 0.2337 0.97852 0.0
C3075 C 0.15087 0.22419 0.98529 0.0
C3076 C 0.14512 0.2084 -0.00804 0.0
C3077 C 0.15971 0.19924 -0.00175 0.0
C3078 C 0.18012 0.20574 -0.00205 0.0
C3079 C 0.18599 0.22141 -0.00863 0.0
C3080 C 0.17147 0.23062 0.98506 0.0
C3081 C 0.13076 0.32115 0.96678 0.0
C3082 C 0.13945 0.32148 0.95706 0.0
C3083 C 0.12527 0.30248 0.97126 0.0
C3084 C 0.12819 0.28409 0.96598 0.0
C3085 C 0.13743 0.28439 0.95645 0.0
C3086 C 0.1431 0.30288 0.95205 0.0
C3087 C 0.12193 0.26413 0.97016 0.0
C3088 C 0.13475 0.2551 0.97739 0.0
C3089 C 0.10711 0.25211 0.96509 0.0
C3090 C 0.0932 0.26138 0.9574 0.0
C3091 C 0.09125 0.25247 0.94777 0.0
C3092 C 0.07906 0.26181 0.9404 0.0
C3093 C 0.06887 0.28018 0.9425 0.0
C3094 C 0.07072 0.28918 0.952 0.0
C3095 C 0.08259 0.27974 0.95946 0.0
H3096 H 0.0596 0.28749 0.93676 0.0
H3097 H 0.19139 0.19862 0.00283 0.0
H3098 H 0.91005 0.88465 0.20721 0.0
H3099 H 0.94697 0.88281 0.2106 0.0
H3100 H 0.95954 0.89838 0.1796 0.0
H3101 H 0.9229 0.90014 0.17615 0.0
H3102 H 0.98502 0.86858 0.18615 0.0
H3103 H 0.96015 0.9347 0.19806 0.0
H3104 H 0.93843 0.95733 0.20846 0.0
H3105 H 0.96261 0.92972 0.23536 0.0
H3106 H 0.9843 0.90674 0.22509 0.0
H3107 H 0.07649 0.92253 0.18213 0.0
H3108 H 0.04026 0.91402 0.18364 0.0
H3109 H 0.05057 0.89067 0.21363 0.0
H3110 H 0.08727 0.89862 0.21208 0.0
H3111 H 0.01449 0.91797 0.21067 0.0
H3112 H 0.04476 0.85658 0.19808 0.0
H3113 H 0.06778 0.83656 0.18709 0.0
H3114 H 0.03408 0.85653 0.16106 0.0
H3115 H 0.01112 0.87704 0.17187 0.0
C3116 C 0.9207 0.88751 0.20111 0.0
C3117 C 0.91356 0.89255 0.19141 0.0
C3118 C 0.94176 0.88646 0.20306 0.0
C3119 C 0.95597 0.89057 0.19537 0.0
C3120 C 0.94884 0.89503 0.18563 0.0
C3121 C 0.92786 0.89606 0.18368 0.0
C3122 C 0.97827 0.89141 0.19743 0.0
C3123 C 0.99146 0.87932 0.19154 0.0
C3124 C 0.98665 0.90504 0.20465 0.0
C3125 C 0.97362 0.91883 0.21081 0.0
C3126 C 0.96069 0.93334 0.20619 0.0
C3127 C 0.94842 0.94625 0.21206 0.0
C3128 C 0.94908 0.94492 0.22257 0.0
C3129 C 0.96207 0.9307 0.22722 0.0
C3130 C 0.97436 0.91773 0.22138 0.0
C3131 C 0.07118 0.91543 0.18902 0.0
C3132 C 0.08483 0.91083 0.1969 0.0
C3133 C 0.05044 0.91068 0.18989 0.0
C3134 C 0.04291 0.90147 0.19869 0.0
C3135 C 0.05623 0.89767 0.20677 0.0
C3136 C 0.07713 0.90221 0.20586 0.0
C3137 C 0.02109 0.89563 0.19918 0.0
C3138 C 0.00802 0.90678 0.20552 0.0
C3139 C 0.01282 0.88122 0.19234 0.0
C3140 C 0.02626 0.86846 0.1858 0.0
C3141 C 0.04233 0.85682 0.19001 0.0
C3142 C 0.05537 0.84537 0.18381 0.0
C3143 C 0.05241 0.84529 0.17338 0.0
C3144 C 0.03636 0.85661 0.16914 0.0
C3145 C 0.0233 0.86813 0.17531 0.0
H3146 H 0.06254 0.83643 0.1686 0.0
H3147 H 0.93958 0.95493 0.2271 0.0
H3148 H 0.30577 0.66316 0.43737 0.0
H3149 H 0.31505 0.69605 0.44478 0.0
H3150 H 0.33733 0.66534 0.47141 0.0
H3151 H 0.32864 0.63198 0.46388 0.0
H3152 H 0.30765 0.70791 0.47151 0.0
H3153 H 0.37305 0.6782 0.46384 0.0
H3154 H 0.398 0.65805 0.45396 0.0
H3155 H 0.38961 0.69839 0.42871 0.0
H3156 H 0.36424 0.71851 0.43833 0.0
H3157 H 0.34659 0.81522 0.47103 0.0
H3158 H 0.34759 0.7786 0.47573 0.0
H3159 H 0.33048 0.76217 0.44541 0.0
H3160 H 0.32861 0.79812 0.4408 0.0
H3161 H 0.3668 0.74072 0.45434 0.0
H3162 H 0.29456 0.76209 0.46074 0.0
H3163 H 0.26905 0.78259 0.47009 0.0
H3164 H 0.29152 0.75812 0.49806 0.0
H3165 H 0.31734 0.73765 0.48885 0.0
C3166 C 0.31262 0.6633 0.44479 0.0
C3167 C 0.31686 0.64495 0.44994 0.0
C3168 C 0.31778 0.68211 0.44905 0.0
C3169 C 0.32703 0.68298 0.45857 0.0
C3170 C 0.33025 0.66485 0.46403 0.0
C3171 C 0.32526 0.64588 0.45971 0.0
C3172 C 0.33432 0.70303 0.46222 0.0
C3173 C 0.32105 0.71498 0.46812 0.0
C3174 C 0.35175 0.71213 0.45775 0.0
C3175 C 0.36667 0.69983 0.45181 0.0
C3176 C 0.37632 0.68263 0.45614 0.0
C3177 C 0.39059 0.67124 0.45059 0.0
C3178 C 0.39544 0.67699 0.44074 0.0
C3179 C 0.38588 0.694 0.43636 0.0
C3180 C 0.37156 0.70541 0.44186 0.0
C3181 C 0.34306 0.80374 0.46539 0.0
C3182 C 0.3379 0.80958 0.45548 0.0
C3183 C 0.34369 0.78292 0.46808 0.0
C3184 C 0.3394 0.76782 0.46085 0.0
C3185 C 0.33417 0.77366 0.45103 0.0
C3186 C 0.33321 0.79427 0.4484 0.0
C3187 C 0.33967 0.74571 0.46325 0.0
C3188 C 0.3542 0.73345 0.45831 0.0
C3189 C 0.32352 0.73635 0.46865 0.0
C3190 C 0.30801 0.7486 0.47413 0.0
C3191 C 0.29417 0.76124 0.46889 0.0
C3192 C 0.27963 0.77282 0.47416 0.0
C3193 C 0.27871 0.77172 0.48467 0.0
C3194 C 0.29229 0.759 0.48992 0.0
C3195 C 0.30687 0.74741 0.48468 0.0
H3196 H 0.26744 0.78069 0.48874 0.0
H3197 H 0.40671 0.66836 0.43652 0.0
H3198 H 0.40053 0.09019 0.70918 0.0
H3199 H 0.43661 0.09195 0.71443 0.0
H3200 H 0.45435 0.05864 0.68772 0.0
H3201 H 0.41856 0.05694 0.68241 0.0
H3202 H 0.47366 0.04479 0.70556 0.0
H3203 H 0.45779 0.10827 0.6875 0.0
H3204 H 0.4384 0.14043 0.68506 0.0
H3205 H 0.45735 0.16138 0.71429 0.0
H3206 H 0.47662 0.12915 0.71696 0.0
H3207 H 0.56727 0.06599 0.68428 0.0
H3208 H 0.53113 0.06457 0.68881 0.0
H3209 H 0.54379 0.09695 0.71646 0.0
H3210 H 0.58044 0.09834 0.71197 0.0
H3211 H 0.50904 0.11221 0.70432 0.0
H3212 H 0.53258 0.05093 0.71988 0.0
H3213 H 0.55233 0.01876 0.72128 0.0
H3214 H 0.5192 0.9935 0.69622 0.0
H3215 H 0.49947 0.02563 0.69456 0.0
C3216 C 0.41215 0.08311 0.70448 0.0
C3217 C 0.40683 0.07354 0.69535 0.0
C3218 C 0.43267 0.08415 0.70749 0.0
C3219 C 0.44802 0.07542 0.70145 0.0
C3220 C 0.44265 0.06537 0.6925 0.0
C3221 C 0.42224 0.06455 0.68943 0.0
C3222 C 0.46992 0.07748 0.70404 0.0
C3223 C 0.48143 0.05952 0.70539 0.0
C3224 C 0.47982 0.09679 0.70412 0.0
C3225 C 0.46841 0.11621 0.70248 0.0
C3226 C 0.45767 0.11965 0.69344 0.0
C3227 C 0.44673 0.1379 0.69201 0.0
C3228 C 0.44661 0.15291 0.69953 0.0
C3229 C 0.45744 0.14971 0.70849 0.0
C3230 C 0.46837 0.13146 0.70996 0.0
C3231 C 0.56244 0.07286 0.69132 0.0
C3232 C 0.57664 0.08232 0.69777 0.0
C3233 C 0.54181 0.07192 0.69393 0.0
C3234 C 0.53492 0.08049 0.703 0.0
C3235 C 0.54894 0.09018 0.70945 0.0
C3236 C 0.56978 0.09091 0.70689 0.0
C3237 C 0.51286 0.07942 0.7054 0.0
C3238 C 0.50126 0.09755 0.70494 0.0
C3239 C 0.50285 0.06023 0.70609 0.0
C3240 C 0.51456 0.04075 0.70709 0.0
C3241 C 0.52958 0.03857 0.71462 0.0
C3242 C 0.54077 0.02033 0.71547 0.0
C3243 C 0.53703 0.0041 0.70884 0.0
C3244 C 0.52207 0.00608 0.70136 0.0
C3245 C 0.51085 0.02429 0.70048 0.0
H3246 H 0.54571 0.98999 0.70951 0.0
H3247 H 0.43818 0.16705 0.69839 0.0
H3248 H 0.85406 0.34192 0.96869 0.0
H3249 H 0.85743 0.30685 0.97545 0.0
H3250 H 0.81062 0.28612 0.95484 0.0
H3251 H 0.80754 0.32071 0.94799 0.0
H3252 H 0.80767 0.26863 0.97452 0.0
H3253 H 0.85753 0.28242 0.94736 0.0
H3254 H 0.88652 0.30198 0.9403 0.0
H3255 H 0.92325 0.28674 0.96612 0.0
H3256 H 0.89429 0.26724 0.97339 0.0
H3257 H 0.81545 0.18274 0.9451 0.0
H3258 H 0.81824 0.21711 0.9522 0.0
H3259 H 0.85785 0.19419 0.97569 0.0
H3260 H 0.85475 0.15925 0.9687 0.0
H3261 H 0.87037 0.23296 0.96248 0.0
H3262 H 0.82063 0.20753 0.98552 0.0
H3263 H 0.79021 0.18766 -0.00932 0.0
H3264 H 0.75215 0.22465 0.97148 0.0
H3265 H 0.78237 0.24454 0.96607 0.0
C3266 C 0.84426 0.3299 0.96578 0.0
C3267 C 0.83065 0.33386 0.95779 0.0
C3268 C 0.84618 0.30996 0.96963 0.0
C3269 C 0.83422 0.294 0.96565 0.0
C3270 C 0.81985 0.29829 0.95807 0.0
C3271 C 0.81822 0.31799 0.95411 0.0
C3272 C 0.83795 0.27231 0.96832 0.0
C3273 C 0.82153 0.26079 0.97212 0.0
C3274 C 0.85623 0.26225 0.96538 0.0
C3275 C 0.87372 0.27363 0.96097 0.0
C3276 C 0.87176 0.28336 0.95156 0.0
C3277 C 0.88818 0.29443 0.94752 0.0
C3278 C 0.90671 0.2957 0.95278 0.0
C3279 C 0.90887 0.2858 0.96207 0.0
C3280 C 0.89246 0.27474 0.96616 0.0
C3281 C 0.82473 0.18494 0.95179 0.0
C3282 C 0.83489 0.16837 0.95635 0.0
C3283 C 0.82624 0.20455 0.95585 0.0
C3284 C 0.83814 0.20805 0.96447 0.0
C3285 C 0.84852 0.19165 0.96905 0.0
C3286 C 0.84669 0.1718 0.96507 0.0
C3287 C 0.83973 0.22924 0.96828 0.0
C3288 C 0.85703 0.24074 0.96554 0.0
C3289 C 0.82216 0.23929 0.97211 0.0
C3290 C 0.80382 0.22753 0.97539 0.0
C3291 C 0.8058 0.21136 0.98235 0.0
C3292 C 0.78858 0.20009 0.98533 0.0
C3293 C 0.76926 0.20489 0.98141 0.0
C3294 C 0.76712 0.22098 0.97452 0.0
C3295 C 0.78429 0.23228 0.97152 0.0
H3296 H 0.75595 0.19615 0.98372 0.0
H3297 H 0.9194 0.30429 0.94964 0.0
H3298 H 0.66318 0.81618 0.43578 0.0
H3299 H 0.65407 0.78065 0.43926 0.0
H3300 H 0.6256 0.79883 0.4672 0.0
H3301 H 0.63428 0.83486 0.46366 0.0
H3302 H 0.65287 0.76029 0.46693 0.0
H3303 H 0.59454 0.79132 0.45137 0.0
H3304 H 0.57662 0.81288 0.43889 0.0
H3305 H 0.5969 0.77323 0.41507 0.0
H3306 H 0.61573 0.75193 0.42732 0.0
H3307 H 0.62145 0.65358 0.46134 0.0
H3308 H 0.61905 0.69011 0.46583 0.0
H3309 H 0.63906 0.70655 0.43589 0.0
H3310 H 0.6415 0.67051 0.4314 0.0
H3311 H 0.6061 0.72893 0.44177 0.0
H3312 H 0.67198 0.70633 0.45581 0.0
H3313 H 0.6934 0.68536 0.46719 0.0
H3314 H 0.6606 0.70887 0.49278 0.0
H3315 H 0.63883 0.72981 0.48152 0.0
C3316 C 0.65498 0.81271 0.44267 0.0
C3317 C 0.64904 0.82834 0.44934 0.0
C3318 C 0.6499 0.7924 0.44467 0.0
C3319 C 0.63893 0.7873 0.45339 0.0
C3320 C 0.634 0.80261 0.4604 0.0
C3321 C 0.63896 0.8231 0.45836 0.0
C3322 C 0.63193 0.76598 0.45469 0.0
C3323 C 0.64217 0.75343 0.46165 0.0
C3324 C 0.61809 0.75721 0.44772 0.0
C3325 C 0.60663 0.76999 0.4403 0.0
C3326 C 0.5954 0.7873 0.44346 0.0
C3327 C 0.58507 0.79949 0.43642 0.0
C3328 C 0.58551 0.79435 0.42621 0.0
C3329 C 0.5965 0.77715 0.42299 0.0
C3330 C 0.60705 0.76503 0.42998 0.0
C3331 C 0.62531 0.66504 0.45574 0.0
C3332 C 0.63148 0.6592 0.44599 0.0
C3333 C 0.62391 0.68584 0.45831 0.0
C3334 C 0.62876 0.70098 0.45117 0.0
C3335 C 0.63499 0.6951 0.44147 0.0
C3336 C 0.63638 0.67446 0.43892 0.0
C3337 C 0.62796 0.7231 0.4536 0.0
C3338 C 0.61616 0.73583 0.44734 0.0
C3339 C 0.64056 0.73198 0.4611 0.0
C3340 C 0.65361 0.71938 0.46783 0.0
C3341 C 0.66923 0.70688 0.46386 0.0
C3342 C 0.68145 0.69503 0.47028 0.0
C3343 C 0.67831 0.69572 0.48069 0.0
C3344 C 0.66298 0.70831 0.48471 0.0
C3345 C 0.65069 0.72016 0.47831 0.0
H3346 H 0.6878 0.68655 0.48566 0.0
H3347 H 0.57733 0.80366 0.42078 0.0
H3348 H 0.84645 0.65049 0.0191 0.0
H3349 H 0.84891 0.68646 0.01389 0.0
H3350 H 0.84453 0.70535 0.04499 0.0
H3351 H 0.84117 0.66972 0.05017 0.0
H3352 H 0.8207 0.72802 0.03406 0.0
H3353 H 0.89089 0.70413 0.0315 0.0
H3354 H 0.91859 0.68173 0.02521 0.0
H3355 H 0.90562 0.70061 -0.00515 0.0
H3356 H 0.87766 0.72294 0.00097 0.0
H3357 H 0.87064 0.82005 0.04029 0.0
H3358 H 0.87244 0.78331 0.03686 0.0
H3359 H 0.83906 0.79227 0.00915 0.0
H3360 H 0.83695 0.82933 0.01265 0.0
H3361 H 0.87956 0.75582 0.01461 0.0
H3362 H 0.80589 0.77864 0.01882 0.0
H3363 H 0.78156 0.80256 0.02694 0.0
H3364 H 0.80531 0.78613 0.05604 0.0
H3365 H 0.82989 0.76227 0.04806 0.0
C3366 C 0.84602 0.66233 0.02482 0.0
C3367 C 0.84381 0.65723 0.03507 0.0
C3368 C 0.84753 0.68286 0.02183 0.0
C3369 C 0.84711 0.69858 0.02905 0.0
C3370 C 0.84488 0.69347 0.03927 0.0
C3371 C 0.84313 0.67304 0.04225 0.0
C3372 C 0.84859 0.72047 0.0261 0.0
C3373 C 0.83347 0.73395 0.02969 0.0
C3374 C 0.86515 0.72832 0.02034 0.0
C3375 C 0.88204 0.71501 0.01668 0.0
C3376 C 0.89385 0.70338 0.02348 0.0
C3377 C 0.90961 0.69072 0.01994 0.0
C3378 C 0.91382 0.68969 0.00963 0.0
C3379 C 0.90232 0.70138 0.00283 0.0
C3380 C 0.88652 0.71406 0.00633 0.0
C3381 C 0.864 0.81426 0.03338 0.0
C3382 C 0.85314 0.82728 0.02687 0.0
C3383 C 0.86534 0.79335 0.03135 0.0
C3384 C 0.8558 0.7852 0.02279 0.0
C3385 C 0.84663 0.79842 0.01576 0.0
C3386 C 0.84538 0.81949 0.01778 0.0
C3387 C 0.85173 0.76298 0.02258 0.0
C3388 C 0.86642 0.74957 0.01858 0.0
C3389 C 0.83493 0.75506 0.02805 0.0
C3390 C 0.81969 0.76879 0.03285 0.0
C3391 C 0.8059 0.78018 0.02694 0.0
C3392 C 0.79209 0.79372 0.03152 0.0
C3393 C 0.7919 0.79588 0.042 0.0
C3394 C 0.80546 0.78444 0.04793 0.0
C3395 C 0.81931 0.77089 0.04339 0.0
H3396 H 0.78123 0.8064 0.04552 0.0
H3397 H 0.92602 0.67988 0.0069 0.0
H3398 H 0.64757 0.35061 0.51378 0.0
H3399 H 0.64298 0.31571 0.50716 0.0
H3400 H 0.68594 0.29273 0.5292 0.0
H3401 H 0.69035 0.32732 0.5359 0.0
H3402 H 0.6896 0.2734 0.51028 0.0
H3403 H 0.6383 0.29255 0.53528 0.0
H3404 H 0.61046 0.31424 0.54189 0.0
H3405 H 0.5744 0.30197 0.51548 0.0
H3406 H 0.6023 0.28038 0.50864 0.0
H3407 H 0.66653 0.18693 0.53783 0.0
H3408 H 0.66944 0.22179 0.53134 0.0
H3409 H 0.63135 0.20587 0.50595 0.0
H3410 H 0.62872 0.17041 0.51233 0.0
H3411 H 0.62153 0.2446 0.5193 0.0
H3412 H 0.6723 0.21441 0.4982 0.0
H3413 H 0.70123 0.19141 0.49421 0.0
H3414 H 0.73928 0.22339 0.51543 0.0
H3415 H 0.71049 0.24639 0.51968 0.0
C3416 C 0.65636 0.33814 0.51705 0.0
C3417 C 0.66916 0.34154 0.5254 0.0
C3418 C 0.65373 0.31828 0.51326 0.0
C3419 C 0.66411 0.30172 0.51771 0.0
C3420 C 0.67791 0.30536 0.52562 0.0
C3421 C 0.68028 0.32507 0.52949 0.0
C3422 C 0.65888 0.28028 0.51519 0.0
C3423 C 0.67463 0.26708 0.51205 0.0
C3424 C 0.63922 0.27219 0.51735 0.0
C3425 C 0.62247 0.28517 0.52138 0.0
C3426 C 0.62452 0.29468 0.53083 0.0
C3427 C 0.60873 0.30695 0.53462 0.0
C3428 C 0.59071 0.30966 0.52908 0.0
C3429 C 0.58842 0.3 0.51974 0.0
C3430 C 0.60423 0.28774 0.5159 0.0
C3431 C 0.65875 0.19078 0.53087 0.0
C3432 C 0.64735 0.17602 0.52559 0.0
C3433 C 0.66054 0.21065 0.52714 0.0
C3434 C 0.65077 0.21622 0.51815 0.0
C3435 C 0.6391 0.20168 0.51288 0.0
C3436 C 0.63762 0.18154 0.51652 0.0
C3437 C 0.65246 0.23766 0.51473 0.0
C3438 C 0.63613 0.25094 0.51689 0.0
C3439 C 0.67169 0.24577 0.51184 0.0
C3440 C 0.68919 0.23212 0.50927 0.0
C3441 C 0.6868 0.21647 0.50207 0.0
C3442 C 0.70318 0.20344 0.49975 0.0
C3443 C 0.72208 0.20594 0.50456 0.0
C3444 C 0.72464 0.2215 0.51169 0.0
C3445 C 0.70829 0.23457 0.51404 0.0
H3446 H 0.73474 0.19583 0.50276 0.0
H3447 H 0.5785 0.31913 0.53205 0.0
H3448 H 0.91251 0.40328 0.76947 0.0
H3449 H 0.94948 0.40478 0.76618 0.0
H3450 H 0.96028 0.42054 0.79731 0.0
H3451 H 0.92354 0.41952 0.8006 0.0
H3452 H 0.98165 0.44494 0.78455 0.0
H3453 H 0.9673 0.37162 0.78826 0.0
H3454 H 0.95028 0.33926 0.78343 0.0
H3455 H 0.97581 0.34389 0.75368 0.0
H3456 H 0.99273 0.37644 0.7583 0.0
H3457 H 0.07941 0.41859 0.79999 0.0
H3458 H 0.04282 0.42101 0.79664 0.0
H3459 H 0.05329 0.40552 0.76545 0.0
H3460 H 0.09026 0.40272 0.7688 0.0
H3461 H 0.02134 0.38374 0.77376 0.0
H3462 H 0.04053 0.45358 0.77089 0.0
H3463 H 0.05787 0.48585 0.77552 0.0
H3464 H 0.02348 0.48836 0.80309 0.0
H3465 H 0.00614 0.45594 0.79871 0.0
C3466 C 0.92279 0.40704 0.77561 0.0
C3467 C 0.91515 0.41111 0.78532 0.0
C3468 C 0.94388 0.40785 0.77372 0.0
C3469 C 0.95757 0.41265 0.78152 0.0
C3470 C 0.94994 0.41682 0.79119 0.0
C3471 C 0.92894 0.41606 0.79307 0.0
C3472 C 0.97995 0.4134 0.77978 0.0
C3473 C 0.99036 0.43157 0.78221 0.0
C3474 C 0.99116 0.3962 0.77629 0.0
C3475 C 0.98106 0.37658 0.77358 0.0
C3476 C 0.96914 0.36582 0.78067 0.0
C3477 C 0.95953 0.34743 0.77797 0.0
C3478 C 0.96191 0.33957 0.76824 0.0
C3479 C 0.97394 0.35003 0.7612 0.0
C3480 C 0.98354 0.36844 0.76385 0.0
C3481 C 0.074 0.41564 0.79241 0.0
C3482 C 0.08769 0.41036 0.78466 0.0
C3483 C 0.05308 0.41722 0.79049 0.0
C3484 C 0.04541 0.41372 0.78077 0.0
C3485 C 0.05898 0.40839 0.77298 0.0
C3486 C 0.08004 0.40685 0.77491 0.0
C3487 C 0.02306 0.41499 0.77901 0.0
C3488 C 0.01264 0.39728 0.77588 0.0
C3489 C 0.01179 0.43265 0.78181 0.0
C3490 C 0.02208 0.45225 0.78448 0.0
C3491 C 0.03675 0.46094 0.77797 0.0
C3492 C 0.04657 0.47927 0.78055 0.0
C3493 C 0.04179 0.48914 0.78959 0.0
C3494 C 0.02715 0.48071 0.79608 0.0
C3495 C 0.0173 0.46236 0.79354 0.0
H3496 H 0.04941 0.50333 0.79158 0.0
H3497 H 0.95448 0.32536 0.76615 0.0
H3498 H 0.42906 0.56087 0.28093 0.0
H3499 H 0.46205 0.57296 0.27467 0.0
H3500 H 0.43247 0.59867 0.24848 0.0
H3501 H 0.39905 0.58728 0.2549 0.0
H3502 H 0.48342 0.57038 0.25322 0.0
H3503 H 0.44091 0.63518 0.25149 0.0
H3504 H 0.41067 0.65362 0.25807 0.0
H3505 H 0.43394 0.64773 0.28822 0.0
H3506 H 0.4639 0.6285 0.28182 0.0
H3507 H 0.57945 0.62151 0.25811 0.0
H3508 H 0.54514 0.61813 0.2507 0.0
H3509 H 0.51832 0.62188 0.28037 0.0
H3510 H 0.55215 0.62527 0.28775 0.0
H3511 H 0.49415 0.64062 0.2667 0.0
H3512 H 0.53208 0.57546 0.27019 0.0
H3513 H 0.56099 0.55231 0.26625 0.0
H3514 H 0.54675 0.5564 0.2347 0.0
H3515 H 0.51787 0.57976 0.23848 0.0
C3516 C 0.42952 0.56896 0.2738 0.0
C3517 C 0.41141 0.57367 0.26856 0.0
C3518 C 0.44841 0.57563 0.27018 0.0
C3519 C 0.44956 0.58693 0.26121 0.0
C3520 C 0.43177 0.59017 0.25549 0.0
C3521 C 0.41275 0.58364 0.25916 0.0
C3522 C 0.46889 0.59768 0.25891 0.0
C3523 C 0.48576 0.58607 0.25571 0.0
C3524 C 0.47187 0.61795 0.26238 0.0
C3525 C 0.45451 0.63036 0.26619 0.0
C3526 C 0.4395 0.63776 0.25952 0.0
C3527 C 0.42239 0.64828 0.26322 0.0
C3528 C 0.42039 0.65187 0.27355 0.0
C3529 C 0.43548 0.64492 0.28022 0.0
C3530 C 0.45249 0.63415 0.27656 0.0
C3531 C 0.56618 0.62214 0.26301 0.0
C3532 C 0.56854 0.62345 0.27354 0.0
C3533 C 0.54662 0.62019 0.25876 0.0
C3534 C 0.52922 0.61956 0.265 0.0
C3535 C 0.53152 0.62241 0.27541 0.0
C3536 C 0.55096 0.62427 0.27964 0.0
C3537 C 0.50889 0.61324 0.26112 0.0
C3538 C 0.49184 0.62555 0.26341 0.0
C3539 C 0.50579 0.59355 0.25685 0.0
C3540 C 0.52305 0.57952 0.2546 0.0
C3541 C 0.53522 0.5715 0.26242 0.0
C3542 C 0.55157 0.55835 0.26021 0.0
C3543 C 0.55575 0.55295 0.25023 0.0
C3544 C 0.54353 0.56065 0.24243 0.0
C3545 C 0.52718 0.57384 0.2446 0.0
H3546 H 0.56841 0.54275 0.24853 0.0
H3547 H 0.40715 0.66007 0.27639 0.0
H3548 H 0.42472 0.36832 0.69362 0.0
H3549 H 0.45816 0.36714 0.7017 0.0
H3550 H 0.43343 0.39838 0.7277 0.0
H3551 H 0.3996 0.3997 0.71946 0.0
H3552 H 0.46669 0.41767 0.72013 0.0
H3553 H 0.45295 0.35127 0.73138 0.0
H3554 H 0.43966 0.31587 0.73099 0.0
H3555 H 0.48193 0.30066 0.70733 0.0
H3556 H 0.49528 0.33603 0.70744 0.0
H3557 H 0.58254 0.38152 0.71998 0.0
H3558 H 0.54807 0.37856 0.72733 0.0
H3559 H 0.52273 0.41016 0.70159 0.0
H3560 H 0.55683 0.41309 0.69423 0.0
H3561 H 0.51472 0.35857 0.71892 0.0
H3562 H 0.48564 0.44114 0.70864 0.0
H3563 H 0.49891 0.47654 0.70916 0.0
H3564 H 0.54192 0.45933 0.73219 0.0
H3565 H 0.5287 0.42388 0.73193 0.0
C3566 C 0.42635 0.37485 0.70106 0.0
C3567 C 0.40981 0.38454 0.70583 0.0
C3568 C 0.44538 0.37382 0.70577 0.0
C3569 C 0.44824 0.38251 0.71535 0.0
C3570 C 0.43147 0.39144 0.72034 0.0
C3571 C 0.41225 0.39221 0.71565 0.0
C3572 C 0.4694 0.38477 0.71919 0.0
C3573 C 0.47719 0.40474 0.72012 0.0
C3574 C 0.48297 0.36782 0.71955 0.0
C3575 C 0.47517 0.34637 0.71945 0.0
C3576 C 0.45938 0.34042 0.72606 0.0
C3577 C 0.45182 0.32034 0.72589 0.0
C3578 C 0.45996 0.30602 0.71914 0.0
C3579 C 0.47568 0.31176 0.71256 0.0
C3580 C 0.48329 0.33182 0.7127 0.0
C3581 C 0.5696 0.38797 0.71595 0.0
C3582 C 0.5723 0.39745 0.70651 0.0
C3583 C 0.54999 0.38628 0.72016 0.0
C3584 C 0.53297 0.39442 0.71508 0.0
C3585 C 0.53575 0.40413 0.70573 0.0
C3586 C 0.55521 0.40561 0.70148 0.0
C3587 C 0.51189 0.3915 0.7189 0.0
C3588 C 0.50419 0.37143 0.71941 0.0
C3589 C 0.49839 0.40835 0.71996 0.0
C3590 C 0.50614 0.4298 0.72027 0.0
C3591 C 0.49779 0.44492 0.71389 0.0
C3592 C 0.50535 0.465 0.71412 0.0
C3593 C 0.52125 0.47018 0.7207 0.0
C3594 C 0.52962 0.45529 0.72708 0.0
C3595 C 0.52211 0.4352 0.72689 0.0
H3596 H 0.52709 0.48572 0.72086 0.0
H3597 H 0.45408 0.29049 0.71901 0.0
H3598 H 0.90533 0.62204 0.20092 0.0
H3599 H 0.94142 0.62852 0.20469 0.0
H3600 H 0.9434 0.57403 0.22314 0.0
H3601 H 0.907 0.56749 0.21933 0.0
H3602 H 0.97153 0.61254 0.22882 0.0
H3603 H 0.95518 0.56202 0.20293 0.0
H3604 H 0.93577 0.54947 0.18822 0.0
H3605 H 0.95478 0.60213 0.17112 0.0
H3606 H 0.97401 0.61516 0.18581 0.0
H3607 H 0.07834 0.58959 0.21653 0.0
H3608 H 0.04226 0.59046 0.2219 0.0
H3609 H 0.02801 0.63065 0.19697 0.0
H3610 H 0.06373 0.62941 0.19154 0.0
H3611 H 0.00591 0.59674 0.19635 0.0
H3612 H 0.0244 0.6463 0.22172 0.0
H3613 H 0.04373 0.65932 0.23635 0.0
H3614 H 0.02155 0.6093 0.2544 0.0
H3615 H 0.0023 0.59581 0.23983 0.0
C3616 C 0.91328 0.61188 0.20606 0.0
C3617 C 0.90367 0.59423 0.20979 0.0
C3618 C 0.93381 0.61566 0.20827 0.0
C3619 C 0.94499 0.60168 0.21414 0.0
C3620 C 0.93488 0.58505 0.21868 0.0
C3621 C 0.91421 0.5813 0.21647 0.0
C3622 C 0.96756 0.60212 0.21355 0.0
C3623 C 0.97921 0.60883 0.2218 0.0
C3624 C 0.97736 0.59746 0.20434 0.0
C3625 C 0.96586 0.58964 0.19549 0.0
C3626 C 0.95505 0.57101 0.19607 0.0
C3627 C 0.94414 0.56378 0.18772 0.0
C3628 C 0.94407 0.57498 0.17874 0.0
C3629 C 0.95488 0.59345 0.17808 0.0
C3630 C 0.96578 0.60076 0.18641 0.0
C3631 C 0.06752 0.59899 0.21238 0.0
C3632 C 0.07354 0.60904 0.2035 0.0
C3633 C 0.04698 0.59953 0.21546 0.0
C3634 C 0.03244 0.61047 0.20978 0.0
C3635 C 0.03895 0.62191 0.2014 0.0
C3636 C 0.0593 0.6211 0.19825 0.0
C3637 C 0.01018 0.60778 0.21153 0.0
C3638 C -0.00154 0.60042 0.20344 0.0
C3639 C 0.00053 0.61181 0.22089 0.0
C3640 C 0.01209 0.61991 0.22965 0.0
C3641 C 0.0238 0.63796 0.22878 0.0
C3642 C 0.03471 0.64545 0.23707 0.0
C3643 C 0.03392 0.63511 0.24629 0.0
C3644 C 0.02217 0.61728 0.24725 0.0
C3645 C 0.01125 0.60971 0.23898 0.0
H3646 H 0.04237 0.64094 0.2527 0.0
H3647 H 0.9356 0.56936 0.17229 0.0
loop_
_geom_bond_atom_site_label_1
_geom_bond_atom_site_label_2
_geom_bond_distance
_geom_bond_site_symmetry_2
_ccdc_geom_bond_type
Mg0 O1 2.028 . S
Mg0 O7 1.986 . S
Mg0 O9 2.114 . S
Mg0 O10 2.251 . S
Mg0 O13 2.010 . S
O1 Mg0 2.028 . S
O1 C4 1.250 . S
O2 Mg3 2.028 . S
O2 C4 1.248 . S
Mg3 O2 2.028 . S
Mg3 O8 2.032 . S
Mg3 O10 2.079 . S
C4 O1 1.250 . S
C4 O2 1.248 . S
C5 O6 1.264 . S
C5 O13 1.249 . S
O6 C5 1.264 . S
O7 Mg0 1.986 . S
O7 C11 1.246 . S
O8 Mg3 2.032 . S
O8 C11 1.259 . S
O9 Mg0 2.114 . S
O9 C12 1.252 . S
O10 Mg0 2.251 . S
O10 Mg3 2.079 . S
O10 C12 1.273 . S
C11 O7 1.246 . S
C11 O8 1.259 . S
C12 O9 1.252 . S
C12 O10 1.273 . S
O13 Mg0 2.010 . S
O13 C5 1.249 . S
Mg14 O15 2.028 . S
Mg14 O21 1.986 . S
Mg14 O23 2.114 . S
Mg14 O24 2.251 . S
Mg14 O27 2.010 . S
O15 Mg14 2.028 . S
O15 C18 1.250 . S
O16 Mg17 2.028 . S
O16 C18 1.248 . S
Mg17 O16 2.028 . S
Mg17 O22 2.032 . S
Mg17 O24 2.079 . S
C18 O15 1.250 . S
C18 O16 1.248 . S
C19 O20 1.264 . S
C19 O27 1.249 . S
O20 C19 1.264 . S
O21 Mg14 1.986 . S
O21 C25 1.246 . S
O22 Mg17 2.032 . S
O22 C25 1.259 . S
O23 Mg14 2.114 . S
O23 C26 1.252 . S
O24 Mg14 2.251 . S
O24 Mg17 2.079 . S
O24 C26 1.273 . S
C25 O21 1.246 . S
C25 O22 1.259 . S
C26 O23 1.252 . S
C26 O24 1.273 . S
O27 Mg14 2.010 . S
O27 C19 1.249 . S
Mg28 O29 2.028 . S
Mg28 O35 1.986 . S
Mg28 O37 2.114 . S
Mg28 O38 2.251 . S
Mg28 O41 2.010 . S
O29 Mg28 2.028 . S
O29 C32 1.250 . S
O30 Mg31 2.028 . S
O30 C32 1.248 . S
Mg31 O30 2.028 . S
Mg31 O36 2.032 . S
Mg31 O38 2.079 . S
C32 O29 1.250 . S
C32 O30 1.248 . S
C33 O34 1.264 . S
C33 O41 1.249 . S
O34 C33 1.264 . S
O35 Mg28 1.986 . S
O35 C39 1.246 . S
O36 Mg31 2.032 . S
O36 C39 1.259 . S
O37 Mg28 2.114 . S
O37 C40 1.252 . S
O38 Mg28 2.251 . S
O38 Mg31 2.079 . S
O38 C40 1.273 . S
C39 O35 1.246 . S
C39 O36 1.259 . S
C40 O37 1.252 . S
C40 O38 1.273 . S
O41 Mg28 2.010 . S
O41 C33 1.249 . S
Mg42 O43 2.028 . S
Mg42 O49 1.986 . S
Mg42 O51 2.114 . S
Mg42 O52 2.251 . S
Mg42 O55 2.010 . S
O43 Mg42 2.028 . S
O43 C46 1.250 . S
O44 Mg45 2.028 . S
O44 C46 1.248 . S
Mg45 O44 2.028 . S
Mg45 O50 2.032 . S
Mg45 O52 2.079 . S
C46 O43 1.250 . S
C46 O44 1.248 . S
C47 O48 1.264 . S
C47 O55 1.249 . S
O48 C47 1.264 . S
O49 Mg42 1.986 . S
O49 C53 1.246 . S
O50 Mg45 2.032 . S
O50 C53 1.259 . S
O51 Mg42 2.114 . S
O51 C54 1.252 . S
O52 Mg42 2.251 . S
O52 Mg45 2.079 . S
O52 C54 1.273 . S
C53 O49 1.246 . S
C53 O50 1.259 . S
C54 O51 1.252 . S
C54 O52 1.273 . S
O55 Mg42 2.010 . S
O55 C47 1.249 . S
Mg56 O57 2.028 . S
Mg56 O63 1.986 . S
Mg56 O65 2.114 . S
Mg56 O66 2.251 . S
Mg56 O69 2.010 . S
O57 Mg56 2.028 . S
O57 C60 1.250 . S
O58 Mg59 2.028 . S
O58 C60 1.248 . S
Mg59 O58 2.028 . S
Mg59 O64 2.032 . S
Mg59 O66 2.079 . S
C60 O57 1.250 . S
C60 O58 1.248 . S
C61 O62 1.264 . S
C61 O69 1.249 . S
O62 C61 1.264 . S
O63 Mg56 1.986 . S
O63 C67 1.246 . S
O64 Mg59 2.032 . S
O64 C67 1.259 . S
O65 Mg56 2.114 . S
O65 C68 1.252 . S
O66 Mg56 2.251 . S
O66 Mg59 2.079 . S
O66 C68 1.273 . S
C67 O63 1.246 . S
C67 O64 1.259 . S
C68 O65 1.252 . S
C68 O66 1.273 . S
O69 Mg56 2.010 . S
O69 C61 1.249 . S
Mg70 O71 2.028 . S
Mg70 O77 1.986 . S
Mg70 O79 2.114 . S
Mg70 O80 2.251 . S
Mg70 O83 2.010 . S
O71 Mg70 2.028 . S
O71 C74 1.250 . S
O72 Mg73 2.028 . S
O72 C74 1.248 . S
Mg73 O72 2.028 . S
Mg73 O78 2.032 . S
Mg73 O80 2.079 . S
C74 O71 1.250 . S
C74 O72 1.248 . S
C75 O76 1.264 . S
C75 O83 1.249 . S
O76 C75 1.264 . S
O77 Mg70 1.986 . S
O77 C81 1.246 . S
O78 Mg73 2.032 . S
O78 C81 1.259 . S
O79 Mg70 2.114 . S
O79 C82 1.252 . S
O80 Mg70 2.251 . S
O80 Mg73 2.079 . S
O80 C82 1.273 . S
C81 O77 1.246 . S
C81 O78 1.259 . S
C82 O79 1.252 . S
C82 O80 1.273 . S
O83 Mg70 2.010 . S
O83 C75 1.249 . S
Mg84 O85 2.028 . S
Mg84 O91 1.986 . S
Mg84 O93 2.114 . S
Mg84 O94 2.251 . S
Mg84 O97 2.010 . S
O85 Mg84 2.028 . S
O85 C88 1.250 . S
O86 Mg87 2.028 . S
O86 C88 1.248 . S
Mg87 O86 2.028 . S
Mg87 O92 2.032 . S
Mg87 O94 2.079 . S
C88 O85 1.250 . S
C88 O86 1.248 . S
C89 O90 1.264 . S
C89 O97 1.249 . S
O90 C89 1.264 . S
O91 Mg84 1.986 . S
O91 C95 1.246 . S
O92 Mg87 2.032 . S
O92 C95 1.259 . S
O93 Mg84 2.114 . S
O93 C96 1.252 . S
O94 Mg84 2.251 . S
O94 Mg87 2.079 . S
O94 C96 1.273 . S
C95 O91 1.246 . S
C95 O92 1.259 . S
C96 O93 1.252 . S
C96 O94 1.273 . S
O97 Mg84 2.010 . S
O97 C89 1.249 . S
Mg98 O99 2.028 . S
Mg98 O105 1.986 . S
Mg98 O107 2.114 . S
Mg98 O108 2.251 . S
Mg98 O111 2.010 . S
O99 Mg98 2.028 . S
O99 C102 1.250 . S
O100 Mg101 2.028 . S
O100 C102 1.248 . S
Mg101 O100 2.028 . S
Mg101 O106 2.032 . S
Mg101 O108 2.079 . S
C102 O99 1.250 . S
C102 O100 1.248 . S
C103 O104 1.264 . S
C103 O111 1.249 . S
O104 C103 1.264 . S
O105 Mg98 1.986 . S
O105 C109 1.246 . S
O106 Mg101 2.032 . S
O106 C109 1.259 . S
O107 Mg98 2.114 . S
O107 C110 1.252 . S
O108 Mg98 2.251 . S
O108 Mg101 2.079 . S
O108 C110 1.273 . S
C109 O105 1.246 . S
C109 O106 1.259 . S
C110 O107 1.252 . S
C110 O108 1.273 . S
O111 Mg98 2.010 . S
O111 C103 1.249 . S
Mg112 O113 2.028 . S
Mg112 O119 1.986 . S
Mg112 O121 2.114 . S
Mg112 O122 2.251 . S
Mg112 O125 2.010 . S
O113 Mg112 2.028 . S
O113 C116 1.250 . S
O114 Mg115 2.028 . S
O114 C116 1.248 . S
Mg115 O114 2.028 . S
Mg115 O120 2.032 . S
Mg115 O122 2.079 . S
C116 O113 1.250 . S
C116 O114 1.248 . S
C117 O118 1.264 . S
C117 O125 1.249 . S
O118 C117 1.264 . S
O119 Mg112 1.986 . S
O119 C123 1.246 . S
O120 Mg115 2.032 . S
O120 C123 1.259 . S
O121 Mg112 2.114 . S
O121 C124 1.252 . S
O122 Mg112 2.251 . S
O122 Mg115 2.079 . S
O122 C124 1.273 . S
C123 O119 1.246 . S
C123 O120 1.259 . S
C124 O121 1.252 . S
C124 O122 1.273 . S
O125 Mg112 2.010 . S
O125 C117 1.249 . S
Mg126 O127 2.028 . S
Mg126 O133 1.986 . S
Mg126 O135 2.114 . S
Mg126 O136 2.251 . S
Mg126 O139 2.010 . S
O127 Mg126 2.028 . S
O127 C130 1.250 . S
O128 Mg129 2.028 . S
O128 C130 1.248 . S
Mg129 O128 2.028 . S
Mg129 O134 2.032 . S
Mg129 O136 2.079 . S
C130 O127 1.250 . S
C130 O128 1.248 . S
C131 O132 1.264 . S
C131 O139 1.249 . S
O132 C131 1.264 . S
O133 Mg126 1.986 . S
O133 C137 1.246 . S
O134 Mg129 2.032 . S
O134 C137 1.259 . S
O135 Mg126 2.114 . S
O135 C138 1.252 . S
O136 Mg126 2.251 . S
O136 Mg129 2.079 . S
O136 C138 1.273 . S
C137 O133 1.246 . S
C137 O134 1.259 . S
C138 O135 1.252 . S
C138 O136 1.273 . S
O139 Mg126 2.010 . S
O139 C131 1.249 . S
Mg140 O141 2.028 . S
Mg140 O147 1.986 . S
Mg140 O149 2.114 . S
Mg140 O150 2.251 . S
Mg140 O153 2.010 . S
O141 Mg140 2.028 . S
O141 C144 1.250 . S
O142 Mg143 2.028 . S
O142 C144 1.248 . S
Mg143 O142 2.028 . S
Mg143 O148 2.032 . S
Mg143 O150 2.079 . S
C144 O141 1.250 . S
C144 O142 1.248 . S
C145 O146 1.264 . S
C145 O153 1.249 . S
O146 C145 1.264 . S
O147 Mg140 1.986 . S
O147 C151 1.246 . S
O148 Mg143 2.032 . S
O148 C151 1.259 . S
O149 Mg140 2.114 . S
O149 C152 1.252 . S
O150 Mg140 2.251 . S
O150 Mg143 2.079 . S
O150 C152 1.273 . S
C151 O147 1.246 . S
C151 O148 1.259 . S
C152 O149 1.252 . S
C152 O150 1.273 . S
O153 Mg140 2.010 . S
O153 C145 1.249 . S
Mg154 O155 2.028 . S
Mg154 O161 1.986 . S
Mg154 O163 2.114 . S
Mg154 O164 2.251 . S
Mg154 O167 2.010 . S
O155 Mg154 2.028 . S
O155 C158 1.250 . S
O156 Mg157 2.028 . S
O156 C158 1.248 . S
Mg157 O156 2.028 . S
Mg157 O162 2.032 . S
Mg157 O164 2.079 . S
C158 O155 1.250 . S
C158 O156 1.248 . S
C159 O160 1.264 . S
C159 O167 1.249 . S
O160 C159 1.264 . S
O161 Mg154 1.986 . S
O161 C165 1.246 . S
O162 Mg157 2.032 . S
O162 C165 1.259 . S
O163 Mg154 2.114 . S
O163 C166 1.252 . S
O164 Mg154 2.251 . S
O164 Mg157 2.079 . S
O164 C166 1.273 . S
C165 O161 1.246 . S
C165 O162 1.259 . S
C166 O163 1.252 . S
C166 O164 1.273 . S
O167 Mg154 2.010 . S
O167 C159 1.249 . S
Mg168 O169 2.028 . S
Mg168 O175 1.986 . S
Mg168 O177 2.114 . S
Mg168 O178 2.251 . S
Mg168 O181 2.010 . S
O169 Mg168 2.028 . S
O169 C172 1.250 . S
O170 Mg171 2.028 . S
O170 C172 1.248 . S
Mg171 O170 2.028 . S
Mg171 O176 2.032 . S
Mg171 O178 2.079 . S
C172 O169 1.250 . S
C172 O170 1.248 . S
C173 O174 1.264 . S
C173 O181 1.249 . S
O174 C173 1.264 . S
O175 Mg168 1.986 . S
O175 C179 1.246 . S
O176 Mg171 2.032 . S
O176 C179 1.259 . S
O177 Mg168 2.114 . S
O177 C180 1.252 . S
O178 Mg168 2.251 . S
O178 Mg171 2.079 . S
O178 C180 1.273 . S
C179 O175 1.246 . S
C179 O176 1.259 . S
C180 O177 1.252 . S
C180 O178 1.273 . S
O181 Mg168 2.010 . S
O181 C173 1.249 . S
Mg182 O183 2.028 . S
Mg182 O189 1.986 . S
Mg182 O191 2.114 . S
Mg182 O192 2.251 . S
Mg182 O195 2.010 . S
O183 Mg182 2.028 . S
O183 C186 1.250 . S
O184 Mg185 2.028 . S
O184 C186 1.248 . S
Mg185 O184 2.028 . S
Mg185 O190 2.032 . S
Mg185 O192 2.079 . S
C186 O183 1.250 . S
C186 O184 1.248 . S
C187 O188 1.264 . S
C187 O195 1.249 . S
O188 C187 1.264 . S
O189 Mg182 1.986 . S
O189 C193 1.246 . S
O190 Mg185 2.032 . S
O190 C193 1.259 . S
O191 Mg182 2.114 . S
O191 C194 1.252 . S
O192 Mg182 2.251 . S
O192 Mg185 2.079 . S
O192 C194 1.273 . S
C193 O189 1.246 . S
C193 O190 1.259 . S
C194 O191 1.252 . S
C194 O192 1.273 . S
O195 Mg182 2.010 . S
O195 C187 1.249 . S
Mg196 O197 2.028 . S
Mg196 O203 1.986 . S
Mg196 O205 2.114 . S
Mg196 O206 2.251 . S
Mg196 O209 2.010 . S
O197 Mg196 2.028 . S
O197 C200 1.250 . S
O198 Mg199 2.028 . S
O198 C200 1.248 . S
Mg199 O198 2.028 . S
Mg199 O204 2.032 . S
Mg199 O206 2.079 . S
C200 O197 1.250 . S
C200 O198 1.248 . S
C201 O202 1.264 . S
C201 O209 1.249 . S
O202 C201 1.264 . S
O203 Mg196 1.986 . S
O203 C207 1.246 . S
O204 Mg199 2.032 . S
O204 C207 1.259 . S
O205 Mg196 2.114 . S
O205 C208 1.252 . S
O206 Mg196 2.251 . S
O206 Mg199 2.079 . S
O206 C208 1.273 . S
C207 O203 1.246 . S
C207 O204 1.259 . S
C208 O205 1.252 . S
C208 O206 1.273 . S
O209 Mg196 2.010 . S
O209 C201 1.249 . S
Mg210 O211 2.028 . S
Mg210 O217 1.986 . S
Mg210 O219 2.114 . S
Mg210 O220 2.251 . S
Mg210 O223 2.010 . S
O211 Mg210 2.028 . S
O211 C214 1.250 . S
O212 Mg213 2.028 . S
O212 C214 1.248 . S
Mg213 O212 2.028 . S
Mg213 O218 2.032 . S
Mg213 O220 2.079 . S
C214 O211 1.250 . S
C214 O212 1.248 . S
C215 O216 1.264 . S
C215 O223 1.249 . S
O216 C215 1.264 . S
O217 Mg210 1.986 . S
O217 C221 1.246 . S
O218 Mg213 2.032 . S
O218 C221 1.259 . S
O219 Mg210 2.114 . S
O219 C222 1.252 . S
O220 Mg210 2.251 . S
O220 Mg213 2.079 . S
O220 C222 1.273 . S
C221 O217 1.246 . S
C221 O218 1.259 . S
C222 O219 1.252 . S
C222 O220 1.273 . S
O223 Mg210 2.010 . S
O223 C215 1.249 . S
Mg224 O225 2.028 . S
Mg224 O231 1.986 . S
Mg224 O233 2.114 . S
Mg224 O234 2.251 . S
Mg224 O237 2.010 . S
O225 Mg224 2.028 . S
O225 C228 1.250 . S
O226 Mg227 2.028 . S
O226 C228 1.248 . S
Mg227 O226 2.028 . S
Mg227 O232 2.032 . S
Mg227 O234 2.079 . S
C228 O225 1.250 . S
C228 O226 1.248 . S
C229 O230 1.264 . S
C229 O237 1.249 . S
O230 C229 1.264 . S
O231 Mg224 1.986 . S
O231 C235 1.246 . S
O232 Mg227 2.032 . S
O232 C235 1.259 . S
O233 Mg224 2.114 . S
O233 C236 1.252 . S
O234 Mg224 2.251 . S
O234 Mg227 2.079 . S
O234 C236 1.273 . S
C235 O231 1.246 . S
C235 O232 1.259 . S
C236 O233 1.252 . S
C236 O234 1.273 . S
O237 Mg224 2.010 . S
O237 C229 1.249 . S
Mg238 O239 2.028 . S
Mg238 O245 1.986 . S
Mg238 O247 2.114 . S
Mg238 O248 2.251 . S
Mg238 O251 2.010 . S
O239 Mg238 2.028 . S
O239 C242 1.250 . S
O240 Mg241 2.028 . S
O240 C242 1.248 . S
Mg241 O240 2.028 . S
Mg241 O246 2.032 . S
Mg241 O248 2.079 . S
C242 O239 1.250 . S
C242 O240 1.248 . S
C243 O244 1.264 . S
C243 O251 1.249 . S
O244 C243 1.264 . S
O245 Mg238 1.986 . S
O245 C249 1.246 . S
O246 Mg241 2.032 . S
O246 C249 1.259 . S
O247 Mg238 2.114 . S
O247 C250 1.252 . S
O248 Mg238 2.251 . S
O248 Mg241 2.079 . S
O248 C250 1.273 . S
C249 O245 1.246 . S
C249 O246 1.259 . S
C250 O247 1.252 . S
C250 O248 1.273 . S
O251 Mg238 2.010 . S
O251 C243 1.249 . S
Mg252 O253 2.028 . S
Mg252 O259 1.986 . S
Mg252 O261 2.114 . S
Mg252 O262 2.251 . S
Mg252 O265 2.010 . S
O253 Mg252 2.028 . S
O253 C256 1.250 . S
O254 Mg255 2.028 . S
O254 C256 1.248 . S
Mg255 O254 2.028 . S
Mg255 O260 2.032 . S
Mg255 O262 2.079 . S
C256 O253 1.250 . S
C256 O254 1.248 . S
C257 O258 1.264 . S
C257 O265 1.249 . S
O258 C257 1.264 . S
O259 Mg252 1.986 . S
O259 C263 1.246 . S
O260 Mg255 2.032 . S
O260 C263 1.259 . S
O261 Mg252 2.114 . S
O261 C264 1.252 . S
O262 Mg252 2.251 . S
O262 Mg255 2.079 . S
O262 C264 1.273 . S
C263 O259 1.246 . S
C263 O260 1.259 . S
C264 O261 1.252 . S
C264 O262 1.273 . S
O265 Mg252 2.010 . S
O265 C257 1.249 . S
Mg266 O267 2.028 . S
Mg266 O273 1.986 . S
Mg266 O275 2.114 . S
Mg266 O276 2.251 . S
Mg266 O279 2.010 . S
O267 Mg266 2.028 . S
O267 C270 1.250 . S
O268 Mg269 2.028 . S
O268 C270 1.248 . S
Mg269 O268 2.028 . S
Mg269 O274 2.032 . S
Mg269 O276 2.079 . S
C270 O267 1.250 . S
C270 O268 1.248 . S
C271 O272 1.264 . S
C271 O279 1.249 . S
O272 C271 1.264 . S
O273 Mg266 1.986 . S
O273 C277 1.246 . S
O274 Mg269 2.032 . S
O274 C277 1.259 . S
O275 Mg266 2.114 . S
O275 C278 1.252 . S
O276 Mg266 2.251 . S
O276 Mg269 2.079 . S
O276 C278 1.273 . S
C277 O273 1.246 . S
C277 O274 1.259 . S
C278 O275 1.252 . S
C278 O276 1.273 . S
O279 Mg266 2.010 . S
O279 C271 1.249 . S
Mg280 O281 2.028 . S
Mg280 O287 1.986 . S
Mg280 O289 2.114 . S
Mg280 O290 2.251 . S
Mg280 O293 2.010 . S
O281 Mg280 2.028 . S
O281 C284 1.250 . S
O282 Mg283 2.028 . S
O282 C284 1.248 . S
Mg283 O282 2.028 . S
Mg283 O288 2.032 . S
Mg283 O290 2.079 . S
C284 O281 1.250 . S
C284 O282 1.248 . S
C285 O286 1.264 . S
C285 O293 1.249 . S
O286 C285 1.264 . S
O287 Mg280 1.986 . S
O287 C291 1.246 . S
O288 Mg283 2.032 . S
O288 C291 1.259 . S
O289 Mg280 2.114 . S
O289 C292 1.252 . S
O290 Mg280 2.251 . S
O290 Mg283 2.079 . S
O290 C292 1.273 . S
C291 O287 1.246 . S
C291 O288 1.259 . S
C292 O289 1.252 . S
C292 O290 1.273 . S
O293 Mg280 2.010 . S
O293 C285 1.249 . S
Mg294 O295 2.028 . S
Mg294 O301 1.986 . S
Mg294 O303 2.114 . S
Mg294 O304 2.251 . S
Mg294 O307 2.010 . S
O295 Mg294 2.028 . S
O295 C298 1.250 . S
O296 Mg297 2.028 . S
O296 C298 1.248 . S
Mg297 O296 2.028 . S
Mg297 O302 2.032 . S
Mg297 O304 2.079 . S
C298 O295 1.250 . S
C298 O296 1.248 . S
C299 O300 1.264 . S
C299 O307 1.249 . S
O300 C299 1.264 . S
O301 Mg294 1.986 . S
O301 C305 1.246 . S
O302 Mg297 2.032 . S
O302 C305 1.259 . S
O303 Mg294 2.114 . S
O303 C306 1.252 . S
O304 Mg294 2.251 . S
O304 Mg297 2.079 . S
O304 C306 1.273 . S
C305 O301 1.246 . S
C305 O302 1.259 . S
C306 O303 1.252 . S
C306 O304 1.273 . S
O307 Mg294 2.010 . S
O307 C299 1.249 . S
Mg308 O309 2.028 . S
Mg308 O315 1.986 . S
Mg308 O317 2.114 . S
Mg308 O318 2.251 . S
Mg308 O321 2.010 . S
O309 Mg308 2.028 . S
O309 C312 1.250 . S
O310 Mg311 2.028 . S
O310 C312 1.248 . S
Mg311 O310 2.028 . S
Mg311 O316 2.032 . S
Mg311 O318 2.079 . S
C312 O309 1.250 . S
C312 O310 1.248 . S
C313 O314 1.264 . S
C313 O321 1.249 . S
O314 C313 1.264 . S
O315 Mg308 1.986 . S
O315 C319 1.246 . S
O316 Mg311 2.032 . S
O316 C319 1.259 . S
O317 Mg308 2.114 . S
O317 C320 1.252 . S
O318 Mg308 2.251 . S
O318 Mg311 2.079 . S
O318 C320 1.273 . S
C319 O315 1.246 . S
C319 O316 1.259 . S
C320 O317 1.252 . S
C320 O318 1.273 . S
O321 Mg308 2.010 . S
O321 C313 1.249 . S
Mg322 O323 2.028 . S
Mg322 O329 1.986 . S
Mg322 O331 2.114 . S
Mg322 O332 2.251 . S
Mg322 O335 2.010 . S
O323 Mg322 2.028 . S
O323 C326 1.250 . S
O324 Mg325 2.028 . S
O324 C326 1.248 . S
Mg325 O324 2.028 . S
Mg325 O330 2.032 . S
Mg325 O332 2.079 . S
C326 O323 1.250 . S
C326 O324 1.248 . S
C327 O328 1.264 . S
C327 O335 1.249 . S
O328 C327 1.264 . S
O329 Mg322 1.986 . S
O329 C333 1.246 . S
O330 Mg325 2.032 . S
O330 C333 1.259 . S
O331 Mg322 2.114 . S
O331 C334 1.252 . S
O332 Mg322 2.251 . S
O332 Mg325 2.079 . S
O332 C334 1.273 . S
C333 O329 1.246 . S
C333 O330 1.259 . S
C334 O331 1.252 . S
C334 O332 1.273 . S
O335 Mg322 2.010 . S
O335 C327 1.249 . S
Mg336 O337 2.028 . S
Mg336 O343 1.986 . S
Mg336 O345 2.114 . S
Mg336 O346 2.251 . S
Mg336 O349 2.010 . S
O337 Mg336 2.028 . S
O337 C340 1.250 . S
O338 Mg339 2.028 . S
O338 C340 1.248 . S
Mg339 O338 2.028 . S
Mg339 O344 2.032 . S
Mg339 O346 2.079 . S
C340 O337 1.250 . S
C340 O338 1.248 . S
C341 O342 1.264 . S
C341 O349 1.249 . S
O342 C341 1.264 . S
O343 Mg336 1.986 . S
O343 C347 1.246 . S
O344 Mg339 2.032 . S
O344 C347 1.259 . S
O345 Mg336 2.114 . S
O345 C348 1.252 . S
O346 Mg336 2.251 . S
O346 Mg339 2.079 . S
O346 C348 1.273 . S
C347 O343 1.246 . S
C347 O344 1.259 . S
C348 O345 1.252 . S
C348 O346 1.273 . S
O349 Mg336 2.010 . S
O349 C341 1.249 . S
Mg350 O351 2.028 . S
Mg350 O357 1.986 . S
Mg350 O359 2.114 . S
Mg350 O360 2.251 . S
Mg350 O363 2.010 . S
O351 Mg350 2.028 . S
O351 C354 1.250 . S
O352 Mg353 2.028 . S
O352 C354 1.248 . S
Mg353 O352 2.028 . S
Mg353 O358 2.032 . S
Mg353 O360 2.079 . S
C354 O351 1.250 . S
C354 O352 1.248 . S
C355 O356 1.264 . S
C355 O363 1.249 . S
O356 C355 1.264 . S
O357 Mg350 1.986 . S
O357 C361 1.246 . S
O358 Mg353 2.032 . S
O358 C361 1.259 . S
O359 Mg350 2.114 . S
O359 C362 1.252 . S
O360 Mg350 2.251 . S
O360 Mg353 2.079 . S
O360 C362 1.273 . S
C361 O357 1.246 . S
C361 O358 1.259 . S
C362 O359 1.252 . S
C362 O360 1.273 . S
O363 Mg350 2.010 . S
O363 C355 1.249 . S
Mg364 O365 2.028 . S
Mg364 O371 1.986 . S
Mg364 O373 2.114 . S
Mg364 O374 2.251 . S
Mg364 O377 2.010 . S
O365 Mg364 2.028 . S
O365 C368 1.250 . S
O366 Mg367 2.028 . S
O366 C368 1.248 . S
Mg367 O366 2.028 . S
Mg367 O372 2.032 . S
Mg367 O374 2.079 . S
C368 O365 1.250 . S
C368 O366 1.248 . S
C369 O370 1.264 . S
C369 O377 1.249 . S
O370 C369 1.264 . S
O371 Mg364 1.986 . S
O371 C375 1.246 . S
O372 Mg367 2.032 . S
O372 C375 1.259 . S
O373 Mg364 2.114 . S
O373 C376 1.252 . S
O374 Mg364 2.251 . S
O374 Mg367 2.079 . S
O374 C376 1.273 . S
C375 O371 1.246 . S
C375 O372 1.259 . S
C376 O373 1.252 . S
C376 O374 1.273 . S
O377 Mg364 2.010 . S
O377 C369 1.249 . S
Mg378 O379 2.028 . S
Mg378 O385 1.986 . S
Mg378 O387 2.114 . S
Mg378 O388 2.251 . S
Mg378 O391 2.010 . S
O379 Mg378 2.028 . S
O379 C382 1.250 . S
O380 Mg381 2.028 . S
O380 C382 1.248 . S
Mg381 O380 2.028 . S
Mg381 O386 2.032 . S
Mg381 O388 2.079 . S
C382 O379 1.250 . S
C382 O380 1.248 . S
C383 O384 1.264 . S
C383 O391 1.249 . S
O384 C383 1.264 . S
O385 Mg378 1.986 . S
O385 C389 1.246 . S
O386 Mg381 2.032 . S
O386 C389 1.259 . S
O387 Mg378 2.114 . S
O387 C390 1.252 . S
O388 Mg378 2.251 . S
O388 Mg381 2.079 . S
O388 C390 1.273 . S
C389 O385 1.246 . S
C389 O386 1.259 . S
C390 O387 1.252 . S
C390 O388 1.273 . S
O391 Mg378 2.010 . S
O391 C383 1.249 . S
Mg392 O393 2.028 . S
Mg392 O399 1.986 . S
Mg392 O401 2.114 . S
Mg392 O402 2.251 . S
Mg392 O405 2.010 . S
O393 Mg392 2.028 . S
O393 C396 1.250 . S
O394 Mg395 2.028 . S
O394 C396 1.248 . S
Mg395 O394 2.028 . S
Mg395 O400 2.032 . S
Mg395 O402 2.079 . S
C396 O393 1.250 . S
C396 O394 1.248 . S
C397 O398 1.264 . S
C397 O405 1.249 . S
O398 C397 1.264 . S
O399 Mg392 1.986 . S
O399 C403 1.246 . S
O400 Mg395 2.032 . S
O400 C403 1.259 . S
O401 Mg392 2.114 . S
O401 C404 1.252 . S
O402 Mg392 2.251 . S
O402 Mg395 2.079 . S
O402 C404 1.273 . S
C403 O399 1.246 . S
C403 O400 1.259 . S
C404 O401 1.252 . S
C404 O402 1.273 . S
O405 Mg392 2.010 . S
O405 C397 1.249 . S
Mg406 O407 2.028 . S
Mg406 O413 1.986 . S
Mg406 O415 2.114 . S
Mg406 O416 2.251 . S
Mg406 O419 2.010 . S
O407 Mg406 2.028 . S
O407 C410 1.250 . S
O408 Mg409 2.028 . S
O408 C410 1.248 . S
Mg409 O408 2.028 . S
Mg409 O414 2.032 . S
Mg409 O416 2.079 . S
C410 O407 1.250 . S
C410 O408 1.248 . S
C411 O412 1.264 . S
C411 O419 1.249 . S
O412 C411 1.264 . S
O413 Mg406 1.986 . S
O413 C417 1.246 . S
O414 Mg409 2.032 . S
O414 C417 1.259 . S
O415 Mg406 2.114 . S
O415 C418 1.252 . S
O416 Mg406 2.251 . S
O416 Mg409 2.079 . S
O416 C418 1.273 . S
C417 O413 1.246 . S
C417 O414 1.259 . S
C418 O415 1.252 . S
C418 O416 1.273 . S
O419 Mg406 2.010 . S
O419 C411 1.249 . S
Mg420 O421 2.028 . S
Mg420 O427 1.986 . S
Mg420 O429 2.114 . S
Mg420 O430 2.251 . S
Mg420 O433 2.010 . S
O421 Mg420 2.028 . S
O421 C424 1.250 . S
O422 Mg423 2.028 . S
O422 C424 1.248 . S
Mg423 O422 2.028 . S
Mg423 O428 2.032 . S
Mg423 O430 2.079 . S
C424 O421 1.250 . S
C424 O422 1.248 . S
C425 O426 1.264 . S
C425 O433 1.249 . S
O426 C425 1.264 . S
O427 Mg420 1.986 . S
O427 C431 1.246 . S
O428 Mg423 2.032 . S
O428 C431 1.259 . S
O429 Mg420 2.114 . S
O429 C432 1.252 . S
O430 Mg420 2.251 . S
O430 Mg423 2.079 . S
O430 C432 1.273 . S
C431 O427 1.246 . S
C431 O428 1.259 . S
C432 O429 1.252 . S
C432 O430 1.273 . S
O433 Mg420 2.010 . S
O433 C425 1.249 . S
Mg434 O435 2.028 . S
Mg434 O441 1.986 . S
Mg434 O443 2.114 . S
Mg434 O444 2.251 . S
Mg434 O447 2.010 . S
O435 Mg434 2.028 . S
O435 C438 1.250 . S
O436 Mg437 2.028 . S
O436 C438 1.248 . S
Mg437 O436 2.028 . S
Mg437 O442 2.032 . S
Mg437 O444 2.079 . S
C438 O435 1.250 . S
C438 O436 1.248 . S
C439 O440 1.264 . S
C439 O447 1.249 . S
O440 C439 1.264 . S
O441 Mg434 1.986 . S
O441 C445 1.246 . S
O442 Mg437 2.032 . S
O442 C445 1.259 . S
O443 Mg434 2.114 . S
O443 C446 1.252 . S
O444 Mg434 2.251 . S
O444 Mg437 2.079 . S
O444 C446 1.273 . S
C445 O441 1.246 . S
C445 O442 1.259 . S
C446 O443 1.252 . S
C446 O444 1.273 . S
O447 Mg434 2.010 . S
O447 C439 1.249 . S
H448 C466 0.951 . S
H449 C468 0.951 . S
H450 C470 0.950 . S
H451 C471 0.950 . S
H452 C473 0.950 . S
H453 C476 0.950 . S
H454 C477 0.950 . S
H455 C479 0.950 . S
H456 C480 0.950 . S
H457 C481 0.951 . S
H458 C483 0.951 . S
H459 C485 0.950 . S
H460 C486 0.950 . S
H461 C488 0.950 . S
H462 C491 0.950 . S
H463 C492 0.950 . S
H464 C494 0.950 . S
H465 C495 0.950 . S
C466 H448 0.951 . S
C466 C467 1.366 . S
C466 C468 1.388 . S
C467 C466 1.366 . S
C467 C471 1.385 . S
C468 H449 0.951 . S
C468 C466 1.388 . S
C468 C469 1.366 . S
C469 C468 1.366 . S
C469 C470 1.414 . S
C469 C472 1.499 . S
C470 H450 0.950 . S
C470 C469 1.414 . S
C470 C471 1.374 . S
C471 H451 0.950 . S
C471 C467 1.385 . S
C471 C470 1.374 . S
C472 C469 1.499 . S
C472 C473 1.373 . S
C472 C474 1.389 . S
C473 H452 0.950 . S
C473 C472 1.373 . S
C473 C489 1.377 . S
C474 C472 1.389 . S
C474 C475 1.524 . S
C474 C488 1.377 . S
C475 C474 1.524 . S
C475 C476 1.397 . S
C475 C480 1.363 . S
C476 H453 0.950 . S
C476 C475 1.397 . S
C476 C477 1.334 . S
C477 H454 0.950 . S
C477 C476 1.334 . S
C477 C478 1.287 . S
C478 C477 1.287 . S
C478 C479 1.524 . S
C478 H497 0.913 . S
C479 H455 0.950 . S
C479 C478 1.524 . S
C479 C480 1.415 . S
C480 H456 0.950 . S
C480 C475 1.363 . S
C480 C479 1.415 . S
C481 H457 0.951 . S
C481 C482 1.366 . S
C481 C483 1.388 . S
C482 C481 1.366 . S
C482 C486 1.385 . S
C483 H458 0.951 . S
C483 C481 1.388 . S
C483 C484 1.366 . S
C484 C483 1.366 . S
C484 C485 1.414 . S
C484 C487 1.499 . S
C485 H459 0.950 . S
C485 C484 1.414 . S
C485 C486 1.374 . S
C486 H460 0.950 . S
C486 C482 1.385 . S
C486 C485 1.374 . S
C487 C484 1.499 . S
C487 C488 1.373 . S
C487 C489 1.389 . S
C488 H461 0.950 . S
C488 C474 1.377 . S
C488 C487 1.373 . S
C489 C473 1.377 . S
C489 C487 1.389 . S
C489 C490 1.524 . S
C490 C489 1.524 . S
C490 C491 1.397 . S
C490 C495 1.363 . S
C491 H462 0.950 . S
C491 C490 1.397 . S
C491 C492 1.334 . S
C492 H463 0.950 . S
C492 C491 1.334 . S
C492 C493 1.287 . S
C493 C492 1.287 . S
C493 C494 1.524 . S
C493 H496 0.999 . S
C494 H464 0.950 . S
C494 C493 1.524 . S
C494 C495 1.415 . S
C495 H465 0.950 . S
C495 C490 1.363 . S
C495 C494 1.415 . S
H496 C493 0.999 . S
H497 C478 0.913 . S
H498 C516 0.951 . S
H499 C518 0.951 . S
H500 C520 0.950 . S
H501 C521 0.950 . S
H502 C523 0.950 . S
H503 C526 0.950 . S
H504 C527 0.950 . S
H505 C529 0.950 . S
H506 C530 0.950 . S
H507 C531 0.951 . S
H508 C533 0.951 . S
H509 C535 0.950 . S
H510 C536 0.950 . S
H511 C538 0.950 . S
H512 C541 0.950 . S
H513 C542 0.950 . S
H514 C544 0.950 . S
H515 C545 0.950 . S
C516 H498 0.951 . S
C516 C517 1.366 . S
C516 C518 1.388 . S
C517 C516 1.366 . S
C517 C521 1.385 . S
C518 H499 0.951 . S
C518 C516 1.388 . S
C518 C519 1.366 . S
C519 C518 1.366 . S
C519 C520 1.414 . S
C519 C522 1.499 . S
C520 H500 0.950 . S
C520 C519 1.414 . S
C520 C521 1.374 . S
C521 H501 0.950 . S
C521 C517 1.385 . S
C521 C520 1.374 . S
C522 C519 1.499 . S
C522 C523 1.373 . S
C522 C524 1.389 . S
C523 H502 0.950 . S
C523 C522 1.373 . S
C523 C539 1.377 . S
C524 C522 1.389 . S
C524 C525 1.524 . S
C524 C538 1.377 . S
C525 C524 1.524 . S
C525 C526 1.397 . S
C525 C530 1.363 . S
C526 H503 0.950 . S
C526 C525 1.397 . S
C526 C527 1.334 . S
C527 H504 0.950 . S
C527 C526 1.334 . S
C527 C528 1.287 . S
C528 C527 1.287 . S
C528 C529 1.524 . S
C528 H547 0.913 . S
C529 H505 0.950 . S
C529 C528 1.524 . S
C529 C530 1.415 . S
C530 H506 0.950 . S
C530 C525 1.363 . S
C530 C529 1.415 . S
C531 H507 0.951 . S
C531 C532 1.366 . S
C531 C533 1.388 . S
C532 C531 1.366 . S
C532 C536 1.385 . S
C533 H508 0.951 . S
C533 C531 1.388 . S
C533 C534 1.366 . S
C534 C533 1.366 . S
C534 C535 1.414 . S
C534 C537 1.499 . S
C535 H509 0.950 . S
C535 C534 1.414 . S
C535 C536 1.374 . S
C536 H510 0.950 . S
C536 C532 1.385 . S
C536 C535 1.374 . S
C537 C534 1.499 . S
C537 C538 1.373 . S
C537 C539 1.389 . S
C538 H511 0.950 . S
C538 C524 1.377 . S
C538 C537 1.373 . S
C539 C523 1.377 . S
C539 C537 1.389 . S
C539 C540 1.524 . S
C540 C539 1.524 . S
C540 C541 1.397 . S
C540 C545 1.363 . S
C541 H512 0.950 . S
C541 C540 1.397 . S
C541 C542 1.334 . S
C542 H513 0.950 . S
C542 C541 1.334 . S
C542 C543 1.287 . S
C543 C542 1.287 . S
C543 C544 1.524 . S
C543 H546 0.999 . S
C544 H514 0.950 . S
C544 C543 1.524 . S
C544 C545 1.415 . S
C545 H515 0.950 . S
C545 C540 1.363 . S
C545 C544 1.415 . S
H546 C543 0.999 . S
H547 C528 0.913 . S
H548 C566 0.951 . S
H549 C568 0.951 . S
H550 C570 0.950 . S
H551 C571 0.950 . S
H552 C573 0.950 . S
H553 C576 0.950 . S
H554 C577 0.950 . S
H555 C579 0.950 . S
H556 C580 0.950 . S
H557 C581 0.951 . S
H558 C583 0.951 . S
H559 C585 0.950 . S
H560 C586 0.950 . S
H561 C588 0.950 . S
H562 C591 0.950 . S
H563 C592 0.950 . S
H564 C594 0.950 . S
H565 C595 0.950 . S
C566 H548 0.951 . S
C566 C567 1.366 . S
C566 C568 1.388 . S
C567 C566 1.366 . S
C567 C571 1.385 . S
C568 H549 0.951 . S
C568 C566 1.388 . S
C568 C569 1.366 . S
C569 C568 1.366 . S
C569 C570 1.414 . S
C569 C572 1.499 . S
C570 H550 0.950 . S
C570 C569 1.414 . S
C570 C571 1.374 . S
C571 H551 0.950 . S
C571 C567 1.385 . S
C571 C570 1.374 . S
C572 C569 1.499 . S
C572 C573 1.373 . S
C572 C574 1.389 . S
C573 H552 0.950 . S
C573 C572 1.373 . S
C573 C589 1.377 . S
C574 C572 1.389 . S
C574 C575 1.524 . S
C574 C588 1.377 . S
C575 C574 1.524 . S
C575 C576 1.397 . S
C575 C580 1.363 . S
C576 H553 0.950 . S
C576 C575 1.397 . S
C576 C577 1.334 . S
C577 H554 0.950 . S
C577 C576 1.334 . S
C577 C578 1.287 . S
C578 C577 1.287 . S
C578 C579 1.524 . S
C578 H597 0.913 . S
C579 H555 0.950 . S
C579 C578 1.524 . S
C579 C580 1.415 . S
C580 H556 0.950 . S
C580 C575 1.363 . S
C580 C579 1.415 . S
C581 H557 0.951 . S
C581 C582 1.366 . S
C581 C583 1.388 . S
C582 C581 1.366 . S
C582 C586 1.385 . S
C583 H558 0.951 . S
C583 C581 1.388 . S
C583 C584 1.366 . S
C584 C583 1.366 . S
C584 C585 1.414 . S
C584 C587 1.499 . S
C585 H559 0.950 . S
C585 C584 1.414 . S
C585 C586 1.374 . S
C586 H560 0.950 . S
C586 C582 1.385 . S
C586 C585 1.374 . S
C587 C584 1.499 . S
C587 C588 1.373 . S
C587 C589 1.389 . S
C588 H561 0.950 . S
C588 C574 1.377 . S
C588 C587 1.373 . S
C589 C573 1.377 . S
C589 C587 1.389 . S
C589 C590 1.524 . S
C590 C589 1.524 . S
C590 C591 1.397 . S
C590 C595 1.363 . S
C591 H562 0.950 . S
C591 C590 1.397 . S
C591 C592 1.334 . S
C592 H563 0.950 . S
C592 C591 1.334 . S
C592 C593 1.287 . S
C593 C592 1.287 . S
C593 C594 1.524 . S
C593 H596 0.999 . S
C594 H564 0.950 . S
C594 C593 1.524 . S
C594 C595 1.415 . S
C595 H565 0.950 . S
C595 C590 1.363 . S
C595 C594 1.415 . S
H596 C593 0.999 . S
H597 C578 0.913 . S
H598 C616 0.951 . S
H599 C618 0.951 . S
H600 C620 0.950 . S
H601 C621 0.950 . S
H602 C623 0.950 . S
H603 C626 0.950 . S
H604 C627 0.950 . S
H605 C629 0.950 . S
H606 C630 0.950 . S
H607 C631 0.951 . S
H608 C633 0.951 . S
H609 C635 0.950 . S
H610 C636 0.950 . S
H611 C638 0.950 . S
H612 C641 0.950 . S
H613 C642 0.950 . S
H614 C644 0.950 . S
H615 C645 0.950 . S
C616 H598 0.951 . S
C616 C617 1.366 . S
C616 C618 1.388 . S
C617 C616 1.366 . S
C617 C621 1.385 . S
C618 H599 0.951 . S
C618 C616 1.388 . S
C618 C619 1.366 . S
C619 C618 1.366 . S
C619 C620 1.414 . S
C619 C622 1.499 . S
C620 H600 0.950 . S
C620 C619 1.414 . S
C620 C621 1.374 . S
C621 H601 0.950 . S
C621 C617 1.385 . S
C621 C620 1.374 . S
C622 C619 1.499 . S
C622 C623 1.373 . S
C622 C624 1.389 . S
C623 H602 0.950 . S
C623 C622 1.373 . S
C623 C639 1.377 . S
C624 C622 1.389 . S
C624 C625 1.524 . S
C624 C638 1.377 . S
C625 C624 1.524 . S
C625 C626 1.397 . S
C625 C630 1.363 . S
C626 H603 0.950 . S
C626 C625 1.397 . S
C626 C627 1.334 . S
C627 H604 0.950 . S
C627 C626 1.334 . S
C627 C628 1.287 . S
C628 C627 1.287 . S
C628 C629 1.524 . S
C628 H647 0.913 . S
C629 H605 0.950 . S
C629 C628 1.524 . S
C629 C630 1.415 . S
C630 H606 0.950 . S
C630 C625 1.363 . S
C630 C629 1.415 . S
C631 H607 0.951 . S
C631 C632 1.366 . S
C631 C633 1.388 . S
C632 C631 1.366 . S
C632 C636 1.385 . S
C633 H608 0.951 . S
C633 C631 1.388 . S
C633 C634 1.366 . S
C634 C633 1.366 . S
C634 C635 1.414 . S
C634 C637 1.499 . S
C635 H609 0.950 . S
C635 C634 1.414 . S
C635 C636 1.374 . S
C636 H610 0.950 . S
C636 C632 1.385 . S
C636 C635 1.374 . S
C637 C634 1.499 . S
C637 C638 1.373 . S
C637 C639 1.389 . S
C638 H611 0.950 . S
C638 C624 1.377 . S
C638 C637 1.373 . S
C639 C623 1.377 . S
C639 C637 1.389 . S
C639 C640 1.524 . S
C640 C639 1.524 . S
C640 C641 1.397 . S
C640 C645 1.363 . S
C641 H612 0.950 . S
C641 C640 1.397 . S
C641 C642 1.334 . S
C642 H613 0.950 . S
C642 C641 1.334 . S
C642 C643 1.287 . S
C643 C642 1.287 . S
C643 C644 1.524 . S
C643 H646 0.999 . S
C644 H614 0.950 . S
C644 C643 1.524 . S
C644 C645 1.415 . S
C645 H615 0.950 . S
C645 C640 1.363 . S
C645 C644 1.415 . S
H646 C643 0.999 . S
H647 C628 0.913 . S
H648 C666 0.951 . S
H649 C668 0.951 . S
H650 C670 0.950 . S
H651 C671 0.950 . S
H652 C673 0.950 . S
H653 C676 0.950 . S
H654 C677 0.950 . S
H655 C679 0.950 . S
H656 C680 0.950 . S
H657 C681 0.951 . S
H658 C683 0.951 . S
H659 C685 0.950 . S
H660 C686 0.950 . S
H661 C688 0.950 . S
H662 C691 0.950 . S
H663 C692 0.950 . S
H664 C694 0.950 . S
H665 C695 0.950 . S
C666 H648 0.951 . S
C666 C667 1.366 . S
C666 C668 1.388 . S
C667 C666 1.366 . S
C667 C671 1.385 . S
C668 H649 0.951 . S
C668 C666 1.388 . S
C668 C669 1.366 . S
C669 C668 1.366 . S
C669 C670 1.414 . S
C669 C672 1.499 . S
C670 H650 0.950 . S
C670 C669 1.414 . S
C670 C671 1.374 . S
C671 H651 0.950 . S
C671 C667 1.385 . S
C671 C670 1.374 . S
C672 C669 1.499 . S
C672 C673 1.373 . S
C672 C674 1.389 . S
C673 H652 0.950 . S
C673 C672 1.373 . S
C673 C689 1.377 . S
C674 C672 1.389 . S
C674 C675 1.524 . S
C674 C688 1.377 . S
C675 C674 1.524 . S
C675 C676 1.397 . S
C675 C680 1.363 . S
C676 H653 0.950 . S
C676 C675 1.397 . S
C676 C677 1.334 . S
C677 H654 0.950 . S
C677 C676 1.334 . S
C677 C678 1.287 . S
C678 C677 1.287 . S
C678 C679 1.524 . S
C678 H697 0.913 . S
C679 H655 0.950 . S
C679 C678 1.524 . S
C679 C680 1.415 . S
C680 H656 0.950 . S
C680 C675 1.363 . S
C680 C679 1.415 . S
C681 H657 0.951 . S
C681 C682 1.366 . S
C681 C683 1.388 . S
C682 C681 1.366 . S
C682 C686 1.385 . S
C683 H658 0.951 . S
C683 C681 1.388 . S
C683 C684 1.366 . S
C684 C683 1.366 . S
C684 C685 1.414 . S
C684 C687 1.499 . S
C685 H659 0.950 . S
C685 C684 1.414 . S
C685 C686 1.374 . S
C686 H660 0.950 . S
C686 C682 1.385 . S
C686 C685 1.374 . S
C687 C684 1.499 . S
C687 C688 1.373 . S
C687 C689 1.389 . S
C688 H661 0.950 . S
C688 C674 1.377 . S
C688 C687 1.373 . S
C689 C673 1.377 . S
C689 C687 1.389 . S
C689 C690 1.524 . S
C690 C689 1.524 . S
C690 C691 1.397 . S
C690 C695 1.363 . S
C691 H662 0.950 . S
C691 C690 1.397 . S
C691 C692 1.334 . S
C692 H663 0.950 . S
C692 C691 1.334 . S
C692 C693 1.287 . S
C693 C692 1.287 . S
C693 C694 1.524 . S
C693 H696 0.999 . S
C694 H664 0.950 . S
C694 C693 1.524 . S
C694 C695 1.415 . S
C695 H665 0.950 . S
C695 C690 1.363 . S
C695 C694 1.415 . S
H696 C693 0.999 . S
H697 C678 0.913 . S
H698 C716 0.951 . S
H699 C718 0.951 . S
H700 C720 0.950 . S
H701 C721 0.950 . S
H702 C723 0.950 . S
H703 C726 0.950 . S
H704 C727 0.950 . S
H705 C729 0.950 . S
H706 C730 0.950 . S
H707 C731 0.951 . S
H708 C733 0.951 . S
H709 C735 0.950 . S
H710 C736 0.950 . S
H711 C738 0.950 . S
H712 C741 0.950 . S
H713 C742 0.950 . S
H714 C744 0.950 . S
H715 C745 0.950 . S
C716 H698 0.951 . S
C716 C717 1.366 . S
C716 C718 1.388 . S
C717 C716 1.366 . S
C717 C721 1.385 . S
C718 H699 0.951 . S
C718 C716 1.388 . S
C718 C719 1.366 . S
C719 C718 1.366 . S
C719 C720 1.414 . S
C719 C722 1.499 . S
C720 H700 0.950 . S
C720 C719 1.414 . S
C720 C721 1.374 . S
C721 H701 0.950 . S
C721 C717 1.385 . S
C721 C720 1.374 . S
C722 C719 1.499 . S
C722 C723 1.373 . S
C722 C724 1.389 . S
C723 H702 0.950 . S
C723 C722 1.373 . S
C723 C739 1.377 . S
C724 C722 1.389 . S
C724 C725 1.524 . S
C724 C738 1.377 . S
C725 C724 1.524 . S
C725 C726 1.397 . S
C725 C730 1.363 . S
C726 H703 0.950 . S
C726 C725 1.397 . S
C726 C727 1.334 . S
C727 H704 0.950 . S
C727 C726 1.334 . S
C727 C728 1.287 . S
C728 C727 1.287 . S
C728 C729 1.524 . S
C728 H747 0.913 . S
C729 H705 0.950 . S
C729 C728 1.524 . S
C729 C730 1.415 . S
C730 H706 0.950 . S
C730 C725 1.363 . S
C730 C729 1.415 . S
C731 H707 0.951 . S
C731 C732 1.366 . S
C731 C733 1.388 . S
C732 C731 1.366 . S
C732 C736 1.385 . S
C733 H708 0.951 . S
C733 C731 1.388 . S
C733 C734 1.366 . S
C734 C733 1.366 . S
C734 C735 1.414 . S
C734 C737 1.499 . S
C735 H709 0.950 . S
C735 C734 1.414 . S
C735 C736 1.374 . S
C736 H710 0.950 . S
C736 C732 1.385 . S
C736 C735 1.374 . S
C737 C734 1.499 . S
C737 C738 1.373 . S
C737 C739 1.389 . S
C738 H711 0.950 . S
C738 C724 1.377 . S
C738 C737 1.373 . S
C739 C723 1.377 . S
C739 C737 1.389 . S
C739 C740 1.524 . S
C740 C739 1.524 . S
C740 C741 1.397 . S
C740 C745 1.363 . S
C741 H712 0.950 . S
C741 C740 1.397 . S
C741 C742 1.334 . S
C742 H713 0.950 . S
C742 C741 1.334 . S
C742 C743 1.287 . S
C743 C742 1.287 . S
C743 C744 1.524 . S
C743 H746 0.999 . S
C744 H714 0.950 . S
C744 C743 1.524 . S
C744 C745 1.415 . S
C745 H715 0.950 . S
C745 C740 1.363 . S
C745 C744 1.415 . S
H746 C743 0.999 . S
H747 C728 0.913 . S
H748 C766 0.951 . S
H749 C768 0.951 . S
H750 C770 0.950 . S
H751 C771 0.950 . S
H752 C773 0.950 . S
H753 C776 0.950 . S
H754 C777 0.950 . S
H755 C779 0.950 . S
H756 C780 0.950 . S
H757 C781 0.951 . S
H758 C783 0.951 . S
H759 C785 0.950 . S
H760 C786 0.950 . S
H761 C788 0.950 . S
H762 C791 0.950 . S
H763 C792 0.950 . S
H764 C794 0.950 . S
H765 C795 0.950 . S
C766 H748 0.951 . S
C766 C767 1.366 . S
C766 C768 1.388 . S
C767 C766 1.366 . S
C767 C771 1.385 . S
C768 H749 0.951 . S
C768 C766 1.388 . S
C768 C769 1.366 . S
C769 C768 1.366 . S
C769 C770 1.414 . S
C769 C772 1.499 . S
C770 H750 0.950 . S
C770 C769 1.414 . S
C770 C771 1.374 . S
C771 H751 0.950 . S
C771 C767 1.385 . S
C771 C770 1.374 . S
C772 C769 1.499 . S
C772 C773 1.373 . S
C772 C774 1.389 . S
C773 H752 0.950 . S
C773 C772 1.373 . S
C773 C789 1.377 . S
C774 C772 1.389 . S
C774 C775 1.524 . S
C774 C788 1.377 . S
C775 C774 1.524 . S
C775 C776 1.397 . S
C775 C780 1.363 . S
C776 H753 0.950 . S
C776 C775 1.397 . S
C776 C777 1.334 . S
C777 H754 0.950 . S
C777 C776 1.334 . S
C777 C778 1.287 . S
C778 C777 1.287 . S
C778 C779 1.524 . S
C778 H797 0.913 . S
C779 H755 0.950 . S
C779 C778 1.524 . S
C779 C780 1.415 . S
C780 H756 0.950 . S
C780 C775 1.363 . S
C780 C779 1.415 . S
C781 H757 0.951 . S
C781 C782 1.366 . S
C781 C783 1.388 . S
C782 C781 1.366 . S
C782 C786 1.385 . S
C783 H758 0.951 . S
C783 C781 1.388 . S
C783 C784 1.366 . S
C784 C783 1.366 . S
C784 C785 1.414 . S
C784 C787 1.499 . S
C785 H759 0.950 . S
C785 C784 1.414 . S
C785 C786 1.374 . S
C786 H760 0.950 . S
C786 C782 1.385 . S
C786 C785 1.374 . S
C787 C784 1.499 . S
C787 C788 1.373 . S
C787 C789 1.389 . S
C788 H761 0.950 . S
C788 C774 1.377 . S
C788 C787 1.373 . S
C789 C773 1.377 . S
C789 C787 1.389 . S
C789 C790 1.524 . S
C790 C789 1.524 . S
C790 C791 1.397 . S
C790 C795 1.363 . S
C791 H762 0.950 . S
C791 C790 1.397 . S
C791 C792 1.334 . S
C792 H763 0.950 . S
C792 C791 1.334 . S
C792 C793 1.287 . S
C793 C792 1.287 . S
C793 C794 1.524 . S
C793 H796 0.999 . S
C794 H764 0.950 . S
C794 C793 1.524 . S
C794 C795 1.415 . S
C795 H765 0.950 . S
C795 C790 1.363 . S
C795 C794 1.415 . S
H796 C793 0.999 . S
H797 C778 0.913 . S
H798 C816 0.951 . S
H799 C818 0.951 . S
H800 C820 0.950 . S
H801 C821 0.950 . S
H802 C823 0.950 . S
H803 C826 0.950 . S
H804 C827 0.950 . S
H805 C829 0.950 . S
H806 C830 0.950 . S
H807 C831 0.951 . S
H808 C833 0.951 . S
H809 C835 0.950 . S
H810 C836 0.950 . S
H811 C838 0.950 . S
H812 C841 0.950 . S
H813 C842 0.950 . S
H814 C844 0.950 . S
H815 C845 0.950 . S
C816 H798 0.951 . S
C816 C817 1.366 . S
C816 C818 1.388 . S
C817 C816 1.366 . S
C817 C821 1.385 . S
C818 H799 0.951 . S
C818 C816 1.388 . S
C818 C819 1.366 . S
C819 C818 1.366 . S
C819 C820 1.414 . S
C819 C822 1.499 . S
C820 H800 0.950 . S
C820 C819 1.414 . S
C820 C821 1.374 . S
C821 H801 0.950 . S
C821 C817 1.385 . S
C821 C820 1.374 . S
C822 C819 1.499 . S
C822 C823 1.373 . S
C822 C824 1.389 . S
C823 H802 0.950 . S
C823 C822 1.373 . S
C823 C839 1.377 . S
C824 C822 1.389 . S
C824 C825 1.524 . S
C824 C838 1.377 . S
C825 C824 1.524 . S
C825 C826 1.397 . S
C825 C830 1.363 . S
C826 H803 0.950 . S
C826 C825 1.397 . S
C826 C827 1.334 . S
C827 H804 0.950 . S
C827 C826 1.334 . S
C827 C828 1.287 . S
C828 C827 1.287 . S
C828 C829 1.524 . S
C828 H847 0.913 . S
C829 H805 0.950 . S
C829 C828 1.524 . S
C829 C830 1.415 . S
C830 H806 0.950 . S
C830 C825 1.363 . S
C830 C829 1.415 . S
C831 H807 0.951 . S
C831 C832 1.366 . S
C831 C833 1.388 . S
C832 C831 1.366 . S
C832 C836 1.385 . S
C833 H808 0.951 . S
C833 C831 1.388 . S
C833 C834 1.366 . S
C834 C833 1.366 . S
C834 C835 1.414 . S
C834 C837 1.499 . S
C835 H809 0.950 . S
C835 C834 1.414 . S
C835 C836 1.374 . S
C836 H810 0.950 . S
C836 C832 1.385 . S
C836 C835 1.374 . S
C837 C834 1.499 . S
C837 C838 1.373 . S
C837 C839 1.389 . S
C838 H811 0.950 . S
C838 C824 1.377 . S
C838 C837 1.373 . S
C839 C823 1.377 . S
C839 C837 1.389 . S
C839 C840 1.524 . S
C840 C839 1.524 . S
C840 C841 1.397 . S
C840 C845 1.363 . S
C841 H812 0.950 . S
C841 C840 1.397 . S
C841 C842 1.334 . S
C842 H813 0.950 . S
C842 C841 1.334 . S
C842 C843 1.287 . S
C843 C842 1.287 . S
C843 C844 1.524 . S
C843 H846 0.999 . S
C844 H814 0.950 . S
C844 C843 1.524 . S
C844 C845 1.415 . S
C845 H815 0.950 . S
C845 C840 1.363 . S
C845 C844 1.415 . S
H846 C843 0.999 . S
H847 C828 0.913 . S
H848 C866 0.951 . S
H849 C868 0.951 . S
H850 C870 0.950 . S
H851 C871 0.950 . S
H852 C873 0.950 . S
H853 C876 0.950 . S
H854 C877 0.950 . S
H855 C879 0.950 . S
H856 C880 0.950 . S
H857 C881 0.951 . S
H858 C883 0.951 . S
H859 C885 0.950 . S
H860 C886 0.950 . S
H861 C888 0.950 . S
H862 C891 0.950 . S
H863 C892 0.950 . S
H864 C894 0.950 . S
H865 C895 0.950 . S
C866 H848 0.951 . S
C866 C867 1.366 . S
C866 C868 1.388 . S
C867 C866 1.366 . S
C867 C871 1.385 . S
C868 H849 0.951 . S
C868 C866 1.388 . S
C868 C869 1.366 . S
C869 C868 1.366 . S
C869 C870 1.414 . S
C869 C872 1.499 . S
C870 H850 0.950 . S
C870 C869 1.414 . S
C870 C871 1.374 . S
C871 H851 0.950 . S
C871 C867 1.385 . S
C871 C870 1.374 . S
C872 C869 1.499 . S
C872 C873 1.373 . S
C872 C874 1.389 . S
C873 H852 0.950 . S
C873 C872 1.373 . S
C873 C889 1.377 . S
C874 C872 1.389 . S
C874 C875 1.524 . S
C874 C888 1.377 . S
C875 C874 1.524 . S
C875 C876 1.397 . S
C875 C880 1.363 . S
C876 H853 0.950 . S
C876 C875 1.397 . S
C876 C877 1.334 . S
C877 H854 0.950 . S
C877 C876 1.334 . S
C877 C878 1.287 . S
C878 C877 1.287 . S
C878 C879 1.524 . S
C878 H897 0.913 . S
C879 H855 0.950 . S
C879 C878 1.524 . S
C879 C880 1.415 . S
C880 H856 0.950 . S
C880 C875 1.363 . S
C880 C879 1.415 . S
C881 H857 0.951 . S
C881 C882 1.366 . S
C881 C883 1.388 . S
C882 C881 1.366 . S
C882 C886 1.385 . S
C883 H858 0.951 . S
C883 C881 1.388 . S
C883 C884 1.366 . S
C884 C883 1.366 . S
C884 C885 1.414 . S
C884 C887 1.499 . S
C885 H859 0.950 . S
C885 C884 1.414 . S
C885 C886 1.374 . S
C886 H860 0.950 . S
C886 C882 1.385 . S
C886 C885 1.374 . S
C887 C884 1.499 . S
C887 C888 1.373 . S
C887 C889 1.389 . S
C888 H861 0.950 . S
C888 C874 1.377 . S
C888 C887 1.373 . S
C889 C873 1.377 . S
C889 C887 1.389 . S
C889 C890 1.524 . S
C890 C889 1.524 . S
C890 C891 1.397 . S
C890 C895 1.363 . S
C891 H862 0.950 . S
C891 C890 1.397 . S
C891 C892 1.334 . S
C892 H863 0.950 . S
C892 C891 1.334 . S
C892 C893 1.287 . S
C893 C892 1.287 . S
C893 C894 1.524 . S
C893 H896 0.999 . S
C894 H864 0.950 . S
C894 C893 1.524 . S
C894 C895 1.415 . S
C895 H865 0.950 . S
C895 C890 1.363 . S
C895 C894 1.415 . S
H896 C893 0.999 . S
H897 C878 0.913 . S
H898 C916 0.951 . S
H899 C918 0.951 . S
H900 C920 0.950 . S
H901 C921 0.950 . S
H902 C923 0.950 . S
H903 C926 0.950 . S
H904 C927 0.950 . S
H905 C929 0.950 . S
H906 C930 0.950 . S
H907 C931 0.951 . S
H908 C933 0.951 . S
H909 C935 0.950 . S
H910 C936 0.950 . S
H911 C938 0.950 . S
H912 C941 0.950 . S
H913 C942 0.950 . S
H914 C944 0.950 . S
H915 C945 0.950 . S
C916 H898 0.951 . S
C916 C917 1.366 . S
C916 C918 1.388 . S
C917 C916 1.366 . S
C917 C921 1.385 . S
C918 H899 0.951 . S
C918 C916 1.388 . S
C918 C919 1.366 . S
C919 C918 1.366 . S
C919 C920 1.414 . S
C919 C922 1.499 . S
C920 H900 0.950 . S
C920 C919 1.414 . S
C920 C921 1.374 . S
C921 H901 0.950 . S
C921 C917 1.385 . S
C921 C920 1.374 . S
C922 C919 1.499 . S
C922 C923 1.373 . S
C922 C924 1.389 . S
C923 H902 0.950 . S
C923 C922 1.373 . S
C923 C939 1.377 . S
C924 C922 1.389 . S
C924 C925 1.524 . S
C924 C938 1.377 . S
C925 C924 1.524 . S
C925 C926 1.397 . S
C925 C930 1.363 . S
C926 H903 0.950 . S
C926 C925 1.397 . S
C926 C927 1.334 . S
C927 H904 0.950 . S
C927 C926 1.334 . S
C927 C928 1.287 . S
C928 C927 1.287 . S
C928 C929 1.524 . S
C928 H947 0.913 . S
C929 H905 0.950 . S
C929 C928 1.524 . S
C929 C930 1.415 . S
C930 H906 0.950 . S
C930 C925 1.363 . S
C930 C929 1.415 . S
C931 H907 0.951 . S
C931 C932 1.366 . S
C931 C933 1.388 . S
C932 C931 1.366 . S
C932 C936 1.385 . S
C933 H908 0.951 . S
C933 C931 1.388 . S
C933 C934 1.366 . S
C934 C933 1.366 . S
C934 C935 1.414 . S
C934 C937 1.499 . S
C935 H909 0.950 . S
C935 C934 1.414 . S
C935 C936 1.374 . S
C936 H910 0.950 . S
C936 C932 1.385 . S
C936 C935 1.374 . S
C937 C934 1.499 . S
C937 C938 1.373 . S
C937 C939 1.389 . S
C938 H911 0.950 . S
C938 C924 1.377 . S
C938 C937 1.373 . S
C939 C923 1.377 . S
C939 C937 1.389 . S
C939 C940 1.524 . S
C940 C939 1.524 . S
C940 C941 1.397 . S
C940 C945 1.363 . S
C941 H912 0.950 . S
C941 C940 1.397 . S
C941 C942 1.334 . S
C942 H913 0.950 . S
C942 C941 1.334 . S
C942 C943 1.287 . S
C943 C942 1.287 . S
C943 C944 1.524 . S
C943 H946 0.999 . S
C944 H914 0.950 . S
C944 C943 1.524 . S
C944 C945 1.415 . S
C945 H915 0.950 . S
C945 C940 1.363 . S
C945 C944 1.415 . S
H946 C943 0.999 . S
H947 C928 0.913 . S
H948 C966 0.951 . S
H949 C968 0.951 . S
H950 C970 0.950 . S
H951 C971 0.950 . S
H952 C973 0.950 . S
H953 C976 0.950 . S
H954 C977 0.950 . S
H955 C979 0.950 . S
H956 C980 0.950 . S
H957 C981 0.951 . S
H958 C983 0.951 . S
H959 C985 0.950 . S
H960 C986 0.950 . S
H961 C988 0.950 . S
H962 C991 0.950 . S
H963 C992 0.950 . S
H964 C994 0.950 . S
H965 C995 0.950 . S
C966 H948 0.951 . S
C966 C967 1.366 . S
C966 C968 1.388 . S
C967 C966 1.366 . S
C967 C971 1.385 . S
C968 H949 0.951 . S
C968 C966 1.388 . S
C968 C969 1.366 . S
C969 C968 1.366 . S
C969 C970 1.414 . S
C969 C972 1.499 . S
C970 H950 0.950 . S
C970 C969 1.414 . S
C970 C971 1.374 . S
C971 H951 0.950 . S
C971 C967 1.385 . S
C971 C970 1.374 . S
C972 C969 1.499 . S
C972 C973 1.373 . S
C972 C974 1.389 . S
C973 H952 0.950 . S
C973 C972 1.373 . S
C973 C989 1.377 . S
C974 C972 1.389 . S
C974 C975 1.524 . S
C974 C988 1.377 . S
C975 C974 1.524 . S
C975 C976 1.397 . S
C975 C980 1.363 . S
C976 H953 0.950 . S
C976 C975 1.397 . S
C976 C977 1.334 . S
C977 H954 0.950 . S
C977 C976 1.334 . S
C977 C978 1.287 . S
C978 C977 1.287 . S
C978 C979 1.524 . S
C978 H997 0.913 . S
C979 H955 0.950 . S
C979 C978 1.524 . S
C979 C980 1.415 . S
C980 H956 0.950 . S
C980 C975 1.363 . S
C980 C979 1.415 . S
C981 H957 0.951 . S
C981 C982 1.366 . S
C981 C983 1.388 . S
C982 C981 1.366 . S
C982 C986 1.385 . S
C983 H958 0.951 . S
C983 C981 1.388 . S
C983 C984 1.366 . S
C984 C983 1.366 . S
C984 C985 1.414 . S
C984 C987 1.499 . S
C985 H959 0.950 . S
C985 C984 1.414 . S
C985 C986 1.374 . S
C986 H960 0.950 . S
C986 C982 1.385 . S
C986 C985 1.374 . S
C987 C984 1.499 . S
C987 C988 1.373 . S
C987 C989 1.389 . S
C988 H961 0.950 . S
C988 C974 1.377 . S
C988 C987 1.373 . S
C989 C973 1.377 . S
C989 C987 1.389 . S
C989 C990 1.524 . S
C990 C989 1.524 . S
C990 C991 1.397 . S
C990 C995 1.363 . S
C991 H962 0.950 . S
C991 C990 1.397 . S
C991 C992 1.334 . S
C992 H963 0.950 . S
C992 C991 1.334 . S
C992 C993 1.287 . S
C993 C992 1.287 . S
C993 C994 1.524 . S
C993 H996 0.999 . S
C994 H964 0.950 . S
C994 C993 1.524 . S
C994 C995 1.415 . S
C995 H965 0.950 . S
C995 C990 1.363 . S
C995 C994 1.415 . S
H996 C993 0.999 . S
H997 C978 0.913 . S
H998 C1016 0.951 . S
H999 C1018 0.951 . S
H1000 C1020 0.950 . S
H1001 C1021 0.950 . S
H1002 C1023 0.950 . S
H1003 C1026 0.950 . S
H1004 C1027 0.950 . S
H1005 C1029 0.950 . S
H1006 C1030 0.950 . S
H1007 C1031 0.951 . S
H1008 C1033 0.951 . S
H1009 C1035 0.950 . S
H1010 C1036 0.950 . S
H1011 C1038 0.950 . S
H1012 C1041 0.950 . S
H1013 C1042 0.950 . S
H1014 C1044 0.950 . S
H1015 C1045 0.950 . S
C1016 H998 0.951 . S
C1016 C1017 1.366 . S
C1016 C1018 1.388 . S
C1017 C1016 1.366 . S
C1017 C1021 1.385 . S
C1018 H999 0.951 . S
C1018 C1016 1.388 . S
C1018 C1019 1.366 . S
C1019 C1018 1.366 . S
C1019 C1020 1.414 . S
C1019 C1022 1.499 . S
C1020 H1000 0.950 . S
C1020 C1019 1.414 . S
C1020 C1021 1.374 . S
C1021 H1001 0.950 . S
C1021 C1017 1.385 . S
C1021 C1020 1.374 . S
C1022 C1019 1.499 . S
C1022 C1023 1.373 . S
C1022 C1024 1.389 . S
C1023 H1002 0.950 . S
C1023 C1022 1.373 . S
C1023 C1039 1.377 . S
C1024 C1022 1.389 . S
C1024 C1025 1.524 . S
C1024 C1038 1.377 . S
C1025 C1024 1.524 . S
C1025 C1026 1.397 . S
C1025 C1030 1.363 . S
C1026 H1003 0.950 . S
C1026 C1025 1.397 . S
C1026 C1027 1.334 . S
C1027 H1004 0.950 . S
C1027 C1026 1.334 . S
C1027 C1028 1.287 . S
C1028 C1027 1.287 . S
C1028 C1029 1.524 . S
C1028 H1047 0.913 . S
C1029 H1005 0.950 . S
C1029 C1028 1.524 . S
C1029 C1030 1.415 . S
C1030 H1006 0.950 . S
C1030 C1025 1.363 . S
C1030 C1029 1.415 . S
C1031 H1007 0.951 . S
C1031 C1032 1.366 . S
C1031 C1033 1.388 . S
C1032 C1031 1.366 . S
C1032 C1036 1.385 . S
C1033 H1008 0.951 . S
C1033 C1031 1.388 . S
C1033 C1034 1.366 . S
C1034 C1033 1.366 . S
C1034 C1035 1.414 . S
C1034 C1037 1.499 . S
C1035 H1009 0.950 . S
C1035 C1034 1.414 . S
C1035 C1036 1.374 . S
C1036 H1010 0.950 . S
C1036 C1032 1.385 . S
C1036 C1035 1.374 . S
C1037 C1034 1.499 . S
C1037 C1038 1.373 . S
C1037 C1039 1.389 . S
C1038 H1011 0.950 . S
C1038 C1024 1.377 . S
C1038 C1037 1.373 . S
C1039 C1023 1.377 . S
C1039 C1037 1.389 . S
C1039 C1040 1.524 . S
C1040 C1039 1.524 . S
C1040 C1041 1.397 . S
C1040 C1045 1.363 . S
C1041 H1012 0.950 . S
C1041 C1040 1.397 . S
C1041 C1042 1.334 . S
C1042 H1013 0.950 . S
C1042 C1041 1.334 . S
C1042 C1043 1.287 . S
C1043 C1042 1.287 . S
C1043 C1044 1.524 . S
C1043 H1046 0.999 . S
C1044 H1014 0.950 . S
C1044 C1043 1.524 . S
C1044 C1045 1.415 . S
C1045 H1015 0.950 . S
C1045 C1040 1.363 . S
C1045 C1044 1.415 . S
H1046 C1043 0.999 . S
H1047 C1028 0.913 . S
H1048 C1066 0.951 . S
H1049 C1068 0.951 . S
H1050 C1070 0.950 . S
H1051 C1071 0.950 . S
H1052 C1073 0.950 . S
H1053 C1076 0.950 . S
H1054 C1077 0.950 . S
H1055 C1079 0.950 . S
H1056 C1080 0.950 . S
H1057 C1081 0.951 . S
H1058 C1083 0.951 . S
H1059 C1085 0.950 . S
H1060 C1086 0.950 . S
H1061 C1088 0.950 . S
H1062 C1091 0.950 . S
H1063 C1092 0.950 . S
H1064 C1094 0.950 . S
H1065 C1095 0.950 . S
C1066 H1048 0.951 . S
C1066 C1067 1.366 . S
C1066 C1068 1.388 . S
C1067 C1066 1.366 . S
C1067 C1071 1.385 . S
C1068 H1049 0.951 . S
C1068 C1066 1.388 . S
C1068 C1069 1.366 . S
C1069 C1068 1.366 . S
C1069 C1070 1.414 . S
C1069 C1072 1.499 . S
C1070 H1050 0.950 . S
C1070 C1069 1.414 . S
C1070 C1071 1.374 . S
C1071 H1051 0.950 . S
C1071 C1067 1.385 . S
C1071 C1070 1.374 . S
C1072 C1069 1.499 . S
C1072 C1073 1.373 . S
C1072 C1074 1.389 . S
C1073 H1052 0.950 . S
C1073 C1072 1.373 . S
C1073 C1089 1.377 . S
C1074 C1072 1.389 . S
C1074 C1075 1.524 . S
C1074 C1088 1.377 . S
C1075 C1074 1.524 . S
C1075 C1076 1.397 . S
C1075 C1080 1.363 . S
C1076 H1053 0.950 . S
C1076 C1075 1.397 . S
C1076 C1077 1.334 . S
C1077 H1054 0.950 . S
C1077 C1076 1.334 . S
C1077 C1078 1.287 . S
C1078 C1077 1.287 . S
C1078 C1079 1.524 . S
C1078 H1097 0.913 . S
C1079 H1055 0.950 . S
C1079 C1078 1.524 . S
C1079 C1080 1.415 . S
C1080 H1056 0.950 . S
C1080 C1075 1.363 . S
C1080 C1079 1.415 . S
C1081 H1057 0.951 . S
C1081 C1082 1.366 . S
C1081 C1083 1.388 . S
C1082 C1081 1.366 . S
C1082 C1086 1.385 . S
C1083 H1058 0.951 . S
C1083 C1081 1.388 . S
C1083 C1084 1.366 . S
C1084 C1083 1.366 . S
C1084 C1085 1.414 . S
C1084 C1087 1.499 . S
C1085 H1059 0.950 . S
C1085 C1084 1.414 . S
C1085 C1086 1.374 . S
C1086 H1060 0.950 . S
C1086 C1082 1.385 . S
C1086 C1085 1.374 . S
C1087 C1084 1.499 . S
C1087 C1088 1.373 . S
C1087 C1089 1.389 . S
C1088 H1061 0.950 . S
C1088 C1074 1.377 . S
C1088 C1087 1.373 . S
C1089 C1073 1.377 . S
C1089 C1087 1.389 . S
C1089 C1090 1.524 . S
C1090 C1089 1.524 . S
C1090 C1091 1.397 . S
C1090 C1095 1.363 . S
C1091 H1062 0.950 . S
C1091 C1090 1.397 . S
C1091 C1092 1.334 . S
C1092 H1063 0.950 . S
C1092 C1091 1.334 . S
C1092 C1093 1.287 . S
C1093 C1092 1.287 . S
C1093 C1094 1.524 . S
C1093 H1096 0.999 . S
C1094 H1064 0.950 . S
C1094 C1093 1.524 . S
C1094 C1095 1.415 . S
C1095 H1065 0.950 . S
C1095 C1090 1.363 . S
C1095 C1094 1.415 . S
H1096 C1093 0.999 . S
H1097 C1078 0.913 . S
H1098 C1116 0.951 . S
H1099 C1118 0.951 . S
H1100 C1120 0.950 . S
H1101 C1121 0.950 . S
H1102 C1123 0.950 . S
H1103 C1126 0.950 . S
H1104 C1127 0.950 . S
H1105 C1129 0.950 . S
H1106 C1130 0.950 . S
H1107 C1131 0.951 . S
H1108 C1133 0.951 . S
H1109 C1135 0.950 . S
H1110 C1136 0.950 . S
H1111 C1138 0.950 . S
H1112 C1141 0.950 . S
H1113 C1142 0.950 . S
H1114 C1144 0.950 . S
H1115 C1145 0.950 . S
C1116 H1098 0.951 . S
C1116 C1117 1.366 . S
C1116 C1118 1.388 . S
C1117 C1116 1.366 . S
C1117 C1121 1.385 . S
C1118 H1099 0.951 . S
C1118 C1116 1.388 . S
C1118 C1119 1.366 . S
C1119 C1118 1.366 . S
C1119 C1120 1.414 . S
C1119 C1122 1.499 . S
C1120 H1100 0.950 . S
C1120 C1119 1.414 . S
C1120 C1121 1.374 . S
C1121 H1101 0.950 . S
C1121 C1117 1.385 . S
C1121 C1120 1.374 . S
C1122 C1119 1.499 . S
C1122 C1123 1.373 . S
C1122 C1124 1.389 . S
C1123 H1102 0.950 . S
C1123 C1122 1.373 . S
C1123 C1139 1.377 . S
C1124 C1122 1.389 . S
C1124 C1125 1.524 . S
C1124 C1138 1.377 . S
C1125 C1124 1.524 . S
C1125 C1126 1.397 . S
C1125 C1130 1.363 . S
C1126 H1103 0.950 . S
C1126 C1125 1.397 . S
C1126 C1127 1.334 . S
C1127 H1104 0.950 . S
C1127 C1126 1.334 . S
C1127 C1128 1.287 . S
C1128 C1127 1.287 . S
C1128 C1129 1.524 . S
C1128 H1147 0.913 . S
C1129 H1105 0.950 . S
C1129 C1128 1.524 . S
C1129 C1130 1.415 . S
C1130 H1106 0.950 . S
C1130 C1125 1.363 . S
C1130 C1129 1.415 . S
C1131 H1107 0.951 . S
C1131 C1132 1.366 . S
C1131 C1133 1.388 . S
C1132 C1131 1.366 . S
C1132 C1136 1.385 . S
C1133 H1108 0.951 . S
C1133 C1131 1.388 . S
C1133 C1134 1.366 . S
C1134 C1133 1.366 . S
C1134 C1135 1.414 . S
C1134 C1137 1.499 . S
C1135 H1109 0.950 . S
C1135 C1134 1.414 . S
C1135 C1136 1.374 . S
C1136 H1110 0.950 . S
C1136 C1132 1.385 . S
C1136 C1135 1.374 . S
C1137 C1134 1.499 . S
C1137 C1138 1.373 . S
C1137 C1139 1.389 . S
C1138 H1111 0.950 . S
C1138 C1124 1.377 . S
C1138 C1137 1.373 . S
C1139 C1123 1.377 . S
C1139 C1137 1.389 . S
C1139 C1140 1.524 . S
C1140 C1139 1.524 . S
C1140 C1141 1.397 . S
C1140 C1145 1.363 . S
C1141 H1112 0.950 . S
C1141 C1140 1.397 . S
C1141 C1142 1.334 . S
C1142 H1113 0.950 . S
C1142 C1141 1.334 . S
C1142 C1143 1.287 . S
C1143 C1142 1.287 . S
C1143 C1144 1.524 . S
C1143 H1146 0.999 . S
C1144 H1114 0.950 . S
C1144 C1143 1.524 . S
C1144 C1145 1.415 . S
C1145 H1115 0.950 . S
C1145 C1140 1.363 . S
C1145 C1144 1.415 . S
H1146 C1143 0.999 . S
H1147 C1128 0.913 . S
H1148 C1166 0.951 . S
H1149 C1168 0.951 . S
H1150 C1170 0.950 . S
H1151 C1171 0.950 . S
H1152 C1173 0.950 . S
H1153 C1176 0.950 . S
H1154 C1177 0.950 . S
H1155 C1179 0.950 . S
H1156 C1180 0.950 . S
H1157 C1181 0.951 . S
H1158 C1183 0.951 . S
H1159 C1185 0.950 . S
H1160 C1186 0.950 . S
H1161 C1188 0.950 . S
H1162 C1191 0.950 . S
H1163 C1192 0.950 . S
H1164 C1194 0.950 . S
H1165 C1195 0.950 . S
C1166 H1148 0.951 . S
C1166 C1167 1.366 . S
C1166 C1168 1.388 . S
C1167 C1166 1.366 . S
C1167 C1171 1.385 . S
C1168 H1149 0.951 . S
C1168 C1166 1.388 . S
C1168 C1169 1.366 . S
C1169 C1168 1.366 . S
C1169 C1170 1.414 . S
C1169 C1172 1.499 . S
C1170 H1150 0.950 . S
C1170 C1169 1.414 . S
C1170 C1171 1.374 . S
C1171 H1151 0.950 . S
C1171 C1167 1.385 . S
C1171 C1170 1.374 . S
C1172 C1169 1.499 . S
C1172 C1173 1.373 . S
C1172 C1174 1.389 . S
C1173 H1152 0.950 . S
C1173 C1172 1.373 . S
C1173 C1189 1.377 . S
C1174 C1172 1.389 . S
C1174 C1175 1.524 . S
C1174 C1188 1.377 . S
C1175 C1174 1.524 . S
C1175 C1176 1.397 . S
C1175 C1180 1.363 . S
C1176 H1153 0.950 . S
C1176 C1175 1.397 . S
C1176 C1177 1.334 . S
C1177 H1154 0.950 . S
C1177 C1176 1.334 . S
C1177 C1178 1.287 . S
C1178 C1177 1.287 . S
C1178 C1179 1.524 . S
C1178 H1197 0.913 . S
C1179 H1155 0.950 . S
C1179 C1178 1.524 . S
C1179 C1180 1.415 . S
C1180 H1156 0.950 . S
C1180 C1175 1.363 . S
C1180 C1179 1.415 . S
C1181 H1157 0.951 . S
C1181 C1182 1.366 . S
C1181 C1183 1.388 . S
C1182 C1181 1.366 . S
C1182 C1186 1.385 . S
C1183 H1158 0.951 . S
C1183 C1181 1.388 . S
C1183 C1184 1.366 . S
C1184 C1183 1.366 . S
C1184 C1185 1.414 . S
C1184 C1187 1.499 . S
C1185 H1159 0.950 . S
C1185 C1184 1.414 . S
C1185 C1186 1.374 . S
C1186 H1160 0.950 . S
C1186 C1182 1.385 . S
C1186 C1185 1.374 . S
C1187 C1184 1.499 . S
C1187 C1188 1.373 . S
C1187 C1189 1.389 . S
C1188 H1161 0.950 . S
C1188 C1174 1.377 . S
C1188 C1187 1.373 . S
C1189 C1173 1.377 . S
C1189 C1187 1.389 . S
C1189 C1190 1.524 . S
C1190 C1189 1.524 . S
C1190 C1191 1.397 . S
C1190 C1195 1.363 . S
C1191 H1162 0.950 . S
C1191 C1190 1.397 . S
C1191 C1192 1.334 . S
C1192 H1163 0.950 . S
C1192 C1191 1.334 . S
C1192 C1193 1.287 . S
C1193 C1192 1.287 . S
C1193 C1194 1.524 . S
C1193 H1196 0.999 . S
C1194 H1164 0.950 . S
C1194 C1193 1.524 . S
C1194 C1195 1.415 . S
C1195 H1165 0.950 . S
C1195 C1190 1.363 . S
C1195 C1194 1.415 . S
H1196 C1193 0.999 . S
H1197 C1178 0.913 . S
H1198 C1216 0.951 . S
H1199 C1218 0.951 . S
H1200 C1220 0.950 . S
H1201 C1221 0.950 . S
H1202 C1223 0.950 . S
H1203 C1226 0.950 . S
H1204 C1227 0.950 . S
H1205 C1229 0.950 . S
H1206 C1230 0.950 . S
H1207 C1231 0.951 . S
H1208 C1233 0.951 . S
H1209 C1235 0.950 . S
H1210 C1236 0.950 . S
H1211 C1238 0.950 . S
H1212 C1241 0.950 . S
H1213 C1242 0.950 . S
H1214 C1244 0.950 . S
H1215 C1245 0.950 . S
C1216 H1198 0.951 . S
C1216 C1217 1.366 . S
C1216 C1218 1.388 . S
C1217 C1216 1.366 . S
C1217 C1221 1.385 . S
C1218 H1199 0.951 . S
C1218 C1216 1.388 . S
C1218 C1219 1.366 . S
C1219 C1218 1.366 . S
C1219 C1220 1.414 . S
C1219 C1222 1.499 . S
C1220 H1200 0.950 . S
C1220 C1219 1.414 . S
C1220 C1221 1.374 . S
C1221 H1201 0.950 . S
C1221 C1217 1.385 . S
C1221 C1220 1.374 . S
C1222 C1219 1.499 . S
C1222 C1223 1.373 . S
C1222 C1224 1.389 . S
C1223 H1202 0.950 . S
C1223 C1222 1.373 . S
C1223 C1239 1.377 . S
C1224 C1222 1.389 . S
C1224 C1225 1.524 . S
C1224 C1238 1.377 . S
C1225 C1224 1.524 . S
C1225 C1226 1.397 . S
C1225 C1230 1.363 . S
C1226 H1203 0.950 . S
C1226 C1225 1.397 . S
C1226 C1227 1.334 . S
C1227 H1204 0.950 . S
C1227 C1226 1.334 . S
C1227 C1228 1.287 . S
C1228 C1227 1.287 . S
C1228 C1229 1.524 . S
C1228 H1247 0.913 . S
C1229 H1205 0.950 . S
C1229 C1228 1.524 . S
C1229 C1230 1.415 . S
C1230 H1206 0.950 . S
C1230 C1225 1.363 . S
C1230 C1229 1.415 . S
C1231 H1207 0.951 . S
C1231 C1232 1.366 . S
C1231 C1233 1.388 . S
C1232 C1231 1.366 . S
C1232 C1236 1.385 . S
C1233 H1208 0.951 . S
C1233 C1231 1.388 . S
C1233 C1234 1.366 . S
C1234 C1233 1.366 . S
C1234 C1235 1.414 . S
C1234 C1237 1.499 . S
C1235 H1209 0.950 . S
C1235 C1234 1.414 . S
C1235 C1236 1.374 . S
C1236 H1210 0.950 . S
C1236 C1232 1.385 . S
C1236 C1235 1.374 . S
C1237 C1234 1.499 . S
C1237 C1238 1.373 . S
C1237 C1239 1.389 . S
C1238 H1211 0.950 . S
C1238 C1224 1.377 . S
C1238 C1237 1.373 . S
C1239 C1223 1.377 . S
C1239 C1237 1.389 . S
C1239 C1240 1.524 . S
C1240 C1239 1.524 . S
C1240 C1241 1.397 . S
C1240 C1245 1.363 . S
C1241 H1212 0.950 . S
C1241 C1240 1.397 . S
C1241 C1242 1.334 . S
C1242 H1213 0.950 . S
C1242 C1241 1.334 . S
C1242 C1243 1.287 . S
C1243 C1242 1.287 . S
C1243 C1244 1.524 . S
C1243 H1246 0.999 . S
C1244 H1214 0.950 . S
C1244 C1243 1.524 . S
C1244 C1245 1.415 . S
C1245 H1215 0.950 . S
C1245 C1240 1.363 . S
C1245 C1244 1.415 . S
H1246 C1243 0.999 . S
H1247 C1228 0.913 . S
H1248 C1266 0.951 . S
H1249 C1268 0.951 . S
H1250 C1270 0.950 . S
H1251 C1271 0.950 . S
H1252 C1273 0.950 . S
H1253 C1276 0.950 . S
H1254 C1277 0.950 . S
H1255 C1279 0.950 . S
H1256 C1280 0.950 . S
H1257 C1281 0.951 . S
H1258 C1283 0.951 . S
H1259 C1285 0.950 . S
H1260 C1286 0.950 . S
H1261 C1288 0.950 . S
H1262 C1291 0.950 . S
H1263 C1292 0.950 . S
H1264 C1294 0.950 . S
H1265 C1295 0.950 . S
C1266 H1248 0.951 . S
C1266 C1267 1.366 . S
C1266 C1268 1.388 . S
C1267 C1266 1.366 . S
C1267 C1271 1.385 . S
C1268 H1249 0.951 . S
C1268 C1266 1.388 . S
C1268 C1269 1.366 . S
C1269 C1268 1.366 . S
C1269 C1270 1.414 . S
C1269 C1272 1.499 . S
C1270 H1250 0.950 . S
C1270 C1269 1.414 . S
C1270 C1271 1.374 . S
C1271 H1251 0.950 . S
C1271 C1267 1.385 . S
C1271 C1270 1.374 . S
C1272 C1269 1.499 . S
C1272 C1273 1.373 . S
C1272 C1274 1.389 . S
C1273 H1252 0.950 . S
C1273 C1272 1.373 . S
C1273 C1289 1.377 1_455 S
C1274 C1272 1.389 . S
C1274 C1275 1.524 . S
C1274 C1288 1.377 1_455 S
C1275 C1274 1.524 . S
C1275 C1276 1.397 . S
C1275 C1280 1.363 . S
C1276 H1253 0.950 . S
C1276 C1275 1.397 . S
C1276 C1277 1.334 . S
C1277 H1254 0.950 . S
C1277 C1276 1.334 . S
C1277 C1278 1.287 . S
C1278 C1277 1.287 . S
C1278 C1279 1.524 . S
C1278 H1297 0.913 . S
C1279 H1255 0.950 . S
C1279 C1278 1.524 . S
C1279 C1280 1.415 . S
C1280 H1256 0.950 . S
C1280 C1275 1.363 . S
C1280 C1279 1.415 . S
C1281 H1257 0.951 . S
C1281 C1282 1.366 . S
C1281 C1283 1.388 . S
C1282 C1281 1.366 . S
C1282 C1286 1.385 . S
C1283 H1258 0.951 . S
C1283 C1281 1.388 . S
C1283 C1284 1.366 . S
C1284 C1283 1.366 . S
C1284 C1285 1.414 . S
C1284 C1287 1.499 . S
C1285 H1259 0.950 . S
C1285 C1284 1.414 . S
C1285 C1286 1.374 . S
C1286 H1260 0.950 . S
C1286 C1282 1.385 . S
C1286 C1285 1.374 . S
C1287 C1284 1.499 . S
C1287 C1288 1.373 . S
C1287 C1289 1.389 . S
C1288 H1261 0.950 . S
C1288 C1274 1.377 1_655 S
C1288 C1287 1.373 . S
C1289 C1273 1.377 1_655 S
C1289 C1287 1.389 . S
C1289 C1290 1.524 . S
C1290 C1289 1.524 . S
C1290 C1291 1.397 . S
C1290 C1295 1.363 . S
C1291 H1262 0.950 . S
C1291 C1290 1.397 . S
C1291 C1292 1.334 . S
C1292 H1263 0.950 . S
C1292 C1291 1.334 . S
C1292 C1293 1.287 . S
C1293 C1292 1.287 . S
C1293 C1294 1.524 . S
C1293 H1296 0.999 . S
C1294 H1264 0.950 . S
C1294 C1293 1.524 . S
C1294 C1295 1.415 . S
C1295 H1265 0.950 . S
C1295 C1290 1.363 . S
C1295 C1294 1.415 . S
H1296 C1293 0.999 . S
H1297 C1278 0.913 . S
H1298 C1316 0.951 . S
H1299 C1318 0.951 . S
H1300 C1320 0.950 . S
H1301 C1321 0.950 . S
H1302 C1323 0.950 . S
H1303 C1326 0.950 . S
H1304 C1327 0.950 . S
H1305 C1329 0.950 . S
H1306 C1330 0.950 . S
H1307 C1331 0.951 . S
H1308 C1333 0.951 . S
H1309 C1335 0.950 . S
H1310 C1336 0.950 . S
H1311 C1338 0.950 . S
H1312 C1341 0.950 . S
H1313 C1342 0.950 . S
H1314 C1344 0.950 . S
H1315 C1345 0.950 . S
C1316 H1298 0.951 . S
C1316 C1317 1.366 . S
C1316 C1318 1.388 . S
C1317 C1316 1.366 . S
C1317 C1321 1.385 . S
C1318 H1299 0.951 . S
C1318 C1316 1.388 . S
C1318 C1319 1.366 . S
C1319 C1318 1.366 . S
C1319 C1320 1.414 . S
C1319 C1322 1.499 . S
C1320 H1300 0.950 . S
C1320 C1319 1.414 . S
C1320 C1321 1.374 . S
C1321 H1301 0.950 . S
C1321 C1317 1.385 . S
C1321 C1320 1.374 . S
C1322 C1319 1.499 . S
C1322 C1323 1.373 . S
C1322 C1324 1.389 . S
C1323 H1302 0.950 . S
C1323 C1322 1.373 . S
C1323 C1339 1.377 . S
C1324 C1322 1.389 . S
C1324 C1325 1.524 . S
C1324 C1338 1.377 . S
C1325 C1324 1.524 . S
C1325 C1326 1.397 . S
C1325 C1330 1.363 . S
C1326 H1303 0.950 . S
C1326 C1325 1.397 . S
C1326 C1327 1.334 . S
C1327 H1304 0.950 . S
C1327 C1326 1.334 . S
C1327 C1328 1.287 . S
C1328 C1327 1.287 . S
C1328 C1329 1.524 . S
C1328 H1347 0.913 . S
C1329 H1305 0.950 . S
C1329 C1328 1.524 . S
C1329 C1330 1.415 . S
C1330 H1306 0.950 . S
C1330 C1325 1.363 . S
C1330 C1329 1.415 . S
C1331 H1307 0.951 . S
C1331 C1332 1.366 . S
C1331 C1333 1.388 . S
C1332 C1331 1.366 . S
C1332 C1336 1.385 . S
C1333 H1308 0.951 . S
C1333 C1331 1.388 . S
C1333 C1334 1.366 . S
C1334 C1333 1.366 . S
C1334 C1335 1.414 . S
C1334 C1337 1.499 . S
C1335 H1309 0.950 . S
C1335 C1334 1.414 . S
C1335 C1336 1.374 . S
C1336 H1310 0.950 . S
C1336 C1332 1.385 . S
C1336 C1335 1.374 . S
C1337 C1334 1.499 . S
C1337 C1338 1.373 . S
C1337 C1339 1.389 . S
C1338 H1311 0.950 . S
C1338 C1324 1.377 . S
C1338 C1337 1.373 . S
C1339 C1323 1.377 . S
C1339 C1337 1.389 . S
C1339 C1340 1.524 . S
C1340 C1339 1.524 . S
C1340 C1341 1.397 . S
C1340 C1345 1.363 . S
C1341 H1312 0.950 . S
C1341 C1340 1.397 . S
C1341 C1342 1.334 . S
C1342 H1313 0.950 . S
C1342 C1341 1.334 . S
C1342 C1343 1.287 . S
C1343 C1342 1.287 . S
C1343 C1344 1.524 . S
C1343 H1346 0.999 . S
C1344 H1314 0.950 . S
C1344 C1343 1.524 . S
C1344 C1345 1.415 . S
C1345 H1315 0.950 . S
C1345 C1340 1.363 . S
C1345 C1344 1.415 . S
H1346 C1343 0.999 . S
H1347 C1328 0.913 . S
H1348 C1366 0.951 . S
H1349 C1368 0.951 . S
H1350 C1370 0.950 . S
H1351 C1371 0.950 . S
H1352 C1373 0.950 . S
H1353 C1376 0.950 . S
H1354 C1377 0.950 . S
H1355 C1379 0.950 . S
H1356 C1380 0.950 . S
H1357 C1381 0.951 . S
H1358 C1383 0.951 . S
H1359 C1385 0.950 . S
H1360 C1386 0.950 . S
H1361 C1388 0.950 . S
H1362 C1391 0.950 . S
H1363 C1392 0.950 . S
H1364 C1394 0.950 . S
H1365 C1395 0.950 . S
C1366 H1348 0.951 . S
C1366 C1367 1.366 . S
C1366 C1368 1.388 . S
C1367 C1366 1.366 . S
C1367 C1371 1.385 . S
C1368 H1349 0.951 . S
C1368 C1366 1.388 . S
C1368 C1369 1.366 . S
C1369 C1368 1.366 . S
C1369 C1370 1.414 . S
C1369 C1372 1.499 . S
C1370 H1350 0.950 . S
C1370 C1369 1.414 . S
C1370 C1371 1.374 . S
C1371 H1351 0.950 . S
C1371 C1367 1.385 . S
C1371 C1370 1.374 . S
C1372 C1369 1.499 . S
C1372 C1373 1.373 . S
C1372 C1374 1.389 . S
C1373 H1352 0.950 . S
C1373 C1372 1.373 . S
C1373 C1389 1.377 . S
C1374 C1372 1.389 . S
C1374 C1375 1.524 . S
C1374 C1388 1.377 . S
C1375 C1374 1.524 . S
C1375 C1376 1.397 . S
C1375 C1380 1.363 . S
C1376 H1353 0.950 . S
C1376 C1375 1.397 . S
C1376 C1377 1.334 . S
C1377 H1354 0.950 . S
C1377 C1376 1.334 . S
C1377 C1378 1.287 . S
C1378 C1377 1.287 . S
C1378 C1379 1.524 . S
C1378 H1397 0.913 . S
C1379 H1355 0.950 . S
C1379 C1378 1.524 . S
C1379 C1380 1.415 . S
C1380 H1356 0.950 . S
C1380 C1375 1.363 . S
C1380 C1379 1.415 . S
C1381 H1357 0.951 . S
C1381 C1382 1.366 . S
C1381 C1383 1.388 . S
C1382 C1381 1.366 . S
C1382 C1386 1.385 . S
C1383 H1358 0.951 . S
C1383 C1381 1.388 . S
C1383 C1384 1.366 . S
C1384 C1383 1.366 . S
C1384 C1385 1.414 . S
C1384 C1387 1.499 . S
C1385 H1359 0.950 . S
C1385 C1384 1.414 . S
C1385 C1386 1.374 . S
C1386 H1360 0.950 . S
C1386 C1382 1.385 . S
C1386 C1385 1.374 . S
C1387 C1384 1.499 . S
C1387 C1388 1.373 . S
C1387 C1389 1.389 . S
C1388 H1361 0.950 . S
C1388 C1374 1.377 . S
C1388 C1387 1.373 . S
C1389 C1373 1.377 . S
C1389 C1387 1.389 . S
C1389 C1390 1.524 . S
C1390 C1389 1.524 . S
C1390 C1391 1.397 . S
C1390 C1395 1.363 . S
C1391 H1362 0.950 . S
C1391 C1390 1.397 . S
C1391 C1392 1.334 . S
C1392 H1363 0.950 . S
C1392 C1391 1.334 . S
C1392 C1393 1.287 . S
C1393 C1392 1.287 . S
C1393 C1394 1.524 . S
C1393 H1396 0.999 . S
C1394 H1364 0.950 . S
C1394 C1393 1.524 . S
C1394 C1395 1.415 . S
C1395 H1365 0.950 . S
C1395 C1390 1.363 . S
C1395 C1394 1.415 . S
H1396 C1393 0.999 . S
H1397 C1378 0.913 . S
H1398 C1416 0.951 . S
H1399 C1418 0.951 . S
H1400 C1420 0.950 . S
H1401 C1421 0.950 . S
H1402 C1423 0.950 . S
H1403 C1426 0.950 . S
H1404 C1427 0.950 . S
H1405 C1429 0.950 . S
H1406 C1430 0.950 . S
H1407 C1431 0.951 . S
H1408 C1433 0.951 . S
H1409 C1435 0.950 . S
H1410 C1436 0.950 . S
H1411 C1438 0.950 . S
H1412 C1441 0.950 . S
H1413 C1442 0.950 . S
H1414 C1444 0.950 . S
H1415 C1445 0.950 . S
C1416 H1398 0.951 . S
C1416 C1417 1.366 . S
C1416 C1418 1.388 . S
C1417 C1416 1.366 . S
C1417 C1421 1.385 . S
C1418 H1399 0.951 . S
C1418 C1416 1.388 . S
C1418 C1419 1.366 . S
C1419 C1418 1.366 . S
C1419 C1420 1.414 . S
C1419 C1422 1.499 . S
C1420 H1400 0.950 . S
C1420 C1419 1.414 . S
C1420 C1421 1.374 . S
C1421 H1401 0.950 . S
C1421 C1417 1.385 . S
C1421 C1420 1.374 . S
C1422 C1419 1.499 . S
C1422 C1423 1.373 . S
C1422 C1424 1.389 . S
C1423 H1402 0.950 . S
C1423 C1422 1.373 . S
C1423 C1439 1.377 . S
C1424 C1422 1.389 . S
C1424 C1425 1.524 . S
C1424 C1438 1.377 . S
C1425 C1424 1.524 . S
C1425 C1426 1.397 . S
C1425 C1430 1.363 . S
C1426 H1403 0.950 . S
C1426 C1425 1.397 . S
C1426 C1427 1.334 . S
C1427 H1404 0.950 . S
C1427 C1426 1.334 . S
C1427 C1428 1.287 . S
C1428 C1427 1.287 . S
C1428 C1429 1.524 . S
C1428 H1447 0.913 . S
C1429 H1405 0.950 . S
C1429 C1428 1.524 . S
C1429 C1430 1.415 . S
C1430 H1406 0.950 . S
C1430 C1425 1.363 . S
C1430 C1429 1.415 . S
C1431 H1407 0.951 . S
C1431 C1432 1.366 . S
C1431 C1433 1.388 . S
C1432 C1431 1.366 . S
C1432 C1436 1.385 . S
C1433 H1408 0.951 . S
C1433 C1431 1.388 . S
C1433 C1434 1.366 . S
C1434 C1433 1.366 . S
C1434 C1435 1.414 . S
C1434 C1437 1.499 . S
C1435 H1409 0.950 . S
C1435 C1434 1.414 . S
C1435 C1436 1.374 . S
C1436 H1410 0.950 . S
C1436 C1432 1.385 . S
C1436 C1435 1.374 . S
C1437 C1434 1.499 . S
C1437 C1438 1.373 . S
C1437 C1439 1.389 . S
C1438 H1411 0.950 . S
C1438 C1424 1.377 . S
C1438 C1437 1.373 . S
C1439 C1423 1.377 . S
C1439 C1437 1.389 . S
C1439 C1440 1.524 . S
C1440 C1439 1.524 . S
C1440 C1441 1.397 . S
C1440 C1445 1.363 . S
C1441 H1412 0.950 . S
C1441 C1440 1.397 . S
C1441 C1442 1.334 . S
C1442 H1413 0.950 . S
C1442 C1441 1.334 . S
C1442 C1443 1.287 . S
C1443 C1442 1.287 . S
C1443 C1444 1.524 . S
C1443 H1446 0.999 . S
C1444 H1414 0.950 . S
C1444 C1443 1.524 . S
C1444 C1445 1.415 . S
C1445 H1415 0.950 . S
C1445 C1440 1.363 . S
C1445 C1444 1.415 . S
H1446 C1443 0.999 . S
H1447 C1428 0.913 . S
H1448 C1466 0.951 . S
H1449 C1468 0.951 . S
H1450 C1470 0.950 . S
H1451 C1471 0.950 . S
H1452 C1473 0.950 . S
H1453 C1476 0.950 . S
H1454 C1477 0.950 . S
H1455 C1479 0.950 . S
H1456 C1480 0.950 . S
H1457 C1481 0.951 . S
H1458 C1483 0.951 . S
H1459 C1485 0.950 . S
H1460 C1486 0.950 . S
H1461 C1488 0.950 . S
H1462 C1491 0.950 . S
H1463 C1492 0.950 . S
H1464 C1494 0.950 . S
H1465 C1495 0.950 . S
C1466 H1448 0.951 . S
C1466 C1467 1.366 . S
C1466 C1468 1.388 . S
C1467 C1466 1.366 . S
C1467 C1471 1.385 . S
C1468 H1449 0.951 . S
C1468 C1466 1.388 . S
C1468 C1469 1.366 . S
C1469 C1468 1.366 . S
C1469 C1470 1.414 . S
C1469 C1472 1.499 . S
C1470 H1450 0.950 . S
C1470 C1469 1.414 . S
C1470 C1471 1.374 . S
C1471 H1451 0.950 . S
C1471 C1467 1.385 . S
C1471 C1470 1.374 . S
C1472 C1469 1.499 . S
C1472 C1473 1.373 . S
C1472 C1474 1.389 . S
C1473 H1452 0.950 . S
C1473 C1472 1.373 . S
C1473 C1489 1.377 1_655 S
C1474 C1472 1.389 . S
C1474 C1475 1.524 . S
C1474 C1488 1.377 1_655 S
C1475 C1474 1.524 . S
C1475 C1476 1.397 . S
C1475 C1480 1.363 . S
C1476 H1453 0.950 . S
C1476 C1475 1.397 . S
C1476 C1477 1.334 . S
C1477 H1454 0.950 . S
C1477 C1476 1.334 . S
C1477 C1478 1.287 . S
C1478 C1477 1.287 . S
C1478 C1479 1.524 . S
C1478 H1497 0.913 . S
C1479 H1455 0.950 . S
C1479 C1478 1.524 . S
C1479 C1480 1.415 . S
C1480 H1456 0.950 . S
C1480 C1475 1.363 . S
C1480 C1479 1.415 . S
C1481 H1457 0.951 . S
C1481 C1482 1.366 . S
C1481 C1483 1.388 . S
C1482 C1481 1.366 . S
C1482 C1486 1.385 . S
C1483 H1458 0.951 . S
C1483 C1481 1.388 . S
C1483 C1484 1.366 . S
C1484 C1483 1.366 . S
C1484 C1485 1.414 . S
C1484 C1487 1.499 . S
C1485 H1459 0.950 . S
C1485 C1484 1.414 . S
C1485 C1486 1.374 . S
C1486 H1460 0.950 . S
C1486 C1482 1.385 . S
C1486 C1485 1.374 . S
C1487 C1484 1.499 . S
C1487 C1488 1.373 . S
C1487 C1489 1.389 . S
C1488 H1461 0.950 . S
C1488 C1474 1.377 1_455 S
C1488 C1487 1.373 . S
C1489 C1473 1.377 1_455 S
C1489 C1487 1.389 . S
C1489 C1490 1.524 . S
C1490 C1489 1.524 . S
C1490 C1491 1.397 . S
C1490 C1495 1.363 . S
C1491 H1462 0.950 . S
C1491 C1490 1.397 . S
C1491 C1492 1.334 . S
C1492 H1463 0.950 . S
C1492 C1491 1.334 . S
C1492 C1493 1.287 . S
C1493 C1492 1.287 . S
C1493 C1494 1.524 . S
C1493 H1496 0.999 . S
C1494 H1464 0.950 . S
C1494 C1493 1.524 . S
C1494 C1495 1.415 . S
C1495 H1465 0.950 . S
C1495 C1490 1.363 . S
C1495 C1494 1.415 . S
H1496 C1493 0.999 . S
H1497 C1478 0.913 . S
H1498 C1516 0.951 . S
H1499 C1518 0.951 . S
H1500 C1520 0.950 . S
H1501 C1521 0.950 . S
H1502 C1523 0.950 . S
H1503 C1526 0.950 . S
H1504 C1527 0.950 . S
H1505 C1529 0.950 . S
H1506 C1530 0.950 . S
H1507 C1531 0.951 . S
H1508 C1533 0.951 . S
H1509 C1535 0.950 . S
H1510 C1536 0.950 . S
H1511 C1538 0.950 . S
H1512 C1541 0.950 . S
H1513 C1542 0.950 . S
H1514 C1544 0.950 . S
H1515 C1545 0.950 . S
C1516 H1498 0.951 . S
C1516 C1517 1.366 . S
C1516 C1518 1.388 . S
C1517 C1516 1.366 . S
C1517 C1521 1.385 . S
C1518 H1499 0.951 . S
C1518 C1516 1.388 . S
C1518 C1519 1.366 . S
C1519 C1518 1.366 . S
C1519 C1520 1.414 . S
C1519 C1522 1.499 . S
C1520 H1500 0.950 . S
C1520 C1519 1.414 . S
C1520 C1521 1.374 . S
C1521 H1501 0.950 . S
C1521 C1517 1.385 . S
C1521 C1520 1.374 . S
C1522 C1519 1.499 . S
C1522 C1523 1.373 . S
C1522 C1524 1.389 . S
C1523 H1502 0.950 . S
C1523 C1522 1.373 . S
C1523 C1539 1.377 . S
C1524 C1522 1.389 . S
C1524 C1525 1.524 . S
C1524 C1538 1.377 . S
C1525 C1524 1.524 . S
C1525 C1526 1.397 . S
C1525 C1530 1.363 . S
C1526 H1503 0.950 . S
C1526 C1525 1.397 . S
C1526 C1527 1.334 . S
C1527 H1504 0.950 . S
C1527 C1526 1.334 . S
C1527 C1528 1.287 . S
C1528 C1527 1.287 . S
C1528 C1529 1.524 . S
C1528 H1547 0.913 . S
C1529 H1505 0.950 . S
C1529 C1528 1.524 . S
C1529 C1530 1.415 . S
C1530 H1506 0.950 . S
C1530 C1525 1.363 . S
C1530 C1529 1.415 . S
C1531 H1507 0.951 . S
C1531 C1532 1.366 . S
C1531 C1533 1.388 . S
C1532 C1531 1.366 . S
C1532 C1536 1.385 . S
C1533 H1508 0.951 . S
C1533 C1531 1.388 . S
C1533 C1534 1.366 . S
C1534 C1533 1.366 . S
C1534 C1535 1.414 . S
C1534 C1537 1.499 . S
C1535 H1509 0.950 . S
C1535 C1534 1.414 . S
C1535 C1536 1.374 . S
C1536 H1510 0.950 . S
C1536 C1532 1.385 . S
C1536 C1535 1.374 . S
C1537 C1534 1.499 . S
C1537 C1538 1.373 . S
C1537 C1539 1.389 . S
C1538 H1511 0.950 . S
C1538 C1524 1.377 . S
C1538 C1537 1.373 . S
C1539 C1523 1.377 . S
C1539 C1537 1.389 . S
C1539 C1540 1.524 . S
C1540 C1539 1.524 . S
C1540 C1541 1.397 . S
C1540 C1545 1.363 . S
C1541 H1512 0.950 . S
C1541 C1540 1.397 . S
C1541 C1542 1.334 . S
C1542 H1513 0.950 . S
C1542 C1541 1.334 . S
C1542 C1543 1.287 . S
C1543 C1542 1.287 . S
C1543 C1544 1.524 . S
C1543 H1546 0.999 . S
C1544 H1514 0.950 . S
C1544 C1543 1.524 . S
C1544 C1545 1.415 . S
C1545 H1515 0.950 . S
C1545 C1540 1.363 . S
C1545 C1544 1.415 . S
H1546 C1543 0.999 . S
H1547 C1528 0.913 . S
H1548 C1566 0.951 . S
H1549 C1568 0.951 . S
H1550 C1570 0.950 . S
H1551 C1571 0.950 . S
H1552 C1573 0.950 . S
H1553 C1576 0.950 . S
H1554 C1577 0.950 . S
H1555 C1579 0.950 . S
H1556 C1580 0.950 . S
H1557 C1581 0.951 . S
H1558 C1583 0.951 . S
H1559 C1585 0.950 . S
H1560 C1586 0.950 . S
H1561 C1588 0.950 . S
H1562 C1591 0.950 . S
H1563 C1592 0.950 . S
H1564 C1594 0.950 . S
H1565 C1595 0.950 . S
C1566 H1548 0.951 . S
C1566 C1567 1.366 . S
C1566 C1568 1.388 . S
C1567 C1566 1.366 . S
C1567 C1571 1.385 . S
C1568 H1549 0.951 . S
C1568 C1566 1.388 . S
C1568 C1569 1.366 . S
C1569 C1568 1.366 . S
C1569 C1570 1.414 . S
C1569 C1572 1.499 . S
C1570 H1550 0.950 . S
C1570 C1569 1.414 . S
C1570 C1571 1.374 . S
C1571 H1551 0.950 . S
C1571 C1567 1.385 . S
C1571 C1570 1.374 . S
C1572 C1569 1.499 . S
C1572 C1573 1.373 . S
C1572 C1574 1.389 . S
C1573 H1552 0.950 . S
C1573 C1572 1.373 . S
C1573 C1589 1.377 . S
C1574 C1572 1.389 . S
C1574 C1575 1.524 . S
C1574 C1588 1.377 . S
C1575 C1574 1.524 . S
C1575 C1576 1.397 . S
C1575 C1580 1.363 . S
C1576 H1553 0.950 . S
C1576 C1575 1.397 . S
C1576 C1577 1.334 . S
C1577 H1554 0.950 . S
C1577 C1576 1.334 . S
C1577 C1578 1.287 . S
C1578 C1577 1.287 . S
C1578 C1579 1.524 . S
C1578 H1597 0.913 . S
C1579 H1555 0.950 . S
C1579 C1578 1.524 . S
C1579 C1580 1.415 . S
C1580 H1556 0.950 . S
C1580 C1575 1.363 . S
C1580 C1579 1.415 . S
C1581 H1557 0.951 . S
C1581 C1582 1.366 . S
C1581 C1583 1.388 . S
C1582 C1581 1.366 . S
C1582 C1586 1.385 . S
C1583 H1558 0.951 . S
C1583 C1581 1.388 . S
C1583 C1584 1.366 . S
C1584 C1583 1.366 . S
C1584 C1585 1.414 . S
C1584 C1587 1.499 . S
C1585 H1559 0.950 . S
C1585 C1584 1.414 . S
C1585 C1586 1.374 . S
C1586 H1560 0.950 . S
C1586 C1582 1.385 . S
C1586 C1585 1.374 . S
C1587 C1584 1.499 . S
C1587 C1588 1.373 . S
C1587 C1589 1.389 . S
C1588 H1561 0.950 . S
C1588 C1574 1.377 . S
C1588 C1587 1.373 . S
C1589 C1573 1.377 . S
C1589 C1587 1.389 . S
C1589 C1590 1.524 . S
C1590 C1589 1.524 . S
C1590 C1591 1.397 . S
C1590 C1595 1.363 . S
C1591 H1562 0.950 . S
C1591 C1590 1.397 . S
C1591 C1592 1.334 . S
C1592 H1563 0.950 . S
C1592 C1591 1.334 . S
C1592 C1593 1.287 . S
C1593 C1592 1.287 . S
C1593 C1594 1.524 . S
C1593 H1596 0.999 . S
C1594 H1564 0.950 . S
C1594 C1593 1.524 . S
C1594 C1595 1.415 . S
C1595 H1565 0.950 . S
C1595 C1590 1.363 . S
C1595 C1594 1.415 . S
H1596 C1593 0.999 . S
H1597 C1578 0.913 . S
H1598 C1616 0.951 . S
H1599 C1618 0.951 . S
H1600 C1620 0.950 . S
H1601 C1621 0.950 . S
H1602 C1623 0.950 . S
H1603 C1626 0.950 . S
H1604 C1627 0.950 . S
H1605 C1629 0.950 . S
H1606 C1630 0.950 . S
H1607 C1631 0.951 . S
H1608 C1633 0.951 . S
H1609 C1635 0.950 . S
H1610 C1636 0.950 . S
H1611 C1638 0.950 . S
H1612 C1641 0.950 . S
H1613 C1642 0.950 . S
H1614 C1644 0.950 . S
H1615 C1645 0.950 . S
C1616 H1598 0.951 . S
C1616 C1617 1.366 . S
C1616 C1618 1.388 . S
C1617 C1616 1.366 . S
C1617 C1621 1.385 . S
C1618 H1599 0.951 . S
C1618 C1616 1.388 . S
C1618 C1619 1.366 . S
C1619 C1618 1.366 . S
C1619 C1620 1.414 . S
C1619 C1622 1.499 . S
C1620 H1600 0.950 . S
C1620 C1619 1.414 . S
C1620 C1621 1.374 . S
C1621 H1601 0.950 . S
C1621 C1617 1.385 . S
C1621 C1620 1.374 . S
C1622 C1619 1.499 . S
C1622 C1623 1.373 . S
C1622 C1624 1.389 . S
C1623 H1602 0.950 . S
C1623 C1622 1.373 . S
C1623 C1639 1.377 . S
C1624 C1622 1.389 . S
C1624 C1625 1.524 . S
C1624 C1638 1.377 . S
C1625 C1624 1.524 . S
C1625 C1626 1.397 . S
C1625 C1630 1.363 . S
C1626 H1603 0.950 . S
C1626 C1625 1.397 . S
C1626 C1627 1.334 . S
C1627 H1604 0.950 . S
C1627 C1626 1.334 . S
C1627 C1628 1.287 . S
C1628 C1627 1.287 . S
C1628 C1629 1.524 . S
C1628 H1647 0.913 . S
C1629 H1605 0.950 . S
C1629 C1628 1.524 . S
C1629 C1630 1.415 . S
C1630 H1606 0.950 . S
C1630 C1625 1.363 . S
C1630 C1629 1.415 . S
C1631 H1607 0.951 . S
C1631 C1632 1.366 . S
C1631 C1633 1.388 . S
C1632 C1631 1.366 . S
C1632 C1636 1.385 . S
C1633 H1608 0.951 . S
C1633 C1631 1.388 . S
C1633 C1634 1.366 . S
C1634 C1633 1.366 . S
C1634 C1635 1.414 . S
C1634 C1637 1.499 . S
C1635 H1609 0.950 . S
C1635 C1634 1.414 . S
C1635 C1636 1.374 . S
C1636 H1610 0.950 . S
C1636 C1632 1.385 . S
C1636 C1635 1.374 . S
C1637 C1634 1.499 . S
C1637 C1638 1.373 . S
C1637 C1639 1.389 . S
C1638 H1611 0.950 . S
C1638 C1624 1.377 . S
C1638 C1637 1.373 . S
C1639 C1623 1.377 . S
C1639 C1637 1.389 . S
C1639 C1640 1.524 . S
C1640 C1639 1.524 . S
C1640 C1641 1.397 . S
C1640 C1645 1.363 . S
C1641 H1612 0.950 . S
C1641 C1640 1.397 . S
C1641 C1642 1.334 . S
C1642 H1613 0.950 . S
C1642 C1641 1.334 . S
C1642 C1643 1.287 . S
C1643 C1642 1.287 . S
C1643 C1644 1.524 . S
C1643 H1646 0.999 . S
C1644 H1614 0.950 . S
C1644 C1643 1.524 . S
C1644 C1645 1.415 . S
C1645 H1615 0.950 . S
C1645 C1640 1.363 . S
C1645 C1644 1.415 . S
H1646 C1643 0.999 . S
H1647 C1628 0.913 . S
H1648 C1666 0.951 . S
H1649 C1668 0.951 . S
H1650 C1670 0.950 . S
H1651 C1671 0.950 . S
H1652 C1673 0.950 . S
H1653 C1676 0.950 . S
H1654 C1677 0.950 . S
H1655 C1679 0.950 . S
H1656 C1680 0.950 . S
H1657 C1681 0.951 . S
H1658 C1683 0.951 . S
H1659 C1685 0.950 . S
H1660 C1686 0.950 . S
H1661 C1688 0.950 . S
H1662 C1691 0.950 . S
H1663 C1692 0.950 . S
H1664 C1694 0.950 . S
H1665 C1695 0.950 . S
C1666 H1648 0.951 . S
C1666 C1667 1.366 . S
C1666 C1668 1.388 . S
C1667 C1666 1.366 . S
C1667 C1671 1.385 . S
C1668 H1649 0.951 . S
C1668 C1666 1.388 . S
C1668 C1669 1.366 . S
C1669 C1668 1.366 . S
C1669 C1670 1.414 . S
C1669 C1672 1.499 . S
C1670 H1650 0.950 . S
C1670 C1669 1.414 . S
C1670 C1671 1.374 . S
C1671 H1651 0.950 . S
C1671 C1667 1.385 . S
C1671 C1670 1.374 . S
C1672 C1669 1.499 . S
C1672 C1673 1.373 . S
C1672 C1674 1.389 . S
C1673 H1652 0.950 . S
C1673 C1672 1.373 . S
C1673 C1689 1.377 . S
C1674 C1672 1.389 . S
C1674 C1675 1.524 . S
C1674 C1688 1.377 . S
C1675 C1674 1.524 . S
C1675 C1676 1.397 . S
C1675 C1680 1.363 . S
C1676 H1653 0.950 . S
C1676 C1675 1.397 . S
C1676 C1677 1.334 . S
C1677 H1654 0.950 . S
C1677 C1676 1.334 . S
C1677 C1678 1.287 . S
C1678 C1677 1.287 . S
C1678 C1679 1.524 . S
C1678 H1697 0.913 . S
C1679 H1655 0.950 . S
C1679 C1678 1.524 . S
C1679 C1680 1.415 . S
C1680 H1656 0.950 . S
C1680 C1675 1.363 . S
C1680 C1679 1.415 . S
C1681 H1657 0.951 . S
C1681 C1682 1.366 . S
C1681 C1683 1.388 . S
C1682 C1681 1.366 . S
C1682 C1686 1.385 . S
C1683 H1658 0.951 . S
C1683 C1681 1.388 . S
C1683 C1684 1.366 . S
C1684 C1683 1.366 . S
C1684 C1685 1.414 . S
C1684 C1687 1.499 . S
C1685 H1659 0.950 . S
C1685 C1684 1.414 . S
C1685 C1686 1.374 . S
C1686 H1660 0.950 . S
C1686 C1682 1.385 . S
C1686 C1685 1.374 . S
C1687 C1684 1.499 . S
C1687 C1688 1.373 . S
C1687 C1689 1.389 . S
C1688 H1661 0.950 . S
C1688 C1674 1.377 . S
C1688 C1687 1.373 . S
C1689 C1673 1.377 . S
C1689 C1687 1.389 . S
C1689 C1690 1.524 . S
C1690 C1689 1.524 . S
C1690 C1691 1.397 . S
C1690 C1695 1.363 . S
C1691 H1662 0.950 . S
C1691 C1690 1.397 . S
C1691 C1692 1.334 . S
C1692 H1663 0.950 . S
C1692 C1691 1.334 . S
C1692 C1693 1.287 . S
C1693 C1692 1.287 . S
C1693 C1694 1.524 . S
C1693 H1696 0.999 . S
C1694 H1664 0.950 . S
C1694 C1693 1.524 . S
C1694 C1695 1.415 . S
C1695 H1665 0.950 . S
C1695 C1690 1.363 . S
C1695 C1694 1.415 . S
H1696 C1693 0.999 . S
H1697 C1678 0.913 . S
H1698 C1716 0.951 . S
H1699 C1718 0.951 . S
H1700 C1720 0.950 . S
H1701 C1721 0.950 . S
H1702 C1723 0.950 . S
H1703 C1726 0.950 . S
H1704 C1727 0.950 . S
H1705 C1729 0.950 . S
H1706 C1730 0.950 . S
H1707 C1731 0.951 . S
H1708 C1733 0.951 . S
H1709 C1735 0.950 . S
H1710 C1736 0.950 . S
H1711 C1738 0.950 . S
H1712 C1741 0.950 . S
H1713 C1742 0.950 . S
H1714 C1744 0.950 . S
H1715 C1745 0.950 . S
C1716 H1698 0.951 . S
C1716 C1717 1.366 . S
C1716 C1718 1.388 . S
C1717 C1716 1.366 . S
C1717 C1721 1.385 . S
C1718 H1699 0.951 . S
C1718 C1716 1.388 . S
C1718 C1719 1.366 . S
C1719 C1718 1.366 . S
C1719 C1720 1.414 . S
C1719 C1722 1.499 . S
C1720 H1700 0.950 . S
C1720 C1719 1.414 . S
C1720 C1721 1.374 . S
C1721 H1701 0.950 . S
C1721 C1717 1.385 . S
C1721 C1720 1.374 . S
C1722 C1719 1.499 . S
C1722 C1723 1.373 . S
C1722 C1724 1.389 . S
C1723 H1702 0.950 . S
C1723 C1722 1.373 . S
C1723 C1739 1.377 . S
C1724 C1722 1.389 . S
C1724 C1725 1.524 . S
C1724 C1738 1.377 . S
C1725 C1724 1.524 . S
C1725 C1726 1.397 . S
C1725 C1730 1.363 . S
C1726 H1703 0.950 . S
C1726 C1725 1.397 . S
C1726 C1727 1.334 . S
C1727 H1704 0.950 . S
C1727 C1726 1.334 . S
C1727 C1728 1.287 . S
C1728 C1727 1.287 . S
C1728 C1729 1.524 . S
C1728 H1747 0.913 . S
C1729 H1705 0.950 . S
C1729 C1728 1.524 . S
C1729 C1730 1.415 . S
C1730 H1706 0.950 . S
C1730 C1725 1.363 . S
C1730 C1729 1.415 . S
C1731 H1707 0.951 . S
C1731 C1732 1.366 . S
C1731 C1733 1.388 . S
C1732 C1731 1.366 . S
C1732 C1736 1.385 . S
C1733 H1708 0.951 . S
C1733 C1731 1.388 . S
C1733 C1734 1.366 . S
C1734 C1733 1.366 . S
C1734 C1735 1.414 . S
C1734 C1737 1.499 . S
C1735 H1709 0.950 . S
C1735 C1734 1.414 . S
C1735 C1736 1.374 . S
C1736 H1710 0.950 . S
C1736 C1732 1.385 . S
C1736 C1735 1.374 . S
C1737 C1734 1.499 . S
C1737 C1738 1.373 . S
C1737 C1739 1.389 . S
C1738 H1711 0.950 . S
C1738 C1724 1.377 . S
C1738 C1737 1.373 . S
C1739 C1723 1.377 . S
C1739 C1737 1.389 . S
C1739 C1740 1.524 . S
C1740 C1739 1.524 . S
C1740 C1741 1.397 . S
C1740 C1745 1.363 . S
C1741 H1712 0.950 . S
C1741 C1740 1.397 . S
C1741 C1742 1.334 . S
C1742 H1713 0.950 . S
C1742 C1741 1.334 . S
C1742 C1743 1.287 . S
C1743 C1742 1.287 . S
C1743 C1744 1.524 . S
C1743 H1746 0.999 . S
C1744 H1714 0.950 . S
C1744 C1743 1.524 . S
C1744 C1745 1.415 . S
C1745 H1715 0.950 . S
C1745 C1740 1.363 . S
C1745 C1744 1.415 . S
H1746 C1743 0.999 . S
H1747 C1728 0.913 . S
H1748 C1766 0.951 . S
H1749 C1768 0.951 . S
H1750 C1770 0.950 . S
H1751 C1771 0.950 . S
H1752 C1773 0.950 . S
H1753 C1776 0.950 . S
H1754 C1777 0.950 . S
H1755 C1779 0.950 . S
H1756 C1780 0.950 . S
H1757 C1781 0.951 . S
H1758 C1783 0.951 . S
H1759 C1785 0.950 . S
H1760 C1786 0.950 . S
H1761 C1788 0.950 . S
H1762 C1791 0.950 . S
H1763 C1792 0.950 . S
H1764 C1794 0.950 . S
H1765 C1795 0.950 . S
C1766 H1748 0.951 . S
C1766 C1767 1.366 . S
C1766 C1768 1.388 . S
C1767 C1766 1.366 . S
C1767 C1771 1.385 . S
C1768 H1749 0.951 . S
C1768 C1766 1.388 . S
C1768 C1769 1.366 . S
C1769 C1768 1.366 . S
C1769 C1770 1.414 . S
C1769 C1772 1.499 . S
C1770 H1750 0.950 . S
C1770 C1769 1.414 . S
C1770 C1771 1.374 . S
C1771 H1751 0.950 . S
C1771 C1767 1.385 . S
C1771 C1770 1.374 . S
C1772 C1769 1.499 . S
C1772 C1773 1.373 . S
C1772 C1774 1.389 . S
C1773 H1752 0.950 . S
C1773 C1772 1.373 . S
C1773 C1789 1.377 . S
C1774 C1772 1.389 . S
C1774 C1775 1.524 . S
C1774 C1788 1.377 . S
C1775 C1774 1.524 . S
C1775 C1776 1.397 . S
C1775 C1780 1.363 . S
C1776 H1753 0.950 . S
C1776 C1775 1.397 . S
C1776 C1777 1.334 . S
C1777 H1754 0.950 . S
C1777 C1776 1.334 . S
C1777 C1778 1.287 . S
C1778 C1777 1.287 . S
C1778 C1779 1.524 . S
C1778 H1797 0.913 . S
C1779 H1755 0.950 . S
C1779 C1778 1.524 . S
C1779 C1780 1.415 . S
C1780 H1756 0.950 . S
C1780 C1775 1.363 . S
C1780 C1779 1.415 . S
C1781 H1757 0.951 . S
C1781 C1782 1.366 . S
C1781 C1783 1.388 . S
C1782 C1781 1.366 . S
C1782 C1786 1.385 . S
C1783 H1758 0.951 . S
C1783 C1781 1.388 . S
C1783 C1784 1.366 . S
C1784 C1783 1.366 . S
C1784 C1785 1.414 . S
C1784 C1787 1.499 . S
C1785 H1759 0.950 . S
C1785 C1784 1.414 . S
C1785 C1786 1.374 . S
C1786 H1760 0.950 . S
C1786 C1782 1.385 . S
C1786 C1785 1.374 . S
C1787 C1784 1.499 . S
C1787 C1788 1.373 . S
C1787 C1789 1.389 . S
C1788 H1761 0.950 . S
C1788 C1774 1.377 . S
C1788 C1787 1.373 . S
C1789 C1773 1.377 . S
C1789 C1787 1.389 . S
C1789 C1790 1.524 . S
C1790 C1789 1.524 . S
C1790 C1791 1.397 . S
C1790 C1795 1.363 . S
C1791 H1762 0.950 . S
C1791 C1790 1.397 . S
C1791 C1792 1.334 . S
C1792 H1763 0.950 . S
C1792 C1791 1.334 . S
C1792 C1793 1.287 . S
C1793 C1792 1.287 . S
C1793 C1794 1.524 . S
C1793 H1796 0.999 . S
C1794 H1764 0.950 . S
C1794 C1793 1.524 . S
C1794 C1795 1.415 . S
C1795 H1765 0.950 . S
C1795 C1790 1.363 . S
C1795 C1794 1.415 . S
H1796 C1793 0.999 . S
H1797 C1778 0.913 . S
H1798 C1816 0.951 . S
H1799 C1818 0.951 . S
H1800 C1820 0.950 . S
H1801 C1821 0.950 . S
H1802 C1823 0.950 . S
H1803 C1826 0.950 . S
H1804 C1827 0.950 . S
H1805 C1829 0.950 . S
H1806 C1830 0.950 . S
H1807 C1831 0.951 . S
H1808 C1833 0.951 . S
H1809 C1835 0.950 . S
H1810 C1836 0.950 . S
H1811 C1838 0.950 . S
H1812 C1841 0.950 . S
H1813 C1842 0.950 . S
H1814 C1844 0.950 . S
H1815 C1845 0.950 . S
C1816 H1798 0.951 . S
C1816 C1817 1.366 . S
C1816 C1818 1.388 . S
C1817 C1816 1.366 . S
C1817 C1821 1.385 . S
C1818 H1799 0.951 . S
C1818 C1816 1.388 . S
C1818 C1819 1.366 . S
C1819 C1818 1.366 . S
C1819 C1820 1.414 . S
C1819 C1822 1.499 . S
C1820 H1800 0.950 . S
C1820 C1819 1.414 . S
C1820 C1821 1.374 . S
C1821 H1801 0.950 . S
C1821 C1817 1.385 . S
C1821 C1820 1.374 . S
C1822 C1819 1.499 . S
C1822 C1823 1.373 . S
C1822 C1824 1.389 . S
C1823 H1802 0.950 . S
C1823 C1822 1.373 . S
C1823 C1839 1.377 . S
C1824 C1822 1.389 . S
C1824 C1825 1.524 . S
C1824 C1838 1.377 . S
C1825 C1824 1.524 . S
C1825 C1826 1.397 . S
C1825 C1830 1.363 . S
C1826 H1803 0.950 . S
C1826 C1825 1.397 . S
C1826 C1827 1.334 . S
C1827 H1804 0.950 . S
C1827 C1826 1.334 . S
C1827 C1828 1.287 . S
C1828 C1827 1.287 . S
C1828 C1829 1.524 . S
C1828 H1847 0.913 . S
C1829 H1805 0.950 . S
C1829 C1828 1.524 . S
C1829 C1830 1.415 . S
C1830 H1806 0.950 . S
C1830 C1825 1.363 . S
C1830 C1829 1.415 . S
C1831 H1807 0.951 . S
C1831 C1832 1.366 . S
C1831 C1833 1.388 . S
C1832 C1831 1.366 . S
C1832 C1836 1.385 . S
C1833 H1808 0.951 . S
C1833 C1831 1.388 . S
C1833 C1834 1.366 . S
C1834 C1833 1.366 . S
C1834 C1835 1.414 . S
C1834 C1837 1.499 . S
C1835 H1809 0.950 . S
C1835 C1834 1.414 . S
C1835 C1836 1.374 . S
C1836 H1810 0.950 . S
C1836 C1832 1.385 . S
C1836 C1835 1.374 . S
C1837 C1834 1.499 . S
C1837 C1838 1.373 . S
C1837 C1839 1.389 . S
C1838 H1811 0.950 . S
C1838 C1824 1.377 . S
C1838 C1837 1.373 . S
C1839 C1823 1.377 . S
C1839 C1837 1.389 . S
C1839 C1840 1.524 . S
C1840 C1839 1.524 . S
C1840 C1841 1.397 . S
C1840 C1845 1.363 . S
C1841 H1812 0.950 . S
C1841 C1840 1.397 . S
C1841 C1842 1.334 . S
C1842 H1813 0.950 . S
C1842 C1841 1.334 . S
C1842 C1843 1.287 . S
C1843 C1842 1.287 . S
C1843 C1844 1.524 . S
C1843 H1846 0.999 . S
C1844 H1814 0.950 . S
C1844 C1843 1.524 . S
C1844 C1845 1.415 . S
C1845 H1815 0.950 . S
C1845 C1840 1.363 . S
C1845 C1844 1.415 . S
H1846 C1843 0.999 . S
H1847 C1828 0.913 . S
H1848 C1866 0.951 . S
H1849 C1868 0.951 . S
H1850 C1870 0.950 . S
H1851 C1871 0.950 . S
H1852 C1873 0.950 . S
H1853 C1876 0.950 . S
H1854 C1877 0.950 . S
H1855 C1879 0.950 . S
H1856 C1880 0.950 . S
H1857 C1881 0.951 . S
H1858 C1883 0.951 . S
H1859 C1885 0.950 . S
H1860 C1886 0.950 . S
H1861 C1888 0.950 . S
H1862 C1891 0.950 . S
H1863 C1892 0.950 . S
H1864 C1894 0.950 . S
H1865 C1895 0.950 . S
C1866 H1848 0.951 . S
C1866 C1867 1.366 . S
C1866 C1868 1.388 . S
C1867 C1866 1.366 . S
C1867 C1871 1.385 . S
C1868 H1849 0.951 . S
C1868 C1866 1.388 . S
C1868 C1869 1.366 . S
C1869 C1868 1.366 . S
C1869 C1870 1.414 . S
C1869 C1872 1.499 . S
C1870 H1850 0.950 . S
C1870 C1869 1.414 . S
C1870 C1871 1.374 . S
C1871 H1851 0.950 . S
C1871 C1867 1.385 . S
C1871 C1870 1.374 . S
C1872 C1869 1.499 . S
C1872 C1873 1.373 . S
C1872 C1874 1.389 . S
C1873 H1852 0.950 . S
C1873 C1872 1.373 . S
C1873 C1889 1.377 . S
C1874 C1872 1.389 . S
C1874 C1875 1.524 . S
C1874 C1888 1.377 . S
C1875 C1874 1.524 . S
C1875 C1876 1.397 . S
C1875 C1880 1.363 . S
C1876 H1853 0.950 . S
C1876 C1875 1.397 . S
C1876 C1877 1.334 . S
C1877 H1854 0.950 . S
C1877 C1876 1.334 . S
C1877 C1878 1.287 . S
C1878 C1877 1.287 . S
C1878 C1879 1.524 . S
C1878 H1897 0.913 . S
C1879 H1855 0.950 . S
C1879 C1878 1.524 . S
C1879 C1880 1.415 . S
C1880 H1856 0.950 . S
C1880 C1875 1.363 . S
C1880 C1879 1.415 . S
C1881 H1857 0.951 . S
C1881 C1882 1.366 . S
C1881 C1883 1.388 . S
C1882 C1881 1.366 . S
C1882 C1886 1.385 . S
C1883 H1858 0.951 . S
C1883 C1881 1.388 . S
C1883 C1884 1.366 . S
C1884 C1883 1.366 . S
C1884 C1885 1.414 . S
C1884 C1887 1.499 . S
C1885 H1859 0.950 . S
C1885 C1884 1.414 . S
C1885 C1886 1.374 . S
C1886 H1860 0.950 . S
C1886 C1882 1.385 . S
C1886 C1885 1.374 . S
C1887 C1884 1.499 . S
C1887 C1888 1.373 . S
C1887 C1889 1.389 . S
C1888 H1861 0.950 . S
C1888 C1874 1.377 . S
C1888 C1887 1.373 . S
C1889 C1873 1.377 . S
C1889 C1887 1.389 . S
C1889 C1890 1.524 . S
C1890 C1889 1.524 . S
C1890 C1891 1.397 . S
C1890 C1895 1.363 . S
C1891 H1862 0.950 . S
C1891 C1890 1.397 . S
C1891 C1892 1.334 . S
C1892 H1863 0.950 . S
C1892 C1891 1.334 . S
C1892 C1893 1.287 . S
C1893 C1892 1.287 . S
C1893 C1894 1.524 . S
C1893 H1896 0.999 . S
C1894 H1864 0.950 . S
C1894 C1893 1.524 . S
C1894 C1895 1.415 . S
C1895 H1865 0.950 . S
C1895 C1890 1.363 . S
C1895 C1894 1.415 . S
H1896 C1893 0.999 . S
H1897 C1878 0.913 . S
H1898 C1916 0.951 . S
H1899 C1918 0.951 . S
H1900 C1920 0.950 . S
H1901 C1921 0.950 . S
H1902 C1923 0.950 . S
H1903 C1926 0.950 . S
H1904 C1927 0.950 . S
H1905 C1929 0.950 . S
H1906 C1930 0.950 . S
H1907 C1931 0.951 . S
H1908 C1933 0.951 . S
H1909 C1935 0.950 . S
H1910 C1936 0.950 . S
H1911 C1938 0.950 . S
H1912 C1941 0.950 . S
H1913 C1942 0.950 . S
H1914 C1944 0.950 . S
H1915 C1945 0.950 . S
C1916 H1898 0.951 . S
C1916 C1917 1.366 . S
C1916 C1918 1.388 . S
C1917 C1916 1.366 . S
C1917 C1921 1.385 . S
C1918 H1899 0.951 . S
C1918 C1916 1.388 . S
C1918 C1919 1.366 . S
C1919 C1918 1.366 . S
C1919 C1920 1.414 . S
C1919 C1922 1.499 . S
C1920 H1900 0.950 . S
C1920 C1919 1.414 . S
C1920 C1921 1.374 . S
C1921 H1901 0.950 . S
C1921 C1917 1.385 . S
C1921 C1920 1.374 . S
C1922 C1919 1.499 . S
C1922 C1923 1.373 . S
C1922 C1924 1.389 . S
C1923 H1902 0.950 . S
C1923 C1922 1.373 . S
C1923 C1939 1.377 1_655 S
C1924 C1922 1.389 . S
C1924 C1925 1.524 . S
C1924 C1938 1.377 1_655 S
C1925 C1924 1.524 . S
C1925 C1926 1.397 . S
C1925 C1930 1.363 . S
C1926 H1903 0.950 . S
C1926 C1925 1.397 . S
C1926 C1927 1.334 . S
C1927 H1904 0.950 . S
C1927 C1926 1.334 . S
C1927 C1928 1.287 . S
C1928 C1927 1.287 . S
C1928 C1929 1.524 . S
C1928 H1947 0.913 . S
C1929 H1905 0.950 . S
C1929 C1928 1.524 . S
C1929 C1930 1.415 . S
C1930 H1906 0.950 . S
C1930 C1925 1.363 . S
C1930 C1929 1.415 . S
C1931 H1907 0.951 . S
C1931 C1932 1.366 . S
C1931 C1933 1.388 . S
C1932 C1931 1.366 . S
C1932 C1936 1.385 . S
C1933 H1908 0.951 . S
C1933 C1931 1.388 . S
C1933 C1934 1.366 . S
C1934 C1933 1.366 . S
C1934 C1935 1.414 . S
C1934 C1937 1.499 . S
C1935 H1909 0.950 . S
C1935 C1934 1.414 . S
C1935 C1936 1.374 . S
C1936 H1910 0.950 . S
C1936 C1932 1.385 . S
C1936 C1935 1.374 . S
C1937 C1934 1.499 . S
C1937 C1938 1.373 . S
C1937 C1939 1.389 . S
C1938 H1911 0.950 . S
C1938 C1924 1.377 1_455 S
C1938 C1937 1.373 . S
C1939 C1923 1.377 1_455 S
C1939 C1937 1.389 . S
C1939 C1940 1.524 . S
C1940 C1939 1.524 . S
C1940 C1941 1.397 . S
C1940 C1945 1.363 . S
C1941 H1912 0.950 . S
C1941 C1940 1.397 . S
C1941 C1942 1.334 . S
C1942 H1913 0.950 . S
C1942 C1941 1.334 . S
C1942 C1943 1.287 . S
C1943 C1942 1.287 . S
C1943 C1944 1.524 . S
C1943 H1946 0.999 . S
C1944 H1914 0.950 . S
C1944 C1943 1.524 . S
C1944 C1945 1.415 . S
C1945 H1915 0.950 . S
C1945 C1940 1.363 . S
C1945 C1944 1.415 . S
H1946 C1943 0.999 . S
H1947 C1928 0.913 . S
H1948 C1966 0.951 . S
H1949 C1968 0.951 . S
H1950 C1970 0.950 . S
H1951 C1971 0.950 . S
H1952 C1973 0.950 . S
H1953 C1976 0.950 . S
H1954 C1977 0.950 . S
H1955 C1979 0.950 . S
H1956 C1980 0.950 . S
H1957 C1981 0.951 . S
H1958 C1983 0.951 . S
H1959 C1985 0.950 . S
H1960 C1986 0.950 . S
H1961 C1988 0.950 . S
H1962 C1991 0.950 . S
H1963 C1992 0.950 . S
H1964 C1994 0.950 . S
H1965 C1995 0.950 . S
C1966 H1948 0.951 . S
C1966 C1967 1.366 . S
C1966 C1968 1.388 . S
C1967 C1966 1.366 . S
C1967 C1971 1.385 . S
C1968 H1949 0.951 . S
C1968 C1966 1.388 . S
C1968 C1969 1.366 . S
C1969 C1968 1.366 . S
C1969 C1970 1.414 . S
C1969 C1972 1.499 . S
C1970 H1950 0.950 . S
C1970 C1969 1.414 . S
C1970 C1971 1.374 . S
C1971 H1951 0.950 . S
C1971 C1967 1.385 . S
C1971 C1970 1.374 . S
C1972 C1969 1.499 . S
C1972 C1973 1.373 . S
C1972 C1974 1.389 . S
C1973 H1952 0.950 . S
C1973 C1972 1.373 . S
C1973 C1989 1.377 . S
C1974 C1972 1.389 . S
C1974 C1975 1.524 . S
C1974 C1988 1.377 . S
C1975 C1974 1.524 . S
C1975 C1976 1.397 . S
C1975 C1980 1.363 . S
C1976 H1953 0.950 . S
C1976 C1975 1.397 . S
C1976 C1977 1.334 . S
C1977 H1954 0.950 . S
C1977 C1976 1.334 . S
C1977 C1978 1.287 . S
C1978 C1977 1.287 . S
C1978 C1979 1.524 . S
C1978 H1997 0.913 . S
C1979 H1955 0.950 . S
C1979 C1978 1.524 . S
C1979 C1980 1.415 . S
C1980 H1956 0.950 . S
C1980 C1975 1.363 . S
C1980 C1979 1.415 . S
C1981 H1957 0.951 . S
C1981 C1982 1.366 . S
C1981 C1983 1.388 . S
C1982 C1981 1.366 . S
C1982 C1986 1.385 . S
C1983 H1958 0.951 . S
C1983 C1981 1.388 . S
C1983 C1984 1.366 . S
C1984 C1983 1.366 . S
C1984 C1985 1.414 . S
C1984 C1987 1.499 . S
C1985 H1959 0.950 . S
C1985 C1984 1.414 . S
C1985 C1986 1.374 . S
C1986 H1960 0.950 . S
C1986 C1982 1.385 . S
C1986 C1985 1.374 . S
C1987 C1984 1.499 . S
C1987 C1988 1.373 . S
C1987 C1989 1.389 . S
C1988 H1961 0.950 . S
C1988 C1974 1.377 . S
C1988 C1987 1.373 . S
C1989 C1973 1.377 . S
C1989 C1987 1.389 . S
C1989 C1990 1.524 . S
C1990 C1989 1.524 . S
C1990 C1991 1.397 . S
C1990 C1995 1.363 . S
C1991 H1962 0.950 . S
C1991 C1990 1.397 . S
C1991 C1992 1.334 . S
C1992 H1963 0.950 . S
C1992 C1991 1.334 . S
C1992 C1993 1.287 . S
C1993 C1992 1.287 . S
C1993 C1994 1.524 . S
C1993 H1996 0.999 . S
C1994 H1964 0.950 . S
C1994 C1993 1.524 . S
C1994 C1995 1.415 . S
C1995 H1965 0.950 . S
C1995 C1990 1.363 . S
C1995 C1994 1.415 . S
H1996 C1993 0.999 . S
H1997 C1978 0.913 . S
H1998 C2016 0.951 . S
H1999 C2018 0.951 . S
H2000 C2020 0.950 . S
H2001 C2021 0.950 . S
H2002 C2023 0.950 . S
H2003 C2026 0.950 . S
H2004 C2027 0.950 . S
H2005 C2029 0.950 . S
H2006 C2030 0.950 . S
H2007 C2031 0.951 . S
H2008 C2033 0.951 . S
H2009 C2035 0.950 . S
H2010 C2036 0.950 . S
H2011 C2038 0.950 . S
H2012 C2041 0.950 . S
H2013 C2042 0.950 . S
H2014 C2044 0.950 . S
H2015 C2045 0.950 . S
C2016 H1998 0.951 . S
C2016 C2017 1.366 . S
C2016 C2018 1.388 . S
C2017 C2016 1.366 . S
C2017 C2021 1.385 . S
C2018 H1999 0.951 . S
C2018 C2016 1.388 . S
C2018 C2019 1.366 . S
C2019 C2018 1.366 . S
C2019 C2020 1.414 . S
C2019 C2022 1.499 . S
C2020 H2000 0.950 . S
C2020 C2019 1.414 . S
C2020 C2021 1.374 . S
C2021 H2001 0.950 . S
C2021 C2017 1.385 . S
C2021 C2020 1.374 . S
C2022 C2019 1.499 . S
C2022 C2023 1.373 . S
C2022 C2024 1.389 . S
C2023 H2002 0.950 . S
C2023 C2022 1.373 . S
C2023 C2039 1.377 1_455 S
C2024 C2022 1.389 . S
C2024 C2025 1.524 . S
C2024 C2038 1.377 1_455 S
C2025 C2024 1.524 . S
C2025 C2026 1.397 . S
C2025 C2030 1.363 . S
C2026 H2003 0.950 . S
C2026 C2025 1.397 . S
C2026 C2027 1.334 . S
C2027 H2004 0.950 . S
C2027 C2026 1.334 . S
C2027 C2028 1.287 . S
C2028 C2027 1.287 . S
C2028 C2029 1.524 . S
C2028 H2047 0.913 . S
C2029 H2005 0.950 . S
C2029 C2028 1.524 . S
C2029 C2030 1.415 . S
C2030 H2006 0.950 . S
C2030 C2025 1.363 . S
C2030 C2029 1.415 . S
C2031 H2007 0.951 . S
C2031 C2032 1.366 . S
C2031 C2033 1.388 . S
C2032 C2031 1.366 . S
C2032 C2036 1.385 . S
C2033 H2008 0.951 . S
C2033 C2031 1.388 . S
C2033 C2034 1.366 . S
C2034 C2033 1.366 . S
C2034 C2035 1.414 . S
C2034 C2037 1.499 . S
C2035 H2009 0.950 . S
C2035 C2034 1.414 . S
C2035 C2036 1.374 . S
C2036 H2010 0.950 . S
C2036 C2032 1.385 . S
C2036 C2035 1.374 . S
C2037 C2034 1.499 . S
C2037 C2038 1.373 . S
C2037 C2039 1.389 . S
C2038 H2011 0.950 . S
C2038 C2024 1.377 1_655 S
C2038 C2037 1.373 . S
C2039 C2023 1.377 1_655 S
C2039 C2037 1.389 . S
C2039 C2040 1.524 . S
C2040 C2039 1.524 . S
C2040 C2041 1.397 . S
C2040 C2045 1.363 . S
C2041 H2012 0.950 . S
C2041 C2040 1.397 . S
C2041 C2042 1.334 . S
C2042 H2013 0.950 . S
C2042 C2041 1.334 . S
C2042 C2043 1.287 . S
C2043 C2042 1.287 . S
C2043 C2044 1.524 . S
C2043 H2046 0.999 . S
C2044 H2014 0.950 . S
C2044 C2043 1.524 . S
C2044 C2045 1.415 . S
C2045 H2015 0.950 . S
C2045 C2040 1.363 . S
C2045 C2044 1.415 . S
H2046 C2043 0.999 . S
H2047 C2028 0.913 . S
H2048 C2066 0.951 . S
H2049 C2068 0.951 . S
H2050 C2070 0.950 . S
H2051 C2071 0.950 . S
H2052 C2073 0.951 1_554 S
H2053 C2076 0.950 . S
H2054 C2077 0.950 . S
H2055 C2079 0.950 . S
H2056 C2080 0.950 . S
H2057 C2081 0.951 . S
H2058 C2083 0.951 . S
H2059 C2085 0.950 . S
H2060 C2086 0.950 . S
H2061 C2088 0.951 1_556 S
H2062 C2091 0.950 . S
H2063 C2092 0.950 . S
H2064 C2094 0.950 . S
H2065 C2095 0.950 . S
C2066 H2048 0.951 . S
C2066 C2067 1.366 . S
C2066 C2068 1.388 . S
C2067 C2066 1.366 . S
C2067 C2071 1.385 . S
C2068 H2049 0.951 . S
C2068 C2066 1.388 . S
C2068 C2069 1.366 . S
C2069 C2068 1.366 . S
C2069 C2070 1.414 . S
C2069 C2072 1.499 . S
C2070 H2050 0.950 . S
C2070 C2069 1.414 . S
C2070 C2071 1.374 . S
C2071 H2051 0.950 . S
C2071 C2067 1.385 . S
C2071 C2070 1.374 . S
C2072 C2069 1.499 . S
C2072 C2073 1.367 . S
C2072 C2074 1.389 . S
C2073 H2052 0.951 1_556 S
C2073 C2072 1.367 . S
C2073 C2089 1.383 1_556 S
C2074 C2072 1.389 . S
C2074 C2075 1.524 . S
C2074 C2088 1.383 1_556 S
C2075 C2074 1.524 . S
C2075 C2076 1.397 . S
C2075 C2080 1.363 . S
C2076 H2053 0.950 . S
C2076 C2075 1.397 . S
C2076 C2077 1.334 . S
C2077 H2054 0.950 . S
C2077 C2076 1.334 . S
C2077 C2078 1.287 . S
C2078 C2077 1.287 . S
C2078 C2079 1.524 . S
C2078 H2097 0.913 . S
C2079 H2055 0.950 . S
C2079 C2078 1.524 . S
C2079 C2080 1.415 . S
C2080 H2056 0.950 . S
C2080 C2075 1.363 . S
C2080 C2079 1.415 . S
C2081 H2057 0.951 . S
C2081 C2082 1.366 . S
C2081 C2083 1.388 . S
C2082 C2081 1.366 . S
C2082 C2086 1.385 . S
C2083 H2058 0.951 . S
C2083 C2081 1.388 . S
C2083 C2084 1.366 . S
C2084 C2083 1.366 . S
C2084 C2085 1.414 . S
C2084 C2087 1.499 . S
C2085 H2059 0.950 . S
C2085 C2084 1.414 . S
C2085 C2086 1.374 . S
C2086 H2060 0.950 . S
C2086 C2082 1.385 . S
C2086 C2085 1.374 . S
C2087 C2084 1.499 . S
C2087 C2088 1.367 . S
C2087 C2089 1.389 . S
C2088 H2061 0.951 1_554 S
C2088 C2074 1.383 1_554 S
C2088 C2087 1.367 . S
C2089 C2073 1.383 1_554 S
C2089 C2087 1.389 . S
C2089 C2090 1.524 . S
C2090 C2089 1.524 . S
C2090 C2091 1.397 . S
C2090 C2095 1.363 . S
C2091 H2062 0.950 . S
C2091 C2090 1.397 . S
C2091 C2092 1.334 . S
C2092 H2063 0.950 . S
C2092 C2091 1.334 . S
C2092 C2093 1.287 . S
C2093 C2092 1.287 . S
C2093 C2094 1.524 . S
C2093 H2096 0.999 . S
C2094 H2064 0.950 . S
C2094 C2093 1.524 . S
C2094 C2095 1.415 . S
C2095 H2065 0.950 . S
C2095 C2090 1.363 . S
C2095 C2094 1.415 . S
H2096 C2093 0.999 . S
H2097 C2078 0.913 . S
H2098 C2116 0.951 . S
H2099 C2118 0.951 . S
H2100 C2120 0.950 . S
H2101 C2121 0.950 . S
H2102 C2123 0.950 . S
H2103 C2126 0.950 . S
H2104 C2127 0.950 . S
H2105 C2129 0.950 . S
H2106 C2130 0.950 . S
H2107 C2131 0.951 . S
H2108 C2133 0.951 . S
H2109 C2135 0.950 . S
H2110 C2136 0.950 . S
H2111 C2138 0.950 . S
H2112 C2141 0.950 . S
H2113 C2142 0.950 . S
H2114 C2144 0.950 . S
H2115 C2145 0.950 . S
C2116 H2098 0.951 . S
C2116 C2117 1.366 . S
C2116 C2118 1.388 . S
C2117 C2116 1.366 . S
C2117 C2121 1.385 . S
C2118 H2099 0.951 . S
C2118 C2116 1.388 . S
C2118 C2119 1.366 . S
C2119 C2118 1.366 . S
C2119 C2120 1.414 . S
C2119 C2122 1.499 . S
C2120 H2100 0.950 . S
C2120 C2119 1.414 . S
C2120 C2121 1.374 . S
C2121 H2101 0.950 . S
C2121 C2117 1.385 . S
C2121 C2120 1.374 . S
C2122 C2119 1.499 . S
C2122 C2123 1.373 . S
C2122 C2124 1.389 . S
C2123 H2102 0.950 . S
C2123 C2122 1.373 . S
C2123 C2139 1.377 . S
C2124 C2122 1.389 . S
C2124 C2125 1.524 . S
C2124 C2138 1.377 . S
C2125 C2124 1.524 . S
C2125 C2126 1.397 . S
C2125 C2130 1.363 . S
C2126 H2103 0.950 . S
C2126 C2125 1.397 . S
C2126 C2127 1.334 . S
C2127 H2104 0.950 . S
C2127 C2126 1.334 . S
C2127 C2128 1.287 . S
C2128 C2127 1.287 . S
C2128 C2129 1.524 . S
C2128 H2147 0.913 . S
C2129 H2105 0.950 . S
C2129 C2128 1.524 . S
C2129 C2130 1.415 . S
C2130 H2106 0.950 . S
C2130 C2125 1.363 . S
C2130 C2129 1.415 . S
C2131 H2107 0.951 . S
C2131 C2132 1.366 . S
C2131 C2133 1.388 . S
C2132 C2131 1.366 . S
C2132 C2136 1.385 . S
C2133 H2108 0.951 . S
C2133 C2131 1.388 . S
C2133 C2134 1.366 . S
C2134 C2133 1.366 . S
C2134 C2135 1.414 . S
C2134 C2137 1.499 . S
C2135 H2109 0.950 . S
C2135 C2134 1.414 . S
C2135 C2136 1.374 . S
C2136 H2110 0.950 . S
C2136 C2132 1.385 . S
C2136 C2135 1.374 . S
C2137 C2134 1.499 . S
C2137 C2138 1.373 . S
C2137 C2139 1.389 . S
C2138 H2111 0.950 . S
C2138 C2124 1.377 . S
C2138 C2137 1.373 . S
C2139 C2123 1.377 . S
C2139 C2137 1.389 . S
C2139 C2140 1.524 . S
C2140 C2139 1.524 . S
C2140 C2141 1.397 . S
C2140 C2145 1.363 . S
C2141 H2112 0.950 . S
C2141 C2140 1.397 . S
C2141 C2142 1.334 . S
C2142 H2113 0.950 . S
C2142 C2141 1.334 . S
C2142 C2143 1.287 . S
C2143 C2142 1.287 . S
C2143 C2144 1.524 . S
C2143 H2146 0.999 . S
C2144 H2114 0.950 . S
C2144 C2143 1.524 . S
C2144 C2145 1.415 . S
C2145 H2115 0.950 . S
C2145 C2140 1.363 . S
C2145 C2144 1.415 . S
H2146 C2143 0.999 . S
H2147 C2128 0.913 . S
H2148 C2166 0.951 . S
H2149 C2168 0.951 . S
H2150 C2170 0.950 . S
H2151 C2171 0.950 . S
H2152 C2173 0.950 . S
H2153 C2176 0.950 . S
H2154 C2177 0.950 . S
H2155 C2179 0.950 . S
H2156 C2180 0.950 . S
H2157 C2181 0.951 . S
H2158 C2183 0.951 . S
H2159 C2185 0.950 . S
H2160 C2186 0.950 . S
H2161 C2188 0.950 . S
H2162 C2191 0.950 . S
H2163 C2192 0.950 . S
H2164 C2194 0.950 . S
H2165 C2195 0.950 . S
C2166 H2148 0.951 . S
C2166 C2167 1.366 . S
C2166 C2168 1.388 . S
C2167 C2166 1.366 . S
C2167 C2171 1.385 . S
C2168 H2149 0.951 . S
C2168 C2166 1.388 . S
C2168 C2169 1.366 . S
C2169 C2168 1.366 . S
C2169 C2170 1.414 . S
C2169 C2172 1.499 . S
C2170 H2150 0.950 . S
C2170 C2169 1.414 . S
C2170 C2171 1.374 . S
C2171 H2151 0.950 . S
C2171 C2167 1.385 . S
C2171 C2170 1.374 . S
C2172 C2169 1.499 . S
C2172 C2173 1.373 . S
C2172 C2174 1.389 . S
C2173 H2152 0.950 . S
C2173 C2172 1.373 . S
C2173 C2189 1.377 . S
C2174 C2172 1.389 . S
C2174 C2175 1.524 . S
C2174 C2188 1.377 . S
C2175 C2174 1.524 . S
C2175 C2176 1.397 . S
C2175 C2180 1.363 . S
C2176 H2153 0.950 . S
C2176 C2175 1.397 . S
C2176 C2177 1.334 . S
C2177 H2154 0.950 . S
C2177 C2176 1.334 . S
C2177 C2178 1.287 . S
C2178 C2177 1.287 . S
C2178 C2179 1.524 . S
C2178 H2197 0.913 . S
C2179 H2155 0.950 . S
C2179 C2178 1.524 . S
C2179 C2180 1.415 . S
C2180 H2156 0.950 . S
C2180 C2175 1.363 . S
C2180 C2179 1.415 . S
C2181 H2157 0.951 . S
C2181 C2182 1.366 . S
C2181 C2183 1.388 . S
C2182 C2181 1.366 . S
C2182 C2186 1.385 . S
C2183 H2158 0.951 . S
C2183 C2181 1.388 . S
C2183 C2184 1.366 . S
C2184 C2183 1.366 . S
C2184 C2185 1.414 . S
C2184 C2187 1.499 . S
C2185 H2159 0.950 . S
C2185 C2184 1.414 . S
C2185 C2186 1.374 . S
C2186 H2160 0.950 . S
C2186 C2182 1.385 . S
C2186 C2185 1.374 . S
C2187 C2184 1.499 . S
C2187 C2188 1.373 . S
C2187 C2189 1.389 . S
C2188 H2161 0.950 . S
C2188 C2174 1.377 . S
C2188 C2187 1.373 . S
C2189 C2173 1.377 . S
C2189 C2187 1.389 . S
C2189 C2190 1.524 . S
C2190 C2189 1.524 . S
C2190 C2191 1.397 . S
C2190 C2195 1.363 . S
C2191 H2162 0.950 . S
C2191 C2190 1.397 . S
C2191 C2192 1.334 . S
C2192 H2163 0.950 . S
C2192 C2191 1.334 . S
C2192 C2193 1.287 . S
C2193 C2192 1.287 . S
C2193 C2194 1.524 . S
C2193 H2196 0.999 . S
C2194 H2164 0.950 . S
C2194 C2193 1.524 . S
C2194 C2195 1.415 . S
C2195 H2165 0.950 . S
C2195 C2190 1.363 . S
C2195 C2194 1.415 . S
H2196 C2193 0.999 . S
H2197 C2178 0.913 . S
H2198 C2216 0.951 . S
H2199 C2218 0.951 . S
H2200 C2220 0.950 . S
H2201 C2221 0.950 . S
H2202 C2223 0.950 . S
H2203 C2226 0.950 . S
H2204 C2227 0.950 . S
H2205 C2229 0.950 . S
H2206 C2230 0.950 . S
H2207 C2231 0.951 . S
H2208 C2233 0.951 . S
H2209 C2235 0.950 . S
H2210 C2236 0.950 . S
H2211 C2238 0.950 . S
H2212 C2241 0.950 . S
H2213 C2242 0.950 . S
H2214 C2244 0.950 . S
H2215 C2245 0.950 . S
C2216 H2198 0.951 . S
C2216 C2217 1.366 . S
C2216 C2218 1.388 . S
C2217 C2216 1.366 . S
C2217 C2221 1.385 . S
C2218 H2199 0.951 . S
C2218 C2216 1.388 . S
C2218 C2219 1.366 . S
C2219 C2218 1.366 . S
C2219 C2220 1.414 . S
C2219 C2222 1.499 . S
C2220 H2200 0.950 . S
C2220 C2219 1.414 . S
C2220 C2221 1.374 . S
C2221 H2201 0.950 . S
C2221 C2217 1.385 . S
C2221 C2220 1.374 . S
C2222 C2219 1.499 . S
C2222 C2223 1.373 . S
C2222 C2224 1.389 . S
C2223 H2202 0.950 . S
C2223 C2222 1.373 . S
C2223 C2239 1.377 . S
C2224 C2222 1.389 . S
C2224 C2225 1.524 . S
C2224 C2238 1.377 . S
C2225 C2224 1.524 . S
C2225 C2226 1.397 . S
C2225 C2230 1.363 . S
C2226 H2203 0.950 . S
C2226 C2225 1.397 . S
C2226 C2227 1.334 . S
C2227 H2204 0.950 . S
C2227 C2226 1.334 . S
C2227 C2228 1.287 . S
C2228 C2227 1.287 . S
C2228 C2229 1.524 . S
C2228 H2247 0.913 . S
C2229 H2205 0.950 . S
C2229 C2228 1.524 . S
C2229 C2230 1.415 . S
C2230 H2206 0.950 . S
C2230 C2225 1.363 . S
C2230 C2229 1.415 . S
C2231 H2207 0.951 . S
C2231 C2232 1.366 . S
C2231 C2233 1.388 . S
C2232 C2231 1.366 . S
C2232 C2236 1.385 . S
C2233 H2208 0.951 . S
C2233 C2231 1.388 . S
C2233 C2234 1.366 . S
C2234 C2233 1.366 . S
C2234 C2235 1.414 . S
C2234 C2237 1.499 . S
C2235 H2209 0.950 . S
C2235 C2234 1.414 . S
C2235 C2236 1.374 . S
C2236 H2210 0.950 . S
C2236 C2232 1.385 . S
C2236 C2235 1.374 . S
C2237 C2234 1.499 . S
C2237 C2238 1.373 . S
C2237 C2239 1.389 . S
C2238 H2211 0.950 . S
C2238 C2224 1.377 . S
C2238 C2237 1.373 . S
C2239 C2223 1.377 . S
C2239 C2237 1.389 . S
C2239 C2240 1.524 . S
C2240 C2239 1.524 . S
C2240 C2241 1.397 . S
C2240 C2245 1.363 . S
C2241 H2212 0.950 . S
C2241 C2240 1.397 . S
C2241 C2242 1.334 . S
C2242 H2213 0.950 . S
C2242 C2241 1.334 . S
C2242 C2243 1.287 . S
C2243 C2242 1.287 . S
C2243 C2244 1.524 . S
C2243 H2246 0.999 1_545 S
C2244 H2214 0.950 . S
C2244 C2243 1.524 . S
C2244 C2245 1.415 . S
C2245 H2215 0.950 . S
C2245 C2240 1.363 . S
C2245 C2244 1.415 . S
H2246 C2243 0.999 1_565 S
H2247 C2228 0.913 . S
H2248 C2266 0.951 . S
H2249 C2268 0.951 . S
H2250 C2270 0.950 . S
H2251 C2271 0.950 . S
H2252 C2273 0.950 . S
H2253 C2276 0.950 . S
H2254 C2277 0.950 . S
H2255 C2279 0.950 . S
H2256 C2280 0.950 . S
H2257 C2281 0.951 . S
H2258 C2283 0.951 . S
H2259 C2285 0.950 . S
H2260 C2286 0.950 . S
H2261 C2288 0.950 . S
H2262 C2291 0.950 . S
H2263 C2292 0.950 . S
H2264 C2294 0.950 . S
H2265 C2295 0.950 . S
C2266 H2248 0.951 . S
C2266 C2267 1.366 . S
C2266 C2268 1.388 . S
C2267 C2266 1.366 . S
C2267 C2271 1.385 . S
C2268 H2249 0.951 . S
C2268 C2266 1.388 . S
C2268 C2269 1.366 . S
C2269 C2268 1.366 . S
C2269 C2270 1.414 . S
C2269 C2272 1.499 . S
C2270 H2250 0.950 . S
C2270 C2269 1.414 . S
C2270 C2271 1.374 . S
C2271 H2251 0.950 . S
C2271 C2267 1.385 . S
C2271 C2270 1.374 . S
C2272 C2269 1.499 . S
C2272 C2273 1.373 . S
C2272 C2274 1.389 1_554 S
C2273 H2252 0.950 . S
C2273 C2272 1.373 . S
C2273 C2289 1.377 . S
C2274 C2272 1.389 1_556 S
C2274 C2275 1.524 . S
C2274 C2288 1.377 . S
C2275 C2274 1.524 . S
C2275 C2276 1.397 . S
C2275 C2280 1.363 . S
C2276 H2253 0.950 . S
C2276 C2275 1.397 . S
C2276 C2277 1.334 . S
C2277 H2254 0.950 . S
C2277 C2276 1.334 . S
C2277 C2278 1.287 . S
C2278 C2277 1.287 . S
C2278 C2279 1.524 . S
C2278 H2297 0.913 . S
C2279 H2255 0.950 . S
C2279 C2278 1.524 . S
C2279 C2280 1.415 . S
C2280 H2256 0.950 . S
C2280 C2275 1.363 . S
C2280 C2279 1.415 . S
C2281 H2257 0.951 . S
C2281 C2282 1.366 . S
C2281 C2283 1.388 . S
C2282 C2281 1.366 . S
C2282 C2286 1.385 . S
C2283 H2258 0.951 . S
C2283 C2281 1.388 . S
C2283 C2284 1.366 . S
C2284 C2283 1.366 . S
C2284 C2285 1.414 . S
C2284 C2287 1.499 . S
C2285 H2259 0.950 . S
C2285 C2284 1.414 . S
C2285 C2286 1.374 . S
C2286 H2260 0.950 . S
C2286 C2282 1.385 . S
C2286 C2285 1.374 . S
C2287 C2284 1.499 . S
C2287 C2288 1.373 . S
C2287 C2289 1.389 1_556 S
C2288 H2261 0.950 . S
C2288 C2274 1.377 . S
C2288 C2287 1.373 . S
C2289 C2273 1.377 . S
C2289 C2287 1.389 1_554 S
C2289 C2290 1.524 . S
C2290 C2289 1.524 . S
C2290 C2291 1.397 . S
C2290 C2295 1.363 . S
C2291 H2262 0.950 . S
C2291 C2290 1.397 . S
C2291 C2292 1.334 . S
C2292 H2263 0.950 . S
C2292 C2291 1.334 . S
C2292 C2293 1.287 . S
C2293 C2292 1.287 . S
C2293 C2294 1.524 . S
C2293 H2296 0.999 . S
C2294 H2264 0.950 . S
C2294 C2293 1.524 . S
C2294 C2295 1.415 . S
C2295 H2265 0.950 . S
C2295 C2290 1.363 . S
C2295 C2294 1.415 . S
H2296 C2293 0.999 . S
H2297 C2278 0.913 . S
H2298 C2316 0.951 . S
H2299 C2318 0.951 . S
H2300 C2320 0.950 . S
H2301 C2321 0.950 . S
H2302 C2323 0.950 . S
H2303 C2326 0.950 . S
H2304 C2327 0.950 . S
H2305 C2329 0.950 . S
H2306 C2330 0.950 . S
H2307 C2331 0.951 . S
H2308 C2333 0.951 . S
H2309 C2335 0.950 . S
H2310 C2336 0.950 . S
H2311 C2338 0.950 . S
H2312 C2341 0.950 . S
H2313 C2342 0.950 . S
H2314 C2344 0.950 . S
H2315 C2345 0.950 . S
C2316 H2298 0.951 . S
C2316 C2317 1.366 . S
C2316 C2318 1.388 . S
C2317 C2316 1.366 . S
C2317 C2321 1.385 . S
C2318 H2299 0.951 . S
C2318 C2316 1.388 . S
C2318 C2319 1.366 . S
C2319 C2318 1.366 . S
C2319 C2320 1.414 . S
C2319 C2322 1.499 . S
C2320 H2300 0.950 . S
C2320 C2319 1.414 . S
C2320 C2321 1.374 . S
C2321 H2301 0.950 . S
C2321 C2317 1.385 . S
C2321 C2320 1.374 . S
C2322 C2319 1.499 . S
C2322 C2323 1.373 . S
C2322 C2324 1.389 . S
C2323 H2302 0.950 . S
C2323 C2322 1.373 . S
C2323 C2339 1.377 . S
C2324 C2322 1.389 . S
C2324 C2325 1.524 . S
C2324 C2338 1.377 . S
C2325 C2324 1.524 . S
C2325 C2326 1.397 . S
C2325 C2330 1.363 . S
C2326 H2303 0.950 . S
C2326 C2325 1.397 . S
C2326 C2327 1.334 . S
C2327 H2304 0.950 . S
C2327 C2326 1.334 . S
C2327 C2328 1.287 . S
C2328 C2327 1.287 . S
C2328 C2329 1.524 . S
C2328 H2347 0.913 . S
C2329 H2305 0.950 . S
C2329 C2328 1.524 . S
C2329 C2330 1.415 . S
C2330 H2306 0.950 . S
C2330 C2325 1.363 . S
C2330 C2329 1.415 . S
C2331 H2307 0.951 . S
C2331 C2332 1.366 . S
C2331 C2333 1.388 . S
C2332 C2331 1.366 . S
C2332 C2336 1.385 . S
C2333 H2308 0.951 . S
C2333 C2331 1.388 . S
C2333 C2334 1.366 . S
C2334 C2333 1.366 . S
C2334 C2335 1.414 . S
C2334 C2337 1.499 . S
C2335 H2309 0.950 . S
C2335 C2334 1.414 . S
C2335 C2336 1.374 . S
C2336 H2310 0.950 . S
C2336 C2332 1.385 . S
C2336 C2335 1.374 . S
C2337 C2334 1.499 . S
C2337 C2338 1.373 . S
C2337 C2339 1.389 . S
C2338 H2311 0.950 . S
C2338 C2324 1.377 . S
C2338 C2337 1.373 . S
C2339 C2323 1.377 . S
C2339 C2337 1.389 . S
C2339 C2340 1.524 . S
C2340 C2339 1.524 . S
C2340 C2341 1.397 . S
C2340 C2345 1.363 . S
C2341 H2312 0.950 . S
C2341 C2340 1.397 . S
C2341 C2342 1.334 . S
C2342 H2313 0.950 . S
C2342 C2341 1.334 . S
C2342 C2343 1.287 . S
C2343 C2342 1.287 . S
C2343 C2344 1.524 . S
C2343 H2346 0.999 . S
C2344 H2314 0.950 . S
C2344 C2343 1.524 . S
C2344 C2345 1.415 . S
C2345 H2315 0.950 . S
C2345 C2340 1.363 . S
C2345 C2344 1.415 . S
H2346 C2343 0.999 . S
H2347 C2328 0.913 . S
H2348 C2366 0.951 . S
H2349 C2368 0.951 . S
H2350 C2370 0.950 . S
H2351 C2371 0.950 . S
H2352 C2373 0.950 . S
H2353 C2376 0.950 . S
H2354 C2377 0.950 . S
H2355 C2379 0.950 . S
H2356 C2380 0.950 . S
H2357 C2381 0.951 . S
H2358 C2383 0.951 . S
H2359 C2385 0.950 . S
H2360 C2386 0.950 . S
H2361 C2388 0.950 . S
H2362 C2391 0.950 . S
H2363 C2392 0.950 . S
H2364 C2394 0.950 . S
H2365 C2395 0.950 . S
C2366 H2348 0.951 . S
C2366 C2367 1.366 . S
C2366 C2368 1.388 . S
C2367 C2366 1.366 . S
C2367 C2371 1.385 . S
C2368 H2349 0.951 . S
C2368 C2366 1.388 . S
C2368 C2369 1.366 . S
C2369 C2368 1.366 . S
C2369 C2370 1.414 . S
C2369 C2372 1.499 . S
C2370 H2350 0.950 . S
C2370 C2369 1.414 . S
C2370 C2371 1.374 . S
C2371 H2351 0.950 . S
C2371 C2367 1.385 . S
C2371 C2370 1.374 . S
C2372 C2369 1.499 . S
C2372 C2373 1.373 . S
C2372 C2374 1.389 . S
C2373 H2352 0.950 . S
C2373 C2372 1.373 . S
C2373 C2389 1.377 . S
C2374 C2372 1.389 . S
C2374 C2375 1.524 . S
C2374 C2388 1.377 . S
C2375 C2374 1.524 . S
C2375 C2376 1.397 . S
C2375 C2380 1.363 . S
C2376 H2353 0.950 . S
C2376 C2375 1.397 . S
C2376 C2377 1.334 . S
C2377 H2354 0.950 . S
C2377 C2376 1.334 . S
C2377 C2378 1.287 . S
C2378 C2377 1.287 . S
C2378 C2379 1.524 . S
C2378 H2397 0.913 . S
C2379 H2355 0.950 . S
C2379 C2378 1.524 . S
C2379 C2380 1.415 . S
C2380 H2356 0.950 . S
C2380 C2375 1.363 . S
C2380 C2379 1.415 . S
C2381 H2357 0.951 . S
C2381 C2382 1.366 . S
C2381 C2383 1.388 . S
C2382 C2381 1.366 . S
C2382 C2386 1.385 . S
C2383 H2358 0.951 . S
C2383 C2381 1.388 . S
C2383 C2384 1.366 . S
C2384 C2383 1.366 . S
C2384 C2385 1.414 . S
C2384 C2387 1.499 . S
C2385 H2359 0.950 . S
C2385 C2384 1.414 . S
C2385 C2386 1.374 . S
C2386 H2360 0.950 . S
C2386 C2382 1.385 . S
C2386 C2385 1.374 . S
C2387 C2384 1.499 . S
C2387 C2388 1.373 . S
C2387 C2389 1.389 . S
C2388 H2361 0.950 . S
C2388 C2374 1.377 . S
C2388 C2387 1.373 . S
C2389 C2373 1.377 . S
C2389 C2387 1.389 . S
C2389 C2390 1.524 . S
C2390 C2389 1.524 . S
C2390 C2391 1.397 . S
C2390 C2395 1.363 . S
C2391 H2362 0.950 . S
C2391 C2390 1.397 . S
C2391 C2392 1.334 . S
C2392 H2363 0.950 . S
C2392 C2391 1.334 . S
C2392 C2393 1.287 . S
C2393 C2392 1.287 . S
C2393 C2394 1.524 . S
C2393 H2396 0.999 . S
C2394 H2364 0.950 . S
C2394 C2393 1.524 . S
C2394 C2395 1.415 . S
C2395 H2365 0.950 . S
C2395 C2390 1.363 . S
C2395 C2394 1.415 . S
H2396 C2393 0.999 . S
H2397 C2378 0.913 . S
H2398 C2416 0.951 . S
H2399 C2418 0.951 . S
H2400 C2420 0.950 . S
H2401 C2421 0.950 . S
H2402 C2423 0.950 . S
H2403 C2426 0.950 . S
H2404 C2427 0.950 . S
H2405 C2429 0.950 . S
H2406 C2430 0.950 . S
H2407 C2431 0.951 . S
H2408 C2433 0.951 . S
H2409 C2435 0.950 . S
H2410 C2436 0.950 . S
H2411 C2438 0.950 . S
H2412 C2441 0.950 . S
H2413 C2442 0.950 . S
H2414 C2444 0.950 . S
H2415 C2445 0.950 . S
C2416 H2398 0.951 . S
C2416 C2417 1.366 . S
C2416 C2418 1.388 . S
C2417 C2416 1.366 . S
C2417 C2421 1.385 . S
C2418 H2399 0.951 . S
C2418 C2416 1.388 . S
C2418 C2419 1.366 . S
C2419 C2418 1.366 . S
C2419 C2420 1.414 . S
C2419 C2422 1.499 . S
C2420 H2400 0.950 . S
C2420 C2419 1.414 . S
C2420 C2421 1.374 . S
C2421 H2401 0.950 . S
C2421 C2417 1.385 . S
C2421 C2420 1.374 . S
C2422 C2419 1.499 . S
C2422 C2423 1.373 . S
C2422 C2424 1.389 . S
C2423 H2402 0.950 . S
C2423 C2422 1.373 . S
C2423 C2439 1.377 . S
C2424 C2422 1.389 . S
C2424 C2425 1.524 . S
C2424 C2438 1.377 . S
C2425 C2424 1.524 . S
C2425 C2426 1.397 . S
C2425 C2430 1.363 . S
C2426 H2403 0.950 . S
C2426 C2425 1.397 . S
C2426 C2427 1.334 . S
C2427 H2404 0.950 . S
C2427 C2426 1.334 . S
C2427 C2428 1.287 . S
C2428 C2427 1.287 . S
C2428 C2429 1.524 . S
C2428 H2447 0.913 . S
C2429 H2405 0.950 . S
C2429 C2428 1.524 . S
C2429 C2430 1.415 . S
C2430 H2406 0.950 . S
C2430 C2425 1.363 . S
C2430 C2429 1.415 . S
C2431 H2407 0.951 . S
C2431 C2432 1.366 . S
C2431 C2433 1.388 . S
C2432 C2431 1.366 . S
C2432 C2436 1.385 . S
C2433 H2408 0.951 . S
C2433 C2431 1.388 . S
C2433 C2434 1.366 . S
C2434 C2433 1.366 . S
C2434 C2435 1.414 . S
C2434 C2437 1.499 . S
C2435 H2409 0.950 . S
C2435 C2434 1.414 . S
C2435 C2436 1.374 . S
C2436 H2410 0.950 . S
C2436 C2432 1.385 . S
C2436 C2435 1.374 . S
C2437 C2434 1.499 . S
C2437 C2438 1.373 . S
C2437 C2439 1.389 . S
C2438 H2411 0.950 . S
C2438 C2424 1.377 . S
C2438 C2437 1.373 . S
C2439 C2423 1.377 . S
C2439 C2437 1.389 . S
C2439 C2440 1.524 . S
C2440 C2439 1.524 . S
C2440 C2441 1.397 . S
C2440 C2445 1.363 . S
C2441 H2412 0.950 . S
C2441 C2440 1.397 . S
C2441 C2442 1.334 . S
C2442 H2413 0.950 . S
C2442 C2441 1.334 . S
C2442 C2443 1.287 . S
C2443 C2442 1.287 . S
C2443 C2444 1.524 . S
C2443 H2446 0.999 . S
C2444 H2414 0.950 . S
C2444 C2443 1.524 . S
C2444 C2445 1.415 . S
C2445 H2415 0.950 . S
C2445 C2440 1.363 . S
C2445 C2444 1.415 . S
H2446 C2443 0.999 . S
H2447 C2428 0.913 . S
H2448 C2466 0.951 . S
H2449 C2468 0.951 . S
H2450 C2470 0.950 . S
H2451 C2471 0.950 . S
H2452 C2473 0.950 . S
H2453 C2476 0.950 . S
H2454 C2477 0.950 . S
H2455 C2479 0.950 . S
H2456 C2480 0.950 . S
H2457 C2481 0.951 . S
H2458 C2483 0.951 . S
H2459 C2485 0.950 . S
H2460 C2486 0.950 . S
H2461 C2488 0.950 . S
H2462 C2491 0.950 . S
H2463 C2492 0.950 . S
H2464 C2494 0.950 . S
H2465 C2495 0.950 . S
C2466 H2448 0.951 . S
C2466 C2467 1.366 . S
C2466 C2468 1.388 . S
C2467 C2466 1.366 . S
C2467 C2471 1.385 . S
C2468 H2449 0.951 . S
C2468 C2466 1.388 . S
C2468 C2469 1.366 . S
C2469 C2468 1.366 . S
C2469 C2470 1.414 . S
C2469 C2472 1.499 . S
C2470 H2450 0.950 . S
C2470 C2469 1.414 . S
C2470 C2471 1.374 . S
C2471 H2451 0.950 . S
C2471 C2467 1.385 . S
C2471 C2470 1.374 . S
C2472 C2469 1.499 . S
C2472 C2473 1.373 . S
C2472 C2474 1.390 1_545 S
C2473 H2452 0.950 . S
C2473 C2472 1.373 . S
C2473 C2489 1.377 . S
C2474 C2472 1.390 1_565 S
C2474 C2475 1.524 . S
C2474 C2488 1.376 . S
C2475 C2474 1.524 . S
C2475 C2476 1.365 1_565 S
C2475 C2480 1.396 . S
C2476 H2453 0.950 . S
C2476 C2475 1.365 1_545 S
C2476 C2477 1.334 . S
C2477 H2454 0.950 . S
C2477 C2476 1.334 . S
C2477 C2478 1.328 . S
C2478 C2477 1.328 . S
C2478 C2479 1.482 1_545 S
C2478 H2497 0.917 . S
C2479 H2455 0.950 . S
C2479 C2478 1.482 1_565 S
C2479 C2480 1.415 . S
C2480 H2456 0.950 . S
C2480 C2475 1.396 . S
C2480 C2479 1.415 . S
C2481 H2457 0.951 . S
C2481 C2482 1.366 . S
C2481 C2483 1.388 . S
C2482 C2481 1.366 . S
C2482 C2486 1.385 . S
C2483 H2458 0.951 . S
C2483 C2481 1.388 . S
C2483 C2484 1.366 . S
C2484 C2483 1.366 . S
C2484 C2485 1.414 . S
C2484 C2487 1.499 . S
C2485 H2459 0.950 . S
C2485 C2484 1.414 . S
C2485 C2486 1.374 . S
C2486 H2460 0.950 . S
C2486 C2482 1.385 . S
C2486 C2485 1.374 . S
C2487 C2484 1.499 . S
C2487 C2488 1.373 . S
C2487 C2489 1.389 1_565 S
C2488 H2461 0.950 . S
C2488 C2474 1.376 . S
C2488 C2487 1.373 . S
C2489 C2473 1.377 . S
C2489 C2487 1.389 1_545 S
C2489 C2490 1.524 . S
C2490 C2489 1.524 . S
C2490 C2491 1.364 1_545 S
C2490 C2495 1.397 . S
C2491 H2462 0.950 . S
C2491 C2490 1.364 1_565 S
C2491 C2492 1.334 . S
C2492 H2463 0.950 . S
C2492 C2491 1.334 . S
C2492 C2493 1.327 . S
C2493 C2492 1.327 . S
C2493 C2494 1.483 1_565 S
C2493 H2496 0.999 . S
C2494 H2464 0.950 . S
C2494 C2493 1.483 1_545 S
C2494 C2495 1.415 . S
C2495 H2465 0.950 . S
C2495 C2490 1.397 . S
C2495 C2494 1.415 . S
H2496 C2493 0.999 . S
H2497 C2478 0.917 . S
H2498 C2516 0.951 . S
H2499 C2518 0.951 . S
H2500 C2520 0.950 . S
H2501 C2521 0.950 . S
H2502 C2523 0.950 . S
H2503 C2526 0.950 . S
H2504 C2527 0.950 . S
H2505 C2529 0.950 . S
H2506 C2530 0.950 . S
H2507 C2531 0.951 . S
H2508 C2533 0.951 . S
H2509 C2535 0.950 . S
H2510 C2536 0.950 . S
H2511 C2538 0.950 . S
H2512 C2541 0.950 . S
H2513 C2542 0.950 . S
H2514 C2544 0.950 . S
H2515 C2545 0.950 . S
C2516 H2498 0.951 . S
C2516 C2517 1.366 . S
C2516 C2518 1.388 . S
C2517 C2516 1.366 . S
C2517 C2521 1.385 . S
C2518 H2499 0.951 . S
C2518 C2516 1.388 . S
C2518 C2519 1.366 . S
C2519 C2518 1.366 . S
C2519 C2520 1.414 . S
C2519 C2522 1.499 . S
C2520 H2500 0.950 . S
C2520 C2519 1.414 . S
C2520 C2521 1.374 . S
C2521 H2501 0.950 . S
C2521 C2517 1.385 . S
C2521 C2520 1.374 . S
C2522 C2519 1.499 . S
C2522 C2523 1.373 . S
C2522 C2524 1.389 . S
C2523 H2502 0.950 . S
C2523 C2522 1.373 . S
C2523 C2539 1.377 . S
C2524 C2522 1.389 . S
C2524 C2525 1.524 . S
C2524 C2538 1.377 . S
C2525 C2524 1.524 . S
C2525 C2526 1.397 . S
C2525 C2530 1.363 . S
C2526 H2503 0.950 . S
C2526 C2525 1.397 . S
C2526 C2527 1.334 . S
C2527 H2504 0.950 . S
C2527 C2526 1.334 . S
C2527 C2528 1.287 . S
C2528 C2527 1.287 . S
C2528 C2529 1.524 . S
C2528 H2547 0.913 . S
C2529 H2505 0.950 . S
C2529 C2528 1.524 . S
C2529 C2530 1.415 . S
C2530 H2506 0.950 . S
C2530 C2525 1.363 . S
C2530 C2529 1.415 . S
C2531 H2507 0.951 . S
C2531 C2532 1.366 . S
C2531 C2533 1.388 . S
C2532 C2531 1.366 . S
C2532 C2536 1.385 . S
C2533 H2508 0.951 . S
C2533 C2531 1.388 . S
C2533 C2534 1.366 . S
C2534 C2533 1.366 . S
C2534 C2535 1.414 . S
C2534 C2537 1.499 . S
C2535 H2509 0.950 . S
C2535 C2534 1.414 . S
C2535 C2536 1.374 . S
C2536 H2510 0.950 . S
C2536 C2532 1.385 . S
C2536 C2535 1.374 . S
C2537 C2534 1.499 . S
C2537 C2538 1.373 . S
C2537 C2539 1.389 . S
C2538 H2511 0.950 . S
C2538 C2524 1.377 . S
C2538 C2537 1.373 . S
C2539 C2523 1.377 . S
C2539 C2537 1.389 . S
C2539 C2540 1.524 . S
C2540 C2539 1.524 . S
C2540 C2541 1.397 . S
C2540 C2545 1.363 . S
C2541 H2512 0.950 . S
C2541 C2540 1.397 . S
C2541 C2542 1.334 . S
C2542 H2513 0.950 . S
C2542 C2541 1.334 . S
C2542 C2543 1.287 . S
C2543 C2542 1.287 . S
C2543 C2544 1.524 . S
C2543 H2546 0.999 . S
C2544 H2514 0.950 . S
C2544 C2543 1.524 . S
C2544 C2545 1.415 . S
C2545 H2515 0.950 . S
C2545 C2540 1.363 . S
C2545 C2544 1.415 . S
H2546 C2543 0.999 . S
H2547 C2528 0.913 . S
H2548 C2566 0.951 . S
H2549 C2568 0.951 . S
H2550 C2570 0.950 . S
H2551 C2571 0.950 . S
H2552 C2573 0.954 . S
H2553 C2576 0.950 . S
H2554 C2577 0.950 . S
H2555 C2579 0.950 . S
H2556 C2580 0.950 . S
H2557 C2581 0.951 . S
H2558 C2583 0.951 . S
H2559 C2585 0.950 . S
H2560 C2586 0.950 . S
H2561 C2588 0.954 . S
H2562 C2591 0.950 . S
H2563 C2592 0.950 . S
H2564 C2594 0.950 . S
H2565 C2595 0.950 . S
C2566 H2548 0.951 . S
C2566 C2567 1.366 . S
C2566 C2568 1.388 . S
C2567 C2566 1.366 . S
C2567 C2571 1.385 . S
C2568 H2549 0.951 . S
C2568 C2566 1.388 . S
C2568 C2569 1.366 . S
C2569 C2568 1.366 . S
C2569 C2570 1.414 . S
C2569 C2572 1.499 . S
C2570 H2550 0.950 . S
C2570 C2569 1.414 . S
C2570 C2571 1.374 . S
C2571 H2551 0.950 . S
C2571 C2567 1.385 . S
C2571 C2570 1.374 . S
C2572 C2569 1.499 . S
C2572 C2573 1.415 . S
C2572 C2574 1.316 1_554 S
C2573 H2552 0.954 . S
C2573 C2572 1.415 . S
C2573 C2589 1.405 1_565 S
C2574 C2572 1.316 1_556 S
C2574 C2575 1.546 . S
C2574 C2588 1.403 1_565 S
C2575 C2574 1.546 . S
C2575 C2576 1.397 . S
C2575 C2580 1.363 . S
C2576 H2553 0.950 . S
C2576 C2575 1.397 . S
C2576 C2577 1.334 . S
C2577 H2554 0.950 . S
C2577 C2576 1.334 . S
C2577 C2578 1.287 . S
C2578 C2577 1.287 . S
C2578 C2579 1.524 . S
C2578 H2597 0.913 . S
C2579 H2555 0.950 . S
C2579 C2578 1.524 . S
C2579 C2580 1.415 . S
C2580 H2556 0.950 . S
C2580 C2575 1.363 . S
C2580 C2579 1.415 . S
C2581 H2557 0.951 . S
C2581 C2582 1.366 . S
C2581 C2583 1.388 . S
C2582 C2581 1.366 . S
C2582 C2586 1.385 . S
C2583 H2558 0.951 . S
C2583 C2581 1.388 . S
C2583 C2584 1.366 . S
C2584 C2583 1.366 . S
C2584 C2585 1.414 . S
C2584 C2587 1.499 . S
C2585 H2559 0.950 . S
C2585 C2584 1.414 . S
C2585 C2586 1.374 . S
C2586 H2560 0.950 . S
C2586 C2582 1.385 . S
C2586 C2585 1.374 . S
C2587 C2584 1.499 . S
C2587 C2588 1.416 . S
C2587 C2589 1.315 1_556 S
C2588 H2561 0.954 . S
C2588 C2574 1.403 1_545 S
C2588 C2587 1.416 . S
C2589 C2573 1.405 1_545 S
C2589 C2587 1.315 1_554 S
C2589 C2590 1.547 . S
C2590 C2589 1.547 . S
C2590 C2591 1.397 . S
C2590 C2595 1.363 . S
C2591 H2562 0.950 . S
C2591 C2590 1.397 . S
C2591 C2592 1.334 . S
C2592 H2563 0.950 . S
C2592 C2591 1.334 . S
C2592 C2593 1.287 . S
C2593 C2592 1.287 . S
C2593 C2594 1.524 . S
C2593 H2596 0.999 . S
C2594 H2564 0.950 . S
C2594 C2593 1.524 . S
C2594 C2595 1.415 . S
C2595 H2565 0.950 . S
C2595 C2590 1.363 . S
C2595 C2594 1.415 . S
H2596 C2593 0.999 . S
H2597 C2578 0.913 . S
H2598 C2616 0.951 . S
H2599 C2618 0.951 . S
H2600 C2620 0.950 . S
H2601 C2621 0.950 . S
H2602 C2623 0.950 . S
H2603 C2626 0.950 . S
H2604 C2627 0.950 . S
H2605 C2629 0.950 . S
H2606 C2630 0.950 . S
H2607 C2631 0.951 . S
H2608 C2633 0.951 . S
H2609 C2635 0.950 . S
H2610 C2636 0.950 . S
H2611 C2638 0.950 . S
H2612 C2641 0.950 . S
H2613 C2642 0.950 . S
H2614 C2644 0.950 . S
H2615 C2645 0.950 . S
C2616 H2598 0.951 . S
C2616 C2617 1.366 . S
C2616 C2618 1.388 . S
C2617 C2616 1.366 . S
C2617 C2621 1.385 . S
C2618 H2599 0.951 . S
C2618 C2616 1.388 . S
C2618 C2619 1.366 . S
C2619 C2618 1.366 . S
C2619 C2620 1.414 . S
C2619 C2622 1.499 . S
C2620 H2600 0.950 . S
C2620 C2619 1.414 . S
C2620 C2621 1.374 . S
C2621 H2601 0.950 . S
C2621 C2617 1.385 . S
C2621 C2620 1.374 . S
C2622 C2619 1.499 . S
C2622 C2623 1.373 . S
C2622 C2624 1.389 . S
C2623 H2602 0.950 . S
C2623 C2622 1.373 . S
C2623 C2639 1.377 . S
C2624 C2622 1.389 . S
C2624 C2625 1.524 . S
C2624 C2638 1.377 . S
C2625 C2624 1.524 . S
C2625 C2626 1.397 . S
C2625 C2630 1.363 . S
C2626 H2603 0.950 . S
C2626 C2625 1.397 . S
C2626 C2627 1.334 . S
C2627 H2604 0.950 . S
C2627 C2626 1.334 . S
C2627 C2628 1.287 . S
C2628 C2627 1.287 . S
C2628 C2629 1.524 . S
C2628 H2647 0.913 . S
C2629 H2605 0.950 . S
C2629 C2628 1.524 . S
C2629 C2630 1.415 . S
C2630 H2606 0.950 . S
C2630 C2625 1.363 . S
C2630 C2629 1.415 . S
C2631 H2607 0.951 . S
C2631 C2632 1.366 . S
C2631 C2633 1.388 . S
C2632 C2631 1.366 . S
C2632 C2636 1.385 . S
C2633 H2608 0.951 . S
C2633 C2631 1.388 . S
C2633 C2634 1.366 . S
C2634 C2633 1.366 . S
C2634 C2635 1.414 . S
C2634 C2637 1.499 . S
C2635 H2609 0.950 . S
C2635 C2634 1.414 . S
C2635 C2636 1.374 . S
C2636 H2610 0.950 . S
C2636 C2632 1.385 . S
C2636 C2635 1.374 . S
C2637 C2634 1.499 . S
C2637 C2638 1.373 . S
C2637 C2639 1.389 . S
C2638 H2611 0.950 . S
C2638 C2624 1.377 . S
C2638 C2637 1.373 . S
C2639 C2623 1.377 . S
C2639 C2637 1.389 . S
C2639 C2640 1.524 . S
C2640 C2639 1.524 . S
C2640 C2641 1.397 . S
C2640 C2645 1.363 . S
C2641 H2612 0.950 . S
C2641 C2640 1.397 . S
C2641 C2642 1.334 . S
C2642 H2613 0.950 . S
C2642 C2641 1.334 . S
C2642 C2643 1.287 . S
C2643 C2642 1.287 . S
C2643 C2644 1.524 . S
C2643 H2646 0.999 . S
C2644 H2614 0.950 . S
C2644 C2643 1.524 . S
C2644 C2645 1.415 . S
C2645 H2615 0.950 . S
C2645 C2640 1.363 . S
C2645 C2644 1.415 . S
H2646 C2643 0.999 . S
H2647 C2628 0.913 . S
H2648 C2666 0.951 . S
H2649 C2668 0.951 . S
H2650 C2670 0.950 . S
H2651 C2671 0.950 . S
H2652 C2673 0.950 . S
H2653 C2676 0.950 . S
H2654 C2677 0.950 . S
H2655 C2679 0.950 . S
H2656 C2680 0.950 . S
H2657 C2681 0.951 . S
H2658 C2683 0.951 . S
H2659 C2685 0.950 . S
H2660 C2686 0.950 . S
H2661 C2688 0.950 . S
H2662 C2691 0.950 . S
H2663 C2692 0.950 . S
H2664 C2694 0.950 . S
H2665 C2695 0.950 . S
C2666 H2648 0.951 . S
C2666 C2667 1.366 . S
C2666 C2668 1.388 . S
C2667 C2666 1.366 . S
C2667 C2671 1.385 . S
C2668 H2649 0.951 . S
C2668 C2666 1.388 . S
C2668 C2669 1.366 . S
C2669 C2668 1.366 . S
C2669 C2670 1.414 . S
C2669 C2672 1.499 . S
C2670 H2650 0.950 . S
C2670 C2669 1.414 . S
C2670 C2671 1.374 . S
C2671 H2651 0.950 . S
C2671 C2667 1.385 . S
C2671 C2670 1.374 . S
C2672 C2669 1.499 . S
C2672 C2673 1.373 1_545 S
C2672 C2674 1.389 . S
C2673 H2652 0.950 . S
C2673 C2672 1.373 1_565 S
C2673 C2689 1.377 . S
C2674 C2672 1.389 . S
C2674 C2675 1.524 . S
C2674 C2688 1.377 . S
C2675 C2674 1.524 . S
C2675 C2676 1.397 . S
C2675 C2680 1.363 . S
C2676 H2653 0.950 . S
C2676 C2675 1.397 . S
C2676 C2677 1.334 . S
C2677 H2654 0.950 . S
C2677 C2676 1.334 . S
C2677 C2678 1.287 . S
C2678 C2677 1.287 . S
C2678 C2679 1.524 . S
C2678 H2697 0.913 . S
C2679 H2655 0.950 . S
C2679 C2678 1.524 . S
C2679 C2680 1.415 . S
C2680 H2656 0.950 . S
C2680 C2675 1.363 . S
C2680 C2679 1.415 . S
C2681 H2657 0.951 . S
C2681 C2682 1.366 . S
C2681 C2683 1.388 . S
C2682 C2681 1.366 . S
C2682 C2686 1.385 . S
C2683 H2658 0.951 . S
C2683 C2681 1.388 . S
C2683 C2684 1.366 . S
C2684 C2683 1.366 . S
C2684 C2685 1.414 . S
C2684 C2687 1.499 . S
C2685 H2659 0.950 . S
C2685 C2684 1.414 . S
C2685 C2686 1.374 . S
C2686 H2660 0.950 . S
C2686 C2682 1.385 . S
C2686 C2685 1.374 . S
C2687 C2684 1.499 . S
C2687 C2688 1.373 1_565 S
C2687 C2689 1.389 . S
C2688 H2661 0.950 . S
C2688 C2674 1.377 . S
C2688 C2687 1.373 1_545 S
C2689 C2673 1.377 . S
C2689 C2687 1.389 . S
C2689 C2690 1.524 . S
C2690 C2689 1.524 . S
C2690 C2691 1.397 . S
C2690 C2695 1.363 . S
C2691 H2662 0.950 . S
C2691 C2690 1.397 . S
C2691 C2692 1.334 . S
C2692 H2663 0.950 . S
C2692 C2691 1.334 . S
C2692 C2693 1.287 . S
C2693 C2692 1.287 . S
C2693 C2694 1.524 . S
C2693 H2696 0.999 . S
C2694 H2664 0.950 . S
C2694 C2693 1.524 . S
C2694 C2695 1.415 . S
C2695 H2665 0.950 . S
C2695 C2690 1.363 . S
C2695 C2694 1.415 . S
H2696 C2693 0.999 . S
H2697 C2678 0.913 . S
H2698 C2716 0.951 . S
H2699 C2718 0.951 . S
H2700 C2720 0.950 . S
H2701 C2721 0.950 . S
H2702 C2723 0.950 . S
H2703 C2726 0.950 . S
H2704 C2727 0.950 . S
H2705 C2729 0.950 . S
H2706 C2730 0.950 . S
H2707 C2731 0.951 . S
H2708 C2733 0.951 . S
H2709 C2735 0.950 . S
H2710 C2736 0.950 . S
H2711 C2738 0.950 . S
H2712 C2741 0.950 . S
H2713 C2742 0.950 . S
H2714 C2744 0.950 . S
H2715 C2745 0.950 . S
C2716 H2698 0.951 . S
C2716 C2717 1.366 . S
C2716 C2718 1.388 . S
C2717 C2716 1.366 . S
C2717 C2721 1.385 . S
C2718 H2699 0.951 . S
C2718 C2716 1.388 . S
C2718 C2719 1.366 . S
C2719 C2718 1.366 . S
C2719 C2720 1.414 . S
C2719 C2722 1.499 . S
C2720 H2700 0.950 . S
C2720 C2719 1.414 . S
C2720 C2721 1.374 . S
C2721 H2701 0.950 . S
C2721 C2717 1.385 . S
C2721 C2720 1.374 . S
C2722 C2719 1.499 . S
C2722 C2723 1.373 . S
C2722 C2724 1.389 . S
C2723 H2702 0.950 . S
C2723 C2722 1.373 . S
C2723 C2739 1.377 . S
C2724 C2722 1.389 . S
C2724 C2725 1.524 . S
C2724 C2738 1.377 . S
C2725 C2724 1.524 . S
C2725 C2726 1.397 . S
C2725 C2730 1.363 . S
C2726 H2703 0.950 . S
C2726 C2725 1.397 . S
C2726 C2727 1.334 . S
C2727 H2704 0.950 . S
C2727 C2726 1.334 . S
C2727 C2728 1.287 . S
C2728 C2727 1.287 . S
C2728 C2729 1.524 . S
C2728 H2747 0.913 . S
C2729 H2705 0.950 . S
C2729 C2728 1.524 . S
C2729 C2730 1.415 . S
C2730 H2706 0.950 . S
C2730 C2725 1.363 . S
C2730 C2729 1.415 . S
C2731 H2707 0.951 . S
C2731 C2732 1.366 . S
C2731 C2733 1.388 . S
C2732 C2731 1.366 . S
C2732 C2736 1.385 . S
C2733 H2708 0.951 . S
C2733 C2731 1.388 . S
C2733 C2734 1.366 . S
C2734 C2733 1.366 . S
C2734 C2735 1.414 . S
C2734 C2737 1.499 . S
C2735 H2709 0.950 . S
C2735 C2734 1.414 . S
C2735 C2736 1.374 . S
C2736 H2710 0.950 . S
C2736 C2732 1.385 . S
C2736 C2735 1.374 . S
C2737 C2734 1.499 . S
C2737 C2738 1.373 . S
C2737 C2739 1.389 . S
C2738 H2711 0.950 . S
C2738 C2724 1.377 . S
C2738 C2737 1.373 . S
C2739 C2723 1.377 . S
C2739 C2737 1.389 . S
C2739 C2740 1.524 . S
C2740 C2739 1.524 . S
C2740 C2741 1.397 . S
C2740 C2745 1.363 . S
C2741 H2712 0.950 . S
C2741 C2740 1.397 . S
C2741 C2742 1.334 . S
C2742 H2713 0.950 . S
C2742 C2741 1.334 . S
C2742 C2743 1.287 . S
C2743 C2742 1.287 . S
C2743 C2744 1.524 . S
C2743 H2746 0.999 . S
C2744 H2714 0.950 . S
C2744 C2743 1.524 . S
C2744 C2745 1.415 . S
C2745 H2715 0.950 . S
C2745 C2740 1.363 . S
C2745 C2744 1.415 . S
H2746 C2743 0.999 . S
H2747 C2728 0.913 . S
H2748 C2766 0.951 . S
H2749 C2768 0.951 . S
H2750 C2770 0.950 . S
H2751 C2771 0.950 . S
H2752 C2773 0.950 . S
H2753 C2776 0.950 . S
H2754 C2777 0.950 . S
H2755 C2779 0.950 . S
H2756 C2780 0.950 . S
H2757 C2781 0.951 . S
H2758 C2783 0.951 . S
H2759 C2785 0.950 . S
H2760 C2786 0.950 . S
H2761 C2788 0.950 . S
H2762 C2791 0.950 . S
H2763 C2792 0.950 . S
H2764 C2794 0.950 . S
H2765 C2795 0.950 . S
C2766 H2748 0.951 . S
C2766 C2767 1.366 . S
C2766 C2768 1.388 . S
C2767 C2766 1.366 . S
C2767 C2771 1.385 . S
C2768 H2749 0.951 . S
C2768 C2766 1.388 . S
C2768 C2769 1.366 . S
C2769 C2768 1.366 . S
C2769 C2770 1.414 . S
C2769 C2772 1.499 . S
C2770 H2750 0.950 . S
C2770 C2769 1.414 . S
C2770 C2771 1.374 . S
C2771 H2751 0.950 . S
C2771 C2767 1.385 . S
C2771 C2770 1.374 . S
C2772 C2769 1.499 . S
C2772 C2773 1.382 . S
C2772 C2774 1.389 . S
C2773 H2752 0.950 . S
C2773 C2772 1.382 . S
C2773 C2789 1.368 1_564 S
C2774 C2772 1.389 . S
C2774 C2775 1.524 . S
C2774 C2788 1.368 1_564 S
C2775 C2774 1.524 . S
C2775 C2776 1.397 . S
C2775 C2780 1.363 1_565 S
C2776 H2753 0.950 . S
C2776 C2775 1.397 . S
C2776 C2777 1.334 . S
C2777 H2754 0.950 . S
C2777 C2776 1.334 . S
C2777 C2778 1.287 . S
C2778 C2777 1.287 . S
C2778 C2779 1.524 1_565 S
C2778 H2797 0.913 . S
C2779 H2755 0.950 . S
C2779 C2778 1.524 1_545 S
C2779 C2780 1.415 . S
C2780 H2756 0.950 . S
C2780 C2775 1.363 1_545 S
C2780 C2779 1.415 . S
C2781 H2757 0.951 . S
C2781 C2782 1.366 . S
C2781 C2783 1.388 . S
C2782 C2781 1.366 . S
C2782 C2786 1.385 . S
C2783 H2758 0.951 . S
C2783 C2781 1.388 . S
C2783 C2784 1.366 . S
C2784 C2783 1.366 . S
C2784 C2785 1.414 . S
C2784 C2787 1.499 . S
C2785 H2759 0.950 . S
C2785 C2784 1.414 . S
C2785 C2786 1.374 . S
C2786 H2760 0.950 . S
C2786 C2782 1.385 . S
C2786 C2785 1.374 . S
C2787 C2784 1.499 . S
C2787 C2788 1.382 . S
C2787 C2789 1.389 . S
C2788 H2761 0.950 . S
C2788 C2774 1.368 1_546 S
C2788 C2787 1.382 . S
C2789 C2773 1.368 1_546 S
C2789 C2787 1.389 . S
C2789 C2790 1.524 . S
C2790 C2789 1.524 . S
C2790 C2791 1.397 . S
C2790 C2795 1.363 1_545 S
C2791 H2762 0.950 . S
C2791 C2790 1.397 . S
C2791 C2792 1.334 . S
C2792 H2763 0.950 . S
C2792 C2791 1.334 . S
C2792 C2793 1.287 . S
C2793 C2792 1.287 . S
C2793 C2794 1.524 1_545 S
C2793 H2796 0.999 . S
C2794 H2764 0.950 . S
C2794 C2793 1.524 1_565 S
C2794 C2795 1.415 . S
C2795 H2765 0.950 . S
C2795 C2790 1.363 1_565 S
C2795 C2794 1.415 . S
H2796 C2793 0.999 . S
H2797 C2778 0.913 . S
H2798 C2816 0.951 . S
H2799 C2818 0.951 . S
H2800 C2820 0.950 . S
H2801 C2821 0.950 . S
H2802 C2823 0.950 . S
H2803 C2826 0.950 . S
H2804 C2827 0.950 . S
H2805 C2829 0.950 . S
H2806 C2830 0.950 . S
H2807 C2831 0.951 . S
H2808 C2833 0.951 . S
H2809 C2835 0.950 . S
H2810 C2836 0.950 . S
H2811 C2838 0.950 . S
H2812 C2841 0.950 . S
H2813 C2842 0.950 . S
H2814 C2844 0.950 . S
H2815 C2845 0.950 . S
C2816 H2798 0.951 . S
C2816 C2817 1.366 . S
C2816 C2818 1.388 . S
C2817 C2816 1.366 . S
C2817 C2821 1.385 . S
C2818 H2799 0.951 . S
C2818 C2816 1.388 . S
C2818 C2819 1.366 . S
C2819 C2818 1.366 . S
C2819 C2820 1.414 . S
C2819 C2822 1.499 . S
C2820 H2800 0.950 . S
C2820 C2819 1.414 . S
C2820 C2821 1.374 . S
C2821 H2801 0.950 . S
C2821 C2817 1.385 . S
C2821 C2820 1.374 . S
C2822 C2819 1.499 . S
C2822 C2823 1.373 . S
C2822 C2824 1.389 . S
C2823 H2802 0.950 . S
C2823 C2822 1.373 . S
C2823 C2839 1.377 . S
C2824 C2822 1.389 . S
C2824 C2825 1.524 . S
C2824 C2838 1.377 . S
C2825 C2824 1.524 . S
C2825 C2826 1.397 . S
C2825 C2830 1.363 . S
C2826 H2803 0.950 . S
C2826 C2825 1.397 . S
C2826 C2827 1.334 . S
C2827 H2804 0.950 . S
C2827 C2826 1.334 . S
C2827 C2828 1.287 . S
C2828 C2827 1.287 . S
C2828 C2829 1.524 . S
C2828 H2847 0.913 . S
C2829 H2805 0.950 . S
C2829 C2828 1.524 . S
C2829 C2830 1.415 . S
C2830 H2806 0.950 . S
C2830 C2825 1.363 . S
C2830 C2829 1.415 . S
C2831 H2807 0.951 . S
C2831 C2832 1.366 . S
C2831 C2833 1.388 . S
C2832 C2831 1.366 . S
C2832 C2836 1.385 . S
C2833 H2808 0.951 . S
C2833 C2831 1.388 . S
C2833 C2834 1.366 . S
C2834 C2833 1.366 . S
C2834 C2835 1.414 . S
C2834 C2837 1.499 . S
C2835 H2809 0.950 . S
C2835 C2834 1.414 . S
C2835 C2836 1.374 . S
C2836 H2810 0.950 . S
C2836 C2832 1.385 . S
C2836 C2835 1.374 . S
C2837 C2834 1.499 . S
C2837 C2838 1.373 . S
C2837 C2839 1.389 . S
C2838 H2811 0.950 . S
C2838 C2824 1.377 . S
C2838 C2837 1.373 . S
C2839 C2823 1.377 . S
C2839 C2837 1.389 . S
C2839 C2840 1.524 . S
C2840 C2839 1.524 . S
C2840 C2841 1.397 . S
C2840 C2845 1.363 . S
C2841 H2812 0.950 . S
C2841 C2840 1.397 . S
C2841 C2842 1.334 . S
C2842 H2813 0.950 . S
C2842 C2841 1.334 . S
C2842 C2843 1.287 . S
C2843 C2842 1.287 . S
C2843 C2844 1.524 . S
C2843 H2846 0.999 . S
C2844 H2814 0.950 . S
C2844 C2843 1.524 . S
C2844 C2845 1.415 . S
C2845 H2815 0.950 . S
C2845 C2840 1.363 . S
C2845 C2844 1.415 . S
H2846 C2843 0.999 . S
H2847 C2828 0.913 . S
H2848 C2866 0.951 . S
H2849 C2868 0.951 . S
H2850 C2870 0.950 . S
H2851 C2871 0.950 . S
H2852 C2873 0.950 . S
H2853 C2876 0.950 . S
H2854 C2877 0.950 . S
H2855 C2879 0.950 . S
H2856 C2880 0.950 . S
H2857 C2881 0.951 . S
H2858 C2883 0.951 . S
H2859 C2885 0.950 . S
H2860 C2886 0.950 . S
H2861 C2888 0.950 . S
H2862 C2891 0.950 . S
H2863 C2892 0.950 . S
H2864 C2894 1.042 . S
H2865 C2895 0.950 . S
C2866 H2848 0.951 . S
C2866 C2867 1.366 . S
C2866 C2868 1.388 . S
C2867 C2866 1.366 . S
C2867 C2871 1.385 . S
C2868 H2849 0.951 . S
C2868 C2866 1.388 . S
C2868 C2869 1.366 . S
C2869 C2868 1.366 . S
C2869 C2870 1.414 . S
C2869 C2872 1.499 . S
C2870 H2850 0.950 . S
C2870 C2869 1.414 . S
C2870 C2871 1.374 . S
C2871 H2851 0.950 . S
C2871 C2867 1.385 . S
C2871 C2870 1.374 . S
C2872 C2869 1.499 . S
C2872 C2873 1.373 . S
C2872 C2874 1.389 . S
C2873 H2852 0.950 . S
C2873 C2872 1.373 . S
C2873 C2889 1.377 . S
C2874 C2872 1.389 . S
C2874 C2875 1.524 . S
C2874 C2888 1.377 . S
C2875 C2874 1.524 . S
C2875 C2876 1.397 . S
C2875 C2880 1.363 . S
C2876 H2853 0.950 . S
C2876 C2875 1.397 . S
C2876 C2877 1.334 . S
C2877 H2854 0.950 . S
C2877 C2876 1.334 . S
C2877 C2878 1.287 . S
C2878 C2877 1.287 . S
C2878 C2879 1.524 . S
C2878 H2897 0.913 . S
C2879 H2855 0.950 . S
C2879 C2878 1.524 . S
C2879 C2880 1.415 . S
C2880 H2856 0.950 . S
C2880 C2875 1.363 . S
C2880 C2879 1.415 . S
C2881 H2857 0.951 . S
C2881 C2882 1.366 . S
C2881 C2883 1.388 . S
C2882 C2881 1.366 . S
C2882 C2886 1.385 . S
C2883 H2858 0.951 . S
C2883 C2881 1.388 . S
C2883 C2884 1.366 . S
C2884 C2883 1.366 . S
C2884 C2885 1.414 . S
C2884 C2887 1.499 . S
C2885 H2859 0.950 . S
C2885 C2884 1.414 . S
C2885 C2886 1.374 . S
C2886 H2860 0.950 . S
C2886 C2882 1.385 . S
C2886 C2885 1.374 . S
C2887 C2884 1.499 . S
C2887 C2888 1.373 . S
C2887 C2889 1.389 . S
C2888 H2861 0.950 . S
C2888 C2874 1.377 . S
C2888 C2887 1.373 . S
C2889 C2873 1.377 . S
C2889 C2887 1.389 . S
C2889 C2890 1.524 . S
C2890 C2889 1.524 . S
C2890 C2891 1.397 . S
C2890 C2895 1.363 . S
C2891 H2862 0.950 . S
C2891 C2890 1.397 . S
C2891 C2892 1.334 . S
C2892 H2863 0.950 . S
C2892 C2891 1.334 . S
C2892 C2893 1.287 . S
C2893 C2892 1.287 . S
C2893 C2894 1.524 . S
C2893 H2896 0.999 . S
C2894 H2864 1.042 . S
C2894 C2893 1.524 . S
C2894 C2895 1.415 . S
C2895 H2865 0.950 . S
C2895 C2890 1.363 . S
C2895 C2894 1.415 . S
H2896 C2893 0.999 . S
H2897 C2878 0.913 . S
H2898 C2916 0.951 . S
H2899 C2918 0.951 . S
H2900 C2920 0.950 . S
H2901 C2921 0.950 . S
H2902 C2923 0.950 . S
H2903 C2926 0.950 . S
H2904 C2927 0.950 . S
H2905 C2929 0.950 . S
H2906 C2930 0.950 . S
H2907 C2931 0.951 . S
H2908 C2933 0.951 . S
H2909 C2935 0.950 . S
H2910 C2936 0.950 . S
H2911 C2938 0.950 . S
H2912 C2941 0.950 . S
H2913 C2942 0.950 . S
H2914 C2944 0.950 . S
H2915 C2945 0.950 . S
C2916 H2898 0.951 . S
C2916 C2917 1.366 . S
C2916 C2918 1.388 . S
C2917 C2916 1.366 . S
C2917 C2921 1.385 . S
C2918 H2899 0.951 . S
C2918 C2916 1.388 . S
C2918 C2919 1.366 . S
C2919 C2918 1.366 . S
C2919 C2920 1.414 . S
C2919 C2922 1.499 . S
C2920 H2900 0.950 . S
C2920 C2919 1.414 . S
C2920 C2921 1.374 . S
C2921 H2901 0.950 . S
C2921 C2917 1.385 . S
C2921 C2920 1.374 . S
C2922 C2919 1.499 . S
C2922 C2923 1.373 . S
C2922 C2924 1.389 . S
C2923 H2902 0.950 . S
C2923 C2922 1.373 . S
C2923 C2939 1.377 . S
C2924 C2922 1.389 . S
C2924 C2925 1.524 . S
C2924 C2938 1.377 . S
C2925 C2924 1.524 . S
C2925 C2926 1.397 . S
C2925 C2930 1.363 . S
C2926 H2903 0.950 . S
C2926 C2925 1.397 . S
C2926 C2927 1.334 . S
C2927 H2904 0.950 . S
C2927 C2926 1.334 . S
C2927 C2928 1.287 . S
C2928 C2927 1.287 . S
C2928 C2929 1.524 . S
C2928 H2947 0.913 . S
C2929 H2905 0.950 . S
C2929 C2928 1.524 . S
C2929 C2930 1.415 . S
C2930 H2906 0.950 . S
C2930 C2925 1.363 . S
C2930 C2929 1.415 . S
C2931 H2907 0.951 . S
C2931 C2932 1.366 . S
C2931 C2933 1.388 . S
C2932 C2931 1.366 . S
C2932 C2936 1.385 . S
C2933 H2908 0.951 . S
C2933 C2931 1.388 . S
C2933 C2934 1.366 . S
C2934 C2933 1.366 . S
C2934 C2935 1.414 . S
C2934 C2937 1.499 . S
C2935 H2909 0.950 . S
C2935 C2934 1.414 . S
C2935 C2936 1.374 . S
C2936 H2910 0.950 . S
C2936 C2932 1.385 . S
C2936 C2935 1.374 . S
C2937 C2934 1.499 . S
C2937 C2938 1.373 . S
C2937 C2939 1.389 . S
C2938 H2911 0.950 . S
C2938 C2924 1.377 . S
C2938 C2937 1.373 . S
C2939 C2923 1.377 . S
C2939 C2937 1.389 . S
C2939 C2940 1.524 . S
C2940 C2939 1.524 . S
C2940 C2941 1.397 . S
C2940 C2945 1.363 . S
C2941 H2912 0.950 . S
C2941 C2940 1.397 . S
C2941 C2942 1.334 . S
C2942 H2913 0.950 . S
C2942 C2941 1.334 . S
C2942 C2943 1.287 . S
C2943 C2942 1.287 . S
C2943 C2944 1.524 . S
C2943 H2946 0.999 . S
C2944 H2914 0.950 . S
C2944 C2943 1.524 . S
C2944 C2945 1.415 . S
C2945 H2915 0.950 . S
C2945 C2940 1.363 . S
C2945 C2944 1.415 . S
H2946 C2943 0.999 . S
H2947 C2928 0.913 . S
H2948 C2966 0.951 . S
H2949 C2968 0.951 . S
H2950 C2970 0.950 . S
H2951 C2971 0.950 . S
H2952 C2973 0.950 . S
H2953 C2976 0.950 . S
H2954 C2977 0.950 . S
H2955 C2979 0.950 . S
H2956 C2980 0.950 . S
H2957 C2981 0.951 . S
H2958 C2983 0.951 . S
H2959 C2985 0.950 . S
H2960 C2986 0.950 . S
H2961 C2988 0.950 . S
H2962 C2991 0.950 . S
H2963 C2992 0.950 . S
H2964 C2994 0.950 . S
H2965 C2995 0.950 . S
C2966 H2948 0.951 . S
C2966 C2967 1.366 . S
C2966 C2968 1.388 . S
C2967 C2966 1.366 . S
C2967 C2971 1.385 . S
C2968 H2949 0.951 . S
C2968 C2966 1.388 . S
C2968 C2969 1.366 . S
C2969 C2968 1.366 . S
C2969 C2970 1.414 . S
C2969 C2972 1.499 . S
C2970 H2950 0.950 . S
C2970 C2969 1.414 . S
C2970 C2971 1.374 . S
C2971 H2951 0.950 . S
C2971 C2967 1.385 . S
C2971 C2970 1.374 . S
C2972 C2969 1.499 . S
C2972 C2973 1.373 . S
C2972 C2974 1.389 . S
C2973 H2952 0.950 . S
C2973 C2972 1.373 . S
C2973 C2989 1.377 . S
C2974 C2972 1.389 . S
C2974 C2975 1.524 . S
C2974 C2988 1.377 . S
C2975 C2974 1.524 . S
C2975 C2976 1.397 . S
C2975 C2980 1.363 . S
C2976 H2953 0.950 . S
C2976 C2975 1.397 . S
C2976 C2977 1.334 . S
C2977 H2954 0.950 . S
C2977 C2976 1.334 . S
C2977 C2978 1.287 . S
C2978 C2977 1.287 . S
C2978 C2979 1.524 . S
C2978 H2997 0.913 . S
C2979 H2955 0.950 . S
C2979 C2978 1.524 . S
C2979 C2980 1.415 . S
C2980 H2956 0.950 . S
C2980 C2975 1.363 . S
C2980 C2979 1.415 . S
C2981 H2957 0.951 . S
C2981 C2982 1.366 . S
C2981 C2983 1.388 . S
C2982 C2981 1.366 . S
C2982 C2986 1.385 . S
C2983 H2958 0.951 . S
C2983 C2981 1.388 . S
C2983 C2984 1.366 . S
C2984 C2983 1.366 . S
C2984 C2985 1.414 . S
C2984 C2987 1.499 . S
C2985 H2959 0.950 . S
C2985 C2984 1.414 . S
C2985 C2986 1.374 . S
C2986 H2960 0.950 . S
C2986 C2982 1.385 . S
C2986 C2985 1.374 . S
C2987 C2984 1.499 . S
C2987 C2988 1.373 . S
C2987 C2989 1.389 . S
C2988 H2961 0.950 . S
C2988 C2974 1.377 . S
C2988 C2987 1.373 . S
C2989 C2973 1.377 . S
C2989 C2987 1.389 . S
C2989 C2990 1.524 . S
C2990 C2989 1.524 . S
C2990 C2991 1.397 . S
C2990 C2995 1.363 . S
C2991 H2962 0.950 . S
C2991 C2990 1.397 . S
C2991 C2992 1.334 . S
C2992 H2963 0.950 . S
C2992 C2991 1.334 . S
C2992 C2993 1.287 . S
C2993 C2992 1.287 . S
C2993 C2994 1.524 . S
C2993 H2996 0.999 . S
C2994 H2964 0.950 . S
C2994 C2993 1.524 . S
C2994 C2995 1.415 . S
C2995 H2965 0.950 . S
C2995 C2990 1.363 . S
C2995 C2994 1.415 . S
H2996 C2993 0.999 . S
H2997 C2978 0.913 . S
H2998 C3016 0.951 . S
H2999 C3018 0.951 . S
H3000 C3020 0.950 . S
H3001 C3021 0.950 . S
H3002 C3023 0.950 . S
H3003 C3026 0.950 . S
H3004 C3027 0.950 . S
H3005 C3029 0.950 . S
H3006 C3030 0.950 . S
H3007 C3031 0.951 . S
H3008 C3033 0.951 . S
H3009 C3035 0.950 . S
H3010 C3036 0.950 . S
H3011 C3038 0.950 . S
H3012 C3041 0.950 . S
H3013 C3042 0.950 . S
H3014 C3044 0.950 . S
H3015 C3045 0.950 . S
C3016 H2998 0.951 . S
C3016 C3017 1.366 . S
C3016 C3018 1.388 . S
C3017 C3016 1.366 . S
C3017 C3021 1.385 . S
C3018 H2999 0.951 . S
C3018 C3016 1.388 . S
C3018 C3019 1.366 . S
C3019 C3018 1.366 . S
C3019 C3020 1.414 . S
C3019 C3022 1.499 . S
C3020 H3000 0.950 . S
C3020 C3019 1.414 . S
C3020 C3021 1.374 . S
C3021 H3001 0.950 . S
C3021 C3017 1.385 . S
C3021 C3020 1.374 . S
C3022 C3019 1.499 . S
C3022 C3023 1.373 . S
C3022 C3024 1.389 . S
C3023 H3002 0.950 . S
C3023 C3022 1.373 . S
C3023 C3039 1.377 1_655 S
C3024 C3022 1.389 . S
C3024 C3025 1.524 . S
C3024 C3038 1.377 1_655 S
C3025 C3024 1.524 . S
C3025 C3026 1.397 . S
C3025 C3030 1.363 . S
C3026 H3003 0.950 . S
C3026 C3025 1.397 . S
C3026 C3027 1.334 . S
C3027 H3004 0.950 . S
C3027 C3026 1.334 . S
C3027 C3028 1.287 . S
C3028 C3027 1.287 . S
C3028 C3029 1.524 . S
C3028 H3047 0.913 . S
C3029 H3005 0.950 . S
C3029 C3028 1.524 . S
C3029 C3030 1.415 . S
C3030 H3006 0.950 . S
C3030 C3025 1.363 . S
C3030 C3029 1.415 . S
C3031 H3007 0.951 . S
C3031 C3032 1.366 . S
C3031 C3033 1.388 . S
C3032 C3031 1.366 . S
C3032 C3036 1.385 . S
C3033 H3008 0.951 . S
C3033 C3031 1.388 . S
C3033 C3034 1.366 . S
C3034 C3033 1.366 . S
C3034 C3035 1.414 . S
C3034 C3037 1.499 . S
C3035 H3009 0.950 . S
C3035 C3034 1.414 . S
C3035 C3036 1.374 . S
C3036 H3010 0.950 . S
C3036 C3032 1.385 . S
C3036 C3035 1.374 . S
C3037 C3034 1.499 . S
C3037 C3038 1.373 . S
C3037 C3039 1.389 . S
C3038 H3011 0.950 . S
C3038 C3024 1.377 1_455 S
C3038 C3037 1.373 . S
C3039 C3023 1.377 1_455 S
C3039 C3037 1.389 . S
C3039 C3040 1.524 . S
C3040 C3039 1.524 . S
C3040 C3041 1.397 . S
C3040 C3045 1.363 . S
C3041 H3012 0.950 . S
C3041 C3040 1.397 . S
C3041 C3042 1.334 . S
C3042 H3013 0.950 . S
C3042 C3041 1.334 . S
C3042 C3043 1.287 . S
C3043 C3042 1.287 . S
C3043 C3044 1.524 . S
C3043 H3046 0.999 . S
C3044 H3014 0.950 . S
C3044 C3043 1.524 . S
C3044 C3045 1.415 . S
C3045 H3015 0.950 . S
C3045 C3040 1.363 . S
C3045 C3044 1.415 . S
H3046 C3043 0.999 . S
H3047 C3028 0.913 . S
H3048 C3066 0.951 . S
H3049 C3068 0.951 . S
H3050 C3070 0.950 . S
H3051 C3071 0.950 . S
H3052 C3073 0.950 . S
H3053 C3076 0.950 . S
H3054 C3077 0.950 . S
H3055 C3079 0.950 . S
H3056 C3080 0.950 . S
H3057 C3081 0.951 . S
H3058 C3083 0.951 . S
H3059 C3085 0.950 . S
H3060 C3086 0.950 . S
H3061 C3088 0.950 . S
H3062 C3091 0.950 . S
H3063 C3092 0.950 . S
H3064 C3094 0.950 . S
H3065 C3095 0.950 . S
C3066 H3048 0.951 . S
C3066 C3067 1.366 . S
C3066 C3068 1.388 . S
C3067 C3066 1.366 . S
C3067 C3071 1.385 . S
C3068 H3049 0.951 . S
C3068 C3066 1.388 . S
C3068 C3069 1.366 . S
C3069 C3068 1.366 . S
C3069 C3070 1.414 . S
C3069 C3072 1.499 . S
C3070 H3050 0.950 . S
C3070 C3069 1.414 . S
C3070 C3071 1.374 . S
C3071 H3051 0.950 . S
C3071 C3067 1.385 . S
C3071 C3070 1.374 . S
C3072 C3069 1.499 . S
C3072 C3073 1.373 . S
C3072 C3074 1.389 . S
C3073 H3052 0.950 . S
C3073 C3072 1.373 . S
C3073 C3089 1.377 . S
C3074 C3072 1.389 . S
C3074 C3075 1.524 . S
C3074 C3088 1.377 . S
C3075 C3074 1.524 . S
C3075 C3076 1.397 . S
C3075 C3080 1.363 . S
C3076 H3053 0.950 . S
C3076 C3075 1.397 . S
C3076 C3077 1.334 . S
C3077 H3054 0.950 . S
C3077 C3076 1.334 . S
C3077 C3078 1.287 . S
C3078 C3077 1.287 . S
C3078 C3079 1.524 . S
C3078 H3097 0.913 . S
C3079 H3055 0.950 . S
C3079 C3078 1.524 . S
C3079 C3080 1.415 . S
C3080 H3056 0.950 . S
C3080 C3075 1.363 . S
C3080 C3079 1.415 . S
C3081 H3057 0.951 . S
C3081 C3082 1.366 . S
C3081 C3083 1.388 . S
C3082 C3081 1.366 . S
C3082 C3086 1.385 . S
C3083 H3058 0.951 . S
C3083 C3081 1.388 . S
C3083 C3084 1.366 . S
C3084 C3083 1.366 . S
C3084 C3085 1.414 . S
C3084 C3087 1.499 . S
C3085 H3059 0.950 . S
C3085 C3084 1.414 . S
C3085 C3086 1.374 . S
C3086 H3060 0.950 . S
C3086 C3082 1.385 . S
C3086 C3085 1.374 . S
C3087 C3084 1.499 . S
C3087 C3088 1.373 . S
C3087 C3089 1.389 . S
C3088 H3061 0.950 . S
C3088 C3074 1.377 . S
C3088 C3087 1.373 . S
C3089 C3073 1.377 . S
C3089 C3087 1.389 . S
C3089 C3090 1.524 . S
C3090 C3089 1.524 . S
C3090 C3091 1.397 . S
C3090 C3095 1.363 . S
C3091 H3062 0.950 . S
C3091 C3090 1.397 . S
C3091 C3092 1.334 . S
C3092 H3063 0.950 . S
C3092 C3091 1.334 . S
C3092 C3093 1.287 . S
C3093 C3092 1.287 . S
C3093 C3094 1.524 . S
C3093 H3096 0.999 . S
C3094 H3064 0.950 . S
C3094 C3093 1.524 . S
C3094 C3095 1.415 . S
C3095 H3065 0.950 . S
C3095 C3090 1.363 . S
C3095 C3094 1.415 . S
H3096 C3093 0.999 . S
H3097 C3078 0.913 . S
H3098 C3116 0.951 . S
H3099 C3118 0.951 . S
H3100 C3120 0.950 . S
H3101 C3121 0.950 . S
H3102 C3123 0.950 . S
H3103 C3126 0.950 . S
H3104 C3127 0.950 . S
H3105 C3129 0.950 . S
H3106 C3130 0.950 . S
H3107 C3131 0.951 . S
H3108 C3133 0.951 . S
H3109 C3135 0.950 . S
H3110 C3136 0.950 . S
H3111 C3138 0.950 . S
H3112 C3141 0.950 . S
H3113 C3142 0.950 . S
H3114 C3144 0.950 . S
H3115 C3145 0.950 . S
C3116 H3098 0.951 . S
C3116 C3117 1.366 . S
C3116 C3118 1.388 . S
C3117 C3116 1.366 . S
C3117 C3121 1.385 . S
C3118 H3099 0.951 . S
C3118 C3116 1.388 . S
C3118 C3119 1.366 . S
C3119 C3118 1.366 . S
C3119 C3120 1.414 . S
C3119 C3122 1.499 . S
C3120 H3100 0.950 . S
C3120 C3119 1.414 . S
C3120 C3121 1.374 . S
C3121 H3101 0.950 . S
C3121 C3117 1.385 . S
C3121 C3120 1.374 . S
C3122 C3119 1.499 . S
C3122 C3123 1.373 . S
C3122 C3124 1.389 . S
C3123 H3102 0.950 . S
C3123 C3122 1.373 . S
C3123 C3139 1.377 1_655 S
C3124 C3122 1.389 . S
C3124 C3125 1.524 . S
C3124 C3138 1.377 1_655 S
C3125 C3124 1.524 . S
C3125 C3126 1.397 . S
C3125 C3130 1.363 . S
C3126 H3103 0.950 . S
C3126 C3125 1.397 . S
C3126 C3127 1.334 . S
C3127 H3104 0.950 . S
C3127 C3126 1.334 . S
C3127 C3128 1.287 . S
C3128 C3127 1.287 . S
C3128 C3129 1.524 . S
C3128 H3147 0.913 . S
C3129 H3105 0.950 . S
C3129 C3128 1.524 . S
C3129 C3130 1.415 . S
C3130 H3106 0.950 . S
C3130 C3125 1.363 . S
C3130 C3129 1.415 . S
C3131 H3107 0.951 . S
C3131 C3132 1.366 . S
C3131 C3133 1.388 . S
C3132 C3131 1.366 . S
C3132 C3136 1.385 . S
C3133 H3108 0.951 . S
C3133 C3131 1.388 . S
C3133 C3134 1.366 . S
C3134 C3133 1.366 . S
C3134 C3135 1.414 . S
C3134 C3137 1.499 . S
C3135 H3109 0.950 . S
C3135 C3134 1.414 . S
C3135 C3136 1.374 . S
C3136 H3110 0.950 . S
C3136 C3132 1.385 . S
C3136 C3135 1.374 . S
C3137 C3134 1.499 . S
C3137 C3138 1.373 . S
C3137 C3139 1.389 . S
C3138 H3111 0.950 . S
C3138 C3124 1.377 1_455 S
C3138 C3137 1.373 . S
C3139 C3123 1.377 1_455 S
C3139 C3137 1.389 . S
C3139 C3140 1.524 . S
C3140 C3139 1.524 . S
C3140 C3141 1.397 . S
C3140 C3145 1.363 . S
C3141 H3112 0.950 . S
C3141 C3140 1.397 . S
C3141 C3142 1.334 . S
C3142 H3113 0.950 . S
C3142 C3141 1.334 . S
C3142 C3143 1.287 . S
C3143 C3142 1.287 . S
C3143 C3144 1.524 . S
C3143 H3146 0.999 . S
C3144 H3114 0.950 . S
C3144 C3143 1.524 . S
C3144 C3145 1.415 . S
C3145 H3115 0.950 . S
C3145 C3140 1.363 . S
C3145 C3144 1.415 . S
H3146 C3143 0.999 . S
H3147 C3128 0.913 . S
H3148 C3166 0.951 . S
H3149 C3168 0.951 . S
H3150 C3170 0.950 . S
H3151 C3171 0.950 . S
H3152 C3173 0.950 . S
H3153 C3176 0.950 . S
H3154 C3177 0.950 . S
H3155 C3179 0.950 . S
H3156 C3180 0.950 . S
H3157 C3181 0.951 . S
H3158 C3183 0.951 . S
H3159 C3185 0.950 . S
H3160 C3186 0.950 . S
H3161 C3188 0.950 . S
H3162 C3191 0.950 . S
H3163 C3192 0.950 . S
H3164 C3194 0.950 . S
H3165 C3195 0.950 . S
C3166 H3148 0.951 . S
C3166 C3167 1.366 . S
C3166 C3168 1.388 . S
C3167 C3166 1.366 . S
C3167 C3171 1.385 . S
C3168 H3149 0.951 . S
C3168 C3166 1.388 . S
C3168 C3169 1.366 . S
C3169 C3168 1.366 . S
C3169 C3170 1.414 . S
C3169 C3172 1.499 . S
C3170 H3150 0.950 . S
C3170 C3169 1.414 . S
C3170 C3171 1.374 . S
C3171 H3151 0.950 . S
C3171 C3167 1.385 . S
C3171 C3170 1.374 . S
C3172 C3169 1.499 . S
C3172 C3173 1.373 . S
C3172 C3174 1.389 . S
C3173 H3152 0.950 . S
C3173 C3172 1.373 . S
C3173 C3189 1.377 . S
C3174 C3172 1.389 . S
C3174 C3175 1.524 . S
C3174 C3188 1.377 . S
C3175 C3174 1.524 . S
C3175 C3176 1.397 . S
C3175 C3180 1.363 . S
C3176 H3153 0.950 . S
C3176 C3175 1.397 . S
C3176 C3177 1.334 . S
C3177 H3154 0.950 . S
C3177 C3176 1.334 . S
C3177 C3178 1.287 . S
C3178 C3177 1.287 . S
C3178 C3179 1.524 . S
C3178 H3197 0.913 . S
C3179 H3155 0.950 . S
C3179 C3178 1.524 . S
C3179 C3180 1.415 . S
C3180 H3156 0.950 . S
C3180 C3175 1.363 . S
C3180 C3179 1.415 . S
C3181 H3157 0.951 . S
C3181 C3182 1.366 . S
C3181 C3183 1.388 . S
C3182 C3181 1.366 . S
C3182 C3186 1.385 . S
C3183 H3158 0.951 . S
C3183 C3181 1.388 . S
C3183 C3184 1.366 . S
C3184 C3183 1.366 . S
C3184 C3185 1.414 . S
C3184 C3187 1.499 . S
C3185 H3159 0.950 . S
C3185 C3184 1.414 . S
C3185 C3186 1.374 . S
C3186 H3160 0.950 . S
C3186 C3182 1.385 . S
C3186 C3185 1.374 . S
C3187 C3184 1.499 . S
C3187 C3188 1.373 . S
C3187 C3189 1.389 . S
C3188 H3161 0.950 . S
C3188 C3174 1.377 . S
C3188 C3187 1.373 . S
C3189 C3173 1.377 . S
C3189 C3187 1.389 . S
C3189 C3190 1.524 . S
C3190 C3189 1.524 . S
C3190 C3191 1.397 . S
C3190 C3195 1.363 . S
C3191 H3162 0.950 . S
C3191 C3190 1.397 . S
C3191 C3192 1.334 . S
C3192 H3163 0.950 . S
C3192 C3191 1.334 . S
C3192 C3193 1.287 . S
C3193 C3192 1.287 . S
C3193 C3194 1.524 . S
C3193 H3196 0.999 . S
C3194 H3164 0.950 . S
C3194 C3193 1.524 . S
C3194 C3195 1.415 . S
C3195 H3165 0.950 . S
C3195 C3190 1.363 . S
C3195 C3194 1.415 . S
H3196 C3193 0.999 . S
H3197 C3178 0.913 . S
H3198 C3216 0.951 . S
H3199 C3218 0.951 . S
H3200 C3220 0.950 . S
H3201 C3221 0.950 . S
H3202 C3223 0.950 . S
H3203 C3226 0.950 . S
H3204 C3227 0.950 . S
H3205 C3229 0.950 . S
H3206 C3230 0.950 . S
H3207 C3231 0.951 . S
H3208 C3233 0.951 . S
H3209 C3235 0.950 . S
H3210 C3236 0.950 . S
H3211 C3238 0.950 . S
H3212 C3241 0.950 . S
H3213 C3242 0.950 . S
H3214 C3244 0.950 . S
H3215 C3245 0.950 . S
C3216 H3198 0.951 . S
C3216 C3217 1.366 . S
C3216 C3218 1.388 . S
C3217 C3216 1.366 . S
C3217 C3221 1.385 . S
C3218 H3199 0.951 . S
C3218 C3216 1.388 . S
C3218 C3219 1.366 . S
C3219 C3218 1.366 . S
C3219 C3220 1.414 . S
C3219 C3222 1.499 . S
C3220 H3200 0.950 . S
C3220 C3219 1.414 . S
C3220 C3221 1.374 . S
C3221 H3201 0.950 . S
C3221 C3217 1.385 . S
C3221 C3220 1.374 . S
C3222 C3219 1.499 . S
C3222 C3223 1.373 . S
C3222 C3224 1.389 . S
C3223 H3202 0.950 . S
C3223 C3222 1.373 . S
C3223 C3239 1.377 . S
C3224 C3222 1.389 . S
C3224 C3225 1.524 . S
C3224 C3238 1.377 . S
C3225 C3224 1.524 . S
C3225 C3226 1.397 . S
C3225 C3230 1.363 . S
C3226 H3203 0.950 . S
C3226 C3225 1.397 . S
C3226 C3227 1.334 . S
C3227 H3204 0.950 . S
C3227 C3226 1.334 . S
C3227 C3228 1.287 . S
C3228 C3227 1.287 . S
C3228 C3229 1.524 . S
C3228 H3247 0.913 . S
C3229 H3205 0.950 . S
C3229 C3228 1.524 . S
C3229 C3230 1.415 . S
C3230 H3206 0.950 . S
C3230 C3225 1.363 . S
C3230 C3229 1.415 . S
C3231 H3207 0.951 . S
C3231 C3232 1.366 . S
C3231 C3233 1.388 . S
C3232 C3231 1.366 . S
C3232 C3236 1.385 . S
C3233 H3208 0.951 . S
C3233 C3231 1.388 . S
C3233 C3234 1.366 . S
C3234 C3233 1.366 . S
C3234 C3235 1.414 . S
C3234 C3237 1.499 . S
C3235 H3209 0.950 . S
C3235 C3234 1.414 . S
C3235 C3236 1.374 . S
C3236 H3210 0.950 . S
C3236 C3232 1.385 . S
C3236 C3235 1.374 . S
C3237 C3234 1.499 . S
C3237 C3238 1.373 . S
C3237 C3239 1.389 . S
C3238 H3211 0.950 . S
C3238 C3224 1.377 . S
C3238 C3237 1.373 . S
C3239 C3223 1.377 . S
C3239 C3237 1.389 . S
C3239 C3240 1.524 . S
C3240 C3239 1.524 . S
C3240 C3241 1.397 . S
C3240 C3245 1.363 . S
C3241 H3212 0.950 . S
C3241 C3240 1.397 . S
C3241 C3242 1.334 . S
C3242 H3213 0.950 . S
C3242 C3241 1.334 . S
C3242 C3243 1.287 . S
C3243 C3242 1.287 . S
C3243 C3244 1.524 . S
C3243 H3246 0.999 . S
C3244 H3214 0.950 . S
C3244 C3243 1.524 . S
C3244 C3245 1.415 . S
C3245 H3215 0.950 . S
C3245 C3240 1.363 . S
C3245 C3244 1.415 . S
H3246 C3243 0.999 . S
H3247 C3228 0.913 . S
H3248 C3266 0.951 . S
H3249 C3268 0.951 . S
H3250 C3270 0.950 . S
H3251 C3271 0.950 . S
H3252 C3273 0.950 . S
H3253 C3276 0.950 . S
H3254 C3277 0.950 . S
H3255 C3279 0.950 . S
H3256 C3280 0.950 . S
H3257 C3281 0.951 . S
H3258 C3283 0.951 . S
H3259 C3285 0.950 . S
H3260 C3286 0.950 . S
H3261 C3288 0.950 . S
H3262 C3291 0.950 . S
H3263 C3292 0.950 . S
H3264 C3294 0.950 . S
H3265 C3295 0.950 . S
C3266 H3248 0.951 . S
C3266 C3267 1.366 . S
C3266 C3268 1.388 . S
C3267 C3266 1.366 . S
C3267 C3271 1.385 . S
C3268 H3249 0.951 . S
C3268 C3266 1.388 . S
C3268 C3269 1.366 . S
C3269 C3268 1.366 . S
C3269 C3270 1.414 . S
C3269 C3272 1.499 . S
C3270 H3250 0.950 . S
C3270 C3269 1.414 . S
C3270 C3271 1.374 . S
C3271 H3251 0.950 . S
C3271 C3267 1.385 . S
C3271 C3270 1.374 . S
C3272 C3269 1.499 . S
C3272 C3273 1.373 . S
C3272 C3274 1.389 . S
C3273 H3252 0.950 . S
C3273 C3272 1.373 . S
C3273 C3289 1.377 . S
C3274 C3272 1.389 . S
C3274 C3275 1.524 . S
C3274 C3288 1.377 . S
C3275 C3274 1.524 . S
C3275 C3276 1.397 . S
C3275 C3280 1.363 . S
C3276 H3253 0.950 . S
C3276 C3275 1.397 . S
C3276 C3277 1.334 . S
C3277 H3254 0.950 . S
C3277 C3276 1.334 . S
C3277 C3278 1.287 . S
C3278 C3277 1.287 . S
C3278 C3279 1.524 . S
C3278 H3297 0.913 . S
C3279 H3255 0.950 . S
C3279 C3278 1.524 . S
C3279 C3280 1.415 . S
C3280 H3256 0.950 . S
C3280 C3275 1.363 . S
C3280 C3279 1.415 . S
C3281 H3257 0.951 . S
C3281 C3282 1.366 . S
C3281 C3283 1.388 . S
C3282 C3281 1.366 . S
C3282 C3286 1.385 . S
C3283 H3258 0.951 . S
C3283 C3281 1.388 . S
C3283 C3284 1.366 . S
C3284 C3283 1.366 . S
C3284 C3285 1.414 . S
C3284 C3287 1.499 . S
C3285 H3259 0.950 . S
C3285 C3284 1.414 . S
C3285 C3286 1.374 . S
C3286 H3260 0.950 . S
C3286 C3282 1.385 . S
C3286 C3285 1.374 . S
C3287 C3284 1.499 . S
C3287 C3288 1.373 . S
C3287 C3289 1.389 . S
C3288 H3261 0.950 . S
C3288 C3274 1.377 . S
C3288 C3287 1.373 . S
C3289 C3273 1.377 . S
C3289 C3287 1.389 . S
C3289 C3290 1.524 . S
C3290 C3289 1.524 . S
C3290 C3291 1.397 . S
C3290 C3295 1.363 . S
C3291 H3262 0.950 . S
C3291 C3290 1.397 . S
C3291 C3292 1.334 . S
C3292 H3263 0.950 . S
C3292 C3291 1.334 . S
C3292 C3293 1.287 . S
C3293 C3292 1.287 . S
C3293 C3294 1.524 . S
C3293 H3296 0.999 . S
C3294 H3264 0.950 . S
C3294 C3293 1.524 . S
C3294 C3295 1.415 . S
C3295 H3265 0.950 . S
C3295 C3290 1.363 . S
C3295 C3294 1.415 . S
H3296 C3293 0.999 . S
H3297 C3278 0.913 . S
H3298 C3316 0.951 . S
H3299 C3318 0.951 . S
H3300 C3320 0.950 . S
H3301 C3321 0.950 . S
H3302 C3323 0.950 . S
H3303 C3326 0.950 . S
H3304 C3327 0.950 . S
H3305 C3329 0.950 . S
H3306 C3330 0.950 . S
H3307 C3331 0.951 . S
H3308 C3333 0.951 . S
H3309 C3335 0.950 . S
H3310 C3336 0.950 . S
H3311 C3338 0.950 . S
H3312 C3341 0.950 . S
H3313 C3342 0.950 . S
H3314 C3344 0.950 . S
H3315 C3345 0.950 . S
C3316 H3298 0.951 . S
C3316 C3317 1.366 . S
C3316 C3318 1.388 . S
C3317 C3316 1.366 . S
C3317 C3321 1.385 . S
C3318 H3299 0.951 . S
C3318 C3316 1.388 . S
C3318 C3319 1.366 . S
C3319 C3318 1.366 . S
C3319 C3320 1.414 . S
C3319 C3322 1.499 . S
C3320 H3300 0.950 . S
C3320 C3319 1.414 . S
C3320 C3321 1.374 . S
C3321 H3301 0.950 . S
C3321 C3317 1.385 . S
C3321 C3320 1.374 . S
C3322 C3319 1.499 . S
C3322 C3323 1.373 . S
C3322 C3324 1.389 . S
C3323 H3302 0.950 . S
C3323 C3322 1.373 . S
C3323 C3339 1.377 . S
C3324 C3322 1.389 . S
C3324 C3325 1.524 . S
C3324 C3338 1.377 . S
C3325 C3324 1.524 . S
C3325 C3326 1.397 . S
C3325 C3330 1.363 . S
C3326 H3303 0.950 . S
C3326 C3325 1.397 . S
C3326 C3327 1.334 . S
C3327 H3304 0.950 . S
C3327 C3326 1.334 . S
C3327 C3328 1.287 . S
C3328 C3327 1.287 . S
C3328 C3329 1.524 . S
C3328 H3347 0.913 . S
C3329 H3305 0.950 . S
C3329 C3328 1.524 . S
C3329 C3330 1.415 . S
C3330 H3306 0.950 . S
C3330 C3325 1.363 . S
C3330 C3329 1.415 . S
C3331 H3307 0.951 . S
C3331 C3332 1.366 . S
C3331 C3333 1.388 . S
C3332 C3331 1.366 . S
C3332 C3336 1.385 . S
C3333 H3308 0.951 . S
C3333 C3331 1.388 . S
C3333 C3334 1.366 . S
C3334 C3333 1.366 . S
C3334 C3335 1.414 . S
C3334 C3337 1.499 . S
C3335 H3309 0.950 . S
C3335 C3334 1.414 . S
C3335 C3336 1.374 . S
C3336 H3310 0.950 . S
C3336 C3332 1.385 . S
C3336 C3335 1.374 . S
C3337 C3334 1.499 . S
C3337 C3338 1.373 . S
C3337 C3339 1.389 . S
C3338 H3311 0.950 . S
C3338 C3324 1.377 . S
C3338 C3337 1.373 . S
C3339 C3323 1.377 . S
C3339 C3337 1.389 . S
C3339 C3340 1.524 . S
C3340 C3339 1.524 . S
C3340 C3341 1.397 . S
C3340 C3345 1.363 . S
C3341 H3312 0.950 . S
C3341 C3340 1.397 . S
C3341 C3342 1.334 . S
C3342 H3313 0.950 . S
C3342 C3341 1.334 . S
C3342 C3343 1.287 . S
C3343 C3342 1.287 . S
C3343 C3344 1.524 . S
C3343 H3346 0.999 . S
C3344 H3314 0.950 . S
C3344 C3343 1.524 . S
C3344 C3345 1.415 . S
C3345 H3315 0.950 . S
C3345 C3340 1.363 . S
C3345 C3344 1.415 . S
H3346 C3343 0.999 . S
H3347 C3328 0.913 . S
H3348 C3366 0.951 . S
H3349 C3368 0.951 . S
H3350 C3370 0.950 . S
H3351 C3371 0.950 . S
H3352 C3373 0.950 . S
H3353 C3376 0.950 . S
H3354 C3377 0.950 . S
H3355 C3379 0.950 . S
H3356 C3380 0.950 . S
H3357 C3381 0.951 . S
H3358 C3383 0.951 . S
H3359 C3385 0.950 . S
H3360 C3386 0.950 . S
H3361 C3388 0.950 . S
H3362 C3391 0.950 . S
H3363 C3392 0.950 . S
H3364 C3394 0.950 . S
H3365 C3395 0.950 . S
C3366 H3348 0.951 . S
C3366 C3367 1.366 . S
C3366 C3368 1.388 . S
C3367 C3366 1.366 . S
C3367 C3371 1.385 . S
C3368 H3349 0.951 . S
C3368 C3366 1.388 . S
C3368 C3369 1.366 . S
C3369 C3368 1.366 . S
C3369 C3370 1.414 . S
C3369 C3372 1.499 . S
C3370 H3350 0.950 . S
C3370 C3369 1.414 . S
C3370 C3371 1.374 . S
C3371 H3351 0.950 . S
C3371 C3367 1.385 . S
C3371 C3370 1.374 . S
C3372 C3369 1.499 . S
C3372 C3373 1.373 . S
C3372 C3374 1.389 . S
C3373 H3352 0.950 . S
C3373 C3372 1.373 . S
C3373 C3389 1.377 . S
C3374 C3372 1.389 . S
C3374 C3375 1.524 . S
C3374 C3388 1.377 . S
C3375 C3374 1.524 . S
C3375 C3376 1.397 . S
C3375 C3380 1.363 . S
C3376 H3353 0.950 . S
C3376 C3375 1.397 . S
C3376 C3377 1.334 . S
C3377 H3354 0.950 . S
C3377 C3376 1.334 . S
C3377 C3378 1.287 . S
C3378 C3377 1.287 . S
C3378 C3379 1.524 . S
C3378 H3397 0.913 . S
C3379 H3355 0.950 . S
C3379 C3378 1.524 . S
C3379 C3380 1.415 . S
C3380 H3356 0.950 . S
C3380 C3375 1.363 . S
C3380 C3379 1.415 . S
C3381 H3357 0.951 . S
C3381 C3382 1.366 . S
C3381 C3383 1.388 . S
C3382 C3381 1.366 . S
C3382 C3386 1.385 . S
C3383 H3358 0.951 . S
C3383 C3381 1.388 . S
C3383 C3384 1.366 . S
C3384 C3383 1.366 . S
C3384 C3385 1.414 . S
C3384 C3387 1.499 . S
C3385 H3359 0.950 . S
C3385 C3384 1.414 . S
C3385 C3386 1.374 . S
C3386 H3360 0.950 . S
C3386 C3382 1.385 . S
C3386 C3385 1.374 . S
C3387 C3384 1.499 . S
C3387 C3388 1.373 . S
C3387 C3389 1.389 . S
C3388 H3361 0.950 . S
C3388 C3374 1.377 . S
C3388 C3387 1.373 . S
C3389 C3373 1.377 . S
C3389 C3387 1.389 . S
C3389 C3390 1.524 . S
C3390 C3389 1.524 . S
C3390 C3391 1.397 . S
C3390 C3395 1.363 . S
C3391 H3362 0.950 . S
C3391 C3390 1.397 . S
C3391 C3392 1.334 . S
C3392 H3363 0.950 . S
C3392 C3391 1.334 . S
C3392 C3393 1.287 . S
C3393 C3392 1.287 . S
C3393 C3394 1.524 . S
C3393 H3396 0.999 . S
C3394 H3364 0.950 . S
C3394 C3393 1.524 . S
C3394 C3395 1.415 . S
C3395 H3365 0.950 . S
C3395 C3390 1.363 . S
C3395 C3394 1.415 . S
H3396 C3393 0.999 . S
H3397 C3378 0.913 . S
H3398 C3416 0.951 . S
H3399 C3418 0.951 . S
H3400 C3420 0.950 . S
H3401 C3421 0.950 . S
H3402 C3423 0.950 . S
H3403 C3426 0.950 . S
H3404 C3427 0.950 . S
H3405 C3429 0.950 . S
H3406 C3430 0.950 . S
H3407 C3431 0.951 . S
H3408 C3433 0.951 . S
H3409 C3435 0.950 . S
H3410 C3436 0.950 . S
H3411 C3438 0.950 . S
H3412 C3441 0.950 . S
H3413 C3442 0.950 . S
H3414 C3444 0.950 . S
H3415 C3445 0.950 . S
C3416 H3398 0.951 . S
C3416 C3417 1.366 . S
C3416 C3418 1.388 . S
C3417 C3416 1.366 . S
C3417 C3421 1.385 . S
C3418 H3399 0.951 . S
C3418 C3416 1.388 . S
C3418 C3419 1.366 . S
C3419 C3418 1.366 . S
C3419 C3420 1.414 . S
C3419 C3422 1.499 . S
C3420 H3400 0.950 . S
C3420 C3419 1.414 . S
C3420 C3421 1.374 . S
C3421 H3401 0.950 . S
C3421 C3417 1.385 . S
C3421 C3420 1.374 . S
C3422 C3419 1.499 . S
C3422 C3423 1.373 . S
C3422 C3424 1.389 . S
C3423 H3402 0.950 . S
C3423 C3422 1.373 . S
C3423 C3439 1.377 . S
C3424 C3422 1.389 . S
C3424 C3425 1.524 . S
C3424 C3438 1.377 . S
C3425 C3424 1.524 . S
C3425 C3426 1.397 . S
C3425 C3430 1.363 . S
C3426 H3403 0.950 . S
C3426 C3425 1.397 . S
C3426 C3427 1.334 . S
C3427 H3404 0.950 . S
C3427 C3426 1.334 . S
C3427 C3428 1.287 . S
C3428 C3427 1.287 . S
C3428 C3429 1.524 . S
C3428 H3447 0.913 . S
C3429 H3405 0.950 . S
C3429 C3428 1.524 . S
C3429 C3430 1.415 . S
C3430 H3406 0.950 . S
C3430 C3425 1.363 . S
C3430 C3429 1.415 . S
C3431 H3407 0.951 . S
C3431 C3432 1.366 . S
C3431 C3433 1.388 . S
C3432 C3431 1.366 . S
C3432 C3436 1.385 . S
C3433 H3408 0.951 . S
C3433 C3431 1.388 . S
C3433 C3434 1.366 . S
C3434 C3433 1.366 . S
C3434 C3435 1.414 . S
C3434 C3437 1.499 . S
C3435 H3409 0.950 . S
C3435 C3434 1.414 . S
C3435 C3436 1.374 . S
C3436 H3410 0.950 . S
C3436 C3432 1.385 . S
C3436 C3435 1.374 . S
C3437 C3434 1.499 . S
C3437 C3438 1.373 . S
C3437 C3439 1.389 . S
C3438 H3411 0.950 . S
C3438 C3424 1.377 . S
C3438 C3437 1.373 . S
C3439 C3423 1.377 . S
C3439 C3437 1.389 . S
C3439 C3440 1.524 . S
C3440 C3439 1.524 . S
C3440 C3441 1.397 . S
C3440 C3445 1.363 . S
C3441 H3412 0.950 . S
C3441 C3440 1.397 . S
C3441 C3442 1.334 . S
C3442 H3413 0.950 . S
C3442 C3441 1.334 . S
C3442 C3443 1.287 . S
C3443 C3442 1.287 . S
C3443 C3444 1.524 . S
C3443 H3446 0.999 . S
C3444 H3414 0.950 . S
C3444 C3443 1.524 . S
C3444 C3445 1.415 . S
C3445 H3415 0.950 . S
C3445 C3440 1.363 . S
C3445 C3444 1.415 . S
H3446 C3443 0.999 . S
H3447 C3428 0.913 . S
H3448 C3466 0.951 . S
H3449 C3468 0.951 . S
H3450 C3470 0.950 . S
H3451 C3471 0.950 . S
H3452 C3473 0.950 . S
H3453 C3476 0.950 . S
H3454 C3477 0.950 . S
H3455 C3479 0.950 . S
H3456 C3480 0.950 . S
H3457 C3481 0.951 . S
H3458 C3483 0.951 . S
H3459 C3485 0.950 . S
H3460 C3486 0.950 . S
H3461 C3488 0.950 . S
H3462 C3491 0.950 . S
H3463 C3492 0.950 . S
H3464 C3494 0.950 . S
H3465 C3495 0.950 . S
C3466 H3448 0.951 . S
C3466 C3467 1.366 . S
C3466 C3468 1.388 . S
C3467 C3466 1.366 . S
C3467 C3471 1.385 . S
C3468 H3449 0.951 . S
C3468 C3466 1.388 . S
C3468 C3469 1.366 . S
C3469 C3468 1.366 . S
C3469 C3470 1.414 . S
C3469 C3472 1.499 . S
C3470 H3450 0.950 . S
C3470 C3469 1.414 . S
C3470 C3471 1.374 . S
C3471 H3451 0.950 . S
C3471 C3467 1.385 . S
C3471 C3470 1.374 . S
C3472 C3469 1.499 . S
C3472 C3473 1.373 . S
C3472 C3474 1.389 . S
C3473 H3452 0.950 . S
C3473 C3472 1.373 . S
C3473 C3489 1.377 1_655 S
C3474 C3472 1.389 . S
C3474 C3475 1.524 . S
C3474 C3488 1.377 1_655 S
C3475 C3474 1.524 . S
C3475 C3476 1.397 . S
C3475 C3480 1.363 . S
C3476 H3453 0.950 . S
C3476 C3475 1.397 . S
C3476 C3477 1.334 . S
C3477 H3454 0.950 . S
C3477 C3476 1.334 . S
C3477 C3478 1.287 . S
C3478 C3477 1.287 . S
C3478 C3479 1.524 . S
C3478 H3497 0.913 . S
C3479 H3455 0.950 . S
C3479 C3478 1.524 . S
C3479 C3480 1.415 . S
C3480 H3456 0.950 . S
C3480 C3475 1.363 . S
C3480 C3479 1.415 . S
C3481 H3457 0.951 . S
C3481 C3482 1.366 . S
C3481 C3483 1.388 . S
C3482 C3481 1.366 . S
C3482 C3486 1.385 . S
C3483 H3458 0.951 . S
C3483 C3481 1.388 . S
C3483 C3484 1.366 . S
C3484 C3483 1.366 . S
C3484 C3485 1.414 . S
C3484 C3487 1.499 . S
C3485 H3459 0.950 . S
C3485 C3484 1.414 . S
C3485 C3486 1.374 . S
C3486 H3460 0.950 . S
C3486 C3482 1.385 . S
C3486 C3485 1.374 . S
C3487 C3484 1.499 . S
C3487 C3488 1.373 . S
C3487 C3489 1.389 . S
C3488 H3461 0.950 . S
C3488 C3474 1.377 1_455 S
C3488 C3487 1.373 . S
C3489 C3473 1.377 1_455 S
C3489 C3487 1.389 . S
C3489 C3490 1.524 . S
C3490 C3489 1.524 . S
C3490 C3491 1.397 . S
C3490 C3495 1.363 . S
C3491 H3462 0.950 . S
C3491 C3490 1.397 . S
C3491 C3492 1.334 . S
C3492 H3463 0.950 . S
C3492 C3491 1.334 . S
C3492 C3493 1.287 . S
C3493 C3492 1.287 . S
C3493 C3494 1.524 . S
C3493 H3496 0.999 . S
C3494 H3464 0.950 . S
C3494 C3493 1.524 . S
C3494 C3495 1.415 . S
C3495 H3465 0.950 . S
C3495 C3490 1.363 . S
C3495 C3494 1.415 . S
H3496 C3493 0.999 . S
H3497 C3478 0.913 . S
H3498 C3516 0.951 . S
H3499 C3518 0.951 . S
H3500 C3520 0.950 . S
H3501 C3521 0.950 . S
H3502 C3523 0.950 . S
H3503 C3526 0.950 . S
H3504 C3527 0.950 . S
H3505 C3529 0.950 . S
H3506 C3530 0.950 . S
H3507 C3531 0.951 . S
H3508 C3533 0.951 . S
H3509 C3535 0.950 . S
H3510 C3536 0.950 . S
H3511 C3538 0.950 . S
H3512 C3541 0.950 . S
H3513 C3542 0.950 . S
H3514 C3544 0.950 . S
H3515 C3545 0.950 . S
C3516 H3498 0.951 . S
C3516 C3517 1.366 . S
C3516 C3518 1.388 . S
C3517 C3516 1.366 . S
C3517 C3521 1.385 . S
C3518 H3499 0.951 . S
C3518 C3516 1.388 . S
C3518 C3519 1.366 . S
C3519 C3518 1.366 . S
C3519 C3520 1.414 . S
C3519 C3522 1.499 . S
C3520 H3500 0.950 . S
C3520 C3519 1.414 . S
C3520 C3521 1.374 . S
C3521 H3501 0.950 . S
C3521 C3517 1.385 . S
C3521 C3520 1.374 . S
C3522 C3519 1.499 . S
C3522 C3523 1.373 . S
C3522 C3524 1.389 . S
C3523 H3502 0.950 . S
C3523 C3522 1.373 . S
C3523 C3539 1.377 . S
C3524 C3522 1.389 . S
C3524 C3525 1.524 . S
C3524 C3538 1.377 . S
C3525 C3524 1.524 . S
C3525 C3526 1.397 . S
C3525 C3530 1.363 . S
C3526 H3503 0.950 . S
C3526 C3525 1.397 . S
C3526 C3527 1.334 . S
C3527 H3504 0.950 . S
C3527 C3526 1.334 . S
C3527 C3528 1.287 . S
C3528 C3527 1.287 . S
C3528 C3529 1.524 . S
C3528 H3547 0.913 . S
C3529 H3505 0.950 . S
C3529 C3528 1.524 . S
C3529 C3530 1.415 . S
C3530 H3506 0.950 . S
C3530 C3525 1.363 . S
C3530 C3529 1.415 . S
C3531 H3507 0.951 . S
C3531 C3532 1.366 . S
C3531 C3533 1.388 . S
C3532 C3531 1.366 . S
C3532 C3536 1.385 . S
C3533 H3508 0.951 . S
C3533 C3531 1.388 . S
C3533 C3534 1.366 . S
C3534 C3533 1.366 . S
C3534 C3535 1.414 . S
C3534 C3537 1.499 . S
C3535 H3509 0.950 . S
C3535 C3534 1.414 . S
C3535 C3536 1.374 . S
C3536 H3510 0.950 . S
C3536 C3532 1.385 . S
C3536 C3535 1.374 . S
C3537 C3534 1.499 . S
C3537 C3538 1.373 . S
C3537 C3539 1.389 . S
C3538 H3511 0.950 . S
C3538 C3524 1.377 . S
C3538 C3537 1.373 . S
C3539 C3523 1.377 . S
C3539 C3537 1.389 . S
C3539 C3540 1.524 . S
C3540 C3539 1.524 . S
C3540 C3541 1.397 . S
C3540 C3545 1.363 . S
C3541 H3512 0.950 . S
C3541 C3540 1.397 . S
C3541 C3542 1.334 . S
C3542 H3513 0.950 . S
C3542 C3541 1.334 . S
C3542 C3543 1.287 . S
C3543 C3542 1.287 . S
C3543 C3544 1.524 . S
C3543 H3546 0.999 . S
C3544 H3514 0.950 . S
C3544 C3543 1.524 . S
C3544 C3545 1.415 . S
C3545 H3515 0.950 . S
C3545 C3540 1.363 . S
C3545 C3544 1.415 . S
H3546 C3543 0.999 . S
H3547 C3528 0.913 . S
H3548 C3566 0.951 . S
H3549 C3568 0.951 . S
H3550 C3570 0.950 . S
H3551 C3571 0.950 . S
H3552 C3573 0.950 . S
H3553 C3576 0.950 . S
H3554 C3577 0.950 . S
H3555 C3579 0.950 . S
H3556 C3580 0.950 . S
H3557 C3581 0.951 . S
H3558 C3583 0.951 . S
H3559 C3585 0.950 . S
H3560 C3586 0.950 . S
H3561 C3588 0.950 . S
H3562 C3591 0.950 . S
H3563 C3592 0.950 . S
H3564 C3594 0.950 . S
H3565 C3595 0.950 . S
C3566 H3548 0.951 . S
C3566 C3567 1.366 . S
C3566 C3568 1.388 . S
C3567 C3566 1.366 . S
C3567 C3571 1.385 . S
C3568 H3549 0.951 . S
C3568 C3566 1.388 . S
C3568 C3569 1.366 . S
C3569 C3568 1.366 . S
C3569 C3570 1.414 . S
C3569 C3572 1.499 . S
C3570 H3550 0.950 . S
C3570 C3569 1.414 . S
C3570 C3571 1.374 . S
C3571 H3551 0.950 . S
C3571 C3567 1.385 . S
C3571 C3570 1.374 . S
C3572 C3569 1.499 . S
C3572 C3573 1.373 . S
C3572 C3574 1.389 . S
C3573 H3552 0.950 . S
C3573 C3572 1.373 . S
C3573 C3589 1.377 . S
C3574 C3572 1.389 . S
C3574 C3575 1.524 . S
C3574 C3588 1.377 . S
C3575 C3574 1.524 . S
C3575 C3576 1.397 . S
C3575 C3580 1.363 . S
C3576 H3553 0.950 . S
C3576 C3575 1.397 . S
C3576 C3577 1.334 . S
C3577 H3554 0.950 . S
C3577 C3576 1.334 . S
C3577 C3578 1.287 . S
C3578 C3577 1.287 . S
C3578 C3579 1.524 . S
C3578 H3597 0.913 . S
C3579 H3555 0.950 . S
C3579 C3578 1.524 . S
C3579 C3580 1.415 . S
C3580 H3556 0.950 . S
C3580 C3575 1.363 . S
C3580 C3579 1.415 . S
C3581 H3557 0.951 . S
C3581 C3582 1.366 . S
C3581 C3583 1.388 . S
C3582 C3581 1.366 . S
C3582 C3586 1.385 . S
C3583 H3558 0.951 . S
C3583 C3581 1.388 . S
C3583 C3584 1.366 . S
C3584 C3583 1.366 . S
C3584 C3585 1.414 . S
C3584 C3587 1.499 . S
C3585 H3559 0.950 . S
C3585 C3584 1.414 . S
C3585 C3586 1.374 . S
C3586 H3560 0.950 . S
C3586 C3582 1.385 . S
C3586 C3585 1.374 . S
C3587 C3584 1.499 . S
C3587 C3588 1.373 . S
C3587 C3589 1.389 . S
C3588 H3561 0.950 . S
C3588 C3574 1.377 . S
C3588 C3587 1.373 . S
C3589 C3573 1.377 . S
C3589 C3587 1.389 . S
C3589 C3590 1.524 . S
C3590 C3589 1.524 . S
C3590 C3591 1.397 . S
C3590 C3595 1.363 . S
C3591 H3562 0.950 . S
C3591 C3590 1.397 . S
C3591 C3592 1.334 . S
C3592 H3563 0.950 . S
C3592 C3591 1.334 . S
C3592 C3593 1.287 . S
C3593 C3592 1.287 . S
C3593 C3594 1.524 . S
C3593 H3596 0.999 . S
C3594 H3564 0.950 . S
C3594 C3593 1.524 . S
C3594 C3595 1.415 . S
C3595 H3565 0.950 . S
C3595 C3590 1.363 . S
C3595 C3594 1.415 . S
H3596 C3593 0.999 . S
H3597 C3578 0.913 . S
H3598 C3616 0.951 . S
H3599 C3618 0.951 . S
H3600 C3620 0.950 . S
H3601 C3621 0.950 . S
H3602 C3623 0.950 . S
H3603 C3626 0.950 . S
H3604 C3627 0.950 . S
H3605 C3629 0.950 . S
H3606 C3630 0.950 . S
H3607 C3631 0.951 . S
H3608 C3633 0.951 . S
H3609 C3635 0.950 . S
H3610 C3636 0.950 . S
H3611 C3638 0.950 . S
H3612 C3641 0.950 . S
H3613 C3642 0.950 . S
H3614 C3644 0.950 . S
H3615 C3645 0.950 . S
C3616 H3598 0.951 . S
C3616 C3617 1.366 . S
C3616 C3618 1.388 . S
C3617 C3616 1.366 . S
C3617 C3621 1.385 . S
C3618 H3599 0.951 . S
C3618 C3616 1.388 . S
C3618 C3619 1.366 . S
C3619 C3618 1.366 . S
C3619 C3620 1.414 . S
C3619 C3622 1.499 . S
C3620 H3600 0.950 . S
C3620 C3619 1.414 . S
C3620 C3621 1.374 . S
C3621 H3601 0.950 . S
C3621 C3617 1.385 . S
C3621 C3620 1.374 . S
C3622 C3619 1.499 . S
C3622 C3623 1.373 . S
C3622 C3624 1.389 . S
C3623 H3602 0.950 . S
C3623 C3622 1.373 . S
C3623 C3639 1.377 1_655 S
C3624 C3622 1.389 . S
C3624 C3625 1.524 . S
C3624 C3638 1.377 1_655 S
C3625 C3624 1.524 . S
C3625 C3626 1.397 . S
C3625 C3630 1.363 . S
C3626 H3603 0.950 . S
C3626 C3625 1.397 . S
C3626 C3627 1.334 . S
C3627 H3604 0.950 . S
C3627 C3626 1.334 . S
C3627 C3628 1.287 . S
C3628 C3627 1.287 . S
C3628 C3629 1.524 . S
C3628 H3647 0.913 . S
C3629 H3605 0.950 . S
C3629 C3628 1.524 . S
C3629 C3630 1.415 . S
C3630 H3606 0.950 . S
C3630 C3625 1.363 . S
C3630 C3629 1.415 . S
C3631 H3607 0.951 . S
C3631 C3632 1.366 . S
C3631 C3633 1.388 . S
C3632 C3631 1.366 . S
C3632 C3636 1.385 . S
C3633 H3608 0.951 . S
C3633 C3631 1.388 . S
C3633 C3634 1.366 . S
C3634 C3633 1.366 . S
C3634 C3635 1.414 . S
C3634 C3637 1.499 . S
C3635 H3609 0.950 . S
C3635 C3634 1.414 . S
C3635 C3636 1.374 . S
C3636 H3610 0.950 . S
C3636 C3632 1.385 . S
C3636 C3635 1.374 . S
C3637 C3634 1.499 . S
C3637 C3638 1.373 . S
C3637 C3639 1.389 . S
C3638 H3611 0.950 . S
C3638 C3624 1.377 1_455 S
C3638 C3637 1.373 . S
C3639 C3623 1.377 1_455 S
C3639 C3637 1.389 . S
C3639 C3640 1.524 . S
C3640 C3639 1.524 . S
C3640 C3641 1.397 . S
C3640 C3645 1.363 . S
C3641 H3612 0.950 . S
C3641 C3640 1.397 . S
C3641 C3642 1.334 . S
C3642 H3613 0.950 . S
C3642 C3641 1.334 . S
C3642 C3643 1.287 . S
C3643 C3642 1.287 . S
C3643 C3644 1.524 . S
C3643 H3646 0.999 . S
C3644 H3614 0.950 . S
C3644 C3643 1.524 . S
C3644 C3645 1.415 . S
C3645 H3615 0.950 . S
C3645 C3640 1.363 . S
C3645 C3644 1.415 . S
H3646 C3643 0.999 . S
H3647 C3628 0.913 . S
C467 C333 1.277 . S
C482 C11 1.277 . S
C517 C291 1.277 . S
C532 C25 1.277 . S
C567 C305 1.278 . S
C582 C39 1.276 . S
C617 C319 1.276 . S
C632 C53 1.277 . S
C667 C67 1.277 . S
C682 C249 1.277 . S
C717 C263 1.278 . S
C732 C81 1.276 . S
C767 C95 1.276 . S
C782 C277 1.278 . S
C817 C109 1.276 . S
C832 C235 1.278 . S
C867 C445 1.277 . S
C882 C123 1.277 . S
C917 C137 1.276 . S
C932 C403 1.277 . S
C967 C151 1.277 . S
C982 C417 1.277 . S
C1017 C165 1.277 . S
C1032 C431 1.277 . S
C1067 C179 1.276 . S
C1082 C361 1.278 . S
C1117 C193 1.277 . S
C1132 C375 1.278 . S
C1167 C207 1.276 . S
C1182 C389 1.278 . S
C1217 C221 1.276 . S
C1232 C347 1.278 . S
C1267 C4 1.624 . S
C1282 C172 1.624 . S
C1317 C410 1.625 . S
C1332 C18 1.624 . S
C1367 C32 1.624 . S
C1382 C200 1.624 . S
C1417 C438 1.625 . S
C1432 C46 1.624 . S
C1467 C116 1.625 . S
C1482 C60 1.624 . S
C1517 C74 1.624 . S
C1532 C354 1.625 . S
C1567 C88 1.624 . S
C1582 C144 1.624 . S
C1617 C102 1.625 . S
C1632 C382 1.624 . S
C1667 C298 1.625 . S
C1682 C130 1.624 . S
C1717 C326 1.625 . S
C1732 C158 1.624 . S
C1767 C186 1.624 . S
C1782 C242 1.625 . S
C1817 C270 1.624 . S
C1832 C214 1.624 . S
C1867 C396 1.625 . S
C1882 C228 1.624 . S
C1917 C256 1.624 . S
C1932 C424 1.624 . S
C1967 C340 1.624 . S
C1982 C284 1.624 . S
C2017 C368 1.624 . S
C2032 C312 1.624 . S
C2067 C61 0.924 . S
C2082 C5 0.921 . S
C2117 C75 0.924 . S
C2132 C19 0.922 . S
C2167 C33 0.922 . S
C2182 C89 0.923 . S
C2217 C47 0.922 . S
C2232 C103 0.924 . S
C2267 C173 0.923 . S
C2282 C117 0.922 . S
C2317 C187 0.922 . S
C2332 C131 0.924 . S
C2367 C201 0.924 . S
C2382 C145 0.922 . S
C2417 C159 0.922 . S
C2432 C215 0.924 . S
C2467 C229 0.924 . S
C2482 C285 0.921 . S
C2517 C243 0.923 . S
C2532 C299 0.922 . S
C2567 C257 0.923 . S
C2582 C313 0.922 . S
C2617 C271 0.924 . S
C2632 C327 0.922 . S
C2667 C397 0.924 . S
C2682 C341 0.922 . S
C2717 C411 0.922 . S
C2732 C355 0.924 . S
C2767 C425 0.921 . S
C2782 C369 0.924 . S
C2817 C439 0.922 . S
C2832 C383 0.924 . S
C2867 C432 1.089 . S
C2882 C12 1.089 . S
C2917 C26 1.090 . S
C2932 C222 1.089 . S
C2967 C404 1.089 . S
C2982 C40 1.089 . S
C3017 C54 1.089 . S
C3032 C194 1.089 . S
C3067 C376 1.089 . S
C3082 C68 1.089 . S
C3117 C82 1.089 . S
C3132 C166 1.089 . S
C3167 C96 1.090 . S
C3182 C348 1.089 . S
C3217 C138 1.089 . S
C3232 C110 1.089 . S
C3267 C124 1.089 . S
C3282 C320 1.089 . S
C3317 C292 1.090 . S
C3332 C152 1.089 . S
C3367 C180 1.089 . S
C3382 C264 1.089 . S
C3417 C208 1.089 . S
C3432 C236 1.089 . S
C3467 C446 1.089 . S
C3482 C250 1.089 . S
C3517 C278 1.090 . S
C3532 C418 1.089 . S
C3567 C306 1.089 . S
C3582 C390 1.089 . S
C3617 C362 1.089 . S
C3632 C334 1.089 . S
