# Generated by pormake.
# Topology loh, (5)-cn, num edge types: 1
# Building blocks:
#     Node 0, Type 0, BuildingBlock: XOMCOT_clean_sbu_1, # of connection points: 5
#     Node 1, Type 0, BuildingBlock: XOMCOT_clean_sbu_1, # of connection points: 5
#     Node 2, Type 0, BuildingBlock: XOMCOT_clean_sbu_1, # of connection points: 5
#     Node 3, Type 0, BuildingBlock: XOMCOT_clean_sbu_1, # of connection points: 5
#     Node 4, Type 0, BuildingBlock: XOMCOT_clean_sbu_1, # of connection points: 5
#     Node 5, Type 0, BuildingBlock: XOMCOT_clean_sbu_1, # of connection points: 5
#     Node 6, Type 0, BuildingBlock: XOMCOT_clean_sbu_1, # of connection points: 5
#     Node 7, Type 0, BuildingBlock: XOMCOT_clean_sbu_1, # of connection points: 5
#     Edge 8, Type (0, 0), BuildingBlock: XIVTED_clean_linker_0, # of connection points: 2
#     Edge 9, Type (0, 0), BuildingBlock: XIVTED_clean_linker_0, # of connection points: 2
#     Edge 10, Type (0, 0), BuildingBlock: XIVTED_clean_linker_0, # of connection points: 2
#     Edge 11, Type (0, 0), BuildingBlock: XIVTED_clean_linker_0, # of connection points: 2
#     Edge 12, Type (0, 0), BuildingBlock: XIVTED_clean_linker_0, # of connection points: 2
#     Edge 13, Type (0, 0), BuildingBlock: XIVTED_clean_linker_0, # of connection points: 2
#     Edge 14, Type (0, 0), BuildingBlock: XIVTED_clean_linker_0, # of connection points: 2
#     Edge 15, Type (0, 0), BuildingBlock: XIVTED_clean_linker_0, # of connection points: 2
#     Edge 16, Type (0, 0), BuildingBlock: XIVTED_clean_linker_0, # of connection points: 2
#     Edge 17, Type (0, 0), BuildingBlock: XIVTED_clean_linker_0, # of connection points: 2
#     Edge 18, Type (0, 0), BuildingBlock: XIVTED_clean_linker_0, # of connection points: 2
#     Edge 19, Type (0, 0), BuildingBlock: XIVTED_clean_linker_0, # of connection points: 2
#     Edge 20, Type (0, 0), BuildingBlock: XIVTED_clean_linker_0, # of connection points: 2
#     Edge 21, Type (0, 0), BuildingBlock: XIVTED_clean_linker_0, # of connection points: 2
#     Edge 22, Type (0, 0), BuildingBlock: XIVTED_clean_linker_0, # of connection points: 2
#     Edge 23, Type (0, 0), BuildingBlock: XIVTED_clean_linker_0, # of connection points: 2
#     Edge 24, Type (0, 0), BuildingBlock: XIVTED_clean_linker_0, # of connection points: 2
#     Edge 25, Type (0, 0), BuildingBlock: XIVTED_clean_linker_0, # of connection points: 2
#     Edge 26, Type (0, 0), BuildingBlock: XIVTED_clean_linker_0, # of connection points: 2
#     Edge 27, Type (0, 0), BuildingBlock: XIVTED_clean_linker_0, # of connection points: 2
# Relax obj value: 0.207
# Max RMSD: 0.136
# Mean RMSD: 0.136
data_MOF--net-loh--node1-XOMCOT_clean_sbu_1--edge1-XIVTED_clean_linker_0
_symmetry_space_group_name_H-M    P1
_symmetry_Int_Tables_number       1
_symmetry_cell_setting            triclinic
loop_
_symmetry_equiv_pos_as_xyz
'x, y, z'
_cell_length_a     26.875125
_cell_length_b     24.805046
_cell_length_c     41.294083
_cell_angle_alpha  89.845091
_cell_angle_beta   90.220775
_cell_angle_gamma 88.910016
loop_
_atom_site_label
_atom_site_type_symbol
_atom_site_fract_x
_atom_site_fract_y
_atom_site_fract_z
_atom_type_partial_charge
C0 C 0.07327 0.14493 0.13465 0.0
C1 C 0.07976 0.09448 0.14785 0.0
N2 N 0.06404 0.09576 0.1788 0.0
N3 N 0.05376 0.17861 0.15706 0.0
C4 C 1.04821 0.14729 0.18368 0.0
H5 H 0.08164 0.15602 0.10997 0.0
Co6 Co 1.03438 0.25079 0.14955 0.0
C7 C 1.04723 0.27881 0.21374 0.0
O8 O 1.00276 0.25788 0.21558 0.0
N9 N 1.01416 0.3215 0.14178 0.0
C10 C 0.97347 0.40025 0.14341 0.0
C11 C 0.98434 0.35329 0.1601 0.0
C12 C 1.02075 0.34962 0.1142 0.0
N13 N 0.99608 0.39735 0.11442 0.0
O14 O 0.09361 0.26164 0.1225 0.0
H15 H 0.96942 0.34219 0.18337 0.0
H16 H 1.04193 0.33466 0.0938 0.0
O17 O 0.07064 0.2752 0.18703 0.0
C18 C 0.13925 0.25192 0.1297 0.0
O19 O 0.15054 0.2308 0.15807 0.0
N20 N 0.99504 0.2295 0.11423 0.0
C21 C 0.92103 0.22332 0.0665 0.0
C22 C 0.90902 0.2211 0.09956 0.0
C23 C 0.94658 0.22411 0.12293 0.0
C24 C 1.00823 0.22849 0.08232 0.0
C25 C 0.9717 0.22526 0.05809 0.0
H26 H 0.93673 0.22584 0.1483 0.0
H27 H 1.04655 0.233 0.07523 0.0
H28 H 1.03264 0.1618 0.20615 0.0
H29 H 0.09379 0.05928 0.13517 0.0
H30 H 0.9488 0.43262 0.15125 0.0
H31 H 0.8707 0.22031 0.1075 0.0
H32 H 0.98306 0.22602 0.03297 0.0
C33 C 0.5222 0.86795 0.6697 0.0
C34 C 0.51562 0.91882 0.68203 0.0
N35 N 0.56015 0.94254 0.68308 0.0
N36 N 0.57051 0.85967 0.66189 0.0
C37 C 0.59303 0.9057 0.67116 0.0
H38 H 0.49353 0.83817 0.66741 0.0
Co39 Co 0.59674 0.7929 0.64746 0.0
C40 C 0.58567 0.75421 0.70895 0.0
O41 O 0.62565 0.7832 0.71295 0.0
N42 N 0.62301 0.72713 0.63472 0.0
C43 C 0.67375 0.65576 0.63119 0.0
C44 C 0.66163 0.70093 0.64903 0.0
C45 C 0.61206 0.69741 0.60849 0.0
N46 N 0.64269 0.65416 0.60556 0.0
O47 O 0.5375 0.78236 0.61955 0.0
H48 H 0.68076 0.71484 0.67044 0.0
H49 H 0.58297 0.70781 0.5913 0.0
O50 O 0.5631 0.75669 0.68182 0.0
C51 C 0.51183 0.81466 0.60158 0.0
O52 O 0.52523 0.86515 0.5987 0.0
N53 N 0.63463 0.82538 0.6141 0.0
C54 C 0.71508 0.8282 0.57105 0.0
C55 C 0.72126 0.84215 0.6037 0.0
C56 C 0.68055 0.84005 0.62485 0.0
C57 C 0.62739 0.81622 0.58174 0.0
C58 C 0.66689 0.81799 0.55992 0.0
H59 H 0.6872 0.84374 0.65058 0.0
H60 H 0.59312 0.80063 0.5726 0.0
H61 H 0.63268 0.91187 0.66995 0.0
H62 H 0.48108 0.93626 0.69095 0.0
H63 H 0.70427 0.62768 0.63589 0.0
H64 H 0.75797 0.84943 0.61346 0.0
H65 H 0.66045 0.80688 0.53492 0.0
C66 C 0.06293 0.8994 0.9093 0.0
C67 C 0.07267 0.94926 0.89676 0.0
N68 N 0.06264 0.94894 0.86476 0.0
N69 N 1.04686 0.86679 0.88552 0.0
C70 C 1.04661 0.89835 0.85857 0.0
H71 H 0.06694 0.88786 0.93444 0.0
Co72 Co 1.0266 0.79534 0.89287 0.0
C73 C 1.04136 0.75982 0.83063 0.0
O74 O 0.9968 0.78188 0.82718 0.0
N75 N 1.00549 0.7255 0.90058 0.0
C76 C 0.96141 0.65051 0.90039 0.0
C77 C 0.97183 0.69712 0.88369 0.0
C78 C 1.01465 0.69571 0.92737 0.0
N79 N 0.98809 0.6503 0.92802 0.0
O80 O 0.08418 0.7825 0.92196 0.0
H81 H 0.95381 0.71065 0.86162 0.0
H82 H 1.03872 0.70807 0.9469 0.0
O83 O 0.06507 0.76821 0.85688 0.0
C84 C 0.13024 0.78996 0.91609 0.0
O85 O 0.14315 0.81068 0.8881 0.0
N86 N 0.98492 0.81871 0.92667 0.0
C87 C 0.90507 0.81781 0.96968 0.0
C88 C 0.89731 0.82748 0.93654 0.0
C89 C 0.93782 0.82802 0.9155 0.0
C90 C 0.99395 0.81384 0.95916 0.0
C91 C 0.95426 0.8136 0.98119 0.0
H92 H 0.93129 0.83085 0.88967 0.0
H93 H 1.03116 0.80575 0.9681 0.0
H94 H 1.03505 0.88452 0.83494 0.0
H95 H 0.08522 0.98354 0.9105 0.0
H96 H 0.93421 0.62085 0.89371 0.0
H97 H 0.85999 0.83143 0.9267 0.0
H98 H 0.9618 0.80587 1.00658 0.0
C99 C 0.66072 0.13277 0.39551 0.0
C100 C 0.65222 0.08335 0.38203 0.0
N101 N 0.62125 0.09037 0.35674 0.0
N102 N 0.63456 0.17162 0.37929 0.0
C103 C 0.61114 0.144 0.35544 0.0
H104 H 0.68479 0.13898 0.41607 0.0
Co105 Co 0.63548 0.24755 0.38739 0.0
C106 C 0.6108 0.26861 0.32393 0.0
O107 O 0.65721 0.25222 0.32016 0.0
N108 N 0.63804 0.32089 0.3945 0.0
C109 C 0.65862 0.40688 0.39059 0.0
C110 C 0.65743 0.35823 0.37466 0.0
C111 C 0.62773 0.34741 0.42216 0.0
N112 N 0.64038 0.39961 0.42058 0.0
O113 O 0.57719 0.24416 0.41638 0.0
H114 H 0.6722 0.35007 0.35083 0.0
H115 H 0.61308 0.3283 0.44358 0.0
O116 O 0.59084 0.26258 0.35164 0.0
C117 C 0.55425 0.20711 0.43153 0.0
O118 O 0.57069 0.15704 0.43016 0.0
N119 N 0.68252 0.23794 0.42128 0.0
C120 C 0.76262 0.24668 0.46456 0.0
C121 C 0.77005 0.24835 0.43096 0.0
C122 C 0.7296 0.24383 0.40985 0.0
C123 C 0.6744 0.23429 0.4539 0.0
C124 C 0.71417 0.23806 0.47594 0.0
H125 H 0.7354 0.24745 0.38403 0.0
H126 H 0.63726 0.23103 0.46331 0.0
H127 H 0.587 0.16246 0.33741 0.0
H128 H 0.66869 0.04522 0.38971 0.0
H129 H 0.67446 0.44376 0.38154 0.0
H130 H 0.80677 0.25435 0.42101 0.0
H131 H 0.70664 0.23705 0.50168 0.0
C132 C 0.59899 0.6678 0.17832 0.0
C133 C 0.60619 0.6174 0.19136 0.0
N134 N 0.563 0.5912 0.18963 0.0
N135 N 0.55167 0.67344 0.16744 0.0
C136 C 0.53018 0.62607 0.17539 0.0
H137 H 0.62678 0.69868 0.17693 0.0
Co138 Co 0.52688 0.73855 0.14905 0.0
C139 C 0.53822 0.78516 0.20934 0.0
O140 O 0.49799 0.75765 0.2154 0.0
N141 N 0.50234 0.80271 0.13221 0.0
C142 C 0.45273 0.87363 0.12295 0.0
C143 C 0.46137 0.82945 0.14261 0.0
C144 C 0.51816 0.83111 0.10649 0.0
N145 N 0.48866 0.87445 0.10029 0.0
O146 O 0.58759 0.74415 0.12224 0.0
H147 H 0.43881 0.81695 0.16282 0.0
H148 H 0.54954 0.81918 0.09169 0.0
O149 O 0.55964 0.77901 0.18211 0.0
C150 C 0.61468 0.70927 0.10733 0.0
O151 O 0.60169 0.65843 0.10719 0.0
N152 N 0.48989 0.70242 0.11672 0.0
C153 C 0.41119 0.69853 0.07174 0.0
C154 C 0.40279 0.69051 0.10497 0.0
C155 C 0.4427 0.69244 0.12698 0.0
C156 C 0.49924 0.70582 0.08423 0.0
C157 C 0.46075 0.70265 0.0615 0.0
H158 H 0.43486 0.69268 0.15265 0.0
H159 H 0.53488 0.71747 0.07522 0.0
H160 H 0.4915 0.61722 0.17095 0.0
H161 H 0.64032 0.60145 0.20198 0.0
H162 H 0.4224 0.9027 0.12514 0.0
H163 H 0.36537 0.68763 0.11433 0.0
H164 H 0.4696 0.70776 0.03614 0.0
C165 C 0.16075 0.40243 0.64786 0.0
C166 C 0.15571 0.45084 0.66345 0.0
N167 N 0.12561 0.44425 0.68891 0.0
N168 N 0.13405 0.36427 0.66325 0.0
C169 C 0.11248 0.39175 0.68821 0.0
H170 H 0.18352 0.39632 0.6267 0.0
Co171 Co 0.13641 0.2883 0.65409 0.0
C172 C 0.11664 0.26313 0.71682 0.0
O173 O 0.16271 0.2794 0.71964 0.0
N174 N 0.14069 0.21522 0.64606 0.0
C175 C 0.16766 0.13019 0.64786 0.0
C176 C 0.16732 0.17895 0.66364 0.0
C177 C 0.12508 0.1879 0.61988 0.0
N178 N 0.14114 0.13613 0.62029 0.0
O179 O 0.077 0.29355 0.62588 0.0
H180 H 0.18726 0.18802 0.68568 0.0
H181 H 0.10535 0.20645 0.59973 0.0
O182 O 0.09387 0.27223 0.69015 0.0
C183 C 0.05398 0.33087 0.61011 0.0
O184 O 0.07106 0.38009 0.61032 0.0
N185 N 0.18179 0.29836 0.61991 0.0
C186 C 0.26159 0.29093 0.5766 0.0
C187 C 0.26972 0.29102 0.61017 0.0
C188 C 0.22939 0.29467 0.6313 0.0
C189 C 0.17282 0.2998 0.58729 0.0
C190 C 0.21242 0.29682 0.5652 0.0
H191 H 0.23585 0.29239 0.65715 0.0
H192 H 0.13532 0.30055 0.57796 0.0
H193 H 0.08937 0.3734 0.7064 0.0
H194 H 0.17333 0.48813 0.65675 0.0
H195 H 0.18727 0.09379 0.6555 0.0
H196 H 0.30697 0.28695 0.62008 0.0
H197 H 0.20444 0.29616 0.53948 0.0
C198 C 0.56732 0.39185 0.90606 0.0
C199 C 0.57392 0.44259 0.89374 0.0
N200 N 0.56076 0.44266 0.86222 0.0
N201 N 0.55021 0.35935 0.88253 0.0
C202 C 0.54624 0.39165 0.85609 0.0
H203 H 0.57426 0.37961 0.93083 0.0
Co204 Co 0.53307 0.28693 0.88854 0.0
C205 C 0.54529 0.26104 0.82409 0.0
O206 O 0.50018 0.28233 0.82266 0.0
N207 N 0.51507 0.21604 0.89474 0.0
C208 C 0.47324 0.13979 0.89267 0.0
C209 C 0.48038 0.18898 0.87802 0.0
C210 C 0.52846 0.18286 0.91928 0.0
N211 N 0.50359 0.13623 0.91866 0.0
O212 O 0.59315 0.27472 0.91519 0.0
H213 H 0.45996 0.20487 0.85741 0.0
H214 H 0.55353 0.19401 0.93856 0.0
O215 O 0.56942 0.26431 0.85062 0.0
C216 C 0.63835 0.28478 0.90814 0.0
O217 O 0.64853 0.30719 0.88013 0.0
N218 N 0.49365 0.30616 0.92438 0.0
C219 C 0.41964 0.31063 0.97201 0.0
C220 C 0.40774 0.31769 0.93907 0.0
C221 C 0.4453 0.31547 0.91576 0.0
C222 C 0.50673 0.30195 0.95629 0.0
C223 C 0.47027 0.30451 0.98047 0.0
H224 H 0.43546 0.31758 0.89035 0.0
H225 H 0.54491 0.29409 0.96334 0.0
H226 H 0.53311 0.3781 0.83279 0.0
H227 H 0.5865 0.47704 0.90731 0.0
H228 H 0.44685 0.10973 0.8853 0.0
H229 H 0.36948 0.32177 0.93102 0.0
H230 H 0.48167 0.30001 1.00552 0.0
C231 C 1.02418 0.67331 0.36907 0.0
C232 C 1.01706 0.62328 0.35601 0.0
N233 N 0.06128 0.59712 0.35502 0.0
N234 N 0.07253 0.67862 0.37737 0.0
C235 C 0.0945 0.63164 0.3677 0.0
H236 H 0.99582 0.7045 0.37171 0.0
Co237 Co 0.09908 0.74347 0.39322 0.0
C238 C 0.08796 0.78462 0.33297 0.0
O239 O 0.12794 0.75385 0.32954 0.0
N240 N 0.12559 0.80732 0.40735 0.0
C241 C 0.17848 0.87398 0.41417 0.0
C242 C 0.16816 0.82856 0.39644 0.0
C243 C 0.1104 0.84035 0.43134 0.0
N244 N 0.14191 0.88117 0.43603 0.0
O245 O 1.04071 0.75405 0.4219 0.0
H246 H 0.19083 0.81122 0.37741 0.0
H247 H 0.07828 0.83333 0.4463 0.0
O248 O 0.06483 0.78308 0.35979 0.0
C249 C 1.01534 0.72114 0.4388 0.0
O250 O 1.02869 0.6699 0.43985 0.0
N251 N 0.13775 0.70756 0.42528 0.0
C252 C 0.22121 0.6988 0.46599 0.0
C253 C 0.22484 0.6869 0.43289 0.0
C254 C 0.18272 0.69166 0.41301 0.0
C255 C 0.13282 0.71569 0.45792 0.0
C256 C 0.17396 0.71054 0.47872 0.0
H257 H 0.18749 0.68932 0.38706 0.0
H258 H 0.09915 0.73272 0.46792 0.0
H259 H 0.13398 0.62299 0.36927 0.0
H260 H 0.98236 0.60803 0.34669 0.0
H261 H 0.21058 0.89928 0.41146 0.0
H262 H 0.26067 0.67808 0.42199 0.0
H263 H 0.16966 0.72134 0.50397 0.0
H264 H 0.41885 0.24601 0.02636 0.0
H265 H 0.13361 0.3062 0.07129 0.0
H266 H 0.32743 0.36242 0.97426 0.0
H267 H 0.23748 0.22223 0.13446 0.0
H268 H 0.20203 0.32329 0.03355 0.0
H269 H 0.35134 0.23395 0.0647 0.0
C270 C 0.38496 0.26973 0.02311 0.0
C271 C 0.37936 0.30555 0.99682 0.0
C272 C 0.20976 0.30125 0.05573 0.0
C273 C 0.30069 0.2905 0.04059 0.0
C274 C 0.17069 0.29132 0.07724 0.0
C275 C 0.17969 0.26273 0.10617 0.0
C276 C 0.25811 0.28197 0.06301 0.0
C277 C 0.22861 0.24454 0.11255 0.0
C278 C 0.34609 0.26237 0.04497 0.0
C279 C 0.33358 0.33379 0.99374 0.0
N280 N 0.26576 0.25425 0.09117 0.0
N281 N 0.29605 0.32548 1.0152 0.0
H282 H 0.47125 0.86129 0.54749 0.0
H283 H 0.24282 0.66491 0.52838 0.0
H284 H 0.4574 0.72242 0.60971 0.0
H285 H 0.30246 0.75638 0.449 0.0
H286 H 0.31521 0.68973 0.56159 0.0
H287 H 0.40282 0.82879 0.5143 0.0
C288 C 0.45372 0.82398 0.55426 0.0
C289 C 0.47013 0.7946 0.5815 0.0
C290 C 0.31259 0.70373 0.53677 0.0
C291 C 0.39115 0.75724 0.54353 0.0
C292 C 0.27135 0.68968 0.51786 0.0
C293 C 0.26679 0.70815 0.48575 0.0
C294 C 0.3488 0.7376 0.52372 0.0
C295 C 0.30475 0.74042 0.4734 0.0
C296 C 0.41477 0.80529 0.53516 0.0
C297 C 0.44601 0.74628 0.58888 0.0
N298 N 0.34372 0.75452 0.49246 0.0
N299 N 0.40741 0.7293 0.57017 0.0
H300 H 0.40862 0.76965 0.02069 0.0
H301 H 0.12194 0.73292 0.97354 0.0
H302 H 0.31627 0.65535 0.07022 0.0
H303 H 0.22878 0.81426 0.91393 0.0
H304 H 0.18932 0.70864 1.01175 0.0
H305 H 0.34042 0.79025 0.98386 0.0
C306 C 0.37435 0.74796 0.02361 0.0
C307 C 0.36905 0.70966 0.04851 0.0
C308 C 0.19785 0.73176 0.99026 0.0
C309 C 0.28912 0.73498 1.0064 0.0
C310 C 0.1594 0.74581 0.96849 0.0
C311 C 0.16957 0.77568 0.94035 0.0
C312 C 0.24672 0.7482 0.98404 0.0
C313 C 0.21893 0.79113 0.93514 0.0
C314 C 0.33499 0.76034 1.0026 0.0
C315 C 0.32242 0.6851 0.05152 0.0
N316 N 0.25537 0.77739 0.95671 0.0
N317 N 0.28431 0.69817 0.03077 0.0
H318 H 0.51177 0.14349 0.47744 0.0
H319 H 0.28425 0.3434 0.51954 0.0
H320 H 0.49728 0.30105 0.43344 0.0
H321 H 0.33533 0.21425 0.58218 0.0
H322 H 0.35541 0.32464 0.48355 0.0
H323 H 0.44056 0.16479 0.51178 0.0
C324 C 0.49356 0.18261 0.47489 0.0
C325 C 0.51073 0.22051 0.45243 0.0
C326 C 0.351 0.30063 0.50525 0.0
C327 C 0.42838 0.24512 0.49184 0.0
C328 C 0.31032 0.3111 0.52568 0.0
C329 C 0.304 0.28062 0.55407 0.0
C330 C 0.38501 0.25869 0.51295 0.0
C331 C 0.33902 0.23932 0.56085 0.0
C332 C 0.45288 0.19481 0.49465 0.0
C333 C 0.48546 0.27063 0.45046 0.0
N334 N 0.37769 0.22947 0.54044 0.0
N335 N 0.44538 0.2814 0.46978 0.0
H336 H 0.662 0.65285 0.05948 0.0
H337 H 0.88233 0.85797 0.03037 0.0
H338 H 0.66602 0.80445 0.11034 0.0
H339 H 0.83073 0.74774 0.95758 0.0
H340 H 0.81131 0.83334 0.06475 0.0
H341 H 0.73241 0.6809 0.02676 0.0
C342 C 0.6778 0.69201 0.06389 0.0
C343 C 0.65792 0.72634 0.08773 0.0
C344 C 0.81555 0.8149 0.04115 0.0
C345 C 0.7392 0.7586 0.05032 0.0
C346 C 0.85605 0.82877 0.02163 0.0
C347 C 0.86212 0.80528 0.99095 0.0
C348 C 0.78176 0.7763 0.03019 0.0
C349 C 0.82708 0.76748 0.98083 0.0
C350 C 0.71792 0.70809 0.04507 0.0
C351 C 0.68003 0.77677 0.09216 0.0
N352 N 0.78878 0.75394 1.00043 0.0
N353 N 0.71972 0.79129 0.07377 0.0
H354 H 1.00822 0.39534 0.56463 0.0
H355 H 0.78916 0.19306 0.52098 0.0
H356 H 0.99952 0.2375 0.60823 0.0
H357 H 0.83187 0.32563 0.45999 0.0
H358 H 0.85955 0.21248 0.55721 0.0
H359 H 0.93725 0.37433 0.5302 0.0
C360 C 0.99132 0.35626 0.5671 0.0
C361 C 1.0101 0.31818 0.58947 0.0
C362 C 0.8535 0.23714 0.53583 0.0
C363 C 0.92806 0.29386 0.54992 0.0
C364 C 0.81321 0.22627 0.51525 0.0
C365 C 0.80475 0.25748 0.48723 0.0
C366 C 0.88502 0.28018 0.52868 0.0
C367 C 0.83729 0.29995 0.481 0.0
C368 C 0.95078 0.34422 0.54729 0.0
C369 C 0.98645 0.26812 0.59134 0.0
N370 N 0.87564 0.31012 0.50154 0.0
N371 N 0.94657 0.25749 0.57194 0.0
H372 H 0.92044 0.28288 1.01016 0.0
H373 H 0.63464 0.23042 0.9665 0.0
H374 H 0.82883 0.17548 0.06556 0.0
H375 H 0.73613 0.31203 0.90309 0.0
H376 H 0.70384 0.21211 1.00417 0.0
H377 H 0.85255 0.29513 0.97141 0.0
C378 C 0.88641 0.26114 1.01404 0.0
C379 C 0.88079 0.2279 0.04136 0.0
C380 C 0.71091 0.2339 0.98196 0.0
C381 C 0.80178 0.2431 0.99712 0.0
C382 C 0.67137 0.2445 0.96046 0.0
C383 C 0.67943 0.27288 0.93151 0.0
C384 C 0.75883 0.25217 0.97461 0.0
C385 C 0.72797 0.28999 0.92503 0.0
C386 C 0.84733 0.26861 0.99194 0.0
C387 C 0.83493 0.20209 0.04521 0.0
N388 N 0.7656 0.27957 0.94639 0.0
N389 N 0.79724 0.21043 0.02349 0.0
H390 H 0.7304 0.73867 0.53423 0.0
H391 H 0.98803 0.8253 0.45574 0.0
H392 H 0.79991 0.88757 0.56082 0.0
H393 H 0.94206 0.66023 0.46485 0.0
H394 H 0.91515 0.85394 0.48768 0.0
H395 H 0.80288 0.71481 0.50157 0.0
C396 C 0.7607 0.76678 0.53285 0.0
C397 C 0.75878 0.81553 0.55006 0.0
C398 C 0.92123 0.8115 0.48267 0.0
C399 C 0.84256 0.78799 0.51274 0.0
C400 C 0.96271 0.7951 0.46437 0.0
C401 C 0.9714 0.74017 0.45767 0.0
C402 C 0.8877 0.77282 0.49375 0.0
C403 C 0.93717 0.70293 0.4695 0.0
C404 C 0.80233 0.75284 0.51441 0.0
C405 C 0.79983 0.84966 0.5479 0.0
N406 N 0.89685 0.71993 0.48672 0.0
N407 N 0.83998 0.83541 0.52941 0.0
H408 H 0.12017 0.35567 0.21131 0.0
H409 H 1.00574 0.5093 0.36333 0.0
H410 H 1.00945 0.28929 0.27458 0.0
H411 H 0.13524 0.56634 0.31378 0.0
H412 H 1.01207 0.42481 0.33332 0.0
H413 H 0.13274 0.42872 0.25039 0.0
C414 C 0.09933 0.3557 0.23371 0.0
C415 C 0.06326 0.31652 0.23948 0.0
C416 C 1.03966 0.45529 0.32917 0.0
C417 C 0.07694 0.4004 0.28402 0.0
C418 C 1.03595 0.50351 0.34633 0.0
C419 C 0.06987 0.54473 0.3409 0.0
C420 C 0.07705 0.44836 0.30575 0.0
C421 C 0.10853 0.5353 0.31872 0.0
C422 C 0.10636 0.3976 0.25594 0.0
C423 C 1.03723 0.31885 0.26887 0.0
N424 N 0.11064 0.48838 0.30152 0.0
N425 N 1.04412 0.36032 0.28973 0.0
H426 H 0.52085 0.66983 0.70315 0.0
H427 H 0.61784 0.53138 0.86763 0.0
H428 H 0.62461 0.74145 0.76963 0.0
H429 H 0.5072 0.45892 0.8064 0.0
H430 H 0.6183 0.60928 0.83203 0.0
H431 H 0.51179 0.59403 0.74091 0.0
C432 C 0.54112 0.67009 0.72587 0.0
C433 C 0.57371 0.71208 0.73315 0.0
C434 C 0.59372 0.57653 0.82632 0.0
C435 C 0.56403 0.62512 0.7762 0.0
C436 C 0.59325 0.53185 0.84683 0.0
C437 C 0.56212 0.48829 0.84032 0.0
C438 C 0.56302 0.57812 0.79874 0.0
C439 C 0.53208 0.4912 0.81236 0.0
C440 C 0.53616 0.62662 0.74731 0.0
C441 C 0.59925 0.70999 0.76286 0.0
N442 N 0.53327 0.53533 0.7926 0.0
N443 N 0.59409 0.66722 0.78309 0.0
H444 H 1.0353 0.46828 0.71506 0.0
H445 H 0.13361 0.71008 0.82488 0.0
H446 H 0.18893 0.51447 0.71586 0.0
H447 H 0.98353 0.70553 0.78759 0.0
H448 H 0.1547 0.63015 0.79217 0.0
H449 H 1.01516 0.5459 0.7502 0.0
C450 C 0.06478 0.49429 0.72308 0.0
C451 C 0.11372 0.48526 0.71251 0.0
C452 C 0.11724 0.64696 0.7911 0.0
C453 C 0.09131 0.57365 0.75251 0.0
C454 C 0.10527 0.69266 0.80964 0.0
C455 C 0.05688 0.71502 0.80877 0.0
C456 C 0.08029 0.62267 0.77217 0.0
C457 C 1.02149 0.69026 0.7888 0.0
C458 C 0.05333 0.53875 0.74281 0.0
C459 C 0.15066 0.52042 0.7233 0.0
N460 N 1.03375 0.64528 0.77157 0.0
N461 N 0.13878 0.56292 0.74273 0.0
H462 H 0.53326 0.3422 0.33113 0.0
H463 H 0.61531 0.50236 0.17348 0.0
H464 H 0.63847 0.28129 0.26094 0.0
H465 H 0.49652 0.55897 0.23481 0.0
H466 H 0.61582 0.41575 0.20184 0.0
H467 H 0.51051 0.41567 0.2936 0.0
C468 C 0.55065 0.34339 0.30753 0.0
C469 C 0.58821 0.30565 0.29932 0.0
C470 C 0.58889 0.4465 0.2089 0.0
C471 C 0.5629 0.3902 0.25646 0.0
C472 C 0.58852 0.4958 0.19255 0.0
C473 C 0.55569 0.53746 0.20176 0.0
C474 C 0.55694 0.43898 0.23535 0.0
C475 C 0.52199 0.52745 0.22684 0.0
C476 C 0.53786 0.38561 0.28618 0.0
C477 C 0.60971 0.30964 0.2685 0.0
N478 N 0.52401 0.47948 0.24318 0.0
N479 N 0.59723 0.35138 0.24847 0.0
H480 H 0.51764 0.79375 0.27384 0.0
H481 H 0.6118 0.09588 0.29128 0.0
H482 H 0.59169 0.87572 0.19595 0.0
H483 H 0.59569 0.98913 0.37287 0.0
H484 H 0.59277 0.02055 0.25476 0.0
H485 H 0.53591 0.86936 0.30968 0.0
C486 C 0.53811 0.82748 0.26435 0.0
C487 C 0.55347 0.82823 0.23192 0.0
C488 C 0.59326 1.01378 0.28068 0.0
C489 C 0.57345 0.91555 0.27263 0.0
C490 C 0.60358 0.05679 0.30145 0.0
C491 C 0.60536 0.04855 0.33507 0.0
C492 C 0.58378 0.96256 0.29372 0.0
C493 C 0.59503 0.99697 0.34708 0.0
C494 C 0.54844 0.87065 0.2848 0.0
C495 C 0.57965 0.87319 0.22089 0.0
N496 N 0.58453 0.95605 0.32648 0.0
N497 N 0.58842 0.9153 0.24112 0.0
H498 H 0.12588 0.032 0.87146 0.0
H499 H 1.04463 0.18616 0.70826 0.0
H500 H 1.01303 0.97017 0.80775 0.0
H501 H 0.14918 0.24558 0.77851 0.0
H502 H 1.02839 0.10921 0.74421 0.0
H503 H 0.13233 0.11096 0.83722 0.0
C504 C 0.10206 0.03506 0.85034 0.0
C505 C 0.06835 0.99425 0.84288 0.0
C506 C 0.05437 0.13951 0.75189 0.0
C507 C 0.07615 0.08564 0.80271 0.0
C508 C 0.06328 0.18379 0.73153 0.0
C509 C 0.09835 0.22257 0.74037 0.0
C510 C 0.08074 0.134 0.78125 0.0
C511 C 0.12196 0.21677 0.77058 0.0
C512 C 0.10594 0.08041 0.83059 0.0
C513 C 1.03964 1.00037 0.81447 0.0
N514 N 0.11299 0.17336 0.78969 0.0
N515 N 1.04412 0.04525 0.79544 0.0
H516 H 0.50598 0.03326 0.67333 0.0
H517 H 0.61959 0.18266 0.82623 0.0
H518 H 0.63368 0.97007 0.72509 0.0
H519 H 0.50667 0.25168 0.76329 0.0
H520 H 0.63266 0.10942 0.78709 0.0
H521 H 0.51229 0.11771 0.70314 0.0
C522 C 0.53584 0.03769 0.69075 0.0
C523 C 0.56921 0.99476 0.69688 0.0
C524 C 0.60568 0.14115 0.78161 0.0
C525 C 0.5763 0.09109 0.73184 0.0
C526 C 0.59838 0.18318 0.80387 0.0
C527 C 0.56157 0.22318 0.79822 0.0
C528 C 0.57584 0.13906 0.75359 0.0
C529 C 0.53505 0.22149 0.7689 0.0
C530 C 0.53951 0.08587 0.70782 0.0
C531 C 0.60741 1.00245 0.7196 0.0
N532 N 0.54228 0.17991 0.74798 0.0
N533 N 0.60947 0.04941 0.73669 0.0
H534 H 1.00752 0.08417 0.23336 0.0
H535 H 0.12472 0.79121 0.2718 0.0
H536 H 0.12041 1.00377 0.17599 0.0
H537 H 1.02579 0.87411 0.33788 0.0
H538 H 0.11556 0.86596 0.23386 0.0
H539 H 1.00781 1.00632 0.27012 0.0
C540 C 1.03245 0.05046 0.22845 0.0
C541 C 0.06385 0.0508 0.20125 0.0
C542 C 0.09551 0.86787 0.25654 0.0
C543 C 0.06374 0.96116 0.24307 0.0
C544 C 0.10057 0.82495 0.27822 0.0
C545 C 0.07622 0.82642 0.3082 0.0
C546 C 0.06601 0.9131 0.26478 0.0
C547 C 1.04521 0.87123 0.31502 0.0
C548 C 1.03233 1.00583 0.24938 0.0
C549 C 0.09488 1.00539 0.19612 0.0
N550 N 1.0413 0.91305 0.29358 0.0
N551 N 0.09397 0.96271 0.21673 0.0
H552 H 0.97333 0.54278 0.92499 0.0
H553 H 0.98502 0.50584 0.11771 0.0
H554 H 0.9947 0.67374 0.99179 0.0
H555 H 0.99495 0.37329 0.05052 0.0
H556 H 0.97855 0.56851 0.07186 0.0
H557 H 0.9711 0.48002 0.97098 0.0
C558 C 0.97731 0.55821 0.94934 0.0
C559 C 0.98489 0.6132 0.95465 0.0
C560 C 0.98216 0.52568 0.06717 0.0
C561 C 0.98234 0.54225 1.00715 0.0
C562 C 0.98562 0.49003 0.0933 0.0
C563 C 0.99112 0.43454 0.08784 0.0
C564 C 0.98373 0.50551 0.03541 0.0
C565 C 0.99184 0.41593 0.05576 0.0
C566 C 0.97628 0.52252 0.97552 0.0
C567 C 0.98992 0.63141 0.98663 0.0
N568 N 0.98822 0.45136 0.03073 0.0
N569 N 0.9886 0.59601 1.01167 0.0
H570 H 0.66923 0.54843 0.60753 0.0
H571 H 0.6291 0.50812 0.41696 0.0
H572 H 0.62047 0.67583 0.54288 0.0
H573 H 0.65394 0.37686 0.4842 0.0
H574 H 0.63155 0.57153 0.46227 0.0
H575 H 0.67006 0.4857 0.56182 0.0
C576 C 0.65888 0.56311 0.58368 0.0
C577 C 0.64427 0.61707 0.57896 0.0
C578 C 0.63629 0.52881 0.46709 0.0
C579 C 0.64501 0.54601 0.52673 0.0
C580 C 0.63506 0.49276 0.44126 0.0
C581 C 0.64086 0.43727 0.44691 0.0
C582 C 0.64383 0.50913 0.49871 0.0
C583 C 0.6483 0.41924 0.47885 0.0
C584 C 0.65908 0.52738 0.55767 0.0
C585 C 0.63097 0.63423 0.54764 0.0
N586 N 0.64967 0.4551 0.50355 0.0
N587 N 0.63168 0.5988 0.52269 0.0
H588 H 0.58202 0.10821 0.95675 0.0
H589 H 0.57394 0.90182 0.07021 0.0
H590 H 0.42865 0.07114 0.93717 0.0
H591 H 0.41526 0.93183 0.06971 0.0
H592 H 0.58195 0.96196 0.02405 0.0
H593 H 0.58223 0.04457 1.00164 0.0
C594 C 0.54853 0.08612 0.9617 0.0
C595 C 0.50528 0.09494 0.94316 0.0
C596 C 0.54544 0.95642 0.03434 0.0
C597 C 0.50552 0.02052 0.99404 0.0
C598 C 0.54076 0.92136 0.06048 0.0
C599 C 0.49385 0.91193 0.07394 0.0
C600 C 0.50289 0.98264 0.02163 0.0
C601 C 0.45219 0.93863 0.06044 0.0
C602 C 0.54882 0.04916 0.98713 0.0
C603 C 0.46298 0.06503 0.95054 0.0
N604 N 0.45768 0.97264 0.03491 0.0
N605 N 0.46404 0.02944 0.97561 0.0
H606 H 0.05806 0.92343 0.46255 0.0
H607 H 0.06497 0.12828 0.5777 0.0
H608 H 0.21827 0.9282 0.46754 0.0
H609 H 0.20836 0.05884 0.60289 0.0
H610 H 0.06136 0.06854 0.5309 0.0
H611 H 0.05303 0.98533 0.50824 0.0
C612 C 0.09218 0.938 0.47312 0.0
C613 C 0.13866 0.92087 0.46122 0.0
C614 C 0.09314 0.06548 0.54701 0.0
C615 C 0.1333 0.99266 0.51303 0.0
C616 C 0.09542 0.09997 0.57353 0.0
C617 C 0.13685 0.09819 0.59427 0.0
C618 C 0.13272 0.02902 0.54122 0.0
C619 C 0.17536 0.06085 0.58783 0.0
C620 C 0.0893 0.97385 0.49896 0.0
C621 C 0.18173 0.94105 0.47568 0.0
N622 N 0.17254 0.02799 0.56168 0.0
N623 N 0.17801 0.97558 0.50106 0.0
loop_
_geom_bond_atom_site_label_1
_geom_bond_atom_site_label_2
_geom_bond_distance
_geom_bond_site_symmetry_2
_ccdc_geom_bond_type
C0 C1 1.351 . S
C0 N3 1.368 . S
C0 H5 0.931 . S
C1 C0 1.351 . S
C1 N2 1.373 . S
C1 H29 0.930 . S
N2 C1 1.373 . S
N2 C4 1.340 . S
N3 C0 1.368 . S
N3 C4 1.321 . S
N3 Co6 2.135 . S
C4 N2 1.340 . S
C4 N3 1.321 . S
C4 H28 0.930 . S
H5 C0 0.931 . S
Co6 N3 2.135 . S
Co6 N9 2.121 . S
Co6 O14 2.055 . S
Co6 O17 2.039 . S
Co6 N20 2.140 1_455 S
C7 O8 1.227 1_455 S
C7 O17 1.265 . S
O8 C7 1.227 1_655 S
N9 Co6 2.121 . S
N9 C11 1.375 . S
N9 C12 1.313 . S
C10 C11 1.338 . S
C10 N13 1.377 . S
C10 H30 0.930 . S
C11 N9 1.375 . S
C11 C10 1.338 . S
C11 H15 0.931 1_455 S
C12 N9 1.313 . S
C12 N13 1.344 . S
C12 H16 0.930 . S
N13 C10 1.377 . S
N13 C12 1.344 . S
O14 Co6 2.055 . S
O14 C18 1.253 . S
H15 C11 0.931 1_655 S
H16 C12 0.930 . S
O17 Co6 2.039 . S
O17 C7 1.265 . S
C18 O14 1.253 . S
C18 O19 1.227 . S
O19 C18 1.227 . S
N20 Co6 2.140 1_655 S
N20 C23 1.346 . S
N20 C24 1.345 . S
C21 C22 1.387 . S
C21 C25 1.391 . S
C22 C21 1.387 . S
C22 C23 1.369 . S
C22 H31 0.929 . S
C23 N20 1.346 . S
C23 C22 1.369 . S
C23 H26 0.928 . S
C24 N20 1.345 . S
C24 C25 1.371 . S
C24 H27 0.931 1_655 S
C25 C21 1.391 . S
C25 C24 1.371 . S
C25 H32 0.930 . S
H26 C23 0.928 . S
H27 C24 0.931 1_455 S
H28 C4 0.930 . S
H29 C1 0.930 . S
H30 C10 0.930 . S
H31 C22 0.929 . S
H32 C25 0.930 . S
C33 C34 1.351 . S
C33 N36 1.368 . S
C33 H38 0.931 . S
C34 C33 1.351 . S
C34 N35 1.373 . S
C34 H62 0.930 . S
N35 C34 1.373 . S
N35 C37 1.340 . S
N36 C33 1.368 . S
N36 C37 1.321 . S
N36 Co39 2.135 . S
C37 N35 1.340 . S
C37 N36 1.321 . S
C37 H61 0.930 . S
H38 C33 0.931 . S
Co39 N36 2.135 . S
Co39 N42 2.121 . S
Co39 O47 2.055 . S
Co39 O50 2.039 . S
Co39 N53 2.140 . S
C40 O41 1.227 . S
C40 O50 1.265 . S
O41 C40 1.227 . S
N42 Co39 2.121 . S
N42 C44 1.375 . S
N42 C45 1.313 . S
C43 C44 1.338 . S
C43 N46 1.377 . S
C43 H63 0.930 . S
C44 N42 1.375 . S
C44 C43 1.338 . S
C44 H48 0.931 . S
C45 N42 1.313 . S
C45 N46 1.344 . S
C45 H49 0.930 . S
N46 C43 1.377 . S
N46 C45 1.344 . S
O47 Co39 2.055 . S
O47 C51 1.253 . S
H48 C44 0.931 . S
H49 C45 0.930 . S
O50 Co39 2.039 . S
O50 C40 1.265 . S
C51 O47 1.253 . S
C51 O52 1.227 . S
O52 C51 1.227 . S
N53 Co39 2.140 . S
N53 C56 1.346 . S
N53 C57 1.345 . S
C54 C55 1.387 . S
C54 C58 1.391 . S
C55 C54 1.387 . S
C55 C56 1.369 . S
C55 H64 0.929 . S
C56 N53 1.346 . S
C56 C55 1.369 . S
C56 H59 0.928 . S
C57 N53 1.345 . S
C57 C58 1.371 . S
C57 H60 0.931 . S
C58 C54 1.391 . S
C58 C57 1.371 . S
C58 H65 0.930 . S
H59 C56 0.928 . S
H60 C57 0.931 . S
H61 C37 0.930 . S
H62 C34 0.930 . S
H63 C43 0.930 . S
H64 C55 0.929 . S
H65 C58 0.930 . S
C66 C67 1.351 . S
C66 N69 1.368 . S
C66 H71 0.931 . S
C67 C66 1.351 . S
C67 N68 1.373 . S
C67 H95 0.930 . S
N68 C67 1.373 . S
N68 C70 1.340 . S
N69 C66 1.368 . S
N69 C70 1.321 . S
N69 Co72 2.135 . S
C70 N68 1.340 . S
C70 N69 1.321 . S
C70 H94 0.930 . S
H71 C66 0.931 . S
Co72 N69 2.135 . S
Co72 N75 2.121 . S
Co72 O80 2.055 . S
Co72 O83 2.039 . S
Co72 N86 2.140 1_455 S
C73 O74 1.227 1_455 S
C73 O83 1.265 . S
O74 C73 1.227 1_655 S
N75 Co72 2.121 . S
N75 C77 1.375 . S
N75 C78 1.313 . S
C76 C77 1.338 . S
C76 N79 1.377 . S
C76 H96 0.930 . S
C77 N75 1.375 . S
C77 C76 1.338 . S
C77 H81 0.931 1_455 S
C78 N75 1.313 . S
C78 N79 1.344 . S
C78 H82 0.930 . S
N79 C76 1.377 . S
N79 C78 1.344 . S
O80 Co72 2.055 . S
O80 C84 1.253 . S
H81 C77 0.931 1_655 S
H82 C78 0.930 . S
O83 Co72 2.039 . S
O83 C73 1.265 . S
C84 O80 1.253 . S
C84 O85 1.227 . S
O85 C84 1.227 . S
N86 Co72 2.140 1_655 S
N86 C89 1.346 . S
N86 C90 1.345 . S
C87 C88 1.387 . S
C87 C91 1.391 . S
C88 C87 1.387 . S
C88 C89 1.369 . S
C88 H97 0.929 . S
C89 N86 1.346 . S
C89 C88 1.369 . S
C89 H92 0.928 . S
C90 N86 1.345 . S
C90 C91 1.371 . S
C90 H93 0.931 1_655 S
C91 C87 1.391 . S
C91 C90 1.371 . S
C91 H98 0.930 . S
H92 C89 0.928 . S
H93 C90 0.931 1_455 S
H94 C70 0.930 . S
H95 C67 0.930 . S
H96 C76 0.930 . S
H97 C88 0.929 . S
H98 C91 0.930 . S
C99 C100 1.351 . S
C99 N102 1.368 . S
C99 H104 0.931 . S
C100 C99 1.351 . S
C100 N101 1.373 . S
C100 H128 0.930 . S
N101 C100 1.373 . S
N101 C103 1.340 . S
N102 C99 1.368 . S
N102 C103 1.321 . S
N102 Co105 2.135 . S
C103 N101 1.340 . S
C103 N102 1.321 . S
C103 H127 0.930 . S
H104 C99 0.931 . S
Co105 N102 2.135 . S
Co105 N108 2.121 . S
Co105 O113 2.055 . S
Co105 O116 2.039 . S
Co105 N119 2.140 . S
C106 O107 1.227 . S
C106 O116 1.265 . S
O107 C106 1.227 . S
N108 Co105 2.121 . S
N108 C110 1.375 . S
N108 C111 1.313 . S
C109 C110 1.338 . S
C109 N112 1.377 . S
C109 H129 0.930 . S
C110 N108 1.375 . S
C110 C109 1.338 . S
C110 H114 0.931 . S
C111 N108 1.313 . S
C111 N112 1.344 . S
C111 H115 0.930 . S
N112 C109 1.377 . S
N112 C111 1.344 . S
O113 Co105 2.055 . S
O113 C117 1.253 . S
H114 C110 0.931 . S
H115 C111 0.930 . S
O116 Co105 2.039 . S
O116 C106 1.265 . S
C117 O113 1.253 . S
C117 O118 1.227 . S
O118 C117 1.227 . S
N119 Co105 2.140 . S
N119 C122 1.346 . S
N119 C123 1.345 . S
C120 C121 1.387 . S
C120 C124 1.391 . S
C121 C120 1.387 . S
C121 C122 1.369 . S
C121 H130 0.929 . S
C122 N119 1.346 . S
C122 C121 1.369 . S
C122 H125 0.928 . S
C123 N119 1.345 . S
C123 C124 1.371 . S
C123 H126 0.931 . S
C124 C120 1.391 . S
C124 C123 1.371 . S
C124 H131 0.930 . S
H125 C122 0.928 . S
H126 C123 0.931 . S
H127 C103 0.930 . S
H128 C100 0.930 . S
H129 C109 0.930 . S
H130 C121 0.929 . S
H131 C124 0.930 . S
C132 C133 1.351 . S
C132 N135 1.368 . S
C132 H137 0.931 . S
C133 C132 1.351 . S
C133 N134 1.373 . S
C133 H161 0.930 . S
N134 C133 1.373 . S
N134 C136 1.340 . S
N135 C132 1.368 . S
N135 C136 1.321 . S
N135 Co138 2.135 . S
C136 N134 1.340 . S
C136 N135 1.321 . S
C136 H160 0.930 . S
H137 C132 0.931 . S
Co138 N135 2.135 . S
Co138 N141 2.121 . S
Co138 O146 2.055 . S
Co138 O149 2.039 . S
Co138 N152 2.140 . S
C139 O140 1.227 . S
C139 O149 1.265 . S
O140 C139 1.227 . S
N141 Co138 2.121 . S
N141 C143 1.375 . S
N141 C144 1.313 . S
C142 C143 1.338 . S
C142 N145 1.377 . S
C142 H162 0.930 . S
C143 N141 1.375 . S
C143 C142 1.338 . S
C143 H147 0.931 . S
C144 N141 1.313 . S
C144 N145 1.344 . S
C144 H148 0.930 . S
N145 C142 1.377 . S
N145 C144 1.344 . S
O146 Co138 2.055 . S
O146 C150 1.253 . S
H147 C143 0.931 . S
H148 C144 0.930 . S
O149 Co138 2.039 . S
O149 C139 1.265 . S
C150 O146 1.253 . S
C150 O151 1.227 . S
O151 C150 1.227 . S
N152 Co138 2.140 . S
N152 C155 1.346 . S
N152 C156 1.345 . S
C153 C154 1.387 . S
C153 C157 1.391 . S
C154 C153 1.387 . S
C154 C155 1.369 . S
C154 H163 0.929 . S
C155 N152 1.346 . S
C155 C154 1.369 . S
C155 H158 0.928 . S
C156 N152 1.345 . S
C156 C157 1.371 . S
C156 H159 0.931 . S
C157 C153 1.391 . S
C157 C156 1.371 . S
C157 H164 0.930 . S
H158 C155 0.928 . S
H159 C156 0.931 . S
H160 C136 0.930 . S
H161 C133 0.930 . S
H162 C142 0.930 . S
H163 C154 0.929 . S
H164 C157 0.930 . S
C165 C166 1.351 . S
C165 N168 1.368 . S
C165 H170 0.931 . S
C166 C165 1.351 . S
C166 N167 1.373 . S
C166 H194 0.930 . S
N167 C166 1.373 . S
N167 C169 1.340 . S
N168 C165 1.368 . S
N168 C169 1.321 . S
N168 Co171 2.135 . S
C169 N167 1.340 . S
C169 N168 1.321 . S
C169 H193 0.930 1_655 S
H170 C165 0.931 . S
Co171 N168 2.135 . S
Co171 N174 2.121 . S
Co171 O179 2.055 . S
Co171 O182 2.039 . S
Co171 N185 2.140 1_655 S
C172 O173 1.227 . S
C172 O182 1.265 1_455 S
O173 C172 1.227 . S
N174 Co171 2.121 . S
N174 C176 1.375 1_655 S
N174 C177 1.313 . S
C175 C176 1.338 . S
C175 N178 1.377 1_455 S
C175 H195 0.930 . S
C176 N174 1.375 1_455 S
C176 C175 1.338 . S
C176 H180 0.931 . S
C177 N174 1.313 . S
C177 N178 1.344 . S
C177 H181 0.930 . S
N178 C175 1.377 1_655 S
N178 C177 1.344 . S
O179 Co171 2.055 . S
O179 C183 1.253 . S
H180 C176 0.931 . S
H181 C177 0.930 . S
O182 Co171 2.039 . S
O182 C172 1.265 1_655 S
C183 O179 1.253 . S
C183 O184 1.227 . S
O184 C183 1.227 . S
N185 Co171 2.140 1_455 S
N185 C188 1.346 . S
N185 C189 1.345 . S
C186 C187 1.387 . S
C186 C190 1.391 . S
C187 C186 1.387 . S
C187 C188 1.369 . S
C187 H196 0.929 . S
C188 N185 1.346 . S
C188 C187 1.369 . S
C188 H191 0.928 . S
C189 N185 1.345 . S
C189 C190 1.371 . S
C189 H192 0.931 . S
C190 C186 1.391 . S
C190 C189 1.371 . S
C190 H197 0.930 . S
H191 C188 0.928 . S
H192 C189 0.931 . S
H193 C169 0.930 1_455 S
H194 C166 0.930 . S
H195 C175 0.930 . S
H196 C187 0.929 . S
H197 C190 0.930 . S
C198 C199 1.351 . S
C198 N201 1.368 . S
C198 H203 0.931 . S
C199 C198 1.351 . S
C199 N200 1.373 . S
C199 H227 0.930 . S
N200 C199 1.373 . S
N200 C202 1.340 . S
N201 C198 1.368 . S
N201 C202 1.321 . S
N201 Co204 2.135 . S
C202 N200 1.340 . S
C202 N201 1.321 . S
C202 H226 0.930 . S
H203 C198 0.931 . S
Co204 N201 2.135 . S
Co204 N207 2.121 . S
Co204 O212 2.055 . S
Co204 O215 2.039 . S
Co204 N218 2.140 . S
C205 O206 1.227 . S
C205 O215 1.265 . S
O206 C205 1.227 . S
N207 Co204 2.121 . S
N207 C209 1.375 . S
N207 C210 1.313 . S
C208 C209 1.338 . S
C208 N211 1.377 . S
C208 H228 0.930 . S
C209 N207 1.375 . S
C209 C208 1.338 . S
C209 H213 0.931 . S
C210 N207 1.313 . S
C210 N211 1.344 . S
C210 H214 0.930 . S
N211 C208 1.377 . S
N211 C210 1.344 . S
O212 Co204 2.055 . S
O212 C216 1.253 . S
H213 C209 0.931 . S
H214 C210 0.930 . S
O215 Co204 2.039 . S
O215 C205 1.265 . S
C216 O212 1.253 . S
C216 O217 1.227 . S
O217 C216 1.227 . S
N218 Co204 2.140 . S
N218 C221 1.346 . S
N218 C222 1.345 . S
C219 C220 1.387 . S
C219 C223 1.391 . S
C220 C219 1.387 . S
C220 C221 1.369 . S
C220 H229 0.929 . S
C221 N218 1.346 . S
C221 C220 1.369 . S
C221 H224 0.928 . S
C222 N218 1.345 . S
C222 C223 1.371 . S
C222 H225 0.931 . S
C223 C219 1.391 . S
C223 C222 1.371 . S
C223 H230 0.930 . S
H224 C221 0.928 . S
H225 C222 0.931 . S
H226 C202 0.930 . S
H227 C199 0.930 . S
H228 C208 0.930 . S
H229 C220 0.929 . S
H230 C223 0.930 . S
C231 C232 1.351 . S
C231 N234 1.368 . S
C231 H236 0.931 . S
C232 C231 1.351 . S
C232 N233 1.373 . S
C232 H260 0.930 . S
N233 C232 1.373 . S
N233 C235 1.340 . S
N234 C231 1.368 . S
N234 C235 1.321 . S
N234 Co237 2.135 . S
C235 N233 1.340 . S
C235 N234 1.321 . S
C235 H259 0.930 1_655 S
H236 C231 0.931 . S
Co237 N234 2.135 . S
Co237 N240 2.121 . S
Co237 O245 2.055 . S
Co237 O248 2.039 . S
Co237 N251 2.140 1_655 S
C238 O239 1.227 . S
C238 O248 1.265 1_455 S
O239 C238 1.227 . S
N240 Co237 2.121 . S
N240 C242 1.375 1_655 S
N240 C243 1.313 . S
C241 C242 1.338 . S
C241 N244 1.377 1_455 S
C241 H261 0.930 . S
C242 N240 1.375 1_455 S
C242 C241 1.338 . S
C242 H246 0.931 . S
C243 N240 1.313 . S
C243 N244 1.344 . S
C243 H247 0.930 . S
N244 C241 1.377 1_655 S
N244 C243 1.344 . S
O245 Co237 2.055 . S
O245 C249 1.253 . S
H246 C242 0.931 . S
H247 C243 0.930 . S
O248 Co237 2.039 . S
O248 C238 1.265 1_655 S
C249 O245 1.253 . S
C249 O250 1.227 . S
O250 C249 1.227 . S
N251 Co237 2.140 1_455 S
N251 C254 1.346 . S
N251 C255 1.345 . S
C252 C253 1.387 . S
C252 C256 1.391 . S
C253 C252 1.387 . S
C253 C254 1.369 . S
C253 H262 0.929 . S
C254 N251 1.346 . S
C254 C253 1.369 . S
C254 H257 0.928 . S
C255 N251 1.345 . S
C255 C256 1.371 . S
C255 H258 0.931 . S
C256 C252 1.391 . S
C256 C255 1.371 . S
C256 H263 0.930 . S
H257 C254 0.928 . S
H258 C255 0.931 . S
H259 C235 0.930 1_455 S
H260 C232 0.930 . S
H261 C241 0.930 . S
H262 C253 0.929 . S
H263 C256 0.930 . S
H264 C270 0.930 . S
H265 C274 0.930 . S
H266 C279 0.929 . S
H267 C277 0.929 . S
H268 C272 0.929 . S
H269 C278 0.929 . S
C270 H264 0.930 . S
C270 C271 1.367 . S
C270 C278 1.378 . S
C271 C270 1.367 . S
C271 C279 1.433 . S
C272 H268 0.929 . S
C272 C274 1.378 . S
C272 C276 1.350 . S
C273 C276 1.463 1_556 S
C273 C278 1.350 . S
C273 N281 1.427 . S
C274 H265 0.930 . S
C274 C272 1.378 . S
C274 C275 1.367 . S
C275 C274 1.367 . S
C275 C277 1.433 . S
C276 C272 1.350 . S
C276 C273 1.463 1_554 S
C276 N280 1.427 . S
C277 H267 0.929 . S
C277 C275 1.433 . S
C277 N280 1.384 . S
C278 H269 0.929 . S
C278 C270 1.378 . S
C278 C273 1.350 . S
C279 H266 0.929 . S
C279 C271 1.433 . S
C279 N281 1.384 . S
N280 C276 1.427 . S
N280 C277 1.384 . S
N281 C273 1.427 . S
N281 C279 1.384 . S
H282 C288 0.930 . S
H283 C292 0.930 . S
H284 C297 0.929 . S
H285 C295 0.929 . S
H286 C290 0.929 . S
H287 C296 0.929 . S
C288 H282 0.930 . S
C288 C289 1.367 . S
C288 C296 1.378 . S
C289 C288 1.367 . S
C289 C297 1.433 . S
C290 H286 0.929 . S
C290 C292 1.378 . S
C290 C294 1.350 . S
C291 C294 1.463 . S
C291 C296 1.350 . S
C291 N299 1.427 . S
C292 H283 0.930 . S
C292 C290 1.378 . S
C292 C293 1.367 . S
C293 C292 1.367 . S
C293 C295 1.433 . S
C294 C290 1.350 . S
C294 C291 1.463 . S
C294 N298 1.427 . S
C295 H285 0.929 . S
C295 C293 1.433 . S
C295 N298 1.384 . S
C296 H287 0.929 . S
C296 C288 1.378 . S
C296 C291 1.350 . S
C297 H284 0.929 . S
C297 C289 1.433 . S
C297 N299 1.384 . S
N298 C294 1.427 . S
N298 C295 1.384 . S
N299 C291 1.427 . S
N299 C297 1.384 . S
H300 C306 0.930 . S
H301 C310 0.930 . S
H302 C315 0.929 . S
H303 C313 0.929 . S
H304 C308 0.944 . S
H305 C314 0.929 1_556 S
C306 H300 0.930 . S
C306 C307 1.367 . S
C306 C314 1.378 . S
C307 C306 1.367 . S
C307 C315 1.433 . S
C308 H304 0.944 . S
C308 C310 1.378 . S
C308 C312 1.350 . S
C309 C312 1.463 1_554 S
C309 C314 1.350 . S
C309 N317 1.427 . S
C310 H301 0.930 . S
C310 C308 1.378 . S
C310 C311 1.367 . S
C311 C310 1.367 . S
C311 C313 1.433 . S
C312 C308 1.350 . S
C312 C309 1.463 1_556 S
C312 N316 1.427 . S
C313 H303 0.929 . S
C313 C311 1.433 . S
C313 N316 1.384 . S
C314 H305 0.929 1_554 S
C314 C306 1.378 . S
C314 C309 1.350 . S
C315 H302 0.929 . S
C315 C307 1.433 . S
C315 N317 1.384 . S
N316 C312 1.427 . S
N316 C313 1.384 . S
N317 C309 1.427 . S
N317 C315 1.384 . S
H318 C324 0.930 . S
H319 C328 0.930 . S
H320 C333 0.929 . S
H321 C331 0.929 . S
H322 C326 0.929 . S
H323 C332 0.929 . S
C324 H318 0.930 . S
C324 C325 1.367 . S
C324 C332 1.378 . S
C325 C324 1.367 . S
C325 C333 1.433 . S
C326 H322 0.929 . S
C326 C328 1.378 . S
C326 C330 1.350 . S
C327 C330 1.463 . S
C327 C332 1.350 . S
C327 N335 1.427 . S
C328 H319 0.930 . S
C328 C326 1.378 . S
C328 C329 1.367 . S
C329 C328 1.367 . S
C329 C331 1.433 . S
C330 C326 1.350 . S
C330 C327 1.463 . S
C330 N334 1.427 . S
C331 H321 0.929 . S
C331 C329 1.433 . S
C331 N334 1.384 . S
C332 H323 0.929 . S
C332 C324 1.378 . S
C332 C327 1.350 . S
C333 H320 0.929 . S
C333 C325 1.433 . S
C333 N335 1.384 . S
N334 C330 1.427 . S
N334 C331 1.384 . S
N335 C327 1.427 . S
N335 C333 1.384 . S
H336 C342 0.930 . S
H337 C346 0.930 . S
H338 C351 0.929 . S
H339 C349 0.929 . S
H340 C344 0.929 . S
H341 C350 0.916 1_556 S
C342 H336 0.930 . S
C342 C343 1.367 . S
C342 C350 1.386 . S
C343 C342 1.367 . S
C343 C351 1.433 . S
C344 H340 0.929 . S
C344 C346 1.378 1_554 S
C344 C348 1.350 1_554 S
C345 C348 1.463 1_554 S
C345 C350 1.354 . S
C345 N353 1.427 . S
C346 H337 0.930 . S
C346 C344 1.378 1_556 S
C346 C347 1.367 . S
C347 C346 1.367 . S
C347 C349 1.433 . S
C348 C344 1.350 1_556 S
C348 C345 1.463 1_556 S
C348 N352 1.427 . S
C349 H339 0.929 . S
C349 C347 1.433 . S
C349 N352 1.384 . S
C350 H341 0.916 1_554 S
C350 C342 1.386 . S
C350 C345 1.354 . S
C351 H338 0.929 . S
C351 C343 1.433 . S
C351 N353 1.384 . S
N352 C348 1.427 . S
N352 C349 1.384 . S
N353 C345 1.427 . S
N353 C351 1.384 . S
H354 C360 0.930 . S
H355 C364 0.930 . S
H356 C369 0.929 . S
H357 C367 0.929 . S
H358 C362 0.929 . S
H359 C368 0.929 . S
C360 H354 0.930 . S
C360 C361 1.367 . S
C360 C368 1.378 . S
C361 C360 1.367 . S
C361 C369 1.433 . S
C362 H358 0.929 . S
C362 C364 1.378 . S
C362 C366 1.350 . S
C363 C366 1.463 . S
C363 C368 1.350 . S
C363 N371 1.427 . S
C364 H355 0.930 . S
C364 C362 1.378 . S
C364 C365 1.367 . S
C365 C364 1.367 . S
C365 C367 1.433 . S
C366 C362 1.350 . S
C366 C363 1.463 . S
C366 N370 1.427 . S
C367 H357 0.929 . S
C367 C365 1.433 . S
C367 N370 1.384 . S
C368 H359 0.929 . S
C368 C360 1.378 . S
C368 C363 1.350 . S
C369 H356 0.929 . S
C369 C361 1.433 . S
C369 N371 1.384 . S
N370 C366 1.427 . S
N370 C367 1.384 . S
N371 C363 1.427 . S
N371 C369 1.384 . S
H372 C378 0.930 . S
H373 C382 0.930 . S
H374 C387 0.929 . S
H375 C385 0.929 . S
H376 C380 0.929 . S
H377 C386 0.929 . S
C378 H372 0.930 . S
C378 C379 1.367 . S
C378 C386 1.378 . S
C379 C378 1.367 . S
C379 C387 1.433 . S
C380 H376 0.929 . S
C380 C382 1.378 . S
C380 C384 1.350 . S
C381 C384 1.463 1_554 S
C381 C386 1.350 . S
C381 N389 1.427 . S
C382 H373 0.930 . S
C382 C380 1.378 . S
C382 C383 1.367 . S
C383 C382 1.367 . S
C383 C385 1.433 . S
C384 C380 1.350 . S
C384 C381 1.463 1_556 S
C384 N388 1.427 . S
C385 H375 0.929 . S
C385 C383 1.433 . S
C385 N388 1.384 . S
C386 H377 0.929 . S
C386 C378 1.378 . S
C386 C381 1.350 . S
C387 H374 0.929 . S
C387 C379 1.433 . S
C387 N389 1.384 . S
N388 C384 1.427 . S
N388 C385 1.384 . S
N389 C381 1.427 . S
N389 C387 1.384 . S
H390 C396 0.930 . S
H391 C400 0.930 . S
H392 C405 0.929 . S
H393 C403 0.929 . S
H394 C398 0.929 . S
H395 C404 0.929 . S
C396 H390 0.930 . S
C396 C397 1.367 . S
C396 C404 1.378 . S
C397 C396 1.367 . S
C397 C405 1.433 . S
C398 H394 0.929 . S
C398 C400 1.378 . S
C398 C402 1.350 . S
C399 C402 1.463 . S
C399 C404 1.350 . S
C399 N407 1.427 . S
C400 H391 0.930 . S
C400 C398 1.378 . S
C400 C401 1.367 . S
C401 C400 1.367 . S
C401 C403 1.433 . S
C402 C398 1.350 . S
C402 C399 1.463 . S
C402 N406 1.427 . S
C403 H393 0.929 . S
C403 C401 1.433 . S
C403 N406 1.384 . S
C404 H395 0.929 . S
C404 C396 1.378 . S
C404 C399 1.350 . S
C405 H392 0.929 . S
C405 C397 1.433 . S
C405 N407 1.384 . S
N406 C402 1.427 . S
N406 C403 1.384 . S
N407 C399 1.427 . S
N407 C405 1.384 . S
H408 C414 0.930 . S
H409 C418 0.932 . S
H410 C423 0.929 . S
H411 C421 0.929 . S
H412 C416 0.929 1_655 S
H413 C422 0.929 . S
C414 H408 0.930 . S
C414 C415 1.367 . S
C414 C422 1.378 . S
C415 C414 1.367 . S
C415 C423 1.433 . S
C416 H412 0.929 1_455 S
C416 C418 1.377 1_455 S
C416 C420 1.350 . S
C417 C420 1.463 . S
C417 C422 1.350 . S
C417 N425 1.427 . S
C418 H409 0.932 . S
C418 C416 1.377 1_655 S
C418 C419 1.366 1_655 S
C419 C418 1.366 1_455 S
C419 C421 1.433 . S
C420 C416 1.350 . S
C420 C417 1.463 . S
C420 N424 1.427 . S
C421 H411 0.929 . S
C421 C419 1.433 . S
C421 N424 1.384 . S
C422 H413 0.929 . S
C422 C414 1.378 . S
C422 C417 1.350 . S
C423 H410 0.929 . S
C423 C415 1.433 . S
C423 N425 1.384 . S
N424 C420 1.427 . S
N424 C421 1.384 . S
N425 C417 1.427 . S
N425 C423 1.384 . S
H426 C432 0.930 . S
H427 C436 0.930 . S
H428 C441 0.929 . S
H429 C439 0.929 . S
H430 C434 0.929 . S
H431 C440 0.929 . S
C432 H426 0.930 . S
C432 C433 1.367 . S
C432 C440 1.378 . S
C433 C432 1.367 . S
C433 C441 1.433 . S
C434 H430 0.929 . S
C434 C436 1.378 . S
C434 C438 1.350 . S
C435 C438 1.463 . S
C435 C440 1.350 . S
C435 N443 1.427 . S
C436 H427 0.930 . S
C436 C434 1.378 . S
C436 C437 1.367 . S
C437 C436 1.367 . S
C437 C439 1.433 . S
C438 C434 1.350 . S
C438 C435 1.463 . S
C438 N442 1.427 . S
C439 H429 0.929 . S
C439 C437 1.433 . S
C439 N442 1.384 . S
C440 H431 0.929 . S
C440 C432 1.378 . S
C440 C435 1.350 . S
C441 H428 0.929 . S
C441 C433 1.433 . S
C441 N443 1.384 . S
N442 C438 1.427 . S
N442 C439 1.384 . S
N443 C435 1.427 . S
N443 C441 1.384 . S
H444 C450 0.930 . S
H445 C454 0.930 . S
H446 C459 0.929 . S
H447 C457 0.929 . S
H448 C452 0.929 . S
H449 C458 0.929 . S
C450 H444 0.930 . S
C450 C451 1.367 1_655 S
C450 C458 1.378 . S
C451 C450 1.367 1_455 S
C451 C459 1.433 . S
C452 H448 0.929 . S
C452 C454 1.378 . S
C452 C456 1.350 . S
C453 C456 1.463 . S
C453 C458 1.350 1_455 S
C453 N461 1.427 . S
C454 H445 0.930 . S
C454 C452 1.378 . S
C454 C455 1.367 . S
C455 C454 1.367 . S
C455 C457 1.433 1_455 S
C456 C452 1.350 . S
C456 C453 1.463 . S
C456 N460 1.427 1_455 S
C457 H447 0.929 . S
C457 C455 1.433 1_655 S
C457 N460 1.384 . S
C458 H449 0.929 . S
C458 C450 1.378 . S
C458 C453 1.350 1_655 S
C459 H446 0.929 . S
C459 C451 1.433 . S
C459 N461 1.384 . S
N460 C456 1.427 1_655 S
N460 C457 1.384 . S
N461 C453 1.427 . S
N461 C459 1.384 . S
H462 C468 0.930 . S
H463 C472 0.930 . S
H464 C477 0.929 . S
H465 C475 0.929 . S
H466 C470 0.929 . S
H467 C476 0.929 . S
C468 H462 0.930 . S
C468 C469 1.367 . S
C468 C476 1.378 . S
C469 C468 1.367 . S
C469 C477 1.433 . S
C470 H466 0.929 . S
C470 C472 1.378 . S
C470 C474 1.350 . S
C471 C474 1.463 . S
C471 C476 1.350 . S
C471 N479 1.427 . S
C472 H463 0.930 . S
C472 C470 1.378 . S
C472 C473 1.367 . S
C473 C472 1.367 . S
C473 C475 1.433 . S
C474 C470 1.350 . S
C474 C471 1.463 . S
C474 N478 1.427 . S
C475 H465 0.929 . S
C475 C473 1.433 . S
C475 N478 1.384 . S
C476 H467 0.929 . S
C476 C468 1.378 . S
C476 C471 1.350 . S
C477 H464 0.929 . S
C477 C469 1.433 . S
C477 N479 1.384 . S
N478 C474 1.427 . S
N478 C475 1.384 . S
N479 C471 1.427 . S
N479 C477 1.384 . S
H480 C486 0.930 . S
H481 C490 0.930 . S
H482 C495 0.929 . S
H483 C493 0.929 . S
H484 C488 0.929 . S
H485 C494 0.929 . S
C486 H480 0.930 . S
C486 C487 1.367 . S
C486 C494 1.378 . S
C487 C486 1.367 . S
C487 C495 1.433 . S
C488 H484 0.929 . S
C488 C490 1.378 . S
C488 C492 1.350 . S
C489 C492 1.463 1_565 S
C489 C494 1.350 . S
C489 N497 1.427 . S
C490 H481 0.930 . S
C490 C488 1.378 . S
C490 C491 1.367 . S
C491 C490 1.367 . S
C491 C493 1.433 . S
C492 C488 1.350 . S
C492 C489 1.463 1_545 S
C492 N496 1.427 . S
C493 H483 0.929 . S
C493 C491 1.433 . S
C493 N496 1.384 . S
C494 H485 0.929 . S
C494 C486 1.378 . S
C494 C489 1.350 . S
C495 H482 0.929 . S
C495 C487 1.433 . S
C495 N497 1.384 . S
N496 C492 1.427 . S
N496 C493 1.384 . S
N497 C489 1.427 . S
N497 C495 1.384 . S
H498 C504 0.930 . S
H499 C508 0.930 1_655 S
H500 C513 0.929 . S
H501 C511 0.929 . S
H502 C506 0.929 1_665 S
H503 C512 0.929 1_545 S
C504 H498 0.930 . S
C504 C505 1.367 . S
C504 C512 1.378 . S
C505 C504 1.367 . S
C505 C513 1.433 . S
C506 H502 0.929 1_445 S
C506 C508 1.378 . S
C506 C510 1.350 . S
C507 C510 1.463 1_565 S
C507 C512 1.350 . S
C507 N515 1.427 . S
C508 H499 0.930 1_455 S
C508 C506 1.378 . S
C508 C509 1.367 . S
C509 C508 1.367 . S
C509 C511 1.433 . S
C510 C506 1.350 . S
C510 C507 1.463 1_545 S
C510 N514 1.427 . S
C511 H501 0.929 . S
C511 C509 1.433 . S
C511 N514 1.384 . S
C512 H503 0.929 1_565 S
C512 C504 1.378 . S
C512 C507 1.350 . S
C513 H500 0.929 . S
C513 C505 1.433 . S
C513 N515 1.384 . S
N514 C510 1.427 . S
N514 C511 1.384 . S
N515 C507 1.427 . S
N515 C513 1.384 . S
H516 C522 0.930 . S
H517 C526 0.930 . S
H518 C531 0.929 . S
H519 C529 0.929 . S
H520 C524 0.929 1_565 S
H521 C530 0.929 1_545 S
C522 H516 0.930 . S
C522 C523 1.367 . S
C522 C530 1.378 . S
C523 C522 1.367 . S
C523 C531 1.433 . S
C524 H520 0.929 1_545 S
C524 C526 1.378 . S
C524 C528 1.350 . S
C525 C528 1.463 1_565 S
C525 C530 1.350 . S
C525 N533 1.427 . S
C526 H517 0.930 . S
C526 C524 1.378 . S
C526 C527 1.367 . S
C527 C526 1.367 . S
C527 C529 1.433 . S
C528 C524 1.350 . S
C528 C525 1.463 1_545 S
C528 N532 1.427 . S
C529 H519 0.929 . S
C529 C527 1.433 . S
C529 N532 1.384 . S
C530 H521 0.929 1_565 S
C530 C522 1.378 . S
C530 C525 1.350 . S
C531 H518 0.929 . S
C531 C523 1.433 . S
C531 N533 1.384 . S
N532 C528 1.427 . S
N532 C529 1.384 . S
N533 C525 1.427 . S
N533 C531 1.384 . S
H534 C540 0.930 1_655 S
H535 C544 0.930 . S
H536 C549 0.929 . S
H537 C547 0.929 . S
H538 C542 0.929 . S
H539 C548 0.929 1_655 S
C540 H534 0.930 1_455 S
C540 C541 1.367 . S
C540 C548 1.378 . S
C541 C540 1.367 . S
C541 C549 1.433 . S
C542 H538 0.929 . S
C542 C544 1.378 . S
C542 C546 1.350 . S
C543 C546 1.463 1_545 S
C543 C548 1.350 . S
C543 N551 1.427 . S
C544 H535 0.930 . S
C544 C542 1.378 . S
C544 C545 1.367 . S
C545 C544 1.367 . S
C545 C547 1.433 1_455 S
C546 C542 1.350 . S
C546 C543 1.463 1_565 S
C546 N550 1.427 1_455 S
C547 H537 0.929 . S
C547 C545 1.433 1_655 S
C547 N550 1.384 . S
C548 H539 0.929 1_455 S
C548 C540 1.378 . S
C548 C543 1.350 . S
C549 H536 0.929 . S
C549 C541 1.433 . S
C549 N551 1.384 . S
N550 C546 1.427 1_655 S
N550 C547 1.384 . S
N551 C543 1.427 . S
N551 C549 1.384 . S
H552 C558 0.930 . S
H553 C562 0.930 . S
H554 C567 0.929 . S
H555 C565 0.929 . S
H556 C560 0.929 . S
H557 C566 0.929 . S
C558 H552 0.930 . S
C558 C559 1.367 . S
C558 C566 1.378 . S
C559 C558 1.367 . S
C559 C567 1.433 . S
C560 H556 0.929 . S
C560 C562 1.378 . S
C560 C564 1.350 . S
C561 C564 1.463 1_556 S
C561 C566 1.350 . S
C561 N569 1.427 1_556 S
C562 H553 0.930 . S
C562 C560 1.378 . S
C562 C563 1.367 . S
C563 C562 1.367 . S
C563 C565 1.433 . S
C564 C560 1.350 . S
C564 C561 1.463 1_554 S
C564 N568 1.427 1_554 S
C565 H555 0.929 . S
C565 C563 1.433 . S
C565 N568 1.384 1_554 S
C566 H557 0.929 . S
C566 C558 1.378 . S
C566 C561 1.350 . S
C567 H554 0.929 . S
C567 C559 1.433 . S
C567 N569 1.384 1_556 S
N568 C564 1.427 1_556 S
N568 C565 1.384 1_556 S
N569 C561 1.427 1_554 S
N569 C567 1.384 1_554 S
H570 C576 0.930 . S
H571 C580 0.930 . S
H572 C585 0.929 . S
H573 C583 0.929 . S
H574 C578 0.929 . S
H575 C584 0.929 . S
C576 H570 0.930 . S
C576 C577 1.367 . S
C576 C584 1.378 . S
C577 C576 1.367 . S
C577 C585 1.433 . S
C578 H574 0.929 . S
C578 C580 1.378 . S
C578 C582 1.350 . S
C579 C582 1.463 . S
C579 C584 1.350 . S
C579 N587 1.427 . S
C580 H571 0.930 . S
C580 C578 1.378 . S
C580 C581 1.367 . S
C581 C580 1.367 . S
C581 C583 1.433 . S
C582 C578 1.350 . S
C582 C579 1.463 . S
C582 N586 1.427 . S
C583 H573 0.929 . S
C583 C581 1.433 . S
C583 N586 1.384 . S
C584 H575 0.929 . S
C584 C576 1.378 . S
C584 C579 1.350 . S
C585 H572 0.929 . S
C585 C577 1.433 . S
C585 N587 1.384 . S
N586 C582 1.427 . S
N586 C583 1.384 . S
N587 C579 1.427 . S
N587 C585 1.384 . S
H588 C594 0.930 . S
H589 C598 0.930 . S
H590 C603 0.929 . S
H591 C601 0.929 . S
H592 C596 0.929 1_556 S
H593 C602 0.929 1_554 S
C594 H588 0.930 . S
C594 C595 1.367 . S
C594 C602 1.378 . S
C595 C594 1.367 . S
C595 C603 1.433 . S
C596 H592 0.929 1_554 S
C596 C598 1.378 . S
C596 C600 1.350 . S
C597 C600 1.463 1_546 S
C597 C602 1.350 . S
C597 N605 1.427 . S
C598 H589 0.930 . S
C598 C596 1.378 . S
C598 C599 1.367 . S
C599 C598 1.367 . S
C599 C601 1.433 . S
C600 C596 1.350 . S
C600 C597 1.463 1_564 S
C600 N604 1.427 . S
C601 H591 0.929 . S
C601 C599 1.433 . S
C601 N604 1.384 . S
C602 H593 0.929 1_556 S
C602 C594 1.378 . S
C602 C597 1.350 . S
C603 H590 0.929 . S
C603 C595 1.433 . S
C603 N605 1.384 . S
N604 C600 1.427 . S
N604 C601 1.384 . S
N605 C597 1.427 . S
N605 C603 1.384 . S
H606 C612 0.930 . S
H607 C616 0.930 . S
H608 C621 0.929 . S
H609 C619 0.929 . S
H610 C614 0.929 . S
H611 C620 0.929 . S
C612 H606 0.930 . S
C612 C613 1.367 1_455 S
C612 C620 1.378 . S
C613 C612 1.367 1_655 S
C613 C621 1.433 . S
C614 H610 0.929 . S
C614 C616 1.378 . S
C614 C618 1.350 . S
C615 C618 1.463 1_565 S
C615 C620 1.350 1_655 S
C615 N623 1.427 . S
C616 H607 0.930 . S
C616 C614 1.378 . S
C616 C617 1.367 . S
C617 C616 1.367 . S
C617 C619 1.433 1_655 S
C618 C614 1.350 . S
C618 C615 1.463 1_545 S
C618 N622 1.427 1_655 S
C619 H609 0.929 . S
C619 C617 1.433 1_455 S
C619 N622 1.384 . S
C620 H611 0.929 . S
C620 C612 1.378 . S
C620 C615 1.350 1_455 S
C621 H608 0.929 . S
C621 C613 1.433 . S
C621 N623 1.384 . S
N622 C618 1.427 1_455 S
N622 C619 1.384 . S
N623 C615 1.427 . S
N623 C621 1.384 . S
C271 C219 1.777 . S
C275 C18 1.786 . S
C289 C51 1.786 . S
C293 C252 1.776 . S
C307 C153 1.776 . S
C311 C84 1.785 . S
C325 C117 1.791 . S
C329 C186 1.782 . S
C343 C150 1.790 . S
C347 C87 1.781 . S
C361 C183 1.793 . S
C365 C120 1.784 . S
C379 C21 1.776 . S
C383 C216 1.785 . S
C397 C54 1.776 . S
C401 C249 1.785 . S
C415 C7 1.983 . S
C419 N233 1.937 1_455 S
C433 C40 1.983 . S
C437 N200 1.937 . S
C451 N167 1.943 1_455 S
C455 C73 1.985 . S
C469 C106 1.982 . S
C473 N134 1.939 . S
C487 C139 1.982 . S
C491 N101 1.942 . S
C505 N68 1.936 . S
C509 C172 1.983 . S
C523 N35 1.938 . S
C527 C205 1.982 . S
C541 N2 1.946 . S
C545 C238 1.984 . S
C559 N79 0.632 . S
C563 N13 0.629 . S
C577 N46 0.635 . S
C581 N112 0.628 . S
C595 N211 0.640 . S
C599 N145 0.658 . S
C613 N244 0.640 . S
C617 N178 0.658 . S
