# Generated by pormake.
# Topology uob, (4)-cn, num edge types: 1
# Building blocks:
#     Node 0, Type 0, BuildingBlock: MUDLON_clean_sbu_0, # of connection points: 4
#     Node 1, Type 0, BuildingBlock: MUDLON_clean_sbu_0, # of connection points: 4
#     Node 2, Type 0, BuildingBlock: MUDLON_clean_sbu_0, # of connection points: 4
#     Node 3, Type 0, BuildingBlock: MUDLON_clean_sbu_0, # of connection points: 4
#     Node 4, Type 0, BuildingBlock: MUDLON_clean_sbu_0, # of connection points: 4
#     Node 5, Type 0, BuildingBlock: MUDLON_clean_sbu_0, # of connection points: 4
#     Node 6, Type 0, BuildingBlock: MUDLON_clean_sbu_0, # of connection points: 4
#     Node 7, Type 0, BuildingBlock: MUDLON_clean_sbu_0, # of connection points: 4
#     Node 8, Type 0, BuildingBlock: MUDLON_clean_sbu_0, # of connection points: 4
#     Node 9, Type 0, BuildingBlock: MUDLON_clean_sbu_0, # of connection points: 4
#     Node 10, Type 0, BuildingBlock: MUDLON_clean_sbu_0, # of connection points: 4
#     Node 11, Type 0, BuildingBlock: MUDLON_clean_sbu_0, # of connection points: 4
#     Node 12, Type 0, BuildingBlock: MUDLON_clean_sbu_0, # of connection points: 4
#     Node 13, Type 0, BuildingBlock: MUDLON_clean_sbu_0, # of connection points: 4
#     Node 14, Type 0, BuildingBlock: MUDLON_clean_sbu_0, # of connection points: 4
#     Node 15, Type 0, BuildingBlock: MUDLON_clean_sbu_0, # of connection points: 4
#     Edge 16, Type (0, 0), BuildingBlock: MIFKUJ_clean_linker_0, # of connection points: 2
#     Edge 17, Type (0, 0), BuildingBlock: MIFKUJ_clean_linker_0, # of connection points: 2
#     Edge 18, Type (0, 0), BuildingBlock: MIFKUJ_clean_linker_0, # of connection points: 2
#     Edge 19, Type (0, 0), BuildingBlock: MIFKUJ_clean_linker_0, # of connection points: 2
#     Edge 20, Type (0, 0), BuildingBlock: MIFKUJ_clean_linker_0, # of connection points: 2
#     Edge 21, Type (0, 0), BuildingBlock: MIFKUJ_clean_linker_0, # of connection points: 2
#     Edge 22, Type (0, 0), BuildingBlock: MIFKUJ_clean_linker_0, # of connection points: 2
#     Edge 23, Type (0, 0), BuildingBlock: MIFKUJ_clean_linker_0, # of connection points: 2
#     Edge 24, Type (0, 0), BuildingBlock: MIFKUJ_clean_linker_0, # of connection points: 2
#     Edge 25, Type (0, 0), BuildingBlock: MIFKUJ_clean_linker_0, # of connection points: 2
#     Edge 26, Type (0, 0), BuildingBlock: MIFKUJ_clean_linker_0, # of connection points: 2
#     Edge 27, Type (0, 0), BuildingBlock: MIFKUJ_clean_linker_0, # of connection points: 2
#     Edge 28, Type (0, 0), BuildingBlock: MIFKUJ_clean_linker_0, # of connection points: 2
#     Edge 29, Type (0, 0), BuildingBlock: MIFKUJ_clean_linker_0, # of connection points: 2
#     Edge 30, Type (0, 0), BuildingBlock: MIFKUJ_clean_linker_0, # of connection points: 2
#     Edge 31, Type (0, 0), BuildingBlock: MIFKUJ_clean_linker_0, # of connection points: 2
#     Edge 32, Type (0, 0), BuildingBlock: MIFKUJ_clean_linker_0, # of connection points: 2
#     Edge 33, Type (0, 0), BuildingBlock: MIFKUJ_clean_linker_0, # of connection points: 2
#     Edge 34, Type (0, 0), BuildingBlock: MIFKUJ_clean_linker_0, # of connection points: 2
#     Edge 35, Type (0, 0), BuildingBlock: MIFKUJ_clean_linker_0, # of connection points: 2
#     Edge 36, Type (0, 0), BuildingBlock: MIFKUJ_clean_linker_0, # of connection points: 2
#     Edge 37, Type (0, 0), BuildingBlock: MIFKUJ_clean_linker_0, # of connection points: 2
#     Edge 38, Type (0, 0), BuildingBlock: MIFKUJ_clean_linker_0, # of connection points: 2
#     Edge 39, Type (0, 0), BuildingBlock: MIFKUJ_clean_linker_0, # of connection points: 2
#     Edge 40, Type (0, 0), BuildingBlock: MIFKUJ_clean_linker_0, # of connection points: 2
#     Edge 41, Type (0, 0), BuildingBlock: MIFKUJ_clean_linker_0, # of connection points: 2
#     Edge 42, Type (0, 0), BuildingBlock: MIFKUJ_clean_linker_0, # of connection points: 2
#     Edge 43, Type (0, 0), BuildingBlock: MIFKUJ_clean_linker_0, # of connection points: 2
#     Edge 44, Type (0, 0), BuildingBlock: MIFKUJ_clean_linker_0, # of connection points: 2
#     Edge 45, Type (0, 0), BuildingBlock: MIFKUJ_clean_linker_0, # of connection points: 2
#     Edge 46, Type (0, 0), BuildingBlock: MIFKUJ_clean_linker_0, # of connection points: 2
#     Edge 47, Type (0, 0), BuildingBlock: MIFKUJ_clean_linker_0, # of connection points: 2
# Relax obj value: 0.173
# Max RMSD: 0.257
# Mean RMSD: 0.257
data_MOF--net-uob--node1-MUDLON_clean_sbu_0--edge1-MIFKUJ_clean_linker_0
_symmetry_space_group_name_H-M    P1
_symmetry_Int_Tables_number       1
_symmetry_cell_setting            triclinic
loop_
_symmetry_equiv_pos_as_xyz
'x, y, z'
_cell_length_a     71.123607
_cell_length_b     70.957192
_cell_length_c     37.330475
_cell_angle_alpha  90.105561
_cell_angle_beta   90.077858
_cell_angle_gamma 89.885085
loop_
_atom_site_label
_atom_site_type_symbol
_atom_site_fract_x
_atom_site_fract_y
_atom_site_fract_z
_atom_type_partial_charge
Mg0 Mg 0.12618 0.07626 0.30984 0.0
C1 C 0.11811 0.08589 0.38358 0.0
O2 O 0.1188 0.06739 0.38251 0.0
C3 C 0.13454 0.08327 0.23154 0.0
O4 O 0.14201 0.06642 0.23499 0.0
C5 C 0.16366 0.07479 0.34346 0.0
O6 O 0.15854 0.09256 0.34553 0.0
O7 O 0.15295 0.06333 0.32679 0.0
O8 O 0.1199 0.09491 0.3544 0.0
O9 O 0.10132 0.05835 0.30513 0.0
C10 C 0.09846 0.04181 0.31694 0.0
O11 O 0.11211 0.03281 0.33343 0.0
O12 O 0.12781 0.09138 0.25913 0.0
Mg13 Mg 0.95107 0.63401 0.55167 0.0
C14 C 0.94269 0.63058 0.62694 0.0
O15 O 0.96077 0.63413 0.6246 0.0
C16 C 0.94719 0.63282 0.47204 0.0
O17 O 0.96545 0.63417 0.47672 0.0
C18 C 0.97613 0.6678 0.57767 0.0
O19 O 0.98965 0.65532 0.58162 0.0
O20 O 0.96058 0.66273 0.56376 0.0
O21 O 0.93332 0.62877 0.59805 0.0
O22 O 0.97156 0.61086 0.55267 0.0
C23 C 0.966 0.59585 0.53714 0.0
O24 O 0.94955 0.596 0.52107 0.0
O25 O 0.93664 0.63294 0.49962 0.0
Mg26 Mg 0.37594 0.4428 0.80025 0.0
C27 C 0.39714 0.41726 0.85283 0.0
O28 O 0.41168 0.42158 0.83286 0.0
C29 C 0.37085 0.43695 0.71994 0.0
O30 O 0.36495 0.45447 0.72213 0.0
C31 C 0.34767 0.45867 0.8501 0.0
O32 O 0.36263 0.45618 0.87025 0.0
O33 O 0.34913 0.45561 0.81655 0.0
O34 O 0.38091 0.42299 0.84364 0.0
O35 O 0.40036 0.46166 0.79987 0.0
C36 C 0.4146 0.45565 0.78257 0.0
O37 O 0.41309 0.43979 0.76459 0.0
O38 O 0.37527 0.42829 0.74858 0.0
Mg39 Mg 0.56645 0.88136 0.04837 0.0
C40 C 0.57987 0.89605 0.1178 0.0
O41 O 0.56445 0.90581 0.11217 0.0
C42 C 0.56962 0.88159 0.96964 0.0
O43 O 0.55143 0.88275 0.97542 0.0
C44 C 0.54429 0.85377 0.09303 0.0
O45 O 0.54217 0.86911 0.11237 0.0
O46 O 0.55234 0.85503 0.06266 0.0
O47 O 0.58561 0.88495 0.09335 0.0
O48 O 0.54968 0.90721 0.04513 0.0
C49 C 0.5323 0.91006 0.05094 0.0
O50 O 0.52143 0.89583 0.05953 0.0
O51 O 0.58051 0.87977 0.9965 0.0
Mg52 Mg 0.13005 0.44909 0.04566 0.0
C53 C 0.12434 0.44013 0.97088 0.0
O54 O 0.12518 0.45861 0.97251 0.0
C55 C 0.13724 0.44103 0.12463 0.0
O56 O 0.14475 0.4579 0.12285 0.0
C57 C 0.17208 0.45503 0.03967 0.0
O58 O 0.17184 0.44051 0.06144 0.0
O59 O 0.15656 0.46274 0.03099 0.0
O60 O 0.12552 0.43084 0.9999 0.0
O61 O 0.10521 0.46736 0.04738 0.0
C62 C 0.09104 0.46045 0.0635 0.0
O63 O 0.09279 0.44385 0.07873 0.0
O64 O 0.13094 0.43347 0.0961 0.0
Mg65 Mg 0.56599 0.64334 0.30696 0.0
C66 C 0.58057 0.6467 0.23145 0.0
O67 O 0.57116 0.66256 0.23419 0.0
C68 C 0.57421 0.64441 0.38516 0.0
O69 O 0.55686 0.65076 0.38365 0.0
C70 C 0.54133 0.67703 0.28259 0.0
O71 O 0.52983 0.6637 0.27185 0.0
O72 O 0.55608 0.67244 0.29993 0.0
O73 O 0.58177 0.63598 0.25868 0.0
O74 O 0.54498 0.6212 0.31239 0.0
C75 C 0.53668 0.61365 0.2858 0.0
O76 O 0.53876 0.621 0.25378 0.0
O77 O 0.58266 0.64071 0.35593 0.0
Mg78 Mg 0.37251 0.07144 0.56157 0.0
C79 C 0.39477 0.09277 0.50485 0.0
O80 O 0.40918 0.08699 0.52398 0.0
C81 C 0.37111 0.07846 0.64114 0.0
O82 O 0.36671 0.06049 0.63967 0.0
C83 C 0.34072 0.05228 0.52092 0.0
O84 O 0.35487 0.04799 0.49986 0.0
O85 O 0.34407 0.06082 0.5503 0.0
O86 O 0.37822 0.08922 0.51564 0.0
O87 O 0.39567 0.05106 0.56463 0.0
C88 C 0.40297 0.04302 0.53747 0.0
O89 O 0.39515 0.04527 0.50587 0.0
O90 O 0.37369 0.0873 0.61191 0.0
Mg91 Mg 0.95146 0.87747 0.79623 0.0
C92 C 0.93852 0.87428 0.72012 0.0
O93 O 0.95169 0.86133 0.72153 0.0
C94 C 0.93778 0.87155 0.87309 0.0
O95 O 0.94982 0.85751 0.87139 0.0
C96 C 0.97569 0.84243 0.77592 0.0
O97 O 0.98879 0.85497 0.76922 0.0
O98 O 0.96021 0.8479 0.7896 0.0
O99 O 0.93473 0.88364 0.74837 0.0
O100 O 0.97329 0.89921 0.79861 0.0
C101 C 0.97831 0.90805 0.77056 0.0
O102 O 0.97221 0.90217 0.73926 0.0
O103 O 0.93506 0.88159 0.84532 0.0
Mg104 Mg 0.63003 0.5651 0.80644 0.0
C105 C 0.62838 0.57408 0.88393 0.0
O106 O 0.63878 0.55878 0.88308 0.0
C107 C 0.63605 0.57772 0.72979 0.0
O108 O 0.64742 0.56311 0.73061 0.0
C109 C 0.66565 0.54153 0.82805 0.0
O110 O 0.65405 0.52727 0.83154 0.0
O111 O 0.65945 0.55717 0.8162 0.0
O112 O 0.62213 0.58069 0.85454 0.0
O113 O 0.60883 0.54316 0.79863 0.0
C114 C 0.60018 0.53497 0.82404 0.0
O115 O 0.60584 0.53761 0.85715 0.0
O116 O 0.62754 0.58251 0.75839 0.0
Mg117 Mg 0.44424 0.13741 0.06318 0.0
C118 C 0.43908 0.12456 0.13776 0.0
O119 O 0.45654 0.1198 0.13065 0.0
C120 C 0.43076 0.14488 0.9872 0.0
O121 O 0.44518 0.15642 0.98823 0.0
C122 C 0.46698 0.16883 0.09832 0.0
O123 O 0.47386 0.15434 0.11584 0.0
O124 O 0.45576 0.16578 0.0723 0.0
O125 O 0.42916 0.13183 0.11293 0.0
O126 O 0.46351 0.1135 0.05709 0.0
C127 C 0.4544 0.09805 0.05629 0.0
O128 O 0.43597 0.09882 0.05837 0.0
O129 O 0.42634 0.13593 0.01549 0.0
Mg130 Mg 0.87517 0.94556 0.29784 0.0
C131 C 0.8783 0.93675 0.37392 0.0
O132 O 0.87352 0.95462 0.37285 0.0
C133 C 0.87719 0.93958 0.21819 0.0
O134 O 0.87382 0.95777 0.22011 0.0
C135 C 0.84118 0.9704 0.32289 0.0
O136 O 0.85394 0.98302 0.33131 0.0
O137 O 0.84623 0.95536 0.30684 0.0
O138 O 0.88032 0.9279 0.34449 0.0
O139 O 0.8984 0.96575 0.29952 0.0
C140 C 0.91406 0.95735 0.30436 0.0
O141 O 0.91399 0.9389 0.30728 0.0
O142 O 0.878 0.93017 0.24717 0.0
Mg143 Mg 0.07196 0.37741 0.55117 0.0
C144 C 0.09643 0.37044 0.61685 0.0
O145 O 0.09271 0.35277 0.60917 0.0
C146 C 0.07916 0.37501 0.47116 0.0
O147 O 0.06263 0.3668 0.47246 0.0
C148 C 0.04988 0.34463 0.58419 0.0
O149 O 0.04128 0.3585 0.60086 0.0
O150 O 0.06206 0.34853 0.56035 0.0
O151 O 0.09069 0.38332 0.59584 0.0
O152 O 0.05071 0.39998 0.55155 0.0
C153 C 0.05143 0.41242 0.57621 0.0
O154 O 0.06338 0.41005 0.60267 0.0
O155 O 0.08687 0.38024 0.50031 0.0
Mg156 Mg 0.62903 0.95055 0.54248 0.0
C157 C 0.62203 0.93713 0.47024 0.0
O158 O 0.62193 0.95561 0.46782 0.0
C159 C 0.61515 0.93101 0.60805 0.0
O160 O 0.60019 0.93109 0.5874 0.0
C161 C 0.66768 0.95075 0.51428 0.0
O162 O 0.66339 0.93284 0.51781 0.0
O163 O 0.65586 0.963 0.52526 0.0
O164 O 0.62453 0.92962 0.50076 0.0
O165 O 0.60417 0.96929 0.5416 0.0
C166 C 0.5889 0.96244 0.52921 0.0
O167 O 0.58894 0.94506 0.51709 0.0
O168 O 0.63038 0.93785 0.59584 0.0
Mg169 Mg 0.07038 0.13264 0.79858 0.0
C170 C 0.09897 0.14162 0.74185 0.0
O171 O 0.09673 0.15856 0.75544 0.0
C172 C 0.0766 0.13889 0.87856 0.0
O173 O 0.05996 0.14683 0.87581 0.0
C174 C 0.05134 0.16183 0.75256 0.0
O175 O 0.04972 0.14682 0.73213 0.0
O176 O 0.05815 0.15995 0.78395 0.0
O177 O 0.09065 0.12777 0.75641 0.0
O178 O 0.05126 0.10845 0.79816 0.0
C179 C 0.05027 0.09786 0.77063 0.0
O180 O 0.05939 0.10279 0.74155 0.0
O181 O 0.0845 0.13255 0.85045 0.0
Mg182 Mg 0.87582 0.57056 0.04426 0.0
C183 C 0.87019 0.59414 0.97756 0.0
O184 O 0.85326 0.58696 0.98039 0.0
C185 C 0.8949 0.58676 0.10959 0.0
O186 O 0.90929 0.58438 0.088 0.0
C187 C 0.84352 0.54618 0.01351 0.0
O188 O 0.85731 0.5351 1.00317 0.0
O189 O 0.84726 0.56053 0.03276 0.0
O190 O 0.88218 0.59088 1.00215 0.0
O191 O 0.89824 0.54982 0.03785 0.0
C192 C 0.90424 0.53925 0.06289 0.0
O193 O 0.89526 0.53902 0.09362 0.0
O194 O 0.87852 0.58263 0.09818 0.0
Mg195 Mg 0.44881 0.38622 0.2968 0.0
C196 C 0.44421 0.38961 0.22074 0.0
O197 O 0.46236 0.38815 0.22687 0.0
C198 C 0.43759 0.37919 0.37373 0.0
O199 O 0.45369 0.37009 0.37283 0.0
C200 C 0.45241 0.34445 0.28901 0.0
O201 O 0.4354 0.3462 0.30232 0.0
O202 O 0.46264 0.35911 0.28657 0.0
O203 O 0.43308 0.38952 0.24739 0.0
O204 O 0.46684 0.41122 0.29947 0.0
C205 C 0.45866 0.42636 0.28972 0.0
O206 O 0.44103 0.42544 0.27933 0.0
O207 O 0.43143 0.38665 0.34502 0.0
H208 H 0.30867 0.07037 0.54331 0.0
H209 H 0.27764 0.06953 0.51518 0.0
H210 H 0.29734 0.02742 0.4405 0.0
H211 H 0.3286 0.02886 0.46758 0.0
H212 H 0.2797 0.05184 0.40482 0.0
H213 H 0.26414 0.01869 0.51137 0.0
H214 H 0.26182 0.01231 0.5761 0.0
H215 H 0.228 0.06198 0.59009 0.0
H216 H 0.23038 0.06884 0.52554 0.0
H217 H 0.18555 0.04308 0.3321 0.0
H218 H 0.21473 0.0344 0.36384 0.0
H219 H 0.2093 0.08372 0.43064 0.0
H220 H 0.18057 0.09252 0.39915 0.0
H221 H 0.2188 0.05097 0.46924 0.0
H222 H 0.23823 0.08526 0.36306 0.0
H223 H 0.24006 0.09065 0.29791 0.0
H224 H 0.26604 0.03648 0.28367 0.0
H225 H 0.26412 0.03067 0.34875 0.0
C226 C 0.3063 0.06067 0.52132 0.0
C227 C 0.32114 0.04968 0.50772 0.0
C228 C 0.28847 0.06014 0.50525 0.0
C229 C 0.28492 0.04827 0.47573 0.0
C230 C 0.2996 0.03676 0.46307 0.0
C231 C 0.31749 0.03753 0.47873 0.0
C232 C 0.26643 0.04887 0.45647 0.0
C233 C 0.26642 0.05122 0.41903 0.0
C234 C 0.24893 0.04835 0.47466 0.0
C235 C 0.2476 0.04437 0.51361 0.0
C236 C 0.25636 0.02835 0.52829 0.0
C237 C 0.25501 0.02464 0.56496 0.0
C238 C 0.24482 0.03676 0.58721 0.0
C239 C 0.23592 0.05262 0.57283 0.0
C240 C 0.23726 0.05642 0.53619 0.0
C241 C 0.19057 0.05198 0.35366 0.0
C242 C 0.18084 0.06857 0.36284 0.0
C243 C 0.20723 0.04704 0.37174 0.0
C244 C 0.21421 0.05846 0.39961 0.0
C245 C 0.20417 0.07468 0.40936 0.0
C246 C 0.1878 0.07975 0.39107 0.0
C247 C 0.23228 0.05415 0.41811 0.0
C248 C 0.23216 0.05121 0.45529 0.0
C249 C 0.24964 0.05393 0.39972 0.0
C250 C 0.2508 0.05743 0.36067 0.0
C251 C 0.24416 0.07443 0.34599 0.0
C252 C 0.24525 0.07757 0.30909 0.0
C253 C 0.2531 0.06389 0.28665 0.0
C254 C 0.25992 0.04705 0.30108 0.0
C255 C 0.25884 0.04382 0.33796 0.0
H256 H 0.25394 0.06635 0.25809 0.0
H257 H 0.24378 0.03385 0.61559 0.0
H258 H 0.00721 0.82474 0.74997 0.0
H259 H 0.00896 0.79454 0.71843 0.0
H260 H 0.94945 0.78649 0.73427 0.0
H261 H 0.94775 0.81628 0.76694 0.0
H262 H 0.96558 0.75409 0.73987 0.0
H263 H 0.9687 0.80363 0.65358 0.0
H264 H 0.98075 0.8327 0.62583 0.0
H265 H 0.0346 0.80644 0.61042 0.0
H266 H 0.02292 0.77727 0.63855 0.0
H267 H 0.9476 0.69224 0.59383 0.0
H268 H 0.94941 0.72139 0.6286 0.0
H269 H 0.00959 0.71541 0.63599 0.0
H270 H 0.00791 0.68586 0.6017 0.0
H271 H 0.99444 0.75407 0.61888 0.0
H272 H 0.98863 0.70324 0.70409 0.0
H273 H 0.97382 0.67438 0.72743 0.0
H274 H 0.92154 0.70394 0.74039 0.0
H275 H 0.93596 0.73293 0.71648 0.0
C276 C 0.99454 0.81641 0.74721 0.0
C277 C 0.97733 0.82304 0.76089 0.0
C278 C 0.99553 0.79917 0.72888 0.0
C279 C 0.97925 0.78833 0.72308 0.0
C280 C 0.96222 0.79453 0.73815 0.0
C281 C 0.96127 0.81164 0.7569 0.0
C282 C 0.97977 0.77096 0.70027 0.0
C283 C 0.97178 0.75421 0.71335 0.0
C284 C 0.98795 0.77087 0.66558 0.0
C285 C 0.995 0.78834 0.64852 0.0
C286 C 0.98315 0.8041 0.6445 0.0
C287 C 0.9899 0.82058 0.62867 0.0
C288 C 0.00844 0.82143 0.61646 0.0
C289 C 0.02025 0.80577 0.61995 0.0
C290 C 0.01357 0.78925 0.63582 0.0
C291 C 0.96129 0.6972 0.60236 0.0
C292 C 0.97763 0.68665 0.59495 0.0
C293 C 0.96226 0.71385 0.62239 0.0
C294 C 0.97961 0.7205 0.63507 0.0
C295 C 0.99606 0.7105 0.62646 0.0
C296 C 0.99507 0.69362 0.6069 0.0
C297 C 0.98033 0.73742 0.65864 0.0
C298 C 0.98844 0.75403 0.64559 0.0
C299 C 0.97194 0.73749 0.693 0.0
C300 C 0.96334 0.72022 0.70822 0.0
C301 C 0.97394 0.70356 0.71168 0.0
C302 C 0.96563 0.68718 0.72503 0.0
C303 C 0.94676 0.68733 0.73533 0.0
C304 C 0.93616 0.70386 0.73238 0.0
C305 C 0.9444 0.72028 0.71896 0.0
H306 H 0.94039 0.67464 0.74572 0.0
H307 H 0.01365 0.8342 0.6042 0.0
H308 H 0.31337 0.46646 0.81834 0.0
H309 H 0.28265 0.46926 0.84826 0.0
H310 H 0.30942 0.46093 0.95066 0.0
H311 H 0.33993 0.45851 0.92146 0.0
H312 H 0.27827 0.43606 0.93495 0.0
H313 H 0.29492 0.50235 0.93351 0.0
H314 H 0.30362 0.53213 0.90399 0.0
H315 H 0.25252 0.53075 0.84265 0.0
H316 H 0.24364 0.50079 0.87148 0.0
H317 H 0.20797 0.44852 0.06224 0.0
H318 H 0.237 0.4525 0.02826 0.0
H319 H 0.20539 0.47563 0.93989 0.0
H320 H 0.17633 0.47243 0.97457 0.0
H321 H 0.23763 0.49282 0.94282 0.0
H322 H 0.21978 0.42828 0.94208 0.0
H323 H 0.21011 0.39769 0.96724 0.0
H324 H 0.26198 0.39415 0.02586 0.0
H325 H 0.27186 0.42485 1.00143 0.0
C326 C 0.31272 0.4655 0.84726 0.0
C327 C 0.32915 0.46223 0.86742 0.0
C328 C 0.29517 0.46711 0.86431 0.0
C329 C 0.29376 0.46524 0.90171 0.0
C330 C 0.31017 0.46238 0.92181 0.0
C331 C 0.32764 0.46106 0.90496 0.0
C332 C 0.27522 0.46518 0.92014 0.0
C333 C 0.26946 0.44852 0.93697 0.0
C334 C 0.26339 0.48122 0.92159 0.0
C335 C 0.26873 0.49921 0.90432 0.0
C336 C 0.28563 0.50829 0.91346 0.0
C337 C 0.29058 0.52523 0.89692 0.0
C338 C 0.27867 0.53329 0.87137 0.0
C339 C 0.26175 0.52446 0.86239 0.0
C340 C 0.25675 0.50751 0.87884 0.0
C341 C 0.20723 0.45474 0.0358 0.0
C342 C 0.18982 0.46004 0.02105 0.0
C343 C 0.22384 0.45688 0.01622 0.0
C344 C 0.22342 0.46385 0.98097 0.0
C345 C 0.20615 0.47009 0.96687 0.0
C346 C 0.18952 0.46828 0.98677 0.0
C347 C 0.24082 0.46376 0.95852 0.0
C348 C 0.24635 0.48031 0.94075 0.0
C349 C 0.25232 0.44747 0.95549 0.0
C350 C 0.24648 0.42895 0.97016 0.0
C351 C 0.22907 0.42104 0.96052 0.0
C352 C 0.22356 0.40367 0.97463 0.0
C353 C 0.23541 0.394 0.9982 0.0
C354 C 0.25281 0.40166 0.00763 0.0
C355 C 0.25838 0.41904 0.99364 0.0
H356 H 0.23111 0.38056 0.00909 0.0
H357 H 0.28252 0.54641 0.8586 0.0
H358 H 0.5223 0.84606 0.15112 0.0
H359 H 0.51969 0.81626 0.18341 0.0
H360 H 0.55618 0.78966 0.10605 0.0
H361 H 0.55821 0.81927 0.07286 0.0
H362 H 0.53155 0.76548 0.12465 0.0
H363 H 0.57212 0.80649 0.18969 0.0
H364 H 0.58172 0.83572 0.22051 0.0
H365 H 0.53747 0.8284 0.29732 0.0
H366 H 0.52741 0.79928 0.26661 0.0
H367 H 0.56666 0.70605 0.28666 0.0
H368 H 0.56544 0.73619 0.25525 0.0
H369 H 0.51031 0.72248 0.21468 0.0
H370 H 0.51167 0.69204 0.24523 0.0
H371 H 0.54538 0.76668 0.25495 0.0
H372 H 0.50508 0.73853 0.13033 0.0
H373 H 0.50102 0.70862 0.09737 0.0
H374 H 0.55441 0.68904 0.13631 0.0
H375 H 0.55889 0.71889 0.16916 0.0
C376 C 0.52952 0.83379 0.14064 0.0
C377 C 0.54054 0.8351 0.10948 0.0
C378 C 0.52815 0.81676 0.15933 0.0
C379 C 0.53813 0.80073 0.14781 0.0
C380 C 0.54841 0.80179 0.1157 0.0
C381 C 0.54954 0.81876 0.09666 0.0
C382 C 0.53841 0.78314 0.1698 0.0
C383 C 0.53449 0.7658 0.15316 0.0
C384 C 0.54281 0.78333 0.20691 0.0
C385 C 0.54889 0.80079 0.22562 0.0
C386 C 0.56435 0.81118 0.213 0.0
C387 C 0.56988 0.82772 0.23047 0.0
C388 C 0.56018 0.83394 0.2608 0.0
C389 C 0.54495 0.82359 0.27379 0.0
C390 C 0.53933 0.80706 0.25637 0.0
C391 C 0.55415 0.70952 0.27146 0.0
C392 C 0.53932 0.69649 0.26825 0.0
C393 C 0.55347 0.72682 0.25347 0.0
C394 C 0.53794 0.73154 0.23194 0.0
C395 C 0.52265 0.71903 0.23041 0.0
C396 C 0.52339 0.70165 0.24813 0.0
C397 C 0.53815 0.74911 0.20991 0.0
C398 C 0.54225 0.76641 0.22651 0.0
C399 C 0.53469 0.7488 0.17249 0.0
C400 C 0.5322 0.73087 0.15251 0.0
C401 C 0.51597 0.72786 0.13176 0.0
C402 C 0.5136 0.71091 0.11313 0.0
C403 C 0.52742 0.69691 0.11487 0.0
C404 C 0.54368 0.69986 0.13514 0.0
C405 C 0.54613 0.71678 0.15379 0.0
H406 H 0.52555 0.68379 0.10045 0.0
H407 H 0.56449 0.84674 0.2743 0.0
H408 H 0.68906 0.5708 0.84435 0.0
H409 H 0.71924 0.56961 0.87505 0.0
H410 H 0.71653 0.50887 0.87717 0.0
H411 H 0.68572 0.51005 0.84775 0.0
H412 H 0.72828 0.51982 0.93831 0.0
H413 H 0.74749 0.53478 0.81996 0.0
H414 H 0.74784 0.55169 0.76232 0.0
H415 H 0.76326 0.60285 0.81638 0.0
H416 H 0.76276 0.58631 0.87443 0.0
H417 H 0.82825 0.51456 0.98275 0.0
H418 H 0.79793 0.51189 0.95157 0.0
H419 H 0.78575 0.57001 0.97612 0.0
H420 H 0.81569 0.57268 0.0081 0.0
H421 H 0.7828 0.55818 0.8996 0.0
H422 H 0.7622 0.54125 0.01897 0.0
H423 H 0.7631 0.52244 0.07442 0.0
H424 H 0.75219 0.4721 0.01392 0.0
H425 H 0.7515 0.49059 0.95801 0.0
C426 C 0.69495 0.55714 0.85087 0.0
C427 C 0.68497 0.5405 0.84331 0.0
C428 C 0.71234 0.55647 0.8684 0.0
C429 C 0.72049 0.53913 0.87804 0.0
C430 C 0.71065 0.52245 0.87006 0.0
C431 C 0.69306 0.52313 0.85302 0.0
C432 C 0.73886 0.53857 0.89763 0.0
C433 C 0.74027 0.52797 0.92936 0.0
C434 C 0.75461 0.5493 0.88645 0.0
C435 C 0.75493 0.55933 0.8516 0.0
C436 C 0.75082 0.54967 0.8196 0.0
C437 C 0.75107 0.55918 0.78684 0.0
C438 C 0.75553 0.57834 0.7857 0.0
C439 C 0.75979 0.58801 0.81731 0.0
C440 C 0.75955 0.57857 0.85014 0.0
C441 C 0.81898 0.52669 0.98198 0.0
C442 C 0.8244 0.54382 0.998 0.0
C443 C 0.80168 0.52514 0.96413 0.0
C444 C 0.78963 0.54078 0.96143 0.0
C445 C 0.79485 0.55778 0.97786 0.0
C446 C 0.81194 0.55924 0.99631 0.0
C447 C 0.77196 0.53971 0.94019 0.0
C448 C 0.77077 0.54997 0.90818 0.0
C449 C 0.75661 0.52838 0.95069 0.0
C450 C 0.75703 0.51727 0.98427 0.0
C451 C 0.7602 0.52614 0.01744 0.0
C452 C 0.76062 0.51555 0.04897 0.0
C453 C 0.75777 0.49608 0.04769 0.0
C454 C 0.75444 0.48718 0.01487 0.0
C455 C 0.75402 0.49771 0.98326 0.0
H456 H 0.75809 0.4879 0.07213 0.0
H457 H 0.75571 0.58568 0.76031 0.0
H458 H 0.43843 0.3095 0.30253 0.0
H459 H 0.44423 0.2804 0.26934 0.0
H460 H 0.48365 0.3096 0.2015 0.0
H461 H 0.47839 0.33863 0.2357 0.0
H462 H 0.43641 0.27206 0.205 0.0
H463 H 0.51445 0.27864 0.16324 0.0
H464 H 0.54413 0.29192 0.18637 0.0
H465 H 0.52379 0.28675 0.29415 0.0
H466 H 0.4941 0.27324 0.27169 0.0
H467 H 0.4521 0.20221 0.07348 0.0
H468 H 0.4529 0.23303 0.10314 0.0
H469 H 0.48787 0.20994 0.18678 0.0
H470 H 0.48753 0.17935 0.15695 0.0
H471 H 0.49852 0.24467 0.17413 0.0
H472 H 0.43963 0.21395 0.19628 0.0
H473 H 0.40989 0.19828 0.18001 0.0
H474 H 0.39182 0.24793 0.12397 0.0
H475 H 0.42159 0.26381 0.13951 0.0
C476 C 0.44862 0.30964 0.28099 0.0
C477 C 0.45801 0.32637 0.2719 0.0
C478 C 0.45184 0.29299 0.26181 0.0
C479 C 0.46439 0.29265 0.23275 0.0
C480 C 0.47414 0.30928 0.22412 0.0
C481 C 0.47112 0.32592 0.24372 0.0
C482 C 0.46642 0.27513 0.21067 0.0
C483 C 0.45004 0.26616 0.19827 0.0
C484 C 0.48413 0.26716 0.2019 0.0
C485 C 0.50198 0.27513 0.21573 0.0
C486 C 0.51634 0.28029 0.19188 0.0
C487 C 0.53316 0.28787 0.20487 0.0
C488 C 0.53582 0.29024 0.2417 0.0
C489 C 0.52169 0.28498 0.26562 0.0
C490 C 0.50485 0.27739 0.25277 0.0
C491 C 0.46025 0.20377 0.09783 0.0
C492 C 0.46961 0.1882 0.11294 0.0
C493 C 0.4606 0.2214 0.11492 0.0
C494 C 0.47015 0.22379 0.14767 0.0
C495 C 0.48035 0.20853 0.16166 0.0
C496 C 0.48009 0.19096 0.14454 0.0
C497 C 0.46853 0.24169 0.16863 0.0
C498 C 0.48494 0.25072 0.1807 0.0
C499 C 0.45084 0.24946 0.17802 0.0
C500 C 0.43291 0.23998 0.16871 0.0
C501 C 0.42937 0.22147 0.18026 0.0
C502 C 0.4125 0.21256 0.17121 0.0
C503 C 0.399 0.22208 0.15088 0.0
C504 C 0.40231 0.24056 0.13965 0.0
C505 C 0.41917 0.24952 0.14858 0.0
H506 H 0.38594 0.21517 0.1439 0.0
H507 H 0.54884 0.29611 0.2517 0.0
H508 H 0.81325 0.94391 0.32132 0.0
H509 H 0.78284 0.94503 0.35113 0.0
H510 H 0.79423 1.0017 0.38705 0.0
H511 H 0.8251 1.00043 0.35811 0.0
H512 H 0.78071 0.98288 0.44025 0.0
H513 H 0.76046 0.9913 0.32025 0.0
H514 H 0.75808 0.98513 0.25539 0.0
H515 H 0.73475 0.9305 0.27643 0.0
H516 H 0.73724 0.93622 0.34144 0.0
H517 H 0.68438 0.98579 0.50751 0.0
H518 H 0.71282 0.99357 0.47297 0.0
H519 H 0.71829 0.93534 0.44148 0.0
H520 H 0.69038 0.92746 0.47588 0.0
H521 H 0.72161 0.96051 0.38397 0.0
H522 H 0.74589 0.95195 0.5047 0.0
H523 H 0.74789 0.95923 0.56922 0.0
H524 H 0.76271 0.01644 0.54504 0.0
H525 H 0.76056 0.00955 0.48032 0.0
C526 C 0.80923 0.95675 0.33507 0.0
C527 C 0.82169 0.9721 0.33717 0.0
C528 C 0.79172 0.95741 0.35207 0.0
C529 C 0.78599 0.97355 0.37111 0.0
C530 C 0.79823 0.98908 0.37257 0.0
C531 C 0.81587 0.98836 0.35581 0.0
C532 C 0.76773 0.97368 0.39099 0.0
C533 C 0.76773 0.97838 0.42763 0.0
C534 C 0.75068 0.96769 0.37489 0.0
C535 C 0.74917 0.96415 0.33577 0.0
C536 C 0.75495 0.97791 0.31107 0.0
C537 C 0.75356 0.9745 0.27426 0.0
C538 C 0.7463 0.95742 0.2618 0.0
C539 C 0.74038 0.94372 0.28612 0.0
C540 C 0.74176 0.94705 0.32296 0.0
C541 C 0.69172 0.97466 0.49335 0.0
C542 C 0.6851 0.95599 0.49464 0.0
C543 C 0.70796 0.97912 0.47363 0.0
C544 C 0.71768 0.96502 0.45457 0.0
C545 C 0.71101 0.94646 0.45582 0.0
C546 C 0.69505 0.94198 0.47576 0.0
C547 C 0.73482 0.96925 0.43312 0.0
C548 C 0.73458 0.96535 0.39624 0.0
C549 C 0.75154 0.97618 0.44887 0.0
C550 C 0.75282 0.9803 0.48772 0.0
C551 C 0.7494 0.96613 0.51315 0.0
C552 C 0.7506 0.97017 0.54975 0.0
C553 C 0.75536 0.98831 0.56122 0.0
C554 C 0.75898 1.00242 0.53611 0.0
C555 C 0.75778 0.99845 0.49948 0.0
H556 H 0.75629 0.99141 0.58957 0.0
H557 H 0.74523 0.95481 0.2333 0.0
H558 H 0.07408 0.31487 0.57584 0.0
H559 H 0.07197 0.28369 0.60306 0.0
H560 H 0.01807 0.29843 0.64829 0.0
H561 H 0.02064 0.32998 0.62256 0.0
H562 H 0.0361 0.28202 0.69644 0.0
H563 H 0.02509 0.26626 0.57427 0.0
H564 H 0.03071 0.26469 0.50918 0.0
H565 H 0.08233 0.23469 0.52732 0.0
H566 H 0.0772 0.23636 0.59256 0.0
H567 H 0.03118 0.17057 0.6925 0.0
H568 H 0.02793 0.20126 0.6636 0.0
H569 H 0.06205 0.22643 0.74649 0.0
H570 H 0.06453 0.19591 0.7764 0.0
H571 H 0.05106 0.22242 0.63303 0.0
H572 H 0.05366 0.27261 0.75617 0.0
H573 H 0.04339 0.27315 0.81926 0.0
H574 H 1.00014 0.23291 0.79528 0.0
H575 H 0.00999 0.23231 0.73197 0.0
C576 C 0.06165 0.31138 0.59115 0.0
C577 C 0.04749 0.32493 0.5969 0.0
C578 C 0.06041 0.29346 0.60668 0.0
C579 C 0.04474 0.28843 0.62757 0.0
C580 C 0.03036 0.30184 0.6325 0.0
C581 C 0.03178 0.31989 0.61757 0.0
C582 C 0.04375 0.26964 0.64571 0.0
C583 C 0.03931 0.26901 0.68241 0.0
C584 C 0.04759 0.25246 0.62761 0.0
C585 C 0.05086 0.25164 0.58837 0.0
C586 C 0.03774 0.2595 0.56441 0.0
C587 C 0.04083 0.25856 0.52747 0.0
C588 C 0.0569 0.24966 0.51413 0.0
C589 C 0.06991 0.24164 0.53769 0.0
C590 C 0.06692 0.24257 0.57466 0.0
C591 C 0.03769 0.18272 0.70495 0.0
C592 C 0.04794 0.18081 0.737 0.0
C593 C 0.03595 0.20028 0.68823 0.0
C594 C 0.0446 0.21636 0.70284 0.0
C595 C 0.05481 0.21445 0.73497 0.0
C596 C 0.05627 0.19694 0.75208 0.0
C597 C 0.04354 0.23486 0.68372 0.0
C598 C 0.04772 0.23544 0.64693 0.0
C599 C 0.03882 0.25191 0.70143 0.0
C600 C 0.0327 0.25229 0.7394 0.0
C601 C 0.04192 0.26393 0.76434 0.0
C602 C 0.03618 0.26424 0.80014 0.0
C603 C 0.02116 0.25302 0.8113 0.0
C604 C 0.01181 0.24153 0.78664 0.0
C605 C 0.01748 0.24119 0.7508 0.0
H606 H 0.01675 0.25327 0.83903 0.0
H607 H 0.05925 0.24893 0.48552 0.0
H608 H 0.08711 1.00627 0.33633 0.0
H609 H 0.05538 0.99303 0.33271 0.0
H610 H 0.03492 0.045 0.28723 0.0
H611 H 0.06649 0.05835 0.29082 0.0
H612 H 0.01166 0.03216 0.33983 0.0
H613 H 0.04121 1.00712 0.2345 0.0
H614 H 0.06577 0.99042 0.20028 0.0
H615 H 0.05526 0.93996 0.26028 0.0
H616 H 0.0308 0.95644 0.29522 0.0
H617 H 0.92164 0.99453 0.28801 0.0
H618 H 0.95247 0.01011 0.28875 0.0
H619 H 0.97819 0.95872 0.32649 0.0
H620 H 0.94781 0.94312 0.32511 0.0
H621 H 0.99848 0.97262 0.2748 0.0
H622 H 0.97016 0.99751 0.38197 0.0
H623 H 0.94586 0.01392 0.41736 0.0
H624 H 0.95419 0.06416 0.35548 0.0
H625 H 0.97839 0.04796 0.3194 0.0
C626 C 0.07588 0.01486 0.32542 0.0
C627 C 0.07941 0.03337 0.31378 0.0
C628 C 0.05774 1.00726 0.32329 0.0
C629 C 0.04276 0.01799 0.30949 0.0
C630 C 0.04623 0.03646 0.298 0.0
C631 C 0.06435 0.04404 0.29993 0.0
C632 C 0.02344 0.01001 0.30727 0.0
C633 C 0.00871 0.01927 0.3252 0.0
C634 C 0.01962 0.99303 0.28872 0.0
C635 C 0.0343 0.98307 0.2677 0.0
C636 C 0.04424 0.99251 0.2406 0.0
C637 C 0.05813 0.98307 0.22103 0.0
C638 C 0.06211 0.96415 0.22816 0.0
C639 C 0.05218 0.95462 0.25482 0.0
C640 C 0.03829 0.964 0.27449 0.0
C641 C 0.93387 0.98663 0.29663 0.0
C642 C 0.93224 0.96756 0.30634 0.0
C643 C 0.95149 0.99555 0.29714 0.0
C644 C 0.96772 0.98562 0.30779 0.0
C645 C 0.96597 0.96668 0.31793 0.0
C646 C 0.94851 0.95778 0.3172 0.0
C647 C 0.98667 0.99459 0.30782 0.0
C648 C 1.00136 0.98554 0.28937 0.0
C649 C 0.99045 0.01169 0.32607 0.0
C650 C 0.97593 0.02145 0.34773 0.0
C651 C 0.9667 0.01201 0.37572 0.0
C652 C 0.95297 0.02128 0.39594 0.0
C653 C 0.94844 0.04005 0.3886 0.0
C654 C 0.95769 0.04961 0.36109 0.0
C655 C 0.97142 0.04039 0.34076 0.0
H656 H 0.93781 0.04721 0.40429 0.0
H657 H 0.07286 0.95687 0.21298 0.0
H658 H 0.96207 0.56514 0.49424 0.0
H659 H 0.97694 0.53435 0.50046 0.0
H660 H 0.00852 0.55462 0.59141 0.0
H661 H 0.99398 0.58585 0.58457 0.0
H662 H 0.02989 0.53217 0.55217 0.0
H663 H 0.96806 0.52738 0.60129 0.0
H664 H 0.93352 0.53042 0.60218 0.0
H665 H 0.92927 0.49243 0.51287 0.0
H666 H 0.96382 0.48937 0.51113 0.0
H667 H 0.05265 0.44237 0.62209 0.0
H668 H 0.03831 0.47335 0.61466 0.0
H669 H 0.0124 0.45499 0.51618 0.0
H670 H 0.0268 0.42374 0.52333 0.0
H671 H 0.98824 0.47627 0.55972 0.0
H672 H 0.05084 0.48122 0.51213 0.0
H673 H 0.08536 0.47806 0.51369 0.0
H674 H 0.08797 0.51572 0.60372 0.0
H675 H 0.05342 0.51889 0.60302 0.0
C676 C 0.9723 0.56313 0.51542 0.0
C677 C 0.97672 0.57791 0.53912 0.0
C678 C 0.98072 0.54544 0.51909 0.0
C679 C 0.9935 0.54194 0.547 0.0
C680 C 0.99859 0.5569 0.56982 0.0
C681 C 0.9903 0.57476 0.56587 0.0
C682 C 1.00119 0.52257 0.5526 0.0
C683 C 0.02075 0.52001 0.55432 0.0
C684 C 0.98933 0.50655 0.5548 0.0
C685 C 0.96854 0.50828 0.55588 0.0
C686 C 0.95977 0.51978 0.58168 0.0
C687 C 0.94019 0.52149 0.58236 0.0
C688 C 0.92921 0.51166 0.55754 0.0
C689 C 0.93779 0.50005 0.53205 0.0
C690 C 0.95737 0.49831 0.53122 0.0
C691 C 0.04378 0.44478 0.59893 0.0
C692 C 0.04098 0.43053 0.57318 0.0
C693 C 0.03566 0.46259 0.59467 0.0
C694 C 0.02452 0.46661 0.5646 0.0
C695 C 0.02103 0.45222 0.53952 0.0
C696 C 0.02927 0.43437 0.54365 0.0
C697 C 0.01688 0.48594 0.55915 0.0
C698 C 0.99734 0.48847 0.55753 0.0
C699 C 0.02874 0.50194 0.55741 0.0
C700 C 0.04953 0.50015 0.55773 0.0
C701 C 0.05876 0.48871 0.53244 0.0
C702 C 0.07834 0.48694 0.53314 0.0
C703 C 0.08885 0.49665 0.55885 0.0
C704 C 0.07981 0.50819 0.58385 0.0
C705 C 0.06023 0.51 0.58329 0.0
H706 H 0.10401 0.49526 0.55934 0.0
H707 H 0.91405 0.513 0.55811 0.0
H708 H 0.42278 0.4918 0.80471 0.0
H709 H 0.45395 0.50649 0.80894 0.0
H710 H 0.47957 0.45454 0.77342 0.0
H711 H 0.44869 0.44027 0.76752 0.0
H712 H 0.48324 0.501 0.84683 0.0
H713 H 0.51918 0.46078 0.72894 0.0
H714 H 0.51068 0.44785 0.66971 0.0
H715 H 0.46458 0.48682 0.66234 0.0
H716 H 0.47294 0.50016 0.72128 0.0
H717 H 0.58114 0.51074 0.86792 0.0
H718 H 0.54966 0.49774 0.85892 0.0
H719 H 0.5461 0.52559 0.75644 0.0
H720 H 0.57788 0.53779 0.76453 0.0
H721 H 0.53021 0.49435 0.74947 0.0
H722 H 0.52442 0.54308 0.83648 0.0
H723 H 0.53134 0.56053 0.89213 0.0
H724 H 0.51441 0.51273 0.95458 0.0
H725 H 0.50763 0.4949 0.89926 0.0
C726 C 0.43508 0.48363 0.79749 0.0
C727 C 0.43322 0.46496 0.78532 0.0
C728 C 0.45291 0.49199 0.80004 0.0
C729 C 0.46921 0.48178 0.79083 0.0
C730 C 0.46729 0.46298 0.7796 0.0
C731 C 0.44955 0.45478 0.7764 0.0
C732 C 0.48827 0.49049 0.79352 0.0
C733 C 0.49347 0.49959 0.82547 0.0
C734 C 0.5016 0.48913 0.7654 0.0
C735 C 0.49661 0.48135 0.72969 0.0
C736 C 0.50728 0.46665 0.7146 0.0
C737 C 0.50248 0.45924 0.6811 0.0
C738 C 0.48707 0.46647 0.66233 0.0
C739 C 0.47647 0.48119 0.67696 0.0
C740 C 0.48123 0.48866 0.71044 0.0
C741 C 0.57374 0.51388 0.84326 0.0
C742 C 0.58202 0.52534 0.817 0.0
C743 C 0.55563 0.50659 0.83827 0.0
C744 C 0.54519 0.51104 0.80738 0.0
C745 C 0.55374 0.52195 0.78059 0.0
C746 C 0.57198 0.52893 0.78524 0.0
C747 C 0.52533 0.50454 0.80307 0.0
C748 C 0.51997 0.49584 0.77081 0.0
C749 C 0.51166 0.50693 0.83036 0.0
C750 C 0.51569 0.5176 0.86371 0.0
C751 C 0.5223 0.53625 0.86207 0.0
C752 C 0.52618 0.54621 0.89356 0.0
C753 C 0.52336 0.53773 0.92687 0.0
C754 C 0.51661 0.51928 0.92876 0.0
C755 C 0.51273 0.50924 0.89735 0.0
H756 H 0.52638 0.54546 0.95121 0.0
H757 H 0.48336 0.4607 0.63641 0.0
H758 H 0.49597 0.92202 0.06188 0.0
H759 H 0.48407 0.95442 0.06072 0.0
H760 H 0.53961 0.97473 0.03562 0.0
H761 H 0.55165 0.9425 0.03705 0.0
H762 H 0.52351 0.99614 0.08679 0.0
H763 H 0.50584 0.97239 0.97118 0.0
H764 H 0.49125 0.95007 0.92881 0.0
H765 H 0.43724 0.96008 0.97652 0.0
H766 H 0.45155 0.98228 0.01952 0.0
H767 H 0.492 0.09 0.04553 0.0
H768 H 0.50671 0.05868 0.04215 0.0
H769 H 0.45274 0.03278 0.06044 0.0
H770 H 0.43804 0.06368 0.06288 0.0
H771 H 0.46987 0.01473 0.00945 0.0
H772 H 0.48742 0.03691 0.12709 0.0
H773 H 0.50173 0.05891 0.17042 0.0
H774 H 0.5555 0.05166 0.11999 0.0
H775 H 0.54144 0.02978 0.07605 0.0
C776 C 0.50565 0.93337 0.05599 0.0
C777 C 0.52476 0.9296 0.04944 0.0
C778 C 0.49881 0.9519 0.05524 0.0
C779 C 0.51091 0.96704 0.04778 0.0
C780 C 0.53 0.96332 0.04144 0.0
C781 C 0.53683 0.94483 0.04213 0.0
C782 C 0.50373 0.98677 0.04684 0.0
C783 C 0.51194 1.00028 0.06951 0.0
C784 C 0.48846 0.99214 0.02472 0.0
C785 C 0.4798 0.97887 0.99877 0.0
C786 C 0.49087 0.96973 0.97281 0.0
C787 C 0.48265 0.95711 0.94865 0.0
C788 C 0.46333 0.95362 0.95002 0.0
C789 C 0.4522 0.96278 0.97551 0.0
C790 C 0.46036 0.97539 0.99976 0.0
C791 C 0.48332 0.0776 0.0488 0.0
C792 C 0.46385 0.07938 0.05443 0.0
C793 C 0.49174 0.0597 0.04702 0.0
C794 C 0.48087 0.04329 0.0513 0.0
C795 C 0.46145 0.04514 0.05688 0.0
C796 C 0.45306 0.06291 0.05838 0.0
C797 C 0.48941 0.02408 0.04987 0.0
C798 C 0.48148 0.01065 0.02665 0.0
C799 C 0.50487 0.01878 0.07161 0.0
C800 C 0.51334 0.03188 0.09805 0.0
C801 C 0.50227 0.04012 0.12508 0.0
C802 C 0.51034 0.05255 0.14977 0.0
C803 C 0.5295 0.05672 0.14789 0.0
C804 C 0.54065 0.04844 0.12137 0.0
C805 C 0.53264 0.03601 0.09658 0.0
H806 H 0.53572 0.06635 0.16704 0.0
H807 H 0.45699 0.94385 0.9313 0.0
H808 H 0.06018 0.45109 0.1026 0.0
H809 H 0.0288 0.46477 0.09969 0.0
H810 H 0.04783 0.5047 0.02074 0.0
H811 H 0.07962 0.49121 0.02404 0.0
H812 H 0.02456 0.52145 0.0673 0.0
H813 H 0.0224 0.46588 0.99591 0.0
H814 H 0.02698 0.4323 0.98121 0.0
H815 H 0.98954 0.41666 0.0662 0.0
H816 H 0.98493 0.45016 0.08176 0.0
H817 H 0.93128 0.54528 0.01215 0.0
H818 H 0.963 0.53194 0.01003 0.0
H819 H 0.95085 0.49816 0.10297 0.0
H820 H 0.91912 0.51168 0.10573 0.0
H821 H 0.97057 0.47872 0.04521 0.0
H822 H 0.97414 0.53535 0.11688 0.0
H823 H 0.96914 0.56922 0.12842 0.0
H824 H 1.00384 0.58304 0.03821 0.0
H825 H 0.00877 0.54922 0.02575 0.0
C826 C 0.05779 0.46285 0.08469 0.0
C827 C 0.07242 0.46995 0.06332 0.0
C828 C 0.03975 0.47061 0.08294 0.0
C829 C 0.03579 0.48551 0.05942 0.0
C830 C 0.0505 0.49312 0.03893 0.0
C831 C 0.06867 0.48541 0.04083 0.0
C832 C 0.01621 0.49286 0.05616 0.0
C833 C 0.01282 0.51214 0.0619 0.0
C834 C 1.00077 0.48072 0.0495 0.0
C835 C 1.00345 0.46054 0.04021 0.0
C836 C 0.01525 0.45528 0.01165 0.0
C837 C 0.01784 0.43626 1.00313 0.0
C838 C 0.00859 0.42235 0.02281 0.0
C839 C 0.99671 0.42745 0.05101 0.0
C840 C 0.99409 0.44645 0.05967 0.0
C841 C 0.93524 0.53484 0.03191 0.0
C842 C 0.92266 0.52957 0.0592 0.0
C843 C 0.95342 0.5273 0.03072 0.0
C844 C 0.95931 0.51418 0.0565 0.0
C845 C 0.94657 0.50829 0.08286 0.0
C846 C 0.92846 0.51604 0.08442 0.0
C847 C 0.97901 0.50718 0.05678 0.0
C848 C 0.98238 0.48799 0.05043 0.0
C849 C 0.99442 0.51942 0.06245 0.0
C850 C 0.99165 0.53976 0.07015 0.0
C851 C 0.98057 0.54561 0.09931 0.0
C852 C 0.97777 0.5648 0.10605 0.0
C853 C 0.98612 0.57827 0.084 0.0
C854 C 0.99735 0.57259 0.05523 0.0
C855 C 1.00016 0.55341 0.04832 0.0
H856 H 0.98394 0.59312 0.08926 0.0
H857 H 0.01061 0.40763 0.01617 0.0
H858 H 0.44779 0.45822 0.25516 0.0
H859 H 0.4624 0.48926 0.25681 0.0
H860 H 0.50567 0.46804 0.32703 0.0
H861 H 0.49112 0.43658 0.32522 0.0
H862 H 0.48859 0.50356 0.34906 0.0
H863 H 0.51775 0.47558 0.24577 0.0
H864 H 0.51812 0.45862 0.18807 0.0
H865 H 0.4847 0.50233 0.14025 0.0
H866 H 0.48389 0.51943 0.19783 0.0
H867 H 0.54353 0.58707 0.33691 0.0
H868 H 0.53148 0.55496 0.33938 0.0
H869 H 0.49663 0.56605 0.24697 0.0
H870 H 0.50968 0.59788 0.24307 0.0
H871 H 0.51124 0.53425 0.23794 0.0
H872 H 0.47976 0.5615 0.33966 0.0
H873 H 0.47772 0.5788 0.3969 0.0
H874 H 0.51294 0.53738 0.44732 0.0
H875 H 0.51535 0.51992 0.39026 0.0
C876 C 0.46046 0.46006 0.27091 0.0
C877 C 0.46831 0.4449 0.29005 0.0
C878 C 0.46881 0.47784 0.27175 0.0
C879 C 0.48515 0.48096 0.29194 0.0
C880 C 0.49305 0.46591 0.31127 0.0
C881 C 0.4848 0.44795 0.31005 0.0
C882 C 0.49372 0.50005 0.29266 0.0
C883 C 0.49385 0.51021 0.32494 0.0
C884 C 0.50004 0.50889 0.26097 0.0
C885 C 0.50063 0.49871 0.22621 0.0
C886 C 0.51035 0.4815 0.22303 0.0
C887 C 0.51067 0.47188 0.19032 0.0
C888 C 0.50141 0.47937 0.16053 0.0
C889 C 0.49186 0.49653 0.16336 0.0
C890 C 0.49148 0.50621 0.19601 0.0
C891 C 0.53309 0.58276 0.31741 0.0
C892 C 0.52746 0.59506 0.28989 0.0
C893 C 0.52612 0.56435 0.31894 0.0
C894 C 0.51284 0.55799 0.29373 0.0
C895 C 0.50686 0.57049 0.26675 0.0
C896 C 0.51423 0.58875 0.26465 0.0
C897 C 0.50586 0.53812 0.29434 0.0
C898 C 0.50604 0.52772 0.26223 0.0
C899 C 0.49956 0.52919 0.32614 0.0
C900 C 0.49787 0.5395 0.3606 0.0
C901 C 0.48714 0.55613 0.36291 0.0
C902 C 0.48591 0.56596 0.39533 0.0
C903 C 0.49524 0.55922 0.4257 0.0
C904 C 0.50574 0.54259 0.42376 0.0
C905 C 0.50702 0.53271 0.39141 0.0
H906 H 0.49431 0.56687 0.45075 0.0
H907 H 0.50166 0.47189 0.13524 0.0
H908 H 0.42935 0.04716 0.59038 0.0
H909 H 0.46134 0.03423 0.59169 0.0
H910 H 0.45074 1.00477 0.49265 0.0
H911 H 0.41887 0.01797 0.49069 0.0
H912 H 0.46952 0.98289 0.54915 0.0
H913 H 0.47371 0.04223 0.48599 0.0
H914 H 0.46899 0.07649 0.47967 0.0
H915 H 0.50337 0.08631 0.57246 0.0
H916 H 0.50802 0.05204 0.57972 0.0
H917 H 0.55798 0.95578 0.48863 0.0
H918 H 0.5271 0.97043 0.49307 0.0
H919 H 0.54752 1.00723 0.57652 0.0
H920 H 0.57892 0.99284 0.5714 0.0
H921 H 0.52383 0.02596 0.53382 0.0
H922 H 0.52136 0.96783 0.59672 0.0
H923 H 0.52581 0.93375 0.60638 0.0
H924 H 0.48806 0.92167 0.51949 0.0
H925 H 0.4836 0.9557 0.50895 0.0
C926 C 0.43374 0.03774 0.56909 0.0
C927 C 0.42155 0.03358 0.54041 0.0
C928 C 0.45205 0.03046 0.56981 0.0
C929 C 0.45844 0.01864 0.54216 0.0
C930 C 0.44609 0.01388 0.51423 0.0
C931 C 0.4279 0.02144 0.51313 0.0
C932 C 0.47815 0.01164 0.54177 0.0
C933 C 0.4814 0.99225 0.54546 0.0
C934 C 0.49365 0.02397 0.53821 0.0
C935 C 0.49103 0.04456 0.53365 0.0
C936 C 0.48012 0.05168 0.50526 0.0
C937 C 0.47748 0.0711 0.50146 0.0
C938 C 0.48583 0.08357 0.52571 0.0
C939 C 0.49688 0.07663 0.55374 0.0
C940 C 0.49952 0.05721 0.5577 0.0
C941 C 0.556 0.96709 0.50779 0.0
C942 C 0.57087 0.97301 0.52993 0.0
C943 C 0.53826 0.97541 0.51042 0.0
C944 C 0.53477 0.98961 0.53581 0.0
C945 C 0.5498 0.99619 0.55693 0.0
C946 C 0.56774 0.98798 0.55397 0.0
C947 C 0.51528 0.99706 0.54056 0.0
C948 C 0.51202 0.01654 0.53778 0.0
C949 C 0.49974 0.98483 0.5455 0.0
C950 C 0.50226 0.96433 0.55187 0.0
C951 C 0.5141 0.95791 0.57951 0.0
C952 C 0.51662 0.9386 0.58517 0.0
C953 C 0.50725 0.92555 0.56352 0.0
C954 C 0.49532 0.9318 0.53622 0.0
C955 C 0.49277 0.9511 0.53042 0.0
H956 H 0.50921 0.91061 0.56793 0.0
H957 H 0.48378 0.0986 0.52273 0.0
H958 H 0.03553 0.07996 0.82951 0.0
H959 H 0.0229 0.04788 0.83254 0.0
H960 H 0.03163 0.04123 0.71892 0.0
H961 H 0.04409 0.07321 0.71561 0.0
H962 H 0.99804 0.02687 0.7393 0.0
H963 H 0.06266 0.02272 0.77937 0.0
H964 H 0.08949 0.03131 0.81798 0.0
H965 H 0.05878 0.01362 0.91094 0.0
H966 H 0.03168 1.00509 0.87287 0.0
H967 H 0.99293 0.92913 0.71616 0.0
H968 H 1.00517 0.9612 0.71937 0.0
H969 H 0.9976 0.96128 0.83397 0.0
H970 H 0.9857 0.92894 0.83107 0.0
H971 H 0.02916 0.97949 0.81712 0.0
H972 H 0.96525 0.98224 0.77842 0.0
H973 H 0.93772 0.9742 0.74123 0.0
H974 H 0.96582 0.99534 0.64788 0.0
H975 H 0.99364 1.00326 0.68444 0.0
C976 C 0.03457 0.07174 0.8051 0.0
C977 C 0.04091 0.07917 0.77233 0.0
C978 C 0.02746 0.05335 0.80692 0.0
C979 C 0.02655 0.04201 0.77604 0.0
C980 C 0.03224 0.04965 0.74314 0.0
C981 C 0.03939 0.06797 0.74131 0.0
C982 C 0.02006 0.02207 0.77783 0.0
C983 C 1.00497 0.01647 0.75604 0.0
C984 C 0.02872 0.00859 0.80048 0.0
C985 C 0.04509 0.01344 0.82332 0.0
C986 C 0.06159 0.02076 0.80807 0.0
C987 C 0.07685 0.0256 0.82985 0.0
C988 C 0.07582 0.02306 0.8669 0.0
C989 C 0.05955 0.0156 0.88224 0.0
C990 C 0.04425 0.01074 0.86057 0.0
C991 C 0.99409 0.93584 0.74215 0.0
C992 C 0.98817 0.92647 0.77331 0.0
C993 C 1.001 0.95426 0.74392 0.0
C994 C 1.0019 0.96389 0.77681 0.0
C995 C 0.99693 0.95424 0.80824 0.0
C996 C 0.99013 0.93571 0.80652 0.0
C997 C 0.00733 0.98419 0.77805 0.0
C998 C 0.02217 0.98988 0.80047 0.0
C999 C 0.99834 0.99783 0.75619 0.0
C1000 C 0.98159 0.99319 0.73413 0.0
C1001 C 0.96561 0.98505 0.74992 0.0
C1002 C 0.94995 0.98053 0.72896 0.0
C1003 C 0.95004 0.98421 0.6922 0.0
C1004 C 0.96578 0.99247 0.67635 0.0
C1005 C 0.98149 0.997 0.69718 0.0
H1006 H 0.9379 0.9807 0.67602 0.0
H1007 H 0.08765 0.02682 0.88371 0.0
H1008 H 0.11131 0.16909 0.69617 0.0
H1009 H 0.12054 0.16507 0.63348 0.0
H1010 H 0.11544 0.10479 0.64435 0.0
H1011 H 0.10638 0.10862 0.70692 0.0
H1012 H 0.1454 0.11507 0.60128 0.0
H1013 H 0.07866 0.13155 0.61649 0.0
H1014 H 0.0536 0.15306 0.63719 0.0
H1015 H 0.07559 0.19711 0.57067 0.0
H1016 H 0.10098 0.17593 0.55005 0.0
H1017 H 0.115 0.06976 0.44915 0.0
H1018 H 0.11696 0.08496 0.50742 0.0
H1019 H 0.1222 0.13921 0.45656 0.0
H1020 H 0.12025 0.12398 0.39743 0.0
H1021 H 0.0978 0.13949 0.51564 0.0
H1022 H 0.16022 0.12186 0.49058 0.0
H1023 H 0.18629 0.10171 0.47002 0.0
H1024 H 0.1745 0.06203 0.55368 0.0
H1025 H 0.14814 0.08184 0.57451 0.0
C1026 C 0.11258 0.15495 0.68546 0.0
C1027 C 0.10788 0.13917 0.70638 0.0
C1028 C 0.1178 0.1527 0.6496 0.0
C1029 C 0.11838 0.13466 0.63418 0.0
C1030 C 0.11503 0.11885 0.65573 0.0
C1031 C 0.10978 0.12107 0.69148 0.0
C1032 C 0.12053 0.13208 0.59504 0.0
C1033 C 0.13505 0.12042 0.5825 0.0
C1034 C 0.10742 0.13973 0.5704 0.0
C1035 C 0.09182 0.15223 0.58203 0.0
C1036 C 0.0782 0.14585 0.60641 0.0
C1037 C 0.06394 0.15798 0.61814 0.0
C1038 C 0.06304 0.17645 0.60531 0.0
C1039 C 0.07634 0.18281 0.58063 0.0
C1040 C 0.09066 0.17075 0.56892 0.0
C1041 C 0.11647 0.08494 0.45015 0.0
C1042 C 0.11759 0.09565 0.4186 0.0
C1043 C 0.11768 0.0936 0.48355 0.0
C1044 C 0.12008 0.11316 0.48626 0.0
C1045 C 0.12049 0.12407 0.45495 0.0
C1046 C 0.11935 0.11536 0.42127 0.0
C1047 C 0.1222 0.12179 0.52218 0.0
C1048 C 0.10849 0.13455 0.53415 0.0
C1049 C 0.13622 0.11537 0.54623 0.0
C1050 C 0.1521 0.10332 0.534 0.0
C1051 C 0.16308 0.10877 0.50445 0.0
C1052 C 0.17793 0.0974 0.49275 0.0
C1053 C 0.18203 0.08056 0.51045 0.0
C1054 C 0.1713 0.07508 0.53997 0.0
C1055 C 0.15641 0.0864 0.55179 0.0
H1056 H 0.19354 0.07178 0.50135 0.0
H1057 H 0.052 0.18582 0.61441 0.0
H1058 H 0.90643 0.62031 0.6439 0.0
H1059 H 0.89283 0.61735 0.70407 0.0
H1060 H 0.9454 0.63521 0.75068 0.0
H1061 H 0.95904 0.63801 0.69123 0.0
H1062 H 0.93262 0.60425 0.78282 0.0
H1063 H 0.9074 0.66461 0.74921 0.0
H1064 H 0.8902 0.68688 0.71049 0.0
H1065 H 0.83994 0.654 0.72202 0.0
H1066 H 0.85696 0.63139 0.76043 0.0
H1067 H 0.90372 0.61132 0.96199 0.0
H1068 H 0.91485 0.62132 0.90302 0.0
H1069 H 0.86148 0.60585 0.85654 0.0
H1070 H 0.85007 0.59646 0.9154 0.0
H1071 H 0.87449 0.63625 0.82427 0.0
H1072 H 0.89976 0.57539 0.85591 0.0
H1073 H 0.91687 0.55285 0.89425 0.0
H1074 H 0.96694 0.58623 0.88543 0.0
H1075 H 0.95004 0.60911 0.84741 0.0
C1076 C 0.91503 0.62367 0.667 0.0
C1077 C 0.93385 0.62923 0.66276 0.0
C1078 C 0.90723 0.62206 0.70134 0.0
C1079 C 0.9181 0.62611 0.73189 0.0
C1080 C 0.93678 0.63192 0.72756 0.0
C1081 C 0.94455 0.63349 0.69344 0.0
C1082 C 0.91044 0.62357 0.76856 0.0
C1083 C 0.92005 0.61147 0.79202 0.0
C1084 C 0.89381 0.63261 0.78031 0.0
C1085 C 0.88352 0.64621 0.75737 0.0
C1086 C 0.89273 0.66205 0.74323 0.0
C1087 C 0.883 0.67475 0.7214 0.0
C1088 C 0.864 0.67183 0.71372 0.0
C1089 C 0.85467 0.65623 0.72795 0.0
C1090 C 0.86435 0.64348 0.74978 0.0
C1091 C 0.89424 0.61037 0.93933 0.0
C1092 C 0.87609 0.60288 0.94335 0.0
C1093 C 0.90065 0.616 0.90559 0.0
C1094 C 0.88915 0.6139 0.87517 0.0
C1095 C 0.87065 0.60751 0.87953 0.0
C1096 C 0.86416 0.6021 0.91328 0.0
C1097 C 0.89676 0.61704 0.83858 0.0
C1098 C 0.88711 0.62913 0.81509 0.0
C1099 C 0.91335 0.60792 0.82664 0.0
C1100 C 0.92359 0.59405 0.84912 0.0
C1101 C 0.91439 0.57797 0.86232 0.0
C1102 C 0.92405 0.56513 0.88398 0.0
C1103 C 0.94296 0.56813 0.89235 0.0
C1104 C 0.95228 0.58394 0.87897 0.0
C1105 C 0.94267 0.59684 0.85735 0.0
H1106 H 0.95041 0.55818 0.90915 0.0
H1107 H 0.85648 0.68168 0.69681 0.0
H1108 H 0.40763 0.3904 0.19647 0.0
H1109 H 0.397 0.39295 0.13399 0.0
H1110 H 0.45472 0.39478 0.0988 0.0
H1111 H 0.46537 0.39239 0.16054 0.0
H1112 H 0.43397 0.42195 0.06773 0.0
H1113 H 0.42904 0.35514 0.08964 0.0
H1114 H 0.41783 0.32683 0.12123 0.0
H1115 H 0.3607 0.34172 0.0967 0.0
H1116 H 0.37157 0.37028 0.06536 0.0
H1117 H 0.43035 0.40686 0.88395 0.0
H1118 H 0.43572 0.39945 0.94696 0.0
H1119 H 0.37611 0.40251 0.96707 0.0
H1120 H 0.37052 0.40988 0.90393 0.0
H1121 H 0.39471 0.37377 1.00685 0.0
H1122 H 0.40001 0.44 0.9828 0.0
H1123 H 0.41154 0.4679 0.95033 0.0
H1124 H 0.46833 0.45391 0.97922 0.0
H1125 H 0.45715 0.42573 0.01139 0.0
C1126 C 0.41801 0.39136 0.17536 0.0
C1127 C 0.43733 0.39121 0.18346 0.0
C1128 C 0.41194 0.39272 0.13972 0.0
C1129 C 0.4251 0.39396 0.11178 0.0
C1130 C 0.44433 0.39387 0.11994 0.0
C1131 C 0.45039 0.39246 0.15532 0.0
C1132 C 0.4191 0.39573 0.07389 0.0
C1133 C 0.4255 0.41133 0.0544 0.0
C1134 C 0.40766 0.38212 0.05674 0.0
C1135 C 0.4011 0.36496 0.07554 0.0
C1136 C 0.41408 0.35247 0.09127 0.0
C1137 C 0.40778 0.33636 0.10907 0.0
C1138 C 0.38856 0.33251 0.11107 0.0
C1139 C 0.37558 0.34474 0.09519 0.0
C1140 C 0.3818 0.36088 0.07739 0.0
C1141 C 0.41832 0.40558 0.90153 0.0
C1142 C 0.40003 0.40923 0.88899 0.0
C1143 C 0.42143 0.40137 0.93756 0.0
C1144 C 0.40633 0.40077 0.96171 0.0
C1145 C 0.38794 0.40298 0.94884 0.0
C1146 C 0.3848 0.40723 0.91275 0.0
C1147 C 0.41 0.39973 1.0007 0.0
C1148 C 0.40308 0.3844 0.02035 0.0
C1149 C 0.421 0.41358 0.01814 0.0
C1150 C 0.42775 0.43066 0.99923 0.0
C1151 C 0.41497 0.44279 0.98201 0.0
C1152 C 0.42144 0.45867 0.96368 0.0
C1153 C 0.44066 0.46265 0.96264 0.0
C1154 C 0.45345 0.45079 0.98002 0.0
C1155 C 0.44705 0.43488 0.99832 0.0
H1156 H 0.44565 0.47494 0.94843 0.0
H1157 H 0.38371 0.32002 0.12485 0.0
H1158 H 0.59983 0.94633 0.41434 0.0
H1159 H 0.59571 0.92914 0.35824 0.0
H1160 H 0.63301 0.88545 0.39592 0.0
H1161 H 0.6368 0.90251 0.45317 0.0
H1162 H 0.64053 0.90428 0.32256 0.0
H1163 H 0.59517 0.86927 0.38663 0.0
H1164 H 0.56908 0.86396 0.42879 0.0
H1165 H 0.53263 0.89797 0.36366 0.0
H1166 H 0.55858 0.90376 0.3214 0.0
H1167 H 0.60824 0.87333 0.14399 0.0
H1168 H 0.619 0.87123 0.20657 0.0
H1169 H 0.5808 0.91598 0.23564 0.0
H1170 H 0.5702 0.9183 0.17394 0.0
H1171 H 0.57791 0.8836 0.27916 0.0
H1172 H 0.62559 0.92529 0.22709 0.0
H1173 H 0.65169 0.93242 0.18585 0.0
H1174 H 0.6836 0.88631 0.22908 0.0
H1175 H 0.65755 0.87876 0.27028 0.0
C1176 C 0.607 0.93296 0.41089 0.0
C1177 C 0.61863 0.92571 0.43794 0.0
C1178 C 0.60459 0.92314 0.37892 0.0
C1179 C 0.61403 0.90605 0.3731 0.0
C1180 C 0.62558 0.8986 0.40013 0.0
C1181 C 0.62765 0.90827 0.4327 0.0
C1182 C 0.61225 0.89696 0.33765 0.0
C1183 C 0.62705 0.89909 0.31318 0.0
C1184 C 0.59462 0.89039 0.32557 0.0
C1185 C 0.57888 0.887 0.35087 0.0
C1186 C 0.58164 0.87574 0.38143 0.0
C1187 C 0.56686 0.87263 0.40533 0.0
C1188 C 0.54921 0.88063 0.39893 0.0
C1189 C 0.54631 0.89176 0.36858 0.0
C1190 C 0.56104 0.89494 0.34459 0.0
C1191 C 0.60236 0.88288 0.1637 0.0
C1192 C 0.58831 0.89594 0.15403 0.0
C1193 C 0.60845 0.88159 0.19937 0.0
C1194 C 0.6005 0.8933 0.22568 0.0
C1195 C 0.58693 0.90665 0.21578 0.0
C1196 C 0.58096 0.90803 0.18039 0.0
C1197 C 0.60586 0.89193 0.26387 0.0
C1198 C 0.59166 0.88791 0.28875 0.0
C1199 C 0.624 0.89682 0.27624 0.0
C1200 C 0.63953 0.90128 0.25131 0.0
C1201 C 0.63809 0.91654 0.2275 0.0
C1202 C 0.65289 0.92069 0.20422 0.0
C1203 C 0.66926 0.90977 0.20474 0.0
C1204 C 0.67088 0.89471 0.22862 0.0
C1205 C 0.65611 0.89049 0.25194 0.0
H1206 H 0.68071 0.91302 0.18672 0.0
H1207 H 0.53779 0.8782 0.41746 0.0
H1208 H 0.10384 0.40569 0.6429 0.0
H1209 H 0.1127 0.4142 0.70392 0.0
H1210 H 0.11572 0.35537 0.73232 0.0
H1211 H 0.10659 0.34669 0.67128 0.0
H1212 H 0.09488 0.37465 0.77941 0.0
H1213 H 0.15565 0.382 0.72783 0.0
H1214 H 0.17906 0.39299 0.68398 0.0
H1215 H 0.16607 0.45049 0.71026 0.0
H1216 H 0.14239 0.43986 0.75392 0.0
H1217 H 0.12511 0.40213 0.95605 0.0
H1218 H 0.124 0.38711 0.89682 0.0
H1219 H 0.11938 0.44178 0.84715 0.0
H1220 H 0.12072 0.4568 0.90573 0.0
H1221 H 0.14459 0.42036 0.81287 0.0
H1222 H 0.08115 0.41307 0.85765 0.0
H1223 H 0.05714 0.40249 0.90072 0.0
H1224 H 0.07499 0.34512 0.88649 0.0
H1225 H 0.09929 0.35541 0.84366 0.0
C1226 C 0.1067 0.39452 0.6619 0.0
C1227 C 0.10445 0.3755 0.65221 0.0
C1228 C 0.11184 0.39942 0.6968 0.0
C1229 C 0.11498 0.38541 0.72267 0.0
C1230 C 0.11337 0.3664 0.71279 0.0
C1231 C 0.10822 0.36147 0.67783 0.0
C1232 C 0.11853 0.39077 0.76053 0.0
C1233 C 0.10603 0.38432 0.78688 0.0
C1234 C 0.13285 0.40364 0.77017 0.0
C1235 C 0.14714 0.41012 0.74402 0.0
C1236 C 0.15768 0.39699 0.72409 0.0
C1237 C 0.17102 0.40316 0.69929 0.0
C1238 C 0.17403 0.42243 0.69429 0.0
C1239 C 0.16373 0.43557 0.71415 0.0
C1240 C 0.15036 0.42948 0.73897 0.0
C1241 C 0.12379 0.41091 0.93249 0.0
C1242 C 0.12298 0.43066 0.93561 0.0
C1243 C 0.12315 0.40232 0.89869 0.0
C1244 C 0.12156 0.41333 0.86756 0.0
C1245 C 0.12072 0.43301 0.87075 0.0
C1246 C 0.12139 0.44157 0.90435 0.0
C1247 C 0.12067 0.40461 0.83145 0.0
C1248 C 0.13367 0.41043 0.80547 0.0
C1249 C 0.10679 0.39121 0.82211 0.0
C1250 C 0.09218 0.38503 0.84782 0.0
C1251 C 0.08006 0.39822 0.86395 0.0
C1252 C 0.06638 0.39228 0.88826 0.0
C1253 C 0.06458 0.37315 0.89643 0.0
C1254 C 0.07643 0.35993 0.88021 0.0
C1255 C 0.09015 0.36581 0.8559 0.0
H1256 H 0.05397 0.36858 0.91525 0.0
H1257 H 0.18436 0.42718 0.67508 0.0
H1258 H 0.57602 0.66469 0.16762 0.0
H1259 H 0.58526 0.65371 0.10828 0.0
H1260 H 0.61048 0.6042 0.15503 0.0
H1261 H 0.60116 0.61505 0.21488 0.0
H1262 H 0.63251 0.62125 0.1005 0.0
H1263 H 0.56897 0.59973 0.11912 0.0
H1264 H 0.53553 0.60383 0.13475 0.0
H1265 H 0.5287 0.64302 0.04816 0.0
H1266 H 0.56218 0.63932 0.03229 0.0
H1267 H 0.63882 0.56191 0.95011 0.0
H1268 H 0.6317 0.5761 0.00789 0.0
H1269 H 0.60112 0.62074 0.95524 0.0
H1270 H 0.60794 0.60634 0.89685 0.0
H1271 H 0.5821 0.60794 0.01194 0.0
H1272 H 0.64476 0.62865 0.99072 0.0
H1273 H 0.6783 0.62561 0.9751 0.0
H1274 H 0.68717 0.58956 0.06585 0.0
H1275 H 0.6536 0.59216 0.08174 0.0
C1276 C 0.58367 0.65153 0.16545 0.0
C1277 C 0.58776 0.64068 0.19602 0.0
C1278 C 0.58889 0.64526 0.13144 0.0
C1279 C 0.59836 0.62806 0.12727 0.0
C1280 C 0.60313 0.61751 0.15776 0.0
C1281 C 0.59777 0.62371 0.19188 0.0
C1282 C 0.60268 0.62083 0.09094 0.0
C1283 C 0.62152 0.61811 0.08123 0.0
C1284 C 0.58831 0.61733 0.06555 0.0
C1285 C 0.56812 0.61939 0.07474 0.0
C1286 C 0.56037 0.60932 0.10357 0.0
C1287 C 0.5414 0.61155 0.11244 0.0
C1288 C 0.53001 0.62371 0.09251 0.0
C1289 C 0.53755 0.63362 0.06359 0.0
C1290 C 0.55651 0.63144 0.05462 0.0
C1291 C 0.63061 0.57478 0.95066 0.0
C1292 C 0.624 0.58304 0.9188 0.0
C1293 C 0.62664 0.58294 0.9838 0.0
C1294 C 0.61614 0.59966 0.98591 0.0
C1295 C 0.60933 0.60788 0.95421 0.0
C1296 C 0.61327 0.59966 0.92089 0.0
C1297 C 0.61199 0.60818 0.0214 0.0
C1298 C 0.59315 0.61116 0.03104 0.0
C1299 C 0.62639 0.61205 0.04663 0.0
C1300 C 0.64662 0.61048 0.03724 0.0
C1301 C 0.65383 0.61996 0.0072 0.0
C1302 C 0.67285 0.61833 0.99832 0.0
C1303 C 0.68485 0.60736 0.01942 0.0
C1304 C 0.67785 0.59804 0.0495 0.0
C1305 C 0.65883 0.5996 0.05848 0.0
H1306 H 0.69957 0.60613 0.0125 0.0
H1307 H 0.51533 0.62543 0.09943 0.0
H1308 H 0.42807 0.09822 0.46984 0.0
H1309 H 0.4325 0.10779 0.40769 0.0
H1310 H 0.37258 0.11495 0.39552 0.0
H1311 H 0.36798 0.10508 0.45759 0.0
H1312 H 0.38617 0.09483 0.34184 0.0
H1313 H 0.40208 0.15319 0.39621 0.0
H1314 H 0.41782 0.17473 0.43851 0.0
H1315 H 0.47161 0.15881 0.3959 0.0
H1316 H 0.45621 0.13696 0.35366 0.0
H1317 H 0.40317 0.13065 0.16299 0.0
H1318 H 0.39253 0.1289 0.22554 0.0
H1319 H 0.44859 0.11351 0.2587 0.0
H1320 H 0.45924 0.11505 0.19688 0.0
H1321 H 0.43285 0.1419 0.30082 0.0
H1322 H 0.41632 0.0806 0.25228 0.0
H1323 H 0.40023 0.05922 0.21011 0.0
H1324 H 0.34675 0.0818 0.24206 0.0
H1325 H 0.36256 0.10351 0.2841 0.0
C1326 C 0.41584 0.10212 0.45417 0.0
C1327 C 0.39767 0.10085 0.46871 0.0
C1328 C 0.4184 0.10766 0.41861 0.0
C1329 C 0.40288 0.11223 0.39695 0.0
C1330 C 0.38476 0.11149 0.4117 0.0
C1331 C 0.38217 0.10591 0.44725 0.0
C1332 C 0.40556 0.11651 0.35835 0.0
C1333 C 0.39607 0.10543 0.33289 0.0
C1334 C 0.41862 0.13019 0.34657 0.0
C1335 C 0.42798 0.14333 0.37191 0.0
C1336 C 0.41727 0.15417 0.39603 0.0
C1337 C 0.42614 0.16646 0.41997 0.0
C1338 C 0.44571 0.16811 0.41994 0.0
C1339 C 0.45645 0.15751 0.39591 0.0
C1340 C 0.44766 0.14519 0.37192 0.0
C1341 C 0.41318 0.12681 0.18363 0.0
C1342 C 0.43203 0.12294 0.17493 0.0
C1343 C 0.40709 0.12584 0.2193 0.0
C1344 C 0.41981 0.12112 0.2467 0.0
C1345 C 0.43859 0.11728 0.23799 0.0
C1346 C 0.44461 0.11806 0.20253 0.0
C1347 C 0.41381 0.11992 0.28463 0.0
C1348 C 0.42269 0.13158 0.30989 0.0
C1349 C 0.40012 0.10688 0.2962 0.0
C1350 C 0.39063 0.09384 0.27096 0.0
C1351 C 0.40114 0.08113 0.25005 0.0
C1352 C 0.39207 0.06893 0.22623 0.0
C1353 C 0.37248 0.0692 0.22331 0.0
C1354 C 0.36192 0.08164 0.24429 0.0
C1355 C 0.37093 0.09389 0.26812 0.0
H1356 H 0.36549 0.05973 0.20487 0.0
H1357 H 0.45254 0.17764 0.43849 0.0
H1358 H 0.91441 0.90337 0.70372 0.0
H1359 H 0.90182 0.91146 0.64454 0.0
H1360 H 0.9297 0.86301 0.59889 0.0
H1361 H 0.94247 0.855 0.6575 0.0
H1362 H 0.93636 0.89347 0.55999 0.0
H1363 H 0.88192 0.86397 0.61015 0.0
H1364 H 0.8571 0.85861 0.65501 0.0
H1365 H 0.8371 0.91523 0.64055 0.0
H1366 H 0.86198 0.92101 0.59594 0.0
H1367 H 0.89468 0.90234 0.38735 0.0
H1368 H 0.90256 0.88898 0.44611 0.0
H1369 H 0.87813 0.93754 0.49803 0.0
H1370 H 0.87014 0.95084 0.43983 0.0
H1371 H 0.86905 0.90507 0.53271 0.0
H1372 H 0.92457 0.93515 0.48602 0.0
H1373 H 0.94932 0.94081 0.44112 0.0
H1374 H 0.96726 0.88316 0.44954 0.0
H1375 H 0.9424 0.87709 0.49412 0.0
C1376 C 0.91767 0.89434 0.68113 0.0
C1377 C 0.92948 0.87859 0.68532 0.0
C1378 C 0.91043 0.89894 0.64735 0.0
C1379 C 0.91475 0.88778 0.61728 0.0
C1380 C 0.92622 0.87185 0.62164 0.0
C1381 C 0.93348 0.86729 0.65525 0.0
C1382 C 0.90813 0.89313 0.58095 0.0
C1383 C 0.9216 0.89569 0.55391 0.0
C1384 C 0.88892 0.89641 0.57315 0.0
C1385 C 0.87393 0.89298 0.59995 0.0
C1386 C 0.87233 0.87533 0.61675 0.0
C1387 C 0.85823 0.8722 0.64209 0.0
C1388 C 0.84556 0.88658 0.65069 0.0
C1389 C 0.84694 0.90411 0.63389 0.0
C1390 C 0.86103 0.90731 0.60856 0.0
C1391 C 0.89083 0.91005 0.41131 0.0
C1392 C 0.88194 0.92771 0.40894 0.0
C1393 C 0.89537 0.90244 0.44483 0.0
C1394 C 0.89108 0.91238 0.47641 0.0
C1395 C 0.88157 0.92964 0.47404 0.0
C1396 C 0.87712 0.93727 0.44068 0.0
C1397 C 0.89728 0.90539 0.51194 0.0
C1398 C 0.88377 0.90263 0.53881 0.0
C1399 C 0.91645 0.90195 0.51965 0.0
C1400 C 0.93149 0.90561 0.49308 0.0
C1401 C 0.9337 0.92364 0.47808 0.0
C1402 C 0.94775 0.92693 0.45273 0.0
C1403 C 0.95981 0.91234 0.44241 0.0
C1404 C 0.95788 0.89444 0.45751 0.0
C1405 C 0.94381 0.89107 0.48283 0.0
H1406 H 0.97069 0.91491 0.42277 0.0
H1407 H 0.83465 0.88413 0.67031 0.0
H1408 H 0.10783 0.11789 0.89486 0.0
H1409 H 0.12021 0.1104 0.95434 0.0
H1410 H 0.07722 0.14493 1.00278 0.0
H1411 H 0.06471 0.1525 0.9434 0.0
H1412 H 0.11241 0.14953 0.03504 0.0
H1413 H 0.07119 0.09883 0.99985 0.0
H1414 H 0.05975 0.07371 0.95966 0.0
H1415 H 0.11313 0.0456 0.9669 0.0
H1416 H 0.12498 0.07071 1.00677 0.0
H1417 H 0.11261 0.11347 0.21264 0.0
H1418 H 0.10551 0.12468 0.15231 0.0
H1419 H 0.14338 0.08317 0.1081 0.0
H1420 H 0.15008 0.0715 0.16835 0.0
H1421 H 0.11228 0.08246 0.07233 0.0
H1422 H 0.15345 0.13191 0.10948 0.0
H1423 H 0.16552 0.15709 0.14884 0.0
H1424 H 0.11366 0.18758 0.13723 0.0
H1425 H 0.10118 0.16246 0.09818 0.0
C1426 C 0.10111 0.12407 0.91811 0.0
C1427 C 0.08519 0.13571 0.91434 0.0
C1428 C 0.10817 0.11971 0.95211 0.0
C1429 C 0.09951 0.12694 0.98302 0.0
C1430 C 0.0841 0.13917 0.9793 0.0
C1431 C 0.07694 0.14344 0.94532 0.0
C1432 C 0.10598 0.12109 0.01922 0.0
C1433 C 0.11223 0.13489 0.04339 0.0
C1434 C 0.10618 0.10194 0.02975 0.0
C1435 C 0.09903 0.08675 1.00599 0.0
C1436 C 0.08054 0.08737 0.99265 0.0
C1437 C 0.07397 0.07312 0.96997 0.0
C1438 C 0.08572 0.0581 0.96065 0.0
C1439 C 0.10405 0.05726 0.97409 0.0
C1440 C 0.1107 0.07149 0.99676 0.0
C1441 C 0.11964 0.10689 0.19013 0.0
C1442 C 0.13191 0.09156 0.19537 0.0
C1443 C 0.11561 0.11337 0.15556 0.0
C1444 C 0.12402 0.1049 0.12548 0.0
C1445 C 0.13667 0.08993 0.13078 0.0
C1446 C 0.14055 0.08331 0.1653 0.0
C1447 C 0.1188 0.1109 0.08848 0.0
C1448 C 0.11267 0.0971 0.06408 0.0
C1449 C 0.11885 0.13005 0.07771 0.0
C1450 C 0.12632 0.14521 0.10115 0.0
C1451 C 0.14456 0.14392 0.11554 0.0
C1452 C 0.15149 0.15819 0.13775 0.0
C1453 C 0.14035 0.1739 0.1456 0.0
C1454 C 0.12227 0.17539 0.13116 0.0
C1455 C 0.11527 0.16115 0.10895 0.0
H1456 H 0.14573 0.18494 0.1628 0.0
H1457 H 0.08061 0.04708 0.94311 0.0
H1458 H 0.96675 0.63095 0.40939 0.0
H1459 H 0.95478 0.62517 0.34929 0.0
H1460 H 0.89822 0.6226 0.39049 0.0
H1461 H 0.91023 0.62808 0.45136 0.0
H1462 H 0.90431 0.59457 0.34354 0.0
H1463 H 0.91343 0.6611 0.34243 0.0
H1464 H 0.93046 0.69096 0.35158 0.0
H1465 H 0.97259 0.67344 0.2762 0.0
H1466 H 0.95595 0.64335 0.26695 0.0
H1467 H 0.8688 0.59188 0.16323 0.0
H1468 H 0.87464 0.60164 0.22532 0.0
H1469 H 0.93396 0.60576 0.20286 0.0
H1470 H 0.92825 0.59629 0.14099 0.0
H1471 H 0.92254 0.6353 0.24152 0.0
H1472 H 0.91501 0.56769 0.24749 0.0
H1473 H 0.8982 0.53767 0.23859 0.0
H1474 H 0.85297 0.55747 0.30489 0.0
H1475 H 0.86941 0.58772 0.3138 0.0
C1476 C 0.95173 0.62928 0.40583 0.0
C1477 C 0.93945 0.63008 0.43533 0.0
C1478 C 0.94488 0.62605 0.37126 0.0
C1479 C 0.92554 0.62372 0.3651 0.0
C1480 C 0.91319 0.62443 0.39448 0.0
C1481 C 0.92007 0.62764 0.42926 0.0
C1482 C 0.91849 0.62007 0.32804 0.0
C1483 C 0.90798 0.60369 0.32135 0.0
C1484 C 0.92349 0.63177 0.29884 0.0
C1485 C 0.9335 0.6499 0.30419 0.0
C1486 C 0.92639 0.66356 0.32798 0.0
C1487 C 0.93597 0.68053 0.33315 0.0
C1488 C 0.95261 0.68408 0.31453 0.0
C1489 C 0.95969 0.67067 0.29062 0.0
C1490 C 0.95019 0.65366 0.28536 0.0
C1491 C 0.88307 0.59495 0.17149 0.0
C1492 C 0.89805 0.59327 0.14704 0.0
C1493 C 0.88641 0.60044 0.20707 0.0
C1494 C 0.90478 0.60429 0.21897 0.0
C1495 C 0.91966 0.60291 0.19442 0.0
C1496 C 0.91636 0.59743 0.15896 0.0
C1497 C 0.90874 0.6096 0.25694 0.0
C1498 C 0.91866 0.62632 0.26379 0.0
C1499 C 0.90319 0.59822 0.28623 0.0
C1500 C 0.89333 0.58004 0.28096 0.0
C1501 C 0.90141 0.5657 0.25993 0.0
C1502 C 0.89196 0.54863 0.25493 0.0
C1503 C 0.8745 0.54569 0.27107 0.0
C1504 C 0.86647 0.55979 0.29234 0.0
C1505 C 0.87585 0.57689 0.29739 0.0
H1506 H 0.86721 0.53247 0.26717 0.0
H1507 H 0.96 0.69723 0.31858 0.0
H1508 H 0.35943 0.44957 0.65415 0.0
H1509 H 0.36827 0.43712 0.59533 0.0
H1510 H 0.3999 0.39268 0.64617 0.0
H1511 H 0.39105 0.40497 0.70511 0.0
H1512 H 0.42035 0.41195 0.59486 0.0
H1513 H 0.36004 0.38219 0.60427 0.0
H1514 H 0.32579 0.38099 0.61395 0.0
H1515 H 0.31706 0.41784 0.52434 0.0
H1516 H 0.3513 0.41948 0.51442 0.0
H1517 H 0.44533 0.36273 0.43823 0.0
H1518 H 0.43165 0.3702 0.49651 0.0
H1519 H 0.39481 0.41085 0.44679 0.0
H1520 H 0.40814 0.4031 0.38813 0.0
H1521 H 0.37648 0.39279 0.49805 0.0
H1522 H 0.43569 0.42433 0.4897 0.0
H1523 H 0.46983 0.42728 0.4798 0.0
H1524 H 0.48053 0.3894 0.56708 0.0
H1525 H 0.44643 0.38601 0.57719 0.0
C1526 C 0.36806 0.437 0.65285 0.0
C1527 C 0.37454 0.42828 0.68438 0.0
C1528 C 0.37306 0.42987 0.61918 0.0
C1529 C 0.38471 0.41394 0.61633 0.0
C1530 C 0.39089 0.40498 0.64773 0.0
C1531 C 0.38574 0.41198 0.68141 0.0
C1532 C 0.39139 0.40733 0.58069 0.0
C1533 C 0.41078 0.40744 0.57389 0.0
C1534 C 0.37886 0.40207 0.55294 0.0
C1535 C 0.35826 0.4011 0.55883 0.0
C1536 C 0.35084 0.39017 0.58682 0.0
C1537 C 0.33141 0.38939 0.59231 0.0
C1538 C 0.31925 0.39937 0.56983 0.0
C1539 C 0.32649 0.41013 0.54176 0.0
C1540 C 0.34591 0.41098 0.53617 0.0
C1541 C 0.43419 0.37314 0.43958 0.0
C1542 C 0.42795 0.38243 0.40849 0.0
C1543 C 0.42643 0.37746 0.47301 0.0
C1544 C 0.41245 0.39139 0.47626 0.0
C1545 C 0.40563 0.40012 0.44507 0.0
C1546 C 0.41329 0.39568 0.41151 0.0
C1547 C 0.4055 0.3973 0.51224 0.0
C1548 C 0.38607 0.39717 0.51907 0.0
C1549 C 0.41798 0.40279 0.53999 0.0
C1550 C 0.4385 0.40476 0.53394 0.0
C1551 C 0.44532 0.41651 0.50659 0.0
C1552 C 0.46466 0.41828 0.50098 0.0
C1553 C 0.47734 0.40849 0.52273 0.0
C1554 C 0.4707 0.39694 0.55021 0.0
C1555 C 0.45136 0.3951 0.5559 0.0
H1556 H 0.49231 0.40989 0.51836 0.0
H1557 H 0.30422 0.39874 0.57412 0.0
H1558 H 0.58338 0.92021 0.64291 0.0
H1559 H 0.57992 0.91135 0.70552 0.0
H1560 H 0.63959 0.9178 0.72167 0.0
H1561 H 0.64324 0.9269 0.6585 0.0
H1562 H 0.6232 0.88457 0.75516 0.0
H1563 H 0.61459 0.95124 0.75127 0.0
H1564 H 0.60186 0.98123 0.72837 0.0
H1565 H 0.54581 0.96309 0.75317 0.0
H1566 H 0.55819 0.93284 0.77573 0.0
H1567 H 0.60656 0.88325 0.94748 0.0
H1568 H 0.61812 0.89074 0.88719 0.0
H1569 H 0.561 0.89386 0.84871 0.0
H1570 H 0.54941 0.88652 0.90839 0.0
H1571 H 0.58093 0.92441 0.82917 0.0
H1572 H 0.58926 0.85681 0.82787 0.0
H1573 H 0.60171 0.82647 0.84971 0.0
H1574 H 0.65817 0.84627 0.83477 0.0
H1575 H 0.64604 0.87684 0.81327 0.0
C1576 C 0.59585 0.91965 0.65955 0.0
C1577 C 0.6136 0.92439 0.64565 0.0
C1578 C 0.59382 0.91459 0.69543 0.0
C1579 C 0.60946 0.91408 0.71833 0.0
C1580 C 0.62734 0.91814 0.70442 0.0
C1581 C 0.62938 0.92339 0.66839 0.0
C1582 C 0.60668 0.91001 0.75698 0.0
C1583 C 0.61428 0.89345 0.77165 0.0
C1584 C 0.59485 0.92149 0.77829 0.0
C1585 C 0.58732 0.9397 0.76494 0.0
C1586 C 0.59954 0.95357 0.75158 0.0
C1587 C 0.59239 0.97063 0.7387 0.0
C1588 C 0.57303 0.97404 0.73925 0.0
C1589 C 0.5608 0.96042 0.75275 0.0
C1590 C 0.56788 0.94332 0.76562 0.0
C1591 C 0.59649 0.88533 0.92606 0.0
C1592 C 0.57705 0.88435 0.93285 0.0
C1593 C 0.60312 0.88959 0.89161 0.0
C1594 C 0.59042 0.8929 0.86341 0.0
C1595 C 0.57107 0.89147 0.87005 0.0
C1596 C 0.56446 0.8872 0.90427 0.0
C1597 C 0.59698 0.89865 0.8272 0.0
C1598 C 0.59009 0.91561 0.81297 0.0
C1599 C 0.60945 0.88753 0.80643 0.0
C1600 C 0.61674 0.86919 0.81941 0.0
C1601 C 0.60433 0.85476 0.82957 0.0
C1602 C 0.61133 0.83751 0.84181 0.0
C1603 C 0.63072 0.83447 0.84374 0.0
C1604 C 0.64315 0.84866 0.83334 0.0
C1605 C 0.63622 0.86595 0.82111 0.0
H1606 H 0.63611 0.82109 0.85321 0.0
H1607 H 0.56752 0.98726 0.72927 0.0
H1608 H 0.06757 0.3637 0.40461 0.0
H1609 H 0.08028 0.37309 0.34655 0.0
H1610 H 0.12284 0.40616 0.39963 0.0
H1611 H 0.11018 0.39686 0.45795 0.0
H1612 H 0.10492 0.42594 0.3468 0.0
H1613 H 0.13456 0.36543 0.35825 0.0
H1614 H 0.13566 0.33114 0.36857 0.0
H1615 H 0.09964 0.32208 0.27778 0.0
H1616 H 0.09811 0.35636 0.26719 0.0
H1617 H 0.15335 0.45035 0.1888 0.0
H1618 H 0.14633 0.4373 0.24782 0.0
H1619 H 0.10681 0.39869 0.19984 0.0
H1620 H 0.11426 0.41125 0.14058 0.0
H1621 H 0.1247 0.38141 0.25134 0.0
H1622 H 0.09286 0.44086 0.2416 0.0
H1623 H 0.09008 0.47505 0.23093 0.0
H1624 H 0.12806 0.48598 0.31799 0.0
H1625 H 0.13126 0.45183 0.32888 0.0
C1626 C 0.07975 0.37282 0.40402 0.0
C1627 C 0.08784 0.37953 0.43601 0.0
C1628 C 0.08705 0.37812 0.37074 0.0
C1629 C 0.1026 0.39025 0.36867 0.0
C1630 C 0.11086 0.39678 0.40055 0.0
C1631 C 0.10364 0.39139 0.43388 0.0
C1632 C 0.10962 0.39681 0.33327 0.0
C1633 C 0.10957 0.41622 0.32614 0.0
C1634 C 0.11513 0.38411 0.3059 0.0
C1635 C 0.11609 0.36348 0.31212 0.0
C1636 C 0.12675 0.35614 0.34065 0.0
C1637 C 0.12748 0.3367 0.34651 0.0
C1638 C 0.11769 0.32444 0.32389 0.0
C1639 C 0.1072 0.3316 0.2953 0.0
C1640 C 0.10642 0.35103 0.28933 0.0
C1641 C 0.1433 0.43895 0.19076 0.0
C1642 C 0.13428 0.43193 0.15997 0.0
C1643 C 0.13921 0.43156 0.22459 0.0
C1644 C 0.12571 0.41727 0.22852 0.0
C1645 C 0.11722 0.40975 0.19764 0.0
C1646 C 0.12148 0.41697 0.16371 0.0
C1647 C 0.11999 0.41058 0.26479 0.0
C1648 C 0.1202 0.39116 0.27206 0.0
C1649 C 0.1144 0.42325 0.29222 0.0
C1650 C 0.11245 0.44379 0.2858 0.0
C1651 C 0.10072 0.45055 0.2583 0.0
C1652 C 0.09905 0.46992 0.25224 0.0
C1653 C 0.10893 0.48268 0.2737 0.0
C1654 C 0.12045 0.47609 0.30135 0.0
C1655 C 0.12219 0.45673 0.30749 0.0
H1656 H 0.10762 0.49767 0.26897 0.0
H1657 H 0.11827 0.30939 0.32848 0.0
H1658 H 0.65399 0.57304 0.66557 0.0
H1659 H 0.64525 0.58629 0.60745 0.0
H1660 H 0.59954 0.61661 0.657 0.0
H1661 H 0.6082 0.60343 0.71532 0.0
H1662 H 0.5884 0.59687 0.597 0.0
H1663 H 0.63786 0.63992 0.62903 0.0
H1664 H 0.66986 0.64877 0.6481 0.0
H1665 H 0.69288 0.62187 0.55478 0.0
H1666 H 0.66102 0.61263 0.53538 0.0
H1667 H 0.56025 0.65257 0.45143 0.0
H1668 H 0.57258 0.64284 0.5095 0.0
H1669 H 0.61969 0.61601 0.4575 0.0
H1670 H 0.60754 0.626 0.39899 0.0
H1671 H 0.63077 0.63361 0.51816 0.0
H1672 H 0.58277 0.58995 0.48589 0.0
H1673 H 0.55138 0.57968 0.46578 0.0
H1674 H 0.52635 0.60558 0.55822 0.0
H1675 H 0.55758 0.61624 0.57865 0.0
C1676 C 0.6422 0.58269 0.66423 0.0
C1677 C 0.63179 0.58715 0.69517 0.0
C1678 C 0.63725 0.5903 0.63094 0.0
C1679 C 0.62177 0.60251 0.62783 0.0
C1680 C 0.61154 0.60723 0.65875 0.0
C1681 C 0.61657 0.59974 0.69211 0.0
C1682 C 0.61571 0.60962 0.59212 0.0
C1683 C 0.59756 0.60516 0.58001 0.0
C1684 C 0.6279 0.61984 0.56936 0.0
C1685 C 0.64706 0.62542 0.58094 0.0
C1686 C 0.64976 0.63575 0.61273 0.0
C1687 C 0.66787 0.64087 0.62357 0.0
C1688 C 0.68339 0.63584 0.60272 0.0
C1689 C 0.68084 0.62573 0.57093 0.0
C1690 C 0.66276 0.62057 0.55998 0.0
C1691 C 0.57332 0.64473 0.45224 0.0
C1692 C 0.58281 0.63993 0.42045 0.0
C1693 C 0.58032 0.6391 0.48554 0.0
C1694 C 0.59688 0.62837 0.48791 0.0
C1695 C 0.60684 0.6242 0.45636 0.0
C1696 C 0.59986 0.62991 0.42292 0.0
C1697 C 0.60337 0.62106 0.52324 0.0
C1698 C 0.62159 0.62537 0.5352 0.0
C1699 C 0.59133 0.61048 0.54575 0.0
C1700 C 0.57251 0.60406 0.53362 0.0
C1701 C 0.57056 0.59359 0.50179 0.0
C1702 C 0.5528 0.58767 0.49036 0.0
C1703 C 0.53687 0.59201 0.51066 0.0
C1704 C 0.53869 0.60224 0.5425 0.0
C1705 C 0.55643 0.60822 0.55403 0.0
H1706 H 0.52314 0.58741 0.50176 0.0
H1707 H 0.6974 0.63982 0.61115 0.0
H1708 H 0.36464 0.06386 0.70766 0.0
H1709 H 0.37223 0.07777 0.76573 0.0
H1710 H 0.39289 0.12766 0.71316 0.0
H1711 H 0.38542 0.11374 0.6547 0.0
H1712 H 0.41744 0.11487 0.76332 0.0
H1713 H 0.3515 0.12863 0.75903 0.0
H1714 H 0.31783 0.12142 0.7513 0.0
H1715 H 0.32034 0.08265 0.83937 0.0
H1716 H 0.3541 0.08943 0.84732 0.0
H1717 H 0.43346 0.1645 0.92444 0.0
H1718 H 0.42079 0.15585 0.86582 0.0
H1719 H 0.39496 0.10663 0.91207 0.0
H1720 H 0.4071 0.11555 0.97106 0.0
H1721 H 0.37225 0.12094 0.86384 0.0
H1722 H 0.43786 0.10476 0.86573 0.0
H1723 H 0.47181 0.11051 0.87351 0.0
H1724 H 0.47026 0.15206 0.79007 0.0
H1725 H 0.43623 0.14673 0.78211 0.0
C1726 C 0.37063 0.07787 0.70836 0.0
C1727 C 0.37441 0.08767 0.67642 0.0
C1728 C 0.3749 0.08586 0.74168 0.0
C1729 C 0.38301 0.10385 0.74393 0.0
C1730 C 0.38661 0.11378 0.71213 0.0
C1731 C 0.38226 0.10582 0.67872 0.0
C1732 C 0.38855 0.11182 0.77939 0.0
C1733 C 0.40747 0.11654 0.78509 0.0
C1734 C 0.3757 0.11347 0.80819 0.0
C1735 C 0.35537 0.10943 0.80358 0.0
C1736 C 0.34491 0.11846 0.77658 0.0
C1737 C 0.3258 0.11447 0.77219 0.0
C1738 C 0.31697 0.10156 0.79478 0.0
C1739 C 0.32721 0.09264 0.82187 0.0
C1740 C 0.34632 0.09657 0.82636 0.0
C1741 C 0.42491 0.15194 0.92225 0.0
C1742 C 0.42141 0.14066 0.95246 0.0
C1743 C 0.41775 0.14693 0.8886 0.0
C1744 C 0.40725 0.13033 0.88421 0.0
C1745 C 0.40308 0.11946 0.91462 0.0
C1746 C 0.41005 0.12458 0.94839 0.0
C1747 C 0.40118 0.12394 0.84784 0.0
C1748 C 0.38218 0.11945 0.84198 0.0
C1749 C 0.414 0.1223 0.81893 0.0
C1750 C 0.43447 0.12549 0.8236 0.0
C1751 C 0.44474 0.11522 0.84923 0.0
C1752 C 0.464 0.11839 0.85364 0.0
C1753 C 0.47318 0.13168 0.83237 0.0
C1754 C 0.46312 0.14179 0.80657 0.0
C1755 C 0.44385 0.1387 0.80208 0.0
H1756 H 0.48809 0.13411 0.83582 0.0
H1757 H 0.30217 0.09848 0.79133 0.0
H1758 H 0.87438 0.95568 0.15199 0.0
H1759 H 0.88243 0.9419 0.09409 0.0
H1760 H 0.89698 0.88957 0.14584 0.0
H1761 H 0.88905 0.90337 0.20422 0.0
H1762 H 0.92375 0.90025 0.09839 0.0
H1763 H 0.85682 0.89331 0.09628 0.0
H1764 H 0.82385 0.90375 0.10157 0.0
H1765 H 0.83209 0.94331 0.01614 0.0
H1766 H 0.86519 0.93328 0.01066 0.0
H1767 H 0.93775 0.85119 0.93531 0.0
H1768 H 0.92528 0.86055 0.99366 0.0
H1769 H 0.90583 0.91303 0.94856 0.0
H1770 H 0.91779 0.90349 0.88984 0.0
H1771 H 0.88062 0.90037 0.99383 0.0
H1772 H 0.94753 0.90945 0.99843 0.0
H1773 H 0.98084 0.90014 0.99319 0.0
H1774 H 0.97302 0.85787 0.07395 0.0
H1775 H 0.93959 0.86678 0.07934 0.0
C1776 C 0.87915 0.94118 0.15115 0.0
C1777 C 0.88104 0.93064 0.18286 0.0
C1778 C 0.88368 0.93328 0.1179 0.0
C1779 C 0.89015 0.91462 0.11545 0.0
C1780 C 0.89197 0.90399 0.14701 0.0
C1781 C 0.88736 0.91187 0.18037 0.0
C1782 C 0.89573 0.90656 0.08008 0.0
C1783 C 0.9142 0.89995 0.07571 0.0
C1784 C 0.88347 0.90664 0.05013 0.0
C1785 C 0.86354 0.91264 0.05327 0.0
C1786 C 0.85164 0.90433 0.0788 0.0
C1787 C 0.83292 0.91016 0.0818 0.0
C1788 C 0.82589 0.92421 0.05926 0.0
C1789 C 0.83756 0.93243 0.03361 0.0
C1790 C 0.8563 0.92667 0.03051 0.0
C1791 C 0.93069 0.86467 0.9377 0.0
C1792 C 0.9289 0.87663 0.90787 0.0
C1793 C 0.92364 0.87006 0.9712 0.0
C1794 C 0.91492 0.88769 0.97585 0.0
C1795 C 0.91255 0.89939 0.94581 0.0
C1796 C 0.91943 0.89392 0.9122 0.0
C1797 C 0.9087 0.89415 0.01206 0.0
C1798 C 0.89013 0.90051 0.01658 0.0
C1799 C 0.92091 0.89399 0.04212 0.0
C1800 C 0.94102 0.88865 0.039 0.0
C1801 C 0.95289 0.89808 0.01488 0.0
C1802 C 0.97179 0.89289 0.01192 0.0
C1803 C 0.97903 0.87839 0.03315 0.0
C1804 C 0.96739 0.86908 0.05748 0.0
C1805 C 0.94846 0.8742 0.06051 0.0
H1806 H 0.99367 0.87439 0.03082 0.0
H1807 H 0.81139 0.9287 0.06163 0.0
loop_
_geom_bond_atom_site_label_1
_geom_bond_atom_site_label_2
_geom_bond_distance
_geom_bond_site_symmetry_2
_ccdc_geom_bond_type
Mg0 O7 2.141 . S
Mg0 O8 2.048 . S
Mg0 O9 2.048 . S
Mg0 O12 2.141 . S
C1 O2 1.313 . S
C1 O8 1.195 . S
O2 C1 1.313 . S
C3 O4 1.245 . S
C3 O12 1.289 . S
O4 C3 1.245 . S
C5 O6 1.245 . S
C5 O7 1.289 . S
O6 C5 1.245 . S
O7 Mg0 2.141 . S
O7 C5 1.289 . S
O8 Mg0 2.048 . S
O8 C1 1.195 . S
O9 Mg0 2.048 . S
O9 C10 1.195 . S
C10 O9 1.195 . S
C10 O11 1.313 . S
O11 C10 1.313 . S
O12 Mg0 2.141 . S
O12 C3 1.289 . S
Mg13 O20 2.141 . S
Mg13 O21 2.048 . S
Mg13 O22 2.048 . S
Mg13 O25 2.141 . S
C14 O15 1.313 . S
C14 O21 1.195 . S
O15 C14 1.313 . S
C16 O17 1.245 . S
C16 O25 1.289 . S
O17 C16 1.245 . S
C18 O19 1.245 . S
C18 O20 1.289 . S
O19 C18 1.245 . S
O20 Mg13 2.141 . S
O20 C18 1.289 . S
O21 Mg13 2.048 . S
O21 C14 1.195 . S
O22 Mg13 2.048 . S
O22 C23 1.195 . S
C23 O22 1.195 . S
C23 O24 1.313 . S
O24 C23 1.313 . S
O25 Mg13 2.141 . S
O25 C16 1.289 . S
Mg26 O33 2.141 . S
Mg26 O34 2.048 . S
Mg26 O35 2.048 . S
Mg26 O38 2.141 . S
C27 O28 1.313 . S
C27 O34 1.195 . S
O28 C27 1.313 . S
C29 O30 1.245 . S
C29 O38 1.289 . S
O30 C29 1.245 . S
C31 O32 1.245 . S
C31 O33 1.289 . S
O32 C31 1.245 . S
O33 Mg26 2.141 . S
O33 C31 1.289 . S
O34 Mg26 2.048 . S
O34 C27 1.195 . S
O35 Mg26 2.048 . S
O35 C36 1.195 . S
C36 O35 1.195 . S
C36 O37 1.313 . S
O37 C36 1.313 . S
O38 Mg26 2.141 . S
O38 C29 1.289 . S
Mg39 O46 2.141 . S
Mg39 O47 2.048 . S
Mg39 O48 2.048 . S
Mg39 O51 2.141 . S
C40 O41 1.313 . S
C40 O47 1.195 . S
O41 C40 1.313 . S
C42 O43 1.255 . S
C42 O51 1.289 1_556 S
O43 C42 1.255 . S
C44 O45 1.245 . S
C44 O46 1.289 . S
O45 C44 1.245 . S
O46 Mg39 2.141 . S
O46 C44 1.289 . S
O47 Mg39 2.048 . S
O47 C40 1.195 . S
O48 Mg39 2.048 . S
O48 C49 1.195 . S
C49 O48 1.195 . S
C49 O50 1.313 . S
O50 C49 1.313 . S
O51 Mg39 2.141 . S
O51 C42 1.289 1_554 S
Mg52 O59 2.141 . S
Mg52 O60 2.048 1_554 S
Mg52 O61 2.048 . S
Mg52 O64 2.141 . S
C53 O54 1.313 . S
C53 O60 1.195 . S
O54 C53 1.313 . S
C55 O56 1.245 . S
C55 O64 1.289 . S
O56 C55 1.245 . S
C57 O58 1.245 . S
C57 O59 1.289 . S
O58 C57 1.245 . S
O59 Mg52 2.141 . S
O59 C57 1.289 . S
O60 Mg52 2.048 1_556 S
O60 C53 1.195 . S
O61 Mg52 2.048 . S
O61 C62 1.195 . S
C62 O61 1.195 . S
C62 O63 1.313 . S
O63 C62 1.313 . S
O64 Mg52 2.141 . S
O64 C55 1.289 . S
Mg65 O72 2.141 . S
Mg65 O73 2.048 . S
Mg65 O74 2.048 . S
Mg65 O77 2.141 . S
C66 O67 1.313 . S
C66 O73 1.195 . S
O67 C66 1.313 . S
C68 O69 1.245 . S
C68 O77 1.289 . S
O69 C68 1.245 . S
C70 O71 1.245 . S
C70 O72 1.289 . S
O71 C70 1.245 . S
O72 Mg65 2.141 . S
O72 C70 1.289 . S
O73 Mg65 2.048 . S
O73 C66 1.195 . S
O74 Mg65 2.048 . S
O74 C75 1.195 . S
C75 O74 1.195 . S
C75 O76 1.313 . S
O76 C75 1.313 . S
O77 Mg65 2.141 . S
O77 C68 1.289 . S
Mg78 O85 2.141 . S
Mg78 O86 2.048 . S
Mg78 O87 2.048 . S
Mg78 O90 2.141 . S
C79 O80 1.313 . S
C79 O86 1.195 . S
O80 C79 1.313 . S
C81 O82 1.245 . S
C81 O90 1.289 . S
O82 C81 1.245 . S
C83 O84 1.245 . S
C83 O85 1.289 . S
O84 C83 1.245 . S
O85 Mg78 2.141 . S
O85 C83 1.289 . S
O86 Mg78 2.048 . S
O86 C79 1.195 . S
O87 Mg78 2.048 . S
O87 C88 1.195 . S
C88 O87 1.195 . S
C88 O89 1.313 . S
O89 C88 1.313 . S
O90 Mg78 2.141 . S
O90 C81 1.289 . S
Mg91 O98 2.141 . S
Mg91 O99 2.048 . S
Mg91 O100 2.048 . S
Mg91 O103 2.141 . S
C92 O93 1.313 . S
C92 O99 1.195 . S
O93 C92 1.313 . S
C94 O95 1.245 . S
C94 O103 1.289 . S
O95 C94 1.245 . S
C96 O97 1.245 . S
C96 O98 1.289 . S
O97 C96 1.245 . S
O98 Mg91 2.141 . S
O98 C96 1.289 . S
O99 Mg91 2.048 . S
O99 C92 1.195 . S
O100 Mg91 2.048 . S
O100 C101 1.195 . S
C101 O100 1.195 . S
C101 O102 1.313 . S
O102 C101 1.313 . S
O103 Mg91 2.141 . S
O103 C94 1.289 . S
Mg104 O111 2.141 . S
Mg104 O112 2.048 . S
Mg104 O113 2.048 . S
Mg104 O116 2.141 . S
C105 O106 1.313 . S
C105 O112 1.195 . S
O106 C105 1.313 . S
C107 O108 1.245 . S
C107 O116 1.289 . S
O108 C107 1.245 . S
C109 O110 1.245 . S
C109 O111 1.289 . S
O110 C109 1.245 . S
O111 Mg104 2.141 . S
O111 C109 1.289 . S
O112 Mg104 2.048 . S
O112 C105 1.195 . S
O113 Mg104 2.048 . S
O113 C114 1.195 . S
C114 O113 1.195 . S
C114 O115 1.313 . S
O115 C114 1.313 . S
O116 Mg104 2.141 . S
O116 C107 1.289 . S
Mg117 O124 2.141 . S
Mg117 O125 2.048 . S
Mg117 O126 2.048 . S
Mg117 O129 2.141 . S
C118 O119 1.313 . S
C118 O125 1.195 . S
O119 C118 1.313 . S
C120 O121 1.255 . S
C120 O129 1.289 1_556 S
O121 C120 1.255 . S
C122 O123 1.245 . S
C122 O124 1.289 . S
O123 C122 1.245 . S
O124 Mg117 2.141 . S
O124 C122 1.289 . S
O125 Mg117 2.048 . S
O125 C118 1.195 . S
O126 Mg117 2.048 . S
O126 C127 1.195 . S
C127 O126 1.195 . S
C127 O128 1.313 . S
O128 C127 1.313 . S
O129 Mg117 2.141 . S
O129 C120 1.289 1_554 S
Mg130 O137 2.141 . S
Mg130 O138 2.048 . S
Mg130 O139 2.048 . S
Mg130 O142 2.141 . S
C131 O132 1.313 . S
C131 O138 1.195 . S
O132 C131 1.313 . S
C133 O134 1.245 . S
C133 O142 1.289 . S
O134 C133 1.245 . S
C135 O136 1.245 . S
C135 O137 1.289 . S
O136 C135 1.245 . S
O137 Mg130 2.141 . S
O137 C135 1.289 . S
O138 Mg130 2.048 . S
O138 C131 1.195 . S
O139 Mg130 2.048 . S
O139 C140 1.195 . S
C140 O139 1.195 . S
C140 O141 1.313 . S
O141 C140 1.313 . S
O142 Mg130 2.141 . S
O142 C133 1.289 . S
Mg143 O150 2.141 . S
Mg143 O151 2.048 . S
Mg143 O152 2.048 . S
Mg143 O155 2.141 . S
C144 O145 1.313 . S
C144 O151 1.195 . S
O145 C144 1.313 . S
C146 O147 1.245 . S
C146 O155 1.289 . S
O147 C146 1.245 . S
C148 O149 1.245 . S
C148 O150 1.289 . S
O149 C148 1.245 . S
O150 Mg143 2.141 . S
O150 C148 1.289 . S
O151 Mg143 2.048 . S
O151 C144 1.195 . S
O152 Mg143 2.048 . S
O152 C153 1.195 . S
C153 O152 1.195 . S
C153 O154 1.313 . S
O154 C153 1.313 . S
O155 Mg143 2.141 . S
O155 C146 1.289 . S
Mg156 O163 2.141 . S
Mg156 O164 2.048 . S
Mg156 O165 2.048 . S
Mg156 O168 2.141 . S
C157 O158 1.313 . S
C157 O164 1.195 . S
O158 C157 1.313 . S
C159 O160 1.245 . S
C159 O168 1.289 . S
O160 C159 1.245 . S
C161 O162 1.245 . S
C161 O163 1.289 . S
O162 C161 1.245 . S
O163 Mg156 2.141 . S
O163 C161 1.289 . S
O164 Mg156 2.048 . S
O164 C157 1.195 . S
O165 Mg156 2.048 . S
O165 C166 1.195 . S
C166 O165 1.195 . S
C166 O167 1.313 . S
O167 C166 1.313 . S
O168 Mg156 2.141 . S
O168 C159 1.289 . S
Mg169 O176 2.141 . S
Mg169 O177 2.048 . S
Mg169 O178 2.048 . S
Mg169 O181 2.141 . S
C170 O171 1.313 . S
C170 O177 1.195 . S
O171 C170 1.313 . S
C172 O173 1.245 . S
C172 O181 1.289 . S
O173 C172 1.245 . S
C174 O175 1.245 . S
C174 O176 1.289 . S
O175 C174 1.245 . S
O176 Mg169 2.141 . S
O176 C174 1.289 . S
O177 Mg169 2.048 . S
O177 C170 1.195 . S
O178 Mg169 2.048 . S
O178 C179 1.195 . S
C179 O178 1.195 . S
C179 O180 1.313 . S
O180 C179 1.313 . S
O181 Mg169 2.141 . S
O181 C172 1.289 . S
Mg182 O189 2.141 . S
Mg182 O190 2.048 1_554 S
Mg182 O191 2.048 . S
Mg182 O194 2.141 . S
C183 O184 1.313 . S
C183 O190 1.195 . S
O184 C183 1.313 . S
C185 O186 1.245 . S
C185 O194 1.289 . S
O186 C185 1.245 . S
C187 O188 1.245 . S
C187 O189 1.289 . S
O188 C187 1.245 . S
O189 Mg182 2.141 . S
O189 C187 1.289 . S
O190 Mg182 2.048 1_556 S
O190 C183 1.195 . S
O191 Mg182 2.048 . S
O191 C192 1.195 . S
C192 O191 1.195 . S
C192 O193 1.313 . S
O193 C192 1.313 . S
O194 Mg182 2.141 . S
O194 C185 1.289 . S
Mg195 O202 2.141 . S
Mg195 O203 2.048 . S
Mg195 O204 2.048 . S
Mg195 O207 2.141 . S
C196 O197 1.313 . S
C196 O203 1.195 . S
O197 C196 1.313 . S
C198 O199 1.245 . S
C198 O207 1.289 . S
O199 C198 1.245 . S
C200 O201 1.245 . S
C200 O202 1.289 . S
O201 C200 1.245 . S
O202 Mg195 2.141 . S
O202 C200 1.289 . S
O203 Mg195 2.048 . S
O203 C196 1.195 . S
O204 Mg195 2.048 . S
O204 C205 1.195 . S
C205 O204 1.195 . S
C205 O206 1.313 . S
O206 C205 1.313 . S
O207 Mg195 2.141 . S
O207 C198 1.289 . S
H208 C226 0.951 . S
H209 C228 0.951 . S
H210 C230 0.950 . S
H211 C231 0.950 . S
H212 C233 0.950 . S
H213 C236 0.950 . S
H214 C237 0.950 . S
H215 C239 0.950 . S
H216 C240 0.950 . S
H217 C241 0.951 . S
H218 C243 0.951 . S
H219 C245 0.950 . S
H220 C246 0.950 . S
H221 C248 0.950 . S
H222 C251 0.950 . S
H223 C252 0.950 . S
H224 C254 0.950 . S
H225 C255 0.950 . S
C226 H208 0.951 . S
C226 C227 1.366 . S
C226 C228 1.388 . S
C227 C226 1.366 . S
C227 C231 1.385 . S
C228 H209 0.951 . S
C228 C226 1.388 . S
C228 C229 1.366 . S
C229 C228 1.366 . S
C229 C230 1.414 . S
C229 C232 1.499 . S
C230 H210 0.950 . S
C230 C229 1.414 . S
C230 C231 1.374 . S
C231 H211 0.950 . S
C231 C227 1.385 . S
C231 C230 1.374 . S
C232 C229 1.499 . S
C232 C233 1.373 . S
C232 C234 1.389 . S
C233 H212 0.950 . S
C233 C232 1.373 . S
C233 C249 1.377 . S
C234 C232 1.389 . S
C234 C235 1.524 . S
C234 C248 1.377 . S
C235 C234 1.524 . S
C235 C236 1.397 . S
C235 C240 1.363 . S
C236 H213 0.950 . S
C236 C235 1.397 . S
C236 C237 1.334 . S
C237 H214 0.950 . S
C237 C236 1.334 . S
C237 C238 1.287 . S
C238 C237 1.287 . S
C238 C239 1.524 . S
C238 H257 0.913 . S
C239 H215 0.950 . S
C239 C238 1.524 . S
C239 C240 1.415 . S
C240 H216 0.950 . S
C240 C235 1.363 . S
C240 C239 1.415 . S
C241 H217 0.951 . S
C241 C242 1.366 . S
C241 C243 1.388 . S
C242 C241 1.366 . S
C242 C246 1.385 . S
C243 H218 0.951 . S
C243 C241 1.388 . S
C243 C244 1.366 . S
C244 C243 1.366 . S
C244 C245 1.414 . S
C244 C247 1.499 . S
C245 H219 0.950 . S
C245 C244 1.414 . S
C245 C246 1.374 . S
C246 H220 0.950 . S
C246 C242 1.385 . S
C246 C245 1.374 . S
C247 C244 1.499 . S
C247 C248 1.373 . S
C247 C249 1.389 . S
C248 H221 0.950 . S
C248 C234 1.377 . S
C248 C247 1.373 . S
C249 C233 1.377 . S
C249 C247 1.389 . S
C249 C250 1.524 . S
C250 C249 1.524 . S
C250 C251 1.397 . S
C250 C255 1.363 . S
C251 H222 0.950 . S
C251 C250 1.397 . S
C251 C252 1.334 . S
C252 H223 0.950 . S
C252 C251 1.334 . S
C252 C253 1.287 . S
C253 C252 1.287 . S
C253 C254 1.524 . S
C253 H256 0.999 . S
C254 H224 0.950 . S
C254 C253 1.524 . S
C254 C255 1.415 . S
C255 H225 0.950 . S
C255 C250 1.363 . S
C255 C254 1.415 . S
H256 C253 0.999 . S
H257 C238 0.913 . S
H258 C276 0.951 . S
H259 C278 0.951 . S
H260 C280 0.950 . S
H261 C281 0.950 . S
H262 C283 0.950 . S
H263 C286 0.950 . S
H264 C287 0.950 . S
H265 C289 0.950 . S
H266 C290 0.950 . S
H267 C291 0.951 . S
H268 C293 0.951 . S
H269 C295 0.950 . S
H270 C296 0.950 . S
H271 C298 0.950 . S
H272 C301 0.950 . S
H273 C302 0.950 . S
H274 C304 0.950 . S
H275 C305 0.950 . S
C276 H258 0.951 . S
C276 C277 1.366 . S
C276 C278 1.388 . S
C277 C276 1.366 . S
C277 C281 1.385 . S
C278 H259 0.951 . S
C278 C276 1.388 . S
C278 C279 1.366 . S
C279 C278 1.366 . S
C279 C280 1.414 . S
C279 C282 1.499 . S
C280 H260 0.950 . S
C280 C279 1.414 . S
C280 C281 1.374 . S
C281 H261 0.950 . S
C281 C277 1.385 . S
C281 C280 1.374 . S
C282 C279 1.499 . S
C282 C283 1.373 . S
C282 C284 1.389 . S
C283 H262 0.950 . S
C283 C282 1.373 . S
C283 C299 1.377 . S
C284 C282 1.389 . S
C284 C285 1.524 . S
C284 C298 1.377 . S
C285 C284 1.524 . S
C285 C286 1.397 . S
C285 C290 1.363 . S
C286 H263 0.950 . S
C286 C285 1.397 . S
C286 C287 1.334 . S
C287 H264 0.950 . S
C287 C286 1.334 . S
C287 C288 1.287 . S
C288 C287 1.287 . S
C288 C289 1.524 . S
C288 H307 0.913 . S
C289 H265 0.950 . S
C289 C288 1.524 . S
C289 C290 1.415 . S
C290 H266 0.950 . S
C290 C285 1.363 . S
C290 C289 1.415 . S
C291 H267 0.951 . S
C291 C292 1.366 . S
C291 C293 1.388 . S
C292 C291 1.366 . S
C292 C296 1.385 . S
C293 H268 0.951 . S
C293 C291 1.388 . S
C293 C294 1.366 . S
C294 C293 1.366 . S
C294 C295 1.414 . S
C294 C297 1.499 . S
C295 H269 0.950 . S
C295 C294 1.414 . S
C295 C296 1.374 . S
C296 H270 0.950 . S
C296 C292 1.385 . S
C296 C295 1.374 . S
C297 C294 1.499 . S
C297 C298 1.373 . S
C297 C299 1.389 . S
C298 H271 0.950 . S
C298 C284 1.377 . S
C298 C297 1.373 . S
C299 C283 1.377 . S
C299 C297 1.389 . S
C299 C300 1.524 . S
C300 C299 1.524 . S
C300 C301 1.397 . S
C300 C305 1.363 . S
C301 H272 0.950 . S
C301 C300 1.397 . S
C301 C302 1.334 . S
C302 H273 0.950 . S
C302 C301 1.334 . S
C302 C303 1.287 . S
C303 C302 1.287 . S
C303 C304 1.524 . S
C303 H306 0.999 . S
C304 H274 0.950 . S
C304 C303 1.524 . S
C304 C305 1.415 . S
C305 H275 0.950 . S
C305 C300 1.363 . S
C305 C304 1.415 . S
H306 C303 0.999 . S
H307 C288 0.913 . S
H308 C326 0.951 . S
H309 C328 0.951 . S
H310 C330 0.950 . S
H311 C331 0.950 . S
H312 C333 0.950 . S
H313 C336 0.950 . S
H314 C337 0.950 . S
H315 C339 0.950 . S
H316 C340 0.950 . S
H317 C341 0.951 . S
H318 C343 0.951 1_554 S
H319 C345 0.950 . S
H320 C346 0.950 . S
H321 C348 0.950 . S
H322 C351 0.950 . S
H323 C352 0.950 . S
H324 C354 0.950 . S
H325 C355 0.950 . S
C326 H308 0.951 . S
C326 C327 1.366 . S
C326 C328 1.388 . S
C327 C326 1.366 . S
C327 C331 1.385 . S
C328 H309 0.951 . S
C328 C326 1.388 . S
C328 C329 1.366 . S
C329 C328 1.366 . S
C329 C330 1.414 . S
C329 C332 1.499 . S
C330 H310 0.950 . S
C330 C329 1.414 . S
C330 C331 1.374 . S
C331 H311 0.950 . S
C331 C327 1.385 . S
C331 C330 1.374 . S
C332 C329 1.499 . S
C332 C333 1.373 . S
C332 C334 1.389 . S
C333 H312 0.950 . S
C333 C332 1.373 . S
C333 C349 1.377 . S
C334 C332 1.389 . S
C334 C335 1.524 . S
C334 C348 1.377 . S
C335 C334 1.524 . S
C335 C336 1.397 . S
C335 C340 1.363 . S
C336 H313 0.950 . S
C336 C335 1.397 . S
C336 C337 1.334 . S
C337 H314 0.950 . S
C337 C336 1.334 . S
C337 C338 1.287 . S
C338 C337 1.287 . S
C338 C339 1.524 . S
C338 H357 0.913 . S
C339 H315 0.950 . S
C339 C338 1.524 . S
C339 C340 1.415 . S
C340 H316 0.950 . S
C340 C335 1.363 . S
C340 C339 1.415 . S
C341 H317 0.951 . S
C341 C342 1.366 1_554 S
C341 C343 1.388 1_554 S
C342 C341 1.366 1_556 S
C342 C346 1.385 . S
C343 H318 0.951 1_556 S
C343 C341 1.388 1_556 S
C343 C344 1.366 . S
C344 C343 1.366 . S
C344 C345 1.414 . S
C344 C347 1.499 . S
C345 H319 0.950 . S
C345 C344 1.414 . S
C345 C346 1.374 . S
C346 H320 0.950 . S
C346 C342 1.385 . S
C346 C345 1.374 . S
C347 C344 1.499 . S
C347 C348 1.373 . S
C347 C349 1.389 . S
C348 H321 0.950 . S
C348 C334 1.377 . S
C348 C347 1.373 . S
C349 C333 1.377 . S
C349 C347 1.389 . S
C349 C350 1.524 . S
C350 C349 1.524 . S
C350 C351 1.397 . S
C350 C355 1.363 1_556 S
C351 H322 0.950 . S
C351 C350 1.397 . S
C351 C352 1.334 1_556 S
C352 H323 0.950 . S
C352 C351 1.334 1_554 S
C352 C353 1.287 . S
C353 C352 1.287 . S
C353 C354 1.524 . S
C353 H356 0.999 . S
C354 H324 0.950 . S
C354 C353 1.524 . S
C354 C355 1.415 . S
C355 H325 0.950 . S
C355 C350 1.363 1_554 S
C355 C354 1.415 . S
H356 C353 0.999 . S
H357 C338 0.913 . S
H358 C376 0.951 . S
H359 C378 0.951 . S
H360 C380 0.950 . S
H361 C381 0.950 . S
H362 C383 0.950 . S
H363 C386 0.950 . S
H364 C387 0.950 . S
H365 C389 0.950 . S
H366 C390 0.950 . S
H367 C391 0.951 . S
H368 C393 0.951 . S
H369 C395 0.950 . S
H370 C396 0.950 . S
H371 C398 0.950 . S
H372 C401 0.950 . S
H373 C402 0.950 . S
H374 C404 0.950 . S
H375 C405 0.950 . S
C376 H358 0.951 . S
C376 C377 1.366 . S
C376 C378 1.388 . S
C377 C376 1.366 . S
C377 C381 1.385 . S
C378 H359 0.951 . S
C378 C376 1.388 . S
C378 C379 1.366 . S
C379 C378 1.366 . S
C379 C380 1.414 . S
C379 C382 1.499 . S
C380 H360 0.950 . S
C380 C379 1.414 . S
C380 C381 1.374 . S
C381 H361 0.950 . S
C381 C377 1.385 . S
C381 C380 1.374 . S
C382 C379 1.499 . S
C382 C383 1.373 . S
C382 C384 1.389 . S
C383 H362 0.950 . S
C383 C382 1.373 . S
C383 C399 1.377 . S
C384 C382 1.389 . S
C384 C385 1.524 . S
C384 C398 1.377 . S
C385 C384 1.524 . S
C385 C386 1.397 . S
C385 C390 1.363 . S
C386 H363 0.950 . S
C386 C385 1.397 . S
C386 C387 1.334 . S
C387 H364 0.950 . S
C387 C386 1.334 . S
C387 C388 1.287 . S
C388 C387 1.287 . S
C388 C389 1.524 . S
C388 H407 0.913 . S
C389 H365 0.950 . S
C389 C388 1.524 . S
C389 C390 1.415 . S
C390 H366 0.950 . S
C390 C385 1.363 . S
C390 C389 1.415 . S
C391 H367 0.951 . S
C391 C392 1.366 . S
C391 C393 1.388 . S
C392 C391 1.366 . S
C392 C396 1.385 . S
C393 H368 0.951 . S
C393 C391 1.388 . S
C393 C394 1.366 . S
C394 C393 1.366 . S
C394 C395 1.414 . S
C394 C397 1.499 . S
C395 H369 0.950 . S
C395 C394 1.414 . S
C395 C396 1.374 . S
C396 H370 0.950 . S
C396 C392 1.385 . S
C396 C395 1.374 . S
C397 C394 1.499 . S
C397 C398 1.373 . S
C397 C399 1.389 . S
C398 H371 0.950 . S
C398 C384 1.377 . S
C398 C397 1.373 . S
C399 C383 1.377 . S
C399 C397 1.389 . S
C399 C400 1.524 . S
C400 C399 1.524 . S
C400 C401 1.397 . S
C400 C405 1.363 . S
C401 H372 0.950 . S
C401 C400 1.397 . S
C401 C402 1.334 . S
C402 H373 0.950 . S
C402 C401 1.334 . S
C402 C403 1.287 . S
C403 C402 1.287 . S
C403 C404 1.524 . S
C403 H406 0.999 . S
C404 H374 0.950 . S
C404 C403 1.524 . S
C404 C405 1.415 . S
C405 H375 0.950 . S
C405 C400 1.363 . S
C405 C404 1.415 . S
H406 C403 0.999 . S
H407 C388 0.913 . S
H408 C426 0.951 . S
H409 C428 0.951 . S
H410 C430 0.950 . S
H411 C431 0.950 . S
H412 C433 0.950 . S
H413 C436 0.950 . S
H414 C437 0.950 . S
H415 C439 0.950 . S
H416 C440 0.950 . S
H417 C441 0.951 . S
H418 C443 0.951 . S
H419 C445 0.950 . S
H420 C446 0.950 1_554 S
H421 C448 0.950 . S
H422 C451 0.950 . S
H423 C452 0.950 . S
H424 C454 0.950 . S
H425 C455 0.950 . S
C426 H408 0.951 . S
C426 C427 1.366 . S
C426 C428 1.388 . S
C427 C426 1.366 . S
C427 C431 1.385 . S
C428 H409 0.951 . S
C428 C426 1.388 . S
C428 C429 1.366 . S
C429 C428 1.366 . S
C429 C430 1.414 . S
C429 C432 1.499 . S
C430 H410 0.950 . S
C430 C429 1.414 . S
C430 C431 1.374 . S
C431 H411 0.950 . S
C431 C427 1.385 . S
C431 C430 1.374 . S
C432 C429 1.499 . S
C432 C433 1.373 . S
C432 C434 1.389 . S
C433 H412 0.950 . S
C433 C432 1.373 . S
C433 C449 1.377 . S
C434 C432 1.389 . S
C434 C435 1.524 . S
C434 C448 1.377 . S
C435 C434 1.524 . S
C435 C436 1.397 . S
C435 C440 1.363 . S
C436 H413 0.950 . S
C436 C435 1.397 . S
C436 C437 1.334 . S
C437 H414 0.950 . S
C437 C436 1.334 . S
C437 C438 1.287 . S
C438 C437 1.287 . S
C438 C439 1.524 . S
C438 H457 0.913 . S
C439 H415 0.950 . S
C439 C438 1.524 . S
C439 C440 1.415 . S
C440 H416 0.950 . S
C440 C435 1.363 . S
C440 C439 1.415 . S
C441 H417 0.951 . S
C441 C442 1.366 . S
C441 C443 1.388 . S
C442 C441 1.366 . S
C442 C446 1.385 . S
C443 H418 0.951 . S
C443 C441 1.388 . S
C443 C444 1.366 . S
C444 C443 1.366 . S
C444 C445 1.414 . S
C444 C447 1.499 . S
C445 H419 0.950 . S
C445 C444 1.414 . S
C445 C446 1.374 . S
C446 H420 0.950 1_556 S
C446 C442 1.385 . S
C446 C445 1.374 . S
C447 C444 1.499 . S
C447 C448 1.373 . S
C447 C449 1.389 . S
C448 H421 0.950 . S
C448 C434 1.377 . S
C448 C447 1.373 . S
C449 C433 1.377 . S
C449 C447 1.389 . S
C449 C450 1.524 . S
C450 C449 1.524 . S
C450 C451 1.397 1_556 S
C450 C455 1.363 . S
C451 H422 0.950 . S
C451 C450 1.397 1_554 S
C451 C452 1.334 . S
C452 H423 0.950 . S
C452 C451 1.334 . S
C452 C453 1.287 . S
C453 C452 1.287 . S
C453 C454 1.524 1_554 S
C453 H456 0.999 . S
C454 H424 0.950 . S
C454 C453 1.524 1_556 S
C454 C455 1.415 . S
C455 H425 0.950 . S
C455 C450 1.363 . S
C455 C454 1.415 . S
H456 C453 0.999 . S
H457 C438 0.913 . S
H458 C476 0.951 . S
H459 C478 0.951 . S
H460 C480 0.950 . S
H461 C481 0.950 . S
H462 C483 0.950 . S
H463 C486 0.950 . S
H464 C487 0.950 . S
H465 C489 0.950 . S
H466 C490 0.950 . S
H467 C491 0.951 . S
H468 C493 0.951 . S
H469 C495 0.950 . S
H470 C496 0.950 . S
H471 C498 0.950 . S
H472 C501 0.950 . S
H473 C502 0.950 . S
H474 C504 0.950 . S
H475 C505 0.950 . S
C476 H458 0.951 . S
C476 C477 1.366 . S
C476 C478 1.388 . S
C477 C476 1.366 . S
C477 C481 1.385 . S
C478 H459 0.951 . S
C478 C476 1.388 . S
C478 C479 1.366 . S
C479 C478 1.366 . S
C479 C480 1.414 . S
C479 C482 1.499 . S
C480 H460 0.950 . S
C480 C479 1.414 . S
C480 C481 1.374 . S
C481 H461 0.950 . S
C481 C477 1.385 . S
C481 C480 1.374 . S
C482 C479 1.499 . S
C482 C483 1.373 . S
C482 C484 1.389 . S
C483 H462 0.950 . S
C483 C482 1.373 . S
C483 C499 1.377 . S
C484 C482 1.389 . S
C484 C485 1.524 . S
C484 C498 1.377 . S
C485 C484 1.524 . S
C485 C486 1.397 . S
C485 C490 1.363 . S
C486 H463 0.950 . S
C486 C485 1.397 . S
C486 C487 1.334 . S
C487 H464 0.950 . S
C487 C486 1.334 . S
C487 C488 1.287 . S
C488 C487 1.287 . S
C488 C489 1.524 . S
C488 H507 0.913 . S
C489 H465 0.950 . S
C489 C488 1.524 . S
C489 C490 1.415 . S
C490 H466 0.950 . S
C490 C485 1.363 . S
C490 C489 1.415 . S
C491 H467 0.951 . S
C491 C492 1.366 . S
C491 C493 1.388 . S
C492 C491 1.366 . S
C492 C496 1.385 . S
C493 H468 0.951 . S
C493 C491 1.388 . S
C493 C494 1.366 . S
C494 C493 1.366 . S
C494 C495 1.414 . S
C494 C497 1.499 . S
C495 H469 0.950 . S
C495 C494 1.414 . S
C495 C496 1.374 . S
C496 H470 0.950 . S
C496 C492 1.385 . S
C496 C495 1.374 . S
C497 C494 1.499 . S
C497 C498 1.373 . S
C497 C499 1.389 . S
C498 H471 0.950 . S
C498 C484 1.377 . S
C498 C497 1.373 . S
C499 C483 1.377 . S
C499 C497 1.389 . S
C499 C500 1.524 . S
C500 C499 1.524 . S
C500 C501 1.397 . S
C500 C505 1.363 . S
C501 H472 0.950 . S
C501 C500 1.397 . S
C501 C502 1.334 . S
C502 H473 0.950 . S
C502 C501 1.334 . S
C502 C503 1.287 . S
C503 C502 1.287 . S
C503 C504 1.524 . S
C503 H506 0.999 . S
C504 H474 0.950 . S
C504 C503 1.524 . S
C504 C505 1.415 . S
C505 H475 0.950 . S
C505 C500 1.363 . S
C505 C504 1.415 . S
H506 C503 0.999 . S
H507 C488 0.913 . S
H508 C526 0.951 . S
H509 C528 0.951 . S
H510 C530 0.950 . S
H511 C531 0.950 . S
H512 C533 0.950 . S
H513 C536 0.950 . S
H514 C537 0.950 . S
H515 C539 0.950 . S
H516 C540 0.950 . S
H517 C541 0.951 . S
H518 C543 0.951 . S
H519 C545 0.950 . S
H520 C546 0.950 . S
H521 C548 0.950 . S
H522 C551 0.950 . S
H523 C552 0.950 . S
H524 C554 0.950 . S
H525 C555 0.950 . S
C526 H508 0.951 . S
C526 C527 1.366 . S
C526 C528 1.388 . S
C527 C526 1.366 . S
C527 C531 1.385 . S
C528 H509 0.951 . S
C528 C526 1.388 . S
C528 C529 1.366 . S
C529 C528 1.366 . S
C529 C530 1.414 . S
C529 C532 1.499 . S
C530 H510 0.950 . S
C530 C529 1.414 . S
C530 C531 1.374 . S
C531 H511 0.950 . S
C531 C527 1.385 . S
C531 C530 1.374 . S
C532 C529 1.499 . S
C532 C533 1.373 . S
C532 C534 1.389 . S
C533 H512 0.950 . S
C533 C532 1.373 . S
C533 C549 1.377 . S
C534 C532 1.389 . S
C534 C535 1.524 . S
C534 C548 1.377 . S
C535 C534 1.524 . S
C535 C536 1.397 . S
C535 C540 1.363 . S
C536 H513 0.950 . S
C536 C535 1.397 . S
C536 C537 1.334 . S
C537 H514 0.950 . S
C537 C536 1.334 . S
C537 C538 1.287 . S
C538 C537 1.287 . S
C538 C539 1.524 . S
C538 H557 0.913 . S
C539 H515 0.950 . S
C539 C538 1.524 . S
C539 C540 1.415 . S
C540 H516 0.950 . S
C540 C535 1.363 . S
C540 C539 1.415 . S
C541 H517 0.951 . S
C541 C542 1.366 . S
C541 C543 1.388 . S
C542 C541 1.366 . S
C542 C546 1.385 . S
C543 H518 0.951 . S
C543 C541 1.388 . S
C543 C544 1.366 . S
C544 C543 1.366 . S
C544 C545 1.414 . S
C544 C547 1.499 . S
C545 H519 0.950 . S
C545 C544 1.414 . S
C545 C546 1.374 . S
C546 H520 0.950 . S
C546 C542 1.385 . S
C546 C545 1.374 . S
C547 C544 1.499 . S
C547 C548 1.373 . S
C547 C549 1.389 . S
C548 H521 0.950 . S
C548 C534 1.377 . S
C548 C547 1.373 . S
C549 C533 1.377 . S
C549 C547 1.389 . S
C549 C550 1.524 . S
C550 C549 1.524 . S
C550 C551 1.397 . S
C550 C555 1.363 . S
C551 H522 0.950 . S
C551 C550 1.397 . S
C551 C552 1.334 . S
C552 H523 0.950 . S
C552 C551 1.334 . S
C552 C553 1.287 . S
C553 C552 1.287 . S
C553 C554 1.524 . S
C553 H556 0.999 . S
C554 H524 0.950 . S
C554 C553 1.524 . S
C554 C555 1.415 . S
C555 H525 0.950 . S
C555 C550 1.363 . S
C555 C554 1.415 . S
H556 C553 0.999 . S
H557 C538 0.913 . S
H558 C576 0.951 . S
H559 C578 0.951 . S
H560 C580 0.950 . S
H561 C581 0.950 . S
H562 C583 0.950 . S
H563 C586 0.950 . S
H564 C587 0.950 . S
H565 C589 0.950 . S
H566 C590 0.950 . S
H567 C591 0.951 . S
H568 C593 0.951 . S
H569 C595 0.950 . S
H570 C596 0.950 . S
H571 C598 0.950 . S
H572 C601 0.950 . S
H573 C602 0.950 . S
H574 C604 0.950 . S
H575 C605 0.950 . S
C576 H558 0.951 . S
C576 C577 1.366 . S
C576 C578 1.388 . S
C577 C576 1.366 . S
C577 C581 1.385 . S
C578 H559 0.951 . S
C578 C576 1.388 . S
C578 C579 1.366 . S
C579 C578 1.366 . S
C579 C580 1.414 . S
C579 C582 1.499 . S
C580 H560 0.950 . S
C580 C579 1.414 . S
C580 C581 1.374 . S
C581 H561 0.950 . S
C581 C577 1.385 . S
C581 C580 1.374 . S
C582 C579 1.499 . S
C582 C583 1.373 . S
C582 C584 1.389 . S
C583 H562 0.950 . S
C583 C582 1.373 . S
C583 C599 1.377 . S
C584 C582 1.389 . S
C584 C585 1.524 . S
C584 C598 1.377 . S
C585 C584 1.524 . S
C585 C586 1.397 . S
C585 C590 1.363 . S
C586 H563 0.950 . S
C586 C585 1.397 . S
C586 C587 1.334 . S
C587 H564 0.950 . S
C587 C586 1.334 . S
C587 C588 1.287 . S
C588 C587 1.287 . S
C588 C589 1.524 . S
C588 H607 0.913 . S
C589 H565 0.950 . S
C589 C588 1.524 . S
C589 C590 1.415 . S
C590 H566 0.950 . S
C590 C585 1.363 . S
C590 C589 1.415 . S
C591 H567 0.951 . S
C591 C592 1.366 . S
C591 C593 1.388 . S
C592 C591 1.366 . S
C592 C596 1.385 . S
C593 H568 0.951 . S
C593 C591 1.388 . S
C593 C594 1.366 . S
C594 C593 1.366 . S
C594 C595 1.414 . S
C594 C597 1.499 . S
C595 H569 0.950 . S
C595 C594 1.414 . S
C595 C596 1.374 . S
C596 H570 0.950 . S
C596 C592 1.385 . S
C596 C595 1.374 . S
C597 C594 1.499 . S
C597 C598 1.373 . S
C597 C599 1.389 . S
C598 H571 0.950 . S
C598 C584 1.377 . S
C598 C597 1.373 . S
C599 C583 1.377 . S
C599 C597 1.389 . S
C599 C600 1.524 . S
C600 C599 1.524 . S
C600 C601 1.397 . S
C600 C605 1.363 . S
C601 H572 0.950 . S
C601 C600 1.397 . S
C601 C602 1.334 . S
C602 H573 0.950 . S
C602 C601 1.334 . S
C602 C603 1.287 . S
C603 C602 1.287 . S
C603 C604 1.524 . S
C603 H606 0.999 . S
C604 H574 0.950 . S
C604 C603 1.524 . S
C604 C605 1.415 . S
C605 H575 0.950 . S
C605 C600 1.363 . S
C605 C604 1.415 . S
H606 C603 0.999 . S
H607 C588 0.913 . S
H608 C626 0.951 . S
H609 C628 0.951 . S
H610 C630 0.950 . S
H611 C631 0.950 . S
H612 C633 0.950 . S
H613 C636 0.950 . S
H614 C637 0.950 . S
H615 C639 0.950 . S
H616 C640 0.950 . S
H617 C641 0.951 . S
H618 C643 0.951 . S
H619 C645 0.950 . S
H620 C646 0.950 . S
H621 C648 0.950 . S
H622 C651 0.950 . S
H623 C652 0.950 . S
H624 C654 0.950 . S
H625 C655 0.950 . S
C626 H608 0.951 . S
C626 C627 1.366 . S
C626 C628 1.388 . S
C627 C626 1.366 . S
C627 C631 1.385 . S
C628 H609 0.951 . S
C628 C626 1.388 . S
C628 C629 1.366 . S
C629 C628 1.366 . S
C629 C630 1.414 . S
C629 C632 1.499 . S
C630 H610 0.950 . S
C630 C629 1.414 . S
C630 C631 1.374 . S
C631 H611 0.950 . S
C631 C627 1.385 . S
C631 C630 1.374 . S
C632 C629 1.499 . S
C632 C633 1.373 1_455 S
C632 C634 1.389 1_545 S
C633 H612 0.950 . S
C633 C632 1.373 1_655 S
C633 C649 1.377 . S
C634 C632 1.389 1_565 S
C634 C635 1.524 . S
C634 C648 1.377 . S
C635 C634 1.524 . S
C635 C636 1.397 1_565 S
C635 C640 1.363 . S
C636 H613 0.950 . S
C636 C635 1.397 1_545 S
C636 C637 1.334 . S
C637 H614 0.950 . S
C637 C636 1.334 . S
C637 C638 1.287 1_545 S
C638 C637 1.287 1_565 S
C638 C639 1.524 . S
C638 H657 0.913 . S
C639 H615 0.950 . S
C639 C638 1.524 . S
C639 C640 1.415 . S
C640 H616 0.950 . S
C640 C635 1.363 . S
C640 C639 1.415 . S
C641 H617 0.951 . S
C641 C642 1.366 . S
C641 C643 1.388 . S
C642 C641 1.366 . S
C642 C646 1.385 . S
C643 H618 0.951 . S
C643 C641 1.388 . S
C643 C644 1.366 . S
C644 C643 1.366 . S
C644 C645 1.414 . S
C644 C647 1.499 . S
C645 H619 0.950 . S
C645 C644 1.414 . S
C645 C646 1.374 . S
C646 H620 0.950 . S
C646 C642 1.385 . S
C646 C645 1.374 . S
C647 C644 1.499 . S
C647 C648 1.373 1_655 S
C647 C649 1.389 1_565 S
C648 H621 0.950 . S
C648 C634 1.377 . S
C648 C647 1.373 1_455 S
C649 C633 1.377 . S
C649 C647 1.389 1_545 S
C649 C650 1.524 . S
C650 C649 1.524 . S
C650 C651 1.397 1_545 S
C650 C655 1.363 . S
C651 H622 0.950 . S
C651 C650 1.397 1_565 S
C651 C652 1.334 . S
C652 H623 0.950 . S
C652 C651 1.334 . S
C652 C653 1.287 1_565 S
C653 C652 1.287 1_545 S
C653 C654 1.524 . S
C653 H656 0.999 . S
C654 H624 0.950 . S
C654 C653 1.524 . S
C654 C655 1.415 . S
C655 H625 0.950 . S
C655 C650 1.363 . S
C655 C654 1.415 . S
H656 C653 0.999 . S
H657 C638 0.913 . S
H658 C676 0.951 . S
H659 C678 0.951 . S
H660 C680 0.950 . S
H661 C681 0.950 . S
H662 C683 0.953 . S
H663 C686 0.950 . S
H664 C687 0.950 . S
H665 C689 0.950 . S
H666 C690 0.950 . S
H667 C691 0.951 . S
H668 C693 0.951 . S
H669 C695 0.950 . S
H670 C696 0.950 . S
H671 C698 0.953 . S
H672 C701 0.950 . S
H673 C702 0.950 . S
H674 C704 0.950 . S
H675 C705 0.950 . S
C676 H658 0.951 . S
C676 C677 1.366 . S
C676 C678 1.388 . S
C677 C676 1.366 . S
C677 C681 1.385 . S
C678 H659 0.951 . S
C678 C676 1.388 . S
C678 C679 1.366 . S
C679 C678 1.366 . S
C679 C680 1.414 . S
C679 C682 1.499 . S
C680 H660 0.950 . S
C680 C679 1.414 . S
C680 C681 1.374 . S
C681 H661 0.950 . S
C681 C677 1.385 . S
C681 C680 1.374 . S
C682 C679 1.499 . S
C682 C683 1.412 . S
C682 C684 1.389 . S
C683 H662 0.953 . S
C683 C682 1.412 . S
C683 C699 1.337 1_655 S
C684 C682 1.389 . S
C684 C685 1.524 . S
C684 C698 1.337 1_655 S
C685 C684 1.524 . S
C685 C686 1.397 . S
C685 C690 1.363 . S
C686 H663 0.950 . S
C686 C685 1.397 . S
C686 C687 1.334 . S
C687 H664 0.950 . S
C687 C686 1.334 . S
C687 C688 1.287 . S
C688 C687 1.287 . S
C688 C689 1.524 . S
C688 H707 0.913 . S
C689 H665 0.950 . S
C689 C688 1.524 . S
C689 C690 1.415 . S
C690 H666 0.950 . S
C690 C685 1.363 . S
C690 C689 1.415 . S
C691 H667 0.951 . S
C691 C692 1.366 . S
C691 C693 1.388 . S
C692 C691 1.366 . S
C692 C696 1.385 . S
C693 H668 0.951 . S
C693 C691 1.388 . S
C693 C694 1.366 . S
C694 C693 1.366 . S
C694 C695 1.414 . S
C694 C697 1.499 . S
C695 H669 0.950 . S
C695 C694 1.414 . S
C695 C696 1.374 . S
C696 H670 0.950 . S
C696 C692 1.385 . S
C696 C695 1.374 . S
C697 C694 1.499 . S
C697 C698 1.412 . S
C697 C699 1.389 . S
C698 H671 0.953 . S
C698 C684 1.337 1_455 S
C698 C697 1.412 . S
C699 C683 1.337 1_455 S
C699 C697 1.389 . S
C699 C700 1.524 . S
C700 C699 1.524 . S
C700 C701 1.397 . S
C700 C705 1.363 . S
C701 H672 0.950 . S
C701 C700 1.397 . S
C701 C702 1.334 . S
C702 H673 0.950 . S
C702 C701 1.334 . S
C702 C703 1.287 . S
C703 C702 1.287 . S
C703 C704 1.524 . S
C703 H706 0.999 . S
C704 H674 0.950 . S
C704 C703 1.524 . S
C704 C705 1.415 . S
C705 H675 0.950 . S
C705 C700 1.363 . S
C705 C704 1.415 . S
H706 C703 0.999 . S
H707 C688 0.913 . S
H708 C726 0.951 . S
H709 C728 0.951 . S
H710 C730 0.950 . S
H711 C731 0.950 . S
H712 C733 0.950 . S
H713 C736 0.950 . S
H714 C737 0.950 . S
H715 C739 0.950 . S
H716 C740 0.950 . S
H717 C741 0.951 . S
H718 C743 0.951 . S
H719 C745 0.950 . S
H720 C746 0.950 . S
H721 C748 0.950 . S
H722 C751 0.950 . S
H723 C752 0.950 . S
H724 C754 0.950 . S
H725 C755 0.950 . S
C726 H708 0.951 . S
C726 C727 1.366 . S
C726 C728 1.388 . S
C727 C726 1.366 . S
C727 C731 1.385 . S
C728 H709 0.951 . S
C728 C726 1.388 . S
C728 C729 1.366 . S
C729 C728 1.366 . S
C729 C730 1.414 . S
C729 C732 1.499 . S
C730 H710 0.950 . S
C730 C729 1.414 . S
C730 C731 1.374 . S
C731 H711 0.950 . S
C731 C727 1.385 . S
C731 C730 1.374 . S
C732 C729 1.499 . S
C732 C733 1.373 . S
C732 C734 1.389 . S
C733 H712 0.950 . S
C733 C732 1.373 . S
C733 C749 1.377 . S
C734 C732 1.389 . S
C734 C735 1.524 . S
C734 C748 1.377 . S
C735 C734 1.524 . S
C735 C736 1.397 . S
C735 C740 1.363 . S
C736 H713 0.950 . S
C736 C735 1.397 . S
C736 C737 1.334 . S
C737 H714 0.950 . S
C737 C736 1.334 . S
C737 C738 1.287 . S
C738 C737 1.287 . S
C738 C739 1.524 . S
C738 H757 0.913 . S
C739 H715 0.950 . S
C739 C738 1.524 . S
C739 C740 1.415 . S
C740 H716 0.950 . S
C740 C735 1.363 . S
C740 C739 1.415 . S
C741 H717 0.951 . S
C741 C742 1.366 . S
C741 C743 1.388 . S
C742 C741 1.366 . S
C742 C746 1.385 . S
C743 H718 0.951 . S
C743 C741 1.388 . S
C743 C744 1.366 . S
C744 C743 1.366 . S
C744 C745 1.414 . S
C744 C747 1.499 . S
C745 H719 0.950 . S
C745 C744 1.414 . S
C745 C746 1.374 . S
C746 H720 0.950 . S
C746 C742 1.385 . S
C746 C745 1.374 . S
C747 C744 1.499 . S
C747 C748 1.373 . S
C747 C749 1.389 . S
C748 H721 0.950 . S
C748 C734 1.377 . S
C748 C747 1.373 . S
C749 C733 1.377 . S
C749 C747 1.389 . S
C749 C750 1.524 . S
C750 C749 1.524 . S
C750 C751 1.397 . S
C750 C755 1.363 . S
C751 H722 0.950 . S
C751 C750 1.397 . S
C751 C752 1.334 . S
C752 H723 0.950 . S
C752 C751 1.334 . S
C752 C753 1.287 . S
C753 C752 1.287 . S
C753 C754 1.524 . S
C753 H756 0.999 . S
C754 H724 0.950 . S
C754 C753 1.524 . S
C754 C755 1.415 . S
C755 H725 0.950 . S
C755 C750 1.363 . S
C755 C754 1.415 . S
H756 C753 0.999 . S
H757 C738 0.913 . S
H758 C776 0.951 . S
H759 C778 0.951 . S
H760 C780 0.950 . S
H761 C781 0.950 . S
H762 C783 0.950 . S
H763 C786 0.950 . S
H764 C787 0.950 1_556 S
H765 C789 0.950 . S
H766 C790 0.950 . S
H767 C791 0.951 . S
H768 C793 0.951 . S
H769 C795 0.950 . S
H770 C796 0.950 . S
H771 C798 0.950 . S
H772 C801 0.950 . S
H773 C802 0.950 . S
H774 C804 0.950 . S
H775 C805 0.950 . S
C776 H758 0.951 . S
C776 C777 1.366 . S
C776 C778 1.388 . S
C777 C776 1.366 . S
C777 C781 1.385 . S
C778 H759 0.951 . S
C778 C776 1.388 . S
C778 C779 1.366 . S
C779 C778 1.366 . S
C779 C780 1.414 . S
C779 C782 1.499 . S
C780 H760 0.950 . S
C780 C779 1.414 . S
C780 C781 1.374 . S
C781 H761 0.950 . S
C781 C777 1.385 . S
C781 C780 1.374 . S
C782 C779 1.499 . S
C782 C783 1.373 1_565 S
C782 C784 1.389 . S
C783 H762 0.950 . S
C783 C782 1.373 1_545 S
C783 C799 1.377 . S
C784 C782 1.389 . S
C784 C785 1.524 . S
C784 C798 1.377 . S
C785 C784 1.524 . S
C785 C786 1.397 . S
C785 C790 1.363 . S
C786 H763 0.950 . S
C786 C785 1.397 . S
C786 C787 1.334 . S
C787 H764 0.950 1_554 S
C787 C786 1.334 . S
C787 C788 1.287 . S
C788 C787 1.287 . S
C788 C789 1.524 . S
C788 H807 0.913 . S
C789 H765 0.950 . S
C789 C788 1.524 . S
C789 C790 1.415 . S
C790 H766 0.950 . S
C790 C785 1.363 . S
C790 C789 1.415 . S
C791 H767 0.951 . S
C791 C792 1.366 . S
C791 C793 1.388 . S
C792 C791 1.366 . S
C792 C796 1.385 . S
C793 H768 0.951 . S
C793 C791 1.388 . S
C793 C794 1.366 . S
C794 C793 1.366 . S
C794 C795 1.414 . S
C794 C797 1.499 . S
C795 H769 0.950 . S
C795 C794 1.414 . S
C795 C796 1.374 . S
C796 H770 0.950 . S
C796 C792 1.385 . S
C796 C795 1.374 . S
C797 C794 1.499 . S
C797 C798 1.373 1_545 S
C797 C799 1.389 . S
C798 H771 0.950 . S
C798 C784 1.377 . S
C798 C797 1.373 1_565 S
C799 C783 1.377 . S
C799 C797 1.389 . S
C799 C800 1.524 . S
C800 C799 1.524 . S
C800 C801 1.397 . S
C800 C805 1.363 . S
C801 H772 0.950 . S
C801 C800 1.397 . S
C801 C802 1.334 . S
C802 H773 0.950 . S
C802 C801 1.334 . S
C802 C803 1.287 . S
C803 C802 1.287 . S
C803 C804 1.524 . S
C803 H806 0.999 . S
C804 H774 0.950 . S
C804 C803 1.524 . S
C804 C805 1.415 . S
C805 H775 0.950 . S
C805 C800 1.363 . S
C805 C804 1.415 . S
H806 C803 0.999 . S
H807 C788 0.913 . S
H808 C826 0.951 . S
H809 C828 0.951 . S
H810 C830 0.950 . S
H811 C831 0.950 . S
H812 C833 0.950 . S
H813 C836 0.950 . S
H814 C837 0.950 . S
H815 C839 0.950 . S
H816 C840 0.950 . S
H817 C841 0.951 . S
H818 C843 0.951 . S
H819 C845 0.950 . S
H820 C846 0.950 . S
H821 C848 0.950 1_556 S
H822 C851 0.950 . S
H823 C852 0.950 . S
H824 C854 0.950 . S
H825 C855 0.950 . S
C826 H808 0.951 . S
C826 C827 1.366 . S
C826 C828 1.388 . S
C827 C826 1.366 . S
C827 C831 1.385 . S
C828 H809 0.951 . S
C828 C826 1.388 . S
C828 C829 1.366 . S
C829 C828 1.366 . S
C829 C830 1.414 . S
C829 C832 1.499 . S
C830 H810 0.950 . S
C830 C829 1.414 . S
C830 C831 1.374 . S
C831 H811 0.950 . S
C831 C827 1.385 . S
C831 C830 1.374 . S
C832 C829 1.499 . S
C832 C833 1.373 . S
C832 C834 1.396 1_455 S
C833 H812 0.950 . S
C833 C832 1.373 . S
C833 C849 1.377 . S
C834 C832 1.396 1_655 S
C834 C835 1.516 1_554 S
C834 C848 1.378 . S
C835 C834 1.516 1_556 S
C835 C836 1.372 1_655 S
C835 C840 1.389 . S
C836 H813 0.950 . S
C836 C835 1.372 1_455 S
C836 C837 1.334 . S
C837 H814 0.950 . S
C837 C836 1.334 . S
C837 C838 1.287 . S
C838 C837 1.287 . S
C838 C839 1.524 1_455 S
C838 H857 0.913 . S
C839 H815 0.950 . S
C839 C838 1.524 1_655 S
C839 C840 1.415 . S
C840 H816 0.950 . S
C840 C835 1.389 . S
C840 C839 1.415 . S
C841 H817 0.951 . S
C841 C842 1.366 . S
C841 C843 1.388 . S
C842 C841 1.366 . S
C842 C846 1.385 . S
C843 H818 0.951 . S
C843 C841 1.388 . S
C843 C844 1.366 . S
C844 C843 1.366 . S
C844 C845 1.414 . S
C844 C847 1.499 . S
C845 H819 0.950 . S
C845 C844 1.414 . S
C845 C846 1.374 . S
C846 H820 0.950 . S
C846 C842 1.385 . S
C846 C845 1.374 . S
C847 C844 1.499 . S
C847 C848 1.373 . S
C847 C849 1.389 1_655 S
C848 H821 0.950 1_554 S
C848 C834 1.378 . S
C848 C847 1.373 . S
C849 C833 1.377 . S
C849 C847 1.389 1_455 S
C849 C850 1.524 . S
C850 C849 1.524 . S
C850 C851 1.372 1_455 S
C850 C855 1.389 . S
C851 H822 0.950 . S
C851 C850 1.372 1_655 S
C851 C852 1.334 . S
C852 H823 0.950 . S
C852 C851 1.334 . S
C852 C853 1.287 . S
C853 C852 1.287 . S
C853 C854 1.524 1_655 S
C853 H856 0.999 . S
C854 H824 0.950 . S
C854 C853 1.524 1_455 S
C854 C855 1.415 . S
C855 H825 0.950 . S
C855 C850 1.389 . S
C855 C854 1.415 . S
H856 C853 0.999 . S
H857 C838 0.913 . S
H858 C876 0.951 . S
H859 C878 0.951 . S
H860 C880 0.950 . S
H861 C881 0.950 . S
H862 C883 0.950 . S
H863 C886 0.950 . S
H864 C887 0.950 . S
H865 C889 0.950 . S
H866 C890 0.950 . S
H867 C891 0.951 . S
H868 C893 0.951 . S
H869 C895 0.950 . S
H870 C896 0.950 . S
H871 C898 0.950 . S
H872 C901 0.950 . S
H873 C902 0.950 . S
H874 C904 0.950 . S
H875 C905 0.950 . S
C876 H858 0.951 . S
C876 C877 1.366 . S
C876 C878 1.388 . S
C877 C876 1.366 . S
C877 C881 1.385 . S
C878 H859 0.951 . S
C878 C876 1.388 . S
C878 C879 1.366 . S
C879 C878 1.366 . S
C879 C880 1.414 . S
C879 C882 1.499 . S
C880 H860 0.950 . S
C880 C879 1.414 . S
C880 C881 1.374 . S
C881 H861 0.950 . S
C881 C877 1.385 . S
C881 C880 1.374 . S
C882 C879 1.499 . S
C882 C883 1.373 . S
C882 C884 1.389 . S
C883 H862 0.950 . S
C883 C882 1.373 . S
C883 C899 1.377 . S
C884 C882 1.389 . S
C884 C885 1.524 . S
C884 C898 1.377 . S
C885 C884 1.524 . S
C885 C886 1.397 . S
C885 C890 1.363 . S
C886 H863 0.950 . S
C886 C885 1.397 . S
C886 C887 1.334 . S
C887 H864 0.950 . S
C887 C886 1.334 . S
C887 C888 1.287 . S
C888 C887 1.287 . S
C888 C889 1.524 . S
C888 H907 0.913 . S
C889 H865 0.950 . S
C889 C888 1.524 . S
C889 C890 1.415 . S
C890 H866 0.950 . S
C890 C885 1.363 . S
C890 C889 1.415 . S
C891 H867 0.951 . S
C891 C892 1.366 . S
C891 C893 1.388 . S
C892 C891 1.366 . S
C892 C896 1.385 . S
C893 H868 0.951 . S
C893 C891 1.388 . S
C893 C894 1.366 . S
C894 C893 1.366 . S
C894 C895 1.414 . S
C894 C897 1.499 . S
C895 H869 0.950 . S
C895 C894 1.414 . S
C895 C896 1.374 . S
C896 H870 0.950 . S
C896 C892 1.385 . S
C896 C895 1.374 . S
C897 C894 1.499 . S
C897 C898 1.373 . S
C897 C899 1.389 . S
C898 H871 0.950 . S
C898 C884 1.377 . S
C898 C897 1.373 . S
C899 C883 1.377 . S
C899 C897 1.389 . S
C899 C900 1.524 . S
C900 C899 1.524 . S
C900 C901 1.397 . S
C900 C905 1.363 . S
C901 H872 0.950 . S
C901 C900 1.397 . S
C901 C902 1.334 . S
C902 H873 0.950 . S
C902 C901 1.334 . S
C902 C903 1.287 . S
C903 C902 1.287 . S
C903 C904 1.524 . S
C903 H906 0.999 . S
C904 H874 0.950 . S
C904 C903 1.524 . S
C904 C905 1.415 . S
C905 H875 0.950 . S
C905 C900 1.363 . S
C905 C904 1.415 . S
H906 C903 0.999 . S
H907 C888 0.913 . S
H908 C926 0.951 . S
H909 C928 0.951 . S
H910 C930 0.950 . S
H911 C931 0.950 . S
H912 C933 0.950 . S
H913 C936 0.950 . S
H914 C937 0.950 . S
H915 C939 0.950 . S
H916 C940 0.950 . S
H917 C941 0.951 . S
H918 C943 0.951 . S
H919 C945 0.950 . S
H920 C946 0.950 . S
H921 C948 0.950 . S
H922 C951 0.950 . S
H923 C952 0.950 . S
H924 C954 0.950 . S
H925 C955 0.950 . S
C926 H908 0.951 . S
C926 C927 1.366 . S
C926 C928 1.388 . S
C927 C926 1.366 . S
C927 C931 1.385 . S
C928 H909 0.951 . S
C928 C926 1.388 . S
C928 C929 1.366 . S
C929 C928 1.366 . S
C929 C930 1.414 . S
C929 C932 1.499 . S
C930 H910 0.950 . S
C930 C929 1.414 . S
C930 C931 1.374 . S
C931 H911 0.950 . S
C931 C927 1.385 . S
C931 C930 1.374 . S
C932 C929 1.499 . S
C932 C933 1.373 1_545 S
C932 C934 1.389 . S
C933 H912 0.950 . S
C933 C932 1.373 1_565 S
C933 C949 1.377 . S
C934 C932 1.389 . S
C934 C935 1.524 . S
C934 C948 1.377 . S
C935 C934 1.524 . S
C935 C936 1.397 . S
C935 C940 1.363 . S
C936 H913 0.950 . S
C936 C935 1.397 . S
C936 C937 1.334 . S
C937 H914 0.950 . S
C937 C936 1.334 . S
C937 C938 1.287 . S
C938 C937 1.287 . S
C938 C939 1.524 . S
C938 H957 0.913 . S
C939 H915 0.950 . S
C939 C938 1.524 . S
C939 C940 1.415 . S
C940 H916 0.950 . S
C940 C935 1.363 . S
C940 C939 1.415 . S
C941 H917 0.951 . S
C941 C942 1.366 . S
C941 C943 1.388 . S
C942 C941 1.366 . S
C942 C946 1.385 . S
C943 H918 0.951 . S
C943 C941 1.388 . S
C943 C944 1.366 . S
C944 C943 1.366 . S
C944 C945 1.414 . S
C944 C947 1.499 . S
C945 H919 0.950 . S
C945 C944 1.414 . S
C945 C946 1.374 . S
C946 H920 0.950 . S
C946 C942 1.385 . S
C946 C945 1.374 . S
C947 C944 1.499 . S
C947 C948 1.373 1_565 S
C947 C949 1.389 . S
C948 H921 0.950 . S
C948 C934 1.377 . S
C948 C947 1.373 1_545 S
C949 C933 1.377 . S
C949 C947 1.389 . S
C949 C950 1.524 . S
C950 C949 1.524 . S
C950 C951 1.397 . S
C950 C955 1.363 . S
C951 H922 0.950 . S
C951 C950 1.397 . S
C951 C952 1.334 . S
C952 H923 0.950 . S
C952 C951 1.334 . S
C952 C953 1.287 . S
C953 C952 1.287 . S
C953 C954 1.524 . S
C953 H956 0.999 . S
C954 H924 0.950 . S
C954 C953 1.524 . S
C954 C955 1.415 . S
C955 H925 0.950 . S
C955 C950 1.363 . S
C955 C954 1.415 . S
H956 C953 0.999 . S
H957 C938 0.913 . S
H958 C976 0.951 . S
H959 C978 0.951 . S
H960 C980 0.950 . S
H961 C981 0.950 . S
H962 C983 0.950 . S
H963 C986 0.950 . S
H964 C987 0.950 . S
H965 C989 0.950 . S
H966 C990 0.950 . S
H967 C991 0.951 . S
H968 C993 0.951 . S
H969 C995 0.950 . S
H970 C996 0.950 . S
H971 C998 0.950 . S
H972 C1001 0.950 . S
H973 C1002 0.950 . S
H974 C1004 0.950 . S
H975 C1005 0.950 . S
C976 H958 0.951 . S
C976 C977 1.366 . S
C976 C978 1.388 . S
C977 C976 1.366 . S
C977 C981 1.385 . S
C978 H959 0.951 . S
C978 C976 1.388 . S
C978 C979 1.366 . S
C979 C978 1.366 . S
C979 C980 1.414 . S
C979 C982 1.499 . S
C980 H960 0.950 . S
C980 C979 1.414 . S
C980 C981 1.374 . S
C981 H961 0.950 . S
C981 C977 1.385 . S
C981 C980 1.374 . S
C982 C979 1.499 . S
C982 C983 1.373 1_455 S
C982 C984 1.389 1_545 S
C983 H962 0.950 . S
C983 C982 1.373 1_655 S
C983 C999 1.377 . S
C984 C982 1.389 1_565 S
C984 C985 1.524 . S
C984 C998 1.377 . S
C985 C984 1.524 . S
C985 C986 1.397 . S
C985 C990 1.363 . S
C986 H963 0.950 . S
C986 C985 1.397 . S
C986 C987 1.334 . S
C987 H964 0.950 . S
C987 C986 1.334 . S
C987 C988 1.287 . S
C988 C987 1.287 . S
C988 C989 1.524 . S
C988 H1007 0.913 . S
C989 H965 0.950 . S
C989 C988 1.524 . S
C989 C990 1.415 . S
C990 H966 0.950 . S
C990 C985 1.363 . S
C990 C989 1.415 . S
C991 H967 0.951 . S
C991 C992 1.366 . S
C991 C993 1.388 . S
C992 C991 1.366 . S
C992 C996 1.385 . S
C993 H968 0.951 . S
C993 C991 1.388 . S
C993 C994 1.366 . S
C994 C993 1.366 . S
C994 C995 1.414 . S
C994 C997 1.499 . S
C995 H969 0.950 . S
C995 C994 1.414 . S
C995 C996 1.374 . S
C996 H970 0.950 . S
C996 C992 1.385 . S
C996 C995 1.374 . S
C997 C994 1.499 . S
C997 C998 1.373 1_655 S
C997 C999 1.389 1_565 S
C998 H971 0.950 . S
C998 C984 1.377 . S
C998 C997 1.373 1_455 S
C999 C983 1.377 . S
C999 C997 1.389 1_545 S
C999 C1000 1.524 . S
C1000 C999 1.524 . S
C1000 C1001 1.397 . S
C1000 C1005 1.363 . S
C1001 H972 0.950 . S
C1001 C1000 1.397 . S
C1001 C1002 1.334 . S
C1002 H973 0.950 . S
C1002 C1001 1.334 . S
C1002 C1003 1.287 . S
C1003 C1002 1.287 . S
C1003 C1004 1.524 . S
C1003 H1006 0.999 . S
C1004 H974 0.950 . S
C1004 C1003 1.524 . S
C1004 C1005 1.415 . S
C1005 H975 0.950 . S
C1005 C1000 1.363 . S
C1005 C1004 1.415 . S
H1006 C1003 0.999 . S
H1007 C988 0.913 . S
H1008 C1026 0.951 . S
H1009 C1028 0.951 . S
H1010 C1030 0.950 . S
H1011 C1031 0.950 . S
H1012 C1033 0.950 . S
H1013 C1036 0.950 . S
H1014 C1037 0.950 . S
H1015 C1039 0.950 . S
H1016 C1040 0.950 . S
H1017 C1041 0.951 . S
H1018 C1043 0.951 . S
H1019 C1045 0.950 . S
H1020 C1046 0.950 . S
H1021 C1048 0.950 . S
H1022 C1051 0.950 . S
H1023 C1052 0.950 . S
H1024 C1054 0.950 . S
H1025 C1055 0.950 . S
C1026 H1008 0.951 . S
C1026 C1027 1.366 . S
C1026 C1028 1.388 . S
C1027 C1026 1.366 . S
C1027 C1031 1.385 . S
C1028 H1009 0.951 . S
C1028 C1026 1.388 . S
C1028 C1029 1.366 . S
C1029 C1028 1.366 . S
C1029 C1030 1.414 . S
C1029 C1032 1.499 . S
C1030 H1010 0.950 . S
C1030 C1029 1.414 . S
C1030 C1031 1.374 . S
C1031 H1011 0.950 . S
C1031 C1027 1.385 . S
C1031 C1030 1.374 . S
C1032 C1029 1.499 . S
C1032 C1033 1.373 . S
C1032 C1034 1.389 . S
C1033 H1012 0.950 . S
C1033 C1032 1.373 . S
C1033 C1049 1.377 . S
C1034 C1032 1.389 . S
C1034 C1035 1.524 . S
C1034 C1048 1.377 . S
C1035 C1034 1.524 . S
C1035 C1036 1.397 . S
C1035 C1040 1.363 . S
C1036 H1013 0.950 . S
C1036 C1035 1.397 . S
C1036 C1037 1.334 . S
C1037 H1014 0.950 . S
C1037 C1036 1.334 . S
C1037 C1038 1.287 . S
C1038 C1037 1.287 . S
C1038 C1039 1.524 . S
C1038 H1057 0.913 . S
C1039 H1015 0.950 . S
C1039 C1038 1.524 . S
C1039 C1040 1.415 . S
C1040 H1016 0.950 . S
C1040 C1035 1.363 . S
C1040 C1039 1.415 . S
C1041 H1017 0.951 . S
C1041 C1042 1.366 . S
C1041 C1043 1.388 . S
C1042 C1041 1.366 . S
C1042 C1046 1.385 . S
C1043 H1018 0.951 . S
C1043 C1041 1.388 . S
C1043 C1044 1.366 . S
C1044 C1043 1.366 . S
C1044 C1045 1.414 . S
C1044 C1047 1.499 . S
C1045 H1019 0.950 . S
C1045 C1044 1.414 . S
C1045 C1046 1.374 . S
C1046 H1020 0.950 . S
C1046 C1042 1.385 . S
C1046 C1045 1.374 . S
C1047 C1044 1.499 . S
C1047 C1048 1.373 . S
C1047 C1049 1.389 . S
C1048 H1021 0.950 . S
C1048 C1034 1.377 . S
C1048 C1047 1.373 . S
C1049 C1033 1.377 . S
C1049 C1047 1.389 . S
C1049 C1050 1.524 . S
C1050 C1049 1.524 . S
C1050 C1051 1.397 . S
C1050 C1055 1.363 . S
C1051 H1022 0.950 . S
C1051 C1050 1.397 . S
C1051 C1052 1.334 . S
C1052 H1023 0.950 . S
C1052 C1051 1.334 . S
C1052 C1053 1.287 . S
C1053 C1052 1.287 . S
C1053 C1054 1.524 . S
C1053 H1056 0.999 . S
C1054 H1024 0.950 . S
C1054 C1053 1.524 . S
C1054 C1055 1.415 . S
C1055 H1025 0.950 . S
C1055 C1050 1.363 . S
C1055 C1054 1.415 . S
H1056 C1053 0.999 . S
H1057 C1038 0.913 . S
H1058 C1076 0.951 . S
H1059 C1078 0.951 . S
H1060 C1080 0.950 . S
H1061 C1081 0.950 . S
H1062 C1083 0.950 . S
H1063 C1086 0.950 . S
H1064 C1087 0.950 . S
H1065 C1089 0.950 . S
H1066 C1090 0.950 . S
H1067 C1091 0.951 . S
H1068 C1093 0.951 . S
H1069 C1095 0.950 . S
H1070 C1096 0.950 . S
H1071 C1098 0.950 . S
H1072 C1101 0.950 . S
H1073 C1102 0.950 . S
H1074 C1104 0.950 . S
H1075 C1105 0.950 . S
C1076 H1058 0.951 . S
C1076 C1077 1.366 . S
C1076 C1078 1.388 . S
C1077 C1076 1.366 . S
C1077 C1081 1.385 . S
C1078 H1059 0.951 . S
C1078 C1076 1.388 . S
C1078 C1079 1.366 . S
C1079 C1078 1.366 . S
C1079 C1080 1.414 . S
C1079 C1082 1.499 . S
C1080 H1060 0.950 . S
C1080 C1079 1.414 . S
C1080 C1081 1.374 . S
C1081 H1061 0.950 . S
C1081 C1077 1.385 . S
C1081 C1080 1.374 . S
C1082 C1079 1.499 . S
C1082 C1083 1.373 . S
C1082 C1084 1.389 . S
C1083 H1062 0.950 . S
C1083 C1082 1.373 . S
C1083 C1099 1.377 . S
C1084 C1082 1.389 . S
C1084 C1085 1.524 . S
C1084 C1098 1.377 . S
C1085 C1084 1.524 . S
C1085 C1086 1.397 . S
C1085 C1090 1.363 . S
C1086 H1063 0.950 . S
C1086 C1085 1.397 . S
C1086 C1087 1.334 . S
C1087 H1064 0.950 . S
C1087 C1086 1.334 . S
C1087 C1088 1.287 . S
C1088 C1087 1.287 . S
C1088 C1089 1.524 . S
C1088 H1107 0.913 . S
C1089 H1065 0.950 . S
C1089 C1088 1.524 . S
C1089 C1090 1.415 . S
C1090 H1066 0.950 . S
C1090 C1085 1.363 . S
C1090 C1089 1.415 . S
C1091 H1067 0.951 . S
C1091 C1092 1.366 . S
C1091 C1093 1.388 . S
C1092 C1091 1.366 . S
C1092 C1096 1.385 . S
C1093 H1068 0.951 . S
C1093 C1091 1.388 . S
C1093 C1094 1.366 . S
C1094 C1093 1.366 . S
C1094 C1095 1.414 . S
C1094 C1097 1.499 . S
C1095 H1069 0.950 . S
C1095 C1094 1.414 . S
C1095 C1096 1.374 . S
C1096 H1070 0.950 . S
C1096 C1092 1.385 . S
C1096 C1095 1.374 . S
C1097 C1094 1.499 . S
C1097 C1098 1.373 . S
C1097 C1099 1.389 . S
C1098 H1071 0.950 . S
C1098 C1084 1.377 . S
C1098 C1097 1.373 . S
C1099 C1083 1.377 . S
C1099 C1097 1.389 . S
C1099 C1100 1.524 . S
C1100 C1099 1.524 . S
C1100 C1101 1.397 . S
C1100 C1105 1.363 . S
C1101 H1072 0.950 . S
C1101 C1100 1.397 . S
C1101 C1102 1.334 . S
C1102 H1073 0.950 . S
C1102 C1101 1.334 . S
C1102 C1103 1.287 . S
C1103 C1102 1.287 . S
C1103 C1104 1.524 . S
C1103 H1106 0.999 . S
C1104 H1074 0.950 . S
C1104 C1103 1.524 . S
C1104 C1105 1.415 . S
C1105 H1075 0.950 . S
C1105 C1100 1.363 . S
C1105 C1104 1.415 . S
H1106 C1103 0.999 . S
H1107 C1088 0.913 . S
H1108 C1126 0.951 . S
H1109 C1128 0.951 . S
H1110 C1130 0.950 . S
H1111 C1131 0.950 . S
H1112 C1133 0.950 . S
H1113 C1136 0.950 . S
H1114 C1137 0.950 . S
H1115 C1139 0.950 . S
H1116 C1140 0.950 . S
H1117 C1141 0.951 . S
H1118 C1143 0.951 . S
H1119 C1145 0.950 . S
H1120 C1146 0.950 . S
H1121 C1148 0.950 . S
H1122 C1151 0.950 . S
H1123 C1152 0.950 . S
H1124 C1154 0.951 . S
H1125 C1155 0.950 . S
C1126 H1108 0.951 . S
C1126 C1127 1.366 . S
C1126 C1128 1.388 . S
C1127 C1126 1.366 . S
C1127 C1131 1.385 . S
C1128 H1109 0.951 . S
C1128 C1126 1.388 . S
C1128 C1129 1.366 . S
C1129 C1128 1.366 . S
C1129 C1130 1.414 . S
C1129 C1132 1.499 . S
C1130 H1110 0.950 . S
C1130 C1129 1.414 . S
C1130 C1131 1.374 . S
C1131 H1111 0.950 . S
C1131 C1127 1.385 . S
C1131 C1130 1.374 . S
C1132 C1129 1.499 . S
C1132 C1133 1.373 . S
C1132 C1134 1.389 . S
C1133 H1112 0.950 . S
C1133 C1132 1.373 . S
C1133 C1149 1.377 . S
C1134 C1132 1.389 . S
C1134 C1135 1.524 . S
C1134 C1148 1.377 . S
C1135 C1134 1.524 . S
C1135 C1136 1.397 . S
C1135 C1140 1.363 . S
C1136 H1113 0.950 . S
C1136 C1135 1.397 . S
C1136 C1137 1.334 . S
C1137 H1114 0.950 . S
C1137 C1136 1.334 . S
C1137 C1138 1.287 . S
C1138 C1137 1.287 . S
C1138 C1139 1.524 . S
C1138 H1157 0.913 . S
C1139 H1115 0.950 . S
C1139 C1138 1.524 . S
C1139 C1140 1.415 . S
C1140 H1116 0.950 . S
C1140 C1135 1.363 . S
C1140 C1139 1.415 . S
C1141 H1117 0.951 . S
C1141 C1142 1.366 . S
C1141 C1143 1.388 . S
C1142 C1141 1.366 . S
C1142 C1146 1.385 . S
C1143 H1118 0.951 . S
C1143 C1141 1.388 . S
C1143 C1144 1.366 . S
C1144 C1143 1.366 . S
C1144 C1145 1.414 . S
C1144 C1147 1.499 1_556 S
C1145 H1119 0.950 . S
C1145 C1144 1.414 . S
C1145 C1146 1.374 . S
C1146 H1120 0.950 . S
C1146 C1142 1.385 . S
C1146 C1145 1.374 . S
C1147 C1144 1.499 1_554 S
C1147 C1148 1.373 . S
C1147 C1149 1.389 . S
C1148 H1121 0.950 . S
C1148 C1134 1.377 . S
C1148 C1147 1.373 . S
C1149 C1133 1.377 . S
C1149 C1147 1.389 . S
C1149 C1150 1.524 . S
C1150 C1149 1.524 . S
C1150 C1151 1.397 1_554 S
C1150 C1155 1.363 . S
C1151 H1122 0.950 . S
C1151 C1150 1.397 1_556 S
C1151 C1152 1.334 . S
C1152 H1123 0.950 . S
C1152 C1151 1.334 . S
C1152 C1153 1.287 . S
C1153 C1152 1.287 . S
C1153 C1154 1.512 1_556 S
C1153 H1156 0.999 . S
C1154 H1124 0.951 . S
C1154 C1153 1.512 1_554 S
C1154 C1155 1.426 . S
C1155 H1125 0.950 . S
C1155 C1150 1.363 . S
C1155 C1154 1.426 . S
H1156 C1153 0.999 . S
H1157 C1138 0.913 . S
H1158 C1176 0.951 . S
H1159 C1178 0.951 . S
H1160 C1180 0.950 . S
H1161 C1181 0.950 . S
H1162 C1183 0.950 . S
H1163 C1186 0.950 . S
H1164 C1187 0.950 . S
H1165 C1189 0.950 . S
H1166 C1190 0.950 . S
H1167 C1191 0.951 . S
H1168 C1193 0.951 . S
H1169 C1195 0.950 . S
H1170 C1196 0.950 . S
H1171 C1198 0.950 . S
H1172 C1201 0.950 . S
H1173 C1202 0.950 . S
H1174 C1204 0.950 . S
H1175 C1205 0.950 . S
C1176 H1158 0.951 . S
C1176 C1177 1.366 . S
C1176 C1178 1.388 . S
C1177 C1176 1.366 . S
C1177 C1181 1.385 . S
C1178 H1159 0.951 . S
C1178 C1176 1.388 . S
C1178 C1179 1.366 . S
C1179 C1178 1.366 . S
C1179 C1180 1.414 . S
C1179 C1182 1.499 . S
C1180 H1160 0.950 . S
C1180 C1179 1.414 . S
C1180 C1181 1.374 . S
C1181 H1161 0.950 . S
C1181 C1177 1.385 . S
C1181 C1180 1.374 . S
C1182 C1179 1.499 . S
C1182 C1183 1.373 . S
C1182 C1184 1.389 . S
C1183 H1162 0.950 . S
C1183 C1182 1.373 . S
C1183 C1199 1.377 . S
C1184 C1182 1.389 . S
C1184 C1185 1.524 . S
C1184 C1198 1.377 . S
C1185 C1184 1.524 . S
C1185 C1186 1.397 . S
C1185 C1190 1.363 . S
C1186 H1163 0.950 . S
C1186 C1185 1.397 . S
C1186 C1187 1.334 . S
C1187 H1164 0.950 . S
C1187 C1186 1.334 . S
C1187 C1188 1.287 . S
C1188 C1187 1.287 . S
C1188 C1189 1.524 . S
C1188 H1207 0.913 . S
C1189 H1165 0.950 . S
C1189 C1188 1.524 . S
C1189 C1190 1.415 . S
C1190 H1166 0.950 . S
C1190 C1185 1.363 . S
C1190 C1189 1.415 . S
C1191 H1167 0.951 . S
C1191 C1192 1.366 . S
C1191 C1193 1.388 . S
C1192 C1191 1.366 . S
C1192 C1196 1.385 . S
C1193 H1168 0.951 . S
C1193 C1191 1.388 . S
C1193 C1194 1.366 . S
C1194 C1193 1.366 . S
C1194 C1195 1.414 . S
C1194 C1197 1.499 . S
C1195 H1169 0.950 . S
C1195 C1194 1.414 . S
C1195 C1196 1.374 . S
C1196 H1170 0.950 . S
C1196 C1192 1.385 . S
C1196 C1195 1.374 . S
C1197 C1194 1.499 . S
C1197 C1198 1.373 . S
C1197 C1199 1.389 . S
C1198 H1171 0.950 . S
C1198 C1184 1.377 . S
C1198 C1197 1.373 . S
C1199 C1183 1.377 . S
C1199 C1197 1.389 . S
C1199 C1200 1.524 . S
C1200 C1199 1.524 . S
C1200 C1201 1.397 . S
C1200 C1205 1.363 . S
C1201 H1172 0.950 . S
C1201 C1200 1.397 . S
C1201 C1202 1.334 . S
C1202 H1173 0.950 . S
C1202 C1201 1.334 . S
C1202 C1203 1.287 . S
C1203 C1202 1.287 . S
C1203 C1204 1.524 . S
C1203 H1206 0.999 . S
C1204 H1174 0.950 . S
C1204 C1203 1.524 . S
C1204 C1205 1.415 . S
C1205 H1175 0.950 . S
C1205 C1200 1.363 . S
C1205 C1204 1.415 . S
H1206 C1203 0.999 . S
H1207 C1188 0.913 . S
H1208 C1226 0.951 . S
H1209 C1228 0.951 . S
H1210 C1230 0.950 . S
H1211 C1231 0.950 . S
H1212 C1233 0.950 . S
H1213 C1236 0.950 . S
H1214 C1237 0.950 . S
H1215 C1239 0.950 . S
H1216 C1240 0.950 . S
H1217 C1241 0.951 . S
H1218 C1243 0.951 . S
H1219 C1245 0.950 . S
H1220 C1246 0.950 . S
H1221 C1248 0.950 . S
H1222 C1251 0.950 . S
H1223 C1252 0.950 . S
H1224 C1254 0.950 . S
H1225 C1255 0.950 . S
C1226 H1208 0.951 . S
C1226 C1227 1.366 . S
C1226 C1228 1.388 . S
C1227 C1226 1.366 . S
C1227 C1231 1.385 . S
C1228 H1209 0.951 . S
C1228 C1226 1.388 . S
C1228 C1229 1.366 . S
C1229 C1228 1.366 . S
C1229 C1230 1.414 . S
C1229 C1232 1.499 . S
C1230 H1210 0.950 . S
C1230 C1229 1.414 . S
C1230 C1231 1.374 . S
C1231 H1211 0.950 . S
C1231 C1227 1.385 . S
C1231 C1230 1.374 . S
C1232 C1229 1.499 . S
C1232 C1233 1.373 . S
C1232 C1234 1.389 . S
C1233 H1212 0.950 . S
C1233 C1232 1.373 . S
C1233 C1249 1.377 . S
C1234 C1232 1.389 . S
C1234 C1235 1.524 . S
C1234 C1248 1.377 . S
C1235 C1234 1.524 . S
C1235 C1236 1.397 . S
C1235 C1240 1.363 . S
C1236 H1213 0.950 . S
C1236 C1235 1.397 . S
C1236 C1237 1.334 . S
C1237 H1214 0.950 . S
C1237 C1236 1.334 . S
C1237 C1238 1.287 . S
C1238 C1237 1.287 . S
C1238 C1239 1.524 . S
C1238 H1257 0.913 . S
C1239 H1215 0.950 . S
C1239 C1238 1.524 . S
C1239 C1240 1.415 . S
C1240 H1216 0.950 . S
C1240 C1235 1.363 . S
C1240 C1239 1.415 . S
C1241 H1217 0.951 . S
C1241 C1242 1.366 . S
C1241 C1243 1.388 . S
C1242 C1241 1.366 . S
C1242 C1246 1.385 . S
C1243 H1218 0.951 . S
C1243 C1241 1.388 . S
C1243 C1244 1.366 . S
C1244 C1243 1.366 . S
C1244 C1245 1.414 . S
C1244 C1247 1.499 . S
C1245 H1219 0.950 . S
C1245 C1244 1.414 . S
C1245 C1246 1.374 . S
C1246 H1220 0.950 . S
C1246 C1242 1.385 . S
C1246 C1245 1.374 . S
C1247 C1244 1.499 . S
C1247 C1248 1.373 . S
C1247 C1249 1.389 . S
C1248 H1221 0.950 . S
C1248 C1234 1.377 . S
C1248 C1247 1.373 . S
C1249 C1233 1.377 . S
C1249 C1247 1.389 . S
C1249 C1250 1.524 . S
C1250 C1249 1.524 . S
C1250 C1251 1.397 . S
C1250 C1255 1.363 . S
C1251 H1222 0.950 . S
C1251 C1250 1.397 . S
C1251 C1252 1.334 . S
C1252 H1223 0.950 . S
C1252 C1251 1.334 . S
C1252 C1253 1.287 . S
C1253 C1252 1.287 . S
C1253 C1254 1.524 . S
C1253 H1256 0.999 . S
C1254 H1224 0.950 . S
C1254 C1253 1.524 . S
C1254 C1255 1.415 . S
C1255 H1225 0.950 . S
C1255 C1250 1.363 . S
C1255 C1254 1.415 . S
H1256 C1253 0.999 . S
H1257 C1238 0.913 . S
H1258 C1276 0.951 . S
H1259 C1278 0.951 . S
H1260 C1280 0.950 . S
H1261 C1281 0.950 . S
H1262 C1283 0.950 . S
H1263 C1286 0.950 . S
H1264 C1287 0.950 . S
H1265 C1289 0.950 . S
H1266 C1290 0.950 . S
H1267 C1291 0.951 . S
H1268 C1293 0.951 . S
H1269 C1295 0.950 . S
H1270 C1296 0.950 . S
H1271 C1298 0.950 . S
H1272 C1301 0.950 . S
H1273 C1302 0.950 . S
H1274 C1304 0.950 . S
H1275 C1305 0.950 . S
C1276 H1258 0.951 . S
C1276 C1277 1.366 . S
C1276 C1278 1.388 . S
C1277 C1276 1.366 . S
C1277 C1281 1.385 . S
C1278 H1259 0.951 . S
C1278 C1276 1.388 . S
C1278 C1279 1.366 . S
C1279 C1278 1.366 . S
C1279 C1280 1.414 . S
C1279 C1282 1.499 . S
C1280 H1260 0.950 . S
C1280 C1279 1.414 . S
C1280 C1281 1.374 . S
C1281 H1261 0.950 . S
C1281 C1277 1.385 . S
C1281 C1280 1.374 . S
C1282 C1279 1.499 . S
C1282 C1283 1.373 . S
C1282 C1284 1.389 . S
C1283 H1262 0.950 . S
C1283 C1282 1.373 . S
C1283 C1299 1.377 . S
C1284 C1282 1.389 . S
C1284 C1285 1.524 . S
C1284 C1298 1.377 . S
C1285 C1284 1.524 . S
C1285 C1286 1.397 . S
C1285 C1290 1.363 . S
C1286 H1263 0.950 . S
C1286 C1285 1.397 . S
C1286 C1287 1.334 . S
C1287 H1264 0.950 . S
C1287 C1286 1.334 . S
C1287 C1288 1.287 . S
C1288 C1287 1.287 . S
C1288 C1289 1.524 . S
C1288 H1307 0.913 . S
C1289 H1265 0.950 . S
C1289 C1288 1.524 . S
C1289 C1290 1.415 . S
C1290 H1266 0.950 . S
C1290 C1285 1.363 . S
C1290 C1289 1.415 . S
C1291 H1267 0.951 . S
C1291 C1292 1.366 . S
C1291 C1293 1.388 . S
C1292 C1291 1.366 . S
C1292 C1296 1.385 . S
C1293 H1268 0.951 . S
C1293 C1291 1.388 . S
C1293 C1294 1.366 . S
C1294 C1293 1.366 . S
C1294 C1295 1.414 . S
C1294 C1297 1.499 1_556 S
C1295 H1269 0.950 . S
C1295 C1294 1.414 . S
C1295 C1296 1.374 . S
C1296 H1270 0.950 . S
C1296 C1292 1.385 . S
C1296 C1295 1.374 . S
C1297 C1294 1.499 1_554 S
C1297 C1298 1.373 . S
C1297 C1299 1.389 . S
C1298 H1271 0.950 . S
C1298 C1284 1.377 . S
C1298 C1297 1.373 . S
C1299 C1283 1.377 . S
C1299 C1297 1.389 . S
C1299 C1300 1.524 . S
C1300 C1299 1.524 . S
C1300 C1301 1.397 1_554 S
C1300 C1305 1.363 . S
C1301 H1272 0.950 . S
C1301 C1300 1.397 1_556 S
C1301 C1302 1.334 . S
C1302 H1273 0.950 . S
C1302 C1301 1.334 . S
C1302 C1303 1.287 . S
C1303 C1302 1.287 . S
C1303 C1304 1.524 1_556 S
C1303 H1306 0.999 . S
C1304 H1274 0.950 . S
C1304 C1303 1.524 1_554 S
C1304 C1305 1.415 . S
C1305 H1275 0.950 . S
C1305 C1300 1.363 . S
C1305 C1304 1.415 . S
H1306 C1303 0.999 . S
H1307 C1288 0.913 . S
H1308 C1326 0.951 . S
H1309 C1328 0.951 . S
H1310 C1330 0.950 . S
H1311 C1331 0.950 . S
H1312 C1333 0.950 . S
H1313 C1336 0.950 . S
H1314 C1337 0.950 . S
H1315 C1339 0.950 . S
H1316 C1340 0.950 . S
H1317 C1341 0.951 . S
H1318 C1343 0.951 . S
H1319 C1345 0.950 . S
H1320 C1346 0.950 . S
H1321 C1348 0.950 . S
H1322 C1351 0.950 . S
H1323 C1352 0.950 . S
H1324 C1354 0.950 . S
H1325 C1355 0.950 . S
C1326 H1308 0.951 . S
C1326 C1327 1.366 . S
C1326 C1328 1.388 . S
C1327 C1326 1.366 . S
C1327 C1331 1.385 . S
C1328 H1309 0.951 . S
C1328 C1326 1.388 . S
C1328 C1329 1.366 . S
C1329 C1328 1.366 . S
C1329 C1330 1.414 . S
C1329 C1332 1.499 . S
C1330 H1310 0.950 . S
C1330 C1329 1.414 . S
C1330 C1331 1.374 . S
C1331 H1311 0.950 . S
C1331 C1327 1.385 . S
C1331 C1330 1.374 . S
C1332 C1329 1.499 . S
C1332 C1333 1.373 . S
C1332 C1334 1.389 . S
C1333 H1312 0.950 . S
C1333 C1332 1.373 . S
C1333 C1349 1.377 . S
C1334 C1332 1.389 . S
C1334 C1335 1.524 . S
C1334 C1348 1.377 . S
C1335 C1334 1.524 . S
C1335 C1336 1.397 . S
C1335 C1340 1.363 . S
C1336 H1313 0.950 . S
C1336 C1335 1.397 . S
C1336 C1337 1.334 . S
C1337 H1314 0.950 . S
C1337 C1336 1.334 . S
C1337 C1338 1.287 . S
C1338 C1337 1.287 . S
C1338 C1339 1.524 . S
C1338 H1357 0.913 . S
C1339 H1315 0.950 . S
C1339 C1338 1.524 . S
C1339 C1340 1.415 . S
C1340 H1316 0.950 . S
C1340 C1335 1.363 . S
C1340 C1339 1.415 . S
C1341 H1317 0.951 . S
C1341 C1342 1.366 . S
C1341 C1343 1.388 . S
C1342 C1341 1.366 . S
C1342 C1346 1.385 . S
C1343 H1318 0.951 . S
C1343 C1341 1.388 . S
C1343 C1344 1.366 . S
C1344 C1343 1.366 . S
C1344 C1345 1.414 . S
C1344 C1347 1.499 . S
C1345 H1319 0.950 . S
C1345 C1344 1.414 . S
C1345 C1346 1.374 . S
C1346 H1320 0.950 . S
C1346 C1342 1.385 . S
C1346 C1345 1.374 . S
C1347 C1344 1.499 . S
C1347 C1348 1.373 . S
C1347 C1349 1.389 . S
C1348 H1321 0.950 . S
C1348 C1334 1.377 . S
C1348 C1347 1.373 . S
C1349 C1333 1.377 . S
C1349 C1347 1.389 . S
C1349 C1350 1.524 . S
C1350 C1349 1.524 . S
C1350 C1351 1.397 . S
C1350 C1355 1.363 . S
C1351 H1322 0.950 . S
C1351 C1350 1.397 . S
C1351 C1352 1.334 . S
C1352 H1323 0.950 . S
C1352 C1351 1.334 . S
C1352 C1353 1.287 . S
C1353 C1352 1.287 . S
C1353 C1354 1.524 . S
C1353 H1356 0.999 . S
C1354 H1324 0.950 . S
C1354 C1353 1.524 . S
C1354 C1355 1.415 . S
C1355 H1325 0.950 . S
C1355 C1350 1.363 . S
C1355 C1354 1.415 . S
H1356 C1353 0.999 . S
H1357 C1338 0.913 . S
H1358 C1376 0.951 . S
H1359 C1378 0.951 . S
H1360 C1380 0.950 . S
H1361 C1381 0.950 . S
H1362 C1383 0.950 . S
H1363 C1386 0.950 . S
H1364 C1387 0.950 . S
H1365 C1389 0.950 . S
H1366 C1390 0.950 . S
H1367 C1391 0.951 . S
H1368 C1393 0.951 . S
H1369 C1395 0.950 . S
H1370 C1396 0.950 . S
H1371 C1398 0.950 . S
H1372 C1401 0.950 . S
H1373 C1402 0.950 . S
H1374 C1404 0.950 . S
H1375 C1405 0.950 . S
C1376 H1358 0.951 . S
C1376 C1377 1.366 . S
C1376 C1378 1.388 . S
C1377 C1376 1.366 . S
C1377 C1381 1.385 . S
C1378 H1359 0.951 . S
C1378 C1376 1.388 . S
C1378 C1379 1.366 . S
C1379 C1378 1.366 . S
C1379 C1380 1.414 . S
C1379 C1382 1.499 . S
C1380 H1360 0.950 . S
C1380 C1379 1.414 . S
C1380 C1381 1.374 . S
C1381 H1361 0.950 . S
C1381 C1377 1.385 . S
C1381 C1380 1.374 . S
C1382 C1379 1.499 . S
C1382 C1383 1.373 . S
C1382 C1384 1.389 . S
C1383 H1362 0.950 . S
C1383 C1382 1.373 . S
C1383 C1399 1.377 . S
C1384 C1382 1.389 . S
C1384 C1385 1.524 . S
C1384 C1398 1.377 . S
C1385 C1384 1.524 . S
C1385 C1386 1.397 . S
C1385 C1390 1.363 . S
C1386 H1363 0.950 . S
C1386 C1385 1.397 . S
C1386 C1387 1.334 . S
C1387 H1364 0.950 . S
C1387 C1386 1.334 . S
C1387 C1388 1.287 . S
C1388 C1387 1.287 . S
C1388 C1389 1.524 . S
C1388 H1407 0.913 . S
C1389 H1365 0.950 . S
C1389 C1388 1.524 . S
C1389 C1390 1.415 . S
C1390 H1366 0.950 . S
C1390 C1385 1.363 . S
C1390 C1389 1.415 . S
C1391 H1367 0.951 . S
C1391 C1392 1.366 . S
C1391 C1393 1.388 . S
C1392 C1391 1.366 . S
C1392 C1396 1.385 . S
C1393 H1368 0.951 . S
C1393 C1391 1.388 . S
C1393 C1394 1.366 . S
C1394 C1393 1.366 . S
C1394 C1395 1.414 . S
C1394 C1397 1.499 . S
C1395 H1369 0.950 . S
C1395 C1394 1.414 . S
C1395 C1396 1.374 . S
C1396 H1370 0.950 . S
C1396 C1392 1.385 . S
C1396 C1395 1.374 . S
C1397 C1394 1.499 . S
C1397 C1398 1.373 . S
C1397 C1399 1.389 . S
C1398 H1371 0.950 . S
C1398 C1384 1.377 . S
C1398 C1397 1.373 . S
C1399 C1383 1.377 . S
C1399 C1397 1.389 . S
C1399 C1400 1.524 . S
C1400 C1399 1.524 . S
C1400 C1401 1.397 . S
C1400 C1405 1.363 . S
C1401 H1372 0.950 . S
C1401 C1400 1.397 . S
C1401 C1402 1.334 . S
C1402 H1373 0.950 . S
C1402 C1401 1.334 . S
C1402 C1403 1.287 . S
C1403 C1402 1.287 . S
C1403 C1404 1.524 . S
C1403 H1406 0.999 . S
C1404 H1374 0.950 . S
C1404 C1403 1.524 . S
C1404 C1405 1.415 . S
C1405 H1375 0.950 . S
C1405 C1400 1.363 . S
C1405 C1404 1.415 . S
H1406 C1403 0.999 . S
H1407 C1388 0.913 . S
H1408 C1426 0.951 . S
H1409 C1428 0.951 . S
H1410 C1430 0.950 . S
H1411 C1431 0.950 . S
H1412 C1433 0.950 . S
H1413 C1436 0.950 . S
H1414 C1437 0.950 . S
H1415 C1439 0.950 . S
H1416 C1440 0.950 . S
H1417 C1441 0.951 . S
H1418 C1443 0.951 . S
H1419 C1445 0.950 . S
H1420 C1446 0.950 . S
H1421 C1448 0.950 . S
H1422 C1451 0.950 . S
H1423 C1452 0.950 . S
H1424 C1454 0.950 . S
H1425 C1455 0.950 . S
C1426 H1408 0.951 . S
C1426 C1427 1.366 . S
C1426 C1428 1.388 . S
C1427 C1426 1.366 . S
C1427 C1431 1.385 . S
C1428 H1409 0.951 . S
C1428 C1426 1.388 . S
C1428 C1429 1.366 . S
C1429 C1428 1.366 . S
C1429 C1430 1.414 . S
C1429 C1432 1.499 1_556 S
C1430 H1410 0.950 . S
C1430 C1429 1.414 . S
C1430 C1431 1.374 . S
C1431 H1411 0.950 . S
C1431 C1427 1.385 . S
C1431 C1430 1.374 . S
C1432 C1429 1.499 1_554 S
C1432 C1433 1.373 . S
C1432 C1434 1.389 . S
C1433 H1412 0.950 . S
C1433 C1432 1.373 . S
C1433 C1449 1.377 . S
C1434 C1432 1.389 . S
C1434 C1435 1.533 . S
C1434 C1448 1.377 . S
C1435 C1434 1.533 . S
C1435 C1436 1.389 1_554 S
C1435 C1440 1.363 . S
C1436 H1413 0.950 . S
C1436 C1435 1.389 1_556 S
C1436 C1437 1.334 . S
C1437 H1414 0.950 . S
C1437 C1436 1.334 . S
C1437 C1438 1.287 . S
C1438 C1437 1.287 . S
C1438 C1439 1.524 . S
C1438 H1457 0.913 . S
C1439 H1415 0.950 . S
C1439 C1438 1.524 . S
C1439 C1440 1.415 1_556 S
C1440 H1416 0.950 . S
C1440 C1435 1.363 . S
C1440 C1439 1.415 1_554 S
C1441 H1417 0.951 . S
C1441 C1442 1.366 . S
C1441 C1443 1.388 . S
C1442 C1441 1.366 . S
C1442 C1446 1.385 . S
C1443 H1418 0.951 . S
C1443 C1441 1.388 . S
C1443 C1444 1.366 . S
C1444 C1443 1.366 . S
C1444 C1445 1.414 . S
C1444 C1447 1.499 . S
C1445 H1419 0.950 . S
C1445 C1444 1.414 . S
C1445 C1446 1.374 . S
C1446 H1420 0.950 . S
C1446 C1442 1.385 . S
C1446 C1445 1.374 . S
C1447 C1444 1.499 . S
C1447 C1448 1.373 . S
C1447 C1449 1.389 . S
C1448 H1421 0.950 . S
C1448 C1434 1.377 . S
C1448 C1447 1.373 . S
C1449 C1433 1.377 . S
C1449 C1447 1.389 . S
C1449 C1450 1.524 . S
C1450 C1449 1.524 . S
C1450 C1451 1.397 . S
C1450 C1455 1.363 . S
C1451 H1422 0.950 . S
C1451 C1450 1.397 . S
C1451 C1452 1.334 . S
C1452 H1423 0.950 . S
C1452 C1451 1.334 . S
C1452 C1453 1.287 . S
C1453 C1452 1.287 . S
C1453 C1454 1.524 . S
C1453 H1456 0.999 . S
C1454 H1424 0.950 . S
C1454 C1453 1.524 . S
C1454 C1455 1.415 . S
C1455 H1425 0.950 . S
C1455 C1450 1.363 . S
C1455 C1454 1.415 . S
H1456 C1453 0.999 . S
H1457 C1438 0.913 . S
H1458 C1476 0.951 . S
H1459 C1478 0.951 . S
H1460 C1480 0.950 . S
H1461 C1481 0.950 . S
H1462 C1483 0.950 . S
H1463 C1486 0.950 . S
H1464 C1487 0.950 . S
H1465 C1489 0.950 . S
H1466 C1490 0.950 . S
H1467 C1491 0.951 . S
H1468 C1493 0.951 . S
H1469 C1495 0.950 . S
H1470 C1496 0.950 . S
H1471 C1498 0.950 . S
H1472 C1501 0.950 . S
H1473 C1502 0.950 . S
H1474 C1504 0.950 . S
H1475 C1505 0.950 . S
C1476 H1458 0.951 . S
C1476 C1477 1.366 . S
C1476 C1478 1.388 . S
C1477 C1476 1.366 . S
C1477 C1481 1.385 . S
C1478 H1459 0.951 . S
C1478 C1476 1.388 . S
C1478 C1479 1.366 . S
C1479 C1478 1.366 . S
C1479 C1480 1.414 . S
C1479 C1482 1.499 . S
C1480 H1460 0.950 . S
C1480 C1479 1.414 . S
C1480 C1481 1.374 . S
C1481 H1461 0.950 . S
C1481 C1477 1.385 . S
C1481 C1480 1.374 . S
C1482 C1479 1.499 . S
C1482 C1483 1.373 . S
C1482 C1484 1.389 . S
C1483 H1462 0.950 . S
C1483 C1482 1.373 . S
C1483 C1499 1.377 . S
C1484 C1482 1.389 . S
C1484 C1485 1.524 . S
C1484 C1498 1.377 . S
C1485 C1484 1.524 . S
C1485 C1486 1.397 . S
C1485 C1490 1.363 . S
C1486 H1463 0.950 . S
C1486 C1485 1.397 . S
C1486 C1487 1.334 . S
C1487 H1464 0.950 . S
C1487 C1486 1.334 . S
C1487 C1488 1.287 . S
C1488 C1487 1.287 . S
C1488 C1489 1.524 . S
C1488 H1507 0.913 . S
C1489 H1465 0.950 . S
C1489 C1488 1.524 . S
C1489 C1490 1.415 . S
C1490 H1466 0.950 . S
C1490 C1485 1.363 . S
C1490 C1489 1.415 . S
C1491 H1467 0.951 . S
C1491 C1492 1.366 . S
C1491 C1493 1.388 . S
C1492 C1491 1.366 . S
C1492 C1496 1.385 . S
C1493 H1468 0.951 . S
C1493 C1491 1.388 . S
C1493 C1494 1.366 . S
C1494 C1493 1.366 . S
C1494 C1495 1.414 . S
C1494 C1497 1.499 . S
C1495 H1469 0.950 . S
C1495 C1494 1.414 . S
C1495 C1496 1.374 . S
C1496 H1470 0.950 . S
C1496 C1492 1.385 . S
C1496 C1495 1.374 . S
C1497 C1494 1.499 . S
C1497 C1498 1.373 . S
C1497 C1499 1.389 . S
C1498 H1471 0.950 . S
C1498 C1484 1.377 . S
C1498 C1497 1.373 . S
C1499 C1483 1.377 . S
C1499 C1497 1.389 . S
C1499 C1500 1.524 . S
C1500 C1499 1.524 . S
C1500 C1501 1.397 . S
C1500 C1505 1.363 . S
C1501 H1472 0.950 . S
C1501 C1500 1.397 . S
C1501 C1502 1.334 . S
C1502 H1473 0.950 . S
C1502 C1501 1.334 . S
C1502 C1503 1.287 . S
C1503 C1502 1.287 . S
C1503 C1504 1.524 . S
C1503 H1506 0.999 . S
C1504 H1474 0.950 . S
C1504 C1503 1.524 . S
C1504 C1505 1.415 . S
C1505 H1475 0.950 . S
C1505 C1500 1.363 . S
C1505 C1504 1.415 . S
H1506 C1503 0.999 . S
H1507 C1488 0.913 . S
H1508 C1526 0.951 . S
H1509 C1528 0.951 . S
H1510 C1530 0.950 . S
H1511 C1531 0.950 . S
H1512 C1533 0.950 . S
H1513 C1536 0.950 . S
H1514 C1537 0.950 . S
H1515 C1539 0.950 . S
H1516 C1540 0.950 . S
H1517 C1541 0.951 . S
H1518 C1543 0.951 . S
H1519 C1545 0.950 . S
H1520 C1546 0.950 . S
H1521 C1548 0.950 . S
H1522 C1551 0.950 . S
H1523 C1552 0.950 . S
H1524 C1554 0.950 . S
H1525 C1555 0.950 . S
C1526 H1508 0.951 . S
C1526 C1527 1.366 . S
C1526 C1528 1.388 . S
C1527 C1526 1.366 . S
C1527 C1531 1.385 . S
C1528 H1509 0.951 . S
C1528 C1526 1.388 . S
C1528 C1529 1.366 . S
C1529 C1528 1.366 . S
C1529 C1530 1.414 . S
C1529 C1532 1.499 . S
C1530 H1510 0.950 . S
C1530 C1529 1.414 . S
C1530 C1531 1.374 . S
C1531 H1511 0.950 . S
C1531 C1527 1.385 . S
C1531 C1530 1.374 . S
C1532 C1529 1.499 . S
C1532 C1533 1.373 . S
C1532 C1534 1.389 . S
C1533 H1512 0.950 . S
C1533 C1532 1.373 . S
C1533 C1549 1.377 . S
C1534 C1532 1.389 . S
C1534 C1535 1.524 . S
C1534 C1548 1.377 . S
C1535 C1534 1.524 . S
C1535 C1536 1.397 . S
C1535 C1540 1.363 . S
C1536 H1513 0.950 . S
C1536 C1535 1.397 . S
C1536 C1537 1.334 . S
C1537 H1514 0.950 . S
C1537 C1536 1.334 . S
C1537 C1538 1.287 . S
C1538 C1537 1.287 . S
C1538 C1539 1.524 . S
C1538 H1557 0.913 . S
C1539 H1515 0.950 . S
C1539 C1538 1.524 . S
C1539 C1540 1.415 . S
C1540 H1516 0.950 . S
C1540 C1535 1.363 . S
C1540 C1539 1.415 . S
C1541 H1517 0.951 . S
C1541 C1542 1.366 . S
C1541 C1543 1.388 . S
C1542 C1541 1.366 . S
C1542 C1546 1.385 . S
C1543 H1518 0.951 . S
C1543 C1541 1.388 . S
C1543 C1544 1.366 . S
C1544 C1543 1.366 . S
C1544 C1545 1.414 . S
C1544 C1547 1.499 . S
C1545 H1519 0.950 . S
C1545 C1544 1.414 . S
C1545 C1546 1.374 . S
C1546 H1520 0.950 . S
C1546 C1542 1.385 . S
C1546 C1545 1.374 . S
C1547 C1544 1.499 . S
C1547 C1548 1.373 . S
C1547 C1549 1.389 . S
C1548 H1521 0.950 . S
C1548 C1534 1.377 . S
C1548 C1547 1.373 . S
C1549 C1533 1.377 . S
C1549 C1547 1.389 . S
C1549 C1550 1.524 . S
C1550 C1549 1.524 . S
C1550 C1551 1.397 . S
C1550 C1555 1.363 . S
C1551 H1522 0.950 . S
C1551 C1550 1.397 . S
C1551 C1552 1.334 . S
C1552 H1523 0.950 . S
C1552 C1551 1.334 . S
C1552 C1553 1.287 . S
C1553 C1552 1.287 . S
C1553 C1554 1.524 . S
C1553 H1556 0.999 . S
C1554 H1524 0.950 . S
C1554 C1553 1.524 . S
C1554 C1555 1.415 . S
C1555 H1525 0.950 . S
C1555 C1550 1.363 . S
C1555 C1554 1.415 . S
H1556 C1553 0.999 . S
H1557 C1538 0.913 . S
H1558 C1576 0.951 . S
H1559 C1578 0.951 . S
H1560 C1580 0.950 . S
H1561 C1581 0.950 . S
H1562 C1583 0.950 . S
H1563 C1586 0.950 . S
H1564 C1587 0.950 . S
H1565 C1589 0.950 . S
H1566 C1590 0.950 . S
H1567 C1591 0.951 . S
H1568 C1593 0.951 . S
H1569 C1595 0.950 . S
H1570 C1596 0.950 . S
H1571 C1598 0.950 . S
H1572 C1601 0.950 . S
H1573 C1602 0.950 . S
H1574 C1604 0.950 . S
H1575 C1605 0.950 . S
C1576 H1558 0.951 . S
C1576 C1577 1.366 . S
C1576 C1578 1.388 . S
C1577 C1576 1.366 . S
C1577 C1581 1.385 . S
C1578 H1559 0.951 . S
C1578 C1576 1.388 . S
C1578 C1579 1.366 . S
C1579 C1578 1.366 . S
C1579 C1580 1.414 . S
C1579 C1582 1.499 . S
C1580 H1560 0.950 . S
C1580 C1579 1.414 . S
C1580 C1581 1.374 . S
C1581 H1561 0.950 . S
C1581 C1577 1.385 . S
C1581 C1580 1.374 . S
C1582 C1579 1.499 . S
C1582 C1583 1.373 . S
C1582 C1584 1.389 . S
C1583 H1562 0.950 . S
C1583 C1582 1.373 . S
C1583 C1599 1.377 . S
C1584 C1582 1.389 . S
C1584 C1585 1.524 . S
C1584 C1598 1.377 . S
C1585 C1584 1.524 . S
C1585 C1586 1.397 . S
C1585 C1590 1.363 . S
C1586 H1563 0.950 . S
C1586 C1585 1.397 . S
C1586 C1587 1.334 . S
C1587 H1564 0.950 . S
C1587 C1586 1.334 . S
C1587 C1588 1.287 . S
C1588 C1587 1.287 . S
C1588 C1589 1.524 . S
C1588 H1607 0.913 . S
C1589 H1565 0.950 . S
C1589 C1588 1.524 . S
C1589 C1590 1.415 . S
C1590 H1566 0.950 . S
C1590 C1585 1.363 . S
C1590 C1589 1.415 . S
C1591 H1567 0.951 . S
C1591 C1592 1.366 . S
C1591 C1593 1.388 . S
C1592 C1591 1.366 . S
C1592 C1596 1.385 . S
C1593 H1568 0.951 . S
C1593 C1591 1.388 . S
C1593 C1594 1.366 . S
C1594 C1593 1.366 . S
C1594 C1595 1.414 . S
C1594 C1597 1.499 . S
C1595 H1569 0.950 . S
C1595 C1594 1.414 . S
C1595 C1596 1.374 . S
C1596 H1570 0.950 . S
C1596 C1592 1.385 . S
C1596 C1595 1.374 . S
C1597 C1594 1.499 . S
C1597 C1598 1.373 . S
C1597 C1599 1.389 . S
C1598 H1571 0.950 . S
C1598 C1584 1.377 . S
C1598 C1597 1.373 . S
C1599 C1583 1.377 . S
C1599 C1597 1.389 . S
C1599 C1600 1.524 . S
C1600 C1599 1.524 . S
C1600 C1601 1.397 . S
C1600 C1605 1.363 . S
C1601 H1572 0.950 . S
C1601 C1600 1.397 . S
C1601 C1602 1.334 . S
C1602 H1573 0.950 . S
C1602 C1601 1.334 . S
C1602 C1603 1.287 . S
C1603 C1602 1.287 . S
C1603 C1604 1.524 . S
C1603 H1606 0.999 . S
C1604 H1574 0.950 . S
C1604 C1603 1.524 . S
C1604 C1605 1.415 . S
C1605 H1575 0.950 . S
C1605 C1600 1.363 . S
C1605 C1604 1.415 . S
H1606 C1603 0.999 . S
H1607 C1588 0.913 . S
H1608 C1626 0.951 . S
H1609 C1628 0.951 . S
H1610 C1630 0.950 . S
H1611 C1631 0.950 . S
H1612 C1633 0.950 . S
H1613 C1636 0.950 . S
H1614 C1637 0.950 . S
H1615 C1639 0.950 . S
H1616 C1640 0.950 . S
H1617 C1641 0.951 . S
H1618 C1643 0.951 . S
H1619 C1645 0.950 . S
H1620 C1646 0.950 . S
H1621 C1648 0.950 . S
H1622 C1651 0.950 . S
H1623 C1652 0.950 . S
H1624 C1654 0.950 . S
H1625 C1655 0.950 . S
C1626 H1608 0.951 . S
C1626 C1627 1.366 . S
C1626 C1628 1.388 . S
C1627 C1626 1.366 . S
C1627 C1631 1.385 . S
C1628 H1609 0.951 . S
C1628 C1626 1.388 . S
C1628 C1629 1.366 . S
C1629 C1628 1.366 . S
C1629 C1630 1.414 . S
C1629 C1632 1.499 . S
C1630 H1610 0.950 . S
C1630 C1629 1.414 . S
C1630 C1631 1.374 . S
C1631 H1611 0.950 . S
C1631 C1627 1.385 . S
C1631 C1630 1.374 . S
C1632 C1629 1.499 . S
C1632 C1633 1.373 . S
C1632 C1634 1.389 . S
C1633 H1612 0.950 . S
C1633 C1632 1.373 . S
C1633 C1649 1.377 . S
C1634 C1632 1.389 . S
C1634 C1635 1.524 . S
C1634 C1648 1.377 . S
C1635 C1634 1.524 . S
C1635 C1636 1.397 . S
C1635 C1640 1.363 . S
C1636 H1613 0.950 . S
C1636 C1635 1.397 . S
C1636 C1637 1.334 . S
C1637 H1614 0.950 . S
C1637 C1636 1.334 . S
C1637 C1638 1.287 . S
C1638 C1637 1.287 . S
C1638 C1639 1.524 . S
C1638 H1657 0.913 . S
C1639 H1615 0.950 . S
C1639 C1638 1.524 . S
C1639 C1640 1.415 . S
C1640 H1616 0.950 . S
C1640 C1635 1.363 . S
C1640 C1639 1.415 . S
C1641 H1617 0.951 . S
C1641 C1642 1.366 . S
C1641 C1643 1.388 . S
C1642 C1641 1.366 . S
C1642 C1646 1.385 . S
C1643 H1618 0.951 . S
C1643 C1641 1.388 . S
C1643 C1644 1.366 . S
C1644 C1643 1.366 . S
C1644 C1645 1.414 . S
C1644 C1647 1.499 . S
C1645 H1619 0.950 . S
C1645 C1644 1.414 . S
C1645 C1646 1.374 . S
C1646 H1620 0.950 . S
C1646 C1642 1.385 . S
C1646 C1645 1.374 . S
C1647 C1644 1.499 . S
C1647 C1648 1.373 . S
C1647 C1649 1.389 . S
C1648 H1621 0.950 . S
C1648 C1634 1.377 . S
C1648 C1647 1.373 . S
C1649 C1633 1.377 . S
C1649 C1647 1.389 . S
C1649 C1650 1.524 . S
C1650 C1649 1.524 . S
C1650 C1651 1.397 . S
C1650 C1655 1.363 . S
C1651 H1622 0.950 . S
C1651 C1650 1.397 . S
C1651 C1652 1.334 . S
C1652 H1623 0.950 . S
C1652 C1651 1.334 . S
C1652 C1653 1.287 . S
C1653 C1652 1.287 . S
C1653 C1654 1.524 . S
C1653 H1656 0.999 . S
C1654 H1624 0.950 . S
C1654 C1653 1.524 . S
C1654 C1655 1.415 . S
C1655 H1625 0.950 . S
C1655 C1650 1.363 . S
C1655 C1654 1.415 . S
H1656 C1653 0.999 . S
H1657 C1638 0.913 . S
H1658 C1676 0.951 . S
H1659 C1678 0.951 . S
H1660 C1680 0.950 . S
H1661 C1681 0.950 . S
H1662 C1683 0.950 . S
H1663 C1686 0.950 . S
H1664 C1687 0.950 . S
H1665 C1689 0.950 . S
H1666 C1690 0.950 . S
H1667 C1691 0.951 . S
H1668 C1693 0.951 . S
H1669 C1695 0.950 . S
H1670 C1696 0.950 . S
H1671 C1698 0.950 . S
H1672 C1701 0.950 . S
H1673 C1702 0.950 . S
H1674 C1704 0.950 . S
H1675 C1705 0.950 . S
C1676 H1658 0.951 . S
C1676 C1677 1.366 . S
C1676 C1678 1.388 . S
C1677 C1676 1.366 . S
C1677 C1681 1.385 . S
C1678 H1659 0.951 . S
C1678 C1676 1.388 . S
C1678 C1679 1.366 . S
C1679 C1678 1.366 . S
C1679 C1680 1.414 . S
C1679 C1682 1.499 . S
C1680 H1660 0.950 . S
C1680 C1679 1.414 . S
C1680 C1681 1.374 . S
C1681 H1661 0.950 . S
C1681 C1677 1.385 . S
C1681 C1680 1.374 . S
C1682 C1679 1.499 . S
C1682 C1683 1.373 . S
C1682 C1684 1.389 . S
C1683 H1662 0.950 . S
C1683 C1682 1.373 . S
C1683 C1699 1.377 . S
C1684 C1682 1.389 . S
C1684 C1685 1.524 . S
C1684 C1698 1.377 . S
C1685 C1684 1.524 . S
C1685 C1686 1.397 . S
C1685 C1690 1.363 . S
C1686 H1663 0.950 . S
C1686 C1685 1.397 . S
C1686 C1687 1.334 . S
C1687 H1664 0.950 . S
C1687 C1686 1.334 . S
C1687 C1688 1.287 . S
C1688 C1687 1.287 . S
C1688 C1689 1.524 . S
C1688 H1707 0.913 . S
C1689 H1665 0.950 . S
C1689 C1688 1.524 . S
C1689 C1690 1.415 . S
C1690 H1666 0.950 . S
C1690 C1685 1.363 . S
C1690 C1689 1.415 . S
C1691 H1667 0.951 . S
C1691 C1692 1.366 . S
C1691 C1693 1.388 . S
C1692 C1691 1.366 . S
C1692 C1696 1.385 . S
C1693 H1668 0.951 . S
C1693 C1691 1.388 . S
C1693 C1694 1.366 . S
C1694 C1693 1.366 . S
C1694 C1695 1.414 . S
C1694 C1697 1.499 . S
C1695 H1669 0.950 . S
C1695 C1694 1.414 . S
C1695 C1696 1.374 . S
C1696 H1670 0.950 . S
C1696 C1692 1.385 . S
C1696 C1695 1.374 . S
C1697 C1694 1.499 . S
C1697 C1698 1.373 . S
C1697 C1699 1.389 . S
C1698 H1671 0.950 . S
C1698 C1684 1.377 . S
C1698 C1697 1.373 . S
C1699 C1683 1.377 . S
C1699 C1697 1.389 . S
C1699 C1700 1.524 . S
C1700 C1699 1.524 . S
C1700 C1701 1.397 . S
C1700 C1705 1.363 . S
C1701 H1672 0.950 . S
C1701 C1700 1.397 . S
C1701 C1702 1.334 . S
C1702 H1673 0.950 . S
C1702 C1701 1.334 . S
C1702 C1703 1.287 . S
C1703 C1702 1.287 . S
C1703 C1704 1.524 . S
C1703 H1706 0.999 . S
C1704 H1674 0.950 . S
C1704 C1703 1.524 . S
C1704 C1705 1.415 . S
C1705 H1675 0.950 . S
C1705 C1700 1.363 . S
C1705 C1704 1.415 . S
H1706 C1703 0.999 . S
H1707 C1688 0.913 . S
H1708 C1726 0.951 . S
H1709 C1728 0.951 . S
H1710 C1730 0.950 . S
H1711 C1731 0.950 . S
H1712 C1733 0.950 . S
H1713 C1736 0.950 . S
H1714 C1737 0.950 . S
H1715 C1739 0.950 . S
H1716 C1740 0.950 . S
H1717 C1741 0.951 . S
H1718 C1743 0.951 . S
H1719 C1745 0.950 . S
H1720 C1746 0.950 . S
H1721 C1748 0.950 . S
H1722 C1751 0.950 . S
H1723 C1752 0.950 . S
H1724 C1754 0.950 . S
H1725 C1755 0.950 . S
C1726 H1708 0.951 . S
C1726 C1727 1.366 . S
C1726 C1728 1.388 . S
C1727 C1726 1.366 . S
C1727 C1731 1.385 . S
C1728 H1709 0.951 . S
C1728 C1726 1.388 . S
C1728 C1729 1.366 . S
C1729 C1728 1.366 . S
C1729 C1730 1.414 . S
C1729 C1732 1.499 . S
C1730 H1710 0.950 . S
C1730 C1729 1.414 . S
C1730 C1731 1.374 . S
C1731 H1711 0.950 . S
C1731 C1727 1.385 . S
C1731 C1730 1.374 . S
C1732 C1729 1.499 . S
C1732 C1733 1.373 . S
C1732 C1734 1.389 . S
C1733 H1712 0.950 . S
C1733 C1732 1.373 . S
C1733 C1749 1.377 . S
C1734 C1732 1.389 . S
C1734 C1735 1.524 . S
C1734 C1748 1.377 . S
C1735 C1734 1.524 . S
C1735 C1736 1.397 . S
C1735 C1740 1.363 . S
C1736 H1713 0.950 . S
C1736 C1735 1.397 . S
C1736 C1737 1.334 . S
C1737 H1714 0.950 . S
C1737 C1736 1.334 . S
C1737 C1738 1.287 . S
C1738 C1737 1.287 . S
C1738 C1739 1.524 . S
C1738 H1757 0.913 . S
C1739 H1715 0.950 . S
C1739 C1738 1.524 . S
C1739 C1740 1.415 . S
C1740 H1716 0.950 . S
C1740 C1735 1.363 . S
C1740 C1739 1.415 . S
C1741 H1717 0.951 . S
C1741 C1742 1.366 . S
C1741 C1743 1.388 . S
C1742 C1741 1.366 . S
C1742 C1746 1.385 . S
C1743 H1718 0.951 . S
C1743 C1741 1.388 . S
C1743 C1744 1.366 . S
C1744 C1743 1.366 . S
C1744 C1745 1.414 . S
C1744 C1747 1.499 . S
C1745 H1719 0.950 . S
C1745 C1744 1.414 . S
C1745 C1746 1.374 . S
C1746 H1720 0.950 . S
C1746 C1742 1.385 . S
C1746 C1745 1.374 . S
C1747 C1744 1.499 . S
C1747 C1748 1.373 . S
C1747 C1749 1.389 . S
C1748 H1721 0.950 . S
C1748 C1734 1.377 . S
C1748 C1747 1.373 . S
C1749 C1733 1.377 . S
C1749 C1747 1.389 . S
C1749 C1750 1.524 . S
C1750 C1749 1.524 . S
C1750 C1751 1.397 . S
C1750 C1755 1.363 . S
C1751 H1722 0.950 . S
C1751 C1750 1.397 . S
C1751 C1752 1.334 . S
C1752 H1723 0.950 . S
C1752 C1751 1.334 . S
C1752 C1753 1.287 . S
C1753 C1752 1.287 . S
C1753 C1754 1.524 . S
C1753 H1756 0.999 . S
C1754 H1724 0.950 . S
C1754 C1753 1.524 . S
C1754 C1755 1.415 . S
C1755 H1725 0.950 . S
C1755 C1750 1.363 . S
C1755 C1754 1.415 . S
H1756 C1753 0.999 . S
H1757 C1738 0.913 . S
H1758 C1776 0.951 . S
H1759 C1778 0.951 . S
H1760 C1780 0.950 . S
H1761 C1781 0.950 . S
H1762 C1783 0.950 . S
H1763 C1786 0.950 . S
H1764 C1787 0.950 . S
H1765 C1789 0.950 . S
H1766 C1790 0.950 . S
H1767 C1791 0.951 . S
H1768 C1793 0.951 . S
H1769 C1795 0.950 . S
H1770 C1796 0.950 . S
H1771 C1798 0.950 . S
H1772 C1801 0.943 1_556 S
H1773 C1802 0.966 . S
H1774 C1804 0.950 . S
H1775 C1805 0.950 . S
C1776 H1758 0.951 . S
C1776 C1777 1.366 . S
C1776 C1778 1.388 . S
C1777 C1776 1.366 . S
C1777 C1781 1.385 . S
C1778 H1759 0.951 . S
C1778 C1776 1.388 . S
C1778 C1779 1.366 . S
C1779 C1778 1.366 . S
C1779 C1780 1.414 . S
C1779 C1782 1.499 . S
C1780 H1760 0.950 . S
C1780 C1779 1.414 . S
C1780 C1781 1.374 . S
C1781 H1761 0.950 . S
C1781 C1777 1.385 . S
C1781 C1780 1.374 . S
C1782 C1779 1.499 . S
C1782 C1783 1.373 . S
C1782 C1784 1.389 . S
C1783 H1762 0.950 . S
C1783 C1782 1.373 . S
C1783 C1799 1.377 . S
C1784 C1782 1.389 . S
C1784 C1785 1.524 . S
C1784 C1798 1.377 . S
C1785 C1784 1.524 . S
C1785 C1786 1.397 . S
C1785 C1790 1.363 . S
C1786 H1763 0.950 . S
C1786 C1785 1.397 . S
C1786 C1787 1.334 . S
C1787 H1764 0.950 . S
C1787 C1786 1.334 . S
C1787 C1788 1.287 . S
C1788 C1787 1.287 . S
C1788 C1789 1.524 . S
C1788 H1807 0.913 . S
C1789 H1765 0.950 . S
C1789 C1788 1.524 . S
C1789 C1790 1.415 . S
C1790 H1766 0.950 . S
C1790 C1785 1.363 . S
C1790 C1789 1.415 . S
C1791 H1767 0.951 . S
C1791 C1792 1.366 . S
C1791 C1793 1.388 . S
C1792 C1791 1.366 . S
C1792 C1796 1.385 . S
C1793 H1768 0.951 . S
C1793 C1791 1.388 . S
C1793 C1794 1.366 . S
C1794 C1793 1.366 . S
C1794 C1795 1.414 . S
C1794 C1797 1.499 1_556 S
C1795 H1769 0.950 . S
C1795 C1794 1.414 . S
C1795 C1796 1.374 . S
C1796 H1770 0.950 . S
C1796 C1792 1.385 . S
C1796 C1795 1.374 . S
C1797 C1794 1.499 1_554 S
C1797 C1798 1.373 . S
C1797 C1799 1.389 . S
C1798 H1771 0.950 . S
C1798 C1784 1.377 . S
C1798 C1797 1.373 . S
C1799 C1783 1.377 . S
C1799 C1797 1.389 . S
C1799 C1800 1.524 . S
C1800 C1799 1.524 . S
C1800 C1801 1.397 . S
C1800 C1805 1.363 . S
C1801 H1772 0.943 1_554 S
C1801 C1800 1.397 . S
C1801 C1802 1.328 1_554 S
C1802 H1773 0.966 . S
C1802 C1801 1.328 1_556 S
C1802 C1803 1.277 1_556 S
C1803 C1802 1.277 1_554 S
C1803 C1804 1.524 . S
C1803 H1806 0.999 . S
C1804 H1774 0.950 . S
C1804 C1803 1.524 . S
C1804 C1805 1.415 . S
C1805 H1775 0.950 . S
C1805 C1800 1.363 . S
C1805 C1804 1.415 . S
H1806 C1803 0.999 . S
H1807 C1788 0.913 . S
C227 C83 2.143 . S
C242 C5 2.142 . S
C277 C96 2.143 . S
C292 C18 2.143 . S
C327 C31 2.143 . S
C342 C57 2.142 1_556 S
C377 C44 2.143 . S
C392 C70 2.143 . S
C427 C109 2.142 . S
C442 C187 2.143 1_556 S
C477 C200 2.143 . S
C492 C122 2.142 . S
C527 C135 2.143 . S
C542 C161 2.143 . S
C577 C148 2.142 . S
C592 C174 2.143 . S
C627 C10 2.033 . S
C642 C140 2.033 . S
C677 C23 2.032 . S
C692 C153 2.033 . S
C727 C36 2.033 . S
C742 C114 2.033 . S
C777 C49 2.033 . S
C792 C127 2.033 . S
C827 C62 2.033 . S
C842 C192 2.033 . S
C877 C205 2.033 . S
C892 C75 2.033 . S
C927 C88 2.033 . S
C942 C166 2.033 . S
C977 C179 2.033 . S
C992 C101 2.033 . S
C1027 C170 0.135 . S
C1042 C1 0.134 . S
C1077 C14 0.134 . S
C1092 C183 0.136 . S
C1127 C196 0.134 . S
C1142 C27 0.135 . S
C1177 C157 0.134 . S
C1192 C40 0.135 . S
C1227 C144 0.135 . S
C1242 C53 0.135 . S
C1277 C66 0.135 . S
C1292 C105 0.134 . S
C1327 C79 0.134 . S
C1342 C118 0.136 . S
C1377 C92 0.134 . S
C1392 C131 0.135 . S
C1427 C172 1.904 . S
C1442 C3 1.904 . S
C1477 C16 1.904 . S
C1492 C185 1.904 . S
C1527 C29 1.903 . S
C1542 C198 1.904 . S
C1577 C159 1.904 . S
C1592 C42 1.904 . S
C1627 C146 1.904 . S
C1642 C55 1.904 . S
C1677 C107 1.903 . S
C1692 C68 1.904 . S
C1727 C81 1.904 . S
C1742 C120 1.904 . S
C1777 C133 1.904 . S
C1792 C94 1.904 . S
