# Generated by pormake.
# Topology uki, (4)-cn, num edge types: 1
# Building blocks:
#     Node 0, Type 0, BuildingBlock: GALJAG_clean_sbu_0, # of connection points: 4
#     Node 1, Type 0, BuildingBlock: GALJAG_clean_sbu_0, # of connection points: 4
#     Node 2, Type 0, BuildingBlock: GALJAG_clean_sbu_0, # of connection points: 4
#     Node 3, Type 0, BuildingBlock: GALJAG_clean_sbu_0, # of connection points: 4
#     Node 4, Type 0, BuildingBlock: GALJAG_clean_sbu_0, # of connection points: 4
#     Node 5, Type 0, BuildingBlock: GALJAG_clean_sbu_0, # of connection points: 4
#     Node 6, Type 0, BuildingBlock: GALJAG_clean_sbu_0, # of connection points: 4
#     Node 7, Type 0, BuildingBlock: GALJAG_clean_sbu_0, # of connection points: 4
#     Node 8, Type 0, BuildingBlock: GALJAG_clean_sbu_0, # of connection points: 4
#     Node 9, Type 0, BuildingBlock: GALJAG_clean_sbu_0, # of connection points: 4
#     Node 10, Type 0, BuildingBlock: GALJAG_clean_sbu_0, # of connection points: 4
#     Node 11, Type 0, BuildingBlock: GALJAG_clean_sbu_0, # of connection points: 4
#     Node 12, Type 0, BuildingBlock: GALJAG_clean_sbu_0, # of connection points: 4
#     Node 13, Type 0, BuildingBlock: GALJAG_clean_sbu_0, # of connection points: 4
#     Node 14, Type 0, BuildingBlock: GALJAG_clean_sbu_0, # of connection points: 4
#     Node 15, Type 0, BuildingBlock: GALJAG_clean_sbu_0, # of connection points: 4
#     Edge 16, Type (0, 0), BuildingBlock: ZUJKAS_clean_linker_0, # of connection points: 2
#     Edge 17, Type (0, 0), BuildingBlock: ZUJKAS_clean_linker_0, # of connection points: 2
#     Edge 18, Type (0, 0), BuildingBlock: ZUJKAS_clean_linker_0, # of connection points: 2
#     Edge 19, Type (0, 0), BuildingBlock: ZUJKAS_clean_linker_0, # of connection points: 2
#     Edge 20, Type (0, 0), BuildingBlock: ZUJKAS_clean_linker_0, # of connection points: 2
#     Edge 21, Type (0, 0), BuildingBlock: ZUJKAS_clean_linker_0, # of connection points: 2
#     Edge 22, Type (0, 0), BuildingBlock: ZUJKAS_clean_linker_0, # of connection points: 2
#     Edge 23, Type (0, 0), BuildingBlock: ZUJKAS_clean_linker_0, # of connection points: 2
#     Edge 24, Type (0, 0), BuildingBlock: ZUJKAS_clean_linker_0, # of connection points: 2
#     Edge 25, Type (0, 0), BuildingBlock: ZUJKAS_clean_linker_0, # of connection points: 2
#     Edge 26, Type (0, 0), BuildingBlock: ZUJKAS_clean_linker_0, # of connection points: 2
#     Edge 27, Type (0, 0), BuildingBlock: ZUJKAS_clean_linker_0, # of connection points: 2
#     Edge 28, Type (0, 0), BuildingBlock: ZUJKAS_clean_linker_0, # of connection points: 2
#     Edge 29, Type (0, 0), BuildingBlock: ZUJKAS_clean_linker_0, # of connection points: 2
#     Edge 30, Type (0, 0), BuildingBlock: ZUJKAS_clean_linker_0, # of connection points: 2
#     Edge 31, Type (0, 0), BuildingBlock: ZUJKAS_clean_linker_0, # of connection points: 2
#     Edge 32, Type (0, 0), BuildingBlock: ZUJKAS_clean_linker_0, # of connection points: 2
#     Edge 33, Type (0, 0), BuildingBlock: ZUJKAS_clean_linker_0, # of connection points: 2
#     Edge 34, Type (0, 0), BuildingBlock: ZUJKAS_clean_linker_0, # of connection points: 2
#     Edge 35, Type (0, 0), BuildingBlock: ZUJKAS_clean_linker_0, # of connection points: 2
#     Edge 36, Type (0, 0), BuildingBlock: ZUJKAS_clean_linker_0, # of connection points: 2
#     Edge 37, Type (0, 0), BuildingBlock: ZUJKAS_clean_linker_0, # of connection points: 2
#     Edge 38, Type (0, 0), BuildingBlock: ZUJKAS_clean_linker_0, # of connection points: 2
#     Edge 39, Type (0, 0), BuildingBlock: ZUJKAS_clean_linker_0, # of connection points: 2
#     Edge 40, Type (0, 0), BuildingBlock: ZUJKAS_clean_linker_0, # of connection points: 2
#     Edge 41, Type (0, 0), BuildingBlock: ZUJKAS_clean_linker_0, # of connection points: 2
#     Edge 42, Type (0, 0), BuildingBlock: ZUJKAS_clean_linker_0, # of connection points: 2
#     Edge 43, Type (0, 0), BuildingBlock: ZUJKAS_clean_linker_0, # of connection points: 2
#     Edge 44, Type (0, 0), BuildingBlock: ZUJKAS_clean_linker_0, # of connection points: 2
#     Edge 45, Type (0, 0), BuildingBlock: ZUJKAS_clean_linker_0, # of connection points: 2
#     Edge 46, Type (0, 0), BuildingBlock: ZUJKAS_clean_linker_0, # of connection points: 2
#     Edge 47, Type (0, 0), BuildingBlock: ZUJKAS_clean_linker_0, # of connection points: 2
# Relax obj value: 0.105
# Max RMSD: 0.179
# Mean RMSD: 0.179
data_MOF--net-uki--node1-GALJAG_clean_sbu_0--edge1-ZUJKAS_clean_linker_0
_symmetry_space_group_name_H-M    P1
_symmetry_Int_Tables_number       1
_symmetry_cell_setting            triclinic
loop_
_symmetry_equiv_pos_as_xyz
'x, y, z'
_cell_length_a     39.288358
_cell_length_b     39.299648
_cell_length_c     99.18707
_cell_angle_alpha  89.98402
_cell_angle_beta   89.998467
_cell_angle_gamma 90.010264
loop_
_atom_site_label
_atom_site_type_symbol
_atom_site_fract_x
_atom_site_fract_y
_atom_site_fract_z
_atom_type_partial_charge
In0 In 0.07344 0.23164 0.30455 0.0
O1 O 0.09211 0.25544 0.3243 0.0
O2 O 0.12343 0.2185 0.3147 0.0
C3 C 0.01186 0.26008 0.3006 0.0
C4 C 0.05458 0.16663 0.30835 0.0
C5 C 0.10506 0.26022 0.28325 0.0
O6 O 0.03058 0.26876 0.31039 0.0
O7 O 0.02414 0.23715 0.29318 0.0
O8 O 0.09673 0.2292 0.28337 0.0
O9 O 0.09823 0.27623 0.29392 0.0
C10 C 0.11955 0.23864 0.32448 0.0
O11 O 0.0739 0.17563 0.2988 0.0
O12 O 0.04531 0.19038 0.3161 0.0
In13 In 0.2381 0.92927 0.69425 0.0
O14 O 0.25219 0.91054 0.67309 0.0
O15 O 0.23712 0.87393 0.68768 0.0
C16 C 0.26181 0.99378 0.69371 0.0
C17 C 0.17054 0.93851 0.69278 0.0
C18 C 0.27095 0.90814 0.7166 0.0
O19 O 0.27837 0.96936 0.68867 0.0
O20 O 0.23337 0.98569 0.69857 0.0
O21 O 0.23891 0.91049 0.71617 0.0
O22 O 0.28595 0.91605 0.70581 0.0
C23 C 0.24672 0.8796 0.67577 0.0
O24 O 0.18496 0.92759 0.70333 0.0
O25 O 0.1902 0.94398 0.68293 0.0
In26 In 0.92307 0.75771 0.30451 0.0
O27 O 0.9196 0.81253 0.29721 0.0
O28 O 0.93692 0.80355 0.31726 0.0
C29 C 0.9013 0.72833 0.28152 0.0
C30 C 0.87469 0.74372 0.32304 0.0
C31 C 0.98831 0.73635 0.30346 0.0
O32 O 0.90105 0.76022 0.28312 0.0
O33 O 0.91213 0.71167 0.2915 0.0
O34 O 0.9652 0.71866 0.30888 0.0
O35 O 0.97857 0.76473 0.29901 0.0
C36 C 0.93049 0.82503 0.30813 0.0
O37 O 0.90601 0.73964 0.32544 0.0
O38 O 0.86805 0.75445 0.31137 0.0
In39 In 0.76139 0.07828 0.69679 0.0
O40 O 0.81665 0.08094 0.70364 0.0
O41 O 0.80515 0.0524 0.68597 0.0
C42 C 0.7287 0.11131 0.71669 0.0
C43 C 0.75219 0.12217 0.67624 0.0
C44 C 0.7387 0.01516 0.70223 0.0
O45 O 0.7607 0.1081 0.71656 0.0
O46 O 0.71354 0.09843 0.7067 0.0
O47 O 0.73195 0.0296 0.69113 0.0
O48 O 0.75636 0.03262 0.71026 0.0
C49 C 0.82753 0.06222 0.69423 0.0
O50 O 0.73684 0.09389 0.67672 0.0
O51 O 0.772 0.12782 0.68599 0.0
In52 In 0.07305 0.26649 0.94695 0.0
O53 O 0.08795 0.24519 0.92626 0.0
O54 O 0.12551 0.27141 0.9377 0.0
C55 C 0.00778 0.24746 0.9502 0.0
C56 C 0.0626 0.33378 0.94464 0.0
C57 C 0.10037 0.23041 0.96735 0.0
O58 O 0.02586 0.2358 0.9407 0.0
O59 O 0.02265 0.2685 0.95777 0.0
O60 O 0.10128 0.26254 0.9671 0.0
O61 O 0.08613 0.21684 0.95731 0.0
C62 C 0.11833 0.25565 0.927 0.0
O63 O 0.07751 0.32087 0.95471 0.0
O64 O 0.05378 0.31279 0.93566 0.0
In65 In 0.26203 0.91525 0.05365 0.0
O66 O 0.24057 0.8993 0.07423 0.0
O67 O 0.2699 0.86345 0.06313 0.0
C68 C 0.24011 0.98001 0.0514 0.0
C69 C 0.32911 0.92513 0.0566 0.0
C70 C 0.22956 0.88946 0.03194 0.0
O71 O 0.22436 0.95841 0.05849 0.0
O72 O 0.26668 0.96901 0.0458 0.0
O73 O 0.26084 0.89675 0.03168 0.0
O74 O 0.21526 0.89452 0.04312 0.0
C75 C 0.25316 0.86973 0.07368 0.0
O76 O 0.31697 0.90686 0.04726 0.0
O77 O 0.30738 0.93781 0.06454 0.0
In78 In 0.91878 0.74192 0.94653 0.0
O79 O 0.92224 0.6885 0.95549 0.0
O80 O 0.9419 0.69649 0.93577 0.0
C81 C 0.89326 0.75899 0.9709 0.0
C82 C 0.87186 0.7507 0.92691 0.0
C83 C 0.976 0.78014 0.94515 0.0
O84 O 0.92194 0.74498 0.96952 0.0
O85 O 0.87714 0.76346 0.96004 0.0
O86 O 0.9479 0.79194 0.94911 0.0
O87 O 0.97474 0.74974 0.94118 0.0
C88 C 0.93695 0.67592 0.94534 0.0
O89 O 0.89735 0.77004 0.9281 0.0
O90 O 0.87028 0.72722 0.93554 0.0
In91 In 0.73576 0.07364 0.05323 0.0
O92 O 0.67968 0.07349 0.04718 0.0
O93 O 0.69615 0.03737 0.06174 0.0
C94 C 0.76289 0.11014 0.03296 0.0
C95 C 0.74024 0.11783 0.07398 0.0
C96 C 0.77087 0.01605 0.04851 0.0
O97 O 0.73301 0.0983 0.03238 0.0
O98 O 0.77842 0.10432 0.04386 0.0
O99 O 0.76824 0.0282 0.06028 0.0
O100 O 0.75583 0.03278 0.03946 0.0
C101 C 0.67189 0.04901 0.05482 0.0
O102 O 0.75936 0.09207 0.0731 0.0
O103 O 0.71887 0.12077 0.06458 0.0
In104 In 0.57952 0.73049 0.80135 0.0
O105 O 0.59675 0.75834 0.82039 0.0
O106 O 0.62672 0.71684 0.81334 0.0
C107 C 0.51956 0.76099 0.79605 0.0
C108 C 0.559 0.66616 0.8058 0.0
C109 C 0.61563 0.75509 0.78039 0.0
O110 O 0.53563 0.76678 0.80685 0.0
O111 O 0.53379 0.74021 0.78821 0.0
O112 O 0.60171 0.72616 0.78004 0.0
O113 O 0.61187 0.77103 0.79131 0.0
C114 C 0.62288 0.74 0.82202 0.0
O115 O 0.58085 0.6736 0.79693 0.0
O116 O 0.5481 0.69108 0.81256 0.0
In117 In 0.74586 0.43029 0.19303 0.0
O118 O 0.75928 0.41087 0.17189 0.0
O119 O 0.74305 0.37494 0.18656 0.0
C120 C 0.77214 0.49395 0.19175 0.0
C121 C 0.67823 0.43944 0.19196 0.0
C122 C 0.77671 0.40878 0.21579 0.0
O123 O 0.78916 0.46805 0.18847 0.0
O124 O 0.74193 0.48775 0.19512 0.0
O125 O 0.74548 0.41632 0.2155 0.0
O126 O 0.79189 0.41176 0.20466 0.0
C127 C 0.75278 0.38015 0.17463 0.0
O128 O 0.69327 0.43009 0.20261 0.0
O129 O 0.69731 0.44354 0.18183 0.0
In130 In 0.4185 0.26072 0.80424 0.0
O131 O 0.41684 0.315 0.79631 0.0
O132 O 0.43061 0.30729 0.81688 0.0
C133 C 0.39716 0.23092 0.78126 0.0
C134 C 0.37018 0.24683 0.82281 0.0
C135 C 0.48409 0.24035 0.80377 0.0
O136 O 0.39475 0.26261 0.78313 0.0
O137 O 0.40995 0.21463 0.79097 0.0
O138 O 0.46081 0.2219 0.80865 0.0
O139 O 0.47432 0.26893 0.79955 0.0
C140 C 0.42598 0.32817 0.80737 0.0
O141 O 0.40141 0.24165 0.82503 0.0
O142 O 0.36358 0.25856 0.81129 0.0
In143 In 0.26593 0.56853 0.19671 0.0
O144 O 0.32033 0.56943 0.20448 0.0
O145 O 0.31113 0.54709 0.18524 0.0
C146 C 0.2324 0.59912 0.21709 0.0
C147 C 0.25686 0.614 0.17669 0.0
C148 C 0.24415 0.50419 0.20024 0.0
O149 O 0.26449 0.59776 0.2167 0.0
O150 O 0.21759 0.58558 0.20718 0.0
O151 O 0.2351 0.52157 0.19011 0.0
O152 O 0.26395 0.51926 0.20825 0.0
C153 C 0.3325 0.55439 0.1943 0.0
O154 O 0.24085 0.58611 0.17702 0.0
O155 O 0.27728 0.61859 0.18633 0.0
In156 In 0.57894 0.75484 0.44826 0.0
O157 O 0.58317 0.81078 0.45464 0.0
O158 O 0.53999 0.7956 0.44328 0.0
C159 C 0.61261 0.73331 0.47034 0.0
C160 C 0.62145 0.74928 0.42688 0.0
C161 C 0.52204 0.71618 0.4495 0.0
O162 O 0.59126 0.75733 0.47077 0.0
O163 O 0.61745 0.72093 0.45875 0.0
O164 O 0.52796 0.73581 0.4397 0.0
O165 O 0.54521 0.71526 0.45825 0.0
C166 C 0.55549 0.81938 0.44916 0.0
O167 O 0.59811 0.72799 0.42914 0.0
O168 O 0.62295 0.7733 0.43525 0.0
In169 In 0.75949 0.4163 0.55069 0.0
O170 O 0.72986 0.39402 0.56856 0.0
O171 O 0.77958 0.3753 0.56486 0.0
C172 C 0.71893 0.47191 0.55051 0.0
C173 C 0.82394 0.43991 0.54923 0.0
C174 C 0.74079 0.38318 0.52805 0.0
O175 O 0.74146 0.4674 0.5594 0.0
O176 O 0.716 0.44781 0.54224 0.0
O177 O 0.75856 0.40995 0.52778 0.0
O178 O 0.73335 0.37274 0.53972 0.0
C179 C 0.75307 0.3736 0.57198 0.0
O180 O 0.81472 0.41294 0.54337 0.0
O181 O 0.80086 0.4545 0.55588 0.0
In182 In 0.41584 0.2291 0.44981 0.0
O183 O 0.40996 0.174 0.45654 0.0
O184 O 0.44301 0.18458 0.44001 0.0
C185 C 0.38452 0.26232 0.47012 0.0
C186 C 0.37184 0.23578 0.42912 0.0
C187 C 0.47953 0.25301 0.45321 0.0
O188 O 0.39289 0.23141 0.47102 0.0
O189 O 0.39136 0.27605 0.45895 0.0
O190 O 0.462 0.26085 0.44297 0.0
O191 O 0.46478 0.23369 0.46149 0.0
C192 C 0.43056 0.16254 0.44786 0.0
O193 O 0.39907 0.25285 0.42977 0.0
O194 O 0.36714 0.21549 0.4388 0.0
In195 In 0.23337 0.58282 0.55091 0.0
O196 O 0.1797 0.58713 0.54195 0.0
O197 O 0.18861 0.55004 0.55714 0.0
C198 C 0.25625 0.61317 0.52827 0.0
C199 C 0.23811 0.62525 0.57234 0.0
C200 C 0.2707 0.52485 0.5511 0.0
O201 O 0.23544 0.58866 0.52797 0.0
O202 O 0.2647 0.62273 0.53995 0.0
O203 O 0.24269 0.52756 0.55718 0.0
O204 O 0.28064 0.5518 0.54547 0.0
C205 C 0.16766 0.56344 0.54912 0.0
O206 O 0.25777 0.6002 0.5708 0.0
O207 O 0.21616 0.6286 0.5632 0.0
H208 H 0.11421 0.23438 0.25779 0.0
H209 H 0.13464 0.26523 0.23779 0.0
H210 H 0.149 0.3553 0.26197 0.0
H211 H 0.12835 0.32506 0.2818 0.0
H212 H 0.11151 0.36552 0.23774 0.0
H213 H 0.23349 0.29631 0.22922 0.0
H214 H 0.1948 0.27199 0.23063 0.0
H215 H 0.21111 0.29397 0.24509 0.0
C216 C 0.12207 0.26067 0.25883 0.0
C217 C 0.11973 0.27735 0.27134 0.0
C218 C 0.13373 0.2782 0.24742 0.0
C219 C 0.14336 0.31249 0.24844 0.0
C220 C 0.14154 0.32887 0.26097 0.0
H221 H 0.2652 0.46232 0.22022 0.0
H222 H 0.23861 0.4099 0.22782 0.0
C223 C 0.12984 0.31152 0.27231 0.0
C224 C 0.15485 0.33225 0.23658 0.0
H225 H 0.22466 0.3465 0.21694 0.0
C226 C 0.13589 0.36104 0.23291 0.0
C227 C 0.18654 0.32605 0.23032 0.0
C228 C 0.20791 0.29552 0.23398 0.0
C229 C 0.14903 0.3854 0.224 0.0
C230 C 0.18179 0.38039 0.2184 0.0
C231 C 0.19952 0.35016 0.22121 0.0
C232 C 0.20058 0.40886 0.21204 0.0
C233 C 0.129 0.41763 0.22158 0.0
C234 C 0.18877 0.42516 0.20032 0.0
C235 C 0.20387 0.45558 0.19598 0.0
C236 C 0.231 0.46985 0.20329 0.0
C237 C 0.2441 0.45217 0.21445 0.0
C238 C 0.22905 0.42203 0.21877 0.0
H239 H 0.10599 0.41923 0.22806 0.0
H240 H 0.14508 0.44033 0.22353 0.0
H241 H 0.12064 0.41854 0.2109 0.0
H242 H 0.16715 0.41507 0.19486 0.0
H243 H 0.19345 0.46859 0.18728 0.0
H244 H 0.48317 0.75143 0.77322 0.0
H245 H 0.43159 0.78047 0.76616 0.0
H246 H 0.42987 0.83649 0.80356 0.0
H247 H 0.48253 0.80768 0.81066 0.0
H248 H 0.36706 0.78426 0.77754 0.0
H249 H 0.42962 0.9115 0.77483 0.0
H250 H 0.45396 0.87288 0.77672 0.0
H251 H 0.43018 0.8894 0.79071 0.0
C252 C 0.47185 0.7698 0.78001 0.0
C253 C 0.48708 0.77753 0.79244 0.0
C254 C 0.44221 0.78627 0.77598 0.0
C255 C 0.42703 0.81082 0.78428 0.0
C256 C 0.44147 0.81794 0.79693 0.0
H257 H 0.24561 0.8915 0.74156 0.0
H258 H 0.27809 0.87173 0.76126 0.0
C259 C 0.47142 0.80143 0.80098 0.0
C260 C 0.3973 0.82976 0.779 0.0
H261 H 0.37675 0.90556 0.76434 0.0
C262 C 0.36865 0.81103 0.77493 0.0
C263 C 0.39959 0.86466 0.77565 0.0
C264 C 0.42998 0.88593 0.77961 0.0
C265 C 0.34366 0.82545 0.76659 0.0
C266 C 0.34719 0.85972 0.76247 0.0
C267 C 0.37426 0.87926 0.76752 0.0
C268 C 0.32694 0.87384 0.75119 0.0
C269 C 0.31533 0.80313 0.76134 0.0
C270 C 0.34372 0.88229 0.73917 0.0
C271 C 0.32541 0.89369 0.72803 0.0
C272 C 0.28986 0.89685 0.72866 0.0
C273 C 0.27299 0.88903 0.74078 0.0
C274 C 0.29146 0.87769 0.75201 0.0
H275 H 0.31887 0.77599 0.76415 0.0
H276 H 0.29072 0.81188 0.76558 0.0
H277 H 0.3137 0.80495 0.75019 0.0
H278 H 0.37107 0.8794 0.73831 0.0
H279 H 0.33917 0.89962 0.71886 0.0
H280 H 0.73918 0.55455 0.1935 0.0
H281 H 0.76179 0.60723 0.20303 0.0
H282 H 0.8614 0.56141 0.20561 0.0
H283 H 0.83912 0.50921 0.19561 0.0
H284 H 0.78291 0.60577 0.22794 0.0
H285 H 0.88772 0.65751 0.19707 0.0
H286 H 0.85743 0.62719 0.19046 0.0
H287 H 0.89368 0.61293 0.20006 0.0
C288 C 0.76619 0.55624 0.19561 0.0
C289 C 0.78738 0.52778 0.19393 0.0
C290 C 0.77908 0.58634 0.20106 0.0
C291 C 0.81331 0.58839 0.20505 0.0
C292 C 0.8351 0.56084 0.20236 0.0
H293 H 0.90001 0.66047 0.27647 0.0
H294 H 0.87804 0.6316 0.25651 0.0
C295 C 0.82229 0.53086 0.1967 0.0
C296 C 0.82441 0.61598 0.21427 0.0
H297 H 0.88991 0.67054 0.22114 0.0
C298 C 0.80585 0.62052 0.22624 0.0
C299 C 0.85432 0.63535 0.21212 0.0
C300 C 0.87419 0.63324 0.19915 0.0
C301 C 0.81739 0.64228 0.23643 0.0
C302 C 0.84852 0.65964 0.23469 0.0
C303 C 0.86618 0.65683 0.22245 0.0
C304 C 0.86433 0.67792 0.24607 0.0
C305 C 0.79693 0.64553 0.24924 0.0
C306 C 0.86432 0.71357 0.24666 0.0
C307 C 0.87676 0.73025 0.25813 0.0
C308 C 0.88944 0.71138 0.26909 0.0
C309 C 0.89024 0.67571 0.26824 0.0
C310 C 0.87779 0.65916 0.25684 0.0
H311 H 0.77029 0.6367 0.24786 0.0
H312 H 0.80888 0.62977 0.25723 0.0
H313 H 0.79658 0.67233 0.25279 0.0
H314 H 0.85392 0.72837 0.23842 0.0
H315 H 0.87598 0.75778 0.2585 0.0
H316 H 0.50512 0.17468 0.80089 0.0
H317 H 0.55827 0.15596 0.79048 0.0
H318 H 0.59456 0.25963 0.79011 0.0
H319 H 0.54083 0.27855 0.79998 0.0
H320 H 0.59459 0.23502 0.76591 0.0
H321 H 0.6565 0.13998 0.79868 0.0
H322 H 0.61263 0.12932 0.79613 0.0
H323 H 0.6236 0.16811 0.8048 0.0
C324 C 0.52495 0.19326 0.79902 0.0
C325 C 0.51885 0.22805 0.80111 0.0
C326 C 0.55546 0.18252 0.79314 0.0
C327 C 0.58057 0.20635 0.78955 0.0
C328 C 0.57557 0.24078 0.79277 0.0
H329 H 0.75469 0.13794 0.74007 0.0
H330 H 0.72272 0.16407 0.75868 0.0
C331 C 0.54489 0.25157 0.79842 0.0
C332 C 0.60868 0.19643 0.78036 0.0
H333 H 0.66876 0.13533 0.77463 0.0
C334 C 0.6113 0.21368 0.76799 0.0
C335 C 0.63078 0.16882 0.78304 0.0
C336 C 0.63097 0.15077 0.79646 0.0
C337 C 0.6339 0.20288 0.75797 0.0
C338 C 0.65389 0.17357 0.76022 0.0
C339 C 0.65296 0.15752 0.77286 0.0
C340 C 0.67357 0.15778 0.74917 0.0
C341 C 0.63552 0.22246 0.74489 0.0
C342 C 0.6564 0.14535 0.7378 0.0
C343 C 0.67446 0.13058 0.72722 0.0
C344 C 0.71005 0.12778 0.72784 0.0
C345 C 0.72727 0.13997 0.73929 0.0
C346 C 0.7091 0.15476 0.74993 0.0
H347 H 0.6271 0.24923 0.74625 0.0
H348 H 0.66172 0.22247 0.74068 0.0
H349 H 0.61832 0.21034 0.73743 0.0
H350 H 0.62892 0.14693 0.73714 0.0
H351 H 0.66045 0.1212 0.71857 0.0
H352 H 0.2767 0.0351 0.04373 0.0
H353 H 0.25478 0.08757 0.03381 0.0
H354 H 0.15202 0.0535 0.0412 0.0
H355 H 0.17401 0.00148 0.05163 0.0
H356 H 0.22021 0.08455 0.01133 0.0
H357 H 0.142 0.15353 0.04874 0.0
H358 H 0.1718 0.12067 0.05351 0.0
H359 H 0.12996 0.10962 0.04753 0.0
C360 C 0.24946 0.03937 0.04365 0.0
C361 C 0.22699 0.01426 0.04836 0.0
C362 C 0.23696 0.06934 0.03798 0.0
C363 C 0.20175 0.07458 0.03676 0.0
C364 C 0.17927 0.05045 0.04228 0.0
H365 H 0.09829 0.16168 0.97003 0.0
H366 H 0.12371 0.12705 0.98779 0.0
C367 C 0.19183 0.02063 0.04818 0.0
C368 C 0.18891 0.10197 0.02781 0.0
H369 H 0.1306 0.16615 0.02528 0.0
C370 C 0.20104 0.10274 0.01449 0.0
C371 C 0.16404 0.12588 0.03191 0.0
C372 C 0.15146 0.12765 0.04625 0.0
C373 C 0.1881 0.12577 0.00504 0.0
C374 C 0.16174 0.14817 0.00889 0.0
C375 C 0.15054 0.14858 0.02233 0.0
C376 C 0.14441 0.16979 0.99882 0.0
C377 C 0.20245 0.12557 0.99092 0.0
C378 C 0.14684 0.20538 0.99937 0.0
C379 C 0.13223 0.22535 0.98921 0.0
C380 C 0.11491 0.20991 0.97842 0.0
C381 C 0.11174 0.17431 0.97814 0.0
C382 C 0.12626 0.15447 0.98827 0.0
H383 H 0.22829 0.11409 0.99061 0.0
H384 H 0.18562 0.11022 0.9843 0.0
H385 H 0.20386 0.15175 0.98673 0.0
H386 H 0.1607 0.2176 0.00748 0.0
H387 H 0.13488 0.25276 0.98971 0.0
H388 H 0.25209 0.88283 0.00586 0.0
H389 H 0.21847 0.86509 0.98615 0.0
H390 H 0.13051 0.85173 0.01161 0.0
H391 H 0.16364 0.86914 0.03121 0.0
H392 H 0.14591 0.79614 0.99338 0.0
H393 H 0.13994 0.92294 0.9683 0.0
H394 H 0.18084 0.90671 0.97341 0.0
H395 H 0.15022 0.91851 0.98596 0.0
C396 C 0.22562 0.87594 0.00722 0.0
C397 C 0.21045 0.87738 0.02006 0.0
C398 C 0.20646 0.86604 0.99597 0.0
C399 C 0.17199 0.85744 0.99745 0.0
C400 C 0.15707 0.85836 0.01028 0.0
H401 H 0.98607 0.83999 0.95845 0.0
H402 H 0.0398 0.86013 0.96791 0.0
C403 C 0.17605 0.86831 0.02146 0.0
C404 C 0.15087 0.84714 0.98581 0.0
H405 H 0.10587 0.87936 0.95927 0.0
C406 C 0.13764 0.81404 0.98572 0.0
C407 C 0.14009 0.87078 0.97596 0.0
C408 C 0.15327 0.90683 0.97584 0.0
C409 C 0.11249 0.80435 0.97647 0.0
C410 C 0.10076 0.82833 0.96687 0.0
C411 C 0.11517 0.86101 0.96656 0.0
C412 C 0.07048 0.82113 0.95845 0.0
C413 C 0.09707 0.76926 0.97768 0.0
C414 C 0.07027 0.79379 0.94936 0.0
C415 C 0.03951 0.78202 0.94403 0.0
C416 C 0.00864 0.7977 0.94761 0.0
C417 C 0.00942 0.82728 0.95556 0.0
C418 C 0.04014 0.83885 0.96096 0.0
H419 H 0.10492 0.75616 0.98711 0.0
H420 H 0.06885 0.77067 0.97747 0.0
H421 H 0.10547 0.75344 0.96903 0.0
H422 H 0.09356 0.7802 0.94709 0.0
H423 H 0.0397 0.75935 0.93782 0.0
H424 H 0.92749 0.76094 0.9949 0.0
H425 H 0.91117 0.79253 0.0152 0.0
H426 H 0.81645 0.82084 0.99627 0.0
H427 H 0.83234 0.78914 0.97612 0.0
H428 H 0.90219 0.86039 0.0147 0.0
H429 H 0.78485 0.80148 0.03425 0.0
H430 H 0.81328 0.77937 0.02291 0.0
H431 H 0.78144 0.80807 0.01642 0.0
C432 C 0.90277 0.77312 0.99523 0.0
C433 C 0.88124 0.77275 0.98391 0.0
C434 C 0.89349 0.79112 0.00683 0.0
C435 C 0.86241 0.80869 0.00733 0.0
C436 C 0.84017 0.80679 0.99628 0.0
H437 H 0.79359 0.99688 0.02399 0.0
H438 H 0.82135 0.94377 0.01777 0.0
C439 C 0.84943 0.7889 0.98469 0.0
C440 C 0.85528 0.83333 0.01829 0.0
H441 H 0.79006 0.86325 0.03766 0.0
C442 C 0.87813 0.86043 0.02007 0.0
C443 C 0.82416 0.83327 0.02547 0.0
C444 C 0.79975 0.80373 0.02477 0.0
C445 C 0.86913 0.88904 0.02772 0.0
C446 C 0.83645 0.8906 0.0336 0.0
C447 C 0.815 0.86211 0.033 0.0
C448 C 0.8219 0.92339 0.03803 0.0
C449 C 0.89372 0.9184 0.02869 0.0
C450 C 0.81294 0.92943 0.05152 0.0
C451 C 0.79723 0.96014 0.05516 0.0
C452 C 0.78969 0.98465 0.04526 0.0
C453 C 0.79899 0.97844 0.03182 0.0
C454 C 0.81501 0.94819 0.02826 0.0
H455 H 0.92043 0.9098 0.02729 0.0
H456 H 0.88785 0.93713 0.02064 0.0
H457 H 0.89147 0.93145 0.03858 0.0
H458 H 0.81785 0.91035 0.05916 0.0
H459 H 0.79012 0.9643 0.06558 0.0
H460 H 0.73758 0.12043 0.0075 0.0
H461 H 0.76882 0.14209 0.9878 0.0
H462 H 0.85748 0.15794 0.01264 0.0
H463 H 0.82675 0.13644 0.03224 0.0
H464 H 0.80536 0.20688 0.98383 0.0
H465 H 0.88913 0.09385 0.98139 0.0
H466 H 0.84901 0.09386 0.99031 0.0
H467 H 0.88645 0.11157 0.99805 0.0
C468 C 0.76362 0.12889 0.00876 0.0
C469 C 0.77984 0.12654 0.02138 0.0
C470 C 0.78138 0.14115 0.99752 0.0
C471 C 0.81557 0.15092 0.99877 0.0
C472 C 0.83127 0.14989 0.01145 0.0
H473 H 0.96399 0.27411 0.96845 0.0
H474 H 0.91049 0.25001 0.97616 0.0
C475 C 0.81362 0.13777 0.02265 0.0
C476 C 0.83562 0.16187 0.98694 0.0
H477 H 0.91071 0.14508 0.97113 0.0
C478 C 0.82799 0.19307 0.98079 0.0
C479 C 0.86455 0.14335 0.98273 0.0
C480 C 0.87263 0.10861 0.98836 0.0
C481 C 0.85041 0.20773 0.97141 0.0
C482 C 0.88134 0.19091 0.96836 0.0
C483 C 0.88721 0.15822 0.97356 0.0
C484 C 0.9102 0.20859 0.96175 0.0
C485 C 0.84136 0.24163 0.96526 0.0
C486 C 0.92805 0.19338 0.95105 0.0
C487 C 0.95911 0.207 0.94669 0.0
C488 C 0.97284 0.23579 0.9531 0.0
C489 C 0.95408 0.25186 0.96333 0.0
C490 C 0.92319 0.23833 0.96764 0.0
H491 H 0.81335 0.24413 0.96406 0.0
H492 H 0.84992 0.26231 0.97209 0.0
H493 H 0.85363 0.24518 0.95528 0.0
H494 H 0.91865 0.1702 0.94646 0.0
H495 H 0.97309 0.1941 0.93879 0.0
H496 H 0.60853 0.73842 0.75374 0.0
H497 H 0.63164 0.76974 0.73429 0.0
H498 H 0.68404 0.83782 0.76133 0.0
H499 H 0.66068 0.80728 0.78068 0.0
H500 H 0.61977 0.8459 0.73172 0.0
H501 H 0.75565 0.80825 0.73135 0.0
H502 H 0.7224 0.78146 0.73819 0.0
H503 H 0.73875 0.8165 0.74787 0.0
C504 C 0.62551 0.75968 0.75549 0.0
C505 C 0.63283 0.77054 0.76868 0.0
C506 C 0.63859 0.7775 0.7444 0.0
C507 C 0.65973 0.8058 0.74643 0.0
C508 C 0.6681 0.81574 0.75959 0.0
H509 H 0.749 0.983 0.72597 0.0
H510 H 0.7292 0.92712 0.73283 0.0
C511 C 0.65464 0.79839 0.77062 0.0
C512 C 0.67063 0.82754 0.73507 0.0
H513 H 0.74233 0.86316 0.7219 0.0
C514 C 0.64643 0.84913 0.72917 0.0
C515 C 0.70536 0.83141 0.73181 0.0
C516 C 0.73208 0.80797 0.73753 0.0
C517 C 0.65648 0.87685 0.72116 0.0
C518 C 0.69158 0.88251 0.71886 0.0
C519 C 0.71544 0.85887 0.72372 0.0
C520 C 0.7044 0.91565 0.71389 0.0
C521 C 0.62978 0.90153 0.71626 0.0
C522 C 0.69714 0.92782 0.70087 0.0
C523 C 0.7083 0.96026 0.69691 0.0
C524 C 0.72698 0.98067 0.70591 0.0
C525 C 0.73463 0.96798 0.71879 0.0
C526 C 0.72345 0.93591 0.72273 0.0
H527 H 0.60403 0.89533 0.72018 0.0
H528 H 0.63638 0.92786 0.71937 0.0
H529 H 0.62877 0.90091 0.70508 0.0
H530 H 0.68282 0.91238 0.69384 0.0
H531 H 0.70224 0.96935 0.68689 0.0
H532 H 0.96807 0.24217 0.28078 0.0
H533 H 0.91884 0.27359 0.27274 0.0
H534 H 0.93187 0.347 0.30467 0.0
H535 H 0.98226 0.31579 0.31265 0.0
H536 H 0.8577 0.29411 0.28354 0.0
H537 H 0.94018 0.4051 0.27082 0.0
H538 H 0.95787 0.3647 0.2758 0.0
H539 H 0.93861 0.39196 0.28817 0.0
C540 C 0.96033 0.26478 0.28622 0.0
C541 C 0.97932 0.27682 0.29723 0.0
C542 C 0.93202 0.28264 0.28165 0.0
C543 C 0.92198 0.31292 0.28797 0.0
C544 C 0.93958 0.324 0.2995 0.0
H545 H 0.75177 0.4051 0.24162 0.0
H546 H 0.78261 0.38675 0.26192 0.0
C547 C 0.9682 0.30609 0.30408 0.0
C548 C 0.89513 0.33375 0.28148 0.0
H549 H 0.88566 0.40396 0.26158 0.0
C550 C 0.86338 0.31856 0.27898 0.0
C551 C 0.90278 0.3656 0.27554 0.0
C552 C 0.93671 0.38287 0.27761 0.0
C553 C 0.84019 0.33296 0.26984 0.0
C554 C 0.84881 0.36371 0.26327 0.0
C555 C 0.87927 0.38032 0.26664 0.0
C556 C 0.82966 0.37611 0.25138 0.0
C557 C 0.80798 0.31383 0.2665 0.0
C558 C 0.84606 0.37677 0.23882 0.0
C559 C 0.82873 0.38741 0.22732 0.0
C560 C 0.79453 0.39757 0.22812 0.0
C561 C 0.77806 0.39716 0.24071 0.0
C562 C 0.79559 0.38662 0.25229 0.0
H563 H 0.80742 0.2881 0.27113 0.0
H564 H 0.7857 0.32832 0.27027 0.0
H565 H 0.8052 0.31107 0.25541 0.0
H566 H 0.87232 0.36866 0.23788 0.0
H567 H 0.84214 0.38748 0.21778 0.0
H568 H 0.22717 0.05258 0.69782 0.0
H569 H 0.25007 0.10537 0.70713 0.0
H570 H 0.35157 0.06374 0.70494 0.0
H571 H 0.32883 0.01145 0.69512 0.0
H572 H 0.27778 0.10271 0.73099 0.0
H573 H 0.37146 0.1616 0.69663 0.0
H574 H 0.34087 0.13043 0.69093 0.0
H575 H 0.37994 0.11714 0.69885 0.0
C576 C 0.2545 0.05526 0.69884 0.0
C577 C 0.27626 0.02794 0.69586 0.0
C578 C 0.26756 0.08541 0.70416 0.0
C579 C 0.30256 0.08862 0.70674 0.0
C580 C 0.3246 0.06228 0.70278 0.0
H581 H 0.4026 0.16377 0.77524 0.0
H582 H 0.37942 0.13398 0.7557 0.0
C583 C 0.31156 0.03226 0.69723 0.0
C584 C 0.31487 0.11599 0.71582 0.0
H585 H 0.37867 0.17391 0.72055 0.0
C586 C 0.29934 0.11881 0.72853 0.0
C587 C 0.34301 0.13705 0.71269 0.0
C588 C 0.35953 0.13665 0.69897 0.0
C589 C 0.31219 0.14075 0.7384 0.0
C590 C 0.3416 0.16006 0.73557 0.0
C591 C 0.35624 0.15873 0.72268 0.0
C592 C 0.35879 0.17924 0.74638 0.0
C593 C 0.29501 0.14223 0.752 0.0
C594 C 0.3553 0.21465 0.74742 0.0
C595 C 0.36845 0.23183 0.75864 0.0
C596 C 0.3852 0.21371 0.76891 0.0
C597 C 0.38962 0.1784 0.76754 0.0
C598 C 0.37653 0.16135 0.75637 0.0
H599 H 0.26897 0.13121 0.7517 0.0
H600 H 0.31029 0.12756 0.7594 0.0
H601 H 0.29337 0.1689 0.75563 0.0
H602 H 0.34151 0.22876 0.73979 0.0
H603 H 0.3648 0.25908 0.75943 0.0
H604 H 0.00879 0.67014 0.30191 0.0
H605 H 0.06107 0.64938 0.29139 0.0
H606 H 0.09761 0.75256 0.28778 0.0
H607 H 0.04482 0.77342 0.29782 0.0
H608 H 0.09535 0.72315 0.26421 0.0
H609 H 0.16024 0.63516 0.29921 0.0
H610 H 0.11614 0.62436 0.29741 0.0
H611 H 0.12785 0.6646 0.30477 0.0
C612 C 0.0285 0.68826 0.2993 0.0
C613 C 0.02272 0.72336 0.30055 0.0
C614 C 0.05851 0.67636 0.29334 0.0
C615 C 0.08342 0.69939 0.28883 0.0
C616 C 0.07877 0.73432 0.29117 0.0
H617 H 0.25778 0.62972 0.23983 0.0
H618 H 0.22507 0.65618 0.25817 0.0
C619 C 0.04862 0.74621 0.29691 0.0
C620 C 0.11093 0.6878 0.27967 0.0
H621 H 0.17213 0.62701 0.27537 0.0
C622 C 0.11258 0.70259 0.26679 0.0
C623 C 0.13363 0.66113 0.28301 0.0
C624 C 0.13463 0.64567 0.29691 0.0
C625 C 0.13501 0.69036 0.25697 0.0
C626 C 0.15587 0.66211 0.25998 0.0
C627 C 0.1557 0.64841 0.27305 0.0
C628 C 0.17597 0.64513 0.24933 0.0
C629 C 0.13562 0.70734 0.24331 0.0
C630 C 0.15909 0.62981 0.23846 0.0
C631 C 0.17755 0.61489 0.22802 0.0
C632 C 0.2133 0.61483 0.22829 0.0
C633 C 0.23024 0.62959 0.23933 0.0
C634 C 0.21165 0.64457 0.24981 0.0
H635 H 0.12593 0.73387 0.24384 0.0
H636 H 0.16177 0.70774 0.23907 0.0
H637 H 0.11902 0.69293 0.23629 0.0
H638 H 0.13153 0.62955 0.23802 0.0
H639 H 0.16376 0.60347 0.21972 0.0
H640 H 0.67019 0.48605 0.53197 0.0
H641 H 0.65043 0.54206 0.52503 0.0
H642 H 0.70773 0.58828 0.55729 0.0
H643 H 0.72848 0.53193 0.56414 0.0
H644 H 0.61679 0.5964 0.53641 0.0
H645 H 0.75105 0.62967 0.52378 0.0
H646 H 0.73872 0.587 0.52833 0.0
H647 H 0.74182 0.61938 0.54105 0.0
C648 C 0.67809 0.50802 0.53778 0.0
C649 C 0.70131 0.50468 0.54846 0.0
C650 C 0.66669 0.54006 0.53382 0.0
C651 C 0.6782 0.56941 0.54046 0.0
C652 C 0.69913 0.566 0.55186 0.0
H653 H 0.60007 0.74969 0.49675 0.0
H654 H 0.618 0.71756 0.51676 0.0
C655 C 0.71074 0.5338 0.55581 0.0
C656 C 0.67088 0.60304 0.53434 0.0
H657 H 0.70843 0.66493 0.51529 0.0
C658 C 0.63678 0.61196 0.53205 0.0
C659 C 0.69711 0.62313 0.52864 0.0
C660 C 0.73425 0.61438 0.53046 0.0
C661 C 0.62813 0.63881 0.52337 0.0
C662 C 0.65438 0.65765 0.51705 0.0
C663 C 0.68844 0.65042 0.52018 0.0
C664 C 0.64729 0.68055 0.50552 0.0
C665 C 0.59106 0.64498 0.52018 0.0
C666 C 0.65922 0.67138 0.4927 0.0
C667 C 0.64935 0.68975 0.48133 0.0
C668 C 0.62731 0.71769 0.48257 0.0
C669 C 0.61696 0.72813 0.4955 0.0
C670 C 0.62697 0.70971 0.50692 0.0
H671 H 0.57426 0.62499 0.52448 0.0
H672 H 0.58316 0.66986 0.52443 0.0
H673 H 0.58703 0.64588 0.5091 0.0
H674 H 0.67501 0.64901 0.4914 0.0
H675 H 0.65787 0.68116 0.47152 0.0
H676 H 0.74341 0.40735 0.50218 0.0
H677 H 0.71076 0.38648 0.48277 0.0
H678 H 0.67163 0.30418 0.50701 0.0
H679 H 0.70419 0.32462 0.52634 0.0
H680 H 0.68939 0.28635 0.47931 0.0
H681 H 0.60568 0.40058 0.48357 0.0
H682 H 0.65074 0.40702 0.48159 0.0
H683 H 0.63464 0.38868 0.49688 0.0
C684 C 0.72838 0.3844 0.50327 0.0
C685 C 0.72603 0.36778 0.5158 0.0
C686 C 0.70967 0.37263 0.49221 0.0
C687 C 0.68847 0.3441 0.49354 0.0
C688 C 0.68783 0.32629 0.50579 0.0
H689 H 0.52312 0.23103 0.47243 0.0
H690 H 0.57868 0.25399 0.47818 0.0
C691 C 0.70638 0.33804 0.51684 0.0
C692 C 0.66431 0.33426 0.4828 0.0
H693 H 0.58639 0.35566 0.4702 0.0
C694 C 0.66724 0.3018 0.47704 0.0
C695 C 0.63562 0.35463 0.47976 0.0
C696 C 0.63115 0.38963 0.48577 0.0
C697 C 0.6411 0.28827 0.46904 0.0
C698 C 0.61108 0.30745 0.46701 0.0
C699 C 0.60941 0.34098 0.47181 0.0
C700 C 0.57923 0.29143 0.46216 0.0
C701 C 0.64526 0.25296 0.46332 0.0
C702 C 0.56071 0.30518 0.45133 0.0
C703 C 0.52857 0.29209 0.44803 0.0
C704 C 0.5144 0.26551 0.45568 0.0
C705 C 0.53334 0.25151 0.46634 0.0
C706 C 0.56533 0.26437 0.46955 0.0
H707 H 0.67248 0.24727 0.46128 0.0
H708 H 0.63598 0.23407 0.47079 0.0
H709 H 0.63055 0.24976 0.45384 0.0
H710 H 0.57083 0.32641 0.44563 0.0
H711 H 0.51443 0.30339 0.43979 0.0
H712 H 0.24939 0.46214 0.55947 0.0
H713 H 0.27028 0.40702 0.55148 0.0
H714 H 0.34941 0.4578 0.52901 0.0
H715 H 0.32902 0.51274 0.53707 0.0
H716 H 0.2684 0.39189 0.5249 0.0
H717 H 0.40002 0.37559 0.54329 0.0
H718 H 0.37061 0.40526 0.55091 0.0
H719 H 0.39406 0.41691 0.536 0.0
C720 C 0.27191 0.46145 0.55318 0.0
C721 C 0.28747 0.49174 0.54882 0.0
C722 C 0.28378 0.42995 0.54861 0.0
C723 C 0.31156 0.42826 0.53974 0.0
C724 C 0.32843 0.45838 0.53609 0.0
H725 H 0.3558 0.32508 0.46905 0.0
H726 H 0.33514 0.35943 0.48785 0.0
C727 C 0.31658 0.48984 0.54064 0.0
C728 C 0.31959 0.39619 0.53256 0.0
H729 H 0.38618 0.34698 0.52218 0.0
C730 C 0.29397 0.38152 0.52458 0.0
C731 C 0.35283 0.38241 0.53223 0.0
C732 C 0.38083 0.39567 0.54119 0.0
C733 C 0.30134 0.35522 0.5155 0.0
C734 C 0.3352 0.34357 0.51431 0.0
C735 C 0.36028 0.35631 0.52302 0.0
C736 C 0.34573 0.32136 0.50304 0.0
C737 C 0.27316 0.34106 0.50683 0.0
C738 C 0.35859 0.2886 0.5054 0.0
C739 C 0.37023 0.26875 0.49462 0.0
C740 C 0.36967 0.28172 0.48141 0.0
C741 C 0.35648 0.31441 0.47911 0.0
C742 C 0.34456 0.33401 0.48983 0.0
H743 H 0.24777 0.34541 0.51146 0.0
H744 H 0.27354 0.35396 0.49688 0.0
H745 H 0.27662 0.31334 0.50513 0.0
H746 H 0.35987 0.27857 0.51556 0.0
H747 H 0.38048 0.24369 0.49667 0.0
H748 H 0.50749 0.66784 0.46813 0.0
H749 H 0.45145 0.64768 0.47485 0.0
H750 H 0.40541 0.70641 0.44295 0.0
H751 H 0.46188 0.72714 0.4362 0.0
H752 H 0.37754 0.7203 0.46729 0.0
H753 H 0.38176 0.5812 0.46082 0.0
H754 H 0.41899 0.59539 0.46961 0.0
H755 H 0.4116 0.60927 0.45253 0.0
C756 C 0.48556 0.67579 0.4623 0.0
C757 C 0.48903 0.69912 0.45166 0.0
C758 C 0.4535 0.66402 0.46609 0.0
C759 C 0.42422 0.67516 0.4593 0.0
C760 C 0.42771 0.69726 0.44824 0.0
H761 H 0.24631 0.59373 0.50205 0.0
H762 H 0.27937 0.61171 0.48231 0.0
C763 C 0.45995 0.70897 0.44438 0.0
C764 C 0.39031 0.66724 0.46504 0.0
H765 H 0.34594 0.60192 0.47929 0.0
C766 C 0.37008 0.69436 0.46959 0.0
C767 C 0.38009 0.63346 0.46782 0.0
C768 C 0.39912 0.60321 0.46229 0.0
C769 C 0.34176 0.68866 0.47791 0.0
C770 C 0.33398 0.65505 0.48199 0.0
C771 C 0.35222 0.62779 0.47638 0.0
C772 C 0.31032 0.64784 0.4933 0.0
C773 C 0.32128 0.71884 0.48264 0.0
C774 C 0.31647 0.66245 0.50598 0.0
C775 C 0.29761 0.65236 0.51721 0.0
C776 C 0.27249 0.62712 0.51603 0.0
C777 C 0.26548 0.61331 0.50325 0.0
C778 C 0.28434 0.62352 0.49198 0.0
H779 H 0.32141 0.73942 0.47496 0.0
H780 H 0.2945 0.71172 0.48484 0.0
H781 H 0.33294 0.72927 0.49196 0.0
H782 H 0.33699 0.68052 0.50736 0.0
H783 H 0.30376 0.66334 0.52693 0.0
H784 H 0.31868 0.19392 0.42351 0.0
H785 H 0.27692 0.19943 0.40543 0.0
H786 H 0.32582 0.29175 0.392 0.0
H787 H 0.36858 0.28563 0.40986 0.0
H788 H 0.23122 0.24788 0.40073 0.0
H789 H 0.31974 0.23969 0.35722 0.0
H790 H 0.33285 0.23002 0.37422 0.0
H791 H 0.32938 0.27353 0.36874 0.0
C792 C 0.3207 0.21528 0.41665 0.0
C793 C 0.347 0.23924 0.41803 0.0
C794 C 0.29676 0.21845 0.40634 0.0
C795 C 0.29844 0.24575 0.39724 0.0
C796 C 0.32447 0.27001 0.39869 0.0
H797 H 0.12337 0.28724 0.34421 0.0
H798 H 0.16689 0.29253 0.36181 0.0
C799 C 0.34877 0.2666 0.40893 0.0
C800 C 0.27245 0.24875 0.38643 0.0
H801 H 0.26201 0.25101 0.35227 0.0
C802 C 0.23793 0.24865 0.39012 0.0
C803 C 0.28127 0.24948 0.3726 0.0
C804 C 0.31779 0.24787 0.36791 0.0
C805 C 0.21199 0.24853 0.3804 0.0
C806 C 0.22079 0.24962 0.36657 0.0
C807 C 0.2553 0.25042 0.36287 0.0
C808 C 0.19478 0.24753 0.35574 0.0
C809 C 0.1755 0.2458 0.38505 0.0
C810 C 0.19656 0.22117 0.34622 0.0
C811 C 0.17216 0.21847 0.33606 0.0
C812 C 0.1453 0.24197 0.33525 0.0
C813 C 0.1436 0.26856 0.3447 0.0
C814 C 0.16834 0.27149 0.35479 0.0
H815 H 0.17369 0.23635 0.39558 0.0
H816 H 0.1635 0.27134 0.38468 0.0
H817 H 0.16071 0.22845 0.37843 0.0
H818 H 0.21673 0.2024 0.34674 0.0
H819 H 0.17416 0.19773 0.32892 0.0
H820 H 0.28356 0.62406 0.59327 0.0
H821 H 0.28776 0.66471 0.61198 0.0
H822 H 0.20347 0.72155 0.59559 0.0
H823 H 0.19882 0.68098 0.57704 0.0
H824 H 0.29927 0.73493 0.61105 0.0
H825 H 0.17485 0.70585 0.63472 0.0
H826 H 0.19431 0.67835 0.62235 0.0
H827 H 0.17151 0.71578 0.6171 0.0
C828 C 0.26582 0.64512 0.59372 0.0
C829 C 0.24073 0.64925 0.58375 0.0
C830 C 0.26829 0.66832 0.60438 0.0
C831 C 0.24559 0.69581 0.60527 0.0
C832 C 0.22077 0.7001 0.59525 0.0
H833 H 0.26035 0.88558 0.64882 0.0
H834 H 0.2627 0.8398 0.6321 0.0
C835 C 0.21826 0.67698 0.58462 0.0
C836 C 0.24817 0.72059 0.61647 0.0
H837 H 0.20226 0.75696 0.64185 0.0
C838 C 0.27821 0.73959 0.61787 0.0
C839 C 0.22082 0.72624 0.62546 0.0
C840 C 0.18868 0.70525 0.62495 0.0
C841 C 0.28122 0.76492 0.62779 0.0
C842 C 0.25321 0.77174 0.63634 0.0
C843 C 0.22359 0.75197 0.63519 0.0
C844 C 0.25381 0.79936 0.64651 0.0
C845 C 0.31442 0.78394 0.62908 0.0
C846 C 0.24748 0.7919 0.66011 0.0
C847 C 0.24574 0.81799 0.66963 0.0
C848 C 0.25023 0.85208 0.66573 0.0
C849 C 0.25699 0.85953 0.65213 0.0
C850 C 0.25857 0.83338 0.64259 0.0
H851 H 0.33591 0.76932 0.62466 0.0
H852 H 0.31248 0.80842 0.62355 0.0
H853 H 0.32035 0.78958 0.63979 0.0
H854 H 0.24358 0.76585 0.66334 0.0
H855 H 0.2405 0.81146 0.68004 0.0
H856 H 0.67473 0.79102 0.4211 0.0
H857 H 0.71574 0.78568 0.40273 0.0
H858 H 0.66446 0.69532 0.38871 0.0
H859 H 0.62345 0.7002 0.40728 0.0
H860 H 0.73517 0.68848 0.38957 0.0
H861 H 0.69797 0.80696 0.3631 0.0
H862 H 0.70808 0.81372 0.38054 0.0
H863 H 0.67201 0.78787 0.37607 0.0
C864 C 0.67205 0.77008 0.41408 0.0
C865 C 0.64574 0.74614 0.41557 0.0
C866 C 0.69543 0.76716 0.40355 0.0
C867 C 0.6928 0.74044 0.39423 0.0
C868 C 0.66679 0.71624 0.39576 0.0
H869 H 0.80623 0.74406 0.319 0.0
H870 H 0.76137 0.73908 0.33594 0.0
C871 C 0.64336 0.71911 0.40634 0.0
C872 C 0.7176 0.7377 0.38303 0.0
H873 H 0.75061 0.78184 0.35646 0.0
C874 C 0.7384 0.70872 0.38224 0.0
C875 C 0.7214 0.76392 0.37338 0.0
C876 C 0.69845 0.79472 0.3732 0.0
C877 C 0.76366 0.70575 0.37228 0.0
C878 C 0.76858 0.73278 0.36305 0.0
C879 C 0.74708 0.76127 0.36362 0.0
C880 C 0.79592 0.73239 0.35273 0.0
C881 C 0.7846 0.67362 0.37168 0.0
C882 C 0.8303 0.72999 0.35652 0.0
C883 C 0.85604 0.73256 0.34681 0.0
C884 C 0.84779 0.73806 0.3332 0.0
C885 C 0.81337 0.73989 0.32942 0.0
C886 C 0.7877 0.73706 0.33909 0.0
H887 H 0.77126 0.65196 0.37657 0.0
H888 H 0.79057 0.66656 0.3611 0.0
H889 H 0.80893 0.67774 0.37712 0.0
H890 H 0.83728 0.72719 0.36702 0.0
H891 H 0.88236 0.73129 0.35003 0.0
H892 H 0.78483 0.18261 0.67317 0.0
H893 H 0.77751 0.22443 0.65526 0.0
H894 H 0.70139 0.16084 0.63663 0.0
H895 H 0.70902 0.1183 0.65453 0.0
H896 H 0.74805 0.18533 0.61846 0.0
H897 H 0.69958 0.29082 0.64995 0.0
H898 H 0.73883 0.27401 0.65634 0.0
H899 H 0.70149 0.24745 0.65591 0.0
C900 C 0.7664 0.17751 0.6653 0.0
C901 C 0.74739 0.14721 0.66528 0.0
C902 C 0.76206 0.2016 0.65512 0.0
C903 C 0.73837 0.19612 0.64477 0.0
C904 C 0.71956 0.16571 0.64461 0.0
H905 H 0.69629 0.36064 0.58712 0.0
H906 H 0.68915 0.31633 0.60431 0.0
C907 C 0.72396 0.14145 0.65482 0.0
C908 C 0.73467 0.22161 0.63385 0.0
H909 H 0.72216 0.30642 0.62825 0.0
C910 C 0.74192 0.21172 0.62056 0.0
C911 C 0.72607 0.25591 0.63655 0.0
C912 C 0.71569 0.26762 0.65044 0.0
C913 C 0.74254 0.23557 0.61003 0.0
C914 C 0.73643 0.2703 0.61293 0.0
C915 C 0.7274 0.27988 0.62608 0.0
C916 C 0.74062 0.29722 0.60258 0.0
C917 C 0.7499 0.22332 0.59591 0.0
C918 C 0.77213 0.30168 0.59615 0.0
C919 C 0.77625 0.32684 0.58635 0.0
C920 C 0.74903 0.34831 0.58289 0.0
C921 C 0.71772 0.34444 0.58958 0.0
C922 C 0.71358 0.31912 0.59937 0.0
H923 H 0.74329 0.19601 0.59469 0.0
H924 H 0.73558 0.23835 0.58831 0.0
H925 H 0.7775 0.22616 0.59382 0.0
H926 H 0.79362 0.28569 0.59874 0.0
H927 H 0.80074 0.32934 0.58143 0.0
H928 H 0.11046 0.22099 0.90321 0.0
H929 H 0.15269 0.21432 0.88514 0.0
H930 H 0.22531 0.27203 0.90838 0.0
H931 H 0.18347 0.27887 0.92637 0.0
H932 H 0.21594 0.29428 0.88118 0.0
H933 H 0.24138 0.15532 0.88499 0.0
H934 H 0.1974 0.1679 0.88408 0.0
H935 H 0.2223 0.17939 0.89854 0.0
C936 C 0.13551 0.23204 0.90448 0.0
C937 C 0.14367 0.25047 0.91619 0.0
C938 C 0.15962 0.22805 0.8942 0.0
C939 C 0.19217 0.24241 0.89552 0.0
C940 C 0.20036 0.26064 0.90722 0.0
H941 H 0.3779 0.22581 0.84896 0.0
H942 H 0.33362 0.22249 0.86637 0.0
C943 C 0.17641 0.26452 0.91748 0.0
C944 C 0.21732 0.24016 0.88445 0.0
H945 H 0.2684 0.185 0.86717 0.0
C946 C 0.22736 0.2704 0.87808 0.0
C947 C 0.23232 0.20897 0.88057 0.0
C948 C 0.2231 0.17599 0.88743 0.0
C949 C 0.252 0.27031 0.86786 0.0
C950 C 0.2667 0.23909 0.86384 0.0
C951 C 0.25685 0.20882 0.87025 0.0
C952 C 0.29273 0.23777 0.85308 0.0
C953 C 0.26259 0.30372 0.86162 0.0
C954 C 0.28412 0.24661 0.83982 0.0
C955 C 0.30925 0.24857 0.82991 0.0
C956 C 0.34343 0.24163 0.83308 0.0
C957 C 0.35179 0.23141 0.84625 0.0
C958 C 0.32656 0.22944 0.85618 0.0
H959 H 0.25428 0.32583 0.86777 0.0
H960 H 0.29066 0.30487 0.86038 0.0
H961 H 0.25087 0.30606 0.85149 0.0
H962 H 0.25805 0.25271 0.83722 0.0
H963 H 0.30198 0.25628 0.81982 0.0
H964 H 0.20502 0.61877 0.15832 0.0
H965 H 0.19727 0.66279 0.14104 0.0
H966 H 0.29125 0.71027 0.15345 0.0
H967 H 0.29826 0.66739 0.17102 0.0
H968 H 0.24382 0.75666 0.14974 0.0
H969 H 0.24513 0.6699 0.10557 0.0
H970 H 0.21212 0.6607 0.11752 0.0
H971 H 0.25602 0.65572 0.12231 0.0
C972 C 0.22402 0.63857 0.15729 0.0
C973 C 0.2523 0.63962 0.16595 0.0
C974 C 0.21969 0.66359 0.14738 0.0
C975 C 0.24397 0.68956 0.14579 0.0
C976 C 0.27216 0.69053 0.15447 0.0
H977 H 0.29048 0.81243 0.07732 0.0
H978 H 0.28483 0.77001 0.09512 0.0
C979 C 0.2762 0.66593 0.16449 0.0
C980 C 0.24031 0.71608 0.13521 0.0
H981 H 0.23515 0.72804 0.10119 0.0
C982 C 0.24184 0.75042 0.13911 0.0
C983 C 0.23792 0.7079 0.12135 0.0
C984 C 0.23802 0.67158 0.11639 0.0
C985 C 0.24212 0.77676 0.12955 0.0
C986 C 0.23955 0.76859 0.11569 0.0
C987 C 0.23696 0.73429 0.11182 0.0
C988 C 0.24232 0.79482 0.10495 0.0
C989 C 0.24681 0.81287 0.13439 0.0
C990 C 0.22024 0.82295 0.10448 0.0
C991 C 0.22391 0.8477 0.09442 0.0
C992 C 0.24918 0.84424 0.0845 0.0
C993 C 0.27074 0.81576 0.08483 0.0
C994 C 0.26747 0.79143 0.09499 0.0
H995 H 0.25726 0.81379 0.1448 0.0
H996 H 0.26418 0.82723 0.12764 0.0
H997 H 0.22177 0.82593 0.13448 0.0
H998 H 0.20007 0.82569 0.11184 0.0
H999 H 0.20671 0.86924 0.0943 0.0
H1000 H 0.86698 0.80134 0.90801 0.0
H1001 H 0.82325 0.80761 0.89051 0.0
H1002 H 0.77496 0.71533 0.90426 0.0
H1003 H 0.81791 0.70932 0.92186 0.0
H1004 H 0.80786 0.76538 0.86982 0.0
H1005 H 0.69497 0.77977 0.90258 0.0
H1006 H 0.73788 0.7835 0.90892 0.0
H1007 H 0.71872 0.74223 0.90671 0.0
C1008 C 0.84686 0.78256 0.90734 0.0
C1009 C 0.84574 0.75494 0.91633 0.0
C1010 C 0.82192 0.78618 0.89736 0.0
C1011 C 0.79544 0.76232 0.89627 0.0
C1012 C 0.79456 0.73457 0.90516 0.0
H1013 H 0.67739 0.7005 0.82842 0.0
H1014 H 0.71922 0.70989 0.84623 0.0
C1015 C 0.81932 0.73103 0.91515 0.0
C1016 C 0.76966 0.76516 0.88541 0.0
H1017 H 0.68404 0.76301 0.87962 0.0
C1018 C 0.78078 0.76536 0.87196 0.0
C1019 C 0.73433 0.7658 0.88819 0.0
C1020 C 0.72077 0.7682 0.90239 0.0
C1021 C 0.75752 0.76438 0.86123 0.0
C1022 C 0.72226 0.76235 0.86405 0.0
C1023 C 0.71109 0.76399 0.87747 0.0
C1024 C 0.69669 0.75692 0.85326 0.0
C1025 C 0.77101 0.76537 0.84699 0.0
C1026 C 0.66936 0.77956 0.85162 0.0
C1027 C 0.64506 0.77397 0.84154 0.0
C1028 C 0.64771 0.7456 0.83298 0.0
C1029 C 0.67482 0.72274 0.83479 0.0
C1030 C 0.69892 0.72823 0.84489 0.0
H1031 H 0.79629 0.77801 0.84653 0.0
H1032 H 0.77419 0.73895 0.84325 0.0
H1033 H 0.75327 0.77897 0.84014 0.0
H1034 H 0.66698 0.80169 0.85806 0.0
H1035 H 0.62441 0.792 0.84038 0.0
H1036 H 0.70319 0.17578 0.07687 0.0
H1037 H 0.7086 0.21918 0.09433 0.0
H1038 H 0.78861 0.16115 0.11326 0.0
H1039 H 0.78374 0.11769 0.0956 0.0
H1040 H 0.69989 0.21305 0.12162 0.0
H1041 H 0.83126 0.25568 0.10961 0.0
H1042 H 0.80656 0.22949 0.09831 0.0
H1043 H 0.82703 0.21084 0.11273 0.0
C1044 C 0.722 0.17223 0.08473 0.0
C1045 C 0.74313 0.14338 0.08485 0.0
C1046 C 0.72505 0.19707 0.0947 0.0
C1047 C 0.74932 0.19364 0.10498 0.0
C1048 C 0.77019 0.16463 0.10526 0.0
H1049 H 0.74406 0.31232 0.17901 0.0
H1050 H 0.74489 0.26652 0.16235 0.0
C1051 C 0.76721 0.13973 0.09523 0.0
C1052 C 0.75198 0.22024 0.11552 0.0
H1053 H 0.8056 0.27951 0.12907 0.0
C1054 C 0.72302 0.22755 0.12327 0.0
C1055 C 0.78206 0.23941 0.11751 0.0
C1056 C 0.81344 0.23377 0.10903 0.0
C1057 C 0.72328 0.25346 0.13299 0.0
C1058 C 0.75357 0.27212 0.1352 0.0
C1059 C 0.78252 0.26495 0.12742 0.0
C1060 C 0.75537 0.29959 0.14541 0.0
C1061 C 0.69084 0.26118 0.14055 0.0
C1062 C 0.76227 0.33321 0.14147 0.0
C1063 C 0.76211 0.35946 0.151 0.0
C1064 C 0.75509 0.35242 0.16461 0.0
C1065 C 0.74923 0.31858 0.16857 0.0
C1066 C 0.74954 0.29239 0.15906 0.0
H1067 H 0.66811 0.25091 0.13527 0.0
H1068 H 0.69203 0.24924 0.15068 0.0
H1069 H 0.68747 0.28903 0.14191 0.0
H1070 H 0.767 0.33925 0.13098 0.0
H1071 H 0.76682 0.38529 0.14767 0.0
H1072 H 0.95553 0.8569 0.33042 0.0
H1073 H 0.97337 0.91633 0.3324 0.0
H1074 H 0.94147 0.93477 0.29144 0.0
H1075 H 0.92318 0.87547 0.28942 0.0
H1076 H 0.0231 0.94658 0.31663 0.0
H1077 H 0.90045 0.01541 0.31193 0.0
H1078 H 0.90282 0.97053 0.31574 0.0
H1079 H 0.90785 0.98518 0.29868 0.0
C1080 C 0.9518 0.87375 0.32191 0.0
C1081 C 0.93796 0.86158 0.30976 0.0
C1082 C 0.96205 0.90765 0.32305 0.0
C1083 C 0.95844 0.92997 0.31211 0.0
C1084 C 0.94387 0.9181 0.30008 0.0
H1085 H 0.07047 0.1116 0.29282 0.0
H1086 H 0.04765 0.05387 0.29474 0.0
C1087 C 0.93359 0.88419 0.29893 0.0
C1088 C 0.97228 0.96491 0.31293 0.0
H1089 H 0.95101 0.04865 0.30953 0.0
C1090 C 0.00731 0.96893 0.3152 0.0
C1091 C 0.95154 0.99397 0.31119 0.0
C1092 C 0.91352 0.99119 0.30938 0.0
C1093 C 0.02237 0.00128 0.31539 0.0
C1094 C 0.00187 0.03023 0.31306 0.0
C1095 C 0.96668 0.02631 0.31119 0.0
C1096 C 0.01657 0.0648 0.31223 0.0
C1097 C 0.06004 0.00419 0.31812 0.0
C1098 C 0.00631 0.09009 0.32133 0.0
C1099 C 0.01923 0.12309 0.32024 0.0
C1100 C 0.04242 0.13135 0.30996 0.0
C1101 C 0.05279 0.10591 0.3009 0.0
C1102 C 0.03989 0.07292 0.30201 0.0
H1103 H 0.07012 0.98111 0.32321 0.0
H1104 H 0.07375 0.0072 0.30841 0.0
H1105 H 0.0657 0.02673 0.32448 0.0
H1106 H 0.98821 0.0843 0.32925 0.0
H1107 H 0.01069 0.14222 0.32734 0.0
H1108 H 0.85555 0.01987 0.67553 0.0
H1109 H 0.91372 0.99771 0.67505 0.0
H1110 H 0.93804 0.05584 0.71064 0.0
H1111 H 0.87991 0.07838 0.71114 0.0
H1112 H 0.98756 0.05942 0.68984 0.0
H1113 H 0.95104 0.92622 0.70185 0.0
H1114 H 0.92892 0.94459 0.68775 0.0
H1115 H 0.9226 0.96177 0.70435 0.0
C1116 C 0.87334 0.02808 0.68321 0.0
C1117 C 0.8632 0.05074 0.69341 0.0
C1118 C 0.90645 0.01522 0.68297 0.0
C1119 C 0.92988 0.02471 0.69294 0.0
C1120 C 0.92016 0.04808 0.70291 0.0
H1121 H 0.12387 0.93277 0.71306 0.0
H1122 H 0.06486 0.95294 0.71292 0.0
C1123 C 0.88702 0.06093 0.70318 0.0
C1124 C 0.96462 0.01031 0.69296 0.0
H1125 H 0.00873 0.93582 0.69585 0.0
C1126 C 0.99225 0.03243 0.69117 0.0
C1127 C 0.97053 0.97513 0.69486 0.0
C1128 C 0.94177 0.95051 0.69743 0.0
C1129 C 0.02577 0.02019 0.69102 0.0
C1130 C 0.03162 0.98488 0.69253 0.0
C1131 C 0.00403 0.96283 0.69455 0.0
C1132 C 0.06637 0.97053 0.69226 0.0
C1133 C 0.05468 0.04518 0.68946 0.0
C1134 C 0.08626 0.97289 0.68056 0.0
C1135 C 0.11987 0.96139 0.6806 0.0
C1136 C 0.13405 0.94723 0.69234 0.0
C1137 C 0.11362 0.94364 0.70388 0.0
C1138 C 0.07997 0.95515 0.70383 0.0
H1139 H 0.04647 0.07169 0.69159 0.0
H1140 H 0.07608 0.03863 0.6963 0.0
H1141 H 0.06424 0.04421 0.67894 0.0
H1142 H 0.07594 0.98414 0.67147 0.0
H1143 H 0.13496 0.96433 0.67154 0.0
H1144 H 0.02768 0.36587 0.92462 0.0
H1145 H 0.00831 0.42499 0.92423 0.0
H1146 H 0.05691 0.44276 0.96258 0.0
H1147 H 0.0766 0.38362 0.96302 0.0
H1148 H 0.9658 0.45476 0.94414 0.0
H1149 H 0.08881 0.52332 0.93875 0.0
H1150 H 0.08413 0.47865 0.93488 0.0
H1151 H 0.08729 0.4924 0.9521 0.0
C1152 C 0.03465 0.38248 0.93289 0.0
C1153 C 0.05367 0.37018 0.94385 0.0
C1154 C 0.0235 0.41619 0.93266 0.0
C1155 C 0.0314 0.43821 0.94333 0.0
C1156 C 0.051 0.42624 0.95416 0.0
H1157 H 0.92994 0.62695 0.96469 0.0
H1158 H 0.95225 0.56874 0.96416 0.0
C1159 C 0.06212 0.39247 0.95441 0.0
C1160 C 0.01742 0.47311 0.94345 0.0
H1161 H 0.03992 0.55695 0.94316 0.0
C1162 C 0.98195 0.47714 0.9439 0.0
C1163 C 0.03864 0.50212 0.94303 0.0
C1164 C 0.07684 0.49909 0.94205 0.0
C1165 C 0.96707 0.50956 0.94408 0.0
C1166 C 0.98831 0.53858 0.94396 0.0
C1167 C 0.02377 0.53456 0.94335 0.0
C1168 C 0.97419 0.57341 0.94423 0.0
C1169 C 0.92878 0.51254 0.94419 0.0
C1170 C 0.97949 0.59528 0.93326 0.0
C1171 C 0.96684 0.62845 0.93354 0.0
C1172 C 0.94888 0.64036 0.94485 0.0
C1173 C 0.94353 0.61837 0.95582 0.0
C1174 C 0.95615 0.58514 0.95551 0.0
H1175 H 0.91627 0.48833 0.9412 0.0
H1176 H 0.92017 0.51908 0.95453 0.0
H1177 H 0.92018 0.53304 0.93728 0.0
H1178 H 0.99344 0.58665 0.92448 0.0
H1179 H 0.97146 0.64487 0.92496 0.0
H1180 H 0.38178 0.89459 0.04332 0.0
H1181 H 0.44202 0.91056 0.04402 0.0
H1182 H 0.41861 0.99088 0.07219 0.0
H1183 H 0.35879 0.97421 0.07193 0.0
H1184 H 0.47012 0.96798 0.03627 0.0
H1185 H 0.49936 0.94954 0.09028 0.0
H1186 H 0.46077 0.93364 0.08269 0.0
H1187 H 0.46366 0.97736 0.08805 0.0
C1188 C 0.38964 0.91529 0.04982 0.0
C1189 C 0.3657 0.93305 0.05763 0.0
C1190 C 0.42401 0.92442 0.0502 0.0
C1191 C 0.43495 0.95157 0.05833 0.0
C1192 C 0.41101 0.96922 0.06616 0.0
H1193 H 0.61329 0.07585 0.04457 0.0
H1194 H 0.55619 0.05105 0.0454 0.0
C1195 C 0.37676 0.95981 0.06593 0.0
C1196 C 0.4709 0.96302 0.05791 0.0
H1197 H 0.53836 0.9846 0.07781 0.0
C1198 C 0.48518 0.97124 0.04535 0.0
C1199 C 0.49075 0.9668 0.06972 0.0
C1200 C 0.47795 0.956 0.08342 0.0
C1201 C 0.51839 0.98404 0.0443 0.0
C1202 C 0.53743 0.98985 0.05619 0.0
C1203 C 0.52355 0.98067 0.06872 0.0
C1204 C 0.57186 0.00528 0.05587 0.0
C1205 C 0.5328 0.99074 0.03044 0.0
C1206 C 0.59938 0.98847 0.06195 0.0
C1207 C 0.63182 0.00294 0.06175 0.0
C1208 C 0.63736 0.03439 0.05538 0.0
C1209 C 0.60977 0.05141 0.04943 0.0
C1210 C 0.57721 0.03713 0.0498 0.0
H1211 H 0.51983 0.97512 0.02264 0.0
H1212 H 0.52883 0.01789 0.02781 0.0
H1213 H 0.5605 0.98524 0.03006 0.0
H1214 H 0.5958 0.96397 0.06676 0.0
H1215 H 0.65266 0.98925 0.06642 0.0
H1216 H 0.44745 0.36152 0.82991 0.0
H1217 H 0.46648 0.42066 0.83156 0.0
H1218 H 0.44269 0.43597 0.78954 0.0
H1219 H 0.4232 0.37702 0.78785 0.0
H1220 H 0.51977 0.44797 0.81698 0.0
H1221 H 0.40067 0.51969 0.80741 0.0
H1222 H 0.40087 0.47515 0.8119 0.0
H1223 H 0.40961 0.48806 0.79485 0.0
C1224 C 0.44572 0.37766 0.82108 0.0
C1225 C 0.43384 0.3647 0.80874 0.0
C1226 C 0.45665 0.41139 0.82204 0.0
C1227 C 0.45569 0.43273 0.81071 0.0
C1228 C 0.44301 0.4201 0.79847 0.0
H1229 H 0.57704 0.60884 0.79202 0.0
H1230 H 0.55241 0.55191 0.79424 0.0
C1231 C 0.43204 0.38638 0.7975 0.0
C1232 C 0.47043 0.46732 0.8114 0.0
H1233 H 0.45262 0.55113 0.80589 0.0
C1234 C 0.50503 0.47058 0.81468 0.0
C1235 C 0.45104 0.49673 0.80853 0.0
C1236 C 0.41341 0.49487 0.8056 0.0
C1237 C 0.52105 0.50246 0.81478 0.0
C1238 C 0.50203 0.53169 0.8113 0.0
C1239 C 0.46719 0.52857 0.80842 0.0
C1240 C 0.51792 0.56571 0.81036 0.0
C1241 C 0.55814 0.50459 0.81863 0.0
C1242 C 0.50639 0.59234 0.81858 0.0
C1243 C 0.52031 0.62488 0.81729 0.0
C1244 C 0.54584 0.63133 0.8077 0.0
C1245 C 0.55755 0.60455 0.79955 0.0
C1246 C 0.54361 0.57201 0.80085 0.0
H1247 H 0.56639 0.48189 0.82446 0.0
H1248 H 0.57383 0.50591 0.80934 0.0
H1249 H 0.5633 0.52774 0.82472 0.0
H1250 H 0.48647 0.58797 0.82593 0.0
H1251 H 0.51071 0.64506 0.82368 0.0
H1252 H 0.63363 0.44022 0.21306 0.0
H1253 H 0.57402 0.4587 0.2127 0.0
H1254 H 0.58065 0.47587 0.16986 0.0
H1255 H 0.64029 0.45759 0.17009 0.0
H1256 H 0.55514 0.53271 0.19573 0.0
H1257 H 0.49007 0.41008 0.18405 0.0
H1258 H 0.52827 0.411 0.1942 0.0
H1259 H 0.53073 0.42019 0.17654 0.0
C1260 C 0.62228 0.44754 0.20354 0.0
C1261 C 0.64158 0.44754 0.1916 0.0
C1262 C 0.58834 0.45811 0.20337 0.0
C1263 C 0.57323 0.46856 0.19126 0.0
C1264 C 0.59207 0.4678 0.17928 0.0
H1265 H 0.36523 0.52618 0.17279 0.0
H1266 H 0.42448 0.5071 0.17168 0.0
C1267 C 0.62604 0.45735 0.17944 0.0
C1268 C 0.53822 0.48191 0.19124 0.0
H1269 H 0.45542 0.45842 0.18699 0.0
C1270 C 0.53324 0.51659 0.19383 0.0
C1271 C 0.51006 0.4607 0.1886 0.0
C1272 C 0.5147 0.42335 0.18568 0.0
C1273 C 0.50048 0.53076 0.19387 0.0
C1274 C 0.47207 0.5094 0.19155 0.0
C1275 C 0.47723 0.47471 0.18881 0.0
C1276 C 0.43673 0.5224 0.19207 0.0
C1277 C 0.49669 0.56854 0.19617 0.0
C1278 C 0.42402 0.53729 0.2039 0.0
C1279 C 0.39032 0.54847 0.20452 0.0
C1280 C 0.36864 0.54451 0.19337 0.0
C1281 C 0.38141 0.52963 0.18153 0.0
C1282 C 0.41518 0.51866 0.18089 0.0
H1283 H 0.5206 0.58242 0.19381 0.0
H1284 H 0.47584 0.57926 0.18992 0.0
H1285 H 0.49055 0.57317 0.20693 0.0
H1286 H 0.43998 0.53968 0.21276 0.0
H1287 H 0.38107 0.55954 0.21383 0.0
H1288 H 0.48073 0.13436 0.43257 0.0
H1289 H 0.50044 0.07542 0.43284 0.0
H1290 H 0.42354 0.05028 0.46226 0.0
H1291 H 0.40425 0.10955 0.46232 0.0
H1292 H 0.48531 0.02535 0.46918 0.0
H1293 H 0.45721 0.99256 0.41601 0.0
H1294 H 0.48373 0.0295 0.41758 0.0
H1295 H 0.44083 0.03048 0.42395 0.0
C1296 C 0.46778 0.1162 0.439 0.0
C1297 C 0.44085 0.12647 0.44738 0.0
C1298 C 0.47897 0.08249 0.43909 0.0
C1299 C 0.4631 0.05835 0.4474 0.0
C1300 C 0.43603 0.0685 0.45572 0.0
H1301 H 0.49295 0.84069 0.44107 0.0
H1302 H 0.47038 0.89856 0.44135 0.0
C1303 C 0.42499 0.1023 0.45572 0.0
C1304 C 0.47567 0.02284 0.44783 0.0
H1305 H 0.49243 0.95373 0.42812 0.0
C1306 C 0.48667 0.00957 0.46023 0.0
C1307 C 0.47708 0.00222 0.43616 0.0
C1308 C 0.46376 0.01427 0.4227 0.0
C1309 C 0.49952 0.97636 0.46124 0.0
C1310 C 0.50218 0.95623 0.44947 0.0
C1311 C 0.49073 0.96935 0.43711 0.0
C1312 C 0.51593 0.92114 0.44975 0.0
C1313 C 0.50948 0.96299 0.47495 0.0
C1314 C 0.54913 0.91463 0.45433 0.0
C1315 C 0.562 0.88145 0.45431 0.0
C1316 C 0.54203 0.8544 0.4495 0.0
C1317 C 0.50894 0.86105 0.44482 0.0
C1318 C 0.49601 0.89409 0.44497 0.0
H1319 H 0.49703 0.97757 0.48319 0.0
H1320 H 0.50263 0.93571 0.47605 0.0
H1321 H 0.53742 0.96549 0.47623 0.0
H1322 H 0.56525 0.93524 0.45776 0.0
H1323 H 0.58769 0.87705 0.45787 0.0
H1324 H 0.84646 0.501 0.55852 0.0
H1325 H 0.90404 0.5242 0.55715 0.0
H1326 H 0.93791 0.43306 0.53695 0.0
H1327 H 0.88001 0.41005 0.53796 0.0
H1328 H 0.96114 0.4999 0.56817 0.0
H1329 H 0.9764 0.50627 0.51268 0.0
H1330 H 0.93569 0.49927 0.52065 0.0
H1331 H 0.96512 0.46459 0.51857 0.0
C1332 C 0.86613 0.48598 0.5537 0.0
C1333 C 0.85878 0.45374 0.54832 0.0
C1334 C 0.89899 0.49928 0.55292 0.0
C1335 C 0.92516 0.48061 0.54677 0.0
C1336 C 0.91794 0.44829 0.54145 0.0
H1337 H 0.13982 0.50786 0.56109 0.0
H1338 H 0.08077 0.48877 0.56014 0.0
C1339 C 0.88493 0.43505 0.54213 0.0
C1340 C 0.96027 0.49437 0.54657 0.0
H1341 H 0.02677 0.51407 0.52581 0.0
C1342 C 0.9754 0.5032 0.5589 0.0
C1343 C 0.97866 0.49916 0.53444 0.0
C1344 C 0.96304 0.49216 0.52082 0.0
C1345 C 0.00866 0.516 0.55948 0.0
C1346 C 0.02764 0.51923 0.54742 0.0
C1347 C 0.01228 0.5112 0.53505 0.0
C1348 C 0.06366 0.53032 0.54752 0.0
C1349 C 0.02296 0.52633 0.573 0.0
C1350 C 0.07391 0.55932 0.5403 0.0
C1351 C 0.10786 0.57008 0.54069 0.0
C1352 C 0.13197 0.55197 0.5483 0.0
C1353 C 0.12172 0.52258 0.55527 0.0
C1354 C 0.08795 0.51172 0.5548 0.0
H1355 H 0.0024 0.53207 0.58035 0.0
H1356 H 0.03829 0.50505 0.57715 0.0
H1357 H 0.03964 0.54902 0.57208 0.0
H1358 H 0.05556 0.57387 0.53454 0.0
H1359 H 0.11511 0.59274 0.53517 0.0
loop_
_geom_bond_atom_site_label_1
_geom_bond_atom_site_label_2
_geom_bond_distance
_geom_bond_site_symmetry_2
_ccdc_geom_bond_type
In0 O1 2.294 . S
In0 O2 2.326 . S
In0 O6 2.266 . S
In0 O7 2.326 . S
In0 O8 2.266 . S
In0 O9 2.326 . S
In0 O11 2.294 . S
In0 O12 2.326 . S
O1 In0 2.294 . S
O1 C10 1.240 . S
O2 In0 2.326 . S
O2 C10 1.252 . S
C3 O6 1.252 . S
C3 O7 1.260 . S
C4 O11 1.240 . S
C4 O12 1.252 . S
C5 O8 1.252 . S
C5 O9 1.260 . S
O6 In0 2.266 . S
O6 C3 1.252 . S
O7 In0 2.326 . S
O7 C3 1.260 . S
O8 In0 2.266 . S
O8 C5 1.252 . S
O9 In0 2.326 . S
O9 C5 1.260 . S
C10 O1 1.240 . S
C10 O2 1.252 . S
O11 In0 2.294 . S
O11 C4 1.240 . S
O12 In0 2.326 . S
O12 C4 1.252 . S
In13 O14 2.294 . S
In13 O15 2.326 . S
In13 O19 2.266 . S
In13 O20 2.326 . S
In13 O21 2.266 . S
In13 O22 2.326 . S
In13 O24 2.294 . S
In13 O25 2.326 . S
O14 In13 2.294 . S
O14 C23 1.240 . S
O15 In13 2.326 . S
O15 C23 1.252 . S
C16 O19 1.252 . S
C16 O20 1.260 . S
C17 O24 1.240 . S
C17 O25 1.252 . S
C18 O21 1.252 . S
C18 O22 1.260 . S
O19 In13 2.266 . S
O19 C16 1.252 . S
O20 In13 2.326 . S
O20 C16 1.260 . S
O21 In13 2.266 . S
O21 C18 1.252 . S
O22 In13 2.326 . S
O22 C18 1.260 . S
C23 O14 1.240 . S
C23 O15 1.252 . S
O24 In13 2.294 . S
O24 C17 1.240 . S
O25 In13 2.326 . S
O25 C17 1.252 . S
In26 O27 2.294 . S
In26 O28 2.326 . S
In26 O32 2.266 . S
In26 O33 2.326 . S
In26 O34 2.266 . S
In26 O35 2.326 . S
In26 O37 2.294 . S
In26 O38 2.326 . S
O27 In26 2.294 . S
O27 C36 1.240 . S
O28 In26 2.326 . S
O28 C36 1.252 . S
C29 O32 1.252 . S
C29 O33 1.260 . S
C30 O37 1.240 . S
C30 O38 1.252 . S
C31 O34 1.252 . S
C31 O35 1.260 . S
O32 In26 2.266 . S
O32 C29 1.252 . S
O33 In26 2.326 . S
O33 C29 1.260 . S
O34 In26 2.266 . S
O34 C31 1.252 . S
O35 In26 2.326 . S
O35 C31 1.260 . S
C36 O27 1.240 . S
C36 O28 1.252 . S
O37 In26 2.294 . S
O37 C30 1.240 . S
O38 In26 2.326 . S
O38 C30 1.252 . S
In39 O40 2.294 . S
In39 O41 2.326 . S
In39 O45 2.266 . S
In39 O46 2.326 . S
In39 O47 2.266 . S
In39 O48 2.326 . S
In39 O50 2.294 . S
In39 O51 2.326 . S
O40 In39 2.294 . S
O40 C49 1.240 . S
O41 In39 2.326 . S
O41 C49 1.252 . S
C42 O45 1.252 . S
C42 O46 1.260 . S
C43 O50 1.240 . S
C43 O51 1.252 . S
C44 O47 1.252 . S
C44 O48 1.260 . S
O45 In39 2.266 . S
O45 C42 1.252 . S
O46 In39 2.326 . S
O46 C42 1.260 . S
O47 In39 2.266 . S
O47 C44 1.252 . S
O48 In39 2.326 . S
O48 C44 1.260 . S
C49 O40 1.240 . S
C49 O41 1.252 . S
O50 In39 2.294 . S
O50 C43 1.240 . S
O51 In39 2.326 . S
O51 C43 1.252 . S
In52 O53 2.294 . S
In52 O54 2.326 . S
In52 O58 2.266 . S
In52 O59 2.326 . S
In52 O60 2.266 . S
In52 O61 2.326 . S
In52 O63 2.294 . S
In52 O64 2.326 . S
O53 In52 2.294 . S
O53 C62 1.240 . S
O54 In52 2.326 . S
O54 C62 1.252 . S
C55 O58 1.252 . S
C55 O59 1.260 . S
C56 O63 1.240 . S
C56 O64 1.252 . S
C57 O60 1.252 . S
C57 O61 1.260 . S
O58 In52 2.266 . S
O58 C55 1.252 . S
O59 In52 2.326 . S
O59 C55 1.260 . S
O60 In52 2.266 . S
O60 C57 1.252 . S
O61 In52 2.326 . S
O61 C57 1.260 . S
C62 O53 1.240 . S
C62 O54 1.252 . S
O63 In52 2.294 . S
O63 C56 1.240 . S
O64 In52 2.326 . S
O64 C56 1.252 . S
In65 O66 2.294 . S
In65 O67 2.326 . S
In65 O71 2.266 . S
In65 O72 2.326 . S
In65 O73 2.266 . S
In65 O74 2.326 . S
In65 O76 2.294 . S
In65 O77 2.326 . S
O66 In65 2.294 . S
O66 C75 1.240 . S
O67 In65 2.326 . S
O67 C75 1.252 . S
C68 O71 1.252 . S
C68 O72 1.260 . S
C69 O76 1.240 . S
C69 O77 1.252 . S
C70 O73 1.252 . S
C70 O74 1.260 . S
O71 In65 2.266 . S
O71 C68 1.252 . S
O72 In65 2.326 . S
O72 C68 1.260 . S
O73 In65 2.266 . S
O73 C70 1.252 . S
O74 In65 2.326 . S
O74 C70 1.260 . S
C75 O66 1.240 . S
C75 O67 1.252 . S
O76 In65 2.294 . S
O76 C69 1.240 . S
O77 In65 2.326 . S
O77 C69 1.252 . S
In78 O79 2.294 . S
In78 O80 2.326 . S
In78 O84 2.266 . S
In78 O85 2.326 . S
In78 O86 2.266 . S
In78 O87 2.326 . S
In78 O89 2.294 . S
In78 O90 2.326 . S
O79 In78 2.294 . S
O79 C88 1.240 . S
O80 In78 2.326 . S
O80 C88 1.252 . S
C81 O84 1.252 . S
C81 O85 1.260 . S
C82 O89 1.240 . S
C82 O90 1.252 . S
C83 O86 1.252 . S
C83 O87 1.260 . S
O84 In78 2.266 . S
O84 C81 1.252 . S
O85 In78 2.326 . S
O85 C81 1.260 . S
O86 In78 2.266 . S
O86 C83 1.252 . S
O87 In78 2.326 . S
O87 C83 1.260 . S
C88 O79 1.240 . S
C88 O80 1.252 . S
O89 In78 2.294 . S
O89 C82 1.240 . S
O90 In78 2.326 . S
O90 C82 1.252 . S
In91 O92 2.294 . S
In91 O93 2.326 . S
In91 O97 2.266 . S
In91 O98 2.326 . S
In91 O99 2.266 . S
In91 O100 2.326 . S
In91 O102 2.294 . S
In91 O103 2.326 . S
O92 In91 2.294 . S
O92 C101 1.240 . S
O93 In91 2.326 . S
O93 C101 1.252 . S
C94 O97 1.252 . S
C94 O98 1.260 . S
C95 O102 1.240 . S
C95 O103 1.252 . S
C96 O99 1.252 . S
C96 O100 1.260 . S
O97 In91 2.266 . S
O97 C94 1.252 . S
O98 In91 2.326 . S
O98 C94 1.260 . S
O99 In91 2.266 . S
O99 C96 1.252 . S
O100 In91 2.326 . S
O100 C96 1.260 . S
C101 O92 1.240 . S
C101 O93 1.252 . S
O102 In91 2.294 . S
O102 C95 1.240 . S
O103 In91 2.326 . S
O103 C95 1.252 . S
In104 O105 2.294 . S
In104 O106 2.326 . S
In104 O110 2.266 . S
In104 O111 2.326 . S
In104 O112 2.266 . S
In104 O113 2.326 . S
In104 O115 2.294 . S
In104 O116 2.326 . S
O105 In104 2.294 . S
O105 C114 1.240 . S
O106 In104 2.326 . S
O106 C114 1.252 . S
C107 O110 1.252 . S
C107 O111 1.260 . S
C108 O115 1.240 . S
C108 O116 1.252 . S
C109 O112 1.252 . S
C109 O113 1.260 . S
O110 In104 2.266 . S
O110 C107 1.252 . S
O111 In104 2.326 . S
O111 C107 1.260 . S
O112 In104 2.266 . S
O112 C109 1.252 . S
O113 In104 2.326 . S
O113 C109 1.260 . S
C114 O105 1.240 . S
C114 O106 1.252 . S
O115 In104 2.294 . S
O115 C108 1.240 . S
O116 In104 2.326 . S
O116 C108 1.252 . S
In117 O118 2.294 . S
In117 O119 2.326 . S
In117 O123 2.266 . S
In117 O124 2.326 . S
In117 O125 2.266 . S
In117 O126 2.326 . S
In117 O128 2.294 . S
In117 O129 2.326 . S
O118 In117 2.294 . S
O118 C127 1.240 . S
O119 In117 2.326 . S
O119 C127 1.252 . S
C120 O123 1.252 . S
C120 O124 1.260 . S
C121 O128 1.240 . S
C121 O129 1.252 . S
C122 O125 1.252 . S
C122 O126 1.260 . S
O123 In117 2.266 . S
O123 C120 1.252 . S
O124 In117 2.326 . S
O124 C120 1.260 . S
O125 In117 2.266 . S
O125 C122 1.252 . S
O126 In117 2.326 . S
O126 C122 1.260 . S
C127 O118 1.240 . S
C127 O119 1.252 . S
O128 In117 2.294 . S
O128 C121 1.240 . S
O129 In117 2.326 . S
O129 C121 1.252 . S
In130 O131 2.294 . S
In130 O132 2.326 . S
In130 O136 2.266 . S
In130 O137 2.326 . S
In130 O138 2.266 . S
In130 O139 2.326 . S
In130 O141 2.294 . S
In130 O142 2.326 . S
O131 In130 2.294 . S
O131 C140 1.240 . S
O132 In130 2.326 . S
O132 C140 1.252 . S
C133 O136 1.252 . S
C133 O137 1.260 . S
C134 O141 1.240 . S
C134 O142 1.252 . S
C135 O138 1.252 . S
C135 O139 1.260 . S
O136 In130 2.266 . S
O136 C133 1.252 . S
O137 In130 2.326 . S
O137 C133 1.260 . S
O138 In130 2.266 . S
O138 C135 1.252 . S
O139 In130 2.326 . S
O139 C135 1.260 . S
C140 O131 1.240 . S
C140 O132 1.252 . S
O141 In130 2.294 . S
O141 C134 1.240 . S
O142 In130 2.326 . S
O142 C134 1.252 . S
In143 O144 2.294 . S
In143 O145 2.326 . S
In143 O149 2.266 . S
In143 O150 2.326 . S
In143 O151 2.266 . S
In143 O152 2.326 . S
In143 O154 2.294 . S
In143 O155 2.326 . S
O144 In143 2.294 . S
O144 C153 1.240 . S
O145 In143 2.326 . S
O145 C153 1.252 . S
C146 O149 1.252 . S
C146 O150 1.260 . S
C147 O154 1.240 . S
C147 O155 1.252 . S
C148 O151 1.252 . S
C148 O152 1.260 . S
O149 In143 2.266 . S
O149 C146 1.252 . S
O150 In143 2.326 . S
O150 C146 1.260 . S
O151 In143 2.266 . S
O151 C148 1.252 . S
O152 In143 2.326 . S
O152 C148 1.260 . S
C153 O144 1.240 . S
C153 O145 1.252 . S
O154 In143 2.294 . S
O154 C147 1.240 . S
O155 In143 2.326 . S
O155 C147 1.252 . S
In156 O157 2.294 . S
In156 O158 2.326 . S
In156 O162 2.266 . S
In156 O163 2.326 . S
In156 O164 2.266 . S
In156 O165 2.326 . S
In156 O167 2.294 . S
In156 O168 2.326 . S
O157 In156 2.294 . S
O157 C166 1.240 . S
O158 In156 2.326 . S
O158 C166 1.252 . S
C159 O162 1.252 . S
C159 O163 1.260 . S
C160 O167 1.240 . S
C160 O168 1.252 . S
C161 O164 1.252 . S
C161 O165 1.260 . S
O162 In156 2.266 . S
O162 C159 1.252 . S
O163 In156 2.326 . S
O163 C159 1.260 . S
O164 In156 2.266 . S
O164 C161 1.252 . S
O165 In156 2.326 . S
O165 C161 1.260 . S
C166 O157 1.240 . S
C166 O158 1.252 . S
O167 In156 2.294 . S
O167 C160 1.240 . S
O168 In156 2.326 . S
O168 C160 1.252 . S
In169 O170 2.294 . S
In169 O171 2.326 . S
In169 O175 2.266 . S
In169 O176 2.326 . S
In169 O177 2.266 . S
In169 O178 2.326 . S
In169 O180 2.294 . S
In169 O181 2.326 . S
O170 In169 2.294 . S
O170 C179 1.240 . S
O171 In169 2.326 . S
O171 C179 1.252 . S
C172 O175 1.252 . S
C172 O176 1.260 . S
C173 O180 1.240 . S
C173 O181 1.252 . S
C174 O177 1.252 . S
C174 O178 1.260 . S
O175 In169 2.266 . S
O175 C172 1.252 . S
O176 In169 2.326 . S
O176 C172 1.260 . S
O177 In169 2.266 . S
O177 C174 1.252 . S
O178 In169 2.326 . S
O178 C174 1.260 . S
C179 O170 1.240 . S
C179 O171 1.252 . S
O180 In169 2.294 . S
O180 C173 1.240 . S
O181 In169 2.326 . S
O181 C173 1.252 . S
In182 O183 2.294 . S
In182 O184 2.326 . S
In182 O188 2.266 . S
In182 O189 2.326 . S
In182 O190 2.266 . S
In182 O191 2.326 . S
In182 O193 2.294 . S
In182 O194 2.326 . S
O183 In182 2.294 . S
O183 C192 1.240 . S
O184 In182 2.326 . S
O184 C192 1.252 . S
C185 O188 1.252 . S
C185 O189 1.260 . S
C186 O193 1.240 . S
C186 O194 1.252 . S
C187 O190 1.252 . S
C187 O191 1.260 . S
O188 In182 2.266 . S
O188 C185 1.252 . S
O189 In182 2.326 . S
O189 C185 1.260 . S
O190 In182 2.266 . S
O190 C187 1.252 . S
O191 In182 2.326 . S
O191 C187 1.260 . S
C192 O183 1.240 . S
C192 O184 1.252 . S
O193 In182 2.294 . S
O193 C186 1.240 . S
O194 In182 2.326 . S
O194 C186 1.252 . S
In195 O196 2.294 . S
In195 O197 2.326 . S
In195 O201 2.266 . S
In195 O202 2.326 . S
In195 O203 2.266 . S
In195 O204 2.326 . S
In195 O206 2.294 . S
In195 O207 2.326 . S
O196 In195 2.294 . S
O196 C205 1.240 . S
O197 In195 2.326 . S
O197 C205 1.252 . S
C198 O201 1.252 . S
C198 O202 1.260 . S
C199 O206 1.240 . S
C199 O207 1.252 . S
C200 O203 1.252 . S
C200 O204 1.260 . S
O201 In195 2.266 . S
O201 C198 1.252 . S
O202 In195 2.326 . S
O202 C198 1.260 . S
O203 In195 2.266 . S
O203 C200 1.252 . S
O204 In195 2.326 . S
O204 C200 1.260 . S
C205 O196 1.240 . S
C205 O197 1.252 . S
O206 In195 2.294 . S
O206 C199 1.240 . S
O207 In195 2.326 . S
O207 C199 1.252 . S
H208 C216 0.929 . S
H209 C218 0.930 . S
H210 C220 0.930 . S
H211 C223 0.929 . S
H212 C226 0.930 . S
H213 C228 0.960 . S
H214 C228 0.960 . S
H215 C228 0.960 . S
C216 H208 0.929 . S
C216 C217 1.377 . S
C216 C218 1.384 . S
C217 C216 1.377 . S
C217 C223 1.390 . S
C218 H209 0.930 . S
C218 C216 1.384 . S
C218 C219 1.372 . S
C219 C218 1.372 . S
C219 C220 1.400 . S
C219 C224 1.490 . S
C220 H210 0.930 . S
C220 C219 1.400 . S
C220 C223 1.386 . S
H221 C237 0.930 . S
H222 C238 0.931 . S
C223 H211 0.929 . S
C223 C217 1.390 . S
C223 C220 1.386 . S
C224 C219 1.490 . S
C224 C226 1.395 . S
C224 C227 1.403 . S
H225 C231 0.930 . S
C226 H212 0.930 . S
C226 C224 1.395 . S
C226 C229 1.403 . S
C227 C224 1.403 . S
C227 C228 1.524 . S
C227 C231 1.400 . S
C228 H213 0.960 . S
C228 H214 0.960 . S
C228 H215 0.960 . S
C228 C227 1.524 . S
C229 C226 1.403 . S
C229 C230 1.392 . S
C229 C233 1.495 . S
C230 C229 1.392 . S
C230 C231 1.385 . S
C230 C232 1.478 . S
C231 H225 0.930 . S
C231 C227 1.400 . S
C231 C230 1.385 . S
C232 C230 1.478 . S
C232 C234 1.381 . S
C232 C238 1.383 . S
C233 C229 1.495 . S
C233 H239 0.959 . S
C233 H240 0.961 . S
C233 H241 0.960 . S
C234 C232 1.381 . S
C234 C235 1.394 . S
C234 H242 0.930 . S
C235 C234 1.394 . S
C235 C236 1.383 . S
C235 H243 0.929 . S
C236 C235 1.383 . S
C236 C237 1.377 . S
C237 H221 0.930 . S
C237 C236 1.377 . S
C237 C238 1.379 . S
C238 H222 0.931 . S
C238 C232 1.383 . S
C238 C237 1.379 . S
H239 C233 0.959 . S
H240 C233 0.961 . S
H241 C233 0.960 . S
H242 C234 0.930 . S
H243 C235 0.929 . S
H244 C252 0.929 . S
H245 C254 0.930 . S
H246 C256 0.930 . S
H247 C259 0.929 . S
H248 C262 0.930 . S
H249 C264 0.960 . S
H250 C264 0.960 . S
H251 C264 0.960 . S
C252 H244 0.929 . S
C252 C253 1.377 . S
C252 C254 1.384 . S
C253 C252 1.377 . S
C253 C259 1.390 . S
C254 H245 0.930 . S
C254 C252 1.384 . S
C254 C255 1.372 . S
C255 C254 1.372 . S
C255 C256 1.400 . S
C255 C260 1.490 . S
C256 H246 0.930 . S
C256 C255 1.400 . S
C256 C259 1.386 . S
H257 C273 0.930 . S
H258 C274 0.931 . S
C259 H247 0.929 . S
C259 C253 1.390 . S
C259 C256 1.386 . S
C260 C255 1.490 . S
C260 C262 1.395 . S
C260 C263 1.403 . S
H261 C267 0.930 . S
C262 H248 0.930 . S
C262 C260 1.395 . S
C262 C265 1.403 . S
C263 C260 1.403 . S
C263 C264 1.524 . S
C263 C267 1.400 . S
C264 H249 0.960 . S
C264 H250 0.960 . S
C264 H251 0.960 . S
C264 C263 1.524 . S
C265 C262 1.403 . S
C265 C266 1.392 . S
C265 C269 1.495 . S
C266 C265 1.392 . S
C266 C267 1.385 . S
C266 C268 1.478 . S
C267 H261 0.930 . S
C267 C263 1.400 . S
C267 C266 1.385 . S
C268 C266 1.478 . S
C268 C270 1.381 . S
C268 C274 1.383 . S
C269 C265 1.495 . S
C269 H275 0.959 . S
C269 H276 0.961 . S
C269 H277 0.960 . S
C270 C268 1.381 . S
C270 C271 1.394 . S
C270 H278 0.930 . S
C271 C270 1.394 . S
C271 C272 1.383 . S
C271 H279 0.929 . S
C272 C271 1.383 . S
C272 C273 1.377 . S
C273 H257 0.930 . S
C273 C272 1.377 . S
C273 C274 1.379 . S
C274 H258 0.931 . S
C274 C268 1.383 . S
C274 C273 1.379 . S
H275 C269 0.959 . S
H276 C269 0.961 . S
H277 C269 0.960 . S
H278 C270 0.930 . S
H279 C271 0.929 . S
H280 C288 0.929 . S
H281 C290 0.930 . S
H282 C292 0.930 . S
H283 C295 0.929 . S
H284 C298 0.930 . S
H285 C300 0.960 . S
H286 C300 0.960 . S
H287 C300 0.960 . S
C288 H280 0.929 . S
C288 C289 1.377 . S
C288 C290 1.384 . S
C289 C288 1.377 . S
C289 C295 1.390 . S
C290 H281 0.930 . S
C290 C288 1.384 . S
C290 C291 1.372 . S
C291 C290 1.372 . S
C291 C292 1.400 . S
C291 C296 1.490 . S
C292 H282 0.930 . S
C292 C291 1.400 . S
C292 C295 1.386 . S
H293 C309 0.930 . S
H294 C310 0.931 . S
C295 H283 0.929 . S
C295 C289 1.390 . S
C295 C292 1.386 . S
C296 C291 1.490 . S
C296 C298 1.395 . S
C296 C299 1.403 . S
H297 C303 0.930 . S
C298 H284 0.930 . S
C298 C296 1.395 . S
C298 C301 1.403 . S
C299 C296 1.403 . S
C299 C300 1.524 . S
C299 C303 1.400 . S
C300 H285 0.960 . S
C300 H286 0.960 . S
C300 H287 0.960 . S
C300 C299 1.524 . S
C301 C298 1.403 . S
C301 C302 1.392 . S
C301 C305 1.495 . S
C302 C301 1.392 . S
C302 C303 1.385 . S
C302 C304 1.478 . S
C303 H297 0.930 . S
C303 C299 1.400 . S
C303 C302 1.385 . S
C304 C302 1.478 . S
C304 C306 1.381 . S
C304 C310 1.383 . S
C305 C301 1.495 . S
C305 H311 0.959 . S
C305 H312 0.961 . S
C305 H313 0.960 . S
C306 C304 1.381 . S
C306 C307 1.394 . S
C306 H314 0.930 . S
C307 C306 1.394 . S
C307 C308 1.383 . S
C307 H315 0.929 . S
C308 C307 1.383 . S
C308 C309 1.377 . S
C309 H293 0.930 . S
C309 C308 1.377 . S
C309 C310 1.379 . S
C310 H294 0.931 . S
C310 C304 1.383 . S
C310 C309 1.379 . S
H311 C305 0.959 . S
H312 C305 0.961 . S
H313 C305 0.960 . S
H314 C306 0.930 . S
H315 C307 0.929 . S
H316 C324 0.929 . S
H317 C326 0.930 . S
H318 C328 0.930 . S
H319 C331 0.929 . S
H320 C334 0.930 . S
H321 C336 0.960 . S
H322 C336 0.960 . S
H323 C336 0.960 . S
C324 H316 0.929 . S
C324 C325 1.377 . S
C324 C326 1.384 . S
C325 C324 1.377 . S
C325 C331 1.390 . S
C326 H317 0.930 . S
C326 C324 1.384 . S
C326 C327 1.372 . S
C327 C326 1.372 . S
C327 C328 1.400 . S
C327 C332 1.490 . S
C328 H318 0.930 . S
C328 C327 1.400 . S
C328 C331 1.386 . S
H329 C345 0.930 . S
H330 C346 0.931 . S
C331 H319 0.929 . S
C331 C325 1.390 . S
C331 C328 1.386 . S
C332 C327 1.490 . S
C332 C334 1.395 . S
C332 C335 1.403 . S
H333 C339 0.930 . S
C334 H320 0.930 . S
C334 C332 1.395 . S
C334 C337 1.403 . S
C335 C332 1.403 . S
C335 C336 1.524 . S
C335 C339 1.400 . S
C336 H321 0.960 . S
C336 H322 0.960 . S
C336 H323 0.960 . S
C336 C335 1.524 . S
C337 C334 1.403 . S
C337 C338 1.392 . S
C337 C341 1.495 . S
C338 C337 1.392 . S
C338 C339 1.385 . S
C338 C340 1.478 . S
C339 H333 0.930 . S
C339 C335 1.400 . S
C339 C338 1.385 . S
C340 C338 1.478 . S
C340 C342 1.381 . S
C340 C346 1.383 . S
C341 C337 1.495 . S
C341 H347 0.959 . S
C341 H348 0.961 . S
C341 H349 0.960 . S
C342 C340 1.381 . S
C342 C343 1.394 . S
C342 H350 0.930 . S
C343 C342 1.394 . S
C343 C344 1.383 . S
C343 H351 0.929 . S
C344 C343 1.383 . S
C344 C345 1.377 . S
C345 H329 0.930 . S
C345 C344 1.377 . S
C345 C346 1.379 . S
C346 H330 0.931 . S
C346 C340 1.383 . S
C346 C345 1.379 . S
H347 C341 0.959 . S
H348 C341 0.961 . S
H349 C341 0.960 . S
H350 C342 0.930 . S
H351 C343 0.929 . S
H352 C360 0.929 . S
H353 C362 0.930 . S
H354 C364 0.930 . S
H355 C367 0.929 1_565 S
H356 C370 0.944 . S
H357 C372 0.960 . S
H358 C372 0.960 . S
H359 C372 0.960 . S
C360 H352 0.929 . S
C360 C361 1.377 . S
C360 C362 1.384 . S
C361 C360 1.377 . S
C361 C367 1.390 . S
C362 H353 0.930 . S
C362 C360 1.384 . S
C362 C363 1.372 . S
C363 C362 1.372 . S
C363 C364 1.400 . S
C363 C368 1.490 . S
C364 H354 0.930 . S
C364 C363 1.400 . S
C364 C367 1.386 . S
H365 C381 0.930 . S
H366 C382 0.931 . S
C367 H355 0.929 1_545 S
C367 C361 1.390 . S
C367 C364 1.386 . S
C368 C363 1.490 . S
C368 C370 1.351 1_554 S
C368 C371 1.403 . S
H369 C375 0.930 . S
C370 H356 0.944 . S
C370 C368 1.351 1_556 S
C370 C373 1.434 . S
C371 C368 1.403 . S
C371 C372 1.524 . S
C371 C375 1.400 . S
C372 H357 0.960 . S
C372 H358 0.960 . S
C372 H359 0.960 . S
C372 C371 1.524 . S
C373 C370 1.434 . S
C373 C374 1.392 . S
C373 C377 1.495 . S
C374 C373 1.392 . S
C374 C375 1.385 1_556 S
C374 C376 1.478 . S
C375 H369 0.930 . S
C375 C371 1.400 . S
C375 C374 1.385 1_554 S
C376 C374 1.478 . S
C376 C378 1.381 . S
C376 C382 1.383 . S
C377 C373 1.495 . S
C377 H383 0.959 . S
C377 H384 0.961 . S
C377 H385 0.960 . S
C378 C376 1.381 . S
C378 C379 1.394 . S
C378 H386 0.930 . S
C379 C378 1.394 . S
C379 C380 1.383 . S
C379 H387 0.929 . S
C380 C379 1.383 . S
C380 C381 1.377 . S
C381 H365 0.930 . S
C381 C380 1.377 . S
C381 C382 1.379 . S
C382 H366 0.931 . S
C382 C376 1.383 . S
C382 C381 1.379 . S
H383 C377 0.959 . S
H384 C377 0.961 . S
H385 C377 0.960 . S
H386 C378 0.930 . S
H387 C379 0.929 . S
H388 C396 0.929 . S
H389 C398 0.930 . S
H390 C400 0.930 . S
H391 C403 0.929 . S
H392 C406 0.930 . S
H393 C408 0.960 . S
H394 C408 0.960 . S
H395 C408 0.960 . S
C396 H388 0.929 . S
C396 C397 1.377 . S
C396 C398 1.384 . S
C397 C396 1.377 . S
C397 C403 1.390 . S
C398 H389 0.930 . S
C398 C396 1.384 . S
C398 C399 1.372 . S
C399 C398 1.372 . S
C399 C400 1.400 . S
C399 C404 1.490 . S
C400 H390 0.930 . S
C400 C399 1.400 . S
C400 C403 1.386 . S
H401 C417 0.934 . S
H402 C418 0.931 . S
C403 H391 0.929 . S
C403 C397 1.390 . S
C403 C400 1.386 . S
C404 C399 1.490 . S
C404 C406 1.395 . S
C404 C407 1.403 1_554 S
H405 C411 0.930 . S
C406 H392 0.930 . S
C406 C404 1.395 . S
C406 C409 1.371 1_554 S
C407 C404 1.403 1_556 S
C407 C408 1.524 . S
C407 C411 1.400 . S
C408 H393 0.960 . S
C408 H394 0.960 . S
C408 H395 0.960 . S
C408 C407 1.524 . S
C409 C406 1.371 1_556 S
C409 C410 1.443 . S
C409 C413 1.478 1_556 S
C410 C409 1.443 . S
C410 C411 1.385 . S
C410 C412 1.478 . S
C411 H405 0.930 . S
C411 C407 1.400 . S
C411 C410 1.385 . S
C412 C410 1.478 . S
C412 C414 1.381 . S
C412 C418 1.383 . S
C413 C409 1.478 1_554 S
C413 H419 0.959 . S
C413 H420 0.961 . S
C413 H421 0.960 1_554 S
C414 C412 1.381 . S
C414 C415 1.394 . S
C414 H422 0.930 . S
C415 C414 1.394 . S
C415 C416 1.383 . S
C415 H423 0.929 . S
C416 C415 1.383 . S
C416 C417 1.376 1_455 S
C417 H401 0.934 . S
C417 C416 1.376 1_655 S
C417 C418 1.376 1_655 S
C418 H402 0.931 . S
C418 C412 1.383 . S
C418 C417 1.376 1_455 S
H419 C413 0.959 . S
H420 C413 0.961 . S
H421 C413 0.960 1_556 S
H422 C414 0.930 . S
H423 C415 0.929 . S
H424 C432 0.929 . S
H425 C434 0.930 1_554 S
H426 C436 0.930 . S
H427 C439 0.929 . S
H428 C442 0.930 . S
H429 C444 0.960 . S
H430 C444 0.960 . S
H431 C444 0.960 . S
C432 H424 0.929 . S
C432 C433 1.377 . S
C432 C434 1.384 . S
C433 C432 1.377 . S
C433 C439 1.390 . S
C434 H425 0.930 1_556 S
C434 C432 1.384 . S
C434 C435 1.372 . S
C435 C434 1.372 . S
C435 C436 1.400 . S
C435 C440 1.490 . S
C436 H426 0.930 . S
C436 C435 1.400 . S
C436 C439 1.386 . S
H437 C453 0.959 . S
H438 C454 0.931 . S
C439 H427 0.929 . S
C439 C433 1.390 . S
C439 C436 1.386 . S
C440 C435 1.490 . S
C440 C442 1.395 1_556 S
C440 C443 1.403 . S
H441 C447 0.930 . S
C442 H428 0.930 . S
C442 C440 1.395 1_554 S
C442 C445 1.403 . S
C443 C440 1.403 . S
C443 C444 1.524 . S
C443 C447 1.400 1_556 S
C444 H429 0.960 . S
C444 H430 0.960 . S
C444 H431 0.960 . S
C444 C443 1.524 . S
C445 C442 1.403 . S
C445 C446 1.392 . S
C445 C449 1.495 . S
C446 C445 1.392 . S
C446 C447 1.385 . S
C446 C448 1.478 . S
C447 H441 0.930 . S
C447 C443 1.400 1_554 S
C447 C446 1.385 . S
C448 C446 1.478 . S
C448 C450 1.381 . S
C448 C454 1.383 . S
C449 C445 1.495 . S
C449 H455 0.959 . S
C449 H456 0.961 . S
C449 H457 0.960 . S
C450 C448 1.381 . S
C450 C451 1.394 . S
C450 H458 0.930 . S
C451 C450 1.394 . S
C451 C452 1.383 . S
C451 H459 0.929 . S
C452 C451 1.383 . S
C452 C453 1.371 1_565 S
C453 H437 0.959 . S
C453 C452 1.371 1_545 S
C453 C454 1.357 1_545 S
C454 H438 0.931 . S
C454 C448 1.383 . S
C454 C453 1.357 1_565 S
H455 C449 0.959 . S
H456 C449 0.961 . S
H457 C449 0.960 . S
H458 C450 0.930 . S
H459 C451 0.929 . S
H460 C468 0.929 . S
H461 C470 0.906 1_556 S
H462 C472 0.930 . S
H463 C475 0.929 . S
H464 C478 0.918 1_554 S
H465 C480 0.941 1_556 S
H466 C480 0.959 1_556 S
H467 C480 0.960 . S
C468 H460 0.929 . S
C468 C469 1.377 . S
C468 C470 1.384 . S
C469 C468 1.377 . S
C469 C475 1.390 . S
C470 H461 0.906 1_554 S
C470 C468 1.384 . S
C470 C471 1.372 . S
C471 C470 1.372 . S
C471 C472 1.400 . S
C471 C476 1.490 . S
C472 H462 0.930 . S
C472 C471 1.400 . S
C472 C475 1.386 . S
H473 C489 0.920 1_455 S
H474 C490 0.931 . S
C475 H463 0.929 . S
C475 C469 1.390 . S
C475 C472 1.386 . S
C476 C471 1.490 . S
C476 C478 1.395 1_554 S
C476 C479 1.403 1_554 S
H477 C483 0.930 . S
C478 H464 0.918 1_556 S
C478 C476 1.395 1_556 S
C478 C481 1.403 . S
C479 C476 1.403 1_556 S
C479 C480 1.524 1_556 S
C479 C483 1.400 . S
C480 H465 0.941 1_554 S
C480 H466 0.959 1_554 S
C480 H467 0.960 . S
C480 C479 1.524 1_554 S
C481 C478 1.403 . S
C481 C482 1.392 . S
C481 C485 1.495 . S
C482 C481 1.392 . S
C482 C483 1.385 . S
C482 C484 1.478 . S
C483 H477 0.930 . S
C483 C479 1.400 . S
C483 C482 1.385 . S
C484 C482 1.478 . S
C484 C486 1.381 . S
C484 C490 1.383 . S
C485 C481 1.495 . S
C485 H491 0.959 . S
C485 H492 0.961 . S
C485 H493 0.960 . S
C486 C484 1.381 . S
C486 C487 1.394 . S
C486 H494 0.930 . S
C487 C486 1.394 . S
C487 C488 1.383 . S
C487 H495 0.929 . S
C488 C487 1.383 . S
C488 C489 1.379 . S
C489 H473 0.920 1_655 S
C489 C488 1.379 . S
C489 C490 1.387 . S
C490 H474 0.931 . S
C490 C484 1.383 . S
C490 C489 1.387 . S
H491 C485 0.959 . S
H492 C485 0.961 . S
H493 C485 0.960 . S
H494 C486 0.930 . S
H495 C487 0.929 . S
H496 C504 0.929 . S
H497 C506 0.930 . S
H498 C508 0.930 . S
H499 C511 0.929 . S
H500 C514 0.930 . S
H501 C516 0.960 . S
H502 C516 0.960 . S
H503 C516 0.960 . S
C504 H496 0.929 . S
C504 C505 1.377 . S
C504 C506 1.384 . S
C505 C504 1.377 . S
C505 C511 1.390 . S
C506 H497 0.930 . S
C506 C504 1.384 . S
C506 C507 1.372 . S
C507 C506 1.372 . S
C507 C508 1.400 . S
C507 C512 1.490 . S
C508 H498 0.930 . S
C508 C507 1.400 . S
C508 C511 1.386 . S
H509 C525 0.930 . S
H510 C526 0.931 . S
C511 H499 0.929 . S
C511 C505 1.390 . S
C511 C508 1.386 . S
C512 C507 1.490 . S
C512 C514 1.395 . S
C512 C515 1.403 . S
H513 C519 0.930 . S
C514 H500 0.930 . S
C514 C512 1.395 . S
C514 C517 1.403 . S
C515 C512 1.403 . S
C515 C516 1.524 . S
C515 C519 1.400 . S
C516 H501 0.960 . S
C516 H502 0.960 . S
C516 H503 0.960 . S
C516 C515 1.524 . S
C517 C514 1.403 . S
C517 C518 1.392 . S
C517 C521 1.495 . S
C518 C517 1.392 . S
C518 C519 1.385 . S
C518 C520 1.478 . S
C519 H513 0.930 . S
C519 C515 1.400 . S
C519 C518 1.385 . S
C520 C518 1.478 . S
C520 C522 1.381 . S
C520 C526 1.383 . S
C521 C517 1.495 . S
C521 H527 0.959 . S
C521 H528 0.961 . S
C521 H529 0.960 . S
C522 C520 1.381 . S
C522 C523 1.394 . S
C522 H530 0.930 . S
C523 C522 1.394 . S
C523 C524 1.383 . S
C523 H531 0.929 . S
C524 C523 1.383 . S
C524 C525 1.377 1_565 S
C525 H509 0.930 . S
C525 C524 1.377 1_545 S
C525 C526 1.379 1_545 S
C526 H510 0.931 . S
C526 C520 1.383 . S
C526 C525 1.379 1_565 S
H527 C521 0.959 . S
H528 C521 0.961 . S
H529 C521 0.960 . S
H530 C522 0.930 . S
H531 C523 0.929 . S
H532 C540 0.929 . S
H533 C542 0.930 . S
H534 C544 0.930 . S
H535 C547 0.929 . S
H536 C550 0.930 . S
H537 C552 0.960 . S
H538 C552 0.960 . S
H539 C552 0.960 . S
C540 H532 0.929 . S
C540 C541 1.377 . S
C540 C542 1.384 . S
C541 C540 1.377 . S
C541 C547 1.390 . S
C542 H533 0.930 . S
C542 C540 1.384 . S
C542 C543 1.372 . S
C543 C542 1.372 . S
C543 C544 1.400 . S
C543 C548 1.490 . S
C544 H534 0.930 . S
C544 C543 1.400 . S
C544 C547 1.386 . S
H545 C561 0.930 . S
H546 C562 0.931 . S
C547 H535 0.929 . S
C547 C541 1.390 . S
C547 C544 1.386 . S
C548 C543 1.490 . S
C548 C550 1.395 . S
C548 C551 1.403 . S
H549 C555 0.930 . S
C550 H536 0.930 . S
C550 C548 1.395 . S
C550 C553 1.403 . S
C551 C548 1.403 . S
C551 C552 1.524 . S
C551 C555 1.400 . S
C552 H537 0.960 . S
C552 H538 0.960 . S
C552 H539 0.960 . S
C552 C551 1.524 . S
C553 C550 1.403 . S
C553 C554 1.392 . S
C553 C557 1.495 . S
C554 C553 1.392 . S
C554 C555 1.385 . S
C554 C556 1.478 . S
C555 H549 0.930 . S
C555 C551 1.400 . S
C555 C554 1.385 . S
C556 C554 1.478 . S
C556 C558 1.381 . S
C556 C562 1.383 . S
C557 C553 1.495 . S
C557 H563 0.959 . S
C557 H564 0.961 . S
C557 H565 0.960 . S
C558 C556 1.381 . S
C558 C559 1.394 . S
C558 H566 0.930 . S
C559 C558 1.394 . S
C559 C560 1.383 . S
C559 H567 0.929 . S
C560 C559 1.383 . S
C560 C561 1.377 . S
C561 H545 0.930 . S
C561 C560 1.377 . S
C561 C562 1.379 . S
C562 H546 0.931 . S
C562 C556 1.383 . S
C562 C561 1.379 . S
H563 C557 0.959 . S
H564 C557 0.961 . S
H565 C557 0.960 . S
H566 C558 0.930 . S
H567 C559 0.929 . S
H568 C576 0.929 . S
H569 C578 0.930 . S
H570 C580 0.930 . S
H571 C583 0.929 1_565 S
H572 C586 0.930 . S
H573 C588 0.960 . S
H574 C588 0.960 . S
H575 C588 0.960 . S
C576 H568 0.929 . S
C576 C577 1.377 . S
C576 C578 1.384 . S
C577 C576 1.377 . S
C577 C583 1.390 . S
C578 H569 0.930 . S
C578 C576 1.384 . S
C578 C579 1.372 . S
C579 C578 1.372 . S
C579 C580 1.400 . S
C579 C584 1.490 . S
C580 H570 0.930 . S
C580 C579 1.400 . S
C580 C583 1.386 . S
H581 C597 0.930 . S
H582 C598 0.931 . S
C583 H571 0.929 1_545 S
C583 C577 1.390 . S
C583 C580 1.386 . S
C584 C579 1.490 . S
C584 C586 1.395 . S
C584 C587 1.403 . S
H585 C591 0.930 . S
C586 H572 0.930 . S
C586 C584 1.395 . S
C586 C589 1.403 . S
C587 C584 1.403 . S
C587 C588 1.524 . S
C587 C591 1.400 . S
C588 H573 0.960 . S
C588 H574 0.960 . S
C588 H575 0.960 . S
C588 C587 1.524 . S
C589 C586 1.403 . S
C589 C590 1.392 . S
C589 C593 1.495 . S
C590 C589 1.392 . S
C590 C591 1.385 . S
C590 C592 1.478 . S
C591 H585 0.930 . S
C591 C587 1.400 . S
C591 C590 1.385 . S
C592 C590 1.478 . S
C592 C594 1.381 . S
C592 C598 1.383 . S
C593 C589 1.495 . S
C593 H599 0.959 . S
C593 H600 0.961 . S
C593 H601 0.960 . S
C594 C592 1.381 . S
C594 C595 1.394 . S
C594 H602 0.930 . S
C595 C594 1.394 . S
C595 C596 1.383 . S
C595 H603 0.929 . S
C596 C595 1.383 . S
C596 C597 1.377 . S
C597 H581 0.930 . S
C597 C596 1.377 . S
C597 C598 1.379 . S
C598 H582 0.931 . S
C598 C592 1.383 . S
C598 C597 1.379 . S
H599 C593 0.959 . S
H600 C593 0.961 . S
H601 C593 0.960 . S
H602 C594 0.930 . S
H603 C595 0.929 . S
H604 C612 0.929 1_655 S
H605 C614 0.930 . S
H606 C616 0.930 . S
H607 C619 0.929 . S
H608 C622 0.930 . S
H609 C624 0.960 . S
H610 C624 0.960 . S
H611 C624 0.960 . S
C612 H604 0.929 1_455 S
C612 C613 1.377 . S
C612 C614 1.384 . S
C613 C612 1.377 . S
C613 C619 1.390 . S
C614 H605 0.930 . S
C614 C612 1.384 . S
C614 C615 1.372 . S
C615 C614 1.372 . S
C615 C616 1.400 . S
C615 C620 1.490 . S
C616 H606 0.930 . S
C616 C615 1.400 . S
C616 C619 1.386 . S
H617 C633 0.930 . S
H618 C634 0.931 . S
C619 H607 0.929 . S
C619 C613 1.390 . S
C619 C616 1.386 . S
C620 C615 1.490 . S
C620 C622 1.395 . S
C620 C623 1.403 . S
H621 C627 0.930 . S
C622 H608 0.930 . S
C622 C620 1.395 . S
C622 C625 1.403 . S
C623 C620 1.403 . S
C623 C624 1.524 . S
C623 C627 1.400 . S
C624 H609 0.960 . S
C624 H610 0.960 . S
C624 H611 0.960 . S
C624 C623 1.524 . S
C625 C622 1.403 . S
C625 C626 1.392 . S
C625 C629 1.495 . S
C626 C625 1.392 . S
C626 C627 1.385 . S
C626 C628 1.478 . S
C627 H621 0.930 . S
C627 C623 1.400 . S
C627 C626 1.385 . S
C628 C626 1.478 . S
C628 C630 1.381 . S
C628 C634 1.383 . S
C629 C625 1.495 . S
C629 H635 0.959 . S
C629 H636 0.961 . S
C629 H637 0.960 . S
C630 C628 1.381 . S
C630 C631 1.394 . S
C630 H638 0.930 . S
C631 C630 1.394 . S
C631 C632 1.383 . S
C631 H639 0.929 . S
C632 C631 1.383 . S
C632 C633 1.377 . S
C633 H617 0.930 . S
C633 C632 1.377 . S
C633 C634 1.379 . S
C634 H618 0.931 . S
C634 C628 1.383 . S
C634 C633 1.379 . S
H635 C629 0.959 . S
H636 C629 0.961 . S
H637 C629 0.960 . S
H638 C630 0.930 . S
H639 C631 0.929 . S
H640 C648 0.929 . S
H641 C650 0.930 . S
H642 C652 0.930 . S
H643 C655 0.929 . S
H644 C658 0.930 . S
H645 C660 0.960 . S
H646 C660 0.960 . S
H647 C660 0.960 . S
C648 H640 0.929 . S
C648 C649 1.377 . S
C648 C650 1.384 . S
C649 C648 1.377 . S
C649 C655 1.390 . S
C650 H641 0.930 . S
C650 C648 1.384 . S
C650 C651 1.372 . S
C651 C650 1.372 . S
C651 C652 1.400 . S
C651 C656 1.490 . S
C652 H642 0.930 . S
C652 C651 1.400 . S
C652 C655 1.386 . S
H653 C669 0.930 . S
H654 C670 0.931 . S
C655 H643 0.929 . S
C655 C649 1.390 . S
C655 C652 1.386 . S
C656 C651 1.490 . S
C656 C658 1.395 . S
C656 C659 1.403 . S
H657 C663 0.930 . S
C658 H644 0.930 . S
C658 C656 1.395 . S
C658 C661 1.403 . S
C659 C656 1.403 . S
C659 C660 1.524 . S
C659 C663 1.400 . S
C660 H645 0.960 . S
C660 H646 0.960 . S
C660 H647 0.960 . S
C660 C659 1.524 . S
C661 C658 1.403 . S
C661 C662 1.392 . S
C661 C665 1.495 . S
C662 C661 1.392 . S
C662 C663 1.385 . S
C662 C664 1.478 . S
C663 H657 0.930 . S
C663 C659 1.400 . S
C663 C662 1.385 . S
C664 C662 1.478 . S
C664 C666 1.381 . S
C664 C670 1.383 . S
C665 C661 1.495 . S
C665 H671 0.959 . S
C665 H672 0.961 . S
C665 H673 0.960 . S
C666 C664 1.381 . S
C666 C667 1.394 . S
C666 H674 0.930 . S
C667 C666 1.394 . S
C667 C668 1.383 . S
C667 H675 0.929 . S
C668 C667 1.383 . S
C668 C669 1.377 . S
C669 H653 0.930 . S
C669 C668 1.377 . S
C669 C670 1.379 . S
C670 H654 0.931 . S
C670 C664 1.383 . S
C670 C669 1.379 . S
H671 C665 0.959 . S
H672 C665 0.961 . S
H673 C665 0.960 . S
H674 C666 0.930 . S
H675 C667 0.929 . S
H676 C684 0.929 . S
H677 C686 0.930 . S
H678 C688 0.930 . S
H679 C691 0.929 . S
H680 C694 0.930 . S
H681 C696 0.960 . S
H682 C696 0.960 . S
H683 C696 0.960 . S
C684 H676 0.929 . S
C684 C685 1.377 . S
C684 C686 1.384 . S
C685 C684 1.377 . S
C685 C691 1.390 . S
C686 H677 0.930 . S
C686 C684 1.384 . S
C686 C687 1.372 . S
C687 C686 1.372 . S
C687 C688 1.400 . S
C687 C692 1.490 . S
C688 H678 0.930 . S
C688 C687 1.400 . S
C688 C691 1.386 . S
H689 C705 0.930 . S
H690 C706 0.931 . S
C691 H679 0.929 . S
C691 C685 1.390 . S
C691 C688 1.386 . S
C692 C687 1.490 . S
C692 C694 1.395 . S
C692 C695 1.403 . S
H693 C699 0.930 . S
C694 H680 0.930 . S
C694 C692 1.395 . S
C694 C697 1.403 . S
C695 C692 1.403 . S
C695 C696 1.524 . S
C695 C699 1.400 . S
C696 H681 0.960 . S
C696 H682 0.960 . S
C696 H683 0.960 . S
C696 C695 1.524 . S
C697 C694 1.403 . S
C697 C698 1.392 . S
C697 C701 1.495 . S
C698 C697 1.392 . S
C698 C699 1.385 . S
C698 C700 1.478 . S
C699 H693 0.930 . S
C699 C695 1.400 . S
C699 C698 1.385 . S
C700 C698 1.478 . S
C700 C702 1.381 . S
C700 C706 1.383 . S
C701 C697 1.495 . S
C701 H707 0.959 . S
C701 H708 0.961 . S
C701 H709 0.960 . S
C702 C700 1.381 . S
C702 C703 1.394 . S
C702 H710 0.930 . S
C703 C702 1.394 . S
C703 C704 1.383 . S
C703 H711 0.929 . S
C704 C703 1.383 . S
C704 C705 1.377 . S
C705 H689 0.930 . S
C705 C704 1.377 . S
C705 C706 1.379 . S
C706 H690 0.931 . S
C706 C700 1.383 . S
C706 C705 1.379 . S
H707 C701 0.959 . S
H708 C701 0.961 . S
H709 C701 0.960 . S
H710 C702 0.930 . S
H711 C703 0.929 . S
H712 C720 0.929 . S
H713 C722 0.930 . S
H714 C724 0.930 . S
H715 C727 0.929 . S
H716 C730 0.930 . S
H717 C732 0.960 . S
H718 C732 0.960 . S
H719 C732 0.960 . S
C720 H712 0.929 . S
C720 C721 1.377 . S
C720 C722 1.384 . S
C721 C720 1.377 . S
C721 C727 1.390 . S
C722 H713 0.930 . S
C722 C720 1.384 . S
C722 C723 1.372 . S
C723 C722 1.372 . S
C723 C724 1.400 . S
C723 C728 1.490 . S
C724 H714 0.930 . S
C724 C723 1.400 . S
C724 C727 1.386 . S
H725 C741 0.930 . S
H726 C742 0.931 . S
C727 H715 0.929 . S
C727 C721 1.390 . S
C727 C724 1.386 . S
C728 C723 1.490 . S
C728 C730 1.395 . S
C728 C731 1.403 . S
H729 C735 0.930 . S
C730 H716 0.930 . S
C730 C728 1.395 . S
C730 C733 1.403 . S
C731 C728 1.403 . S
C731 C732 1.524 . S
C731 C735 1.400 . S
C732 H717 0.960 . S
C732 H718 0.960 . S
C732 H719 0.960 . S
C732 C731 1.524 . S
C733 C730 1.403 . S
C733 C734 1.392 . S
C733 C737 1.495 . S
C734 C733 1.392 . S
C734 C735 1.385 . S
C734 C736 1.478 . S
C735 H729 0.930 . S
C735 C731 1.400 . S
C735 C734 1.385 . S
C736 C734 1.478 . S
C736 C738 1.381 . S
C736 C742 1.383 . S
C737 C733 1.495 . S
C737 H743 0.959 . S
C737 H744 0.961 . S
C737 H745 0.960 . S
C738 C736 1.381 . S
C738 C739 1.394 . S
C738 H746 0.930 . S
C739 C738 1.394 . S
C739 C740 1.383 . S
C739 H747 0.929 . S
C740 C739 1.383 . S
C740 C741 1.377 . S
C741 H725 0.930 . S
C741 C740 1.377 . S
C741 C742 1.379 . S
C742 H726 0.931 . S
C742 C736 1.383 . S
C742 C741 1.379 . S
H743 C737 0.959 . S
H744 C737 0.961 . S
H745 C737 0.960 . S
H746 C738 0.930 . S
H747 C739 0.929 . S
H748 C756 0.929 . S
H749 C758 0.930 . S
H750 C760 0.930 . S
H751 C763 0.929 . S
H752 C766 0.930 . S
H753 C768 0.960 . S
H754 C768 0.960 . S
H755 C768 0.960 . S
C756 H748 0.929 . S
C756 C757 1.377 . S
C756 C758 1.384 . S
C757 C756 1.377 . S
C757 C763 1.390 . S
C758 H749 0.930 . S
C758 C756 1.384 . S
C758 C759 1.372 . S
C759 C758 1.372 . S
C759 C760 1.400 . S
C759 C764 1.490 . S
C760 H750 0.930 . S
C760 C759 1.400 . S
C760 C763 1.386 . S
H761 C777 0.930 . S
H762 C778 0.931 . S
C763 H751 0.929 . S
C763 C757 1.390 . S
C763 C760 1.386 . S
C764 C759 1.490 . S
C764 C766 1.395 . S
C764 C767 1.403 . S
H765 C771 0.930 . S
C766 H752 0.930 . S
C766 C764 1.395 . S
C766 C769 1.403 . S
C767 C764 1.403 . S
C767 C768 1.524 . S
C767 C771 1.400 . S
C768 H753 0.960 . S
C768 H754 0.960 . S
C768 H755 0.960 . S
C768 C767 1.524 . S
C769 C766 1.403 . S
C769 C770 1.392 . S
C769 C773 1.495 . S
C770 C769 1.392 . S
C770 C771 1.385 . S
C770 C772 1.478 . S
C771 H765 0.930 . S
C771 C767 1.400 . S
C771 C770 1.385 . S
C772 C770 1.478 . S
C772 C774 1.381 . S
C772 C778 1.383 . S
C773 C769 1.495 . S
C773 H779 0.959 . S
C773 H780 0.961 . S
C773 H781 0.960 . S
C774 C772 1.381 . S
C774 C775 1.394 . S
C774 H782 0.930 . S
C775 C774 1.394 . S
C775 C776 1.383 . S
C775 H783 0.929 . S
C776 C775 1.383 . S
C776 C777 1.377 . S
C777 H761 0.930 . S
C777 C776 1.377 . S
C777 C778 1.379 . S
C778 H762 0.931 . S
C778 C772 1.383 . S
C778 C777 1.379 . S
H779 C773 0.959 . S
H780 C773 0.961 . S
H781 C773 0.960 . S
H782 C774 0.930 . S
H783 C775 0.929 . S
H784 C792 0.929 . S
H785 C794 0.930 . S
H786 C796 0.930 . S
H787 C799 0.929 . S
H788 C802 0.930 . S
H789 C804 0.960 . S
H790 C804 0.960 . S
H791 C804 0.960 . S
C792 H784 0.929 . S
C792 C793 1.377 . S
C792 C794 1.384 . S
C793 C792 1.377 . S
C793 C799 1.390 . S
C794 H785 0.930 . S
C794 C792 1.384 . S
C794 C795 1.372 . S
C795 C794 1.372 . S
C795 C796 1.400 . S
C795 C800 1.490 . S
C796 H786 0.930 . S
C796 C795 1.400 . S
C796 C799 1.386 . S
H797 C813 0.930 . S
H798 C814 0.931 . S
C799 H787 0.929 . S
C799 C793 1.390 . S
C799 C796 1.386 . S
C800 C795 1.490 . S
C800 C802 1.395 . S
C800 C803 1.403 . S
H801 C807 0.930 . S
C802 H788 0.930 . S
C802 C800 1.395 . S
C802 C805 1.403 . S
C803 C800 1.403 . S
C803 C804 1.524 . S
C803 C807 1.400 . S
C804 H789 0.960 . S
C804 H790 0.960 . S
C804 H791 0.960 . S
C804 C803 1.524 . S
C805 C802 1.403 . S
C805 C806 1.392 . S
C805 C809 1.495 . S
C806 C805 1.392 . S
C806 C807 1.385 . S
C806 C808 1.478 . S
C807 H801 0.930 . S
C807 C803 1.400 . S
C807 C806 1.385 . S
C808 C806 1.478 . S
C808 C810 1.381 . S
C808 C814 1.383 . S
C809 C805 1.495 . S
C809 H815 0.959 . S
C809 H816 0.961 . S
C809 H817 0.960 . S
C810 C808 1.381 . S
C810 C811 1.394 . S
C810 H818 0.930 . S
C811 C810 1.394 . S
C811 C812 1.383 . S
C811 H819 0.929 . S
C812 C811 1.383 . S
C812 C813 1.377 . S
C813 H797 0.930 . S
C813 C812 1.377 . S
C813 C814 1.379 . S
C814 H798 0.931 . S
C814 C808 1.383 . S
C814 C813 1.379 . S
H815 C809 0.959 . S
H816 C809 0.961 . S
H817 C809 0.960 . S
H818 C810 0.930 . S
H819 C811 0.929 . S
H820 C828 0.929 . S
H821 C830 0.930 . S
H822 C832 0.930 . S
H823 C835 0.929 . S
H824 C838 0.930 . S
H825 C840 0.960 . S
H826 C840 0.960 . S
H827 C840 0.960 . S
C828 H820 0.929 . S
C828 C829 1.377 . S
C828 C830 1.384 . S
C829 C828 1.377 . S
C829 C835 1.390 . S
C830 H821 0.930 . S
C830 C828 1.384 . S
C830 C831 1.372 . S
C831 C830 1.372 . S
C831 C832 1.400 . S
C831 C836 1.490 . S
C832 H822 0.930 . S
C832 C831 1.400 . S
C832 C835 1.386 . S
H833 C849 0.930 . S
H834 C850 0.931 . S
C835 H823 0.929 . S
C835 C829 1.390 . S
C835 C832 1.386 . S
C836 C831 1.490 . S
C836 C838 1.395 . S
C836 C839 1.403 . S
H837 C843 0.930 . S
C838 H824 0.930 . S
C838 C836 1.395 . S
C838 C841 1.403 . S
C839 C836 1.403 . S
C839 C840 1.524 . S
C839 C843 1.400 . S
C840 H825 0.960 . S
C840 H826 0.960 . S
C840 H827 0.960 . S
C840 C839 1.524 . S
C841 C838 1.403 . S
C841 C842 1.392 . S
C841 C845 1.495 . S
C842 C841 1.392 . S
C842 C843 1.385 . S
C842 C844 1.478 . S
C843 H837 0.930 . S
C843 C839 1.400 . S
C843 C842 1.385 . S
C844 C842 1.478 . S
C844 C846 1.381 . S
C844 C850 1.383 . S
C845 C841 1.495 . S
C845 H851 0.959 . S
C845 H852 0.961 . S
C845 H853 0.960 . S
C846 C844 1.381 . S
C846 C847 1.394 . S
C846 H854 0.930 . S
C847 C846 1.394 . S
C847 C848 1.383 . S
C847 H855 0.929 . S
C848 C847 1.383 . S
C848 C849 1.377 . S
C849 H833 0.930 . S
C849 C848 1.377 . S
C849 C850 1.379 . S
C850 H834 0.931 . S
C850 C844 1.383 . S
C850 C849 1.379 . S
H851 C845 0.959 . S
H852 C845 0.961 . S
H853 C845 0.960 . S
H854 C846 0.930 . S
H855 C847 0.929 . S
H856 C864 0.929 . S
H857 C866 0.930 . S
H858 C868 0.930 . S
H859 C871 0.929 . S
H860 C874 0.930 . S
H861 C876 0.960 . S
H862 C876 0.960 . S
H863 C876 0.960 . S
C864 H856 0.929 . S
C864 C865 1.377 . S
C864 C866 1.384 . S
C865 C864 1.377 . S
C865 C871 1.390 . S
C866 H857 0.930 . S
C866 C864 1.384 . S
C866 C867 1.372 . S
C867 C866 1.372 . S
C867 C868 1.400 . S
C867 C872 1.490 . S
C868 H858 0.930 . S
C868 C867 1.400 . S
C868 C871 1.386 . S
H869 C885 0.930 . S
H870 C886 0.931 . S
C871 H859 0.929 . S
C871 C865 1.390 . S
C871 C868 1.386 . S
C872 C867 1.490 . S
C872 C874 1.395 . S
C872 C875 1.403 . S
H873 C879 0.930 . S
C874 H860 0.930 . S
C874 C872 1.395 . S
C874 C877 1.403 . S
C875 C872 1.403 . S
C875 C876 1.524 . S
C875 C879 1.400 . S
C876 H861 0.960 . S
C876 H862 0.960 . S
C876 H863 0.960 . S
C876 C875 1.524 . S
C877 C874 1.403 . S
C877 C878 1.392 . S
C877 C881 1.495 . S
C878 C877 1.392 . S
C878 C879 1.385 . S
C878 C880 1.478 . S
C879 H873 0.930 . S
C879 C875 1.400 . S
C879 C878 1.385 . S
C880 C878 1.478 . S
C880 C882 1.381 . S
C880 C886 1.383 . S
C881 C877 1.495 . S
C881 H887 0.959 . S
C881 H888 0.961 . S
C881 H889 0.960 . S
C882 C880 1.381 . S
C882 C883 1.394 . S
C882 H890 0.930 . S
C883 C882 1.394 . S
C883 C884 1.383 . S
C883 H891 0.929 . S
C884 C883 1.383 . S
C884 C885 1.377 . S
C885 H869 0.930 . S
C885 C884 1.377 . S
C885 C886 1.379 . S
C886 H870 0.931 . S
C886 C880 1.383 . S
C886 C885 1.379 . S
H887 C881 0.959 . S
H888 C881 0.961 . S
H889 C881 0.960 . S
H890 C882 0.930 . S
H891 C883 0.929 . S
H892 C900 0.929 . S
H893 C902 0.930 . S
H894 C904 0.930 . S
H895 C907 0.929 . S
H896 C910 0.930 . S
H897 C912 0.960 . S
H898 C912 0.960 . S
H899 C912 0.960 . S
C900 H892 0.929 . S
C900 C901 1.377 . S
C900 C902 1.384 . S
C901 C900 1.377 . S
C901 C907 1.390 . S
C902 H893 0.930 . S
C902 C900 1.384 . S
C902 C903 1.372 . S
C903 C902 1.372 . S
C903 C904 1.400 . S
C903 C908 1.490 . S
C904 H894 0.930 . S
C904 C903 1.400 . S
C904 C907 1.386 . S
H905 C921 0.930 . S
H906 C922 0.931 . S
C907 H895 0.929 . S
C907 C901 1.390 . S
C907 C904 1.386 . S
C908 C903 1.490 . S
C908 C910 1.395 . S
C908 C911 1.403 . S
H909 C915 0.930 . S
C910 H896 0.930 . S
C910 C908 1.395 . S
C910 C913 1.403 . S
C911 C908 1.403 . S
C911 C912 1.524 . S
C911 C915 1.400 . S
C912 H897 0.960 . S
C912 H898 0.960 . S
C912 H899 0.960 . S
C912 C911 1.524 . S
C913 C910 1.403 . S
C913 C914 1.392 . S
C913 C917 1.495 . S
C914 C913 1.392 . S
C914 C915 1.385 . S
C914 C916 1.478 . S
C915 H909 0.930 . S
C915 C911 1.400 . S
C915 C914 1.385 . S
C916 C914 1.478 . S
C916 C918 1.381 . S
C916 C922 1.383 . S
C917 C913 1.495 . S
C917 H923 0.959 . S
C917 H924 0.961 . S
C917 H925 0.960 . S
C918 C916 1.381 . S
C918 C919 1.394 . S
C918 H926 0.930 . S
C919 C918 1.394 . S
C919 C920 1.383 . S
C919 H927 0.929 . S
C920 C919 1.383 . S
C920 C921 1.377 . S
C921 H905 0.930 . S
C921 C920 1.377 . S
C921 C922 1.379 . S
C922 H906 0.931 . S
C922 C916 1.383 . S
C922 C921 1.379 . S
H923 C917 0.959 . S
H924 C917 0.961 . S
H925 C917 0.960 . S
H926 C918 0.930 . S
H927 C919 0.929 . S
H928 C936 0.929 . S
H929 C938 0.930 . S
H930 C940 0.930 . S
H931 C943 0.929 . S
H932 C946 0.930 . S
H933 C948 0.960 . S
H934 C948 0.960 . S
H935 C948 0.960 . S
C936 H928 0.929 . S
C936 C937 1.377 . S
C936 C938 1.384 . S
C937 C936 1.377 . S
C937 C943 1.390 . S
C938 H929 0.930 . S
C938 C936 1.384 . S
C938 C939 1.372 . S
C939 C938 1.372 . S
C939 C940 1.400 . S
C939 C944 1.490 . S
C940 H930 0.930 . S
C940 C939 1.400 . S
C940 C943 1.386 . S
H941 C957 0.930 . S
H942 C958 0.931 . S
C943 H931 0.929 . S
C943 C937 1.390 . S
C943 C940 1.386 . S
C944 C939 1.490 . S
C944 C946 1.395 . S
C944 C947 1.403 . S
H945 C951 0.930 . S
C946 H932 0.930 . S
C946 C944 1.395 . S
C946 C949 1.403 . S
C947 C944 1.403 . S
C947 C948 1.524 . S
C947 C951 1.400 . S
C948 H933 0.960 . S
C948 H934 0.960 . S
C948 H935 0.960 . S
C948 C947 1.524 . S
C949 C946 1.403 . S
C949 C950 1.392 . S
C949 C953 1.495 . S
C950 C949 1.392 . S
C950 C951 1.385 . S
C950 C952 1.478 . S
C951 H945 0.930 . S
C951 C947 1.400 . S
C951 C950 1.385 . S
C952 C950 1.478 . S
C952 C954 1.381 . S
C952 C958 1.383 . S
C953 C949 1.495 . S
C953 H959 0.959 . S
C953 H960 0.961 . S
C953 H961 0.960 . S
C954 C952 1.381 . S
C954 C955 1.394 . S
C954 H962 0.930 . S
C955 C954 1.394 . S
C955 C956 1.383 . S
C955 H963 0.929 . S
C956 C955 1.383 . S
C956 C957 1.377 . S
C957 H941 0.930 . S
C957 C956 1.377 . S
C957 C958 1.379 . S
C958 H942 0.931 . S
C958 C952 1.383 . S
C958 C957 1.379 . S
H959 C953 0.959 . S
H960 C953 0.961 . S
H961 C953 0.960 . S
H962 C954 0.930 . S
H963 C955 0.929 . S
H964 C972 0.929 . S
H965 C974 0.930 . S
H966 C976 0.930 . S
H967 C979 0.929 . S
H968 C982 0.930 . S
H969 C984 0.960 . S
H970 C984 0.960 . S
H971 C984 0.960 . S
C972 H964 0.929 . S
C972 C973 1.377 . S
C972 C974 1.384 . S
C973 C972 1.377 . S
C973 C979 1.390 . S
C974 H965 0.930 . S
C974 C972 1.384 . S
C974 C975 1.372 . S
C975 C974 1.372 . S
C975 C976 1.400 . S
C975 C980 1.490 . S
C976 H966 0.930 . S
C976 C975 1.400 . S
C976 C979 1.386 . S
H977 C993 0.930 . S
H978 C994 0.931 . S
C979 H967 0.929 . S
C979 C973 1.390 . S
C979 C976 1.386 . S
C980 C975 1.490 . S
C980 C982 1.395 . S
C980 C983 1.403 . S
H981 C987 0.930 . S
C982 H968 0.930 . S
C982 C980 1.395 . S
C982 C985 1.403 . S
C983 C980 1.403 . S
C983 C984 1.524 . S
C983 C987 1.400 . S
C984 H969 0.960 . S
C984 H970 0.960 . S
C984 H971 0.960 . S
C984 C983 1.524 . S
C985 C982 1.403 . S
C985 C986 1.392 . S
C985 C989 1.495 . S
C986 C985 1.392 . S
C986 C987 1.385 . S
C986 C988 1.478 . S
C987 H981 0.930 . S
C987 C983 1.400 . S
C987 C986 1.385 . S
C988 C986 1.478 . S
C988 C990 1.381 . S
C988 C994 1.383 . S
C989 C985 1.495 . S
C989 H995 0.959 . S
C989 H996 0.961 . S
C989 H997 0.960 . S
C990 C988 1.381 . S
C990 C991 1.394 . S
C990 H998 0.930 . S
C991 C990 1.394 . S
C991 C992 1.383 . S
C991 H999 0.929 . S
C992 C991 1.383 . S
C992 C993 1.377 . S
C993 H977 0.930 . S
C993 C992 1.377 . S
C993 C994 1.379 . S
C994 H978 0.931 . S
C994 C988 1.383 . S
C994 C993 1.379 . S
H995 C989 0.959 . S
H996 C989 0.961 . S
H997 C989 0.960 . S
H998 C990 0.930 . S
H999 C991 0.929 . S
H1000 C1008 0.929 . S
H1001 C1010 0.930 . S
H1002 C1012 0.930 . S
H1003 C1015 0.929 . S
H1004 C1018 0.930 . S
H1005 C1020 0.960 . S
H1006 C1020 0.960 . S
H1007 C1020 0.960 . S
C1008 H1000 0.929 . S
C1008 C1009 1.377 . S
C1008 C1010 1.384 . S
C1009 C1008 1.377 . S
C1009 C1015 1.390 . S
C1010 H1001 0.930 . S
C1010 C1008 1.384 . S
C1010 C1011 1.372 . S
C1011 C1010 1.372 . S
C1011 C1012 1.400 . S
C1011 C1016 1.490 . S
C1012 H1002 0.930 . S
C1012 C1011 1.400 . S
C1012 C1015 1.386 . S
H1013 C1029 0.930 . S
H1014 C1030 0.931 . S
C1015 H1003 0.929 . S
C1015 C1009 1.390 . S
C1015 C1012 1.386 . S
C1016 C1011 1.490 . S
C1016 C1018 1.395 . S
C1016 C1019 1.403 . S
H1017 C1023 0.930 . S
C1018 H1004 0.930 . S
C1018 C1016 1.395 . S
C1018 C1021 1.403 . S
C1019 C1016 1.403 . S
C1019 C1020 1.524 . S
C1019 C1023 1.400 . S
C1020 H1005 0.960 . S
C1020 H1006 0.960 . S
C1020 H1007 0.960 . S
C1020 C1019 1.524 . S
C1021 C1018 1.403 . S
C1021 C1022 1.392 . S
C1021 C1025 1.495 . S
C1022 C1021 1.392 . S
C1022 C1023 1.385 . S
C1022 C1024 1.478 . S
C1023 H1017 0.930 . S
C1023 C1019 1.400 . S
C1023 C1022 1.385 . S
C1024 C1022 1.478 . S
C1024 C1026 1.381 . S
C1024 C1030 1.383 . S
C1025 C1021 1.495 . S
C1025 H1031 0.959 . S
C1025 H1032 0.961 . S
C1025 H1033 0.960 . S
C1026 C1024 1.381 . S
C1026 C1027 1.394 . S
C1026 H1034 0.930 . S
C1027 C1026 1.394 . S
C1027 C1028 1.383 . S
C1027 H1035 0.929 . S
C1028 C1027 1.383 . S
C1028 C1029 1.377 . S
C1029 H1013 0.930 . S
C1029 C1028 1.377 . S
C1029 C1030 1.379 . S
C1030 H1014 0.931 . S
C1030 C1024 1.383 . S
C1030 C1029 1.379 . S
H1031 C1025 0.959 . S
H1032 C1025 0.961 . S
H1033 C1025 0.960 . S
H1034 C1026 0.930 . S
H1035 C1027 0.929 . S
H1036 C1044 0.929 . S
H1037 C1046 0.930 . S
H1038 C1048 0.930 . S
H1039 C1051 0.929 . S
H1040 C1054 0.930 . S
H1041 C1056 0.960 . S
H1042 C1056 0.960 . S
H1043 C1056 0.960 . S
C1044 H1036 0.929 . S
C1044 C1045 1.377 . S
C1044 C1046 1.384 . S
C1045 C1044 1.377 . S
C1045 C1051 1.390 . S
C1046 H1037 0.930 . S
C1046 C1044 1.384 . S
C1046 C1047 1.372 . S
C1047 C1046 1.372 . S
C1047 C1048 1.400 . S
C1047 C1052 1.490 . S
C1048 H1038 0.930 . S
C1048 C1047 1.400 . S
C1048 C1051 1.386 . S
H1049 C1065 0.930 . S
H1050 C1066 0.931 . S
C1051 H1039 0.929 . S
C1051 C1045 1.390 . S
C1051 C1048 1.386 . S
C1052 C1047 1.490 . S
C1052 C1054 1.395 . S
C1052 C1055 1.403 . S
H1053 C1059 0.930 . S
C1054 H1040 0.930 . S
C1054 C1052 1.395 . S
C1054 C1057 1.403 . S
C1055 C1052 1.403 . S
C1055 C1056 1.524 . S
C1055 C1059 1.400 . S
C1056 H1041 0.960 . S
C1056 H1042 0.960 . S
C1056 H1043 0.960 . S
C1056 C1055 1.524 . S
C1057 C1054 1.403 . S
C1057 C1058 1.392 . S
C1057 C1061 1.495 . S
C1058 C1057 1.392 . S
C1058 C1059 1.385 . S
C1058 C1060 1.478 . S
C1059 H1053 0.930 . S
C1059 C1055 1.400 . S
C1059 C1058 1.385 . S
C1060 C1058 1.478 . S
C1060 C1062 1.381 . S
C1060 C1066 1.383 . S
C1061 C1057 1.495 . S
C1061 H1067 0.959 . S
C1061 H1068 0.961 . S
C1061 H1069 0.960 . S
C1062 C1060 1.381 . S
C1062 C1063 1.394 . S
C1062 H1070 0.930 . S
C1063 C1062 1.394 . S
C1063 C1064 1.383 . S
C1063 H1071 0.929 . S
C1064 C1063 1.383 . S
C1064 C1065 1.377 . S
C1065 H1049 0.930 . S
C1065 C1064 1.377 . S
C1065 C1066 1.379 . S
C1066 H1050 0.931 . S
C1066 C1060 1.383 . S
C1066 C1065 1.379 . S
H1067 C1061 0.959 . S
H1068 C1061 0.961 . S
H1069 C1061 0.960 . S
H1070 C1062 0.930 . S
H1071 C1063 0.929 . S
H1072 C1080 0.929 . S
H1073 C1082 0.930 . S
H1074 C1084 0.930 . S
H1075 C1087 0.929 . S
H1076 C1090 0.930 . S
H1077 C1092 0.960 1_545 S
H1078 C1092 0.960 . S
H1079 C1092 0.960 . S
C1080 H1072 0.929 . S
C1080 C1081 1.377 . S
C1080 C1082 1.384 . S
C1081 C1080 1.377 . S
C1081 C1087 1.390 . S
C1082 H1073 0.930 . S
C1082 C1080 1.384 . S
C1082 C1083 1.372 . S
C1083 C1082 1.372 . S
C1083 C1084 1.400 . S
C1083 C1088 1.490 . S
C1084 H1074 0.930 . S
C1084 C1083 1.400 . S
C1084 C1087 1.386 . S
H1085 C1101 0.930 . S
H1086 C1102 0.931 . S
C1087 H1075 0.929 . S
C1087 C1081 1.390 . S
C1087 C1084 1.386 . S
C1088 C1083 1.490 . S
C1088 C1090 1.395 1_655 S
C1088 C1091 1.403 . S
H1089 C1095 0.930 . S
C1090 H1076 0.930 . S
C1090 C1088 1.395 1_455 S
C1090 C1093 1.403 1_565 S
C1091 C1088 1.403 . S
C1091 C1092 1.524 . S
C1091 C1095 1.400 1_565 S
C1092 H1077 0.960 1_565 S
C1092 H1078 0.960 . S
C1092 H1079 0.960 . S
C1092 C1091 1.524 . S
C1093 C1090 1.403 1_545 S
C1093 C1094 1.392 . S
C1093 C1097 1.495 . S
C1094 C1093 1.392 . S
C1094 C1095 1.385 1_455 S
C1094 C1096 1.478 . S
C1095 H1089 0.930 . S
C1095 C1091 1.400 1_545 S
C1095 C1094 1.385 1_655 S
C1096 C1094 1.478 . S
C1096 C1098 1.381 . S
C1096 C1102 1.383 . S
C1097 C1093 1.495 . S
C1097 H1103 0.959 1_545 S
C1097 H1104 0.961 . S
C1097 H1105 0.960 . S
C1098 C1096 1.381 . S
C1098 C1099 1.394 . S
C1098 H1106 0.930 . S
C1099 C1098 1.394 . S
C1099 C1100 1.383 . S
C1099 H1107 0.929 . S
C1100 C1099 1.383 . S
C1100 C1101 1.377 . S
C1101 H1085 0.930 . S
C1101 C1100 1.377 . S
C1101 C1102 1.379 . S
C1102 H1086 0.931 . S
C1102 C1096 1.383 . S
C1102 C1101 1.379 . S
H1103 C1097 0.959 1_565 S
H1104 C1097 0.961 . S
H1105 C1097 0.960 . S
H1106 C1098 0.930 . S
H1107 C1099 0.929 . S
H1108 C1116 0.929 . S
H1109 C1118 0.930 . S
H1110 C1120 0.930 . S
H1111 C1123 0.929 . S
H1112 C1126 0.930 . S
H1113 C1128 0.960 . S
H1114 C1128 0.960 . S
H1115 C1128 0.960 . S
C1116 H1108 0.929 . S
C1116 C1117 1.377 . S
C1116 C1118 1.384 . S
C1117 C1116 1.377 . S
C1117 C1123 1.390 . S
C1118 H1109 0.930 . S
C1118 C1116 1.384 . S
C1118 C1119 1.372 . S
C1119 C1118 1.372 . S
C1119 C1120 1.400 . S
C1119 C1124 1.490 . S
C1120 H1110 0.930 . S
C1120 C1119 1.400 . S
C1120 C1123 1.386 . S
H1121 C1137 0.930 . S
H1122 C1138 0.931 . S
C1123 H1111 0.929 . S
C1123 C1117 1.390 . S
C1123 C1120 1.386 . S
C1124 C1119 1.490 . S
C1124 C1126 1.395 . S
C1124 C1127 1.403 1_545 S
H1125 C1131 0.930 . S
C1126 H1112 0.930 . S
C1126 C1124 1.395 . S
C1126 C1129 1.403 1_655 S
C1127 C1124 1.403 1_565 S
C1127 C1128 1.524 . S
C1127 C1131 1.400 1_655 S
C1128 H1113 0.960 . S
C1128 H1114 0.960 . S
C1128 H1115 0.960 . S
C1128 C1127 1.524 . S
C1129 C1126 1.403 1_455 S
C1129 C1130 1.392 1_545 S
C1129 C1133 1.495 . S
C1130 C1129 1.392 1_565 S
C1130 C1131 1.385 . S
C1130 C1132 1.478 . S
C1131 H1125 0.930 . S
C1131 C1127 1.400 1_455 S
C1131 C1130 1.385 . S
C1132 C1130 1.478 . S
C1132 C1134 1.381 . S
C1132 C1138 1.383 . S
C1133 C1129 1.495 . S
C1133 H1139 0.959 . S
C1133 H1140 0.961 . S
C1133 H1141 0.960 . S
C1134 C1132 1.381 . S
C1134 C1135 1.394 . S
C1134 H1142 0.930 . S
C1135 C1134 1.394 . S
C1135 C1136 1.383 . S
C1135 H1143 0.929 . S
C1136 C1135 1.383 . S
C1136 C1137 1.377 . S
C1137 H1121 0.930 . S
C1137 C1136 1.377 . S
C1137 C1138 1.379 . S
C1138 H1122 0.931 . S
C1138 C1132 1.383 . S
C1138 C1137 1.379 . S
H1139 C1133 0.959 . S
H1140 C1133 0.961 . S
H1141 C1133 0.960 . S
H1142 C1134 0.930 . S
H1143 C1135 0.929 . S
H1144 C1152 0.929 . S
H1145 C1154 0.930 1_655 S
H1146 C1156 0.930 . S
H1147 C1159 0.929 . S
H1148 C1162 0.930 . S
H1149 C1164 0.960 . S
H1150 C1164 0.960 . S
H1151 C1164 0.960 . S
C1152 H1144 0.929 . S
C1152 C1153 1.377 . S
C1152 C1154 1.384 . S
C1153 C1152 1.377 . S
C1153 C1159 1.390 . S
C1154 H1145 0.930 1_455 S
C1154 C1152 1.384 . S
C1154 C1155 1.372 . S
C1155 C1154 1.372 . S
C1155 C1156 1.400 . S
C1155 C1160 1.490 . S
C1156 H1146 0.930 . S
C1156 C1155 1.400 . S
C1156 C1159 1.386 . S
H1157 C1173 0.930 . S
H1158 C1174 0.931 . S
C1159 H1147 0.929 . S
C1159 C1153 1.390 . S
C1159 C1156 1.386 . S
C1160 C1155 1.490 . S
C1160 C1162 1.395 1_455 S
C1160 C1163 1.403 . S
H1161 C1167 0.930 . S
C1162 H1148 0.930 . S
C1162 C1160 1.395 1_655 S
C1162 C1165 1.403 . S
C1163 C1160 1.403 . S
C1163 C1164 1.524 . S
C1163 C1167 1.400 . S
C1164 H1149 0.960 . S
C1164 H1150 0.960 . S
C1164 H1151 0.960 . S
C1164 C1163 1.524 . S
C1165 C1162 1.403 . S
C1165 C1166 1.392 . S
C1165 C1169 1.495 . S
C1166 C1165 1.392 . S
C1166 C1167 1.385 1_655 S
C1166 C1168 1.478 . S
C1167 H1161 0.930 . S
C1167 C1163 1.400 . S
C1167 C1166 1.385 1_455 S
C1168 C1166 1.478 . S
C1168 C1170 1.381 . S
C1168 C1174 1.383 . S
C1169 C1165 1.495 . S
C1169 H1175 0.959 . S
C1169 H1176 0.961 . S
C1169 H1177 0.960 . S
C1170 C1168 1.381 . S
C1170 C1171 1.394 . S
C1170 H1178 0.930 . S
C1171 C1170 1.394 . S
C1171 C1172 1.383 . S
C1171 H1179 0.929 . S
C1172 C1171 1.383 . S
C1172 C1173 1.377 . S
C1173 H1157 0.930 . S
C1173 C1172 1.377 . S
C1173 C1174 1.379 . S
C1174 H1158 0.931 . S
C1174 C1168 1.383 . S
C1174 C1173 1.379 . S
H1175 C1169 0.959 . S
H1176 C1169 0.961 . S
H1177 C1169 0.960 . S
H1178 C1170 0.930 . S
H1179 C1171 0.929 . S
H1180 C1188 0.929 . S
H1181 C1190 0.930 . S
H1182 C1192 0.930 1_545 S
H1183 C1195 0.929 . S
H1184 C1198 0.930 . S
H1185 C1200 0.960 . S
H1186 C1200 0.960 . S
H1187 C1200 0.960 . S
C1188 H1180 0.929 . S
C1188 C1189 1.377 . S
C1188 C1190 1.384 . S
C1189 C1188 1.377 . S
C1189 C1195 1.390 . S
C1190 H1181 0.930 . S
C1190 C1188 1.384 . S
C1190 C1191 1.372 . S
C1191 C1190 1.372 . S
C1191 C1192 1.400 . S
C1191 C1196 1.490 . S
C1192 H1182 0.930 1_565 S
C1192 C1191 1.400 . S
C1192 C1195 1.386 . S
H1193 C1209 0.930 . S
H1194 C1210 0.931 . S
C1195 H1183 0.929 . S
C1195 C1189 1.390 . S
C1195 C1192 1.386 . S
C1196 C1191 1.490 . S
C1196 C1198 1.395 . S
C1196 C1199 1.403 1_565 S
H1197 C1203 0.930 . S
C1198 H1184 0.930 . S
C1198 C1196 1.395 . S
C1198 C1201 1.403 . S
C1199 C1196 1.403 1_545 S
C1199 C1200 1.524 . S
C1199 C1203 1.400 . S
C1200 H1185 0.960 . S
C1200 H1186 0.960 . S
C1200 H1187 0.960 . S
C1200 C1199 1.524 . S
C1201 C1198 1.403 . S
C1201 C1202 1.392 1_565 S
C1201 C1205 1.495 . S
C1202 C1201 1.392 1_545 S
C1202 C1203 1.385 . S
C1202 C1204 1.478 . S
C1203 H1197 0.930 . S
C1203 C1199 1.400 . S
C1203 C1202 1.385 . S
C1204 C1202 1.478 . S
C1204 C1206 1.381 . S
C1204 C1210 1.383 . S
C1205 C1201 1.495 . S
C1205 H1211 0.959 . S
C1205 H1212 0.961 . S
C1205 H1213 0.960 . S
C1206 C1204 1.381 . S
C1206 C1207 1.394 . S
C1206 H1214 0.930 1_545 S
C1207 C1206 1.394 . S
C1207 C1208 1.383 . S
C1207 H1215 0.929 . S
C1208 C1207 1.383 . S
C1208 C1209 1.377 . S
C1209 H1193 0.930 . S
C1209 C1208 1.377 . S
C1209 C1210 1.379 . S
C1210 H1194 0.931 . S
C1210 C1204 1.383 . S
C1210 C1209 1.379 . S
H1211 C1205 0.959 . S
H1212 C1205 0.961 . S
H1213 C1205 0.960 . S
H1214 C1206 0.930 1_565 S
H1215 C1207 0.929 . S
H1216 C1224 0.929 . S
H1217 C1226 0.930 . S
H1218 C1228 0.930 . S
H1219 C1231 0.929 . S
H1220 C1234 0.930 . S
H1221 C1236 0.960 . S
H1222 C1236 0.960 . S
H1223 C1236 0.960 . S
C1224 H1216 0.929 . S
C1224 C1225 1.377 . S
C1224 C1226 1.384 . S
C1225 C1224 1.377 . S
C1225 C1231 1.390 . S
C1226 H1217 0.930 . S
C1226 C1224 1.384 . S
C1226 C1227 1.372 . S
C1227 C1226 1.372 . S
C1227 C1228 1.400 . S
C1227 C1232 1.490 . S
C1228 H1218 0.930 . S
C1228 C1227 1.400 . S
C1228 C1231 1.386 . S
H1229 C1245 0.930 . S
H1230 C1246 0.931 . S
C1231 H1219 0.929 . S
C1231 C1225 1.390 . S
C1231 C1228 1.386 . S
C1232 C1227 1.490 . S
C1232 C1234 1.395 . S
C1232 C1235 1.403 . S
H1233 C1239 0.930 . S
C1234 H1220 0.930 . S
C1234 C1232 1.395 . S
C1234 C1237 1.403 . S
C1235 C1232 1.403 . S
C1235 C1236 1.524 . S
C1235 C1239 1.400 . S
C1236 H1221 0.960 . S
C1236 H1222 0.960 . S
C1236 H1223 0.960 . S
C1236 C1235 1.524 . S
C1237 C1234 1.403 . S
C1237 C1238 1.392 . S
C1237 C1241 1.495 . S
C1238 C1237 1.392 . S
C1238 C1239 1.385 . S
C1238 C1240 1.478 . S
C1239 H1233 0.930 . S
C1239 C1235 1.400 . S
C1239 C1238 1.385 . S
C1240 C1238 1.478 . S
C1240 C1242 1.381 . S
C1240 C1246 1.383 . S
C1241 C1237 1.495 . S
C1241 H1247 0.959 . S
C1241 H1248 0.961 . S
C1241 H1249 0.960 . S
C1242 C1240 1.381 . S
C1242 C1243 1.394 . S
C1242 H1250 0.930 . S
C1243 C1242 1.394 . S
C1243 C1244 1.383 . S
C1243 H1251 0.929 . S
C1244 C1243 1.383 . S
C1244 C1245 1.377 . S
C1245 H1229 0.930 . S
C1245 C1244 1.377 . S
C1245 C1246 1.379 . S
C1246 H1230 0.931 . S
C1246 C1240 1.383 . S
C1246 C1245 1.379 . S
H1247 C1241 0.959 . S
H1248 C1241 0.961 . S
H1249 C1241 0.960 . S
H1250 C1242 0.930 . S
H1251 C1243 0.929 . S
H1252 C1260 0.929 . S
H1253 C1262 0.930 . S
H1254 C1264 0.930 . S
H1255 C1267 0.929 . S
H1256 C1270 0.930 . S
H1257 C1272 0.960 . S
H1258 C1272 0.960 . S
H1259 C1272 0.960 . S
C1260 H1252 0.929 . S
C1260 C1261 1.377 . S
C1260 C1262 1.384 . S
C1261 C1260 1.377 . S
C1261 C1267 1.390 . S
C1262 H1253 0.930 . S
C1262 C1260 1.384 . S
C1262 C1263 1.372 . S
C1263 C1262 1.372 . S
C1263 C1264 1.400 . S
C1263 C1268 1.490 . S
C1264 H1254 0.930 . S
C1264 C1263 1.400 . S
C1264 C1267 1.386 . S
H1265 C1281 0.930 . S
H1266 C1282 0.931 . S
C1267 H1255 0.929 . S
C1267 C1261 1.390 . S
C1267 C1264 1.386 . S
C1268 C1263 1.490 . S
C1268 C1270 1.395 . S
C1268 C1271 1.403 . S
H1269 C1275 0.930 . S
C1270 H1256 0.930 . S
C1270 C1268 1.395 . S
C1270 C1273 1.403 . S
C1271 C1268 1.403 . S
C1271 C1272 1.524 . S
C1271 C1275 1.400 . S
C1272 H1257 0.960 . S
C1272 H1258 0.960 . S
C1272 H1259 0.960 . S
C1272 C1271 1.524 . S
C1273 C1270 1.403 . S
C1273 C1274 1.392 . S
C1273 C1277 1.495 . S
C1274 C1273 1.392 . S
C1274 C1275 1.385 . S
C1274 C1276 1.478 . S
C1275 H1269 0.930 . S
C1275 C1271 1.400 . S
C1275 C1274 1.385 . S
C1276 C1274 1.478 . S
C1276 C1278 1.381 . S
C1276 C1282 1.383 . S
C1277 C1273 1.495 . S
C1277 H1283 0.959 . S
C1277 H1284 0.961 . S
C1277 H1285 0.960 . S
C1278 C1276 1.381 . S
C1278 C1279 1.394 . S
C1278 H1286 0.930 . S
C1279 C1278 1.394 . S
C1279 C1280 1.383 . S
C1279 H1287 0.929 . S
C1280 C1279 1.383 . S
C1280 C1281 1.377 . S
C1281 H1265 0.930 . S
C1281 C1280 1.377 . S
C1281 C1282 1.379 . S
C1282 H1266 0.931 . S
C1282 C1276 1.383 . S
C1282 C1281 1.379 . S
H1283 C1277 0.959 . S
H1284 C1277 0.961 . S
H1285 C1277 0.960 . S
H1286 C1278 0.930 . S
H1287 C1279 0.929 . S
H1288 C1296 0.929 . S
H1289 C1298 0.930 . S
H1290 C1300 0.930 . S
H1291 C1303 0.929 . S
H1292 C1306 0.930 . S
H1293 C1308 0.960 1_565 S
H1294 C1308 0.960 . S
H1295 C1308 0.960 . S
C1296 H1288 0.929 . S
C1296 C1297 1.377 . S
C1296 C1298 1.384 . S
C1297 C1296 1.377 . S
C1297 C1303 1.390 . S
C1298 H1289 0.930 . S
C1298 C1296 1.384 . S
C1298 C1299 1.372 . S
C1299 C1298 1.372 . S
C1299 C1300 1.400 . S
C1299 C1304 1.490 . S
C1300 H1290 0.930 . S
C1300 C1299 1.400 . S
C1300 C1303 1.386 . S
H1301 C1317 0.930 . S
H1302 C1318 0.931 . S
C1303 H1291 0.929 . S
C1303 C1297 1.390 . S
C1303 C1300 1.386 . S
C1304 C1299 1.490 . S
C1304 C1306 1.395 . S
C1304 C1307 1.403 . S
H1305 C1311 0.930 . S
C1306 H1292 0.930 . S
C1306 C1304 1.395 . S
C1306 C1309 1.403 1_545 S
C1307 C1304 1.403 . S
C1307 C1308 1.524 . S
C1307 C1311 1.400 1_545 S
C1308 H1293 0.960 1_545 S
C1308 H1294 0.960 . S
C1308 H1295 0.960 . S
C1308 C1307 1.524 . S
C1309 C1306 1.403 1_565 S
C1309 C1310 1.392 . S
C1309 C1313 1.495 . S
C1310 C1309 1.392 . S
C1310 C1311 1.385 . S
C1310 C1312 1.478 . S
C1311 H1305 0.930 . S
C1311 C1307 1.400 1_565 S
C1311 C1310 1.385 . S
C1312 C1310 1.478 . S
C1312 C1314 1.381 . S
C1312 C1318 1.383 . S
C1313 C1309 1.495 . S
C1313 H1319 0.959 1_565 S
C1313 H1320 0.961 . S
C1313 H1321 0.960 . S
C1314 C1312 1.381 . S
C1314 C1315 1.394 . S
C1314 H1322 0.930 . S
C1315 C1314 1.394 . S
C1315 C1316 1.383 . S
C1315 H1323 0.929 . S
C1316 C1315 1.383 . S
C1316 C1317 1.377 . S
C1317 H1301 0.930 . S
C1317 C1316 1.377 . S
C1317 C1318 1.379 . S
C1318 H1302 0.931 . S
C1318 C1312 1.383 . S
C1318 C1317 1.379 . S
H1319 C1313 0.959 1_545 S
H1320 C1313 0.961 . S
H1321 C1313 0.960 . S
H1322 C1314 0.930 . S
H1323 C1315 0.929 . S
H1324 C1332 0.929 . S
H1325 C1334 0.930 . S
H1326 C1336 0.930 . S
H1327 C1339 0.929 . S
H1328 C1342 0.930 . S
H1329 C1344 0.960 1_455 S
H1330 C1344 0.960 . S
H1331 C1344 0.960 . S
C1332 H1324 0.929 . S
C1332 C1333 1.377 . S
C1332 C1334 1.384 . S
C1333 C1332 1.377 . S
C1333 C1339 1.390 . S
C1334 H1325 0.930 . S
C1334 C1332 1.384 . S
C1334 C1335 1.372 . S
C1335 C1334 1.372 . S
C1335 C1336 1.400 . S
C1335 C1340 1.490 . S
C1336 H1326 0.930 . S
C1336 C1335 1.400 . S
C1336 C1339 1.386 . S
H1337 C1353 0.930 . S
H1338 C1354 0.931 . S
C1339 H1327 0.929 . S
C1339 C1333 1.390 . S
C1339 C1336 1.386 . S
C1340 C1335 1.490 . S
C1340 C1342 1.395 . S
C1340 C1343 1.403 . S
H1341 C1347 0.930 . S
C1342 H1328 0.930 . S
C1342 C1340 1.395 . S
C1342 C1345 1.403 1_655 S
C1343 C1340 1.403 . S
C1343 C1344 1.524 . S
C1343 C1347 1.400 1_655 S
C1344 H1329 0.960 1_655 S
C1344 H1330 0.960 . S
C1344 H1331 0.960 . S
C1344 C1343 1.524 . S
C1345 C1342 1.403 1_455 S
C1345 C1346 1.392 . S
C1345 C1349 1.495 . S
C1346 C1345 1.392 . S
C1346 C1347 1.385 . S
C1346 C1348 1.478 . S
C1347 H1341 0.930 . S
C1347 C1343 1.400 1_455 S
C1347 C1346 1.385 . S
C1348 C1346 1.478 . S
C1348 C1350 1.381 . S
C1348 C1354 1.383 . S
C1349 C1345 1.495 . S
C1349 H1355 0.959 1_455 S
C1349 H1356 0.961 . S
C1349 H1357 0.960 . S
C1350 C1348 1.381 . S
C1350 C1351 1.394 . S
C1350 H1358 0.930 . S
C1351 C1350 1.394 . S
C1351 C1352 1.383 . S
C1351 H1359 0.929 . S
C1352 C1351 1.383 . S
C1352 C1353 1.377 . S
C1353 H1337 0.930 . S
C1353 C1352 1.377 . S
C1353 C1354 1.379 . S
C1354 H1338 0.931 . S
C1354 C1348 1.383 . S
C1354 C1353 1.379 . S
H1355 C1349 0.959 1_655 S
H1356 C1349 0.961 . S
H1357 C1349 0.960 . S
H1358 C1350 0.930 . S
H1359 C1351 0.929 . S
C217 C5 1.068 . S
C236 C148 1.044 . S
C253 C107 1.052 . S
C272 C18 1.076 . S
C289 C120 1.060 . S
C308 C29 1.069 . S
C325 C135 1.060 . S
C344 C42 1.056 . S
C361 C68 1.058 1_545 S
C380 C57 1.064 . S
C397 C70 1.069 . S
C416 C83 1.032 1_455 S
C433 C81 1.070 . S
C452 C96 1.067 1_565 S
C469 C94 1.066 . S
C488 C55 1.054 1_655 S
C505 C109 1.070 . S
C524 C44 1.074 1_565 S
C541 C3 1.050 1_655 S
C560 C122 1.078 . S
C577 C16 1.060 1_545 S
C596 C133 1.070 . S
C613 C31 1.061 1_455 S
C632 C146 1.054 . S
C649 C172 1.051 . S
C668 C159 1.051 . S
C685 C174 1.065 . S
C704 C187 1.073 . S
C721 C200 1.061 . S
C740 C185 1.077 . S
C757 C161 1.055 . S
C776 C198 1.070 . S
C793 C186 1.733 . S
C812 C10 1.743 . S
C829 C199 1.734 . S
C848 C23 1.723 . S
C865 C160 1.732 . S
C884 C30 1.741 . S
C901 C43 1.729 . S
C920 C179 1.715 . S
C937 C62 1.732 . S
C956 C134 1.715 . S
C973 C147 1.734 . S
C992 C75 1.741 . S
C1009 C82 1.729 . S
C1028 C114 1.713 . S
C1045 C95 1.728 . S
C1064 C127 1.719 . S
C1081 C36 1.310 . S
C1100 C4 1.317 . S
C1117 C49 1.307 . S
C1136 C17 1.296 . S
C1153 C56 1.309 . S
C1172 C88 1.316 . S
C1189 C69 1.310 . S
C1208 C101 1.298 . S
C1225 C140 1.311 . S
C1244 C108 1.316 . S
C1261 C121 1.310 . S
C1280 C153 1.317 . S
C1297 C192 1.308 . S
C1316 C166 1.310 . S
C1333 C173 1.308 . S
C1352 C205 1.314 . S
