# Generated by pormake.
# Topology uou, (4)-cn, num edge types: 1
# Building blocks:
#     Node 0, Type 0, BuildingBlock: GALJAG_clean_sbu_0, # of connection points: 4
#     Node 1, Type 0, BuildingBlock: GALJAG_clean_sbu_0, # of connection points: 4
#     Node 2, Type 0, BuildingBlock: GALJAG_clean_sbu_0, # of connection points: 4
#     Node 3, Type 0, BuildingBlock: GALJAG_clean_sbu_0, # of connection points: 4
#     Node 4, Type 0, BuildingBlock: GALJAG_clean_sbu_0, # of connection points: 4
#     Node 5, Type 0, BuildingBlock: GALJAG_clean_sbu_0, # of connection points: 4
#     Node 6, Type 0, BuildingBlock: GALJAG_clean_sbu_0, # of connection points: 4
#     Node 7, Type 0, BuildingBlock: GALJAG_clean_sbu_0, # of connection points: 4
#     Node 8, Type 0, BuildingBlock: GALJAG_clean_sbu_0, # of connection points: 4
#     Node 9, Type 0, BuildingBlock: GALJAG_clean_sbu_0, # of connection points: 4
#     Node 10, Type 0, BuildingBlock: GALJAG_clean_sbu_0, # of connection points: 4
#     Node 11, Type 0, BuildingBlock: GALJAG_clean_sbu_0, # of connection points: 4
#     Node 12, Type 0, BuildingBlock: GALJAG_clean_sbu_0, # of connection points: 4
#     Node 13, Type 0, BuildingBlock: GALJAG_clean_sbu_0, # of connection points: 4
#     Node 14, Type 0, BuildingBlock: GALJAG_clean_sbu_0, # of connection points: 4
#     Node 15, Type 0, BuildingBlock: GALJAG_clean_sbu_0, # of connection points: 4
#     Edge 16, Type (0, 0), BuildingBlock: UVAHIK_clean_linker_0, # of connection points: 2
#     Edge 17, Type (0, 0), BuildingBlock: UVAHIK_clean_linker_0, # of connection points: 2
#     Edge 18, Type (0, 0), BuildingBlock: UVAHIK_clean_linker_0, # of connection points: 2
#     Edge 19, Type (0, 0), BuildingBlock: UVAHIK_clean_linker_0, # of connection points: 2
#     Edge 20, Type (0, 0), BuildingBlock: UVAHIK_clean_linker_0, # of connection points: 2
#     Edge 21, Type (0, 0), BuildingBlock: UVAHIK_clean_linker_0, # of connection points: 2
#     Edge 22, Type (0, 0), BuildingBlock: UVAHIK_clean_linker_0, # of connection points: 2
#     Edge 23, Type (0, 0), BuildingBlock: UVAHIK_clean_linker_0, # of connection points: 2
#     Edge 24, Type (0, 0), BuildingBlock: UVAHIK_clean_linker_0, # of connection points: 2
#     Edge 25, Type (0, 0), BuildingBlock: UVAHIK_clean_linker_0, # of connection points: 2
#     Edge 26, Type (0, 0), BuildingBlock: UVAHIK_clean_linker_0, # of connection points: 2
#     Edge 27, Type (0, 0), BuildingBlock: UVAHIK_clean_linker_0, # of connection points: 2
#     Edge 28, Type (0, 0), BuildingBlock: UVAHIK_clean_linker_0, # of connection points: 2
#     Edge 29, Type (0, 0), BuildingBlock: UVAHIK_clean_linker_0, # of connection points: 2
#     Edge 30, Type (0, 0), BuildingBlock: UVAHIK_clean_linker_0, # of connection points: 2
#     Edge 31, Type (0, 0), BuildingBlock: UVAHIK_clean_linker_0, # of connection points: 2
#     Edge 32, Type (0, 0), BuildingBlock: UVAHIK_clean_linker_0, # of connection points: 2
#     Edge 33, Type (0, 0), BuildingBlock: UVAHIK_clean_linker_0, # of connection points: 2
#     Edge 34, Type (0, 0), BuildingBlock: UVAHIK_clean_linker_0, # of connection points: 2
#     Edge 35, Type (0, 0), BuildingBlock: UVAHIK_clean_linker_0, # of connection points: 2
#     Edge 36, Type (0, 0), BuildingBlock: UVAHIK_clean_linker_0, # of connection points: 2
#     Edge 37, Type (0, 0), BuildingBlock: UVAHIK_clean_linker_0, # of connection points: 2
#     Edge 38, Type (0, 0), BuildingBlock: UVAHIK_clean_linker_0, # of connection points: 2
#     Edge 39, Type (0, 0), BuildingBlock: UVAHIK_clean_linker_0, # of connection points: 2
#     Edge 40, Type (0, 0), BuildingBlock: UVAHIK_clean_linker_0, # of connection points: 2
#     Edge 41, Type (0, 0), BuildingBlock: UVAHIK_clean_linker_0, # of connection points: 2
#     Edge 42, Type (0, 0), BuildingBlock: UVAHIK_clean_linker_0, # of connection points: 2
#     Edge 43, Type (0, 0), BuildingBlock: UVAHIK_clean_linker_0, # of connection points: 2
#     Edge 44, Type (0, 0), BuildingBlock: UVAHIK_clean_linker_0, # of connection points: 2
#     Edge 45, Type (0, 0), BuildingBlock: UVAHIK_clean_linker_0, # of connection points: 2
#     Edge 46, Type (0, 0), BuildingBlock: UVAHIK_clean_linker_0, # of connection points: 2
#     Edge 47, Type (0, 0), BuildingBlock: UVAHIK_clean_linker_0, # of connection points: 2
# Relax obj value: 0.005
# Max RMSD: 0.017
# Mean RMSD: 0.017
data_MOF--net-uou--node1-GALJAG_clean_sbu_0--edge1-UVAHIK_clean_linker_0
_symmetry_space_group_name_H-M    P1
_symmetry_Int_Tables_number       1
_symmetry_cell_setting            triclinic
loop_
_symmetry_equiv_pos_as_xyz
'x, y, z'
_cell_length_a     46.177964
_cell_length_b     56.263297
_cell_length_c     70.754213
_cell_angle_alpha  89.985302
_cell_angle_beta   89.99643
_cell_angle_gamma 89.988066
loop_
_atom_site_label
_atom_site_type_symbol
_atom_site_fract_x
_atom_site_fract_y
_atom_site_fract_z
_atom_type_partial_charge
In0 In 0.05647 0.07876 0.11092 0.0
O1 O 0.10592 0.08043 0.1086 0.0
O2 O 0.08569 0.04648 0.1101 0.0
C3 C 0.04167 0.12512 0.10824 0.0
C4 C 0.03399 0.05958 0.07932 0.0
C5 C 0.04206 0.06945 0.14708 0.0
O6 O 0.06771 0.11828 0.10741 0.0
O7 O 0.02346 0.10865 0.11035 0.0
O8 O 0.02524 0.06503 0.13347 0.0
O9 O 0.06595 0.07858 0.14244 0.0
C10 C 0.10898 0.05808 0.10882 0.0
O11 O 0.02653 0.05291 0.09566 0.0
O12 O 0.05237 0.07618 0.07898 0.0
In13 In 0.43543 0.91492 0.11033 0.0
O14 O 0.38599 0.91415 0.10765 0.0
O15 O 0.40667 0.94739 0.11263 0.0
C16 C 0.44887 0.86841 0.10669 0.0
C17 C 0.45563 0.93499 0.07841 0.0
C18 C 0.45367 0.92255 0.14601 0.0
O19 O 0.42304 0.87547 0.1085 0.0
O20 O 0.46753 0.88474 0.10657 0.0
O21 O 0.46915 0.92731 0.1318 0.0
O22 O 0.42912 0.91401 0.1422 0.0
C23 C 0.38325 0.93633 0.11 0.0
O24 O 0.46445 0.94105 0.0946 0.0
O25 O 0.43704 0.91855 0.07835 0.0
In26 In 0.55751 0.91535 0.37624 0.0
O27 O 0.52836 0.94155 0.39186 0.0
O28 O 0.55493 0.9184 0.40817 0.0
C29 C 0.54247 0.9232 0.33999 0.0
C30 C 0.60998 0.93613 0.37728 0.0
C31 C 0.54154 0.8694 0.37966 0.0
O32 O 0.52634 0.92909 0.35363 0.0
O33 O 0.56598 0.91345 0.34468 0.0
O34 O 0.56783 0.87567 0.37971 0.0
O35 O 0.5237 0.88623 0.37797 0.0
C36 C 0.53661 0.93504 0.40809 0.0
O37 O 0.60694 0.91385 0.37883 0.0
O38 O 0.58671 0.94757 0.37518 0.0
In39 In 0.93807 0.0767 0.3764 0.0
O40 O 0.96659 0.05115 0.39305 0.0
O41 O 0.93974 0.07499 0.40848 0.0
C42 C 0.95555 0.06697 0.3409 0.0
C43 C 0.88545 0.05606 0.37708 0.0
C44 C 0.95308 0.123 0.37876 0.0
O45 O 0.97083 0.06211 0.35518 0.0
O46 O 0.93157 0.07665 0.34456 0.0
O47 O 0.92693 0.11636 0.37867 0.0
O48 O 0.97128 0.10636 0.37776 0.0
C49 C 0.95798 0.0583 0.40901 0.0
O50 O 0.88853 0.07839 0.37775 0.0
O51 O 0.90876 0.04446 0.37598 0.0
In52 In 0.93557 0.91549 0.87736 0.0
O53 O 0.96376 0.94173 0.89352 0.0
O54 O 0.93666 0.91856 0.9094 0.0
C55 C 0.95418 0.9241 0.8419 0.0
C56 C 0.88303 0.93629 0.87747 0.0
C57 C 0.94973 0.86907 0.88067 0.0
O58 O 0.96946 0.92859 0.85625 0.0
O59 O 0.92967 0.91531 0.84546 0.0
O60 O 0.92378 0.8759 0.87904 0.0
O61 O 0.96816 0.88558 0.88078 0.0
C62 C 0.95486 0.93528 0.9096 0.0
O63 O 0.88604 0.91403 0.8791 0.0
O64 O 0.90636 0.94772 0.87568 0.0
In65 In 0.55632 0.07922 0.87681 0.0
O66 O 0.60584 0.08016 0.87869 0.0
O67 O 0.58506 0.04667 0.87522 0.0
C68 C 0.5425 0.12567 0.88031 0.0
C69 C 0.53597 0.05953 0.90884 0.0
C70 C 0.53856 0.07124 0.84108 0.0
O71 O 0.56847 0.11865 0.87947 0.0
O72 O 0.52389 0.10933 0.87953 0.0
O73 O 0.52307 0.06629 0.85523 0.0
O74 O 0.56289 0.08015 0.84496 0.0
C75 C 0.60854 0.05788 0.87706 0.0
O76 O 0.52719 0.05333 0.89268 0.0
O77 O 0.55463 0.07592 0.90882 0.0
In78 In 0.43556 0.07665 0.61065 0.0
O79 O 0.46481 0.05051 0.59505 0.0
O80 O 0.43823 0.07365 0.57873 0.0
C81 C 0.45066 0.06891 0.6469 0.0
C82 C 0.38326 0.05562 0.60939 0.0
C83 C 0.45116 0.12268 0.60719 0.0
O84 O 0.46692 0.06324 0.63328 0.0
O85 O 0.42698 0.07838 0.6422 0.0
O86 O 0.42491 0.11631 0.60742 0.0
O87 O 0.46913 0.10591 0.60862 0.0
C88 C 0.45659 0.05703 0.57882 0.0
O89 O 0.38615 0.07791 0.60787 0.0
O90 O 0.40659 0.04429 0.61162 0.0
In91 In 0.05512 0.91556 0.61169 0.0
O92 O 0.02585 0.94197 0.59639 0.0
O93 O 0.05138 0.91838 0.57979 0.0
C94 C 0.04117 0.9243 0.64799 0.0
C95 C 0.10787 0.93577 0.60973 0.0
C96 C 0.03913 0.86953 0.60878 0.0
O97 O 0.02451 0.92959 0.63448 0.0
O98 O 0.06467 0.91464 0.64316 0.0
O99 O 0.06534 0.87592 0.60792 0.0
O100 O 0.02133 0.88629 0.611 0.0
C101 C 0.03343 0.93529 0.58007 0.0
O102 O 0.1045 0.91347 0.60898 0.0
O103 O 0.08479 0.94754 0.61153 0.0
In104 In 0.55423 0.57716 0.11094 0.0
O105 O 0.60375 0.5791 0.10938 0.0
O106 O 0.58378 0.54506 0.11106 0.0
C107 C 0.53854 0.62327 0.10815 0.0
C108 C 0.53352 0.55822 0.07875 0.0
C109 C 0.53791 0.56804 0.14677 0.0
O110 O 0.56475 0.61682 0.10758 0.0
O111 O 0.52063 0.60654 0.11003 0.0
O112 O 0.52236 0.56263 0.13274 0.0
O113 O 0.56162 0.57791 0.1427 0.0
C114 C 0.607 0.55678 0.10991 0.0
O115 O 0.52544 0.55121 0.09487 0.0
O116 O 0.55163 0.57502 0.07893 0.0
In117 In 0.93499 0.41607 0.11109 0.0
O118 O 0.88559 0.41474 0.10818 0.0
O119 O 0.90585 0.44832 0.11245 0.0
C120 C 0.95033 0.36994 0.10776 0.0
C121 C 0.95564 0.43598 0.07925 0.0
C122 C 0.95056 0.42399 0.14724 0.0
O123 O 0.92412 0.3764 0.10839 0.0
O124 O 0.96841 0.38668 0.10868 0.0
O125 O 0.9668 0.42932 0.13351 0.0
O126 O 0.9267 0.41472 0.14269 0.0
C127 C 0.88258 0.43698 0.11003 0.0
O128 O 0.96394 0.44241 0.09548 0.0
O129 O 0.93743 0.41926 0.07915 0.0
In130 In 0.05559 0.41498 0.37709 0.0
O131 O 0.02642 0.44082 0.39298 0.0
O132 O 0.05329 0.41774 0.40911 0.0
C133 C 0.03835 0.42361 0.34134 0.0
C134 C 0.10798 0.43599 0.37797 0.0
C135 C 0.04154 0.36851 0.38005 0.0
O136 O 0.02268 0.42835 0.35546 0.0
O137 O 0.06261 0.4146 0.34527 0.0
O138 O 0.06754 0.37548 0.37937 0.0
O139 O 0.023 0.38492 0.37938 0.0
C140 C 0.03482 0.43428 0.40915 0.0
O141 O 0.10506 0.41369 0.37928 0.0
O142 O 0.08463 0.44739 0.37613 0.0
In143 In 0.43464 0.57871 0.37695 0.0
O144 O 0.46411 0.55256 0.3923 0.0
O145 O 0.43744 0.57529 0.40889 0.0
C146 C 0.45048 0.5707 0.34086 0.0
C147 C 0.38239 0.55753 0.37809 0.0
C148 C 0.44901 0.62504 0.38043 0.0
O149 O 0.46688 0.56595 0.35463 0.0
O150 O 0.42631 0.57947 0.34532 0.0
O151 O 0.42295 0.6182 0.37996 0.0
O152 O 0.46743 0.60858 0.37925 0.0
C153 C 0.45591 0.55876 0.40861 0.0
O154 O 0.38519 0.57983 0.37955 0.0
O155 O 0.40578 0.54625 0.37602 0.0
In156 In 0.438 0.41705 0.87494 0.0
O157 O 0.38852 0.41565 0.87724 0.0
O158 O 0.40882 0.44928 0.87335 0.0
C159 C 0.45327 0.37091 0.87833 0.0
C160 C 0.45795 0.43662 0.90709 0.0
C161 C 0.45515 0.4252 0.83914 0.0
O162 O 0.42707 0.37739 0.87769 0.0
O163 O 0.47136 0.38763 0.87736 0.0
O164 O 0.47051 0.43077 0.85322 0.0
O165 O 0.43123 0.41562 0.84315 0.0
C166 C 0.38552 0.43791 0.87552 0.0
O167 O 0.46652 0.44326 0.89098 0.0
O168 O 0.43979 0.41987 0.90693 0.0
In169 In 0.05752 0.57829 0.8773 0.0
O170 O 0.10695 0.58027 0.87967 0.0
O171 O 0.08703 0.5462 0.87793 0.0
C172 C 0.04156 0.62437 0.87974 0.0
C173 C 0.03536 0.55926 0.90906 0.0
C174 C 0.04367 0.56909 0.84105 0.0
O175 O 0.06772 0.61795 0.88102 0.0
O176 O 0.02382 0.60763 0.87732 0.0
O177 O 0.02703 0.56387 0.85459 0.0
O178 O 0.06711 0.57889 0.84582 0.0
C179 C 0.11021 0.55793 0.8793 0.0
O180 O 0.0279 0.55236 0.89278 0.0
O181 O 0.05355 0.576 0.90924 0.0
In182 In 0.93726 0.57757 0.61175 0.0
O183 O 0.966 0.55157 0.59569 0.0
O184 O 0.93847 0.57431 0.57973 0.0
C185 C 0.95607 0.56939 0.64723 0.0
C186 C 0.88507 0.5562 0.61159 0.0
C187 C 0.95045 0.62417 0.60828 0.0
O188 O 0.97138 0.56495 0.63288 0.0
O189 O 0.93143 0.57794 0.64366 0.0
O190 O 0.92467 0.617 0.61012 0.0
O191 O 0.9692 0.6079 0.60808 0.0
C192 C 0.95699 0.55781 0.57959 0.0
O193 O 0.88777 0.57843 0.60955 0.0
O194 O 0.90853 0.54508 0.61384 0.0
In195 In 0.55865 0.41327 0.60903 0.0
O196 O 0.52923 0.43938 0.59361 0.0
O197 O 0.55574 0.41646 0.57708 0.0
C198 C 0.54311 0.42164 0.64514 0.0
C199 C 0.61109 0.43413 0.60792 0.0
C200 C 0.54383 0.36702 0.60572 0.0
O201 O 0.52672 0.42648 0.63139 0.0
O202 O 0.56713 0.41261 0.64065 0.0
O203 O 0.56994 0.37376 0.60562 0.0
O204 O 0.52558 0.38353 0.60738 0.0
C205 C 0.53732 0.43303 0.57732 0.0
O206 O 0.60814 0.4118 0.60699 0.0
O207 O 0.58774 0.44562 0.6094 0.0
C208 C 0.35393 0.97355 0.11126 0.0
C209 C 0.35503 0.94869 0.10956 0.0
C210 C 0.32746 0.9855 0.11073 0.0
C211 C 0.25131 0.97884 0.09548 0.0
H212 H 0.23848 0.03188 0.12948 0.0
C213 C 0.13894 0.02127 0.10678 0.0
C214 C 0.13745 0.04617 0.10792 0.0
C215 C 0.16567 0.00971 0.10634 0.0
C216 C 0.24187 0.01729 0.11974 0.0
H217 H 0.32928 0.91681 0.10603 0.0
H218 H 0.28284 0.93766 0.1054 0.0
H219 H 0.28448 0.01065 0.13034 0.0
H220 H 0.16278 0.07854 0.10934 0.0
H221 H 0.20969 0.05829 0.10859 0.0
H222 H 0.20852 0.98537 0.08505 0.0
C223 C 0.30253 0.94796 0.10686 0.0
C224 C 0.26822 0.00511 0.12022 0.0
C225 C 0.32909 0.93599 0.10733 0.0
C226 C 0.16328 0.05933 0.10849 0.0
C227 C 0.19009 0.04773 0.10815 0.0
C228 C 0.22491 0.99098 0.09505 0.0
C229 C 0.30141 0.97287 0.10857 0.0
C230 C 0.27327 0.98572 0.1081 0.0
C231 C 0.19155 0.02279 0.10712 0.0
C232 C 0.21989 0.01032 0.10719 0.0
H233 H 0.37358 0.98386 0.11289 0.0
H234 H 0.32746 0.0047 0.11178 0.0
H235 H 0.25465 0.96426 0.08573 0.0
H236 H 0.1194 0.01063 0.10633 0.0
H237 H 0.16606 0.99048 0.10576 0.0
C238 C 0.6398 0.97308 0.37691 0.0
C239 C 0.6384 0.94816 0.37779 0.0
C240 C 0.66646 0.98474 0.3772 0.0
C241 C 0.74334 0.97672 0.39022 0.0
H242 H 0.75479 0.03109 0.35732 0.0
C243 C 0.85542 0.01922 0.37798 0.0
C244 C 0.85695 0.04416 0.37758 0.0
C245 C 0.82866 0.00771 0.37841 0.0
C246 C 0.75181 0.01611 0.36675 0.0
H247 H 0.66382 0.91587 0.37971 0.0
H248 H 0.7106 0.93625 0.37996 0.0
H249 H 0.70853 0.01023 0.35707 0.0
H250 H 0.8317 0.07663 0.37737 0.0
H251 H 0.78476 0.05646 0.37812 0.0
H252 H 0.78677 0.98253 0.39975 0.0
C253 C 0.691 0.94679 0.3793 0.0
C254 C 0.72531 0.00414 0.36661 0.0
C255 C 0.66425 0.9351 0.37905 0.0
C256 C 0.83116 0.05738 0.37763 0.0
C257 C 0.80432 0.04584 0.37798 0.0
C258 C 0.76989 0.98866 0.39031 0.0
C259 C 0.69241 0.97176 0.37831 0.0
C260 C 0.72074 0.98431 0.37836 0.0
C261 C 0.80281 0.02086 0.37838 0.0
C262 C 0.77442 0.00848 0.37856 0.0
H263 H 0.62024 0.98366 0.37603 0.0
H264 H 0.6667 0.00398 0.37674 0.0
H265 H 0.7404 0.96176 0.39966 0.0
H266 H 0.87493 0.00853 0.37793 0.0
H267 H 0.82822 0.98846 0.37847 0.0
C268 C 0.85318 0.97325 0.87732 0.0
C269 C 0.85459 0.94831 0.87771 0.0
C270 C 0.82649 0.98488 0.87758 0.0
C271 C 0.74943 0.97644 0.86677 0.0
H272 H 0.73896 0.03193 0.89857 0.0
C273 C 0.63792 0.02066 0.87669 0.0
C274 C 0.63682 0.0456 0.87732 0.0
C275 C 0.66446 0.00879 0.87693 0.0
C276 C 0.74163 0.01665 0.88943 0.0
H277 H 0.82917 0.91595 0.87867 0.0
H278 H 0.78233 0.93634 0.8791 0.0
H279 H 0.78517 0.01092 0.89879 0.0
H280 H 0.66263 0.0777 0.87867 0.0
H281 H 0.70917 0.05698 0.87878 0.0
H282 H 0.70606 0.98226 0.85724 0.0
C283 C 0.80195 0.94686 0.87849 0.0
C284 C 0.76808 0.00458 0.8896 0.0
C285 C 0.82873 0.9352 0.87834 0.0
C286 C 0.66283 0.05846 0.87821 0.0
C287 C 0.68945 0.04657 0.87839 0.0
C288 C 0.72302 0.98856 0.86654 0.0
C289 C 0.80058 0.97184 0.87816 0.0
C290 C 0.77227 0.98435 0.87826 0.0
C291 C 0.69057 0.02158 0.87773 0.0
C292 C 0.71878 0.00882 0.87787 0.0
H293 H 0.87274 0.98385 0.87681 0.0
H294 H 0.82615 0.00412 0.87707 0.0
H295 H 0.75215 0.96112 0.85767 0.0
H296 H 0.61822 0.01023 0.8761 0.0
H297 H 0.66447 0.98954 0.87673 0.0
C298 C 0.13821 0.9724 0.60833 0.0
C299 C 0.13646 0.94747 0.6087 0.0
C300 C 0.16505 0.98375 0.60761 0.0
C301 C 0.2419 0.97488 0.61876 0.0
H302 H 0.2532 0.02966 0.58629 0.0
C303 C 0.35374 0.0185 0.60933 0.0
C304 C 0.35494 0.04344 0.60867 0.0
C305 C 0.32718 0.0067 0.6088 0.0
C306 C 0.2503 0.01457 0.5956 0.0
H307 H 0.1614 0.91485 0.60847 0.0
H308 H 0.20851 0.93474 0.60722 0.0
H309 H 0.20684 0.00887 0.58607 0.0
H310 H 0.3293 0.07561 0.60688 0.0
H311 H 0.28269 0.055 0.60624 0.0
H312 H 0.28516 0.98068 0.62848 0.0
C313 C 0.18905 0.94547 0.60761 0.0
C314 C 0.22376 0.00262 0.59543 0.0
C315 C 0.16212 0.93409 0.60824 0.0
C316 C 0.32902 0.05637 0.60738 0.0
C317 C 0.30236 0.04455 0.6069 0.0
C318 C 0.26838 0.98686 0.61898 0.0
C319 C 0.19078 0.97044 0.60731 0.0
C320 C 0.21925 0.98268 0.60704 0.0
C321 C 0.30115 0.01956 0.60767 0.0
C322 C 0.2729 0.00687 0.60742 0.0
H323 H 0.1188 0.98322 0.60869 0.0
H324 H 0.16566 0.003 0.60764 0.0
H325 H 0.23893 0.9598 0.62809 0.0
H326 H 0.37338 0.00802 0.61021 0.0
H327 H 0.32709 0.98746 0.60908 0.0
C328 C 0.85287 0.474 0.11064 0.0
C329 C 0.85421 0.4491 0.10943 0.0
C330 C 0.82625 0.48573 0.11023 0.0
C331 C 0.74966 0.47815 0.0963 0.0
H332 H 0.7375 0.5318 0.1298 0.0
C333 C 0.63727 0.52009 0.1085 0.0
C334 C 0.63558 0.54501 0.10925 0.0
C335 C 0.66409 0.50869 0.10798 0.0
C336 C 0.74068 0.51704 0.1202 0.0
H337 H 0.82875 0.41693 0.1068 0.0
H338 H 0.78205 0.43742 0.10634 0.0
H339 H 0.78375 0.51094 0.13019 0.0
H340 H 0.66063 0.57756 0.10997 0.0
H341 H 0.7077 0.55758 0.10908 0.0
H342 H 0.70642 0.48416 0.08647 0.0
C343 C 0.80165 0.4479 0.10735 0.0
C344 C 0.76718 0.50506 0.12042 0.0
C345 C 0.82836 0.43614 0.10772 0.0
C346 C 0.66129 0.55833 0.10943 0.0
C347 C 0.6882 0.54689 0.10901 0.0
C348 C 0.72311 0.49009 0.09613 0.0
C349 C 0.8003 0.47285 0.10866 0.0
C350 C 0.772 0.48547 0.10847 0.0
C351 C 0.68987 0.52193 0.10828 0.0
C352 C 0.71832 0.50964 0.10811 0.0
H353 H 0.87243 0.4845 0.11187 0.0
H354 H 0.82606 0.50496 0.11094 0.0
H355 H 0.7528 0.46339 0.08669 0.0
H356 H 0.61782 0.50933 0.10835 0.0
H357 H 0.66464 0.48944 0.10766 0.0
C358 C 0.32811 0.55821 0.37963 0.0
C359 C 0.35409 0.5453 0.37868 0.0
C360 C 0.30147 0.54635 0.37993 0.0
C361 C 0.26791 0.48841 0.36802 0.0
H362 H 0.20564 0.51068 0.40023 0.0
C363 C 0.16225 0.43498 0.37924 0.0
C364 C 0.13637 0.44806 0.37856 0.0
C365 C 0.18899 0.44667 0.37962 0.0
C366 C 0.22276 0.50436 0.39105 0.0
H367 H 0.37264 0.5099 0.37755 0.0
H368 H 0.32638 0.48928 0.37838 0.0
H369 H 0.25185 0.53168 0.40013 0.0
H370 H 0.11814 0.48359 0.37788 0.0
H371 H 0.16469 0.50392 0.37852 0.0
H372 H 0.23882 0.46103 0.35903 0.0
C373 C 0.32641 0.50853 0.37853 0.0
C374 C 0.24921 0.51642 0.39095 0.0
C375 C 0.35296 0.52036 0.37817 0.0
C376 C 0.13772 0.47301 0.3784 0.0
C377 C 0.16438 0.48467 0.37889 0.0
C378 C 0.24151 0.4763 0.36818 0.0
C379 C 0.30032 0.52135 0.37932 0.0
C380 C 0.2721 0.50862 0.37942 0.0
C381 C 0.19032 0.47165 0.37946 0.0
C382 C 0.21861 0.48417 0.37966 0.0
H383 H 0.32834 0.57745 0.38 0.0
H384 H 0.28177 0.55678 0.38033 0.0
H385 H 0.2849 0.48214 0.35873 0.0
H386 H 0.16185 0.41573 0.3794 0.0
H387 H 0.20862 0.43616 0.38023 0.0
C388 C 0.16449 0.55949 0.87973 0.0
C389 C 0.13878 0.54617 0.88007 0.0
C390 C 0.1914 0.54804 0.87988 0.0
C391 C 0.22672 0.49102 0.89181 0.0
H392 H 0.28602 0.51225 0.85689 0.0
C393 C 0.33133 0.43707 0.87808 0.0
C394 C 0.35715 0.45002 0.8762 0.0
C395 C 0.30465 0.44885 0.87885 0.0
C396 C 0.26984 0.50626 0.86689 0.0
H397 H 0.12103 0.5105 0.88108 0.0
H398 H 0.16785 0.49059 0.8813 0.0
H399 H 0.23988 0.53321 0.85828 0.0
H400 H 0.37536 0.48544 0.87379 0.0
H401 H 0.32905 0.50592 0.87539 0.0
H402 H 0.25668 0.4641 0.90046 0.0
C403 C 0.1673 0.50984 0.88106 0.0
C404 C 0.2434 0.5183 0.86769 0.0
C405 C 0.14048 0.52125 0.88082 0.0
C406 C 0.35581 0.47493 0.87514 0.0
C407 C 0.32923 0.48669 0.87595 0.0
C408 C 0.2532 0.47902 0.89106 0.0
C409 C 0.19308 0.52308 0.88048 0.0
C410 C 0.22151 0.51076 0.88011 0.0
C411 C 0.30331 0.47381 0.87778 0.0
C412 C 0.27506 0.48647 0.87856 0.0
H413 H 0.16383 0.57872 0.87918 0.0
H414 H 0.21091 0.55872 0.87961 0.0
H415 H 0.2104 0.48497 0.9017 0.0
H416 H 0.33171 0.41785 0.8789 0.0
H417 H 0.28506 0.43838 0.88004 0.0
C418 C 0.64088 0.4711 0.60716 0.0
C419 C 0.63951 0.44615 0.60752 0.0
C420 C 0.66755 0.48274 0.60711 0.0
C421 C 0.74383 0.47481 0.62023 0.0
H422 H 0.75627 0.52924 0.58756 0.0
C423 C 0.85576 0.51897 0.61237 0.0
C424 C 0.85684 0.54387 0.61116 0.0
C425 C 0.82929 0.50704 0.61176 0.0
C426 C 0.75302 0.51427 0.59694 0.0
H427 H 0.66499 0.41381 0.60802 0.0
H428 H 0.71181 0.43422 0.60796 0.0
H429 H 0.7102 0.50809 0.58645 0.0
H430 H 0.83103 0.57587 0.60848 0.0
H431 H 0.78459 0.55505 0.60772 0.0
H432 H 0.78648 0.48109 0.63089 0.0
C433 C 0.69216 0.44474 0.60782 0.0
C434 C 0.72666 0.50211 0.59626 0.0
C435 C 0.6654 0.43305 0.60775 0.0
C436 C 0.83086 0.55665 0.60939 0.0
C437 C 0.80429 0.5447 0.60884 0.0
C438 C 0.77015 0.48702 0.62097 0.0
C439 C 0.69349 0.46972 0.60752 0.0
C440 C 0.72177 0.48226 0.60791 0.0
C441 C 0.80321 0.51974 0.61001 0.0
C442 C 0.77507 0.5069 0.60933 0.0
H443 H 0.62129 0.48169 0.60699 0.0
H444 H 0.66785 0.502 0.60711 0.0
H445 H 0.74054 0.45981 0.62958 0.0
H446 H 0.87544 0.50861 0.61365 0.0
H447 H 0.82931 0.48781 0.61239 0.0
C448 C 0.9944 0.0573 0.31751 0.0
C449 C 0.96523 0.06244 0.32137 0.0
C450 C 0.00383 0.05465 0.29885 0.0
C451 C 0.97968 0.04187 0.25053 0.0
H452 H 0.04384 0.08194 0.23528 0.0
C453 C 0.0054 0.06094 0.17218 0.0
C454 C 0.03433 0.06482 0.16696 0.0
C455 C -0.002 0.05794 0.19119 0.0
C456 C 0.02629 0.07022 0.2393 0.0
H457 H 0.92285 0.06795 0.30893 0.0
H458 H 0.93927 0.06293 0.27635 0.0
H459 H 0.02937 0.08068 0.26832 0.0
H460 H 0.07837 0.06757 0.17728 0.0
H461 H 0.06572 0.06143 0.21032 0.0
H462 H 0.97665 0.0312 0.22159 0.0
C463 C 0.95482 0.06107 0.28772 0.0
C464 C 0.01797 0.0696 0.25825 0.0
C465 C 0.94548 0.06408 0.30633 0.0
C466 C 0.05584 0.06488 0.18096 0.0
C467 C 0.04852 0.0615 0.19992 0.0
C468 C 0.98826 0.04222 0.23159 0.0
C469 C 0.98415 0.0567 0.2838 0.0
C470 C 0.99434 0.05569 0.26399 0.0
C471 C 0.01945 0.0584 0.20533 0.0
C472 C 0.01143 0.05668 0.22567 0.0
H473 H 0.01007 0.05594 0.32885 0.0
H474 H 0.02653 0.05116 0.29617 0.0
H475 H 0.96153 0.03083 0.25467 0.0
H476 H 0.98838 0.0609 0.16165 0.0
H477 H 0.97534 0.05596 0.1948 0.0
C478 C 0.44372 0.92531 0.1806 0.0
C479 C 0.46361 0.92616 0.1656 0.0
C480 C 0.45315 0.92787 0.19924 0.0
C481 C 0.51549 0.91733 0.22911 0.0
H482 H 0.47714 0.95913 0.26479 0.0
C483 C 0.5554 0.92494 0.30581 0.0
C484 C 0.53436 0.92683 0.32005 0.0
C485 C 0.54771 0.92729 0.28683 0.0
C486 C 0.48787 0.94714 0.25508 0.0
H487 H 0.50885 0.93059 0.15823 0.0
H488 H 0.52545 0.93456 0.19095 0.0
H489 H 0.46169 0.95867 0.23178 0.0
H490 H 0.48887 0.93292 0.3257 0.0
H491 H 0.47511 0.93612 0.29253 0.0
H492 H 0.54084 0.90495 0.25232 0.0
C493 C 0.50256 0.93206 0.18822 0.0
C494 C 0.47911 0.94701 0.23617 0.0
C495 C 0.49307 0.92988 0.16954 0.0
C496 C 0.50554 0.93148 0.31499 0.0
C497 C 0.49773 0.93346 0.29596 0.0
C498 C 0.52398 0.91719 0.24804 0.0
C499 C 0.48269 0.93098 0.20323 0.0
C500 C 0.49279 0.93204 0.22305 0.0
C501 C 0.51869 0.93119 0.28161 0.0
C502 C 0.51022 0.93203 0.26131 0.0
H503 H 0.42086 0.92253 0.17795 0.0
H504 H 0.43743 0.92678 0.21058 0.0
H505 H 0.52611 0.90538 0.2193 0.0
H506 H 0.57787 0.9216 0.30934 0.0
H507 H 0.56457 0.92598 0.27625 0.0
C508 C 0.00495 0.93319 0.67327 0.0
C509 C 0.03365 0.92847 0.66796 0.0
C510 C -0.00234 0.93568 0.69235 0.0
C511 C 0.02507 0.92041 0.74014 0.0
H512 H 0.96265 0.96173 0.75643 0.0
C513 C 0.99374 0.93226 0.81865 0.0
C514 C 0.96428 0.92827 0.82242 0.0
C515 C 0.0034 0.93487 0.80004 0.0
C516 C 0.98013 0.95013 0.75204 0.0
H517 H 0.07747 0.92367 0.67823 0.0
H518 H 0.06506 0.9289 0.71141 0.0
H519 H 0.97782 0.96203 0.72337 0.0
H520 H 0.92168 0.92466 0.80985 0.0
H521 H 0.93852 0.92963 0.77736 0.0
H522 H 0.02746 0.90875 0.7689 0.0
C523 C 0.04791 0.92989 0.701 0.0
C524 C 0.98873 0.95018 0.7331 0.0
C525 C 0.05509 0.92704 0.68197 0.0
C526 C 0.94454 0.92764 0.80733 0.0
C527 C 0.95412 0.93062 0.78877 0.0
C528 C 0.01674 0.92063 0.7591 0.0
C529 C 0.01902 0.93384 0.70648 0.0
C530 C 0.01104 0.93506 0.72684 0.0
C531 C 0.98367 0.93395 0.78494 0.0
C532 C 0.99394 0.93524 0.76516 0.0
H533 H 0.98797 0.93428 0.66274 0.0
H534 H 0.97513 0.93835 0.696 0.0
H535 H 0.04194 0.90819 0.73584 0.0
H536 H 0.00941 0.93282 0.83003 0.0
H537 H 0.02629 0.93752 0.79743 0.0
C538 C 0.4377 0.06695 0.68107 0.0
C539 C 0.45881 0.06541 0.66686 0.0
C540 C 0.44541 0.06476 0.70007 0.0
C541 C 0.5057 0.04606 0.7319 0.0
H542 H 0.46619 0.08713 0.76759 0.0
C543 C 0.54884 0.06865 0.80651 0.0
C544 C 0.52887 0.06745 0.82145 0.0
C545 C 0.53961 0.06593 0.78784 0.0
C546 C 0.47717 0.07538 0.75781 0.0
H547 H 0.50446 0.06012 0.66124 0.0
H548 H 0.51824 0.05721 0.69443 0.0
H549 H 0.45159 0.08727 0.73454 0.0
H550 H 0.4837 0.06222 0.82869 0.0
H551 H 0.46744 0.05797 0.79592 0.0
H552 H 0.53209 0.03503 0.75525 0.0
C553 C 0.49556 0.05945 0.69098 0.0
C554 C 0.46876 0.07535 0.73886 0.0
C555 C 0.48774 0.06127 0.67194 0.0
C556 C 0.49954 0.06322 0.81742 0.0
C557 C 0.49024 0.06087 0.79872 0.0
C558 C 0.51438 0.04637 0.75082 0.0
C559 C 0.47452 0.06139 0.70531 0.0
C560 C 0.48297 0.06074 0.72562 0.0
C561 C 0.51018 0.06232 0.78377 0.0
C562 C 0.50024 0.06109 0.76392 0.0
H563 H 0.41516 0.06989 0.67752 0.0
H564 H 0.4285 0.06578 0.71063 0.0
H565 H 0.5168 0.03427 0.72222 0.0
H566 H 0.57159 0.07184 0.80923 0.0
H567 H 0.55537 0.06731 0.77655 0.0
C568 C 0.49972 0.55866 0.17067 0.0
C569 C 0.52872 0.564 0.16647 0.0
C570 C 0.49068 0.55651 0.18945 0.0
C571 C 0.51566 0.54526 0.23776 0.0
H572 H 0.45074 0.58473 0.25267 0.0
C573 C 0.48806 0.5634 0.31608 0.0
C574 C 0.45892 0.56672 0.32102 0.0
C575 C 0.49604 0.56089 0.29712 0.0
C576 C 0.46853 0.5732 0.24876 0.0
H577 H 0.57123 0.57039 0.17846 0.0
H578 H 0.55547 0.56623 0.21127 0.0
H579 H 0.46533 0.5833 0.21966 0.0
H580 H 0.4151 0.56907 0.31021 0.0
H581 H 0.42876 0.56375 0.27727 0.0
H582 H 0.51872 0.53485 0.26676 0.0
C583 C 0.53976 0.56384 0.20006 0.0
C584 C 0.47692 0.57248 0.22982 0.0
C585 C 0.54871 0.56634 0.18131 0.0
C586 C 0.4378 0.5668 0.30676 0.0
C587 C 0.44569 0.5639 0.28786 0.0
C588 C 0.507 0.54568 0.25669 0.0
C589 C 0.51059 0.55928 0.2043 0.0
C590 C 0.50072 0.55871 0.22418 0.0
C591 C 0.47496 0.5613 0.28274 0.0
C592 C 0.48349 0.55986 0.26248 0.0
H593 H 0.48387 0.55675 0.15949 0.0
H594 H 0.46809 0.55285 0.19237 0.0
H595 H 0.53397 0.53435 0.23371 0.0
H596 H 0.50479 0.56336 0.32682 0.0
H597 H 0.51883 0.55929 0.29375 0.0
C598 C 0.04887 0.42625 0.3068 0.0
C599 C 0.02883 0.42758 0.3217 0.0
C600 C 0.03975 0.42893 0.28811 0.0
C601 C 0.97727 0.41934 0.25815 0.0
H602 H 0.01733 0.45949 0.22207 0.0
C603 C 0.93777 0.42668 0.18139 0.0
C604 C 0.95885 0.42774 0.16713 0.0
C605 C 0.94556 0.42917 0.20034 0.0
C606 C 0.00611 0.44796 0.23189 0.0
H607 H 0.98367 0.43309 0.32883 0.0
H608 H 0.96761 0.43729 0.29603 0.0
H609 H 0.03259 0.45925 0.25512 0.0
H610 H 0.00455 0.43252 0.16139 0.0
H611 H 0.01847 0.43595 0.19453 0.0
H612 H 0.95159 0.40718 0.23503 0.0
C613 C 0.99037 0.4343 0.29887 0.0
C614 C 0.01477 0.44796 0.25082 0.0
C615 C -0.00043 0.43199 0.3176 0.0
C616 C 0.98785 0.43171 0.17213 0.0
C617 C 0.99576 0.43384 0.19113 0.0
C618 C 0.96887 0.41907 0.2392 0.0
C619 C 0.01036 0.43264 0.28396 0.0
C620 C 0.00046 0.43359 0.26409 0.0
C621 C 0.97473 0.43238 0.2055 0.0
C622 C 0.98322 0.43333 0.22579 0.0
H623 H 0.07159 0.42294 0.30958 0.0
H624 H 0.05554 0.42738 0.27685 0.0
H625 H 0.96617 0.40783 0.26806 0.0
H626 H 0.91518 0.42388 0.1779 0.0
H627 H 0.92867 0.42852 0.21093 0.0
C628 C 0.50574 0.42937 0.66996 0.0
C629 C 0.53481 0.42574 0.66498 0.0
C630 C 0.49784 0.43193 0.68892 0.0
C631 C 0.52523 0.41921 0.73725 0.0
H632 H 0.46033 0.45864 0.75235 0.0
C633 C 0.49377 0.43387 0.81536 0.0
C634 C 0.46465 0.42888 0.81946 0.0
C635 C 0.50301 0.43587 0.79661 0.0
C636 C 0.47849 0.44757 0.74828 0.0
H637 H 0.57861 0.42291 0.67574 0.0
H638 H 0.56512 0.42832 0.7087 0.0
H639 H 0.47565 0.45815 0.71931 0.0
H640 H 0.42216 0.42287 0.80732 0.0
H641 H 0.43826 0.42677 0.77456 0.0
H642 H 0.52821 0.40894 0.76633 0.0
C643 C 0.54817 0.42837 0.69813 0.0
C644 C 0.48719 0.44715 0.72936 0.0
C645 C 0.55597 0.42542 0.67922 0.0
C646 C 0.44477 0.42665 0.80454 0.0
C647 C 0.45392 0.42901 0.78583 0.0
C648 C 0.5168 0.41992 0.75618 0.0
C649 C 0.51895 0.43127 0.70328 0.0
C650 C 0.51048 0.43275 0.72356 0.0
C651 C 0.48319 0.4333 0.78169 0.0
C652 C 0.49317 0.43389 0.76183 0.0
H653 H 0.48898 0.42958 0.65924 0.0
H654 H 0.47509 0.43377 0.69232 0.0
H655 H 0.54285 0.40753 0.73332 0.0
H656 H 0.50954 0.43567 0.8266 0.0
H657 H 0.52568 0.4393 0.79376 0.0
C658 C 0.05755 0.56617 0.80706 0.0
C659 C 0.03613 0.56478 0.82109 0.0
C660 C 0.05033 0.56331 0.78804 0.0
C661 C 0.991 0.54322 0.75597 0.0
H662 H 0.02968 0.58475 0.72021 0.0
C663 C 0.94656 0.56597 0.68183 0.0
C664 C 0.96626 0.56535 0.66672 0.0
C665 C 0.95621 0.563 0.70038 0.0
C666 C 0.01896 0.57284 0.73 0.0
H667 H 0.99047 0.55898 0.82636 0.0
H668 H 0.97755 0.55491 0.79312 0.0
H669 H 0.0443 0.58512 0.75325 0.0
H670 H 0.01138 0.56087 0.65904 0.0
H671 H 0.02836 0.55617 0.69162 0.0
H672 H 0.9648 0.53183 0.73264 0.0
C673 C 0.0001 0.55755 0.79674 0.0
C674 C 0.02738 0.57295 0.74895 0.0
C675 C 0.00743 0.56005 0.81581 0.0
C676 C 0.99574 0.56143 0.67045 0.0
C677 C 0.00546 0.55881 0.68905 0.0
C678 C 0.98232 0.54338 0.73704 0.0
C679 C 0.02142 0.5594 0.78259 0.0
C680 C 0.01338 0.55827 0.76223 0.0
C681 C 0.98578 0.55969 0.70417 0.0
C682 C 0.9961 0.55831 0.72394 0.0
H683 H 0.07994 0.56955 0.81078 0.0
H684 H 0.06745 0.56431 0.77761 0.0
H685 H 0.9801 0.53134 0.76568 0.0
H686 H 0.92369 0.56891 0.67935 0.0
H687 H 0.94064 0.56396 0.71181 0.0
C688 C 0.05365 0.16848 0.10539 0.0
C689 C 0.0329 0.15035 0.10702 0.0
C690 C 0.04505 0.19232 0.10459 0.0
C691 C 0.98187 0.23079 0.09436 0.0
H692 H 0.02386 0.27742 0.12393 0.0
C693 C 0.93908 0.32632 0.10671 0.0
C694 C 0.95949 0.34481 0.10644 0.0
C695 C 0.94814 0.30258 0.10606 0.0
C696 C 0.0121 0.26469 0.1154 0.0
H697 H 0.9869 0.14292 0.10898 0.0
H698 H 0.97196 0.18439 0.10771 0.0
H699 H 0.03989 0.23616 0.12386 0.0
H700 H 0.00533 0.35301 0.10495 0.0
H701 H 0.02107 0.31176 0.10355 0.0
H702 H 0.95402 0.25933 0.08594 0.0
C703 C 0.99483 0.18026 0.10684 0.0
C704 C 0.02132 0.24103 0.11536 0.0
C705 C 0.00342 0.15649 0.10768 0.0
C706 C 0.98907 0.33914 0.10527 0.0
C707 C -0.00189 0.31548 0.1046 0.0
C708 C 0.97267 0.25447 0.09438 0.0
C709 C 0.01552 0.19848 0.10534 0.0
C710 C 0.00625 0.22378 0.1049 0.0
C711 C 0.9778 0.29689 0.10512 0.0
C712 C 0.98763 0.2717 0.10494 0.0
H713 H 0.07652 0.16427 0.10481 0.0
H714 H 0.06151 0.20592 0.10324 0.0
H715 H 0.97002 0.218 0.08594 0.0
H716 H 0.91614 0.33016 0.10765 0.0
H717 H 0.93194 0.28869 0.10668 0.0
C718 C 0.48623 0.83666 0.10308 0.0
C719 C 0.45702 0.84306 0.1053 0.0
C720 C 0.49439 0.81278 0.1024 0.0
C721 C 0.46999 0.75307 0.11657 0.0
H722 H 0.52995 0.7319 0.08206 0.0
C723 C 0.49967 0.65411 0.10812 0.0
C724 C 0.52922 0.64836 0.10693 0.0
C725 C 0.49056 0.67775 0.10729 0.0
C726 C 0.51339 0.73759 0.09191 0.0
H727 H 0.41336 0.82947 0.10832 0.0
H728 H 0.42758 0.78761 0.107 0.0
H729 H 0.51403 0.77325 0.08136 0.0
H730 H 0.57244 0.66284 0.10384 0.0
H731 H 0.55656 0.70429 0.10251 0.0
H732 H 0.46944 0.71747 0.12718 0.0
C733 C 0.44422 0.80111 0.10598 0.0
C734 C 0.50423 0.76127 0.0915 0.0
C735 C 0.43604 0.82506 0.10663 0.0
C736 C 0.54952 0.66675 0.10476 0.0
C737 C 0.54039 0.69045 0.1039 0.0
C738 C 0.47913 0.7294 0.11697 0.0
C739 C 0.47352 0.79471 0.10395 0.0
C740 C 0.4825 0.76932 0.10388 0.0
C741 C 0.5108 0.69622 0.10524 0.0
C742 C 0.501 0.72139 0.10469 0.0
H743 H 0.50293 0.85012 0.10205 0.0
H744 H 0.51716 0.80849 0.10107 0.0
H745 H 0.45355 0.75877 0.12651 0.0
H746 H 0.48348 0.64033 0.10973 0.0
H747 H 0.4676 0.68155 0.10809 0.0
C748 C 0.48709 0.6564 0.38273 0.0
C749 C 0.45761 0.65028 0.3819 0.0
C750 C 0.49559 0.68018 0.38361 0.0
C751 C 0.47038 0.74057 0.37228 0.0
H752 H 0.5343 0.75993 0.40434 0.0
C753 C 0.50233 0.83892 0.38116 0.0
C754 C 0.53203 0.84438 0.38113 0.0
C755 C 0.493 0.81535 0.38207 0.0
C756 C 0.51661 0.75476 0.39517 0.0
H757 H 0.41389 0.66426 0.38154 0.0
H758 H 0.42874 0.70595 0.38316 0.0
H759 H 0.51799 0.71868 0.40475 0.0
H760 H 0.57525 0.82946 0.38221 0.0
H761 H 0.55896 0.78813 0.38362 0.0
H762 H 0.46912 0.77656 0.36258 0.0
C763 C 0.44528 0.69231 0.38296 0.0
C764 C 0.50724 0.73113 0.39542 0.0
C765 C 0.43676 0.66845 0.38213 0.0
C766 C 0.55223 0.82578 0.38224 0.0
C767 C 0.54288 0.80213 0.38315 0.0
C768 C 0.47977 0.76418 0.37202 0.0
C769 C 0.47482 0.69844 0.38363 0.0
C770 C 0.48409 0.72374 0.38392 0.0
C771 C 0.51314 0.79665 0.38296 0.0
C772 C 0.50305 0.77155 0.38341 0.0
H773 H 0.50369 0.64279 0.38254 0.0
H774 H 0.5185 0.68427 0.38385 0.0
H775 H 0.45281 0.73539 0.36302 0.0
H776 H 0.48621 0.85287 0.38041 0.0
H777 H 0.46995 0.81179 0.3822 0.0
C778 C 0.05416 0.32515 0.381 0.0
C779 C 0.03315 0.34319 0.38113 0.0
C780 C 0.04587 0.30123 0.38148 0.0
C781 C 0.98438 0.26177 0.39365 0.0
H782 H 0.02318 0.21704 0.36055 0.0
C783 C 0.94137 0.1665 0.38063 0.0
C784 C 0.96201 0.1482 0.37975 0.0
C785 C 0.95015 0.1903 0.38128 0.0
C786 C 0.01233 0.22924 0.37004 0.0
H787 H 0.98702 0.35038 0.38202 0.0
H788 H 0.97259 0.30878 0.3827 0.0
H789 H 0.03877 0.25842 0.36115 0.0
H790 H 0.00801 0.14043 0.37904 0.0
H791 H 0.02329 0.1818 0.38036 0.0
H792 H 0.95785 0.23259 0.40247 0.0
C793 C 0.99546 0.31302 0.38246 0.0
C794 C 0.0213 0.25296 0.3704 0.0
C795 C 0.00374 0.33688 0.38195 0.0
C796 C 0.99156 0.15414 0.37964 0.0
C797 C 0.00033 0.17787 0.38028 0.0
C798 C 0.9754 0.23804 0.39329 0.0
C799 C 0.0164 0.2949 0.38215 0.0
C800 C 0.00739 0.26952 0.38217 0.0
C801 C 0.97976 0.19625 0.38104 0.0
C802 C 0.98924 0.2215 0.38146 0.0
H803 H 0.077 0.32949 0.38042 0.0
H804 H 0.06254 0.28769 0.38144 0.0
H805 H 0.97346 0.274 0.40308 0.0
H806 H 0.91844 0.16245 0.38069 0.0
H807 H 0.93375 0.20404 0.38166 0.0
C808 C 0.00259 0.65513 0.87918 0.0
C809 C 0.03212 0.64945 0.88077 0.0
C810 C 0.99338 0.67875 0.87985 0.0
C811 C 0.01567 0.73872 0.89536 0.0
H812 H 0.95612 0.75956 0.86042 0.0
C813 C 0.98755 0.83764 0.88411 0.0
C814 C 0.95825 0.84378 0.88192 0.0
C815 C 0.99603 0.81383 0.88472 0.0
C816 C 0.97248 0.75396 0.87044 0.0
H817 H 0.07519 0.66404 0.88439 0.0
H818 H 0.05913 0.70545 0.8854 0.0
H819 H 0.97236 0.71835 0.85985 0.0
H820 H 0.91477 0.82982 0.87887 0.0
H821 H 0.92956 0.78809 0.88004 0.0
H822 H 0.0159 0.7744 0.90587 0.0
C823 C 0.04305 0.69158 0.88384 0.0
C824 C 0.98183 0.73033 0.87011 0.0
C825 C 0.05228 0.66789 0.88316 0.0
C826 C 0.93752 0.82561 0.88054 0.0
C827 C 0.94602 0.80173 0.8811 0.0
C828 C 0.00634 0.76236 0.89569 0.0
C829 C 0.01349 0.69728 0.88212 0.0
C830 C 0.00357 0.72243 0.88254 0.0
C831 C 0.9754 0.79558 0.88313 0.0
C832 C 0.98469 0.77027 0.88319 0.0
H833 H 0.9865 0.64131 0.8774 0.0
H834 H 0.97043 0.68248 0.87877 0.0
H835 H 0.03213 0.73313 0.90532 0.0
H836 H 0.00406 0.85125 0.88518 0.0
H837 H 0.01885 0.80973 0.88605 0.0
C838 C 0.4419 0.32738 0.8806 0.0
C839 C 0.46239 0.34579 0.8798 0.0
C840 C 0.4509 0.30365 0.88159 0.0
C841 C 0.51362 0.26503 0.87114 0.0
H842 H 0.47435 0.22013 0.90386 0.0
C843 C 0.55526 0.16899 0.88175 0.0
C844 C 0.5342 0.15099 0.88168 0.0
C845 C 0.54703 0.19293 0.88243 0.0
C846 C 0.48539 0.2324 0.89452 0.0
H847 H 0.50834 0.35384 0.87965 0.0
H848 H 0.52397 0.31258 0.88153 0.0
H849 H 0.45856 0.26151 0.90314 0.0
H850 H 0.48804 0.1439 0.88244 0.0
H851 H 0.47372 0.1855 0.88345 0.0
H852 H 0.5403 0.23593 0.86241 0.0
C853 C 0.50098 0.31637 0.88114 0.0
C854 C 0.47631 0.25611 0.8941 0.0
C855 C 0.492 0.34004 0.88017 0.0
C856 C 0.5048 0.15736 0.88252 0.0
C857 C 0.49659 0.18123 0.88322 0.0
C858 C 0.52268 0.24134 0.87155 0.0
C859 C 0.48056 0.29788 0.88176 0.0
C860 C 0.49027 0.27269 0.88236 0.0
C861 C 0.51757 0.19932 0.88309 0.0
C862 C 0.5086 0.22471 0.88319 0.0
H863 H 0.41894 0.33128 0.88031 0.0
H864 H 0.43462 0.2898 0.88187 0.0
H865 H 0.52457 0.27727 0.86172 0.0
H866 H 0.57808 0.16461 0.88116 0.0
H867 H 0.56374 0.20643 0.88253 0.0
C868 C 0.44019 0.1663 0.60511 0.0
C869 C 0.4605 0.14774 0.60568 0.0
C870 C 0.44942 0.18998 0.60417 0.0
C871 C 0.51302 0.22791 0.61423 0.0
H872 H 0.4731 0.27374 0.58266 0.0
C873 C 0.55575 0.32359 0.60353 0.0
C874 C 0.53502 0.34182 0.60435 0.0
C875 C 0.54708 0.29976 0.60281 0.0
C876 C 0.48434 0.26119 0.59166 0.0
H877 H 0.50636 0.13934 0.60541 0.0
H878 H 0.52239 0.18047 0.60355 0.0
H879 H 0.45679 0.23249 0.58319 0.0
H880 H 0.48898 0.34945 0.60487 0.0
H881 H 0.4739 0.30802 0.60374 0.0
H882 H 0.54048 0.2566 0.62276 0.0
C883 C 0.49937 0.17686 0.60414 0.0
C884 C 0.47496 0.23756 0.59199 0.0
C885 C 0.49016 0.15327 0.60509 0.0
C886 C 0.50549 0.3358 0.60421 0.0
C887 C 0.49683 0.31204 0.60345 0.0
C888 C 0.52241 0.25151 0.61389 0.0
C889 C 0.47915 0.19553 0.6038 0.0
C890 C 0.48914 0.22065 0.60331 0.0
C891 C 0.5175 0.29373 0.60283 0.0
C892 C 0.50812 0.26845 0.60266 0.0
H893 H 0.4172 0.16257 0.60558 0.0
H894 H 0.43328 0.20394 0.60412 0.0
H895 H 0.52415 0.21544 0.62334 0.0
H896 H 0.57867 0.3277 0.60357 0.0
H897 H 0.56353 0.28607 0.60213 0.0
C898 C 0.04999 0.82606 0.60527 0.0
C899 C 0.02974 0.84446 0.60752 0.0
C900 C 0.04085 0.80236 0.60444 0.0
C901 C 0.97968 0.76346 0.61778 0.0
H902 H 0.01477 0.71939 0.58243 0.0
C903 C 0.9373 0.66745 0.6081 0.0
C904 C 0.95842 0.64955 0.60686 0.0
C905 C 0.94528 0.69144 0.60732 0.0
C906 C 0.00491 0.73143 0.59249 0.0
H907 H 0.98402 0.85253 0.61046 0.0
H908 H 0.9681 0.81132 0.60887 0.0
H909 H 0.03042 0.7608 0.58283 0.0
H910 H 0.00439 0.6427 0.60365 0.0
H911 H 0.01828 0.6844 0.60244 0.0
H912 H 0.95431 0.73408 0.62753 0.0
C913 C 0.99106 0.81509 0.60799 0.0
C914 C 0.01392 0.75515 0.59273 0.0
C915 C 0.00018 0.83873 0.60879 0.0
C916 C 0.98759 0.65609 0.60461 0.0
C917 C 0.99554 0.68 0.60379 0.0
C918 C 0.97068 0.73974 0.61754 0.0
C919 C 0.01127 0.79661 0.60589 0.0
C920 C 0.00149 0.77143 0.60543 0.0
C921 C 0.97453 0.69798 0.60523 0.0
C922 C 0.98329 0.72341 0.60496 0.0
H923 H 0.07292 0.82994 0.60428 0.0
H924 H 0.05701 0.78852 0.60302 0.0
H925 H 0.96995 0.77544 0.62793 0.0
H926 H 0.91465 0.66294 0.6098 0.0
H927 H 0.92853 0.70486 0.60825 0.0
C928 C 0.95256 0.93981 0.94469 0.0
C929 C 0.96383 0.94721 0.92722 0.0
C930 C 0.95975 0.95192 0.96127 0.0
C931 C 0.98576 0.01003 0.97811 0.0
H932 H 0.00275 0.9757 0.02433 0.0
C933 C 0.03353 0.05541 0.0442 0.0
C934 C 0.0234 0.04798 0.06195 0.0
C935 C 0.02505 0.04348 0.02781 0.0
C936 C -0.00233 0.98555 0.0116 0.0
H937 H 0.99185 0.97277 0.91338 0.0
H938 H 0.00465 0.9938 0.94237 0.0
H939 H 0.9912 0.95371 -0.00439 0.0
H940 H 0.99593 0.02263 0.07649 0.0
H941 H 0.98083 0.00193 0.04781 0.0
H942 H 0.99227 0.04187 -0.00591 0.0
C943 C 0.98995 0.97884 0.94323 0.0
C944 C 0.99112 0.97295 -0.00485 0.0
C945 C 0.98279 0.9667 0.92666 0.0
C946 C 0.00414 0.02871 0.06299 0.0
C947 C 0.99566 0.01676 0.04659 0.0
C948 C 0.99228 0.02263 -0.00543 0.0
C949 C 0.97832 0.9717 0.96069 0.0
C950 C 0.9852 0.98505 0.9782 0.0
C951 C 0.00626 0.02387 0.02883 0.0
C952 C -0.00159 0.01053 0.01148 0.0
H953 H 0.93781 0.92488 0.94555 0.0
H954 H 0.95022 0.94613 0.97448 0.0
H955 H 0.98079 0.01987 0.96536 0.0
H956 H 0.04846 0.07017 0.04297 0.0
H957 H 0.03386 0.04924 0.01438 0.0
C958 C 0.53771 0.05475 0.94393 0.0
C959 C 0.52632 0.04776 0.92638 0.0
C960 C 0.52984 0.04278 0.96044 0.0
C961 C 0.47415 0.0031 0.98057 0.0
H962 H 0.53432 0.98763 0.0168 0.0
C963 C 0.45381 0.94008 0.04336 0.0
C964 C 0.46521 0.94695 0.06093 0.0
C965 C 0.46163 0.95219 0.0269 0.0
C966 C 0.51723 0.99203 0.00691 0.0
H967 H 0.49745 0.02303 0.91235 0.0
H968 H 0.4838 0.00201 0.94118 0.0
H969 H 0.54664 0.00966 0.98822 0.0
H970 H 0.49402 0.97163 0.07507 0.0
H971 H 0.50757 0.9929 0.04633 0.0
H972 H 0.44475 0.98546 -0.00075 0.0
C973 C 0.49861 0.01688 0.94221 0.0
C974 C 0.52427 0.00467 0.99056 0.0
C975 C 0.50651 0.02884 0.92569 0.0
C976 C 0.48495 0.9659 0.0617 0.0
C977 C 0.4928 0.97801 0.04524 0.0
C978 C 0.46711 0.99046 -0.00307 0.0
C979 C 0.51039 0.02358 0.95974 0.0
C980 C 0.50281 0.01035 0.9772 0.0
C981 C 0.48102 0.97142 0.02768 0.0
C982 C 0.48858 0.98477 0.01027 0.0
H983 H 0.55298 0.06931 0.9449 0.0
H984 H 0.53895 0.04859 0.97376 0.0
H985 H 0.45706 0.00749 0.97068 0.0
H986 H 0.43859 0.92549 0.04232 0.0
H987 H 0.45252 0.94645 0.01356 0.0
C988 C 0.48545 0.02591 0.56197 0.0
C989 C 0.46643 0.04537 0.56128 0.0
C990 C 0.49337 0.01408 0.54539 0.0
C991 C 0.49611 0.02088 0.49346 0.0
H992 H 0.49701 0.95196 0.49369 0.0
C993 C 0.50778 0.96618 0.42494 0.0
C994 C 0.52679 0.94672 0.42563 0.0
C995 C 0.49986 0.978 0.44152 0.0
C996 C 0.49712 0.97121 0.49345 0.0
H997 H 0.44114 0.06797 0.54272 0.0
H998 H 0.4548 0.04727 0.51382 0.0
H999 H 0.4854 0.97343 0.52265 0.0
H1000 H 0.55209 0.92412 0.44418 0.0
H1001 H 0.53843 0.94482 0.47308 0.0
H1002 H 0.50782 0.01866 0.46426 0.0
C1003 C 0.46384 0.04126 0.52712 0.0
C1004 C 0.49053 0.9835 0.51004 0.0
C1005 C 0.4559 0.05305 0.54369 0.0
C1006 C 0.53733 0.93904 0.44322 0.0
C1007 C 0.5294 0.95083 0.45979 0.0
C1008 C 0.5027 0.00858 0.47687 0.0
C1009 C 0.48245 0.02152 0.5278 0.0
C1010 C 0.48995 0.00848 0.51024 0.0
C1011 C 0.51078 0.97057 0.45911 0.0
C1012 C 0.50328 0.98361 0.47667 0.0
H1013 H 0.49394 0.01963 0.57534 0.0
H1014 H 0.50807 -0.00087 0.54634 0.0
H1015 H 0.49622 0.04013 0.49322 0.0
H1016 H 0.49928 0.97246 0.41157 0.0
H1017 H 0.48516 0.99296 0.44057 0.0
C1018 C 0.03395 0.93969 0.54499 0.0
C1019 C 0.02366 0.94728 0.56266 0.0
C1020 C 0.02653 0.95201 0.52857 0.0
C1021 C 0.97372 0.99432 0.50874 0.0
H1022 H 0.03459 0.00642 0.47219 0.0
C1023 C 0.9563 0.05534 0.44423 0.0
C1024 C 0.96727 0.04716 0.42689 0.0
C1025 C 0.96367 0.0439 0.46107 0.0
C1026 C 0.0173 0.003 0.48216 0.0
H1027 H -0.00297 0.97339 0.57701 0.0
H1028 H 0.98408 0.99501 0.54827 0.0
H1029 H 0.04564 0.98447 0.501 0.0
H1030 H 0.99491 0.0209 0.41357 0.0
H1031 H 0.00764 0.00081 0.44297 0.0
H1032 H 0.94534 0.01275 0.48985 0.0
C1033 C -0.00225 0.97943 0.54711 0.0
C1034 C 0.02361 0.99041 0.49866 0.0
C1035 C 0.00522 0.96711 0.56356 0.0
C1036 C 0.9862 0.02764 0.42674 0.0
C1037 C 0.99358 0.0162 0.44359 0.0
C1038 C 0.96739 0.0069 0.49222 0.0
C1039 C 0.00863 0.97218 0.52947 0.0
C1040 C 0.00187 0.98582 0.51208 0.0
C1041 C 0.98218 0.02407 0.46092 0.0
C1042 C 0.98909 0.01129 0.47871 0.0
H1043 H 0.04813 0.92441 0.54385 0.0
H1044 H 0.03485 0.94575 0.51515 0.0
H1045 H 0.95644 0.99084 0.51871 0.0
H1046 H 0.94171 0.0704 0.44477 0.0
H1047 H 0.95488 0.05061 0.47423 0.0
C1048 C 0.505 0.52727 0.06154 0.0
C1049 C 0.52386 0.54683 0.06107 0.0
C1050 C 0.49736 0.51558 0.04485 0.0
C1051 C 0.49529 0.52263 0.99294 0.0
H1052 H 0.49539 0.45369 0.99302 0.0
C1053 C 0.48592 0.46796 0.92426 0.0
C1054 C 0.46717 0.44832 0.92475 0.0
C1055 C 0.49325 0.47984 0.94093 0.0
C1056 C 0.495 0.47294 0.99282 0.0
H1057 H 0.54909 0.56981 0.04278 0.0
H1058 H 0.53591 0.54933 0.01367 0.0
H1059 H 0.50623 0.47517 0.02209 0.0
H1060 H 0.44172 0.42548 0.94301 0.0
H1061 H 0.45437 0.44627 0.97207 0.0
H1062 H 0.4841 0.52039 0.96365 0.0
C1063 C 0.5268 0.54314 0.02689 0.0
C1064 C 0.50115 0.48524 0.00948 0.0
C1065 C 0.53446 0.5548 0.04357 0.0
C1066 C 0.4563 0.44053 0.94222 0.0
C1067 C 0.46364 0.45238 0.95887 0.0
C1068 C 0.48915 0.51032 0.97628 0.0
C1069 C 0.50841 0.52325 0.02737 0.0
C1070 C 0.50136 0.51022 0.00972 0.0
C1071 C 0.482 0.47228 0.9584 0.0
C1072 C 0.48895 0.48534 0.97603 0.0
H1073 H 0.49645 0.52077 0.07483 0.0
H1074 H 0.4828 0.50052 0.04565 0.0
H1075 H 0.49492 0.54188 0.99274 0.0
H1076 H 0.49466 0.47433 0.91099 0.0
H1077 H 0.50777 0.49493 0.94015 0.0
C1078 C 0.95469 0.44024 0.04414 0.0
C1079 C 0.96519 0.44789 0.06175 0.0
C1080 C 0.96231 0.45228 0.02762 0.0
C1081 C 0.98792 0.51047 0.01074 0.0
H1082 H 0.00616 0.4758 0.9649 0.0
C1083 C 0.03496 0.55564 0.94423 0.0
C1084 C 0.02501 0.54778 0.92655 0.0
C1085 C 0.02676 0.54385 0.96075 0.0
C1086 C 0.00075 0.48574 0.97752 0.0
H1087 H 0.99228 0.47384 0.07588 0.0
H1088 H 0.00585 0.49478 0.04696 0.0
H1089 H 0.99472 0.45402 -0.00626 0.0
H1090 H -0.00189 0.5218 0.91228 0.0
H1091 H 0.98349 0.50132 0.94118 0.0
H1092 H 0.99397 0.5422 -0.00549 0.0
C1093 C 0.99143 0.47965 0.04596 0.0
C1094 C 0.99426 0.47327 -0.00595 0.0
C1095 C 0.98383 0.46757 0.0625 0.0
C1096 C 0.00618 0.52821 0.92572 0.0
C1097 C -0.00202 0.5164 0.94225 0.0
C1098 C 0.9944 0.52295 -0.0058 0.0
C1099 C 0.98056 0.47224 0.02836 0.0
C1100 C 0.9878 0.48549 0.01085 0.0
C1101 C 0.00843 0.52393 0.95993 0.0
C1102 C 0.00091 0.51072 0.97741 0.0
H1103 H 0.9402 0.42516 0.04313 0.0
H1104 H 0.95333 0.44628 0.0143 0.0
H1105 H 0.98256 0.52041 0.02338 0.0
H1106 H 0.04956 0.57065 0.9453 0.0
H1107 H 0.03543 0.54995 0.97412 0.0
C1108 C 0.9857 0.5268 0.56258 0.0
C1109 C 0.96623 0.54596 0.562 0.0
C1110 C 0.99317 0.51475 0.54601 0.0
C1111 C 0.99385 0.52058 0.49404 0.0
H1112 H -0.00331 0.45169 0.49509 0.0
C1113 C 0.00546 0.46498 0.42605 0.0
C1114 C 0.02503 0.44589 0.42672 0.0
C1115 C -0.00244 0.47687 0.4426 0.0
C1116 C 0.99625 0.47093 0.49461 0.0
H1117 H 0.9396 0.56777 0.54365 0.0
H1118 H 0.9525 0.54667 0.51476 0.0
H1119 H 0.98527 0.47352 0.52392 0.0
H1120 H 0.05131 0.42399 0.44521 0.0
H1121 H 0.0377 0.44484 0.47408 0.0
H1122 H 0.00488 0.51801 0.46475 0.0
C1123 C 0.96222 0.54108 0.52796 0.0
C1124 C 0.98976 0.48343 0.51113 0.0
C1125 C 0.95474 0.5531 0.54452 0.0
C1126 C 0.03612 0.43862 0.44427 0.0
C1127 C 0.02821 0.45049 0.46082 0.0
C1128 C 0.00035 0.50808 0.47753 0.0
C1129 C 0.98133 0.52165 0.52854 0.0
C1130 C 0.98851 0.5084 0.51103 0.0
C1131 C 0.00906 0.46989 0.46014 0.0
C1132 C 0.00164 0.48312 0.47763 0.0
H1133 H 0.99494 0.52092 0.57586 0.0
H1134 H 0.00826 0.50005 0.54688 0.0
H1135 H 0.99343 0.53982 0.49357 0.0
H1136 H -0.00349 0.47093 0.41271 0.0
H1137 H 0.98242 0.49153 0.44165 0.0
C1138 C 0.50798 0.46415 0.56088 0.0
C1139 C 0.52729 0.44491 0.55992 0.0
C1140 C 0.49991 0.4763 0.54448 0.0
C1141 C 0.49744 0.47094 0.49246 0.0
H1142 H 0.49556 0.53984 0.49397 0.0
C1143 C 0.48519 0.52753 0.42497 0.0
C1144 C 0.46589 0.54678 0.42597 0.0
C1145 C 0.49322 0.51532 0.44135 0.0
C1146 C 0.49572 0.5206 0.49337 0.0
H1147 H 0.55295 0.42301 0.54106 0.0
H1148 H 0.53903 0.44429 0.51245 0.0
H1149 H 0.50744 0.51762 0.52252 0.0
H1150 H 0.4402 0.56861 0.44488 0.0
H1151 H 0.45407 0.54722 0.47343 0.0
H1152 H 0.48573 0.47393 0.4633 0.0
C1153 C 0.52988 0.44987 0.52583 0.0
C1154 C 0.50247 0.50787 0.50973 0.0
C1155 C 0.53795 0.43774 0.54223 0.0
C1156 C 0.4552 0.55387 0.44368 0.0
C1157 C 0.46324 0.54168 0.46005 0.0
C1158 C 0.4907 0.48367 0.4761 0.0
C1159 C 0.51099 0.46943 0.5268 0.0
C1160 C 0.5034 0.4829 0.50946 0.0
C1161 C 0.48213 0.52214 0.45905 0.0
C1162 C 0.48976 0.50864 0.47637 0.0
H1163 H 0.49936 0.47003 0.57434 0.0
H1164 H 0.48499 0.49108 0.54565 0.0
H1165 H 0.49761 0.45171 0.49187 0.0
H1166 H 0.49382 0.52171 0.41151 0.0
H1167 H 0.50815 0.50054 0.44016 0.0
loop_
_geom_bond_atom_site_label_1
_geom_bond_atom_site_label_2
_geom_bond_distance
_geom_bond_site_symmetry_2
_ccdc_geom_bond_type
In0 O1 2.294 . S
In0 O2 2.326 . S
In0 O6 2.266 . S
In0 O7 2.326 . S
In0 O8 2.266 . S
In0 O9 2.326 . S
In0 O11 2.294 . S
In0 O12 2.326 . S
O1 In0 2.294 . S
O1 C10 1.240 . S
O2 In0 2.326 . S
O2 C10 1.252 . S
C3 O6 1.252 . S
C3 O7 1.260 . S
C4 O11 1.240 . S
C4 O12 1.252 . S
C5 O8 1.252 . S
C5 O9 1.260 . S
O6 In0 2.266 . S
O6 C3 1.252 . S
O7 In0 2.326 . S
O7 C3 1.260 . S
O8 In0 2.266 . S
O8 C5 1.252 . S
O9 In0 2.326 . S
O9 C5 1.260 . S
C10 O1 1.240 . S
C10 O2 1.252 . S
O11 In0 2.294 . S
O11 C4 1.240 . S
O12 In0 2.326 . S
O12 C4 1.252 . S
In13 O14 2.294 . S
In13 O15 2.326 . S
In13 O19 2.266 . S
In13 O20 2.326 . S
In13 O21 2.266 . S
In13 O22 2.326 . S
In13 O24 2.294 . S
In13 O25 2.326 . S
O14 In13 2.294 . S
O14 C23 1.240 . S
O15 In13 2.326 . S
O15 C23 1.252 . S
C16 O19 1.252 . S
C16 O20 1.260 . S
C17 O24 1.240 . S
C17 O25 1.252 . S
C18 O21 1.252 . S
C18 O22 1.260 . S
O19 In13 2.266 . S
O19 C16 1.252 . S
O20 In13 2.326 . S
O20 C16 1.260 . S
O21 In13 2.266 . S
O21 C18 1.252 . S
O22 In13 2.326 . S
O22 C18 1.260 . S
C23 O14 1.240 . S
C23 O15 1.252 . S
O24 In13 2.294 . S
O24 C17 1.240 . S
O25 In13 2.326 . S
O25 C17 1.252 . S
In26 O27 2.294 . S
In26 O28 2.326 . S
In26 O32 2.266 . S
In26 O33 2.326 . S
In26 O34 2.266 . S
In26 O35 2.326 . S
In26 O37 2.294 . S
In26 O38 2.326 . S
O27 In26 2.294 . S
O27 C36 1.240 . S
O28 In26 2.326 . S
O28 C36 1.252 . S
C29 O32 1.252 . S
C29 O33 1.260 . S
C30 O37 1.240 . S
C30 O38 1.252 . S
C31 O34 1.252 . S
C31 O35 1.260 . S
O32 In26 2.266 . S
O32 C29 1.252 . S
O33 In26 2.326 . S
O33 C29 1.260 . S
O34 In26 2.266 . S
O34 C31 1.252 . S
O35 In26 2.326 . S
O35 C31 1.260 . S
C36 O27 1.240 . S
C36 O28 1.252 . S
O37 In26 2.294 . S
O37 C30 1.240 . S
O38 In26 2.326 . S
O38 C30 1.252 . S
In39 O40 2.294 . S
In39 O41 2.326 . S
In39 O45 2.266 . S
In39 O46 2.326 . S
In39 O47 2.266 . S
In39 O48 2.326 . S
In39 O50 2.294 . S
In39 O51 2.326 . S
O40 In39 2.294 . S
O40 C49 1.240 . S
O41 In39 2.326 . S
O41 C49 1.252 . S
C42 O45 1.252 . S
C42 O46 1.260 . S
C43 O50 1.240 . S
C43 O51 1.252 . S
C44 O47 1.252 . S
C44 O48 1.260 . S
O45 In39 2.266 . S
O45 C42 1.252 . S
O46 In39 2.326 . S
O46 C42 1.260 . S
O47 In39 2.266 . S
O47 C44 1.252 . S
O48 In39 2.326 . S
O48 C44 1.260 . S
C49 O40 1.240 . S
C49 O41 1.252 . S
O50 In39 2.294 . S
O50 C43 1.240 . S
O51 In39 2.326 . S
O51 C43 1.252 . S
In52 O53 2.294 . S
In52 O54 2.326 . S
In52 O58 2.266 . S
In52 O59 2.326 . S
In52 O60 2.266 . S
In52 O61 2.326 . S
In52 O63 2.294 . S
In52 O64 2.326 . S
O53 In52 2.294 . S
O53 C62 1.240 . S
O54 In52 2.326 . S
O54 C62 1.252 . S
C55 O58 1.252 . S
C55 O59 1.260 . S
C56 O63 1.240 . S
C56 O64 1.252 . S
C57 O60 1.252 . S
C57 O61 1.260 . S
O58 In52 2.266 . S
O58 C55 1.252 . S
O59 In52 2.326 . S
O59 C55 1.260 . S
O60 In52 2.266 . S
O60 C57 1.252 . S
O61 In52 2.326 . S
O61 C57 1.260 . S
C62 O53 1.240 . S
C62 O54 1.252 . S
O63 In52 2.294 . S
O63 C56 1.240 . S
O64 In52 2.326 . S
O64 C56 1.252 . S
In65 O66 2.294 . S
In65 O67 2.326 . S
In65 O71 2.266 . S
In65 O72 2.326 . S
In65 O73 2.266 . S
In65 O74 2.326 . S
In65 O76 2.294 . S
In65 O77 2.326 . S
O66 In65 2.294 . S
O66 C75 1.240 . S
O67 In65 2.326 . S
O67 C75 1.252 . S
C68 O71 1.252 . S
C68 O72 1.260 . S
C69 O76 1.240 . S
C69 O77 1.252 . S
C70 O73 1.252 . S
C70 O74 1.260 . S
O71 In65 2.266 . S
O71 C68 1.252 . S
O72 In65 2.326 . S
O72 C68 1.260 . S
O73 In65 2.266 . S
O73 C70 1.252 . S
O74 In65 2.326 . S
O74 C70 1.260 . S
C75 O66 1.240 . S
C75 O67 1.252 . S
O76 In65 2.294 . S
O76 C69 1.240 . S
O77 In65 2.326 . S
O77 C69 1.252 . S
In78 O79 2.294 . S
In78 O80 2.326 . S
In78 O84 2.266 . S
In78 O85 2.326 . S
In78 O86 2.266 . S
In78 O87 2.326 . S
In78 O89 2.294 . S
In78 O90 2.326 . S
O79 In78 2.294 . S
O79 C88 1.240 . S
O80 In78 2.326 . S
O80 C88 1.252 . S
C81 O84 1.252 . S
C81 O85 1.260 . S
C82 O89 1.240 . S
C82 O90 1.252 . S
C83 O86 1.252 . S
C83 O87 1.260 . S
O84 In78 2.266 . S
O84 C81 1.252 . S
O85 In78 2.326 . S
O85 C81 1.260 . S
O86 In78 2.266 . S
O86 C83 1.252 . S
O87 In78 2.326 . S
O87 C83 1.260 . S
C88 O79 1.240 . S
C88 O80 1.252 . S
O89 In78 2.294 . S
O89 C82 1.240 . S
O90 In78 2.326 . S
O90 C82 1.252 . S
In91 O92 2.294 . S
In91 O93 2.326 . S
In91 O97 2.266 . S
In91 O98 2.326 . S
In91 O99 2.266 . S
In91 O100 2.326 . S
In91 O102 2.294 . S
In91 O103 2.326 . S
O92 In91 2.294 . S
O92 C101 1.240 . S
O93 In91 2.326 . S
O93 C101 1.252 . S
C94 O97 1.252 . S
C94 O98 1.260 . S
C95 O102 1.240 . S
C95 O103 1.252 . S
C96 O99 1.252 . S
C96 O100 1.260 . S
O97 In91 2.266 . S
O97 C94 1.252 . S
O98 In91 2.326 . S
O98 C94 1.260 . S
O99 In91 2.266 . S
O99 C96 1.252 . S
O100 In91 2.326 . S
O100 C96 1.260 . S
C101 O92 1.240 . S
C101 O93 1.252 . S
O102 In91 2.294 . S
O102 C95 1.240 . S
O103 In91 2.326 . S
O103 C95 1.252 . S
In104 O105 2.294 . S
In104 O106 2.326 . S
In104 O110 2.266 . S
In104 O111 2.326 . S
In104 O112 2.266 . S
In104 O113 2.326 . S
In104 O115 2.294 . S
In104 O116 2.326 . S
O105 In104 2.294 . S
O105 C114 1.240 . S
O106 In104 2.326 . S
O106 C114 1.252 . S
C107 O110 1.252 . S
C107 O111 1.260 . S
C108 O115 1.240 . S
C108 O116 1.252 . S
C109 O112 1.252 . S
C109 O113 1.260 . S
O110 In104 2.266 . S
O110 C107 1.252 . S
O111 In104 2.326 . S
O111 C107 1.260 . S
O112 In104 2.266 . S
O112 C109 1.252 . S
O113 In104 2.326 . S
O113 C109 1.260 . S
C114 O105 1.240 . S
C114 O106 1.252 . S
O115 In104 2.294 . S
O115 C108 1.240 . S
O116 In104 2.326 . S
O116 C108 1.252 . S
In117 O118 2.294 . S
In117 O119 2.326 . S
In117 O123 2.266 . S
In117 O124 2.326 . S
In117 O125 2.266 . S
In117 O126 2.326 . S
In117 O128 2.294 . S
In117 O129 2.326 . S
O118 In117 2.294 . S
O118 C127 1.240 . S
O119 In117 2.326 . S
O119 C127 1.252 . S
C120 O123 1.252 . S
C120 O124 1.260 . S
C121 O128 1.240 . S
C121 O129 1.252 . S
C122 O125 1.252 . S
C122 O126 1.260 . S
O123 In117 2.266 . S
O123 C120 1.252 . S
O124 In117 2.326 . S
O124 C120 1.260 . S
O125 In117 2.266 . S
O125 C122 1.252 . S
O126 In117 2.326 . S
O126 C122 1.260 . S
C127 O118 1.240 . S
C127 O119 1.252 . S
O128 In117 2.294 . S
O128 C121 1.240 . S
O129 In117 2.326 . S
O129 C121 1.252 . S
In130 O131 2.294 . S
In130 O132 2.326 . S
In130 O136 2.266 . S
In130 O137 2.326 . S
In130 O138 2.266 . S
In130 O139 2.326 . S
In130 O141 2.294 . S
In130 O142 2.326 . S
O131 In130 2.294 . S
O131 C140 1.240 . S
O132 In130 2.326 . S
O132 C140 1.252 . S
C133 O136 1.252 . S
C133 O137 1.260 . S
C134 O141 1.240 . S
C134 O142 1.252 . S
C135 O138 1.252 . S
C135 O139 1.260 . S
O136 In130 2.266 . S
O136 C133 1.252 . S
O137 In130 2.326 . S
O137 C133 1.260 . S
O138 In130 2.266 . S
O138 C135 1.252 . S
O139 In130 2.326 . S
O139 C135 1.260 . S
C140 O131 1.240 . S
C140 O132 1.252 . S
O141 In130 2.294 . S
O141 C134 1.240 . S
O142 In130 2.326 . S
O142 C134 1.252 . S
In143 O144 2.294 . S
In143 O145 2.326 . S
In143 O149 2.266 . S
In143 O150 2.326 . S
In143 O151 2.266 . S
In143 O152 2.326 . S
In143 O154 2.294 . S
In143 O155 2.326 . S
O144 In143 2.294 . S
O144 C153 1.240 . S
O145 In143 2.326 . S
O145 C153 1.252 . S
C146 O149 1.252 . S
C146 O150 1.260 . S
C147 O154 1.240 . S
C147 O155 1.252 . S
C148 O151 1.252 . S
C148 O152 1.260 . S
O149 In143 2.266 . S
O149 C146 1.252 . S
O150 In143 2.326 . S
O150 C146 1.260 . S
O151 In143 2.266 . S
O151 C148 1.252 . S
O152 In143 2.326 . S
O152 C148 1.260 . S
C153 O144 1.240 . S
C153 O145 1.252 . S
O154 In143 2.294 . S
O154 C147 1.240 . S
O155 In143 2.326 . S
O155 C147 1.252 . S
In156 O157 2.294 . S
In156 O158 2.326 . S
In156 O162 2.266 . S
In156 O163 2.326 . S
In156 O164 2.266 . S
In156 O165 2.326 . S
In156 O167 2.294 . S
In156 O168 2.326 . S
O157 In156 2.294 . S
O157 C166 1.240 . S
O158 In156 2.326 . S
O158 C166 1.252 . S
C159 O162 1.252 . S
C159 O163 1.260 . S
C160 O167 1.240 . S
C160 O168 1.252 . S
C161 O164 1.252 . S
C161 O165 1.260 . S
O162 In156 2.266 . S
O162 C159 1.252 . S
O163 In156 2.326 . S
O163 C159 1.260 . S
O164 In156 2.266 . S
O164 C161 1.252 . S
O165 In156 2.326 . S
O165 C161 1.260 . S
C166 O157 1.240 . S
C166 O158 1.252 . S
O167 In156 2.294 . S
O167 C160 1.240 . S
O168 In156 2.326 . S
O168 C160 1.252 . S
In169 O170 2.294 . S
In169 O171 2.326 . S
In169 O175 2.266 . S
In169 O176 2.326 . S
In169 O177 2.266 . S
In169 O178 2.326 . S
In169 O180 2.294 . S
In169 O181 2.326 . S
O170 In169 2.294 . S
O170 C179 1.240 . S
O171 In169 2.326 . S
O171 C179 1.252 . S
C172 O175 1.252 . S
C172 O176 1.260 . S
C173 O180 1.240 . S
C173 O181 1.252 . S
C174 O177 1.252 . S
C174 O178 1.260 . S
O175 In169 2.266 . S
O175 C172 1.252 . S
O176 In169 2.326 . S
O176 C172 1.260 . S
O177 In169 2.266 . S
O177 C174 1.252 . S
O178 In169 2.326 . S
O178 C174 1.260 . S
C179 O170 1.240 . S
C179 O171 1.252 . S
O180 In169 2.294 . S
O180 C173 1.240 . S
O181 In169 2.326 . S
O181 C173 1.252 . S
In182 O183 2.294 . S
In182 O184 2.326 . S
In182 O188 2.266 . S
In182 O189 2.326 . S
In182 O190 2.266 . S
In182 O191 2.326 . S
In182 O193 2.294 . S
In182 O194 2.326 . S
O183 In182 2.294 . S
O183 C192 1.240 . S
O184 In182 2.326 . S
O184 C192 1.252 . S
C185 O188 1.252 . S
C185 O189 1.260 . S
C186 O193 1.240 . S
C186 O194 1.252 . S
C187 O190 1.252 . S
C187 O191 1.260 . S
O188 In182 2.266 . S
O188 C185 1.252 . S
O189 In182 2.326 . S
O189 C185 1.260 . S
O190 In182 2.266 . S
O190 C187 1.252 . S
O191 In182 2.326 . S
O191 C187 1.260 . S
C192 O183 1.240 . S
C192 O184 1.252 . S
O193 In182 2.294 . S
O193 C186 1.240 . S
O194 In182 2.326 . S
O194 C186 1.252 . S
In195 O196 2.294 . S
In195 O197 2.326 . S
In195 O201 2.266 . S
In195 O202 2.326 . S
In195 O203 2.266 . S
In195 O204 2.326 . S
In195 O206 2.294 . S
In195 O207 2.326 . S
O196 In195 2.294 . S
O196 C205 1.240 . S
O197 In195 2.326 . S
O197 C205 1.252 . S
C198 O201 1.252 . S
C198 O202 1.260 . S
C199 O206 1.240 . S
C199 O207 1.252 . S
C200 O203 1.252 . S
C200 O204 1.260 . S
O201 In195 2.266 . S
O201 C198 1.252 . S
O202 In195 2.326 . S
O202 C198 1.260 . S
O203 In195 2.266 . S
O203 C200 1.252 . S
O204 In195 2.326 . S
O204 C200 1.260 . S
C205 O196 1.240 . S
C205 O197 1.252 . S
O206 In195 2.294 . S
O206 C199 1.240 . S
O207 In195 2.326 . S
O207 C199 1.252 . S
C208 C209 1.349 . S
C208 C210 1.327 . S
C208 H233 0.950 . S
C209 C208 1.349 . S
C209 C225 1.349 . S
C210 C208 1.327 . S
C210 C229 1.429 . S
C210 H234 0.950 . S
C211 C228 1.574 . S
C211 C230 1.368 . S
C211 H235 0.949 . S
H212 C216 0.949 . S
C213 C214 1.349 . S
C213 C215 1.327 . S
C213 H236 0.950 . S
C214 C213 1.349 . S
C214 C226 1.349 . S
C215 C213 1.327 . S
C215 C231 1.429 . S
C215 H237 0.950 . S
C216 H212 0.949 . S
C216 C224 1.574 . S
C216 C232 1.368 . S
H217 C225 0.950 . S
H218 C223 0.950 . S
H219 C224 0.949 . S
H220 C226 0.950 . S
H221 C227 0.950 . S
H222 C228 0.949 . S
C223 H218 0.950 . S
C223 C225 1.327 . S
C223 C229 1.429 . S
C224 C216 1.574 . S
C224 H219 0.949 . S
C224 C230 1.368 1_545 S
C225 C209 1.349 . S
C225 H217 0.950 . S
C225 C223 1.327 . S
C226 C214 1.349 . S
C226 H220 0.950 . S
C226 C227 1.327 . S
C227 H221 0.950 . S
C227 C226 1.327 . S
C227 C231 1.429 . S
C228 C211 1.574 . S
C228 H222 0.949 . S
C228 C232 1.368 1_565 S
C229 C210 1.429 . S
C229 C223 1.429 . S
C229 C230 1.523 . S
C230 C211 1.368 . S
C230 C224 1.368 1_565 S
C230 C229 1.523 . S
C231 C215 1.429 . S
C231 C227 1.429 . S
C231 C232 1.523 . S
C232 C216 1.368 . S
C232 C228 1.368 1_545 S
C232 C231 1.523 . S
H233 C208 0.950 . S
H234 C210 0.950 . S
H235 C211 0.949 . S
H236 C213 0.950 . S
H237 C215 0.950 . S
C238 C239 1.349 . S
C238 C240 1.327 . S
C238 H263 0.950 . S
C239 C238 1.349 . S
C239 C255 1.349 . S
C240 C238 1.327 . S
C240 C259 1.429 . S
C240 H264 0.950 . S
C241 C258 1.574 . S
C241 C260 1.368 . S
C241 H265 0.949 . S
H242 C246 0.949 . S
C243 C244 1.349 . S
C243 C245 1.327 . S
C243 H266 0.950 . S
C244 C243 1.349 . S
C244 C256 1.349 . S
C245 C243 1.327 . S
C245 C261 1.429 . S
C245 H267 0.950 . S
C246 H242 0.949 . S
C246 C254 1.574 . S
C246 C262 1.368 . S
H247 C255 0.950 . S
H248 C253 0.950 . S
H249 C254 0.949 . S
H250 C256 0.950 . S
H251 C257 0.950 . S
H252 C258 0.949 . S
C253 H248 0.950 . S
C253 C255 1.327 . S
C253 C259 1.429 . S
C254 C246 1.574 . S
C254 H249 0.949 . S
C254 C260 1.368 1_545 S
C255 C239 1.349 . S
C255 H247 0.950 . S
C255 C253 1.327 . S
C256 C244 1.349 . S
C256 H250 0.950 . S
C256 C257 1.327 . S
C257 H251 0.950 . S
C257 C256 1.327 . S
C257 C261 1.429 . S
C258 C241 1.574 . S
C258 H252 0.949 . S
C258 C262 1.368 1_565 S
C259 C240 1.429 . S
C259 C253 1.429 . S
C259 C260 1.523 . S
C260 C241 1.368 . S
C260 C254 1.368 1_565 S
C260 C259 1.523 . S
C261 C245 1.429 . S
C261 C257 1.429 . S
C261 C262 1.523 . S
C262 C246 1.368 . S
C262 C258 1.368 1_545 S
C262 C261 1.523 . S
H263 C238 0.950 . S
H264 C240 0.950 . S
H265 C241 0.949 . S
H266 C243 0.950 . S
H267 C245 0.950 . S
C268 C269 1.349 . S
C268 C270 1.327 . S
C268 H293 0.950 . S
C269 C268 1.349 . S
C269 C285 1.349 . S
C270 C268 1.327 . S
C270 C289 1.429 . S
C270 H294 0.950 . S
C271 C288 1.574 . S
C271 C290 1.368 . S
C271 H295 0.949 . S
H272 C276 0.949 . S
C273 C274 1.349 . S
C273 C275 1.327 . S
C273 H296 0.950 . S
C274 C273 1.349 . S
C274 C286 1.349 . S
C275 C273 1.327 . S
C275 C291 1.429 . S
C275 H297 0.950 . S
C276 H272 0.949 . S
C276 C284 1.574 . S
C276 C292 1.368 . S
H277 C285 0.950 . S
H278 C283 0.950 . S
H279 C284 0.949 . S
H280 C286 0.950 . S
H281 C287 0.950 . S
H282 C288 0.949 . S
C283 H278 0.950 . S
C283 C285 1.327 . S
C283 C289 1.429 . S
C284 C276 1.574 . S
C284 H279 0.949 . S
C284 C290 1.368 1_545 S
C285 C269 1.349 . S
C285 H277 0.950 . S
C285 C283 1.327 . S
C286 C274 1.349 . S
C286 H280 0.950 . S
C286 C287 1.327 . S
C287 H281 0.950 . S
C287 C286 1.327 . S
C287 C291 1.429 . S
C288 C271 1.574 . S
C288 H282 0.949 . S
C288 C292 1.368 1_565 S
C289 C270 1.429 . S
C289 C283 1.429 . S
C289 C290 1.523 . S
C290 C271 1.368 . S
C290 C284 1.368 1_565 S
C290 C289 1.523 . S
C291 C275 1.429 . S
C291 C287 1.429 . S
C291 C292 1.523 . S
C292 C276 1.368 . S
C292 C288 1.368 1_545 S
C292 C291 1.523 . S
H293 C268 0.950 . S
H294 C270 0.950 . S
H295 C271 0.949 . S
H296 C273 0.950 . S
H297 C275 0.950 . S
C298 C299 1.349 . S
C298 C300 1.327 . S
C298 H323 0.950 . S
C299 C298 1.349 . S
C299 C315 1.349 . S
C300 C298 1.327 . S
C300 C319 1.429 . S
C300 H324 0.950 . S
C301 C318 1.574 . S
C301 C320 1.368 . S
C301 H325 0.949 . S
H302 C306 0.949 . S
C303 C304 1.349 . S
C303 C305 1.327 . S
C303 H326 0.950 . S
C304 C303 1.349 . S
C304 C316 1.349 . S
C305 C303 1.327 . S
C305 C321 1.429 . S
C305 H327 0.950 . S
C306 H302 0.949 . S
C306 C314 1.574 . S
C306 C322 1.368 . S
H307 C315 0.950 . S
H308 C313 0.950 . S
H309 C314 0.949 . S
H310 C316 0.950 . S
H311 C317 0.950 . S
H312 C318 0.949 . S
C313 H308 0.950 . S
C313 C315 1.327 . S
C313 C319 1.429 . S
C314 C306 1.574 . S
C314 H309 0.949 . S
C314 C320 1.368 1_545 S
C315 C299 1.349 . S
C315 H307 0.950 . S
C315 C313 1.327 . S
C316 C304 1.349 . S
C316 H310 0.950 . S
C316 C317 1.327 . S
C317 H311 0.950 . S
C317 C316 1.327 . S
C317 C321 1.429 . S
C318 C301 1.574 . S
C318 H312 0.949 . S
C318 C322 1.368 1_565 S
C319 C300 1.429 . S
C319 C313 1.429 . S
C319 C320 1.523 . S
C320 C301 1.368 . S
C320 C314 1.368 1_565 S
C320 C319 1.523 . S
C321 C305 1.429 . S
C321 C317 1.429 . S
C321 C322 1.523 . S
C322 C306 1.368 . S
C322 C318 1.368 1_545 S
C322 C321 1.523 . S
H323 C298 0.950 . S
H324 C300 0.950 . S
H325 C301 0.949 . S
H326 C303 0.950 . S
H327 C305 0.950 . S
C328 C329 1.349 . S
C328 C330 1.327 . S
C328 H353 0.950 . S
C329 C328 1.349 . S
C329 C345 1.349 . S
C330 C328 1.327 . S
C330 C349 1.429 . S
C330 H354 0.950 . S
C331 C348 1.574 . S
C331 C350 1.368 . S
C331 H355 0.949 . S
H332 C336 0.949 . S
C333 C334 1.349 . S
C333 C335 1.327 . S
C333 H356 0.950 . S
C334 C333 1.349 . S
C334 C346 1.349 . S
C335 C333 1.327 . S
C335 C351 1.429 . S
C335 H357 0.950 . S
C336 H332 0.949 . S
C336 C344 1.574 . S
C336 C352 1.368 . S
H337 C345 0.950 . S
H338 C343 0.950 . S
H339 C344 0.949 . S
H340 C346 0.950 . S
H341 C347 0.950 . S
H342 C348 0.949 . S
C343 H338 0.950 . S
C343 C345 1.327 . S
C343 C349 1.429 . S
C344 C336 1.574 . S
C344 H339 0.949 . S
C344 C350 1.368 . S
C345 C329 1.349 . S
C345 H337 0.950 . S
C345 C343 1.327 . S
C346 C334 1.349 . S
C346 H340 0.950 . S
C346 C347 1.327 . S
C347 H341 0.950 . S
C347 C346 1.327 . S
C347 C351 1.429 . S
C348 C331 1.574 . S
C348 H342 0.949 . S
C348 C352 1.368 . S
C349 C330 1.429 . S
C349 C343 1.429 . S
C349 C350 1.523 . S
C350 C331 1.368 . S
C350 C344 1.368 . S
C350 C349 1.523 . S
C351 C335 1.429 . S
C351 C347 1.429 . S
C351 C352 1.523 . S
C352 C336 1.368 . S
C352 C348 1.368 . S
C352 C351 1.523 . S
H353 C328 0.950 . S
H354 C330 0.950 . S
H355 C331 0.949 . S
H356 C333 0.950 . S
H357 C335 0.950 . S
C358 C359 1.349 . S
C358 C360 1.327 . S
C358 H383 0.950 . S
C359 C358 1.349 . S
C359 C375 1.349 . S
C360 C358 1.327 . S
C360 C379 1.429 . S
C360 H384 0.950 . S
C361 C378 1.574 . S
C361 C380 1.368 . S
C361 H385 0.949 . S
H362 C366 0.949 . S
C363 C364 1.349 . S
C363 C365 1.327 . S
C363 H386 0.950 . S
C364 C363 1.349 . S
C364 C376 1.349 . S
C365 C363 1.327 . S
C365 C381 1.429 . S
C365 H387 0.950 . S
C366 H362 0.949 . S
C366 C374 1.574 . S
C366 C382 1.368 . S
H367 C375 0.950 . S
H368 C373 0.950 . S
H369 C374 0.949 . S
H370 C376 0.950 . S
H371 C377 0.950 . S
H372 C378 0.949 . S
C373 H368 0.950 . S
C373 C375 1.327 . S
C373 C379 1.429 . S
C374 C366 1.574 . S
C374 H369 0.949 . S
C374 C380 1.368 . S
C375 C359 1.349 . S
C375 H367 0.950 . S
C375 C373 1.327 . S
C376 C364 1.349 . S
C376 H370 0.950 . S
C376 C377 1.327 . S
C377 H371 0.950 . S
C377 C376 1.327 . S
C377 C381 1.429 . S
C378 C361 1.574 . S
C378 H372 0.949 . S
C378 C382 1.368 . S
C379 C360 1.429 . S
C379 C373 1.429 . S
C379 C380 1.523 . S
C380 C361 1.368 . S
C380 C374 1.368 . S
C380 C379 1.523 . S
C381 C365 1.429 . S
C381 C377 1.429 . S
C381 C382 1.523 . S
C382 C366 1.368 . S
C382 C378 1.368 . S
C382 C381 1.523 . S
H383 C358 0.950 . S
H384 C360 0.950 . S
H385 C361 0.949 . S
H386 C363 0.950 . S
H387 C365 0.950 . S
C388 C389 1.349 . S
C388 C390 1.327 . S
C388 H413 0.950 . S
C389 C388 1.349 . S
C389 C405 1.349 . S
C390 C388 1.327 . S
C390 C409 1.429 . S
C390 H414 0.950 . S
C391 C408 1.574 . S
C391 C410 1.368 . S
C391 H415 0.949 . S
H392 C396 0.949 . S
C393 C394 1.349 . S
C393 C395 1.327 . S
C393 H416 0.950 . S
C394 C393 1.349 . S
C394 C406 1.349 . S
C395 C393 1.327 . S
C395 C411 1.429 . S
C395 H417 0.950 . S
C396 H392 0.949 . S
C396 C404 1.574 . S
C396 C412 1.368 . S
H397 C405 0.950 . S
H398 C403 0.950 . S
H399 C404 0.949 . S
H400 C406 0.950 . S
H401 C407 0.950 . S
H402 C408 0.949 . S
C403 H398 0.950 . S
C403 C405 1.327 . S
C403 C409 1.429 . S
C404 C396 1.574 . S
C404 H399 0.949 . S
C404 C410 1.368 . S
C405 C389 1.349 . S
C405 H397 0.950 . S
C405 C403 1.327 . S
C406 C394 1.349 . S
C406 H400 0.950 . S
C406 C407 1.327 . S
C407 H401 0.950 . S
C407 C406 1.327 . S
C407 C411 1.429 . S
C408 C391 1.574 . S
C408 H402 0.949 . S
C408 C412 1.368 . S
C409 C390 1.429 . S
C409 C403 1.429 . S
C409 C410 1.523 . S
C410 C391 1.368 . S
C410 C404 1.368 . S
C410 C409 1.523 . S
C411 C395 1.429 . S
C411 C407 1.429 . S
C411 C412 1.523 . S
C412 C396 1.368 . S
C412 C408 1.368 . S
C412 C411 1.523 . S
H413 C388 0.950 . S
H414 C390 0.950 . S
H415 C391 0.949 . S
H416 C393 0.950 . S
H417 C395 0.950 . S
C418 C419 1.349 . S
C418 C420 1.327 . S
C418 H443 0.950 . S
C419 C418 1.349 . S
C419 C435 1.349 . S
C420 C418 1.327 . S
C420 C439 1.429 . S
C420 H444 0.950 . S
C421 C438 1.574 . S
C421 C440 1.368 . S
C421 H445 0.949 . S
H422 C426 0.949 . S
C423 C424 1.349 . S
C423 C425 1.327 . S
C423 H446 0.950 . S
C424 C423 1.349 . S
C424 C436 1.349 . S
C425 C423 1.327 . S
C425 C441 1.429 . S
C425 H447 0.950 . S
C426 H422 0.949 . S
C426 C434 1.574 . S
C426 C442 1.368 . S
H427 C435 0.950 . S
H428 C433 0.950 . S
H429 C434 0.949 . S
H430 C436 0.950 . S
H431 C437 0.950 . S
H432 C438 0.949 . S
C433 H428 0.950 . S
C433 C435 1.327 . S
C433 C439 1.429 . S
C434 C426 1.574 . S
C434 H429 0.949 . S
C434 C440 1.368 . S
C435 C419 1.349 . S
C435 H427 0.950 . S
C435 C433 1.327 . S
C436 C424 1.349 . S
C436 H430 0.950 . S
C436 C437 1.327 . S
C437 H431 0.950 . S
C437 C436 1.327 . S
C437 C441 1.429 . S
C438 C421 1.574 . S
C438 H432 0.949 . S
C438 C442 1.368 . S
C439 C420 1.429 . S
C439 C433 1.429 . S
C439 C440 1.523 . S
C440 C421 1.368 . S
C440 C434 1.368 . S
C440 C439 1.523 . S
C441 C425 1.429 . S
C441 C437 1.429 . S
C441 C442 1.523 . S
C442 C426 1.368 . S
C442 C438 1.368 . S
C442 C441 1.523 . S
H443 C418 0.950 . S
H444 C420 0.950 . S
H445 C421 0.949 . S
H446 C423 0.950 . S
H447 C425 0.950 . S
C448 C449 1.349 . S
C448 C450 1.327 . S
C448 H473 0.950 . S
C449 C448 1.349 . S
C449 C465 1.349 . S
C450 C448 1.327 . S
C450 C469 1.429 . S
C450 H474 0.950 1_655 S
C451 C468 1.574 . S
C451 C470 1.368 . S
C451 H475 0.949 . S
H452 C456 0.949 . S
C453 C454 1.349 . S
C453 C455 1.327 . S
C453 H476 0.950 . S
C454 C453 1.349 . S
C454 C466 1.349 . S
C455 C453 1.327 . S
C455 C471 1.429 . S
C455 H477 0.950 1_455 S
C456 H452 0.949 . S
C456 C464 1.574 . S
C456 C472 1.368 . S
H457 C465 0.950 . S
H458 C463 0.950 . S
H459 C464 0.949 . S
H460 C466 0.950 . S
H461 C467 0.950 . S
H462 C468 0.949 . S
C463 H458 0.950 . S
C463 C465 1.327 . S
C463 C469 1.429 . S
C464 C456 1.574 . S
C464 H459 0.949 . S
C464 C470 1.368 1_455 S
C465 C449 1.349 . S
C465 H457 0.950 . S
C465 C463 1.327 . S
C466 C454 1.349 . S
C466 H460 0.950 . S
C466 C467 1.327 . S
C467 H461 0.950 . S
C467 C466 1.327 . S
C467 C471 1.429 . S
C468 C451 1.574 . S
C468 H462 0.949 . S
C468 C472 1.368 1_655 S
C469 C450 1.429 . S
C469 C463 1.429 . S
C469 C470 1.523 . S
C470 C451 1.368 . S
C470 C464 1.368 1_655 S
C470 C469 1.523 . S
C471 C455 1.429 . S
C471 C467 1.429 . S
C471 C472 1.523 . S
C472 C456 1.368 . S
C472 C468 1.368 1_455 S
C472 C471 1.523 . S
H473 C448 0.950 . S
H474 C450 0.950 1_455 S
H475 C451 0.949 . S
H476 C453 0.950 . S
H477 C455 0.950 1_655 S
C478 C479 1.349 . S
C478 C480 1.327 . S
C478 H503 0.950 . S
C479 C478 1.349 . S
C479 C495 1.349 . S
C480 C478 1.327 . S
C480 C499 1.429 . S
C480 H504 0.950 . S
C481 C498 1.574 . S
C481 C500 1.368 . S
C481 H505 0.949 . S
H482 C486 0.949 . S
C483 C484 1.349 . S
C483 C485 1.327 . S
C483 H506 0.950 . S
C484 C483 1.349 . S
C484 C496 1.349 . S
C485 C483 1.327 . S
C485 C501 1.429 . S
C485 H507 0.950 . S
C486 H482 0.949 . S
C486 C494 1.574 . S
C486 C502 1.368 . S
H487 C495 0.950 . S
H488 C493 0.950 . S
H489 C494 0.949 . S
H490 C496 0.950 . S
H491 C497 0.950 . S
H492 C498 0.949 . S
C493 H488 0.950 . S
C493 C495 1.327 . S
C493 C499 1.429 . S
C494 C486 1.574 . S
C494 H489 0.949 . S
C494 C500 1.368 . S
C495 C479 1.349 . S
C495 H487 0.950 . S
C495 C493 1.327 . S
C496 C484 1.349 . S
C496 H490 0.950 . S
C496 C497 1.327 . S
C497 H491 0.950 . S
C497 C496 1.327 . S
C497 C501 1.429 . S
C498 C481 1.574 . S
C498 H492 0.949 . S
C498 C502 1.368 . S
C499 C480 1.429 . S
C499 C493 1.429 . S
C499 C500 1.523 . S
C500 C481 1.368 . S
C500 C494 1.368 . S
C500 C499 1.523 . S
C501 C485 1.429 . S
C501 C497 1.429 . S
C501 C502 1.523 . S
C502 C486 1.368 . S
C502 C498 1.368 . S
C502 C501 1.523 . S
H503 C478 0.950 . S
H504 C480 0.950 . S
H505 C481 0.949 . S
H506 C483 0.950 . S
H507 C485 0.950 . S
C508 C509 1.349 . S
C508 C510 1.327 . S
C508 H533 0.950 . S
C509 C508 1.349 . S
C509 C525 1.349 . S
C510 C508 1.327 . S
C510 C529 1.429 . S
C510 H534 0.950 1_455 S
C511 C528 1.574 . S
C511 C530 1.368 . S
C511 H535 0.949 . S
H512 C516 0.949 . S
C513 C514 1.349 . S
C513 C515 1.327 . S
C513 H536 0.950 . S
C514 C513 1.349 . S
C514 C526 1.349 . S
C515 C513 1.327 . S
C515 C531 1.429 . S
C515 H537 0.950 1_655 S
C516 H512 0.949 . S
C516 C524 1.574 . S
C516 C532 1.368 . S
H517 C525 0.950 . S
H518 C523 0.950 . S
H519 C524 0.949 . S
H520 C526 0.950 . S
H521 C527 0.950 . S
H522 C528 0.949 . S
C523 H518 0.950 . S
C523 C525 1.327 . S
C523 C529 1.429 . S
C524 C516 1.574 . S
C524 H519 0.949 . S
C524 C530 1.368 1_655 S
C525 C509 1.349 . S
C525 H517 0.950 . S
C525 C523 1.327 . S
C526 C514 1.349 . S
C526 H520 0.950 . S
C526 C527 1.327 . S
C527 H521 0.950 . S
C527 C526 1.327 . S
C527 C531 1.429 . S
C528 C511 1.574 . S
C528 H522 0.949 . S
C528 C532 1.368 1_455 S
C529 C510 1.429 . S
C529 C523 1.429 . S
C529 C530 1.523 . S
C530 C511 1.368 . S
C530 C524 1.368 1_455 S
C530 C529 1.523 . S
C531 C515 1.429 . S
C531 C527 1.429 . S
C531 C532 1.523 . S
C532 C516 1.368 . S
C532 C528 1.368 1_655 S
C532 C531 1.523 . S
H533 C508 0.950 . S
H534 C510 0.950 1_655 S
H535 C511 0.949 . S
H536 C513 0.950 . S
H537 C515 0.950 1_455 S
C538 C539 1.349 . S
C538 C540 1.327 . S
C538 H563 0.950 . S
C539 C538 1.349 . S
C539 C555 1.349 . S
C540 C538 1.327 . S
C540 C559 1.429 . S
C540 H564 0.950 . S
C541 C558 1.574 . S
C541 C560 1.368 . S
C541 H565 0.949 . S
H542 C546 0.949 . S
C543 C544 1.349 . S
C543 C545 1.327 . S
C543 H566 0.950 . S
C544 C543 1.349 . S
C544 C556 1.349 . S
C545 C543 1.327 . S
C545 C561 1.429 . S
C545 H567 0.950 . S
C546 H542 0.949 . S
C546 C554 1.574 . S
C546 C562 1.368 . S
H547 C555 0.950 . S
H548 C553 0.950 . S
H549 C554 0.949 . S
H550 C556 0.950 . S
H551 C557 0.950 . S
H552 C558 0.949 . S
C553 H548 0.950 . S
C553 C555 1.327 . S
C553 C559 1.429 . S
C554 C546 1.574 . S
C554 H549 0.949 . S
C554 C560 1.368 . S
C555 C539 1.349 . S
C555 H547 0.950 . S
C555 C553 1.327 . S
C556 C544 1.349 . S
C556 H550 0.950 . S
C556 C557 1.327 . S
C557 H551 0.950 . S
C557 C556 1.327 . S
C557 C561 1.429 . S
C558 C541 1.574 . S
C558 H552 0.949 . S
C558 C562 1.368 . S
C559 C540 1.429 . S
C559 C553 1.429 . S
C559 C560 1.523 . S
C560 C541 1.368 . S
C560 C554 1.368 . S
C560 C559 1.523 . S
C561 C545 1.429 . S
C561 C557 1.429 . S
C561 C562 1.523 . S
C562 C546 1.368 . S
C562 C558 1.368 . S
C562 C561 1.523 . S
H563 C538 0.950 . S
H564 C540 0.950 . S
H565 C541 0.949 . S
H566 C543 0.950 . S
H567 C545 0.950 . S
C568 C569 1.349 . S
C568 C570 1.327 . S
C568 H593 0.950 . S
C569 C568 1.349 . S
C569 C585 1.349 . S
C570 C568 1.327 . S
C570 C589 1.429 . S
C570 H594 0.950 . S
C571 C588 1.574 . S
C571 C590 1.368 . S
C571 H595 0.949 . S
H572 C576 0.949 . S
C573 C574 1.349 . S
C573 C575 1.327 . S
C573 H596 0.950 . S
C574 C573 1.349 . S
C574 C586 1.349 . S
C575 C573 1.327 . S
C575 C591 1.429 . S
C575 H597 0.950 . S
C576 H572 0.949 . S
C576 C584 1.574 . S
C576 C592 1.368 . S
H577 C585 0.950 . S
H578 C583 0.950 . S
H579 C584 0.949 . S
H580 C586 0.950 . S
H581 C587 0.950 . S
H582 C588 0.949 . S
C583 H578 0.950 . S
C583 C585 1.327 . S
C583 C589 1.429 . S
C584 C576 1.574 . S
C584 H579 0.949 . S
C584 C590 1.368 . S
C585 C569 1.349 . S
C585 H577 0.950 . S
C585 C583 1.327 . S
C586 C574 1.349 . S
C586 H580 0.950 . S
C586 C587 1.327 . S
C587 H581 0.950 . S
C587 C586 1.327 . S
C587 C591 1.429 . S
C588 C571 1.574 . S
C588 H582 0.949 . S
C588 C592 1.368 . S
C589 C570 1.429 . S
C589 C583 1.429 . S
C589 C590 1.523 . S
C590 C571 1.368 . S
C590 C584 1.368 . S
C590 C589 1.523 . S
C591 C575 1.429 . S
C591 C587 1.429 . S
C591 C592 1.523 . S
C592 C576 1.368 . S
C592 C588 1.368 . S
C592 C591 1.523 . S
H593 C568 0.950 . S
H594 C570 0.950 . S
H595 C571 0.949 . S
H596 C573 0.950 . S
H597 C575 0.950 . S
C598 C599 1.349 . S
C598 C600 1.327 . S
C598 H623 0.950 . S
C599 C598 1.349 . S
C599 C615 1.349 . S
C600 C598 1.327 . S
C600 C619 1.429 . S
C600 H624 0.950 . S
C601 C618 1.574 . S
C601 C620 1.368 1_655 S
C601 H625 0.949 . S
H602 C606 0.949 . S
C603 C604 1.349 . S
C603 C605 1.327 . S
C603 H626 0.950 . S
C604 C603 1.349 . S
C604 C616 1.349 . S
C605 C603 1.327 . S
C605 C621 1.429 . S
C605 H627 0.950 . S
C606 H602 0.949 . S
C606 C614 1.574 . S
C606 C622 1.368 1_455 S
H607 C615 0.950 . S
H608 C613 0.950 1_655 S
H609 C614 0.949 . S
H610 C616 0.950 . S
H611 C617 0.950 1_455 S
H612 C618 0.949 . S
C613 H608 0.950 1_455 S
C613 C615 1.327 . S
C613 C619 1.429 . S
C614 C606 1.574 . S
C614 H609 0.949 . S
C614 C620 1.368 . S
C615 C599 1.349 . S
C615 H607 0.950 . S
C615 C613 1.327 . S
C616 C604 1.349 . S
C616 H610 0.950 . S
C616 C617 1.327 . S
C617 H611 0.950 1_655 S
C617 C616 1.327 . S
C617 C621 1.429 . S
C618 C601 1.574 . S
C618 H612 0.949 . S
C618 C622 1.368 . S
C619 C600 1.429 . S
C619 C613 1.429 . S
C619 C620 1.523 . S
C620 C601 1.368 1_455 S
C620 C614 1.368 . S
C620 C619 1.523 . S
C621 C605 1.429 . S
C621 C617 1.429 . S
C621 C622 1.523 . S
C622 C606 1.368 1_655 S
C622 C618 1.368 . S
C622 C621 1.523 . S
H623 C598 0.950 . S
H624 C600 0.950 . S
H625 C601 0.949 . S
H626 C603 0.950 . S
H627 C605 0.950 . S
C628 C629 1.349 . S
C628 C630 1.327 . S
C628 H653 0.950 . S
C629 C628 1.349 . S
C629 C645 1.349 . S
C630 C628 1.327 . S
C630 C649 1.429 . S
C630 H654 0.950 . S
C631 C648 1.574 . S
C631 C650 1.368 . S
C631 H655 0.949 . S
H632 C636 0.949 . S
C633 C634 1.349 . S
C633 C635 1.327 . S
C633 H656 0.950 . S
C634 C633 1.349 . S
C634 C646 1.349 . S
C635 C633 1.327 . S
C635 C651 1.429 . S
C635 H657 0.950 . S
C636 H632 0.949 . S
C636 C644 1.574 . S
C636 C652 1.368 . S
H637 C645 0.950 . S
H638 C643 0.950 . S
H639 C644 0.949 . S
H640 C646 0.950 . S
H641 C647 0.950 . S
H642 C648 0.949 . S
C643 H638 0.950 . S
C643 C645 1.327 . S
C643 C649 1.429 . S
C644 C636 1.574 . S
C644 H639 0.949 . S
C644 C650 1.368 . S
C645 C629 1.349 . S
C645 H637 0.950 . S
C645 C643 1.327 . S
C646 C634 1.349 . S
C646 H640 0.950 . S
C646 C647 1.327 . S
C647 H641 0.950 . S
C647 C646 1.327 . S
C647 C651 1.429 . S
C648 C631 1.574 . S
C648 H642 0.949 . S
C648 C652 1.368 . S
C649 C630 1.429 . S
C649 C643 1.429 . S
C649 C650 1.523 . S
C650 C631 1.368 . S
C650 C644 1.368 . S
C650 C649 1.523 . S
C651 C635 1.429 . S
C651 C647 1.429 . S
C651 C652 1.523 . S
C652 C636 1.368 . S
C652 C648 1.368 . S
C652 C651 1.523 . S
H653 C628 0.950 . S
H654 C630 0.950 . S
H655 C631 0.949 . S
H656 C633 0.950 . S
H657 C635 0.950 . S
C658 C659 1.349 . S
C658 C660 1.327 . S
C658 H683 0.950 . S
C659 C658 1.349 . S
C659 C675 1.349 . S
C660 C658 1.327 . S
C660 C679 1.429 . S
C660 H684 0.950 . S
C661 C678 1.574 . S
C661 C680 1.368 1_655 S
C661 H685 0.949 . S
H662 C666 0.949 . S
C663 C664 1.349 . S
C663 C665 1.327 . S
C663 H686 0.950 . S
C664 C663 1.349 . S
C664 C676 1.349 . S
C665 C663 1.327 . S
C665 C681 1.429 . S
C665 H687 0.950 . S
C666 H662 0.949 . S
C666 C674 1.574 . S
C666 C682 1.368 1_455 S
H667 C675 0.950 . S
H668 C673 0.950 1_655 S
H669 C674 0.949 . S
H670 C676 0.950 . S
H671 C677 0.950 1_455 S
H672 C678 0.949 . S
C673 H668 0.950 1_455 S
C673 C675 1.327 . S
C673 C679 1.429 . S
C674 C666 1.574 . S
C674 H669 0.949 . S
C674 C680 1.368 . S
C675 C659 1.349 . S
C675 H667 0.950 . S
C675 C673 1.327 . S
C676 C664 1.349 . S
C676 H670 0.950 . S
C676 C677 1.327 . S
C677 H671 0.950 1_655 S
C677 C676 1.327 . S
C677 C681 1.429 . S
C678 C661 1.574 . S
C678 H672 0.949 . S
C678 C682 1.368 . S
C679 C660 1.429 . S
C679 C673 1.429 . S
C679 C680 1.523 . S
C680 C661 1.368 1_455 S
C680 C674 1.368 . S
C680 C679 1.523 . S
C681 C665 1.429 . S
C681 C677 1.429 . S
C681 C682 1.523 . S
C682 C666 1.368 1_655 S
C682 C678 1.368 . S
C682 C681 1.523 . S
H683 C658 0.950 . S
H684 C660 0.950 . S
H685 C661 0.949 . S
H686 C663 0.950 . S
H687 C665 0.950 . S
C688 C689 1.349 . S
C688 C690 1.327 . S
C688 H713 0.950 . S
C689 C688 1.349 . S
C689 C705 1.349 . S
C690 C688 1.327 . S
C690 C709 1.429 . S
C690 H714 0.950 . S
C691 C708 1.574 . S
C691 C710 1.368 1_655 S
C691 H715 0.949 . S
H692 C696 0.949 . S
C693 C694 1.349 . S
C693 C695 1.327 . S
C693 H716 0.950 . S
C694 C693 1.349 . S
C694 C706 1.349 . S
C695 C693 1.327 . S
C695 C711 1.429 . S
C695 H717 0.950 . S
C696 H692 0.949 . S
C696 C704 1.574 . S
C696 C712 1.368 1_455 S
H697 C705 0.950 . S
H698 C703 0.950 1_655 S
H699 C704 0.949 . S
H700 C706 0.950 . S
H701 C707 0.950 1_455 S
H702 C708 0.949 . S
C703 H698 0.950 1_455 S
C703 C705 1.327 . S
C703 C709 1.429 . S
C704 C696 1.574 . S
C704 H699 0.949 . S
C704 C710 1.368 . S
C705 C689 1.349 . S
C705 H697 0.950 . S
C705 C703 1.327 . S
C706 C694 1.349 . S
C706 H700 0.950 . S
C706 C707 1.327 . S
C707 H701 0.950 1_655 S
C707 C706 1.327 . S
C707 C711 1.429 . S
C708 C691 1.574 . S
C708 H702 0.949 . S
C708 C712 1.368 . S
C709 C690 1.429 . S
C709 C703 1.429 . S
C709 C710 1.523 . S
C710 C691 1.368 1_455 S
C710 C704 1.368 . S
C710 C709 1.523 . S
C711 C695 1.429 . S
C711 C707 1.429 . S
C711 C712 1.523 . S
C712 C696 1.368 1_655 S
C712 C708 1.368 . S
C712 C711 1.523 . S
H713 C688 0.950 . S
H714 C690 0.950 . S
H715 C691 0.949 . S
H716 C693 0.950 . S
H717 C695 0.950 . S
C718 C719 1.349 . S
C718 C720 1.327 . S
C718 H743 0.950 . S
C719 C718 1.349 . S
C719 C735 1.349 . S
C720 C718 1.327 . S
C720 C739 1.429 . S
C720 H744 0.950 . S
C721 C738 1.574 . S
C721 C740 1.368 . S
C721 H745 0.949 . S
H722 C726 0.949 . S
C723 C724 1.349 . S
C723 C725 1.327 . S
C723 H746 0.950 . S
C724 C723 1.349 . S
C724 C736 1.349 . S
C725 C723 1.327 . S
C725 C741 1.429 . S
C725 H747 0.950 . S
C726 H722 0.949 . S
C726 C734 1.574 . S
C726 C742 1.368 . S
H727 C735 0.950 . S
H728 C733 0.950 . S
H729 C734 0.949 . S
H730 C736 0.950 . S
H731 C737 0.950 . S
H732 C738 0.949 . S
C733 H728 0.950 . S
C733 C735 1.327 . S
C733 C739 1.429 . S
C734 C726 1.574 . S
C734 H729 0.949 . S
C734 C740 1.368 . S
C735 C719 1.349 . S
C735 H727 0.950 . S
C735 C733 1.327 . S
C736 C724 1.349 . S
C736 H730 0.950 . S
C736 C737 1.327 . S
C737 H731 0.950 . S
C737 C736 1.327 . S
C737 C741 1.429 . S
C738 C721 1.574 . S
C738 H732 0.949 . S
C738 C742 1.368 . S
C739 C720 1.429 . S
C739 C733 1.429 . S
C739 C740 1.523 . S
C740 C721 1.368 . S
C740 C734 1.368 . S
C740 C739 1.523 . S
C741 C725 1.429 . S
C741 C737 1.429 . S
C741 C742 1.523 . S
C742 C726 1.368 . S
C742 C738 1.368 . S
C742 C741 1.523 . S
H743 C718 0.950 . S
H744 C720 0.950 . S
H745 C721 0.949 . S
H746 C723 0.950 . S
H747 C725 0.950 . S
C748 C749 1.349 . S
C748 C750 1.327 . S
C748 H773 0.950 . S
C749 C748 1.349 . S
C749 C765 1.349 . S
C750 C748 1.327 . S
C750 C769 1.429 . S
C750 H774 0.950 . S
C751 C768 1.574 . S
C751 C770 1.368 . S
C751 H775 0.949 . S
H752 C756 0.949 . S
C753 C754 1.349 . S
C753 C755 1.327 . S
C753 H776 0.950 . S
C754 C753 1.349 . S
C754 C766 1.349 . S
C755 C753 1.327 . S
C755 C771 1.429 . S
C755 H777 0.950 . S
C756 H752 0.949 . S
C756 C764 1.574 . S
C756 C772 1.368 . S
H757 C765 0.950 . S
H758 C763 0.950 . S
H759 C764 0.949 . S
H760 C766 0.950 . S
H761 C767 0.950 . S
H762 C768 0.949 . S
C763 H758 0.950 . S
C763 C765 1.327 . S
C763 C769 1.429 . S
C764 C756 1.574 . S
C764 H759 0.949 . S
C764 C770 1.368 . S
C765 C749 1.349 . S
C765 H757 0.950 . S
C765 C763 1.327 . S
C766 C754 1.349 . S
C766 H760 0.950 . S
C766 C767 1.327 . S
C767 H761 0.950 . S
C767 C766 1.327 . S
C767 C771 1.429 . S
C768 C751 1.574 . S
C768 H762 0.949 . S
C768 C772 1.368 . S
C769 C750 1.429 . S
C769 C763 1.429 . S
C769 C770 1.523 . S
C770 C751 1.368 . S
C770 C764 1.368 . S
C770 C769 1.523 . S
C771 C755 1.429 . S
C771 C767 1.429 . S
C771 C772 1.523 . S
C772 C756 1.368 . S
C772 C768 1.368 . S
C772 C771 1.523 . S
H773 C748 0.950 . S
H774 C750 0.950 . S
H775 C751 0.949 . S
H776 C753 0.950 . S
H777 C755 0.950 . S
C778 C779 1.349 . S
C778 C780 1.327 . S
C778 H803 0.950 . S
C779 C778 1.349 . S
C779 C795 1.349 . S
C780 C778 1.327 . S
C780 C799 1.429 . S
C780 H804 0.950 . S
C781 C798 1.574 . S
C781 C800 1.368 1_655 S
C781 H805 0.949 . S
H782 C786 0.949 . S
C783 C784 1.349 . S
C783 C785 1.327 . S
C783 H806 0.950 . S
C784 C783 1.349 . S
C784 C796 1.349 . S
C785 C783 1.327 . S
C785 C801 1.429 . S
C785 H807 0.950 . S
C786 H782 0.949 . S
C786 C794 1.574 . S
C786 C802 1.368 1_455 S
H787 C795 0.950 . S
H788 C793 0.950 1_655 S
H789 C794 0.949 . S
H790 C796 0.950 . S
H791 C797 0.950 1_455 S
H792 C798 0.949 . S
C793 H788 0.950 1_455 S
C793 C795 1.327 . S
C793 C799 1.429 . S
C794 C786 1.574 . S
C794 H789 0.949 . S
C794 C800 1.368 . S
C795 C779 1.349 . S
C795 H787 0.950 . S
C795 C793 1.327 . S
C796 C784 1.349 . S
C796 H790 0.950 . S
C796 C797 1.327 . S
C797 H791 0.950 1_655 S
C797 C796 1.327 . S
C797 C801 1.429 . S
C798 C781 1.574 . S
C798 H792 0.949 . S
C798 C802 1.368 . S
C799 C780 1.429 . S
C799 C793 1.429 . S
C799 C800 1.523 . S
C800 C781 1.368 1_455 S
C800 C794 1.368 . S
C800 C799 1.523 . S
C801 C785 1.429 . S
C801 C797 1.429 . S
C801 C802 1.523 . S
C802 C786 1.368 1_655 S
C802 C798 1.368 . S
C802 C801 1.523 . S
H803 C778 0.950 . S
H804 C780 0.950 . S
H805 C781 0.949 . S
H806 C783 0.950 . S
H807 C785 0.950 . S
C808 C809 1.349 . S
C808 C810 1.327 . S
C808 H833 0.950 . S
C809 C808 1.349 . S
C809 C825 1.349 . S
C810 C808 1.327 . S
C810 C829 1.429 . S
C810 H834 0.950 1_455 S
C811 C828 1.574 . S
C811 C830 1.368 . S
C811 H835 0.949 . S
H812 C816 0.949 . S
C813 C814 1.349 . S
C813 C815 1.327 . S
C813 H836 0.950 . S
C814 C813 1.349 . S
C814 C826 1.349 . S
C815 C813 1.327 . S
C815 C831 1.429 . S
C815 H837 0.950 1_655 S
C816 H812 0.949 . S
C816 C824 1.574 . S
C816 C832 1.368 . S
H817 C825 0.950 . S
H818 C823 0.950 . S
H819 C824 0.949 . S
H820 C826 0.950 . S
H821 C827 0.950 . S
H822 C828 0.949 . S
C823 H818 0.950 . S
C823 C825 1.327 . S
C823 C829 1.429 . S
C824 C816 1.574 . S
C824 H819 0.949 . S
C824 C830 1.368 1_655 S
C825 C809 1.349 . S
C825 H817 0.950 . S
C825 C823 1.327 . S
C826 C814 1.349 . S
C826 H820 0.950 . S
C826 C827 1.327 . S
C827 H821 0.950 . S
C827 C826 1.327 . S
C827 C831 1.429 . S
C828 C811 1.574 . S
C828 H822 0.949 . S
C828 C832 1.368 1_455 S
C829 C810 1.429 . S
C829 C823 1.429 . S
C829 C830 1.523 . S
C830 C811 1.368 . S
C830 C824 1.368 1_455 S
C830 C829 1.523 . S
C831 C815 1.429 . S
C831 C827 1.429 . S
C831 C832 1.523 . S
C832 C816 1.368 . S
C832 C828 1.368 1_655 S
C832 C831 1.523 . S
H833 C808 0.950 . S
H834 C810 0.950 1_655 S
H835 C811 0.949 . S
H836 C813 0.950 . S
H837 C815 0.950 1_455 S
C838 C839 1.349 . S
C838 C840 1.327 . S
C838 H863 0.950 . S
C839 C838 1.349 . S
C839 C855 1.349 . S
C840 C838 1.327 . S
C840 C859 1.429 . S
C840 H864 0.950 . S
C841 C858 1.574 . S
C841 C860 1.368 . S
C841 H865 0.949 . S
H842 C846 0.949 . S
C843 C844 1.349 . S
C843 C845 1.327 . S
C843 H866 0.950 . S
C844 C843 1.349 . S
C844 C856 1.349 . S
C845 C843 1.327 . S
C845 C861 1.429 . S
C845 H867 0.950 . S
C846 H842 0.949 . S
C846 C854 1.574 . S
C846 C862 1.368 . S
H847 C855 0.950 . S
H848 C853 0.950 . S
H849 C854 0.949 . S
H850 C856 0.950 . S
H851 C857 0.950 . S
H852 C858 0.949 . S
C853 H848 0.950 . S
C853 C855 1.327 . S
C853 C859 1.429 . S
C854 C846 1.574 . S
C854 H849 0.949 . S
C854 C860 1.368 . S
C855 C839 1.349 . S
C855 H847 0.950 . S
C855 C853 1.327 . S
C856 C844 1.349 . S
C856 H850 0.950 . S
C856 C857 1.327 . S
C857 H851 0.950 . S
C857 C856 1.327 . S
C857 C861 1.429 . S
C858 C841 1.574 . S
C858 H852 0.949 . S
C858 C862 1.368 . S
C859 C840 1.429 . S
C859 C853 1.429 . S
C859 C860 1.523 . S
C860 C841 1.368 . S
C860 C854 1.368 . S
C860 C859 1.523 . S
C861 C845 1.429 . S
C861 C857 1.429 . S
C861 C862 1.523 . S
C862 C846 1.368 . S
C862 C858 1.368 . S
C862 C861 1.523 . S
H863 C838 0.950 . S
H864 C840 0.950 . S
H865 C841 0.949 . S
H866 C843 0.950 . S
H867 C845 0.950 . S
C868 C869 1.349 . S
C868 C870 1.327 . S
C868 H893 0.950 . S
C869 C868 1.349 . S
C869 C885 1.349 . S
C870 C868 1.327 . S
C870 C889 1.429 . S
C870 H894 0.950 . S
C871 C888 1.574 . S
C871 C890 1.368 . S
C871 H895 0.949 . S
H872 C876 0.949 . S
C873 C874 1.349 . S
C873 C875 1.327 . S
C873 H896 0.950 . S
C874 C873 1.349 . S
C874 C886 1.349 . S
C875 C873 1.327 . S
C875 C891 1.429 . S
C875 H897 0.950 . S
C876 H872 0.949 . S
C876 C884 1.574 . S
C876 C892 1.368 . S
H877 C885 0.950 . S
H878 C883 0.950 . S
H879 C884 0.949 . S
H880 C886 0.950 . S
H881 C887 0.950 . S
H882 C888 0.949 . S
C883 H878 0.950 . S
C883 C885 1.327 . S
C883 C889 1.429 . S
C884 C876 1.574 . S
C884 H879 0.949 . S
C884 C890 1.368 . S
C885 C869 1.349 . S
C885 H877 0.950 . S
C885 C883 1.327 . S
C886 C874 1.349 . S
C886 H880 0.950 . S
C886 C887 1.327 . S
C887 H881 0.950 . S
C887 C886 1.327 . S
C887 C891 1.429 . S
C888 C871 1.574 . S
C888 H882 0.949 . S
C888 C892 1.368 . S
C889 C870 1.429 . S
C889 C883 1.429 . S
C889 C890 1.523 . S
C890 C871 1.368 . S
C890 C884 1.368 . S
C890 C889 1.523 . S
C891 C875 1.429 . S
C891 C887 1.429 . S
C891 C892 1.523 . S
C892 C876 1.368 . S
C892 C888 1.368 . S
C892 C891 1.523 . S
H893 C868 0.950 . S
H894 C870 0.950 . S
H895 C871 0.949 . S
H896 C873 0.950 . S
H897 C875 0.950 . S
C898 C899 1.349 . S
C898 C900 1.327 . S
C898 H923 0.950 . S
C899 C898 1.349 . S
C899 C915 1.349 . S
C900 C898 1.327 . S
C900 C919 1.429 . S
C900 H924 0.950 . S
C901 C918 1.574 . S
C901 C920 1.368 1_655 S
C901 H925 0.949 . S
H902 C906 0.949 . S
C903 C904 1.349 . S
C903 C905 1.327 . S
C903 H926 0.950 . S
C904 C903 1.349 . S
C904 C916 1.349 . S
C905 C903 1.327 . S
C905 C921 1.429 . S
C905 H927 0.950 . S
C906 H902 0.949 . S
C906 C914 1.574 . S
C906 C922 1.368 1_455 S
H907 C915 0.950 . S
H908 C913 0.950 1_655 S
H909 C914 0.949 . S
H910 C916 0.950 . S
H911 C917 0.950 1_455 S
H912 C918 0.949 . S
C913 H908 0.950 1_455 S
C913 C915 1.327 . S
C913 C919 1.429 . S
C914 C906 1.574 . S
C914 H909 0.949 . S
C914 C920 1.368 . S
C915 C899 1.349 . S
C915 H907 0.950 . S
C915 C913 1.327 . S
C916 C904 1.349 . S
C916 H910 0.950 . S
C916 C917 1.327 . S
C917 H911 0.950 1_655 S
C917 C916 1.327 . S
C917 C921 1.429 . S
C918 C901 1.574 . S
C918 H912 0.949 . S
C918 C922 1.368 . S
C919 C900 1.429 . S
C919 C913 1.429 . S
C919 C920 1.523 . S
C920 C901 1.368 1_455 S
C920 C914 1.368 . S
C920 C919 1.523 . S
C921 C905 1.429 . S
C921 C917 1.429 . S
C921 C922 1.523 . S
C922 C906 1.368 1_655 S
C922 C918 1.368 . S
C922 C921 1.523 . S
H923 C898 0.950 . S
H924 C900 0.950 . S
H925 C901 0.949 . S
H926 C903 0.950 . S
H927 C905 0.950 . S
C928 C929 1.349 . S
C928 C930 1.327 . S
C928 H953 0.950 . S
C929 C928 1.349 . S
C929 C945 1.349 . S
C930 C928 1.327 . S
C930 C949 1.429 . S
C930 H954 0.950 1_655 S
C931 C948 1.574 1_556 S
C931 C950 1.368 1_545 S
C931 H955 0.949 . S
H932 C936 0.949 . S
C933 C934 1.349 . S
C933 C935 1.327 . S
C933 H956 0.950 . S
C934 C933 1.349 . S
C934 C946 1.349 . S
C935 C933 1.327 . S
C935 C951 1.429 . S
C935 H957 0.950 1_455 S
C936 H932 0.949 . S
C936 C944 1.574 1_554 S
C936 C952 1.368 1_565 S
H937 C945 0.950 . S
H938 C943 0.950 1_545 S
H939 C944 0.949 . S
H940 C946 0.950 . S
H941 C947 0.950 1_565 S
H942 C948 0.949 . S
C943 H938 0.950 1_565 S
C943 C945 1.327 . S
C943 C949 1.429 . S
C944 C936 1.574 1_556 S
C944 H939 0.949 . S
C944 C950 1.368 1_455 S
C945 C929 1.349 . S
C945 H937 0.950 . S
C945 C943 1.327 . S
C946 C934 1.349 . S
C946 H940 0.950 . S
C946 C947 1.327 . S
C947 H941 0.950 1_545 S
C947 C946 1.327 . S
C947 C951 1.429 . S
C948 C931 1.574 1_554 S
C948 H942 0.949 . S
C948 C952 1.368 1_655 S
C949 C930 1.429 . S
C949 C943 1.429 . S
C949 C950 1.523 . S
C950 C931 1.368 1_565 S
C950 C944 1.368 1_655 S
C950 C949 1.523 . S
C951 C935 1.429 . S
C951 C947 1.429 . S
C951 C952 1.523 . S
C952 C936 1.368 1_545 S
C952 C948 1.368 1_455 S
C952 C951 1.523 . S
H953 C928 0.950 . S
H954 C930 0.950 1_455 S
H955 C931 0.949 . S
H956 C933 0.950 . S
H957 C935 0.950 1_655 S
C958 C959 1.349 . S
C958 C960 1.327 . S
C958 H983 0.950 . S
C959 C958 1.349 . S
C959 C975 1.349 . S
C960 C958 1.327 . S
C960 C979 1.429 . S
C960 H984 0.950 . S
C961 C978 1.574 1_556 S
C961 C980 1.368 . S
C961 H985 0.949 . S
H962 C966 0.949 . S
C963 C964 1.349 . S
C963 C965 1.327 . S
C963 H986 0.950 . S
C964 C963 1.349 . S
C964 C976 1.349 . S
C965 C963 1.327 . S
C965 C981 1.429 . S
C965 H987 0.950 . S
C966 H962 0.949 . S
C966 C974 1.574 1_554 S
C966 C982 1.368 . S
H967 C975 0.950 . S
H968 C973 0.950 . S
H969 C974 0.949 . S
H970 C976 0.950 . S
H971 C977 0.950 . S
H972 C978 0.949 . S
C973 H968 0.950 . S
C973 C975 1.327 . S
C973 C979 1.429 . S
C974 C966 1.574 1_556 S
C974 H969 0.949 . S
C974 C980 1.368 1_565 S
C975 C959 1.349 . S
C975 H967 0.950 . S
C975 C973 1.327 . S
C976 C964 1.349 . S
C976 H970 0.950 . S
C976 C977 1.327 . S
C977 H971 0.950 . S
C977 C976 1.327 . S
C977 C981 1.429 . S
C978 C961 1.574 1_554 S
C978 H972 0.949 . S
C978 C982 1.368 1_545 S
C979 C960 1.429 . S
C979 C973 1.429 . S
C979 C980 1.523 . S
C980 C961 1.368 . S
C980 C974 1.368 1_545 S
C980 C979 1.523 . S
C981 C965 1.429 . S
C981 C977 1.429 . S
C981 C982 1.523 . S
C982 C966 1.368 . S
C982 C978 1.368 1_565 S
C982 C981 1.523 . S
H983 C958 0.950 . S
H984 C960 0.950 . S
H985 C961 0.949 . S
H986 C963 0.950 . S
H987 C965 0.950 . S
C988 C989 1.349 . S
C988 C990 1.327 . S
C988 H1013 0.950 . S
C989 C988 1.349 . S
C989 C1005 1.349 . S
C990 C988 1.327 . S
C990 C1009 1.429 . S
C990 H1014 0.950 1_545 S
C991 C1008 1.574 . S
C991 C1010 1.368 . S
C991 H1015 0.949 . S
H992 C996 0.949 . S
C993 C994 1.349 . S
C993 C995 1.327 . S
C993 H1016 0.950 . S
C994 C993 1.349 . S
C994 C1006 1.349 . S
C995 C993 1.327 . S
C995 C1011 1.429 . S
C995 H1017 0.950 1_565 S
C996 H992 0.949 . S
C996 C1004 1.574 . S
C996 C1012 1.368 . S
H997 C1005 0.950 . S
H998 C1003 0.950 . S
H999 C1004 0.949 . S
H1000 C1006 0.950 . S
H1001 C1007 0.950 . S
H1002 C1008 0.949 . S
C1003 H998 0.950 . S
C1003 C1005 1.327 . S
C1003 C1009 1.429 . S
C1004 C996 1.574 . S
C1004 H999 0.949 . S
C1004 C1010 1.368 1_565 S
C1005 C989 1.349 . S
C1005 H997 0.950 . S
C1005 C1003 1.327 . S
C1006 C994 1.349 . S
C1006 H1000 0.950 . S
C1006 C1007 1.327 . S
C1007 H1001 0.950 . S
C1007 C1006 1.327 . S
C1007 C1011 1.429 . S
C1008 C991 1.574 . S
C1008 H1002 0.949 . S
C1008 C1012 1.368 1_545 S
C1009 C990 1.429 . S
C1009 C1003 1.429 . S
C1009 C1010 1.523 . S
C1010 C991 1.368 . S
C1010 C1004 1.368 1_545 S
C1010 C1009 1.523 . S
C1011 C995 1.429 . S
C1011 C1007 1.429 . S
C1011 C1012 1.523 . S
C1012 C996 1.368 . S
C1012 C1008 1.368 1_565 S
C1012 C1011 1.523 . S
H1013 C988 0.950 . S
H1014 C990 0.950 1_565 S
H1015 C991 0.949 . S
H1016 C993 0.950 . S
H1017 C995 0.950 1_545 S
C1018 C1019 1.349 . S
C1018 C1020 1.327 . S
C1018 H1043 0.950 . S
C1019 C1018 1.349 . S
C1019 C1035 1.349 . S
C1020 C1018 1.327 . S
C1020 C1039 1.429 . S
C1020 H1044 0.950 . S
C1021 C1038 1.574 . S
C1021 C1040 1.368 1_655 S
C1021 H1045 0.949 . S
H1022 C1026 0.949 . S
C1023 C1024 1.349 . S
C1023 C1025 1.327 . S
C1023 H1046 0.950 . S
C1024 C1023 1.349 . S
C1024 C1036 1.349 . S
C1025 C1023 1.327 . S
C1025 C1041 1.429 . S
C1025 H1047 0.950 . S
C1026 H1022 0.949 . S
C1026 C1034 1.574 . S
C1026 C1042 1.368 1_455 S
H1027 C1035 0.950 1_655 S
H1028 C1033 0.950 1_655 S
H1029 C1034 0.949 . S
H1030 C1036 0.950 1_455 S
H1031 C1037 0.950 1_455 S
H1032 C1038 0.949 . S
C1033 H1028 0.950 1_455 S
C1033 C1035 1.327 . S
C1033 C1039 1.429 . S
C1034 C1026 1.574 . S
C1034 H1029 0.949 . S
C1034 C1040 1.368 1_545 S
C1035 C1019 1.349 . S
C1035 H1027 0.950 1_455 S
C1035 C1033 1.327 . S
C1036 C1024 1.349 . S
C1036 H1030 0.950 1_655 S
C1036 C1037 1.327 . S
C1037 H1031 0.950 1_655 S
C1037 C1036 1.327 . S
C1037 C1041 1.429 . S
C1038 C1021 1.574 . S
C1038 H1032 0.949 . S
C1038 C1042 1.368 1_565 S
C1039 C1020 1.429 . S
C1039 C1033 1.429 . S
C1039 C1040 1.523 . S
C1040 C1021 1.368 1_455 S
C1040 C1034 1.368 1_565 S
C1040 C1039 1.523 . S
C1041 C1025 1.429 . S
C1041 C1037 1.429 . S
C1041 C1042 1.523 . S
C1042 C1026 1.368 1_655 S
C1042 C1038 1.368 1_545 S
C1042 C1041 1.523 . S
H1043 C1018 0.950 . S
H1044 C1020 0.950 . S
H1045 C1021 0.949 . S
H1046 C1023 0.950 . S
H1047 C1025 0.950 . S
C1048 C1049 1.349 . S
C1048 C1050 1.327 . S
C1048 H1073 0.950 . S
C1049 C1048 1.349 . S
C1049 C1065 1.349 . S
C1050 C1048 1.327 . S
C1050 C1069 1.429 . S
C1050 H1074 0.950 . S
C1051 C1068 1.600 . S
C1051 C1070 1.342 1_556 S
C1051 H1075 0.949 . S
H1052 C1056 0.949 . S
C1053 C1054 1.349 . S
C1053 C1055 1.327 . S
C1053 H1076 0.950 . S
C1054 C1053 1.349 . S
C1054 C1066 1.349 . S
C1055 C1053 1.327 . S
C1055 C1071 1.429 . S
C1055 H1077 0.950 . S
C1056 H1052 0.949 . S
C1056 C1064 1.600 . S
C1056 C1072 1.342 1_554 S
H1057 C1065 0.950 . S
H1058 C1063 0.950 . S
H1059 C1064 0.949 . S
H1060 C1066 0.950 . S
H1061 C1067 0.950 . S
H1062 C1068 0.949 . S
C1063 H1058 0.950 . S
C1063 C1065 1.327 . S
C1063 C1069 1.429 . S
C1064 C1056 1.600 . S
C1064 H1059 0.949 . S
C1064 C1070 1.368 . S
C1065 C1049 1.349 . S
C1065 H1057 0.950 . S
C1065 C1063 1.327 . S
C1066 C1054 1.349 . S
C1066 H1060 0.950 . S
C1066 C1067 1.327 . S
C1067 H1061 0.950 . S
C1067 C1066 1.327 . S
C1067 C1071 1.429 . S
C1068 C1051 1.600 . S
C1068 H1062 0.949 . S
C1068 C1072 1.368 . S
C1069 C1050 1.429 . S
C1069 C1063 1.429 . S
C1069 C1070 1.523 . S
C1070 C1051 1.342 1_554 S
C1070 C1064 1.368 . S
C1070 C1069 1.523 . S
C1071 C1055 1.429 . S
C1071 C1067 1.429 . S
C1071 C1072 1.523 . S
C1072 C1056 1.342 1_556 S
C1072 C1068 1.368 . S
C1072 C1071 1.523 . S
H1073 C1048 0.950 . S
H1074 C1050 0.950 . S
H1075 C1051 0.949 . S
H1076 C1053 0.950 . S
H1077 C1055 0.950 . S
C1078 C1079 1.349 . S
C1078 C1080 1.327 . S
C1078 H1103 0.950 . S
C1079 C1078 1.349 . S
C1079 C1095 1.349 . S
C1080 C1078 1.327 . S
C1080 C1099 1.429 . S
C1080 H1104 0.950 1_655 S
C1081 C1098 1.574 1_554 S
C1081 C1100 1.368 . S
C1081 H1105 0.949 . S
H1082 C1086 0.949 . S
C1083 C1084 1.349 . S
C1083 C1085 1.327 . S
C1083 H1106 0.950 . S
C1084 C1083 1.349 . S
C1084 C1096 1.349 . S
C1085 C1083 1.327 . S
C1085 C1101 1.429 . S
C1085 H1107 0.950 1_455 S
C1086 H1082 0.949 . S
C1086 C1094 1.574 1_556 S
C1086 C1102 1.368 . S
H1087 C1095 0.950 . S
H1088 C1093 0.950 . S
H1089 C1094 0.949 . S
H1090 C1096 0.950 . S
H1091 C1097 0.950 . S
H1092 C1098 0.949 . S
C1093 H1088 0.950 . S
C1093 C1095 1.327 . S
C1093 C1099 1.429 . S
C1094 C1086 1.574 1_554 S
C1094 H1089 0.949 . S
C1094 C1100 1.368 1_455 S
C1095 C1079 1.349 . S
C1095 H1087 0.950 . S
C1095 C1093 1.327 . S
C1096 C1084 1.349 . S
C1096 H1090 0.950 . S
C1096 C1097 1.327 . S
C1097 H1091 0.950 . S
C1097 C1096 1.327 . S
C1097 C1101 1.429 . S
C1098 C1081 1.574 1_556 S
C1098 H1092 0.949 . S
C1098 C1102 1.368 1_655 S
C1099 C1080 1.429 . S
C1099 C1093 1.429 . S
C1099 C1100 1.523 . S
C1100 C1081 1.368 . S
C1100 C1094 1.368 1_655 S
C1100 C1099 1.523 . S
C1101 C1085 1.429 . S
C1101 C1097 1.429 . S
C1101 C1102 1.523 . S
C1102 C1086 1.368 . S
C1102 C1098 1.368 1_455 S
C1102 C1101 1.523 . S
H1103 C1078 0.950 . S
H1104 C1080 0.950 1_455 S
H1105 C1081 0.949 . S
H1106 C1083 0.950 . S
H1107 C1085 0.950 1_655 S
C1108 C1109 1.349 . S
C1108 C1110 1.327 . S
C1108 H1133 0.950 . S
C1109 C1108 1.349 . S
C1109 C1125 1.349 . S
C1110 C1108 1.327 . S
C1110 C1129 1.429 . S
C1110 H1134 0.950 . S
C1111 C1128 1.574 . S
C1111 C1130 1.368 1_455 S
C1111 H1135 0.949 . S
H1112 C1116 0.949 . S
C1113 C1114 1.349 . S
C1113 C1115 1.327 . S
C1113 H1136 0.950 . S
C1114 C1113 1.349 . S
C1114 C1126 1.349 . S
C1115 C1113 1.327 . S
C1115 C1131 1.429 . S
C1115 H1137 0.950 . S
C1116 H1112 0.949 . S
C1116 C1124 1.574 . S
C1116 C1132 1.368 1_655 S
H1117 C1125 0.950 . S
H1118 C1123 0.932 1_455 S
H1119 C1124 0.949 . S
H1120 C1126 0.950 . S
H1121 C1127 0.932 1_655 S
H1122 C1128 0.949 . S
C1123 H1118 0.932 1_655 S
C1123 C1125 1.327 . S
C1123 C1129 1.429 . S
C1124 C1116 1.574 . S
C1124 H1119 0.949 . S
C1124 C1130 1.368 . S
C1125 C1109 1.349 . S
C1125 H1117 0.950 . S
C1125 C1123 1.327 . S
C1126 C1114 1.349 . S
C1126 H1120 0.950 . S
C1126 C1127 1.327 . S
C1127 H1121 0.932 1_455 S
C1127 C1126 1.327 . S
C1127 C1131 1.429 . S
C1128 C1111 1.574 . S
C1128 H1122 0.949 . S
C1128 C1132 1.368 . S
C1129 C1110 1.429 . S
C1129 C1123 1.429 . S
C1129 C1130 1.523 . S
C1130 C1111 1.368 1_655 S
C1130 C1124 1.368 . S
C1130 C1129 1.523 . S
C1131 C1115 1.429 . S
C1131 C1127 1.429 . S
C1131 C1132 1.523 . S
C1132 C1116 1.368 1_455 S
C1132 C1128 1.368 . S
C1132 C1131 1.523 . S
H1133 C1108 0.950 . S
H1134 C1110 0.950 . S
H1135 C1111 0.949 . S
H1136 C1113 0.950 . S
H1137 C1115 0.950 . S
C1138 C1139 1.349 . S
C1138 C1140 1.327 . S
C1138 H1163 0.950 . S
C1139 C1138 1.349 . S
C1139 C1155 1.349 . S
C1140 C1138 1.327 . S
C1140 C1159 1.429 . S
C1140 H1164 0.950 . S
C1141 C1158 1.574 . S
C1141 C1160 1.368 . S
C1141 H1165 0.949 . S
H1142 C1146 0.949 . S
C1143 C1144 1.349 . S
C1143 C1145 1.327 . S
C1143 H1166 0.950 . S
C1144 C1143 1.349 . S
C1144 C1156 1.349 . S
C1145 C1143 1.327 . S
C1145 C1161 1.429 . S
C1145 H1167 0.950 . S
C1146 H1142 0.949 . S
C1146 C1154 1.574 . S
C1146 C1162 1.368 . S
H1147 C1155 0.950 . S
H1148 C1153 0.950 . S
H1149 C1154 0.949 . S
H1150 C1156 0.950 . S
H1151 C1157 0.950 . S
H1152 C1158 0.949 . S
C1153 H1148 0.950 . S
C1153 C1155 1.327 . S
C1153 C1159 1.429 . S
C1154 C1146 1.574 . S
C1154 H1149 0.949 . S
C1154 C1160 1.368 . S
C1155 C1139 1.349 . S
C1155 H1147 0.950 . S
C1155 C1153 1.327 . S
C1156 C1144 1.349 . S
C1156 H1150 0.950 . S
C1156 C1157 1.327 . S
C1157 H1151 0.950 . S
C1157 C1156 1.327 . S
C1157 C1161 1.429 . S
C1158 C1141 1.574 . S
C1158 H1152 0.949 . S
C1158 C1162 1.368 . S
C1159 C1140 1.429 . S
C1159 C1153 1.429 . S
C1159 C1160 1.523 . S
C1160 C1141 1.368 . S
C1160 C1154 1.368 . S
C1160 C1159 1.523 . S
C1161 C1145 1.429 . S
C1161 C1157 1.429 . S
C1161 C1162 1.523 . S
C1162 C1146 1.368 . S
C1162 C1158 1.368 . S
C1162 C1161 1.523 . S
H1163 C1138 0.950 . S
H1164 C1140 0.950 . S
H1165 C1141 0.949 . S
H1166 C1143 0.950 . S
H1167 C1145 0.950 . S
C209 C23 1.507 . S
C214 C10 1.507 . S
C239 C30 1.507 . S
C244 C43 1.507 . S
C269 C56 1.507 . S
C274 C75 1.507 . S
C299 C95 1.507 . S
C304 C82 1.507 . S
C329 C127 1.507 . S
C334 C114 1.507 . S
C359 C147 1.507 . S
C364 C134 1.507 . S
C389 C179 1.507 . S
C394 C166 1.507 . S
C419 C199 1.507 . S
C424 C186 1.507 . S
C449 C42 1.528 . S
C454 C5 1.528 . S
C479 C18 1.528 . S
C484 C29 1.528 . S
C509 C94 1.528 . S
C514 C55 1.528 . S
C539 C81 1.528 . S
C544 C70 1.528 . S
C569 C109 1.528 . S
C574 C146 1.528 . S
C599 C133 1.528 . S
C604 C122 1.528 . S
C629 C198 1.528 . S
C634 C161 1.528 . S
C659 C174 1.528 . S
C664 C185 1.528 . S
C689 C3 1.441 . S
C694 C120 1.441 . S
C719 C16 1.441 . S
C724 C107 1.441 . S
C749 C148 1.441 . S
C754 C31 1.441 . S
C779 C135 1.441 . S
C784 C44 1.441 . S
C809 C172 1.441 . S
C814 C57 1.441 . S
C839 C159 1.441 . S
C844 C68 1.441 . S
C869 C83 1.441 . S
C874 C200 1.441 . S
C899 C96 1.441 . S
C904 C187 1.441 . S
C929 C62 1.539 . S
C934 C4 1.539 . S
C959 C69 1.539 . S
C964 C17 1.539 . S
C989 C88 1.539 . S
C994 C36 1.539 . S
C1019 C101 1.539 . S
C1024 C49 1.539 . S
C1049 C108 1.539 . S
C1054 C160 1.539 . S
C1079 C121 1.539 . S
C1084 C173 1.539 . S
C1109 C192 1.539 . S
C1114 C140 1.539 . S
C1139 C205 1.539 . S
C1144 C153 1.539 . S
