# Generated by pormake.
# Topology umo, (4)-cn, num edge types: 1
# Building blocks:
#     Node 0, Type 0, BuildingBlock: QUQFOY_clean_sbu_3, # of connection points: 4
#     Node 1, Type 0, BuildingBlock: QUQFOY_clean_sbu_3, # of connection points: 4
#     Node 2, Type 0, BuildingBlock: QUQFOY_clean_sbu_3, # of connection points: 4
#     Node 3, Type 0, BuildingBlock: QUQFOY_clean_sbu_3, # of connection points: 4
#     Node 4, Type 0, BuildingBlock: QUQFOY_clean_sbu_3, # of connection points: 4
#     Node 5, Type 0, BuildingBlock: QUQFOY_clean_sbu_3, # of connection points: 4
#     Node 6, Type 0, BuildingBlock: QUQFOY_clean_sbu_3, # of connection points: 4
#     Node 7, Type 0, BuildingBlock: QUQFOY_clean_sbu_3, # of connection points: 4
#     Node 8, Type 0, BuildingBlock: QUQFOY_clean_sbu_3, # of connection points: 4
#     Node 9, Type 0, BuildingBlock: QUQFOY_clean_sbu_3, # of connection points: 4
#     Node 10, Type 0, BuildingBlock: QUQFOY_clean_sbu_3, # of connection points: 4
#     Node 11, Type 0, BuildingBlock: QUQFOY_clean_sbu_3, # of connection points: 4
#     Edge 12, Type (0, 0), BuildingBlock: KIFKEQ_clean_linker_1, # of connection points: 2
#     Edge 13, Type (0, 0), BuildingBlock: KIFKEQ_clean_linker_1, # of connection points: 2
#     Edge 14, Type (0, 0), BuildingBlock: KIFKEQ_clean_linker_1, # of connection points: 2
#     Edge 15, Type (0, 0), BuildingBlock: KIFKEQ_clean_linker_1, # of connection points: 2
#     Edge 16, Type (0, 0), BuildingBlock: KIFKEQ_clean_linker_1, # of connection points: 2
#     Edge 17, Type (0, 0), BuildingBlock: KIFKEQ_clean_linker_1, # of connection points: 2
#     Edge 18, Type (0, 0), BuildingBlock: KIFKEQ_clean_linker_1, # of connection points: 2
#     Edge 19, Type (0, 0), BuildingBlock: KIFKEQ_clean_linker_1, # of connection points: 2
#     Edge 20, Type (0, 0), BuildingBlock: KIFKEQ_clean_linker_1, # of connection points: 2
#     Edge 21, Type (0, 0), BuildingBlock: KIFKEQ_clean_linker_1, # of connection points: 2
#     Edge 22, Type (0, 0), BuildingBlock: KIFKEQ_clean_linker_1, # of connection points: 2
#     Edge 23, Type (0, 0), BuildingBlock: KIFKEQ_clean_linker_1, # of connection points: 2
#     Edge 24, Type (0, 0), BuildingBlock: KIFKEQ_clean_linker_1, # of connection points: 2
#     Edge 25, Type (0, 0), BuildingBlock: KIFKEQ_clean_linker_1, # of connection points: 2
#     Edge 26, Type (0, 0), BuildingBlock: KIFKEQ_clean_linker_1, # of connection points: 2
#     Edge 27, Type (0, 0), BuildingBlock: KIFKEQ_clean_linker_1, # of connection points: 2
#     Edge 28, Type (0, 0), BuildingBlock: KIFKEQ_clean_linker_1, # of connection points: 2
#     Edge 29, Type (0, 0), BuildingBlock: KIFKEQ_clean_linker_1, # of connection points: 2
#     Edge 30, Type (0, 0), BuildingBlock: KIFKEQ_clean_linker_1, # of connection points: 2
#     Edge 31, Type (0, 0), BuildingBlock: KIFKEQ_clean_linker_1, # of connection points: 2
#     Edge 32, Type (0, 0), BuildingBlock: KIFKEQ_clean_linker_1, # of connection points: 2
#     Edge 33, Type (0, 0), BuildingBlock: KIFKEQ_clean_linker_1, # of connection points: 2
#     Edge 34, Type (0, 0), BuildingBlock: KIFKEQ_clean_linker_1, # of connection points: 2
#     Edge 35, Type (0, 0), BuildingBlock: KIFKEQ_clean_linker_1, # of connection points: 2
# Relax obj value: 0.165
# Max RMSD: 0.247
# Mean RMSD: 0.247
data_MOF--net-umo--node1-QUQFOY_clean_sbu_3--edge1-KIFKEQ_clean_linker_1
_symmetry_space_group_name_H-M    P1
_symmetry_Int_Tables_number       1
_symmetry_cell_setting            triclinic
loop_
_symmetry_equiv_pos_as_xyz
'x, y, z'
_cell_length_a     53.461015
_cell_length_b     53.505541
_cell_length_c     39.163167
_cell_angle_alpha  90.357668
_cell_angle_beta   89.818207
_cell_angle_gamma 120.15497
loop_
_atom_site_label
_atom_site_type_symbol
_atom_site_fract_x
_atom_site_fract_y
_atom_site_fract_z
_atom_type_partial_charge
C0 C 0.15132 0.47938 0.35548 0.0
O1 O 0.15924 0.47985 0.38616 0.0
Cd2 Cd 0.14078 0.49375 0.43539 0.0
O3 O 0.13088 0.48429 0.34901 0.0
Cd4 Cd 0.09764 0.49505 0.38123 0.0
C5 C 0.15296 0.55906 0.40519 0.0
O6 O 0.08971 0.47347 0.43898 0.0
O7 O 0.07977 0.50744 0.42992 0.0
O8 O 0.05574 0.45715 0.35196 0.0
C9 C 0.08029 0.48958 0.45052 0.0
O10 O 0.15769 0.54449 0.42722 0.0
C11 C 0.04691 0.4738 0.34145 0.0
O12 O 0.13398 0.54659 0.38185 0.0
O13 O 0.06276 0.50065 0.34767 0.0
C14 C 0.6161 0.16809 0.50742 0.0
O15 O 0.62439 0.17728 0.53761 0.0
Cd16 Cd 0.5929 0.15985 0.58763 0.0
O17 O 0.59047 0.14743 0.50217 0.0
Cd18 Cd 0.54697 0.11569 0.53648 0.0
C19 C 0.53883 0.17117 0.55878 0.0
O20 O 0.56132 0.10912 0.59468 0.0
O21 O 0.51774 0.10077 0.58604 0.0
O22 O 0.5441 0.0735 0.51001 0.0
C23 C 0.53605 0.10087 0.60652 0.0
O24 O 0.55874 0.17616 0.58014 0.0
C25 C 0.5182 0.06286 0.49974 0.0
O26 O 0.53167 0.152 0.53544 0.0
O27 O 0.50599 0.07772 0.50485 0.0
C28 C 0.41343 0.64739 0.68102 0.0
O29 O 0.41171 0.65765 0.70971 0.0
Cd30 Cd 0.39788 0.63065 0.76328 0.0
O31 O 0.40976 0.622 0.6792 0.0
Cd32 Cd 0.4004 0.58228 0.71873 0.0
C33 C 0.33479 0.57001 0.73894 0.0
O34 O 0.42125 0.60385 0.77552 0.0
O35 O 0.39004 0.55812 0.77195 0.0
O36 O 0.4395 0.57734 0.69449 0.0
C37 C 0.40653 0.57957 0.79051 0.0
O38 O 0.34817 0.59194 0.75845 0.0
C39 C 0.42368 0.55081 0.68663 0.0
O40 O 0.34812 0.56306 0.71726 0.0
O41 O 0.39671 0.53928 0.69228 0.0
C42 C 0.73055 0.44559 0.84333 0.0
O43 O 0.71958 0.44481 0.87238 0.0
Cd44 Cd 0.73216 0.42712 0.92317 0.0
O45 O 0.75125 0.44043 0.84091 0.0
Cd46 Cd 0.78104 0.43023 0.8804 0.0
C47 C 0.72692 0.36433 0.89266 0.0
O48 O 0.78111 0.44546 0.94102 0.0
O49 O 0.78937 0.41045 0.92963 0.0
O50 O 0.82682 0.47239 0.86664 0.0
C51 C 0.78773 0.42695 0.95173 0.0
O52 O 0.71837 0.37742 0.91262 0.0
C53 C 0.83771 0.45841 0.85303 0.0
O54 O 0.74848 0.37829 0.87283 0.0
O55 O 0.82154 0.43113 0.85059 0.0
C56 C 0.29151 0.76423 0.97405 0.0
O57 O 0.28416 0.77276 0.00049 0.0
Cd58 Cd 0.33151 0.789 0.02676 0.0
O59 O 0.31737 0.76926 0.97271 0.0
Cd60 Cd 0.35197 0.79974 0.02248 0.0
C61 C 0.36256 0.75195 0.01408 0.0
O62 O 0.33354 0.79251 0.08545 0.0
O63 O 0.37522 0.79707 0.07437 0.0
O64 O 0.35177 0.84501 0.01831 0.0
C65 C 0.35684 0.79451 0.09664 0.0
O66 O 0.33715 0.74632 0.02133 0.0
C67 C 0.37774 0.85962 0.00803 0.0
O68 O 0.38143 0.77805 0.00848 0.0
O69 O 0.39129 0.84607 0.00305 0.0
C70 C 0.4846 0.28831 0.16754 0.0
O71 O 0.48629 0.27977 0.19716 0.0
Cd72 Cd 0.50335 0.31259 0.24628 0.0
O73 O 0.48907 0.31378 0.16361 0.0
Cd74 Cd 0.49865 0.35524 0.20047 0.0
C75 C 0.56526 0.37185 0.21687 0.0
O76 O 0.48159 0.34093 0.26068 0.0
O77 O 0.51537 0.38485 0.24976 0.0
O78 O 0.45589 0.3561 0.18314 0.0
C79 C 0.49863 0.36665 0.27148 0.0
O80 O 0.55266 0.35075 0.23743 0.0
C81 C 0.4694 0.38033 0.1682 0.0
O82 O 0.55109 0.37754 0.19528 0.0
O83 O 0.49683 0.39248 0.16706 0.0
C84 C 0.41594 0.74756 0.46158 0.0
O85 O 0.41769 0.7369 0.43322 0.0
Cd86 Cd 0.40063 0.74646 0.37995 0.0
O87 O 0.40846 0.76669 0.46218 0.0
Cd88 Cd 0.39741 0.79418 0.41988 0.0
C89 C 0.33425 0.73582 0.40492 0.0
O90 O 0.41875 0.79526 0.36253 0.0
O91 O 0.38187 0.80171 0.36643 0.0
O92 O 0.43578 0.84007 0.44112 0.0
C93 C 0.40094 0.80104 0.34785 0.0
O94 O 0.34945 0.72869 0.38664 0.0
C95 C 0.41949 0.85041 0.44778 0.0
O96 O 0.3461 0.75809 0.42421 0.0
O97 O 0.39249 0.83392 0.44312 0.0
C98 C 0.62307 0.43889 0.62823 0.0
O99 O 0.63455 0.44212 0.59897 0.0
Cd100 Cd 0.60432 0.42303 0.54803 0.0
O101 O 0.59606 0.42947 0.63053 0.0
Cd102 Cd 0.55551 0.41765 0.59093 0.0
C103 C 0.55152 0.35556 0.57381 0.0
O104 O 0.57037 0.43765 0.53182 0.0
O105 O 0.52838 0.39948 0.54045 0.0
O106 O 0.55112 0.45718 0.61369 0.0
C107 C 0.54587 0.41837 0.51985 0.0
O108 O 0.57313 0.37161 0.55498 0.0
C109 C 0.52502 0.44182 0.62325 0.0
O110 O 0.54109 0.36653 0.59442 0.0
O111 O 0.51313 0.41461 0.61902 0.0
C112 C 0.16021 0.64202 0.78321 0.0
O113 O 0.16969 0.64577 0.75279 0.0
Cd114 Cd 0.15065 0.60769 0.70965 0.0
O115 O 0.13796 0.61827 0.79143 0.0
Cd116 Cd 0.10318 0.57254 0.76272 0.0
C117 C 0.15388 0.55497 0.75577 0.0
O118 O 0.09974 0.58012 0.7009 0.0
O119 O 0.08911 0.53749 0.71817 0.0
O120 O 0.06141 0.57611 0.77824 0.0
C121 C 0.09036 0.55354 0.6938 0.0
O122 O 0.16154 0.57162 0.73001 0.0
C123 C 0.04922 0.55291 0.7954 0.0
O124 O 0.13463 0.5531 0.77657 0.0
O125 O 0.06303 0.53945 0.79895 0.0
C126 C 0.47734 0.1732 0.95825 0.0
O127 O 0.47334 0.17996 0.92858 0.0
Cd128 Cd 0.48983 0.16479 0.87826 0.0
O129 O 0.48621 0.15533 0.9615 0.0
Cd130 Cd 0.4963 0.12419 0.92439 0.0
C131 C 0.55798 0.18086 0.90233 0.0
O132 O 0.47455 0.11515 0.86599 0.0
O133 O 0.51293 0.11187 0.87505 0.0
O134 O 0.45686 0.0808 0.94724 0.0
C135 C 0.49334 0.10903 0.85461 0.0
O136 O 0.54147 0.18532 0.88309 0.0
C137 C 0.47237 0.07159 0.9604 0.0
O138 O 0.54756 0.16087 0.92462 0.0
O139 O 0.49969 0.08777 0.95815 0.0
C140 C 0.28308 0.50135 0.15929 0.0
O141 O 0.27615 0.48646 0.13204 0.0
Cd142 Cd 0.324 0.51847 0.10733 0.0
O143 O 0.3089 0.52224 0.16162 0.0
Cd144 Cd 0.34417 0.52772 0.1123 0.0
C145 C 0.35583 0.5863 0.12291 0.0
O146 O 0.32741 0.51797 0.04867 0.0
O147 O 0.36807 0.55579 0.06169 0.0
O148 O 0.34355 0.48195 0.11603 0.0
C149 C 0.35058 0.54011 0.03858 0.0
O150 O 0.33047 0.56712 0.11428 0.0
C151 C 0.36952 0.49329 0.12631 0.0
O152 O 0.37394 0.57823 0.12902 0.0
O153 O 0.3832 0.52045 0.13123 0.0
C154 C 0.72297 0.28543 0.30058 0.0
O155 O 0.70968 0.27947 0.27225 0.0
Cd156 Cd 0.7236 0.31353 0.22572 0.0
O157 O 0.74631 0.30947 0.30442 0.0
Cd158 Cd 0.77666 0.35192 0.26721 0.0
C159 C 0.72826 0.37219 0.26772 0.0
O160 O 0.77229 0.33863 0.205 0.0
O161 O 0.78379 0.38216 0.21974 0.0
O162 O 0.82119 0.35143 0.27853 0.0
C163 C 0.78054 0.36457 0.1961 0.0
O164 O 0.71654 0.35244 0.24513 0.0
C165 C 0.83472 0.37723 0.28973 0.0
O166 O 0.75013 0.37593 0.28472 0.0
O167 O 0.8207 0.39052 0.29219 0.0
H168 H 0.16311 0.59788 0.35404 0.0
H169 H 0.18384 0.59195 0.45917 0.0
H170 H 0.20119 0.64874 0.35334 0.0
H171 H 0.22193 0.64206 0.45826 0.0
H172 H 0.29376 0.73039 0.45223 0.0
H173 H 0.24212 0.69401 0.45179 0.0
H174 H 0.25242 0.66424 0.35269 0.0
H175 H 0.30322 0.70041 0.35295 0.0
C176 C 0.17528 0.60759 0.37719 0.0
C177 C 0.1712 0.59079 0.40629 0.0
C178 C 0.19704 0.63666 0.37681 0.0
C179 C 0.21489 0.64925 0.40555 0.0
C180 C 0.20857 0.63315 0.43572 0.0
C181 C 0.18698 0.60422 0.43606 0.0
C182 C 0.2847 0.71647 0.43009 0.0
C183 C 0.30255 0.71759 0.40309 0.0
C184 C 0.25522 0.69572 0.42979 0.0
C185 C 0.24326 0.67609 0.40235 0.0
C186 C 0.26076 0.67913 0.37409 0.0
C187 C 0.29007 0.69959 0.37451 0.0
H188 H 0.53311 0.19685 0.61548 0.0
H189 H 0.51429 0.18641 0.50746 0.0
H190 H 0.52356 0.23648 0.61784 0.0
H191 H 0.50388 0.22605 0.50992 0.0
H192 H 0.55876 0.32697 0.52104 0.0
H193 H 0.54185 0.27598 0.51614 0.0
H194 H 0.49588 0.26083 0.61175 0.0
H195 H 0.51352 0.31276 0.61702 0.0
C196 C 0.52607 0.20254 0.59238 0.0
C197 C 0.5254 0.18932 0.56103 0.0
C198 C 0.52017 0.22504 0.59384 0.0
C199 C 0.51357 0.23483 0.56392 0.0
C200 C 0.50948 0.21927 0.53328 0.0
C201 C 0.51536 0.19658 0.53184 0.0
C202 C 0.54482 0.31283 0.54097 0.0
C203 C 0.53816 0.32397 0.56996 0.0
C204 C 0.53461 0.28339 0.53778 0.0
C205 C 0.51753 0.26428 0.56357 0.0
C206 C 0.5092 0.27512 0.59157 0.0
C207 C 0.51936 0.30478 0.59468 0.0
H208 H 0.18828 0.56177 0.80948 0.0
H209 H 0.15619 0.51574 0.71438 0.0
H210 H 0.22815 0.55232 0.80799 0.0
H211 H 0.19502 0.50436 0.71357 0.0
H212 H 0.29406 0.55367 0.68928 0.0
H213 H 0.24281 0.5359 0.69832 0.0
H214 H 0.25366 0.52789 0.8065 0.0
H215 H 0.30533 0.54765 0.79727 0.0
C216 C 0.18892 0.54815 0.78931 0.0
C217 C 0.16961 0.53968 0.76191 0.0
C218 C 0.21179 0.54262 0.78831 0.0
C219 C 0.21536 0.52821 0.76004 0.0
C220 C 0.19349 0.51631 0.73511 0.0
C221 C 0.17105 0.52246 0.73575 0.0
C222 C 0.28518 0.54733 0.71474 0.0
C223 C 0.30338 0.55247 0.74267 0.0
C224 C 0.25573 0.5369 0.72006 0.0
C225 C 0.24405 0.53097 0.75339 0.0
C226 C 0.262 0.53304 0.7807 0.0
C227 C 0.29151 0.54419 0.77545 0.0
H228 H 0.72082 0.32575 0.84211 0.0
H229 H 0.69933 0.33147 0.94718 0.0
H230 H 0.68775 0.2733 0.84323 0.0
H231 H 0.66637 0.27997 0.94824 0.0
H232 H 0.60112 0.1911 0.94795 0.0
H233 H 0.6518 0.22954 0.94412 0.0
H234 H 0.63569 0.25107 0.84341 0.0
H235 H 0.58594 0.21267 0.84689 0.0
C236 C 0.70956 0.31571 0.86557 0.0
C237 C 0.71173 0.33261 0.89415 0.0
C238 C 0.69073 0.28578 0.86629 0.0
C239 C 0.67409 0.27253 0.89566 0.0
C240 C 0.67886 0.28928 0.92524 0.0
C241 C 0.6974 0.31898 0.92444 0.0
C242 C 0.60874 0.20359 0.9247 0.0
C243 C 0.58945 0.1997 0.89827 0.0
C244 C 0.63771 0.22551 0.92244 0.0
C245 C 0.64762 0.24372 0.89374 0.0
C246 C 0.62894 0.23749 0.86585 0.0
C247 C 0.60017 0.21575 0.86813 0.0
H248 H 0.32928 0.69453 0.00326 0.0
H249 H 0.41252 0.75954 0.04212 0.0
H250 H 0.33358 0.65744 0.03396 0.0
H251 H 0.41666 0.72222 0.07342 0.0
H252 H 0.40821 0.62888 0.10006 0.0
H253 H 0.41598 0.67201 0.06935 0.0
H254 H 0.33103 0.65448 0.0999 0.0
H255 H 0.32313 0.61145 0.13004 0.0
C256 C 0.34898 0.70068 0.01733 0.0
C257 C 0.37042 0.7298 0.02063 0.0
C258 C 0.35128 0.67958 0.03527 0.0
C259 C 0.37496 0.6873 0.05696 0.0
C260 C 0.39806 0.7159 0.05714 0.0
C261 C 0.39581 0.73713 0.03894 0.0
C262 C 0.39177 0.63503 0.10145 0.0
C263 C 0.36492 0.61676 0.11701 0.0
C264 C 0.39612 0.65948 0.08358 0.0
C265 C 0.37368 0.66578 0.08135 0.0
C266 C 0.34831 0.64947 0.10044 0.0
C267 C 0.34393 0.62511 0.11807 0.0
H268 H 0.68974 0.37068 0.31369 0.0
H269 H 0.74063 0.41641 0.22591 0.0
H270 H 0.65651 0.38811 0.30192 0.0
H271 H 0.70752 0.43422 0.2139 0.0
H272 H 0.60907 0.38148 0.17356 0.0
H273 H 0.65904 0.39943 0.19108 0.0
H274 H 0.64056 0.42297 0.28986 0.0
H275 H 0.59046 0.40435 0.2723 0.0
C276 C 0.69474 0.38597 0.29316 0.0
C277 C 0.71749 0.3923 0.27069 0.0
C278 C 0.67572 0.39599 0.28625 0.0
C279 C 0.67913 0.4121 0.25648 0.0
C280 C 0.70421 0.42158 0.23672 0.0
C281 C 0.72326 0.41162 0.24375 0.0
C282 C 0.61618 0.39178 0.19833 0.0
C283 C 0.59623 0.39135 0.2218 0.0
C284 C 0.6448 0.40219 0.20844 0.0
C285 C 0.65356 0.41215 0.24216 0.0
C286 C 0.6343 0.41508 0.26396 0.0
C287 C 0.60574 0.4045 0.25392 0.0
H288 H 0.07405 0.49873 0.67352 0.0
H289 H 0.09514 0.58237 0.63414 0.0
H290 H 0.06822 0.47991 0.61562 0.0
H291 H 0.08945 0.56342 0.57591 0.0
H292 H 0.0516 0.5145 0.47795 0.0
H293 H 0.05148 0.52826 0.53719 0.0
H294 H 0.09948 0.48639 0.56552 0.0
H295 H 0.09946 0.47237 0.5058 0.0
C296 C 0.07732 0.51311 0.65249 0.0
C297 C 0.0851 0.54213 0.65843 0.0
C298 C 0.07413 0.50229 0.6193 0.0
C299 C 0.07845 0.52015 0.59122 0.0
C300 C 0.08568 0.54903 0.5971 0.0
C301 C 0.08903 0.55994 0.6304 0.0
C302 C 0.06177 0.50781 0.49687 0.0
C303 C 0.07575 0.49252 0.48721 0.0
C304 C 0.06189 0.51593 0.53076 0.0
C305 C 0.07592 0.5089 0.55589 0.0
C306 C 0.08844 0.49209 0.54666 0.0
C307 C 0.08836 0.48396 0.51255 0.0
H308 H 0.48254 0.07658 0.63457 0.0
H309 H 0.57284 0.11531 0.66149 0.0
H310 H 0.46987 0.07499 0.69447 0.0
H311 H 0.56009 0.11396 0.72183 0.0
H312 H 0.52538 0.08704 0.82885 0.0
H313 H 0.5346 0.08146 0.76935 0.0
H314 H 0.47582 0.11037 0.73848 0.0
H315 H 0.46627 0.11571 0.79854 0.0
C316 C 0.49972 0.08453 0.65336 0.0
C317 C 0.52877 0.09624 0.64328 0.0
C318 C 0.49241 0.08379 0.68769 0.0
C319 C 0.51395 0.09468 0.71289 0.0
C320 C 0.54294 0.10524 0.70301 0.0
C321 C 0.55029 0.106 0.66848 0.0
C322 C 0.51413 0.09194 0.80942 0.0
C323 C 0.49519 0.10202 0.81841 0.0
C324 C 0.51962 0.08892 0.77529 0.0
C325 C 0.5063 0.09583 0.74917 0.0
C326 C 0.48634 0.10471 0.75806 0.0
C327 C 0.48082 0.10776 0.79241 0.0
H328 H 0.3213 0.50887 0.98163 0.0
H329 H 0.39723 0.58814 0.01322 0.0
H330 H 0.33652 0.52025 0.92204 0.0
H331 H 0.41271 0.59909 0.95413 0.0
H332 H 0.41655 0.62104 0.83902 0.0
H333 H 0.40214 0.61253 0.89926 0.0
H334 H 0.37424 0.52198 0.88611 0.0
H335 H 0.38806 0.5304 0.82633 0.0
C336 C 0.34111 0.52873 0.97586 0.0
C337 C 0.3581 0.54745 0.00216 0.0
C338 C 0.35 0.53518 0.94178 0.0
C339 C 0.37605 0.56048 0.93332 0.0
C340 C 0.39249 0.57957 0.95963 0.0
C341 C 0.38364 0.57314 -0.00642 0.0
C342 C 0.40789 0.5995 0.8493 0.0
C343 C 0.40336 0.5764 0.82799 0.0
C344 C 0.39947 0.59454 0.88371 0.0
C345 C 0.38647 0.56642 0.89735 0.0
C346 C 0.38338 0.54372 0.87628 0.0
C347 C 0.39165 0.54864 0.84208 0.0
H348 H 0.7694 0.33212 0.13718 0.0
H349 H 0.79732 0.41862 0.17363 0.0
H350 H 0.77186 0.34862 0.07837 0.0
H351 H 0.80009 0.43498 0.1154 0.0
H352 H 0.77043 0.44555 0.00819 0.0
H353 H 0.7688 0.43021 0.06745 0.0
H354 H 0.80778 0.37985 0.03648 0.0
H355 H 0.80913 0.39478 0.97783 0.0
C356 C 0.77624 0.35461 0.13266 0.0
C357 C 0.78315 0.37398 0.16009 0.0
C358 C 0.77771 0.36411 0.09903 0.0
C359 C 0.78606 0.39315 0.09222 0.0
C360 C 0.79313 0.41244 0.11971 0.0
C361 C 0.79174 0.40301 0.15314 0.0
C362 C 0.77899 0.43155 0.01422 0.0
C363 C 0.78978 0.42132 -0.01169 0.0
C364 C 0.778 0.42268 0.0481 0.0
C365 C 0.7878 0.40344 0.05659 0.0
C366 C 0.79943 0.39409 0.03075 0.0
C367 C 0.80044 0.40291 -0.00288 0.0
H368 H 0.32273 0.78926 0.15196 0.0
H369 H 0.40586 0.79994 0.12443 0.0
H370 H 0.33507 0.79111 0.21235 0.0
H371 H 0.41849 0.80267 0.18436 0.0
H372 H 0.41954 0.77826 0.29723 0.0
H373 H 0.40844 0.77547 0.23616 0.0
H374 H 0.36665 0.82571 0.25358 0.0
H375 H 0.37701 0.82774 0.31416 0.0
C376 C 0.3436 0.79202 0.15878 0.0
C377 C 0.3633 0.79455 0.1334 0.0
C378 C 0.35081 0.79329 0.19336 0.0
C379 C 0.37793 0.79726 0.20328 0.0
C380 C 0.39735 0.79929 0.17778 0.0
C381 C 0.39012 0.79791 0.14333 0.0
C382 C 0.40844 0.78907 0.28778 0.0
C383 C 0.39905 0.8031 0.31042 0.0
C384 C 0.40195 0.78742 0.25285 0.0
C385 C 0.38615 0.79994 0.24 0.0
C386 C 0.37807 0.8151 0.26263 0.0
C387 C 0.38433 0.81655 0.29734 0.0
H388 H 0.53071 0.42073 0.29774 0.0
H389 H 0.47575 0.33181 0.32794 0.0
H390 H 0.5416 0.4352 0.35718 0.0
H391 H 0.48701 0.34639 0.38792 0.0
H392 H 0.49256 0.38577 0.49234 0.0
H393 H 0.47969 0.37402 0.43265 0.0
H394 H 0.56892 0.4304 0.40406 0.0
H395 H 0.58187 0.44253 0.46434 0.0
C396 C 0.52078 0.40421 0.31712 0.0
C397 C 0.50235 0.37502 0.30806 0.0
C398 C 0.52726 0.41256 0.35124 0.0
C399 C 0.51544 0.39199 0.37731 0.0
C400 C 0.49633 0.36285 0.36841 0.0
C401 C 0.48984 0.35444 0.33409 0.0
C402 C 0.50948 0.39595 0.47335 0.0
C403 C 0.53832 0.41502 0.4831 0.0
C404 C 0.50207 0.38897 0.43911 0.0
C405 C 0.52328 0.40089 0.4136 0.0
C406 C 0.55201 0.42092 0.42314 0.0
C407 C 0.55947 0.42795 0.45761 0.0
H408 H 0.8731 0.43456 0.28491 0.0
H409 H 0.86666 0.35295 0.3091 0.0
H410 H 0.92529 0.45888 0.29145 0.0
H411 H 0.91873 0.3774 0.31831 0.0
H412 H 0.01461 0.42231 0.30842 0.0
H413 H -0.0363 0.39971 0.29279 0.0
H414 H -0.03808 0.47506 0.33049 0.0
H415 H 0.01307 0.49814 0.34357 0.0
C416 C 0.8829 0.42195 0.29236 0.0
C417 C 0.86595 0.39196 0.29672 0.0
C418 C 0.91286 0.43588 0.29622 0.0
C419 C 0.92649 0.42022 0.30545 0.0
C420 C 0.90925 0.39017 0.31037 0.0
C421 C 0.87934 0.37614 0.30558 0.0
C422 C 0.00335 0.43418 0.31254 0.0
C423 C 0.01769 0.46193 0.32711 0.0
C424 C -0.02593 0.42112 0.30407 0.0
C425 C -0.04165 0.43526 0.31088 0.0
C426 C -0.02682 0.46353 0.32433 0.0
C427 C 0.0026 0.47684 0.33195 0.0
H428 H 0.3947 0.88391 0.44103 0.0
H429 H 0.47244 0.88608 0.47535 0.0
H430 H 0.41771 0.93601 0.44966 0.0
H431 H 0.49498 0.93777 0.48578 0.0
H432 H 0.54052 0.03257 0.46932 0.0
H433 H 0.51527 -0.01879 0.45573 0.0
H434 H 0.43478 -0.02599 0.48953 0.0
H435 H 0.45998 0.02579 0.50125 0.0
C436 C 0.41651 0.89548 0.45114 0.0
C437 C 0.43186 0.88104 0.45742 0.0
C438 C 0.42972 0.92535 0.4561 0.0
C439 C 0.45841 0.94129 0.46794 0.0
C440 C 0.47321 0.92645 0.47561 0.0
C441 C 0.46019 0.89673 0.47007 0.0
C442 C 0.51733 0.02006 0.47317 0.0
C443 C 0.5022 0.03307 0.4864 0.0
C444 C 0.50288 -0.00947 0.46583 0.0
C445 C 0.47305 -0.02678 0.47228 0.0
C446 C 0.4577 -0.0134 0.48404 0.0
C447 C 0.47212 0.0163 0.49077 0.0
H448 H 0.40024 0.49243 0.68976 0.0
H449 H 0.47625 0.57059 0.65668 0.0
H450 H 0.42397 0.46478 0.67665 0.0
H451 H 0.49947 0.54289 0.64167 0.0
H452 H 0.54695 0.49459 0.65316 0.0
H453 H 0.52121 0.51978 0.66829 0.0
H454 H 0.44097 0.44592 0.63433 0.0
H455 H 0.46673 0.42021 0.62107 0.0
C456 C 0.42181 0.50357 0.67895 0.0
C457 C 0.4365 0.53365 0.67438 0.0
C458 C 0.43542 0.48773 0.67136 0.0
C459 C 0.46384 0.5016 0.65851 0.0
C460 C 0.47793 0.53156 0.6525 0.0
C461 C 0.46453 0.54744 0.6607 0.0
C462 C 0.52374 0.48364 0.64942 0.0
C463 C 0.50881 0.45551 0.63595 0.0
C464 C 0.50899 0.49818 0.65767 0.0
C465 C 0.47903 0.48516 0.65192 0.0
C466 C 0.46397 0.45659 0.63938 0.0
C467 C 0.4787 0.44182 0.63174 0.0
H468 H 0.01619 0.50227 0.82957 0.0
H469 H 0.01431 0.57598 0.78809 0.0
H470 H -0.03509 0.47992 0.84373 0.0
H471 H -0.03694 0.55339 0.80144 0.0
H472 H 0.86745 0.43425 0.82468 0.0
H473 H 0.91916 0.45804 0.81262 0.0
H474 H 0.9293 0.5392 0.8484 0.0
H475 H 0.8776 0.51563 0.85965 0.0
C476 C 0.0049 0.5138 0.82376 0.0
C477 C 0.01925 0.54084 0.80768 0.0
C478 C -0.02451 0.50088 0.83154 0.0
C479 C -0.04012 0.51476 0.82336 0.0
C480 C -0.02549 0.54224 0.80831 0.0
C481 C 0.00388 0.55515 0.8006 0.0
C482 C 0.88069 0.45722 0.82964 0.0
C483 C 0.86847 0.47308 0.84304 0.0
C484 C 0.91035 0.47078 0.82308 0.0
C485 C 0.92835 0.50044 0.82986 0.0
C486 C 0.91598 0.51637 0.84265 0.0
C487 C 0.88635 0.50284 0.84913 0.0
H488 H 0.41499 0.03232 0.9643 0.0
H489 H 0.49928 0.0441 -0.01268 0.0
H490 H 0.39271 -0.01843 0.97856 0.0
H491 H 0.47675 -0.00684 0.00286 0.0
H492 H 0.35746 0.89495 0.02809 0.0
H493 H 0.38132 0.94724 0.02272 0.0
H494 H 0.45367 0.94776 0.97236 0.0
H495 H 0.43021 0.89549 0.97892 0.0
C496 C 0.42873 0.02419 0.97313 0.0
C497 C 0.45892 0.04214 0.97441 0.0
C498 C 0.41591 -0.00494 0.98149 0.0
C499 C 0.43297 -0.01676 -0.00841 0.0
C500 C 0.46308 0.00153 -0.00546 0.0
C501 C 0.47596 0.03073 -0.01404 0.0
C502 C 0.37845 0.90624 0.01584 0.0
C503 C 0.3919 0.89116 0.00367 0.0
C504 C 0.39212 0.9362 0.01275 0.0
C505 C 0.41939 0.95168 -0.00291 0.0
C506 C 0.4329 0.93655 0.98508 0.0
C507 C 0.41933 0.90658 -0.01152 0.0
H508 H 0.34746 0.43627 0.11085 0.0
H509 H 0.42347 0.51118 0.15129 0.0
H510 H 0.37156 0.40804 0.11584 0.0
H511 H 0.44725 0.48277 0.15716 0.0
H512 H 0.49238 0.43265 0.13653 0.0
H513 H 0.46771 0.45931 0.12321 0.0
H514 H 0.38732 0.38796 0.16017 0.0
H515 H 0.41172 0.36107 0.17255 0.0
C516 C 0.36923 0.44663 0.12106 0.0
C517 C 0.38358 0.47589 0.13079 0.0
C518 C 0.38301 0.43046 0.12393 0.0
C519 C 0.41135 0.44321 0.13673 0.0
C520 C 0.42561 0.47247 0.14659 0.0
C521 C 0.41189 0.48866 0.14357 0.0
C522 C 0.46935 0.4225 0.14126 0.0
C523 C 0.45402 0.39488 0.15579 0.0
C524 C 0.45528 0.43785 0.13391 0.0
C525 C 0.42566 0.42588 0.14106 0.0
C526 C 0.4101 0.39771 0.15412 0.0
C527 C 0.42413 0.38234 0.16134 0.0
H528 H 0.13905 0.47516 0.28709 0.0
H529 H 0.2013 0.47695 0.35866 0.0
H530 H 0.16968 0.47714 0.23971 0.0
H531 H 0.23175 0.47863 0.31117 0.0
H532 H 0.22478 0.46171 0.16097 0.0
H533 H 0.1912 0.4518 0.20855 0.0
H534 H 0.26133 0.51641 0.26957 0.0
H535 H 0.29467 0.52616 0.22248 0.0
C536 C 0.15902 0.47548 0.29276 0.0
C537 C 0.1678 0.47618 0.32678 0.0
C538 C 0.17653 0.47649 0.26552 0.0
C539 C 0.20332 0.47837 0.27164 0.0
C540 C 0.21145 0.47766 0.3056 0.0
C541 C 0.19387 0.4765 0.33284 0.0
C542 C 0.23299 0.4737 0.1846 0.0
C543 C 0.2624 0.49477 0.18786 0.0
C544 C 0.21376 0.46808 0.21181 0.0
C545 C 0.22362 0.48319 0.24295 0.0
C546 C 0.25308 0.50403 0.24619 0.0
C547 C 0.27217 0.50979 0.21902 0.0
H548 H 0.74782 0.28693 0.36246 0.0
H549 H 0.66826 0.23899 0.30568 0.0
H550 H 0.72485 0.25653 0.41212 0.0
H551 H 0.64492 0.2096 0.35546 0.0
H552 H 0.61132 0.14762 0.44218 0.0
H553 H 0.6396 0.17347 0.39233 0.0
H554 H 0.69148 0.24873 0.45537 0.0
H555 H 0.66403 0.22225 0.5054 0.0
C556 C 0.72545 0.26984 0.36052 0.0
C557 C 0.70992 0.26547 0.33001 0.0
C558 C 0.71214 0.25251 0.38915 0.0
C559 C 0.68284 0.23054 0.38817 0.0
C560 C 0.6676 0.22583 0.3573 0.0
C561 C 0.68099 0.24289 0.32862 0.0
C562 C 0.62903 0.16957 0.44545 0.0
C563 C 0.63529 0.18288 0.4778 0.0
C564 C 0.64516 0.18456 0.41675 0.0
C565 C 0.66772 0.21349 0.41943 0.0
C566 C 0.67458 0.22643 0.45209 0.0
C567 C 0.65871 0.21126 0.48091 0.0
H568 H 0.42883 0.7045 0.67464 0.0
H569 H 0.40825 0.62836 0.61503 0.0
H570 H 0.4337 0.73103 0.62228 0.0
H571 H 0.41188 0.65434 0.56294 0.0
H572 H 0.43826 0.71171 0.47086 0.0
H573 H 0.44171 0.69005 0.52393 0.0
H574 H 0.40547 0.73473 0.57904 0.0
H575 H 0.40323 0.75723 0.52633 0.0
C576 C 0.42535 0.6934 0.65038 0.0
C577 C 0.41809 0.66424 0.64916 0.0
C578 C 0.42795 0.70858 0.62027 0.0
C579 C 0.42305 0.69492 0.5881 0.0
C580 C 0.41632 0.66588 0.58699 0.0
C581 C 0.41403 0.65083 0.61703 0.0
C582 C 0.43135 0.71717 0.49438 0.0
C583 C 0.42038 0.73617 0.49421 0.0
C584 C 0.43311 0.70455 0.52488 0.0
C585 C 0.42362 0.71031 0.55601 0.0
C586 C 0.41339 0.72997 0.55586 0.0
C587 C 0.41194 0.74281 0.52545 0.0
H588 H 0.68852 0.46063 0.83805 0.0
H589 H 0.74322 0.44003 0.77695 0.0
H590 H 0.66468 0.46337 0.78637 0.0
H591 H 0.71875 0.44163 0.72557 0.0
H592 H 0.60367 0.42704 0.6941 0.0
H593 H 0.63121 0.43216 0.74545 0.0
H594 H 0.70994 0.4693 0.68596 0.0
H595 H 0.68204 0.4631 0.6342 0.0
C596 C 0.69557 0.45682 0.81361 0.0
C597 C 0.71776 0.45001 0.81179 0.0
C598 C 0.68172 0.45815 0.7839 0.0
C599 C 0.68949 0.45246 0.75157 0.0
C600 C 0.71232 0.44654 0.74978 0.0
C601 C 0.72631 0.44545 0.77941 0.0
C602 C 0.6269 0.43651 0.69192 0.0
C603 C 0.64056 0.4445 0.65986 0.0
C604 C 0.6428 0.43966 0.72155 0.0
C605 C 0.67294 0.45112 0.72012 0.0
C606 C 0.68674 0.45992 0.68814 0.0
C607 C 0.67075 0.45655 0.65839 0.0
H608 H 0.23355 0.74658 0.96995 0.0
H609 H 0.30335 0.74714 0.91342 0.0
H610 H 0.2003 0.72032 0.92294 0.0
H611 H 0.2703 0.7208 0.867 0.0
H612 H 0.21136 0.69321 0.77648 0.0
H613 H 0.24178 0.7254 0.82193 0.0
H614 H 0.17768 0.6721 0.8966 0.0
H615 H 0.14702 0.64018 0.85118 0.0
C616 C 0.24181 0.74119 0.94751 0.0
C617 C 0.27111 0.74892 0.94552 0.0
C618 C 0.22275 0.72606 0.92062 0.0
C619 C 0.23262 0.71853 0.89107 0.0
C620 C 0.262 0.72664 0.88904 0.0
C621 C 0.28094 0.74158 0.91587 0.0
C622 C 0.2035 0.68858 0.80251 0.0
C623 C 0.17681 0.6639 0.81011 0.0
C624 C 0.22106 0.70695 0.82863 0.0
C625 C 0.21238 0.70114 0.86302 0.0
C626 C 0.18501 0.67734 0.87044 0.0
C627 C 0.16746 0.65894 0.84433 0.0
H628 H 0.48883 0.30318 0.10023 0.0
H629 H 0.46784 0.23062 0.16579 0.0
H630 H 0.48374 0.27376 0.05039 0.0
H631 H 0.46153 0.20068 0.11572 0.0
H632 H 0.49112 0.16845 0.02401 0.0
H633 H 0.48967 0.19451 0.07411 0.0
H634 H 0.45304 0.23556 0.01362 0.0
H635 H 0.45563 0.21015 0.96289 0.0
C636 C 0.48266 0.28077 0.10403 0.0
C637 C 0.47897 0.26937 0.13714 0.0
C638 C 0.47952 0.26376 0.07529 0.0
C639 C 0.47232 0.23473 0.07878 0.0
C640 C 0.46766 0.22306 0.11192 0.0
C641 C 0.47109 0.2402 0.14071 0.0
C642 C 0.48252 0.18285 0.02133 0.0
C643 C 0.47365 0.18728 -0.01076 0.0
C644 C 0.48149 0.19772 0.05028 0.0
C645 C 0.47129 0.21732 0.04817 0.0
C646 C 0.46152 0.22106 0.01624 0.0
C647 C 0.4628 0.20633 -0.01288 0.0
loop_
_geom_bond_atom_site_label_1
_geom_bond_atom_site_label_2
_geom_bond_distance
_geom_bond_site_symmetry_2
_ccdc_geom_bond_type
C0 O1 1.306 . S
C0 O3 1.160 . S
O1 C0 1.306 . S
O1 Cd2 2.228 . S
Cd2 O1 2.228 . S
Cd2 O6 2.273 . S
Cd2 O10 2.277 . S
O3 C0 1.160 . S
O3 Cd4 2.203 . S
Cd4 O3 2.203 . S
Cd4 O6 2.411 . S
Cd4 O7 2.333 . S
Cd4 O8 2.352 . S
Cd4 O12 2.277 . S
Cd4 O13 2.356 . S
C5 O10 1.209 . S
C5 O12 1.226 . S
O6 Cd2 2.273 . S
O6 Cd4 2.411 . S
O6 C9 1.320 . S
O7 Cd4 2.333 . S
O7 C9 1.214 . S
O8 Cd4 2.352 . S
O8 C11 1.258 . S
C9 O6 1.320 . S
C9 O7 1.214 . S
O10 Cd2 2.277 . S
O10 C5 1.209 . S
C11 O8 1.258 . S
C11 O13 1.282 . S
O12 Cd4 2.277 . S
O12 C5 1.226 . S
O13 Cd4 2.356 . S
O13 C11 1.282 . S
C14 O15 1.306 . S
C14 O17 1.160 . S
O15 C14 1.306 . S
O15 Cd16 2.228 . S
Cd16 O15 2.228 . S
Cd16 O20 2.273 . S
Cd16 O24 2.277 . S
O17 C14 1.160 . S
O17 Cd18 2.203 . S
Cd18 O17 2.203 . S
Cd18 O20 2.411 . S
Cd18 O21 2.333 . S
Cd18 O22 2.352 . S
Cd18 O26 2.277 . S
Cd18 O27 2.356 . S
C19 O24 1.209 . S
C19 O26 1.226 . S
O20 Cd16 2.273 . S
O20 Cd18 2.411 . S
O20 C23 1.320 . S
O21 Cd18 2.333 . S
O21 C23 1.214 . S
O22 Cd18 2.352 . S
O22 C25 1.258 . S
C23 O20 1.320 . S
C23 O21 1.214 . S
O24 Cd16 2.277 . S
O24 C19 1.209 . S
C25 O22 1.258 . S
C25 O27 1.282 . S
O26 Cd18 2.277 . S
O26 C19 1.226 . S
O27 Cd18 2.356 . S
O27 C25 1.282 . S
C28 O29 1.306 . S
C28 O31 1.160 . S
O29 C28 1.306 . S
O29 Cd30 2.228 . S
Cd30 O29 2.228 . S
Cd30 O34 2.273 . S
Cd30 O38 2.277 . S
O31 C28 1.160 . S
O31 Cd32 2.203 . S
Cd32 O31 2.203 . S
Cd32 O34 2.411 . S
Cd32 O35 2.333 . S
Cd32 O36 2.352 . S
Cd32 O40 2.277 . S
Cd32 O41 2.356 . S
C33 O38 1.209 . S
C33 O40 1.226 . S
O34 Cd30 2.273 . S
O34 Cd32 2.411 . S
O34 C37 1.320 . S
O35 Cd32 2.333 . S
O35 C37 1.214 . S
O36 Cd32 2.352 . S
O36 C39 1.258 . S
C37 O34 1.320 . S
C37 O35 1.214 . S
O38 Cd30 2.277 . S
O38 C33 1.209 . S
C39 O36 1.258 . S
C39 O41 1.282 . S
O40 Cd32 2.277 . S
O40 C33 1.226 . S
O41 Cd32 2.356 . S
O41 C39 1.282 . S
C42 O43 1.306 . S
C42 O45 1.160 . S
O43 C42 1.306 . S
O43 Cd44 2.228 . S
Cd44 O43 2.228 . S
Cd44 O48 2.273 . S
Cd44 O52 2.277 . S
O45 C42 1.160 . S
O45 Cd46 2.203 . S
Cd46 O45 2.203 . S
Cd46 O48 2.411 . S
Cd46 O49 2.333 . S
Cd46 O50 2.352 . S
Cd46 O54 2.277 . S
Cd46 O55 2.356 . S
C47 O52 1.209 . S
C47 O54 1.226 . S
O48 Cd44 2.273 . S
O48 Cd46 2.411 . S
O48 C51 1.320 . S
O49 Cd46 2.333 . S
O49 C51 1.214 . S
O50 Cd46 2.352 . S
O50 C53 1.258 . S
C51 O48 1.320 . S
C51 O49 1.214 . S
O52 Cd44 2.277 . S
O52 C47 1.209 . S
C53 O50 1.258 . S
C53 O55 1.282 . S
O54 Cd46 2.277 . S
O54 C47 1.226 . S
O55 Cd46 2.356 . S
O55 C53 1.282 . S
C56 O57 1.306 . S
C56 O59 1.160 . S
O57 C56 1.306 . S
O57 Cd58 2.228 . S
Cd58 O57 2.228 . S
Cd58 O62 2.273 . S
Cd58 O66 2.277 . S
O59 C56 1.160 . S
O59 Cd60 2.203 . S
Cd60 O59 2.203 . S
Cd60 O62 2.411 . S
Cd60 O63 2.333 . S
Cd60 O64 2.352 . S
Cd60 O68 2.277 . S
Cd60 O69 2.356 . S
C61 O66 1.209 . S
C61 O68 1.226 . S
O62 Cd58 2.273 . S
O62 Cd60 2.411 . S
O62 C65 1.320 . S
O63 Cd60 2.333 . S
O63 C65 1.214 . S
O64 Cd60 2.352 . S
O64 C67 1.258 . S
C65 O62 1.320 . S
C65 O63 1.214 . S
O66 Cd58 2.277 . S
O66 C61 1.209 . S
C67 O64 1.258 . S
C67 O69 1.282 . S
O68 Cd60 2.277 . S
O68 C61 1.226 . S
O69 Cd60 2.356 . S
O69 C67 1.282 . S
C70 O71 1.306 . S
C70 O73 1.160 . S
O71 C70 1.306 . S
O71 Cd72 2.228 . S
Cd72 O71 2.228 . S
Cd72 O76 2.273 . S
Cd72 O80 2.277 . S
O73 C70 1.160 . S
O73 Cd74 2.203 . S
Cd74 O73 2.203 . S
Cd74 O76 2.411 . S
Cd74 O77 2.333 . S
Cd74 O78 2.352 . S
Cd74 O82 2.277 . S
Cd74 O83 2.356 . S
C75 O80 1.209 . S
C75 O82 1.226 . S
O76 Cd72 2.273 . S
O76 Cd74 2.411 . S
O76 C79 1.320 . S
O77 Cd74 2.333 . S
O77 C79 1.214 . S
O78 Cd74 2.352 . S
O78 C81 1.258 . S
C79 O76 1.320 . S
C79 O77 1.214 . S
O80 Cd72 2.277 . S
O80 C75 1.209 . S
C81 O78 1.258 . S
C81 O83 1.282 . S
O82 Cd74 2.277 . S
O82 C75 1.226 . S
O83 Cd74 2.356 . S
O83 C81 1.282 . S
C84 O85 1.306 . S
C84 O87 1.160 . S
O85 C84 1.306 . S
O85 Cd86 2.228 . S
Cd86 O85 2.228 . S
Cd86 O90 2.273 . S
Cd86 O94 2.277 . S
O87 C84 1.160 . S
O87 Cd88 2.203 . S
Cd88 O87 2.203 . S
Cd88 O90 2.411 . S
Cd88 O91 2.333 . S
Cd88 O92 2.352 . S
Cd88 O96 2.277 . S
Cd88 O97 2.356 . S
C89 O94 1.209 . S
C89 O96 1.226 . S
O90 Cd86 2.273 . S
O90 Cd88 2.411 . S
O90 C93 1.320 . S
O91 Cd88 2.333 . S
O91 C93 1.214 . S
O92 Cd88 2.352 . S
O92 C95 1.258 . S
C93 O90 1.320 . S
C93 O91 1.214 . S
O94 Cd86 2.277 . S
O94 C89 1.209 . S
C95 O92 1.258 . S
C95 O97 1.282 . S
O96 Cd88 2.277 . S
O96 C89 1.226 . S
O97 Cd88 2.356 . S
O97 C95 1.282 . S
C98 O99 1.306 . S
C98 O101 1.160 . S
O99 C98 1.306 . S
O99 Cd100 2.228 . S
Cd100 O99 2.228 . S
Cd100 O104 2.273 . S
Cd100 O108 2.277 . S
O101 C98 1.160 . S
O101 Cd102 2.203 . S
Cd102 O101 2.203 . S
Cd102 O104 2.411 . S
Cd102 O105 2.333 . S
Cd102 O106 2.352 . S
Cd102 O110 2.277 . S
Cd102 O111 2.356 . S
C103 O108 1.209 . S
C103 O110 1.226 . S
O104 Cd100 2.273 . S
O104 Cd102 2.411 . S
O104 C107 1.320 . S
O105 Cd102 2.333 . S
O105 C107 1.214 . S
O106 Cd102 2.352 . S
O106 C109 1.258 . S
C107 O104 1.320 . S
C107 O105 1.214 . S
O108 Cd100 2.277 . S
O108 C103 1.209 . S
C109 O106 1.258 . S
C109 O111 1.282 . S
O110 Cd102 2.277 . S
O110 C103 1.226 . S
O111 Cd102 2.356 . S
O111 C109 1.282 . S
C112 O113 1.306 . S
C112 O115 1.160 . S
O113 C112 1.306 . S
O113 Cd114 2.228 . S
Cd114 O113 2.228 . S
Cd114 O118 2.273 . S
Cd114 O122 2.277 . S
O115 C112 1.160 . S
O115 Cd116 2.203 . S
Cd116 O115 2.203 . S
Cd116 O118 2.411 . S
Cd116 O119 2.333 . S
Cd116 O120 2.352 . S
Cd116 O124 2.277 . S
Cd116 O125 2.356 . S
C117 O122 1.209 . S
C117 O124 1.226 . S
O118 Cd114 2.273 . S
O118 Cd116 2.411 . S
O118 C121 1.320 . S
O119 Cd116 2.333 . S
O119 C121 1.214 . S
O120 Cd116 2.352 . S
O120 C123 1.258 . S
C121 O118 1.320 . S
C121 O119 1.214 . S
O122 Cd114 2.277 . S
O122 C117 1.209 . S
C123 O120 1.258 . S
C123 O125 1.282 . S
O124 Cd116 2.277 . S
O124 C117 1.226 . S
O125 Cd116 2.356 . S
O125 C123 1.282 . S
C126 O127 1.306 . S
C126 O129 1.160 . S
O127 C126 1.306 . S
O127 Cd128 2.228 . S
Cd128 O127 2.228 . S
Cd128 O132 2.273 . S
Cd128 O136 2.277 . S
O129 C126 1.160 . S
O129 Cd130 2.203 . S
Cd130 O129 2.203 . S
Cd130 O132 2.411 . S
Cd130 O133 2.333 . S
Cd130 O134 2.352 . S
Cd130 O138 2.277 . S
Cd130 O139 2.356 . S
C131 O136 1.209 . S
C131 O138 1.226 . S
O132 Cd128 2.273 . S
O132 Cd130 2.411 . S
O132 C135 1.320 . S
O133 Cd130 2.333 . S
O133 C135 1.214 . S
O134 Cd130 2.352 . S
O134 C137 1.258 . S
C135 O132 1.320 . S
C135 O133 1.214 . S
O136 Cd128 2.277 . S
O136 C131 1.209 . S
C137 O134 1.258 . S
C137 O139 1.282 . S
O138 Cd130 2.277 . S
O138 C131 1.226 . S
O139 Cd130 2.356 . S
O139 C137 1.282 . S
C140 O141 1.306 . S
C140 O143 1.160 . S
O141 C140 1.306 . S
O141 Cd142 2.228 . S
Cd142 O141 2.228 . S
Cd142 O146 2.273 . S
Cd142 O150 2.277 . S
O143 C140 1.160 . S
O143 Cd144 2.203 . S
Cd144 O143 2.203 . S
Cd144 O146 2.411 . S
Cd144 O147 2.333 . S
Cd144 O148 2.352 . S
Cd144 O152 2.277 . S
Cd144 O153 2.356 . S
C145 O150 1.209 . S
C145 O152 1.226 . S
O146 Cd142 2.273 . S
O146 Cd144 2.411 . S
O146 C149 1.320 . S
O147 Cd144 2.333 . S
O147 C149 1.214 . S
O148 Cd144 2.352 . S
O148 C151 1.258 . S
C149 O146 1.320 . S
C149 O147 1.214 . S
O150 Cd142 2.277 . S
O150 C145 1.209 . S
C151 O148 1.258 . S
C151 O153 1.282 . S
O152 Cd144 2.277 . S
O152 C145 1.226 . S
O153 Cd144 2.356 . S
O153 C151 1.282 . S
C154 O155 1.306 . S
C154 O157 1.160 . S
O155 C154 1.306 . S
O155 Cd156 2.228 . S
Cd156 O155 2.228 . S
Cd156 O160 2.273 . S
Cd156 O164 2.277 . S
O157 C154 1.160 . S
O157 Cd158 2.203 . S
Cd158 O157 2.203 . S
Cd158 O160 2.411 . S
Cd158 O161 2.333 . S
Cd158 O162 2.352 . S
Cd158 O166 2.277 . S
Cd158 O167 2.356 . S
C159 O164 1.209 . S
C159 O166 1.226 . S
O160 Cd156 2.273 . S
O160 Cd158 2.411 . S
O160 C163 1.320 . S
O161 Cd158 2.333 . S
O161 C163 1.214 . S
O162 Cd158 2.352 . S
O162 C165 1.258 . S
C163 O160 1.320 . S
C163 O161 1.214 . S
O164 Cd156 2.277 . S
O164 C159 1.209 . S
C165 O162 1.258 . S
C165 O167 1.282 . S
O166 Cd158 2.277 . S
O166 C159 1.226 . S
O167 Cd158 2.356 . S
O167 C165 1.282 . S
H168 C176 0.950 . S
H169 C181 0.950 . S
H170 C178 0.950 . S
H171 C180 0.950 . S
H172 C182 0.950 . S
H173 C184 0.950 . S
H174 C186 0.950 . S
H175 C187 0.950 . S
C176 H168 0.950 . S
C176 C177 1.386 . S
C176 C178 1.391 . S
C177 C176 1.386 . S
C177 C181 1.393 . S
C178 H170 0.950 . S
C178 C176 1.391 . S
C178 C179 1.400 . S
C179 C178 1.400 . S
C179 C180 1.398 . S
C179 C185 1.491 . S
C180 H171 0.950 . S
C180 C179 1.398 . S
C180 C181 1.391 . S
C181 H169 0.950 . S
C181 C177 1.393 . S
C181 C180 1.391 . S
C182 H172 0.950 . S
C182 C183 1.386 . S
C182 C184 1.391 . S
C183 C182 1.386 . S
C183 C187 1.393 . S
C184 H173 0.950 . S
C184 C182 1.391 . S
C184 C185 1.400 . S
C185 C179 1.491 . S
C185 C184 1.400 . S
C185 C186 1.398 . S
C186 H174 0.950 . S
C186 C185 1.398 . S
C186 C187 1.391 . S
C187 H175 0.950 . S
C187 C183 1.393 . S
C187 C186 1.391 . S
H188 C196 0.950 . S
H189 C201 0.950 . S
H190 C198 0.950 . S
H191 C200 0.950 . S
H192 C202 0.950 . S
H193 C204 0.950 . S
H194 C206 0.950 . S
H195 C207 0.950 . S
C196 H188 0.950 . S
C196 C197 1.386 . S
C196 C198 1.391 . S
C197 C196 1.386 . S
C197 C201 1.393 . S
C198 H190 0.950 . S
C198 C196 1.391 . S
C198 C199 1.400 . S
C199 C198 1.400 . S
C199 C200 1.398 . S
C199 C205 1.491 . S
C200 H191 0.950 . S
C200 C199 1.398 . S
C200 C201 1.391 . S
C201 H189 0.950 . S
C201 C197 1.393 . S
C201 C200 1.391 . S
C202 H192 0.950 . S
C202 C203 1.386 . S
C202 C204 1.391 . S
C203 C202 1.386 . S
C203 C207 1.393 . S
C204 H193 0.950 . S
C204 C202 1.391 . S
C204 C205 1.400 . S
C205 C199 1.491 . S
C205 C204 1.400 . S
C205 C206 1.398 . S
C206 H194 0.950 . S
C206 C205 1.398 . S
C206 C207 1.391 . S
C207 H195 0.950 . S
C207 C203 1.393 . S
C207 C206 1.391 . S
H208 C216 0.950 . S
H209 C221 0.950 . S
H210 C218 0.950 . S
H211 C220 0.950 . S
H212 C222 0.950 . S
H213 C224 0.950 . S
H214 C226 0.950 . S
H215 C227 0.950 . S
C216 H208 0.950 . S
C216 C217 1.386 . S
C216 C218 1.391 . S
C217 C216 1.386 . S
C217 C221 1.393 . S
C218 H210 0.950 . S
C218 C216 1.391 . S
C218 C219 1.400 . S
C219 C218 1.400 . S
C219 C220 1.398 . S
C219 C225 1.491 . S
C220 H211 0.950 . S
C220 C219 1.398 . S
C220 C221 1.391 . S
C221 H209 0.950 . S
C221 C217 1.393 . S
C221 C220 1.391 . S
C222 H212 0.950 . S
C222 C223 1.386 . S
C222 C224 1.391 . S
C223 C222 1.386 . S
C223 C227 1.393 . S
C224 H213 0.950 . S
C224 C222 1.391 . S
C224 C225 1.400 . S
C225 C219 1.491 . S
C225 C224 1.400 . S
C225 C226 1.398 . S
C226 H214 0.950 . S
C226 C225 1.398 . S
C226 C227 1.391 . S
C227 H215 0.950 . S
C227 C223 1.393 . S
C227 C226 1.391 . S
H228 C236 0.950 . S
H229 C241 0.950 . S
H230 C238 0.950 . S
H231 C240 0.950 . S
H232 C242 0.950 . S
H233 C244 0.950 . S
H234 C246 0.950 . S
H235 C247 0.950 . S
C236 H228 0.950 . S
C236 C237 1.386 . S
C236 C238 1.391 . S
C237 C236 1.386 . S
C237 C241 1.393 . S
C238 H230 0.950 . S
C238 C236 1.391 . S
C238 C239 1.400 . S
C239 C238 1.400 . S
C239 C240 1.398 . S
C239 C245 1.491 . S
C240 H231 0.950 . S
C240 C239 1.398 . S
C240 C241 1.391 . S
C241 H229 0.950 . S
C241 C237 1.393 . S
C241 C240 1.391 . S
C242 H232 0.950 . S
C242 C243 1.386 . S
C242 C244 1.391 . S
C243 C242 1.386 . S
C243 C247 1.393 . S
C244 H233 0.950 . S
C244 C242 1.391 . S
C244 C245 1.400 . S
C245 C239 1.491 . S
C245 C244 1.400 . S
C245 C246 1.398 . S
C246 H234 0.950 . S
C246 C245 1.398 . S
C246 C247 1.391 . S
C247 H235 0.950 . S
C247 C243 1.393 . S
C247 C246 1.391 . S
H248 C256 0.950 . S
H249 C261 0.950 . S
H250 C258 0.950 . S
H251 C260 0.950 . S
H252 C262 0.950 . S
H253 C264 0.950 . S
H254 C266 0.950 . S
H255 C267 0.950 . S
C256 H248 0.950 . S
C256 C257 1.386 . S
C256 C258 1.391 . S
C257 C256 1.386 . S
C257 C261 1.393 . S
C258 H250 0.950 . S
C258 C256 1.391 . S
C258 C259 1.400 . S
C259 C258 1.400 . S
C259 C260 1.398 . S
C259 C265 1.491 . S
C260 H251 0.950 . S
C260 C259 1.398 . S
C260 C261 1.391 . S
C261 H249 0.950 . S
C261 C257 1.393 . S
C261 C260 1.391 . S
C262 H252 0.950 . S
C262 C263 1.386 . S
C262 C264 1.391 . S
C263 C262 1.386 . S
C263 C267 1.393 . S
C264 H253 0.950 . S
C264 C262 1.391 . S
C264 C265 1.400 . S
C265 C259 1.491 . S
C265 C264 1.400 . S
C265 C266 1.398 . S
C266 H254 0.950 . S
C266 C265 1.398 . S
C266 C267 1.391 . S
C267 H255 0.950 . S
C267 C263 1.393 . S
C267 C266 1.391 . S
H268 C276 0.950 . S
H269 C281 0.950 . S
H270 C278 0.950 . S
H271 C280 0.950 . S
H272 C282 0.950 . S
H273 C284 0.950 . S
H274 C286 0.950 . S
H275 C287 0.950 . S
C276 H268 0.950 . S
C276 C277 1.386 . S
C276 C278 1.391 . S
C277 C276 1.386 . S
C277 C281 1.393 . S
C278 H270 0.950 . S
C278 C276 1.391 . S
C278 C279 1.400 . S
C279 C278 1.400 . S
C279 C280 1.398 . S
C279 C285 1.491 . S
C280 H271 0.950 . S
C280 C279 1.398 . S
C280 C281 1.391 . S
C281 H269 0.950 . S
C281 C277 1.393 . S
C281 C280 1.391 . S
C282 H272 0.950 . S
C282 C283 1.386 . S
C282 C284 1.391 . S
C283 C282 1.386 . S
C283 C287 1.393 . S
C284 H273 0.950 . S
C284 C282 1.391 . S
C284 C285 1.400 . S
C285 C279 1.491 . S
C285 C284 1.400 . S
C285 C286 1.398 . S
C286 H274 0.950 . S
C286 C285 1.398 . S
C286 C287 1.391 . S
C287 H275 0.950 . S
C287 C283 1.393 . S
C287 C286 1.391 . S
H288 C296 0.950 . S
H289 C301 0.950 . S
H290 C298 0.950 . S
H291 C300 0.950 . S
H292 C302 0.950 . S
H293 C304 0.950 . S
H294 C306 0.950 . S
H295 C307 0.950 . S
C296 H288 0.950 . S
C296 C297 1.386 . S
C296 C298 1.391 . S
C297 C296 1.386 . S
C297 C301 1.393 . S
C298 H290 0.950 . S
C298 C296 1.391 . S
C298 C299 1.400 . S
C299 C298 1.400 . S
C299 C300 1.398 . S
C299 C305 1.491 . S
C300 H291 0.950 . S
C300 C299 1.398 . S
C300 C301 1.391 . S
C301 H289 0.950 . S
C301 C297 1.393 . S
C301 C300 1.391 . S
C302 H292 0.950 . S
C302 C303 1.386 . S
C302 C304 1.391 . S
C303 C302 1.386 . S
C303 C307 1.393 . S
C304 H293 0.950 . S
C304 C302 1.391 . S
C304 C305 1.400 . S
C305 C299 1.491 . S
C305 C304 1.400 . S
C305 C306 1.398 . S
C306 H294 0.950 . S
C306 C305 1.398 . S
C306 C307 1.391 . S
C307 H295 0.950 . S
C307 C303 1.393 . S
C307 C306 1.391 . S
H308 C316 0.950 . S
H309 C321 0.950 . S
H310 C318 0.950 . S
H311 C320 0.950 . S
H312 C322 0.950 . S
H313 C324 0.950 . S
H314 C326 0.950 . S
H315 C327 0.950 . S
C316 H308 0.950 . S
C316 C317 1.386 . S
C316 C318 1.391 . S
C317 C316 1.386 . S
C317 C321 1.393 . S
C318 H310 0.950 . S
C318 C316 1.391 . S
C318 C319 1.400 . S
C319 C318 1.400 . S
C319 C320 1.398 . S
C319 C325 1.491 . S
C320 H311 0.950 . S
C320 C319 1.398 . S
C320 C321 1.391 . S
C321 H309 0.950 . S
C321 C317 1.393 . S
C321 C320 1.391 . S
C322 H312 0.950 . S
C322 C323 1.386 . S
C322 C324 1.391 . S
C323 C322 1.386 . S
C323 C327 1.393 . S
C324 H313 0.950 . S
C324 C322 1.391 . S
C324 C325 1.400 . S
C325 C319 1.491 . S
C325 C324 1.400 . S
C325 C326 1.398 . S
C326 H314 0.950 . S
C326 C325 1.398 . S
C326 C327 1.391 . S
C327 H315 0.950 . S
C327 C323 1.393 . S
C327 C326 1.391 . S
H328 C336 0.950 . S
H329 C341 0.933 1_554 S
H330 C338 0.950 . S
H331 C340 0.950 . S
H332 C342 0.950 . S
H333 C344 0.950 . S
H334 C346 0.950 . S
H335 C347 0.950 . S
C336 H328 0.950 . S
C336 C337 1.386 . S
C336 C338 1.391 . S
C337 C336 1.386 . S
C337 C341 1.393 . S
C338 H330 0.950 . S
C338 C336 1.391 . S
C338 C339 1.400 . S
C339 C338 1.400 . S
C339 C340 1.398 . S
C339 C345 1.491 . S
C340 H331 0.950 . S
C340 C339 1.398 . S
C340 C341 1.391 . S
C341 H329 0.933 1_556 S
C341 C337 1.393 . S
C341 C340 1.391 . S
C342 H332 0.950 . S
C342 C343 1.386 . S
C342 C344 1.391 . S
C343 C342 1.386 . S
C343 C347 1.393 . S
C344 H333 0.950 . S
C344 C342 1.391 . S
C344 C345 1.400 . S
C345 C339 1.491 . S
C345 C344 1.400 . S
C345 C346 1.398 . S
C346 H334 0.950 . S
C346 C345 1.398 . S
C346 C347 1.391 . S
C347 H335 0.950 . S
C347 C343 1.393 . S
C347 C346 1.391 . S
H348 C356 0.950 . S
H349 C361 0.950 . S
H350 C358 0.950 . S
H351 C360 0.950 . S
H352 C362 0.950 . S
H353 C364 0.950 . S
H354 C366 0.950 . S
H355 C367 0.951 1_556 S
C356 H348 0.950 . S
C356 C357 1.386 . S
C356 C358 1.391 . S
C357 C356 1.386 . S
C357 C361 1.393 . S
C358 H350 0.950 . S
C358 C356 1.391 . S
C358 C359 1.400 . S
C359 C358 1.400 . S
C359 C360 1.398 . S
C359 C365 1.491 . S
C360 H351 0.950 . S
C360 C359 1.398 . S
C360 C361 1.391 . S
C361 H349 0.950 . S
C361 C357 1.393 . S
C361 C360 1.391 . S
C362 H352 0.950 . S
C362 C363 1.386 . S
C362 C364 1.391 . S
C363 C362 1.386 . S
C363 C367 1.393 . S
C364 H353 0.950 . S
C364 C362 1.391 . S
C364 C365 1.400 . S
C365 C359 1.491 . S
C365 C364 1.400 . S
C365 C366 1.398 . S
C366 H354 0.950 . S
C366 C365 1.398 . S
C366 C367 1.391 . S
C367 H355 0.951 1_554 S
C367 C363 1.393 . S
C367 C366 1.391 . S
H368 C376 0.950 . S
H369 C381 0.950 . S
H370 C378 0.950 . S
H371 C380 0.950 . S
H372 C382 0.950 . S
H373 C384 0.950 . S
H374 C386 0.950 . S
H375 C387 0.950 . S
C376 H368 0.950 . S
C376 C377 1.386 . S
C376 C378 1.391 . S
C377 C376 1.386 . S
C377 C381 1.393 . S
C378 H370 0.950 . S
C378 C376 1.391 . S
C378 C379 1.400 . S
C379 C378 1.400 . S
C379 C380 1.398 . S
C379 C385 1.491 . S
C380 H371 0.950 . S
C380 C379 1.398 . S
C380 C381 1.391 . S
C381 H369 0.950 . S
C381 C377 1.393 . S
C381 C380 1.391 . S
C382 H372 0.950 . S
C382 C383 1.386 . S
C382 C384 1.391 . S
C383 C382 1.386 . S
C383 C387 1.393 . S
C384 H373 0.950 . S
C384 C382 1.391 . S
C384 C385 1.400 . S
C385 C379 1.491 . S
C385 C384 1.400 . S
C385 C386 1.398 . S
C386 H374 0.950 . S
C386 C385 1.398 . S
C386 C387 1.391 . S
C387 H375 0.950 . S
C387 C383 1.393 . S
C387 C386 1.391 . S
H388 C396 0.950 . S
H389 C401 0.950 . S
H390 C398 0.950 . S
H391 C400 0.950 . S
H392 C402 0.950 . S
H393 C404 0.950 . S
H394 C406 0.950 . S
H395 C407 0.950 . S
C396 H388 0.950 . S
C396 C397 1.386 . S
C396 C398 1.391 . S
C397 C396 1.386 . S
C397 C401 1.393 . S
C398 H390 0.950 . S
C398 C396 1.391 . S
C398 C399 1.400 . S
C399 C398 1.400 . S
C399 C400 1.398 . S
C399 C405 1.491 . S
C400 H391 0.950 . S
C400 C399 1.398 . S
C400 C401 1.391 . S
C401 H389 0.950 . S
C401 C397 1.393 . S
C401 C400 1.391 . S
C402 H392 0.950 . S
C402 C403 1.386 . S
C402 C404 1.391 . S
C403 C402 1.386 . S
C403 C407 1.393 . S
C404 H393 0.950 . S
C404 C402 1.391 . S
C404 C405 1.400 . S
C405 C399 1.491 . S
C405 C404 1.400 . S
C405 C406 1.398 . S
C406 H394 0.950 . S
C406 C405 1.398 . S
C406 C407 1.391 . S
C407 H395 0.950 . S
C407 C403 1.393 . S
C407 C406 1.391 . S
H408 C416 0.950 . S
H409 C421 0.950 . S
H410 C418 0.950 . S
H411 C420 0.950 . S
H412 C422 0.950 . S
H413 C424 0.950 . S
H414 C426 0.950 . S
H415 C427 0.950 . S
C416 H408 0.950 . S
C416 C417 1.386 . S
C416 C418 1.391 . S
C417 C416 1.386 . S
C417 C421 1.393 . S
C418 H410 0.950 . S
C418 C416 1.391 . S
C418 C419 1.400 . S
C419 C418 1.400 . S
C419 C420 1.398 . S
C419 C425 1.491 1_655 S
C420 H411 0.950 . S
C420 C419 1.398 . S
C420 C421 1.391 . S
C421 H409 0.950 . S
C421 C417 1.393 . S
C421 C420 1.391 . S
C422 H412 0.950 . S
C422 C423 1.386 . S
C422 C424 1.391 . S
C423 C422 1.386 . S
C423 C427 1.393 . S
C424 H413 0.950 . S
C424 C422 1.391 . S
C424 C425 1.400 . S
C425 C419 1.491 1_455 S
C425 C424 1.400 . S
C425 C426 1.398 . S
C426 H414 0.950 . S
C426 C425 1.398 . S
C426 C427 1.391 . S
C427 H415 0.950 . S
C427 C423 1.393 . S
C427 C426 1.391 . S
H428 C436 0.950 . S
H429 C441 0.950 . S
H430 C438 0.950 . S
H431 C440 0.950 . S
H432 C442 0.950 . S
H433 C444 0.950 . S
H434 C446 0.950 . S
H435 C447 0.950 . S
C436 H428 0.950 . S
C436 C437 1.386 . S
C436 C438 1.391 . S
C437 C436 1.386 . S
C437 C441 1.393 . S
C438 H430 0.950 . S
C438 C436 1.391 . S
C438 C439 1.400 . S
C439 C438 1.400 . S
C439 C440 1.398 . S
C439 C445 1.491 1_565 S
C440 H431 0.950 . S
C440 C439 1.398 . S
C440 C441 1.391 . S
C441 H429 0.950 . S
C441 C437 1.393 . S
C441 C440 1.391 . S
C442 H432 0.950 . S
C442 C443 1.386 . S
C442 C444 1.391 . S
C443 C442 1.386 . S
C443 C447 1.393 . S
C444 H433 0.950 . S
C444 C442 1.391 . S
C444 C445 1.400 . S
C445 C439 1.491 1_545 S
C445 C444 1.400 . S
C445 C446 1.398 . S
C446 H434 0.950 . S
C446 C445 1.398 . S
C446 C447 1.391 . S
C447 H435 0.950 . S
C447 C443 1.393 . S
C447 C446 1.391 . S
H448 C456 0.950 . S
H449 C461 0.950 . S
H450 C458 0.950 . S
H451 C460 0.950 . S
H452 C462 0.950 . S
H453 C464 0.950 . S
H454 C466 0.950 . S
H455 C467 0.950 . S
C456 H448 0.950 . S
C456 C457 1.386 . S
C456 C458 1.391 . S
C457 C456 1.386 . S
C457 C461 1.393 . S
C458 H450 0.950 . S
C458 C456 1.391 . S
C458 C459 1.400 . S
C459 C458 1.400 . S
C459 C460 1.398 . S
C459 C465 1.491 . S
C460 H451 0.950 . S
C460 C459 1.398 . S
C460 C461 1.391 . S
C461 H449 0.950 . S
C461 C457 1.393 . S
C461 C460 1.391 . S
C462 H452 0.950 . S
C462 C463 1.386 . S
C462 C464 1.391 . S
C463 C462 1.386 . S
C463 C467 1.393 . S
C464 H453 0.950 . S
C464 C462 1.391 . S
C464 C465 1.400 . S
C465 C459 1.491 . S
C465 C464 1.400 . S
C465 C466 1.398 . S
C466 H454 0.950 . S
C466 C465 1.398 . S
C466 C467 1.391 . S
C467 H455 0.950 . S
C467 C463 1.393 . S
C467 C466 1.391 . S
H468 C476 0.950 . S
H469 C481 0.950 . S
H470 C478 0.950 . S
H471 C480 0.950 . S
H472 C482 0.950 . S
H473 C484 0.950 . S
H474 C486 0.950 . S
H475 C487 0.950 . S
C476 H468 0.950 . S
C476 C477 1.386 . S
C476 C478 1.391 . S
C477 C476 1.386 . S
C477 C481 1.393 . S
C478 H470 0.950 . S
C478 C476 1.391 . S
C478 C479 1.400 . S
C479 C478 1.400 . S
C479 C480 1.398 . S
C479 C485 1.491 1_455 S
C480 H471 0.950 . S
C480 C479 1.398 . S
C480 C481 1.391 . S
C481 H469 0.950 . S
C481 C477 1.393 . S
C481 C480 1.391 . S
C482 H472 0.950 . S
C482 C483 1.386 . S
C482 C484 1.391 . S
C483 C482 1.386 . S
C483 C487 1.393 . S
C484 H473 0.950 . S
C484 C482 1.391 . S
C484 C485 1.400 . S
C485 C479 1.491 1_655 S
C485 C484 1.400 . S
C485 C486 1.398 . S
C486 H474 0.950 . S
C486 C485 1.398 . S
C486 C487 1.391 . S
C487 H475 0.950 . S
C487 C483 1.393 . S
C487 C486 1.391 . S
H488 C496 0.950 . S
H489 C501 0.950 . S
H490 C498 0.950 . S
H491 C500 0.950 . S
H492 C502 0.950 . S
H493 C504 0.950 . S
H494 C506 0.950 . S
H495 C507 0.950 . S
C496 H488 0.950 . S
C496 C497 1.386 . S
C496 C498 1.391 . S
C497 C496 1.386 . S
C497 C501 1.393 1_556 S
C498 H490 0.950 . S
C498 C496 1.391 . S
C498 C499 1.400 . S
C499 C498 1.400 . S
C499 C500 1.398 1_556 S
C499 C505 1.491 1_546 S
C500 H491 0.950 . S
C500 C499 1.398 1_554 S
C500 C501 1.391 . S
C501 H489 0.950 . S
C501 C497 1.393 1_554 S
C501 C500 1.391 . S
C502 H492 0.950 . S
C502 C503 1.386 . S
C502 C504 1.391 . S
C503 C502 1.386 . S
C503 C507 1.393 1_554 S
C504 H493 0.950 . S
C504 C502 1.391 . S
C504 C505 1.400 . S
C505 C499 1.491 1_564 S
C505 C504 1.400 . S
C505 C506 1.398 1_554 S
C506 H494 0.950 . S
C506 C505 1.398 1_556 S
C506 C507 1.391 . S
C507 H495 0.950 . S
C507 C503 1.393 1_556 S
C507 C506 1.391 . S
H508 C516 0.950 . S
H509 C521 0.950 . S
H510 C518 0.950 . S
H511 C520 0.950 . S
H512 C522 0.950 . S
H513 C524 0.950 . S
H514 C526 0.950 . S
H515 C527 0.950 . S
C516 H508 0.950 . S
C516 C517 1.386 . S
C516 C518 1.391 . S
C517 C516 1.386 . S
C517 C521 1.393 . S
C518 H510 0.950 . S
C518 C516 1.391 . S
C518 C519 1.400 . S
C519 C518 1.400 . S
C519 C520 1.398 . S
C519 C525 1.491 . S
C520 H511 0.950 . S
C520 C519 1.398 . S
C520 C521 1.391 . S
C521 H509 0.950 . S
C521 C517 1.393 . S
C521 C520 1.391 . S
C522 H512 0.950 . S
C522 C523 1.386 . S
C522 C524 1.391 . S
C523 C522 1.386 . S
C523 C527 1.393 . S
C524 H513 0.950 . S
C524 C522 1.391 . S
C524 C525 1.400 . S
C525 C519 1.491 . S
C525 C524 1.400 . S
C525 C526 1.398 . S
C526 H514 0.950 . S
C526 C525 1.398 . S
C526 C527 1.391 . S
C527 H515 0.950 . S
C527 C523 1.393 . S
C527 C526 1.391 . S
H528 C536 0.950 . S
H529 C541 0.950 . S
H530 C538 0.950 . S
H531 C540 0.950 . S
H532 C542 0.950 . S
H533 C544 0.950 . S
H534 C546 0.950 . S
H535 C547 0.950 . S
C536 H528 0.950 . S
C536 C537 1.386 . S
C536 C538 1.391 . S
C537 C536 1.386 . S
C537 C541 1.393 . S
C538 H530 0.950 . S
C538 C536 1.391 . S
C538 C539 1.400 . S
C539 C538 1.400 . S
C539 C540 1.398 . S
C539 C545 1.491 . S
C540 H531 0.950 . S
C540 C539 1.398 . S
C540 C541 1.391 . S
C541 H529 0.950 . S
C541 C537 1.393 . S
C541 C540 1.391 . S
C542 H532 0.950 . S
C542 C543 1.386 . S
C542 C544 1.391 . S
C543 C542 1.386 . S
C543 C547 1.393 . S
C544 H533 0.950 . S
C544 C542 1.391 . S
C544 C545 1.400 . S
C545 C539 1.491 . S
C545 C544 1.400 . S
C545 C546 1.398 . S
C546 H534 0.950 . S
C546 C545 1.398 . S
C546 C547 1.391 . S
C547 H535 0.950 . S
C547 C543 1.393 . S
C547 C546 1.391 . S
H548 C556 0.950 . S
H549 C561 0.950 . S
H550 C558 0.950 . S
H551 C560 0.950 . S
H552 C562 0.950 . S
H553 C564 0.950 . S
H554 C566 0.950 . S
H555 C567 0.950 . S
C556 H548 0.950 . S
C556 C557 1.386 . S
C556 C558 1.391 . S
C557 C556 1.386 . S
C557 C561 1.393 . S
C558 H550 0.950 . S
C558 C556 1.391 . S
C558 C559 1.400 . S
C559 C558 1.400 . S
C559 C560 1.398 . S
C559 C565 1.491 . S
C560 H551 0.950 . S
C560 C559 1.398 . S
C560 C561 1.391 . S
C561 H549 0.950 . S
C561 C557 1.393 . S
C561 C560 1.391 . S
C562 H552 0.950 . S
C562 C563 1.386 . S
C562 C564 1.391 . S
C563 C562 1.386 . S
C563 C567 1.393 . S
C564 H553 0.950 . S
C564 C562 1.391 . S
C564 C565 1.400 . S
C565 C559 1.491 . S
C565 C564 1.400 . S
C565 C566 1.398 . S
C566 H554 0.950 . S
C566 C565 1.398 . S
C566 C567 1.391 . S
C567 H555 0.950 . S
C567 C563 1.393 . S
C567 C566 1.391 . S
H568 C576 0.950 . S
H569 C581 0.950 . S
H570 C578 0.950 . S
H571 C580 0.950 . S
H572 C582 0.950 . S
H573 C584 0.950 . S
H574 C586 0.950 . S
H575 C587 0.950 . S
C576 H568 0.950 . S
C576 C577 1.386 . S
C576 C578 1.391 . S
C577 C576 1.386 . S
C577 C581 1.393 . S
C578 H570 0.950 . S
C578 C576 1.391 . S
C578 C579 1.400 . S
C579 C578 1.400 . S
C579 C580 1.398 . S
C579 C585 1.491 . S
C580 H571 0.950 . S
C580 C579 1.398 . S
C580 C581 1.391 . S
C581 H569 0.950 . S
C581 C577 1.393 . S
C581 C580 1.391 . S
C582 H572 0.950 . S
C582 C583 1.386 . S
C582 C584 1.391 . S
C583 C582 1.386 . S
C583 C587 1.393 . S
C584 H573 0.950 . S
C584 C582 1.391 . S
C584 C585 1.400 . S
C585 C579 1.491 . S
C585 C584 1.400 . S
C585 C586 1.398 . S
C586 H574 0.950 . S
C586 C585 1.398 . S
C586 C587 1.391 . S
C587 H575 0.950 . S
C587 C583 1.393 . S
C587 C586 1.391 . S
H588 C596 0.950 . S
H589 C601 0.950 . S
H590 C598 0.950 . S
H591 C600 0.950 . S
H592 C602 0.950 . S
H593 C604 0.950 . S
H594 C606 0.950 . S
H595 C607 0.950 . S
C596 H588 0.950 . S
C596 C597 1.386 . S
C596 C598 1.391 . S
C597 C596 1.386 . S
C597 C601 1.393 . S
C598 H590 0.950 . S
C598 C596 1.391 . S
C598 C599 1.400 . S
C599 C598 1.400 . S
C599 C600 1.398 . S
C599 C605 1.491 . S
C600 H591 0.950 . S
C600 C599 1.398 . S
C600 C601 1.391 . S
C601 H589 0.950 . S
C601 C597 1.393 . S
C601 C600 1.391 . S
C602 H592 0.950 . S
C602 C603 1.386 . S
C602 C604 1.391 . S
C603 C602 1.386 . S
C603 C607 1.393 . S
C604 H593 0.950 . S
C604 C602 1.391 . S
C604 C605 1.400 . S
C605 C599 1.491 . S
C605 C604 1.400 . S
C605 C606 1.398 . S
C606 H594 0.950 . S
C606 C605 1.398 . S
C606 C607 1.391 . S
C607 H595 0.950 . S
C607 C603 1.393 . S
C607 C606 1.391 . S
H608 C616 0.950 1_554 S
H609 C621 0.950 . S
H610 C618 0.950 . S
H611 C620 0.950 . S
H612 C622 0.950 . S
H613 C624 0.950 . S
H614 C626 0.950 . S
H615 C627 0.950 . S
C616 H608 0.950 1_556 S
C616 C617 1.386 . S
C616 C618 1.391 . S
C617 C616 1.386 . S
C617 C621 1.393 . S
C618 H610 0.950 . S
C618 C616 1.391 . S
C618 C619 1.400 . S
C619 C618 1.400 . S
C619 C620 1.398 . S
C619 C625 1.491 . S
C620 H611 0.950 . S
C620 C619 1.398 . S
C620 C621 1.391 . S
C621 H609 0.950 . S
C621 C617 1.393 . S
C621 C620 1.391 . S
C622 H612 0.950 . S
C622 C623 1.386 . S
C622 C624 1.391 . S
C623 C622 1.386 . S
C623 C627 1.393 . S
C624 H613 0.950 . S
C624 C622 1.391 . S
C624 C625 1.400 . S
C625 C619 1.491 . S
C625 C624 1.400 . S
C625 C626 1.398 . S
C626 H614 0.950 . S
C626 C625 1.398 . S
C626 C627 1.391 . S
C627 H615 0.950 . S
C627 C623 1.393 . S
C627 C626 1.391 . S
H628 C636 0.950 . S
H629 C641 0.950 . S
H630 C638 0.950 . S
H631 C640 0.950 . S
H632 C642 0.950 . S
H633 C644 0.950 . S
H634 C646 0.950 . S
H635 C647 0.950 1_556 S
C636 H628 0.950 . S
C636 C637 1.386 . S
C636 C638 1.391 . S
C637 C636 1.386 . S
C637 C641 1.393 . S
C638 H630 0.950 . S
C638 C636 1.391 . S
C638 C639 1.400 . S
C639 C638 1.400 . S
C639 C640 1.398 . S
C639 C645 1.491 . S
C640 H631 0.950 . S
C640 C639 1.398 . S
C640 C641 1.391 . S
C641 H629 0.950 . S
C641 C637 1.393 . S
C641 C640 1.391 . S
C642 H632 0.950 . S
C642 C643 1.386 . S
C642 C644 1.391 . S
C643 C642 1.386 . S
C643 C647 1.393 . S
C644 H633 0.950 . S
C644 C642 1.391 . S
C644 C645 1.400 . S
C645 C639 1.491 . S
C645 C644 1.400 . S
C645 C646 1.398 . S
C646 H634 0.950 . S
C646 C645 1.398 . S
C646 C647 1.391 . S
C647 H635 0.950 1_554 S
C647 C643 1.393 . S
C647 C646 1.391 . S
C177 C5 0.755 . S
C183 C89 0.743 . S
C197 C19 0.758 . S
C203 C103 0.770 . S
C217 C117 0.760 . S
C223 C33 0.742 . S
C237 C47 0.771 . S
C243 C131 0.753 . S
C257 C61 0.768 . S
C263 C145 0.763 . S
C277 C159 0.762 . S
C283 C75 0.742 . S
C297 C121 1.437 . S
C303 C9 1.436 . S
C317 C23 1.459 . S
C323 C135 1.459 . S
C337 C149 1.458 1_556 S
C343 C37 1.459 . S
C357 C163 1.459 . S
C363 C51 1.459 1_554 S
C377 C65 1.427 . S
C383 C93 1.427 . S
C397 C79 1.435 . S
C403 C107 1.434 . S
C417 C165 1.343 . S
C423 C11 1.341 . S
C437 C95 1.342 . S
C443 C25 1.342 . S
C457 C39 1.342 . S
C463 C109 1.342 . S
C477 C123 1.343 . S
C483 C53 1.340 . S
C497 C137 1.341 . S
C503 C67 1.343 . S
C517 C151 1.340 . S
C523 C81 1.342 . S
C537 C0 1.517 . S
C543 C140 1.506 . S
C557 C154 1.503 . S
C563 C14 1.518 . S
C577 C28 1.519 . S
C583 C84 1.503 . S
C597 C42 1.509 . S
C603 C98 1.512 . S
C617 C56 1.520 1_556 S
C623 C112 1.502 . S
C637 C70 1.501 . S
C643 C126 1.521 1_554 S
