# Generated by pormake.
# Topology sxa, (6)-cn, num edge types: 1
# Building blocks:
#     Node 0, Type 0, BuildingBlock: OJICUG_clean_sbu_0, # of connection points: 6
#     Node 1, Type 0, BuildingBlock: OJICUG_clean_sbu_0, # of connection points: 6
#     Node 2, Type 0, BuildingBlock: OJICUG_clean_sbu_0, # of connection points: 6
#     Node 3, Type 0, BuildingBlock: OJICUG_clean_sbu_0, # of connection points: 6
#     Edge 4, Type (0, 0), BuildingBlock: ZUJKAS_clean_linker_0, # of connection points: 2
#     Edge 5, Type (0, 0), BuildingBlock: ZUJKAS_clean_linker_0, # of connection points: 2
#     Edge 6, Type (0, 0), BuildingBlock: ZUJKAS_clean_linker_0, # of connection points: 2
#     Edge 7, Type (0, 0), BuildingBlock: ZUJKAS_clean_linker_0, # of connection points: 2
#     Edge 8, Type (0, 0), BuildingBlock: ZUJKAS_clean_linker_0, # of connection points: 2
#     Edge 9, Type (0, 0), BuildingBlock: ZUJKAS_clean_linker_0, # of connection points: 2
#     Edge 10, Type (0, 0), BuildingBlock: ZUJKAS_clean_linker_0, # of connection points: 2
#     Edge 11, Type (0, 0), BuildingBlock: ZUJKAS_clean_linker_0, # of connection points: 2
#     Edge 12, Type (0, 0), BuildingBlock: ZUJKAS_clean_linker_0, # of connection points: 2
#     Edge 13, Type (0, 0), BuildingBlock: ZUJKAS_clean_linker_0, # of connection points: 2
#     Edge 14, Type (0, 0), BuildingBlock: ZUJKAS_clean_linker_0, # of connection points: 2
#     Edge 15, Type (0, 0), BuildingBlock: ZUJKAS_clean_linker_0, # of connection points: 2
# Relax obj value: 0.172
# Max RMSD: 0.251
# Mean RMSD: 0.251
data_MOF--net-sxa--node1-OJICUG_clean_sbu_0--edge1-ZUJKAS_clean_linker_0
_symmetry_space_group_name_H-M    P1
_symmetry_Int_Tables_number       1
_symmetry_cell_setting            triclinic
loop_
_symmetry_equiv_pos_as_xyz
'x, y, z'
_cell_length_a     32.201298
_cell_length_b     37.877202
_cell_length_c     22.742779
_cell_angle_alpha  89.878369
_cell_angle_beta   89.996705
_cell_angle_gamma 111.80013
loop_
_atom_site_label
_atom_site_type_symbol
_atom_site_fract_x
_atom_site_fract_y
_atom_site_fract_z
_atom_type_partial_charge
Sc0 Sc -0.00318 0.76596 0.14012 0.0
Sc1 Sc 0.02747 0.81495 0.27321 0.0
Sc2 Sc 0.96476 0.71809 0.27405 0.0
O3 O -0.00352 0.76634 0.2287 0.0
C4 C 0.89615 0.71555 0.17384 0.0
C5 C 0.99133 0.84634 0.16099 0.0
C6 C 0.9413 0.77925 0.34887 0.0
C7 C 0.09704 0.81787 0.17401 0.0
C8 C 0.00063 0.68538 0.16314 0.0
C9 C 0.0509 0.75388 0.34956 0.0
O10 O 0.92725 0.73081 0.13669 0.0
O11 O 0.01161 0.8507 0.20997 0.0
O12 O 0.94399 0.74677 0.34326 0.0
O13 O 0.06638 0.8011 0.13713 0.0
O14 O 0.97965 0.68151 0.21154 0.0
O15 O 0.04864 0.78648 0.34268 0.0
O16 O 0.01475 0.71661 0.135 0.0
O17 O 0.08955 0.82265 0.22794 0.0
O18 O 0.02586 0.72464 0.32129 0.0
O19 O 0.97885 0.81521 0.13285 0.0
O20 O 0.90316 0.71147 0.22823 0.0
O21 O 0.96617 0.80824 0.31988 0.0
Sc22 Sc 0.49814 0.26835 0.13892 0.0
Sc23 Sc 0.52853 0.31533 0.27364 0.0
Sc24 Sc 0.46727 0.2182 0.27148 0.0
O25 O 0.49785 0.26728 0.22757 0.0
C26 C 0.39797 0.21537 0.17156 0.0
C27 C 0.49305 0.34844 0.16262 0.0
C28 C 0.4417 0.27801 0.34779 0.0
C29 C 0.5983 0.31921 0.1741 0.0
C30 C 0.5049 0.1882 0.15938 0.0
C31 C 0.55264 0.25434 0.34849 0.0
O32 O 0.42868 0.23299 0.13509 0.0
O33 O 0.5134 0.35203 0.21142 0.0
O34 O 0.44457 0.24566 0.3406 0.0
O35 O 0.56764 0.30378 0.13655 0.0
O36 O 0.48469 0.1834 0.20849 0.0
O37 O 0.54948 0.28665 0.34284 0.0
O38 O 0.51657 0.21936 0.13116 0.0
O39 O 0.59068 0.32304 0.22835 0.0
O40 O 0.52835 0.22538 0.31917 0.0
O41 O 0.47985 0.31752 0.13387 0.0
O42 O 0.40534 0.20991 0.22532 0.0
O43 O 0.46686 0.30768 0.32034 0.0
Sc44 Sc 0.99441 0.2656 0.89013 0.0
Sc45 Sc 0.96597 0.2185 0.75517 0.0
Sc46 Sc 0.02739 0.31558 0.758 0.0
O47 O 0.99592 0.26654 0.80153 0.0
C48 C 0.98896 0.34593 0.86905 0.0
C49 C 0.89487 0.21401 0.85326 0.0
C50 C 0.94245 0.27989 0.68018 0.0
C51 C 0.00082 0.1858 0.86717 0.0
C52 C 0.09518 0.3177 0.85924 0.0
C53 C 0.05321 0.25598 0.6819 0.0
O54 O 0.97566 0.31448 0.8966 0.0
O55 O 0.90319 0.21008 0.79931 0.0
O56 O 0.96672 0.30882 0.70964 0.0
O57 O 0.01288 0.21659 0.89617 0.0
O58 O 0.08864 0.32279 0.80504 0.0
O59 O 0.02805 0.22635 0.70937 0.0
O60 O 0.06381 0.30109 0.89542 0.0
O61 O 0.98118 0.18201 0.81778 0.0
O62 O 0.05011 0.28824 0.6888 0.0
O63 O 0.92498 0.23002 0.89121 0.0
O64 O 0.01039 0.35072 0.82089 0.0
O65 O 0.94538 0.24747 0.68592 0.0
Sc66 Sc 0.50048 0.76895 0.88864 0.0
Sc67 Sc 0.4664 0.71916 0.7568 0.0
Sc68 Sc 0.52825 0.81626 0.75336 0.0
O69 O 0.49831 0.76815 0.80004 0.0
C70 C 0.49463 0.84912 0.86603 0.0
C71 C 0.39942 0.71676 0.85923 0.0
C72 C 0.44065 0.77915 0.68091 0.0
C73 C 0.50524 0.68838 0.86718 0.0
C74 C 0.59991 0.82032 0.85049 0.0
C75 C 0.55101 0.75482 0.67805 0.0
O76 O 0.48276 0.81834 0.89526 0.0
O77 O 0.40548 0.71162 0.80494 0.0
O78 O 0.46606 0.8087 0.70812 0.0
O79 O 0.5186 0.71969 0.89489 0.0
O80 O 0.59127 0.82452 0.79674 0.0
O81 O 0.52665 0.72589 0.70761 0.0
O82 O 0.57005 0.80408 0.88874 0.0
O83 O 0.48382 0.68386 0.81911 0.0
O84 O 0.54836 0.78732 0.68384 0.0
O85 O 0.43104 0.73383 0.89472 0.0
O86 O 0.51359 0.85279 0.81615 0.0
O87 O 0.44322 0.74671 0.68814 0.0
H88 H 0.01623 0.41874 0.8264 0.0
H89 H 0.01651 0.47534 0.87773 0.0
H90 H 0.94949 0.40631 0.02564 0.0
H91 H 0.94935 0.34934 0.97496 0.0
H92 H 0.94732 0.49532 0.92584 0.0
H93 H 0.06468 0.48424 0.09763 0.0
H94 H 0.05485 0.45737 0.03015 0.0
H95 H 0.01469 0.44266 0.08887 0.0
C96 C 0.00109 0.41538 0.86961 0.0
C97 C 0.9833 0.37939 0.89677 0.0
C98 C 0.00134 0.44786 0.8989 0.0
C99 C 0.98397 0.44514 0.95599 0.0
C100 C 0.96403 0.40913 0.98211 0.0
H101 H 0.97261 0.61299 0.20788 0.0
H102 H 0.96993 0.55531 0.15753 0.0
C103 C 0.96372 0.37655 0.95284 0.0
C104 C 0.98798 0.48019 0.98854 0.0
H105 H 0.03684 0.53347 0.1087 0.0
C106 C 0.96691 0.50371 0.96578 0.0
C107 C 0.01371 0.49112 0.04054 0.0
C108 C 0.03864 0.46777 0.06565 0.0
C109 C 0.9703 0.5376 0.99413 0.0
C110 C 0.99621 0.54862 0.04599 0.0
C111 C 0.01713 0.52502 0.06887 0.0
C112 C 0.00118 0.58418 0.07773 0.0
C113 C 0.94534 0.56091 0.96899 0.0
C114 C 0.02115 0.61978 0.05037 0.0
C115 C 0.02284 0.65294 0.07905 0.0
C116 C 0.00469 0.65116 0.13583 0.0
C117 C 0.98673 0.61555 0.16412 0.0
C118 C 0.98509 0.58245 0.13539 0.0
H119 H 0.91862 0.54411 0.93809 0.0
H120 H 0.92999 0.57209 1.00452 0.0
H121 H 0.96909 0.58548 0.94446 0.0
H122 H 0.03474 0.62185 1.00637 0.0
H123 H 0.03718 0.67981 0.05597 0.0
H124 H 0.45909 0.35498 0.05404 0.0
H125 H 0.46196 0.41336 1.00496 0.0
H126 H 0.52006 0.47793 0.16017 0.0
H127 H 0.51789 0.41996 0.20948 0.0
H128 H 0.42611 0.46837 0.03399 0.0
H129 H 0.61181 0.53043 0.03179 0.0
H130 H 0.58061 0.48097 0.04825 0.0
H131 H 0.58745 0.51668 0.10331 0.0
C132 C 0.47208 0.3815 0.07808 0.0
C133 C 0.48876 0.3827 0.1356 0.0
C134 C 0.47378 0.41488 0.04984 0.0
C135 C 0.49227 0.4501 0.0784 0.0
C136 C 0.50673 0.45118 0.13677 0.0
H137 H 0.54129 0.68348 0.97512 0.0
H138 H 0.53935 0.62574 0.02553 0.0
C139 C 0.50512 0.41788 0.16505 0.0
C140 C 0.49711 0.48575 0.04678 0.0
H141 H 0.57447 0.57015 0.99869 0.0
C142 C 0.45852 0.49058 0.02608 0.0
C143 C 0.53949 0.5147 0.03656 0.0
C144 C 0.58228 0.51044 0.05563 0.0
C145 C 0.46107 0.52385 0.99628 0.0
C146 C 0.50347 0.55274 0.98583 0.0
C147 C 0.54205 0.54797 1.0067 0.0
C148 C 0.50827 0.58809 0.95333 0.0
C149 C 0.41824 0.52809 0.97736 0.0
C150 C 0.49324 0.58631 0.89513 0.0
C151 C 0.49424 0.6192 0.86617 0.0
C152 C 0.5106 0.65469 0.89471 0.0
C153 C 0.52815 0.65667 0.95187 0.0
C154 C 0.52702 0.62367 0.98085 0.0
H155 H 0.38887 0.5085 1.00195 0.0
H156 H 0.42013 0.5577 0.98389 0.0
H157 H 0.41259 0.52122 0.92991 0.0
H158 H 0.47979 0.5593 0.87247 0.0
H159 H 0.4809 0.61653 0.82198 0.0
H160 H 0.46418 0.85561 0.97673 0.0
H161 H 0.46619 0.91355 0.02566 0.0
H162 H 0.51747 0.9779 0.86745 0.0
H163 H 0.51627 0.92028 0.81825 0.0
H164 H 0.56701 1.01041 0.96601 0.0
H165 H 0.38627 0.97452 1.00847 0.0
H166 H 0.40685 0.93945 0.03508 0.0
H167 H 0.40643 0.94813 0.95736 0.0
C168 C 0.47521 0.88192 0.95188 0.0
C169 C 0.49012 0.88314 0.89342 0.0
C170 C 0.4762 0.91506 0.97997 0.0
C171 C 0.49166 0.95004 0.9501 0.0
C172 C 0.50539 0.95121 0.89134 0.0
H173 H 0.5385 0.18388 0.04967 0.0
H174 H 0.53836 0.12687 0.99951 0.0
C175 C 0.50451 0.91814 0.86322 0.0
C176 C 0.49593 0.98573 0.98105 0.0
H177 H 0.43672 0.02927 0.05661 0.0
C178 C 0.5385 1.01466 0.98554 0.0
C179 C 0.45873 0.99117 1.00667 0.0
C180 C 0.41192 0.96184 1.00129 0.0
C181 C 0.54503 0.04857 0.01597 0.0
C182 C 0.50784 0.05393 0.04178 0.0
C183 C 0.46526 0.02505 0.03705 0.0
C184 C 0.51201 0.08928 0.0737 0.0
C185 C 0.59182 0.07792 0.0214 0.0
C186 C 0.49738 0.08724 0.13217 0.0
C187 C 0.49709 0.11973 0.16089 0.0
C188 C 0.5112 0.15503 0.13163 0.0
C189 C 0.52746 0.15726 0.07369 0.0
C190 C 0.5276 0.12466 0.04494 0.0
H191 H 0.6175 0.06531 1.01387 0.0
H192 H 0.59679 0.10045 0.98788 0.0
H193 H 0.59736 0.09145 0.06547 0.0
H194 H 0.48526 0.06025 0.15525 0.0
H195 H 0.48446 0.11684 0.2055 0.0
H196 H 0.01459 0.91809 0.2063 0.0
H197 H 0.01453 0.97506 0.15606 0.0
H198 H 0.95772 0.90857 1.00193 0.0
H199 H 0.95682 0.85121 0.0521 0.0
H200 H 0.06143 1.00569 0.05584 0.0
H201 H 0.8802 0.9712 0.01973 0.0
H202 H 0.90088 0.94481 0.07037 0.0
H203 H 0.8997 0.93561 0.99274 0.0
C204 C 0.00133 0.91534 0.16206 0.0
C205 C 0.98586 0.87993 0.13326 0.0
C206 C 0.00148 0.94804 0.13333 0.0
C207 C 0.98595 0.94612 0.07534 0.0
C208 C 0.96919 0.91069 0.04702 0.0
H209 H 0.97816 0.11447 0.82026 0.0
H210 H 0.97798 0.05706 0.86952 0.0
C211 C 0.96889 0.87789 0.07577 0.0
C212 C 0.99003 0.98153 0.04345 0.0
H213 H 0.93026 0.02555 0.96983 0.0
C214 C 0.03272 1.01013 0.03728 0.0
C215 C 0.95259 0.98721 0.01902 0.0
C216 C 0.9057 0.95826 0.02617 0.0
C217 C 0.03908 0.04401 1.00669 0.0
C218 C 0.00163 0.04969 0.9823 0.0
C219 C 0.95897 0.02108 0.98835 0.0
C220 C 0.00568 0.0853 0.95104 0.0
C221 C 0.08595 0.07305 0.99974 0.0
C222 C 0.02193 0.12042 0.98023 0.0
C223 C 0.02232 0.15343 0.9521 0.0
C224 C 0.00602 0.15193 0.89433 0.0
C225 C 0.99096 0.11681 0.86471 0.0
C226 C 0.99068 0.08386 0.89286 0.0
H227 H 0.1115 0.06016 1.00614 0.0
H228 H 0.0908 0.0866 0.95562 0.0
H229 H 0.09185 0.09562 0.0333 0.0
H230 H 0.03295 0.12213 0.02549 0.0
H231 H 0.03396 0.17986 0.97646 0.0
H232 H 0.39775 0.72861 0.59553 0.0
H233 H 0.33219 0.72532 0.5393 0.0
H234 H 0.3352 0.82918 0.61983 0.0
H235 H 0.40121 0.83253 0.67748 0.0
H236 H 0.25081 0.76859 0.62479 0.0
H237 H 0.31893 0.78689 0.39807 0.0
H238 H 0.32998 0.75092 0.4394 0.0
H239 H 0.35436 0.79977 0.46226 0.0
C240 C 0.38502 0.75117 0.60087 0.0
C241 C 0.40484 0.78089 0.64116 0.0
C242 C 0.34757 0.74931 0.56828 0.0
C243 C 0.32901 0.77717 0.57481 0.0
C244 C 0.3492 0.80747 0.61387 0.0
H245 H 0.09263 0.80344 0.43665 0.0
H246 H 0.15778 0.80632 0.49348 0.0
C247 C 0.38705 0.8095 0.64649 0.0
C248 C 0.28683 0.77288 0.54367 0.0
H249 H 0.23956 0.76336 0.40717 0.0
C250 C 0.24842 0.76779 0.5772 0.0
C251 C 0.2836 0.77131 0.48158 0.0
C252 C 0.32399 0.77785 0.44314 0.0
C253 C 0.20674 0.7606 0.55038 0.0
C254 C 0.20352 0.75906 0.48829 0.0
C255 C 0.24194 0.76414 0.45476 0.0
C256 C 0.16138 0.75484 0.45708 0.0
C257 C 0.16635 0.75398 0.58886 0.0
C258 C 0.14153 0.72487 0.41734 0.0
C259 C 0.10395 0.7231 0.38434 0.0
C260 C 0.08608 0.75163 0.38999 0.0
C261 C 0.10545 0.78095 0.43106 0.0
C262 C 0.14265 0.78257 0.46401 0.0
H263 H 0.17134 0.74464 0.63376 0.0
H264 H 0.16054 0.78096 0.59308 0.0
H265 H 0.13592 0.73226 0.56953 0.0
H266 H 0.15565 0.70327 0.41106 0.0
H267 H 0.09014 0.70038 0.35275 0.0
H268 H 0.08941 0.20047 0.67367 0.0
H269 H 0.15608 0.20405 0.61725 0.0
H270 H 0.16578 0.3123 0.54575 0.0
H271 H 0.09994 0.30914 0.60129 0.0
H272 H 0.17567 0.21478 0.49176 0.0
H273 H 0.28864 0.33455 0.62521 0.0
H274 H 0.23305 0.30505 0.64916 0.0
H275 H 0.24077 0.34202 0.5958 0.0
C276 C 0.1054 0.22475 0.64531 0.0
C277 C 0.0895 0.25466 0.64259 0.0
C278 C 0.14358 0.22685 0.61333 0.0
C279 C 0.16644 0.2589 0.57843 0.0
C280 C 0.14931 0.28777 0.57348 0.0
H281 H 0.40554 0.33353 0.35635 0.0
H282 H 0.33899 0.32992 0.41307 0.0
C283 C 0.11143 0.28574 0.60519 0.0
C284 C 0.20858 0.26285 0.54756 0.0
H285 H 0.31958 0.31917 0.53865 0.0
C286 C 0.20719 0.23741 0.50224 0.0
C287 C 0.24963 0.29262 0.56108 0.0
C288 C 0.25341 0.31997 0.61079 0.0
C289 C 0.24562 0.24133 0.46934 0.0
C290 C 0.28667 0.2711 0.48284 0.0
C291 C 0.28806 0.29654 0.52818 0.0
C292 C 0.32879 0.2751 0.45189 0.0
C293 C 0.24184 0.21398 0.41963 0.0
C294 C 0.34598 0.24627 0.45677 0.0
C295 C 0.38379 0.24831 0.42489 0.0
C296 C 0.40559 0.27937 0.38739 0.0
C297 C 0.38965 0.30926 0.38478 0.0
C298 C 0.35154 0.30715 0.41693 0.0
H299 H 0.20661 0.19935 0.40527 0.0
H300 H 0.26215 0.22891 0.38122 0.0
H301 H 0.25456 0.19196 0.43458 0.0
H302 H 0.32959 0.22174 0.48454 0.0
H303 H 0.39532 0.22493 0.42871 0.0
H304 H 0.90198 0.23138 0.5913 0.0
H305 H 0.83655 0.2283 0.53474 0.0
H306 H 0.83555 0.32885 0.62226 0.0
H307 H 0.90181 0.3324 0.67922 0.0
H308 H 0.75412 0.21881 0.58307 0.0
H309 H 0.8195 0.35072 0.44871 0.0
H310 H 0.85576 0.33111 0.48558 0.0
H311 H 0.82933 0.35757 0.52638 0.0
C312 C 0.88838 0.25328 0.59806 0.0
C313 C 0.90716 0.28215 0.64 0.0
C314 C 0.85084 0.25138 0.56566 0.0
C315 C 0.83113 0.27831 0.57412 0.0
C316 C 0.85059 0.30804 0.61439 0.0
H317 H 0.59348 0.3031 0.43693 0.0
H318 H 0.65908 0.3063 0.49322 0.0
C319 C 0.88849 0.31007 0.64688 0.0
C320 C 0.78873 0.27356 0.54319 0.0
H321 H 0.74142 0.31573 0.44497 0.0
C322 C 0.75135 0.23995 0.55272 0.0
C323 C 0.78519 0.30112 0.50361 0.0
C324 C 0.82462 0.33705 0.4899 0.0
C325 C 0.71036 0.23341 0.52443 0.0
C326 C 0.70682 0.26098 0.48484 0.0
C327 C 0.7442 0.29459 0.47532 0.0
C328 C 0.6644 0.25623 0.45395 0.0
C329 C 0.67092 0.1975 0.5382 0.0
C330 C 0.64484 0.22643 0.41382 0.0
C331 C 0.60684 0.22432 0.38149 0.0
C332 C 0.58816 0.25224 0.38841 0.0
C333 C 0.60707 0.2812 0.43016 0.0
C334 C 0.64472 0.28318 0.46239 0.0
H335 H 0.67604 0.18386 0.57942 0.0
H336 H 0.63977 0.20344 0.54247 0.0
H337 H 0.66623 0.17694 0.50176 0.0
H338 H 0.65986 0.2056 0.40595 0.0
H339 H 0.59342 0.20193 0.34929 0.0
H340 H 0.8989 0.73019 0.43661 0.0
H341 H 0.83277 0.7273 0.4914 0.0
H342 H 0.83578 0.82993 0.40592 0.0
H343 H 0.90217 0.83281 0.34969 0.0
H344 H 0.81592 0.77771 0.56794 0.0
H345 H 0.71007 0.75239 0.36749 0.0
H346 H 0.76457 0.7491 0.36741 0.0
H347 H 0.75969 0.79482 0.36633 0.0
C348 C 0.88587 0.75244 0.42965 0.0
C349 C 0.90565 0.78158 0.38824 0.0
C350 C 0.84802 0.75071 0.46117 0.0
C351 C 0.8288 0.77792 0.45192 0.0
C352 C 0.84961 0.8082 0.41285 0.0
H353 H 0.59251 0.80372 0.58965 0.0
H354 H 0.65849 0.80682 0.53429 0.0
C355 C 0.8878 0.81005 0.38124 0.0
C356 C 0.78626 0.77348 0.48215 0.0
H357 H 0.67589 0.75683 0.45765 0.0
C358 C 0.78528 0.77315 0.54388 0.0
C359 C 0.74626 0.76719 0.45062 0.0
C360 C 0.74484 0.76553 0.38432 0.0
C361 C 0.74556 0.76738 0.57496 0.0
C362 C 0.70555 0.76103 0.54343 0.0
C363 C 0.70654 0.76141 0.4817 0.0
C364 C 0.66296 0.75637 0.57372 0.0
C365 C 0.74702 0.76909 0.64126 0.0
C366 C 0.64243 0.72608 0.61287 0.0
C367 C 0.60434 0.72411 0.64481 0.0
C368 C 0.5863 0.75247 0.63804 0.0
C369 C 0.60571 0.78156 0.59643 0.0
C370 C 0.64348 0.7834 0.56459 0.0
H371 H 0.78178 0.78243 0.65803 0.0
H372 H 0.72709 0.78534 0.65819 0.0
H373 H 0.73243 0.73979 0.65929 0.0
H374 H 0.65645 0.70445 0.61969 0.0
H375 H 0.59027 0.70139 0.6765 0.0
H376 H 0.36488 0.68399 0.96282 0.0
H377 H 0.30863 0.69885 0.01854 0.0
H378 H 0.27966 0.75283 0.86515 0.0
H379 H 0.33545 0.73738 0.809 0.0
H380 H 0.32889 0.77682 0.03089 0.0
H381 H 0.15678 0.70399 0.94465 0.0
H382 H 0.20101 0.68636 0.93205 0.0
H383 H 0.19838 0.72539 0.88924 0.0
C384 C 0.34464 0.69707 0.94017 0.0
C385 C 0.35437 0.70964 0.88182 0.0
C386 C 0.31288 0.70588 0.97215 0.0
C387 C 0.29045 0.7273 0.94613 0.0
C388 C 0.29631 0.73593 0.88586 0.0
H389 H 0.1347 0.85164 0.07233 0.0
H390 H 0.19155 0.83627 0.01886 0.0
C391 C 0.32794 0.72683 0.85363 0.0
C392 C 0.26785 0.74635 0.98395 0.0
H393 H 0.16866 0.75677 1.00793 0.0
C394 C 0.29373 0.77224 0.02627 0.0
C395 C 0.22227 0.74058 0.97724 0.0
C396 C 0.1928 0.71234 0.93371 0.0
C397 C 0.27523 0.7929 0.0617 0.0
C398 C 0.2297 0.78724 0.0548 0.0
C399 C 0.2038 0.76128 1.01262 0.0
C400 C 0.20725 0.80675 0.09188 0.0
C401 C 0.30456 0.8211 0.10538 0.0
C402 C 0.19989 0.79769 0.15187 0.0
C403 C 0.16788 0.80704 0.18283 0.0
C404 C 0.14262 0.82493 0.15359 0.0
C405 C 0.15402 0.83802 0.09577 0.0
C406 C 0.18612 0.82893 0.06506 0.0
H407 H 0.34067 0.82852 0.09586 0.0
H408 H 0.29731 0.84757 0.10541 0.0
H409 H 0.29763 0.80856 0.15015 0.0
H410 H 0.21559 0.78024 0.17314 0.0
H411 H 0.1591 0.7961 0.22706 0.0
H412 H 0.13137 0.34881 0.9629 0.0
H413 H 0.1872 0.33215 0.01624 0.0
H414 H 0.21379 0.27967 0.85998 0.0
H415 H 0.15761 0.29633 0.80632 0.0
H416 H 0.17914 0.22964 0.95527 0.0
H417 H 0.32201 0.35758 0.02674 0.0
H418 H 0.2684 0.36054 0.03971 0.0
H419 H 0.28656 0.35828 0.96553 0.0
C420 C 0.15097 0.33566 0.93908 0.0
C421 C 0.1403 0.3238 0.88066 0.0
C422 C 0.18275 0.32599 0.96966 0.0
C423 C 0.20435 0.30446 0.94213 0.0
C424 C 0.1974 0.29634 0.88188 0.0
H425 H 0.36132 0.18334 0.06861 0.0
H426 H 0.30362 0.19817 0.01653 0.0
C427 C 0.16577 0.30631 0.85105 0.0
C428 C 0.22721 0.28485 0.97861 0.0
H429 H 0.31095 0.29991 0.07835 0.0
C430 C 0.20827 0.24495 0.98177 0.0
C431 C 0.26455 0.30495 1.01387 0.0
C432 C 0.28686 0.34769 1.01104 0.0
C433 C 0.22554 0.22458 0.01979 0.0
C434 C 0.26289 0.2447 0.05504 0.0
C435 C 0.28178 0.2846 0.05192 0.0
C436 C 0.28612 0.22523 0.09113 0.0
C437 C 0.20337 0.18183 0.02252 0.0
C438 C 0.29346 0.23348 0.15131 0.0
C439 C 0.32617 0.22456 0.18141 0.0
C440 C 0.35229 0.208 0.15112 0.0
C441 C 0.34124 0.19581 0.09291 0.0
C442 C 0.30835 0.2044 0.06307 0.0
H443 H 0.16824 0.17185 1.00668 0.0
H444 H 0.22198 0.16907 0.99395 0.0
H445 H 0.20363 0.17124 0.06803 0.0
H446 H 0.27662 0.24965 0.17359 0.0
H447 H 0.33458 0.23474 0.226 0.0
H448 H 0.63851 0.35415 0.07417 0.0
H449 H 0.69261 0.33591 0.01928 0.0
H450 H 0.71115 0.27459 0.1706 0.0
H451 H 0.657 0.29295 0.22588 0.0
H452 H 0.783 0.33411 0.03515 0.0
H453 H 0.64299 0.19291 0.04207 0.0
H454 H 0.63579 0.23639 0.06201 0.0
H455 H 0.66288 0.21502 0.11182 0.0
C456 C 0.65605 0.33861 0.09672 0.0
C457 C 0.64357 0.32476 0.154 0.0
C458 C 0.68657 0.32788 0.06517 0.0
C459 C 0.70471 0.30307 0.09053 0.0
C460 C 0.69685 0.29335 0.15022 0.0
H461 H 0.85424 0.17835 0.95252 0.0
H462 H 0.79877 0.19541 1.00636 0.0
C463 C 0.66651 0.30436 0.18204 0.0
C464 C 0.72584 0.28315 0.05216 0.0
H465 H 0.70786 0.19668 0.98982 0.0
C466 C 0.76672 0.3041 0.02522 0.0
C467 C 0.70391 0.24406 0.03884 0.0
C468 C 0.6588 0.22068 0.06471 0.0
C469 C 0.78692 0.28675 0.98611 0.0
C470 C 0.76501 0.24766 0.97279 0.0
C471 C 0.72411 0.2267 0.99971 0.0
C472 C 0.78637 0.22778 0.9347 0.0
C473 C 0.83207 0.31013 0.96034 0.0
C474 C 0.79452 0.23758 0.87507 0.0
C475 C 0.82569 0.22727 0.84385 0.0
C476 C 0.84913 0.20751 0.87247 0.0
C477 C 0.83633 0.19343 0.92956 0.0
C478 C 0.80499 0.20345 0.9605 0.0
H479 H 0.84783 0.3379 0.98296 0.0
H480 H 0.8551 0.29444 0.96318 0.0
H481 H 0.82807 0.31577 0.9132 0.0
H482 H 0.7799 0.25601 0.85438 0.0
H483 H 0.83542 0.23885 0.80014 0.0
H484 H 0.85678 0.68098 0.07356 0.0
H485 H 0.80317 0.69933 0.01766 0.0
H486 H 0.78365 0.76069 0.16791 0.0
H487 H 0.83732 0.74222 0.22422 0.0
H488 H 0.71279 0.70083 0.03223 0.0
H489 H 0.85198 0.84245 0.03928 0.0
H490 H 0.85936 0.79913 0.05999 0.0
H491 H 0.8317 0.82034 0.10907 0.0
C492 C 0.83914 0.69659 0.09564 0.0
C493 C 0.85117 0.71036 0.15295 0.0
C494 C 0.80891 0.70738 0.06352 0.0
C495 C 0.79062 0.7322 0.0883 0.0
C496 C 0.79809 0.74193 0.14796 0.0
H497 H 0.64103 0.85633 0.94893 0.0
H498 H 0.69684 0.83953 1.00247 0.0
C499 C 0.82814 0.73085 0.18037 0.0
C500 C 0.76957 0.75199 0.0494 0.0
H501 H 0.78725 0.83839 0.98643 0.0
C502 C 0.72893 0.73087 0.02218 0.0
C503 C 0.79132 0.79111 0.03593 0.0
C504 C 0.83617 0.81468 0.0621 0.0
C505 C 0.70876 0.74809 0.98268 0.0
C506 C 0.73047 0.78722 0.96923 0.0
C507 C 0.77116 0.80833 0.99638 0.0
C508 C 0.70898 0.80702 0.93102 0.0
C509 C 0.6638 0.72452 0.95675 0.0
C510 C 0.70058 0.7971 0.87153 0.0
C511 C 0.66918 0.80724 0.84048 0.0
C512 C 0.6458 0.827 0.86913 0.0
C513 C 0.65889 0.84125 0.92595 0.0
C514 C 0.69043 0.83138 0.95672 0.0
H515 H 0.6481 0.69672 0.97954 0.0
H516 H 0.64059 0.74003 0.95919 0.0
H517 H 0.66809 0.7189 0.90972 0.0
H518 H 0.71518 0.77868 0.85088 0.0
H519 H 0.65925 0.79555 0.79696 0.0
loop_
_geom_bond_atom_site_label_1
_geom_bond_atom_site_label_2
_geom_bond_distance
_geom_bond_site_symmetry_2
_ccdc_geom_bond_type
Sc0 O3 2.025 . S
Sc0 O10 2.078 1_455 S
Sc0 O13 2.131 . S
Sc0 O16 2.115 1_455 S
Sc0 O19 2.096 . S
Sc1 O3 2.037 . S
Sc1 O11 2.105 . S
Sc1 O15 2.105 . S
Sc1 O17 2.105 . S
Sc1 O21 2.105 1_455 S
Sc2 O3 2.014 1_655 S
Sc2 O12 2.105 . S
Sc2 O14 2.105 . S
Sc2 O18 2.105 1_655 S
Sc2 O20 2.105 . S
O3 Sc0 2.025 . S
O3 Sc1 2.037 . S
O3 Sc2 2.014 1_455 S
C4 O10 1.268 . S
C4 O20 1.268 . S
C5 O11 1.268 . S
C5 O19 1.268 . S
C6 O12 1.268 . S
C6 O21 1.268 . S
C7 O13 1.268 . S
C7 O17 1.268 . S
C8 O14 1.268 . S
C8 O16 1.268 . S
C9 O15 1.268 . S
C9 O18 1.268 . S
O10 Sc0 2.078 1_655 S
O10 C4 1.268 . S
O11 Sc1 2.105 . S
O11 C5 1.268 . S
O12 Sc2 2.105 . S
O12 C6 1.268 . S
O13 Sc0 2.131 . S
O13 C7 1.268 . S
O14 Sc2 2.105 . S
O14 C8 1.268 . S
O15 Sc1 2.105 . S
O15 C9 1.268 . S
O16 Sc0 2.115 1_655 S
O16 C8 1.268 . S
O17 Sc1 2.105 . S
O17 C7 1.268 . S
O18 Sc2 2.105 1_455 S
O18 C9 1.268 . S
O19 Sc0 2.096 . S
O19 C5 1.268 . S
O20 Sc2 2.105 . S
O20 C4 1.268 . S
O21 Sc1 2.105 1_655 S
O21 C6 1.268 . S
Sc22 O25 2.025 . S
Sc22 O32 2.105 . S
Sc22 O35 2.105 . S
Sc22 O38 2.105 . S
Sc22 O41 2.105 . S
Sc23 O25 2.025 . S
Sc23 O33 2.105 . S
Sc23 O37 2.105 . S
Sc23 O39 2.105 . S
Sc23 O43 2.105 . S
Sc24 O25 2.025 . S
Sc24 O34 2.105 . S
Sc24 O36 2.105 . S
Sc24 O40 2.105 . S
Sc24 O42 2.105 . S
O25 Sc22 2.025 . S
O25 Sc23 2.025 . S
O25 Sc24 2.025 . S
C26 O32 1.268 . S
C26 O42 1.268 . S
C27 O33 1.268 . S
C27 O41 1.268 . S
C28 O34 1.268 . S
C28 O43 1.268 . S
C29 O35 1.268 . S
C29 O39 1.268 . S
C30 O36 1.268 . S
C30 O38 1.268 . S
C31 O37 1.268 . S
C31 O40 1.268 . S
O32 Sc22 2.105 . S
O32 C26 1.268 . S
O33 Sc23 2.105 . S
O33 C27 1.268 . S
O34 Sc24 2.105 . S
O34 C28 1.268 . S
O35 Sc22 2.105 . S
O35 C29 1.268 . S
O36 Sc24 2.105 . S
O36 C30 1.268 . S
O37 Sc23 2.105 . S
O37 C31 1.268 . S
O38 Sc22 2.105 . S
O38 C30 1.268 . S
O39 Sc23 2.105 . S
O39 C29 1.268 . S
O40 Sc24 2.105 . S
O40 C31 1.268 . S
O41 Sc22 2.105 . S
O41 C27 1.268 . S
O42 Sc24 2.105 . S
O42 C26 1.268 . S
O43 Sc23 2.105 . S
O43 C28 1.268 . S
Sc44 O47 2.025 . S
Sc44 O54 2.096 . S
Sc44 O57 2.115 1_455 S
Sc44 O60 2.131 . S
Sc44 O63 2.078 1_455 S
Sc45 O47 2.014 1_655 S
Sc45 O55 2.105 . S
Sc45 O59 2.105 1_655 S
Sc45 O61 2.105 . S
Sc45 O65 2.105 . S
Sc46 O47 2.037 . S
Sc46 O56 2.105 1_455 S
Sc46 O58 2.105 . S
Sc46 O62 2.105 . S
Sc46 O64 2.105 . S
O47 Sc44 2.025 . S
O47 Sc45 2.014 1_455 S
O47 Sc46 2.037 . S
C48 O54 1.268 . S
C48 O64 1.268 . S
C49 O55 1.268 . S
C49 O63 1.268 . S
C50 O56 1.268 . S
C50 O65 1.268 . S
C51 O57 1.268 . S
C51 O61 1.268 . S
C52 O58 1.268 . S
C52 O60 1.268 . S
C53 O59 1.268 . S
C53 O62 1.268 . S
O54 Sc44 2.096 . S
O54 C48 1.268 . S
O55 Sc45 2.105 . S
O55 C49 1.268 . S
O56 Sc46 2.105 1_655 S
O56 C50 1.268 . S
O57 Sc44 2.115 1_655 S
O57 C51 1.268 . S
O58 Sc46 2.105 . S
O58 C52 1.268 . S
O59 Sc45 2.105 1_455 S
O59 C53 1.268 . S
O60 Sc44 2.131 . S
O60 C52 1.268 . S
O61 Sc45 2.105 . S
O61 C51 1.268 . S
O62 Sc46 2.105 . S
O62 C53 1.268 . S
O63 Sc44 2.078 1_655 S
O63 C49 1.268 . S
O64 Sc46 2.105 . S
O64 C48 1.268 . S
O65 Sc45 2.105 . S
O65 C50 1.268 . S
Sc66 O69 2.025 . S
Sc66 O76 2.105 . S
Sc66 O79 2.105 . S
Sc66 O82 2.105 . S
Sc66 O85 2.105 . S
Sc67 O69 2.025 . S
Sc67 O77 2.105 . S
Sc67 O81 2.105 . S
Sc67 O83 2.105 . S
Sc67 O87 2.105 . S
Sc68 O69 2.025 . S
Sc68 O78 2.105 . S
Sc68 O80 2.105 . S
Sc68 O84 2.105 . S
Sc68 O86 2.105 . S
O69 Sc66 2.025 . S
O69 Sc67 2.025 . S
O69 Sc68 2.025 . S
C70 O76 1.268 . S
C70 O86 1.268 . S
C71 O77 1.268 . S
C71 O85 1.268 . S
C72 O78 1.268 . S
C72 O87 1.268 . S
C73 O79 1.268 . S
C73 O83 1.268 . S
C74 O80 1.268 . S
C74 O82 1.268 . S
C75 O81 1.268 . S
C75 O84 1.268 . S
O76 Sc66 2.105 . S
O76 C70 1.268 . S
O77 Sc67 2.105 . S
O77 C71 1.268 . S
O78 Sc68 2.105 . S
O78 C72 1.268 . S
O79 Sc66 2.105 . S
O79 C73 1.268 . S
O80 Sc68 2.105 . S
O80 C74 1.268 . S
O81 Sc67 2.105 . S
O81 C75 1.268 . S
O82 Sc66 2.105 . S
O82 C74 1.268 . S
O83 Sc67 2.105 . S
O83 C73 1.268 . S
O84 Sc68 2.105 . S
O84 C75 1.268 . S
O85 Sc66 2.105 . S
O85 C71 1.268 . S
O86 Sc68 2.105 . S
O86 C70 1.268 . S
O87 Sc67 2.105 . S
O87 C72 1.268 . S
H88 C96 0.929 . S
H89 C98 0.930 . S
H90 C100 0.930 . S
H91 C103 0.929 . S
H92 C106 0.930 . S
H93 C108 0.960 . S
H94 C108 0.960 . S
H95 C108 0.960 1_655 S
C96 H88 0.929 . S
C96 C97 1.377 . S
C96 C98 1.384 . S
C97 C96 1.377 . S
C97 C103 1.390 1_455 S
C98 H89 0.930 . S
C98 C96 1.384 . S
C98 C99 1.372 . S
C99 C98 1.372 . S
C99 C100 1.400 1_455 S
C99 C104 1.490 . S
C100 H90 0.930 . S
C100 C99 1.400 1_655 S
C100 C103 1.386 . S
H101 C117 0.930 . S
H102 C118 0.931 . S
C103 H91 0.929 . S
C103 C97 1.390 1_655 S
C103 C100 1.386 . S
C104 C99 1.490 . S
C104 C106 1.395 . S
C104 C107 1.403 1_556 S
H105 C111 0.930 . S
C106 H92 0.930 . S
C106 C104 1.395 . S
C106 C109 1.409 . S
C107 C104 1.403 1_554 S
C107 C108 1.524 . S
C107 C111 1.400 . S
C108 H93 0.960 . S
C108 H94 0.960 . S
C108 H95 0.960 1_455 S
C108 C107 1.524 . S
C109 C106 1.409 . S
C109 C110 1.392 1_556 S
C109 C113 1.490 1_455 S
C110 C109 1.392 1_554 S
C110 C111 1.385 . S
C110 C112 1.473 1_455 S
C111 H105 0.930 . S
C111 C107 1.400 . S
C111 C110 1.385 . S
C112 C110 1.473 1_655 S
C112 C114 1.374 1_655 S
C112 C118 1.394 . S
C113 C109 1.490 1_655 S
C113 H119 0.959 . S
C113 H120 0.961 . S
C113 H121 0.960 1_655 S
C114 C112 1.374 1_455 S
C114 C115 1.394 . S
C114 H122 0.930 . S
C115 C114 1.394 . S
C115 C116 1.383 1_455 S
C115 H123 0.929 . S
C116 C115 1.383 1_655 S
C116 C117 1.377 . S
C117 H101 0.930 . S
C117 C116 1.377 . S
C117 C118 1.379 . S
C118 H102 0.931 . S
C118 C112 1.394 . S
C118 C117 1.379 . S
H119 C113 0.959 . S
H120 C113 0.961 . S
H121 C113 0.960 1_455 S
H122 C114 0.930 . S
H123 C115 0.929 . S
H124 C132 0.929 . S
H125 C134 0.939 . S
H126 C136 0.930 . S
H127 C139 0.929 . S
H128 C142 0.930 . S
H129 C144 0.960 . S
H130 C144 0.960 . S
H131 C144 0.960 1_554 S
C132 H124 0.929 . S
C132 C133 1.377 . S
C132 C134 1.384 . S
C133 C132 1.377 . S
C133 C139 1.390 . S
C134 H125 0.939 . S
C134 C132 1.384 . S
C134 C135 1.372 . S
C135 C134 1.372 . S
C135 C136 1.400 . S
C135 C140 1.490 . S
C136 H126 0.930 . S
C136 C135 1.400 . S
C136 C139 1.386 . S
H137 C153 0.930 . S
H138 C154 0.931 1_554 S
C139 H127 0.929 . S
C139 C133 1.390 . S
C139 C136 1.386 . S
C140 C135 1.490 . S
C140 C142 1.395 . S
C140 C143 1.403 1_554 S
H141 C147 0.930 . S
C142 H128 0.930 . S
C142 C140 1.395 . S
C142 C145 1.403 . S
C143 C140 1.403 1_556 S
C143 C144 1.524 . S
C143 C147 1.400 . S
C144 H129 0.960 . S
C144 H130 0.960 . S
C144 H131 0.960 1_556 S
C144 C143 1.524 . S
C145 C142 1.403 . S
C145 C146 1.392 1_554 S
C145 C149 1.495 . S
C146 C145 1.392 1_556 S
C146 C147 1.385 . S
C146 C148 1.478 . S
C147 H141 0.930 . S
C147 C143 1.400 . S
C147 C146 1.385 . S
C148 C146 1.478 . S
C148 C150 1.381 . S
C148 C154 1.383 . S
C149 C145 1.495 . S
C149 H155 0.959 . S
C149 H156 0.961 . S
C149 H157 0.960 1_554 S
C150 C148 1.381 . S
C150 C151 1.394 . S
C150 H158 0.930 . S
C151 C150 1.394 . S
C151 C152 1.383 . S
C151 H159 0.929 . S
C152 C151 1.383 . S
C152 C153 1.377 . S
C153 H137 0.930 . S
C153 C152 1.377 . S
C153 C154 1.379 . S
C154 H138 0.931 1_556 S
C154 C148 1.383 . S
C154 C153 1.379 . S
H155 C149 0.959 . S
H156 C149 0.961 . S
H157 C149 0.960 1_556 S
H158 C150 0.930 . S
H159 C151 0.929 . S
H160 C168 0.929 . S
H161 C170 0.930 . S
H162 C172 0.930 . S
H163 C175 0.929 . S
H164 C178 0.938 . S
H165 C180 0.960 . S
H166 C180 0.960 . S
H167 C180 0.960 1_556 S
C168 H160 0.929 . S
C168 C169 1.377 . S
C168 C170 1.384 . S
C169 C168 1.377 . S
C169 C175 1.390 . S
C170 H161 0.930 . S
C170 C168 1.384 . S
C170 C171 1.372 . S
C171 C170 1.372 . S
C171 C172 1.400 . S
C171 C176 1.490 . S
C172 H162 0.930 . S
C172 C171 1.400 . S
C172 C175 1.386 . S
H173 C189 0.930 . S
H174 C190 0.921 1_556 S
C175 H163 0.929 . S
C175 C169 1.390 . S
C175 C172 1.386 . S
C176 C171 1.490 . S
C176 C178 1.408 . S
C176 C179 1.403 1_556 S
H177 C183 0.930 . S
C178 H164 0.938 . S
C178 C176 1.408 . S
C178 C181 1.383 1_565 S
C179 C176 1.403 1_554 S
C179 C180 1.524 . S
C179 C183 1.400 1_565 S
C180 H165 0.960 . S
C180 H166 0.960 . S
C180 H167 0.960 1_554 S
C180 C179 1.524 . S
C181 C178 1.383 1_545 S
C181 C182 1.392 1_556 S
C181 C185 1.495 . S
C182 C181 1.392 1_554 S
C182 C183 1.385 . S
C182 C184 1.478 . S
C183 H177 0.930 . S
C183 C179 1.400 1_545 S
C183 C182 1.385 . S
C184 C182 1.478 . S
C184 C186 1.381 . S
C184 C190 1.383 . S
C185 C181 1.495 . S
C185 H191 0.959 . S
C185 H192 0.961 . S
C185 H193 0.960 1_556 S
C186 C184 1.381 . S
C186 C187 1.394 . S
C186 H194 0.930 . S
C187 C186 1.394 . S
C187 C188 1.383 . S
C187 H195 0.929 . S
C188 C187 1.383 . S
C188 C189 1.377 . S
C189 H173 0.930 . S
C189 C188 1.377 . S
C189 C190 1.379 . S
C190 H174 0.921 1_554 S
C190 C184 1.383 . S
C190 C189 1.379 . S
H191 C185 0.959 . S
H192 C185 0.961 . S
H193 C185 0.960 1_554 S
H194 C186 0.930 . S
H195 C187 0.929 . S
H196 C204 0.929 . S
H197 C206 0.930 . S
H198 C208 0.930 . S
H199 C211 0.929 . S
H200 C214 0.930 . S
H201 C216 0.960 . S
H202 C216 0.960 . S
H203 C216 0.960 . S
C204 H196 0.929 . S
C204 C205 1.377 . S
C204 C206 1.384 . S
C205 C204 1.377 . S
C205 C211 1.390 1_455 S
C206 H197 0.930 . S
C206 C204 1.384 . S
C206 C207 1.372 . S
C207 C206 1.372 . S
C207 C208 1.400 1_455 S
C207 C212 1.490 . S
C208 H198 0.930 . S
C208 C207 1.400 1_655 S
C208 C211 1.386 . S
H209 C225 0.930 . S
H210 C226 0.931 . S
C211 H199 0.929 . S
C211 C205 1.390 1_655 S
C211 C208 1.386 . S
C212 C207 1.490 . S
C212 C214 1.395 1_554 S
C212 C215 1.403 1_455 S
H213 C219 0.930 . S
C214 H200 0.930 . S
C214 C212 1.395 1_556 S
C214 C217 1.403 1_565 S
C215 C212 1.403 1_655 S
C215 C216 1.524 . S
C215 C219 1.400 1_565 S
C216 H201 0.960 . S
C216 H202 0.960 . S
C216 H203 0.960 . S
C216 C215 1.524 . S
C217 C214 1.403 1_545 S
C217 C218 1.392 . S
C217 C221 1.495 . S
C218 C217 1.392 . S
C218 C219 1.385 1_456 S
C218 C220 1.478 . S
C219 H213 0.930 . S
C219 C215 1.400 1_545 S
C219 C218 1.385 1_654 S
C220 C218 1.478 . S
C220 C222 1.381 . S
C220 C226 1.383 1_455 S
C221 C217 1.495 . S
C221 H227 0.959 . S
C221 H228 0.961 . S
C221 H229 0.960 . S
C222 C220 1.381 . S
C222 C223 1.394 . S
C222 H230 0.930 . S
C223 C222 1.394 . S
C223 C224 1.407 . S
C223 H231 0.929 . S
C224 C223 1.407 . S
C224 C225 1.364 1_455 S
C225 H209 0.930 . S
C225 C224 1.364 1_655 S
C225 C226 1.379 . S
C226 H210 0.931 . S
C226 C220 1.383 1_655 S
C226 C225 1.379 . S
H227 C221 0.959 . S
H228 C221 0.961 . S
H229 C221 0.960 . S
H230 C222 0.930 . S
H231 C223 0.929 . S
H232 C240 0.929 . S
H233 C242 0.930 . S
H234 C244 0.930 . S
H235 C247 0.929 . S
H236 C250 0.930 . S
H237 C252 0.960 . S
H238 C252 0.960 . S
H239 C252 0.960 . S
C240 H232 0.929 . S
C240 C241 1.377 . S
C240 C242 1.384 . S
C241 C240 1.377 . S
C241 C247 1.390 . S
C242 H233 0.930 . S
C242 C240 1.384 . S
C242 C243 1.372 . S
C243 C242 1.372 . S
C243 C244 1.400 . S
C243 C248 1.490 . S
C244 H234 0.930 . S
C244 C243 1.400 . S
C244 C247 1.386 . S
H245 C261 0.930 . S
H246 C262 0.931 . S
C247 H235 0.929 . S
C247 C241 1.390 . S
C247 C244 1.386 . S
C248 C243 1.490 . S
C248 C250 1.395 . S
C248 C251 1.403 . S
H249 C255 0.930 . S
C250 H236 0.930 . S
C250 C248 1.395 . S
C250 C253 1.403 . S
C251 C248 1.403 . S
C251 C252 1.524 . S
C251 C255 1.400 . S
C252 H237 0.960 . S
C252 H238 0.960 . S
C252 H239 0.960 . S
C252 C251 1.524 . S
C253 C250 1.403 . S
C253 C254 1.392 . S
C253 C257 1.495 . S
C254 C253 1.392 . S
C254 C255 1.385 . S
C254 C256 1.478 . S
C255 H249 0.930 . S
C255 C251 1.400 . S
C255 C254 1.385 . S
C256 C254 1.478 . S
C256 C258 1.381 . S
C256 C262 1.383 . S
C257 C253 1.495 . S
C257 H263 0.959 . S
C257 H264 0.961 . S
C257 H265 0.960 . S
C258 C256 1.381 . S
C258 C259 1.394 . S
C258 H266 0.930 . S
C259 C258 1.394 . S
C259 C260 1.383 . S
C259 H267 0.929 . S
C260 C259 1.383 . S
C260 C261 1.377 . S
C261 H245 0.930 . S
C261 C260 1.377 . S
C261 C262 1.379 . S
C262 H246 0.931 . S
C262 C256 1.383 . S
C262 C261 1.379 . S
H263 C257 0.959 . S
H264 C257 0.961 . S
H265 C257 0.960 . S
H266 C258 0.930 . S
H267 C259 0.929 . S
H268 C276 0.929 . S
H269 C278 0.930 . S
H270 C280 0.930 . S
H271 C283 0.929 . S
H272 C286 0.930 . S
H273 C288 0.960 . S
H274 C288 0.960 . S
H275 C288 0.960 . S
C276 H268 0.929 . S
C276 C277 1.377 . S
C276 C278 1.384 . S
C277 C276 1.377 . S
C277 C283 1.390 . S
C278 H269 0.930 . S
C278 C276 1.384 . S
C278 C279 1.372 . S
C279 C278 1.372 . S
C279 C280 1.400 . S
C279 C284 1.490 . S
C280 H270 0.930 . S
C280 C279 1.400 . S
C280 C283 1.386 . S
H281 C297 0.930 . S
H282 C298 0.931 . S
C283 H271 0.929 . S
C283 C277 1.390 . S
C283 C280 1.386 . S
C284 C279 1.490 . S
C284 C286 1.395 . S
C284 C287 1.403 . S
H285 C291 0.930 . S
C286 H272 0.930 . S
C286 C284 1.395 . S
C286 C289 1.403 . S
C287 C284 1.403 . S
C287 C288 1.524 . S
C287 C291 1.400 . S
C288 H273 0.960 . S
C288 H274 0.960 . S
C288 H275 0.960 . S
C288 C287 1.524 . S
C289 C286 1.403 . S
C289 C290 1.392 . S
C289 C293 1.495 . S
C290 C289 1.392 . S
C290 C291 1.385 . S
C290 C292 1.478 . S
C291 H285 0.930 . S
C291 C287 1.400 . S
C291 C290 1.385 . S
C292 C290 1.478 . S
C292 C294 1.381 . S
C292 C298 1.383 . S
C293 C289 1.495 . S
C293 H299 0.959 . S
C293 H300 0.961 . S
C293 H301 0.960 . S
C294 C292 1.381 . S
C294 C295 1.394 . S
C294 H302 0.930 . S
C295 C294 1.394 . S
C295 C296 1.383 . S
C295 H303 0.929 . S
C296 C295 1.383 . S
C296 C297 1.377 . S
C297 H281 0.930 . S
C297 C296 1.377 . S
C297 C298 1.379 . S
C298 H282 0.931 . S
C298 C292 1.383 . S
C298 C297 1.379 . S
H299 C293 0.959 . S
H300 C293 0.961 . S
H301 C293 0.960 . S
H302 C294 0.930 . S
H303 C295 0.929 . S
H304 C312 0.929 . S
H305 C314 0.930 . S
H306 C316 0.930 . S
H307 C319 0.929 . S
H308 C322 0.930 . S
H309 C324 0.960 . S
H310 C324 0.960 . S
H311 C324 0.960 . S
C312 H304 0.929 . S
C312 C313 1.377 . S
C312 C314 1.384 . S
C313 C312 1.377 . S
C313 C319 1.390 . S
C314 H305 0.930 . S
C314 C312 1.384 . S
C314 C315 1.372 . S
C315 C314 1.372 . S
C315 C316 1.400 . S
C315 C320 1.490 . S
C316 H306 0.930 . S
C316 C315 1.400 . S
C316 C319 1.386 . S
H317 C333 0.930 . S
H318 C334 0.931 . S
C319 H307 0.929 . S
C319 C313 1.390 . S
C319 C316 1.386 . S
C320 C315 1.490 . S
C320 C322 1.395 . S
C320 C323 1.403 . S
H321 C327 0.930 . S
C322 H308 0.930 . S
C322 C320 1.395 . S
C322 C325 1.403 . S
C323 C320 1.403 . S
C323 C324 1.524 . S
C323 C327 1.400 . S
C324 H309 0.960 . S
C324 H310 0.960 . S
C324 H311 0.960 . S
C324 C323 1.524 . S
C325 C322 1.403 . S
C325 C326 1.392 . S
C325 C329 1.495 . S
C326 C325 1.392 . S
C326 C327 1.385 . S
C326 C328 1.478 . S
C327 H321 0.930 . S
C327 C323 1.400 . S
C327 C326 1.385 . S
C328 C326 1.478 . S
C328 C330 1.381 . S
C328 C334 1.383 . S
C329 C325 1.495 . S
C329 H335 0.959 . S
C329 H336 0.961 . S
C329 H337 0.960 . S
C330 C328 1.381 . S
C330 C331 1.394 . S
C330 H338 0.930 . S
C331 C330 1.394 . S
C331 C332 1.383 . S
C331 H339 0.929 . S
C332 C331 1.383 . S
C332 C333 1.377 . S
C333 H317 0.930 . S
C333 C332 1.377 . S
C333 C334 1.379 . S
C334 H318 0.931 . S
C334 C328 1.383 . S
C334 C333 1.379 . S
H335 C329 0.959 . S
H336 C329 0.961 . S
H337 C329 0.960 . S
H338 C330 0.930 . S
H339 C331 0.929 . S
H340 C348 0.929 . S
H341 C350 0.930 . S
H342 C352 0.930 . S
H343 C355 0.929 . S
H344 C358 0.930 . S
H345 C360 0.960 . S
H346 C360 0.960 . S
H347 C360 0.960 . S
C348 H340 0.929 . S
C348 C349 1.377 . S
C348 C350 1.384 . S
C349 C348 1.377 . S
C349 C355 1.390 . S
C350 H341 0.930 . S
C350 C348 1.384 . S
C350 C351 1.372 . S
C351 C350 1.372 . S
C351 C352 1.400 . S
C351 C356 1.490 . S
C352 H342 0.930 . S
C352 C351 1.400 . S
C352 C355 1.386 . S
H353 C369 0.930 . S
H354 C370 0.931 . S
C355 H343 0.929 . S
C355 C349 1.390 . S
C355 C352 1.386 . S
C356 C351 1.490 . S
C356 C358 1.395 . S
C356 C359 1.403 . S
H357 C363 0.930 . S
C358 H344 0.930 . S
C358 C356 1.395 . S
C358 C361 1.403 . S
C359 C356 1.403 . S
C359 C360 1.524 . S
C359 C363 1.400 . S
C360 H345 0.960 . S
C360 H346 0.960 . S
C360 H347 0.960 . S
C360 C359 1.524 . S
C361 C358 1.403 . S
C361 C362 1.392 . S
C361 C365 1.495 . S
C362 C361 1.392 . S
C362 C363 1.385 . S
C362 C364 1.478 . S
C363 H357 0.930 . S
C363 C359 1.400 . S
C363 C362 1.385 . S
C364 C362 1.478 . S
C364 C366 1.381 . S
C364 C370 1.383 . S
C365 C361 1.495 . S
C365 H371 0.959 . S
C365 H372 0.961 . S
C365 H373 0.960 . S
C366 C364 1.381 . S
C366 C367 1.394 . S
C366 H374 0.930 . S
C367 C366 1.394 . S
C367 C368 1.383 . S
C367 H375 0.929 . S
C368 C367 1.383 . S
C368 C369 1.377 . S
C369 H353 0.930 . S
C369 C368 1.377 . S
C369 C370 1.379 . S
C370 H354 0.931 . S
C370 C364 1.383 . S
C370 C369 1.379 . S
H371 C365 0.959 . S
H372 C365 0.961 . S
H373 C365 0.960 . S
H374 C366 0.930 . S
H375 C367 0.929 . S
H376 C384 0.929 . S
H377 C386 0.930 . S
H378 C388 0.930 . S
H379 C391 0.929 . S
H380 C394 0.930 . S
H381 C396 0.960 . S
H382 C396 0.960 . S
H383 C396 0.960 . S
C384 H376 0.929 . S
C384 C385 1.377 . S
C384 C386 1.384 . S
C385 C384 1.377 . S
C385 C391 1.390 . S
C386 H377 0.930 . S
C386 C384 1.384 . S
C386 C387 1.372 . S
C387 C386 1.372 . S
C387 C388 1.400 . S
C387 C392 1.490 . S
C388 H378 0.930 . S
C388 C387 1.400 . S
C388 C391 1.386 . S
H389 C405 0.930 . S
H390 C406 0.931 . S
C391 H379 0.929 . S
C391 C385 1.390 . S
C391 C388 1.386 . S
C392 C387 1.490 . S
C392 C394 1.395 1_556 S
C392 C395 1.403 . S
H393 C399 0.930 . S
C394 H380 0.930 . S
C394 C392 1.395 1_554 S
C394 C397 1.403 . S
C395 C392 1.403 . S
C395 C396 1.524 . S
C395 C399 1.400 . S
C396 H381 0.960 . S
C396 H382 0.960 . S
C396 H383 0.960 . S
C396 C395 1.524 . S
C397 C394 1.403 . S
C397 C398 1.392 . S
C397 C401 1.495 . S
C398 C397 1.392 . S
C398 C399 1.385 1_554 S
C398 C400 1.478 . S
C399 H393 0.930 . S
C399 C395 1.400 . S
C399 C398 1.385 1_556 S
C400 C398 1.478 . S
C400 C402 1.381 . S
C400 C406 1.383 . S
C401 C397 1.495 . S
C401 H407 0.959 . S
C401 H408 0.961 . S
C401 H409 0.960 . S
C402 C400 1.381 . S
C402 C403 1.394 . S
C402 H410 0.930 . S
C403 C402 1.394 . S
C403 C404 1.383 . S
C403 H411 0.929 . S
C404 C403 1.383 . S
C404 C405 1.377 . S
C405 H389 0.930 . S
C405 C404 1.377 . S
C405 C406 1.379 . S
C406 H390 0.931 . S
C406 C400 1.383 . S
C406 C405 1.379 . S
H407 C401 0.959 . S
H408 C401 0.961 . S
H409 C401 0.960 . S
H410 C402 0.930 . S
H411 C403 0.929 . S
H412 C420 0.929 . S
H413 C422 0.930 . S
H414 C424 0.930 . S
H415 C427 0.929 . S
H416 C430 0.930 . S
H417 C432 0.960 . S
H418 C432 0.960 . S
H419 C432 0.960 1_556 S
C420 H412 0.929 . S
C420 C421 1.377 . S
C420 C422 1.384 . S
C421 C420 1.377 . S
C421 C427 1.390 . S
C422 H413 0.930 . S
C422 C420 1.384 . S
C422 C423 1.372 . S
C423 C422 1.372 . S
C423 C424 1.400 . S
C423 C428 1.490 . S
C424 H414 0.930 . S
C424 C423 1.400 . S
C424 C427 1.386 . S
H425 C441 0.930 . S
H426 C442 0.931 . S
C427 H415 0.929 . S
C427 C421 1.390 . S
C427 C424 1.386 . S
C428 C423 1.490 . S
C428 C430 1.395 . S
C428 C431 1.403 1_556 S
H429 C435 0.930 . S
C430 H416 0.930 . S
C430 C428 1.395 . S
C430 C433 1.399 1_556 S
C431 C428 1.403 1_554 S
C431 C432 1.524 . S
C431 C435 1.400 . S
C432 H417 0.960 . S
C432 H418 0.960 . S
C432 H419 0.960 1_554 S
C432 C431 1.524 . S
C433 C430 1.399 1_554 S
C433 C434 1.396 . S
C433 C437 1.495 1_554 S
C434 C433 1.396 . S
C434 C435 1.385 . S
C434 C436 1.478 . S
C435 H429 0.930 . S
C435 C431 1.400 . S
C435 C434 1.385 . S
C436 C434 1.478 . S
C436 C438 1.381 . S
C436 C442 1.383 . S
C437 C433 1.495 1_556 S
C437 H443 0.959 . S
C437 H444 0.961 . S
C437 H445 0.960 1_556 S
C438 C436 1.381 . S
C438 C439 1.394 . S
C438 H446 0.930 . S
C439 C438 1.394 . S
C439 C440 1.383 . S
C439 H447 0.929 . S
C440 C439 1.383 . S
C440 C441 1.377 . S
C441 H425 0.930 . S
C441 C440 1.377 . S
C441 C442 1.379 . S
C442 H426 0.931 . S
C442 C436 1.383 . S
C442 C441 1.379 . S
H443 C437 0.959 . S
H444 C437 0.961 . S
H445 C437 0.960 1_554 S
H446 C438 0.930 . S
H447 C439 0.929 . S
H448 C456 0.929 . S
H449 C458 0.930 . S
H450 C460 0.930 . S
H451 C463 0.929 . S
H452 C466 0.930 . S
H453 C468 0.960 . S
H454 C468 0.960 . S
H455 C468 0.960 . S
C456 H448 0.929 . S
C456 C457 1.377 . S
C456 C458 1.384 . S
C457 C456 1.377 . S
C457 C463 1.390 . S
C458 H449 0.930 . S
C458 C456 1.384 . S
C458 C459 1.372 . S
C459 C458 1.372 . S
C459 C460 1.400 . S
C459 C464 1.490 . S
C460 H450 0.930 . S
C460 C459 1.400 . S
C460 C463 1.386 . S
H461 C477 0.930 . S
H462 C478 0.931 . S
C463 H451 0.929 . S
C463 C457 1.390 . S
C463 C460 1.386 . S
C464 C459 1.490 . S
C464 C466 1.395 . S
C464 C467 1.403 1_554 S
H465 C471 0.930 . S
C466 H452 0.930 . S
C466 C464 1.395 . S
C466 C469 1.403 . S
C467 C464 1.403 1_556 S
C467 C468 1.524 . S
C467 C471 1.400 . S
C468 H453 0.960 . S
C468 H454 0.960 . S
C468 H455 0.960 . S
C468 C467 1.524 . S
C469 C466 1.403 . S
C469 C470 1.392 1_554 S
C469 C473 1.495 . S
C470 C469 1.392 1_556 S
C470 C471 1.385 . S
C470 C472 1.478 . S
C471 H465 0.930 . S
C471 C467 1.400 . S
C471 C470 1.385 . S
C472 C470 1.478 . S
C472 C474 1.381 . S
C472 C478 1.383 . S
C473 C469 1.495 . S
C473 H479 0.959 . S
C473 H480 0.961 . S
C473 H481 0.960 . S
C474 C472 1.381 . S
C474 C475 1.394 . S
C474 H482 0.930 . S
C475 C474 1.394 . S
C475 C476 1.383 . S
C475 H483 0.929 . S
C476 C475 1.383 . S
C476 C477 1.377 . S
C477 H461 0.930 . S
C477 C476 1.377 . S
C477 C478 1.379 . S
C478 H462 0.931 . S
C478 C472 1.383 . S
C478 C477 1.379 . S
H479 C473 0.959 . S
H480 C473 0.961 . S
H481 C473 0.960 . S
H482 C474 0.930 . S
H483 C475 0.929 . S
H484 C492 0.929 . S
H485 C494 0.930 1_556 S
H486 C496 0.930 . S
H487 C499 0.929 . S
H488 C502 0.930 . S
H489 C504 0.960 . S
H490 C504 0.960 . S
H491 C504 0.960 . S
C492 H484 0.929 . S
C492 C493 1.377 . S
C492 C494 1.384 . S
C493 C492 1.377 . S
C493 C499 1.390 . S
C494 H485 0.930 1_554 S
C494 C492 1.384 . S
C494 C495 1.372 . S
C495 C494 1.372 . S
C495 C496 1.400 . S
C495 C500 1.490 . S
C496 H486 0.930 . S
C496 C495 1.400 . S
C496 C499 1.386 . S
H497 C513 0.930 . S
H498 C514 0.930 . S
C499 H487 0.929 . S
C499 C493 1.390 . S
C499 C496 1.386 . S
C500 C495 1.490 . S
C500 C502 1.395 1_554 S
C500 C503 1.403 . S
H501 C507 0.930 . S
C502 H488 0.930 . S
C502 C500 1.395 1_556 S
C502 C505 1.403 . S
C503 C500 1.403 . S
C503 C504 1.524 . S
C503 C507 1.400 1_554 S
C504 H489 0.960 . S
C504 H490 0.960 . S
C504 H491 0.960 . S
C504 C503 1.524 . S
C505 C502 1.403 . S
C505 C506 1.392 . S
C505 C509 1.495 . S
C506 C505 1.392 . S
C506 C507 1.385 . S
C506 C508 1.478 . S
C507 H501 0.930 . S
C507 C503 1.400 1_556 S
C507 C506 1.385 . S
C508 C506 1.478 . S
C508 C510 1.381 . S
C508 C514 1.383 . S
C509 C505 1.495 . S
C509 H515 0.959 . S
C509 H516 0.961 . S
C509 H517 0.960 . S
C510 C508 1.381 . S
C510 C511 1.394 . S
C510 H518 0.930 . S
C511 C510 1.394 . S
C511 C512 1.383 . S
C511 H519 0.929 . S
C512 C511 1.383 . S
C512 C513 1.377 . S
C513 H497 0.930 . S
C513 C512 1.377 . S
C513 C514 1.379 . S
C514 H498 0.930 . S
C514 C508 1.383 . S
C514 C513 1.379 . S
H515 C509 0.959 . S
H516 C509 0.961 . S
H517 C509 0.960 . S
H518 C510 0.930 . S
H519 C511 0.929 . S
C97 C48 1.563 . S
C116 C8 1.553 . S
C133 C27 1.564 . S
C152 C73 1.548 . S
C169 C70 1.564 . S
C188 C30 1.570 . S
C205 C5 1.567 . S
C224 C51 1.564 1_455 S
C241 C72 2.179 . S
C260 C9 2.169 . S
C277 C53 2.187 . S
C296 C28 2.179 . S
C313 C50 2.181 . S
C332 C31 2.185 . S
C349 C6 2.180 . S
C368 C75 2.183 . S
C385 C71 0.364 . S
C404 C7 0.370 . S
C421 C52 0.338 . S
C440 C26 0.376 . S
C457 C29 0.347 . S
C476 C49 0.280 . S
C493 C4 0.333 . S
C512 C74 0.332 . S
