# Generated by pormake.
# Topology umv, (4)-cn, num edge types: 1
# Building blocks:
#     Node 0, Type 0, BuildingBlock: QUQFOY_clean_sbu_3, # of connection points: 4
#     Node 1, Type 0, BuildingBlock: QUQFOY_clean_sbu_3, # of connection points: 4
#     Node 2, Type 0, BuildingBlock: QUQFOY_clean_sbu_3, # of connection points: 4
#     Node 3, Type 0, BuildingBlock: QUQFOY_clean_sbu_3, # of connection points: 4
#     Node 4, Type 0, BuildingBlock: QUQFOY_clean_sbu_3, # of connection points: 4
#     Node 5, Type 0, BuildingBlock: QUQFOY_clean_sbu_3, # of connection points: 4
#     Node 6, Type 0, BuildingBlock: QUQFOY_clean_sbu_3, # of connection points: 4
#     Node 7, Type 0, BuildingBlock: QUQFOY_clean_sbu_3, # of connection points: 4
#     Node 8, Type 0, BuildingBlock: QUQFOY_clean_sbu_3, # of connection points: 4
#     Node 9, Type 0, BuildingBlock: QUQFOY_clean_sbu_3, # of connection points: 4
#     Node 10, Type 0, BuildingBlock: QUQFOY_clean_sbu_3, # of connection points: 4
#     Node 11, Type 0, BuildingBlock: QUQFOY_clean_sbu_3, # of connection points: 4
#     Node 12, Type 0, BuildingBlock: QUQFOY_clean_sbu_3, # of connection points: 4
#     Node 13, Type 0, BuildingBlock: QUQFOY_clean_sbu_3, # of connection points: 4
#     Node 14, Type 0, BuildingBlock: QUQFOY_clean_sbu_3, # of connection points: 4
#     Node 15, Type 0, BuildingBlock: QUQFOY_clean_sbu_3, # of connection points: 4
#     Node 16, Type 0, BuildingBlock: QUQFOY_clean_sbu_3, # of connection points: 4
#     Node 17, Type 0, BuildingBlock: QUQFOY_clean_sbu_3, # of connection points: 4
#     Node 18, Type 0, BuildingBlock: QUQFOY_clean_sbu_3, # of connection points: 4
#     Node 19, Type 0, BuildingBlock: QUQFOY_clean_sbu_3, # of connection points: 4
#     Node 20, Type 0, BuildingBlock: QUQFOY_clean_sbu_3, # of connection points: 4
#     Node 21, Type 0, BuildingBlock: QUQFOY_clean_sbu_3, # of connection points: 4
#     Node 22, Type 0, BuildingBlock: QUQFOY_clean_sbu_3, # of connection points: 4
#     Node 23, Type 0, BuildingBlock: QUQFOY_clean_sbu_3, # of connection points: 4
#     Node 24, Type 0, BuildingBlock: QUQFOY_clean_sbu_3, # of connection points: 4
#     Node 25, Type 0, BuildingBlock: QUQFOY_clean_sbu_3, # of connection points: 4
#     Node 26, Type 0, BuildingBlock: QUQFOY_clean_sbu_3, # of connection points: 4
#     Node 27, Type 0, BuildingBlock: QUQFOY_clean_sbu_3, # of connection points: 4
#     Node 28, Type 0, BuildingBlock: QUQFOY_clean_sbu_3, # of connection points: 4
#     Node 29, Type 0, BuildingBlock: QUQFOY_clean_sbu_3, # of connection points: 4
#     Node 30, Type 0, BuildingBlock: QUQFOY_clean_sbu_3, # of connection points: 4
#     Node 31, Type 0, BuildingBlock: QUQFOY_clean_sbu_3, # of connection points: 4
#     Edge 32, Type (0, 0), BuildingBlock: TEMPAE_clean_linker_10, # of connection points: 2
#     Edge 33, Type (0, 0), BuildingBlock: TEMPAE_clean_linker_10, # of connection points: 2
#     Edge 34, Type (0, 0), BuildingBlock: TEMPAE_clean_linker_10, # of connection points: 2
#     Edge 35, Type (0, 0), BuildingBlock: TEMPAE_clean_linker_10, # of connection points: 2
#     Edge 36, Type (0, 0), BuildingBlock: TEMPAE_clean_linker_10, # of connection points: 2
#     Edge 37, Type (0, 0), BuildingBlock: TEMPAE_clean_linker_10, # of connection points: 2
#     Edge 38, Type (0, 0), BuildingBlock: TEMPAE_clean_linker_10, # of connection points: 2
#     Edge 39, Type (0, 0), BuildingBlock: TEMPAE_clean_linker_10, # of connection points: 2
#     Edge 40, Type (0, 0), BuildingBlock: TEMPAE_clean_linker_10, # of connection points: 2
#     Edge 41, Type (0, 0), BuildingBlock: TEMPAE_clean_linker_10, # of connection points: 2
#     Edge 42, Type (0, 0), BuildingBlock: TEMPAE_clean_linker_10, # of connection points: 2
#     Edge 43, Type (0, 0), BuildingBlock: TEMPAE_clean_linker_10, # of connection points: 2
#     Edge 44, Type (0, 0), BuildingBlock: TEMPAE_clean_linker_10, # of connection points: 2
#     Edge 45, Type (0, 0), BuildingBlock: TEMPAE_clean_linker_10, # of connection points: 2
#     Edge 46, Type (0, 0), BuildingBlock: TEMPAE_clean_linker_10, # of connection points: 2
#     Edge 47, Type (0, 0), BuildingBlock: TEMPAE_clean_linker_10, # of connection points: 2
#     Edge 48, Type (0, 0), BuildingBlock: TEMPAE_clean_linker_10, # of connection points: 2
#     Edge 49, Type (0, 0), BuildingBlock: TEMPAE_clean_linker_10, # of connection points: 2
#     Edge 50, Type (0, 0), BuildingBlock: TEMPAE_clean_linker_10, # of connection points: 2
#     Edge 51, Type (0, 0), BuildingBlock: TEMPAE_clean_linker_10, # of connection points: 2
#     Edge 52, Type (0, 0), BuildingBlock: TEMPAE_clean_linker_10, # of connection points: 2
#     Edge 53, Type (0, 0), BuildingBlock: TEMPAE_clean_linker_10, # of connection points: 2
#     Edge 54, Type (0, 0), BuildingBlock: TEMPAE_clean_linker_10, # of connection points: 2
#     Edge 55, Type (0, 0), BuildingBlock: TEMPAE_clean_linker_10, # of connection points: 2
#     Edge 56, Type (0, 0), BuildingBlock: TEMPAE_clean_linker_10, # of connection points: 2
#     Edge 57, Type (0, 0), BuildingBlock: TEMPAE_clean_linker_10, # of connection points: 2
#     Edge 58, Type (0, 0), BuildingBlock: TEMPAE_clean_linker_10, # of connection points: 2
#     Edge 59, Type (0, 0), BuildingBlock: TEMPAE_clean_linker_10, # of connection points: 2
#     Edge 60, Type (0, 0), BuildingBlock: TEMPAE_clean_linker_10, # of connection points: 2
#     Edge 61, Type (0, 0), BuildingBlock: TEMPAE_clean_linker_10, # of connection points: 2
#     Edge 62, Type (0, 0), BuildingBlock: TEMPAE_clean_linker_10, # of connection points: 2
#     Edge 63, Type (0, 0), BuildingBlock: TEMPAE_clean_linker_10, # of connection points: 2
#     Edge 64, Type (0, 0), BuildingBlock: TEMPAE_clean_linker_10, # of connection points: 2
#     Edge 65, Type (0, 0), BuildingBlock: TEMPAE_clean_linker_10, # of connection points: 2
#     Edge 66, Type (0, 0), BuildingBlock: TEMPAE_clean_linker_10, # of connection points: 2
#     Edge 67, Type (0, 0), BuildingBlock: TEMPAE_clean_linker_10, # of connection points: 2
#     Edge 68, Type (0, 0), BuildingBlock: TEMPAE_clean_linker_10, # of connection points: 2
#     Edge 69, Type (0, 0), BuildingBlock: TEMPAE_clean_linker_10, # of connection points: 2
#     Edge 70, Type (0, 0), BuildingBlock: TEMPAE_clean_linker_10, # of connection points: 2
#     Edge 71, Type (0, 0), BuildingBlock: TEMPAE_clean_linker_10, # of connection points: 2
#     Edge 72, Type (0, 0), BuildingBlock: TEMPAE_clean_linker_10, # of connection points: 2
#     Edge 73, Type (0, 0), BuildingBlock: TEMPAE_clean_linker_10, # of connection points: 2
#     Edge 74, Type (0, 0), BuildingBlock: TEMPAE_clean_linker_10, # of connection points: 2
#     Edge 75, Type (0, 0), BuildingBlock: TEMPAE_clean_linker_10, # of connection points: 2
#     Edge 76, Type (0, 0), BuildingBlock: TEMPAE_clean_linker_10, # of connection points: 2
#     Edge 77, Type (0, 0), BuildingBlock: TEMPAE_clean_linker_10, # of connection points: 2
#     Edge 78, Type (0, 0), BuildingBlock: TEMPAE_clean_linker_10, # of connection points: 2
#     Edge 79, Type (0, 0), BuildingBlock: TEMPAE_clean_linker_10, # of connection points: 2
#     Edge 80, Type (0, 0), BuildingBlock: TEMPAE_clean_linker_10, # of connection points: 2
#     Edge 81, Type (0, 0), BuildingBlock: TEMPAE_clean_linker_10, # of connection points: 2
#     Edge 82, Type (0, 0), BuildingBlock: TEMPAE_clean_linker_10, # of connection points: 2
#     Edge 83, Type (0, 0), BuildingBlock: TEMPAE_clean_linker_10, # of connection points: 2
#     Edge 84, Type (0, 0), BuildingBlock: TEMPAE_clean_linker_10, # of connection points: 2
#     Edge 85, Type (0, 0), BuildingBlock: TEMPAE_clean_linker_10, # of connection points: 2
#     Edge 86, Type (0, 0), BuildingBlock: TEMPAE_clean_linker_10, # of connection points: 2
#     Edge 87, Type (0, 0), BuildingBlock: TEMPAE_clean_linker_10, # of connection points: 2
#     Edge 88, Type (0, 0), BuildingBlock: TEMPAE_clean_linker_10, # of connection points: 2
#     Edge 89, Type (0, 0), BuildingBlock: TEMPAE_clean_linker_10, # of connection points: 2
#     Edge 90, Type (0, 0), BuildingBlock: TEMPAE_clean_linker_10, # of connection points: 2
#     Edge 91, Type (0, 0), BuildingBlock: TEMPAE_clean_linker_10, # of connection points: 2
#     Edge 92, Type (0, 0), BuildingBlock: TEMPAE_clean_linker_10, # of connection points: 2
#     Edge 93, Type (0, 0), BuildingBlock: TEMPAE_clean_linker_10, # of connection points: 2
#     Edge 94, Type (0, 0), BuildingBlock: TEMPAE_clean_linker_10, # of connection points: 2
#     Edge 95, Type (0, 0), BuildingBlock: TEMPAE_clean_linker_10, # of connection points: 2
# Relax obj value: 0.123
# Max RMSD: 0.107
# Mean RMSD: 0.107
data_MOF--net-umv--node1-QUQFOY_clean_sbu_3--edge1-TEMPAE_clean_linker_10
_symmetry_space_group_name_H-M    P1
_symmetry_Int_Tables_number       1
_symmetry_cell_setting            triclinic
loop_
_symmetry_equiv_pos_as_xyz
'x, y, z'
_cell_length_a     109.34191
_cell_length_b     26.773419
_cell_length_c     62.988781
_cell_angle_alpha  89.998647
_cell_angle_beta   89.924772
_cell_angle_gamma 90.018668
loop_
_atom_site_label
_atom_site_type_symbol
_atom_site_fract_x
_atom_site_fract_y
_atom_site_fract_z
_atom_type_partial_charge
C0 C 0.04989 0.04712 0.34801 0.0
O1 O 0.05509 0.08391 0.35692 0.0
Cd2 Cd 0.05791 0.16264 0.34069 0.0
O3 O 0.04548 0.05134 0.32933 0.0
Cd4 Cd 0.04297 0.1197 0.30262 0.0
C5 C 0.0727 0.127 0.29392 0.0
O6 O 0.03844 0.18416 0.3277 0.0
O7 O 0.04524 0.21074 0.29767 0.0
O8 O 0.02169 0.0985 0.3013 0.0
C9 C 0.03987 0.22023 0.31504 0.0
O10 O 0.0723 0.1492 0.3118 0.0
C11 C 0.02023 0.10959 0.28191 0.0
O12 O 0.06313 0.10671 0.28622 0.0
O13 O 0.02987 0.11684 0.27101 0.0
C14 C 0.17839 0.20005 0.33962 0.0
O15 O 0.1708 0.17661 0.35116 0.0
Cd16 Cd 0.1679 0.08926 0.35261 0.0
O17 O 0.18495 0.17692 0.32602 0.0
Cd18 Cd 0.18589 0.08739 0.31492 0.0
C19 C 0.15643 0.06879 0.30294 0.0
O20 O 0.18773 0.05526 0.35061 0.0
O21 O 0.18261 0.00113 0.32693 0.0
O22 O 0.20795 0.08442 0.31208 0.0
C23 C 0.18662 0.00996 0.34543 0.0
O24 O 0.15531 0.06505 0.32297 0.0
C25 C 0.20825 0.06612 0.29355 0.0
O26 O 0.16652 0.08282 0.29472 0.0
O27 O 0.19814 0.06301 0.28371 0.0
C28 C 0.04192 0.1578 0.89433 0.0
O29 O 0.04658 0.11945 0.88569 0.0
Cd30 Cd 0.05035 0.04384 0.9042 0.0
O31 O 0.03824 0.15639 0.91357 0.0
Cd32 Cd 0.03581 0.09321 0.94237 0.0
C33 C 0.06577 0.08896 0.94917 0.0
O34 O 0.03176 0.02186 0.92046 0.0
O35 O 0.03865 0.00502 0.9517 0.0
O36 O 0.01453 0.11363 0.94146 0.0
C37 C 0.03373 -0.0104 0.93471 0.0
O38 O 0.06503 0.06459 0.93183 0.0
C39 C 0.01259 0.10662 0.96107 0.0
O40 O 0.0563 0.10947 0.95724 0.0
O41 O 0.02197 0.10232 0.97291 0.0
C42 C 0.17678 0.01205 0.91101 0.0
O43 O 0.16912 0.03266 0.89869 0.0
Cd44 Cd 0.16483 0.11902 0.89625 0.0
O45 O 0.18244 0.03731 0.9251 0.0
Cd46 Cd 0.18172 0.12646 0.93665 0.0
C47 C 0.15146 0.13934 0.94475 0.0
O48 O 0.18397 0.15767 0.90089 0.0
O49 O 0.17848 0.21217 0.9242 0.0
O50 O 0.20366 0.13017 0.94112 0.0
C51 C 0.1824 0.20299 0.90565 0.0
O52 O 0.15109 0.14105 0.92459 0.0
C53 C 0.20358 0.14823 0.95969 0.0
O54 O 0.16135 0.12834 0.9544 0.0
O55 O 0.19323 0.15193 0.96878 0.0
C56 C 0.94656 0.92217 0.64404 0.0
O57 O 0.94267 0.88521 0.6334 0.0
Cd58 Cd 0.93688 0.80635 0.6469 0.0
O59 O 0.94796 0.91885 0.66415 0.0
Cd60 Cd 0.94524 0.8496 0.69078 0.0
C61 C 0.91501 0.8438 0.68337 0.0
O62 O 0.95332 0.78315 0.66906 0.0
O63 O 0.94169 0.75936 0.69457 0.0
O64 O 0.96447 0.86779 0.70875 0.0
C65 C 0.94934 0.74764 0.68032 0.0
O66 O 0.91789 0.81947 0.6667 0.0
C67 C 0.96046 0.85602 0.727 0.0
O68 O 0.92324 0.86398 0.69483 0.0
O69 O 0.94901 0.84938 0.72871 0.0
C70 C 0.79763 0.75158 0.66653 0.0
O71 O 0.80262 0.77349 0.65091 0.0
Cd72 Cd 0.8047 0.86009 0.64477 0.0
O73 O 0.79347 0.77612 0.68234 0.0
Cd74 Cd 0.79446 0.86707 0.69124 0.0
C75 C 0.82493 0.87952 0.68494 0.0
O76 O 0.78642 0.89635 0.65734 0.0
O77 O 0.79554 0.95098 0.67664 0.0
O78 O 0.77511 0.86109 0.71082 0.0
C79 C 0.78889 0.94175 0.66068 0.0
O80 O 0.82235 0.88444 0.66536 0.0
C81 C 0.77808 0.89313 0.72475 0.0
O82 O 0.81674 0.86683 0.69834 0.0
O83 O 0.78906 0.90846 0.72445 0.0
C84 C 0.94 0.80676 0.10489 0.0
O85 O 0.93692 0.84322 0.1166 0.0
Cd86 Cd 0.93274 0.92625 0.10653 0.0
O87 O 0.94102 0.81219 0.08478 0.0
Cd88 Cd 0.93793 0.88629 0.06094 0.0
C89 C 0.90842 0.903 0.07374 0.0
O90 O 0.94891 0.94471 0.08283 0.0
O91 O 0.93669 0.97787 0.06033 0.0
O92 O 0.95507 0.86936 0.03734 0.0
C93 C 0.94548 0.98352 0.07317 0.0
O94 O 0.9125 0.92521 0.09014 0.0
C95 C 0.94955 0.88582 0.02103 0.0
O96 O 0.91567 0.88077 0.06104 0.0
O97 O 0.93809 0.89213 0.0227 0.0
C98 C 0.77986 0.91496 0.09601 0.0
O99 O 0.78298 0.87883 0.10786 0.0
Cd100 Cd 0.7929 0.80463 0.0968 0.0
O101 O 0.7814 0.91259 0.07592 0.0
Cd102 Cd 0.78889 0.84774 0.05056 0.0
C103 C 0.81734 0.85575 0.06894 0.0
O104 O 0.78121 0.77394 0.06826 0.0
O105 O 0.79613 0.7623 0.04658 0.0
O106 O 0.77138 0.85728 0.0275 0.0
C107 C 0.78782 0.74345 0.05806 0.0
O108 O 0.81319 0.82955 0.08424 0.0
C109 C 0.77738 0.84837 0.01064 0.0
O110 O 0.81023 0.87239 0.05457 0.0
O111 O 0.78896 0.84923 0.01209 0.0
C112 C 0.05297 0.49819 0.83608 0.0
O113 O 0.06078 0.51833 0.84825 0.0
Cd114 Cd 0.06392 0.6046 0.85418 0.0
O115 O 0.0463 0.52484 0.82394 0.0
Cd116 Cd 0.04631 0.61654 0.81696 0.0
C117 C 0.07582 0.63698 0.80638 0.0
O118 O 0.04448 0.6424 0.85381 0.0
O119 O 0.05085 0.69863 0.83195 0.0
O120 O 0.02445 0.62905 0.81371 0.0
C121 C 0.04647 0.68802 0.85005 0.0
O122 O 0.0768 0.63746 0.82648 0.0
C123 C 0.02477 0.64781 0.79527 0.0
O124 O 0.06591 0.62334 0.7975 0.0
O125 O 0.035 0.64726 0.78571 0.0
C126 C 0.19079 0.67658 0.84926 0.0
O127 O 0.18609 0.64029 0.85932 0.0
Cd128 Cd 0.18031 0.56244 0.84514 0.0
O129 O 0.19334 0.67263 0.82951 0.0
Cd130 Cd 0.19204 0.60224 0.80318 0.0
C131 C 0.16182 0.60169 0.80334 0.0
O132 O 0.19756 0.53452 0.82635 0.0
O133 O 0.18659 0.5137 0.79952 0.0
O134 O 0.21302 0.61052 0.79147 0.0
C135 C 0.19339 0.50011 0.81472 0.0
O136 O 0.16344 0.579 0.8209 0.0
C137 C 0.21073 0.59965 0.77229 0.0
O138 O 0.17087 0.61985 0.79318 0.0
O139 O 0.19954 0.59938 0.76689 0.0
C140 C 0.0553 0.7029 0.40827 0.0
O141 O 0.06141 0.67622 0.39542 0.0
Cd142 Cd 0.06319 0.58849 0.39479 0.0
O143 O 0.04947 0.68315 0.42373 0.0
Cd144 Cd 0.04737 0.59532 0.43698 0.0
C145 C 0.07757 0.57389 0.44292 0.0
O146 O 0.04327 0.56071 0.40241 0.0
O147 O 0.04845 0.50724 0.42625 0.0
O148 O 0.02566 0.6037 0.44372 0.0
C149 C 0.04411 0.51557 0.40793 0.0
O150 O 0.07735 0.56814 0.42287 0.0
C151 C 0.02579 0.58473 0.46216 0.0
O152 O 0.0681 0.58899 0.45288 0.0
O153 O 0.03624 0.57569 0.47013 0.0
C154 C 0.18911 0.54086 0.40089 0.0
O155 O 0.18468 0.57877 0.39159 0.0
Cd156 Cd 0.18147 0.65727 0.40767 0.0
O157 O 0.19272 0.54368 0.42015 0.0
Cd158 Cd 0.19459 0.61116 0.44765 0.0
C159 C 0.16436 0.62039 0.45178 0.0
O160 O 0.20016 0.67736 0.42393 0.0
O161 O 0.19204 0.70184 0.45319 0.0
O162 O 0.21579 0.5894 0.45199 0.0
C163 C 0.19781 0.71301 0.43639 0.0
O164 O 0.16568 0.64347 0.43423 0.0
C165 C 0.21632 0.59908 0.47167 0.0
O166 O 0.17346 0.59918 0.46069 0.0
O167 O 0.20618 0.60638 0.48111 0.0
C168 C 0.93453 0.46319 0.1649 0.0
O169 O 0.92845 0.43758 0.15166 0.0
Cd170 Cd 0.9262 0.35018 0.15092 0.0
O171 O 0.93941 0.4429 0.18117 0.0
Cd172 Cd 0.93784 0.35498 0.1945 0.0
C173 C 0.90747 0.34124 0.1935 0.0
O174 O 0.94552 0.31947 0.16172 0.0
O175 O 0.93635 0.26804 0.18238 0.0
O176 O 0.95736 0.35638 0.21364 0.0
C177 C 0.94335 0.2747 0.16661 0.0
O178 O 0.90925 0.33003 0.17411 0.0
C179 C 0.95348 0.32833 0.22846 0.0
O180 O 0.91617 0.35855 0.2047 0.0
O181 O 0.94208 0.31967 0.22891 0.0
C182 C 0.79367 0.2438 0.15517 0.0
O183 O 0.80298 0.25593 0.1443 0.0
Cd184 Cd 0.81066 0.33765 0.13897 0.0
O185 O 0.788 0.27605 0.16634 0.0
Cd186 Cd 0.79226 0.36528 0.17417 0.0
C187 C 0.82171 0.36319 0.18819 0.0
O188 O 0.7936 0.39128 0.13725 0.0
O189 O 0.80037 0.44373 0.16046 0.0
O190 O 0.77119 0.39284 0.17416 0.0
C191 C 0.79698 0.43528 0.14154 0.0
O192 O 0.82349 0.36048 0.16829 0.0
C193 C 0.77098 0.40785 0.19321 0.0
O194 O 0.81102 0.35908 0.19605 0.0
O195 O 0.78045 0.39966 0.20433 0.0
C196 C 0.93491 0.25929 0.58393 0.0
O197 O 0.9283 0.27939 0.5981 0.0
Cd198 Cd 0.92452 0.36555 0.6024 0.0
O199 O 0.93946 0.28511 0.56882 0.0
Cd200 Cd 0.93681 0.37508 0.55861 0.0
C201 C 0.90616 0.38137 0.55941 0.0
O202 O 0.94315 0.40518 0.59343 0.0
O203 O 0.93428 0.4589 0.57338 0.0
O204 O 0.95685 0.37176 0.5408 0.0
C205 C 0.94054 0.4503 0.58986 0.0
O206 O 0.90772 0.3867 0.57929 0.0
C207 C 0.9542 0.40493 0.52716 0.0
O208 O 0.91512 0.36974 0.54741 0.0
O209 O 0.9432 0.41988 0.52679 0.0
C210 C 0.79184 0.40841 0.60984 0.0
O211 O 0.79636 0.37086 0.61926 0.0
Cd212 Cd 0.80036 0.29362 0.60218 0.0
O213 O 0.78877 0.4057 0.59032 0.0
Cd214 Cd 0.78792 0.33987 0.5623 0.0
C215 C 0.81814 0.33235 0.55927 0.0
O216 O 0.78187 0.2725 0.58509 0.0
O217 O 0.78999 0.24968 0.55547 0.0
O218 O 0.7669 0.36229 0.55755 0.0
C219 C 0.78377 0.23814 0.57174 0.0
O220 O 0.81672 0.30861 0.57664 0.0
C221 C 0.76661 0.35314 0.53782 0.0
O222 O 0.80906 0.35323 0.5502 0.0
O223 O 0.77685 0.34692 0.52858 0.0
C224 C 0.55028 0.03521 0.84507 0.0
O225 O 0.55539 0.07326 0.85314 0.0
Cd226 Cd 0.55673 0.15206 0.83616 0.0
O227 O 0.54502 0.03797 0.82702 0.0
Cd228 Cd 0.54046 0.10392 0.80026 0.0
C229 C 0.56973 0.1158 0.78785 0.0
O230 O 0.53677 0.17051 0.82482 0.0
O231 O 0.54191 0.19422 0.79339 0.0
O232 O 0.51935 0.08041 0.80303 0.0
C233 C 0.53755 0.20545 0.81142 0.0
O234 O 0.56982 0.13946 0.8054 0.0
C235 C 0.51673 0.08879 0.78376 0.0
O236 O 0.56016 0.09263 0.7817 0.0
O237 O 0.52568 0.09578 0.77114 0.0
C238 C 0.67723 0.21358 0.83235 0.0
O239 O 0.67029 0.19201 0.84566 0.0
Cd240 Cd 0.66719 0.10545 0.85014 0.0
O241 O 0.68324 0.18841 0.81865 0.0
Cd242 Cd 0.68432 0.09733 0.80997 0.0
C243 C 0.65426 0.07926 0.80167 0.0
O244 O 0.6867 0.06946 0.84636 0.0
O245 O 0.68139 0.01287 0.82386 0.0
O246 O 0.70636 0.09645 0.80576 0.0
C247 C 0.68527 0.02367 0.84226 0.0
O248 O 0.65379 0.08 0.82185 0.0
C249 C 0.70649 0.07651 0.78752 0.0
O250 O 0.66421 0.08949 0.79197 0.0
O251 O 0.6962 0.07039 0.77851 0.0
C252 C 0.54505 0.22141 0.41357 0.0
O253 O 0.54891 0.19489 0.39827 0.0
Cd254 Cd 0.55008 0.1072 0.39513 0.0
O255 O 0.54134 0.20152 0.43085 0.0
Cd256 Cd 0.54118 0.11294 0.44323 0.0
C257 C 0.57129 0.09529 0.43441 0.0
O258 O 0.53203 0.0784 0.41142 0.0
O259 O 0.5409 0.02572 0.43191 0.0
O260 O 0.52258 0.12238 0.46448 0.0
C261 C 0.53415 0.0333 0.41592 0.0
O262 O 0.56824 0.08633 0.41529 0.0
C263 C 0.52652 0.09625 0.47986 0.0
O264 O 0.56348 0.11115 0.44785 0.0
O265 O 0.53768 0.08331 0.47917 0.0
C266 C 0.68907 0.02281 0.39454 0.0
O267 O 0.68456 0.05476 0.3819 0.0
Cd268 Cd 0.68191 0.14104 0.38651 0.0
O269 O 0.69262 0.03543 0.41311 0.0
Cd270 Cd 0.69132 0.11835 0.43154 0.0
C271 C 0.66099 0.13004 0.42615 0.0
O272 O 0.70039 0.16529 0.40302 0.0
O273 O 0.68962 0.20863 0.4246 0.0
O274 O 0.70978 0.11207 0.45338 0.0
C275 C 0.69747 0.20791 0.4098 0.0
O276 O 0.66347 0.14852 0.40803 0.0
C277 C 0.70486 0.13425 0.46906 0.0
O278 O 0.66937 0.11083 0.4375 0.0
O279 O 0.69338 0.14068 0.46832 0.0
C280 C 0.44394 0.95024 0.15209 0.0
O281 O 0.44018 0.92633 0.136 0.0
Cd282 Cd 0.43188 0.84539 0.13529 0.0
O283 O 0.44363 0.93144 0.17072 0.0
Cd284 Cd 0.43775 0.84696 0.18461 0.0
C285 C 0.40827 0.85831 0.1716 0.0
O286 O 0.44673 0.80263 0.15518 0.0
O287 O 0.43407 0.76003 0.17389 0.0
O288 O 0.45546 0.84704 0.20816 0.0
C289 C 0.44223 0.76055 0.15962 0.0
O290 O 0.41196 0.8483 0.15288 0.0
C291 C 0.45035 0.82034 0.22228 0.0
O292 O 0.41587 0.86489 0.18665 0.0
O293 O 0.43899 0.81207 0.22014 0.0
C294 C 0.28653 0.80171 0.14203 0.0
O295 O 0.28935 0.83946 0.13086 0.0
Cd296 Cd 0.29336 0.92146 0.14298 0.0
O297 O 0.28544 0.80546 0.16218 0.0
Cd298 Cd 0.28754 0.87617 0.18803 0.0
C299 C 0.31719 0.89346 0.17672 0.0
O300 O 0.27731 0.93877 0.16702 0.0
O301 O 0.28912 0.96708 0.19138 0.0
O302 O 0.26958 0.8525 0.20856 0.0
C303 C 0.28086 0.9758 0.17781 0.0
O304 O 0.31324 0.91705 0.16055 0.0
C305 C 0.27414 0.8662 0.22616 0.0
O306 O 0.30986 0.87006 0.18893 0.0
O307 O 0.28551 0.87589 0.22632 0.0
C308 C 0.44036 0.72045 0.58701 0.0
O309 O 0.43041 0.73082 0.59636 0.0
Cd310 Cd 0.4197 0.80655 0.59535 0.0
O311 O 0.44555 0.75176 0.57466 0.0
Cd312 Cd 0.43998 0.83785 0.56212 0.0
C313 C 0.41206 0.81118 0.5425 0.0
O314 O 0.43508 0.86876 0.59725 0.0
O315 O 0.42981 0.91643 0.57121 0.0
O316 O 0.46057 0.87166 0.56475 0.0
C317 C 0.43142 0.91105 0.591 0.0
O318 O 0.40917 0.80597 0.56192 0.0
C319 C 0.46163 0.88328 0.54535 0.0
O320 O 0.42298 0.82182 0.53708 0.0
O321 O 0.45292 0.87062 0.53315 0.0
C322 C 0.29922 0.00293 0.56182 0.0
O323 O 0.30643 -0.00739 0.57693 0.0
Cd324 Cd 0.31367 0.91384 0.58677 0.0
O325 O 0.29528 0.96898 0.54936 0.0
Cd326 Cd 0.30035 0.87716 0.54757 0.0
C327 C 0.33045 0.89071 0.54192 0.0
O328 O 0.29682 0.85801 0.58518 0.0
O329 O 0.30813 0.8065 0.56785 0.0
O330 O 0.27965 0.85785 0.53435 0.0
C331 C 0.30169 0.81529 0.58413 0.0
O332 O 0.32994 0.89681 0.56193 0.0
C333 C 0.28311 0.82126 0.52303 0.0
O334 O 0.32067 0.8866 0.5311 0.0
O335 O 0.29453 0.81418 0.5215 0.0
C336 C 0.5429 0.57058 0.36008 0.0
O337 O 0.54792 0.60743 0.36926 0.0
Cd338 Cd 0.55112 0.68531 0.35225 0.0
O339 O 0.53911 0.57429 0.34098 0.0
Cd340 Cd 0.53765 0.63945 0.31294 0.0
C341 C 0.56799 0.64568 0.30861 0.0
O342 O 0.53196 0.70453 0.33681 0.0
O343 O 0.53892 0.73048 0.30675 0.0
O344 O 0.51669 0.61381 0.30943 0.0
C345 C 0.53313 0.73992 0.32373 0.0
O346 O 0.567 0.66989 0.32593 0.0
C347 C 0.51593 0.62207 0.28967 0.0
O348 O 0.55864 0.62551 0.30007 0.0
O349 O 0.52589 0.63093 0.2799 0.0
C350 C 0.68495 0.67391 0.33772 0.0
O351 O 0.68061 0.64036 0.3498 0.0
Cd352 Cd 0.67758 0.55592 0.34091 0.0
O353 O 0.68768 0.66437 0.31839 0.0
Cd354 Cd 0.68636 0.58817 0.29538 0.0
C355 C 0.656 0.57296 0.30191 0.0
O356 O 0.69588 0.53838 0.32216 0.0
O357 O 0.68714 0.4959 0.29764 0.0
O358 O 0.70495 0.61347 0.27673 0.0
C359 C 0.69439 0.49665 0.31331 0.0
O360 O 0.65892 0.55481 0.31989 0.0
C361 C 0.70186 0.59353 0.25926 0.0
O362 O 0.66412 0.59207 0.28988 0.0
O363 O 0.69096 0.57756 0.25793 0.0
C364 C 0.56098 0.69195 0.90412 0.0
O365 O 0.56766 0.66659 0.89166 0.0
Cd366 Cd 0.56944 0.57871 0.89067 0.0
O367 O 0.55469 0.67059 0.91859 0.0
Cd368 Cd 0.55233 0.58187 0.93006 0.0
C369 C 0.58186 0.55882 0.93996 0.0
O370 O 0.54929 0.54908 0.89472 0.0
O371 O 0.5541 0.4947 0.91849 0.0
O372 O 0.53041 0.58902 0.9338 0.0
C373 C 0.54992 0.50378 0.90013 0.0
O374 O 0.58243 0.55472 0.91986 0.0
C375 C 0.52976 0.56885 0.95195 0.0
O376 O 0.57209 0.574 0.94893 0.0
O377 O 0.53981 0.55994 0.96134 0.0
C378 C 0.68829 0.55546 0.88936 0.0
O379 O 0.68321 0.59343 0.88118 0.0
Cd380 Cd 0.67974 0.66851 0.90025 0.0
O381 O 0.69253 0.55721 0.90822 0.0
Cd382 Cd 0.69547 0.62057 0.93672 0.0
C383 C 0.66589 0.62159 0.94644 0.0
O384 O 0.69873 0.69211 0.91455 0.0
O385 O 0.69226 0.70878 0.94609 0.0
O386 O 0.71678 0.60131 0.93414 0.0
C387 C 0.69693 0.7243 0.92889 0.0
O388 O 0.66598 0.64639 0.92916 0.0
C389 C 0.71917 0.60903 0.95354 0.0
O390 O 0.67567 0.60169 0.95351 0.0
O391 O 0.71008 0.61291 0.96608 0.0
C392 C 0.44986 0.39906 0.65109 0.0
O393 O 0.44637 0.36786 0.63721 0.0
Cd394 Cd 0.43442 0.29583 0.64346 0.0
O395 O 0.44765 0.39177 0.67077 0.0
Cd396 Cd 0.43889 0.32083 0.69202 0.0
C397 C 0.4107 0.34248 0.67516 0.0
O398 O 0.44518 0.25186 0.66959 0.0
O399 O 0.42996 0.23754 0.69036 0.0
O400 O 0.45722 0.32185 0.71355 0.0
C401 C 0.43784 0.22049 0.67754 0.0
O402 O 0.41476 0.32206 0.65827 0.0
C403 C 0.45196 0.30674 0.73032 0.0
O404 O 0.41784 0.35199 0.69064 0.0
O405 O 0.44035 0.30548 0.73014 0.0
C406 C 0.28957 0.33502 0.61939 0.0
O407 O 0.29365 0.37256 0.60931 0.0
Cd408 Cd 0.30036 0.44817 0.62559 0.0
O409 O 0.28828 0.33653 0.63952 0.0
Cd410 Cd 0.29038 0.40037 0.66811 0.0
C411 C 0.32074 0.40471 0.6638 0.0
O412 O 0.28422 0.47307 0.64809 0.0
O413 O 0.29414 0.4879 0.67691 0.0
O414 O 0.26978 0.38162 0.67875 0.0
C415 C 0.28787 0.50471 0.66161 0.0
O416 O 0.3184 0.42998 0.64713 0.0
C417 C 0.27169 0.38606 0.69851 0.0
O418 O 0.31216 0.38399 0.67437 0.0
O419 O 0.28278 0.38945 0.70438 0.0
C420 C 0.44712 0.2817 0.08779 0.0
O421 O 0.44331 0.31345 0.10118 0.0
Cd422 Cd 0.43545 0.39277 0.09314 0.0
O423 O 0.44737 0.29141 0.06792 0.0
Cd424 Cd 0.44332 0.36855 0.04622 0.0
C425 C 0.41335 0.36451 0.05521 0.0
O426 O 0.45138 0.42518 0.07222 0.0
O427 O 0.43936 0.45899 0.04962 0.0
O428 O 0.46249 0.35536 0.02717 0.0
C429 C 0.4471 0.46472 0.06433 0.0
O430 O 0.41644 0.38154 0.07332 0.0
C431 C 0.45893 0.37737 0.01044 0.0
O432 O 0.42145 0.35165 0.04171 0.0
O433 O 0.44765 0.38818 0.00929 0.0
C434 C 0.29663 0.45831 0.08415 0.0
O435 O 0.30279 0.43484 0.09798 0.0
Cd436 Cd 0.30498 0.34717 0.10049 0.0
O437 O 0.29178 0.43555 0.06846 0.0
Cd438 Cd 0.29307 0.34674 0.05642 0.0
C439 C 0.32358 0.33219 0.05802 0.0
O440 O 0.28574 0.31473 0.09022 0.0
O441 O 0.29385 0.26062 0.06937 0.0
O442 O 0.27332 0.35654 0.03833 0.0
C443 C 0.28749 0.26936 0.08576 0.0
O444 O 0.32177 0.32332 0.07761 0.0
C445 C 0.27579 0.32531 0.02378 0.0
O446 O 0.31496 0.34854 0.04633 0.0
O447 O 0.28666 0.3089 0.0231 0.0
C448 C 0.09457 0.15034 0.29111 0.0
C449 C 0.08481 0.12133 0.28365 0.0
C450 C 0.10666 0.13818 0.28618 0.0
C451 C 0.10909 0.09652 0.27295 0.0
C452 C 0.09923 0.07151 0.26293 0.0
C453 C 0.08713 0.08381 0.26862 0.0
C454 C 0.1168 0.16671 0.29712 0.0
C455 C 0.10134 0.02936 0.2475 0.0
C456 C 0.14334 0.08952 0.27136 0.0
C457 C 0.14529 0.062 0.29 0.0
C458 C 0.13145 0.09497 0.26312 0.0
C459 C 0.12145 0.07353 0.27418 0.0
C460 C 0.12371 0.03958 0.29096 0.0
C461 C 0.13564 0.03402 0.29855 0.0
C462 C 0.1295 0.12772 0.24397 0.0
C463 C 0.11341 0.01431 0.30284 0.0
H464 H 0.09282 0.18062 0.30214 0.0
H465 H 0.07962 0.06198 0.26231 0.0
H466 H 0.12172 0.14164 0.30825 0.0
H467 H 0.12352 0.18051 0.28532 0.0
H468 H 0.11333 0.19925 0.30626 0.0
H469 H 0.09449 0.03079 0.23451 0.0
H470 H 0.11065 0.03049 0.24046 0.0
H471 H 0.10012 -0.00686 0.25579 0.0
H472 H 0.15084 0.11016 0.26429 0.0
H473 H 0.13721 0.01111 0.31248 0.0
H474 H 0.12851 0.16714 0.2491 0.0
H475 H 0.12111 0.11685 0.23519 0.0
H476 H 0.13748 0.12567 0.23306 0.0
H477 H 0.10801 0.04271 0.31162 0.0
H478 H 0.1168 -0.01375 0.31442 0.0
H479 H 0.10717 -0.00468 0.29159 0.0
C480 C 0.13685 0.11881 0.9744 0.0
C481 C 0.13977 0.14649 0.95619 0.0
C482 C 0.1246 0.11462 0.98116 0.0
C483 C 0.11523 0.13776 0.96913 0.0
C484 C 0.11843 0.17126 0.95265 0.0
C485 C 0.13067 0.17534 0.94648 0.0
C486 C 0.12161 0.08155 -0.00018 0.0
C487 C 0.10882 0.19784 0.93964 0.0
C488 C 0.08771 0.06577 0.95098 0.0
C489 C 0.07808 0.09531 0.95866 0.0
C490 C 0.09987 0.07661 0.95595 0.0
C491 C 0.10254 0.11757 0.9694 0.0
C492 C 0.09282 0.14393 0.97924 0.0
C493 C 0.08064 0.13284 0.97357 0.0
C494 C 0.10986 0.047 0.94507 0.0
C495 C 0.09518 0.18598 0.99461 0.0
H496 H 0.1439 0.09723 0.98227 0.0
H497 H 0.13298 0.19809 0.9328 0.0
H498 H 0.11337 0.09514 0.00836 0.0
H499 H 0.11973 0.04311 0.99414 0.0
H500 H 0.1294 0.07968 0.01111 0.0
H501 H 0.11287 0.22605 0.92877 0.0
H502 H 0.10372 0.17019 0.92996 0.0
H503 H 0.10216 0.21688 0.95015 0.0
H504 H 0.08581 0.03562 0.93997 0.0
H505 H 0.07325 0.15522 0.97996 0.0
H506 H 0.11645 0.0325 0.9569 0.0
H507 H 0.11498 0.07159 0.93399 0.0
H508 H 0.1062 0.01487 0.93589 0.0
H509 H 0.1042 0.18224 0.00251 0.0
H510 H 0.08792 0.18737 0.00694 0.0
H511 H 0.09498 0.22206 0.98596 0.0
C512 C 0.89319 0.81922 0.67875 0.0
C513 C 0.9019 0.84942 0.68885 0.0
C514 C 0.88065 0.8263 0.68217 0.0
C515 C 0.87667 0.86478 0.69595 0.0
C516 C 0.8854 0.89398 0.70698 0.0
C517 C 0.89794 0.88586 0.70333 0.0
C518 C 0.87166 0.794 0.67019 0.0
C519 C 0.8815 0.93527 0.72181 0.0
C520 C 0.84585 0.9123 0.67843 0.0
C521 C 0.83791 0.88419 0.6912 0.0
C522 C 0.85854 0.90943 0.68103 0.0
C523 C 0.86343 0.87738 0.69673 0.0
C524 C 0.85545 0.8521 0.71085 0.0
C525 C 0.84272 0.85594 0.70796 0.0
C526 C 0.8667 0.93753 0.66577 0.0
C527 C 0.86032 0.8179 0.72789 0.0
H528 H 0.89615 0.79047 0.66777 0.0
H529 H 0.90462 0.90923 0.71127 0.0
H530 H 0.86486 0.77764 0.68128 0.0
H531 H 0.86658 0.81721 0.65858 0.0
H532 H 0.87623 0.76314 0.66146 0.0
H533 H 0.88926 0.94968 0.73139 0.0
H534 H 0.87766 0.96664 0.71244 0.0
H535 H 0.87421 0.92205 0.73271 0.0
H536 H 0.84215 0.93483 0.66565 0.0
H537 H 0.83661 0.8342 0.7179 0.0
H538 H 0.87102 0.91076 0.6546 0.0
H539 H 0.87414 0.95688 0.67443 0.0
H540 H 0.86154 0.96559 0.65635 0.0
H541 H 0.86356 0.78268 0.72049 0.0
H542 H 0.8532 0.80848 0.73984 0.0
H543 H 0.86823 0.83514 0.73611 0.0
C544 C 0.89003 0.86827 0.05516 0.0
C545 C 0.89505 0.90149 0.07001 0.0
C546 C 0.87731 0.86341 0.05296 0.0
C547 C 0.86946 0.89275 0.06578 0.0
C548 C 0.87448 0.92813 0.08 0.0
C549 C 0.88721 0.93192 0.08201 0.0
C550 C 0.87228 0.82512 0.03768 0.0
C551 C 0.86641 0.96045 0.09379 0.0
C552 C 0.83549 0.9 0.05323 0.0
C553 C 0.83066 0.86559 0.0678 0.0
C554 C 0.84814 0.90915 0.05223 0.0
C555 C 0.8561 0.88294 0.066 0.0
C556 C 0.85128 0.8478 0.08055 0.0
C557 C 0.83864 0.83974 0.08134 0.0
C558 C 0.85297 0.94716 0.03663 0.0
C559 C 0.85947 0.81879 0.0954 0.0
H560 H 0.89602 0.84475 0.04577 0.0
H561 H 0.89101 0.95815 0.09333 0.0
H562 H 0.86788 0.79443 0.04673 0.0
H563 H 0.86517 0.84207 0.02743 0.0
H564 H 0.87952 0.80885 0.02741 0.0
H565 H 0.87169 -0.01046 0.1024 0.0
H566 H 0.8593 0.97903 0.08405 0.0
H567 H 0.86163 0.9368 0.10565 0.0
H568 H 0.82939 0.92012 0.04272 0.0
H569 H 0.83502 0.81277 0.09254 0.0
H570 H 0.85983 0.9296 0.026 0.0
H571 H 0.85768 0.97769 0.04529 0.0
H572 H 0.8456 0.96367 0.02674 0.0
H573 H 0.86646 0.79795 0.08617 0.0
H574 H 0.8543 0.79181 0.10536 0.0
H575 H 0.86442 0.84491 0.10604 0.0
C576 C 0.09517 0.68301 0.80179 0.0
C577 C 0.08696 0.64735 0.794 0.0
C578 C 0.10752 0.68173 0.79601 0.0
C579 C 0.11168 0.64348 0.78228 0.0
C580 C 0.10305 0.61289 0.77167 0.0
C581 C 0.09068 0.61498 0.77777 0.0
C582 C 0.11632 0.71639 0.80712 0.0
C583 C 0.10708 0.57365 0.75601 0.0
C584 C 0.14637 0.63915 0.77823 0.0
C585 C 0.14914 0.60792 0.79548 0.0
C586 C 0.13414 0.64849 0.77245 0.0
C587 C 0.12456 0.62661 0.78443 0.0
C588 C 0.12738 0.59265 0.80096 0.0
C589 C 0.13959 0.58362 0.80616 0.0
C590 C 0.13159 0.68366 0.75429 0.0
C591 C 0.1175 0.568 0.81416 0.0
H592 H 0.09218 0.70886 0.814 0.0
H593 H 0.08428 0.58782 0.7715 0.0
H594 H 0.12116 0.69557 0.81983 0.0
H595 H 0.12329 0.73066 0.79587 0.0
H596 H 0.11155 0.74869 0.81448 0.0
H597 H 0.09949 0.56286 0.74523 0.0
H598 H 0.11494 0.58707 0.74639 0.0
H599 H 0.11007 0.53979 0.76474 0.0
H600 H 0.1537 0.65756 0.76967 0.0
H601 H 0.14161 0.55857 0.81922 0.0
H602 H 0.13134 0.72254 0.76037 0.0
H603 H 0.1227 0.67554 0.74657 0.0
H604 H 0.13896 0.68159 0.74216 0.0
H605 H 0.11226 0.59685 0.82297 0.0
H606 H 0.12128 0.54106 0.82586 0.0
H607 H 0.111 0.54776 0.80378 0.0
C608 C 0.0988 0.54123 0.4433 0.0
C609 C 0.08952 0.56791 0.45369 0.0
C610 C 0.11102 0.5456 0.44953 0.0
C611 C 0.11405 0.57695 0.46684 0.0
C612 C 0.10457 0.59856 0.47916 0.0
C613 C 0.09235 0.59415 0.47232 0.0
C614 C 0.12076 0.52122 0.436 0.0
C615 C 0.10738 0.62995 0.49841 0.0
C616 C 0.14847 0.57696 0.47429 0.0
C617 C 0.15177 0.61558 0.46035 0.0
C618 C 0.13606 0.56682 0.47861 0.0
C619 C 0.12686 0.59546 0.46847 0.0
C620 C 0.13024 0.63746 0.45613 0.0
C621 C 0.14262 0.64715 0.45239 0.0
C622 C 0.13286 0.52325 0.49273 0.0
C623 C 0.12081 0.66947 0.44506 0.0
H624 H 0.09662 0.51965 0.42923 0.0
H625 H 0.0852 0.61419 0.48068 0.0
H626 H 0.12581 0.55037 0.42702 0.0
H627 H 0.12745 0.50123 0.44608 0.0
H628 H 0.11684 0.49427 0.42444 0.0
H629 H 0.09949 0.63081 0.50955 0.0
H630 H 0.11554 0.61571 0.50693 0.0
H631 H 0.1093 0.66887 0.49337 0.0
H632 H 0.15549 0.55286 0.48081 0.0
H633 H 0.1451 0.67799 0.44208 0.0
H634 H 0.13189 0.48909 0.48292 0.0
H635 H 0.1241 0.52955 0.50122 0.0
H636 H 0.14019 0.51628 0.50457 0.0
H637 H 0.1161 0.64709 0.43268 0.0
H638 H 0.12493 0.70278 0.43734 0.0
H639 H 0.11378 0.68235 0.45649 0.0
C640 C 0.88597 0.31227 0.19044 0.0
C641 C 0.8949 0.33781 0.2021 0.0
C642 C 0.87359 0.31617 0.19564 0.0
C643 C 0.87 0.34612 0.21313 0.0
C644 C 0.87905 0.3676 0.22636 0.0
C645 C 0.89145 0.36345 0.2206 0.0
C646 C 0.8643 0.29192 0.18115 0.0
C647 C 0.87569 0.39804 0.24564 0.0
C648 C 0.84106 0.40626 0.19546 0.0
C649 C 0.83255 0.37 0.2016 0.0
C650 C 0.85327 0.40295 0.20181 0.0
C651 C 0.85701 0.36202 0.21447 0.0
C652 C 0.84807 0.32976 0.22332 0.0
C653 C 0.83584 0.3339 0.21662 0.0
C654 C 0.8624 0.4391 0.1924 0.0
C655 C 0.85163 0.2874 0.23781 0.0
H656 H 0.8886 0.29124 0.17644 0.0
H657 H 0.89832 0.38261 0.22994 0.0
H658 H 0.85766 0.26966 0.19051 0.0
H659 H 0.8591 0.32121 0.17256 0.0
H660 H 0.86863 0.26697 0.16922 0.0
H661 H 0.88296 0.39579 0.2579 0.0
H662 H 0.87473 0.43781 0.24101 0.0
H663 H 0.8669 0.38554 0.25271 0.0
H664 H 0.8384 0.43453 0.18402 0.0
H665 H 0.82921 0.306 0.22144 0.0
H666 H 0.86771 0.42004 0.17974 0.0
H667 H 0.86895 0.45194 0.20465 0.0
H668 H 0.85786 0.47232 0.18535 0.0
H669 H 0.85448 0.2548 0.22813 0.0
H670 H 0.84381 0.27569 0.24794 0.0
H671 H 0.85943 0.29806 0.24812 0.0
C672 C 0.88984 0.35838 0.53304 0.0
C673 C 0.89353 0.38487 0.55115 0.0
C674 C 0.87733 0.35304 0.52818 0.0
C675 C 0.86845 0.37443 0.54184 0.0
C676 C 0.87225 0.40545 0.55879 0.0
C677 C 0.88472 0.41033 0.56318 0.0
C678 C 0.87366 0.32112 0.50953 0.0
C679 C 0.86314 0.42952 0.57367 0.0
C680 C 0.83388 0.37608 0.53666 0.0
C681 C 0.83073 0.33767 0.55081 0.0
C682 C 0.84623 0.38597 0.5318 0.0
C683 C 0.85553 0.35702 0.54148 0.0
C684 C 0.85228 0.31551 0.55422 0.0
C685 C 0.83995 0.30632 0.55865 0.0
C686 C 0.8493 0.42954 0.51758 0.0
C687 C 0.86185 0.28325 0.56477 0.0
H688 H 0.89661 0.33909 0.52352 0.0
H689 H 0.88754 0.4319 0.5769 0.0
H690 H 0.87152 0.28283 0.51515 0.0
H691 H 0.86535 0.33615 0.5017 0.0
H692 H 0.88114 0.31846 0.49763 0.0
H693 H 0.86753 0.45679 0.58455 0.0
H694 H 0.85589 0.44903 0.56459 0.0
H695 H 0.85864 0.40022 0.58341 0.0
H696 H 0.82679 0.40009 0.5303 0.0
H697 H 0.83758 0.27577 0.56918 0.0
H698 H 0.85744 0.42139 0.50765 0.0
H699 H 0.85143 0.46266 0.52749 0.0
H700 H 0.84151 0.43926 0.50706 0.0
H701 H 0.86874 0.27063 0.55301 0.0
H702 H 0.85782 0.2498 0.57253 0.0
H703 H 0.86672 0.30539 0.57703 0.0
C704 C 0.64089 0.08719 0.76917 0.0
C705 C 0.64265 0.07071 0.7901 0.0
C706 C 0.62906 0.08902 0.76035 0.0
C707 C 0.61886 0.07517 0.77297 0.0
C708 C 0.62082 0.05349 0.79321 0.0
C709 C 0.63268 0.05098 0.80133 0.0
C710 C 0.62753 0.10912 0.73816 0.0
C711 C 0.61032 0.03769 0.80736 0.0
C712 C 0.59028 0.14908 0.77955 0.0
C713 C 0.58148 0.11178 0.77634 0.0
C714 C 0.60265 0.14004 0.77552 0.0
C715 C 0.60628 0.0926 0.76783 0.0
C716 C 0.59723 0.05819 0.76109 0.0
C717 C 0.58484 0.06788 0.76568 0.0
C718 C 0.61191 0.17879 0.7823 0.0
C719 C 0.60069 0.00905 0.75109 0.0
H720 H 0.64859 0.10146 0.76016 0.0
H721 H 0.63402 0.03656 0.81724 0.0
H722 H 0.61865 0.09803 0.73105 0.0
H723 H 0.62806 0.15049 0.73851 0.0
H724 H 0.63506 0.09568 0.72778 0.0
H725 H 0.61349 0.02006 0.82234 0.0
H726 H 0.60466 0.07071 0.81152 0.0
H727 H 0.60436 0.01069 0.79898 0.0
H728 H 0.58762 0.18386 0.7871 0.0
H729 H 0.57803 0.03934 0.76265 0.0
H730 H 0.61871 0.18504 0.76953 0.0
H731 H 0.6169 0.16534 0.79653 0.0
H732 H 0.60756 0.21514 0.78623 0.0
H733 H 0.60929 0.01243 0.74181 0.0
H734 H 0.59329 -0.0047 0.74051 0.0
H735 H 0.60212 0.9807 0.76368 0.0
C736 C 0.63924 0.15656 0.42275 0.0
C737 C 0.64809 0.12781 0.43319 0.0
C738 C 0.62679 0.15048 0.42719 0.0
C739 C 0.62308 0.11447 0.44235 0.0
C740 C 0.63198 0.08739 0.45387 0.0
C741 C 0.64443 0.0945 0.44919 0.0
C742 C 0.61758 0.18061 0.41474 0.0
C743 C 0.62837 0.04879 0.47017 0.0
C744 C 0.58935 0.12344 0.45565 0.0
C745 C 0.58438 0.09228 0.43998 0.0
C746 C 0.60208 0.12853 0.45778 0.0
C747 C 0.60991 0.1015 0.44403 0.0
C748 C 0.60491 0.06666 0.42954 0.0
C749 C 0.5922 0.06266 0.42764 0.0
C750 C 0.60709 0.16575 0.47352 0.0
C751 C 0.61294 0.03646 0.41483 0.0
H752 H 0.64202 0.18289 0.41059 0.0
H753 H 0.65123 0.07225 0.45738 0.0
H754 H 0.61243 0.15554 0.40392 0.0
H755 H 0.61086 0.19825 0.42561 0.0
H756 H 0.62197 0.21033 0.40506 0.0
H757 H 0.63625 0.03713 0.48012 0.0
H758 H 0.62102 0.06327 0.48067 0.0
H759 H 0.62471 0.01529 0.46198 0.0
H760 H 0.58333 0.14635 0.46526 0.0
H761 H 0.58838 0.03793 0.41573 0.0
H762 H 0.61008 0.19984 0.46494 0.0
H763 H 0.61519 0.15038 0.48185 0.0
H764 H 0.60012 0.17671 0.4855 0.0
H765 H 0.61709 0.06153 0.40277 0.0
H766 H 0.60774 0.0068 0.40643 0.0
H767 H 0.62052 0.01878 0.42377 0.0
C768 C 0.3382 0.92696 0.17085 0.0
C769 C 0.33053 0.89155 0.18047 0.0
C770 C 0.35094 0.92299 0.17223 0.0
C771 C 0.35617 0.88222 0.18326 0.0
C772 C 0.3485 0.84764 0.19388 0.0
C773 C 0.33574 0.85291 0.19248 0.0
C774 C 0.35881 0.96106 0.16094 0.0
C775 C 0.35374 0.8035 0.20567 0.0
C776 C 0.38673 0.84115 0.16109 0.0
C777 C 0.39497 0.86221 0.17559 0.0
C778 C 0.37408 0.84587 0.16392 0.0
C779 C 0.36953 0.87295 0.18153 0.0
C780 C 0.37777 0.89344 0.19651 0.0
C781 C 0.39043 0.88752 0.19344 0.0
C782 C 0.36559 0.82289 0.14771 0.0
C783 C 0.37324 0.92296 0.21535 0.0
H784 H 0.33423 0.95733 0.1618 0.0
H785 H 0.32986 0.82546 0.19997 0.0
H786 H 0.36608 0.97507 0.17167 0.0
H787 H 0.36339 0.94327 0.14715 0.0
H788 H 0.3534 -0.00662 0.15511 0.0
H789 H 0.34668 0.78345 0.21508 0.0
H790 H 0.3578 0.77692 0.19414 0.0
H791 H 0.36116 0.81566 0.21649 0.0
H792 H 0.39016 0.82099 0.14741 0.0
H793 H 0.39676 0.90389 0.20469 0.0
H794 H 0.3605 0.85278 0.13932 0.0
H795 H 0.35875 0.79869 0.15571 0.0
H796 H 0.37057 0.80023 0.13573 0.0
H797 H 0.36872 0.95765 0.20976 0.0
H798 H 0.38076 0.93335 0.22634 0.0
H799 H 0.3663 0.9012 0.22428 0.0
C800 C 0.34423 0.86319 0.51198 0.0
C801 C 0.34265 0.8856 0.53194 0.0
C802 C 0.356 0.85055 0.50459 0.0
C803 C 0.36629 0.85989 0.51768 0.0
C804 C 0.36474 0.88645 0.53698 0.0
C805 C 0.35299 0.89925 0.54371 0.0
C806 C 0.35721 0.82466 0.48344 0.0
C807 C 0.37538 0.89795 0.55154 0.0
C808 C 0.39237 0.77727 0.53033 0.0
C809 C 0.40198 0.81095 0.52705 0.0
C810 C 0.38049 0.78892 0.52374 0.0
C811 C 0.3783 0.83546 0.51378 0.0
C812 C 0.38835 0.86445 0.50671 0.0
C813 C 0.40019 0.85209 0.51366 0.0
C814 C 0.37012 0.7555 0.53072 0.0
C815 C 0.38642 0.91221 0.49452 0.0
H816 H 0.33629 0.85324 0.5026 0.0
H817 H 0.35187 0.91785 0.55888 0.0
H818 H 0.36657 0.8279 0.47676 0.0
H819 H 0.35498 0.78449 0.48538 0.0
H820 H 0.35059 0.84043 0.47188 0.0
H821 H 0.37258 0.9199 0.5657 0.0
H822 H 0.37962 0.86267 0.55711 0.0
H823 H 0.38248 0.91948 0.54291 0.0
H824 H 0.39385 0.74478 0.54029 0.0
H825 H 0.40768 0.87782 0.51079 0.0
H826 H 0.36331 0.75133 0.51782 0.0
H827 H 0.36542 0.77255 0.54457 0.0
H828 H 0.3734 0.7178 0.53539 0.0
H829 H 0.3784 0.90908 0.4838 0.0
H830 H 0.39464 0.92195 0.48501 0.0
H831 H 0.38466 0.94321 0.50581 0.0
C832 C 0.63411 0.55379 0.3096 0.0
C833 C 0.64285 0.57568 0.29619 0.0
C834 C 0.6216 0.56266 0.30678 0.0
C835 C 0.61767 0.5939 0.28999 0.0
C836 C 0.62634 0.61253 0.27525 0.0
C837 C 0.63886 0.60342 0.27858 0.0
C838 C 0.61268 0.54179 0.32285 0.0
C839 C 0.62248 0.64487 0.25683 0.0
C840 C 0.58303 0.598 0.28609 0.0
C841 C 0.58043 0.6379 0.29982 0.0
C842 C 0.59521 0.58536 0.28116 0.0
C843 C 0.6049 0.61313 0.29028 0.0
C844 C 0.60225 0.6559 0.30265 0.0
C845 C 0.59007 0.66779 0.30719 0.0
C846 C 0.59767 0.54028 0.26744 0.0
C847 C 0.61228 0.68688 0.3126 0.0
H848 H 0.63705 0.53154 0.32303 0.0
H849 H 0.64553 0.61998 0.26795 0.0
H850 H 0.60889 0.57275 0.33256 0.0
H851 H 0.60491 0.52331 0.31474 0.0
H852 H 0.61704 0.51437 0.33369 0.0
H853 H 0.62971 0.64692 0.24444 0.0
H854 H 0.61394 0.63058 0.24953 0.0
H855 H 0.62064 0.6833 0.26259 0.0
H856 H 0.57563 0.57497 0.28018 0.0
H857 H 0.58813 0.69932 0.31746 0.0
H858 H 0.60008 0.50807 0.2777 0.0
H859 H 0.6055 0.54713 0.25661 0.0
H860 H 0.58954 0.52987 0.25786 0.0
H861 H 0.617 0.66452 0.32496 0.0
H862 H 0.6087 0.72149 0.3201 0.0
H863 H 0.6192 0.69746 0.30053 0.0
C864 C 0.65186 0.5735 0.9709 0.0
C865 C 0.65389 0.61328 0.95682 0.0
C866 C 0.63987 0.55976 0.97671 0.0
C867 C 0.62982 0.58565 0.96776 0.0
C868 C 0.63195 0.62917 0.95551 0.0
C869 C 0.64394 0.64268 0.95046 0.0
C870 C 0.63808 0.51541 0.99113 0.0
C871 C 0.62159 0.65866 0.94571 0.0
C872 C 0.6029 0.52512 0.9423 0.0
C873 C 0.59333 0.55149 0.952 0.0
C874 C 0.61496 0.53058 0.94924 0.0
C875 C 0.61746 0.56248 0.96662 0.0
C876 C 0.60763 0.58206 0.9787 0.0
C877 C 0.59559 0.57698 0.97106 0.0
C878 C 0.62508 0.50752 0.93616 0.0
C879 C 0.60986 0.61248 -0.00155 0.0
H880 H 0.65953 0.55129 0.97637 0.0
H881 H 0.64546 0.67462 0.9402 0.0
H882 H 0.6289 0.5153 -0.00134 0.0
H883 H 0.63919 0.48048 0.98185 0.0
H884 H 0.64516 0.51515 0.00377 0.0
H885 H 0.62486 0.69241 0.93715 0.0
H886 H 0.61653 0.63483 0.93428 0.0
H887 H 0.61505 0.67074 0.95813 0.0
H888 H 0.60112 0.50369 0.92802 0.0
H889 H 0.58819 0.5963 0.97903 0.0
H890 H 0.63158 0.48734 0.94655 0.0
H891 H 0.63025 0.53736 0.92781 0.0
H892 H 0.62155 0.48092 0.9241 0.0
H893 H 0.61845 0.60104 0.00647 0.0
H894 H 0.60212 0.60857 0.00976 0.0
H895 H 0.61062 0.65255 0.99417 0.0
C896 C 0.33749 0.35904 0.68296 0.0
C897 C 0.33366 0.39933 0.67041 0.0
C898 C 0.34999 0.3511 0.68704 0.0
C899 C 0.35877 0.3846 0.67857 0.0
C900 C 0.35485 0.42717 0.66716 0.0
C901 C 0.34236 0.43383 0.66311 0.0
C902 C 0.35382 0.30522 0.69925 0.0
C903 C 0.36388 0.46414 0.65806 0.0
C904 C 0.39244 0.37941 0.69395 0.0
C905 C 0.39741 0.35309 0.6767 0.0
C906 C 0.3798 0.38906 0.69516 0.0
C907 C 0.372 0.37173 0.6788 0.0
C908 C 0.37695 0.34435 0.66162 0.0
C909 C 0.38955 0.33557 0.66075 0.0
C910 C 0.37483 0.41856 0.71367 0.0
C911 C 0.36895 0.32503 0.64385 0.0
H912 H 0.3308 0.33242 0.68873 0.0
H913 H 0.33945 0.46562 0.65374 0.0
H914 H 0.35802 0.2779 0.68818 0.0
H915 H 0.36082 0.31484 0.71132 0.0
H916 H 0.34596 0.28696 0.7073 0.0
H917 H 0.35932 0.49834 0.65197 0.0
H918 H 0.37069 0.47519 0.67023 0.0
H919 H 0.36896 0.44648 0.64476 0.0
H920 H 0.39843 0.39289 0.70639 0.0
H921 H 0.39323 0.31476 0.64744 0.0
H922 H 0.36724 0.39788 0.72138 0.0
H923 H 0.37104 0.45451 0.70791 0.0
H924 H 0.38196 0.4266 0.72575 0.0
H925 H 0.36142 0.30191 0.65041 0.0
H926 H 0.37415 0.3022 0.6322 0.0
H927 H 0.36472 0.35686 0.63531 0.0
C928 C 0.34418 0.29348 0.05941 0.0
C929 C 0.3362 0.32771 0.04988 0.0
C930 C 0.3568 0.29568 0.05572 0.0
C931 C 0.36157 0.33357 0.04241 0.0
C932 C 0.35346 0.3653 0.0312 0.0
C933 C 0.3408 0.36181 0.03499 0.0
C934 C 0.36508 0.26047 0.06771 0.0
C935 C 0.35818 0.40595 0.01677 0.0
C936 C 0.39155 0.38377 0.06323 0.0
C937 C 0.40015 0.3595 0.05031 0.0
C938 C 0.37899 0.37736 0.06007 0.0
C939 C 0.37484 0.34558 0.04362 0.0
C940 C 0.38343 0.32242 0.02995 0.0
C941 C 0.39602 0.32976 0.03342 0.0
C942 C 0.37016 0.40319 0.07494 0.0
C943 C 0.37934 0.2883 0.01226 0.0
H944 H 0.34061 0.26652 0.07068 0.0
H945 H 0.33465 0.38829 0.02756 0.0
H946 H 0.37235 0.24563 0.05717 0.0
H947 H 0.36962 0.28103 0.08082 0.0
H948 H 0.35996 0.22856 0.07466 0.0
H949 H 0.35089 0.42053 0.00617 0.0
H950 H 0.36166 0.43736 0.02655 0.0
H951 H 0.36588 0.39221 0.0069 0.0
H952 H 0.39464 0.40741 0.07612 0.0
H953 H 0.40261 0.311 0.02332 0.0
H954 H 0.36521 0.37491 0.08456 0.0
H955 H 0.36324 0.42436 0.06576 0.0
H956 H 0.37484 0.42939 0.08593 0.0
H957 H 0.37582 0.25293 0.01911 0.0
H958 H 0.38694 0.27921 0.00118 0.0
H959 H 0.37177 0.30554 0.00313 0.0
C960 C 0.00017 0.14834 0.28976 0.0
C961 C 0.00828 0.1286 0.2746 0.0
C962 C 0.99057 0.17986 0.28377 0.0
C963 C 0.98868 0.19014 0.26202 0.0
C964 C -0.00387 0.1667 0.24651 0.0
C965 C 0.00603 0.13694 0.25301 0.0
C966 C 0.98308 0.20524 0.30083 0.0
C967 C -0.00597 0.17504 0.2231 0.0
C968 C 0.95848 0.24767 0.2456 0.0
C969 C 0.96197 0.29683 0.24074 0.0
C970 C 0.96706 0.21253 0.25259 0.0
C971 C 0.97934 0.22745 0.25559 0.0
C972 C 0.98275 0.27789 0.25207 0.0
C973 C 0.97406 0.31182 0.24423 0.0
C974 C 0.96314 0.15885 0.25551 0.0
C975 C -0.00434 0.29563 0.25597 0.0
H976 H 0.00193 0.14267 0.30652 0.0
H977 H 0.01228 0.1219 0.24128 0.0
H978 H 0.98502 0.24594 0.30065 0.0
H979 H 0.97317 0.20052 0.29778 0.0
H980 H 0.98516 0.19059 0.31693 0.0
H981 H -0.00047 0.14915 0.21316 0.0
H982 H 0.98421 0.17001 0.21918 0.0
H983 H -0.00345 0.21392 0.21887 0.0
H984 H 0.94918 0.2356 0.24251 0.0
H985 H 0.97678 0.34968 0.24035 0.0
H986 H 0.96567 0.14531 0.27155 0.0
H987 H 0.968 0.13492 0.24384 0.0
H988 H 0.95314 0.15378 0.25334 0.0
H989 H -0.00129 0.28438 0.27208 0.0
H990 H -0.00348 0.33683 0.25448 0.0
H991 H 0.00195 0.27792 0.24437 0.0
C992 C 0.22656 0.01405 0.30032 0.0
C993 C 0.2193 0.04045 0.28579 0.0
C994 C 0.23597 0.98249 0.29339 0.0
C995 C 0.2385 0.97882 0.27143 0.0
C996 C 0.23157 0.00729 0.25674 0.0
C997 C 0.22184 0.03693 0.26408 0.0
C998 C 0.24283 0.95142 0.30946 0.0
C999 C 0.23431 0.00586 0.23324 0.0
C1000 C 0.26929 0.93221 0.25225 0.0
C1001 C 0.26607 0.88661 0.24279 0.0
C1002 C 0.26048 0.96206 0.26227 0.0
C1003 C 0.24828 0.94479 0.26369 0.0
C1004 C 0.24527 0.89645 0.25615 0.0
C1005 C 0.25416 0.86832 0.24533 0.0
C1006 C 0.26401 0.01392 0.26948 0.0
C1007 C 0.2325 0.87573 0.25832 0.0
H1008 H 0.22442 0.01592 0.31713 0.0
H1009 H 0.21618 0.05715 0.25287 0.0
H1010 H 0.2413 0.91118 0.30617 0.0
H1011 H 0.25281 0.95824 0.30817 0.0
H1012 H 0.2399 0.95942 0.32601 0.0
H1013 H 0.22879 0.03341 0.2242 0.0
H1014 H 0.24415 0.01364 0.23041 0.0
H1015 H 0.23237 0.96805 0.2269 0.0
H1016 H 0.27844 0.94698 0.25002 0.0
H1017 H 0.25164 0.83323 0.23794 0.0
H1018 H 0.26065 0.02125 0.28579 0.0
H1019 H 0.25967 0.04187 0.25887 0.0
H1020 H 0.27406 0.01983 0.26914 0.0
H1021 H 0.22894 0.88206 0.27461 0.0
H1022 H 0.23215 0.83509 0.25479 0.0
H1023 H 0.2263 0.8953 0.24714 0.0
C1024 C -0.002 0.08055 0.98966 0.0
C1025 C 0.00048 0.08833 0.9681 0.0
C1026 C 0.9882 0.05006 0.99602 0.0
C1027 C 0.98105 0.02547 0.98042 0.0
C1028 C 0.98299 0.03596 0.9587 0.0
C1029 C -0.00748 0.06812 0.95284 0.0
C1030 C 0.98598 0.04171 0.01942 0.0
C1031 C 0.97578 0.00977 0.94155 0.0
C1032 C 0.96864 0.90186 0.0004 0.0
C1033 C 0.95651 0.91444 0.00507 0.0
C1034 C 0.97651 0.93675 0.99086 0.0
C1035 C 0.97226 -0.01412 0.98682 0.0
C1036 C 0.95982 -0.00227 0.99031 0.0
C1037 C 0.95203 0.96147 -0.00103 0.0
C1038 C 0.98958 0.92198 0.98635 0.0
C1039 C 0.95499 0.04995 0.98685 0.0
H1040 H 0.00409 0.09613 0.00151 0.0
H1041 H -0.00562 0.07366 0.93609 0.0
H1042 H 0.97608 0.04494 0.02313 0.0
H1043 H 0.9889 0.00341 0.02382 0.0
H1044 H -0.0089 0.06877 0.02939 0.0
H1045 H 0.97737 0.02651 0.92564 0.0
H1046 H 0.97854 0.9699 0.94096 0.0
H1047 H 0.96585 0.01081 0.94504 0.0
H1048 H 0.97214 0.8657 0.00522 0.0
H1049 H 0.94272 0.97182 0.0029 0.0
H1050 H -0.00425 0.94067 -0.00215 0.0
H1051 H -0.00768 0.93429 0.9702 0.0
H1052 H 0.99097 0.88098 0.98761 0.0
H1053 H 0.95865 0.0749 -0.0006 0.0
H1054 H 0.94484 0.05132 0.9875 0.0
H1055 H 0.95805 0.06511 0.97135 0.0
C1056 C 0.22364 0.19028 0.95494 0.0
C1057 C 0.21477 0.17061 0.96873 0.0
C1058 C 0.23372 0.21686 0.96272 0.0
C1059 C 0.23522 0.22246 0.98489 0.0
C1060 C 0.2265 0.20126 -0.00105 0.0
C1061 C 0.21623 0.17637 0.99067 0.0
C1062 C 0.24259 0.24017 0.94719 0.0
C1063 C 0.228 0.20504 0.02272 0.0
C1064 C 0.26712 0.25166 0.00512 0.0
C1065 C 0.26599 0.30194 0.01106 0.0
C1066 C 0.25717 0.22533 -0.00336 0.0
C1067 C 0.24594 0.25037 0.99333 0.0
C1068 C 0.24494 0.30187 -0.00174 0.0
C1069 C 0.25492 0.32685 0.00746 0.0
C1070 C 0.25852 0.17018 0.99214 0.0
C1071 C 0.23325 0.33031 0.9942 0.0
H1072 H 0.22243 0.18667 0.93793 0.0
H1073 H 0.20936 0.1613 0.00133 0.0
H1074 H 0.24301 0.28113 0.94982 0.0
H1075 H 0.25192 0.22523 0.94979 0.0
H1076 H 0.23997 0.23318 0.93042 0.0
H1077 H 0.22081 0.1841 0.03144 0.0
H1078 H 0.23709 0.19033 0.02746 0.0
H1079 H 0.22763 0.24475 0.02768 0.0
H1080 H 0.27559 0.23198 0.00823 0.0
H1081 H 0.25402 0.36565 0.01213 0.0
H1082 H 0.25634 0.1622 0.97529 0.0
H1083 H 0.25193 0.14878 0.002 0.0
H1084 H 0.26789 0.15633 0.99552 0.0
H1085 H 0.23028 0.32497 0.97752 0.0
H1086 H 0.23429 0.37095 -0.00273 0.0
H1087 H 0.22587 0.3157 0.00456 0.0
C1088 C 0.98107 0.85152 0.74397 0.0
C1089 C 0.96889 0.83548 0.74304 0.0
C1090 C 0.98992 0.82323 0.75476 0.0
C1091 C 0.98657 0.77683 0.76392 0.0
C1092 C 0.97416 0.76185 0.76396 0.0
C1093 C 0.96543 0.79196 0.75392 0.0
C1094 C 0.00296 0.84163 0.75531 0.0
C1095 C 0.97025 0.71198 0.77292 0.0
C1096 C 0.01161 0.67833 0.76553 0.0
C1097 C 0.01438 0.67711 0.78719 0.0
C1098 C 0.00232 0.70971 0.75783 0.0
C1099 C -0.00388 0.74223 0.77202 0.0
C1100 C -0.00098 0.74138 0.79389 0.0
C1101 C 0.00794 0.70805 0.80126 0.0
C1102 C -0.00085 0.70818 0.73451 0.0
C1103 C -0.007 0.77679 0.80937 0.0
H1104 H 0.98376 0.885 0.73548 0.0
H1105 H 0.95606 0.7789 0.75292 0.0
H1106 H 0.00686 0.8372 0.77146 0.0
H1107 H 0.00863 0.81909 0.74428 0.0
H1108 H 0.00368 0.88149 0.75056 0.0
H1109 H 0.96015 0.70755 0.77309 0.0
H1110 H 0.97423 0.68155 0.76314 0.0
H1111 H 0.97371 0.70715 0.78932 0.0
H1112 H 0.01665 0.65456 0.75468 0.0
H1113 H 0.01029 0.70786 0.81799 0.0
H1114 H 0.00136 0.74458 0.72703 0.0
H1115 H 0.98919 0.70183 0.73247 0.0
H1116 H 0.0042 0.67834 0.72593 0.0
H1117 H -0.00528 0.81594 0.80439 0.0
H1118 H -0.00357 0.77183 0.82583 0.0
H1119 H 0.98295 0.77119 0.80939 0.0
C1120 C 0.72695 0.03812 0.79288 0.0
C1121 C 0.71787 0.05476 0.77884 0.0
C1122 C 0.73713 0.01131 0.78554 0.0
C1123 C 0.73848 0.00235 0.76354 0.0
C1124 C 0.72959 0.02087 0.74918 0.0
C1125 C 0.71925 0.04607 0.75705 0.0
C1126 C 0.74619 -0.00905 0.80143 0.0
C1127 C 0.73092 0.01352 0.72553 0.0
C1128 C 0.77002 0.96935 0.74242 0.0
C1129 C 0.76868 0.91841 0.73775 0.0
C1130 C 0.76029 -0.0029 0.75092 0.0
C1131 C 0.74909 0.97292 0.75556 0.0
C1132 C 0.74794 0.92083 0.75205 0.0
C1133 C 0.75768 0.89435 0.74278 0.0
C1134 C 0.7618 0.05275 0.75386 0.0
C1135 C 0.7363 0.89333 0.75755 0.0
H1136 H 0.72582 0.04404 0.8098 0.0
H1137 H 0.71223 0.05882 0.74619 0.0
H1138 H 0.74646 0.94959 0.80032 0.0
H1139 H 0.75552 0.00478 0.7978 0.0
H1140 H 0.74386 0.00151 0.818 0.0
H1141 H 0.72371 0.0334 0.71644 0.0
H1142 H 0.74 0.02712 0.72015 0.0
H1143 H 0.7304 0.97316 0.72166 0.0
H1144 H 0.77844 -0.01169 0.73819 0.0
H1145 H 0.75661 0.85503 0.73912 0.0
H1146 H 0.75965 0.0635 0.77045 0.0
H1147 H 0.75526 0.07281 0.74344 0.0
H1148 H 0.77121 0.06563 0.75004 0.0
H1149 H 0.73356 0.90163 0.77414 0.0
H1150 H 0.73728 0.85225 0.75573 0.0
H1151 H 0.72878 0.90615 0.74708 0.0
C1152 C 0.73416 0.63839 0.98075 0.0
C1153 C 0.73126 0.62942 0.95945 0.0
C1154 C 0.74355 0.67182 0.98618 0.0
C1155 C 0.74982 0.69804 0.96991 0.0
C1156 C 0.74762 0.68601 0.94843 0.0
C1157 C 0.73854 0.65099 0.94348 0.0
C1158 C 0.74611 0.68183 0.00934 0.0
C1159 C 0.75391 0.71368 0.93059 0.0
C1160 C 0.75909 0.82633 0.98919 0.0
C1161 C 0.77146 0.81883 0.99384 0.0
C1162 C 0.75216 0.78846 0.97959 0.0
C1163 C 0.75765 0.74147 0.97545 0.0
C1164 C 0.77035 0.73514 0.97859 0.0
C1165 C 0.77717 0.7744 0.98734 0.0
C1166 C 0.73874 0.79745 0.97543 0.0
C1167 C 0.77652 0.68543 0.97492 0.0
H1168 H 0.72861 0.62167 0.99315 0.0
H1169 H 0.73637 0.64444 0.92692 0.0
H1170 H 0.75611 0.6826 0.01231 0.0
H1171 H 0.74239 0.71895 0.01377 0.0
H1172 H 0.74187 0.65325 0.01982 0.0
H1173 H 0.7527 0.69455 0.91508 0.0
H1174 H 0.74996 0.75175 0.92933 0.0
H1175 H 0.76382 0.71795 0.93373 0.0
H1176 H 0.75466 0.8605 0.99433 0.0
H1177 H 0.7867 0.76804 0.99126 0.0
H1178 H 0.73319 0.77682 0.9873 0.0
H1179 H 0.73617 0.78337 0.95947 0.0
H1180 H 0.73635 0.83771 0.97645 0.0
H1181 H 0.77409 0.6597 0.98809 0.0
H1182 H 0.78664 0.68906 0.97441 0.0
H1183 H 0.77338 0.66793 0.95994 0.0
C1184 C 0.21816 0.51468 0.76629 0.0
C1185 C 0.21913 0.56559 0.76145 0.0
C1186 C 0.22627 0.47982 0.75767 0.0
C1187 C 0.23551 0.49637 0.74365 0.0
C1188 C 0.23648 0.54794 0.73856 0.0
C1189 C 0.22828 0.58227 0.74771 0.0
C1190 C 0.22501 0.42544 0.76371 0.0
C1191 C 0.24619 0.56672 0.72348 0.0
C1192 C 0.26408 0.42013 0.73296 0.0
C1193 C 0.26155 0.40099 0.71271 0.0
C1194 C 0.25542 0.44931 0.74379 0.0
C1195 C 0.24404 0.45963 0.73403 0.0
C1196 C 0.24104 0.43668 0.7145 0.0
C1197 C 0.2498 0.40718 0.70418 0.0
C1198 C 0.25878 0.4719 0.76495 0.0
C1199 C 0.22895 0.44639 0.70368 0.0
H1200 H 0.21108 0.50222 0.77717 0.0
H1201 H 0.22902 0.6218 0.74422 0.0
H1202 H 0.22326 0.40257 0.74935 0.0
H1203 H 0.23366 0.41179 0.77083 0.0
H1204 H 0.21746 0.41903 0.77522 0.0
H1205 H 0.24563 0.60774 0.72099 0.0
H1206 H 0.25539 0.55752 0.72974 0.0
H1207 H 0.24526 0.54781 0.70789 0.0
H1208 H 0.27312 0.41536 0.73972 0.0
H1209 H 0.24773 0.39225 0.68859 0.0
H1210 H 0.25128 0.46649 0.7766 0.0
H1211 H 0.26015 0.51273 0.76306 0.0
H1212 H 0.2673 0.45549 0.77153 0.0
H1213 H 0.22125 0.43993 0.71482 0.0
H1214 H 0.22763 0.42237 0.68948 0.0
H1215 H 0.22851 0.48606 0.69862 0.0
C1216 C 0.00469 0.55135 0.45877 0.0
C1217 C 0.01441 0.56577 0.47195 0.0
C1218 C -0.00543 0.52546 0.46691 0.0
C1219 C -0.00607 0.51525 0.48892 0.0
C1220 C 0.00342 0.53198 0.50249 0.0
C1221 C 0.01369 0.55622 0.49377 0.0
C1222 C 0.98484 0.50703 0.4518 0.0
C1223 C 0.00286 0.52342 0.52616 0.0
C1224 C 0.96273 0.4828 0.51166 0.0
C1225 C 0.96383 0.43124 0.51509 0.0
C1226 C 0.97249 0.51069 0.50335 0.0
C1227 C 0.98346 0.48608 0.4976 0.0
C1228 C 0.98442 0.4336 0.50017 0.0
C1229 C 0.97467 0.40693 0.50933 0.0
C1230 C 0.97124 0.56671 0.50152 0.0
C1231 C -0.00421 0.40575 0.49348 0.0
H1232 H 0.00528 0.55789 0.44181 0.0
H1233 H 0.0212 0.5672 0.50398 0.0
H1234 H 0.98437 0.46564 0.45243 0.0
H1235 H 0.97574 0.52141 0.45659 0.0
H1236 H 0.98664 0.51854 0.43514 0.0
H1237 H 0.01039 0.54264 0.53469 0.0
H1238 H -0.00601 0.53691 0.53256 0.0
H1239 H 0.00343 0.48285 0.52958 0.0
H1240 H 0.95444 0.50188 0.51651 0.0
H1241 H 0.97554 0.36711 0.51208 0.0
H1242 H 0.97271 0.57869 0.48486 0.0
H1243 H 0.97836 0.5852 0.51131 0.0
H1244 H 0.96211 0.58013 0.5068 0.0
H1245 H -0.00196 0.41453 0.47671 0.0
H1246 H -0.00526 0.36465 0.49512 0.0
H1247 H 0.00366 0.41785 0.50331 0.0
C1248 C 0.22869 0.62881 0.5027 0.0
C1249 C 0.22805 0.61515 0.48124 0.0
C1250 C 0.23856 0.65722 0.51038 0.0
C1251 C 0.24777 0.67353 0.49611 0.0
C1252 C 0.2476 0.65681 0.47482 0.0
C1253 C 0.23788 0.62704 0.46777 0.0
C1254 C 0.23871 0.67244 0.53345 0.0
C1255 C 0.25708 0.674 0.45894 0.0
C1256 C 0.26264 0.79889 0.50808 0.0
C1257 C 0.27431 0.78431 0.51471 0.0
C1258 C 0.25398 0.76316 0.50168 0.0
C1259 C 0.25692 0.7116 0.50281 0.0
C1260 C 0.26866 0.69677 0.50981 0.0
C1261 C 0.27729 0.73336 0.51528 0.0
C1262 C 0.24169 0.78058 0.49365 0.0
C1263 C 0.27199 0.64228 0.512 0.0
H1264 H 0.22117 0.61963 0.51323 0.0
H1265 H 0.23749 0.61677 0.45113 0.0
H1266 H 0.24802 0.66802 0.54021 0.0
H1267 H 0.23619 0.71243 0.53485 0.0
H1268 H 0.23217 0.65015 0.54308 0.0
H1269 H 0.25626 0.65431 0.44349 0.0
H1270 H 0.25599 0.71469 0.45612 0.0
H1271 H 0.26644 0.66806 0.46518 0.0
H1272 H 0.26033 0.83826 0.50777 0.0
H1273 H 0.28624 0.722 0.52087 0.0
H1274 H 0.23433 0.76665 0.50423 0.0
H1275 H 0.23997 0.76505 0.47759 0.0
H1276 H 0.24106 0.82194 0.49282 0.0
H1277 H 0.2655 0.62362 0.52301 0.0
H1278 H 0.28143 0.63697 0.5181 0.0
H1279 H 0.27121 0.62318 0.49644 0.0
C1280 C 0.75718 0.43618 0.2225 0.0
C1281 C 0.76066 0.43792 0.20115 0.0
C1282 C 0.74743 0.46548 0.22996 0.0
C1283 C 0.74138 0.49859 0.21586 0.0
C1284 C 0.74513 0.50142 0.19441 0.0
C1285 C 0.75458 0.47033 0.18722 0.0
C1286 C 0.74347 0.46043 0.25284 0.0
C1287 C 0.73923 0.53752 0.1791 0.0
C1288 C 0.70915 0.53467 0.23159 0.0
C1289 C 0.71124 0.5777 0.24376 0.0
C1290 C 0.71885 0.50945 0.22174 0.0
C1291 C 0.73085 0.52877 0.22348 0.0
C1292 C 0.73282 0.57487 0.23396 0.0
C1293 C 0.72301 0.59845 0.2443 0.0
C1294 C 0.71637 0.45996 0.21105 0.0
C1295 C 0.74542 0.59772 0.23539 0.0
H1296 H 0.76193 0.41119 0.23324 0.0
H1297 H 0.75744 0.47234 0.17075 0.0
H1298 H 0.74443 0.49679 0.2611 0.0
H1299 H 0.73366 0.44977 0.25359 0.0
H1300 H 0.7489 0.43201 0.26155 0.0
H1301 H 0.74371 0.53715 0.16326 0.0
H1302 H 0.72943 0.52807 0.17705 0.0
H1303 H 0.73966 0.57602 0.18559 0.0
H1304 H 0.7001 0.51816 0.23124 0.0
H1305 H 0.72466 0.63176 0.25366 0.0
H1306 H 0.72073 0.42954 0.22033 0.0
H1307 H 0.72043 0.45921 0.19492 0.0
H1308 H 0.70643 0.45189 0.20974 0.0
H1309 H 0.75108 0.57584 0.24663 0.0
H1310 H 0.74509 0.63703 0.241 0.0
H1311 H 0.75004 0.59664 0.2197 0.0
C1312 C 0.75425 0.32757 0.50621 0.0
C1313 C 0.75521 0.33409 0.5282 0.0
C1314 C 0.74498 0.2974 0.49759 0.0
C1315 C 0.73688 0.27167 0.51138 0.0
C1316 C 0.73745 0.28015 0.53349 0.0
C1317 C 0.74643 0.31217 0.54157 0.0
C1318 C 0.74425 0.29111 0.47381 0.0
C1319 C 0.72925 0.25233 0.54879 0.0
C1320 C 0.70819 0.21263 0.48893 0.0
C1321 C 0.71233 0.16457 0.48364 0.0
C1322 C 0.71607 0.24787 0.49802 0.0
C1323 C 0.72822 0.23401 0.50279 0.0
C1324 C 0.7322 0.18442 0.49889 0.0
C1325 C 0.72427 0.15053 0.48885 0.0
C1326 C 0.7116 0.30075 0.50121 0.0
C1327 C 0.74495 0.16766 0.50467 0.0
H1328 H 0.76103 0.3443 0.49585 0.0
H1329 H 0.74719 0.31644 0.55864 0.0
H1330 H 0.74732 0.25302 0.46938 0.0
H1331 H 0.73466 0.29527 0.46834 0.0
H1332 H 0.75006 0.31865 0.46528 0.0
H1333 H 0.73028 0.26578 0.56537 0.0
H1334 H 0.71952 0.25604 0.54411 0.0
H1335 H 0.73153 0.21195 0.54834 0.0
H1336 H 0.69903 0.22405 0.48449 0.0
H1337 H 0.7275 0.11357 0.48459 0.0
H1338 H 0.71684 0.32631 0.49072 0.0
H1339 H 0.7132 0.31307 0.51778 0.0
H1340 H 0.70171 0.30485 0.49759 0.0
H1341 H 0.75172 0.18698 0.49444 0.0
H1342 H 0.74616 0.12671 0.50273 0.0
H1343 H 0.74703 0.17781 0.52137 0.0
C1344 C 0.47115 0.29 0.7502 0.0
C1345 C 0.459 0.27737 0.74581 0.0
C1346 C 0.47915 0.25488 0.75915 0.0
C1347 C 0.47498 0.20549 0.7629 0.0
C1348 C 0.46251 0.19361 0.75981 0.0
C1349 C 0.4546 0.23009 0.75166 0.0
C1350 C 0.49227 0.26968 0.76318 0.0
C1351 C 0.45775 0.14124 0.76313 0.0
C1352 C 0.50108 0.11362 0.75686 0.0
C1353 C 0.50425 0.1052 0.77809 0.0
C1354 C 0.49086 0.14299 0.75168 0.0
C1355 C 0.48397 0.16571 0.76814 0.0
C1356 C 0.48657 0.15419 0.78955 0.0
C1357 C 0.49654 0.12325 0.79424 0.0
C1358 C 0.488 0.15261 0.72861 0.0
C1359 C 0.47964 0.17837 0.80758 0.0
H1360 H 0.47456 0.32644 0.74554 0.0
H1361 H 0.44525 0.2199 0.74788 0.0
H1362 H 0.49527 0.25642 0.77903 0.0
H1363 H 0.49828 0.25193 0.75114 0.0
H1364 H 0.49358 0.31079 0.76233 0.0
H1365 H 0.44759 0.13995 0.76327 0.0
H1366 H 0.46107 0.11703 0.75003 0.0
H1367 H 0.4612 0.12519 0.7782 0.0
H1368 H 0.50696 0.09965 0.74433 0.0
H1369 H 0.49894 0.11719 0.81073 0.0
H1370 H 0.49069 0.19135 0.72441 0.0
H1371 H 0.47804 0.14896 0.72567 0.0
H1372 H 0.49296 0.12651 0.71792 0.0
H1373 H 0.48249 0.21805 0.80891 0.0
H1374 H 0.48146 0.15968 0.823 0.0
H1375 H 0.46966 0.17793 0.80459 0.0
C1376 C 0.47509 0.91572 0.51631 0.0
C1377 C 0.47197 0.9142 0.53786 0.0
C1378 C 0.48441 0.94746 0.50899 0.0
C1379 C 0.4905 0.9794 0.5235 0.0
C1380 C 0.48735 0.97806 0.54528 0.0
C1381 C 0.47823 0.94498 0.55224 0.0
C1382 C 0.48772 0.94696 0.4857 0.0
C1383 C 0.49341 0.01239 0.56113 0.0
C1384 C 0.5213 0.02824 0.50522 0.0
C1385 C 0.51797 0.07297 0.49516 0.0
C1386 C 0.51251 -0.00178 0.51527 0.0
C1387 C 0.50017 0.01401 0.51576 0.0
C1388 C 0.49695 0.0612 0.50726 0.0
C1389 C 0.50588 0.08989 0.4968 0.0
C1390 C 0.5163 0.94789 0.52387 0.0
C1391 C 0.48396 0.08008 0.5081 0.0
H1392 H 0.47025 0.892 0.50518 0.0
H1393 H 0.47572 0.94443 0.5689 0.0
H1394 H 0.48588 -0.01588 0.47861 0.0
H1395 H 0.49763 0.93936 0.48375 0.0
H1396 H 0.48249 0.91839 0.47669 0.0
H1397 H 0.48989 0.00674 0.57751 0.0
H1398 H 0.50344 0.00627 0.56115 0.0
H1399 H 0.49183 0.05186 0.55651 0.0
H1400 H 0.53061 0.01472 0.5039 0.0
H1401 H 0.50326 0.1245 0.48911 0.0
H1402 H 0.51223 0.91796 0.51393 0.0
H1403 H 0.51282 0.94267 0.54026 0.0
H1404 H 0.52639 0.94306 0.52395 0.0
H1405 H 0.47819 0.05782 0.49715 0.0
H1406 H 0.48329 0.12002 0.50346 0.0
H1407 H 0.48013 0.07557 0.52431 0.0
C1408 C 0.46917 0.80748 0.24393 0.0
C1409 C 0.45779 0.79018 0.23695 0.0
C1410 C 0.47745 0.77503 0.25389 0.0
C1411 C 0.47444 0.72375 0.25606 0.0
C1412 C 0.46278 0.70655 0.24973 0.0
C1413 C 0.4545 0.74024 0.24059 0.0
C1414 C 0.48962 0.79522 0.26126 0.0
C1415 C 0.45935 0.65201 0.25119 0.0
C1416 C 0.50288 0.64305 0.25831 0.0
C1417 C 0.50398 0.63503 0.28019 0.0
C1418 C 0.49275 0.66868 0.25 0.0
C1419 C 0.48378 0.68805 0.26403 0.0
C1420 C 0.48441 0.67697 0.28593 0.0
C1421 C 0.49439 0.64975 0.29368 0.0
C1422 C 0.49208 0.67787 0.22639 0.0
C1423 C 0.4752 0.69775 0.30149 0.0
H1424 H 0.47173 0.846 0.241 0.0
H1425 H 0.44579 0.7265 0.2348 0.0
H1426 H 0.49148 0.78315 0.2778 0.0
H1427 H 0.49704 0.78006 0.25111 0.0
H1428 H 0.48999 0.83665 0.26056 0.0
H1429 H 0.44954 0.64553 0.24754 0.0
H1430 H 0.46496 0.63031 0.23975 0.0
H1431 H 0.46131 0.63709 0.26725 0.0
H1432 H 0.51024 0.63162 0.24781 0.0
H1433 H 0.49518 0.64395 0.31066 0.0
H1434 H 0.49419 0.71762 0.22302 0.0
H1435 H 0.48271 0.67033 0.22043 0.0
H1436 H 0.49866 0.65423 0.21745 0.0
H1437 H 0.47658 0.73868 0.30298 0.0
H1438 H 0.47612 0.68073 0.3175 0.0
H1439 H 0.46573 0.69171 0.29578 0.0
C1440 C 0.47937 0.38055 0.99275 0.0
C1441 C 0.46792 0.40215 -0.00348 0.0
C1442 C 0.48892 0.40875 0.98383 0.0
C1443 C 0.4871 0.46023 0.9796 0.0
C1444 C 0.47542 0.48173 0.98279 0.0
C1445 C 0.4659 0.4521 0.99079 0.0
C1446 C 0.5011 0.38396 0.97974 0.0
C1447 C 0.4732 0.53678 0.97922 0.0
C1448 C 0.516 0.53922 0.98118 0.0
C1449 C 0.51811 0.54748 0.95955 0.0
C1450 C 0.50562 0.51262 0.98799 0.0
C1451 C 0.49753 0.49203 0.97272 0.0
C1452 C 0.49958 0.50087 0.95088 0.0
C1453 C 0.50971 0.52931 0.94459 0.0
C1454 C 0.50346 0.50567 0.01148 0.0
C1455 C 0.49143 0.47821 0.9341 0.0
H1456 H 0.48095 0.34209 -0.00263 0.0
H1457 H 0.45713 0.46924 0.99418 0.0
H1458 H 0.50442 0.39314 0.96355 0.0
H1459 H 0.50797 0.39815 0.99118 0.0
H1460 H 0.50056 0.34269 0.98136 0.0
H1461 H 0.46344 0.54711 0.98139 0.0
H1462 H 0.47878 0.55874 0.9906 0.0
H1463 H 0.4761 0.54788 0.96302 0.0
H1464 H 0.52251 0.5531 0.99272 0.0
H1465 H 0.51145 0.53483 0.9278 0.0
H1466 H 0.50457 0.46573 0.01573 0.0
H1467 H 0.49396 0.51655 0.01564 0.0
H1468 H 0.5099 0.52805 0.02124 0.0
H1469 H 0.49183 0.43686 0.93517 0.0
H1470 H 0.49413 0.48957 0.91779 0.0
H1471 H 0.48178 0.48927 0.93675 0.0
C1472 C 0.04711 0.42802 0.39591 0.0
C1473 C 0.04221 0.47551 0.39238 0.0
C1474 C 0.04586 0.39037 0.38069 0.0
C1475 C 0.03937 0.40047 0.36171 0.0
C1476 C 0.03423 0.44812 0.35821 0.0
C1477 C 0.03579 0.48532 0.37357 0.0
C1478 C 0.05154 0.33987 0.38486 0.0
C1479 C 0.02706 0.45965 0.33832 0.0
C1480 C 0.04688 0.30799 0.31856 0.0
C1481 C 0.03814 0.27117 0.3228 0.0
C1482 C 0.04691 0.35262 0.33016 0.0
C1483 C 0.03784 0.36029 0.34591 0.0
C1484 C 0.02828 0.3253 0.34857 0.0
C1485 C 0.02863 0.28069 0.33711 0.0
C1486 C 0.05727 0.38914 0.32699 0.0
C1487 C 0.01828 0.33285 0.36483 0.0
H1488 H 0.05212 0.42051 0.41041 0.0
H1489 H 0.03193 0.52209 0.37091 0.0
H1490 H 0.04433 0.31075 0.3853 0.0
H1491 H 0.05794 0.33005 0.37182 0.0
H1492 H 0.05663 0.33876 0.40012 0.0
H1493 H 0.02358 0.49863 0.33812 0.0
H1494 H 0.03288 0.45379 0.32411 0.0
H1495 H 0.01917 0.43375 0.33696 0.0
H1496 H 0.05424 0.30029 0.30747 0.0
H1497 H 0.02181 0.25212 0.3401 0.0
H1498 H 0.06367 0.38641 0.3406 0.0
H1499 H 0.05381 0.42804 0.32649 0.0
H1500 H 0.06245 0.38152 0.31216 0.0
H1501 H 0.02203 0.3264 0.38096 0.0
H1502 H 0.01051 0.30674 0.36235 0.0
H1503 H 0.01478 0.37171 0.3643 0.0
C1504 C 0.20704 0.77649 0.4129 0.0
C1505 C 0.19836 0.7643 0.4284 0.0
C1506 C 0.20615 0.82109 0.40151 0.0
C1507 C 0.19619 0.85344 0.40554 0.0
C1508 C 0.18795 0.84313 0.42233 0.0
C1509 C 0.18921 0.79859 0.43377 0.0
C1510 C 0.21528 0.83154 0.38404 0.0
C1511 C 0.1772 0.8768 0.42696 0.0
C1512 C 0.19574 0.98024 0.37921 0.0
C1513 C 0.18889 0.97011 0.36091 0.0
C1514 C 0.19821 0.94261 0.39401 0.0
C1515 C 0.19353 0.89417 0.39047 0.0
C1516 C 0.18648 0.88388 0.37213 0.0
C1517 C 0.18433 0.92201 0.35743 0.0
C1518 C 0.20596 0.95441 0.4132 0.0
C1519 C 0.18125 0.83254 0.36798 0.0
H1520 H 0.21419 0.74996 0.40898 0.0
H1521 H 0.18248 0.78897 0.44575 0.0
H1522 H 0.21089 0.82524 0.3684 0.0
H1523 H 0.21833 0.87104 0.38455 0.0
H1524 H 0.22344 0.80696 0.38516 0.0
H1525 H 0.17265 0.86712 0.44219 0.0
H1526 H 0.18011 0.91645 0.42755 0.0
H1527 H 0.17039 0.87328 0.41399 0.0
H1528 H 0.19936 0.01745 0.38181 0.0
H1529 H 0.179 0.91427 0.34331 0.0
H1530 H 0.21433 0.93098 0.41305 0.0
H1531 H 0.20088 0.94533 0.42796 0.0
H1532 H 0.20873 -0.00568 0.41376 0.0
H1533 H 0.18878 0.80506 0.36626 0.0
H1534 H 0.17556 0.83138 0.35339 0.0
H1535 H 0.17556 0.82047 0.38165 0.0
C1536 C 0.025 0.92032 0.9139 0.0
C1537 C 0.03333 0.93653 0.92924 0.0
C1538 C 0.02622 0.87332 0.90455 0.0
C1539 C 0.03617 0.84262 0.9105 0.0
C1540 C 0.04388 0.85682 0.92749 0.0
C1541 C 0.0423 0.90384 0.93685 0.0
C1542 C 0.01763 0.85887 0.88682 0.0
C1543 C 0.05455 0.82487 0.93427 0.0
C1544 C 0.0377 0.71536 0.88463 0.0
C1545 C 0.04463 0.72623 0.86645 0.0
C1546 C 0.03516 0.7525 0.89966 0.0
C1547 C 0.03977 0.8012 0.89637 0.0
C1548 C 0.04717 0.81178 0.87845 0.0
C1549 C 0.04944 0.77415 0.86361 0.0
C1550 C 0.02716 0.74021 0.9185 0.0
C1551 C 0.05235 0.86334 0.87455 0.0
H1552 H 0.01794 0.94558 0.90833 0.0
H1553 H 0.04871 0.91651 0.94882 0.0
H1554 H 0.02238 0.86338 0.87134 0.0
H1555 H 0.01487 0.81915 0.88824 0.0
H1556 H 0.00928 0.88246 0.88666 0.0
H1557 H 0.0581 0.83616 0.95008 0.0
H1558 H 0.05195 0.78485 0.93484 0.0
H1559 H 0.06205 0.82878 0.9225 0.0
H1560 H 0.03395 0.67822 0.88681 0.0
H1561 H 0.05488 0.78244 0.84964 0.0
H1562 H 0.01815 0.75873 0.91661 0.0
H1563 H 0.03127 0.75459 0.93337 0.0
H1564 H 0.02562 0.69938 0.92017 0.0
H1565 H 0.04478 0.89008 0.87163 0.0
H1566 H 0.05863 0.8643 0.86068 0.0
H1567 H 0.0574 0.87651 0.88874 0.0
C1568 C 0.20246 0.43348 0.83678 0.0
C1569 C 0.19342 0.44853 0.82244 0.0
C1570 C 0.20134 0.38853 0.84786 0.0
C1571 C 0.19085 0.35863 0.84462 0.0
C1572 C 0.1822 0.37164 0.82887 0.0
C1573 C 0.18365 0.41655 0.81777 0.0
C1574 C 0.21087 0.37518 0.86424 0.0
C1575 C 0.17091 0.34048 0.82503 0.0
C1576 C 0.19012 0.23146 0.87056 0.0
C1577 C 0.18415 0.24239 0.88973 0.0
C1578 C 0.19222 0.26881 0.85546 0.0
C1579 C 0.18814 0.31785 0.85965 0.0
C1580 C 0.18188 0.32886 0.87878 0.0
C1581 C 0.18002 0.29093 0.8937 0.0
C1582 C 0.19905 0.25611 0.83531 0.0
C1583 C 0.17731 0.38089 0.88365 0.0
H1584 H 0.21011 0.45806 0.8401 0.0
H1585 H 0.17668 0.42821 0.8066 0.0
H1586 H 0.20706 0.38111 0.88037 0.0
H1587 H 0.21344 0.33522 0.86294 0.0
H1588 H 0.21926 0.3983 0.8626 0.0
H1589 H 0.16611 0.35157 0.81023 0.0
H1590 H 0.17326 0.30026 0.82405 0.0
H1591 H 0.1645 0.34519 0.83856 0.0
H1592 H 0.19336 0.19387 0.86751 0.0
H1593 H 0.17535 0.29931 0.90847 0.0
H1594 H 0.20782 0.2769 0.83482 0.0
H1595 H 0.19368 0.2678 0.82123 0.0
H1596 H 0.20104 0.21554 0.834 0.0
H1597 H 0.18516 0.40703 0.88475 0.0
H1598 H 0.1721 0.38256 0.89879 0.0
H1599 H 0.17133 0.39431 0.87063 0.0
C1600 C 0.94193 0.65984 0.67848 0.0
C1601 C 0.95065 0.69591 0.67292 0.0
C1602 C 0.94144 0.61418 0.66768 0.0
C1603 C 0.94995 0.60467 0.65122 0.0
C1604 C 0.95956 0.63872 0.64722 0.0
C1605 C 0.95976 0.68422 0.65809 0.0
C1606 C 0.93108 0.57855 0.67242 0.0
C1607 C 0.96894 0.62937 0.63005 0.0
C1608 C 0.95018 0.47909 0.62357 0.0
C1609 C 0.94304 0.48947 0.60561 0.0
C1610 C 0.95252 0.51617 0.63873 0.0
C1611 C 0.94752 0.56433 0.63581 0.0
C1612 C 0.94027 0.57488 0.61775 0.0
C1613 C 0.93817 0.53731 0.60281 0.0
C1614 C 0.96037 0.504 0.65775 0.0
C1615 C 0.93475 0.62595 0.61415 0.0
H1616 H 0.93494 0.66864 0.69012 0.0
H1617 H 0.96665 0.71182 0.6541 0.0
H1618 H 0.92408 0.58159 0.65975 0.0
H1619 H 0.93437 0.53937 0.67262 0.0
H1620 H 0.92664 0.58694 0.68789 0.0
H1621 H 0.97694 0.65473 0.63152 0.0
H1622 H 0.97221 0.59018 0.63052 0.0
H1623 H 0.96468 0.63559 0.61429 0.0
H1624 H 0.95399 0.44206 0.62572 0.0
H1625 H 0.93263 0.5454 0.58896 0.0
H1626 H 0.95524 0.51152 0.67261 0.0
H1627 H 0.96857 0.52838 0.65789 0.0
H1628 H 0.9634 0.4644 0.65782 0.0
H1629 H 0.92892 0.63647 0.62786 0.0
H1630 H 0.92911 0.62753 0.59951 0.0
H1631 H 0.94211 0.65433 0.61285 0.0
C1632 C 0.79154 0.02773 0.64686 0.0
C1633 C 0.78634 0.98028 0.64467 0.0
C1634 C 0.78969 0.06447 0.63149 0.0
C1635 C 0.78231 0.05359 0.61361 0.0
C1636 C 0.7769 0.00595 0.61135 0.0
C1637 C 0.77903 0.96959 0.62695 0.0
C1638 C 0.79564 0.11499 0.63444 0.0
C1639 C 0.76888 -0.00644 0.59259 0.0
C1640 C 0.77184 0.17596 0.59193 0.0
C1641 C 0.7813 0.18619 0.57761 0.0
C1642 C 0.77109 0.12959 0.60199 0.0
C1643 C 0.78018 0.09336 0.59781 0.0
C1644 C 0.78889 0.10151 0.58152 0.0
C1645 C 0.7893 0.1481 0.57142 0.0
C1646 C 0.76147 0.12184 0.6189 0.0
C1647 C 0.79869 0.06357 0.57656 0.0
H1648 H 0.79721 0.0361 0.66052 0.0
H1649 H 0.77497 0.93286 0.62527 0.0
H1650 H 0.80148 0.12395 0.62052 0.0
H1651 H 0.78853 0.14439 0.63558 0.0
H1652 H 0.80139 0.1167 0.64895 0.0
H1653 H 0.76536 0.95467 0.59323 0.0
H1654 H 0.761 0.01958 0.59199 0.0
H1655 H 0.77409 -0.00149 0.57761 0.0
H1656 H 0.76548 0.20533 0.59629 0.0
H1657 H 0.79655 0.15602 0.56015 0.0
H1658 H 0.7656 0.12828 0.63475 0.0
H1659 H 0.75792 0.08305 0.61859 0.0
H1660 H 0.75369 0.14813 0.61698 0.0
H1661 H 0.80592 0.06566 0.58888 0.0
H1662 H 0.80299 0.07065 0.56085 0.0
H1663 H 0.79494 0.0251 0.57675 0.0
C1664 C 0.94146 0.18642 0.15509 0.0
C1665 C 0.94656 0.2338 0.15212 0.0
C1666 C 0.9434 0.14853 0.14023 0.0
C1667 C 0.95075 0.15831 0.12217 0.0
C1668 C 0.95648 0.20521 0.11967 0.0
C1669 C 0.95425 0.24269 0.13468 0.0
C1670 C 0.93716 0.09868 0.14344 0.0
C1671 C 0.96457 0.2164 0.10081 0.0
C1672 C 0.95868 0.03753 0.09543 0.0
C1673 C 0.94879 0.03292 0.08143 0.0
C1674 C 0.96025 0.08095 0.10744 0.0
C1675 C 0.95164 0.11999 0.10542 0.0
C1676 C 0.94245 0.11764 0.08964 0.0
C1677 C 0.94119 0.07399 0.07766 0.0
C1678 C 0.97037 0.08287 0.12371 0.0
C1679 C 0.93316 0.15885 0.08697 0.0
H1680 H 0.93559 0.17939 0.16866 0.0
H1681 H 0.95833 0.27925 0.13251 0.0
H1682 H 0.93064 0.09174 0.13027 0.0
H1683 H 0.94401 0.06812 0.14318 0.0
H1684 H 0.93207 0.0968 0.15869 0.0
H1685 H 0.96978 0.25167 0.10291 0.0
H1686 H 0.97112 0.18544 0.09803 0.0
H1687 H 0.95886 0.21992 0.08634 0.0
H1688 H 0.96474 0.00606 0.09798 0.0
H1689 H 0.93364 0.07071 0.06659 0.0
H1690 H 0.96654 0.07441 0.13963 0.0
H1691 H 0.97451 0.12065 0.12443 0.0
H1692 H 0.97766 0.05516 0.12022 0.0
H1693 H 0.92671 0.15823 0.1006 0.0
H1694 H 0.9278 0.15459 0.07211 0.0
H1695 H 0.93768 0.19592 0.08685 0.0
C1696 C 0.7915 0.46588 0.10547 0.0
C1697 C 0.79682 0.47479 0.12537 0.0
C1698 C 0.79005 0.5047 0.0908 0.0
C1699 C 0.79405 0.55319 0.09627 0.0
C1700 C 0.8 0.56178 0.11588 0.0
C1701 C 0.80129 0.52239 0.13025 0.0
C1702 C 0.78371 0.49435 0.06998 0.0
C1703 C 0.80449 0.61311 0.12213 0.0
C1704 C 0.79817 0.66067 0.05842 0.0
C1705 C 0.78813 0.69045 0.06402 0.0
C1706 C 0.7998 0.61356 0.06762 0.0
C1707 C 0.79112 0.5962 0.08255 0.0
C1708 C 0.78038 0.62406 0.08664 0.0
C1709 C 0.77902 0.67107 0.07731 0.0
C1710 C 0.81129 0.58448 0.06274 0.0
C1711 C 0.77083 0.60621 0.10225 0.0
H1712 H 0.78807 0.42898 0.10163 0.0
H1713 H 0.80549 0.52923 0.14555 0.0
H1714 H 0.77445 0.51132 0.07024 0.0
H1715 H 0.7888 0.51153 0.0566 0.0
H1716 H 0.78272 0.45369 0.06691 0.0
H1717 H 0.80969 0.61263 0.13726 0.0
H1718 H 0.81044 0.62874 0.1095 0.0
H1719 H 0.79658 0.63871 0.12401 0.0
H1720 H 0.80515 0.67533 0.0479 0.0
H1721 H 0.77113 0.69372 0.08133 0.0
H1722 H 0.80924 0.54419 0.06069 0.0
H1723 H 0.81774 0.58801 0.07624 0.0
H1724 H 0.81592 0.59844 0.04818 0.0
H1725 H 0.76846 0.56658 0.09922 0.0
H1726 H 0.76234 0.62892 0.10149 0.0
H1727 H 0.77454 0.60861 0.1186 0.0
C1728 C 0.54555 0.29208 0.81242 0.0
C1729 C 0.53676 0.25712 0.81875 0.0
C1730 C 0.54679 0.33727 0.82341 0.0
C1731 C 0.53887 0.34748 0.84068 0.0
C1732 C 0.52918 0.31446 0.84557 0.0
C1733 C 0.52834 0.26917 0.83467 0.0
C1734 C 0.55728 0.37155 0.81788 0.0
C1735 C 0.52036 0.32481 0.86352 0.0
C1736 C 0.55179 0.41586 0.888 0.0
C1737 C 0.54716 0.46396 0.88488 0.0
C1738 C 0.54932 0.37784 0.87341 0.0
C1739 C 0.54184 0.38819 0.8556 0.0
C1740 C 0.53705 0.43661 0.85247 0.0
C1741 C 0.53987 0.47419 0.86712 0.0
C1742 C 0.55469 0.32656 0.8771 0.0
C1743 C 0.52882 0.44843 0.8339 0.0
H1744 H 0.55208 0.28243 0.80012 0.0
H1745 H 0.52147 0.24201 0.83932 0.0
H1746 H 0.55425 0.41106 0.81759 0.0
H1747 H 0.56447 0.36827 0.83023 0.0
H1748 H 0.56141 0.36216 0.80226 0.0
H1749 H 0.51221 0.3001 0.86282 0.0
H1750 H 0.52503 0.31848 0.87891 0.0
H1751 H 0.51728 0.36427 0.8632 0.0
H1752 H 0.55747 0.40808 0.9017 0.0
H1753 H 0.53621 0.51143 0.86483 0.0
H1754 H 0.56004 0.31466 0.863 0.0
H1755 H 0.54724 0.29894 0.87938 0.0
H1756 H 0.56075 0.32542 0.89123 0.0
H1757 H 0.53355 0.43971 0.81876 0.0
H1758 H 0.52597 0.48826 0.83365 0.0
H1759 H 0.5205 0.42473 0.8346 0.0
C1760 C 0.68785 0.80922 0.92995 0.0
C1761 C 0.69726 0.77731 0.92339 0.0
C1762 C 0.68632 0.85586 0.92021 0.0
C1763 C 0.69452 0.87047 0.90395 0.0
C1764 C 0.70483 0.84064 0.89915 0.0
C1765 C 0.706 0.79396 0.90881 0.0
C1766 C 0.67523 0.88682 0.92574 0.0
C1767 C 0.71395 0.85559 0.88227 0.0
C1768 C 0.68256 0.93704 0.85552 0.0
C1769 C 0.68696 -0.01451 0.85874 0.0
C1770 C 0.68453 0.8998 0.87068 0.0
C1771 C 0.6912 0.91133 0.88931 0.0
C1772 C 0.6954 0.9605 0.89292 0.0
C1773 C 0.69317 -0.00279 0.87756 0.0
C1774 C 0.67979 0.84772 0.86643 0.0
C1775 C 0.70264 0.97382 0.91251 0.0
H1776 H 0.68111 0.79611 0.94129 0.0
H1777 H 0.71337 0.76922 0.90405 0.0
H1778 H 0.67755 0.92712 0.92636 0.0
H1779 H 0.66818 0.8818 0.91326 0.0
H1780 H 0.67121 0.87555 0.94122 0.0
H1781 H 0.72243 0.83282 0.88307 0.0
H1782 H 0.70979 0.85031 0.86636 0.0
H1783 H 0.71643 0.89559 0.88382 0.0
H1784 H 0.67766 0.92806 0.84106 0.0
H1785 H 0.69659 0.03478 0.88005 0.0
H1786 H 0.6743 0.83431 0.88012 0.0
H1787 H 0.68759 0.82164 0.86441 0.0
H1788 H 0.67403 0.84595 0.85193 0.0
H1789 H 0.69801 0.95964 0.92699 0.0
H1790 H 0.70397 0.01479 0.91413 0.0
H1791 H 0.71176 0.95577 0.91173 0.0
C1792 C 0.53819 0.8302 0.32597 0.0
C1793 C 0.5302 0.79079 0.33046 0.0
C1794 C 0.5372 0.87534 0.33711 0.0
C1795 C 0.52792 0.88069 0.35265 0.0
C1796 C 0.51897 0.84308 0.35522 0.0
C1797 C 0.52031 0.79816 0.3442 0.0
C1798 C 0.5469 0.91479 0.33394 0.0
C1799 C 0.50876 0.84793 0.37126 0.0
C1800 C 0.53705 0.94641 0.40315 0.0
C1801 C 0.53176 -0.00648 0.40038 0.0
C1802 C 0.53585 0.90952 0.38762 0.0
C1803 C 0.52903 0.91989 0.36902 0.0
C1804 C 0.52335 0.96684 0.36638 0.0
C1805 C 0.52483 0.00336 0.38211 0.0
C1806 C 0.54204 0.85966 0.391 0.0
C1807 C 0.51587 0.97865 0.34689 0.0
H1808 H 0.54581 0.8243 0.31524 0.0
H1809 H 0.51403 0.76764 0.34732 0.0
H1810 H 0.54281 0.95268 0.33389 0.0
H1811 H 0.5535 0.9131 0.3473 0.0
H1812 H 0.55202 0.9092 0.31888 0.0
H1813 H 0.50131 0.82061 0.36824 0.0
H1814 H 0.51243 0.84099 0.3874 0.0
H1815 H 0.50485 0.88615 0.37109 0.0
H1816 H 0.5424 0.93868 0.41724 0.0
H1817 H 0.52069 0.0398 0.37999 0.0
H1818 H 0.54851 0.85208 0.3778 0.0
H1819 H 0.53513 0.82931 0.391 0.0
H1820 H 0.54716 0.85807 0.4062 0.0
H1821 H 0.52183 0.97801 0.33262 0.0
H1822 H 0.51141 0.01585 0.34792 0.0
H1823 H 0.50871 0.94982 0.34454 0.0
C1824 C 0.70882 0.24992 0.38067 0.0
C1825 C 0.70016 0.2525 0.39707 0.0
C1826 C 0.71015 0.28924 0.36623 0.0
C1827 C 0.70253 0.33157 0.36824 0.0
C1828 C 0.69432 0.33568 0.38555 0.0
C1829 C 0.69329 0.29607 0.39989 0.0
C1830 C 0.7192 0.2843 0.34823 0.0
C1831 C 0.6861 0.38061 0.38822 0.0
C1832 C 0.70722 0.45398 0.3401 0.0
C1833 C 0.69821 0.45102 0.32433 0.0
C1834 C 0.70942 0.41371 0.35367 0.0
C1835 C 0.70233 0.36993 0.35144 0.0
C1836 C 0.6939 0.36534 0.33449 0.0
C1837 C 0.69199 0.40605 0.32097 0.0
C1838 C 0.71867 0.41939 0.37129 0.0
C1839 C 0.68622 0.31892 0.33165 0.0
H1840 H 0.71427 0.21641 0.37866 0.0
H1841 H 0.68665 0.29825 0.41266 0.0
H1842 H 0.71421 0.27784 0.33316 0.0
H1843 H 0.72456 0.31921 0.34632 0.0
H1844 H 0.72563 0.25273 0.35073 0.0
H1845 H 0.68075 0.37919 0.40321 0.0
H1846 H 0.69158 0.41546 0.3881 0.0
H1847 H 0.67961 0.38267 0.37471 0.0
H1848 H 0.71218 0.48868 0.34246 0.0
H1849 H 0.68509 0.40371 0.30871 0.0
H1850 H 0.72431 0.38517 0.37286 0.0
H1851 H 0.71382 0.42501 0.38659 0.0
H1852 H 0.72482 0.45184 0.36862 0.0
H1853 H 0.69207 0.28508 0.33191 0.0
H1854 H 0.68099 0.31946 0.31655 0.0
H1855 H 0.67964 0.31576 0.34502 0.0
C1856 C 0.45683 0.51589 0.09241 0.0
C1857 C 0.44843 0.51225 0.0757 0.0
C1858 C 0.45701 0.55782 0.1056 0.0
C1859 C 0.44856 0.59675 0.10189 0.0
C1860 C 0.44055 0.59467 0.08429 0.0
C1861 C 0.4406 0.55229 0.0713 0.0
C1862 C 0.46575 0.55917 0.12414 0.0
C1863 C 0.43148 0.63591 0.07988 0.0
C1864 C 0.43788 0.67303 0.14876 0.0
C1865 C 0.44445 0.71738 0.14578 0.0
C1866 C 0.43928 0.63308 0.13466 0.0
C1867 C 0.44746 0.63784 0.11735 0.0
C1868 C 0.45437 0.68194 0.11462 0.0
C1869 C 0.45278 0.7213 0.12893 0.0
C1870 C 0.43183 0.5862 0.13804 0.0
C1871 C 0.46323 0.68789 0.09637 0.0
H1872 H 0.463 0.48514 0.09567 0.0
H1873 H 0.43415 0.54961 0.05831 0.0
H1874 H 0.47075 0.59523 0.12454 0.0
H1875 H 0.46054 0.55609 0.13921 0.0
H1876 H 0.47253 0.52828 0.12353 0.0
H1877 H 0.42662 0.63043 0.06457 0.0
H1878 H 0.4246 0.63729 0.09283 0.0
H1879 H 0.43617 0.67265 0.07952 0.0
H1880 H 0.43149 0.66988 0.16181 0.0
H1881 H 0.45794 0.75555 0.12668 0.0
H1882 H 0.43796 0.55333 0.13929 0.0
H1883 H 0.42575 0.57991 0.1242 0.0
H1884 H 0.4261 0.58815 0.1526 0.0
H1885 H 0.46995 0.65683 0.09637 0.0
H1886 H 0.46829 0.72385 0.09707 0.0
H1887 H 0.45821 0.6861 0.08109 0.0
C1888 C 0.26896 0.03521 0.15582 0.0
C1889 C 0.27851 0.02669 0.17017 0.0
C1890 C 0.26833 0.0799 0.14439 0.0
C1891 C 0.27757 0.11618 0.14729 0.0
C1892 C 0.28645 0.10994 0.1634 0.0
C1893 C 0.28676 0.06516 0.17482 0.0
C1894 C 0.25852 0.08595 0.12774 0.0
C1895 C 0.29644 0.14798 0.16697 0.0
C1896 C 0.28892 0.1815 0.09804 0.0
C1897 C 0.28427 0.22969 0.10088 0.0
C1898 C 0.28664 0.14411 0.113 0.0
C1899 C 0.27938 0.15519 0.13103 0.0
C1900 C 0.2743 0.2033 0.13364 0.0
C1901 C 0.27688 0.24024 0.11854 0.0
C1902 C 0.29225 0.09307 0.10972 0.0
C1903 C 0.26637 0.21593 0.15253 0.0
H1904 H 0.26242 0.00576 0.15256 0.0
H1905 H 0.29407 0.05885 0.18612 0.0
H1906 H 0.255 0.12479 0.12749 0.0
H1907 H 0.26246 0.07795 0.11186 0.0
H1908 H 0.25075 0.05996 0.13044 0.0
H1909 H 0.30134 0.14158 0.18217 0.0
H1910 H 0.30318 0.14558 0.15381 0.0
H1911 H 0.29267 0.18641 0.16698 0.0
H1912 H 0.29461 0.17324 0.08438 0.0
H1913 H 0.27319 0.27749 0.12065 0.0
H1914 H 0.28498 0.06418 0.10929 0.0
H1915 H 0.29839 0.08396 0.12319 0.0
H1916 H 0.29761 0.09068 0.09476 0.0
H1917 H 0.25897 0.18788 0.15436 0.0
H1918 H 0.26218 0.25359 0.15114 0.0
H1919 H 0.27193 0.21482 0.16723 0.0
C1920 C 0.42567 0.14339 0.67099 0.0
C1921 C 0.43652 0.17055 0.66819 0.0
C1922 C 0.42374 0.09859 0.66003 0.0
C1923 C 0.43295 0.08063 0.64623 0.0
C1924 C 0.44415 0.10672 0.64415 0.0
C1925 C 0.44577 0.1516 0.65512 0.0
C1926 C 0.41169 0.07167 0.6625 0.0
C1927 C 0.45425 0.08811 0.6298 0.0
C1928 C 0.43391 0.94729 0.62706 0.0
C1929 C 0.43009 0.95289 0.60594 0.0
C1930 C 0.43435 -0.01167 0.64077 0.0
C1931 C 0.43078 0.03576 0.63315 0.0
C1932 C 0.42621 0.04108 0.61227 0.0
C1933 C 0.42596 -0.00054 0.59883 0.0
C1934 C 0.43932 0.98146 0.66294 0.0
C1935 C 0.42218 0.09119 0.60377 0.0
H1936 H 0.41849 0.15805 0.68111 0.0
H1937 H 0.4542 0.17242 0.65311 0.0
H1938 H 0.40662 0.07282 0.64726 0.0
H1939 H 0.41324 0.03179 0.66642 0.0
H1940 H 0.40586 0.08857 0.67505 0.0
H1941 H 0.46266 0.11128 0.63099 0.0
H1942 H 0.45662 0.04895 0.63383 0.0
H1943 H 0.4511 0.08849 0.61307 0.0
H1944 H 0.43706 0.91124 0.63265 0.0
H1945 H 0.42291 0.00378 0.58256 0.0
H1946 H 0.43318 -0.00082 0.67478 0.0
H1947 H 0.44836 9e-05 0.66421 0.0
H1948 H 0.44046 0.94142 0.66713 0.0
H1949 H 0.41572 0.1093 0.61498 0.0
H1950 H 0.4177 0.088 0.58801 0.0
H1951 H 0.43024 0.11613 0.60218 0.0
C1952 C 0.29522 0.59182 0.66737 0.0
C1953 C 0.28748 0.55839 0.65678 0.0
C1954 C 0.29682 0.64059 0.65979 0.0
C1955 C 0.29048 0.65572 0.64133 0.0
C1956 C 0.28166 0.62382 0.63204 0.0
C1957 C 0.28028 0.57536 0.6399 0.0
C1958 C 0.30612 0.67402 0.67032 0.0
C1959 C 0.27458 0.63896 0.6125 0.0
C1960 C 0.29154 0.78506 0.61727 0.0
C1961 C 0.30003 0.77758 0.60085 0.0
C1962 C 0.2888 0.74654 0.63159 0.0
C1963 C 0.29467 0.69982 0.62924 0.0
C1964 C 0.30378 0.69322 0.6135 0.0
C1965 C 0.30634 0.73225 0.59948 0.0
C1966 C 0.27915 0.75495 0.64836 0.0
C1967 C 0.31032 0.64393 0.6106 0.0
H1968 H 0.30067 0.579 0.68068 0.0
H1969 H 0.27407 0.54984 0.632 0.0
H1970 H 0.31474 0.67335 0.66098 0.0
H1971 H 0.30288 0.71325 0.67084 0.0
H1972 H 0.30822 0.6615 0.68673 0.0
H1973 H 0.26688 0.61302 0.60917 0.0
H1974 H 0.27087 0.67728 0.61427 0.0
H1975 H 0.28079 0.63901 0.59855 0.0
H1976 H 0.28669 0.82026 0.61842 0.0
H1977 H 0.313 0.72654 0.58695 0.0
H1978 H 0.28193 0.73814 0.66372 0.0
H1979 H 0.27052 0.7366 0.6434 0.0
H1980 H 0.27728 0.79532 0.65082 0.0
H1981 H 0.31428 0.63123 0.62588 0.0
H1982 H 0.31779 0.64626 0.59865 0.0
H1983 H 0.3037 0.61505 0.60533 0.0
C1984 C 0.06336 0.77938 0.391 0.0
C1985 C 0.05446 0.75691 0.4039 0.0
C1986 C 0.062 0.82846 0.38385 0.0
C1987 C 0.05146 0.85577 0.38969 0.0
C1988 C 0.0427 0.83426 0.40354 0.0
C1989 C 0.04434 0.7849 0.41058 0.0
C1990 C 0.07164 0.85032 0.36933 0.0
C1991 C 0.03138 0.86254 0.41013 0.0
C1992 C 0.05434 -0.00553 0.37982 0.0
C1993 C 0.04921 -0.00104 0.35947 0.0
C1994 C 0.05454 0.94849 0.3904 0.0
C1995 C 0.0495 0.90598 0.3804 0.0
C1996 C 0.04381 0.91062 0.3603 0.0
C1997 C 0.04375 0.95711 0.35004 0.0
C1998 C 0.0607 0.94493 0.4118 0.0
C1999 C 0.03831 0.866 0.3492 0.0
H2000 H 0.07128 0.75805 0.38599 0.0
H2001 H 0.03742 0.76755 0.42049 0.0
H2002 H 0.06761 0.85788 0.35349 0.0
H2003 H 0.07497 0.88644 0.37573 0.0
H2004 H 0.07959 0.825 0.36724 0.0
H2005 H 0.02605 0.84233 0.42246 0.0
H2006 H 0.03387 0.89997 0.41632 0.0
H2007 H 0.02543 0.86839 0.39609 0.0
H2008 H 0.05849 0.02668 0.38734 0.0
H2009 H 0.03968 0.96034 0.33443 0.0
H2010 H 0.06932 0.92341 0.41024 0.0
H2011 H 0.05479 0.92466 0.42324 0.0
H2012 H 0.0629 0.98227 0.41847 0.0
H2013 H 0.04568 0.83963 0.3446 0.0
H2014 H 0.03318 0.87674 0.33468 0.0
H2015 H 0.03202 0.84576 0.36004 0.0
C2016 C 0.18529 0.4903 0.36824 0.0
C2017 C 0.18951 0.4928 0.38928 0.0
C2018 C 0.18444 0.44458 0.35756 0.0
C2019 C 0.18791 0.40028 0.36814 0.0
C2020 C 0.19277 0.40272 0.38895 0.0
C2021 C 0.1935 0.44903 0.39931 0.0
C2022 C 0.17921 0.44345 0.33538 0.0
C2023 C 0.19661 0.35613 0.40068 0.0
C2024 C 0.17141 0.28006 0.35544 0.0
C2025 C 0.18027 0.25374 0.34385 0.0
C2026 C 0.17368 0.3284 0.36282 0.0
C2027 C 0.1851 0.35107 0.35851 0.0
C2028 C 0.19385 0.32586 0.34586 0.0
C2029 C 0.19132 0.27732 0.3386 0.0
C2030 C 0.16402 0.35433 0.37602 0.0
C2031 C 0.20608 0.3492 0.34085 0.0
H2032 H 0.18229 0.52396 0.36024 0.0
H2033 H 0.19685 0.45066 0.41548 0.0
H2034 H 0.18502 0.42046 0.32475 0.0
H2035 H 0.17001 0.42597 0.33575 0.0
H2036 H 0.17833 0.48145 0.32846 0.0
H2037 H 0.20133 0.36481 0.41585 0.0
H2038 H 0.18842 0.33308 0.40426 0.0
H2039 H 0.20279 0.33322 0.39066 0.0
H2040 H 0.16279 0.26221 0.35934 0.0
H2041 H 0.19821 0.25707 0.3297 0.0
H2042 H 0.16194 0.39162 0.36926 0.0
H2043 H 0.16749 0.36025 0.39238 0.0
H2044 H 0.15539 0.33254 0.37696 0.0
H2045 H 0.20484 0.38749 0.33447 0.0
H2046 H 0.21138 0.32685 0.32917 0.0
H2047 H 0.21153 0.35247 0.35563 0.0
C2048 C 0.03965 0.42236 0.83312 0.0
C2049 C 0.05099 0.44387 0.83804 0.0
C2050 C 0.037 0.37297 0.83914 0.0
C2051 C 0.04592 0.34495 0.85024 0.0
C2052 C 0.05768 0.36536 0.85376 0.0
C2053 C 0.06006 0.41451 0.84757 0.0
C2054 C 0.02443 0.35202 0.83484 0.0
C2055 C 0.0675 0.33654 0.86536 0.0
C2056 C 0.03788 0.24956 0.89217 0.0
C2057 C 0.04131 0.20497 0.88215 0.0
C2058 C 0.0386 0.2953 0.88143 0.0
C2059 C 0.04279 0.29637 0.86015 0.0
C2060 C 0.0455 0.25122 0.84952 0.0
C2061 C 0.04477 0.20602 0.86067 0.0
C2062 C 0.03561 0.34278 0.89331 0.0
C2063 C 0.04986 0.25088 0.82676 0.0
H2064 H 0.03261 0.44491 0.82572 0.0
H2065 H 0.06892 0.43076 0.85111 0.0
H2066 H 0.02505 0.31314 0.82885 0.0
H2067 H 0.01913 0.35103 0.84986 0.0
H2068 H 0.01931 0.37496 0.82315 0.0
H2069 H 0.07643 0.35636 0.8653 0.0
H2070 H 0.06466 0.3306 0.88209 0.0
H2071 H 0.06878 0.29921 0.85806 0.0
H2072 H 0.03509 0.24906 0.90869 0.0
H2073 H 0.04728 0.17164 0.85269 0.0
H2074 H 0.02931 0.36642 0.88386 0.0
H2075 H 0.04412 0.36456 0.89588 0.0
H2076 H 0.03134 0.33525 0.909 0.0
H2077 H 0.04412 0.27579 0.81683 0.0
H2078 H 0.04972 0.21274 0.81982 0.0
H2079 H 0.05937 0.26521 0.82602 0.0
C2080 C 0.19198 0.94248 0.90986 0.0
C2081 C 0.17998 0.95949 0.90693 0.0
C2082 C 0.19563 0.89561 0.90207 0.0
C2083 C 0.18699 0.86523 0.89141 0.0
C2084 C 0.1747 0.88119 0.88955 0.0
C2085 C 0.17137 0.92825 0.89723 0.0
C2086 C 0.20881 0.87976 0.90427 0.0
C2087 C 0.16514 0.84939 0.8787 0.0
C2088 C 0.19451 0.76901 0.84944 0.0
C2089 C 0.19226 0.72463 0.86057 0.0
C2090 C 0.19377 0.81542 0.85975 0.0
C2091 C 0.19067 0.8172 0.8816 0.0
C2092 C 0.18935 0.77241 0.89322 0.0
C2093 C 0.19019 0.72667 0.88257 0.0
C2094 C 0.19542 0.86257 0.84693 0.0
C2095 C 0.18607 0.77271 0.91652 0.0
H2096 H 0.19868 0.96687 0.91717 0.0
H2097 H 0.16207 0.9413 0.89506 0.0
H2098 H 0.20941 0.84115 0.91057 0.0
H2099 H 0.21323 0.87978 0.88841 0.0
H2100 H 0.21404 0.90507 0.91489 0.0
H2101 H 0.15587 0.86624 0.87957 0.0
H2102 H 0.1676 0.84433 0.86174 0.0
H2103 H 0.1648 0.81177 0.88606 0.0
H2104 H 0.19622 0.76774 0.8325 0.0
H2105 H 0.18865 0.6925 0.89141 0.0
H2106 H 0.20136 0.88942 0.8555 0.0
H2107 H 0.1864 0.88076 0.84461 0.0
H2108 H 0.19948 0.85498 0.83107 0.0
H2109 H 0.19182 0.79982 0.92532 0.0
H2110 H 0.18714 0.73527 0.92388 0.0
H2111 H 0.1764 0.78456 0.91841 0.0
C2112 C 0.92901 0.17394 0.59466 0.0
C2113 C 0.93795 0.20619 0.58659 0.0
C2114 C 0.93207 0.12616 0.60182 0.0
C2115 C 0.94444 0.11062 0.60125 0.0
C2116 C 0.95343 0.14199 0.59201 0.0
C2117 C 0.95004 0.18956 0.58461 0.0
C2118 C 0.92214 0.09338 0.61105 0.0
C2119 C 0.9667 0.1267 0.59119 0.0
C2120 C 0.95016 0.0147 0.64414 0.0
C2121 C 0.94846 0.97019 0.63283 0.0
C2122 C 0.94989 0.06102 0.63369 0.0
C2123 C 0.94783 0.06265 0.61149 0.0
C2124 C 0.9471 0.01774 0.5998 0.0
C2125 C 0.94745 0.97205 0.6106 0.0
C2126 C 0.9509 0.10827 0.64664 0.0
C2127 C 0.94496 0.01785 0.57611 0.0
H2128 H 0.91965 0.18694 0.59612 0.0
H2129 H 0.95697 0.21488 0.57861 0.0
H2130 H 0.92233 0.05593 0.60352 0.0
H2131 H 0.92374 0.08808 0.6283 0.0
H2132 H 0.91288 0.10963 0.60888 0.0
H2133 H 0.97217 0.15171 0.5808 0.0
H2134 H 0.9706 0.12809 0.60744 0.0
H2135 H 0.96764 0.08775 0.58542 0.0
H2136 H 0.95109 0.01361 0.66126 0.0
H2137 H 0.94634 0.9378 0.60163 0.0
H2138 H 0.94179 0.12638 0.64769 0.0
H2139 H 0.95721 0.13512 0.63889 0.0
H2140 H 0.9542 0.10083 0.66302 0.0
H2141 H 0.93536 0.02878 0.57286 0.0
H2142 H 0.9466 0.98053 0.56894 0.0
H2143 H 0.95096 0.04552 0.56815 0.0
C2144 C 0.79306 0.45801 0.64342 0.0
C2145 C 0.79051 0.45597 0.62158 0.0
C2146 C 0.79299 0.50355 0.65439 0.0
C2147 C 0.79037 0.54805 0.64322 0.0
C2148 C 0.7871 0.54592 0.62149 0.0
C2149 C 0.7872 0.49985 0.61092 0.0
C2150 C 0.79641 0.50433 0.6776 0.0
C2151 C 0.78422 0.59268 0.60905 0.0
C2152 C 0.78512 0.67393 0.66941 0.0
C2153 C 0.79636 0.69709 0.6653 0.0
C2154 C 0.78314 0.62406 0.66332 0.0
C2155 C 0.79269 0.59725 0.65324 0.0
C2156 C 0.80434 0.61953 0.65073 0.0
C2157 C 0.80599 0.66936 0.65664 0.0
C2158 C 0.77062 0.60143 0.66627 0.0
C2159 C 0.81485 0.59195 0.64043 0.0
H2160 H 0.79547 0.42416 0.65188 0.0
H2161 H 0.7851 0.49856 0.59412 0.0
H2162 H 0.80571 0.52033 0.6794 0.0
H2163 H 0.79003 0.5284 0.68672 0.0
H2164 H 0.79637 0.46632 0.68468 0.0
H2165 H 0.78062 0.5842 0.59296 0.0
H2166 H 0.77739 0.61573 0.61766 0.0
H2167 H 0.79263 0.61549 0.60729 0.0
H2168 H 0.77766 0.69571 0.67596 0.0
H2169 H 0.8147 0.68745 0.65361 0.0
H2170 H 0.77131 0.56266 0.67236 0.0
H2171 H 0.7659 0.5997 0.65069 0.0
H2172 H 0.76488 0.6237 0.67734 0.0
H2173 H 0.8161 0.55483 0.64794 0.0
H2174 H 0.82359 0.61296 0.64157 0.0
H2175 H 0.81278 0.58561 0.6234 0.0
C2176 C 0.94776 0.539 0.16264 0.0
C2177 C 0.93631 0.51636 0.1601 0.0
C2178 C 0.94999 0.5869 0.15436 0.0
C2179 C 0.94046 0.61256 0.14375 0.0
C2180 C 0.92874 0.59053 0.14207 0.0
C2181 C 0.92685 0.54252 0.15011 0.0
C2182 C 0.96262 0.6092 0.1562 0.0
C2183 C 0.91824 0.61714 0.13132 0.0
C2184 C 0.93971 0.75234 0.13696 0.0
C2185 C 0.94178 0.75744 0.11504 0.0
C2186 C 0.93998 0.70554 0.14678 0.0
C2187 C 0.9425 0.66271 0.13445 0.0
C2188 C 0.94536 0.66775 0.1126 0.0
C2189 C 0.9449 0.71517 0.10309 0.0
C2190 C 0.93675 0.70166 0.17006 0.0
C2191 C 0.94827 0.62278 0.09906 0.0
H2192 H 0.95512 0.51829 0.17008 0.0
H2193 H 0.91799 0.52486 0.1482 0.0
H2194 H 0.96664 0.6137 0.14013 0.0
H2195 H 0.96214 0.64691 0.16344 0.0
H2196 H 0.96884 0.58559 0.16586 0.0
H2197 H 0.90959 0.59544 0.1321 0.0
H2198 H 0.9167 0.65406 0.13886 0.0
H2199 H 0.9205 0.62393 0.11439 0.0
H2200 H 0.93741 0.78478 0.14644 0.0
H2201 H 0.94664 0.71884 0.08621 0.0
H2202 H 0.9435 0.67813 0.17856 0.0
H2203 H 0.92768 0.68345 0.17177 0.0
H2204 H 0.93635 0.73881 0.17789 0.0
H2205 H 0.95505 0.59851 0.1071 0.0
H2206 H 0.9519 0.63353 0.08322 0.0
H2207 H 0.93984 0.60033 0.0967 0.0
C2208 C 0.77623 0.18408 0.15195 0.0
C2209 C 0.78886 0.19286 0.1527 0.0
C2210 C 0.77166 0.13805 0.14473 0.0
C2211 C 0.77997 0.1004 0.13836 0.0
C2212 C 0.79272 0.10795 0.14077 0.0
C2213 C 0.79699 0.15421 0.14782 0.0
C2214 C 0.75802 0.13126 0.14252 0.0
C2215 C 0.80192 0.06835 0.13462 0.0
C2216 C 0.77443 0.96422 0.12827 0.0
C2217 C 0.77613 0.96234 0.10617 0.0
C2218 C 0.77422 0.00997 0.13904 0.0
C2219 C 0.77573 0.05461 0.12739 0.0
C2220 C 0.77584 0.05319 0.1049 0.0
C2221 C 0.77605 0.0069 0.09451 0.0
C2222 C 0.77378 0.01001 0.16299 0.0
C2223 C 0.77714 0.10025 0.09189 0.0
H2224 H 0.76993 0.21416 0.15561 0.0
H2225 H 0.80676 0.16094 0.14863 0.0
H2226 H 0.75537 0.13774 0.12575 0.0
H2227 H 0.75522 0.09271 0.14677 0.0
H2228 H 0.75289 0.15809 0.15262 0.0
H2229 H 0.81142 0.07895 0.13895 0.0
H2230 H 0.79968 0.03242 0.14248 0.0
H2231 H 0.80157 0.06206 0.11721 0.0
H2232 H 0.77416 0.9299 0.13739 0.0
H2233 H 0.77712 0.0058 0.07741 0.0
H2234 H 0.76825 0.04173 0.16902 0.0
H2235 H 0.78319 0.01433 0.16929 0.0
H2236 H 0.76992 0.9746 0.16931 0.0
H2237 H 0.77104 0.13001 0.09806 0.0
H2238 H 0.77499 0.09374 0.07488 0.0
H2239 H 0.78669 0.11405 0.09303 0.0
C2240 C 0.56819 0.76981 0.88666 0.0
C2241 C 0.5598 0.74609 0.90017 0.0
C2242 C 0.56631 0.81887 0.87982 0.0
C2243 C 0.55578 0.84493 0.88669 0.0
C2244 C 0.54762 0.82233 0.90127 0.0
C2245 C 0.54973 0.773 0.9079 0.0
C2246 C 0.57531 0.84189 0.86442 0.0
C2247 C 0.53635 0.84933 0.90904 0.0
C2248 C 0.55675 -0.01603 0.87625 0.0
C2249 C 0.55072 -0.01284 0.85662 0.0
C2250 C 0.55797 0.93817 0.88679 0.0
C2251 C 0.55306 0.89458 0.87745 0.0
C2252 C 0.54654 0.89779 0.85809 0.0
C2253 C 0.54545 0.9441 0.84789 0.0
C2254 C 0.56497 0.93611 0.90742 0.0
C2255 C 0.54117 0.85196 0.84768 0.0
H2256 H 0.57607 0.74943 0.88082 0.0
H2257 H 0.54322 0.75483 0.91833 0.0
H2258 H 0.57075 0.84842 0.84893 0.0
H2259 H 0.57847 0.87865 0.87038 0.0
H2260 H 0.58342 0.81776 0.86171 0.0
H2261 H 0.53164 0.8287 0.92199 0.0
H2262 H 0.53877 0.88718 0.91485 0.0
H2263 H 0.52985 0.85414 0.89568 0.0
H2264 H 0.56078 0.01711 0.88323 0.0
H2265 H 0.54071 0.94628 0.83282 0.0
H2266 H 0.57371 0.91582 0.90496 0.0
H2267 H 0.5597 0.91527 0.91959 0.0
H2268 H 0.56709 0.97392 0.91368 0.0
H2269 H 0.54865 0.82663 0.84258 0.0
H2270 H 0.53553 0.86138 0.83358 0.0
H2271 H 0.53541 0.83109 0.85916 0.0
C2272 C 0.68431 0.50648 0.85627 0.0
C2273 C 0.68874 0.50827 0.87717 0.0
C2274 C 0.68344 0.46106 0.84531 0.0
C2275 C 0.68702 0.41646 0.85556 0.0
C2276 C 0.69218 0.41837 0.87616 0.0
C2277 C 0.693 0.46431 0.88672 0.0
C2278 C 0.67801 0.4605 0.82329 0.0
C2279 C 0.69613 0.37149 0.8876 0.0
C2280 C 0.67019 0.29596 0.84551 0.0
C2281 C 0.67896 0.26799 0.83447 0.0
C2282 C 0.67248 0.34534 0.85145 0.0
C2283 C 0.68385 0.36736 0.8462 0.0
C2284 C 0.69242 0.34061 0.83373 0.0
C2285 C 0.68986 0.29099 0.82795 0.0
C2286 C 0.66303 0.37279 0.86453 0.0
C2287 C 0.70457 0.36323 0.82765 0.0
H2288 H 0.68115 0.54038 0.84864 0.0
H2289 H 0.69654 0.4654 0.90278 0.0
H2290 H 0.68347 0.43633 0.81256 0.0
H2291 H 0.66863 0.44476 0.82398 0.0
H2292 H 0.67748 0.49855 0.81632 0.0
H2293 H 0.70109 0.37983 0.90257 0.0
H2294 H 0.68796 0.34865 0.89152 0.0
H2295 H 0.70212 0.34854 0.87726 0.0
H2296 H 0.66167 0.27852 0.85031 0.0
H2297 H 0.69667 0.26947 0.8194 0.0
H2298 H 0.66107 0.40987 0.85747 0.0
H2299 H 0.66663 0.37923 0.88077 0.0
H2300 H 0.65431 0.35172 0.86584 0.0
H2301 H 0.70334 0.40187 0.82166 0.0
H2302 H 0.70935 0.34082 0.81533 0.0
H2303 H 0.71051 0.36533 0.84188 0.0
C2304 C 0.5478 0.51547 0.39092 0.0
C2305 C 0.54174 0.52266 0.37153 0.0
C2306 C 0.54766 0.46891 0.40107 0.0
C2307 C 0.54123 0.42883 0.39164 0.0
C2308 C 0.53451 0.43662 0.37274 0.0
C2309 C 0.53489 0.48344 0.36284 0.0
C2310 C 0.55499 0.46187 0.42115 0.0
C2311 C 0.52747 0.39474 0.36231 0.0
C2312 C 0.55326 0.29753 0.39653 0.0
C2313 C 0.54486 0.27591 0.41061 0.0
C2314 C 0.55247 0.34792 0.39103 0.0
C2315 C 0.54295 0.37733 0.39967 0.0
C2316 C 0.53477 0.35643 0.4147 0.0
C2317 C 0.53587 0.30571 0.42013 0.0
C2318 C 0.56151 0.36901 0.37521 0.0
C2319 C 0.52452 0.38688 0.42418 0.0
H2320 H 0.55306 0.5457 0.39783 0.0
H2321 H 0.53004 0.48892 0.34802 0.0
H2322 H 0.54956 0.44149 0.43326 0.0
H2323 H 0.5632 0.43899 0.41762 0.0
H2324 H 0.55804 0.49802 0.428 0.0
H2325 H 0.52157 0.40833 0.34918 0.0
H2326 H 0.53398 0.3669 0.35576 0.0
H2327 H 0.52165 0.37523 0.37414 0.0
H2328 H 0.56033 0.27463 0.38939 0.0
H2329 H 0.52936 0.2889 0.43099 0.0
H2330 H 0.56577 0.40348 0.38157 0.0
H2331 H 0.55668 0.37926 0.36035 0.0
H2332 H 0.56888 0.34203 0.3712 0.0
H2333 H 0.52802 0.42306 0.43022 0.0
H2334 H 0.51984 0.36689 0.43735 0.0
H2335 H 0.51767 0.39539 0.4117 0.0
C2336 C 0.68223 0.95566 0.37027 0.0
C2337 C 0.6897 0.97056 0.38722 0.0
C2338 C 0.68254 0.90687 0.36252 0.0
C2339 C 0.69063 0.87204 0.37178 0.0
C2340 C 0.69834 0.88674 0.38874 0.0
C2341 C 0.69771 0.93597 0.39644 0.0
C2342 C 0.67398 0.89241 0.3447 0.0
C2343 C 0.70717 0.85044 0.39875 0.0
C2344 C 0.68041 0.73853 0.36489 0.0
C2345 C 0.68688 0.7242 0.34664 0.0
C2346 C 0.68195 0.78593 0.37378 0.0
C2347 C 0.69031 0.8196 0.36436 0.0
C2348 C 0.6972 0.80486 0.34637 0.0
C2349 C 0.6953 0.75735 0.33754 0.0
C2350 C 0.67422 0.80072 0.39267 0.0
C2351 C 0.70631 0.83974 0.33613 0.0
H2352 H 0.67594 0.98209 0.36316 0.0
H2353 H 0.70355 0.9475 0.40943 0.0
H2354 H 0.67927 0.87752 0.33106 0.0
H2355 H 0.66772 0.86236 0.35012 0.0
H2356 H 0.66838 0.92436 0.33906 0.0
H2357 H 0.71305 0.86851 0.41091 0.0
H2358 H 0.70205 0.81947 0.40637 0.0
H2359 H 0.71312 0.83364 0.38637 0.0
H2360 H 0.67387 0.71303 0.37198 0.0
H2361 H 0.70044 0.74608 0.32361 0.0
H2362 H 0.66783 0.83099 0.38801 0.0
H2363 H 0.68007 0.8155 0.4056 0.0
H2364 H 0.66878 0.76897 0.39898 0.0
H2365 H 0.70141 0.87129 0.32854 0.0
H2366 H 0.71193 0.82069 0.32385 0.0
H2367 H 0.71249 0.85583 0.3483 0.0
C2368 C 0.45752 0.22946 0.11463 0.0
C2369 C 0.4507 0.2325 0.09586 0.0
C2370 C 0.459 0.18384 0.12516 0.0
C2371 C 0.45314 0.14088 0.11705 0.0
C2372 C 0.44682 0.14328 0.09742 0.0
C2373 C 0.44582 0.18921 0.08685 0.0
C2374 C 0.4662 0.18231 0.14558 0.0
C2375 C 0.44034 0.09824 0.08837 0.0
C2376 C 0.45846 0.00839 0.13529 0.0
C2377 C 0.44831 0.00105 0.14848 0.0
C2378 C 0.46079 0.05522 0.12624 0.0
C2379 C 0.45249 0.09473 0.12998 0.0
C2380 C 0.44268 0.08821 0.14449 0.0
C2381 C 0.44077 0.04124 0.15375 0.0
C2382 C 0.47157 0.06123 0.11145 0.0
C2383 C 0.43358 0.12942 0.14876 0.0
H2384 H 0.46135 0.26321 0.12146 0.0
H2385 H 0.44046 0.19193 0.07242 0.0
H2386 H 0.45983 0.1792 0.15923 0.0
H2387 H 0.47229 0.14915 0.14594 0.0
H2388 H 0.47185 0.21644 0.14776 0.0
H2389 H 0.43641 0.10573 0.07243 0.0
H2390 H 0.44674 0.06625 0.0871 0.0
H2391 H 0.43283 0.08685 0.0992 0.0
H2392 H 0.46418 0.97676 0.13111 0.0
H2393 H 0.4328 0.03489 0.16365 0.0
H2394 H 0.47623 0.09746 0.11421 0.0
H2395 H 0.46832 0.06095 0.09477 0.0
H2396 H 0.47832 0.03056 0.11341 0.0
H2397 H 0.43838 0.16433 0.15328 0.0
H2398 H 0.42704 0.11947 0.1616 0.0
H2399 H 0.42832 0.1373 0.13409 0.0
C2400 C 0.28784 0.74869 0.10952 0.0
C2401 C 0.28542 0.75262 0.13138 0.0
C2402 C 0.28841 0.70212 0.09948 0.0
C2403 C 0.2864 0.65838 0.11153 0.0
C2404 C 0.28317 0.66212 0.13326 0.0
C2405 C 0.28277 0.70928 0.14298 0.0
C2406 C 0.29196 0.69965 0.07632 0.0
C2407 C 0.28078 0.61616 0.14652 0.0
C2408 C 0.28284 0.53253 0.08429 0.0
C2409 C 0.29443 0.51181 0.08774 0.0
C2410 C 0.28008 0.58082 0.09161 0.0
C2411 C 0.28922 0.60887 0.10217 0.0
C2412 C 0.30113 0.589 0.10451 0.0
C2413 C 0.30355 0.54049 0.09745 0.0
C2414 C 0.26725 0.60072 0.08904 0.0
C2415 C 0.31122 0.61821 0.1152 0.0
H2416 H 0.2898 0.78196 0.10032 0.0
H2417 H 0.28078 0.71198 0.1598 0.0
H2418 H 0.30135 0.68431 0.07487 0.0
H2419 H 0.28576 0.67425 0.06752 0.0
H2420 H 0.29176 0.73697 0.06861 0.0
H2421 H 0.2769 0.62557 0.16234 0.0
H2422 H 0.27438 0.59067 0.13822 0.0
H2423 H 0.28947 0.59556 0.14893 0.0
H2424 H 0.27575 0.50999 0.07702 0.0
H2425 H 0.31252 0.52437 0.10003 0.0
H2426 H 0.26743 0.63882 0.08214 0.0
H2427 H 0.26283 0.60355 0.10486 0.0
H2428 H 0.26155 0.57631 0.07878 0.0
H2429 H 0.31224 0.65539 0.10762 0.0
H2430 H 0.32016 0.59858 0.11446 0.0
H2431 H 0.30885 0.62454 0.13212 0.0
C2432 C 0.45332 0.49072 0.65516 0.0
C2433 C 0.45512 0.44668 0.64359 0.0
C2434 C 0.45477 0.53741 0.64534 0.0
C2435 C 0.45809 0.53956 0.62359 0.0
C2436 C 0.4617 0.49552 0.61296 0.0
C2437 C 0.4601 0.4494 0.62307 0.0
C2438 C 0.4512 0.58384 0.65741 0.0
C2439 C 0.46572 0.49639 0.59004 0.0
C2440 C 0.43823 0.63053 0.59383 0.0
C2441 C 0.44593 0.67191 0.5918 0.0
C2442 C 0.44236 0.58645 0.60319 0.0
C2443 C 0.45451 0.58387 0.61091 0.0
C2444 C 0.46261 0.62445 0.6076 0.0
C2445 C 0.4582 0.6683 0.59797 0.0
C2446 C 0.43343 0.54375 0.60595 0.0
C2447 C 0.47563 0.62309 0.61545 0.0
H2448 H 0.44967 0.48882 0.67115 0.0
H2449 H 0.46186 0.41533 0.61427 0.0
H2450 H 0.45754 0.61502 0.65377 0.0
H2451 H 0.44188 0.59552 0.65252 0.0
H2452 H 0.45115 0.57738 0.67484 0.0
H2453 H 0.47084 0.46201 0.58572 0.0
H2454 H 0.45753 0.49885 0.57969 0.0
H2455 H 0.47154 0.52942 0.58672 0.0
H2456 H 0.42875 0.63355 0.58895 0.0
H2457 H 0.4641 0.70071 0.59659 0.0
H2458 H 0.43169 0.53736 0.6231 0.0
H2459 H 0.43732 0.50883 0.5993 0.0
H2460 H 0.42453 0.55106 0.59805 0.0
H2461 H 0.47579 0.63338 0.63251 0.0
H2462 H 0.48148 0.65012 0.60671 0.0
H2463 H 0.47964 0.58521 0.61391 0.0
C2464 C 0.3043 0.09209 0.562 0.0
C2465 C 0.29533 0.05515 0.56001 0.0
C2466 C 0.30122 0.14063 0.56811 0.0
C2467 C 0.28882 0.15235 0.5723 0.0
C2468 C 0.27958 0.11666 0.56793 0.0
C2469 C 0.28297 0.06801 0.56185 0.0
C2470 C 0.31139 0.17752 0.57236 0.0
C2471 C 0.26625 0.12824 0.57162 0.0
C2472 C 0.28715 0.24238 0.61826 0.0
C2473 C 0.28707 0.28833 0.60765 0.0
C2474 C 0.28676 0.19739 0.60691 0.0
C2475 C 0.28605 0.19852 0.58444 0.0
C2476 C 0.28481 0.24474 0.57381 0.0
C2477 C 0.28549 0.28921 0.58553 0.0
C2478 C 0.28813 0.14882 0.61888 0.0
C2479 C 0.28363 0.24741 0.54997 0.0
H2480 H 0.31386 0.08183 0.56053 0.0
H2481 H 0.27605 0.03918 0.56046 0.0
H2482 H 0.30933 0.21411 0.56496 0.0
H2483 H 0.31223 0.18362 0.58973 0.0
H2484 H 0.32035 0.16421 0.56624 0.0
H2485 H 0.26024 0.10229 0.56266 0.0
H2486 H 0.26413 0.12422 0.58876 0.0
H2487 H 0.26408 0.16719 0.56694 0.0
H2488 H 0.28828 0.24148 0.63536 0.0
H2489 H 0.28516 0.32471 0.57727 0.0
H2490 H 0.29719 0.13212 0.61524 0.0
H2491 H 0.28104 0.12173 0.61381 0.0
H2492 H 0.28742 0.15406 0.63633 0.0
H2493 H 0.29273 0.24167 0.54258 0.0
H2494 H 0.28007 0.28425 0.54471 0.0
H2495 H 0.27747 0.21762 0.544 0.0
loop_
_geom_bond_atom_site_label_1
_geom_bond_atom_site_label_2
_geom_bond_distance
_geom_bond_site_symmetry_2
_ccdc_geom_bond_type
C0 O1 1.306 . S
C0 O3 1.160 . S
O1 C0 1.306 . S
O1 Cd2 2.228 . S
Cd2 O1 2.228 . S
Cd2 O6 2.273 . S
Cd2 O10 2.277 . S
O3 C0 1.160 . S
O3 Cd4 2.203 . S
Cd4 O3 2.203 . S
Cd4 O6 2.411 . S
Cd4 O7 2.333 . S
Cd4 O8 2.352 . S
Cd4 O12 2.277 . S
Cd4 O13 2.356 . S
C5 O10 1.209 . S
C5 O12 1.226 . S
O6 Cd2 2.273 . S
O6 Cd4 2.411 . S
O6 C9 1.320 . S
O7 Cd4 2.333 . S
O7 C9 1.214 . S
O8 Cd4 2.352 . S
O8 C11 1.258 . S
C9 O6 1.320 . S
C9 O7 1.214 . S
O10 Cd2 2.277 . S
O10 C5 1.209 . S
C11 O8 1.258 . S
C11 O13 1.282 . S
O12 Cd4 2.277 . S
O12 C5 1.226 . S
O13 Cd4 2.356 . S
O13 C11 1.282 . S
C14 O15 1.306 . S
C14 O17 1.160 . S
O15 C14 1.306 . S
O15 Cd16 2.228 . S
Cd16 O15 2.228 . S
Cd16 O20 2.273 . S
Cd16 O24 2.277 . S
O17 C14 1.160 . S
O17 Cd18 2.203 . S
Cd18 O17 2.203 . S
Cd18 O20 2.411 . S
Cd18 O21 2.333 . S
Cd18 O22 2.352 . S
Cd18 O26 2.277 . S
Cd18 O27 2.356 . S
C19 O24 1.209 . S
C19 O26 1.226 . S
O20 Cd16 2.273 . S
O20 Cd18 2.411 . S
O20 C23 1.320 . S
O21 Cd18 2.333 . S
O21 C23 1.214 . S
O22 Cd18 2.352 . S
O22 C25 1.258 . S
C23 O20 1.320 . S
C23 O21 1.214 . S
O24 Cd16 2.277 . S
O24 C19 1.209 . S
C25 O22 1.258 . S
C25 O27 1.282 . S
O26 Cd18 2.277 . S
O26 C19 1.226 . S
O27 Cd18 2.356 . S
O27 C25 1.282 . S
C28 O29 1.306 . S
C28 O31 1.160 . S
O29 C28 1.306 . S
O29 Cd30 2.228 . S
Cd30 O29 2.228 . S
Cd30 O34 2.273 . S
Cd30 O38 2.277 . S
O31 C28 1.160 . S
O31 Cd32 2.203 . S
Cd32 O31 2.203 . S
Cd32 O34 2.411 . S
Cd32 O35 2.333 . S
Cd32 O36 2.352 . S
Cd32 O40 2.277 . S
Cd32 O41 2.356 . S
C33 O38 1.209 . S
C33 O40 1.226 . S
O34 Cd30 2.273 . S
O34 Cd32 2.411 . S
O34 C37 1.320 . S
O35 Cd32 2.333 . S
O35 C37 1.214 . S
O36 Cd32 2.352 . S
O36 C39 1.258 . S
C37 O34 1.320 . S
C37 O35 1.214 . S
O38 Cd30 2.277 . S
O38 C33 1.209 . S
C39 O36 1.258 . S
C39 O41 1.282 . S
O40 Cd32 2.277 . S
O40 C33 1.226 . S
O41 Cd32 2.356 . S
O41 C39 1.282 . S
C42 O43 1.306 . S
C42 O45 1.160 . S
O43 C42 1.306 . S
O43 Cd44 2.228 . S
Cd44 O43 2.228 . S
Cd44 O48 2.273 . S
Cd44 O52 2.277 . S
O45 C42 1.160 . S
O45 Cd46 2.203 . S
Cd46 O45 2.203 . S
Cd46 O48 2.411 . S
Cd46 O49 2.333 . S
Cd46 O50 2.352 . S
Cd46 O54 2.277 . S
Cd46 O55 2.356 . S
C47 O52 1.209 . S
C47 O54 1.226 . S
O48 Cd44 2.273 . S
O48 Cd46 2.411 . S
O48 C51 1.320 . S
O49 Cd46 2.333 . S
O49 C51 1.214 . S
O50 Cd46 2.352 . S
O50 C53 1.258 . S
C51 O48 1.320 . S
C51 O49 1.214 . S
O52 Cd44 2.277 . S
O52 C47 1.209 . S
C53 O50 1.258 . S
C53 O55 1.282 . S
O54 Cd46 2.277 . S
O54 C47 1.226 . S
O55 Cd46 2.356 . S
O55 C53 1.282 . S
C56 O57 1.306 . S
C56 O59 1.160 . S
O57 C56 1.306 . S
O57 Cd58 2.228 . S
Cd58 O57 2.228 . S
Cd58 O62 2.273 . S
Cd58 O66 2.277 . S
O59 C56 1.160 . S
O59 Cd60 2.203 . S
Cd60 O59 2.203 . S
Cd60 O62 2.411 . S
Cd60 O63 2.333 . S
Cd60 O64 2.352 . S
Cd60 O68 2.277 . S
Cd60 O69 2.356 . S
C61 O66 1.209 . S
C61 O68 1.226 . S
O62 Cd58 2.273 . S
O62 Cd60 2.411 . S
O62 C65 1.320 . S
O63 Cd60 2.333 . S
O63 C65 1.214 . S
O64 Cd60 2.352 . S
O64 C67 1.258 . S
C65 O62 1.320 . S
C65 O63 1.214 . S
O66 Cd58 2.277 . S
O66 C61 1.209 . S
C67 O64 1.258 . S
C67 O69 1.282 . S
O68 Cd60 2.277 . S
O68 C61 1.226 . S
O69 Cd60 2.356 . S
O69 C67 1.282 . S
C70 O71 1.306 . S
C70 O73 1.160 . S
O71 C70 1.306 . S
O71 Cd72 2.228 . S
Cd72 O71 2.228 . S
Cd72 O76 2.273 . S
Cd72 O80 2.277 . S
O73 C70 1.160 . S
O73 Cd74 2.203 . S
Cd74 O73 2.203 . S
Cd74 O76 2.411 . S
Cd74 O77 2.333 . S
Cd74 O78 2.352 . S
Cd74 O82 2.277 . S
Cd74 O83 2.356 . S
C75 O80 1.209 . S
C75 O82 1.226 . S
O76 Cd72 2.273 . S
O76 Cd74 2.411 . S
O76 C79 1.320 . S
O77 Cd74 2.333 . S
O77 C79 1.214 . S
O78 Cd74 2.352 . S
O78 C81 1.258 . S
C79 O76 1.320 . S
C79 O77 1.214 . S
O80 Cd72 2.277 . S
O80 C75 1.209 . S
C81 O78 1.258 . S
C81 O83 1.282 . S
O82 Cd74 2.277 . S
O82 C75 1.226 . S
O83 Cd74 2.356 . S
O83 C81 1.282 . S
C84 O85 1.306 . S
C84 O87 1.160 . S
O85 C84 1.306 . S
O85 Cd86 2.228 . S
Cd86 O85 2.228 . S
Cd86 O90 2.273 . S
Cd86 O94 2.277 . S
O87 C84 1.160 . S
O87 Cd88 2.203 . S
Cd88 O87 2.203 . S
Cd88 O90 2.411 . S
Cd88 O91 2.333 . S
Cd88 O92 2.352 . S
Cd88 O96 2.277 . S
Cd88 O97 2.356 . S
C89 O94 1.209 . S
C89 O96 1.226 . S
O90 Cd86 2.273 . S
O90 Cd88 2.411 . S
O90 C93 1.320 . S
O91 Cd88 2.333 . S
O91 C93 1.214 . S
O92 Cd88 2.352 . S
O92 C95 1.258 . S
C93 O90 1.320 . S
C93 O91 1.214 . S
O94 Cd86 2.277 . S
O94 C89 1.209 . S
C95 O92 1.258 . S
C95 O97 1.282 . S
O96 Cd88 2.277 . S
O96 C89 1.226 . S
O97 Cd88 2.356 . S
O97 C95 1.282 . S
C98 O99 1.306 . S
C98 O101 1.160 . S
O99 C98 1.306 . S
O99 Cd100 2.228 . S
Cd100 O99 2.228 . S
Cd100 O104 2.273 . S
Cd100 O108 2.277 . S
O101 C98 1.160 . S
O101 Cd102 2.203 . S
Cd102 O101 2.203 . S
Cd102 O104 2.411 . S
Cd102 O105 2.333 . S
Cd102 O106 2.352 . S
Cd102 O110 2.277 . S
Cd102 O111 2.356 . S
C103 O108 1.209 . S
C103 O110 1.226 . S
O104 Cd100 2.273 . S
O104 Cd102 2.411 . S
O104 C107 1.320 . S
O105 Cd102 2.333 . S
O105 C107 1.214 . S
O106 Cd102 2.352 . S
O106 C109 1.258 . S
C107 O104 1.320 . S
C107 O105 1.214 . S
O108 Cd100 2.277 . S
O108 C103 1.209 . S
C109 O106 1.258 . S
C109 O111 1.282 . S
O110 Cd102 2.277 . S
O110 C103 1.226 . S
O111 Cd102 2.356 . S
O111 C109 1.282 . S
C112 O113 1.306 . S
C112 O115 1.160 . S
O113 C112 1.306 . S
O113 Cd114 2.228 . S
Cd114 O113 2.228 . S
Cd114 O118 2.273 . S
Cd114 O122 2.277 . S
O115 C112 1.160 . S
O115 Cd116 2.203 . S
Cd116 O115 2.203 . S
Cd116 O118 2.411 . S
Cd116 O119 2.333 . S
Cd116 O120 2.352 . S
Cd116 O124 2.277 . S
Cd116 O125 2.356 . S
C117 O122 1.209 . S
C117 O124 1.226 . S
O118 Cd114 2.273 . S
O118 Cd116 2.411 . S
O118 C121 1.320 . S
O119 Cd116 2.333 . S
O119 C121 1.214 . S
O120 Cd116 2.352 . S
O120 C123 1.258 . S
C121 O118 1.320 . S
C121 O119 1.214 . S
O122 Cd114 2.277 . S
O122 C117 1.209 . S
C123 O120 1.258 . S
C123 O125 1.282 . S
O124 Cd116 2.277 . S
O124 C117 1.226 . S
O125 Cd116 2.356 . S
O125 C123 1.282 . S
C126 O127 1.306 . S
C126 O129 1.160 . S
O127 C126 1.306 . S
O127 Cd128 2.228 . S
Cd128 O127 2.228 . S
Cd128 O132 2.273 . S
Cd128 O136 2.277 . S
O129 C126 1.160 . S
O129 Cd130 2.203 . S
Cd130 O129 2.203 . S
Cd130 O132 2.411 . S
Cd130 O133 2.333 . S
Cd130 O134 2.352 . S
Cd130 O138 2.277 . S
Cd130 O139 2.356 . S
C131 O136 1.209 . S
C131 O138 1.226 . S
O132 Cd128 2.273 . S
O132 Cd130 2.411 . S
O132 C135 1.320 . S
O133 Cd130 2.333 . S
O133 C135 1.214 . S
O134 Cd130 2.352 . S
O134 C137 1.258 . S
C135 O132 1.320 . S
C135 O133 1.214 . S
O136 Cd128 2.277 . S
O136 C131 1.209 . S
C137 O134 1.258 . S
C137 O139 1.282 . S
O138 Cd130 2.277 . S
O138 C131 1.226 . S
O139 Cd130 2.356 . S
O139 C137 1.282 . S
C140 O141 1.306 . S
C140 O143 1.160 . S
O141 C140 1.306 . S
O141 Cd142 2.228 . S
Cd142 O141 2.228 . S
Cd142 O146 2.273 . S
Cd142 O150 2.277 . S
O143 C140 1.160 . S
O143 Cd144 2.203 . S
Cd144 O143 2.203 . S
Cd144 O146 2.411 . S
Cd144 O147 2.333 . S
Cd144 O148 2.352 . S
Cd144 O152 2.277 . S
Cd144 O153 2.356 . S
C145 O150 1.209 . S
C145 O152 1.226 . S
O146 Cd142 2.273 . S
O146 Cd144 2.411 . S
O146 C149 1.320 . S
O147 Cd144 2.333 . S
O147 C149 1.214 . S
O148 Cd144 2.352 . S
O148 C151 1.258 . S
C149 O146 1.320 . S
C149 O147 1.214 . S
O150 Cd142 2.277 . S
O150 C145 1.209 . S
C151 O148 1.258 . S
C151 O153 1.282 . S
O152 Cd144 2.277 . S
O152 C145 1.226 . S
O153 Cd144 2.356 . S
O153 C151 1.282 . S
C154 O155 1.306 . S
C154 O157 1.160 . S
O155 C154 1.306 . S
O155 Cd156 2.228 . S
Cd156 O155 2.228 . S
Cd156 O160 2.273 . S
Cd156 O164 2.277 . S
O157 C154 1.160 . S
O157 Cd158 2.203 . S
Cd158 O157 2.203 . S
Cd158 O160 2.411 . S
Cd158 O161 2.333 . S
Cd158 O162 2.352 . S
Cd158 O166 2.277 . S
Cd158 O167 2.356 . S
C159 O164 1.209 . S
C159 O166 1.226 . S
O160 Cd156 2.273 . S
O160 Cd158 2.411 . S
O160 C163 1.320 . S
O161 Cd158 2.333 . S
O161 C163 1.214 . S
O162 Cd158 2.352 . S
O162 C165 1.258 . S
C163 O160 1.320 . S
C163 O161 1.214 . S
O164 Cd156 2.277 . S
O164 C159 1.209 . S
C165 O162 1.258 . S
C165 O167 1.282 . S
O166 Cd158 2.277 . S
O166 C159 1.226 . S
O167 Cd158 2.356 . S
O167 C165 1.282 . S
C168 O169 1.306 . S
C168 O171 1.160 . S
O169 C168 1.306 . S
O169 Cd170 2.228 . S
Cd170 O169 2.228 . S
Cd170 O174 2.273 . S
Cd170 O178 2.277 . S
O171 C168 1.160 . S
O171 Cd172 2.203 . S
Cd172 O171 2.203 . S
Cd172 O174 2.411 . S
Cd172 O175 2.333 . S
Cd172 O176 2.352 . S
Cd172 O180 2.277 . S
Cd172 O181 2.356 . S
C173 O178 1.209 . S
C173 O180 1.226 . S
O174 Cd170 2.273 . S
O174 Cd172 2.411 . S
O174 C177 1.320 . S
O175 Cd172 2.333 . S
O175 C177 1.214 . S
O176 Cd172 2.352 . S
O176 C179 1.258 . S
C177 O174 1.320 . S
C177 O175 1.214 . S
O178 Cd170 2.277 . S
O178 C173 1.209 . S
C179 O176 1.258 . S
C179 O181 1.282 . S
O180 Cd172 2.277 . S
O180 C173 1.226 . S
O181 Cd172 2.356 . S
O181 C179 1.282 . S
C182 O183 1.306 . S
C182 O185 1.160 . S
O183 C182 1.306 . S
O183 Cd184 2.228 . S
Cd184 O183 2.228 . S
Cd184 O188 2.273 . S
Cd184 O192 2.277 . S
O185 C182 1.160 . S
O185 Cd186 2.203 . S
Cd186 O185 2.203 . S
Cd186 O188 2.411 . S
Cd186 O189 2.333 . S
Cd186 O190 2.352 . S
Cd186 O194 2.277 . S
Cd186 O195 2.356 . S
C187 O192 1.209 . S
C187 O194 1.226 . S
O188 Cd184 2.273 . S
O188 Cd186 2.411 . S
O188 C191 1.320 . S
O189 Cd186 2.333 . S
O189 C191 1.214 . S
O190 Cd186 2.352 . S
O190 C193 1.258 . S
C191 O188 1.320 . S
C191 O189 1.214 . S
O192 Cd184 2.277 . S
O192 C187 1.209 . S
C193 O190 1.258 . S
C193 O195 1.282 . S
O194 Cd186 2.277 . S
O194 C187 1.226 . S
O195 Cd186 2.356 . S
O195 C193 1.282 . S
C196 O197 1.306 . S
C196 O199 1.160 . S
O197 C196 1.306 . S
O197 Cd198 2.228 . S
Cd198 O197 2.228 . S
Cd198 O202 2.273 . S
Cd198 O206 2.277 . S
O199 C196 1.160 . S
O199 Cd200 2.203 . S
Cd200 O199 2.203 . S
Cd200 O202 2.411 . S
Cd200 O203 2.333 . S
Cd200 O204 2.352 . S
Cd200 O208 2.277 . S
Cd200 O209 2.356 . S
C201 O206 1.209 . S
C201 O208 1.226 . S
O202 Cd198 2.273 . S
O202 Cd200 2.411 . S
O202 C205 1.320 . S
O203 Cd200 2.333 . S
O203 C205 1.214 . S
O204 Cd200 2.352 . S
O204 C207 1.258 . S
C205 O202 1.320 . S
C205 O203 1.214 . S
O206 Cd198 2.277 . S
O206 C201 1.209 . S
C207 O204 1.258 . S
C207 O209 1.282 . S
O208 Cd200 2.277 . S
O208 C201 1.226 . S
O209 Cd200 2.356 . S
O209 C207 1.282 . S
C210 O211 1.306 . S
C210 O213 1.160 . S
O211 C210 1.306 . S
O211 Cd212 2.228 . S
Cd212 O211 2.228 . S
Cd212 O216 2.273 . S
Cd212 O220 2.277 . S
O213 C210 1.160 . S
O213 Cd214 2.203 . S
Cd214 O213 2.203 . S
Cd214 O216 2.411 . S
Cd214 O217 2.333 . S
Cd214 O218 2.352 . S
Cd214 O222 2.277 . S
Cd214 O223 2.356 . S
C215 O220 1.209 . S
C215 O222 1.226 . S
O216 Cd212 2.273 . S
O216 Cd214 2.411 . S
O216 C219 1.320 . S
O217 Cd214 2.333 . S
O217 C219 1.214 . S
O218 Cd214 2.352 . S
O218 C221 1.258 . S
C219 O216 1.320 . S
C219 O217 1.214 . S
O220 Cd212 2.277 . S
O220 C215 1.209 . S
C221 O218 1.258 . S
C221 O223 1.282 . S
O222 Cd214 2.277 . S
O222 C215 1.226 . S
O223 Cd214 2.356 . S
O223 C221 1.282 . S
C224 O225 1.306 . S
C224 O227 1.160 . S
O225 C224 1.306 . S
O225 Cd226 2.228 . S
Cd226 O225 2.228 . S
Cd226 O230 2.273 . S
Cd226 O234 2.277 . S
O227 C224 1.160 . S
O227 Cd228 2.203 . S
Cd228 O227 2.203 . S
Cd228 O230 2.411 . S
Cd228 O231 2.333 . S
Cd228 O232 2.352 . S
Cd228 O236 2.277 . S
Cd228 O237 2.356 . S
C229 O234 1.209 . S
C229 O236 1.226 . S
O230 Cd226 2.273 . S
O230 Cd228 2.411 . S
O230 C233 1.320 . S
O231 Cd228 2.333 . S
O231 C233 1.214 . S
O232 Cd228 2.352 . S
O232 C235 1.258 . S
C233 O230 1.320 . S
C233 O231 1.214 . S
O234 Cd226 2.277 . S
O234 C229 1.209 . S
C235 O232 1.258 . S
C235 O237 1.282 . S
O236 Cd228 2.277 . S
O236 C229 1.226 . S
O237 Cd228 2.356 . S
O237 C235 1.282 . S
C238 O239 1.306 . S
C238 O241 1.160 . S
O239 C238 1.306 . S
O239 Cd240 2.228 . S
Cd240 O239 2.228 . S
Cd240 O244 2.273 . S
Cd240 O248 2.277 . S
O241 C238 1.160 . S
O241 Cd242 2.203 . S
Cd242 O241 2.203 . S
Cd242 O244 2.411 . S
Cd242 O245 2.333 . S
Cd242 O246 2.352 . S
Cd242 O250 2.277 . S
Cd242 O251 2.356 . S
C243 O248 1.209 . S
C243 O250 1.226 . S
O244 Cd240 2.273 . S
O244 Cd242 2.411 . S
O244 C247 1.320 . S
O245 Cd242 2.333 . S
O245 C247 1.214 . S
O246 Cd242 2.352 . S
O246 C249 1.258 . S
C247 O244 1.320 . S
C247 O245 1.214 . S
O248 Cd240 2.277 . S
O248 C243 1.209 . S
C249 O246 1.258 . S
C249 O251 1.282 . S
O250 Cd242 2.277 . S
O250 C243 1.226 . S
O251 Cd242 2.356 . S
O251 C249 1.282 . S
C252 O253 1.306 . S
C252 O255 1.160 . S
O253 C252 1.306 . S
O253 Cd254 2.228 . S
Cd254 O253 2.228 . S
Cd254 O258 2.273 . S
Cd254 O262 2.277 . S
O255 C252 1.160 . S
O255 Cd256 2.203 . S
Cd256 O255 2.203 . S
Cd256 O258 2.411 . S
Cd256 O259 2.333 . S
Cd256 O260 2.352 . S
Cd256 O264 2.277 . S
Cd256 O265 2.356 . S
C257 O262 1.209 . S
C257 O264 1.226 . S
O258 Cd254 2.273 . S
O258 Cd256 2.411 . S
O258 C261 1.320 . S
O259 Cd256 2.333 . S
O259 C261 1.214 . S
O260 Cd256 2.352 . S
O260 C263 1.258 . S
C261 O258 1.320 . S
C261 O259 1.214 . S
O262 Cd254 2.277 . S
O262 C257 1.209 . S
C263 O260 1.258 . S
C263 O265 1.282 . S
O264 Cd256 2.277 . S
O264 C257 1.226 . S
O265 Cd256 2.356 . S
O265 C263 1.282 . S
C266 O267 1.306 . S
C266 O269 1.160 . S
O267 C266 1.306 . S
O267 Cd268 2.228 . S
Cd268 O267 2.228 . S
Cd268 O272 2.273 . S
Cd268 O276 2.277 . S
O269 C266 1.160 . S
O269 Cd270 2.203 . S
Cd270 O269 2.203 . S
Cd270 O272 2.411 . S
Cd270 O273 2.333 . S
Cd270 O274 2.352 . S
Cd270 O278 2.277 . S
Cd270 O279 2.356 . S
C271 O276 1.209 . S
C271 O278 1.226 . S
O272 Cd268 2.273 . S
O272 Cd270 2.411 . S
O272 C275 1.320 . S
O273 Cd270 2.333 . S
O273 C275 1.214 . S
O274 Cd270 2.352 . S
O274 C277 1.258 . S
C275 O272 1.320 . S
C275 O273 1.214 . S
O276 Cd268 2.277 . S
O276 C271 1.209 . S
C277 O274 1.258 . S
C277 O279 1.282 . S
O278 Cd270 2.277 . S
O278 C271 1.226 . S
O279 Cd270 2.356 . S
O279 C277 1.282 . S
C280 O281 1.306 . S
C280 O283 1.160 . S
O281 C280 1.306 . S
O281 Cd282 2.228 . S
Cd282 O281 2.228 . S
Cd282 O286 2.273 . S
Cd282 O290 2.277 . S
O283 C280 1.160 . S
O283 Cd284 2.203 . S
Cd284 O283 2.203 . S
Cd284 O286 2.411 . S
Cd284 O287 2.333 . S
Cd284 O288 2.352 . S
Cd284 O292 2.277 . S
Cd284 O293 2.356 . S
C285 O290 1.209 . S
C285 O292 1.226 . S
O286 Cd282 2.273 . S
O286 Cd284 2.411 . S
O286 C289 1.320 . S
O287 Cd284 2.333 . S
O287 C289 1.214 . S
O288 Cd284 2.352 . S
O288 C291 1.258 . S
C289 O286 1.320 . S
C289 O287 1.214 . S
O290 Cd282 2.277 . S
O290 C285 1.209 . S
C291 O288 1.258 . S
C291 O293 1.282 . S
O292 Cd284 2.277 . S
O292 C285 1.226 . S
O293 Cd284 2.356 . S
O293 C291 1.282 . S
C294 O295 1.306 . S
C294 O297 1.160 . S
O295 C294 1.306 . S
O295 Cd296 2.228 . S
Cd296 O295 2.228 . S
Cd296 O300 2.273 . S
Cd296 O304 2.277 . S
O297 C294 1.160 . S
O297 Cd298 2.203 . S
Cd298 O297 2.203 . S
Cd298 O300 2.411 . S
Cd298 O301 2.333 . S
Cd298 O302 2.352 . S
Cd298 O306 2.277 . S
Cd298 O307 2.356 . S
C299 O304 1.209 . S
C299 O306 1.226 . S
O300 Cd296 2.273 . S
O300 Cd298 2.411 . S
O300 C303 1.320 . S
O301 Cd298 2.333 . S
O301 C303 1.214 . S
O302 Cd298 2.352 . S
O302 C305 1.258 . S
C303 O300 1.320 . S
C303 O301 1.214 . S
O304 Cd296 2.277 . S
O304 C299 1.209 . S
C305 O302 1.258 . S
C305 O307 1.282 . S
O306 Cd298 2.277 . S
O306 C299 1.226 . S
O307 Cd298 2.356 . S
O307 C305 1.282 . S
C308 O309 1.306 . S
C308 O311 1.160 . S
O309 C308 1.306 . S
O309 Cd310 2.228 . S
Cd310 O309 2.228 . S
Cd310 O314 2.273 . S
Cd310 O318 2.277 . S
O311 C308 1.160 . S
O311 Cd312 2.203 . S
Cd312 O311 2.203 . S
Cd312 O314 2.411 . S
Cd312 O315 2.333 . S
Cd312 O316 2.352 . S
Cd312 O320 2.277 . S
Cd312 O321 2.356 . S
C313 O318 1.209 . S
C313 O320 1.226 . S
O314 Cd310 2.273 . S
O314 Cd312 2.411 . S
O314 C317 1.320 . S
O315 Cd312 2.333 . S
O315 C317 1.214 . S
O316 Cd312 2.352 . S
O316 C319 1.258 . S
C317 O314 1.320 . S
C317 O315 1.214 . S
O318 Cd310 2.277 . S
O318 C313 1.209 . S
C319 O316 1.258 . S
C319 O321 1.282 . S
O320 Cd312 2.277 . S
O320 C313 1.226 . S
O321 Cd312 2.356 . S
O321 C319 1.282 . S
C322 O323 1.306 . S
C322 O325 1.160 . S
O323 C322 1.306 . S
O323 Cd324 2.228 . S
Cd324 O323 2.228 . S
Cd324 O328 2.273 . S
Cd324 O332 2.277 . S
O325 C322 1.160 . S
O325 Cd326 2.203 . S
Cd326 O325 2.203 . S
Cd326 O328 2.411 . S
Cd326 O329 2.333 . S
Cd326 O330 2.352 . S
Cd326 O334 2.277 . S
Cd326 O335 2.356 . S
C327 O332 1.209 . S
C327 O334 1.226 . S
O328 Cd324 2.273 . S
O328 Cd326 2.411 . S
O328 C331 1.320 . S
O329 Cd326 2.333 . S
O329 C331 1.214 . S
O330 Cd326 2.352 . S
O330 C333 1.258 . S
C331 O328 1.320 . S
C331 O329 1.214 . S
O332 Cd324 2.277 . S
O332 C327 1.209 . S
C333 O330 1.258 . S
C333 O335 1.282 . S
O334 Cd326 2.277 . S
O334 C327 1.226 . S
O335 Cd326 2.356 . S
O335 C333 1.282 . S
C336 O337 1.306 . S
C336 O339 1.160 . S
O337 C336 1.306 . S
O337 Cd338 2.228 . S
Cd338 O337 2.228 . S
Cd338 O342 2.273 . S
Cd338 O346 2.277 . S
O339 C336 1.160 . S
O339 Cd340 2.203 . S
Cd340 O339 2.203 . S
Cd340 O342 2.411 . S
Cd340 O343 2.333 . S
Cd340 O344 2.352 . S
Cd340 O348 2.277 . S
Cd340 O349 2.356 . S
C341 O346 1.209 . S
C341 O348 1.226 . S
O342 Cd338 2.273 . S
O342 Cd340 2.411 . S
O342 C345 1.320 . S
O343 Cd340 2.333 . S
O343 C345 1.214 . S
O344 Cd340 2.352 . S
O344 C347 1.258 . S
C345 O342 1.320 . S
C345 O343 1.214 . S
O346 Cd338 2.277 . S
O346 C341 1.209 . S
C347 O344 1.258 . S
C347 O349 1.282 . S
O348 Cd340 2.277 . S
O348 C341 1.226 . S
O349 Cd340 2.356 . S
O349 C347 1.282 . S
C350 O351 1.306 . S
C350 O353 1.160 . S
O351 C350 1.306 . S
O351 Cd352 2.228 . S
Cd352 O351 2.228 . S
Cd352 O356 2.273 . S
Cd352 O360 2.277 . S
O353 C350 1.160 . S
O353 Cd354 2.203 . S
Cd354 O353 2.203 . S
Cd354 O356 2.411 . S
Cd354 O357 2.333 . S
Cd354 O358 2.352 . S
Cd354 O362 2.277 . S
Cd354 O363 2.356 . S
C355 O360 1.209 . S
C355 O362 1.226 . S
O356 Cd352 2.273 . S
O356 Cd354 2.411 . S
O356 C359 1.320 . S
O357 Cd354 2.333 . S
O357 C359 1.214 . S
O358 Cd354 2.352 . S
O358 C361 1.258 . S
C359 O356 1.320 . S
C359 O357 1.214 . S
O360 Cd352 2.277 . S
O360 C355 1.209 . S
C361 O358 1.258 . S
C361 O363 1.282 . S
O362 Cd354 2.277 . S
O362 C355 1.226 . S
O363 Cd354 2.356 . S
O363 C361 1.282 . S
C364 O365 1.306 . S
C364 O367 1.160 . S
O365 C364 1.306 . S
O365 Cd366 2.228 . S
Cd366 O365 2.228 . S
Cd366 O370 2.273 . S
Cd366 O374 2.277 . S
O367 C364 1.160 . S
O367 Cd368 2.203 . S
Cd368 O367 2.203 . S
Cd368 O370 2.411 . S
Cd368 O371 2.333 . S
Cd368 O372 2.352 . S
Cd368 O376 2.277 . S
Cd368 O377 2.356 . S
C369 O374 1.209 . S
C369 O376 1.226 . S
O370 Cd366 2.273 . S
O370 Cd368 2.411 . S
O370 C373 1.320 . S
O371 Cd368 2.333 . S
O371 C373 1.214 . S
O372 Cd368 2.352 . S
O372 C375 1.258 . S
C373 O370 1.320 . S
C373 O371 1.214 . S
O374 Cd366 2.277 . S
O374 C369 1.209 . S
C375 O372 1.258 . S
C375 O377 1.282 . S
O376 Cd368 2.277 . S
O376 C369 1.226 . S
O377 Cd368 2.356 . S
O377 C375 1.282 . S
C378 O379 1.306 . S
C378 O381 1.160 . S
O379 C378 1.306 . S
O379 Cd380 2.228 . S
Cd380 O379 2.228 . S
Cd380 O384 2.273 . S
Cd380 O388 2.277 . S
O381 C378 1.160 . S
O381 Cd382 2.203 . S
Cd382 O381 2.203 . S
Cd382 O384 2.411 . S
Cd382 O385 2.333 . S
Cd382 O386 2.352 . S
Cd382 O390 2.277 . S
Cd382 O391 2.356 . S
C383 O388 1.209 . S
C383 O390 1.226 . S
O384 Cd380 2.273 . S
O384 Cd382 2.411 . S
O384 C387 1.320 . S
O385 Cd382 2.333 . S
O385 C387 1.214 . S
O386 Cd382 2.352 . S
O386 C389 1.258 . S
C387 O384 1.320 . S
C387 O385 1.214 . S
O388 Cd380 2.277 . S
O388 C383 1.209 . S
C389 O386 1.258 . S
C389 O391 1.282 . S
O390 Cd382 2.277 . S
O390 C383 1.226 . S
O391 Cd382 2.356 . S
O391 C389 1.282 . S
C392 O393 1.306 . S
C392 O395 1.160 . S
O393 C392 1.306 . S
O393 Cd394 2.228 . S
Cd394 O393 2.228 . S
Cd394 O398 2.273 . S
Cd394 O402 2.277 . S
O395 C392 1.160 . S
O395 Cd396 2.203 . S
Cd396 O395 2.203 . S
Cd396 O398 2.411 . S
Cd396 O399 2.333 . S
Cd396 O400 2.352 . S
Cd396 O404 2.277 . S
Cd396 O405 2.356 . S
C397 O402 1.209 . S
C397 O404 1.226 . S
O398 Cd394 2.273 . S
O398 Cd396 2.411 . S
O398 C401 1.320 . S
O399 Cd396 2.333 . S
O399 C401 1.214 . S
O400 Cd396 2.352 . S
O400 C403 1.258 . S
C401 O398 1.320 . S
C401 O399 1.214 . S
O402 Cd394 2.277 . S
O402 C397 1.209 . S
C403 O400 1.258 . S
C403 O405 1.282 . S
O404 Cd396 2.277 . S
O404 C397 1.226 . S
O405 Cd396 2.356 . S
O405 C403 1.282 . S
C406 O407 1.306 . S
C406 O409 1.160 . S
O407 C406 1.306 . S
O407 Cd408 2.228 . S
Cd408 O407 2.228 . S
Cd408 O412 2.273 . S
Cd408 O416 2.277 . S
O409 C406 1.160 . S
O409 Cd410 2.203 . S
Cd410 O409 2.203 . S
Cd410 O412 2.411 . S
Cd410 O413 2.333 . S
Cd410 O414 2.352 . S
Cd410 O418 2.277 . S
Cd410 O419 2.356 . S
C411 O416 1.209 . S
C411 O418 1.226 . S
O412 Cd408 2.273 . S
O412 Cd410 2.411 . S
O412 C415 1.320 . S
O413 Cd410 2.333 . S
O413 C415 1.214 . S
O414 Cd410 2.352 . S
O414 C417 1.258 . S
C415 O412 1.320 . S
C415 O413 1.214 . S
O416 Cd408 2.277 . S
O416 C411 1.209 . S
C417 O414 1.258 . S
C417 O419 1.282 . S
O418 Cd410 2.277 . S
O418 C411 1.226 . S
O419 Cd410 2.356 . S
O419 C417 1.282 . S
C420 O421 1.306 . S
C420 O423 1.160 . S
O421 C420 1.306 . S
O421 Cd422 2.228 . S
Cd422 O421 2.228 . S
Cd422 O426 2.273 . S
Cd422 O430 2.277 . S
O423 C420 1.160 . S
O423 Cd424 2.203 . S
Cd424 O423 2.203 . S
Cd424 O426 2.411 . S
Cd424 O427 2.333 . S
Cd424 O428 2.352 . S
Cd424 O432 2.277 . S
Cd424 O433 2.356 . S
C425 O430 1.209 . S
C425 O432 1.226 . S
O426 Cd422 2.273 . S
O426 Cd424 2.411 . S
O426 C429 1.320 . S
O427 Cd424 2.333 . S
O427 C429 1.214 . S
O428 Cd424 2.352 . S
O428 C431 1.258 . S
C429 O426 1.320 . S
C429 O427 1.214 . S
O430 Cd422 2.277 . S
O430 C425 1.209 . S
C431 O428 1.258 . S
C431 O433 1.282 . S
O432 Cd424 2.277 . S
O432 C425 1.226 . S
O433 Cd424 2.356 . S
O433 C431 1.282 . S
C434 O435 1.306 . S
C434 O437 1.160 . S
O435 C434 1.306 . S
O435 Cd436 2.228 . S
Cd436 O435 2.228 . S
Cd436 O440 2.273 . S
Cd436 O444 2.277 . S
O437 C434 1.160 . S
O437 Cd438 2.203 . S
Cd438 O437 2.203 . S
Cd438 O440 2.411 . S
Cd438 O441 2.333 . S
Cd438 O442 2.352 . S
Cd438 O446 2.277 . S
Cd438 O447 2.356 . S
C439 O444 1.209 . S
C439 O446 1.226 . S
O440 Cd436 2.273 . S
O440 Cd438 2.411 . S
O440 C443 1.320 . S
O441 Cd438 2.333 . S
O441 C443 1.214 . S
O442 Cd438 2.352 . S
O442 C445 1.258 . S
C443 O440 1.320 . S
C443 O441 1.214 . S
O444 Cd436 2.277 . S
O444 C439 1.209 . S
C445 O442 1.258 . S
C445 O447 1.282 . S
O446 Cd438 2.277 . S
O446 C439 1.226 . S
O447 Cd438 2.356 . S
O447 C445 1.282 . S
C448 C449 1.391 . S
C448 C450 1.394 . S
C448 H464 0.931 . S
C449 C448 1.391 . S
C449 C453 1.376 . S
C450 C448 1.394 . S
C450 C451 1.369 . S
C450 C454 1.531 . S
C451 C450 1.369 . S
C451 C452 1.410 . S
C451 C459 1.503 . S
C452 C451 1.410 . S
C452 C453 1.392 . S
C452 C455 1.511 . S
C453 C449 1.376 . S
C453 C452 1.392 . S
C453 H465 0.929 . S
C454 C450 1.531 . S
C454 H466 0.960 . S
C454 H467 0.962 . S
C454 H468 0.960 . S
C455 C452 1.511 . S
C455 H469 0.961 . S
C455 H470 0.961 . S
C455 H471 0.961 . S
C456 C457 1.370 . S
C456 C458 1.363 . S
C456 H472 0.931 . S
C457 C456 1.370 . S
C457 C461 1.408 . S
C458 C456 1.363 . S
C458 C459 1.370 . S
C458 C462 1.524 . S
C459 C451 1.503 . S
C459 C458 1.370 . S
C459 C460 1.403 . S
C460 C459 1.403 . S
C460 C461 1.404 . S
C460 C463 1.539 . S
C461 C457 1.408 . S
C461 C460 1.404 . S
C461 H473 0.930 . S
C462 C458 1.524 . S
C462 H474 0.956 . S
C462 H475 0.961 . S
C462 H476 0.961 . S
C463 C460 1.539 . S
C463 H477 0.958 . S
C463 H478 0.961 . S
C463 H479 0.960 . S
H464 C448 0.931 . S
H465 C453 0.929 . S
H466 C454 0.960 . S
H467 C454 0.962 . S
H468 C454 0.960 . S
H469 C455 0.961 . S
H470 C455 0.961 . S
H471 C455 0.961 . S
H472 C456 0.931 . S
H473 C461 0.930 . S
H474 C462 0.956 . S
H475 C462 0.961 . S
H476 C462 0.961 . S
H477 C463 0.958 . S
H478 C463 0.961 . S
H479 C463 0.960 . S
C480 C481 1.391 . S
C480 C482 1.394 . S
C480 H496 0.931 . S
C481 C480 1.391 . S
C481 C485 1.376 . S
C482 C480 1.394 . S
C482 C483 1.369 . S
C482 C486 1.531 . S
C483 C482 1.369 . S
C483 C484 1.410 . S
C483 C491 1.503 . S
C484 C483 1.410 . S
C484 C485 1.392 . S
C484 C487 1.511 . S
C485 C481 1.376 . S
C485 C484 1.392 . S
C485 H497 0.929 . S
C486 C482 1.531 . S
C486 H498 0.960 . S
C486 H499 0.962 . S
C486 H500 0.960 . S
C487 C484 1.511 . S
C487 H501 0.961 . S
C487 H502 0.961 . S
C487 H503 0.961 . S
C488 C489 1.370 . S
C488 C490 1.363 . S
C488 H504 0.931 . S
C489 C488 1.370 . S
C489 C493 1.408 . S
C490 C488 1.363 . S
C490 C491 1.370 . S
C490 C494 1.524 . S
C491 C483 1.503 . S
C491 C490 1.370 . S
C491 C492 1.403 . S
C492 C491 1.403 . S
C492 C493 1.404 . S
C492 C495 1.539 . S
C493 C489 1.408 . S
C493 C492 1.404 . S
C493 H505 0.930 . S
C494 C490 1.524 . S
C494 H506 0.956 . S
C494 H507 0.961 . S
C494 H508 0.961 . S
C495 C492 1.539 . S
C495 H509 0.958 . S
C495 H510 0.961 . S
C495 H511 0.960 . S
H496 C480 0.931 . S
H497 C485 0.929 . S
H498 C486 0.960 . S
H499 C486 0.962 . S
H500 C486 0.960 . S
H501 C487 0.961 . S
H502 C487 0.961 . S
H503 C487 0.961 . S
H504 C488 0.931 . S
H505 C493 0.930 . S
H506 C494 0.956 . S
H507 C494 0.961 . S
H508 C494 0.961 . S
H509 C495 0.958 . S
H510 C495 0.961 . S
H511 C495 0.960 . S
C512 C513 1.391 . S
C512 C514 1.394 . S
C512 H528 0.931 . S
C513 C512 1.391 . S
C513 C517 1.376 . S
C514 C512 1.394 . S
C514 C515 1.369 . S
C514 C518 1.531 . S
C515 C514 1.369 . S
C515 C516 1.410 . S
C515 C523 1.503 . S
C516 C515 1.410 . S
C516 C517 1.392 . S
C516 C519 1.511 . S
C517 C513 1.376 . S
C517 C516 1.392 . S
C517 H529 0.929 . S
C518 C514 1.531 . S
C518 H530 0.960 . S
C518 H531 0.962 . S
C518 H532 0.960 . S
C519 C516 1.511 . S
C519 H533 0.961 . S
C519 H534 0.961 . S
C519 H535 0.961 . S
C520 C521 1.370 . S
C520 C522 1.363 . S
C520 H536 0.931 . S
C521 C520 1.370 . S
C521 C525 1.408 . S
C522 C520 1.363 . S
C522 C523 1.370 . S
C522 C526 1.524 . S
C523 C515 1.503 . S
C523 C522 1.370 . S
C523 C524 1.403 . S
C524 C523 1.403 . S
C524 C525 1.404 . S
C524 C527 1.539 . S
C525 C521 1.408 . S
C525 C524 1.404 . S
C525 H537 0.930 . S
C526 C522 1.524 . S
C526 H538 0.956 . S
C526 H539 0.961 . S
C526 H540 0.961 . S
C527 C524 1.539 . S
C527 H541 0.958 . S
C527 H542 0.961 . S
C527 H543 0.960 . S
H528 C512 0.931 . S
H529 C517 0.929 . S
H530 C518 0.960 . S
H531 C518 0.962 . S
H532 C518 0.960 . S
H533 C519 0.961 . S
H534 C519 0.961 . S
H535 C519 0.961 . S
H536 C520 0.931 . S
H537 C525 0.930 . S
H538 C526 0.956 . S
H539 C526 0.961 . S
H540 C526 0.961 . S
H541 C527 0.958 . S
H542 C527 0.961 . S
H543 C527 0.960 . S
C544 C545 1.391 . S
C544 C546 1.394 . S
C544 H560 0.931 . S
C545 C544 1.391 . S
C545 C549 1.376 . S
C546 C544 1.394 . S
C546 C547 1.369 . S
C546 C550 1.531 . S
C547 C546 1.369 . S
C547 C548 1.410 . S
C547 C555 1.503 . S
C548 C547 1.410 . S
C548 C549 1.392 . S
C548 C551 1.511 . S
C549 C545 1.376 . S
C549 C548 1.392 . S
C549 H561 0.929 . S
C550 C546 1.531 . S
C550 H562 0.960 . S
C550 H563 0.962 . S
C550 H564 0.960 . S
C551 C548 1.511 . S
C551 H565 0.954 1_565 S
C551 H566 0.961 . S
C551 H567 0.961 . S
C552 C553 1.370 . S
C552 C554 1.363 . S
C552 H568 0.931 . S
C553 C552 1.370 . S
C553 C557 1.408 . S
C554 C552 1.363 . S
C554 C555 1.370 . S
C554 C558 1.524 . S
C555 C547 1.503 . S
C555 C554 1.370 . S
C555 C556 1.403 . S
C556 C555 1.403 . S
C556 C557 1.404 . S
C556 C559 1.539 . S
C557 C553 1.408 . S
C557 C556 1.404 . S
C557 H569 0.930 . S
C558 C554 1.524 . S
C558 H570 0.956 . S
C558 H571 0.961 . S
C558 H572 0.961 . S
C559 C556 1.539 . S
C559 H573 0.958 . S
C559 H574 0.961 . S
C559 H575 0.960 . S
H560 C544 0.931 . S
H561 C549 0.929 . S
H562 C550 0.960 . S
H563 C550 0.962 . S
H564 C550 0.960 . S
H565 C551 0.954 1_545 S
H566 C551 0.961 . S
H567 C551 0.961 . S
H568 C552 0.931 . S
H569 C557 0.930 . S
H570 C558 0.956 . S
H571 C558 0.961 . S
H572 C558 0.961 . S
H573 C559 0.958 . S
H574 C559 0.961 . S
H575 C559 0.960 . S
C576 C577 1.391 . S
C576 C578 1.394 . S
C576 H592 0.931 . S
C577 C576 1.391 . S
C577 C581 1.376 . S
C578 C576 1.394 . S
C578 C579 1.369 . S
C578 C582 1.531 . S
C579 C578 1.369 . S
C579 C580 1.410 . S
C579 C587 1.503 . S
C580 C579 1.410 . S
C580 C581 1.392 . S
C580 C583 1.511 . S
C581 C577 1.376 . S
C581 C580 1.392 . S
C581 H593 0.929 . S
C582 C578 1.531 . S
C582 H594 0.960 . S
C582 H595 0.962 . S
C582 H596 0.960 . S
C583 C580 1.511 . S
C583 H597 0.961 . S
C583 H598 0.961 . S
C583 H599 0.961 . S
C584 C585 1.370 . S
C584 C586 1.363 . S
C584 H600 0.931 . S
C585 C584 1.370 . S
C585 C589 1.408 . S
C586 C584 1.363 . S
C586 C587 1.370 . S
C586 C590 1.524 . S
C587 C579 1.503 . S
C587 C586 1.370 . S
C587 C588 1.403 . S
C588 C587 1.403 . S
C588 C589 1.404 . S
C588 C591 1.539 . S
C589 C585 1.408 . S
C589 C588 1.404 . S
C589 H601 0.930 . S
C590 C586 1.524 . S
C590 H602 0.956 . S
C590 H603 0.961 . S
C590 H604 0.961 . S
C591 C588 1.539 . S
C591 H605 0.958 . S
C591 H606 0.961 . S
C591 H607 0.960 . S
H592 C576 0.931 . S
H593 C581 0.929 . S
H594 C582 0.960 . S
H595 C582 0.962 . S
H596 C582 0.960 . S
H597 C583 0.961 . S
H598 C583 0.961 . S
H599 C583 0.961 . S
H600 C584 0.931 . S
H601 C589 0.930 . S
H602 C590 0.956 . S
H603 C590 0.961 . S
H604 C590 0.961 . S
H605 C591 0.958 . S
H606 C591 0.961 . S
H607 C591 0.960 . S
C608 C609 1.391 . S
C608 C610 1.394 . S
C608 H624 0.931 . S
C609 C608 1.391 . S
C609 C613 1.376 . S
C610 C608 1.394 . S
C610 C611 1.369 . S
C610 C614 1.531 . S
C611 C610 1.369 . S
C611 C612 1.410 . S
C611 C619 1.503 . S
C612 C611 1.410 . S
C612 C613 1.392 . S
C612 C615 1.511 . S
C613 C609 1.376 . S
C613 C612 1.392 . S
C613 H625 0.929 . S
C614 C610 1.531 . S
C614 H626 0.960 . S
C614 H627 0.962 . S
C614 H628 0.960 . S
C615 C612 1.511 . S
C615 H629 0.961 . S
C615 H630 0.961 . S
C615 H631 0.961 . S
C616 C617 1.370 . S
C616 C618 1.363 . S
C616 H632 0.931 . S
C617 C616 1.370 . S
C617 C621 1.408 . S
C618 C616 1.363 . S
C618 C619 1.370 . S
C618 C622 1.524 . S
C619 C611 1.503 . S
C619 C618 1.370 . S
C619 C620 1.403 . S
C620 C619 1.403 . S
C620 C621 1.404 . S
C620 C623 1.539 . S
C621 C617 1.408 . S
C621 C620 1.404 . S
C621 H633 0.930 . S
C622 C618 1.524 . S
C622 H634 0.956 . S
C622 H635 0.961 . S
C622 H636 0.961 . S
C623 C620 1.539 . S
C623 H637 0.958 . S
C623 H638 0.961 . S
C623 H639 0.960 . S
H624 C608 0.931 . S
H625 C613 0.929 . S
H626 C614 0.960 . S
H627 C614 0.962 . S
H628 C614 0.960 . S
H629 C615 0.961 . S
H630 C615 0.961 . S
H631 C615 0.961 . S
H632 C616 0.931 . S
H633 C621 0.930 . S
H634 C622 0.956 . S
H635 C622 0.961 . S
H636 C622 0.961 . S
H637 C623 0.958 . S
H638 C623 0.961 . S
H639 C623 0.960 . S
C640 C641 1.391 . S
C640 C642 1.394 . S
C640 H656 0.931 . S
C641 C640 1.391 . S
C641 C645 1.376 . S
C642 C640 1.394 . S
C642 C643 1.369 . S
C642 C646 1.531 . S
C643 C642 1.369 . S
C643 C644 1.410 . S
C643 C651 1.503 . S
C644 C643 1.410 . S
C644 C645 1.392 . S
C644 C647 1.511 . S
C645 C641 1.376 . S
C645 C644 1.392 . S
C645 H657 0.929 . S
C646 C642 1.531 . S
C646 H658 0.960 . S
C646 H659 0.962 . S
C646 H660 0.960 . S
C647 C644 1.511 . S
C647 H661 0.961 . S
C647 H662 0.961 . S
C647 H663 0.961 . S
C648 C649 1.370 . S
C648 C650 1.363 . S
C648 H664 0.931 . S
C649 C648 1.370 . S
C649 C653 1.408 . S
C650 C648 1.363 . S
C650 C651 1.370 . S
C650 C654 1.524 . S
C651 C643 1.503 . S
C651 C650 1.370 . S
C651 C652 1.403 . S
C652 C651 1.403 . S
C652 C653 1.404 . S
C652 C655 1.539 . S
C653 C649 1.408 . S
C653 C652 1.404 . S
C653 H665 0.930 . S
C654 C650 1.524 . S
C654 H666 0.956 . S
C654 H667 0.961 . S
C654 H668 0.961 . S
C655 C652 1.539 . S
C655 H669 0.958 . S
C655 H670 0.961 . S
C655 H671 0.960 . S
H656 C640 0.931 . S
H657 C645 0.929 . S
H658 C646 0.960 . S
H659 C646 0.962 . S
H660 C646 0.960 . S
H661 C647 0.961 . S
H662 C647 0.961 . S
H663 C647 0.961 . S
H664 C648 0.931 . S
H665 C653 0.930 . S
H666 C654 0.956 . S
H667 C654 0.961 . S
H668 C654 0.961 . S
H669 C655 0.958 . S
H670 C655 0.961 . S
H671 C655 0.960 . S
C672 C673 1.391 . S
C672 C674 1.394 . S
C672 H688 0.931 . S
C673 C672 1.391 . S
C673 C677 1.376 . S
C674 C672 1.394 . S
C674 C675 1.369 . S
C674 C678 1.531 . S
C675 C674 1.369 . S
C675 C676 1.410 . S
C675 C683 1.503 . S
C676 C675 1.410 . S
C676 C677 1.392 . S
C676 C679 1.511 . S
C677 C673 1.376 . S
C677 C676 1.392 . S
C677 H689 0.929 . S
C678 C674 1.531 . S
C678 H690 0.960 . S
C678 H691 0.962 . S
C678 H692 0.960 . S
C679 C676 1.511 . S
C679 H693 0.961 . S
C679 H694 0.961 . S
C679 H695 0.961 . S
C680 C681 1.370 . S
C680 C682 1.363 . S
C680 H696 0.931 . S
C681 C680 1.370 . S
C681 C685 1.408 . S
C682 C680 1.363 . S
C682 C683 1.370 . S
C682 C686 1.524 . S
C683 C675 1.503 . S
C683 C682 1.370 . S
C683 C684 1.403 . S
C684 C683 1.403 . S
C684 C685 1.404 . S
C684 C687 1.539 . S
C685 C681 1.408 . S
C685 C684 1.404 . S
C685 H697 0.930 . S
C686 C682 1.524 . S
C686 H698 0.956 . S
C686 H699 0.961 . S
C686 H700 0.961 . S
C687 C684 1.539 . S
C687 H701 0.958 . S
C687 H702 0.961 . S
C687 H703 0.960 . S
H688 C672 0.931 . S
H689 C677 0.929 . S
H690 C678 0.960 . S
H691 C678 0.962 . S
H692 C678 0.960 . S
H693 C679 0.961 . S
H694 C679 0.961 . S
H695 C679 0.961 . S
H696 C680 0.931 . S
H697 C685 0.930 . S
H698 C686 0.956 . S
H699 C686 0.961 . S
H700 C686 0.961 . S
H701 C687 0.958 . S
H702 C687 0.961 . S
H703 C687 0.960 . S
C704 C705 1.391 . S
C704 C706 1.394 . S
C704 H720 0.931 . S
C705 C704 1.391 . S
C705 C709 1.376 . S
C706 C704 1.394 . S
C706 C707 1.369 . S
C706 C710 1.531 . S
C707 C706 1.369 . S
C707 C708 1.410 . S
C707 C715 1.503 . S
C708 C707 1.410 . S
C708 C709 1.392 . S
C708 C711 1.511 . S
C709 C705 1.376 . S
C709 C708 1.392 . S
C709 H721 0.929 . S
C710 C706 1.531 . S
C710 H722 0.960 . S
C710 H723 0.962 . S
C710 H724 0.960 . S
C711 C708 1.511 . S
C711 H725 0.961 . S
C711 H726 0.961 . S
C711 H727 0.961 . S
C712 C713 1.370 . S
C712 C714 1.363 . S
C712 H728 0.931 . S
C713 C712 1.370 . S
C713 C717 1.408 . S
C714 C712 1.363 . S
C714 C715 1.370 . S
C714 C718 1.524 . S
C715 C707 1.503 . S
C715 C714 1.370 . S
C715 C716 1.403 . S
C716 C715 1.403 . S
C716 C717 1.404 . S
C716 C719 1.539 . S
C717 C713 1.408 . S
C717 C716 1.404 . S
C717 H729 0.930 . S
C718 C714 1.524 . S
C718 H730 0.956 . S
C718 H731 0.961 . S
C718 H732 0.961 . S
C719 C716 1.539 . S
C719 H733 0.958 . S
C719 H734 0.961 . S
C719 H735 0.960 . S
H720 C704 0.931 . S
H721 C709 0.929 . S
H722 C710 0.960 . S
H723 C710 0.962 . S
H724 C710 0.960 . S
H725 C711 0.961 . S
H726 C711 0.961 . S
H727 C711 0.961 . S
H728 C712 0.931 . S
H729 C717 0.930 . S
H730 C718 0.956 . S
H731 C718 0.961 . S
H732 C718 0.961 . S
H733 C719 0.958 . S
H734 C719 0.961 . S
H735 C719 0.960 . S
C736 C737 1.391 . S
C736 C738 1.394 . S
C736 H752 0.931 . S
C737 C736 1.391 . S
C737 C741 1.376 . S
C738 C736 1.394 . S
C738 C739 1.369 . S
C738 C742 1.531 . S
C739 C738 1.369 . S
C739 C740 1.410 . S
C739 C747 1.503 . S
C740 C739 1.410 . S
C740 C741 1.392 . S
C740 C743 1.511 . S
C741 C737 1.376 . S
C741 C740 1.392 . S
C741 H753 0.929 . S
C742 C738 1.531 . S
C742 H754 0.960 . S
C742 H755 0.962 . S
C742 H756 0.960 . S
C743 C740 1.511 . S
C743 H757 0.961 . S
C743 H758 0.961 . S
C743 H759 0.961 . S
C744 C745 1.370 . S
C744 C746 1.363 . S
C744 H760 0.931 . S
C745 C744 1.370 . S
C745 C749 1.408 . S
C746 C744 1.363 . S
C746 C747 1.370 . S
C746 C750 1.524 . S
C747 C739 1.503 . S
C747 C746 1.370 . S
C747 C748 1.403 . S
C748 C747 1.403 . S
C748 C749 1.404 . S
C748 C751 1.539 . S
C749 C745 1.408 . S
C749 C748 1.404 . S
C749 H761 0.930 . S
C750 C746 1.524 . S
C750 H762 0.956 . S
C750 H763 0.961 . S
C750 H764 0.961 . S
C751 C748 1.539 . S
C751 H765 0.958 . S
C751 H766 0.961 . S
C751 H767 0.960 . S
H752 C736 0.931 . S
H753 C741 0.929 . S
H754 C742 0.960 . S
H755 C742 0.962 . S
H756 C742 0.960 . S
H757 C743 0.961 . S
H758 C743 0.961 . S
H759 C743 0.961 . S
H760 C744 0.931 . S
H761 C749 0.930 . S
H762 C750 0.956 . S
H763 C750 0.961 . S
H764 C750 0.961 . S
H765 C751 0.958 . S
H766 C751 0.961 . S
H767 C751 0.960 . S
C768 C769 1.391 . S
C768 C770 1.394 . S
C768 H784 0.931 . S
C769 C768 1.391 . S
C769 C773 1.376 . S
C770 C768 1.394 . S
C770 C771 1.369 . S
C770 C774 1.531 . S
C771 C770 1.369 . S
C771 C772 1.410 . S
C771 C779 1.503 . S
C772 C771 1.410 . S
C772 C773 1.392 . S
C772 C775 1.511 . S
C773 C769 1.376 . S
C773 C772 1.392 . S
C773 H785 0.929 . S
C774 C770 1.531 . S
C774 H786 0.960 . S
C774 H787 0.962 . S
C774 H788 0.960 . S
C775 C772 1.511 . S
C775 H789 0.961 . S
C775 H790 0.961 . S
C775 H791 0.961 . S
C776 C777 1.370 . S
C776 C778 1.363 . S
C776 H792 0.931 . S
C777 C776 1.370 . S
C777 C781 1.408 . S
C778 C776 1.363 . S
C778 C779 1.370 . S
C778 C782 1.524 . S
C779 C771 1.503 . S
C779 C778 1.370 . S
C779 C780 1.403 . S
C780 C779 1.403 . S
C780 C781 1.404 . S
C780 C783 1.539 . S
C781 C777 1.408 . S
C781 C780 1.404 . S
C781 H793 0.930 . S
C782 C778 1.524 . S
C782 H794 0.956 . S
C782 H795 0.961 . S
C782 H796 0.961 . S
C783 C780 1.539 . S
C783 H797 0.958 . S
C783 H798 0.961 . S
C783 H799 0.960 . S
H784 C768 0.931 . S
H785 C773 0.929 . S
H786 C774 0.960 . S
H787 C774 0.962 . S
H788 C774 0.960 . S
H789 C775 0.961 . S
H790 C775 0.961 . S
H791 C775 0.961 . S
H792 C776 0.931 . S
H793 C781 0.930 . S
H794 C782 0.956 . S
H795 C782 0.961 . S
H796 C782 0.961 . S
H797 C783 0.958 . S
H798 C783 0.961 . S
H799 C783 0.960 . S
C800 C801 1.391 . S
C800 C802 1.394 . S
C800 H816 0.931 . S
C801 C800 1.391 . S
C801 C805 1.376 . S
C802 C800 1.394 . S
C802 C803 1.369 . S
C802 C806 1.531 . S
C803 C802 1.369 . S
C803 C804 1.410 . S
C803 C811 1.503 . S
C804 C803 1.410 . S
C804 C805 1.392 . S
C804 C807 1.511 . S
C805 C801 1.376 . S
C805 C804 1.392 . S
C805 H817 0.929 . S
C806 C802 1.531 . S
C806 H818 0.960 . S
C806 H819 0.962 . S
C806 H820 0.960 . S
C807 C804 1.511 . S
C807 H821 0.961 . S
C807 H822 0.961 . S
C807 H823 0.961 . S
C808 C809 1.370 . S
C808 C810 1.363 . S
C808 H824 0.931 . S
C809 C808 1.370 . S
C809 C813 1.408 . S
C810 C808 1.363 . S
C810 C811 1.370 . S
C810 C814 1.524 . S
C811 C803 1.503 . S
C811 C810 1.370 . S
C811 C812 1.403 . S
C812 C811 1.403 . S
C812 C813 1.404 . S
C812 C815 1.539 . S
C813 C809 1.408 . S
C813 C812 1.404 . S
C813 H825 0.930 . S
C814 C810 1.524 . S
C814 H826 0.956 . S
C814 H827 0.961 . S
C814 H828 0.961 . S
C815 C812 1.539 . S
C815 H829 0.958 . S
C815 H830 0.961 . S
C815 H831 0.960 . S
H816 C800 0.931 . S
H817 C805 0.929 . S
H818 C806 0.960 . S
H819 C806 0.962 . S
H820 C806 0.960 . S
H821 C807 0.961 . S
H822 C807 0.961 . S
H823 C807 0.961 . S
H824 C808 0.931 . S
H825 C813 0.930 . S
H826 C814 0.956 . S
H827 C814 0.961 . S
H828 C814 0.961 . S
H829 C815 0.958 . S
H830 C815 0.961 . S
H831 C815 0.960 . S
C832 C833 1.391 . S
C832 C834 1.394 . S
C832 H848 0.931 . S
C833 C832 1.391 . S
C833 C837 1.376 . S
C834 C832 1.394 . S
C834 C835 1.369 . S
C834 C838 1.531 . S
C835 C834 1.369 . S
C835 C836 1.410 . S
C835 C843 1.503 . S
C836 C835 1.410 . S
C836 C837 1.392 . S
C836 C839 1.511 . S
C837 C833 1.376 . S
C837 C836 1.392 . S
C837 H849 0.929 . S
C838 C834 1.531 . S
C838 H850 0.960 . S
C838 H851 0.962 . S
C838 H852 0.960 . S
C839 C836 1.511 . S
C839 H853 0.961 . S
C839 H854 0.961 . S
C839 H855 0.961 . S
C840 C841 1.370 . S
C840 C842 1.363 . S
C840 H856 0.931 . S
C841 C840 1.370 . S
C841 C845 1.408 . S
C842 C840 1.363 . S
C842 C843 1.370 . S
C842 C846 1.524 . S
C843 C835 1.503 . S
C843 C842 1.370 . S
C843 C844 1.403 . S
C844 C843 1.403 . S
C844 C845 1.404 . S
C844 C847 1.539 . S
C845 C841 1.408 . S
C845 C844 1.404 . S
C845 H857 0.930 . S
C846 C842 1.524 . S
C846 H858 0.956 . S
C846 H859 0.961 . S
C846 H860 0.961 . S
C847 C844 1.539 . S
C847 H861 0.958 . S
C847 H862 0.961 . S
C847 H863 0.960 . S
H848 C832 0.931 . S
H849 C837 0.929 . S
H850 C838 0.960 . S
H851 C838 0.962 . S
H852 C838 0.960 . S
H853 C839 0.961 . S
H854 C839 0.961 . S
H855 C839 0.961 . S
H856 C840 0.931 . S
H857 C845 0.930 . S
H858 C846 0.956 . S
H859 C846 0.961 . S
H860 C846 0.961 . S
H861 C847 0.958 . S
H862 C847 0.961 . S
H863 C847 0.960 . S
C864 C865 1.391 . S
C864 C866 1.394 . S
C864 H880 0.931 . S
C865 C864 1.391 . S
C865 C869 1.376 . S
C866 C864 1.394 . S
C866 C867 1.369 . S
C866 C870 1.531 . S
C867 C866 1.369 . S
C867 C868 1.410 . S
C867 C875 1.503 . S
C868 C867 1.410 . S
C868 C869 1.392 . S
C868 C871 1.511 . S
C869 C865 1.376 . S
C869 C868 1.392 . S
C869 H881 0.929 . S
C870 C866 1.531 . S
C870 H882 0.960 . S
C870 H883 0.962 . S
C870 H884 0.960 . S
C871 C868 1.511 . S
C871 H885 0.961 . S
C871 H886 0.961 . S
C871 H887 0.961 . S
C872 C873 1.370 . S
C872 C874 1.363 . S
C872 H888 0.931 . S
C873 C872 1.370 . S
C873 C877 1.408 . S
C874 C872 1.363 . S
C874 C875 1.370 . S
C874 C878 1.524 . S
C875 C867 1.503 . S
C875 C874 1.370 . S
C875 C876 1.403 . S
C876 C875 1.403 . S
C876 C877 1.404 . S
C876 C879 1.539 . S
C877 C873 1.408 . S
C877 C876 1.404 . S
C877 H889 0.930 . S
C878 C874 1.524 . S
C878 H890 0.956 . S
C878 H891 0.961 . S
C878 H892 0.961 . S
C879 C876 1.539 . S
C879 H893 0.958 . S
C879 H894 0.961 . S
C879 H895 0.960 . S
H880 C864 0.931 . S
H881 C869 0.929 . S
H882 C870 0.960 . S
H883 C870 0.962 . S
H884 C870 0.960 . S
H885 C871 0.961 . S
H886 C871 0.961 . S
H887 C871 0.961 . S
H888 C872 0.931 . S
H889 C877 0.930 . S
H890 C878 0.956 . S
H891 C878 0.961 . S
H892 C878 0.961 . S
H893 C879 0.958 . S
H894 C879 0.961 . S
H895 C879 0.960 . S
C896 C897 1.391 . S
C896 C898 1.394 . S
C896 H912 0.931 . S
C897 C896 1.391 . S
C897 C901 1.376 . S
C898 C896 1.394 . S
C898 C899 1.369 . S
C898 C902 1.531 . S
C899 C898 1.369 . S
C899 C900 1.410 . S
C899 C907 1.503 . S
C900 C899 1.410 . S
C900 C901 1.392 . S
C900 C903 1.511 . S
C901 C897 1.376 . S
C901 C900 1.392 . S
C901 H913 0.929 . S
C902 C898 1.531 . S
C902 H914 0.960 . S
C902 H915 0.962 . S
C902 H916 0.960 . S
C903 C900 1.511 . S
C903 H917 0.961 . S
C903 H918 0.961 . S
C903 H919 0.961 . S
C904 C905 1.370 . S
C904 C906 1.363 . S
C904 H920 0.931 . S
C905 C904 1.370 . S
C905 C909 1.408 . S
C906 C904 1.363 . S
C906 C907 1.370 . S
C906 C910 1.524 . S
C907 C899 1.503 . S
C907 C906 1.370 . S
C907 C908 1.403 . S
C908 C907 1.403 . S
C908 C909 1.404 . S
C908 C911 1.539 . S
C909 C905 1.408 . S
C909 C908 1.404 . S
C909 H921 0.930 . S
C910 C906 1.524 . S
C910 H922 0.956 . S
C910 H923 0.961 . S
C910 H924 0.961 . S
C911 C908 1.539 . S
C911 H925 0.958 . S
C911 H926 0.961 . S
C911 H927 0.960 . S
H912 C896 0.931 . S
H913 C901 0.929 . S
H914 C902 0.960 . S
H915 C902 0.962 . S
H916 C902 0.960 . S
H917 C903 0.961 . S
H918 C903 0.961 . S
H919 C903 0.961 . S
H920 C904 0.931 . S
H921 C909 0.930 . S
H922 C910 0.956 . S
H923 C910 0.961 . S
H924 C910 0.961 . S
H925 C911 0.958 . S
H926 C911 0.961 . S
H927 C911 0.960 . S
C928 C929 1.391 . S
C928 C930 1.394 . S
C928 H944 0.931 . S
C929 C928 1.391 . S
C929 C933 1.376 . S
C930 C928 1.394 . S
C930 C931 1.369 . S
C930 C934 1.531 . S
C931 C930 1.369 . S
C931 C932 1.410 . S
C931 C939 1.503 . S
C932 C931 1.410 . S
C932 C933 1.392 . S
C932 C935 1.511 . S
C933 C929 1.376 . S
C933 C932 1.392 . S
C933 H945 0.929 . S
C934 C930 1.531 . S
C934 H946 0.960 . S
C934 H947 0.962 . S
C934 H948 0.960 . S
C935 C932 1.511 . S
C935 H949 0.961 . S
C935 H950 0.961 . S
C935 H951 0.961 . S
C936 C937 1.370 . S
C936 C938 1.363 . S
C936 H952 0.931 . S
C937 C936 1.370 . S
C937 C941 1.408 . S
C938 C936 1.363 . S
C938 C939 1.370 . S
C938 C942 1.524 . S
C939 C931 1.503 . S
C939 C938 1.370 . S
C939 C940 1.403 . S
C940 C939 1.403 . S
C940 C941 1.404 . S
C940 C943 1.539 . S
C941 C937 1.408 . S
C941 C940 1.404 . S
C941 H953 0.930 . S
C942 C938 1.524 . S
C942 H954 0.956 . S
C942 H955 0.961 . S
C942 H956 0.961 . S
C943 C940 1.539 . S
C943 H957 0.958 . S
C943 H958 0.961 . S
C943 H959 0.960 . S
H944 C928 0.931 . S
H945 C933 0.929 . S
H946 C934 0.960 . S
H947 C934 0.962 . S
H948 C934 0.960 . S
H949 C935 0.961 . S
H950 C935 0.961 . S
H951 C935 0.961 . S
H952 C936 0.931 . S
H953 C941 0.930 . S
H954 C942 0.956 . S
H955 C942 0.961 . S
H956 C942 0.961 . S
H957 C943 0.958 . S
H958 C943 0.961 . S
H959 C943 0.960 . S
C960 C961 1.391 . S
C960 C962 1.394 . S
C960 H976 0.931 . S
C961 C960 1.391 . S
C961 C965 1.376 . S
C962 C960 1.394 . S
C962 C963 1.369 . S
C962 C966 1.570 . S
C963 C962 1.369 . S
C963 C964 1.410 . S
C963 C971 1.503 1_455 S
C964 C963 1.410 . S
C964 C965 1.392 . S
C964 C967 1.511 . S
C965 C961 1.376 . S
C965 C964 1.392 . S
C965 H977 0.929 . S
C966 C962 1.570 . S
C966 H978 0.947 1_455 S
C966 H979 0.902 1_455 S
C966 H980 1.000 . S
C967 C964 1.511 . S
C967 H981 0.961 . S
C967 H982 0.961 . S
C967 H983 0.961 . S
C968 C969 1.370 . S
C968 C970 1.363 . S
C968 H984 0.931 . S
C969 C968 1.370 . S
C969 C973 1.408 . S
C970 C968 1.363 . S
C970 C971 1.370 . S
C970 C974 1.524 . S
C971 C963 1.503 1_655 S
C971 C970 1.370 . S
C971 C972 1.403 . S
C972 C971 1.403 . S
C972 C973 1.404 . S
C972 C975 1.539 1_655 S
C973 C969 1.408 . S
C973 C972 1.404 . S
C973 H985 0.930 . S
C974 C970 1.524 . S
C974 H986 0.956 . S
C974 H987 0.961 . S
C974 H988 0.961 . S
C975 C972 1.539 1_455 S
C975 H989 0.958 . S
C975 H990 0.961 . S
C975 H991 0.960 . S
H976 C960 0.931 . S
H977 C965 0.929 . S
H978 C966 0.947 1_655 S
H979 C966 0.902 1_655 S
H980 C966 1.000 . S
H981 C967 0.961 . S
H982 C967 0.961 . S
H983 C967 0.961 . S
H984 C968 0.931 . S
H985 C973 0.930 . S
H986 C974 0.956 . S
H987 C974 0.961 . S
H988 C974 0.961 . S
H989 C975 0.958 . S
H990 C975 0.961 . S
H991 C975 0.960 . S
C992 C993 1.391 . S
C992 C994 1.394 . S
C992 H1008 0.931 . S
C993 C992 1.391 . S
C993 C997 1.376 . S
C994 C992 1.394 . S
C994 C995 1.369 . S
C994 C998 1.531 . S
C995 C994 1.369 . S
C995 C996 1.410 . S
C995 C1003 1.503 1_545 S
C996 C995 1.410 . S
C996 C997 1.392 . S
C996 C999 1.511 1_545 S
C997 C993 1.376 . S
C997 C996 1.392 . S
C997 H1009 0.929 . S
C998 C994 1.531 . S
C998 H1010 0.960 1_545 S
C998 H1011 0.962 . S
C998 H1012 0.960 . S
C999 C996 1.511 1_565 S
C999 H1013 0.961 1_565 S
C999 H1014 0.961 . S
C999 H1015 0.961 . S
C1000 C1001 1.370 . S
C1000 C1002 1.363 1_565 S
C1000 H1016 0.931 . S
C1001 C1000 1.370 . S
C1001 C1005 1.408 . S
C1002 C1000 1.363 1_545 S
C1002 C1003 1.370 1_545 S
C1002 C1006 1.524 . S
C1003 C995 1.503 1_565 S
C1003 C1002 1.370 1_565 S
C1003 C1004 1.403 . S
C1004 C1003 1.403 . S
C1004 C1005 1.404 . S
C1004 C1007 1.539 . S
C1005 C1001 1.408 . S
C1005 C1004 1.404 . S
C1005 H1017 0.930 . S
C1006 C1002 1.524 . S
C1006 H1018 0.956 . S
C1006 H1019 0.961 . S
C1006 H1020 0.961 . S
C1007 C1004 1.539 . S
C1007 H1021 0.958 . S
C1007 H1022 0.961 . S
C1007 H1023 0.960 . S
H1008 C992 0.931 . S
H1009 C997 0.929 . S
H1010 C998 0.960 1_565 S
H1011 C998 0.962 . S
H1012 C998 0.960 . S
H1013 C999 0.961 1_545 S
H1014 C999 0.961 . S
H1015 C999 0.961 . S
H1016 C1000 0.931 . S
H1017 C1005 0.930 . S
H1018 C1006 0.956 . S
H1019 C1006 0.961 . S
H1020 C1006 0.961 . S
H1021 C1007 0.958 . S
H1022 C1007 0.961 . S
H1023 C1007 0.960 . S
C1024 C1025 1.391 . S
C1024 C1026 1.394 1_556 S
C1024 H1040 0.923 1_556 S
C1025 C1024 1.391 . S
C1025 C1029 1.376 . S
C1026 C1024 1.394 1_554 S
C1026 C1027 1.369 1_554 S
C1026 C1030 1.531 . S
C1027 C1026 1.369 1_556 S
C1027 C1028 1.410 . S
C1027 C1035 1.503 1_446 S
C1028 C1027 1.410 . S
C1028 C1029 1.392 . S
C1028 C1031 1.511 1_455 S
C1029 C1025 1.376 . S
C1029 C1028 1.392 . S
C1029 H1041 0.929 . S
C1030 C1026 1.531 . S
C1030 H1042 0.960 . S
C1030 H1043 0.962 1_545 S
C1030 H1044 0.960 . S
C1031 C1028 1.511 1_655 S
C1031 H1045 0.961 . S
C1031 H1046 0.961 . S
C1031 H1047 0.961 . S
C1032 C1033 1.370 . S
C1032 C1034 1.363 . S
C1032 H1048 0.931 . S
C1033 C1032 1.370 . S
C1033 C1037 1.408 . S
C1034 C1032 1.363 . S
C1034 C1035 1.370 . S
C1034 C1038 1.524 1_654 S
C1035 C1027 1.503 1_664 S
C1035 C1034 1.370 . S
C1035 C1036 1.403 1_565 S
C1036 C1035 1.403 1_545 S
C1036 C1037 1.404 1_545 S
C1036 C1039 1.539 . S
C1037 C1033 1.408 . S
C1037 C1036 1.404 1_565 S
C1037 H1049 0.930 . S
C1038 C1034 1.524 1_456 S
C1038 H1050 0.956 . S
C1038 H1051 0.961 . S
C1038 H1052 0.961 . S
C1039 C1036 1.539 . S
C1039 H1053 0.958 . S
C1039 H1054 0.961 . S
C1039 H1055 0.960 . S
H1040 C1024 0.923 1_554 S
H1041 C1029 0.929 . S
H1042 C1030 0.960 . S
H1043 C1030 0.962 1_565 S
H1044 C1030 0.960 . S
H1045 C1031 0.961 . S
H1046 C1031 0.961 . S
H1047 C1031 0.961 . S
H1048 C1032 0.931 . S
H1049 C1037 0.930 . S
H1050 C1038 0.956 . S
H1051 C1038 0.961 . S
H1052 C1038 0.961 . S
H1053 C1039 0.958 . S
H1054 C1039 0.961 . S
H1055 C1039 0.960 . S
C1056 C1057 1.391 . S
C1056 C1058 1.394 . S
C1056 H1072 0.931 . S
C1057 C1056 1.391 . S
C1057 C1061 1.376 . S
C1058 C1056 1.394 . S
C1058 C1059 1.369 . S
C1058 C1062 1.531 . S
C1059 C1058 1.369 . S
C1059 C1060 1.410 1_556 S
C1059 C1067 1.503 1_556 S
C1060 C1059 1.410 1_554 S
C1060 C1061 1.392 1_554 S
C1060 C1063 1.511 . S
C1061 C1057 1.376 . S
C1061 C1060 1.392 1_556 S
C1061 H1073 0.948 . S
C1062 C1058 1.531 . S
C1062 H1074 0.960 . S
C1062 H1075 0.962 . S
C1062 H1076 0.960 . S
C1063 C1060 1.511 . S
C1063 H1077 0.961 . S
C1063 H1078 0.961 . S
C1063 H1079 0.961 . S
C1064 C1065 1.370 . S
C1064 C1066 1.363 . S
C1064 H1080 0.931 . S
C1065 C1064 1.370 . S
C1065 C1069 1.408 . S
C1066 C1064 1.363 . S
C1066 C1067 1.370 . S
C1066 C1070 1.524 1_554 S
C1067 C1059 1.503 1_554 S
C1067 C1066 1.370 . S
C1067 C1068 1.403 . S
C1068 C1067 1.403 . S
C1068 C1069 1.404 . S
C1068 C1071 1.539 . S
C1069 C1065 1.408 . S
C1069 C1068 1.404 . S
C1069 H1081 0.930 . S
C1070 C1066 1.524 1_556 S
C1070 H1082 0.956 . S
C1070 H1083 0.961 . S
C1070 H1084 0.961 . S
C1071 C1068 1.539 . S
C1071 H1085 0.958 . S
C1071 H1086 0.961 . S
C1071 H1087 0.960 . S
H1072 C1056 0.931 . S
H1073 C1061 0.948 . S
H1074 C1062 0.960 . S
H1075 C1062 0.962 . S
H1076 C1062 0.960 . S
H1077 C1063 0.961 . S
H1078 C1063 0.961 . S
H1079 C1063 0.961 . S
H1080 C1064 0.931 . S
H1081 C1069 0.930 . S
H1082 C1070 0.956 . S
H1083 C1070 0.961 . S
H1084 C1070 0.961 . S
H1085 C1071 0.958 . S
H1086 C1071 0.961 . S
H1087 C1071 0.960 . S
C1088 C1089 1.391 . S
C1088 C1090 1.394 . S
C1088 H1104 0.931 . S
C1089 C1088 1.391 . S
C1089 C1093 1.376 . S
C1090 C1088 1.394 . S
C1090 C1091 1.369 . S
C1090 C1094 1.531 1_655 S
C1091 C1090 1.369 . S
C1091 C1092 1.410 . S
C1091 C1099 1.503 1_655 S
C1092 C1091 1.410 . S
C1092 C1093 1.392 . S
C1092 C1095 1.511 . S
C1093 C1089 1.376 . S
C1093 C1092 1.392 . S
C1093 H1105 0.929 . S
C1094 C1090 1.531 1_455 S
C1094 H1106 0.960 . S
C1094 H1107 0.962 . S
C1094 H1108 0.960 . S
C1095 C1092 1.511 . S
C1095 H1109 0.961 . S
C1095 H1110 0.961 . S
C1095 H1111 0.961 . S
C1096 C1097 1.370 . S
C1096 C1098 1.363 . S
C1096 H1112 0.931 . S
C1097 C1096 1.370 . S
C1097 C1101 1.408 . S
C1098 C1096 1.363 . S
C1098 C1099 1.370 . S
C1098 C1102 1.524 . S
C1099 C1091 1.503 1_455 S
C1099 C1098 1.370 . S
C1099 C1100 1.403 . S
C1100 C1099 1.403 . S
C1100 C1101 1.404 . S
C1100 C1103 1.539 1_455 S
C1101 C1097 1.408 . S
C1101 C1100 1.404 . S
C1101 H1113 0.930 . S
C1102 C1098 1.524 . S
C1102 H1114 0.956 . S
C1102 H1115 0.961 . S
C1102 H1116 0.961 . S
C1103 C1100 1.539 1_655 S
C1103 H1117 0.958 . S
C1103 H1118 0.961 . S
C1103 H1119 0.960 . S
H1104 C1088 0.931 . S
H1105 C1093 0.929 . S
H1106 C1094 0.960 . S
H1107 C1094 0.962 . S
H1108 C1094 0.960 . S
H1109 C1095 0.961 . S
H1110 C1095 0.961 . S
H1111 C1095 0.961 . S
H1112 C1096 0.931 . S
H1113 C1101 0.930 . S
H1114 C1102 0.956 . S
H1115 C1102 0.961 . S
H1116 C1102 0.961 . S
H1117 C1103 0.958 . S
H1118 C1103 0.961 . S
H1119 C1103 0.960 . S
C1120 C1121 1.391 . S
C1120 C1122 1.394 . S
C1120 H1136 0.931 . S
C1121 C1120 1.391 . S
C1121 C1125 1.376 . S
C1122 C1120 1.394 . S
C1122 C1123 1.369 . S
C1122 C1126 1.531 . S
C1123 C1122 1.369 . S
C1123 C1124 1.410 . S
C1123 C1131 1.503 1_545 S
C1124 C1123 1.410 . S
C1124 C1125 1.392 . S
C1124 C1127 1.511 1_545 S
C1125 C1121 1.376 . S
C1125 C1124 1.392 . S
C1125 H1137 0.929 . S
C1126 C1122 1.531 . S
C1126 H1138 0.960 1_545 S
C1126 H1139 0.962 . S
C1126 H1140 0.960 . S
C1127 C1124 1.511 1_565 S
C1127 H1141 0.961 1_565 S
C1127 H1142 0.961 . S
C1127 H1143 0.961 . S
C1128 C1129 1.370 . S
C1128 C1130 1.363 1_565 S
C1128 H1144 0.938 . S
C1129 C1128 1.370 . S
C1129 C1133 1.408 . S
C1130 C1128 1.363 1_545 S
C1130 C1131 1.370 1_545 S
C1130 C1134 1.524 . S
C1131 C1123 1.503 1_565 S
C1131 C1130 1.370 1_565 S
C1131 C1132 1.403 . S
C1132 C1131 1.403 . S
C1132 C1133 1.404 . S
C1132 C1135 1.539 . S
C1133 C1129 1.408 . S
C1133 C1132 1.404 . S
C1133 H1145 0.930 . S
C1134 C1130 1.524 . S
C1134 H1146 0.956 . S
C1134 H1147 0.961 . S
C1134 H1148 0.961 . S
C1135 C1132 1.539 . S
C1135 H1149 0.958 . S
C1135 H1150 0.961 . S
C1135 H1151 0.960 . S
H1136 C1120 0.931 . S
H1137 C1125 0.929 . S
H1138 C1126 0.960 1_565 S
H1139 C1126 0.962 . S
H1140 C1126 0.960 . S
H1141 C1127 0.961 1_545 S
H1142 C1127 0.961 . S
H1143 C1127 0.961 . S
H1144 C1128 0.938 . S
H1145 C1133 0.930 . S
H1146 C1134 0.956 . S
H1147 C1134 0.961 . S
H1148 C1134 0.961 . S
H1149 C1135 0.958 . S
H1150 C1135 0.961 . S
H1151 C1135 0.960 . S
C1152 C1153 1.391 . S
C1152 C1154 1.372 1_556 S
C1152 H1168 0.931 . S
C1153 C1152 1.391 . S
C1153 C1157 1.376 . S
C1154 C1152 1.372 1_554 S
C1154 C1155 1.349 1_554 S
C1154 C1158 1.574 . S
C1155 C1154 1.349 1_556 S
C1155 C1156 1.410 . S
C1155 C1163 1.503 1_556 S
C1156 C1155 1.410 . S
C1156 C1157 1.392 . S
C1156 C1159 1.511 . S
C1157 C1153 1.376 . S
C1157 C1156 1.392 . S
C1157 H1169 0.929 . S
C1158 C1154 1.574 . S
C1158 H1170 0.960 . S
C1158 H1171 0.962 . S
C1158 H1172 0.960 . S
C1159 C1156 1.511 . S
C1159 H1173 0.961 . S
C1159 H1174 0.961 . S
C1159 H1175 0.961 . S
C1160 C1161 1.370 . S
C1160 C1162 1.363 . S
C1160 H1176 0.931 . S
C1161 C1160 1.370 . S
C1161 C1165 1.408 . S
C1162 C1160 1.363 . S
C1162 C1163 1.370 . S
C1162 C1166 1.524 . S
C1163 C1155 1.503 1_554 S
C1163 C1162 1.370 . S
C1163 C1164 1.403 . S
C1164 C1163 1.403 . S
C1164 C1165 1.404 . S
C1164 C1167 1.539 1_554 S
C1165 C1161 1.408 . S
C1165 C1164 1.404 . S
C1165 H1177 0.930 . S
C1166 C1162 1.524 . S
C1166 H1178 0.956 . S
C1166 H1179 0.961 . S
C1166 H1180 0.961 . S
C1167 C1164 1.539 1_556 S
C1167 H1181 0.958 . S
C1167 H1182 0.961 . S
C1167 H1183 0.960 . S
H1168 C1152 0.931 . S
H1169 C1157 0.929 . S
H1170 C1158 0.960 . S
H1171 C1158 0.962 . S
H1172 C1158 0.960 . S
H1173 C1159 0.961 . S
H1174 C1159 0.961 . S
H1175 C1159 0.961 . S
H1176 C1160 0.931 . S
H1177 C1165 0.930 . S
H1178 C1166 0.956 . S
H1179 C1166 0.961 . S
H1180 C1166 0.961 . S
H1181 C1167 0.958 . S
H1182 C1167 0.961 . S
H1183 C1167 0.960 . S
C1184 C1185 1.391 . S
C1184 C1186 1.394 . S
C1184 H1200 0.931 . S
C1185 C1184 1.391 . S
C1185 C1189 1.376 . S
C1186 C1184 1.394 . S
C1186 C1187 1.369 . S
C1186 C1190 1.531 . S
C1187 C1186 1.369 . S
C1187 C1188 1.410 . S
C1187 C1195 1.503 . S
C1188 C1187 1.410 . S
C1188 C1189 1.392 . S
C1188 C1191 1.511 . S
C1189 C1185 1.376 . S
C1189 C1188 1.392 . S
C1189 H1201 0.929 . S
C1190 C1186 1.531 . S
C1190 H1202 0.960 . S
C1190 H1203 0.962 . S
C1190 H1204 0.960 . S
C1191 C1188 1.511 . S
C1191 H1205 0.961 . S
C1191 H1206 0.961 . S
C1191 H1207 0.961 . S
C1192 C1193 1.370 . S
C1192 C1194 1.363 . S
C1192 H1208 0.931 . S
C1193 C1192 1.370 . S
C1193 C1197 1.408 . S
C1194 C1192 1.363 . S
C1194 C1195 1.370 . S
C1194 C1198 1.524 . S
C1195 C1187 1.503 . S
C1195 C1194 1.370 . S
C1195 C1196 1.403 . S
C1196 C1195 1.403 . S
C1196 C1197 1.404 . S
C1196 C1199 1.539 . S
C1197 C1193 1.408 . S
C1197 C1196 1.404 . S
C1197 H1209 0.930 . S
C1198 C1194 1.524 . S
C1198 H1210 0.956 . S
C1198 H1211 0.961 . S
C1198 H1212 0.961 . S
C1199 C1196 1.539 . S
C1199 H1213 0.958 . S
C1199 H1214 0.961 . S
C1199 H1215 0.960 . S
H1200 C1184 0.931 . S
H1201 C1189 0.929 . S
H1202 C1190 0.960 . S
H1203 C1190 0.962 . S
H1204 C1190 0.960 . S
H1205 C1191 0.961 . S
H1206 C1191 0.961 . S
H1207 C1191 0.961 . S
H1208 C1192 0.931 . S
H1209 C1197 0.930 . S
H1210 C1198 0.956 . S
H1211 C1198 0.961 . S
H1212 C1198 0.961 . S
H1213 C1199 0.958 . S
H1214 C1199 0.961 . S
H1215 C1199 0.960 . S
C1216 C1217 1.391 . S
C1216 C1218 1.394 . S
C1216 H1232 0.931 . S
C1217 C1216 1.391 . S
C1217 C1221 1.376 . S
C1218 C1216 1.394 . S
C1218 C1219 1.369 . S
C1218 C1222 1.531 1_455 S
C1219 C1218 1.369 . S
C1219 C1220 1.410 . S
C1219 C1227 1.503 1_455 S
C1220 C1219 1.410 . S
C1220 C1221 1.392 . S
C1220 C1223 1.511 . S
C1221 C1217 1.376 . S
C1221 C1220 1.392 . S
C1221 H1233 0.929 . S
C1222 C1218 1.531 1_655 S
C1222 H1234 0.960 . S
C1222 H1235 0.962 . S
C1222 H1236 0.960 . S
C1223 C1220 1.511 . S
C1223 H1237 0.961 . S
C1223 H1238 0.961 . S
C1223 H1239 0.961 . S
C1224 C1225 1.370 . S
C1224 C1226 1.363 . S
C1224 H1240 0.931 . S
C1225 C1224 1.370 . S
C1225 C1229 1.408 . S
C1226 C1224 1.363 . S
C1226 C1227 1.370 . S
C1226 C1230 1.524 . S
C1227 C1219 1.503 1_655 S
C1227 C1226 1.370 . S
C1227 C1228 1.403 . S
C1228 C1227 1.403 . S
C1228 C1229 1.404 . S
C1228 C1231 1.539 . S
C1229 C1225 1.408 . S
C1229 C1228 1.404 . S
C1229 H1241 0.930 . S
C1230 C1226 1.524 . S
C1230 H1242 0.956 . S
C1230 H1243 0.961 1_655 S
C1230 H1244 0.961 . S
C1231 C1228 1.539 . S
C1231 H1245 0.958 . S
C1231 H1246 0.961 . S
C1231 H1247 0.960 1_655 S
H1232 C1216 0.931 . S
H1233 C1221 0.929 . S
H1234 C1222 0.960 . S
H1235 C1222 0.962 . S
H1236 C1222 0.960 . S
H1237 C1223 0.961 . S
H1238 C1223 0.961 . S
H1239 C1223 0.961 . S
H1240 C1224 0.931 . S
H1241 C1229 0.930 . S
H1242 C1230 0.956 . S
H1243 C1230 0.961 1_455 S
H1244 C1230 0.961 . S
H1245 C1231 0.958 . S
H1246 C1231 0.961 . S
H1247 C1231 0.960 1_455 S
C1248 C1249 1.391 . S
C1248 C1250 1.394 . S
C1248 H1264 0.931 . S
C1249 C1248 1.391 . S
C1249 C1253 1.376 . S
C1250 C1248 1.394 . S
C1250 C1251 1.369 . S
C1250 C1254 1.531 . S
C1251 C1250 1.369 . S
C1251 C1252 1.410 . S
C1251 C1259 1.503 . S
C1252 C1251 1.410 . S
C1252 C1253 1.392 . S
C1252 C1255 1.511 . S
C1253 C1249 1.376 . S
C1253 C1252 1.392 . S
C1253 H1265 0.929 . S
C1254 C1250 1.531 . S
C1254 H1266 0.960 . S
C1254 H1267 0.962 . S
C1254 H1268 0.960 . S
C1255 C1252 1.511 . S
C1255 H1269 0.961 . S
C1255 H1270 0.961 . S
C1255 H1271 0.961 . S
C1256 C1257 1.370 . S
C1256 C1258 1.363 . S
C1256 H1272 0.931 . S
C1257 C1256 1.370 . S
C1257 C1261 1.408 . S
C1258 C1256 1.363 . S
C1258 C1259 1.370 . S
C1258 C1262 1.524 . S
C1259 C1251 1.503 . S
C1259 C1258 1.370 . S
C1259 C1260 1.403 . S
C1260 C1259 1.403 . S
C1260 C1261 1.404 . S
C1260 C1263 1.539 . S
C1261 C1257 1.408 . S
C1261 C1260 1.404 . S
C1261 H1273 0.930 . S
C1262 C1258 1.524 . S
C1262 H1274 0.956 . S
C1262 H1275 0.961 . S
C1262 H1276 0.961 . S
C1263 C1260 1.539 . S
C1263 H1277 0.958 . S
C1263 H1278 0.961 . S
C1263 H1279 0.960 . S
H1264 C1248 0.931 . S
H1265 C1253 0.929 . S
H1266 C1254 0.960 . S
H1267 C1254 0.962 . S
H1268 C1254 0.960 . S
H1269 C1255 0.961 . S
H1270 C1255 0.961 . S
H1271 C1255 0.961 . S
H1272 C1256 0.931 . S
H1273 C1261 0.930 . S
H1274 C1262 0.956 . S
H1275 C1262 0.961 . S
H1276 C1262 0.961 . S
H1277 C1263 0.958 . S
H1278 C1263 0.961 . S
H1279 C1263 0.960 . S
C1280 C1281 1.391 . S
C1280 C1282 1.394 . S
C1280 H1296 0.931 . S
C1281 C1280 1.391 . S
C1281 C1285 1.376 . S
C1282 C1280 1.394 . S
C1282 C1283 1.369 . S
C1282 C1286 1.531 . S
C1283 C1282 1.369 . S
C1283 C1284 1.410 . S
C1283 C1291 1.503 . S
C1284 C1283 1.410 . S
C1284 C1285 1.392 . S
C1284 C1287 1.511 . S
C1285 C1281 1.376 . S
C1285 C1284 1.392 . S
C1285 H1297 0.929 . S
C1286 C1282 1.531 . S
C1286 H1298 0.960 . S
C1286 H1299 0.962 . S
C1286 H1300 0.960 . S
C1287 C1284 1.511 . S
C1287 H1301 0.961 . S
C1287 H1302 0.961 . S
C1287 H1303 0.961 . S
C1288 C1289 1.370 . S
C1288 C1290 1.363 . S
C1288 H1304 0.931 . S
C1289 C1288 1.370 . S
C1289 C1293 1.408 . S
C1290 C1288 1.363 . S
C1290 C1291 1.370 . S
C1290 C1294 1.524 . S
C1291 C1283 1.503 . S
C1291 C1290 1.370 . S
C1291 C1292 1.403 . S
C1292 C1291 1.403 . S
C1292 C1293 1.404 . S
C1292 C1295 1.539 . S
C1293 C1289 1.408 . S
C1293 C1292 1.404 . S
C1293 H1305 0.930 . S
C1294 C1290 1.524 . S
C1294 H1306 0.956 . S
C1294 H1307 0.961 . S
C1294 H1308 0.961 . S
C1295 C1292 1.539 . S
C1295 H1309 0.958 . S
C1295 H1310 0.961 . S
C1295 H1311 0.960 . S
H1296 C1280 0.931 . S
H1297 C1285 0.929 . S
H1298 C1286 0.960 . S
H1299 C1286 0.962 . S
H1300 C1286 0.960 . S
H1301 C1287 0.961 . S
H1302 C1287 0.961 . S
H1303 C1287 0.961 . S
H1304 C1288 0.931 . S
H1305 C1293 0.930 . S
H1306 C1294 0.956 . S
H1307 C1294 0.961 . S
H1308 C1294 0.961 . S
H1309 C1295 0.958 . S
H1310 C1295 0.961 . S
H1311 C1295 0.960 . S
C1312 C1313 1.391 . S
C1312 C1314 1.394 . S
C1312 H1328 0.931 . S
C1313 C1312 1.391 . S
C1313 C1317 1.376 . S
C1314 C1312 1.394 . S
C1314 C1315 1.369 . S
C1314 C1318 1.531 . S
C1315 C1314 1.369 . S
C1315 C1316 1.410 . S
C1315 C1323 1.503 . S
C1316 C1315 1.410 . S
C1316 C1317 1.392 . S
C1316 C1319 1.511 . S
C1317 C1313 1.376 . S
C1317 C1316 1.392 . S
C1317 H1329 0.929 . S
C1318 C1314 1.531 . S
C1318 H1330 0.960 . S
C1318 H1331 0.962 . S
C1318 H1332 0.960 . S
C1319 C1316 1.511 . S
C1319 H1333 0.961 . S
C1319 H1334 0.961 . S
C1319 H1335 0.961 . S
C1320 C1321 1.370 . S
C1320 C1322 1.363 . S
C1320 H1336 0.931 . S
C1321 C1320 1.370 . S
C1321 C1325 1.408 . S
C1322 C1320 1.363 . S
C1322 C1323 1.370 . S
C1322 C1326 1.524 . S
C1323 C1315 1.503 . S
C1323 C1322 1.370 . S
C1323 C1324 1.403 . S
C1324 C1323 1.403 . S
C1324 C1325 1.404 . S
C1324 C1327 1.539 . S
C1325 C1321 1.408 . S
C1325 C1324 1.404 . S
C1325 H1337 0.930 . S
C1326 C1322 1.524 . S
C1326 H1338 0.956 . S
C1326 H1339 0.961 . S
C1326 H1340 0.961 . S
C1327 C1324 1.539 . S
C1327 H1341 0.958 . S
C1327 H1342 0.961 . S
C1327 H1343 0.960 . S
H1328 C1312 0.931 . S
H1329 C1317 0.929 . S
H1330 C1318 0.960 . S
H1331 C1318 0.962 . S
H1332 C1318 0.960 . S
H1333 C1319 0.961 . S
H1334 C1319 0.961 . S
H1335 C1319 0.961 . S
H1336 C1320 0.931 . S
H1337 C1325 0.930 . S
H1338 C1326 0.956 . S
H1339 C1326 0.961 . S
H1340 C1326 0.961 . S
H1341 C1327 0.958 . S
H1342 C1327 0.961 . S
H1343 C1327 0.960 . S
C1344 C1345 1.391 . S
C1344 C1346 1.394 . S
C1344 H1360 0.931 . S
C1345 C1344 1.391 . S
C1345 C1349 1.376 . S
C1346 C1344 1.394 . S
C1346 C1347 1.369 . S
C1346 C1350 1.531 . S
C1347 C1346 1.369 . S
C1347 C1348 1.410 . S
C1347 C1355 1.503 . S
C1348 C1347 1.410 . S
C1348 C1349 1.392 . S
C1348 C1351 1.511 . S
C1349 C1345 1.376 . S
C1349 C1348 1.392 . S
C1349 H1361 0.929 . S
C1350 C1346 1.531 . S
C1350 H1362 0.960 . S
C1350 H1363 0.962 . S
C1350 H1364 0.960 . S
C1351 C1348 1.511 . S
C1351 H1365 0.961 . S
C1351 H1366 0.961 . S
C1351 H1367 0.961 . S
C1352 C1353 1.370 . S
C1352 C1354 1.363 . S
C1352 H1368 0.931 . S
C1353 C1352 1.370 . S
C1353 C1357 1.408 . S
C1354 C1352 1.363 . S
C1354 C1355 1.370 . S
C1354 C1358 1.524 . S
C1355 C1347 1.503 . S
C1355 C1354 1.370 . S
C1355 C1356 1.403 . S
C1356 C1355 1.403 . S
C1356 C1357 1.404 . S
C1356 C1359 1.539 . S
C1357 C1353 1.408 . S
C1357 C1356 1.404 . S
C1357 H1369 0.930 . S
C1358 C1354 1.524 . S
C1358 H1370 0.956 . S
C1358 H1371 0.961 . S
C1358 H1372 0.961 . S
C1359 C1356 1.539 . S
C1359 H1373 0.958 . S
C1359 H1374 0.961 . S
C1359 H1375 0.960 . S
H1360 C1344 0.931 . S
H1361 C1349 0.929 . S
H1362 C1350 0.960 . S
H1363 C1350 0.962 . S
H1364 C1350 0.960 . S
H1365 C1351 0.961 . S
H1366 C1351 0.961 . S
H1367 C1351 0.961 . S
H1368 C1352 0.931 . S
H1369 C1357 0.930 . S
H1370 C1358 0.956 . S
H1371 C1358 0.961 . S
H1372 C1358 0.961 . S
H1373 C1359 0.958 . S
H1374 C1359 0.961 . S
H1375 C1359 0.960 . S
C1376 C1377 1.391 . S
C1376 C1378 1.394 . S
C1376 H1392 0.931 . S
C1377 C1376 1.391 . S
C1377 C1381 1.376 . S
C1378 C1376 1.394 . S
C1378 C1379 1.369 . S
C1378 C1382 1.531 1_565 S
C1379 C1378 1.369 . S
C1379 C1380 1.410 . S
C1379 C1387 1.503 1_565 S
C1380 C1379 1.410 . S
C1380 C1381 1.392 . S
C1380 C1383 1.511 . S
C1381 C1377 1.376 . S
C1381 C1380 1.392 . S
C1381 H1393 0.929 . S
C1382 C1378 1.531 1_545 S
C1382 H1394 0.960 . S
C1382 H1395 0.962 1_545 S
C1382 H1396 0.960 . S
C1383 C1380 1.511 . S
C1383 H1397 0.961 . S
C1383 H1398 0.961 . S
C1383 H1399 0.961 1_565 S
C1384 C1385 1.370 . S
C1384 C1386 1.363 1_545 S
C1384 H1400 0.943 . S
C1385 C1384 1.370 . S
C1385 C1389 1.408 . S
C1386 C1384 1.363 1_565 S
C1386 C1387 1.370 1_565 S
C1386 C1390 1.524 . S
C1387 C1379 1.503 1_545 S
C1387 C1386 1.370 1_545 S
C1387 C1388 1.403 . S
C1388 C1387 1.403 . S
C1388 C1389 1.404 . S
C1388 C1391 1.539 . S
C1389 C1385 1.408 . S
C1389 C1388 1.404 . S
C1389 H1401 0.930 . S
C1390 C1386 1.524 . S
C1390 H1402 0.956 . S
C1390 H1403 0.961 . S
C1390 H1404 0.961 . S
C1391 C1388 1.539 . S
C1391 H1405 0.958 . S
C1391 H1406 0.961 . S
C1391 H1407 0.960 . S
H1392 C1376 0.931 . S
H1393 C1381 0.929 . S
H1394 C1382 0.960 . S
H1395 C1382 0.962 1_565 S
H1396 C1382 0.960 . S
H1397 C1383 0.961 . S
H1398 C1383 0.961 . S
H1399 C1383 0.961 1_545 S
H1400 C1384 0.943 . S
H1401 C1389 0.930 . S
H1402 C1390 0.956 . S
H1403 C1390 0.961 . S
H1404 C1390 0.961 . S
H1405 C1391 0.958 . S
H1406 C1391 0.961 . S
H1407 C1391 0.960 . S
C1408 C1409 1.391 . S
C1408 C1410 1.394 . S
C1408 H1424 0.931 . S
C1409 C1408 1.391 . S
C1409 C1413 1.376 . S
C1410 C1408 1.394 . S
C1410 C1411 1.369 . S
C1410 C1414 1.531 . S
C1411 C1410 1.369 . S
C1411 C1412 1.410 . S
C1411 C1419 1.503 . S
C1412 C1411 1.410 . S
C1412 C1413 1.392 . S
C1412 C1415 1.511 . S
C1413 C1409 1.376 . S
C1413 C1412 1.392 . S
C1413 H1425 0.929 . S
C1414 C1410 1.531 . S
C1414 H1426 0.960 . S
C1414 H1427 0.962 . S
C1414 H1428 0.960 . S
C1415 C1412 1.511 . S
C1415 H1429 0.961 . S
C1415 H1430 0.961 . S
C1415 H1431 0.961 . S
C1416 C1417 1.370 . S
C1416 C1418 1.363 . S
C1416 H1432 0.931 . S
C1417 C1416 1.370 . S
C1417 C1421 1.408 . S
C1418 C1416 1.363 . S
C1418 C1419 1.370 . S
C1418 C1422 1.524 . S
C1419 C1411 1.503 . S
C1419 C1418 1.370 . S
C1419 C1420 1.403 . S
C1420 C1419 1.403 . S
C1420 C1421 1.404 . S
C1420 C1423 1.539 . S
C1421 C1417 1.408 . S
C1421 C1420 1.404 . S
C1421 H1433 0.930 . S
C1422 C1418 1.524 . S
C1422 H1434 0.956 . S
C1422 H1435 0.961 . S
C1422 H1436 0.961 . S
C1423 C1420 1.539 . S
C1423 H1437 0.958 . S
C1423 H1438 0.961 . S
C1423 H1439 0.960 . S
H1424 C1408 0.931 . S
H1425 C1413 0.929 . S
H1426 C1414 0.960 . S
H1427 C1414 0.962 . S
H1428 C1414 0.960 . S
H1429 C1415 0.961 . S
H1430 C1415 0.961 . S
H1431 C1415 0.961 . S
H1432 C1416 0.931 . S
H1433 C1421 0.930 . S
H1434 C1422 0.956 . S
H1435 C1422 0.961 . S
H1436 C1422 0.961 . S
H1437 C1423 0.958 . S
H1438 C1423 0.961 . S
H1439 C1423 0.960 . S
C1440 C1441 1.391 . S
C1440 C1442 1.394 1_554 S
C1440 H1456 0.931 . S
C1441 C1440 1.391 . S
C1441 C1445 1.376 . S
C1442 C1440 1.394 1_556 S
C1442 C1443 1.369 1_556 S
C1442 C1446 1.531 . S
C1443 C1442 1.369 1_554 S
C1443 C1444 1.410 . S
C1443 C1451 1.503 1_554 S
C1444 C1443 1.410 . S
C1444 C1445 1.392 . S
C1444 C1447 1.511 . S
C1445 C1441 1.376 . S
C1445 C1444 1.392 . S
C1445 H1457 0.929 . S
C1446 C1442 1.531 . S
C1446 H1458 0.960 . S
C1446 H1459 0.962 . S
C1446 H1460 0.960 . S
C1447 C1444 1.511 . S
C1447 H1461 0.961 . S
C1447 H1462 0.961 . S
C1447 H1463 0.961 . S
C1448 C1449 1.370 . S
C1448 C1450 1.381 . S
C1448 H1464 0.931 . S
C1449 C1448 1.370 . S
C1449 C1453 1.408 . S
C1450 C1448 1.381 . S
C1450 C1451 1.384 . S
C1450 C1454 1.494 1_556 S
C1451 C1443 1.503 1_556 S
C1451 C1450 1.384 . S
C1451 C1452 1.403 . S
C1452 C1451 1.403 . S
C1452 C1453 1.404 . S
C1452 C1455 1.539 . S
C1453 C1449 1.408 . S
C1453 C1452 1.404 . S
C1453 H1465 0.930 . S
C1454 C1450 1.494 1_554 S
C1454 H1466 0.956 . S
C1454 H1467 0.961 . S
C1454 H1468 0.961 . S
C1455 C1452 1.539 . S
C1455 H1469 0.958 . S
C1455 H1470 0.961 . S
C1455 H1471 0.960 . S
H1456 C1440 0.931 . S
H1457 C1445 0.929 . S
H1458 C1446 0.960 . S
H1459 C1446 0.962 . S
H1460 C1446 0.960 . S
H1461 C1447 0.961 . S
H1462 C1447 0.961 . S
H1463 C1447 0.961 . S
H1464 C1448 0.931 . S
H1465 C1453 0.930 . S
H1466 C1454 0.956 . S
H1467 C1454 0.961 . S
H1468 C1454 0.961 . S
H1469 C1455 0.958 . S
H1470 C1455 0.961 . S
H1471 C1455 0.960 . S
C1472 C1473 1.391 . S
C1472 C1474 1.394 . S
C1472 H1488 0.931 . S
C1473 C1472 1.391 . S
C1473 C1477 1.376 . S
C1474 C1472 1.394 . S
C1474 C1475 1.369 . S
C1474 C1478 1.531 . S
C1475 C1474 1.369 . S
C1475 C1476 1.410 . S
C1475 C1483 1.503 . S
C1476 C1475 1.410 . S
C1476 C1477 1.392 . S
C1476 C1479 1.511 . S
C1477 C1473 1.376 . S
C1477 C1476 1.392 . S
C1477 H1489 0.929 . S
C1478 C1474 1.531 . S
C1478 H1490 0.960 . S
C1478 H1491 0.962 . S
C1478 H1492 0.960 . S
C1479 C1476 1.511 . S
C1479 H1493 0.961 . S
C1479 H1494 0.961 . S
C1479 H1495 0.961 . S
C1480 C1481 1.370 . S
C1480 C1482 1.363 . S
C1480 H1496 0.931 . S
C1481 C1480 1.370 . S
C1481 C1485 1.408 . S
C1482 C1480 1.363 . S
C1482 C1483 1.370 . S
C1482 C1486 1.524 . S
C1483 C1475 1.503 . S
C1483 C1482 1.370 . S
C1483 C1484 1.403 . S
C1484 C1483 1.403 . S
C1484 C1485 1.404 . S
C1484 C1487 1.539 . S
C1485 C1481 1.408 . S
C1485 C1484 1.404 . S
C1485 H1497 0.930 . S
C1486 C1482 1.524 . S
C1486 H1498 0.956 . S
C1486 H1499 0.961 . S
C1486 H1500 0.961 . S
C1487 C1484 1.539 . S
C1487 H1501 0.958 . S
C1487 H1502 0.961 . S
C1487 H1503 0.960 . S
H1488 C1472 0.931 . S
H1489 C1477 0.929 . S
H1490 C1478 0.960 . S
H1491 C1478 0.962 . S
H1492 C1478 0.960 . S
H1493 C1479 0.961 . S
H1494 C1479 0.961 . S
H1495 C1479 0.961 . S
H1496 C1480 0.931 . S
H1497 C1485 0.930 . S
H1498 C1486 0.956 . S
H1499 C1486 0.961 . S
H1500 C1486 0.961 . S
H1501 C1487 0.958 . S
H1502 C1487 0.961 . S
H1503 C1487 0.960 . S
C1504 C1505 1.391 . S
C1504 C1506 1.394 . S
C1504 H1520 0.931 . S
C1505 C1504 1.391 . S
C1505 C1509 1.376 . S
C1506 C1504 1.394 . S
C1506 C1507 1.369 . S
C1506 C1510 1.531 . S
C1507 C1506 1.369 . S
C1507 C1508 1.410 . S
C1507 C1515 1.503 . S
C1508 C1507 1.410 . S
C1508 C1509 1.392 . S
C1508 C1511 1.511 . S
C1509 C1505 1.376 . S
C1509 C1508 1.392 . S
C1509 H1521 0.929 . S
C1510 C1506 1.531 . S
C1510 H1522 0.960 . S
C1510 H1523 0.962 . S
C1510 H1524 0.960 . S
C1511 C1508 1.511 . S
C1511 H1525 0.961 . S
C1511 H1526 0.961 . S
C1511 H1527 0.961 . S
C1512 C1513 1.370 . S
C1512 C1514 1.363 . S
C1512 H1528 0.931 1_565 S
C1513 C1512 1.370 . S
C1513 C1517 1.408 . S
C1514 C1512 1.363 . S
C1514 C1515 1.370 . S
C1514 C1518 1.524 . S
C1515 C1507 1.503 . S
C1515 C1514 1.370 . S
C1515 C1516 1.403 . S
C1516 C1515 1.403 . S
C1516 C1517 1.404 . S
C1516 C1519 1.539 . S
C1517 C1513 1.408 . S
C1517 C1516 1.404 . S
C1517 H1529 0.930 . S
C1518 C1514 1.524 . S
C1518 H1530 0.956 . S
C1518 H1531 0.961 . S
C1518 H1532 0.961 . S
C1519 C1516 1.539 . S
C1519 H1533 0.958 . S
C1519 H1534 0.961 . S
C1519 H1535 0.960 . S
H1520 C1504 0.931 . S
H1521 C1509 0.929 . S
H1522 C1510 0.960 . S
H1523 C1510 0.962 . S
H1524 C1510 0.960 . S
H1525 C1511 0.961 . S
H1526 C1511 0.961 . S
H1527 C1511 0.961 . S
H1528 C1512 0.931 1_545 S
H1529 C1517 0.930 . S
H1530 C1518 0.956 . S
H1531 C1518 0.961 . S
H1532 C1518 0.961 . S
H1533 C1519 0.958 . S
H1534 C1519 0.961 . S
H1535 C1519 0.960 . S
C1536 C1537 1.391 . S
C1536 C1538 1.394 . S
C1536 H1552 0.931 . S
C1537 C1536 1.391 . S
C1537 C1541 1.376 . S
C1538 C1536 1.394 . S
C1538 C1539 1.369 . S
C1538 C1542 1.531 . S
C1539 C1538 1.369 . S
C1539 C1540 1.410 . S
C1539 C1547 1.503 . S
C1540 C1539 1.410 . S
C1540 C1541 1.392 . S
C1540 C1543 1.511 . S
C1541 C1537 1.376 . S
C1541 C1540 1.392 . S
C1541 H1553 0.921 1_565 S
C1542 C1538 1.531 . S
C1542 H1554 0.960 . S
C1542 H1555 0.962 . S
C1542 H1556 0.960 . S
C1543 C1540 1.511 . S
C1543 H1557 0.961 . S
C1543 H1558 0.961 . S
C1543 H1559 0.961 . S
C1544 C1545 1.370 . S
C1544 C1546 1.363 . S
C1544 H1560 0.931 . S
C1545 C1544 1.370 . S
C1545 C1549 1.408 . S
C1546 C1544 1.363 . S
C1546 C1547 1.370 . S
C1546 C1550 1.524 . S
C1547 C1539 1.503 . S
C1547 C1546 1.370 . S
C1547 C1548 1.403 . S
C1548 C1547 1.403 . S
C1548 C1549 1.404 . S
C1548 C1551 1.539 . S
C1549 C1545 1.408 . S
C1549 C1548 1.404 . S
C1549 H1561 0.930 . S
C1550 C1546 1.524 . S
C1550 H1562 0.956 . S
C1550 H1563 0.961 . S
C1550 H1564 0.961 . S
C1551 C1548 1.539 . S
C1551 H1565 0.958 . S
C1551 H1566 0.961 . S
C1551 H1567 0.960 . S
H1552 C1536 0.931 . S
H1553 C1541 0.921 1_545 S
H1554 C1542 0.960 . S
H1555 C1542 0.962 . S
H1556 C1542 0.960 . S
H1557 C1543 0.961 . S
H1558 C1543 0.961 . S
H1559 C1543 0.961 . S
H1560 C1544 0.931 . S
H1561 C1549 0.930 . S
H1562 C1550 0.956 . S
H1563 C1550 0.961 . S
H1564 C1550 0.961 . S
H1565 C1551 0.958 . S
H1566 C1551 0.961 . S
H1567 C1551 0.960 . S
C1568 C1569 1.391 . S
C1568 C1570 1.394 . S
C1568 H1584 0.931 . S
C1569 C1568 1.391 . S
C1569 C1573 1.376 . S
C1570 C1568 1.394 . S
C1570 C1571 1.369 . S
C1570 C1574 1.531 . S
C1571 C1570 1.369 . S
C1571 C1572 1.410 . S
C1571 C1579 1.503 . S
C1572 C1571 1.410 . S
C1572 C1573 1.392 . S
C1572 C1575 1.511 . S
C1573 C1569 1.376 . S
C1573 C1572 1.392 . S
C1573 H1585 0.929 . S
C1574 C1570 1.531 . S
C1574 H1586 0.960 . S
C1574 H1587 0.962 . S
C1574 H1588 0.960 . S
C1575 C1572 1.511 . S
C1575 H1589 0.961 . S
C1575 H1590 0.961 . S
C1575 H1591 0.961 . S
C1576 C1577 1.370 . S
C1576 C1578 1.363 . S
C1576 H1592 0.931 . S
C1577 C1576 1.370 . S
C1577 C1581 1.408 . S
C1578 C1576 1.363 . S
C1578 C1579 1.370 . S
C1578 C1582 1.524 . S
C1579 C1571 1.503 . S
C1579 C1578 1.370 . S
C1579 C1580 1.403 . S
C1580 C1579 1.403 . S
C1580 C1581 1.404 . S
C1580 C1583 1.539 . S
C1581 C1577 1.408 . S
C1581 C1580 1.404 . S
C1581 H1593 0.930 . S
C1582 C1578 1.524 . S
C1582 H1594 0.956 . S
C1582 H1595 0.961 . S
C1582 H1596 0.961 . S
C1583 C1580 1.539 . S
C1583 H1597 0.958 . S
C1583 H1598 0.961 . S
C1583 H1599 0.960 . S
H1584 C1568 0.931 . S
H1585 C1573 0.929 . S
H1586 C1574 0.960 . S
H1587 C1574 0.962 . S
H1588 C1574 0.960 . S
H1589 C1575 0.961 . S
H1590 C1575 0.961 . S
H1591 C1575 0.961 . S
H1592 C1576 0.931 . S
H1593 C1581 0.930 . S
H1594 C1582 0.956 . S
H1595 C1582 0.961 . S
H1596 C1582 0.961 . S
H1597 C1583 0.958 . S
H1598 C1583 0.961 . S
H1599 C1583 0.960 . S
C1600 C1601 1.391 . S
C1600 C1602 1.394 . S
C1600 H1616 0.931 . S
C1601 C1600 1.391 . S
C1601 C1605 1.376 . S
C1602 C1600 1.394 . S
C1602 C1603 1.369 . S
C1602 C1606 1.531 . S
C1603 C1602 1.369 . S
C1603 C1604 1.410 . S
C1603 C1611 1.503 . S
C1604 C1603 1.410 . S
C1604 C1605 1.392 . S
C1604 C1607 1.511 . S
C1605 C1601 1.376 . S
C1605 C1604 1.392 . S
C1605 H1617 0.929 . S
C1606 C1602 1.531 . S
C1606 H1618 0.960 . S
C1606 H1619 0.962 . S
C1606 H1620 0.960 . S
C1607 C1604 1.511 . S
C1607 H1621 0.961 . S
C1607 H1622 0.961 . S
C1607 H1623 0.961 . S
C1608 C1609 1.370 . S
C1608 C1610 1.363 . S
C1608 H1624 0.931 . S
C1609 C1608 1.370 . S
C1609 C1613 1.408 . S
C1610 C1608 1.363 . S
C1610 C1611 1.370 . S
C1610 C1614 1.524 . S
C1611 C1603 1.503 . S
C1611 C1610 1.370 . S
C1611 C1612 1.403 . S
C1612 C1611 1.403 . S
C1612 C1613 1.404 . S
C1612 C1615 1.539 . S
C1613 C1609 1.408 . S
C1613 C1612 1.404 . S
C1613 H1625 0.930 . S
C1614 C1610 1.524 . S
C1614 H1626 0.956 . S
C1614 H1627 0.961 . S
C1614 H1628 0.961 . S
C1615 C1612 1.539 . S
C1615 H1629 0.958 . S
C1615 H1630 0.961 . S
C1615 H1631 0.960 . S
H1616 C1600 0.931 . S
H1617 C1605 0.929 . S
H1618 C1606 0.960 . S
H1619 C1606 0.962 . S
H1620 C1606 0.960 . S
H1621 C1607 0.961 . S
H1622 C1607 0.961 . S
H1623 C1607 0.961 . S
H1624 C1608 0.931 . S
H1625 C1613 0.930 . S
H1626 C1614 0.956 . S
H1627 C1614 0.961 . S
H1628 C1614 0.961 . S
H1629 C1615 0.958 . S
H1630 C1615 0.961 . S
H1631 C1615 0.960 . S
C1632 C1633 1.391 . S
C1632 C1634 1.394 . S
C1632 H1648 0.931 . S
C1633 C1632 1.391 . S
C1633 C1637 1.376 . S
C1634 C1632 1.394 . S
C1634 C1635 1.369 . S
C1634 C1638 1.531 . S
C1635 C1634 1.369 . S
C1635 C1636 1.410 . S
C1635 C1643 1.503 . S
C1636 C1635 1.410 . S
C1636 C1637 1.392 . S
C1636 C1639 1.511 . S
C1637 C1633 1.376 . S
C1637 C1636 1.392 . S
C1637 H1649 0.929 1_545 S
C1638 C1634 1.531 . S
C1638 H1650 0.960 . S
C1638 H1651 0.962 . S
C1638 H1652 0.960 . S
C1639 C1636 1.511 . S
C1639 H1653 0.961 . S
C1639 H1654 0.961 . S
C1639 H1655 0.961 . S
C1640 C1641 1.370 . S
C1640 C1642 1.363 . S
C1640 H1656 0.931 . S
C1641 C1640 1.370 . S
C1641 C1645 1.408 . S
C1642 C1640 1.363 . S
C1642 C1643 1.370 . S
C1642 C1646 1.524 . S
C1643 C1635 1.503 . S
C1643 C1642 1.370 . S
C1643 C1644 1.403 . S
C1644 C1643 1.403 . S
C1644 C1645 1.404 . S
C1644 C1647 1.539 . S
C1645 C1641 1.408 . S
C1645 C1644 1.404 . S
C1645 H1657 0.930 . S
C1646 C1642 1.524 . S
C1646 H1658 0.956 . S
C1646 H1659 0.961 . S
C1646 H1660 0.961 . S
C1647 C1644 1.539 . S
C1647 H1661 0.958 . S
C1647 H1662 0.961 . S
C1647 H1663 0.960 . S
H1648 C1632 0.931 . S
H1649 C1637 0.929 1_565 S
H1650 C1638 0.960 . S
H1651 C1638 0.962 . S
H1652 C1638 0.960 . S
H1653 C1639 0.961 . S
H1654 C1639 0.961 . S
H1655 C1639 0.961 . S
H1656 C1640 0.931 . S
H1657 C1645 0.930 . S
H1658 C1646 0.956 . S
H1659 C1646 0.961 . S
H1660 C1646 0.961 . S
H1661 C1647 0.958 . S
H1662 C1647 0.961 . S
H1663 C1647 0.960 . S
C1664 C1665 1.391 . S
C1664 C1666 1.394 . S
C1664 H1680 0.931 . S
C1665 C1664 1.391 . S
C1665 C1669 1.376 . S
C1666 C1664 1.394 . S
C1666 C1667 1.369 . S
C1666 C1670 1.531 . S
C1667 C1666 1.369 . S
C1667 C1668 1.410 . S
C1667 C1675 1.503 . S
C1668 C1667 1.410 . S
C1668 C1669 1.392 . S
C1668 C1671 1.511 . S
C1669 C1665 1.376 . S
C1669 C1668 1.392 . S
C1669 H1681 0.929 . S
C1670 C1666 1.531 . S
C1670 H1682 0.960 . S
C1670 H1683 0.962 . S
C1670 H1684 0.960 . S
C1671 C1668 1.511 . S
C1671 H1685 0.961 . S
C1671 H1686 0.961 . S
C1671 H1687 0.961 . S
C1672 C1673 1.370 . S
C1672 C1674 1.363 . S
C1672 H1688 0.931 1_545 S
C1673 C1672 1.370 . S
C1673 C1677 1.408 . S
C1674 C1672 1.363 . S
C1674 C1675 1.370 . S
C1674 C1678 1.524 . S
C1675 C1667 1.503 . S
C1675 C1674 1.370 . S
C1675 C1676 1.403 . S
C1676 C1675 1.403 . S
C1676 C1677 1.404 . S
C1676 C1679 1.539 . S
C1677 C1673 1.408 . S
C1677 C1676 1.404 . S
C1677 H1689 0.930 . S
C1678 C1674 1.524 . S
C1678 H1690 0.956 . S
C1678 H1691 0.961 . S
C1678 H1692 0.961 . S
C1679 C1676 1.539 . S
C1679 H1693 0.958 . S
C1679 H1694 0.961 . S
C1679 H1695 0.960 . S
H1680 C1664 0.931 . S
H1681 C1669 0.929 . S
H1682 C1670 0.960 . S
H1683 C1670 0.962 . S
H1684 C1670 0.960 . S
H1685 C1671 0.961 . S
H1686 C1671 0.961 . S
H1687 C1671 0.961 . S
H1688 C1672 0.931 1_565 S
H1689 C1677 0.930 . S
H1690 C1678 0.956 . S
H1691 C1678 0.961 . S
H1692 C1678 0.961 . S
H1693 C1679 0.958 . S
H1694 C1679 0.961 . S
H1695 C1679 0.960 . S
C1696 C1697 1.391 . S
C1696 C1698 1.394 . S
C1696 H1712 0.931 . S
C1697 C1696 1.391 . S
C1697 C1701 1.376 . S
C1698 C1696 1.394 . S
C1698 C1699 1.369 . S
C1698 C1702 1.531 . S
C1699 C1698 1.369 . S
C1699 C1700 1.410 . S
C1699 C1707 1.503 . S
C1700 C1699 1.410 . S
C1700 C1701 1.392 . S
C1700 C1703 1.511 . S
C1701 C1697 1.376 . S
C1701 C1700 1.392 . S
C1701 H1713 0.929 . S
C1702 C1698 1.531 . S
C1702 H1714 0.960 . S
C1702 H1715 0.962 . S
C1702 H1716 0.960 . S
C1703 C1700 1.511 . S
C1703 H1717 0.961 . S
C1703 H1718 0.961 . S
C1703 H1719 0.961 . S
C1704 C1705 1.370 . S
C1704 C1706 1.363 . S
C1704 H1720 0.931 . S
C1705 C1704 1.370 . S
C1705 C1709 1.408 . S
C1706 C1704 1.363 . S
C1706 C1707 1.370 . S
C1706 C1710 1.524 . S
C1707 C1699 1.503 . S
C1707 C1706 1.370 . S
C1707 C1708 1.403 . S
C1708 C1707 1.403 . S
C1708 C1709 1.404 . S
C1708 C1711 1.539 . S
C1709 C1705 1.408 . S
C1709 C1708 1.404 . S
C1709 H1721 0.930 . S
C1710 C1706 1.524 . S
C1710 H1722 0.956 . S
C1710 H1723 0.961 . S
C1710 H1724 0.961 . S
C1711 C1708 1.539 . S
C1711 H1725 0.958 . S
C1711 H1726 0.961 . S
C1711 H1727 0.960 . S
H1712 C1696 0.931 . S
H1713 C1701 0.929 . S
H1714 C1702 0.960 . S
H1715 C1702 0.962 . S
H1716 C1702 0.960 . S
H1717 C1703 0.961 . S
H1718 C1703 0.961 . S
H1719 C1703 0.961 . S
H1720 C1704 0.931 . S
H1721 C1709 0.930 . S
H1722 C1710 0.956 . S
H1723 C1710 0.961 . S
H1724 C1710 0.961 . S
H1725 C1711 0.958 . S
H1726 C1711 0.961 . S
H1727 C1711 0.960 . S
C1728 C1729 1.391 . S
C1728 C1730 1.394 . S
C1728 H1744 0.931 . S
C1729 C1728 1.391 . S
C1729 C1733 1.376 . S
C1730 C1728 1.394 . S
C1730 C1731 1.369 . S
C1730 C1734 1.531 . S
C1731 C1730 1.369 . S
C1731 C1732 1.410 . S
C1731 C1739 1.503 . S
C1732 C1731 1.410 . S
C1732 C1733 1.392 . S
C1732 C1735 1.511 . S
C1733 C1729 1.376 . S
C1733 C1732 1.392 . S
C1733 H1745 0.929 . S
C1734 C1730 1.531 . S
C1734 H1746 0.960 . S
C1734 H1747 0.962 . S
C1734 H1748 0.960 . S
C1735 C1732 1.511 . S
C1735 H1749 0.961 . S
C1735 H1750 0.961 . S
C1735 H1751 0.961 . S
C1736 C1737 1.370 . S
C1736 C1738 1.363 . S
C1736 H1752 0.931 . S
C1737 C1736 1.370 . S
C1737 C1741 1.408 . S
C1738 C1736 1.363 . S
C1738 C1739 1.370 . S
C1738 C1742 1.524 . S
C1739 C1731 1.503 . S
C1739 C1738 1.370 . S
C1739 C1740 1.403 . S
C1740 C1739 1.403 . S
C1740 C1741 1.404 . S
C1740 C1743 1.539 . S
C1741 C1737 1.408 . S
C1741 C1740 1.404 . S
C1741 H1753 0.930 . S
C1742 C1738 1.524 . S
C1742 H1754 0.956 . S
C1742 H1755 0.961 . S
C1742 H1756 0.961 . S
C1743 C1740 1.539 . S
C1743 H1757 0.958 . S
C1743 H1758 0.961 . S
C1743 H1759 0.960 . S
H1744 C1728 0.931 . S
H1745 C1733 0.929 . S
H1746 C1734 0.960 . S
H1747 C1734 0.962 . S
H1748 C1734 0.960 . S
H1749 C1735 0.961 . S
H1750 C1735 0.961 . S
H1751 C1735 0.961 . S
H1752 C1736 0.931 . S
H1753 C1741 0.930 . S
H1754 C1742 0.956 . S
H1755 C1742 0.961 . S
H1756 C1742 0.961 . S
H1757 C1743 0.958 . S
H1758 C1743 0.961 . S
H1759 C1743 0.960 . S
C1760 C1761 1.391 . S
C1760 C1762 1.394 . S
C1760 H1776 0.931 . S
C1761 C1760 1.391 . S
C1761 C1765 1.376 . S
C1762 C1760 1.394 . S
C1762 C1763 1.369 . S
C1762 C1766 1.531 . S
C1763 C1762 1.369 . S
C1763 C1764 1.410 . S
C1763 C1771 1.503 . S
C1764 C1763 1.410 . S
C1764 C1765 1.392 . S
C1764 C1767 1.511 . S
C1765 C1761 1.376 . S
C1765 C1764 1.392 . S
C1765 H1777 0.929 . S
C1766 C1762 1.531 . S
C1766 H1778 0.960 . S
C1766 H1779 0.962 . S
C1766 H1780 0.960 . S
C1767 C1764 1.511 . S
C1767 H1781 0.961 . S
C1767 H1782 0.961 . S
C1767 H1783 0.961 . S
C1768 C1769 1.370 . S
C1768 C1770 1.363 . S
C1768 H1784 0.931 . S
C1769 C1768 1.370 . S
C1769 C1773 1.408 . S
C1770 C1768 1.363 . S
C1770 C1771 1.370 . S
C1770 C1774 1.524 . S
C1771 C1763 1.503 . S
C1771 C1770 1.370 . S
C1771 C1772 1.403 . S
C1772 C1771 1.403 . S
C1772 C1773 1.404 . S
C1772 C1775 1.539 . S
C1773 C1769 1.408 . S
C1773 C1772 1.404 . S
C1773 H1785 0.930 1_565 S
C1774 C1770 1.524 . S
C1774 H1786 0.956 . S
C1774 H1787 0.961 . S
C1774 H1788 0.961 . S
C1775 C1772 1.539 . S
C1775 H1789 0.958 . S
C1775 H1790 0.961 . S
C1775 H1791 0.960 . S
H1776 C1760 0.931 . S
H1777 C1765 0.929 . S
H1778 C1766 0.960 . S
H1779 C1766 0.962 . S
H1780 C1766 0.960 . S
H1781 C1767 0.961 . S
H1782 C1767 0.961 . S
H1783 C1767 0.961 . S
H1784 C1768 0.931 . S
H1785 C1773 0.930 1_545 S
H1786 C1774 0.956 . S
H1787 C1774 0.961 . S
H1788 C1774 0.961 . S
H1789 C1775 0.958 . S
H1790 C1775 0.961 . S
H1791 C1775 0.960 . S
C1792 C1793 1.391 . S
C1792 C1794 1.394 . S
C1792 H1808 0.931 . S
C1793 C1792 1.391 . S
C1793 C1797 1.376 . S
C1794 C1792 1.394 . S
C1794 C1795 1.369 . S
C1794 C1798 1.531 . S
C1795 C1794 1.369 . S
C1795 C1796 1.410 . S
C1795 C1803 1.503 . S
C1796 C1795 1.410 . S
C1796 C1797 1.392 . S
C1796 C1799 1.511 . S
C1797 C1793 1.376 . S
C1797 C1796 1.392 . S
C1797 H1809 0.929 . S
C1798 C1794 1.531 . S
C1798 H1810 0.960 . S
C1798 H1811 0.962 . S
C1798 H1812 0.960 . S
C1799 C1796 1.511 . S
C1799 H1813 0.961 . S
C1799 H1814 0.961 . S
C1799 H1815 0.961 . S
C1800 C1801 1.370 . S
C1800 C1802 1.363 . S
C1800 H1816 0.931 . S
C1801 C1800 1.370 . S
C1801 C1805 1.408 . S
C1802 C1800 1.363 . S
C1802 C1803 1.370 . S
C1802 C1806 1.524 . S
C1803 C1795 1.503 . S
C1803 C1802 1.370 . S
C1803 C1804 1.403 . S
C1804 C1803 1.403 . S
C1804 C1805 1.404 . S
C1804 C1807 1.539 . S
C1805 C1801 1.408 . S
C1805 C1804 1.404 . S
C1805 H1817 0.930 1_565 S
C1806 C1802 1.524 . S
C1806 H1818 0.956 . S
C1806 H1819 0.961 . S
C1806 H1820 0.961 . S
C1807 C1804 1.539 . S
C1807 H1821 0.958 . S
C1807 H1822 0.961 . S
C1807 H1823 0.960 . S
H1808 C1792 0.931 . S
H1809 C1797 0.929 . S
H1810 C1798 0.960 . S
H1811 C1798 0.962 . S
H1812 C1798 0.960 . S
H1813 C1799 0.961 . S
H1814 C1799 0.961 . S
H1815 C1799 0.961 . S
H1816 C1800 0.931 . S
H1817 C1805 0.930 1_545 S
H1818 C1806 0.956 . S
H1819 C1806 0.961 . S
H1820 C1806 0.961 . S
H1821 C1807 0.958 . S
H1822 C1807 0.961 . S
H1823 C1807 0.960 . S
C1824 C1825 1.391 . S
C1824 C1826 1.394 . S
C1824 H1840 0.931 . S
C1825 C1824 1.391 . S
C1825 C1829 1.376 . S
C1826 C1824 1.394 . S
C1826 C1827 1.369 . S
C1826 C1830 1.531 . S
C1827 C1826 1.369 . S
C1827 C1828 1.410 . S
C1827 C1835 1.503 . S
C1828 C1827 1.410 . S
C1828 C1829 1.392 . S
C1828 C1831 1.511 . S
C1829 C1825 1.376 . S
C1829 C1828 1.392 . S
C1829 H1841 0.929 . S
C1830 C1826 1.531 . S
C1830 H1842 0.960 . S
C1830 H1843 0.962 . S
C1830 H1844 0.960 . S
C1831 C1828 1.511 . S
C1831 H1845 0.961 . S
C1831 H1846 0.961 . S
C1831 H1847 0.961 . S
C1832 C1833 1.370 . S
C1832 C1834 1.363 . S
C1832 H1848 0.931 . S
C1833 C1832 1.370 . S
C1833 C1837 1.408 . S
C1834 C1832 1.363 . S
C1834 C1835 1.370 . S
C1834 C1838 1.524 . S
C1835 C1827 1.503 . S
C1835 C1834 1.370 . S
C1835 C1836 1.403 . S
C1836 C1835 1.403 . S
C1836 C1837 1.404 . S
C1836 C1839 1.539 . S
C1837 C1833 1.408 . S
C1837 C1836 1.404 . S
C1837 H1849 0.930 . S
C1838 C1834 1.524 . S
C1838 H1850 0.956 . S
C1838 H1851 0.961 . S
C1838 H1852 0.961 . S
C1839 C1836 1.539 . S
C1839 H1853 0.958 . S
C1839 H1854 0.961 . S
C1839 H1855 0.960 . S
H1840 C1824 0.931 . S
H1841 C1829 0.929 . S
H1842 C1830 0.960 . S
H1843 C1830 0.962 . S
H1844 C1830 0.960 . S
H1845 C1831 0.961 . S
H1846 C1831 0.961 . S
H1847 C1831 0.961 . S
H1848 C1832 0.931 . S
H1849 C1837 0.930 . S
H1850 C1838 0.956 . S
H1851 C1838 0.961 . S
H1852 C1838 0.961 . S
H1853 C1839 0.958 . S
H1854 C1839 0.961 . S
H1855 C1839 0.960 . S
C1856 C1857 1.391 . S
C1856 C1858 1.394 . S
C1856 H1872 0.931 . S
C1857 C1856 1.391 . S
C1857 C1861 1.376 . S
C1858 C1856 1.394 . S
C1858 C1859 1.369 . S
C1858 C1862 1.531 . S
C1859 C1858 1.369 . S
C1859 C1860 1.410 . S
C1859 C1867 1.503 . S
C1860 C1859 1.410 . S
C1860 C1861 1.392 . S
C1860 C1863 1.511 . S
C1861 C1857 1.376 . S
C1861 C1860 1.392 . S
C1861 H1873 0.929 . S
C1862 C1858 1.531 . S
C1862 H1874 0.960 . S
C1862 H1875 0.962 . S
C1862 H1876 0.960 . S
C1863 C1860 1.511 . S
C1863 H1877 0.961 . S
C1863 H1878 0.961 . S
C1863 H1879 0.961 . S
C1864 C1865 1.370 . S
C1864 C1866 1.363 . S
C1864 H1880 0.931 . S
C1865 C1864 1.370 . S
C1865 C1869 1.408 . S
C1866 C1864 1.363 . S
C1866 C1867 1.370 . S
C1866 C1870 1.524 . S
C1867 C1859 1.503 . S
C1867 C1866 1.370 . S
C1867 C1868 1.403 . S
C1868 C1867 1.403 . S
C1868 C1869 1.404 . S
C1868 C1871 1.539 . S
C1869 C1865 1.408 . S
C1869 C1868 1.404 . S
C1869 H1881 0.930 . S
C1870 C1866 1.524 . S
C1870 H1882 0.956 . S
C1870 H1883 0.961 . S
C1870 H1884 0.961 . S
C1871 C1868 1.539 . S
C1871 H1885 0.958 . S
C1871 H1886 0.961 . S
C1871 H1887 0.960 . S
H1872 C1856 0.931 . S
H1873 C1861 0.929 . S
H1874 C1862 0.960 . S
H1875 C1862 0.962 . S
H1876 C1862 0.960 . S
H1877 C1863 0.961 . S
H1878 C1863 0.961 . S
H1879 C1863 0.961 . S
H1880 C1864 0.931 . S
H1881 C1869 0.930 . S
H1882 C1870 0.956 . S
H1883 C1870 0.961 . S
H1884 C1870 0.961 . S
H1885 C1871 0.958 . S
H1886 C1871 0.961 . S
H1887 C1871 0.960 . S
C1888 C1889 1.391 . S
C1888 C1890 1.394 . S
C1888 H1904 0.931 . S
C1889 C1888 1.391 . S
C1889 C1893 1.376 . S
C1890 C1888 1.394 . S
C1890 C1891 1.369 . S
C1890 C1894 1.531 . S
C1891 C1890 1.369 . S
C1891 C1892 1.410 . S
C1891 C1899 1.503 . S
C1892 C1891 1.410 . S
C1892 C1893 1.392 . S
C1892 C1895 1.511 . S
C1893 C1889 1.376 . S
C1893 C1892 1.392 . S
C1893 H1905 0.929 . S
C1894 C1890 1.531 . S
C1894 H1906 0.960 . S
C1894 H1907 0.962 . S
C1894 H1908 0.960 . S
C1895 C1892 1.511 . S
C1895 H1909 0.961 . S
C1895 H1910 0.961 . S
C1895 H1911 0.961 . S
C1896 C1897 1.370 . S
C1896 C1898 1.363 . S
C1896 H1912 0.931 . S
C1897 C1896 1.370 . S
C1897 C1901 1.408 . S
C1898 C1896 1.363 . S
C1898 C1899 1.370 . S
C1898 C1902 1.524 . S
C1899 C1891 1.503 . S
C1899 C1898 1.370 . S
C1899 C1900 1.403 . S
C1900 C1899 1.403 . S
C1900 C1901 1.404 . S
C1900 C1903 1.539 . S
C1901 C1897 1.408 . S
C1901 C1900 1.404 . S
C1901 H1913 0.930 . S
C1902 C1898 1.524 . S
C1902 H1914 0.956 . S
C1902 H1915 0.961 . S
C1902 H1916 0.961 . S
C1903 C1900 1.539 . S
C1903 H1917 0.958 . S
C1903 H1918 0.961 . S
C1903 H1919 0.960 . S
H1904 C1888 0.931 . S
H1905 C1893 0.929 . S
H1906 C1894 0.960 . S
H1907 C1894 0.962 . S
H1908 C1894 0.960 . S
H1909 C1895 0.961 . S
H1910 C1895 0.961 . S
H1911 C1895 0.961 . S
H1912 C1896 0.931 . S
H1913 C1901 0.930 . S
H1914 C1902 0.956 . S
H1915 C1902 0.961 . S
H1916 C1902 0.961 . S
H1917 C1903 0.958 . S
H1918 C1903 0.961 . S
H1919 C1903 0.960 . S
C1920 C1921 1.391 . S
C1920 C1922 1.394 . S
C1920 H1936 0.931 . S
C1921 C1920 1.391 . S
C1921 C1925 1.376 . S
C1922 C1920 1.394 . S
C1922 C1923 1.369 . S
C1922 C1926 1.531 . S
C1923 C1922 1.369 . S
C1923 C1924 1.410 . S
C1923 C1931 1.503 . S
C1924 C1923 1.410 . S
C1924 C1925 1.392 . S
C1924 C1927 1.511 . S
C1925 C1921 1.376 . S
C1925 C1924 1.392 . S
C1925 H1937 0.929 . S
C1926 C1922 1.531 . S
C1926 H1938 0.960 . S
C1926 H1939 0.962 . S
C1926 H1940 0.960 . S
C1927 C1924 1.511 . S
C1927 H1941 0.961 . S
C1927 H1942 0.961 . S
C1927 H1943 0.961 . S
C1928 C1929 1.370 . S
C1928 C1930 1.363 . S
C1928 H1944 0.931 1_545 S
C1929 C1928 1.370 . S
C1929 C1933 1.408 . S
C1930 C1928 1.363 . S
C1930 C1931 1.370 . S
C1930 C1934 1.524 . S
C1931 C1923 1.503 . S
C1931 C1930 1.370 . S
C1931 C1932 1.403 . S
C1932 C1931 1.403 . S
C1932 C1933 1.404 . S
C1932 C1935 1.539 . S
C1933 C1929 1.408 . S
C1933 C1932 1.404 . S
C1933 H1945 0.930 . S
C1934 C1930 1.524 . S
C1934 H1946 0.956 . S
C1934 H1947 0.961 . S
C1934 H1948 0.961 . S
C1935 C1932 1.539 . S
C1935 H1949 0.958 . S
C1935 H1950 0.961 . S
C1935 H1951 0.960 . S
H1936 C1920 0.931 . S
H1937 C1925 0.929 . S
H1938 C1926 0.960 . S
H1939 C1926 0.962 . S
H1940 C1926 0.960 . S
H1941 C1927 0.961 . S
H1942 C1927 0.961 . S
H1943 C1927 0.961 . S
H1944 C1928 0.931 1_565 S
H1945 C1933 0.930 . S
H1946 C1934 0.956 . S
H1947 C1934 0.961 . S
H1948 C1934 0.961 . S
H1949 C1935 0.958 . S
H1950 C1935 0.961 . S
H1951 C1935 0.960 . S
C1952 C1953 1.391 . S
C1952 C1954 1.394 . S
C1952 H1968 0.931 . S
C1953 C1952 1.391 . S
C1953 C1957 1.376 . S
C1954 C1952 1.394 . S
C1954 C1955 1.369 . S
C1954 C1958 1.531 . S
C1955 C1954 1.369 . S
C1955 C1956 1.410 . S
C1955 C1963 1.503 . S
C1956 C1955 1.410 . S
C1956 C1957 1.392 . S
C1956 C1959 1.511 . S
C1957 C1953 1.376 . S
C1957 C1956 1.392 . S
C1957 H1969 0.929 . S
C1958 C1954 1.531 . S
C1958 H1970 0.960 . S
C1958 H1971 0.962 . S
C1958 H1972 0.960 . S
C1959 C1956 1.511 . S
C1959 H1973 0.961 . S
C1959 H1974 0.961 . S
C1959 H1975 0.961 . S
C1960 C1961 1.370 . S
C1960 C1962 1.363 . S
C1960 H1976 0.931 . S
C1961 C1960 1.370 . S
C1961 C1965 1.408 . S
C1962 C1960 1.363 . S
C1962 C1963 1.370 . S
C1962 C1966 1.524 . S
C1963 C1955 1.503 . S
C1963 C1962 1.370 . S
C1963 C1964 1.403 . S
C1964 C1963 1.403 . S
C1964 C1965 1.404 . S
C1964 C1967 1.539 . S
C1965 C1961 1.408 . S
C1965 C1964 1.404 . S
C1965 H1977 0.930 . S
C1966 C1962 1.524 . S
C1966 H1978 0.956 . S
C1966 H1979 0.961 . S
C1966 H1980 0.961 . S
C1967 C1964 1.539 . S
C1967 H1981 0.958 . S
C1967 H1982 0.961 . S
C1967 H1983 0.960 . S
H1968 C1952 0.931 . S
H1969 C1957 0.929 . S
H1970 C1958 0.960 . S
H1971 C1958 0.962 . S
H1972 C1958 0.960 . S
H1973 C1959 0.961 . S
H1974 C1959 0.961 . S
H1975 C1959 0.961 . S
H1976 C1960 0.931 . S
H1977 C1965 0.930 . S
H1978 C1966 0.956 . S
H1979 C1966 0.961 . S
H1980 C1966 0.961 . S
H1981 C1967 0.958 . S
H1982 C1967 0.961 . S
H1983 C1967 0.960 . S
C1984 C1985 1.391 . S
C1984 C1986 1.394 . S
C1984 H2000 0.931 . S
C1985 C1984 1.391 . S
C1985 C1989 1.376 . S
C1986 C1984 1.394 . S
C1986 C1987 1.369 . S
C1986 C1990 1.531 . S
C1987 C1986 1.369 . S
C1987 C1988 1.410 . S
C1987 C1995 1.503 . S
C1988 C1987 1.410 . S
C1988 C1989 1.392 . S
C1988 C1991 1.511 . S
C1989 C1985 1.376 . S
C1989 C1988 1.392 . S
C1989 H2001 0.929 . S
C1990 C1986 1.531 . S
C1990 H2002 0.960 . S
C1990 H2003 0.962 . S
C1990 H2004 0.960 . S
C1991 C1988 1.511 . S
C1991 H2005 0.961 . S
C1991 H2006 0.961 . S
C1991 H2007 0.961 . S
C1992 C1993 1.370 . S
C1992 C1994 1.363 . S
C1992 H2008 0.931 1_565 S
C1993 C1992 1.370 . S
C1993 C1997 1.408 . S
C1994 C1992 1.363 . S
C1994 C1995 1.370 . S
C1994 C1998 1.524 . S
C1995 C1987 1.503 . S
C1995 C1994 1.370 . S
C1995 C1996 1.403 . S
C1996 C1995 1.403 . S
C1996 C1997 1.404 . S
C1996 C1999 1.539 . S
C1997 C1993 1.408 . S
C1997 C1996 1.404 . S
C1997 H2009 0.930 . S
C1998 C1994 1.524 . S
C1998 H2010 0.956 . S
C1998 H2011 0.961 . S
C1998 H2012 0.961 . S
C1999 C1996 1.539 . S
C1999 H2013 0.958 . S
C1999 H2014 0.961 . S
C1999 H2015 0.960 . S
H2000 C1984 0.931 . S
H2001 C1989 0.929 . S
H2002 C1990 0.960 . S
H2003 C1990 0.962 . S
H2004 C1990 0.960 . S
H2005 C1991 0.961 . S
H2006 C1991 0.961 . S
H2007 C1991 0.961 . S
H2008 C1992 0.931 1_545 S
H2009 C1997 0.930 . S
H2010 C1998 0.956 . S
H2011 C1998 0.961 . S
H2012 C1998 0.961 . S
H2013 C1999 0.958 . S
H2014 C1999 0.961 . S
H2015 C1999 0.960 . S
C2016 C2017 1.391 . S
C2016 C2018 1.394 . S
C2016 H2032 0.931 . S
C2017 C2016 1.391 . S
C2017 C2021 1.376 . S
C2018 C2016 1.394 . S
C2018 C2019 1.369 . S
C2018 C2022 1.531 . S
C2019 C2018 1.369 . S
C2019 C2020 1.410 . S
C2019 C2027 1.503 . S
C2020 C2019 1.410 . S
C2020 C2021 1.392 . S
C2020 C2023 1.511 . S
C2021 C2017 1.376 . S
C2021 C2020 1.392 . S
C2021 H2033 0.929 . S
C2022 C2018 1.531 . S
C2022 H2034 0.960 . S
C2022 H2035 0.962 . S
C2022 H2036 0.960 . S
C2023 C2020 1.511 . S
C2023 H2037 0.961 . S
C2023 H2038 0.961 . S
C2023 H2039 0.961 . S
C2024 C2025 1.370 . S
C2024 C2026 1.363 . S
C2024 H2040 0.931 . S
C2025 C2024 1.370 . S
C2025 C2029 1.408 . S
C2026 C2024 1.363 . S
C2026 C2027 1.370 . S
C2026 C2030 1.524 . S
C2027 C2019 1.503 . S
C2027 C2026 1.370 . S
C2027 C2028 1.403 . S
C2028 C2027 1.403 . S
C2028 C2029 1.404 . S
C2028 C2031 1.539 . S
C2029 C2025 1.408 . S
C2029 C2028 1.404 . S
C2029 H2041 0.930 . S
C2030 C2026 1.524 . S
C2030 H2042 0.956 . S
C2030 H2043 0.961 . S
C2030 H2044 0.961 . S
C2031 C2028 1.539 . S
C2031 H2045 0.958 . S
C2031 H2046 0.961 . S
C2031 H2047 0.960 . S
H2032 C2016 0.931 . S
H2033 C2021 0.929 . S
H2034 C2022 0.960 . S
H2035 C2022 0.962 . S
H2036 C2022 0.960 . S
H2037 C2023 0.961 . S
H2038 C2023 0.961 . S
H2039 C2023 0.961 . S
H2040 C2024 0.931 . S
H2041 C2029 0.930 . S
H2042 C2030 0.956 . S
H2043 C2030 0.961 . S
H2044 C2030 0.961 . S
H2045 C2031 0.958 . S
H2046 C2031 0.961 . S
H2047 C2031 0.960 . S
C2048 C2049 1.391 . S
C2048 C2050 1.394 . S
C2048 H2064 0.931 . S
C2049 C2048 1.391 . S
C2049 C2053 1.376 . S
C2050 C2048 1.394 . S
C2050 C2051 1.369 . S
C2050 C2054 1.531 . S
C2051 C2050 1.369 . S
C2051 C2052 1.410 . S
C2051 C2059 1.503 . S
C2052 C2051 1.410 . S
C2052 C2053 1.392 . S
C2052 C2055 1.511 . S
C2053 C2049 1.376 . S
C2053 C2052 1.392 . S
C2053 H2065 0.929 . S
C2054 C2050 1.531 . S
C2054 H2066 0.960 . S
C2054 H2067 0.962 . S
C2054 H2068 0.960 . S
C2055 C2052 1.511 . S
C2055 H2069 0.961 . S
C2055 H2070 0.961 . S
C2055 H2071 0.961 . S
C2056 C2057 1.370 . S
C2056 C2058 1.363 . S
C2056 H2072 0.931 . S
C2057 C2056 1.370 . S
C2057 C2061 1.408 . S
C2058 C2056 1.363 . S
C2058 C2059 1.370 . S
C2058 C2062 1.524 . S
C2059 C2051 1.503 . S
C2059 C2058 1.370 . S
C2059 C2060 1.403 . S
C2060 C2059 1.403 . S
C2060 C2061 1.404 . S
C2060 C2063 1.539 . S
C2061 C2057 1.408 . S
C2061 C2060 1.404 . S
C2061 H2073 0.930 . S
C2062 C2058 1.524 . S
C2062 H2074 0.956 . S
C2062 H2075 0.961 . S
C2062 H2076 0.961 . S
C2063 C2060 1.539 . S
C2063 H2077 0.958 . S
C2063 H2078 0.961 . S
C2063 H2079 0.960 . S
H2064 C2048 0.931 . S
H2065 C2053 0.929 . S
H2066 C2054 0.960 . S
H2067 C2054 0.962 . S
H2068 C2054 0.960 . S
H2069 C2055 0.961 . S
H2070 C2055 0.961 . S
H2071 C2055 0.961 . S
H2072 C2056 0.931 . S
H2073 C2061 0.930 . S
H2074 C2062 0.956 . S
H2075 C2062 0.961 . S
H2076 C2062 0.961 . S
H2077 C2063 0.958 . S
H2078 C2063 0.961 . S
H2079 C2063 0.960 . S
C2080 C2081 1.391 . S
C2080 C2082 1.394 . S
C2080 H2096 0.931 . S
C2081 C2080 1.391 . S
C2081 C2085 1.376 . S
C2082 C2080 1.394 . S
C2082 C2083 1.369 . S
C2082 C2086 1.531 . S
C2083 C2082 1.369 . S
C2083 C2084 1.410 . S
C2083 C2091 1.503 . S
C2084 C2083 1.410 . S
C2084 C2085 1.392 . S
C2084 C2087 1.511 . S
C2085 C2081 1.376 . S
C2085 C2084 1.392 . S
C2085 H2097 0.929 1_565 S
C2086 C2082 1.531 . S
C2086 H2098 0.960 . S
C2086 H2099 0.962 . S
C2086 H2100 0.960 . S
C2087 C2084 1.511 . S
C2087 H2101 0.961 . S
C2087 H2102 0.961 . S
C2087 H2103 0.961 . S
C2088 C2089 1.370 . S
C2088 C2090 1.363 . S
C2088 H2104 0.931 . S
C2089 C2088 1.370 . S
C2089 C2093 1.408 . S
C2090 C2088 1.363 . S
C2090 C2091 1.370 . S
C2090 C2094 1.524 . S
C2091 C2083 1.503 . S
C2091 C2090 1.370 . S
C2091 C2092 1.403 . S
C2092 C2091 1.403 . S
C2092 C2093 1.404 . S
C2092 C2095 1.539 . S
C2093 C2089 1.408 . S
C2093 C2092 1.404 . S
C2093 H2105 0.930 . S
C2094 C2090 1.524 . S
C2094 H2106 0.956 . S
C2094 H2107 0.961 . S
C2094 H2108 0.961 . S
C2095 C2092 1.539 . S
C2095 H2109 0.958 . S
C2095 H2110 0.961 . S
C2095 H2111 0.960 . S
H2096 C2080 0.931 . S
H2097 C2085 0.929 1_545 S
H2098 C2086 0.960 . S
H2099 C2086 0.962 . S
H2100 C2086 0.960 . S
H2101 C2087 0.961 . S
H2102 C2087 0.961 . S
H2103 C2087 0.961 . S
H2104 C2088 0.931 . S
H2105 C2093 0.930 . S
H2106 C2094 0.956 . S
H2107 C2094 0.961 . S
H2108 C2094 0.961 . S
H2109 C2095 0.958 . S
H2110 C2095 0.961 . S
H2111 C2095 0.960 . S
C2112 C2113 1.391 . S
C2112 C2114 1.394 . S
C2112 H2128 0.931 . S
C2113 C2112 1.391 . S
C2113 C2117 1.376 . S
C2114 C2112 1.394 . S
C2114 C2115 1.369 . S
C2114 C2118 1.531 . S
C2115 C2114 1.369 . S
C2115 C2116 1.410 . S
C2115 C2123 1.503 . S
C2116 C2115 1.410 . S
C2116 C2117 1.392 . S
C2116 C2119 1.511 . S
C2117 C2113 1.376 . S
C2117 C2116 1.392 . S
C2117 H2129 0.929 . S
C2118 C2114 1.531 . S
C2118 H2130 0.960 . S
C2118 H2131 0.962 . S
C2118 H2132 0.960 . S
C2119 C2116 1.511 . S
C2119 H2133 0.961 . S
C2119 H2134 0.961 . S
C2119 H2135 0.961 . S
C2120 C2121 1.370 . S
C2120 C2122 1.363 . S
C2120 H2136 0.931 . S
C2121 C2120 1.370 . S
C2121 C2125 1.408 . S
C2122 C2120 1.363 . S
C2122 C2123 1.370 . S
C2122 C2126 1.524 . S
C2123 C2115 1.503 . S
C2123 C2122 1.370 . S
C2123 C2124 1.403 . S
C2124 C2123 1.403 . S
C2124 C2125 1.404 . S
C2124 C2127 1.539 . S
C2125 C2121 1.408 . S
C2125 C2124 1.404 . S
C2125 H2137 0.930 1_545 S
C2126 C2122 1.524 . S
C2126 H2138 0.956 . S
C2126 H2139 0.961 . S
C2126 H2140 0.961 . S
C2127 C2124 1.539 . S
C2127 H2141 0.958 . S
C2127 H2142 0.961 . S
C2127 H2143 0.960 . S
H2128 C2112 0.931 . S
H2129 C2117 0.929 . S
H2130 C2118 0.960 . S
H2131 C2118 0.962 . S
H2132 C2118 0.960 . S
H2133 C2119 0.961 . S
H2134 C2119 0.961 . S
H2135 C2119 0.961 . S
H2136 C2120 0.931 . S
H2137 C2125 0.930 1_565 S
H2138 C2126 0.956 . S
H2139 C2126 0.961 . S
H2140 C2126 0.961 . S
H2141 C2127 0.958 . S
H2142 C2127 0.961 . S
H2143 C2127 0.960 . S
C2144 C2145 1.391 . S
C2144 C2146 1.394 . S
C2144 H2160 0.931 . S
C2145 C2144 1.391 . S
C2145 C2149 1.376 . S
C2146 C2144 1.394 . S
C2146 C2147 1.369 . S
C2146 C2150 1.531 . S
C2147 C2146 1.369 . S
C2147 C2148 1.410 . S
C2147 C2155 1.503 . S
C2148 C2147 1.410 . S
C2148 C2149 1.392 . S
C2148 C2151 1.511 . S
C2149 C2145 1.376 . S
C2149 C2148 1.392 . S
C2149 H2161 0.929 . S
C2150 C2146 1.531 . S
C2150 H2162 0.960 . S
C2150 H2163 0.962 . S
C2150 H2164 0.960 . S
C2151 C2148 1.511 . S
C2151 H2165 0.961 . S
C2151 H2166 0.961 . S
C2151 H2167 0.961 . S
C2152 C2153 1.370 . S
C2152 C2154 1.363 . S
C2152 H2168 0.931 . S
C2153 C2152 1.370 . S
C2153 C2157 1.408 . S
C2154 C2152 1.363 . S
C2154 C2155 1.370 . S
C2154 C2158 1.524 . S
C2155 C2147 1.503 . S
C2155 C2154 1.370 . S
C2155 C2156 1.403 . S
C2156 C2155 1.403 . S
C2156 C2157 1.404 . S
C2156 C2159 1.539 . S
C2157 C2153 1.408 . S
C2157 C2156 1.404 . S
C2157 H2169 0.930 . S
C2158 C2154 1.524 . S
C2158 H2170 0.956 . S
C2158 H2171 0.961 . S
C2158 H2172 0.961 . S
C2159 C2156 1.539 . S
C2159 H2173 0.958 . S
C2159 H2174 0.961 . S
C2159 H2175 0.960 . S
H2160 C2144 0.931 . S
H2161 C2149 0.929 . S
H2162 C2150 0.960 . S
H2163 C2150 0.962 . S
H2164 C2150 0.960 . S
H2165 C2151 0.961 . S
H2166 C2151 0.961 . S
H2167 C2151 0.961 . S
H2168 C2152 0.931 . S
H2169 C2157 0.930 . S
H2170 C2158 0.956 . S
H2171 C2158 0.961 . S
H2172 C2158 0.961 . S
H2173 C2159 0.958 . S
H2174 C2159 0.961 . S
H2175 C2159 0.960 . S
C2176 C2177 1.391 . S
C2176 C2178 1.394 . S
C2176 H2192 0.931 . S
C2177 C2176 1.391 . S
C2177 C2181 1.376 . S
C2178 C2176 1.394 . S
C2178 C2179 1.369 . S
C2178 C2182 1.531 . S
C2179 C2178 1.369 . S
C2179 C2180 1.410 . S
C2179 C2187 1.503 . S
C2180 C2179 1.410 . S
C2180 C2181 1.392 . S
C2180 C2183 1.511 . S
C2181 C2177 1.376 . S
C2181 C2180 1.392 . S
C2181 H2193 0.929 . S
C2182 C2178 1.531 . S
C2182 H2194 0.960 . S
C2182 H2195 0.962 . S
C2182 H2196 0.960 . S
C2183 C2180 1.511 . S
C2183 H2197 0.961 . S
C2183 H2198 0.961 . S
C2183 H2199 0.961 . S
C2184 C2185 1.370 . S
C2184 C2186 1.363 . S
C2184 H2200 0.931 . S
C2185 C2184 1.370 . S
C2185 C2189 1.408 . S
C2186 C2184 1.363 . S
C2186 C2187 1.370 . S
C2186 C2190 1.524 . S
C2187 C2179 1.503 . S
C2187 C2186 1.370 . S
C2187 C2188 1.403 . S
C2188 C2187 1.403 . S
C2188 C2189 1.404 . S
C2188 C2191 1.539 . S
C2189 C2185 1.408 . S
C2189 C2188 1.404 . S
C2189 H2201 0.930 . S
C2190 C2186 1.524 . S
C2190 H2202 0.956 . S
C2190 H2203 0.961 . S
C2190 H2204 0.961 . S
C2191 C2188 1.539 . S
C2191 H2205 0.958 . S
C2191 H2206 0.961 . S
C2191 H2207 0.960 . S
H2192 C2176 0.931 . S
H2193 C2181 0.929 . S
H2194 C2182 0.960 . S
H2195 C2182 0.962 . S
H2196 C2182 0.960 . S
H2197 C2183 0.961 . S
H2198 C2183 0.961 . S
H2199 C2183 0.961 . S
H2200 C2184 0.931 . S
H2201 C2189 0.930 . S
H2202 C2190 0.956 . S
H2203 C2190 0.961 . S
H2204 C2190 0.961 . S
H2205 C2191 0.958 . S
H2206 C2191 0.961 . S
H2207 C2191 0.960 . S
C2208 C2209 1.391 . S
C2208 C2210 1.394 . S
C2208 H2224 0.931 . S
C2209 C2208 1.391 . S
C2209 C2213 1.376 . S
C2210 C2208 1.394 . S
C2210 C2211 1.369 . S
C2210 C2214 1.531 . S
C2211 C2210 1.369 . S
C2211 C2212 1.410 . S
C2211 C2219 1.503 . S
C2212 C2211 1.410 . S
C2212 C2213 1.392 . S
C2212 C2215 1.511 . S
C2213 C2209 1.376 . S
C2213 C2212 1.392 . S
C2213 H2225 0.929 . S
C2214 C2210 1.531 . S
C2214 H2226 0.960 . S
C2214 H2227 0.962 . S
C2214 H2228 0.960 . S
C2215 C2212 1.511 . S
C2215 H2229 0.961 . S
C2215 H2230 0.961 . S
C2215 H2231 0.961 . S
C2216 C2217 1.370 . S
C2216 C2218 1.363 . S
C2216 H2232 0.931 1_545 S
C2217 C2216 1.370 . S
C2217 C2221 1.408 . S
C2218 C2216 1.363 . S
C2218 C2219 1.370 . S
C2218 C2222 1.524 . S
C2219 C2211 1.503 . S
C2219 C2218 1.370 . S
C2219 C2220 1.403 . S
C2220 C2219 1.403 . S
C2220 C2221 1.404 . S
C2220 C2223 1.539 . S
C2221 C2217 1.408 . S
C2221 C2220 1.404 . S
C2221 H2233 0.930 . S
C2222 C2218 1.524 . S
C2222 H2234 0.956 . S
C2222 H2235 0.961 . S
C2222 H2236 0.961 . S
C2223 C2220 1.539 . S
C2223 H2237 0.958 . S
C2223 H2238 0.961 . S
C2223 H2239 0.960 . S
H2224 C2208 0.931 . S
H2225 C2213 0.929 . S
H2226 C2214 0.960 . S
H2227 C2214 0.962 . S
H2228 C2214 0.960 . S
H2229 C2215 0.961 . S
H2230 C2215 0.961 . S
H2231 C2215 0.961 . S
H2232 C2216 0.931 1_565 S
H2233 C2221 0.930 . S
H2234 C2222 0.956 . S
H2235 C2222 0.961 . S
H2236 C2222 0.961 . S
H2237 C2223 0.958 . S
H2238 C2223 0.961 . S
H2239 C2223 0.960 . S
C2240 C2241 1.391 . S
C2240 C2242 1.394 . S
C2240 H2256 0.931 . S
C2241 C2240 1.391 . S
C2241 C2245 1.376 . S
C2242 C2240 1.394 . S
C2242 C2243 1.369 . S
C2242 C2246 1.531 . S
C2243 C2242 1.369 . S
C2243 C2244 1.410 . S
C2243 C2251 1.503 . S
C2244 C2243 1.410 . S
C2244 C2245 1.392 . S
C2244 C2247 1.511 . S
C2245 C2241 1.376 . S
C2245 C2244 1.392 . S
C2245 H2257 0.929 . S
C2246 C2242 1.531 . S
C2246 H2258 0.960 . S
C2246 H2259 0.962 . S
C2246 H2260 0.960 . S
C2247 C2244 1.511 . S
C2247 H2261 0.961 . S
C2247 H2262 0.961 . S
C2247 H2263 0.961 . S
C2248 C2249 1.370 . S
C2248 C2250 1.363 . S
C2248 H2264 0.931 1_565 S
C2249 C2248 1.370 . S
C2249 C2253 1.408 . S
C2250 C2248 1.363 . S
C2250 C2251 1.370 . S
C2250 C2254 1.524 . S
C2251 C2243 1.503 . S
C2251 C2250 1.370 . S
C2251 C2252 1.403 . S
C2252 C2251 1.403 . S
C2252 C2253 1.404 . S
C2252 C2255 1.539 . S
C2253 C2249 1.408 . S
C2253 C2252 1.404 . S
C2253 H2265 0.930 . S
C2254 C2250 1.524 . S
C2254 H2266 0.956 . S
C2254 H2267 0.961 . S
C2254 H2268 0.961 . S
C2255 C2252 1.539 . S
C2255 H2269 0.958 . S
C2255 H2270 0.961 . S
C2255 H2271 0.960 . S
H2256 C2240 0.931 . S
H2257 C2245 0.929 . S
H2258 C2246 0.960 . S
H2259 C2246 0.962 . S
H2260 C2246 0.960 . S
H2261 C2247 0.961 . S
H2262 C2247 0.961 . S
H2263 C2247 0.961 . S
H2264 C2248 0.931 1_545 S
H2265 C2253 0.930 . S
H2266 C2254 0.956 . S
H2267 C2254 0.961 . S
H2268 C2254 0.961 . S
H2269 C2255 0.958 . S
H2270 C2255 0.961 . S
H2271 C2255 0.960 . S
C2272 C2273 1.391 . S
C2272 C2274 1.394 . S
C2272 H2288 0.931 . S
C2273 C2272 1.391 . S
C2273 C2277 1.376 . S
C2274 C2272 1.394 . S
C2274 C2275 1.369 . S
C2274 C2278 1.531 . S
C2275 C2274 1.369 . S
C2275 C2276 1.410 . S
C2275 C2283 1.503 . S
C2276 C2275 1.410 . S
C2276 C2277 1.392 . S
C2276 C2279 1.511 . S
C2277 C2273 1.376 . S
C2277 C2276 1.392 . S
C2277 H2289 0.929 . S
C2278 C2274 1.531 . S
C2278 H2290 0.960 . S
C2278 H2291 0.962 . S
C2278 H2292 0.960 . S
C2279 C2276 1.511 . S
C2279 H2293 0.961 . S
C2279 H2294 0.961 . S
C2279 H2295 0.961 . S
C2280 C2281 1.370 . S
C2280 C2282 1.363 . S
C2280 H2296 0.931 . S
C2281 C2280 1.370 . S
C2281 C2285 1.408 . S
C2282 C2280 1.363 . S
C2282 C2283 1.370 . S
C2282 C2286 1.524 . S
C2283 C2275 1.503 . S
C2283 C2282 1.370 . S
C2283 C2284 1.403 . S
C2284 C2283 1.403 . S
C2284 C2285 1.404 . S
C2284 C2287 1.539 . S
C2285 C2281 1.408 . S
C2285 C2284 1.404 . S
C2285 H2297 0.930 . S
C2286 C2282 1.524 . S
C2286 H2298 0.956 . S
C2286 H2299 0.961 . S
C2286 H2300 0.961 . S
C2287 C2284 1.539 . S
C2287 H2301 0.958 . S
C2287 H2302 0.961 . S
C2287 H2303 0.960 . S
H2288 C2272 0.931 . S
H2289 C2277 0.929 . S
H2290 C2278 0.960 . S
H2291 C2278 0.962 . S
H2292 C2278 0.960 . S
H2293 C2279 0.961 . S
H2294 C2279 0.961 . S
H2295 C2279 0.961 . S
H2296 C2280 0.931 . S
H2297 C2285 0.930 . S
H2298 C2286 0.956 . S
H2299 C2286 0.961 . S
H2300 C2286 0.961 . S
H2301 C2287 0.958 . S
H2302 C2287 0.961 . S
H2303 C2287 0.960 . S
C2304 C2305 1.391 . S
C2304 C2306 1.394 . S
C2304 H2320 0.931 . S
C2305 C2304 1.391 . S
C2305 C2309 1.376 . S
C2306 C2304 1.394 . S
C2306 C2307 1.369 . S
C2306 C2310 1.531 . S
C2307 C2306 1.369 . S
C2307 C2308 1.410 . S
C2307 C2315 1.503 . S
C2308 C2307 1.410 . S
C2308 C2309 1.392 . S
C2308 C2311 1.511 . S
C2309 C2305 1.376 . S
C2309 C2308 1.392 . S
C2309 H2321 0.929 . S
C2310 C2306 1.531 . S
C2310 H2322 0.960 . S
C2310 H2323 0.962 . S
C2310 H2324 0.960 . S
C2311 C2308 1.511 . S
C2311 H2325 0.961 . S
C2311 H2326 0.961 . S
C2311 H2327 0.961 . S
C2312 C2313 1.370 . S
C2312 C2314 1.363 . S
C2312 H2328 0.931 . S
C2313 C2312 1.370 . S
C2313 C2317 1.408 . S
C2314 C2312 1.363 . S
C2314 C2315 1.370 . S
C2314 C2318 1.524 . S
C2315 C2307 1.503 . S
C2315 C2314 1.370 . S
C2315 C2316 1.403 . S
C2316 C2315 1.403 . S
C2316 C2317 1.404 . S
C2316 C2319 1.539 . S
C2317 C2313 1.408 . S
C2317 C2316 1.404 . S
C2317 H2329 0.930 . S
C2318 C2314 1.524 . S
C2318 H2330 0.956 . S
C2318 H2331 0.961 . S
C2318 H2332 0.961 . S
C2319 C2316 1.539 . S
C2319 H2333 0.958 . S
C2319 H2334 0.961 . S
C2319 H2335 0.960 . S
H2320 C2304 0.931 . S
H2321 C2309 0.929 . S
H2322 C2310 0.960 . S
H2323 C2310 0.962 . S
H2324 C2310 0.960 . S
H2325 C2311 0.961 . S
H2326 C2311 0.961 . S
H2327 C2311 0.961 . S
H2328 C2312 0.931 . S
H2329 C2317 0.930 . S
H2330 C2318 0.956 . S
H2331 C2318 0.961 . S
H2332 C2318 0.961 . S
H2333 C2319 0.958 . S
H2334 C2319 0.961 . S
H2335 C2319 0.960 . S
C2336 C2337 1.391 . S
C2336 C2338 1.394 . S
C2336 H2352 0.931 1_565 S
C2337 C2336 1.391 . S
C2337 C2341 1.376 . S
C2338 C2336 1.394 . S
C2338 C2339 1.369 . S
C2338 C2342 1.531 . S
C2339 C2338 1.369 . S
C2339 C2340 1.410 . S
C2339 C2347 1.503 . S
C2340 C2339 1.410 . S
C2340 C2341 1.392 . S
C2340 C2343 1.511 . S
C2341 C2337 1.376 . S
C2341 C2340 1.392 . S
C2341 H2353 0.929 . S
C2342 C2338 1.531 . S
C2342 H2354 0.960 . S
C2342 H2355 0.962 . S
C2342 H2356 0.960 . S
C2343 C2340 1.511 . S
C2343 H2357 0.961 . S
C2343 H2358 0.961 . S
C2343 H2359 0.961 . S
C2344 C2345 1.370 . S
C2344 C2346 1.363 . S
C2344 H2360 0.931 . S
C2345 C2344 1.370 . S
C2345 C2349 1.408 . S
C2346 C2344 1.363 . S
C2346 C2347 1.370 . S
C2346 C2350 1.524 . S
C2347 C2339 1.503 . S
C2347 C2346 1.370 . S
C2347 C2348 1.403 . S
C2348 C2347 1.403 . S
C2348 C2349 1.404 . S
C2348 C2351 1.539 . S
C2349 C2345 1.408 . S
C2349 C2348 1.404 . S
C2349 H2361 0.930 . S
C2350 C2346 1.524 . S
C2350 H2362 0.956 . S
C2350 H2363 0.961 . S
C2350 H2364 0.961 . S
C2351 C2348 1.539 . S
C2351 H2365 0.958 . S
C2351 H2366 0.961 . S
C2351 H2367 0.960 . S
H2352 C2336 0.931 1_545 S
H2353 C2341 0.929 . S
H2354 C2342 0.960 . S
H2355 C2342 0.962 . S
H2356 C2342 0.960 . S
H2357 C2343 0.961 . S
H2358 C2343 0.961 . S
H2359 C2343 0.961 . S
H2360 C2344 0.931 . S
H2361 C2349 0.930 . S
H2362 C2350 0.956 . S
H2363 C2350 0.961 . S
H2364 C2350 0.961 . S
H2365 C2351 0.958 . S
H2366 C2351 0.961 . S
H2367 C2351 0.960 . S
C2368 C2369 1.391 . S
C2368 C2370 1.394 . S
C2368 H2384 0.931 . S
C2369 C2368 1.391 . S
C2369 C2373 1.376 . S
C2370 C2368 1.394 . S
C2370 C2371 1.369 . S
C2370 C2374 1.531 . S
C2371 C2370 1.369 . S
C2371 C2372 1.410 . S
C2371 C2379 1.503 . S
C2372 C2371 1.410 . S
C2372 C2373 1.392 . S
C2372 C2375 1.511 . S
C2373 C2369 1.376 . S
C2373 C2372 1.392 . S
C2373 H2385 0.929 . S
C2374 C2370 1.531 . S
C2374 H2386 0.960 . S
C2374 H2387 0.962 . S
C2374 H2388 0.960 . S
C2375 C2372 1.511 . S
C2375 H2389 0.961 . S
C2375 H2390 0.961 . S
C2375 H2391 0.961 . S
C2376 C2377 1.370 . S
C2376 C2378 1.363 . S
C2376 H2392 0.931 1_545 S
C2377 C2376 1.370 . S
C2377 C2381 1.408 . S
C2378 C2376 1.363 . S
C2378 C2379 1.370 . S
C2378 C2382 1.524 . S
C2379 C2371 1.503 . S
C2379 C2378 1.370 . S
C2379 C2380 1.403 . S
C2380 C2379 1.403 . S
C2380 C2381 1.404 . S
C2380 C2383 1.539 . S
C2381 C2377 1.408 . S
C2381 C2380 1.404 . S
C2381 H2393 0.930 . S
C2382 C2378 1.524 . S
C2382 H2394 0.956 . S
C2382 H2395 0.961 . S
C2382 H2396 0.961 . S
C2383 C2380 1.539 . S
C2383 H2397 0.958 . S
C2383 H2398 0.961 . S
C2383 H2399 0.960 . S
H2384 C2368 0.931 . S
H2385 C2373 0.929 . S
H2386 C2374 0.960 . S
H2387 C2374 0.962 . S
H2388 C2374 0.960 . S
H2389 C2375 0.961 . S
H2390 C2375 0.961 . S
H2391 C2375 0.961 . S
H2392 C2376 0.931 1_565 S
H2393 C2381 0.930 . S
H2394 C2382 0.956 . S
H2395 C2382 0.961 . S
H2396 C2382 0.961 . S
H2397 C2383 0.958 . S
H2398 C2383 0.961 . S
H2399 C2383 0.960 . S
C2400 C2401 1.391 . S
C2400 C2402 1.394 . S
C2400 H2416 0.931 . S
C2401 C2400 1.391 . S
C2401 C2405 1.376 . S
C2402 C2400 1.394 . S
C2402 C2403 1.369 . S
C2402 C2406 1.531 . S
C2403 C2402 1.369 . S
C2403 C2404 1.410 . S
C2403 C2411 1.503 . S
C2404 C2403 1.410 . S
C2404 C2405 1.392 . S
C2404 C2407 1.511 . S
C2405 C2401 1.376 . S
C2405 C2404 1.392 . S
C2405 H2417 0.929 . S
C2406 C2402 1.531 . S
C2406 H2418 0.960 . S
C2406 H2419 0.962 . S
C2406 H2420 0.960 . S
C2407 C2404 1.511 . S
C2407 H2421 0.961 . S
C2407 H2422 0.961 . S
C2407 H2423 0.961 . S
C2408 C2409 1.370 . S
C2408 C2410 1.363 . S
C2408 H2424 0.931 . S
C2409 C2408 1.370 . S
C2409 C2413 1.408 . S
C2410 C2408 1.363 . S
C2410 C2411 1.370 . S
C2410 C2414 1.524 . S
C2411 C2403 1.503 . S
C2411 C2410 1.370 . S
C2411 C2412 1.403 . S
C2412 C2411 1.403 . S
C2412 C2413 1.404 . S
C2412 C2415 1.539 . S
C2413 C2409 1.408 . S
C2413 C2412 1.404 . S
C2413 H2425 0.930 . S
C2414 C2410 1.524 . S
C2414 H2426 0.956 . S
C2414 H2427 0.961 . S
C2414 H2428 0.961 . S
C2415 C2412 1.539 . S
C2415 H2429 0.958 . S
C2415 H2430 0.961 . S
C2415 H2431 0.960 . S
H2416 C2400 0.931 . S
H2417 C2405 0.929 . S
H2418 C2406 0.960 . S
H2419 C2406 0.962 . S
H2420 C2406 0.960 . S
H2421 C2407 0.961 . S
H2422 C2407 0.961 . S
H2423 C2407 0.961 . S
H2424 C2408 0.931 . S
H2425 C2413 0.930 . S
H2426 C2414 0.956 . S
H2427 C2414 0.961 . S
H2428 C2414 0.961 . S
H2429 C2415 0.958 . S
H2430 C2415 0.961 . S
H2431 C2415 0.960 . S
C2432 C2433 1.391 . S
C2432 C2434 1.394 . S
C2432 H2448 0.931 . S
C2433 C2432 1.391 . S
C2433 C2437 1.376 . S
C2434 C2432 1.394 . S
C2434 C2435 1.369 . S
C2434 C2438 1.531 . S
C2435 C2434 1.369 . S
C2435 C2436 1.410 . S
C2435 C2443 1.503 . S
C2436 C2435 1.410 . S
C2436 C2437 1.392 . S
C2436 C2439 1.511 . S
C2437 C2433 1.376 . S
C2437 C2436 1.392 . S
C2437 H2449 0.929 . S
C2438 C2434 1.531 . S
C2438 H2450 0.960 . S
C2438 H2451 0.962 . S
C2438 H2452 0.960 . S
C2439 C2436 1.511 . S
C2439 H2453 0.961 . S
C2439 H2454 0.961 . S
C2439 H2455 0.961 . S
C2440 C2441 1.370 . S
C2440 C2442 1.363 . S
C2440 H2456 0.931 . S
C2441 C2440 1.370 . S
C2441 C2445 1.408 . S
C2442 C2440 1.363 . S
C2442 C2443 1.370 . S
C2442 C2446 1.524 . S
C2443 C2435 1.503 . S
C2443 C2442 1.370 . S
C2443 C2444 1.403 . S
C2444 C2443 1.403 . S
C2444 C2445 1.404 . S
C2444 C2447 1.539 . S
C2445 C2441 1.408 . S
C2445 C2444 1.404 . S
C2445 H2457 0.930 . S
C2446 C2442 1.524 . S
C2446 H2458 0.956 . S
C2446 H2459 0.961 . S
C2446 H2460 0.961 . S
C2447 C2444 1.539 . S
C2447 H2461 0.958 . S
C2447 H2462 0.961 . S
C2447 H2463 0.960 . S
H2448 C2432 0.931 . S
H2449 C2437 0.929 . S
H2450 C2438 0.960 . S
H2451 C2438 0.962 . S
H2452 C2438 0.960 . S
H2453 C2439 0.961 . S
H2454 C2439 0.961 . S
H2455 C2439 0.961 . S
H2456 C2440 0.931 . S
H2457 C2445 0.930 . S
H2458 C2446 0.956 . S
H2459 C2446 0.961 . S
H2460 C2446 0.961 . S
H2461 C2447 0.958 . S
H2462 C2447 0.961 . S
H2463 C2447 0.960 . S
C2464 C2465 1.391 . S
C2464 C2466 1.394 . S
C2464 H2480 0.931 . S
C2465 C2464 1.391 . S
C2465 C2469 1.376 . S
C2466 C2464 1.394 . S
C2466 C2467 1.369 . S
C2466 C2470 1.531 . S
C2467 C2466 1.369 . S
C2467 C2468 1.410 . S
C2467 C2475 1.503 . S
C2468 C2467 1.410 . S
C2468 C2469 1.392 . S
C2468 C2471 1.511 . S
C2469 C2465 1.376 . S
C2469 C2468 1.392 . S
C2469 H2481 0.929 1_545 S
C2470 C2466 1.531 . S
C2470 H2482 0.960 . S
C2470 H2483 0.962 . S
C2470 H2484 0.960 . S
C2471 C2468 1.511 . S
C2471 H2485 0.961 . S
C2471 H2486 0.961 . S
C2471 H2487 0.961 . S
C2472 C2473 1.370 . S
C2472 C2474 1.363 . S
C2472 H2488 0.931 . S
C2473 C2472 1.370 . S
C2473 C2477 1.408 . S
C2474 C2472 1.363 . S
C2474 C2475 1.370 . S
C2474 C2478 1.524 . S
C2475 C2467 1.503 . S
C2475 C2474 1.370 . S
C2475 C2476 1.403 . S
C2476 C2475 1.403 . S
C2476 C2477 1.404 . S
C2476 C2479 1.539 . S
C2477 C2473 1.408 . S
C2477 C2476 1.404 . S
C2477 H2489 0.930 . S
C2478 C2474 1.524 . S
C2478 H2490 0.956 . S
C2478 H2491 0.961 . S
C2478 H2492 0.961 . S
C2479 C2476 1.539 . S
C2479 H2493 0.958 . S
C2479 H2494 0.961 . S
C2479 H2495 0.960 . S
H2480 C2464 0.931 . S
H2481 C2469 0.929 1_565 S
H2482 C2470 0.960 . S
H2483 C2470 0.962 . S
H2484 C2470 0.960 . S
H2485 C2471 0.961 . S
H2486 C2471 0.961 . S
H2487 C2471 0.961 . S
H2488 C2472 0.931 . S
H2489 C2477 0.930 . S
H2490 C2478 0.956 . S
H2491 C2478 0.961 . S
H2492 C2478 0.961 . S
H2493 C2479 0.958 . S
H2494 C2479 0.961 . S
H2495 C2479 0.960 . S
C449 C5 1.411 . S
C457 C19 1.421 . S
C481 C47 1.432 . S
C489 C33 1.430 . S
C513 C61 1.432 . S
C521 C75 1.430 . S
C545 C89 1.412 . S
C553 C103 1.421 . S
C577 C117 1.416 . S
C585 C131 1.422 . S
C609 C145 1.423 . S
C617 C159 1.425 . S
C641 C173 1.433 . S
C649 C187 1.430 . S
C673 C201 1.412 . S
C681 C215 1.421 . S
C705 C243 1.415 . S
C713 C229 1.424 . S
C737 C271 1.413 . S
C745 C257 1.421 . S
C769 C299 1.429 . S
C777 C285 1.430 . S
C801 C327 1.433 . S
C809 C313 1.429 . S
C833 C355 1.411 . S
C841 C341 1.421 . S
C865 C383 1.433 . S
C873 C369 1.430 . S
C897 C411 1.411 . S
C905 C397 1.423 . S
C929 C439 1.433 . S
C937 C425 1.429 . S
C961 C11 1.441 . S
C969 C179 1.475 . S
C993 C25 1.436 . S
C1001 C305 1.478 . S
C1025 C39 1.490 . S
C1033 C95 1.456 . S
C1057 C53 1.448 . S
C1065 C445 1.472 . S
C1089 C67 1.472 . S
C1097 C123 1.465 . S
C1121 C249 1.436 . S
C1129 C81 1.478 . S
C1153 C389 1.479 . S
C1161 C109 1.462 . S
C1185 C137 1.455 . S
C1193 C417 1.469 . S
C1217 C151 1.439 . S
C1225 C207 1.478 . S
C1249 C165 1.485 . S
C1257 C333 1.459 . S
C1281 C193 1.442 . S
C1289 C361 1.477 . S
C1313 C221 1.437 . S
C1321 C277 1.478 . S
C1345 C403 1.484 . S
C1353 C235 1.460 . S
C1377 C319 1.436 . S
C1385 C263 1.478 . S
C1409 C291 1.483 . S
C1417 C347 1.460 . S
C1441 C431 1.453 . S
C1449 C375 1.473 . S
C1473 C149 0.801 . S
C1481 C9 0.791 . S
C1505 C163 0.818 . S
C1513 C23 0.789 1_565 S
C1537 C37 0.817 1_565 S
C1545 C121 0.787 . S
C1569 C135 0.816 . S
C1577 C51 0.787 . S
C1601 C65 0.816 . S
C1609 C205 0.788 . S
C1633 C79 0.814 1_545 S
C1641 C219 0.789 . S
C1665 C177 0.818 . S
C1673 C93 0.787 1_545 S
C1697 C191 0.812 . S
C1705 C107 0.790 . S
C1729 C233 0.778 . S
C1737 C373 0.801 . S
C1761 C387 0.774 . S
C1769 C247 0.804 1_565 S
C1793 C345 0.775 . S
C1801 C261 0.803 1_565 S
C1825 C275 0.815 . S
C1833 C359 0.790 . S
C1857 C429 0.779 . S
C1865 C289 0.803 . S
C1889 C303 0.775 1_545 S
C1897 C443 0.805 . S
C1921 C401 0.818 . S
C1929 C317 0.787 1_545 S
C1953 C415 0.810 . S
C1961 C331 0.790 . S
C1985 C140 1.537 . S
C1993 C0 1.549 1_565 S
C2017 C154 1.532 . S
C2025 C14 1.549 . S
C2049 C112 1.540 . S
C2057 C28 1.529 . S
C2081 C42 1.539 1_565 S
C2089 C126 1.529 . S
C2113 C196 1.559 . S
C2121 C56 1.540 1_545 S
C2145 C210 1.512 . S
C2153 C70 1.538 . S
C2177 C168 1.513 . S
C2185 C84 1.541 . S
C2209 C182 1.519 . S
C2217 C98 1.545 1_545 S
C2241 C364 1.530 . S
C2249 C224 1.549 1_565 S
C2273 C378 1.540 . S
C2281 C238 1.549 . S
C2305 C336 1.520 . S
C2313 C252 1.548 . S
C2337 C266 1.534 1_565 S
C2345 C350 1.549 . S
C2369 C420 1.513 . S
C2377 C280 1.541 1_545 S
C2401 C294 1.513 . S
C2409 C434 1.541 . S
C2433 C392 1.559 . S
C2441 C308 1.543 . S
C2465 C322 1.559 1_545 S
C2473 C406 1.539 . S
