# Generated by pormake.
# Topology unc, (4)-cn, num edge types: 1
# Building blocks:
#     Node 0, Type 0, BuildingBlock: QUQFOY_clean_sbu_3, # of connection points: 4
#     Node 1, Type 0, BuildingBlock: QUQFOY_clean_sbu_3, # of connection points: 4
#     Node 2, Type 0, BuildingBlock: QUQFOY_clean_sbu_3, # of connection points: 4
#     Node 3, Type 0, BuildingBlock: QUQFOY_clean_sbu_3, # of connection points: 4
#     Edge 4, Type (0, 0), BuildingBlock: XUDNAN_clean_linker_2, # of connection points: 2
#     Edge 5, Type (0, 0), BuildingBlock: XUDNAN_clean_linker_2, # of connection points: 2
#     Edge 6, Type (0, 0), BuildingBlock: XUDNAN_clean_linker_2, # of connection points: 2
#     Edge 7, Type (0, 0), BuildingBlock: XUDNAN_clean_linker_2, # of connection points: 2
#     Edge 8, Type (0, 0), BuildingBlock: XUDNAN_clean_linker_2, # of connection points: 2
#     Edge 9, Type (0, 0), BuildingBlock: XUDNAN_clean_linker_2, # of connection points: 2
#     Edge 10, Type (0, 0), BuildingBlock: XUDNAN_clean_linker_2, # of connection points: 2
#     Edge 11, Type (0, 0), BuildingBlock: XUDNAN_clean_linker_2, # of connection points: 2
# Relax obj value: 0.006
# Max RMSD: 0.046
# Mean RMSD: 0.046
data_MOF--net-unc--node1-QUQFOY_clean_sbu_3--edge1-XUDNAN_clean_linker_2
_symmetry_space_group_name_H-M    P1
_symmetry_Int_Tables_number       1
_symmetry_cell_setting            triclinic
loop_
_symmetry_equiv_pos_as_xyz
'x, y, z'
_cell_length_a     31.217229
_cell_length_b     30.898529
_cell_length_c     23.32582
_cell_angle_alpha  89.847215
_cell_angle_beta   90.350058
_cell_angle_gamma 95.393528
loop_
_atom_site_label
_atom_site_type_symbol
_atom_site_fract_x
_atom_site_fract_y
_atom_site_fract_z
_atom_type_partial_charge
C0 C 0.02572 0.62816 0.85949 0.0
O1 O 0.06515 0.63561 0.87303 0.0
Cd2 Cd 0.08537 0.66861 0.96439 0.0
O3 O -0.00321 0.64113 0.89171 0.0
Cd4 Cd -0.01344 0.68184 0.98058 0.0
C5 C 0.02272 0.59745 0.0515 0.0
O6 O 0.05189 0.73388 -0.01476 0.0
O7 O 0.01574 0.7207 0.06317 0.0
O8 O 0.93868 0.72345 0.92451 0.0
C9 C 0.04705 0.74184 0.03822 0.0
O10 O 0.05938 0.61277 0.03293 0.0
C11 C 0.90725 0.71883 0.95893 0.0
O12 O -0.01142 0.61446 0.0368 0.0
O13 O 0.91236 0.69659 0.00402 0.0
C14 C 0.39755 0.98036 0.36362 0.0
O15 O 0.40003 0.94358 0.34039 0.0
Cd16 Cd 0.36295 0.92604 0.25129 0.0
O17 O 0.37451 0.00774 0.34082 0.0
Cd18 Cd 0.32603 0.0178 0.25857 0.0
C19 C 0.40723 0.00803 0.16437 0.0
O20 O 0.29003 0.94488 0.26036 0.0
O21 O 0.27678 0.98285 0.18538 0.0
O22 O 0.27462 0.05107 0.31889 0.0
C23 C 0.26859 0.94827 0.21444 0.0
O24 O 0.40405 0.96777 0.17719 0.0
C25 C 0.2812 0.08897 0.29783 0.0
O26 O 0.38387 0.03389 0.1892 0.0
O27 O 0.3082 0.09409 0.25729 0.0
C28 C 0.97054 0.38304 0.35997 0.0
O29 O 0.93109 0.37731 0.37333 0.0
Cd30 Cd 0.91065 0.34225 0.46245 0.0
O31 O -0.00105 0.36828 0.39208 0.0
Cd32 Cd 0.00733 0.32605 0.48104 0.0
C33 C 0.97219 0.40754 0.55826 0.0
O34 O 0.94331 0.2753 0.47305 0.0
O35 O 0.97336 0.28025 0.55712 0.0
O36 O 0.04758 0.27385 0.43337 0.0
C37 C 0.94564 0.26069 0.52381 0.0
O38 O 0.93599 0.39469 0.53564 0.0
C39 C 0.08376 0.28514 0.45624 0.0
O40 O 0.00592 0.38947 0.54522 0.0
O41 O 0.08539 0.31628 0.492 0.0
C42 C 0.62703 0.06151 0.86597 0.0
O43 O 0.64327 0.09678 0.84368 0.0
Cd44 Cd 0.68088 0.09778 0.75441 0.0
O45 O 0.63498 0.02502 0.84512 0.0
Cd46 Cd 0.67897 -0.0069 0.77023 0.0
C47 C 0.60578 0.02783 0.67936 0.0
O48 O 0.73746 0.0514 0.75966 0.0
O49 O 0.72895 0.00431 0.69143 0.0
O50 O 0.7037 0.95176 0.85071 0.0
C51 C 0.75009 0.03783 0.71184 0.0
O52 O 0.62464 0.06524 0.69075 0.0
C53 C 0.70421 0.91608 0.82408 0.0
O54 O 0.61755 -0.00638 0.70328 0.0
O55 O 0.69173 0.91537 0.77205 0.0
H56 H 0.9533 0.56156 0.1143 0.0
H57 H 0.0882 0.5488 0.07993 0.0
H58 H 0.08757 0.48941 0.15022 0.0
H59 H 0.95906 0.54479 0.26372 0.0
H60 H 0.90732 0.51392 0.26945 0.0
H61 H 0.9169 0.55332 0.2129 0.0
H62 H 0.89476 0.49394 0.13733 0.0
H63 H 0.88506 0.45431 0.19374 0.0
H64 H 0.92161 0.44478 0.13661 0.0
H65 H 0.07463 0.43537 0.22817 0.0
H66 H 0.04959 0.38911 0.3097 0.0
H67 H 0.92283 0.43536 0.2943 0.0
C68 C 0.9825 0.54584 0.12095 0.0
C69 C 0.02076 0.55992 0.0914 0.0
C70 C 0.05845 0.53876 0.10193 0.0
C71 C 0.05846 0.50482 0.14172 0.0
C72 C 0.0205 0.49215 0.1706 0.0
C73 C 0.98313 0.51177 0.16073 0.0
C74 C 0.94735 0.49302 0.19977 0.0
C75 C 0.93176 0.52837 0.23877 0.0
C76 C 0.90999 0.47015 0.16476 0.0
C77 C 0.97082 0.46055 0.23381 0.0
C78 C 0.01289 0.46045 0.21588 0.0
C79 C 0.04162 0.43476 0.24228 0.0
C80 C 0.02709 0.40867 0.28866 0.0
C81 C 0.9842 0.40842 0.30827 0.0
C82 C 0.95563 0.43439 0.27988 0.0
H83 H 0.45358 0.9323 0.42316 0.0
H84 H 0.3986 0.05643 0.42298 0.0
H85 H 0.44277 0.07932 0.50708 0.0
H86 H 0.4612 0.92161 0.58007 0.0
H87 H 0.51169 0.89779 0.57739 0.0
H88 H 0.47371 0.88951 0.51903 0.0
H89 H 0.53225 0.9202 0.4477 0.0
H90 H 0.57035 0.92864 0.50576 0.0
H91 H 0.55964 0.97342 0.45983 0.0
H92 H 0.49576 0.09142 0.58546 0.0
H93 H 0.5542 0.09163 0.65659 0.0
H94 H 0.57496 0.95931 0.60972 0.0
C95 C 0.45044 0.96407 0.44125 0.0
C96 C 0.4225 -0.00748 0.41634 0.0
C97 C 0.41964 0.03397 0.44114 0.0
C98 C 0.44457 0.04731 0.48905 0.0
C99 C 0.47206 0.01878 0.51206 0.0
C100 C 0.47507 0.97795 0.4894 0.0
C101 C 0.50848 0.95443 0.52151 0.0
C102 C 0.4875 0.9134 0.55127 0.0
C103 C 0.54483 0.94355 0.4813 0.0
C104 C 0.52432 0.98888 0.56491 0.0
C105 C 0.50262 0.02561 0.55857 0.0
C106 C 0.51269 0.06272 0.59134 0.0
C107 C 0.54609 0.06254 0.63147 0.0
C108 C 0.56903 0.02543 0.63884 0.0
C109 C 0.55757 0.98788 0.60557 0.0
H110 H 0.07321 0.57317 0.79857 0.0
H111 H 0.94778 0.62294 0.80563 0.0
H112 H 0.92234 0.57424 0.72665 0.0
H113 H 0.07547 0.55782 0.64171 0.0
H114 H 0.10117 0.50811 0.64723 0.0
H115 H 0.11107 0.54963 0.70109 0.0
H116 H 0.08695 0.49348 0.77988 0.0
H117 H 0.07666 0.45191 0.7263 0.0
H118 H 0.03457 0.46369 0.7748 0.0
H119 H 0.90857 0.51765 0.6526 0.0
H120 H 0.90725 0.4569 0.58489 0.0
H121 H 0.04132 0.44189 0.62442 0.0
C122 C 0.04069 0.57444 0.78264 0.0
C123 C 0.01254 0.60207 0.8081 0.0
C124 C 0.96994 0.60213 0.78682 0.0
C125 C 0.95519 0.57462 0.7419 0.0
C126 C 0.98336 0.54715 0.71863 0.0
C127 C 0.02526 0.54687 0.73789 0.0
C128 C 0.048 0.51239 0.70708 0.0
C129 C 0.08619 0.53324 0.6722 0.0
C130 C 0.06238 0.47836 0.74956 0.0
C131 C 0.01208 0.49305 0.66815 0.0
C132 C 0.97523 0.51387 0.67554 0.0
C133 C 0.93731 0.50129 0.64602 0.0
C134 C 0.93692 0.46653 0.60772 0.0
C135 C 0.97421 0.44447 0.59907 0.0
C136 C 0.01236 0.45815 0.62973 0.0
H137 H 0.45717 0.96131 0.09584 0.0
H138 H 0.43005 0.09324 0.13544 0.0
H139 H 0.48503 0.1214 0.06566 0.0
H140 H 0.57134 0.98342 0.07869 0.0
H141 H 0.57419 0.94609 0.0199 0.0
H142 H 0.53292 0.93624 0.07323 0.0
H143 H 0.47424 0.93327 -0.00615 0.0
H144 H 0.51534 0.94283 0.94027 0.0
H145 H 0.47281 0.97827 0.94474 0.0
H146 H 0.54341 0.13521 -0.00809 0.0
H147 H 0.5981 0.13341 0.91623 0.0
H148 H 0.58627 -0.00768 0.9245 0.0
C149 C 0.46273 -0.00388 0.08996 0.0
C150 C 0.4393 0.02503 0.12132 0.0
C151 C 0.44752 0.07039 0.11193 0.0
C152 C 0.47878 0.08675 0.07251 0.0
C153 C 0.50146 0.05733 0.04268 0.0
C154 C 0.49363 0.01299 0.05067 0.0
C155 C 0.52183 0.98827 0.01243 0.0
C156 C 0.55185 0.96196 0.04822 0.0
C157 C 0.49441 0.95894 0.97032 0.0
C158 C 0.54678 0.02567 0.98166 0.0
C159 C 0.53472 0.06524 -0.00011 0.0
C160 C 0.55312 0.10439 0.9773 0.0
C161 C 0.58426 0.10303 0.93439 0.0
C162 C 0.5966 0.06275 0.91434 0.0
C163 C 0.57772 0.02369 0.93889 0.0
H164 H 0.23085 0.93468 0.10771 0.0
H165 H 0.23155 0.88311 0.28105 0.0
H166 H 0.17551 0.82528 0.25381 0.0
H167 H 0.11704 0.91331 0.08137 0.0
H168 H 0.12275 0.8973 0.00777 0.0
H169 H 0.16285 0.93534 0.04044 0.0
H170 H 0.22213 0.88568 0.01415 0.0
H171 H 0.18222 0.84749 0.98134 0.0
H172 H 0.21684 0.82966 0.03701 0.0
H173 H 0.11793 0.77548 0.21045 0.0
H174 H 0.06454 0.73226 0.15102 0.0
H175 H 0.10279 0.81173 0.00286 0.0
C176 C 0.21912 0.91119 0.13983 0.0
C177 C 0.23544 0.91348 0.19662 0.0
C178 C 0.2196 0.88197 0.23733 0.0
C179 C 0.1877 0.84904 0.22232 0.0
C180 C 0.17227 0.84767 0.1662 0.0
C181 C 0.1876 0.87752 0.1253 0.0
C182 C 0.16581 0.86777 0.06772 0.0
C183 C 0.14061 0.90569 0.04819 0.0
C184 C 0.19872 0.857 0.02238 0.0
C185 C 0.13569 0.82798 0.08296 0.0
C186 C 0.13984 0.8174 0.14022 0.0
C187 C 0.11459 0.78316 0.16545 0.0
C188 C 0.08423 0.75892 0.13132 0.0
C189 C 0.07966 0.76854 0.0723 0.0
C190 C 0.10596 0.80341 0.04771 0.0
H191 H 0.20091 0.08467 0.34371 0.0
H192 H 0.31135 0.17501 0.30322 0.0
H193 H 0.27511 0.235 0.34653 0.0
H194 H 0.12236 0.15769 0.30717 0.0
H195 H 0.08554 0.13782 0.36257 0.0
H196 H 0.12167 0.10228 0.33183 0.0
H197 H 0.15103 0.08679 0.43332 0.0
H198 H 0.11531 0.12272 0.4643 0.0
H199 H 0.17239 0.13153 0.47763 0.0
H200 H 0.22666 0.28466 0.39798 0.0
H201 H 0.16621 0.32144 0.43844 0.0
H202 H 0.08609 0.19908 0.43618 0.0
C203 C 0.2175 0.11708 0.34418 0.0
C204 C 0.259 0.12531 0.32071 0.0
C205 C 0.27947 0.16818 0.32105 0.0
C206 C 0.25928 0.20231 0.3459 0.0
C207 C 0.21837 0.19303 0.36921 0.0
C208 C 0.19742 0.15156 0.36743 0.0
C209 C 0.15247 0.1505 0.3915 0.0
C210 C 0.11852 0.13625 0.34552 0.0
C211 C 0.14754 0.12114 0.44486 0.0
C212 C 0.15125 0.19783 0.40714 0.0
C213 C 0.18982 0.22179 0.39521 0.0
C214 C 0.19626 0.26622 0.40714 0.0
C215 C 0.16198 0.28678 0.43043 0.0
C216 C 0.12171 0.263 0.44013 0.0
C217 C 0.1166 0.21797 0.42892 0.0
H218 H 0.80391 0.1097 0.74361 0.0
H219 H 0.76772 0.02539 0.59915 0.0
H220 H 0.81553 0.07214 0.53652 0.0
H221 H 0.80876 0.20925 0.66861 0.0
H222 H 0.85533 0.23415 0.70613 0.0
H223 H 0.82002 0.19292 0.741 0.0
H224 H 0.88431 0.14756 0.76048 0.0
H225 H 0.91993 0.18884 0.72603 0.0
H226 H 0.91736 0.13336 0.70157 0.0
H227 H 0.86119 0.13119 0.48755 0.0
H228 H 0.90824 0.19571 0.4569 0.0
H229 H 0.91909 0.23983 0.6333 0.0
C230 C 0.8065 0.10082 0.69897 0.0
C231 C 0.78196 0.06397 0.67625 0.0
C232 C 0.78622 0.05341 0.6176 0.0
C233 C 0.81324 0.0798 0.58158 0.0
C234 C 0.83633 0.1163 0.60498 0.0
C235 C 0.83387 0.12653 0.66244 0.0
C236 C 0.86197 0.16795 0.67631 0.0
C237 C 0.83489 0.20314 0.69936 0.0
C238 C 0.89804 0.15887 0.7186 0.0
C239 C 0.87978 0.1798 0.61742 0.0
C240 C 0.86433 0.14963 0.57691 0.0
C241 C 0.87407 0.15472 0.51895 0.0
C242 C 0.90058 0.19154 0.50192 0.0
C243 C 0.91746 0.22244 0.54279 0.0
C244 C 0.90707 0.21633 0.60131 0.0
H245 H 0.75642 0.86061 0.77571 0.0
H246 H 0.69511 0.88996 0.93524 0.0
H247 H 0.73391 0.83445 -0.0149 0.0
H248 H 0.76578 0.74213 0.80232 0.0
H249 H 0.81844 0.74506 0.77049 0.0
H250 H 0.77945 0.7803 0.74524 0.0
H251 H 0.83387 0.84735 0.76454 0.0
H252 H 0.87281 0.81247 0.79019 0.0
H253 H 0.85688 0.8554 0.83524 0.0
H254 H 0.78444 0.78091 0.01928 0.0
H255 H 0.84641 0.7381 0.03656 0.0
H256 H 0.879 0.74852 0.85623 0.0
C257 C 0.75004 0.85407 0.82066 0.0
C258 C 0.72213 0.87866 0.85154 0.0
C259 C 0.71593 0.87085 0.91084 0.0
C260 C 0.73773 0.83935 0.93939 0.0
C261 C 0.76606 0.81641 0.90813 0.0
C262 C 0.77242 0.82354 0.85007 0.0
C263 C 0.8088 0.79907 0.82808 0.0
C264 C 0.79211 0.76459 0.78392 0.0
C265 C 0.84523 0.83045 0.80307 0.0
C266 C 0.82273 0.77815 0.88307 0.0
C267 C 0.79698 0.78759 0.92847 0.0
C268 C 0.80458 0.773 -0.01606 0.0
C269 C 0.83982 0.74871 -0.00663 0.0
C270 C 0.86751 0.74013 0.94779 0.0
C271 C 0.85836 0.75459 0.8919 0.0
loop_
_geom_bond_atom_site_label_1
_geom_bond_atom_site_label_2
_geom_bond_distance
_geom_bond_site_symmetry_2
_ccdc_geom_bond_type
C0 O1 1.306 . S
C0 O3 1.160 1_455 S
O1 C0 1.306 . S
O1 Cd2 2.228 1_556 S
Cd2 O1 2.228 1_554 S
Cd2 O6 2.273 . S
Cd2 O10 2.277 . S
O3 C0 1.160 1_655 S
O3 Cd4 2.203 1_556 S
Cd4 O3 2.203 1_554 S
Cd4 O6 2.411 1_655 S
Cd4 O7 2.333 1_655 S
Cd4 O8 2.352 1_554 S
Cd4 O12 2.277 . S
Cd4 O13 2.356 . S
C5 O10 1.209 . S
C5 O12 1.226 1_455 S
O6 Cd2 2.273 . S
O6 Cd4 2.411 1_455 S
O6 C9 1.320 . S
O7 Cd4 2.333 1_455 S
O7 C9 1.214 . S
O8 Cd4 2.352 1_556 S
O8 C11 1.258 . S
C9 O6 1.320 . S
C9 O7 1.214 . S
O10 Cd2 2.277 . S
O10 C5 1.209 . S
C11 O8 1.258 . S
C11 O13 1.282 1_556 S
O12 Cd4 2.277 . S
O12 C5 1.226 1_655 S
O13 Cd4 2.356 . S
O13 C11 1.282 1_554 S
C14 O15 1.306 1_545 S
C14 O17 1.160 . S
O15 C14 1.306 1_565 S
O15 Cd16 2.228 . S
Cd16 O15 2.228 . S
Cd16 O20 2.273 . S
Cd16 O24 2.277 . S
O17 C14 1.160 . S
O17 Cd18 2.203 . S
Cd18 O17 2.203 . S
Cd18 O20 2.411 1_545 S
Cd18 O21 2.333 1_545 S
Cd18 O22 2.352 . S
Cd18 O26 2.277 . S
Cd18 O27 2.356 . S
C19 O24 1.209 1_545 S
C19 O26 1.226 . S
O20 Cd16 2.273 . S
O20 Cd18 2.411 1_565 S
O20 C23 1.320 . S
O21 Cd18 2.333 1_565 S
O21 C23 1.214 . S
O22 Cd18 2.352 . S
O22 C25 1.258 . S
C23 O20 1.320 . S
C23 O21 1.214 . S
O24 Cd16 2.277 . S
O24 C19 1.209 1_565 S
C25 O22 1.258 . S
C25 O27 1.282 . S
O26 Cd18 2.277 . S
O26 C19 1.226 . S
O27 Cd18 2.356 . S
O27 C25 1.282 . S
C28 O29 1.306 1_455 S
C28 O31 1.160 . S
O29 C28 1.306 1_655 S
O29 Cd30 2.228 . S
Cd30 O29 2.228 . S
Cd30 O34 2.273 . S
Cd30 O38 2.277 . S
O31 C28 1.160 . S
O31 Cd32 2.203 . S
Cd32 O31 2.203 . S
Cd32 O34 2.411 1_455 S
Cd32 O35 2.333 1_455 S
Cd32 O36 2.352 . S
Cd32 O40 2.277 . S
Cd32 O41 2.356 . S
C33 O38 1.209 1_455 S
C33 O40 1.226 . S
O34 Cd30 2.273 . S
O34 Cd32 2.411 1_655 S
O34 C37 1.320 . S
O35 Cd32 2.333 1_655 S
O35 C37 1.214 . S
O36 Cd32 2.352 . S
O36 C39 1.258 . S
C37 O34 1.320 . S
C37 O35 1.214 . S
O38 Cd30 2.277 . S
O38 C33 1.209 1_655 S
C39 O36 1.258 . S
C39 O41 1.282 . S
O40 Cd32 2.277 . S
O40 C33 1.226 . S
O41 Cd32 2.356 . S
O41 C39 1.282 . S
C42 O43 1.306 . S
C42 O45 1.160 1_545 S
O43 C42 1.306 . S
O43 Cd44 2.228 . S
Cd44 O43 2.228 . S
Cd44 O48 2.273 . S
Cd44 O52 2.277 . S
O45 C42 1.160 1_565 S
O45 Cd46 2.203 . S
Cd46 O45 2.203 . S
Cd46 O48 2.411 1_565 S
Cd46 O49 2.333 1_565 S
Cd46 O50 2.352 . S
Cd46 O54 2.277 . S
Cd46 O55 2.356 . S
C47 O52 1.209 . S
C47 O54 1.226 1_545 S
O48 Cd44 2.273 . S
O48 Cd46 2.411 1_545 S
O48 C51 1.320 . S
O49 Cd46 2.333 1_545 S
O49 C51 1.214 . S
O50 Cd46 2.352 . S
O50 C53 1.258 . S
C51 O48 1.320 . S
C51 O49 1.214 . S
O52 Cd44 2.277 . S
O52 C47 1.209 . S
C53 O50 1.258 . S
C53 O55 1.282 . S
O54 Cd46 2.277 . S
O54 C47 1.226 1_565 S
O55 Cd46 2.356 . S
O55 C53 1.282 . S
H56 C68 0.930 . S
H57 C70 0.930 . S
H58 C71 0.930 . S
H59 C75 0.959 . S
H60 C75 0.959 . S
H61 C75 0.961 . S
H62 C76 0.960 1_655 S
H63 C76 0.961 1_655 S
H64 C76 0.959 . S
H65 C79 0.929 . S
H66 C80 0.931 . S
H67 C82 0.930 . S
C68 H56 0.930 . S
C68 C69 1.399 1_655 S
C68 C73 1.402 . S
C69 C68 1.399 1_455 S
C69 C70 1.376 . S
C70 H57 0.930 . S
C70 C69 1.376 . S
C70 C71 1.388 . S
C71 H58 0.930 . S
C71 C70 1.388 . S
C71 C72 1.390 . S
C72 C71 1.390 . S
C72 C73 1.386 1_455 S
C72 C78 1.465 . S
C73 C68 1.402 . S
C73 C72 1.386 1_655 S
C73 C74 1.520 . S
C74 C73 1.520 . S
C74 C75 1.502 . S
C74 C76 1.561 1_655 S
C74 C77 1.526 1_655 S
C75 H59 0.959 . S
C75 H60 0.959 . S
C75 H61 0.961 . S
C75 C74 1.502 . S
C76 H62 0.960 1_455 S
C76 H63 0.961 1_455 S
C76 H64 0.959 . S
C76 C74 1.561 1_455 S
C77 C74 1.526 1_455 S
C77 C78 1.396 . S
C77 C82 1.390 1_455 S
C78 C72 1.465 . S
C78 C77 1.396 . S
C78 C79 1.399 . S
C79 H65 0.929 . S
C79 C78 1.399 . S
C79 C80 1.385 . S
C80 H66 0.931 . S
C80 C79 1.385 . S
C80 C81 1.389 . S
C81 C80 1.389 . S
C81 C82 1.387 1_455 S
C82 H67 0.930 . S
C82 C77 1.390 1_655 S
C82 C81 1.387 1_655 S
H83 C95 0.930 . S
H84 C97 0.930 . S
H85 C98 0.930 . S
H86 C102 0.959 . S
H87 C102 0.959 . S
H88 C102 0.961 . S
H89 C103 0.960 . S
H90 C103 0.961 . S
H91 C103 0.959 . S
H92 C106 0.929 . S
H93 C107 0.931 . S
H94 C109 0.930 . S
C95 H83 0.930 . S
C95 C96 1.399 1_565 S
C95 C100 1.399 . S
C96 C95 1.399 1_545 S
C96 C97 1.376 . S
C97 H84 0.930 . S
C97 C96 1.376 . S
C97 C98 1.388 . S
C98 H85 0.930 . S
C98 C97 1.388 . S
C98 C99 1.390 . S
C99 C98 1.390 . S
C99 C100 1.394 1_545 S
C99 C105 1.465 . S
C100 C95 1.399 . S
C100 C99 1.394 1_565 S
C100 C101 1.516 . S
C101 C100 1.516 . S
C101 C102 1.502 . S
C101 C103 1.561 . S
C101 C104 1.526 . S
C102 H86 0.959 . S
C102 H87 0.959 . S
C102 H88 0.961 . S
C102 C101 1.502 . S
C103 H89 0.960 . S
C103 H90 0.961 . S
C103 H91 0.959 . S
C103 C101 1.561 . S
C104 C101 1.526 . S
C104 C105 1.396 1_565 S
C104 C109 1.390 . S
C105 C99 1.465 . S
C105 C104 1.396 1_545 S
C105 C106 1.399 . S
C106 H92 0.929 . S
C106 C105 1.399 . S
C106 C107 1.385 . S
C107 H93 0.931 . S
C107 C106 1.385 . S
C107 C108 1.389 . S
C108 C107 1.389 . S
C108 C109 1.387 1_545 S
C109 H94 0.930 . S
C109 C104 1.390 . S
C109 C108 1.387 1_565 S
H110 C122 0.930 . S
H111 C124 0.930 . S
H112 C125 0.930 . S
H113 C129 0.959 . S
H114 C129 0.959 . S
H115 C129 0.961 . S
H116 C130 0.960 . S
H117 C130 0.961 . S
H118 C130 0.959 . S
H119 C133 0.929 . S
H120 C134 0.931 . S
H121 C136 0.930 . S
C122 H110 0.930 . S
C122 C123 1.399 . S
C122 C127 1.399 . S
C123 C122 1.399 . S
C123 C124 1.376 1_455 S
C124 H111 0.930 . S
C124 C123 1.376 1_655 S
C124 C125 1.388 . S
C125 H112 0.930 . S
C125 C124 1.388 . S
C125 C126 1.390 . S
C126 C125 1.390 . S
C126 C127 1.394 1_655 S
C126 C132 1.465 . S
C127 C122 1.399 . S
C127 C126 1.394 1_455 S
C127 C128 1.516 . S
C128 C127 1.516 . S
C128 C129 1.502 . S
C128 C130 1.561 . S
C128 C131 1.526 . S
C129 H113 0.959 . S
C129 H114 0.959 . S
C129 H115 0.961 . S
C129 C128 1.502 . S
C130 H116 0.960 . S
C130 H117 0.961 . S
C130 H118 0.959 . S
C130 C128 1.561 . S
C131 C128 1.526 . S
C131 C132 1.396 1_455 S
C131 C136 1.390 . S
C132 C126 1.465 . S
C132 C131 1.396 1_655 S
C132 C133 1.399 . S
C133 H119 0.929 . S
C133 C132 1.399 . S
C133 C134 1.385 . S
C134 H120 0.931 . S
C134 C133 1.385 . S
C134 C135 1.389 1_655 S
C135 C134 1.389 1_455 S
C135 C136 1.387 . S
C136 H121 0.930 . S
C136 C131 1.390 . S
C136 C135 1.387 . S
H137 C149 0.930 . S
H138 C151 0.930 . S
H139 C152 0.930 . S
H140 C156 0.959 . S
H141 C156 0.959 . S
H142 C156 0.961 . S
H143 C157 0.960 1_554 S
H144 C157 0.961 . S
H145 C157 0.959 . S
H146 C160 0.929 . S
H147 C161 0.931 . S
H148 C163 0.930 . S
C149 H137 0.930 . S
C149 C150 1.399 1_565 S
C149 C154 1.401 . S
C150 C149 1.399 1_545 S
C150 C151 1.376 . S
C151 H138 0.930 . S
C151 C150 1.376 . S
C151 C152 1.388 . S
C152 H139 0.930 . S
C152 C151 1.388 . S
C152 C153 1.390 . S
C153 C152 1.390 . S
C153 C154 1.379 1_545 S
C153 C159 1.465 1_554 S
C154 C149 1.401 . S
C154 C153 1.379 1_565 S
C154 C155 1.527 . S
C155 C154 1.527 . S
C155 C156 1.502 . S
C155 C157 1.561 1_554 S
C155 C158 1.526 1_554 S
C156 H140 0.959 . S
C156 H141 0.959 . S
C156 H142 0.961 . S
C156 C155 1.502 . S
C157 H143 0.960 1_556 S
C157 H144 0.961 . S
C157 H145 0.959 . S
C157 C155 1.561 1_556 S
C158 C155 1.526 1_556 S
C158 C159 1.396 1_565 S
C158 C163 1.390 . S
C159 C153 1.465 1_556 S
C159 C158 1.396 1_545 S
C159 C160 1.399 . S
C160 H146 0.929 . S
C160 C159 1.399 . S
C160 C161 1.385 . S
C161 H147 0.931 . S
C161 C160 1.385 . S
C161 C162 1.389 . S
C162 C161 1.389 . S
C162 C163 1.387 1_545 S
C163 H148 0.930 . S
C163 C158 1.390 . S
C163 C162 1.387 1_565 S
H164 C176 0.930 . S
H165 C178 0.930 . S
H166 C179 0.930 . S
H167 C183 0.959 . S
H168 C183 0.959 . S
H169 C183 0.961 . S
H170 C184 0.960 . S
H171 C184 0.961 1_556 S
H172 C184 0.959 . S
H173 C187 0.929 . S
H174 C188 0.931 . S
H175 C190 0.930 . S
C176 H164 0.930 . S
C176 C177 1.399 . S
C176 C181 1.399 . S
C177 C176 1.399 . S
C177 C178 1.376 . S
C178 H165 0.930 . S
C178 C177 1.376 . S
C178 C179 1.388 . S
C179 H166 0.930 . S
C179 C178 1.388 . S
C179 C180 1.390 . S
C180 C179 1.390 . S
C180 C181 1.394 . S
C180 C186 1.465 . S
C181 C176 1.399 . S
C181 C180 1.394 . S
C181 C182 1.516 . S
C182 C181 1.516 . S
C182 C183 1.502 . S
C182 C184 1.561 . S
C182 C185 1.526 . S
C183 H167 0.959 . S
C183 H168 0.959 . S
C183 H169 0.961 . S
C183 C182 1.502 . S
C184 H170 0.960 . S
C184 H171 0.961 1_554 S
C184 H172 0.959 . S
C184 C182 1.561 . S
C185 C182 1.526 . S
C185 C186 1.396 . S
C185 C190 1.390 . S
C186 C180 1.465 . S
C186 C185 1.396 . S
C186 C187 1.399 . S
C187 H173 0.929 . S
C187 C186 1.399 . S
C187 C188 1.385 . S
C188 H174 0.931 . S
C188 C187 1.385 . S
C188 C189 1.389 . S
C189 C188 1.389 . S
C189 C190 1.387 . S
C190 H175 0.930 . S
C190 C185 1.390 . S
C190 C189 1.387 . S
H191 C203 0.930 . S
H192 C205 0.930 . S
H193 C206 0.930 . S
H194 C210 0.959 . S
H195 C210 0.959 . S
H196 C210 0.961 . S
H197 C211 0.960 . S
H198 C211 0.961 . S
H199 C211 0.959 . S
H200 C214 0.929 . S
H201 C215 0.931 . S
H202 C217 0.930 . S
C203 H191 0.930 . S
C203 C204 1.399 . S
C203 C208 1.399 . S
C204 C203 1.399 . S
C204 C205 1.376 . S
C205 H192 0.930 . S
C205 C204 1.376 . S
C205 C206 1.388 . S
C206 H193 0.930 . S
C206 C205 1.388 . S
C206 C207 1.390 . S
C207 C206 1.390 . S
C207 C208 1.394 . S
C207 C213 1.465 . S
C208 C203 1.399 . S
C208 C207 1.394 . S
C208 C209 1.516 . S
C209 C208 1.516 . S
C209 C210 1.502 . S
C209 C211 1.561 . S
C209 C212 1.526 . S
C210 H194 0.959 . S
C210 H195 0.959 . S
C210 H196 0.961 . S
C210 C209 1.502 . S
C211 H197 0.960 . S
C211 H198 0.961 . S
C211 H199 0.959 . S
C211 C209 1.561 . S
C212 C209 1.526 . S
C212 C213 1.396 . S
C212 C217 1.390 . S
C213 C207 1.465 . S
C213 C212 1.396 . S
C213 C214 1.399 . S
C214 H200 0.929 . S
C214 C213 1.399 . S
C214 C215 1.385 . S
C215 H201 0.931 . S
C215 C214 1.385 . S
C215 C216 1.389 . S
C216 C215 1.389 . S
C216 C217 1.387 . S
C217 H202 0.930 . S
C217 C212 1.390 . S
C217 C216 1.387 . S
H218 C230 0.930 . S
H219 C232 0.930 . S
H220 C233 0.930 . S
H221 C237 0.959 . S
H222 C237 0.959 . S
H223 C237 0.961 . S
H224 C238 0.960 . S
H225 C238 0.961 . S
H226 C238 0.959 . S
H227 C241 0.929 . S
H228 C242 0.931 . S
H229 C244 0.930 . S
C230 H218 0.930 . S
C230 C231 1.399 . S
C230 C235 1.399 . S
C231 C230 1.399 . S
C231 C232 1.376 . S
C232 H219 0.930 . S
C232 C231 1.376 . S
C232 C233 1.388 . S
C233 H220 0.930 . S
C233 C232 1.388 . S
C233 C234 1.390 . S
C234 C233 1.390 . S
C234 C235 1.394 . S
C234 C240 1.465 . S
C235 C230 1.399 . S
C235 C234 1.394 . S
C235 C236 1.516 . S
C236 C235 1.516 . S
C236 C237 1.502 . S
C236 C238 1.561 . S
C236 C239 1.526 . S
C237 H221 0.959 . S
C237 H222 0.959 . S
C237 H223 0.961 . S
C237 C236 1.502 . S
C238 H224 0.960 . S
C238 H225 0.961 . S
C238 H226 0.959 . S
C238 C236 1.561 . S
C239 C236 1.526 . S
C239 C240 1.396 . S
C239 C244 1.390 . S
C240 C234 1.465 . S
C240 C239 1.396 . S
C240 C241 1.399 . S
C241 H227 0.929 . S
C241 C240 1.399 . S
C241 C242 1.385 . S
C242 H228 0.931 . S
C242 C241 1.385 . S
C242 C243 1.389 . S
C243 C242 1.389 . S
C243 C244 1.387 . S
C244 H229 0.930 . S
C244 C239 1.390 . S
C244 C243 1.387 . S
H245 C257 0.930 . S
H246 C259 0.930 . S
H247 C260 0.930 . S
H248 C264 0.959 . S
H249 C264 0.959 . S
H250 C264 0.961 . S
H251 C265 0.960 . S
H252 C265 0.961 . S
H253 C265 0.959 . S
H254 C268 0.931 . S
H255 C269 0.931 1_554 S
H256 C271 0.930 . S
C257 H245 0.930 . S
C257 C258 1.399 . S
C257 C262 1.399 . S
C258 C257 1.399 . S
C258 C259 1.376 . S
C259 H246 0.930 . S
C259 C258 1.376 . S
C259 C260 1.388 . S
C260 H247 0.930 . S
C260 C259 1.388 . S
C260 C261 1.390 . S
C261 C260 1.390 . S
C261 C262 1.394 . S
C261 C267 1.465 . S
C262 C257 1.399 . S
C262 C261 1.394 . S
C262 C263 1.516 . S
C263 C262 1.516 . S
C263 C264 1.502 . S
C263 C265 1.561 . S
C263 C266 1.526 . S
C264 H248 0.959 . S
C264 H249 0.959 . S
C264 H250 0.961 . S
C264 C263 1.502 . S
C265 H251 0.960 . S
C265 H252 0.961 . S
C265 H253 0.959 . S
C265 C263 1.561 . S
C266 C263 1.526 . S
C266 C267 1.396 . S
C266 C271 1.390 . S
C267 C261 1.465 . S
C267 C266 1.396 . S
C267 C268 1.399 . S
C268 H254 0.931 . S
C268 C267 1.399 . S
C268 C269 1.385 . S
C269 H255 0.931 1_556 S
C269 C268 1.385 . S
C269 C270 1.389 . S
C270 C269 1.389 . S
C270 C271 1.387 . S
C271 H256 0.930 . S
C271 C266 1.390 . S
C271 C270 1.387 . S
C69 C5 1.398 . S
C81 C28 1.399 . S
C96 C14 1.398 . S
C108 C47 1.398 . S
C123 C0 1.409 . S
C135 C33 1.396 . S
C150 C19 1.410 . S
C162 C42 1.389 . S
C177 C23 1.485 . S
C189 C9 1.472 . S
C204 C25 1.478 . S
C216 C39 1.478 . S
C231 C51 1.454 . S
C243 C37 1.465 . S
C258 C53 1.476 . S
C270 C11 1.472 . S
