# Generated by pormake.
# Topology fee, (5)-cn, num edge types: 1
# Building blocks:
#     Node 0, Type 0, BuildingBlock: XOMCOT_clean_sbu_0, # of connection points: 5
#     Node 1, Type 0, BuildingBlock: XOMCOT_clean_sbu_0, # of connection points: 5
#     Node 2, Type 0, BuildingBlock: XOMCOT_clean_sbu_0, # of connection points: 5
#     Node 3, Type 0, BuildingBlock: XOMCOT_clean_sbu_0, # of connection points: 5
#     Edge 4, Type (0, 0), BuildingBlock: KIFKEQ_clean_linker_1, # of connection points: 2
#     Edge 5, Type (0, 0), BuildingBlock: KIFKEQ_clean_linker_1, # of connection points: 2
#     Edge 6, Type (0, 0), BuildingBlock: KIFKEQ_clean_linker_1, # of connection points: 2
#     Edge 7, Type (0, 0), BuildingBlock: KIFKEQ_clean_linker_1, # of connection points: 2
#     Edge 8, Type (0, 0), BuildingBlock: KIFKEQ_clean_linker_1, # of connection points: 2
#     Edge 9, Type (0, 0), BuildingBlock: KIFKEQ_clean_linker_1, # of connection points: 2
#     Edge 10, Type (0, 0), BuildingBlock: KIFKEQ_clean_linker_1, # of connection points: 2
#     Edge 11, Type (0, 0), BuildingBlock: KIFKEQ_clean_linker_1, # of connection points: 2
#     Edge 12, Type (0, 0), BuildingBlock: KIFKEQ_clean_linker_1, # of connection points: 2
#     Edge 13, Type (0, 0), BuildingBlock: KIFKEQ_clean_linker_1, # of connection points: 2
# Relax obj value: 0.155
# Max RMSD: 0.169
# Mean RMSD: 0.151
data_MOF--net-fee--node1-XOMCOT_clean_sbu_0--edge1-KIFKEQ_clean_linker_1
_symmetry_space_group_name_H-M    P1
_symmetry_Int_Tables_number       1
_symmetry_cell_setting            triclinic
loop_
_symmetry_equiv_pos_as_xyz
'x, y, z'
_cell_length_a     39.152267
_cell_length_b     39.018956
_cell_length_c     17.912726
_cell_angle_alpha  96.082875
_cell_angle_beta   96.054442
_cell_angle_gamma 89.751605
loop_
_atom_site_label
_atom_site_type_symbol
_atom_site_fract_x
_atom_site_fract_y
_atom_site_fract_z
_atom_type_partial_charge
Co0 Co 0.18169 0.5397 0.09019 0.0
C1 C 0.18929 0.53804 0.25668 0.0
C2 C 0.20434 0.58685 0.22477 0.0
C3 C 0.20791 0.58857 0.30222 0.0
N4 N 0.19298 0.55511 0.19621 0.0
N5 N 0.19838 0.55795 0.32229 0.0
H6 H 0.17996 0.51177 0.25268 0.0
H7 H 0.2089 0.60772 0.19184 0.0
C8 C 0.2453 0.57093 0.03914 0.0
O9 O 0.25561 0.54091 1.00958 0.0
N10 N 0.16926 0.52514 0.98241 0.0
C11 C 0.14457 0.50191 0.95307 0.0
C12 C 0.14286 0.49871 0.87578 0.0
C13 C 0.1811 0.53677 0.92118 0.0
N14 N 0.1659 0.52053 0.85568 0.0
C15 C 0.20633 0.47054 0.06459 0.0
C16 C 0.27222 0.48221 0.13427 0.0
C17 C 0.26412 0.45023 0.09273 0.0
C18 C 0.23041 0.44422 0.05982 0.0
C19 C 0.2473 0.50814 0.13666 0.0
N20 N 0.21545 0.50279 0.09761 0.0
H21 H 0.18036 0.46483 0.04097 0.0
H22 H 0.25424 0.53309 0.16649 0.0
H23 H 0.12871 0.48778 0.98522 0.0
H24 H 0.2001 0.55683 0.92351 0.0
O25 O 0.14229 0.51539 0.11502 0.0
O26 O 0.14223 0.56968 0.08869 0.0
O27 O 0.21655 0.57401 0.06678 0.0
C28 C 0.12521 0.54369 0.10673 0.0
H29 H 0.21565 0.61109 0.34083 0.0
H30 H 0.12552 0.48198 0.83727 0.0
H31 H 0.29786 0.48757 0.162 0.0
H32 H 0.2227 0.41932 0.03035 0.0
Co33 Co 0.45977 0.19097 0.09064 0.0
C34 C 0.45893 0.1968 0.2572 0.0
C35 C 0.40891 0.20286 0.19842 0.0
C36 C 0.40585 0.20529 0.27452 0.0
N37 N 0.44215 0.1979 0.1877 0.0
N38 N 0.43726 0.20144 0.31148 0.0
H39 H 0.48627 0.19254 0.26761 0.0
H40 H 0.38816 0.20369 0.15378 0.0
C41 C 0.43109 0.25447 0.02364 0.0
O42 O 0.4606 0.25994 0.99794 0.0
N43 N 0.47671 0.18275 0.9912 0.0
C44 C 0.50447 0.16385 0.97458 0.0
C45 C 0.50729 0.16229 0.89868 0.0
C46 C 0.46183 0.19044 0.92323 0.0
N47 N 0.48064 0.17923 0.86636 0.0
C48 C 0.5288 0.21779 0.11689 0.0
C49 C 0.51156 0.28502 0.16137 0.0
C50 C 0.54464 0.27799 0.14066 0.0
C51 C 0.55368 0.24361 0.1225 0.0
C52 C 0.48735 0.25822 0.1544 0.0
N53 N 0.49536 0.22576 0.12489 0.0
H54 H 0.53635 0.19154 0.10384 0.0
H55 H 0.46154 0.2641 0.16777 0.0
H56 H 0.5211 0.15062 1.01394 0.0
H57 H 0.43758 0.20351 0.91494 0.0
O58 O 0.48385 0.15066 0.1212 0.0
O59 O 0.43068 0.15052 0.06459 0.0
O60 O 0.42648 0.22737 0.0559 0.0
C61 C 0.45637 0.13313 0.09349 0.0
H62 H 0.38212 0.2084 0.30043 0.0
H63 H 0.52688 0.14871 0.86917 0.0
H64 H 0.50386 0.31114 0.17832 0.0
H65 H 0.57957 0.23684 0.11054 0.0
Co66 Co 0.811 0.54037 0.13155 0.0
C67 C 0.80565 0.54216 0.96516 0.0
C68 C 0.79561 0.59132 0.02454 0.0
C69 C 0.79463 0.5951 0.94892 0.0
N70 N 0.80244 0.55819 0.03468 0.0
N71 N 0.80107 0.56426 0.9116 0.0
H72 H 0.81252 0.51532 0.95452 0.0
H73 H 0.79256 0.61162 0.06931 0.0
C74 C 0.74792 0.56704 0.2001 0.0
O75 O 0.74242 0.53625 0.22009 0.0
N76 N 0.82093 0.52346 0.23094 0.0
C77 C 0.84224 0.49736 0.24756 0.0
C78 C 0.84492 0.49483 0.32373 0.0
C79 C 0.81256 0.53756 0.29905 0.0
N80 N 0.82601 0.51995 0.35641 0.0
C81 C 0.784 0.47115 0.11184 0.0
C82 C 0.71773 0.48774 0.05933 0.0
C83 C 0.72414 0.45513 0.08383 0.0
C84 C 0.7581 0.44636 0.10632 0.0
C85 C 0.74455 0.5119 0.06631 0.0
N86 N 0.77647 0.50432 0.09919 0.0
H87 H 0.80989 0.46378 0.12865 0.0
H88 H 0.73894 0.53757 0.05109 0.0
H89 H 0.85608 0.4816 0.20771 0.0
H90 H 0.79771 0.56072 0.30708 0.0
O91 O 0.85068 0.51659 0.09763 0.0
O92 O 0.85115 0.56993 0.15469 0.0
O93 O 0.77509 0.57328 0.16992 0.0
C94 C 0.86817 0.54434 0.12392 0.0
H95 H 0.78991 0.61886 0.9235 0.0
H96 H 0.86065 0.4765 0.3528 0.0
H97 H 0.69196 0.49524 0.03958 0.0
H98 H 0.76442 0.42079 0.12171 0.0
Co99 Co 0.46255 0.81753 0.11217 0.0
C100 C 0.45459 0.81968 0.94412 0.0
C101 C 0.44459 0.76953 0.97591 0.0
C102 C 0.44013 0.76795 0.89848 0.0
N103 N 0.45324 0.80202 1.00493 0.0
N104 N 0.44647 0.79945 0.87857 0.0
H105 H 0.4614 0.84664 0.94712 0.0
H106 H 0.44252 0.74806 1.00853 0.0
C107 C 0.39717 0.78345 0.13104 0.0
O108 O 0.38226 0.81335 0.12469 0.0
N109 N 0.47203 0.83278 0.21923 0.0
C110 C 0.49979 0.85135 0.25099 0.0
C111 C 0.49866 0.85636 0.32776 0.0
C112 C 0.45451 0.8264 0.27751 0.0
N113 N 0.47032 0.84056 0.34442 0.0
C114 C 0.52468 0.7836 0.07327 0.0
C115 C 0.5283 0.74066 0.18724 0.0
C116 C 0.55402 0.73825 0.13789 0.0
C117 C 0.55181 0.7602 0.07999 0.0
C118 C 0.50128 0.76362 0.17726 0.0
N119 N 0.49975 0.78479 0.12114 0.0
H120 H 0.52349 0.80067 0.02929 0.0
H121 H 0.48177 0.7647 0.21576 0.0
H122 H 0.52007 0.85996 0.22072 0.0
H123 H 0.43111 0.8113 0.27164 0.0
O124 O 0.48751 0.85734 0.08992 0.0
O125 O 0.43181 0.85617 0.10141 0.0
O126 O 0.4297 0.78108 0.13269 0.0
C127 C 0.45861 0.87392 0.09086 0.0
H128 H 0.43381 0.74513 0.85967 0.0
H129 H 0.51796 0.86939 0.36859 0.0
H130 H 0.52904 0.72533 0.23429 0.0
H131 H 0.57059 0.75922 0.03964 0.0
H132 H 0.18679 0.57892 0.80348 0.0
H133 H 0.16053 0.47207 0.7354 0.0
H134 H 0.19602 0.58664 0.67365 0.0
H135 H 0.17032 0.47942 0.60611 0.0
H136 H 0.15234 0.5155 0.36933 0.0
H137 H 0.14562 0.50581 0.49936 0.0
H138 H 0.233 0.57227 0.57756 0.0
H139 H 0.2391 0.58236 0.44769 0.0
C140 C 0.1834 0.557 0.76096 0.0
C141 C 0.17269 0.52498 0.77967 0.0
C142 C 0.18875 0.56134 0.68646 0.0
C143 C 0.1838 0.53367 0.62904 0.0
C144 C 0.17369 0.5015 0.64831 0.0
C145 C 0.16812 0.49725 0.72255 0.0
C146 C 0.17034 0.52763 0.41428 0.0
C147 C 0.19612 0.54983 0.39829 0.0
C148 C 0.16654 0.52212 0.48893 0.0
C149 C 0.18864 0.53845 0.5493 0.0
C150 C 0.21503 0.55987 0.53285 0.0
C151 C 0.21864 0.56556 0.45835 0.0
H152 H 0.52832 0.18463 0.76971 0.0
H153 H 0.41897 0.18563 0.78408 0.0
H154 H 0.51856 0.19164 0.63593 0.0
H155 H 0.40899 0.19212 0.64936 0.0
H156 H 0.40436 0.23546 0.4221 0.0
H157 H 0.41498 0.23147 0.55737 0.0
H158 H 0.49782 0.16045 0.5182 0.0
H159 H 0.48742 0.165 0.38296 0.0
C160 C 0.50213 0.186 0.74404 0.0
C161 C 0.4744 0.18428 0.78747 0.0
C162 C 0.49652 0.18999 0.66719 0.0
C163 C 0.46298 0.1922 0.63145 0.0
C164 C 0.4352 0.19093 0.67512 0.0
C165 C 0.44086 0.18715 0.75235 0.0
C166 C 0.42481 0.21897 0.44244 0.0
C167 C 0.44499 0.20046 0.39175 0.0
C168 C 0.43083 0.21658 0.52001 0.0
C169 C 0.45712 0.19548 0.54892 0.0
C170 C 0.47765 0.17734 0.4982 0.0
C171 C 0.47173 0.17992 0.42057 0.0
H172 H 0.82325 0.60849 0.82031 0.0
H173 H 0.78665 0.50448 0.82216 0.0
H174 H 0.82842 0.59762 0.68589 0.0
H175 H 0.79106 0.49358 0.68663 0.0
H176 H 0.83719 0.47511 0.46275 0.0
H177 H 0.83136 0.48578 0.59641 0.0
H178 H 0.79618 0.58894 0.56563 0.0
H179 H 0.80397 0.579 0.4323 0.0
C180 C 0.81589 0.58337 0.79172 0.0
C181 C 0.80439 0.55737 0.83193 0.0
C182 C 0.81875 0.57714 0.71439 0.0
C183 C 0.80998 0.54477 0.67486 0.0
C184 C 0.79852 0.5187 0.71521 0.0
C185 C 0.79592 0.52489 0.7929 0.0
C186 C 0.82868 0.50029 0.48419 0.0
C187 C 0.82149 0.52627 0.43594 0.0
C188 C 0.8248 0.50623 0.56114 0.0
C189 C 0.8133 0.53824 0.59229 0.0
C190 C 0.8056 0.5641 0.54403 0.0
C191 C 0.80971 0.55824 0.467 0.0
H192 H 0.40302 0.77563 0.75729 0.0
H193 H 0.48967 0.84346 0.82788 0.0
H194 H 0.40458 0.78796 0.62708 0.0
H195 H 0.49249 0.85485 0.69746 0.0
H196 H 0.47745 0.88869 0.46464 0.0
H197 H 0.46801 0.88134 0.59437 0.0
H198 H 0.43588 0.77589 0.52383 0.0
H199 H 0.44397 0.78415 0.39373 0.0
C200 C 0.42251 0.79312 0.74467 0.0
C201 C 0.44627 0.80853 0.8026 0.0
C202 C 0.42357 0.80008 0.66993 0.0
C203 C 0.44882 0.82225 0.65095 0.0
C204 C 0.47225 0.83812 0.70953 0.0
C205 C 0.47079 0.83155 0.78448 0.0
C206 C 0.46802 0.86411 0.4771 0.0
C207 C 0.46148 0.83698 0.41928 0.0
C208 C 0.46284 0.85973 0.55156 0.0
C209 C 0.45153 0.82786 0.57043 0.0
C210 C 0.44411 0.80099 0.51183 0.0
C211 C 0.44878 0.80561 0.43707 0.0
H212 H 0.90887 0.49436 0.06351 0.0
H213 H 0.91249 0.59768 0.1778 0.0
H214 H 0.97085 0.49557 0.06126 0.0
H215 H 0.97494 0.59868 0.17673 0.0
H216 H 0.08408 0.49322 0.14323 0.0
H217 H 0.02225 0.49475 0.14921 0.0
H218 H 0.0198 0.59939 0.09061 0.0
H219 H 0.08198 0.59805 0.08596 0.0
C220 C 0.92292 0.51736 0.08827 0.0
C221 C 0.90576 0.5459 0.121 0.0
C222 C 0.95853 0.51796 0.08745 0.0
C223 C 0.97794 0.5471 0.11941 0.0
C224 C 0.96072 0.57591 0.15119 0.0
C225 C 0.92498 0.5753 0.15208 0.0
C226 C 0.07041 0.51664 0.13201 0.0
C227 C 0.08791 0.54547 0.11384 0.0
C228 C 0.0349 0.51744 0.13495 0.0
C229 C 0.01598 0.54709 0.11971 0.0
C230 C 0.03362 0.57623 0.10317 0.0
C231 C 0.06922 0.57542 0.10019 0.0
H232 H 0.40321 0.91631 0.10378 0.0
H233 H 0.51002 0.91634 0.06341 0.0
H234 H 0.40172 0.97886 0.10324 0.0
H235 H 0.50837 0.97865 0.06103 0.0
H236 H 0.50579 0.09164 0.15342 0.0
H237 H 0.50519 0.02913 0.14926 0.0
H238 H 0.40423 0.02575 0.02518 0.0
H239 H 0.40456 0.08865 0.03093 0.0
C240 C 0.42625 0.92962 0.09381 0.0
C241 C 0.45678 0.91139 0.08399 0.0
C242 C 0.42537 0.96548 0.09322 0.0
C243 C 0.455 0.98391 0.08272 0.0
C244 C 0.48524 0.96543 0.07077 0.0
C245 C 0.48613 0.92964 0.07155 0.0
C246 C 0.48339 0.07761 0.12542 0.0
C247 C 0.45522 0.09513 0.09247 0.0
C248 C 0.48316 0.04169 0.12249 0.0
C249 C 0.45479 0.02228 0.0863 0.0
C250 C 0.4264 0.03986 0.05403 0.0
C251 C 0.42662 0.07591 0.05708 0.0
H252 H 0.42488 0.31046 0.94284 0.0
H253 H 0.37999 0.26259 0.11648 0.0
H254 H 0.38563 0.35918 0.95911 0.0
H255 H 0.34138 0.31127 0.13315 0.0
H256 H 0.30854 0.4237 0.20023 0.0
H257 H 0.34922 0.37631 0.18102 0.0
H258 H 0.31956 0.36885 0.9408 0.0
H259 H 0.27875 0.41581 0.96009 0.0
C260 C 0.40652 0.31018 0.98396 0.0
C261 C 0.40545 0.28251 0.02797 0.0
C262 C 0.38412 0.33805 0.99331 0.0
C263 C 0.36071 0.3391 0.0479 0.0
C264 C 0.35944 0.31132 0.09131 0.0
C265 C 0.38134 0.28324 0.08106 0.0
C266 C 0.31099 0.41206 0.14342 0.0
C267 C 0.29044 0.42322 0.08171 0.0
C268 C 0.33404 0.38488 0.13243 0.0
C269 C 0.33741 0.36887 0.0594 0.0
C270 C 0.3176 0.3808 0.99758 0.0
C271 C 0.29415 0.4075 1.00869 0.0
H272 H 0.66925 0.43498 0.98025 0.0
H273 H 0.71474 0.42173 0.2055 0.0
H274 H 0.62331 0.39425 0.99425 0.0
H275 H 0.66905 0.38129 0.21949 0.0
H276 H 0.56291 0.33489 0.24059 0.0
H277 H 0.60422 0.38027 0.22612 0.0
H278 H 0.62178 0.32974 1.00731 0.0
H279 H 0.58076 0.28462 0.02176 0.0
C280 C 0.66929 0.42351 0.03273 0.0
C281 C 0.69571 0.43117 0.09143 0.0
C282 C 0.64314 0.40018 0.0407 0.0
C283 C 0.64264 0.38466 0.10803 0.0
C284 C 0.66861 0.39306 0.16727 0.0
C285 C 0.69495 0.4159 0.1589 0.0
C286 C 0.57552 0.33368 0.1894 0.0
C287 C 0.56896 0.30608 0.13271 0.0
C288 C 0.59918 0.3595 0.18118 0.0
C289 C 0.61616 0.3585 0.11552 0.0
C290 C 0.60889 0.33134 0.05818 0.0
C291 C 0.58571 0.30534 0.06687 0.0
H292 H 0.62107 0.74383 0.10493 0.0
H293 H 0.55263 0.67501 0.19277 0.0
H294 H 0.66718 0.70272 0.1205 0.0
H295 H 0.59949 0.63616 0.21676 0.0
H296 H 0.67938 0.55421 0.18178 0.0
H297 H 0.63319 0.59511 0.16457 0.0
H298 H 0.70721 0.67894 0.20207 0.0
H299 H 0.75357 0.63725 0.21333 0.0
C300 C 0.6157 0.72008 0.1278 0.0
C301 C 0.58276 0.71313 0.14759 0.0
C302 C 0.64255 0.69666 0.13833 0.0
C303 C 0.6375 0.66588 0.17048 0.0
C304 C 0.60461 0.6591 0.19065 0.0
C305 C 0.57762 0.68201 0.17828 0.0
C306 C 0.68568 0.58144 0.18726 0.0
C307 C 0.72001 0.5926 0.19951 0.0
C308 C 0.65911 0.60509 0.17762 0.0
C309 C 0.66608 0.64071 0.18199 0.0
C310 C 0.7006 0.65182 0.19653 0.0
C311 C 0.72726 0.628 0.20407 0.0
H312 H 0.4169 0.717 0.09543 0.0
H313 H 0.32958 0.77792 0.15476 0.0
H314 H 0.38082 0.66615 0.06855 0.0
H315 H 0.29376 0.72634 0.1352 0.0
H316 H 0.22769 0.63748 0.02388 0.0
H317 H 0.26477 0.68818 0.04746 0.0
H318 H 0.35125 0.6232 0.10717 0.0
H319 H 0.31434 0.57261 0.07684 0.0
C320 C 0.39002 0.71943 0.10407 0.0
C321 C 0.37602 0.7517 0.12595 0.0
C322 C 0.36919 0.68998 0.08937 0.0
C323 C 0.33391 0.69168 0.09865 0.0
C324 C 0.3204 0.72383 0.12462 0.0
C325 C 0.34107 0.7535 0.13702 0.0
C326 C 0.2548 0.63422 0.04081 0.0
C327 C 0.2683 0.60122 0.04763 0.0
C328 C 0.27611 0.66334 0.05562 0.0
C329 C 0.31132 0.66032 0.08028 0.0
C330 C 0.32463 0.62697 0.08686 0.0
C331 C 0.30347 0.59778 0.06965 0.0
loop_
_geom_bond_atom_site_label_1
_geom_bond_atom_site_label_2
_geom_bond_distance
_geom_bond_site_symmetry_2
_ccdc_geom_bond_type
Co0 N4 2.148 . S
Co0 N10 2.128 1_554 S
Co0 N20 2.194 . S
Co0 O25 2.351 . S
Co0 O26 2.155 . S
Co0 O27 2.096 . S
C1 N4 1.301 . S
C1 N5 1.328 . S
C1 H6 0.930 . S
C2 C3 1.333 . S
C2 N4 1.317 . S
C2 H7 0.930 . S
C3 C2 1.333 . S
C3 N5 1.350 . S
C3 H29 0.931 . S
N4 Co0 2.148 . S
N4 C1 1.301 . S
N4 C2 1.317 . S
N5 C1 1.328 . S
N5 C3 1.350 . S
H6 C1 0.930 . S
H7 C2 0.930 . S
C8 O9 1.224 . S
C8 O27 1.247 . S
O9 C8 1.224 . S
N10 Co0 2.128 1_556 S
N10 C11 1.355 . S
N10 C13 1.311 . S
C11 N10 1.355 . S
C11 C12 1.363 . S
C11 H23 0.929 . S
C12 C11 1.363 . S
C12 N14 1.375 . S
C12 H30 0.931 . S
C13 N10 1.311 . S
C13 N14 1.347 . S
C13 H24 0.929 . S
N14 C12 1.375 . S
N14 C13 1.347 . S
C15 C18 1.365 . S
C15 N20 1.328 . S
C15 H21 0.929 . S
C16 C17 1.362 . S
C16 C19 1.378 . S
C16 H31 0.929 . S
C17 C16 1.362 . S
C17 C18 1.366 . S
C18 C15 1.365 . S
C18 C17 1.366 . S
C18 H32 0.930 . S
C19 C16 1.378 . S
C19 N20 1.315 . S
C19 H22 0.930 . S
N20 Co0 2.194 . S
N20 C15 1.328 . S
N20 C19 1.315 . S
H21 C15 0.929 . S
H22 C19 0.930 . S
H23 C11 0.929 . S
H24 C13 0.929 . S
O25 Co0 2.351 . S
O25 C28 1.244 . S
O26 Co0 2.155 . S
O26 C28 1.240 . S
O27 Co0 2.096 . S
O27 C8 1.247 . S
C28 O25 1.244 . S
C28 O26 1.240 . S
H29 C3 0.931 . S
H30 C12 0.931 . S
H31 C16 0.929 . S
H32 C18 0.930 . S
Co33 N37 2.148 . S
Co33 N43 2.128 1_554 S
Co33 N53 2.194 . S
Co33 O58 2.351 . S
Co33 O59 2.155 . S
Co33 O60 2.096 . S
C34 N37 1.301 . S
C34 N38 1.328 . S
C34 H39 0.930 . S
C35 C36 1.333 . S
C35 N37 1.317 . S
C35 H40 0.930 . S
C36 C35 1.333 . S
C36 N38 1.350 . S
C36 H62 0.931 . S
N37 Co33 2.148 . S
N37 C34 1.301 . S
N37 C35 1.317 . S
N38 C34 1.328 . S
N38 C36 1.350 . S
H39 C34 0.930 . S
H40 C35 0.930 . S
C41 O42 1.224 . S
C41 O60 1.247 . S
O42 C41 1.224 . S
N43 Co33 2.128 1_556 S
N43 C44 1.355 . S
N43 C46 1.311 . S
C44 N43 1.355 . S
C44 C45 1.363 . S
C44 H56 0.929 . S
C45 C44 1.363 . S
C45 N47 1.375 . S
C45 H63 0.931 . S
C46 N43 1.311 . S
C46 N47 1.347 . S
C46 H57 0.929 . S
N47 C45 1.375 . S
N47 C46 1.347 . S
C48 C51 1.365 . S
C48 N53 1.328 . S
C48 H54 0.929 . S
C49 C50 1.362 . S
C49 C52 1.378 . S
C49 H64 0.929 . S
C50 C49 1.362 . S
C50 C51 1.366 . S
C51 C48 1.365 . S
C51 C50 1.366 . S
C51 H65 0.930 . S
C52 C49 1.378 . S
C52 N53 1.315 . S
C52 H55 0.930 . S
N53 Co33 2.194 . S
N53 C48 1.328 . S
N53 C52 1.315 . S
H54 C48 0.929 . S
H55 C52 0.930 . S
H56 C44 0.929 . S
H57 C46 0.929 . S
O58 Co33 2.351 . S
O58 C61 1.244 . S
O59 Co33 2.155 . S
O59 C61 1.240 . S
O60 Co33 2.096 . S
O60 C41 1.247 . S
C61 O58 1.244 . S
C61 O59 1.240 . S
H62 C36 0.931 . S
H63 C45 0.931 . S
H64 C49 0.929 . S
H65 C51 0.930 . S
Co66 N70 2.148 . S
Co66 N76 2.128 . S
Co66 N86 2.194 . S
Co66 O91 2.351 . S
Co66 O92 2.155 . S
Co66 O93 2.096 . S
C67 N70 1.301 1_556 S
C67 N71 1.328 . S
C67 H72 0.930 . S
C68 C69 1.333 . S
C68 N70 1.317 1_556 S
C68 H73 0.930 1_556 S
C69 C68 1.333 . S
C69 N71 1.350 . S
C69 H95 0.931 . S
N70 Co66 2.148 . S
N70 C67 1.301 1_554 S
N70 C68 1.317 1_554 S
N71 C67 1.328 . S
N71 C69 1.350 . S
H72 C67 0.930 . S
H73 C68 0.930 1_554 S
C74 O75 1.224 . S
C74 O93 1.247 . S
O75 C74 1.224 . S
N76 Co66 2.128 . S
N76 C77 1.355 . S
N76 C79 1.311 . S
C77 N76 1.355 . S
C77 C78 1.363 . S
C77 H89 0.929 . S
C78 C77 1.363 . S
C78 N80 1.375 . S
C78 H96 0.931 . S
C79 N76 1.311 . S
C79 N80 1.347 . S
C79 H90 0.929 . S
N80 C78 1.375 . S
N80 C79 1.347 . S
C81 C84 1.365 . S
C81 N86 1.328 . S
C81 H87 0.929 . S
C82 C83 1.362 . S
C82 C85 1.378 . S
C82 H97 0.929 . S
C83 C82 1.362 . S
C83 C84 1.366 . S
C84 C81 1.365 . S
C84 C83 1.366 . S
C84 H98 0.930 . S
C85 C82 1.378 . S
C85 N86 1.315 . S
C85 H88 0.930 . S
N86 Co66 2.194 . S
N86 C81 1.328 . S
N86 C85 1.315 . S
H87 C81 0.929 . S
H88 C85 0.930 . S
H89 C77 0.929 . S
H90 C79 0.929 . S
O91 Co66 2.351 . S
O91 C94 1.244 . S
O92 Co66 2.155 . S
O92 C94 1.240 . S
O93 Co66 2.096 . S
O93 C74 1.247 . S
C94 O91 1.244 . S
C94 O92 1.240 . S
H95 C69 0.931 . S
H96 C78 0.931 . S
H97 C82 0.929 . S
H98 C84 0.930 . S
Co99 N103 2.148 . S
Co99 N109 2.128 . S
Co99 N119 2.194 . S
Co99 O124 2.351 . S
Co99 O125 2.155 . S
Co99 O126 2.096 . S
C100 N103 1.301 1_556 S
C100 N104 1.328 . S
C100 H105 0.930 . S
C101 C102 1.333 . S
C101 N103 1.317 1_556 S
C101 H106 0.930 . S
C102 C101 1.333 . S
C102 N104 1.350 . S
C102 H128 0.931 . S
N103 Co99 2.148 . S
N103 C100 1.301 1_554 S
N103 C101 1.317 1_554 S
N104 C100 1.328 . S
N104 C102 1.350 . S
H105 C100 0.930 . S
H106 C101 0.930 . S
C107 O108 1.224 . S
C107 O126 1.247 . S
O108 C107 1.224 . S
N109 Co99 2.128 . S
N109 C110 1.355 . S
N109 C112 1.311 . S
C110 N109 1.355 . S
C110 C111 1.363 . S
C110 H122 0.929 . S
C111 C110 1.363 . S
C111 N113 1.375 . S
C111 H129 0.931 . S
C112 N109 1.311 . S
C112 N113 1.347 . S
C112 H123 0.929 . S
N113 C111 1.375 . S
N113 C112 1.347 . S
C114 C117 1.365 . S
C114 N119 1.328 . S
C114 H120 0.929 . S
C115 C116 1.362 . S
C115 C118 1.378 . S
C115 H130 0.929 . S
C116 C115 1.362 . S
C116 C117 1.366 . S
C117 C114 1.365 . S
C117 C116 1.366 . S
C117 H131 0.930 . S
C118 C115 1.378 . S
C118 N119 1.315 . S
C118 H121 0.930 . S
N119 Co99 2.194 . S
N119 C114 1.328 . S
N119 C118 1.315 . S
H120 C114 0.929 . S
H121 C118 0.930 . S
H122 C110 0.929 . S
H123 C112 0.929 . S
O124 Co99 2.351 . S
O124 C127 1.244 . S
O125 Co99 2.155 . S
O125 C127 1.240 . S
O126 Co99 2.096 . S
O126 C107 1.247 . S
C127 O124 1.244 . S
C127 O125 1.240 . S
H128 C102 0.931 . S
H129 C111 0.931 . S
H130 C115 0.929 . S
H131 C117 0.930 . S
H132 C140 0.950 . S
H133 C145 0.950 . S
H134 C142 0.950 . S
H135 C144 0.950 . S
H136 C146 0.950 . S
H137 C148 0.950 . S
H138 C150 0.950 . S
H139 C151 0.950 . S
C140 H132 0.950 . S
C140 C141 1.386 . S
C140 C142 1.391 . S
C141 C140 1.386 . S
C141 C145 1.393 . S
C142 H134 0.950 . S
C142 C140 1.391 . S
C142 C143 1.400 . S
C143 C142 1.400 . S
C143 C144 1.398 . S
C143 C149 1.491 . S
C144 H135 0.950 . S
C144 C143 1.398 . S
C144 C145 1.391 . S
C145 H133 0.950 . S
C145 C141 1.393 . S
C145 C144 1.391 . S
C146 H136 0.950 . S
C146 C147 1.386 . S
C146 C148 1.391 . S
C147 C146 1.386 . S
C147 C151 1.393 . S
C148 H137 0.950 . S
C148 C146 1.391 . S
C148 C149 1.400 . S
C149 C143 1.491 . S
C149 C148 1.400 . S
C149 C150 1.398 . S
C150 H138 0.950 . S
C150 C149 1.398 . S
C150 C151 1.391 . S
C151 H139 0.950 . S
C151 C147 1.393 . S
C151 C150 1.391 . S
H152 C160 0.950 . S
H153 C165 0.950 . S
H154 C162 0.950 . S
H155 C164 0.950 . S
H156 C166 0.950 . S
H157 C168 0.950 . S
H158 C170 0.950 . S
H159 C171 0.950 . S
C160 H152 0.950 . S
C160 C161 1.386 . S
C160 C162 1.391 . S
C161 C160 1.386 . S
C161 C165 1.393 . S
C162 H154 0.950 . S
C162 C160 1.391 . S
C162 C163 1.400 . S
C163 C162 1.400 . S
C163 C164 1.398 . S
C163 C169 1.491 . S
C164 H155 0.950 . S
C164 C163 1.398 . S
C164 C165 1.391 . S
C165 H153 0.950 . S
C165 C161 1.393 . S
C165 C164 1.391 . S
C166 H156 0.950 . S
C166 C167 1.386 . S
C166 C168 1.391 . S
C167 C166 1.386 . S
C167 C171 1.393 . S
C168 H157 0.950 . S
C168 C166 1.391 . S
C168 C169 1.400 . S
C169 C163 1.491 . S
C169 C168 1.400 . S
C169 C170 1.398 . S
C170 H158 0.950 . S
C170 C169 1.398 . S
C170 C171 1.391 . S
C171 H159 0.950 . S
C171 C167 1.393 . S
C171 C170 1.391 . S
H172 C180 0.950 . S
H173 C185 0.950 . S
H174 C182 0.950 . S
H175 C184 0.950 . S
H176 C186 0.950 . S
H177 C188 0.950 . S
H178 C190 0.950 . S
H179 C191 0.950 . S
C180 H172 0.950 . S
C180 C181 1.386 . S
C180 C182 1.391 . S
C181 C180 1.386 . S
C181 C185 1.393 . S
C182 H174 0.950 . S
C182 C180 1.391 . S
C182 C183 1.400 . S
C183 C182 1.400 . S
C183 C184 1.398 . S
C183 C189 1.491 . S
C184 H175 0.950 . S
C184 C183 1.398 . S
C184 C185 1.391 . S
C185 H173 0.950 . S
C185 C181 1.393 . S
C185 C184 1.391 . S
C186 H176 0.950 . S
C186 C187 1.386 . S
C186 C188 1.391 . S
C187 C186 1.386 . S
C187 C191 1.393 . S
C188 H177 0.950 . S
C188 C186 1.391 . S
C188 C189 1.400 . S
C189 C183 1.491 . S
C189 C188 1.400 . S
C189 C190 1.398 . S
C190 H178 0.950 . S
C190 C189 1.398 . S
C190 C191 1.391 . S
C191 H179 0.950 . S
C191 C187 1.393 . S
C191 C190 1.391 . S
H192 C200 0.950 . S
H193 C205 0.950 . S
H194 C202 0.950 . S
H195 C204 0.950 . S
H196 C206 0.950 . S
H197 C208 0.950 . S
H198 C210 0.950 . S
H199 C211 0.950 . S
C200 H192 0.950 . S
C200 C201 1.386 . S
C200 C202 1.391 . S
C201 C200 1.386 . S
C201 C205 1.393 . S
C202 H194 0.950 . S
C202 C200 1.391 . S
C202 C203 1.400 . S
C203 C202 1.400 . S
C203 C204 1.398 . S
C203 C209 1.491 . S
C204 H195 0.950 . S
C204 C203 1.398 . S
C204 C205 1.391 . S
C205 H193 0.950 . S
C205 C201 1.393 . S
C205 C204 1.391 . S
C206 H196 0.950 . S
C206 C207 1.386 . S
C206 C208 1.391 . S
C207 C206 1.386 . S
C207 C211 1.393 . S
C208 H197 0.950 . S
C208 C206 1.391 . S
C208 C209 1.400 . S
C209 C203 1.491 . S
C209 C208 1.400 . S
C209 C210 1.398 . S
C210 H198 0.950 . S
C210 C209 1.398 . S
C210 C211 1.391 . S
C211 H199 0.950 . S
C211 C207 1.393 . S
C211 C210 1.391 . S
H212 C220 0.950 . S
H213 C225 0.950 . S
H214 C222 0.950 1_556 S
H215 C224 0.950 . S
H216 C226 0.950 . S
H217 C228 0.950 . S
H218 C230 0.950 1_556 S
H219 C231 0.950 1_556 S
C220 H212 0.950 . S
C220 C221 1.386 . S
C220 C222 1.391 . S
C221 C220 1.386 . S
C221 C225 1.393 . S
C222 H214 0.950 1_554 S
C222 C220 1.391 . S
C222 C223 1.400 . S
C223 C222 1.400 . S
C223 C224 1.398 . S
C223 C229 1.491 1_655 S
C224 H215 0.950 . S
C224 C223 1.398 . S
C224 C225 1.391 . S
C225 H213 0.950 . S
C225 C221 1.393 . S
C225 C224 1.391 . S
C226 H216 0.950 . S
C226 C227 1.386 . S
C226 C228 1.391 . S
C227 C226 1.386 . S
C227 C231 1.393 . S
C228 H217 0.950 . S
C228 C226 1.391 . S
C228 C229 1.400 . S
C229 C223 1.491 1_455 S
C229 C228 1.400 . S
C229 C230 1.398 . S
C230 H218 0.950 1_554 S
C230 C229 1.398 . S
C230 C231 1.391 . S
C231 H219 0.950 1_554 S
C231 C227 1.393 . S
C231 C230 1.391 . S
H232 C240 0.950 . S
H233 C245 0.950 . S
H234 C242 0.950 . S
H235 C244 0.950 . S
H236 C246 0.950 . S
H237 C248 0.950 . S
H238 C250 0.950 . S
H239 C251 0.950 . S
C240 H232 0.950 . S
C240 C241 1.386 . S
C240 C242 1.391 . S
C241 C240 1.386 . S
C241 C245 1.393 . S
C242 H234 0.950 . S
C242 C240 1.391 . S
C242 C243 1.400 . S
C243 C242 1.400 . S
C243 C244 1.398 . S
C243 C249 1.491 1_565 S
C244 H235 0.950 . S
C244 C243 1.398 . S
C244 C245 1.391 . S
C245 H233 0.950 . S
C245 C241 1.393 . S
C245 C244 1.391 . S
C246 H236 0.950 . S
C246 C247 1.386 . S
C246 C248 1.391 . S
C247 C246 1.386 . S
C247 C251 1.393 . S
C248 H237 0.950 . S
C248 C246 1.391 . S
C248 C249 1.400 . S
C249 C243 1.491 1_545 S
C249 C248 1.400 . S
C249 C250 1.398 . S
C250 H238 0.950 . S
C250 C249 1.398 . S
C250 C251 1.391 . S
C251 H239 0.950 . S
C251 C247 1.393 . S
C251 C250 1.391 . S
H252 C260 0.950 . S
H253 C265 0.950 . S
H254 C262 0.950 . S
H255 C264 0.950 . S
H256 C266 0.950 . S
H257 C268 0.950 . S
H258 C270 0.950 . S
H259 C271 0.950 . S
C260 H252 0.950 . S
C260 C261 1.386 1_556 S
C260 C262 1.391 . S
C261 C260 1.386 1_554 S
C261 C265 1.393 . S
C262 H254 0.950 . S
C262 C260 1.391 . S
C262 C263 1.400 1_556 S
C263 C262 1.400 1_554 S
C263 C264 1.398 . S
C263 C269 1.491 . S
C264 H255 0.950 . S
C264 C263 1.398 . S
C264 C265 1.391 . S
C265 H253 0.950 . S
C265 C261 1.393 . S
C265 C264 1.391 . S
C266 H256 0.950 . S
C266 C267 1.386 . S
C266 C268 1.391 . S
C267 C266 1.386 . S
C267 C271 1.393 1_554 S
C268 H257 0.950 . S
C268 C266 1.391 . S
C268 C269 1.400 . S
C269 C263 1.491 . S
C269 C268 1.400 . S
C269 C270 1.398 1_554 S
C270 H258 0.950 . S
C270 C269 1.398 1_556 S
C270 C271 1.391 . S
C271 H259 0.950 . S
C271 C267 1.393 1_556 S
C271 C270 1.391 . S
H272 C280 0.950 . S
H273 C285 0.950 . S
H274 C282 0.950 . S
H275 C284 0.950 . S
H276 C286 0.950 . S
H277 C288 0.950 . S
H278 C290 0.950 . S
H279 C291 0.950 . S
C280 H272 0.950 . S
C280 C281 1.386 . S
C280 C282 1.391 . S
C281 C280 1.386 . S
C281 C285 1.393 . S
C282 H274 0.950 . S
C282 C280 1.391 . S
C282 C283 1.400 . S
C283 C282 1.400 . S
C283 C284 1.398 . S
C283 C289 1.491 . S
C284 H275 0.950 . S
C284 C283 1.398 . S
C284 C285 1.391 . S
C285 H273 0.950 . S
C285 C281 1.393 . S
C285 C284 1.391 . S
C286 H276 0.950 . S
C286 C287 1.386 . S
C286 C288 1.391 . S
C287 C286 1.386 . S
C287 C291 1.393 . S
C288 H277 0.950 . S
C288 C286 1.391 . S
C288 C289 1.400 . S
C289 C283 1.491 . S
C289 C288 1.400 . S
C289 C290 1.398 . S
C290 H278 0.950 . S
C290 C289 1.398 . S
C290 C291 1.391 . S
C291 H279 0.950 . S
C291 C287 1.393 . S
C291 C290 1.391 . S
H292 C300 0.950 . S
H293 C305 0.950 . S
H294 C302 0.950 . S
H295 C304 0.950 . S
H296 C306 0.950 . S
H297 C308 0.950 . S
H298 C310 0.950 . S
H299 C311 0.950 . S
C300 H292 0.950 . S
C300 C301 1.386 . S
C300 C302 1.391 . S
C301 C300 1.386 . S
C301 C305 1.393 . S
C302 H294 0.950 . S
C302 C300 1.391 . S
C302 C303 1.400 . S
C303 C302 1.400 . S
C303 C304 1.398 . S
C303 C309 1.491 . S
C304 H295 0.950 . S
C304 C303 1.398 . S
C304 C305 1.391 . S
C305 H293 0.950 . S
C305 C301 1.393 . S
C305 C304 1.391 . S
C306 H296 0.950 . S
C306 C307 1.386 . S
C306 C308 1.391 . S
C307 C306 1.386 . S
C307 C311 1.393 . S
C308 H297 0.950 . S
C308 C306 1.391 . S
C308 C309 1.400 . S
C309 C303 1.491 . S
C309 C308 1.400 . S
C309 C310 1.398 . S
C310 H298 0.950 . S
C310 C309 1.398 . S
C310 C311 1.391 . S
C311 H299 0.950 . S
C311 C307 1.393 . S
C311 C310 1.391 . S
H312 C320 0.950 . S
H313 C325 0.950 . S
H314 C322 0.950 . S
H315 C324 0.950 . S
H316 C326 0.950 . S
H317 C328 0.950 . S
H318 C330 0.950 . S
H319 C331 0.950 . S
C320 H312 0.950 . S
C320 C321 1.386 . S
C320 C322 1.391 . S
C321 C320 1.386 . S
C321 C325 1.393 . S
C322 H314 0.950 . S
C322 C320 1.391 . S
C322 C323 1.400 . S
C323 C322 1.400 . S
C323 C324 1.398 . S
C323 C329 1.491 . S
C324 H315 0.950 . S
C324 C323 1.398 . S
C324 C325 1.391 . S
C325 H313 0.950 . S
C325 C321 1.393 . S
C325 C324 1.391 . S
C326 H316 0.950 . S
C326 C327 1.386 . S
C326 C328 1.391 . S
C327 C326 1.386 . S
C327 C331 1.393 . S
C328 H317 0.950 . S
C328 C326 1.391 . S
C328 C329 1.400 . S
C329 C323 1.491 . S
C329 C328 1.400 . S
C329 C330 1.398 . S
C330 H318 0.950 . S
C330 C329 1.398 . S
C330 C331 1.391 . S
C331 H319 0.950 . S
C331 C327 1.393 . S
C331 C330 1.391 . S
C141 N14 1.447 . S
C147 N5 1.456 . S
C161 N47 1.449 . S
C167 N38 1.458 . S
C181 N71 1.481 . S
C187 N80 1.473 . S
C201 N104 1.463 . S
C207 N113 1.455 . S
C221 C94 0.973 . S
C227 C28 0.977 . S
C241 C127 0.976 . S
C247 C61 0.975 . S
C261 C41 1.471 . S
C267 C17 1.488 . S
C281 C83 1.232 . S
C287 C50 1.223 . S
C301 C116 1.491 . S
C307 C74 1.464 . S
C321 C107 1.778 . S
C327 C8 1.786 . S
