# Generated by pormake.
# Topology yfd, (5)-cn, num edge types: 1
# Building blocks:
#     Node 0, Type 0, BuildingBlock: BEQFEK_clean_sbu_0, # of connection points: 5
#     Node 1, Type 0, BuildingBlock: BEQFEK_clean_sbu_0, # of connection points: 5
#     Node 2, Type 0, BuildingBlock: BEQFEK_clean_sbu_0, # of connection points: 5
#     Node 3, Type 0, BuildingBlock: BEQFEK_clean_sbu_0, # of connection points: 5
#     Node 4, Type 0, BuildingBlock: BEQFEK_clean_sbu_0, # of connection points: 5
#     Node 5, Type 0, BuildingBlock: BEQFEK_clean_sbu_0, # of connection points: 5
#     Node 6, Type 0, BuildingBlock: BEQFEK_clean_sbu_0, # of connection points: 5
#     Node 7, Type 0, BuildingBlock: BEQFEK_clean_sbu_0, # of connection points: 5
#     Node 8, Type 0, BuildingBlock: BEQFEK_clean_sbu_0, # of connection points: 5
#     Node 9, Type 0, BuildingBlock: BEQFEK_clean_sbu_0, # of connection points: 5
#     Node 10, Type 0, BuildingBlock: BEQFEK_clean_sbu_0, # of connection points: 5
#     Node 11, Type 0, BuildingBlock: BEQFEK_clean_sbu_0, # of connection points: 5
#     Node 12, Type 0, BuildingBlock: BEQFEK_clean_sbu_0, # of connection points: 5
#     Node 13, Type 0, BuildingBlock: BEQFEK_clean_sbu_0, # of connection points: 5
#     Node 14, Type 0, BuildingBlock: BEQFEK_clean_sbu_0, # of connection points: 5
#     Node 15, Type 0, BuildingBlock: BEQFEK_clean_sbu_0, # of connection points: 5
#     Edge 16, Type (0, 0), None
#     Edge 17, Type (0, 0), None
#     Edge 18, Type (0, 0), None
#     Edge 19, Type (0, 0), None
#     Edge 20, Type (0, 0), None
#     Edge 21, Type (0, 0), None
#     Edge 22, Type (0, 0), None
#     Edge 23, Type (0, 0), None
#     Edge 24, Type (0, 0), None
#     Edge 25, Type (0, 0), None
#     Edge 26, Type (0, 0), None
#     Edge 27, Type (0, 0), None
#     Edge 28, Type (0, 0), None
#     Edge 29, Type (0, 0), None
#     Edge 30, Type (0, 0), None
#     Edge 31, Type (0, 0), None
#     Edge 32, Type (0, 0), None
#     Edge 33, Type (0, 0), None
#     Edge 34, Type (0, 0), None
#     Edge 35, Type (0, 0), None
#     Edge 36, Type (0, 0), None
#     Edge 37, Type (0, 0), None
#     Edge 38, Type (0, 0), None
#     Edge 39, Type (0, 0), None
#     Edge 40, Type (0, 0), None
#     Edge 41, Type (0, 0), None
#     Edge 42, Type (0, 0), None
#     Edge 43, Type (0, 0), None
#     Edge 44, Type (0, 0), None
#     Edge 45, Type (0, 0), None
#     Edge 46, Type (0, 0), None
#     Edge 47, Type (0, 0), None
#     Edge 48, Type (0, 0), None
#     Edge 49, Type (0, 0), None
#     Edge 50, Type (0, 0), None
#     Edge 51, Type (0, 0), None
#     Edge 52, Type (0, 0), None
#     Edge 53, Type (0, 0), None
#     Edge 54, Type (0, 0), None
#     Edge 55, Type (0, 0), None
# Relax obj value: 0.687
# Max RMSD: 0.266
# Mean RMSD: 0.266
data_MOF--net-yfd--node1-BEQFEK_clean_sbu_0--edge1-none
_symmetry_space_group_name_H-M    P1
_symmetry_Int_Tables_number       1
_symmetry_cell_setting            triclinic
loop_
_symmetry_equiv_pos_as_xyz
'x, y, z'
_cell_length_a     33.843747
_cell_length_b     33.843757
_cell_length_c     12.992027
_cell_angle_alpha  89.997984
_cell_angle_beta   90.001732
_cell_angle_gamma 90.000433
loop_
_atom_site_label
_atom_site_type_symbol
_atom_site_fract_x
_atom_site_fract_y
_atom_site_fract_z
_atom_type_partial_charge
Co0 Co 0.60601 0.11709 0.17432 0.0
Co1 Co 0.58292 0.19824 0.15254 0.0
C2 C 0.52647 0.14073 0.22298 0.0
O3 O 0.55876 0.12958 0.26075 0.0
O4 O 0.5288 0.16775 0.15499 0.0
C5 C 0.57197 0.08137 0.01454 0.0
O6 O 0.55954 0.11795 0.00731 0.0
C7 C 0.55541 0.26668 0.0349 0.0
C8 C 0.58642 0.31657 0.10672 0.0
C9 C 0.56359 0.30666 0.02168 0.0
N10 N 0.57301 0.25359 0.1218 0.0
N11 N 0.59073 0.284 0.16574 0.0
C12 C 0.53246 0.24073 0.96332 0.0
H13 H 0.54282 0.2097 0.96866 0.0
H14 H 0.5343 0.25152 0.88282 0.0
H15 H 0.50093 0.24136 -0.01332 0.0
C16 C 0.65667 0.13268 0.00552 0.0
N17 N 0.63021 0.14649 0.07317 0.0
N18 N 0.61696 0.18088 0.04511 0.0
C19 C 0.63452 0.18964 0.95423 0.0
C20 C 0.65863 0.15814 0.92297 0.0
C21 C 0.67371 0.09185 0.01075 0.0
H22 H 0.67243 0.08034 0.09068 0.0
H23 H 0.65679 0.07182 0.95955 0.0
H24 H 0.70481 0.09222 -0.01641 0.0
O25 O 0.64403 0.12371 0.27429 0.0
O26 O 0.61825 0.18533 0.28594 0.0
H27 H 0.65208 0.23091 0.83696 0.0
H28 H 0.59982 0.2238 0.84977 0.0
C29 C 0.62781 0.22645 0.89332 0.0
H30 H 0.62639 0.25226 0.94546 0.0
H31 H 0.60834 0.28192 0.23142 0.0
O32 O 0.59207 0.0703 0.09301 0.0
C33 C 0.64182 0.15745 0.31841 0.0
Co34 Co 0.51885 0.60598 0.67434 0.0
Co35 Co 0.4377 0.58289 0.65256 0.0
C36 C 0.49521 0.52644 0.72301 0.0
O37 O 0.50636 0.55873 0.76079 0.0
O38 O 0.4682 0.52877 0.65502 0.0
C39 C 0.55457 0.57194 0.51457 0.0
O40 O 0.518 0.55951 0.50733 0.0
C41 C 0.36928 0.55538 0.5349 0.0
C42 C 0.31938 0.58638 0.60671 0.0
C43 C 0.32929 0.56356 0.52167 0.0
N44 N 0.38236 0.57297 0.62181 0.0
N45 N 0.35194 0.59069 0.66574 0.0
C46 C 0.39523 0.53243 0.46332 0.0
H47 H 0.42626 0.5428 0.46867 0.0
H48 H 0.38443 0.53427 0.38283 0.0
H49 H 0.39461 0.50091 0.4867 0.0
C50 C 0.50327 0.65664 0.50553 0.0
N51 N 0.48945 0.63017 0.57318 0.0
N52 N 0.45506 0.61693 0.54514 0.0
C53 C 0.4463 0.6345 0.45427 0.0
C54 C 0.4778 0.65861 0.423 0.0
C55 C 0.54409 0.67368 0.51075 0.0
H56 H 0.55561 0.6724 0.59069 0.0
H57 H 0.56413 0.65676 0.45955 0.0
H58 H 0.54373 0.70477 0.48359 0.0
O59 O 0.51223 0.644 0.77431 0.0
O60 O 0.45061 0.61822 0.78595 0.0
H61 H 0.40502 0.65207 0.33704 0.0
H62 H 0.41211 0.59981 0.34981 0.0
C63 C 0.40948 0.6278 0.39338 0.0
H64 H 0.38367 0.62638 0.44554 0.0
H65 H 0.35402 0.6083 0.73143 0.0
O66 O 0.56565 0.59204 0.59304 0.0
C67 C 0.47849 0.64179 0.81842 0.0
Co68 Co 1.02999 0.51885 0.17426 0.0
Co69 Co 1.05308 0.4377 0.1525 0.0
C70 C 0.10952 0.49521 0.22294 0.0
O71 O 0.07724 0.50636 0.26072 0.0
O72 O 0.10719 0.4682 0.15495 0.0
C73 C 1.06403 0.55457 0.01449 0.0
O74 O 0.07646 0.518 0.00725 0.0
C75 C 0.08058 0.36927 0.03485 0.0
C76 C 1.04958 0.31937 0.10667 0.0
C77 C 0.0724 0.32928 0.02163 0.0
N78 N 1.06299 0.38235 0.12175 0.0
N79 N 1.04527 0.35194 0.16569 0.0
C80 C 0.10353 0.39522 0.96326 0.0
H81 H 0.09317 0.42625 0.9686 0.0
H82 H 0.10169 0.38443 0.88277 0.0
H83 H 0.13506 0.39459 -0.01337 0.0
C84 C 0.97932 0.50327 0.00546 0.0
N85 N 1.00579 0.48945 0.07311 0.0
N86 N 1.01903 0.45506 0.04506 0.0
C87 C 1.00147 0.4463 0.95419 0.0
C88 C 0.97736 0.4778 0.92292 0.0
C89 C 0.96229 0.54409 0.01067 0.0
H90 H 0.96357 0.55561 0.09061 0.0
H91 H 0.97921 0.56413 0.95947 0.0
H92 H 0.9312 0.54373 -0.01649 0.0
O93 O 0.99197 0.51223 0.27423 0.0
O94 O 1.01774 0.45061 0.28589 0.0
H95 H 0.9839 0.40503 0.83696 0.0
H96 H 1.03616 0.41212 0.84974 0.0
C97 C 1.00817 0.40949 0.89331 0.0
H98 H 1.00959 0.38367 0.94547 0.0
H99 H 1.02765 0.35402 0.23142 0.0
O100 O 1.04393 0.56564 0.09296 0.0
C101 C 0.99417 0.4785 0.31835 0.0
Co102 Co 0.1171 1.02997 0.67428 0.0
Co103 Co 0.19826 1.05306 0.6525 0.0
C104 C 0.14074 0.1095 0.72294 0.0
O105 O 0.12959 0.07722 0.76072 0.0
O106 O 0.16776 0.10718 0.65495 0.0
C107 C 0.08139 1.06401 0.5145 0.0
O108 O 0.11796 0.07643 0.50727 0.0
C109 C 0.26668 0.08057 0.53485 0.0
C110 C 0.31659 1.04957 0.60669 0.0
C111 C 0.30667 0.0724 0.52164 0.0
N112 N 0.2536 1.06298 0.62176 0.0
N113 N 0.28402 1.04527 0.6657 0.0
C114 C 0.24073 0.10352 0.46325 0.0
H115 H 0.2097 0.09315 0.4686 0.0
H116 H 0.25153 0.10167 0.38276 0.0
H117 H 0.24136 0.13504 0.48661 0.0
C118 C 0.13269 0.9793 0.50548 0.0
N119 N 0.14651 1.00577 0.57313 0.0
N120 N 0.18089 1.01902 0.54508 0.0
C121 C 0.18966 1.00145 0.45421 0.0
C122 C 0.15815 0.97734 0.42294 0.0
C123 C 0.09187 0.96227 0.5107 0.0
H124 H 0.08035 0.96355 0.59064 0.0
H125 H 0.07183 0.97918 0.4595 0.0
H126 H 0.09223 0.93117 0.48355 0.0
O127 O 0.12373 0.99195 0.77425 0.0
O128 O 0.18535 1.01773 0.78591 0.0
H129 H 0.23093 0.98388 0.33698 0.0
H130 H 0.22383 1.03614 0.34974 0.0
C131 C 0.22647 1.00815 0.39332 0.0
H132 H 0.25228 1.00958 0.44547 0.0
H133 H 0.28194 1.02765 0.73143 0.0
O134 O 0.07031 1.0439 0.59297 0.0
C135 C 0.15746 0.99416 0.81837 0.0
Co136 Co 0.60599 0.51891 0.77053 0.0
Co137 Co 0.5829 0.43772 0.7923 0.0
C138 C 0.52646 0.49525 0.72185 0.0
O139 O 0.55873 0.50646 0.68411 0.0
O140 O 0.52877 0.4682 0.78976 0.0
C141 C 0.57192 0.5546 0.93029 0.0
O142 O 0.55949 0.51803 0.93744 0.0
C143 C 0.55541 0.36934 0.91007 0.0
C144 C 0.58651 0.31942 0.83853 0.0
C145 C 0.56371 0.3294 0.92354 0.0
N146 N 0.57301 0.38238 0.82313 0.0
N147 N 0.59078 0.35196 0.77935 0.0
C148 C 0.53241 0.39531 -0.0185 0.0
H149 H 0.54277 0.42634 -0.02386 0.0
H150 H 0.53419 0.38454 0.06202 0.0
H151 H 0.5009 0.39467 0.95797 0.0
C152 C 0.65664 0.50331 0.93935 0.0
N153 N 0.63017 0.4895 0.8717 0.0
N154 N 0.61693 0.45511 0.89974 0.0
C155 C 0.63449 0.44635 -0.00938 0.0
C156 C 0.6586 0.47785 0.02189 0.0
C157 C 0.67367 0.54414 0.93413 0.0
H158 H 0.6724 0.55565 0.85419 0.0
H159 H 0.65675 0.56418 -0.01469 0.0
H160 H 0.70477 0.54377 0.96131 0.0
O161 O 0.64401 0.51226 0.67056 0.0
O162 O 0.61823 0.45064 0.65892 0.0
H163 H 0.65205 0.4051 0.10793 0.0
H164 H 0.59978 0.41213 0.09497 0.0
C165 C 0.6278 0.40953 0.0515 0.0
H166 H 0.62644 0.38371 -0.00065 0.0
H167 H 0.60838 0.35401 0.71367 0.0
O168 O 0.59205 0.56569 0.85187 0.0
C169 C 0.6418 0.47852 0.62646 0.0
Co170 Co 0.11707 0.60599 0.27045 0.0
Co171 Co 0.19825 0.58289 0.29222 0.0
C172 C 0.14072 0.52646 0.22178 0.0
O173 O 0.1295 0.55873 0.18404 0.0
O174 O 0.16777 0.52877 0.28969 0.0
C175 C 0.08137 0.57193 0.4302 0.0
O176 O 0.11794 0.55949 0.43736 0.0
C177 C 0.26662 0.55539 0.41003 0.0
C178 C 0.31655 0.58648 0.3385 0.0
C179 C 0.30656 0.56368 0.42351 0.0
N180 N 0.25359 0.57299 0.32308 0.0
N181 N 0.28402 0.59075 0.27931 0.0
C182 C 0.24064 0.53239 0.48144 0.0
H183 H 0.20962 0.54277 0.47608 0.0
H184 H 0.25141 0.53417 0.56197 0.0
H185 H 0.24127 0.50088 0.4579 0.0
C186 C 0.13267 0.65664 0.43927 0.0
N187 N 0.14648 0.63017 0.37161 0.0
N188 N 0.18086 0.61692 0.39966 0.0
C189 C 0.18963 0.63449 0.49053 0.0
C190 C 0.15813 0.6586 0.5218 0.0
C191 C 0.09185 0.67368 0.43404 0.0
H192 H 0.08033 0.67241 0.3541 0.0
H193 H 0.0718 0.65677 0.48522 0.0
H194 H 0.09222 0.70478 0.46122 0.0
O195 O 0.12373 0.64401 0.17047 0.0
O196 O 0.18534 0.61823 0.15884 0.0
H197 H 0.23088 0.65204 0.60785 0.0
H198 H 0.22384 0.59978 0.59489 0.0
C199 C 0.22645 0.62779 0.55142 0.0
H200 H 0.25226 0.62643 0.49927 0.0
H201 H 0.28197 0.60836 0.21362 0.0
O202 O 0.07028 0.59206 0.35179 0.0
C203 C 0.15746 0.6418 0.12637 0.0
Co204 Co 1.02996 0.11705 0.77046 0.0
Co205 Co 1.05307 0.19824 0.79222 0.0
C206 C 0.10949 0.1407 0.72179 0.0
O207 O 0.07722 0.12949 0.68405 0.0
O208 O 0.10719 0.16775 0.78969 0.0
C209 C 1.06402 0.08135 0.93022 0.0
O210 O 0.07646 0.11792 0.93737 0.0
C211 C 0.08057 0.26661 0.91001 0.0
C212 C 1.04948 0.31654 0.83846 0.0
C213 C 0.07228 0.30655 0.92348 0.0
N214 N 1.06297 0.25357 0.82306 0.0
N215 N 1.04521 0.284 0.7793 0.0
C216 C 0.10357 0.24064 -0.01858 0.0
H217 H 0.0932 0.20961 -0.02393 0.0
H218 H 0.10179 0.2514 0.06195 0.0
H219 H 0.13508 0.24126 0.95789 0.0
C220 C 0.97932 0.13265 0.93927 0.0
N221 N 1.00578 0.14646 0.87161 0.0
N222 N 1.01903 0.18085 0.89966 0.0
C223 C 1.00148 0.18961 -0.00946 0.0
C224 C 0.97736 0.15811 0.02181 0.0
C225 C 0.96227 0.09183 0.93405 0.0
H226 H 0.96354 0.08032 0.8541 0.0
H227 H 0.97919 0.07179 -0.01477 0.0
H228 H 0.93118 0.09221 0.96122 0.0
O229 O 0.99195 0.12371 0.67048 0.0
O230 O 1.01773 0.18533 0.65883 0.0
H231 H 0.98394 0.23086 0.10787 0.0
H232 H 1.0362 0.22381 0.09489 0.0
C233 C 1.00818 0.22642 0.05143 0.0
H234 H 1.00954 0.25225 -0.00071 0.0
H235 H 1.02758 0.28195 0.71356 0.0
O236 O 1.04389 0.07027 0.85181 0.0
C237 C 0.99416 0.15744 0.62636 0.0
Co238 Co 0.51891 1.02995 0.27051 0.0
Co239 Co 0.43773 1.05307 0.29226 0.0
C240 C 0.49527 0.10949 0.22183 0.0
O241 O 0.50648 0.07722 0.18409 0.0
O242 O 0.46822 0.10718 0.28972 0.0
C243 C 0.55461 1.06401 0.43027 0.0
O244 O 0.51804 0.07645 0.43741 0.0
C245 C 0.36935 0.08057 0.41002 0.0
C246 C 0.31943 1.04947 0.33848 0.0
C247 C 0.3294 0.07228 0.42349 0.0
N248 N 0.38239 1.06297 0.32308 0.0
N249 N 0.35196 1.0452 0.27932 0.0
C250 C 0.39532 0.10358 0.48143 0.0
H251 H 0.42635 0.09321 0.47608 0.0
H252 H 0.38455 0.1018 0.56196 0.0
H253 H 0.39469 0.13509 0.45789 0.0
C254 C 0.5033 0.97931 0.43932 0.0
N255 N 0.48949 1.00578 0.37166 0.0
N256 N 0.45511 1.01903 0.39971 0.0
C257 C 0.44635 1.00148 0.4906 0.0
C258 C 0.47784 0.97736 0.52187 0.0
C259 C 0.54412 0.96226 0.4341 0.0
H260 H 0.55563 0.96352 0.35416 0.0
H261 H 0.56416 0.97917 0.48528 0.0
H262 H 0.54374 0.93116 0.46128 0.0
O263 O 0.51225 0.99194 0.17053 0.0
O264 O 0.45064 1.01773 0.15888 0.0
H265 H 0.4051 0.98396 0.60796 0.0
H266 H 0.41216 1.03622 0.59493 0.0
C267 C 0.40954 1.00819 0.5515 0.0
H268 H 0.38371 1.00956 0.49936 0.0
H269 H 0.35402 1.02758 0.21361 0.0
O270 O 0.56569 1.04388 0.35186 0.0
C271 C 0.47851 0.99416 0.12641 0.0
Co272 Co 0.52995 1.01886 0.7704 0.0
Co273 Co 0.55308 0.9377 0.79227 0.0
C274 C 0.60951 0.99524 0.72184 0.0
O275 O 0.57723 1.00639 0.68405 0.0
O276 O 0.60719 0.96821 0.7898 0.0
C277 C 0.56398 1.0546 0.93015 0.0
O278 O 0.57641 1.01803 0.93738 0.0
C279 C 0.58062 0.86927 0.90991 0.0
C280 C 0.54956 0.81939 0.83819 0.0
C281 C 0.57242 0.82929 0.92317 0.0
N282 N 0.563 0.88236 0.82304 0.0
N283 N 0.54525 0.85195 0.77915 0.0
C284 C 0.60361 0.89521 -0.01858 0.0
H285 H 0.59327 0.92625 -0.02393 0.0
H286 H 0.60179 0.88443 0.06192 0.0
H287 H 0.63513 0.89456 0.95799 0.0
C288 C 0.47931 1.00329 0.93928 0.0
N289 N 0.50575 0.98945 0.87158 0.0
N290 N 0.51905 0.95508 0.89971 0.0
C291 C 0.50156 0.94634 -0.00931 0.0
C292 C 0.47748 0.97786 0.02189 0.0
C293 C 0.46227 1.04411 0.93407 0.0
H294 H 0.46353 1.05562 0.85412 0.0
H295 H 0.47919 1.06415 -0.01475 0.0
H296 H 0.43118 1.04374 0.96126 0.0
O297 O 0.49195 1.01221 0.67039 0.0
O298 O 0.51773 0.95059 0.65889 0.0
H299 H 0.48411 0.90514 0.10821 0.0
H300 H 0.53635 0.91228 0.09517 0.0
C301 C 0.50833 0.90958 0.05174 0.0
H302 H 0.50974 0.88373 -0.0003 0.0
H303 H 0.52762 0.85403 0.71352 0.0
O304 O 0.54387 1.06566 0.85169 0.0
C305 C 0.49415 0.97845 0.62639 0.0
Co306 Co 0.6171 0.52993 0.27044 0.0
Co307 Co 0.69825 0.55309 0.29229 0.0
C308 C 0.6407 0.6095 0.22186 0.0
O309 O 0.62955 0.57721 0.18409 0.0
O310 O 0.66773 0.60719 0.28981 0.0
C311 C 0.58135 0.56395 0.43018 0.0
O312 O 0.61792 0.5764 0.43741 0.0
C313 C 0.76669 0.58064 0.40987 0.0
C314 C 0.81657 0.54957 0.33815 0.0
C315 C 0.80667 0.57244 0.42313 0.0
N316 N 0.7536 0.56301 0.32303 0.0
N317 N 0.784 0.54526 0.27914 0.0
C318 C 0.74076 0.60364 0.48139 0.0
H319 H 0.70971 0.5933 0.47605 0.0
H320 H 0.75155 0.60182 0.56189 0.0
H321 H 0.74141 0.63515 0.45794 0.0
C322 C 0.63269 0.47931 0.43932 0.0
N323 N 0.64652 0.50575 0.37161 0.0
N324 N 0.68088 0.51906 0.39974 0.0
C325 C 0.68962 0.50158 0.49074 0.0
C326 C 0.6581 0.47749 0.52194 0.0
C327 C 0.59187 0.46225 0.4341 0.0
H328 H 0.58036 0.4635 0.35415 0.0
H329 H 0.57182 0.47916 0.48528 0.0
H330 H 0.59225 0.43116 0.4613 0.0
O331 O 0.62376 0.49193 0.17042 0.0
O332 O 0.68537 0.51774 0.15891 0.0
H333 H 0.73081 0.48417 0.60833 0.0
H334 H 0.72365 0.5364 0.59521 0.0
C335 C 0.72637 0.50838 0.55181 0.0
H336 H 0.75222 0.50979 0.4998 0.0
H337 H 0.78191 0.52762 0.21351 0.0
O338 O 0.57029 0.54384 0.35173 0.0
C339 C 0.65751 0.49415 0.12642 0.0
Co340 Co 0.10605 0.6171 0.77035 0.0
Co341 Co 0.08289 0.69825 0.79221 0.0
C342 C 1.02648 0.6407 0.72178 0.0
O343 O 1.05876 0.62956 0.684 0.0
O344 O 1.02879 0.66773 0.78973 0.0
C345 C 0.07202 0.58135 0.9301 0.0
O346 O 1.05958 0.61792 0.93732 0.0
C347 C 1.05535 0.76668 0.90982 0.0
C348 C 0.0864 0.81657 0.83812 0.0
C349 C 1.06354 0.80666 0.92309 0.0
N350 N 0.07297 0.7536 0.82297 0.0
N351 N 0.09071 0.78401 0.7791 0.0
C352 C 1.03235 0.74074 -0.01867 0.0
H353 H 1.0427 0.7097 -0.02401 0.0
H354 H 1.03417 0.75152 0.06183 0.0
H355 H 1.00083 0.74139 0.95788 0.0
C356 C 0.15667 0.63268 0.93923 0.0
N357 N 0.13023 0.64652 0.87152 0.0
N358 N 0.11693 0.68088 0.89965 0.0
C359 C 0.13442 0.68962 -0.00936 0.0
C360 C 0.1585 0.6581 0.02185 0.0
C361 C 0.17373 0.59186 0.93402 0.0
H362 H 0.17247 0.58035 0.85408 0.0
H363 H 0.15681 0.57181 -0.0148 0.0
H364 H 0.20482 0.59224 0.96122 0.0
O365 O 0.14404 0.62376 0.67034 0.0
O366 O 0.11824 0.68537 0.65882 0.0
H367 H 0.15184 0.73082 0.1082 0.0
H368 H 0.0996 0.72366 0.09511 0.0
C369 C 0.12762 0.72637 0.0517 0.0
H370 H 0.12621 0.75222 -0.00033 0.0
H371 H 0.10836 0.78193 0.71342 0.0
O372 O 0.09214 0.57029 0.85164 0.0
C373 C 0.14183 0.65751 0.62633 0.0
Co374 Co 1.01886 0.10602 0.27036 0.0
Co375 Co 0.93771 0.08287 0.29222 0.0
C376 C 0.99525 1.02645 0.22179 0.0
O377 O 1.0064 1.05874 0.18401 0.0
O378 O 0.96823 1.02877 0.28975 0.0
C379 C 1.05461 0.07199 0.43011 0.0
O380 O 1.01804 1.05955 0.43733 0.0
C381 C 0.86928 1.05532 0.40986 0.0
C382 C 0.81939 0.08637 0.33815 0.0
C383 C 0.8293 1.06351 0.42313 0.0
N384 N 0.88237 0.07295 0.32299 0.0
N385 N 0.85196 0.09069 0.27912 0.0
C386 C 0.89523 1.03233 0.48137 0.0
H387 H 0.92627 1.04268 0.47602 0.0
H388 H 0.88445 1.03415 0.56188 0.0
H389 H 0.89458 1.00082 0.45794 0.0
C390 C 1.00329 0.15665 0.43923 0.0
N391 N 0.98945 0.13021 0.37153 0.0
N392 N 0.95508 0.11691 0.39965 0.0
C393 C 0.94634 0.1344 0.49064 0.0
C394 C 0.97786 0.15848 0.52184 0.0
C395 C 1.04411 0.1737 0.43402 0.0
H396 H 1.05562 0.17244 0.35408 0.0
H397 H 1.06415 0.15678 0.4852 0.0
H398 H 1.04373 0.20479 0.46121 0.0
O399 O 1.01221 0.14402 0.17034 0.0
O400 O 0.95059 0.11822 0.15883 0.0
H401 H 0.90514 0.15184 0.60817 0.0
H402 H 0.91229 0.09959 0.59512 0.0
C403 C 0.90959 0.12761 0.55169 0.0
H404 H 0.88374 0.1262 0.49965 0.0
H405 H 0.85403 0.10833 0.21344 0.0
O406 O 1.06567 0.09211 0.35165 0.0
C407 C 0.97845 0.14181 0.12634 0.0
Co408 Co 0.52988 0.61708 0.17445 0.0
Co409 Co 0.55304 0.69826 0.15261 0.0
C410 C 0.60945 0.6407 0.22303 0.0
O411 O 0.57718 0.62948 0.26077 0.0
O412 O 0.60715 0.66776 0.15518 0.0
C413 C 0.56392 0.58136 0.01472 0.0
O414 O 0.57638 0.61792 0.00758 0.0
C415 C 0.5806 0.76664 0.03488 0.0
C416 C 0.54944 0.81655 0.10627 0.0
C417 C 0.5723 0.80658 0.02135 0.0
N418 N 0.56296 0.7536 0.12176 0.0
N419 N 0.54516 0.78402 0.16546 0.0
C420 C 0.60365 0.74067 0.96355 0.0
H421 H 0.59329 0.70964 0.96891 0.0
H422 H 0.6019 0.75143 0.88302 0.0
H423 H 0.63515 0.74132 -0.01282 0.0
C424 C 0.47927 0.63268 0.00556 0.0
N425 N 0.50571 0.64651 0.07328 0.0
N426 N 0.51902 0.68087 0.04515 0.0
C427 C 0.50155 0.68961 0.95413 0.0
C428 C 0.47746 0.65809 0.92294 0.0
C429 C 0.46221 0.59187 0.01078 0.0
H430 H 0.46345 0.58036 0.09073 0.0
H431 H 0.47912 0.57181 0.95963 0.0
H432 H 0.43112 0.59225 -0.01644 0.0
O433 O 0.49189 0.62376 0.27448 0.0
O434 O 0.51769 0.68538 0.28597 0.0
H435 H 0.48417 0.73078 0.83645 0.0
H436 H 0.5364 0.72367 0.84978 0.0
C437 C 0.50835 0.72636 0.89306 0.0
H438 H 0.50971 0.75222 0.94507 0.0
H439 H 0.52752 0.78197 0.23107 0.0
O440 O 0.54378 0.57028 0.09312 0.0
C441 C 0.4941 0.65752 0.31847 0.0
Co442 Co 1.01889 0.52989 0.67437 0.0
Co443 Co 0.93771 0.55305 0.65253 0.0
C444 C 0.99528 0.60946 0.72295 0.0
O445 O 1.00649 0.57718 0.76069 0.0
O446 O 0.96821 0.60716 0.65509 0.0
C447 C 1.05461 0.56393 0.51464 0.0
O448 O 1.01805 0.57639 0.5075 0.0
C449 C 0.86933 0.58061 0.5348 0.0
C450 C 0.81942 0.54947 0.60624 0.0
C451 C 0.82939 0.57232 0.5213 0.0
N452 N 0.88238 0.56297 0.62169 0.0
N453 N 0.85195 0.54518 0.66541 0.0
C454 C 0.8953 0.60365 0.46345 0.0
H455 H 0.92633 0.5933 0.46881 0.0
H456 H 0.88454 0.60189 0.38292 0.0
H457 H 0.89465 0.63515 0.48705 0.0
C458 C 1.00329 0.47928 0.50549 0.0
N459 N 0.98946 0.50572 0.5732 0.0
N460 N 0.9551 0.51903 0.54507 0.0
C461 C 0.94636 0.50156 0.45406 0.0
C462 C 0.97787 0.47747 0.42287 0.0
C463 C 1.0441 0.46221 0.51071 0.0
H464 H 1.05561 0.46346 0.59066 0.0
H465 H 1.06416 0.47913 0.45955 0.0
H466 H 1.04371 0.43113 0.4835 0.0
O467 O 1.01221 0.49189 0.7744 0.0
O468 O 0.95059 0.5177 0.7859 0.0
H469 H 0.90519 0.48417 0.33641 0.0
H470 H 0.9123 0.53641 0.34969 0.0
C471 C 0.90961 0.50836 0.393 0.0
H472 H 0.88375 0.50972 0.445 0.0
H473 H 0.854 0.52755 0.73105 0.0
O474 O 1.06569 0.54379 0.59304 0.0
C475 C 0.97845 0.49411 0.8184 0.0
Co476 Co 0.10607 1.01887 0.17439 0.0
Co477 Co 0.08291 0.93769 0.15255 0.0
C478 C 1.0265 0.99525 0.22297 0.0
O479 O 1.05877 1.00647 0.26072 0.0
O480 O 1.0288 0.96819 0.15511 0.0
C481 C 0.07202 1.05459 0.01466 0.0
O482 O 1.05956 1.01803 0.00752 0.0
C483 C 1.05536 0.86932 0.03479 0.0
C484 C 0.0865 0.8194 0.10622 0.0
C485 C 1.06366 0.82938 0.02127 0.0
N486 N 0.07299 0.88235 0.12169 0.0
N487 N 0.09078 0.85193 0.16539 0.0
C488 C 1.03232 0.89529 0.96345 0.0
H489 H 1.04267 0.92632 0.96881 0.0
H490 H 1.03408 0.88453 0.88291 0.0
H491 H 1.00082 0.89464 -0.01295 0.0
C492 C 0.15668 1.00328 0.00551 0.0
N493 N 0.13024 0.98945 0.07322 0.0
N494 N 0.11693 0.95508 0.0451 0.0
C495 C 0.13441 0.94634 0.9541 0.0
C496 C 0.1585 0.97786 0.9229 0.0
C497 C 0.17374 1.04409 0.01072 0.0
H498 H 0.17249 1.0556 0.09067 0.0
H499 H 0.15682 1.06415 0.95956 0.0
H500 H 0.20482 1.04371 -0.01649 0.0
O501 O 0.14406 1.01219 0.27442 0.0
O502 O 0.11826 0.95057 0.28592 0.0
H503 H 0.15182 0.90517 0.83648 0.0
H504 H 0.09958 0.91227 0.84973 0.0
C505 C 0.12762 0.90959 0.89305 0.0
H506 H 0.12627 0.88373 0.94507 0.0
H507 H 0.10843 0.85398 0.23109 0.0
O508 O 0.09216 1.06567 0.09306 0.0
C509 C 0.14185 0.97843 0.31842 0.0
Co510 Co 0.6171 0.10605 0.67443 0.0
Co511 Co 0.69828 0.08289 0.65259 0.0
C512 C 0.64071 1.02648 0.72302 0.0
O513 O 0.6295 1.05875 0.76077 0.0
O514 O 0.66778 1.02878 0.65516 0.0
C515 C 0.58137 0.072 0.5147 0.0
O516 O 0.61794 1.05955 0.50756 0.0
C517 C 0.76665 1.05534 0.53484 0.0
C518 C 0.81657 0.08648 0.60625 0.0
C519 C 0.80659 1.06363 0.52131 0.0
N520 N 0.75362 0.07297 0.62174 0.0
N521 N 0.78404 0.09076 0.66543 0.0
C522 C 0.74068 1.03229 0.4635 0.0
H523 H 0.70965 1.04265 0.46886 0.0
H524 H 0.75144 1.03405 0.38297 0.0
H525 H 0.74133 1.00079 0.48712 0.0
C526 C 0.63269 0.15666 0.50554 0.0
N527 N 0.64652 0.13021 0.57326 0.0
N528 N 0.68089 0.11691 0.54514 0.0
C529 C 0.68963 0.13439 0.45414 0.0
C530 C 0.65812 0.15848 0.42293 0.0
C531 C 0.59188 0.17372 0.51075 0.0
H532 H 0.58037 0.17247 0.5907 0.0
H533 H 0.57182 0.1568 0.45959 0.0
H534 H 0.59227 0.20481 0.48353 0.0
O535 O 0.62378 0.14404 0.77445 0.0
O536 O 0.6854 0.11824 0.78596 0.0
H537 H 0.73081 0.1518 0.33651 0.0
H538 H 0.72371 0.09956 0.34979 0.0
C539 C 0.72639 0.1276 0.3931 0.0
H540 H 0.75224 0.12625 0.44512 0.0
H541 H 0.78199 0.1084 0.73111 0.0
O542 O 0.5703 0.09214 0.5931 0.0
C543 C 0.65754 0.14183 0.81845 0.0
loop_
_geom_bond_atom_site_label_1
_geom_bond_atom_site_label_2
_geom_bond_distance
_geom_bond_site_symmetry_2
_ccdc_geom_bond_type
Co0 O3 1.970 . S
Co0 N17 1.989 1_554 S
Co0 O25 1.967 . S
Co0 O32 1.907 1_545 S
Co1 O4 1.966 . S
Co1 N10 2.022 . S
Co1 N18 1.993 1_554 S
Co1 O26 1.941 . S
C2 O3 1.258 . S
C2 O4 1.263 . S
O3 Co0 1.970 . S
O3 C2 1.258 . S
O4 Co1 1.966 . S
O4 C2 1.263 . S
C5 O6 1.235 1_554 S
C5 O32 1.295 . S
O6 C5 1.235 1_556 S
C7 C9 1.400 . S
C7 N10 1.351 . S
C7 C12 1.501 . S
C8 C9 1.387 . S
C8 N11 1.341 . S
C9 C7 1.400 . S
C9 C8 1.387 . S
N10 Co1 2.022 . S
N10 C7 1.351 . S
N10 N11 1.365 . S
N11 C8 1.341 . S
N11 N10 1.365 . S
N11 H31 0.862 . S
C12 C7 1.501 . S
C12 H13 0.961 . S
C12 H14 0.961 . S
C12 H15 0.960 . S
H13 C12 0.961 . S
H14 C12 0.961 . S
H15 C12 0.960 . S
C16 N17 1.342 . S
C16 C20 1.401 . S
C16 C21 1.499 . S
N17 Co0 1.989 1_556 S
N17 C16 1.342 . S
N17 N18 1.388 . S
N18 Co1 1.993 1_556 S
N18 N17 1.388 . S
N18 C19 1.346 . S
C19 N18 1.346 . S
C19 C20 1.396 . S
C19 C29 1.510 . S
C20 C16 1.401 . S
C20 C19 1.396 . S
C21 C16 1.499 . S
C21 H22 0.959 . S
C21 H23 0.960 . S
C21 H24 0.961 . S
H22 C21 0.959 . S
H23 C21 0.960 . S
H24 C21 0.961 . S
O25 Co0 1.967 . S
O25 C33 1.258 . S
O26 Co1 1.941 . S
O26 C33 1.266 . S
H27 C29 0.959 . S
H28 C29 0.961 . S
C29 C19 1.510 . S
C29 H27 0.959 . S
C29 H28 0.961 . S
C29 H30 0.960 . S
H30 C29 0.960 . S
H31 N11 0.862 . S
O32 Co0 1.907 1_565 S
O32 C5 1.295 . S
C33 O25 1.258 . S
C33 O26 1.266 . S
Co34 O37 1.970 . S
Co34 N51 1.989 . S
Co34 O59 1.967 . S
Co34 O66 1.920 . S
Co35 O38 1.966 . S
Co35 N44 2.022 . S
Co35 N52 1.993 . S
Co35 O60 1.941 . S
C36 O37 1.258 . S
C36 O38 1.263 . S
O37 Co34 1.970 . S
O37 C36 1.258 . S
O38 Co35 1.966 . S
O38 C36 1.263 . S
C39 O40 1.235 . S
C39 O66 1.289 . S
O40 C39 1.235 . S
C41 C43 1.400 . S
C41 N44 1.351 . S
C41 C46 1.501 . S
C42 C43 1.387 . S
C42 N45 1.341 . S
C43 C41 1.400 . S
C43 C42 1.387 . S
N44 Co35 2.022 . S
N44 C41 1.351 . S
N44 N45 1.365 . S
N45 C42 1.341 . S
N45 N44 1.365 . S
N45 H65 0.862 . S
C46 C41 1.501 . S
C46 H47 0.961 . S
C46 H48 0.961 . S
C46 H49 0.960 . S
H47 C46 0.961 . S
H48 C46 0.961 . S
H49 C46 0.960 . S
C50 N51 1.342 . S
C50 C54 1.401 . S
C50 C55 1.499 . S
N51 Co34 1.989 . S
N51 C50 1.342 . S
N51 N52 1.388 . S
N52 Co35 1.993 . S
N52 N51 1.388 . S
N52 C53 1.346 . S
C53 N52 1.346 . S
C53 C54 1.396 . S
C53 C63 1.510 . S
C54 C50 1.401 . S
C54 C53 1.396 . S
C55 C50 1.499 . S
C55 H56 0.959 . S
C55 H57 0.960 . S
C55 H58 0.961 . S
H56 C55 0.959 . S
H57 C55 0.960 . S
H58 C55 0.961 . S
O59 Co34 1.967 . S
O59 C67 1.258 . S
O60 Co35 1.941 . S
O60 C67 1.266 . S
H61 C63 0.959 . S
H62 C63 0.961 . S
C63 C53 1.510 . S
C63 H61 0.959 . S
C63 H62 0.961 . S
C63 H64 0.960 . S
H64 C63 0.960 . S
H65 N45 0.862 . S
O66 Co34 1.920 . S
O66 C39 1.289 . S
C67 O59 1.258 . S
C67 O60 1.266 . S
Co68 O71 1.970 1_655 S
Co68 N85 1.989 1_554 S
Co68 O93 1.967 . S
Co68 O100 1.920 . S
Co69 O72 1.966 1_655 S
Co69 N78 2.022 . S
Co69 N86 1.993 1_554 S
Co69 O94 1.941 . S
C70 O71 1.258 . S
C70 O72 1.263 . S
O71 Co68 1.970 1_455 S
O71 C70 1.258 . S
O72 Co69 1.966 1_455 S
O72 C70 1.263 . S
C73 O74 1.235 1_554 S
C73 O100 1.289 1_455 S
O74 C73 1.235 1_556 S
C75 C77 1.411 . S
C75 N78 1.371 . S
C75 C80 1.474 1_655 S
C76 C77 1.387 . S
C76 N79 1.341 . S
C77 C75 1.411 . S
C77 C76 1.387 . S
N78 Co69 2.022 . S
N78 C75 1.371 . S
N78 N79 1.365 . S
N79 C76 1.341 . S
N79 N78 1.365 . S
N79 H99 0.862 . S
C80 C75 1.474 1_455 S
C80 H81 0.961 . S
C80 H82 0.961 . S
C80 H83 0.960 . S
H81 C80 0.961 . S
H82 C80 0.961 . S
H83 C80 0.960 . S
C84 N85 1.342 . S
C84 C88 1.401 . S
C84 C89 1.499 . S
N85 Co68 1.989 1_556 S
N85 C84 1.342 . S
N85 N86 1.388 . S
N86 Co69 1.993 1_556 S
N86 N85 1.388 . S
N86 C87 1.346 . S
C87 N86 1.346 . S
C87 C88 1.396 . S
C87 C97 1.510 . S
C88 C84 1.401 . S
C88 C87 1.396 . S
C89 C84 1.499 . S
C89 H90 0.959 . S
C89 H91 0.960 . S
C89 H92 0.961 . S
H90 C89 0.959 . S
H91 C89 0.960 . S
H92 C89 0.961 . S
O93 Co68 1.967 . S
O93 C101 1.258 . S
O94 Co69 1.941 . S
O94 C101 1.266 . S
H95 C97 0.959 . S
H96 C97 0.961 . S
C97 C87 1.510 . S
C97 H95 0.959 . S
C97 H96 0.961 . S
C97 H98 0.960 . S
H98 C97 0.960 . S
H99 N79 0.862 . S
O100 Co68 1.920 . S
O100 C73 1.289 1_655 S
C101 O93 1.258 . S
C101 O94 1.266 . S
Co102 O105 1.970 1_565 S
Co102 N119 1.989 . S
Co102 O127 1.967 . S
Co102 O134 1.907 1_455 S
Co103 O106 1.966 1_565 S
Co103 N112 2.022 . S
Co103 N120 1.993 . S
Co103 O128 1.941 . S
C104 O105 1.258 . S
C104 O106 1.263 . S
O105 Co102 1.970 1_545 S
O105 C104 1.258 . S
O106 Co103 1.966 1_545 S
O106 C104 1.263 . S
C107 O108 1.235 . S
C107 O134 1.295 1_545 S
O108 C107 1.235 . S
C109 C111 1.411 . S
C109 N112 1.371 . S
C109 C114 1.474 1_565 S
C110 C111 1.387 . S
C110 N113 1.341 . S
C111 C109 1.411 . S
C111 C110 1.387 . S
N112 Co103 2.022 . S
N112 C109 1.371 . S
N112 N113 1.365 . S
N113 C110 1.341 . S
N113 N112 1.365 . S
N113 H133 0.862 . S
C114 C109 1.474 1_545 S
C114 H115 0.961 . S
C114 H116 0.961 . S
C114 H117 0.960 . S
H115 C114 0.961 . S
H116 C114 0.961 . S
H117 C114 0.960 . S
C118 N119 1.342 . S
C118 C122 1.401 . S
C118 C123 1.499 . S
N119 Co102 1.989 . S
N119 C118 1.342 . S
N119 N120 1.388 . S
N120 Co103 1.993 . S
N120 N119 1.388 . S
N120 C121 1.346 . S
C121 N120 1.346 . S
C121 C122 1.396 . S
C121 C131 1.510 . S
C122 C118 1.401 . S
C122 C121 1.396 . S
C123 C118 1.499 . S
C123 H124 0.959 . S
C123 H125 0.960 . S
C123 H126 0.961 . S
H124 C123 0.959 . S
H125 C123 0.960 . S
H126 C123 0.961 . S
O127 Co102 1.967 . S
O127 C135 1.258 . S
O128 Co103 1.941 . S
O128 C135 1.266 . S
H129 C131 0.959 . S
H130 C131 0.961 . S
C131 C121 1.510 . S
C131 H129 0.959 . S
C131 H130 0.961 . S
C131 H132 0.960 . S
H132 C131 0.960 . S
H133 N113 0.862 . S
O134 Co102 1.907 1_655 S
O134 C107 1.295 1_565 S
C135 O127 1.258 . S
C135 O128 1.266 . S
Co136 O139 1.970 . S
Co136 N153 1.989 1_556 S
Co136 O161 1.967 . S
Co136 O168 1.920 . S
Co137 O140 1.966 . S
Co137 N146 2.022 . S
Co137 N154 1.993 1_556 S
Co137 O162 1.941 . S
C138 O139 1.258 . S
C138 O140 1.263 . S
O139 Co136 1.970 . S
O139 C138 1.258 . S
O140 Co137 1.966 . S
O140 C138 1.263 . S
C141 O142 1.235 1_556 S
C141 O168 1.289 . S
O142 C141 1.235 1_554 S
C143 C145 1.400 . S
C143 N146 1.351 . S
C143 C148 1.501 . S
C144 C145 1.387 . S
C144 N147 1.341 . S
C145 C143 1.400 . S
C145 C144 1.387 . S
N146 Co137 2.022 . S
N146 C143 1.351 . S
N146 N147 1.365 . S
N147 C144 1.341 . S
N147 N146 1.365 . S
N147 H167 0.862 . S
C148 C143 1.501 . S
C148 H149 0.961 . S
C148 H150 0.961 . S
C148 H151 0.960 . S
H149 C148 0.961 . S
H150 C148 0.961 . S
H151 C148 0.960 . S
C152 N153 1.342 . S
C152 C156 1.401 . S
C152 C157 1.499 . S
N153 Co136 1.989 1_554 S
N153 C152 1.342 . S
N153 N154 1.388 . S
N154 Co137 1.993 1_554 S
N154 N153 1.388 . S
N154 C155 1.346 . S
C155 N154 1.346 . S
C155 C156 1.396 . S
C155 C165 1.510 . S
C156 C152 1.401 . S
C156 C155 1.396 . S
C157 C152 1.499 . S
C157 H158 0.959 . S
C157 H159 0.960 . S
C157 H160 0.961 . S
H158 C157 0.959 . S
H159 C157 0.960 . S
H160 C157 0.961 . S
O161 Co136 1.967 . S
O161 C169 1.258 . S
O162 Co137 1.941 . S
O162 C169 1.266 . S
H163 C165 0.959 . S
H164 C165 0.961 . S
C165 C155 1.510 . S
C165 H163 0.959 . S
C165 H164 0.961 . S
C165 H166 0.960 . S
H166 C165 0.960 . S
H167 N147 0.862 . S
O168 Co136 1.920 . S
O168 C141 1.289 . S
C169 O161 1.258 . S
C169 O162 1.266 . S
Co170 O173 1.970 . S
Co170 N187 1.989 . S
Co170 O195 1.967 . S
Co170 O202 1.907 1_455 S
Co171 O174 1.966 . S
Co171 N180 2.022 . S
Co171 N188 1.993 . S
Co171 O196 1.941 . S
C172 O173 1.258 . S
C172 O174 1.263 . S
O173 Co170 1.970 . S
O173 C172 1.258 . S
O174 Co171 1.966 . S
O174 C172 1.263 . S
C175 O176 1.235 . S
C175 O202 1.295 . S
O176 C175 1.235 . S
C177 C179 1.400 . S
C177 N180 1.351 . S
C177 C182 1.501 . S
C178 C179 1.387 . S
C178 N181 1.341 . S
C179 C177 1.400 . S
C179 C178 1.387 . S
N180 Co171 2.022 . S
N180 C177 1.351 . S
N180 N181 1.365 . S
N181 C178 1.341 . S
N181 N180 1.365 . S
N181 H201 0.862 . S
C182 C177 1.501 . S
C182 H183 0.961 . S
C182 H184 0.961 . S
C182 H185 0.960 . S
H183 C182 0.961 . S
H184 C182 0.961 . S
H185 C182 0.960 . S
C186 N187 1.342 . S
C186 C190 1.401 . S
C186 C191 1.499 . S
N187 Co170 1.989 . S
N187 C186 1.342 . S
N187 N188 1.388 . S
N188 Co171 1.993 . S
N188 N187 1.388 . S
N188 C189 1.346 . S
C189 N188 1.346 . S
C189 C190 1.396 . S
C189 C199 1.510 . S
C190 C186 1.401 . S
C190 C189 1.396 . S
C191 C186 1.499 . S
C191 H192 0.959 . S
C191 H193 0.960 . S
C191 H194 0.961 . S
H192 C191 0.959 . S
H193 C191 0.960 . S
H194 C191 0.961 . S
O195 Co170 1.967 . S
O195 C203 1.258 . S
O196 Co171 1.941 . S
O196 C203 1.266 . S
H197 C199 0.959 . S
H198 C199 0.961 . S
C199 C189 1.510 . S
C199 H197 0.959 . S
C199 H198 0.961 . S
C199 H200 0.960 . S
H200 C199 0.960 . S
H201 N181 0.862 . S
O202 Co170 1.907 1_655 S
O202 C175 1.295 . S
C203 O195 1.258 . S
C203 O196 1.266 . S
Co204 O207 1.970 1_655 S
Co204 N221 1.989 1_556 S
Co204 O229 1.967 . S
Co204 O236 1.907 1_545 S
Co205 O208 1.966 1_655 S
Co205 N214 2.022 . S
Co205 N222 1.993 1_556 S
Co205 O230 1.941 . S
C206 O207 1.258 . S
C206 O208 1.263 . S
O207 Co204 1.970 1_455 S
O207 C206 1.258 . S
O208 Co205 1.966 1_455 S
O208 C206 1.263 . S
C209 O210 1.235 1_556 S
C209 O236 1.295 1_455 S
O210 C209 1.235 1_554 S
C211 C213 1.411 . S
C211 N214 1.371 . S
C211 C216 1.474 1_655 S
C212 C213 1.387 . S
C212 N215 1.341 . S
C213 C211 1.411 . S
C213 C212 1.387 . S
N214 Co205 2.022 . S
N214 C211 1.371 . S
N214 N215 1.365 . S
N215 C212 1.341 . S
N215 N214 1.365 . S
N215 H235 0.862 . S
C216 C211 1.474 1_455 S
C216 H217 0.961 . S
C216 H218 0.961 . S
C216 H219 0.960 . S
H217 C216 0.961 . S
H218 C216 0.961 . S
H219 C216 0.960 . S
C220 N221 1.342 . S
C220 C224 1.401 . S
C220 C225 1.499 . S
N221 Co204 1.989 1_554 S
N221 C220 1.342 . S
N221 N222 1.388 . S
N222 Co205 1.993 1_554 S
N222 N221 1.388 . S
N222 C223 1.346 . S
C223 N222 1.346 . S
C223 C224 1.396 . S
C223 C233 1.510 . S
C224 C220 1.401 . S
C224 C223 1.396 . S
C225 C220 1.499 . S
C225 H226 0.959 . S
C225 H227 0.960 . S
C225 H228 0.961 . S
H226 C225 0.959 . S
H227 C225 0.960 . S
H228 C225 0.961 . S
O229 Co204 1.967 . S
O229 C237 1.258 . S
O230 Co205 1.941 . S
O230 C237 1.266 . S
H231 C233 0.959 . S
H232 C233 0.961 . S
C233 C223 1.510 . S
C233 H231 0.959 . S
C233 H232 0.961 . S
C233 H234 0.960 . S
H234 C233 0.960 . S
H235 N215 0.862 . S
O236 Co204 1.907 1_565 S
O236 C209 1.295 1_655 S
C237 O229 1.258 . S
C237 O230 1.266 . S
Co238 O241 1.970 1_565 S
Co238 N255 1.989 . S
Co238 O263 1.967 . S
Co238 O270 1.920 . S
Co239 O242 1.966 1_565 S
Co239 N248 2.022 . S
Co239 N256 1.993 . S
Co239 O264 1.941 . S
C240 O241 1.258 . S
C240 O242 1.263 . S
O241 Co238 1.970 1_545 S
O241 C240 1.258 . S
O242 Co239 1.966 1_545 S
O242 C240 1.263 . S
C243 O244 1.235 . S
C243 O270 1.289 1_545 S
O244 C243 1.235 . S
C245 C247 1.411 . S
C245 N248 1.371 . S
C245 C250 1.474 1_565 S
C246 C247 1.387 . S
C246 N249 1.341 . S
C247 C245 1.411 . S
C247 C246 1.387 . S
N248 Co239 2.022 . S
N248 C245 1.371 . S
N248 N249 1.365 . S
N249 C246 1.341 . S
N249 N248 1.365 . S
N249 H269 0.862 . S
C250 C245 1.474 1_545 S
C250 H251 0.961 . S
C250 H252 0.961 . S
C250 H253 0.960 . S
H251 C250 0.961 . S
H252 C250 0.961 . S
H253 C250 0.960 . S
C254 N255 1.342 . S
C254 C258 1.401 . S
C254 C259 1.499 . S
N255 Co238 1.989 . S
N255 C254 1.342 . S
N255 N256 1.388 . S
N256 Co239 1.993 . S
N256 N255 1.388 . S
N256 C257 1.346 . S
C257 N256 1.346 . S
C257 C258 1.396 . S
C257 C267 1.510 . S
C258 C254 1.401 . S
C258 C257 1.396 . S
C259 C254 1.499 . S
C259 H260 0.959 . S
C259 H261 0.960 . S
C259 H262 0.961 . S
H260 C259 0.959 . S
H261 C259 0.960 . S
H262 C259 0.961 . S
O263 Co238 1.967 . S
O263 C271 1.258 . S
O264 Co239 1.941 . S
O264 C271 1.266 . S
H265 C267 0.959 . S
H266 C267 0.961 . S
C267 C257 1.510 . S
C267 H265 0.959 . S
C267 H266 0.961 . S
C267 H268 0.960 . S
H268 C267 0.960 . S
H269 N249 0.862 . S
O270 Co238 1.920 . S
O270 C243 1.289 1_565 S
C271 O263 1.258 . S
C271 O264 1.266 . S
Co272 O275 1.970 . S
Co272 N289 1.989 1_556 S
Co272 O297 1.967 . S
Co272 O304 1.907 1_565 S
Co273 O276 1.966 . S
Co273 N282 2.022 . S
Co273 N290 1.993 1_556 S
Co273 O298 1.941 . S
C274 O275 1.258 . S
C274 O276 1.263 . S
O275 Co272 1.970 . S
O275 C274 1.258 . S
O276 Co273 1.966 . S
O276 C274 1.263 . S
C277 O278 1.235 1_556 S
C277 O304 1.295 . S
O278 C277 1.235 1_554 S
C279 C281 1.400 . S
C279 N282 1.351 . S
C279 C284 1.501 . S
C280 C281 1.387 . S
C280 N283 1.341 . S
C281 C279 1.400 . S
C281 C280 1.387 . S
N282 Co273 2.022 . S
N282 C279 1.351 . S
N282 N283 1.365 . S
N283 C280 1.341 . S
N283 N282 1.365 . S
N283 H303 0.862 . S
C284 C279 1.501 . S
C284 H285 0.961 . S
C284 H286 0.961 . S
C284 H287 0.960 . S
H285 C284 0.961 . S
H286 C284 0.961 . S
H287 C284 0.960 . S
C288 N289 1.342 . S
C288 C292 1.401 . S
C288 C293 1.499 . S
N289 Co272 1.989 1_554 S
N289 C288 1.342 . S
N289 N290 1.388 . S
N290 Co273 1.993 1_554 S
N290 N289 1.388 . S
N290 C291 1.346 . S
C291 N290 1.346 . S
C291 C292 1.396 . S
C291 C301 1.510 . S
C292 C288 1.401 . S
C292 C291 1.396 . S
C293 C288 1.499 . S
C293 H294 0.959 . S
C293 H295 0.960 . S
C293 H296 0.961 . S
H294 C293 0.959 . S
H295 C293 0.960 . S
H296 C293 0.961 . S
O297 Co272 1.967 . S
O297 C305 1.258 . S
O298 Co273 1.941 . S
O298 C305 1.266 . S
H299 C301 0.959 . S
H300 C301 0.961 . S
C301 C291 1.510 . S
C301 H299 0.959 . S
C301 H300 0.961 . S
C301 H302 0.960 . S
H302 C301 0.960 . S
H303 N283 0.862 . S
O304 Co272 1.907 1_545 S
O304 C277 1.295 . S
C305 O297 1.258 . S
C305 O298 1.266 . S
Co306 O309 1.970 . S
Co306 N323 1.989 . S
Co306 O331 1.967 . S
Co306 O338 1.920 . S
Co307 O310 1.966 . S
Co307 N316 2.022 . S
Co307 N324 1.993 . S
Co307 O332 1.941 . S
C308 O309 1.258 . S
C308 O310 1.263 . S
O309 Co306 1.970 . S
O309 C308 1.258 . S
O310 Co307 1.966 . S
O310 C308 1.263 . S
C311 O312 1.235 . S
C311 O338 1.289 . S
O312 C311 1.235 . S
C313 C315 1.400 . S
C313 N316 1.351 . S
C313 C318 1.501 . S
C314 C315 1.387 . S
C314 N317 1.341 . S
C315 C313 1.400 . S
C315 C314 1.387 . S
N316 Co307 2.022 . S
N316 C313 1.351 . S
N316 N317 1.365 . S
N317 C314 1.341 . S
N317 N316 1.365 . S
N317 H337 0.862 . S
C318 C313 1.501 . S
C318 H319 0.961 . S
C318 H320 0.961 . S
C318 H321 0.960 . S
H319 C318 0.961 . S
H320 C318 0.961 . S
H321 C318 0.960 . S
C322 N323 1.342 . S
C322 C326 1.401 . S
C322 C327 1.499 . S
N323 Co306 1.989 . S
N323 C322 1.342 . S
N323 N324 1.388 . S
N324 Co307 1.993 . S
N324 N323 1.388 . S
N324 C325 1.346 . S
C325 N324 1.346 . S
C325 C326 1.396 . S
C325 C335 1.510 . S
C326 C322 1.401 . S
C326 C325 1.396 . S
C327 C322 1.499 . S
C327 H328 0.959 . S
C327 H329 0.960 . S
C327 H330 0.961 . S
H328 C327 0.959 . S
H329 C327 0.960 . S
H330 C327 0.961 . S
O331 Co306 1.967 . S
O331 C339 1.258 . S
O332 Co307 1.941 . S
O332 C339 1.266 . S
H333 C335 0.959 . S
H334 C335 0.961 . S
C335 C325 1.510 . S
C335 H333 0.959 . S
C335 H334 0.961 . S
C335 H336 0.960 . S
H336 C335 0.960 . S
H337 N317 0.862 . S
O338 Co306 1.920 . S
O338 C311 1.289 . S
C339 O331 1.258 . S
C339 O332 1.266 . S
Co340 O343 1.970 1_455 S
Co340 N357 1.989 1_556 S
Co340 O365 1.967 . S
Co340 O372 1.920 . S
Co341 O344 1.966 1_455 S
Co341 N350 2.022 . S
Co341 N358 1.993 1_556 S
Co341 O366 1.941 . S
C342 O343 1.258 . S
C342 O344 1.263 . S
O343 Co340 1.970 1_655 S
O343 C342 1.258 . S
O344 Co341 1.966 1_655 S
O344 C342 1.263 . S
C345 O346 1.235 1_556 S
C345 O372 1.289 1_655 S
O346 C345 1.235 1_554 S
C347 C349 1.411 . S
C347 N350 1.371 . S
C347 C352 1.474 1_455 S
C348 C349 1.387 . S
C348 N351 1.341 . S
C349 C347 1.411 . S
C349 C348 1.387 . S
N350 Co341 2.022 . S
N350 C347 1.371 . S
N350 N351 1.365 . S
N351 C348 1.341 . S
N351 N350 1.365 . S
N351 H371 0.862 . S
C352 C347 1.474 1_655 S
C352 H353 0.961 . S
C352 H354 0.961 . S
C352 H355 0.960 . S
H353 C352 0.961 . S
H354 C352 0.961 . S
H355 C352 0.960 . S
C356 N357 1.342 . S
C356 C360 1.401 . S
C356 C361 1.499 . S
N357 Co340 1.989 1_554 S
N357 C356 1.342 . S
N357 N358 1.388 . S
N358 Co341 1.993 1_554 S
N358 N357 1.388 . S
N358 C359 1.346 . S
C359 N358 1.346 . S
C359 C360 1.396 . S
C359 C369 1.510 . S
C360 C356 1.401 . S
C360 C359 1.396 . S
C361 C356 1.499 . S
C361 H362 0.959 . S
C361 H363 0.960 . S
C361 H364 0.961 . S
H362 C361 0.959 . S
H363 C361 0.960 . S
H364 C361 0.961 . S
O365 Co340 1.967 . S
O365 C373 1.258 . S
O366 Co341 1.941 . S
O366 C373 1.266 . S
H367 C369 0.959 . S
H368 C369 0.961 . S
C369 C359 1.510 . S
C369 H367 0.959 . S
C369 H368 0.961 . S
C369 H370 0.960 . S
H370 C369 0.960 . S
H371 N351 0.862 . S
O372 Co340 1.920 . S
O372 C345 1.289 1_455 S
C373 O365 1.258 . S
C373 O366 1.266 . S
Co374 O377 1.970 1_545 S
Co374 N391 1.989 . S
Co374 O399 1.967 . S
Co374 O406 1.907 1_655 S
Co375 O378 1.966 1_545 S
Co375 N384 2.022 . S
Co375 N392 1.993 . S
Co375 O400 1.941 . S
C376 O377 1.258 . S
C376 O378 1.263 . S
O377 Co374 1.970 1_565 S
O377 C376 1.258 . S
O378 Co375 1.966 1_565 S
O378 C376 1.263 . S
C379 O380 1.235 . S
C379 O406 1.295 1_565 S
O380 C379 1.235 . S
C381 C383 1.411 . S
C381 N384 1.371 . S
C381 C386 1.474 1_545 S
C382 C383 1.387 . S
C382 N385 1.341 . S
C383 C381 1.411 . S
C383 C382 1.387 . S
N384 Co375 2.022 . S
N384 C381 1.371 . S
N384 N385 1.365 . S
N385 C382 1.341 . S
N385 N384 1.365 . S
N385 H405 0.862 . S
C386 C381 1.474 1_565 S
C386 H387 0.961 . S
C386 H388 0.961 . S
C386 H389 0.960 . S
H387 C386 0.961 . S
H388 C386 0.961 . S
H389 C386 0.960 . S
C390 N391 1.342 . S
C390 C394 1.401 . S
C390 C395 1.499 . S
N391 Co374 1.989 . S
N391 C390 1.342 . S
N391 N392 1.388 . S
N392 Co375 1.993 . S
N392 N391 1.388 . S
N392 C393 1.346 . S
C393 N392 1.346 . S
C393 C394 1.396 . S
C393 C403 1.510 . S
C394 C390 1.401 . S
C394 C393 1.396 . S
C395 C390 1.499 . S
C395 H396 0.959 . S
C395 H397 0.960 . S
C395 H398 0.961 . S
H396 C395 0.959 . S
H397 C395 0.960 . S
H398 C395 0.961 . S
O399 Co374 1.967 . S
O399 C407 1.258 . S
O400 Co375 1.941 . S
O400 C407 1.266 . S
H401 C403 0.959 . S
H402 C403 0.961 . S
C403 C393 1.510 . S
C403 H401 0.959 . S
C403 H402 0.961 . S
C403 H404 0.960 . S
H404 C403 0.960 . S
H405 N385 0.862 . S
O406 Co374 1.907 1_455 S
O406 C379 1.295 1_545 S
C407 O399 1.258 . S
C407 O400 1.266 . S
Co408 O411 1.970 . S
Co408 N425 1.989 1_554 S
Co408 O433 1.967 . S
Co408 O440 1.920 . S
Co409 O412 1.966 . S
Co409 N418 2.022 . S
Co409 N426 1.993 1_554 S
Co409 O434 1.941 . S
C410 O411 1.258 . S
C410 O412 1.263 . S
O411 Co408 1.970 . S
O411 C410 1.258 . S
O412 Co409 1.966 . S
O412 C410 1.263 . S
C413 O414 1.235 1_554 S
C413 O440 1.289 . S
O414 C413 1.235 1_556 S
C415 C417 1.400 . S
C415 N418 1.351 . S
C415 C420 1.501 . S
C416 C417 1.387 . S
C416 N419 1.341 . S
C417 C415 1.400 . S
C417 C416 1.387 . S
N418 Co409 2.022 . S
N418 C415 1.351 . S
N418 N419 1.365 . S
N419 C416 1.341 . S
N419 N418 1.365 . S
N419 H439 0.862 . S
C420 C415 1.501 . S
C420 H421 0.961 . S
C420 H422 0.961 . S
C420 H423 0.960 . S
H421 C420 0.961 . S
H422 C420 0.961 . S
H423 C420 0.960 . S
C424 N425 1.342 . S
C424 C428 1.401 . S
C424 C429 1.499 . S
N425 Co408 1.989 1_556 S
N425 C424 1.342 . S
N425 N426 1.388 . S
N426 Co409 1.993 1_556 S
N426 N425 1.388 . S
N426 C427 1.346 . S
C427 N426 1.346 . S
C427 C428 1.396 . S
C427 C437 1.510 . S
C428 C424 1.401 . S
C428 C427 1.396 . S
C429 C424 1.499 . S
C429 H430 0.959 . S
C429 H431 0.960 . S
C429 H432 0.961 . S
H430 C429 0.959 . S
H431 C429 0.960 . S
H432 C429 0.961 . S
O433 Co408 1.967 . S
O433 C441 1.258 . S
O434 Co409 1.941 . S
O434 C441 1.266 . S
H435 C437 0.959 . S
H436 C437 0.961 . S
C437 C427 1.510 . S
C437 H435 0.959 . S
C437 H436 0.961 . S
C437 H438 0.960 . S
H438 C437 0.960 . S
H439 N419 0.862 . S
O440 Co408 1.920 . S
O440 C413 1.289 . S
C441 O433 1.258 . S
C441 O434 1.266 . S
Co442 O445 1.970 . S
Co442 N459 1.989 . S
Co442 O467 1.967 . S
Co442 O474 1.907 1_655 S
Co443 O446 1.966 . S
Co443 N452 2.022 . S
Co443 N460 1.993 . S
Co443 O468 1.941 . S
C444 O445 1.258 . S
C444 O446 1.263 . S
O445 Co442 1.970 . S
O445 C444 1.258 . S
O446 Co443 1.966 . S
O446 C444 1.263 . S
C447 O448 1.235 . S
C447 O474 1.295 . S
O448 C447 1.235 . S
C449 C451 1.400 . S
C449 N452 1.351 . S
C449 C454 1.501 . S
C450 C451 1.387 . S
C450 N453 1.341 . S
C451 C449 1.400 . S
C451 C450 1.387 . S
N452 Co443 2.022 . S
N452 C449 1.351 . S
N452 N453 1.365 . S
N453 C450 1.341 . S
N453 N452 1.365 . S
N453 H473 0.862 . S
C454 C449 1.501 . S
C454 H455 0.961 . S
C454 H456 0.961 . S
C454 H457 0.960 . S
H455 C454 0.961 . S
H456 C454 0.961 . S
H457 C454 0.960 . S
C458 N459 1.342 . S
C458 C462 1.401 . S
C458 C463 1.499 . S
N459 Co442 1.989 . S
N459 C458 1.342 . S
N459 N460 1.388 . S
N460 Co443 1.993 . S
N460 N459 1.388 . S
N460 C461 1.346 . S
C461 N460 1.346 . S
C461 C462 1.396 . S
C461 C471 1.510 . S
C462 C458 1.401 . S
C462 C461 1.396 . S
C463 C458 1.499 . S
C463 H464 0.959 . S
C463 H465 0.960 . S
C463 H466 0.961 . S
H464 C463 0.959 . S
H465 C463 0.960 . S
H466 C463 0.961 . S
O467 Co442 1.967 . S
O467 C475 1.258 . S
O468 Co443 1.941 . S
O468 C475 1.266 . S
H469 C471 0.959 . S
H470 C471 0.961 . S
C471 C461 1.510 . S
C471 H469 0.959 . S
C471 H470 0.961 . S
C471 H472 0.960 . S
H472 C471 0.960 . S
H473 N453 0.862 . S
O474 Co442 1.907 1_455 S
O474 C447 1.295 . S
C475 O467 1.258 . S
C475 O468 1.266 . S
Co476 O479 1.970 1_455 S
Co476 N493 1.989 1_554 S
Co476 O501 1.967 . S
Co476 O508 1.907 1_565 S
Co477 O480 1.966 1_455 S
Co477 N486 2.022 . S
Co477 N494 1.993 1_554 S
Co477 O502 1.941 . S
C478 O479 1.258 . S
C478 O480 1.263 . S
O479 Co476 1.970 1_655 S
O479 C478 1.258 . S
O480 Co477 1.966 1_655 S
O480 C478 1.263 . S
C481 O482 1.235 1_554 S
C481 O508 1.295 1_655 S
O482 C481 1.235 1_556 S
C483 C485 1.411 . S
C483 N486 1.371 . S
C483 C488 1.474 1_455 S
C484 C485 1.387 . S
C484 N487 1.341 . S
C485 C483 1.411 . S
C485 C484 1.387 . S
N486 Co477 2.022 . S
N486 C483 1.371 . S
N486 N487 1.365 . S
N487 C484 1.341 . S
N487 N486 1.365 . S
N487 H507 0.862 . S
C488 C483 1.474 1_655 S
C488 H489 0.961 . S
C488 H490 0.961 . S
C488 H491 0.960 . S
H489 C488 0.961 . S
H490 C488 0.961 . S
H491 C488 0.960 . S
C492 N493 1.342 . S
C492 C496 1.401 . S
C492 C497 1.499 . S
N493 Co476 1.989 1_556 S
N493 C492 1.342 . S
N493 N494 1.388 . S
N494 Co477 1.993 1_556 S
N494 N493 1.388 . S
N494 C495 1.346 . S
C495 N494 1.346 . S
C495 C496 1.396 . S
C495 C505 1.510 . S
C496 C492 1.401 . S
C496 C495 1.396 . S
C497 C492 1.499 . S
C497 H498 0.959 . S
C497 H499 0.960 . S
C497 H500 0.961 . S
H498 C497 0.959 . S
H499 C497 0.960 . S
H500 C497 0.961 . S
O501 Co476 1.967 . S
O501 C509 1.258 . S
O502 Co477 1.941 . S
O502 C509 1.266 . S
H503 C505 0.959 . S
H504 C505 0.961 . S
C505 C495 1.510 . S
C505 H503 0.959 . S
C505 H504 0.961 . S
C505 H506 0.960 . S
H506 C505 0.960 . S
H507 N487 0.862 . S
O508 Co476 1.907 1_545 S
O508 C481 1.295 1_455 S
C509 O501 1.258 . S
C509 O502 1.266 . S
Co510 O513 1.970 1_545 S
Co510 N527 1.989 . S
Co510 O535 1.967 . S
Co510 O542 1.920 . S
Co511 O514 1.966 1_545 S
Co511 N520 2.022 . S
Co511 N528 1.993 . S
Co511 O536 1.941 . S
C512 O513 1.258 . S
C512 O514 1.263 . S
O513 Co510 1.970 1_565 S
O513 C512 1.258 . S
O514 Co511 1.966 1_565 S
O514 C512 1.263 . S
C515 O516 1.235 . S
C515 O542 1.289 1_565 S
O516 C515 1.235 . S
C517 C519 1.411 . S
C517 N520 1.371 . S
C517 C522 1.474 1_545 S
C518 C519 1.387 . S
C518 N521 1.341 . S
C519 C517 1.411 . S
C519 C518 1.387 . S
N520 Co511 2.022 . S
N520 C517 1.371 . S
N520 N521 1.365 . S
N521 C518 1.341 . S
N521 N520 1.365 . S
N521 H541 0.862 . S
C522 C517 1.474 1_565 S
C522 H523 0.961 . S
C522 H524 0.961 . S
C522 H525 0.960 . S
H523 C522 0.961 . S
H524 C522 0.961 . S
H525 C522 0.960 . S
C526 N527 1.342 . S
C526 C530 1.401 . S
C526 C531 1.499 . S
N527 Co510 1.989 . S
N527 C526 1.342 . S
N527 N528 1.388 . S
N528 Co511 1.993 . S
N528 N527 1.388 . S
N528 C529 1.346 . S
C529 N528 1.346 . S
C529 C530 1.396 . S
C529 C539 1.510 . S
C530 C526 1.401 . S
C530 C529 1.396 . S
C531 C526 1.499 . S
C531 H532 0.959 . S
C531 H533 0.960 . S
C531 H534 0.961 . S
H532 C531 0.959 . S
H533 C531 0.960 . S
H534 C531 0.961 . S
O535 Co510 1.967 . S
O535 C543 1.258 . S
O536 Co511 1.941 . S
O536 C543 1.266 . S
H537 C539 0.959 . S
H538 C539 0.961 . S
C539 C529 1.510 . S
C539 H537 0.959 . S
C539 H538 0.961 . S
C539 H540 0.960 . S
H540 C539 0.960 . S
H541 N521 0.862 . S
O542 Co510 1.920 . S
O542 C515 1.289 1_545 S
C543 O535 1.258 . S
C543 O536 1.266 . S
C5 C277 1.407 1_564 S
C311 C39 1.407 . S
C73 C345 1.407 1_454 S
C107 C379 1.407 1_645 S
C141 C413 1.407 1_556 S
C447 C175 1.407 1_455 S
C481 C209 1.407 1_644 S
C243 C515 1.407 1_545 S
C9 C145 2.278 1_554 S
C43 C179 2.278 . S
C77 C213 2.278 1_554 S
C111 C247 2.278 . S
C417 C281 2.278 1_554 S
C451 C315 2.278 . S
C485 C349 2.278 1_554 S
C383 C519 2.278 . S
C2 C240 3.073 . S
C138 C36 3.073 . S
C172 C70 3.073 . S
C104 C206 3.073 . S
C512 C274 3.073 . S
C410 C308 3.073 . S
C342 C444 3.073 . S
C376 C478 3.073 . S
C543 C20 2.025 . S
C54 C441 2.025 . S
C88 C475 2.025 . S
C509 C122 2.025 . S
C156 C339 2.025 . S
C190 C373 2.025 . S
C407 C224 2.025 . S
C258 C305 2.025 . S
C292 C271 2.025 . S
C169 C326 2.025 . S
C360 C203 2.025 . S
C237 C394 2.025 . S
C428 C67 2.025 . S
C101 C462 2.025 . S
C135 C496 2.025 . S
C33 C530 2.025 . S
