# Generated by pormake.
# Topology rkf, (6)-cn, num edge types: 1
# Building blocks:
#     Node 0, Type 0, BuildingBlock: BETDAH_clean_sbu_0, # of connection points: 6
#     Node 1, Type 0, BuildingBlock: BETDAH_clean_sbu_0, # of connection points: 6
#     Node 2, Type 0, BuildingBlock: BETDAH_clean_sbu_0, # of connection points: 6
#     Node 3, Type 0, BuildingBlock: BETDAH_clean_sbu_0, # of connection points: 6
#     Node 4, Type 0, BuildingBlock: BETDAH_clean_sbu_0, # of connection points: 6
#     Node 5, Type 0, BuildingBlock: BETDAH_clean_sbu_0, # of connection points: 6
#     Edge 6, Type (0, 0), BuildingBlock: TEMPAE_clean_linker_10, # of connection points: 2
#     Edge 7, Type (0, 0), BuildingBlock: TEMPAE_clean_linker_10, # of connection points: 2
#     Edge 8, Type (0, 0), BuildingBlock: TEMPAE_clean_linker_10, # of connection points: 2
#     Edge 9, Type (0, 0), BuildingBlock: TEMPAE_clean_linker_10, # of connection points: 2
#     Edge 10, Type (0, 0), BuildingBlock: TEMPAE_clean_linker_10, # of connection points: 2
#     Edge 11, Type (0, 0), BuildingBlock: TEMPAE_clean_linker_10, # of connection points: 2
#     Edge 12, Type (0, 0), BuildingBlock: TEMPAE_clean_linker_10, # of connection points: 2
#     Edge 13, Type (0, 0), BuildingBlock: TEMPAE_clean_linker_10, # of connection points: 2
#     Edge 14, Type (0, 0), BuildingBlock: TEMPAE_clean_linker_10, # of connection points: 2
#     Edge 15, Type (0, 0), BuildingBlock: TEMPAE_clean_linker_10, # of connection points: 2
#     Edge 16, Type (0, 0), BuildingBlock: TEMPAE_clean_linker_10, # of connection points: 2
#     Edge 17, Type (0, 0), BuildingBlock: TEMPAE_clean_linker_10, # of connection points: 2
#     Edge 18, Type (0, 0), BuildingBlock: TEMPAE_clean_linker_10, # of connection points: 2
#     Edge 19, Type (0, 0), BuildingBlock: TEMPAE_clean_linker_10, # of connection points: 2
#     Edge 20, Type (0, 0), BuildingBlock: TEMPAE_clean_linker_10, # of connection points: 2
#     Edge 21, Type (0, 0), BuildingBlock: TEMPAE_clean_linker_10, # of connection points: 2
#     Edge 22, Type (0, 0), BuildingBlock: TEMPAE_clean_linker_10, # of connection points: 2
#     Edge 23, Type (0, 0), BuildingBlock: TEMPAE_clean_linker_10, # of connection points: 2
# Relax obj value: 0.701
# Max RMSD: 0.248
# Mean RMSD: 0.248
data_MOF--net-rkf--node1-BETDAH_clean_sbu_0--edge1-TEMPAE_clean_linker_10
_symmetry_space_group_name_H-M    P1
_symmetry_Int_Tables_number       1
_symmetry_cell_setting            triclinic
loop_
_symmetry_equiv_pos_as_xyz
'x, y, z'
_cell_length_a     25.473005
_cell_length_b     25.229907
_cell_length_c     46.130795
_cell_angle_alpha  90.10358
_cell_angle_beta   90.18327
_cell_angle_gamma 119.79372
loop_
_atom_site_label
_atom_site_type_symbol
_atom_site_fract_x
_atom_site_fract_y
_atom_site_fract_z
_atom_type_partial_charge
Ho0 Ho 0.35291 0.0741 0.14842 0.0
Ho1 Ho 0.31939 0.16669 0.13704 0.0
C2 C 0.33013 0.14695 0.20476 0.0
C3 C 0.41298 0.02155 0.16479 0.0
C4 C 0.40897 -0.01263 0.19126 0.0
C5 C 0.40246 0.92894 0.18893 0.0
C6 C 0.38162 0.88901 0.21251 0.0
C7 C 0.36681 0.90701 0.2387 0.0
C8 C 0.37922 0.96773 0.24167 0.0
C9 C 0.40012 0.00748 0.2182 0.0
C10 C 0.23408 0.02335 0.1485 0.0
C11 C 0.30512 0.07698 1.08236 0.0
C12 C 0.28953 0.24763 1.12346 0.0
C13 C 0.3234 0.30824 1.11011 0.0
C14 C 0.36403 0.31879 1.08752 0.0
C15 C 0.39544 0.37628 1.07478 0.0
C16 C 0.38745 0.42478 1.08457 0.0
C17 C 0.34966 0.41488 1.10855 0.0
C18 C 0.31772 0.35699 1.12111 0.0
C19 C 0.44032 0.20281 0.13273 0.0
O20 O 0.35565 0.11443 0.19538 0.0
O21 O 0.30343 0.16413 0.18536 0.0
O22 O 0.36486 -0.00482 0.14834 0.0
O23 O 0.43339 0.08022 0.16776 0.0
O24 O 0.26258 -0.00515 0.14144 0.0
O25 O 0.2693 0.07633 0.15866 0.0
O26 O 0.28502 0.11153 1.09448 0.0
O27 O 0.34052 0.06278 1.0983 0.0
O28 O 0.30892 0.2437 0.14903 0.0
O29 O 0.27693 0.20031 1.10712 0.0
O30 O 0.42012 0.23325 0.14661 0.0
O31 O 0.39589 0.15624 1.12294 0.0
H32 H 0.4092 0.91265 0.16829 0.0
H33 H 0.37349 0.84291 0.20967 0.0
H34 H 0.36782 -0.01674 0.26132 0.0
H35 H 0.40481 0.05232 0.22065 0.0
H36 H 0.37041 0.28221 1.07917 0.0
H37 H 0.42314 0.38137 1.05609 0.0
H38 H 0.34292 0.45121 1.11687 0.0
H39 H 0.28777 0.35001 0.13912 0.0
Ho40 Ho 0.34228 0.32822 0.48651 0.0
Ho41 Ho 0.22464 0.31708 0.46578 0.0
C42 C 0.23597 0.31572 0.53538 0.0
C43 C 0.44951 0.37596 0.50873 0.0
C44 C 0.4711 0.36457 0.53614 0.0
C45 C 0.53273 0.38509 0.54057 0.0
C46 C 0.55153 0.36464 0.56455 0.0
C47 C 0.50867 0.32303 0.58416 0.0
C48 C 0.44719 0.30493 0.58001 0.0
C49 C 0.42872 0.32564 0.55634 0.0
C50 C 0.25767 0.21356 0.48076 0.0
C51 C 0.30519 0.29082 0.41761 0.0
C52 C 0.12932 0.3057 0.44026 0.0
C53 C 0.1258 0.33918 0.41512 0.0
C54 C 0.17912 0.38 0.40065 0.0
C55 C 0.17697 0.41282 0.37683 0.0
C56 C 0.12142 0.40545 0.36707 0.0
C57 C 0.06823 0.36571 0.38219 0.0
C58 C 0.07046 0.33281 0.4061 0.0
C59 C 0.3248 0.43081 0.46645 0.0
O60 O 0.29381 0.33031 0.53012 0.0
O61 O 0.19771 0.30093 0.51326 0.0
O62 O 0.42701 0.32933 0.49096 0.0
O63 O 0.41557 0.40137 0.51072 0.0
O64 O 0.31482 0.23061 0.48207 0.0
O65 O 0.24854 0.25615 0.48931 0.0
O66 O 0.25129 0.28293 0.42512 0.0
O67 O 0.35104 0.31621 0.43682 0.0
O68 O 0.15326 0.3395 0.46327 0.0
O69 O 0.15096 0.26919 0.43522 0.0
O70 O 0.27284 0.41971 0.476 0.0
O71 O 0.32018 0.38197 0.45792 0.0
H72 H 0.56592 0.41475 0.52492 0.0
H73 H 0.59918 0.3798 0.5672 0.0
H74 H 0.4125 0.27175 0.59407 0.0
H75 H 0.38083 0.30846 0.55294 0.0
H76 H 0.22239 0.38588 0.40762 0.0
H77 H 0.21854 0.44215 0.3654 0.0
H78 H 0.02482 0.35939 0.37525 0.0
H79 H 0.02908 0.30215 0.41735 0.0
Ho80 Ho 0.06713 0.29048 0.81129 0.0
Ho81 Ho 0.93994 0.24216 0.79531 0.0
C82 C 0.9655 0.22046 0.8629 0.0
C83 C 0.17784 0.35306 0.82896 0.0
C84 C 0.21741 0.3844 0.85382 0.0
C85 C 0.21325 0.42997 0.86955 0.0
C86 C 0.25331 0.46018 0.89244 0.0
C87 C 0.29764 0.44495 0.8999 0.0
C88 C 0.3026 0.40056 0.88364 0.0
C89 C 0.26293 0.37072 0.86075 0.0
C90 C 0.01697 0.18265 0.7835 0.0
C91 C 0.0448 0.29479 0.74227 0.0
C92 C 0.82801 0.19681 0.7801 0.0
C93 C 0.78099 0.17184 0.75787 0.0
C94 C 0.79372 0.16295 0.72945 0.0
C95 C 0.74707 0.13706 0.70905 0.0
C96 C 0.68716 0.11992 0.71682 0.0
C97 C 0.67505 0.13018 0.74526 0.0
C98 C 0.72182 0.15618 0.76563 0.0
C99 C -0.00775 0.35173 0.8226 0.0
O100 O 0.02358 0.25856 0.85667 0.0
O101 O 0.92464 0.20267 0.84158 0.0
O102 O 0.14689 0.29329 0.82956 0.0
O103 O 0.14747 0.37748 0.81785 0.0
O104 O 0.07226 0.22575 0.78058 0.0
O105 O -0.00895 0.19594 0.80299 0.0
O106 O -0.01424 0.26013 0.74903 0.0
O107 O 0.08457 0.31879 0.76379 0.0
O108 O 0.86786 0.25487 0.77843 0.0
O109 O 0.85137 0.16334 0.78841 0.0
O110 O 0.93952 0.3068 0.82857 0.0
O111 O 0.01515 0.33631 0.80248 0.0
H112 H 0.17883 0.4418 0.86439 0.0
H113 H 0.2482 0.49366 0.90499 0.0
H114 H 0.33646 0.3881 0.88908 0.0
H115 H 0.26753 0.33651 0.84854 0.0
H116 H 0.83928 0.17487 0.72324 0.0
H117 H 0.75761 0.12831 0.68745 0.0
H118 H 0.62947 0.11739 0.7518 0.0
H119 H 0.71166 0.16324 0.78762 0.0
Ho120 Ho 0.87744 0.10081 0.14549 0.0
Ho121 Ho 0.76235 -0.00568 0.13645 0.0
C122 C 0.82202 0.00151 0.20019 0.0
C123 C 0.96559 0.20368 0.16368 0.0
C124 C -0.00656 0.27061 0.16088 0.0
C125 C 0.96653 0.30147 0.17396 0.0
C126 C 0.00125 0.36344 0.18064 0.0
C127 C 0.06363 0.39568 0.17446 0.0
C128 C 0.08738 0.36713 0.15679 0.0
C129 C 0.05282 0.30474 0.15049 0.0
C130 C 0.88442 0.0055 1.123 0.0
C131 C 0.83616 0.08181 1.07986 0.0
C132 C 0.6647 0.89594 1.12038 0.0
C133 C 0.6483 0.84724 1.09896 0.0
C134 C 0.6917 0.83274 1.08929 0.0
C135 C 0.6766 0.78785 1.06824 0.0
C136 C 0.61795 0.75695 1.05624 0.0
C137 C 0.57409 0.77058 1.06647 0.0
C138 C 0.58918 0.81534 1.08785 0.0
C139 C 0.75338 0.08939 0.15893 0.0
O140 O 0.86392 0.0568 0.19121 0.0
O141 O 0.77831 0.966 0.18169 0.0
O142 O 0.91287 0.17452 0.17638 0.0
O143 O -0.02896 0.17305 0.14216 0.0
O144 O 0.92067 0.06205 1.11638 0.0
O145 O 0.85025 0.00311 0.14297 0.0
O146 O 0.80034 0.02436 1.08911 0.0
O147 O 0.86327 0.12491 1.09982 0.0
O148 O 0.68064 0.95004 1.11018 0.0
O149 O 0.70036 0.89793 0.14118 0.0
O150 O 0.72413 0.03375 0.16788 0.0
O151 O 0.78787 0.09248 0.13865 0.0
H152 H 0.92042 0.27676 0.18176 0.0
H153 H -0.01942 0.38338 0.19396 0.0
H154 H 0.13467 0.39105 0.15075 0.0
H155 H 0.07441 0.28223 0.13992 0.0
H156 H 0.7377 0.85716 1.0975 0.0
H157 H 0.71198 0.7798 1.06021 0.0
H158 H 0.52884 0.74792 1.05735 0.0
H159 H 0.55515 0.82605 1.09522 0.0
Ho160 Ho 0.8364 0.87614 0.48195 0.0
Ho161 Ho 0.87201 0.78176 0.46606 0.0
C162 C 0.90137 0.83288 0.53349 0.0
C163 C 0.77317 0.92351 0.50006 0.0
C164 C 0.73202 0.91526 0.52416 0.0
C165 C 0.6691 0.87607 0.52101 0.0
C166 C 0.62964 0.87014 0.54335 0.0
C167 C 0.65252 0.90322 0.56914 0.0
C168 C 0.71536 0.94247 0.57214 0.0
C169 C 0.75465 0.94842 0.54993 0.0
C170 C 0.94293 0.9202 0.4562 0.0
C171 C 0.83828 0.85191 0.41267 0.0
C172 C 0.91497 0.7163 0.44484 0.0
C173 C 0.95344 0.72154 0.42027 0.0
C174 C -0.01123 0.77805 0.40679 0.0
C175 C 0.02931 0.78419 0.38509 0.0
C176 C 0.03458 0.73362 0.37615 0.0
C177 C -0.00252 0.67654 0.38913 0.0
C178 C 0.95733 0.67066 0.41113 0.0
C179 C 0.75938 0.7365 0.48871 0.0
O180 O 0.86998 0.86132 0.52707 0.0
O181 O 0.91037 0.80121 0.51274 0.0
O182 O 0.83116 0.94752 0.50578 0.0
O183 O 0.75325 0.87795 0.48177 0.0
O184 O 0.91004 0.94623 0.45406 0.0
O185 O 0.92194 0.87858 0.47474 0.0
O186 O 0.8645 0.81891 0.42025 0.0
O187 O 0.81832 0.8742 0.43333 0.0
O188 O 0.86111 0.70737 0.43845 0.0
O189 O 0.9417 0.75714 0.46528 0.0
O190 O 0.7941 0.71357 0.49353 0.0
O191 O 0.78523 0.77929 0.47096 0.0
H192 H 0.6502 0.85046 0.50116 0.0
H193 H 0.58146 0.84005 0.54042 0.0
H194 H 0.73423 0.97009 0.59148 0.0
H195 H 0.8026 0.97972 0.55282 0.0
H196 H -0.01389 0.81775 0.41358 0.0
H197 H 0.05781 0.82908 0.37599 0.0
H198 H -0.00023 0.63656 0.38247 0.0
H199 H 0.93004 0.62664 0.42132 0.0
Ho200 Ho 0.07416 0.88548 0.81433 0.0
Ho201 Ho 0.18474 0.8866 0.79906 0.0
C202 C 0.17098 0.92655 0.86571 0.0
C203 C 0.96344 0.8591 0.82319 0.0
C204 C 0.9149 0.83175 0.84479 0.0
C205 C 0.89172 0.77133 0.85444 0.0
C206 C 0.84421 0.74632 0.87432 0.0
C207 C 0.81973 0.78153 0.88494 0.0
C208 C 0.84242 0.84151 0.87492 0.0
C209 C 0.8894 0.86627 0.85494 0.0
C210 C 0.16659 -0.00433 0.79491 0.0
C211 C 0.08431 0.86305 0.74512 0.0
C212 C 0.28754 0.90265 0.7812 0.0
C213 C 0.32864 0.92991 0.75676 0.0
C214 C 0.39025 0.94995 0.76081 0.0
C215 C 0.43223 -0.01427 0.73982 0.0
C216 C 0.41305 0.00152 0.71431 0.0
C217 C 0.35066 0.97873 0.70983 0.0
C218 C 0.3088 0.94342 0.73096 0.0
C219 C 0.10926 0.78765 0.83117 0.0
O220 O 0.11217 0.89329 0.86011 0.0
O221 O 0.20896 0.93998 0.84329 0.0
O222 O 0.01022 0.91183 0.8298 0.0
O223 O -0.02155 0.82274 0.81008 0.0
O224 O 0.13184 -0.01086 0.8167 0.0
O225 O 0.14972 0.94347 0.78565 0.0
O226 O 0.13847 0.86912 0.75247 0.0
O227 O 0.05138 0.86823 0.76597 0.0
O228 O 0.23612 0.85244 0.77624 0.0
O229 O 0.28155 0.94196 0.79741 0.0
O230 O 0.16694 0.81954 0.83457 0.0
O231 O 0.09431 0.80995 0.81051 0.0
H232 H 0.91034 0.74352 0.84678 0.0
H233 H 0.8277 0.70016 0.88198 0.0
H234 H 0.8239 0.86936 0.88268 0.0
H235 H 0.90598 0.91257 0.84743 0.0
H236 H 0.40621 0.94031 0.78084 0.0
H237 H 0.47974 0.00257 0.744 0.0
H238 H 0.33432 -0.00884 0.69077 0.0
H239 H 0.26144 0.92918 0.72774 0.0
C240 C 0.94034 0.96583 1.09601 0.0
C241 C 0.90108 0.9586 1.11861 0.0
C242 C -0.01831 0.94529 1.09943 0.0
C243 C -0.01646 0.9194 1.12633 0.0
C244 C 0.93386 0.89786 0.14534 0.0
C245 C 0.89219 0.91792 0.14118 0.0
C246 C 0.031 0.96335 1.07723 0.0
C247 C 0.93176 0.86513 0.17297 0.0
C248 C 0.13506 0.93225 0.13822 0.0
C249 C 0.16819 -0.00727 0.14827 0.0
C250 C 0.07282 0.90465 0.13344 0.0
C251 C 0.04381 0.93888 0.13864 0.0
C252 C 0.07634 -0.00194 0.15144 0.0
C253 C 0.13855 0.02438 0.15598 0.0
C254 C 0.03998 0.84087 1.12094 0.0
C255 C 0.04684 0.03587 0.15832 0.0
H256 H 0.94463 -0.00521 1.07776 0.0
H257 H 0.85937 0.9098 0.15799 0.0
H258 H 0.07165 0.00631 1.08426 0.0
H259 H 0.04392 0.92755 1.07512 0.0
H260 H 0.01662 0.9712 1.05565 0.0
H261 H 0.88434 0.83559 0.18019 0.0
H262 H 0.95369 0.83688 0.17019 0.0
H263 H 0.95634 0.89929 0.1903 0.0
H264 H 0.15807 0.90715 0.13278 0.0
H265 H 0.16438 0.07074 0.16419 0.0
H266 H 0.04995 0.84287 1.09744 0.0
H267 H -0.00975 0.81841 1.12374 0.0
H268 H 0.0565 0.81208 0.13125 0.0
H269 H 0.03323 0.04905 0.13792 0.0
H270 H 0.07766 0.07838 0.17039 0.0
H271 H 0.00573 0.00925 0.17158 0.0
C272 C 0.04343 0.9323 0.44921 0.0
C273 C -0.00655 0.93295 0.43735 0.0
C274 C 0.10039 0.97014 0.43739 0.0
C275 C 0.10499 0.00978 0.41453 0.0
C276 C 0.05389 -0.00737 0.39687 0.0
C277 C -0.00298 0.95649 0.40944 0.0
C278 C 0.15513 0.97704 0.45338 0.0
C279 C 0.05956 0.02307 0.36811 0.0
C280 C 0.15865 0.15075 0.45779 0.0
C281 C 0.21932 0.16792 0.45944 0.0
C282 C 0.12059 0.1059 0.43822 0.0
C283 C 0.14429 0.07568 0.42079 0.0
C284 C 0.2075 0.10092 0.4189 0.0
C285 C 0.24443 0.1457 0.43895 0.0
C286 C 0.05484 0.08909 0.43884 0.0
C287 C 0.23623 0.07867 0.39707 0.0
H288 H 0.03948 0.9096 0.46971 0.0
H289 H 0.95727 0.95314 0.39912 0.0
H290 H 0.18966 0.98059 0.43778 0.0
H291 H 0.175 0.019 0.46695 0.0
H292 H 0.14343 0.93753 0.46783 0.0
H293 H 0.01768 -0.00249 0.35491 0.0
H294 H 0.06821 0.0703 0.37143 0.0
H295 H 0.09863 0.02627 0.35599 0.0
H296 H 0.14046 0.17111 0.47254 0.0
H297 H 0.29277 0.16273 0.43865 0.0
H298 H 0.02976 0.04959 0.45337 0.0
H299 H 0.03418 0.0787 0.417 0.0
H300 H 0.04909 0.1269 0.44769 0.0
H301 H 0.26017 0.05806 0.40842 0.0
H302 H 0.27122 0.11815 0.38476 0.0
H303 H 0.20293 0.04522 0.38147 0.0
C304 C 0.16567 0.02631 0.74443 0.0
C305 C 0.1817 0.04419 0.77357 0.0
C306 C 0.1324 0.04777 0.72923 0.0
C307 C 0.12282 0.09229 0.74269 0.0
C308 C 0.16053 0.12589 0.76637 0.0
C309 C 0.18735 0.09926 0.78283 0.0
C310 C 0.09806 0.01422 0.70237 0.0
C311 C 0.16213 0.18221 0.77797 0.0
C312 C 0.00947 0.14221 0.73563 0.0
C313 C -0.00955 0.12897 0.76448 0.0
C314 C 0.05103 0.12605 0.72506 0.0
C315 C 0.06176 0.08564 0.74168 0.0
C316 C 0.02125 0.05309 0.76462 0.0
C317 C -0.01369 0.07651 0.77645 0.0
C318 C 0.08892 0.15963 0.69922 0.0
C319 C 0.02292 0.00178 0.78025 0.0
H320 H 0.16731 -0.01282 0.73586 0.0
H321 H 0.20426 0.11634 0.80444 0.0
H322 H 0.08247 0.04089 0.68953 0.0
H323 H 0.12667 0.0029 0.68848 0.0
H324 H 0.05761 0.9708 0.70881 0.0
H325 H 0.20654 0.21302 0.78834 0.0
H326 H 0.15426 0.2073 0.76032 0.0
H327 H 0.12692 0.16865 0.79488 0.0
H328 H 0.00464 0.17693 0.72459 0.0
H329 H 0.96622 0.06146 0.79768 0.0
H330 H 0.05886 0.15245 0.68038 0.0
H331 H 0.12205 0.14523 0.69319 0.0
H332 H 0.11408 0.20936 0.70396 0.0
H333 H -0.02263 0.96912 0.78878 0.0
H334 H 0.05421 0.02094 0.799 0.0
H335 H 0.03806 0.97667 0.76594 0.0
C336 C 0.36658 0.4991 1.05897 0.0
C337 C 0.40797 0.47957 1.06591 0.0
C338 C 0.36816 0.52401 1.03168 0.0
C339 C 0.41132 0.52804 1.01132 0.0
C340 C 0.46196 0.52431 1.02112 0.0
C341 C 0.45982 0.49985 1.04867 0.0
C342 C 0.31652 0.53364 1.02279 0.0
C343 C 0.51199 0.53439 1.00064 0.0
C344 C 0.33062 0.42686 0.94729 0.0
C345 C 0.33304 0.46871 0.92685 0.0
C346 C 0.3583 0.44621 0.97433 0.0
C347 C 0.39038 0.50964 0.98102 0.0
C348 C 0.39601 0.55257 0.95976 0.0
C349 C 0.36614 0.53143 0.93297 0.0
C350 C 0.35054 0.39792 0.99604 0.0
C351 C 0.43173 0.62047 0.96515 0.0
H352 H 0.32764 0.48656 1.07262 0.0
H353 H 0.49432 0.48869 1.05478 0.0
H354 H 0.33269 0.57373 1.00831 0.0
H355 H 0.28227 0.49282 1.01074 0.0
H356 H 0.29423 0.54064 1.04192 0.0
H357 H 0.55363 0.54381 1.01263 0.0
H358 H 0.49746 0.4927 0.98729 0.0
H359 H 0.52222 0.57278 0.98571 0.0
H360 H 0.30458 0.37836 0.94253 0.0
H361 H 0.36843 0.56383 0.9169 0.0
H362 H 0.32717 0.40106 1.01565 0.0
H363 H 0.39533 0.40478 1.00274 0.0
H364 H 0.32371 0.35086 0.98717 0.0
H365 H 0.46393 0.63276 0.98354 0.0
H366 H 0.40008 0.6376 0.96983 0.0
H367 H 0.45732 0.64431 0.94539 0.0
C368 C 0.16286 0.49308 0.33188 0.0
C369 C 0.11859 0.43329 0.33923 0.0
C370 C 0.1667 0.51502 0.3035 0.0
C371 C 0.12579 0.47587 0.28214 0.0
C372 C 0.07804 0.41736 0.29016 0.0
C373 C 0.07508 0.39699 0.31858 0.0
C374 C 0.21574 0.57888 0.29611 0.0
C375 C 0.03255 0.37394 0.26826 0.0
C376 C 0.08389 0.48492 0.20625 0.0
C377 C 0.10429 0.4475 0.19386 0.0
C378 C 0.10007 0.50636 0.23484 0.0
C379 C 0.13729 0.48987 0.25076 0.0
C380 C 0.16935 0.46581 0.23584 0.0
C381 C 0.15278 0.44535 0.20729 0.0
C382 C 0.0689 0.53684 0.24921 0.0
C383 C 0.21166 0.44965 0.25149 0.0
H384 H 0.1957 0.52187 0.34806 0.0
H385 H 0.04096 0.35076 0.32406 0.0
H386 H 0.2458 0.57764 0.27912 0.0
H387 H 0.19508 0.60503 0.28712 0.0
H388 H 0.24373 0.60368 0.31529 0.0
H389 H -0.003 0.33125 0.27841 0.0
H390 H 0.01006 0.39613 0.25701 0.0
H391 H 0.05587 0.36134 0.25164 0.0
H392 H 0.04905 0.49023 0.19533 0.0
H393 H 0.17119 0.41888 0.19769 0.0
H394 H 0.09318 0.56227 0.26902 0.0
H395 H 0.02237 0.50158 0.25535 0.0
H396 H 0.06508 0.56874 0.23392 0.0
H397 H 0.23955 0.4848 0.26781 0.0
H398 H 0.24225 0.44426 0.23615 0.0
H399 H 0.1846 0.40565 0.263 0.0
C400 C 0.64705 0.10172 0.66657 0.0
C401 C 0.63764 0.08553 0.69581 0.0
C402 C 0.61535 0.05817 0.6451 0.0
C403 C 0.57219 -0.00209 0.65352 0.0
C404 C 0.55205 -0.01322 0.68251 0.0
C405 C 0.58667 0.03025 0.70377 0.0
C406 C 0.63523 0.07436 0.61401 0.0
C407 C 0.49883 0.9263 0.69121 0.0
C408 C 0.56352 0.91109 0.58665 0.0
C409 C 0.61224 0.90148 0.59254 0.0
C410 C 0.54047 0.93246 0.60857 0.0
C411 C 0.56925 0.94709 0.63603 0.0
C412 C 0.61085 0.92687 0.64307 0.0
C413 C 0.6304 0.90263 0.62122 0.0
C414 C 0.48993 0.945 0.60127 0.0
C415 C 0.64209 0.93895 0.67228 0.0
H416 H 0.68415 0.14611 0.66052 0.0
H417 H 0.57737 0.01847 0.72646 0.0
H418 H 0.65451 0.04628 0.6058 0.0
H419 H 0.59581 0.0651 0.60028 0.0
H420 H 0.67003 0.12319 0.61143 0.0
H421 H 0.49252 0.92224 0.71506 0.0
H422 H 0.45728 0.9216 0.68091 0.0
H423 H 0.5039 0.88756 0.68328 0.0
H424 H 0.54725 0.9076 0.56459 0.0
H425 H 0.6657 0.89166 0.62587 0.0
H426 H 0.50469 0.98015 0.58406 0.0
H427 H 0.4743 0.96011 0.62038 0.0
H428 H 0.45102 0.90285 0.5923 0.0
H429 H 0.66951 -0.01112 0.67621 0.0
H430 H 0.67273 0.91952 0.67385 0.0
H431 H 0.60834 0.91869 0.68985 0.0
C432 C 0.58709 0.73444 1.00462 0.0
C433 C 0.60753 0.71951 1.02988 0.0
C434 C 0.60359 0.72315 0.97734 0.0
C435 C 0.64153 0.69714 0.9758 0.0
C436 C 0.65107 0.67072 1.00082 0.0
C437 C 0.63357 0.68206 1.02781 0.0
C438 C 0.58964 0.74885 0.95081 0.0
C439 C 0.68835 0.63944 0.99979 0.0
C440 C 0.7205 0.70115 0.90524 0.0
C441 C 0.77357 0.7579 0.90793 0.0
C442 C 0.67611 0.68028 0.92697 0.0
C443 C 0.6863 0.71657 0.95206 0.0
C444 C 0.74054 0.77348 0.95493 0.0
C445 C 0.7832 0.79339 0.93277 0.0
C446 C 0.61906 0.6195 0.92309 0.0
C447 C 0.75382 0.81383 0.98139 0.0
H448 H 0.5655 0.7621 1.00605 0.0
H449 H 0.64715 0.66832 1.04741 0.0
H450 H 0.62924 0.79404 0.94571 0.0
H451 H 0.58072 0.71851 0.93179 0.0
H452 H 0.54996 0.75516 0.95433 0.0
H453 H 0.6806 0.61043 1.01918 0.0
H454 H 0.67765 0.61073 0.98004 0.0
H455 H 0.73706 0.67451 0.99911 0.0
H456 H 0.71325 0.67373 0.88594 0.0
H457 H 0.82472 0.83682 0.93496 0.0
H458 H 0.57913 0.61999 0.93234 0.0
H459 H 0.62427 0.58376 0.93454 0.0
H460 H 0.61004 0.60631 0.89985 0.0
H461 H 0.71873 0.82735 0.98375 0.0
H462 H 0.79866 0.85608 0.98024 0.0
H463 H 0.75294 0.78859 1.00122 0.0
C464 C 0.09291 0.78181 0.33107 0.0
C465 C 0.08064 0.74165 0.35429 0.0
C466 C 0.14173 0.79688 0.31258 0.0
C467 C 0.1784 0.7699 0.31694 0.0
C468 C 0.16356 0.72575 0.33893 0.0
C469 C 0.11524 0.71269 0.35761 0.0
C470 C 0.1557 0.84401 0.28924 0.0
C471 C 0.2 0.69429 0.34393 0.0
C472 C 0.27909 0.80546 0.25205 0.0
C473 C 0.32886 0.8613 0.26082 0.0
C474 C 0.23221 0.7704 0.27141 0.0
C475 C 0.2347 0.79263 0.29982 0.0
C476 C 0.28815 0.84453 0.30978 0.0
C477 C 0.33501 0.87793 0.29019 0.0
C478 C 0.17744 0.71314 0.2605 0.0
C479 C 0.29324 0.86854 0.34026 0.0
H480 H 0.06526 0.80291 0.32779 0.0
H481 H 0.10634 0.68163 0.37551 0.0
H482 H 0.20121 0.88416 0.29308 0.0
H483 H 0.15642 0.82477 0.26771 0.0
H484 H 0.12216 0.85995 0.28853 0.0
H485 H 0.17026 0.6464 0.35104 0.0
H486 H 0.2248 0.69401 0.32428 0.0
H487 H 0.23341 0.71841 0.36151 0.0
H488 H 0.27383 0.79158 0.22949 0.0
H489 H 0.37436 0.91984 0.29735 0.0
H490 H 0.14335 0.72476 0.25238 0.0
H491 H 0.1563 0.67905 0.27806 0.0
H492 H 0.18939 0.69212 0.24236 0.0
H493 H 0.26211 0.88715 0.34279 0.0
H494 H 0.33991 0.90531 0.34553 0.0
H495 H 0.2796 0.83107 0.35615 0.0
C496 C 0.50789 0.10047 0.70453 0.0
C497 C 0.45735 0.04724 0.69397 0.0
C498 C 0.54049 0.15085 0.68637 0.0
C499 C 0.51982 0.14875 0.65772 0.0
C500 C 0.47485 0.09235 0.64593 0.0
C501 C 0.44466 0.04188 0.66421 0.0
C502 C 0.59322 0.20814 0.69857 0.0
C503 C 0.45363 0.08698 0.61492 0.0
C504 C 0.49314 0.27537 0.63298 0.0
C505 C 0.52554 0.29258 0.60697 0.0
C506 C 0.49401 0.23111 0.65082 0.0
C507 C 0.53125 0.20611 0.64336 0.0
C508 C 0.57102 0.23016 0.61954 0.0
C509 C 0.5668 0.27228 0.60118 0.0
C510 C 0.45059 0.20718 0.67605 0.0
C511 C 0.61522 0.20897 0.61212 0.0
H512 H 0.51952 0.10466 0.72736 0.0
H513 H 0.40773 -0.00034 0.65566 0.0
H514 H 0.62884 0.23109 0.68191 0.0
H515 H 0.57793 0.24046 0.70533 0.0
H516 H 0.61311 0.19805 0.71779 0.0
H517 H 0.41939 0.03937 0.60899 0.0
H518 H 0.43349 0.1167 0.61148 0.0
H519 H 0.49252 0.10246 0.60002 0.0
H520 H 0.46331 0.29309 0.63829 0.0
H521 H 0.59299 0.28592 0.58138 0.0
H522 H 0.47569 0.21312 0.69657 0.0
H523 H 0.41859 0.1576 0.67315 0.0
H524 H 0.42384 0.2308 0.67836 0.0
H525 H 0.65794 0.24761 0.60373 0.0
H526 H 0.59596 0.17402 0.59469 0.0
H527 H 0.62594 0.18917 0.63113 0.0
C528 C 0.51227 0.16812 1.11925 0.0
C529 C 0.5006 0.20795 0.13562 0.0
C530 C 0.56307 0.16202 1.12474 0.0
C531 C 0.60464 0.19804 0.14668 0.0
C532 C 0.59579 0.2421 0.16173 0.0
C533 C 0.54335 0.24618 0.15622 0.0
C534 C 0.56972 0.11372 1.10839 0.0
C535 C 0.63985 0.28242 0.18472 0.0
C536 C 0.67555 0.11108 0.17912 0.0
C537 C 0.7257 0.12891 0.16104 0.0
C538 C 0.6385 0.13734 0.17651 0.0
C539 C 0.65254 0.18358 0.15564 0.0
C540 C 0.70709 0.20671 0.13973 0.0
C541 C 0.74287 0.17867 0.14241 0.0
C542 C 0.58064 0.11022 0.19376 0.0
C543 C 0.72505 0.25755 1.11811 0.0
H544 H 0.4796 0.13886 1.1031 0.0
H545 H 0.53464 0.27727 0.16883 0.0
H546 H 0.61504 0.13395 1.09829 0.0
H547 H 0.56557 0.07792 1.12367 0.0
H548 H 0.53492 0.09151 1.09112 0.0
H549 H 0.63306 0.32139 0.19043 0.0
H550 H 0.63367 0.25526 0.20459 0.0
H551 H 0.68715 0.30044 0.17738 0.0
H552 H 0.66247 0.07322 0.1939 0.0
H553 H 0.78213 0.19333 1.12867 0.0
H554 H 0.54285 0.07754 0.17975 0.0
H555 H 0.57011 0.14578 0.20102 0.0
H556 H 0.58272 0.08503 0.21306 0.0
H557 H 0.6985 0.2388 1.09785 0.0
H558 H 0.77386 0.27945 1.11265 0.0
H559 H 0.7152 0.29288 1.12657 0.0
C560 C 0.39415 0.52606 0.49448 0.0
C561 C 0.38387 0.48614 0.47126 0.0
C562 C 0.45324 0.57308 0.50115 0.0
C563 C 0.5024 0.58031 0.48392 0.0
C564 C 0.49133 0.54151 0.45971 0.0
C565 C 0.43238 0.49477 0.45386 0.0
C566 C 0.46339 0.61316 0.52727 0.0
C567 C 0.54206 0.54798 0.44045 0.0
C568 C 0.65657 0.72167 0.47866 0.0
C569 C 0.69299 0.70228 0.49269 0.0
C570 C 0.59341 0.68458 0.47782 0.0
C571 C 0.56606 0.62657 0.49123 0.0
C572 C 0.60225 0.609 0.50746 0.0
C573 C 0.66542 0.6471 0.50796 0.0
C574 C 0.55668 0.70534 0.46041 0.0
C575 C 0.57479 0.54777 0.52233 0.0
H576 H 0.35664 0.51881 0.50815 0.0
H577 H 0.42432 0.4638 0.43589 0.0
H578 H 0.48759 0.60251 0.54429 0.0
H579 H 0.4923 0.66202 0.5216 0.0
H580 H 0.4202 0.60635 0.53644 0.0
H581 H 0.52527 0.51621 0.42162 0.0
H582 H 0.56825 0.5954 0.43221 0.0
H583 H 0.57364 0.53862 0.45312 0.0
H584 H 0.67753 0.76426 0.46681 0.0
H585 H 0.69335 0.6322 0.51909 0.0
H586 H 0.51446 0.69489 0.4719 0.0
H587 H 0.54358 0.68041 0.43941 0.0
H588 H 0.58255 0.75511 0.45586 0.0
H589 H 0.53354 0.53863 0.5344 0.0
H590 H 0.60708 0.54482 0.53759 0.0
H591 H 0.56111 0.51124 0.50577 0.0
C592 C -0.02468 0.4268 0.84992 0.0
C593 C 0.01016 0.41516 0.83018 0.0
C594 C -0.01374 0.48635 0.8546 0.0
C595 C 0.03308 0.53508 0.8391 0.0
C596 C 0.07023 0.52384 0.82015 0.0
C597 C 0.05839 0.46383 0.81598 0.0
C598 C 0.94634 0.49674 0.87524 0.0
C599 C 0.12103 0.5749 0.80345 0.0
C600 C 0.03134 0.67997 0.82029 0.0
C601 C 0.07798 0.7222 0.83815 0.0
C602 C 0.0132 0.61766 0.82169 0.0
C603 C 0.04217 0.59768 0.8416 0.0
C604 C 0.0849 0.63944 0.86162 0.0
C605 C 0.10235 0.7014 0.85963 0.0
C606 C 0.96686 0.57422 0.80022 0.0
C607 C 0.11592 0.6197 0.88351 0.0
H608 H 0.93821 0.38909 0.86109 0.0
H609 H 0.08547 0.45481 0.80082 0.0
H610 H -0.02576 0.53391 0.89078 0.0
H611 H 0.91825 0.51133 0.8629 0.0
H612 H 0.91578 0.45494 0.88764 0.0
H613 H 0.14706 0.55876 0.79046 0.0
H614 H 0.10233 0.59598 0.78857 0.0
H615 H 0.15258 0.61111 0.81855 0.0
H616 H 0.01224 0.69602 0.80377 0.0
H617 H 0.13802 0.73416 0.87368 0.0
H618 H 0.93246 0.53231 0.81128 0.0
H619 H -0.01046 0.5601 0.78392 0.0
H620 H 0.94352 0.59531 0.78866 0.0
H621 H 0.08272 0.5769 0.89439 0.0
H622 H 0.14058 0.65533 0.90028 0.0
H623 H 0.14891 0.61036 0.87223 0.0
C624 C 0.32213 0.21653 0.24349 0.0
C625 C 0.33043 0.16625 0.23693 0.0
C626 C 0.32058 0.23628 0.27246 0.0
C627 C 0.32585 0.20495 0.29702 0.0
C628 C 0.33391 0.15375 0.29071 0.0
C629 C 0.33691 0.13582 0.26128 0.0
C630 C 0.31314 0.29147 0.27673 0.0
C631 C 0.338 0.11663 0.31524 0.0
C632 C 0.36854 0.28755 0.37363 0.0
C633 C 0.31209 0.26863 0.38705 0.0
C634 C 0.37369 0.26743 0.34505 0.0
C635 C 0.3215 0.22527 0.32872 0.0
C636 C 0.26459 0.20506 0.34253 0.0
C637 C 0.26067 0.22714 0.37068 0.0
C638 C 0.43567 0.29255 0.33201 0.0
C639 C 0.20701 0.15881 0.32768 0.0
H640 H 0.31725 0.24157 0.22561 0.0
H641 H 0.34288 0.09677 0.25741 0.0
H642 H 0.27005 0.27805 0.28812 0.0
H643 H 0.35034 0.32566 0.29059 0.0
H644 H 0.313 0.3134 0.2559 0.0
H645 H 0.34527 0.0791 0.30743 0.0
H646 H 0.37558 0.14643 0.3301 0.0
H647 H 0.29566 0.0966 0.32806 0.0
H648 H 0.40918 0.31937 0.38526 0.0
H649 H 0.2164 0.21061 0.38018 0.0
H650 H 0.43816 0.31674 0.31154 0.0
H651 H 0.44412 0.25464 0.32649 0.0
H652 H 0.47205 0.32472 0.34687 0.0
H653 H 0.20268 0.17614 0.30624 0.0
H654 H 0.1662 0.14769 0.34068 0.0
H655 H 0.20844 0.11612 0.3238 0.0
C656 C 0.17828 0.34584 0.57194 0.0
C657 C 0.21168 0.3158 0.56632 0.0
C658 C 0.15203 0.34455 0.59965 0.0
C659 C 0.1552 0.30952 0.62322 0.0
C660 C 0.18826 0.27825 0.61753 0.0
C661 C 0.21636 0.28252 0.58987 0.0
C662 C 0.12081 0.38151 0.60357 0.0
C663 C 0.19144 0.237 0.64018 0.0
C664 C 0.13255 0.34087 0.70497 0.0
C665 C 0.07018 0.30164 0.71074 0.0
C666 C 0.15955 0.34473 0.67718 0.0
C667 C 0.12525 0.30671 0.65344 0.0
C668 C 0.06211 0.26716 0.65896 0.0
C669 C 0.03559 0.26646 0.68666 0.0
C670 C 0.22573 0.3903 0.67328 0.0
C671 C 0.02205 0.22366 0.63574 0.0
H672 H 0.17315 0.37156 0.55446 0.0
H673 H 0.24018 0.25749 0.58637 0.0
H674 H 0.07118 0.35052 0.60395 0.0
H675 H 0.13421 0.40668 0.62451 0.0
H676 H 0.13142 0.41484 0.58575 0.0
H677 H 0.19943 0.25774 0.66209 0.0
H678 H 0.14742 0.1938 0.64059 0.0
H679 H 0.22748 0.2257 0.63541 0.0
H680 H 0.1612 0.36925 0.72249 0.0
H681 H -0.01241 0.23598 0.68972 0.0
H682 H 0.23206 0.41878 0.65386 0.0
H683 H 0.25132 0.36593 0.66964 0.0
H684 H 0.24542 0.4208 0.69241 0.0
H685 H 0.01066 0.24889 0.6196 0.0
H686 H -0.02088 0.18656 0.64481 0.0
H687 H 0.04558 0.20281 0.62422 0.0
C688 C -0.01353 0.20122 0.91616 0.0
C689 C 0.9454 0.19782 0.89448 0.0
C690 C 0.96818 0.18022 0.94532 0.0
C691 C 0.90688 0.1559 0.95449 0.0
C692 C 0.86537 0.15291 0.93274 0.0
C693 C 0.88456 0.17271 0.90355 0.0
C694 C 0.01507 0.18384 0.96649 0.0
C695 C 0.80006 0.12954 0.94047 0.0
C696 C 0.8447 0.05635 1.02564 0.0
C697 C 0.85077 0.09885 1.04732 0.0
C698 C 0.86277 0.07381 0.99603 0.0
C699 C 0.88683 0.13563 0.98659 0.0
C700 C 0.89175 0.17826 1.00832 0.0
C701 C 0.87488 0.15992 1.03782 0.0
C702 C 0.85721 0.02574 0.97484 0.0
C703 C 0.91501 0.24416 1.0004 0.0
H704 H 0.03351 0.21985 0.91024 0.0
H705 H 0.85148 0.16949 0.88778 0.0
H706 H -0.00024 0.13832 0.97626 0.0
H707 H 0.0597 0.19976 0.9561 0.0
H708 H 0.02079 0.21566 0.98441 0.0
H709 H 0.77935 0.08183 0.9483 0.0
H710 H 0.7972 0.15739 0.9584 0.0
H711 H 0.77313 0.13087 0.92178 0.0
H712 H 0.8272 0.0092 1.03196 0.0
H713 H 0.88041 0.19413 1.05365 0.0
H714 H 0.82713 0.02206 0.95659 0.0
H715 H 0.8389 0.98014 0.98507 0.0
H716 H 0.90224 0.03919 0.96554 0.0
H717 H 0.96252 0.26505 0.99296 0.0
H718 H 0.91315 0.27141 1.0189 0.0
H719 H 0.88801 0.24704 0.98216 0.0
C720 C 0.87229 0.01399 0.251 0.0
C721 C 0.82533 0.97827 0.23105 0.0
C722 C 0.87571 -0.007 0.27953 0.0
C723 C 0.83122 0.93402 0.28959 0.0
C724 C 0.78396 0.89764 0.26949 0.0
C725 C 0.78166 0.9197 0.24107 0.0
C726 C 0.92741 0.03467 0.29916 0.0
C727 C 0.73496 0.83474 0.27811 0.0
C728 C 0.86414 0.85842 0.35734 0.0
C729 C 0.83528 0.87005 0.38069 0.0
C730 C 0.86332 0.87846 0.3282 0.0
C731 C 0.8328 0.91153 0.32109 0.0
C732 C 0.80353 0.92308 0.34459 0.0
C733 C 0.80523 0.90281 0.37341 0.0
C734 C 0.89597 0.86454 0.30485 0.0
C735 C 0.77022 0.95764 0.33933 0.0
H736 H 0.90694 0.05909 0.24432 0.0
H737 H 0.74491 0.89054 0.2266 0.0
H738 H 0.90956 0.04516 0.31895 0.0
H739 H 0.95259 0.01152 0.30626 0.0
H740 H 0.95945 0.07829 0.28843 0.0
H741 H 0.75536 0.8066 0.28465 0.0
H742 H 0.71022 0.83804 0.29715 0.0
H743 H 0.70201 0.81091 0.26029 0.0
H744 H 0.88838 0.83418 0.36187 0.0
H745 H 0.78269 0.9132 0.39053 0.0
H746 H 0.93228 0.9078 0.29557 0.0
H747 H 0.86418 0.83875 0.28695 0.0
H748 H 0.91646 0.83757 0.31312 0.0
H749 H 0.80183 0.00366 0.33067 0.0
H750 H 0.74919 0.96299 0.35937 0.0
H751 H 0.73426 0.93351 0.3228 0.0
C752 C 0.94282 0.79285 0.57498 0.0
C753 C 0.92857 0.83713 0.56458 0.0
C754 C 0.96826 0.79583 0.60332 0.0
C755 C -0.01682 0.84565 0.62278 0.0
C756 C 0.96995 0.89115 0.61221 0.0
C757 C 0.94254 0.88597 0.58411 0.0
C758 C -0.02162 0.74438 0.61264 0.0
C759 C -0.0142 0.94661 0.6306 0.0
C760 C -0.00264 0.83117 0.70761 0.0
C761 C 0.06002 0.85544 0.71324 0.0
C762 C -0.02743 0.82675 0.67906 0.0
C763 C 0.01029 0.84896 0.65406 0.0
C764 C 0.0738 0.87398 0.65953 0.0
C765 C 0.09733 0.87594 0.68836 0.0
C766 C 0.90493 0.79775 0.67575 0.0
C767 C 0.11775 0.90082 0.63484 0.0
H768 H 0.933 0.75447 0.56097 0.0
H769 H 0.93323 0.92148 0.57715 0.0
H770 H 0.02718 0.76205 0.61687 0.0
H771 H 0.95406 0.7245 0.63321 0.0
H772 H 0.96268 0.70754 0.59607 0.0
H773 H 0.95953 0.93265 0.65101 0.0
H774 H 0.03443 0.96964 0.63668 0.0
H775 H -0.02348 0.97993 0.61927 0.0
H776 H 0.96675 0.81494 0.72587 0.0
H777 H 0.1457 0.89599 0.69148 0.0
H778 H 0.88827 0.76098 0.65914 0.0
H779 H 0.89319 0.83225 0.66815 0.0
H780 H 0.88078 0.77809 0.6964 0.0
H781 H 0.10736 0.86554 0.61798 0.0
H782 H 0.16542 0.91957 0.64202 0.0
H783 H 0.11294 0.93797 0.62458 0.0
C784 C 0.15359 0.92462 0.92131 0.0
C785 C 0.19319 0.94871 0.89733 0.0
C786 C 0.17215 0.94414 0.9507 0.0
C787 C 0.23241 -0.00932 0.95763 0.0
C788 C 0.27264 0.0155 0.93352 0.0
C789 C 0.25313 -0.00573 0.9043 0.0
C790 C 0.12656 0.91431 0.9746 0.0
C791 C 0.33684 0.06567 0.93853 0.0
C792 C 0.26105 0.07996 1.03179 0.0
C793 C 0.28774 0.05503 1.05031 0.0
C794 C 0.24431 0.06069 1.00222 0.0
C795 C 0.25254 0.01353 0.98964 0.0
C796 C 0.27912 -0.01215 1.00826 0.0
C797 C 0.29659 0.00887 1.03765 0.0
C798 C 0.21765 0.09145 0.98427 0.0
C799 C 0.28854 0.93699 0.99718 0.0
H800 H 0.10725 0.8895 0.91717 0.0
H801 H 0.28511 0.01436 0.88672 0.0
H802 H 0.11889 0.94888 0.98572 0.0
H803 H 0.08244 0.87715 0.9664 0.0
H804 H 0.1443 0.89511 0.99106 0.0
H805 H 0.33696 0.10517 0.94924 0.0
H806 H 0.36029 0.04949 0.95332 0.0
H807 H 0.36285 0.08144 0.91805 0.0
H808 H 0.25348 0.11558 1.04039 0.0
H809 H 0.31659 -0.01186 1.05095 0.0
H810 H 0.17076 0.05761 0.97773 0.0
H811 H 0.2442 0.10991 0.96411 0.0
H812 H 0.21675 0.12933 0.99615 0.0
H813 H 0.24463 0.89798 0.99 0.0
H814 H 0.30866 0.92067 1.01387 0.0
H815 H 0.3187 0.95273 0.97804 0.0
loop_
_geom_bond_atom_site_label_1
_geom_bond_atom_site_label_2
_geom_bond_distance
_geom_bond_site_symmetry_2
_ccdc_geom_bond_type
Ho0 C3 2.811 . S
Ho0 O20 2.322 . S
Ho0 O22 2.378 . S
Ho0 O23 2.524 . S
Ho0 O24 2.381 . S
Ho0 O25 2.669 1_554 S
Ho0 O27 2.346 1_554 S
Ho0 O31 2.305 . S
Ho1 C12 2.811 . S
Ho1 O21 2.346 1_556 S
Ho1 O25 2.305 . S
Ho1 O26 2.322 . S
Ho1 O28 2.378 . S
Ho1 O29 2.524 . S
Ho1 O30 2.381 . S
Ho1 O31 2.669 1_556 S
C2 O20 1.259 . S
C2 O21 1.268 . S
C3 Ho0 2.811 . S
C3 C4 1.488 . S
C3 O22 1.215 . S
C3 O23 1.289 . S
C4 C3 1.488 . S
C4 C5 1.348 . S
C4 C9 1.413 . S
C5 C4 1.348 . S
C5 C6 1.442 . S
C5 H32 0.930 . S
C6 C5 1.442 . S
C6 C7 1.381 . S
C6 H33 0.931 . S
C7 C6 1.381 . S
C7 C8 1.321 1_545 S
C8 C7 1.321 1_565 S
C8 C9 1.403 1_565 S
C8 H34 0.934 . S
C9 C4 1.413 . S
C9 C8 1.403 1_545 S
C9 H35 0.930 . S
C10 O24 1.275 . S
C10 O25 1.256 1_554 S
C11 O26 1.259 . S
C11 O27 1.268 . S
C12 Ho1 2.811 . S
C12 C13 1.488 . S
C12 O28 1.215 . S
C12 O29 1.289 . S
C13 C12 1.488 . S
C13 C14 1.348 . S
C13 C18 1.413 . S
C14 C13 1.348 . S
C14 C15 1.442 . S
C14 H36 0.930 . S
C15 C14 1.442 . S
C15 C16 1.381 . S
C15 H37 0.931 . S
C16 C15 1.381 . S
C16 C17 1.321 . S
C17 C16 1.321 . S
C17 C18 1.403 . S
C17 H38 0.934 . S
C18 C13 1.413 . S
C18 C17 1.403 . S
C18 H39 0.930 . S
C19 O30 1.275 1_554 S
C19 O31 1.256 . S
O20 Ho0 2.322 . S
O20 C2 1.259 . S
O21 Ho1 2.346 1_554 S
O21 C2 1.268 . S
O22 Ho0 2.378 . S
O22 C3 1.215 . S
O23 Ho0 2.524 . S
O23 C3 1.289 . S
O24 Ho0 2.381 . S
O24 C10 1.275 . S
O25 Ho0 2.669 1_556 S
O25 Ho1 2.305 . S
O25 C10 1.256 1_556 S
O26 Ho1 2.322 . S
O26 C11 1.259 . S
O27 Ho0 2.346 1_556 S
O27 C11 1.268 . S
O28 Ho1 2.378 . S
O28 C12 1.215 . S
O29 Ho1 2.524 . S
O29 C12 1.289 . S
O30 Ho1 2.381 . S
O30 C19 1.275 1_556 S
O31 Ho0 2.305 . S
O31 Ho1 2.669 1_554 S
O31 C19 1.256 . S
H32 C5 0.930 . S
H33 C6 0.931 . S
H34 C8 0.934 . S
H35 C9 0.930 . S
H36 C14 0.930 . S
H37 C15 0.931 . S
H38 C17 0.934 . S
H39 C18 0.930 . S
Ho40 C43 2.811 . S
Ho40 O60 2.322 . S
Ho40 O62 2.378 . S
Ho40 O63 2.524 . S
Ho40 O64 2.381 . S
Ho40 O65 2.669 . S
Ho40 O67 2.346 . S
Ho40 O71 2.305 . S
Ho41 C52 2.811 . S
Ho41 O61 2.346 . S
Ho41 O65 2.305 . S
Ho41 O66 2.322 . S
Ho41 O68 2.378 . S
Ho41 O69 2.524 . S
Ho41 O70 2.381 . S
Ho41 O71 2.669 . S
C42 O60 1.259 . S
C42 O61 1.268 . S
C43 Ho40 2.811 . S
C43 C44 1.488 . S
C43 O62 1.215 . S
C43 O63 1.289 . S
C44 C43 1.488 . S
C44 C45 1.348 . S
C44 C49 1.413 . S
C45 C44 1.348 . S
C45 C46 1.442 . S
C45 H72 0.930 . S
C46 C45 1.442 . S
C46 C47 1.381 . S
C46 H73 0.931 . S
C47 C46 1.381 . S
C47 C48 1.321 . S
C48 C47 1.321 . S
C48 C49 1.403 . S
C48 H74 0.934 . S
C49 C44 1.413 . S
C49 C48 1.403 . S
C49 H75 0.930 . S
C50 O64 1.275 . S
C50 O65 1.256 . S
C51 O66 1.259 . S
C51 O67 1.268 . S
C52 Ho41 2.811 . S
C52 C53 1.488 . S
C52 O68 1.215 . S
C52 O69 1.289 . S
C53 C52 1.488 . S
C53 C54 1.348 . S
C53 C58 1.413 . S
C54 C53 1.348 . S
C54 C55 1.442 . S
C54 H76 0.930 . S
C55 C54 1.442 . S
C55 C56 1.381 . S
C55 H77 0.931 . S
C56 C55 1.381 . S
C56 C57 1.321 . S
C57 C56 1.321 . S
C57 C58 1.403 . S
C57 H78 0.934 . S
C58 C53 1.413 . S
C58 C57 1.403 . S
C58 H79 0.930 . S
C59 O70 1.275 . S
C59 O71 1.256 . S
O60 Ho40 2.322 . S
O60 C42 1.259 . S
O61 Ho41 2.346 . S
O61 C42 1.268 . S
O62 Ho40 2.378 . S
O62 C43 1.215 . S
O63 Ho40 2.524 . S
O63 C43 1.289 . S
O64 Ho40 2.381 . S
O64 C50 1.275 . S
O65 Ho40 2.669 . S
O65 Ho41 2.305 . S
O65 C50 1.256 . S
O66 Ho41 2.322 . S
O66 C51 1.259 . S
O67 Ho40 2.346 . S
O67 C51 1.268 . S
O68 Ho41 2.378 . S
O68 C52 1.215 . S
O69 Ho41 2.524 . S
O69 C52 1.289 . S
O70 Ho41 2.381 . S
O70 C59 1.275 . S
O71 Ho40 2.305 . S
O71 Ho41 2.669 . S
O71 C59 1.256 . S
H72 C45 0.930 . S
H73 C46 0.931 . S
H74 C48 0.934 . S
H75 C49 0.930 . S
H76 C54 0.930 . S
H77 C55 0.931 . S
H78 C57 0.934 . S
H79 C58 0.930 . S
Ho80 C83 2.811 . S
Ho80 O100 2.322 . S
Ho80 O102 2.378 . S
Ho80 O103 2.524 . S
Ho80 O104 2.381 . S
Ho80 O105 2.670 . S
Ho80 O107 2.346 . S
Ho80 O111 2.305 . S
Ho81 C92 2.811 . S
Ho81 O101 2.346 . S
Ho81 O105 2.302 1_655 S
Ho81 O106 2.322 1_655 S
Ho81 O108 2.378 . S
Ho81 O109 2.524 . S
Ho81 O110 2.381 . S
Ho81 O111 2.669 1_655 S
C82 O100 1.259 1_655 S
C82 O101 1.268 . S
C83 Ho80 2.811 . S
C83 C84 1.488 . S
C83 O102 1.215 . S
C83 O103 1.289 . S
C84 C83 1.488 . S
C84 C85 1.348 . S
C84 C89 1.413 . S
C85 C84 1.348 . S
C85 C86 1.442 . S
C85 H112 0.930 . S
C86 C85 1.442 . S
C86 C87 1.381 . S
C86 H113 0.931 . S
C87 C86 1.381 . S
C87 C88 1.321 . S
C88 C87 1.321 . S
C88 C89 1.403 . S
C88 H114 0.934 . S
C89 C84 1.413 . S
C89 C88 1.403 . S
C89 H115 0.930 . S
C90 O104 1.275 . S
C90 O105 1.258 . S
C91 O106 1.259 . S
C91 O107 1.268 . S
C92 Ho81 2.811 . S
C92 C93 1.488 . S
C92 O108 1.215 . S
C92 O109 1.289 . S
C93 C92 1.488 . S
C93 C94 1.348 . S
C93 C98 1.413 . S
C94 C93 1.348 . S
C94 C95 1.442 . S
C94 H116 0.930 . S
C95 C94 1.442 . S
C95 C96 1.381 . S
C95 H117 0.931 . S
C96 C95 1.381 . S
C96 C97 1.321 . S
C97 C96 1.321 . S
C97 C98 1.403 . S
C97 H118 0.934 . S
C98 C93 1.413 . S
C98 C97 1.403 . S
C98 H119 0.930 . S
C99 O110 1.275 . S
C99 O111 1.256 1_655 S
O100 Ho80 2.322 . S
O100 C82 1.259 1_455 S
O101 Ho81 2.346 . S
O101 C82 1.268 . S
O102 Ho80 2.378 . S
O102 C83 1.215 . S
O103 Ho80 2.524 . S
O103 C83 1.289 . S
O104 Ho80 2.381 . S
O104 C90 1.275 . S
O105 Ho80 2.670 . S
O105 Ho81 2.302 1_455 S
O105 C90 1.258 . S
O106 Ho81 2.322 1_455 S
O106 C91 1.259 . S
O107 Ho80 2.346 . S
O107 C91 1.268 . S
O108 Ho81 2.378 . S
O108 C92 1.215 . S
O109 Ho81 2.524 . S
O109 C92 1.289 . S
O110 Ho81 2.381 . S
O110 C99 1.275 . S
O111 Ho80 2.305 . S
O111 Ho81 2.669 1_455 S
O111 C99 1.256 1_455 S
H112 C85 0.930 . S
H113 C86 0.931 . S
H114 C88 0.934 . S
H115 C89 0.930 . S
H116 C94 0.930 . S
H117 C95 0.931 . S
H118 C97 0.934 . S
H119 C98 0.930 . S
Ho120 C123 2.811 . S
Ho120 O140 2.314 1_545 S
Ho120 O142 2.378 . S
Ho120 O143 2.524 . S
Ho120 O144 2.381 . S
Ho120 O145 2.669 1_544 S
Ho120 O147 2.346 1_554 S
Ho120 O151 2.305 . S
Ho121 C132 2.811 . S
Ho121 O141 2.346 1_556 S
Ho121 O145 2.305 . S
Ho121 O146 2.322 1_565 S
Ho121 O148 2.378 . S
Ho121 O149 2.524 . S
Ho121 O150 2.381 . S
Ho121 O151 2.669 1_566 S
C122 O140 1.266 . S
C122 O141 1.268 . S
C123 Ho120 2.811 . S
C123 C124 1.488 . S
C123 O142 1.215 . S
C123 O143 1.289 . S
C124 C123 1.488 . S
C124 C125 1.348 . S
C124 C129 1.413 . S
C125 C124 1.348 . S
C125 C126 1.442 . S
C125 H152 0.930 . S
C126 C125 1.442 . S
C126 C127 1.381 . S
C126 H153 0.931 . S
C127 C126 1.381 . S
C127 C128 1.321 . S
C128 C127 1.321 . S
C128 C129 1.403 . S
C128 H154 0.934 . S
C129 C124 1.413 . S
C129 C128 1.403 . S
C129 H155 0.930 . S
C130 O144 1.275 . S
C130 O145 1.256 1_544 S
C131 O146 1.259 . S
C131 O147 1.268 . S
C132 Ho121 2.811 . S
C132 C133 1.488 . S
C132 O148 1.215 . S
C132 O149 1.289 . S
C133 C132 1.488 . S
C133 C134 1.348 . S
C133 C138 1.413 . S
C134 C133 1.348 . S
C134 C135 1.442 . S
C134 H156 0.930 . S
C135 C134 1.442 . S
C135 C136 1.381 . S
C135 H157 0.931 . S
C136 C135 1.381 . S
C136 C137 1.321 . S
C137 C136 1.321 . S
C137 C138 1.403 . S
C137 H158 0.934 . S
C138 C133 1.413 . S
C138 C137 1.403 . S
C138 H159 0.930 . S
C139 O150 1.275 1_554 S
C139 O151 1.256 1_565 S
O140 Ho120 2.314 1_565 S
O140 C122 1.266 . S
O141 Ho121 2.346 1_554 S
O141 C122 1.268 . S
O142 Ho120 2.378 . S
O142 C123 1.215 . S
O143 Ho120 2.524 . S
O143 C123 1.289 . S
O144 Ho120 2.381 . S
O144 C130 1.275 . S
O145 Ho120 2.669 1_566 S
O145 Ho121 2.305 . S
O145 C130 1.256 1_566 S
O146 Ho121 2.322 1_545 S
O146 C131 1.259 . S
O147 Ho120 2.346 1_556 S
O147 C131 1.268 . S
O148 Ho121 2.378 . S
O148 C132 1.215 . S
O149 Ho121 2.524 . S
O149 C132 1.289 . S
O150 Ho121 2.381 . S
O150 C139 1.275 1_556 S
O151 Ho120 2.305 . S
O151 Ho121 2.669 1_544 S
O151 C139 1.256 1_545 S
H152 C125 0.930 . S
H153 C126 0.931 . S
H154 C128 0.934 . S
H155 C129 0.930 . S
H156 C134 0.930 . S
H157 C135 0.931 . S
H158 C137 0.934 . S
H159 C138 0.930 . S
Ho160 C163 2.811 . S
Ho160 O180 2.322 . S
Ho160 O182 2.378 . S
Ho160 O183 2.524 . S
Ho160 O184 2.381 . S
Ho160 O185 2.669 . S
Ho160 O187 2.346 . S
Ho160 O191 2.305 . S
Ho161 C172 2.811 . S
Ho161 O181 2.346 . S
Ho161 O185 2.305 . S
Ho161 O186 2.322 . S
Ho161 O188 2.378 . S
Ho161 O189 2.524 1_655 S
Ho161 O190 2.381 . S
Ho161 O191 2.669 . S
C162 O180 1.259 . S
C162 O181 1.268 . S
C163 Ho160 2.811 . S
C163 C164 1.488 . S
C163 O182 1.215 . S
C163 O183 1.289 . S
C164 C163 1.488 . S
C164 C165 1.348 . S
C164 C169 1.413 . S
C165 C164 1.348 . S
C165 C166 1.442 . S
C165 H192 0.930 . S
C166 C165 1.442 . S
C166 C167 1.381 . S
C166 H193 0.931 . S
C167 C166 1.381 . S
C167 C168 1.321 . S
C168 C167 1.321 . S
C168 C169 1.403 . S
C168 H194 0.934 . S
C169 C164 1.413 . S
C169 C168 1.403 . S
C169 H195 0.930 . S
C170 O184 1.275 1_455 S
C170 O185 1.256 1_455 S
C171 O186 1.259 . S
C171 O187 1.268 . S
C172 Ho161 2.811 . S
C172 C173 1.488 1_655 S
C172 O188 1.215 . S
C172 O189 1.289 1_655 S
C173 C172 1.488 1_455 S
C173 C174 1.348 . S
C173 C178 1.413 1_455 S
C174 C173 1.348 . S
C174 C175 1.442 . S
C174 H196 0.930 . S
C175 C174 1.442 . S
C175 C176 1.381 . S
C175 H197 0.931 . S
C176 C175 1.381 . S
C176 C177 1.321 . S
C177 C176 1.321 . S
C177 C178 1.403 1_455 S
C177 H198 0.934 1_455 S
C178 C173 1.413 1_655 S
C178 C177 1.403 1_655 S
C178 H199 0.930 . S
C179 O190 1.275 . S
C179 O191 1.256 . S
O180 Ho160 2.322 . S
O180 C162 1.259 . S
O181 Ho161 2.346 . S
O181 C162 1.268 . S
O182 Ho160 2.378 . S
O182 C163 1.215 . S
O183 Ho160 2.524 . S
O183 C163 1.289 . S
O184 Ho160 2.381 . S
O184 C170 1.275 1_655 S
O185 Ho160 2.669 . S
O185 Ho161 2.305 . S
O185 C170 1.256 1_655 S
O186 Ho161 2.322 . S
O186 C171 1.259 . S
O187 Ho160 2.346 . S
O187 C171 1.268 . S
O188 Ho161 2.378 . S
O188 C172 1.215 . S
O189 Ho161 2.524 1_455 S
O189 C172 1.289 1_455 S
O190 Ho161 2.381 . S
O190 C179 1.275 . S
O191 Ho160 2.305 . S
O191 Ho161 2.669 . S
O191 C179 1.256 . S
H192 C165 0.930 . S
H193 C166 0.931 . S
H194 C168 0.934 . S
H195 C169 0.930 . S
H196 C174 0.930 . S
H197 C175 0.931 . S
H198 C177 0.934 1_655 S
H199 C178 0.930 . S
Ho200 C203 2.811 . S
Ho200 O220 2.322 . S
Ho200 O222 2.378 . S
Ho200 O223 2.524 . S
Ho200 O224 2.381 . S
Ho200 O225 2.669 . S
Ho200 O227 2.346 . S
Ho200 O231 2.305 . S
Ho201 C212 2.811 . S
Ho201 O221 2.346 . S
Ho201 O225 2.305 . S
Ho201 O226 2.322 . S
Ho201 O228 2.378 . S
Ho201 O229 2.524 1_565 S
Ho201 O230 2.381 . S
Ho201 O231 2.669 . S
C202 O220 1.259 . S
C202 O221 1.268 . S
C203 Ho200 2.811 . S
C203 C204 1.488 . S
C203 O222 1.215 . S
C203 O223 1.289 . S
C204 C203 1.488 . S
C204 C205 1.348 . S
C204 C209 1.413 . S
C205 C204 1.348 . S
C205 C206 1.442 . S
C205 H232 0.930 . S
C206 C205 1.442 . S
C206 C207 1.381 . S
C206 H233 0.931 . S
C207 C206 1.381 . S
C207 C208 1.321 1_455 S
C208 C207 1.321 1_655 S
C208 C209 1.403 1_655 S
C208 H234 0.934 . S
C209 C204 1.413 . S
C209 C208 1.403 1_455 S
C209 H235 0.930 . S
C210 O224 1.275 1_545 S
C210 O225 1.256 1_545 S
C211 O226 1.259 . S
C211 O227 1.268 . S
C212 Ho201 2.811 . S
C212 C213 1.488 1_565 S
C212 O228 1.215 . S
C212 O229 1.289 1_565 S
C213 C212 1.488 1_545 S
C213 C214 1.348 . S
C213 C218 1.413 1_545 S
C214 C213 1.348 . S
C214 C215 1.442 . S
C214 H236 0.930 . S
C215 C214 1.442 . S
C215 C216 1.381 . S
C215 H237 0.931 . S
C216 C215 1.381 . S
C216 C217 1.321 . S
C217 C216 1.321 . S
C217 C218 1.403 1_545 S
C217 H238 0.934 1_545 S
C218 C213 1.413 1_565 S
C218 C217 1.403 1_565 S
C218 H239 0.930 . S
C219 O230 1.275 . S
C219 O231 1.256 . S
O220 Ho200 2.322 . S
O220 C202 1.259 . S
O221 Ho201 2.346 . S
O221 C202 1.268 . S
O222 Ho200 2.378 . S
O222 C203 1.215 . S
O223 Ho200 2.524 . S
O223 C203 1.289 . S
O224 Ho200 2.381 . S
O224 C210 1.275 1_565 S
O225 Ho200 2.669 . S
O225 Ho201 2.305 . S
O225 C210 1.256 1_565 S
O226 Ho201 2.322 . S
O226 C211 1.259 . S
O227 Ho200 2.346 . S
O227 C211 1.268 . S
O228 Ho201 2.378 . S
O228 C212 1.215 . S
O229 Ho201 2.524 1_545 S
O229 C212 1.289 1_545 S
O230 Ho201 2.381 . S
O230 C219 1.275 . S
O231 Ho200 2.305 . S
O231 Ho201 2.669 . S
O231 C219 1.256 . S
H232 C205 0.930 . S
H233 C206 0.931 . S
H234 C208 0.934 . S
H235 C209 0.930 . S
H236 C214 0.930 . S
H237 C215 0.931 . S
H238 C217 0.934 1_565 S
H239 C218 0.930 . S
C240 C241 1.381 1_566 S
C240 C242 1.394 1_665 S
C240 H256 0.931 . S
C241 C240 1.381 1_544 S
C241 C245 1.384 . S
C242 C240 1.394 1_445 S
C242 C243 1.369 . S
C242 C246 1.531 . S
C243 C242 1.369 . S
C243 C244 1.410 1_556 S
C243 C251 1.503 . S
C244 C243 1.410 1_554 S
C244 C245 1.392 1_455 S
C244 C247 1.511 . S
C245 C241 1.384 . S
C245 C244 1.392 1_655 S
C245 H257 0.929 . S
C246 C242 1.531 . S
C246 H258 0.960 . S
C246 H259 0.962 1_545 S
C246 H260 0.960 1_545 S
C247 C244 1.511 . S
C247 H261 0.961 . S
C247 H262 0.961 . S
C247 H263 0.961 . S
C248 C249 1.370 . S
C248 C250 1.363 . S
C248 H264 0.931 . S
C249 C248 1.370 . S
C249 C253 1.408 1_554 S
C250 C248 1.363 . S
C250 C251 1.370 1_554 S
C250 C254 1.524 . S
C251 C243 1.503 . S
C251 C250 1.370 1_556 S
C251 C252 1.403 . S
C252 C251 1.403 . S
C252 C253 1.404 . S
C252 C255 1.539 . S
C253 C249 1.408 1_556 S
C253 C252 1.404 . S
C253 H265 0.930 . S
C254 C250 1.524 . S
C254 H266 0.956 . S
C254 H267 0.961 . S
C254 H268 0.961 . S
C255 C252 1.539 . S
C255 H269 0.958 . S
C255 H270 0.961 . S
C255 H271 0.960 . S
H256 C240 0.931 . S
H257 C245 0.929 . S
H258 C246 0.960 . S
H259 C246 0.962 1_565 S
H260 C246 0.960 1_565 S
H261 C247 0.961 . S
H262 C247 0.961 . S
H263 C247 0.961 . S
H264 C248 0.931 . S
H265 C253 0.930 . S
H266 C254 0.956 . S
H267 C254 0.961 . S
H268 C254 0.961 . S
H269 C255 0.958 . S
H270 C255 0.961 . S
H271 C255 0.960 . S
C272 C273 1.391 . S
C272 C274 1.394 1_565 S
C272 H288 0.931 . S
C273 C272 1.391 . S
C273 C277 1.376 . S
C274 C272 1.394 1_545 S
C274 C275 1.369 . S
C274 C278 1.531 . S
C275 C274 1.369 . S
C275 C276 1.410 . S
C275 C283 1.503 . S
C276 C275 1.410 . S
C276 C277 1.392 1_545 S
C276 C279 1.511 . S
C277 C273 1.376 . S
C277 C276 1.392 1_565 S
C277 H289 0.929 1_455 S
C278 C274 1.531 . S
C278 H290 0.960 . S
C278 H291 0.962 . S
C278 H292 0.960 . S
C279 C276 1.511 . S
C279 H293 0.961 . S
C279 H294 0.961 . S
C279 H295 0.961 . S
C280 C281 1.370 . S
C280 C282 1.363 . S
C280 H296 0.931 . S
C281 C280 1.370 . S
C281 C285 1.408 . S
C282 C280 1.363 . S
C282 C283 1.370 . S
C282 C286 1.524 . S
C283 C275 1.503 . S
C283 C282 1.370 . S
C283 C284 1.403 . S
C284 C283 1.403 . S
C284 C285 1.404 . S
C284 C287 1.539 . S
C285 C281 1.408 . S
C285 C284 1.404 . S
C285 H297 0.930 . S
C286 C282 1.524 . S
C286 H298 0.956 . S
C286 H299 0.961 . S
C286 H300 0.961 . S
C287 C284 1.539 . S
C287 H301 0.958 . S
C287 H302 0.961 . S
C287 H303 0.960 . S
H288 C272 0.931 . S
H289 C277 0.929 1_655 S
H290 C278 0.960 . S
H291 C278 0.962 . S
H292 C278 0.960 . S
H293 C279 0.961 . S
H294 C279 0.961 . S
H295 C279 0.961 . S
H296 C280 0.931 . S
H297 C285 0.930 . S
H298 C286 0.956 . S
H299 C286 0.961 . S
H300 C286 0.961 . S
H301 C287 0.958 . S
H302 C287 0.961 . S
H303 C287 0.960 . S
C304 C305 1.391 1_565 S
C304 C306 1.394 1_565 S
C304 H320 0.931 . S
C305 C304 1.391 1_545 S
C305 C309 1.376 . S
C306 C304 1.394 1_545 S
C306 C307 1.369 . S
C306 C310 1.531 1_545 S
C307 C306 1.369 . S
C307 C308 1.410 . S
C307 C315 1.503 . S
C308 C307 1.410 . S
C308 C309 1.392 . S
C308 C311 1.511 . S
C309 C305 1.376 . S
C309 C308 1.392 . S
C309 H321 0.929 . S
C310 C306 1.531 1_565 S
C310 H322 0.962 . S
C310 H323 0.962 . S
C310 H324 0.960 . S
C311 C308 1.511 . S
C311 H325 0.961 . S
C311 H326 0.961 . S
C311 H327 0.961 . S
C312 C313 1.370 . S
C312 C314 1.363 . S
C312 H328 0.931 . S
C313 C312 1.370 . S
C313 C317 1.408 . S
C314 C312 1.363 . S
C314 C315 1.370 . S
C314 C318 1.524 . S
C315 C307 1.503 . S
C315 C314 1.370 . S
C315 C316 1.403 . S
C316 C315 1.403 . S
C316 C317 1.404 . S
C316 C319 1.539 . S
C317 C313 1.408 . S
C317 C316 1.404 . S
C317 H329 0.930 1_455 S
C318 C314 1.524 . S
C318 H330 0.956 . S
C318 H331 0.961 . S
C318 H332 0.961 . S
C319 C316 1.539 . S
C319 H333 0.958 . S
C319 H334 0.961 . S
C319 H335 0.960 . S
H320 C304 0.931 . S
H321 C309 0.929 . S
H322 C310 0.962 . S
H323 C310 0.962 . S
H324 C310 0.960 . S
H325 C311 0.961 . S
H326 C311 0.961 . S
H327 C311 0.961 . S
H328 C312 0.931 . S
H329 C317 0.930 1_655 S
H330 C318 0.956 . S
H331 C318 0.961 . S
H332 C318 0.961 . S
H333 C319 0.958 . S
H334 C319 0.961 . S
H335 C319 0.960 . S
C336 C337 1.391 . S
C336 C338 1.394 . S
C336 H352 0.931 . S
C337 C336 1.391 . S
C337 C341 1.376 . S
C338 C336 1.394 . S
C338 C339 1.369 . S
C338 C342 1.531 . S
C339 C338 1.369 . S
C339 C340 1.410 . S
C339 C347 1.503 . S
C340 C339 1.410 . S
C340 C341 1.392 . S
C340 C343 1.511 . S
C341 C337 1.376 . S
C341 C340 1.392 . S
C341 H353 0.929 . S
C342 C338 1.531 . S
C342 H354 0.960 . S
C342 H355 0.962 . S
C342 H356 0.960 . S
C343 C340 1.511 . S
C343 H357 0.961 . S
C343 H358 0.961 . S
C343 H359 0.961 . S
C344 C345 1.370 . S
C344 C346 1.363 . S
C344 H360 0.931 . S
C345 C344 1.370 . S
C345 C349 1.408 . S
C346 C344 1.363 . S
C346 C347 1.370 . S
C346 C350 1.524 . S
C347 C339 1.503 . S
C347 C346 1.370 . S
C347 C348 1.403 . S
C348 C347 1.403 . S
C348 C349 1.404 . S
C348 C351 1.539 . S
C349 C345 1.408 . S
C349 C348 1.404 . S
C349 H361 0.930 . S
C350 C346 1.524 . S
C350 H362 0.956 . S
C350 H363 0.961 . S
C350 H364 0.961 . S
C351 C348 1.539 . S
C351 H365 0.958 . S
C351 H366 0.961 . S
C351 H367 0.960 . S
H352 C336 0.931 . S
H353 C341 0.929 . S
H354 C342 0.960 . S
H355 C342 0.962 . S
H356 C342 0.960 . S
H357 C343 0.961 . S
H358 C343 0.961 . S
H359 C343 0.961 . S
H360 C344 0.931 . S
H361 C349 0.930 . S
H362 C350 0.956 . S
H363 C350 0.961 . S
H364 C350 0.961 . S
H365 C351 0.958 . S
H366 C351 0.961 . S
H367 C351 0.960 . S
C368 C369 1.391 . S
C368 C370 1.394 . S
C368 H384 0.931 . S
C369 C368 1.391 . S
C369 C373 1.376 . S
C370 C368 1.394 . S
C370 C371 1.369 . S
C370 C374 1.531 . S
C371 C370 1.369 . S
C371 C372 1.410 . S
C371 C379 1.503 1_455 S
C372 C371 1.410 . S
C372 C373 1.392 . S
C372 C375 1.511 . S
C373 C369 1.376 . S
C373 C372 1.392 . S
C373 H385 0.929 . S
C374 C370 1.531 . S
C374 H386 0.960 . S
C374 H387 0.962 . S
C374 H388 0.960 . S
C375 C372 1.511 . S
C375 H389 0.961 . S
C375 H390 0.961 1_455 S
C375 H391 0.961 . S
C376 C377 1.370 . S
C376 C378 1.363 . S
C376 H392 0.931 . S
C377 C376 1.370 . S
C377 C381 1.408 . S
C378 C376 1.363 . S
C378 C379 1.370 . S
C378 C382 1.524 . S
C379 C371 1.503 1_655 S
C379 C378 1.370 . S
C379 C380 1.403 . S
C380 C379 1.403 . S
C380 C381 1.404 . S
C380 C383 1.539 1_655 S
C381 C377 1.408 . S
C381 C380 1.404 . S
C381 H393 0.930 . S
C382 C378 1.524 . S
C382 H394 0.956 . S
C382 H395 0.961 . S
C382 H396 0.961 . S
C383 C380 1.539 1_455 S
C383 H397 0.958 . S
C383 H398 0.961 . S
C383 H399 0.960 . S
H384 C368 0.931 . S
H385 C373 0.929 . S
H386 C374 0.960 . S
H387 C374 0.962 . S
H388 C374 0.960 . S
H389 C375 0.961 . S
H390 C375 0.961 1_655 S
H391 C375 0.961 . S
H392 C376 0.931 . S
H393 C381 0.930 . S
H394 C382 0.956 . S
H395 C382 0.961 . S
H396 C382 0.961 . S
H397 C383 0.958 . S
H398 C383 0.961 . S
H399 C383 0.960 . S
C400 C401 1.391 . S
C400 C402 1.394 . S
C400 H416 0.931 . S
C401 C400 1.391 . S
C401 C405 1.376 . S
C402 C400 1.394 . S
C402 C403 1.369 . S
C402 C406 1.531 . S
C403 C402 1.369 . S
C403 C404 1.410 . S
C403 C411 1.503 1_545 S
C404 C403 1.410 . S
C404 C405 1.392 . S
C404 C407 1.511 1_545 S
C405 C401 1.376 . S
C405 C404 1.392 . S
C405 H417 0.929 . S
C406 C402 1.531 . S
C406 H418 0.960 . S
C406 H419 0.962 . S
C406 H420 0.960 . S
C407 C404 1.511 1_565 S
C407 H421 0.961 . S
C407 H422 0.961 . S
C407 H423 0.961 . S
C408 C409 1.370 . S
C408 C410 1.363 . S
C408 H424 0.931 . S
C409 C408 1.370 . S
C409 C413 1.408 . S
C410 C408 1.363 . S
C410 C411 1.370 . S
C410 C414 1.524 . S
C411 C403 1.503 1_565 S
C411 C410 1.370 . S
C411 C412 1.403 . S
C412 C411 1.403 . S
C412 C413 1.404 . S
C412 C415 1.539 1_565 S
C413 C409 1.408 . S
C413 C412 1.404 . S
C413 H425 0.930 . S
C414 C410 1.524 . S
C414 H426 0.956 1_565 S
C414 H427 0.961 . S
C414 H428 0.961 . S
C415 C412 1.539 1_545 S
C415 H429 0.958 . S
C415 H430 0.961 1_545 S
C415 H431 0.960 . S
H416 C400 0.931 . S
H417 C405 0.929 . S
H418 C406 0.960 . S
H419 C406 0.962 . S
H420 C406 0.960 . S
H421 C407 0.961 . S
H422 C407 0.961 . S
H423 C407 0.961 . S
H424 C408 0.931 . S
H425 C413 0.930 . S
H426 C414 0.956 1_545 S
H427 C414 0.961 . S
H428 C414 0.961 . S
H429 C415 0.958 . S
H430 C415 0.961 1_565 S
H431 C415 0.960 . S
C432 C433 1.391 . S
C432 C434 1.394 . S
C432 H448 0.931 . S
C433 C432 1.391 . S
C433 C437 1.376 . S
C434 C432 1.394 . S
C434 C435 1.369 . S
C434 C438 1.531 . S
C435 C434 1.369 . S
C435 C436 1.410 . S
C435 C443 1.503 . S
C436 C435 1.410 . S
C436 C437 1.392 . S
C436 C439 1.511 . S
C437 C433 1.376 . S
C437 C436 1.392 . S
C437 H449 0.929 . S
C438 C434 1.531 . S
C438 H450 0.960 . S
C438 H451 0.962 . S
C438 H452 0.960 . S
C439 C436 1.511 . S
C439 H453 0.961 . S
C439 H454 0.961 . S
C439 H455 0.961 . S
C440 C441 1.370 1_655 S
C440 C442 1.363 . S
C440 H456 0.931 . S
C441 C440 1.370 1_455 S
C441 C445 1.408 . S
C442 C440 1.363 . S
C442 C443 1.370 . S
C442 C446 1.524 . S
C443 C435 1.503 . S
C443 C442 1.370 . S
C443 C444 1.403 . S
C444 C443 1.403 . S
C444 C445 1.404 1_655 S
C444 C447 1.539 . S
C445 C441 1.408 . S
C445 C444 1.404 1_455 S
C445 H457 0.930 . S
C446 C442 1.524 . S
C446 H458 0.956 . S
C446 H459 0.961 . S
C446 H460 0.961 . S
C447 C444 1.539 . S
C447 H461 0.958 1_655 S
C447 H462 0.961 1_655 S
C447 H463 0.960 . S
H448 C432 0.931 . S
H449 C437 0.929 . S
H450 C438 0.960 . S
H451 C438 0.962 . S
H452 C438 0.960 . S
H453 C439 0.961 . S
H454 C439 0.961 . S
H455 C439 0.961 . S
H456 C440 0.931 . S
H457 C445 0.930 . S
H458 C446 0.956 . S
H459 C446 0.961 . S
H460 C446 0.961 . S
H461 C447 0.958 1_455 S
H462 C447 0.961 1_455 S
H463 C447 0.960 . S
C464 C465 1.391 . S
C464 C466 1.394 . S
C464 H480 0.931 . S
C465 C464 1.391 . S
C465 C469 1.376 . S
C466 C464 1.394 . S
C466 C467 1.369 . S
C466 C470 1.531 . S
C467 C466 1.369 . S
C467 C468 1.410 . S
C467 C475 1.503 . S
C468 C467 1.410 . S
C468 C469 1.392 . S
C468 C471 1.511 . S
C469 C465 1.376 . S
C469 C468 1.392 . S
C469 H481 0.929 . S
C470 C466 1.531 . S
C470 H482 0.960 . S
C470 H483 0.962 . S
C470 H484 0.960 . S
C471 C468 1.511 . S
C471 H485 0.961 . S
C471 H486 0.961 . S
C471 H487 0.961 . S
C472 C473 1.370 . S
C472 C474 1.363 . S
C472 H488 0.931 . S
C473 C472 1.370 . S
C473 C477 1.408 . S
C474 C472 1.363 . S
C474 C475 1.370 . S
C474 C478 1.524 . S
C475 C467 1.503 . S
C475 C474 1.370 . S
C475 C476 1.403 . S
C476 C475 1.403 . S
C476 C477 1.404 . S
C476 C479 1.539 . S
C477 C473 1.408 . S
C477 C476 1.404 . S
C477 H489 0.930 1_565 S
C478 C474 1.524 . S
C478 H490 0.956 . S
C478 H491 0.961 . S
C478 H492 0.961 . S
C479 C476 1.539 . S
C479 H493 0.958 . S
C479 H494 0.961 . S
C479 H495 0.960 . S
H480 C464 0.931 . S
H481 C469 0.929 . S
H482 C470 0.960 . S
H483 C470 0.962 . S
H484 C470 0.960 . S
H485 C471 0.961 . S
H486 C471 0.961 . S
H487 C471 0.961 . S
H488 C472 0.931 . S
H489 C477 0.930 1_545 S
H490 C478 0.956 . S
H491 C478 0.961 . S
H492 C478 0.961 . S
H493 C479 0.958 . S
H494 C479 0.961 . S
H495 C479 0.960 . S
C496 C497 1.391 . S
C496 C498 1.394 . S
C496 H512 0.931 . S
C497 C496 1.391 . S
C497 C501 1.376 . S
C498 C496 1.394 . S
C498 C499 1.369 . S
C498 C502 1.531 . S
C499 C498 1.369 . S
C499 C500 1.410 . S
C499 C507 1.503 . S
C500 C499 1.410 . S
C500 C501 1.392 . S
C500 C503 1.511 . S
C501 C497 1.376 . S
C501 C500 1.392 . S
C501 H513 0.929 . S
C502 C498 1.531 . S
C502 H514 0.960 . S
C502 H515 0.962 . S
C502 H516 0.960 . S
C503 C500 1.511 . S
C503 H517 0.961 . S
C503 H518 0.961 . S
C503 H519 0.961 . S
C504 C505 1.370 . S
C504 C506 1.363 . S
C504 H520 0.931 . S
C505 C504 1.370 . S
C505 C509 1.408 . S
C506 C504 1.363 . S
C506 C507 1.370 . S
C506 C510 1.524 . S
C507 C499 1.503 . S
C507 C506 1.370 . S
C507 C508 1.403 . S
C508 C507 1.403 . S
C508 C509 1.404 . S
C508 C511 1.539 . S
C509 C505 1.408 . S
C509 C508 1.404 . S
C509 H521 0.930 . S
C510 C506 1.524 . S
C510 H522 0.956 . S
C510 H523 0.961 . S
C510 H524 0.961 . S
C511 C508 1.539 . S
C511 H525 0.958 . S
C511 H526 0.961 . S
C511 H527 0.960 . S
H512 C496 0.931 . S
H513 C501 0.929 . S
H514 C502 0.960 . S
H515 C502 0.962 . S
H516 C502 0.960 . S
H517 C503 0.961 . S
H518 C503 0.961 . S
H519 C503 0.961 . S
H520 C504 0.931 . S
H521 C509 0.930 . S
H522 C510 0.956 . S
H523 C510 0.961 . S
H524 C510 0.961 . S
H525 C511 0.958 . S
H526 C511 0.961 . S
H527 C511 0.960 . S
C528 C529 1.391 1_556 S
C528 C530 1.394 . S
C528 H544 0.931 . S
C529 C528 1.391 1_554 S
C529 C533 1.376 . S
C530 C528 1.394 . S
C530 C531 1.369 1_556 S
C530 C534 1.531 . S
C531 C530 1.369 1_554 S
C531 C532 1.410 . S
C531 C539 1.503 . S
C532 C531 1.410 . S
C532 C533 1.392 . S
C532 C535 1.511 . S
C533 C529 1.376 . S
C533 C532 1.392 . S
C533 H545 0.929 . S
C534 C530 1.531 . S
C534 H546 0.960 . S
C534 H547 0.962 . S
C534 H548 0.960 . S
C535 C532 1.511 . S
C535 H549 0.961 . S
C535 H550 0.961 . S
C535 H551 0.961 . S
C536 C537 1.370 1_565 S
C536 C538 1.363 1_565 S
C536 H552 0.931 . S
C537 C536 1.370 1_545 S
C537 C541 1.408 . S
C538 C536 1.363 1_545 S
C538 C539 1.370 . S
C538 C542 1.524 1_545 S
C539 C531 1.503 . S
C539 C538 1.370 . S
C539 C540 1.403 . S
C540 C539 1.403 . S
C540 C541 1.404 . S
C540 C543 1.539 . S
C541 C537 1.408 . S
C541 C540 1.404 . S
C541 H553 0.930 . S
C542 C538 1.524 1_565 S
C542 H554 0.956 1_564 S
C542 H555 0.961 1_565 S
C542 H556 0.961 . S
C543 C540 1.539 . S
C543 H557 0.958 . S
C543 H558 0.961 . S
C543 H559 0.960 . S
H544 C528 0.931 . S
H545 C533 0.929 . S
H546 C534 0.960 . S
H547 C534 0.962 . S
H548 C534 0.960 . S
H549 C535 0.961 . S
H550 C535 0.961 . S
H551 C535 0.961 . S
H552 C536 0.931 . S
H553 C541 0.930 . S
H554 C542 0.956 1_546 S
H555 C542 0.961 1_545 S
H556 C542 0.961 . S
H557 C543 0.958 . S
H558 C543 0.961 . S
H559 C543 0.960 . S
C560 C561 1.391 . S
C560 C562 1.394 . S
C560 H576 0.931 . S
C561 C560 1.391 . S
C561 C565 1.376 . S
C562 C560 1.394 . S
C562 C563 1.369 . S
C562 C566 1.531 . S
C563 C562 1.369 . S
C563 C564 1.410 . S
C563 C571 1.503 . S
C564 C563 1.410 . S
C564 C565 1.392 . S
C564 C567 1.511 . S
C565 C561 1.376 . S
C565 C564 1.392 . S
C565 H577 0.929 . S
C566 C562 1.531 . S
C566 H578 0.960 . S
C566 H579 0.962 . S
C566 H580 0.960 . S
C567 C564 1.511 . S
C567 H581 0.961 . S
C567 H582 0.961 . S
C567 H583 0.961 . S
C568 C569 1.370 . S
C568 C570 1.363 . S
C568 H584 0.931 . S
C569 C568 1.370 . S
C569 C573 1.408 . S
C570 C568 1.363 . S
C570 C571 1.370 . S
C570 C574 1.524 . S
C571 C563 1.503 . S
C571 C570 1.370 . S
C571 C572 1.403 . S
C572 C571 1.403 . S
C572 C573 1.404 . S
C572 C575 1.539 . S
C573 C569 1.408 . S
C573 C572 1.404 . S
C573 H585 0.930 . S
C574 C570 1.524 . S
C574 H586 0.956 . S
C574 H587 0.961 . S
C574 H588 0.961 . S
C575 C572 1.539 . S
C575 H589 0.958 . S
C575 H590 0.961 . S
C575 H591 0.960 . S
H576 C560 0.931 . S
H577 C565 0.929 . S
H578 C566 0.960 . S
H579 C566 0.962 . S
H580 C566 0.960 . S
H581 C567 0.961 . S
H582 C567 0.961 . S
H583 C567 0.961 . S
H584 C568 0.931 . S
H585 C573 0.930 . S
H586 C574 0.956 . S
H587 C574 0.961 . S
H588 C574 0.961 . S
H589 C575 0.958 . S
H590 C575 0.961 . S
H591 C575 0.960 . S
C592 C593 1.391 1_655 S
C592 C594 1.394 1_655 S
C592 H608 0.931 . S
C593 C592 1.391 1_455 S
C593 C597 1.376 . S
C594 C592 1.394 1_455 S
C594 C595 1.369 . S
C594 C598 1.531 . S
C595 C594 1.369 . S
C595 C596 1.410 . S
C595 C603 1.503 . S
C596 C595 1.410 . S
C596 C597 1.392 . S
C596 C599 1.511 . S
C597 C593 1.376 . S
C597 C596 1.392 . S
C597 H609 0.929 . S
C598 C594 1.531 . S
C598 H610 0.960 . S
C598 H611 0.962 1_455 S
C598 H612 0.960 1_455 S
C599 C596 1.511 . S
C599 H613 0.961 . S
C599 H614 0.961 . S
C599 H615 0.961 . S
C600 C601 1.370 . S
C600 C602 1.363 . S
C600 H616 0.931 . S
C601 C600 1.370 . S
C601 C605 1.408 . S
C602 C600 1.363 . S
C602 C603 1.370 . S
C602 C606 1.524 . S
C603 C595 1.503 . S
C603 C602 1.370 . S
C603 C604 1.403 . S
C604 C603 1.403 . S
C604 C605 1.404 . S
C604 C607 1.539 . S
C605 C601 1.408 . S
C605 C604 1.404 . S
C605 H617 0.930 . S
C606 C602 1.524 . S
C606 H618 0.956 . S
C606 H619 0.961 . S
C606 H620 0.961 . S
C607 C604 1.539 . S
C607 H621 0.958 . S
C607 H622 0.961 . S
C607 H623 0.960 . S
H608 C592 0.931 . S
H609 C597 0.929 . S
H610 C598 0.960 . S
H611 C598 0.962 1_655 S
H612 C598 0.960 1_655 S
H613 C599 0.961 . S
H614 C599 0.961 . S
H615 C599 0.961 . S
H616 C600 0.931 . S
H617 C605 0.930 . S
H618 C606 0.956 . S
H619 C606 0.961 . S
H620 C606 0.961 . S
H621 C607 0.958 . S
H622 C607 0.961 . S
H623 C607 0.960 . S
C624 C625 1.391 . S
C624 C626 1.394 . S
C624 H640 0.931 . S
C625 C624 1.391 . S
C625 C629 1.376 . S
C626 C624 1.394 . S
C626 C627 1.369 . S
C626 C630 1.531 . S
C627 C626 1.369 . S
C627 C628 1.410 . S
C627 C635 1.503 . S
C628 C627 1.410 . S
C628 C629 1.392 . S
C628 C631 1.511 . S
C629 C625 1.376 . S
C629 C628 1.392 . S
C629 H641 0.929 . S
C630 C626 1.531 . S
C630 H642 0.960 . S
C630 H643 0.962 . S
C630 H644 0.960 . S
C631 C628 1.511 . S
C631 H645 0.961 . S
C631 H646 0.961 . S
C631 H647 0.961 . S
C632 C633 1.370 . S
C632 C634 1.363 . S
C632 H648 0.931 . S
C633 C632 1.370 . S
C633 C637 1.408 . S
C634 C632 1.363 . S
C634 C635 1.370 . S
C634 C638 1.524 . S
C635 C627 1.503 . S
C635 C634 1.370 . S
C635 C636 1.403 . S
C636 C635 1.403 . S
C636 C637 1.404 . S
C636 C639 1.539 . S
C637 C633 1.408 . S
C637 C636 1.404 . S
C637 H649 0.930 . S
C638 C634 1.524 . S
C638 H650 0.956 . S
C638 H651 0.961 . S
C638 H652 0.961 . S
C639 C636 1.539 . S
C639 H653 0.958 . S
C639 H654 0.961 . S
C639 H655 0.960 . S
H640 C624 0.931 . S
H641 C629 0.929 . S
H642 C630 0.960 . S
H643 C630 0.962 . S
H644 C630 0.960 . S
H645 C631 0.961 . S
H646 C631 0.961 . S
H647 C631 0.961 . S
H648 C632 0.931 . S
H649 C637 0.930 . S
H650 C638 0.956 . S
H651 C638 0.961 . S
H652 C638 0.961 . S
H653 C639 0.958 . S
H654 C639 0.961 . S
H655 C639 0.960 . S
C656 C657 1.391 . S
C656 C658 1.394 . S
C656 H672 0.931 . S
C657 C656 1.391 . S
C657 C661 1.376 . S
C658 C656 1.394 . S
C658 C659 1.369 . S
C658 C662 1.531 . S
C659 C658 1.369 . S
C659 C660 1.410 . S
C659 C667 1.503 . S
C660 C659 1.410 . S
C660 C661 1.392 . S
C660 C663 1.511 . S
C661 C657 1.376 . S
C661 C660 1.392 . S
C661 H673 0.929 . S
C662 C658 1.531 . S
C662 H674 0.960 . S
C662 H675 0.962 . S
C662 H676 0.960 . S
C663 C660 1.511 . S
C663 H677 0.961 . S
C663 H678 0.961 . S
C663 H679 0.961 . S
C664 C665 1.370 . S
C664 C666 1.363 . S
C664 H680 0.931 . S
C665 C664 1.370 . S
C665 C669 1.408 . S
C666 C664 1.363 . S
C666 C667 1.370 . S
C666 C670 1.524 . S
C667 C659 1.503 . S
C667 C666 1.370 . S
C667 C668 1.403 . S
C668 C667 1.403 . S
C668 C669 1.404 . S
C668 C671 1.539 . S
C669 C665 1.408 . S
C669 C668 1.404 . S
C669 H681 0.930 . S
C670 C666 1.524 . S
C670 H682 0.956 . S
C670 H683 0.961 . S
C670 H684 0.961 . S
C671 C668 1.539 . S
C671 H685 0.958 . S
C671 H686 0.961 . S
C671 H687 0.960 . S
H672 C656 0.931 . S
H673 C661 0.929 . S
H674 C662 0.960 . S
H675 C662 0.962 . S
H676 C662 0.960 . S
H677 C663 0.961 . S
H678 C663 0.961 . S
H679 C663 0.961 . S
H680 C664 0.931 . S
H681 C669 0.930 . S
H682 C670 0.956 . S
H683 C670 0.961 . S
H684 C670 0.961 . S
H685 C671 0.958 . S
H686 C671 0.961 . S
H687 C671 0.960 . S
C688 C689 1.391 . S
C688 C690 1.394 . S
C688 H704 0.931 1_655 S
C689 C688 1.391 . S
C689 C693 1.376 . S
C690 C688 1.394 . S
C690 C691 1.369 . S
C690 C694 1.531 1_655 S
C691 C690 1.369 . S
C691 C692 1.410 . S
C691 C699 1.503 . S
C692 C691 1.410 . S
C692 C693 1.392 . S
C692 C695 1.511 . S
C693 C689 1.376 . S
C693 C692 1.392 . S
C693 H705 0.929 . S
C694 C690 1.531 1_455 S
C694 H706 0.960 1_455 S
C694 H707 0.962 . S
C694 H708 0.960 . S
C695 C692 1.511 . S
C695 H709 0.961 . S
C695 H710 0.961 . S
C695 H711 0.961 . S
C696 C697 1.370 . S
C696 C698 1.363 . S
C696 H712 0.931 . S
C697 C696 1.370 . S
C697 C701 1.408 . S
C698 C696 1.363 . S
C698 C699 1.370 . S
C698 C702 1.524 . S
C699 C691 1.503 . S
C699 C698 1.370 . S
C699 C700 1.403 . S
C700 C699 1.403 . S
C700 C701 1.404 . S
C700 C703 1.539 . S
C701 C697 1.408 . S
C701 C700 1.404 . S
C701 H713 0.930 . S
C702 C698 1.524 . S
C702 H714 0.956 . S
C702 H715 0.961 . S
C702 H716 0.961 . S
C703 C700 1.539 . S
C703 H717 0.958 . S
C703 H718 0.961 . S
C703 H719 0.960 . S
H704 C688 0.931 1_455 S
H705 C693 0.929 . S
H706 C694 0.960 1_655 S
H707 C694 0.962 . S
H708 C694 0.960 . S
H709 C695 0.961 . S
H710 C695 0.961 . S
H711 C695 0.961 . S
H712 C696 0.931 . S
H713 C701 0.930 . S
H714 C702 0.956 . S
H715 C702 0.961 . S
H716 C702 0.961 . S
H717 C703 0.958 . S
H718 C703 0.961 . S
H719 C703 0.960 . S
C720 C721 1.391 . S
C720 C722 1.394 . S
C720 H736 0.931 . S
C721 C720 1.391 . S
C721 C725 1.376 . S
C722 C720 1.394 . S
C722 C723 1.369 . S
C722 C726 1.531 . S
C723 C722 1.369 . S
C723 C724 1.410 . S
C723 C731 1.503 . S
C724 C723 1.410 . S
C724 C725 1.392 . S
C724 C727 1.511 . S
C725 C721 1.376 . S
C725 C724 1.392 . S
C725 H737 0.929 . S
C726 C722 1.531 . S
C726 H738 0.960 . S
C726 H739 0.962 . S
C726 H740 0.960 1_565 S
C727 C724 1.511 . S
C727 H741 0.961 . S
C727 H742 0.961 . S
C727 H743 0.961 . S
C728 C729 1.370 . S
C728 C730 1.363 . S
C728 H744 0.931 . S
C729 C728 1.370 . S
C729 C733 1.408 . S
C730 C728 1.363 . S
C730 C731 1.370 . S
C730 C734 1.524 . S
C731 C723 1.503 . S
C731 C730 1.370 . S
C731 C732 1.403 . S
C732 C731 1.403 . S
C732 C733 1.404 . S
C732 C735 1.539 . S
C733 C729 1.408 . S
C733 C732 1.404 . S
C733 H745 0.930 . S
C734 C730 1.524 . S
C734 H746 0.956 . S
C734 H747 0.961 . S
C734 H748 0.961 . S
C735 C732 1.539 . S
C735 H749 0.958 1_565 S
C735 H750 0.961 . S
C735 H751 0.960 . S
H736 C720 0.931 . S
H737 C725 0.929 . S
H738 C726 0.960 . S
H739 C726 0.962 . S
H740 C726 0.960 1_545 S
H741 C727 0.961 . S
H742 C727 0.961 . S
H743 C727 0.961 . S
H744 C728 0.931 . S
H745 C733 0.930 . S
H746 C734 0.956 . S
H747 C734 0.961 . S
H748 C734 0.961 . S
H749 C735 0.958 1_545 S
H750 C735 0.961 . S
H751 C735 0.960 . S
C752 C753 1.384 1_455 S
C752 C754 1.394 . S
C752 H768 0.931 . S
C753 C752 1.384 1_655 S
C753 C757 1.382 . S
C754 C752 1.394 . S
C754 C755 1.369 . S
C754 C758 1.531 . S
C755 C754 1.369 . S
C755 C756 1.410 1_455 S
C755 C763 1.503 . S
C756 C755 1.410 1_655 S
C756 C757 1.392 . S
C756 C759 1.511 . S
C757 C753 1.382 . S
C757 C756 1.392 . S
C757 H769 0.929 . S
C758 C754 1.531 . S
C758 H770 0.960 . S
C758 H771 0.962 . S
C758 H772 0.960 . S
C759 C756 1.511 . S
C759 H773 0.961 . S
C759 H774 0.961 . S
C759 H775 0.961 . S
C760 C761 1.370 . S
C760 C762 1.363 . S
C760 H776 0.931 . S
C761 C760 1.370 . S
C761 C765 1.408 . S
C762 C760 1.363 . S
C762 C763 1.370 . S
C762 C766 1.524 . S
C763 C755 1.503 . S
C763 C762 1.370 . S
C763 C764 1.403 . S
C764 C763 1.403 . S
C764 C765 1.404 . S
C764 C767 1.539 . S
C765 C761 1.408 . S
C765 C764 1.404 . S
C765 H777 0.930 . S
C766 C762 1.524 . S
C766 H778 0.956 . S
C766 H779 0.961 1_455 S
C766 H780 0.961 1_455 S
C767 C764 1.539 . S
C767 H781 0.958 . S
C767 H782 0.961 . S
C767 H783 0.960 . S
H768 C752 0.931 . S
H769 C757 0.929 . S
H770 C758 0.960 . S
H771 C758 0.962 . S
H772 C758 0.960 . S
H773 C759 0.961 . S
H774 C759 0.961 . S
H775 C759 0.961 . S
H776 C760 0.931 . S
H777 C765 0.930 . S
H778 C766 0.956 . S
H779 C766 0.961 1_655 S
H780 C766 0.961 1_655 S
H781 C767 0.958 . S
H782 C767 0.961 . S
H783 C767 0.960 . S
C784 C785 1.391 . S
C784 C786 1.394 . S
C784 H800 0.931 . S
C785 C784 1.391 . S
C785 C789 1.376 1_565 S
C786 C784 1.394 . S
C786 C787 1.369 1_565 S
C786 C790 1.531 . S
C787 C786 1.369 1_545 S
C787 C788 1.410 . S
C787 C795 1.503 . S
C788 C787 1.410 . S
C788 C789 1.392 . S
C788 C791 1.511 . S
C789 C785 1.376 1_545 S
C789 C788 1.392 . S
C789 H801 0.929 . S
C790 C786 1.531 . S
C790 H802 0.960 . S
C790 H803 0.962 . S
C790 H804 0.960 . S
C791 C788 1.511 . S
C791 H805 0.961 . S
C791 H806 0.961 . S
C791 H807 0.961 . S
C792 C793 1.370 . S
C792 C794 1.363 . S
C792 H808 0.931 . S
C793 C792 1.370 . S
C793 C797 1.408 . S
C794 C792 1.363 . S
C794 C795 1.370 . S
C794 C798 1.524 . S
C795 C787 1.503 . S
C795 C794 1.370 . S
C795 C796 1.403 . S
C796 C795 1.403 . S
C796 C797 1.404 . S
C796 C799 1.539 1_545 S
C797 C793 1.408 . S
C797 C796 1.404 . S
C797 H809 0.930 . S
C798 C794 1.524 . S
C798 H810 0.956 . S
C798 H811 0.961 . S
C798 H812 0.961 . S
C799 C796 1.539 1_565 S
C799 H813 0.958 . S
C799 H814 0.961 . S
C799 H815 0.960 . S
H800 C784 0.931 . S
H801 C789 0.929 . S
H802 C790 0.960 . S
H803 C790 0.962 . S
H804 C790 0.960 . S
H805 C791 0.961 . S
H806 C791 0.961 . S
H807 C791 0.961 . S
H808 C792 0.931 . S
H809 C797 0.930 . S
H810 C798 0.956 . S
H811 C798 0.961 . S
H812 C798 0.961 . S
H813 C799 0.958 . S
H814 C799 0.961 . S
H815 C799 0.960 . S
C241 C130 0.587 . S
C249 C10 0.659 . S
C273 C170 0.727 . S
C281 C50 0.590 . S
C305 C210 0.558 . S
C313 C90 0.599 . S
C337 C16 0.817 . S
C345 C87 0.744 . S
C369 C56 0.700 . S
C377 C127 0.737 . S
C401 C96 0.663 . S
C409 C167 0.754 . S
C433 C136 0.643 . S
C441 C207 0.767 . S
C465 C176 0.660 . S
C473 C7 0.784 1_565 S
C497 C216 0.694 . S
C505 C47 0.782 . S
C529 C19 1.250 . S
C537 C139 1.223 1_545 S
C561 C59 1.238 . S
C569 C179 1.243 . S
C593 C99 1.232 1_455 S
C601 C219 1.242 . S
C625 C2 4.053 . S
C633 C51 4.125 . S
C657 C42 4.050 . S
C665 C91 4.126 . S
C689 C82 4.070 . S
C697 C131 4.124 . S
C721 C122 4.061 . S
C729 C171 4.126 . S
C753 C162 4.052 . S
C761 C211 4.125 . S
C785 C202 4.069 . S
C793 C11 4.124 . S
