# Generated by pormake.
# Topology wiv, (6)-cn, num edge types: 1
# Building blocks:
#     Node 0, Type 0, BuildingBlock: VOLQOD_clean_sbu_1, # of connection points: 6
#     Node 1, Type 0, BuildingBlock: VOLQOD_clean_sbu_1, # of connection points: 6
#     Node 2, Type 0, BuildingBlock: VOLQOD_clean_sbu_1, # of connection points: 6
#     Node 3, Type 0, BuildingBlock: VOLQOD_clean_sbu_1, # of connection points: 6
#     Node 4, Type 0, BuildingBlock: VOLQOD_clean_sbu_1, # of connection points: 6
#     Node 5, Type 0, BuildingBlock: VOLQOD_clean_sbu_1, # of connection points: 6
#     Node 6, Type 0, BuildingBlock: VOLQOD_clean_sbu_1, # of connection points: 6
#     Node 7, Type 0, BuildingBlock: VOLQOD_clean_sbu_1, # of connection points: 6
#     Node 8, Type 0, BuildingBlock: VOLQOD_clean_sbu_1, # of connection points: 6
#     Node 9, Type 0, BuildingBlock: VOLQOD_clean_sbu_1, # of connection points: 6
#     Node 10, Type 0, BuildingBlock: VOLQOD_clean_sbu_1, # of connection points: 6
#     Node 11, Type 0, BuildingBlock: VOLQOD_clean_sbu_1, # of connection points: 6
#     Node 12, Type 0, BuildingBlock: VOLQOD_clean_sbu_1, # of connection points: 6
#     Node 13, Type 0, BuildingBlock: VOLQOD_clean_sbu_1, # of connection points: 6
#     Node 14, Type 0, BuildingBlock: VOLQOD_clean_sbu_1, # of connection points: 6
#     Node 15, Type 0, BuildingBlock: VOLQOD_clean_sbu_1, # of connection points: 6
#     Edge 16, Type (0, 0), BuildingBlock: XIVTED_clean_linker_0, # of connection points: 2
#     Edge 17, Type (0, 0), BuildingBlock: XIVTED_clean_linker_0, # of connection points: 2
#     Edge 18, Type (0, 0), BuildingBlock: XIVTED_clean_linker_0, # of connection points: 2
#     Edge 19, Type (0, 0), BuildingBlock: XIVTED_clean_linker_0, # of connection points: 2
#     Edge 20, Type (0, 0), BuildingBlock: XIVTED_clean_linker_0, # of connection points: 2
#     Edge 21, Type (0, 0), BuildingBlock: XIVTED_clean_linker_0, # of connection points: 2
#     Edge 22, Type (0, 0), BuildingBlock: XIVTED_clean_linker_0, # of connection points: 2
#     Edge 23, Type (0, 0), BuildingBlock: XIVTED_clean_linker_0, # of connection points: 2
#     Edge 24, Type (0, 0), BuildingBlock: XIVTED_clean_linker_0, # of connection points: 2
#     Edge 25, Type (0, 0), BuildingBlock: XIVTED_clean_linker_0, # of connection points: 2
#     Edge 26, Type (0, 0), BuildingBlock: XIVTED_clean_linker_0, # of connection points: 2
#     Edge 27, Type (0, 0), BuildingBlock: XIVTED_clean_linker_0, # of connection points: 2
#     Edge 28, Type (0, 0), BuildingBlock: XIVTED_clean_linker_0, # of connection points: 2
#     Edge 29, Type (0, 0), BuildingBlock: XIVTED_clean_linker_0, # of connection points: 2
#     Edge 30, Type (0, 0), BuildingBlock: XIVTED_clean_linker_0, # of connection points: 2
#     Edge 31, Type (0, 0), BuildingBlock: XIVTED_clean_linker_0, # of connection points: 2
#     Edge 32, Type (0, 0), BuildingBlock: XIVTED_clean_linker_0, # of connection points: 2
#     Edge 33, Type (0, 0), BuildingBlock: XIVTED_clean_linker_0, # of connection points: 2
#     Edge 34, Type (0, 0), BuildingBlock: XIVTED_clean_linker_0, # of connection points: 2
#     Edge 35, Type (0, 0), BuildingBlock: XIVTED_clean_linker_0, # of connection points: 2
#     Edge 36, Type (0, 0), BuildingBlock: XIVTED_clean_linker_0, # of connection points: 2
#     Edge 37, Type (0, 0), BuildingBlock: XIVTED_clean_linker_0, # of connection points: 2
#     Edge 38, Type (0, 0), BuildingBlock: XIVTED_clean_linker_0, # of connection points: 2
#     Edge 39, Type (0, 0), BuildingBlock: XIVTED_clean_linker_0, # of connection points: 2
#     Edge 40, Type (0, 0), BuildingBlock: XIVTED_clean_linker_0, # of connection points: 2
#     Edge 41, Type (0, 0), BuildingBlock: XIVTED_clean_linker_0, # of connection points: 2
#     Edge 42, Type (0, 0), BuildingBlock: XIVTED_clean_linker_0, # of connection points: 2
#     Edge 43, Type (0, 0), BuildingBlock: XIVTED_clean_linker_0, # of connection points: 2
#     Edge 44, Type (0, 0), BuildingBlock: XIVTED_clean_linker_0, # of connection points: 2
#     Edge 45, Type (0, 0), BuildingBlock: XIVTED_clean_linker_0, # of connection points: 2
#     Edge 46, Type (0, 0), BuildingBlock: XIVTED_clean_linker_0, # of connection points: 2
#     Edge 47, Type (0, 0), BuildingBlock: XIVTED_clean_linker_0, # of connection points: 2
#     Edge 48, Type (0, 0), BuildingBlock: XIVTED_clean_linker_0, # of connection points: 2
#     Edge 49, Type (0, 0), BuildingBlock: XIVTED_clean_linker_0, # of connection points: 2
#     Edge 50, Type (0, 0), BuildingBlock: XIVTED_clean_linker_0, # of connection points: 2
#     Edge 51, Type (0, 0), BuildingBlock: XIVTED_clean_linker_0, # of connection points: 2
#     Edge 52, Type (0, 0), BuildingBlock: XIVTED_clean_linker_0, # of connection points: 2
#     Edge 53, Type (0, 0), BuildingBlock: XIVTED_clean_linker_0, # of connection points: 2
#     Edge 54, Type (0, 0), BuildingBlock: XIVTED_clean_linker_0, # of connection points: 2
#     Edge 55, Type (0, 0), BuildingBlock: XIVTED_clean_linker_0, # of connection points: 2
#     Edge 56, Type (0, 0), BuildingBlock: XIVTED_clean_linker_0, # of connection points: 2
#     Edge 57, Type (0, 0), BuildingBlock: XIVTED_clean_linker_0, # of connection points: 2
#     Edge 58, Type (0, 0), BuildingBlock: XIVTED_clean_linker_0, # of connection points: 2
#     Edge 59, Type (0, 0), BuildingBlock: XIVTED_clean_linker_0, # of connection points: 2
#     Edge 60, Type (0, 0), BuildingBlock: XIVTED_clean_linker_0, # of connection points: 2
#     Edge 61, Type (0, 0), BuildingBlock: XIVTED_clean_linker_0, # of connection points: 2
#     Edge 62, Type (0, 0), BuildingBlock: XIVTED_clean_linker_0, # of connection points: 2
#     Edge 63, Type (0, 0), BuildingBlock: XIVTED_clean_linker_0, # of connection points: 2
# Relax obj value: 0.188
# Max RMSD: 0.161
# Mean RMSD: 0.158
data_MOF--net-wiv--node1-VOLQOD_clean_sbu_1--edge1-XIVTED_clean_linker_0
_symmetry_space_group_name_H-M    P1
_symmetry_Int_Tables_number       1
_symmetry_cell_setting            triclinic
loop_
_symmetry_equiv_pos_as_xyz
'x, y, z'
_cell_length_a     64.567906
_cell_length_b     65.00652
_cell_length_c     16.2144425
_cell_angle_alpha  89.882916
_cell_angle_beta   89.967106
_cell_angle_gamma 89.998168
loop_
_atom_site_label
_atom_site_type_symbol
_atom_site_fract_x
_atom_site_fract_y
_atom_site_fract_z
_atom_type_partial_charge
O0 O 0.35412 0.12752 -0.00285 0.0
Zn1 Zn 0.35784 0.12971 0.11958 0.0
O2 O 0.33744 0.11273 0.17191 0.0
Zn3 Zn 0.31316 0.1294 0.19987 0.0
Zn4 Zn 0.33121 0.09177 0.09289 0.0
Zn5 Zn 0.34928 0.09953 0.26506 0.0
O6 O 0.30538 0.12484 0.32004 0.0
O7 O 0.33287 0.10689 0.36286 0.0
O8 O 0.35285 0.15872 0.14841 0.0
O9 O 0.32011 0.15974 0.19034 0.0
O10 O 0.28979 0.12303 0.11969 0.0
O11 O 0.30328 0.09685 0.0493 0.0
O12 O 0.33371 0.06316 0.13586 0.0
O13 O 0.38649 0.12294 0.15928 0.0
O14 O 0.34877 0.06896 0.25611 0.0
O15 O 0.37898 0.10728 0.27774 0.0
C16 C 0.35159 0.11102 0.95646 0.0
C17 C 0.31578 0.11597 0.37675 0.0
C18 C 0.28878 0.10964 0.0623 0.0
C19 C 0.3371 0.16871 0.1727 0.0
C20 C 0.34188 0.05661 0.20211 0.0
C21 C 0.39204 0.1152 0.22813 0.0
O22 O 0.34918 0.094 -0.00626 0.0
O23 O 0.08074 0.60922 0.01098 0.0
Zn24 Zn 0.08244 0.60617 0.88791 0.0
O25 O 0.10095 0.62689 0.84531 0.0
Zn26 Zn 0.08498 0.64983 0.8046 0.0
Zn27 Zn 0.11754 0.63391 0.93772 0.0
Zn28 Zn 0.11942 0.61638 0.76489 0.0
O29 O 0.09297 0.65644 0.68769 0.0
O30 O 0.11244 0.62902 0.65828 0.0
O31 O 0.054 0.60976 0.84241 0.0
O32 O 0.05503 0.64191 0.79596 0.0
O33 O 0.08767 0.67384 0.88224 0.0
O34 O 0.10736 0.66047 0.98184 0.0
O35 O 0.14766 0.63665 0.91268 0.0
O36 O 0.09336 0.57831 0.85792 0.0
O37 O 0.1491 0.62364 0.78689 0.0
O38 O 0.11715 0.58578 0.76291 0.0
C39 C 0.09676 0.60973 0.05639 0.0
C40 C 0.1031 0.64541 0.63687 0.0
C41 C 0.09626 0.67497 0.95292 0.0
C42 C 0.04519 0.62529 0.80994 0.0
C43 C 0.15794 0.63167 0.849 0.0
C44 C 0.10687 0.57275 0.80513 0.0
O45 O 0.11446 0.61274 0.02467 0.0
O46 O 0.64124 0.87643 0.05729 0.0
Zn47 Zn 0.63867 0.8604 0.16001 0.0
O48 O 0.65686 0.87055 0.24361 0.0
Zn49 Zn 0.67743 0.84998 0.27424 0.0
Zn50 Zn 0.67183 0.89416 0.20185 0.0
Zn51 Zn 0.63962 0.87841 0.33429 0.0
O52 O 0.67903 0.84736 0.39823 0.0
O53 O 0.65155 0.86619 0.43444 0.0
O54 O 0.64723 0.83232 0.13018 0.0
O55 O 0.67182 0.82285 0.21809 0.0
O56 O 0.70506 0.85857 0.23005 0.0
O57 O 0.70232 0.89241 0.22074 0.0
O58 O 0.66066 0.92005 0.24921 0.0
O59 O 0.609 0.85905 0.19304 0.0
O60 O 0.63882 0.90904 0.34555 0.0
O61 O 0.60998 0.86948 0.32279 0.0
C62 C 0.65551 0.88819 0.03106 0.0
C63 C 0.66683 0.85469 0.45251 0.0
C64 C 0.71309 0.87609 0.21597 0.0
C65 C 0.65993 0.81903 0.15731 0.0
C66 C 0.64768 0.92358 0.30652 0.0
C67 C 0.59999 0.86267 0.26106 0.0
O68 O 0.66935 0.89527 0.07888 0.0
O69 O 0.9039 0.37062 0.96111 0.0
Zn70 Zn 0.90494 0.37251 0.83743 0.0
O71 O 0.88792 0.35078 0.79254 0.0
Zn72 Zn 0.90506 0.32748 0.75992 0.0
Zn73 Zn 0.86954 0.3435 0.87983 0.0
Zn74 Zn 0.87092 0.36069 0.70471 0.0
O75 O 0.90069 0.32108 0.639 0.0
O76 O 0.87974 0.34692 0.60293 0.0
O77 O 0.93461 0.36818 0.80769 0.0
O78 O 0.93515 0.33541 0.76854 0.0
O79 O 0.89992 0.30287 0.83563 0.0
O80 O 0.87836 0.31686 0.92705 0.0
O81 O 0.84021 0.34095 0.84499 0.0
O82 O 0.89507 0.40018 0.79591 0.0
O83 O 0.84071 0.35415 0.71926 0.0
O84 O 0.87354 0.39126 0.69496 0.0
C85 C 0.88765 0.3683 0.00437 0.0
C86 C 0.89058 0.33122 0.58502 0.0
C87 C 0.88968 0.30204 0.90297 0.0
C88 C 0.94445 0.35219 0.78503 0.0
C89 C 0.83092 0.3461 0.77918 0.0
C90 C 0.88294 0.40496 0.73671 0.0
O91 O 0.87056 0.3639 0.97018 0.0
O92 O 0.38262 0.3625 0.28845 0.0
Zn93 Zn 0.38309 0.35682 0.16751 0.0
O94 O 0.36473 0.37616 0.11367 0.0
Zn95 Zn 0.33869 0.36257 0.0846 0.0
Zn96 Zn 0.35979 0.39884 0.18767 0.0
Zn97 Zn 0.37806 0.38728 0.01873 0.0
O98 O 0.33196 0.36617 0.9636 0.0
O99 O 0.36165 0.38019 0.92116 0.0
O100 O 0.37234 0.32822 0.15583 0.0
O101 O 0.34075 0.3322 0.10449 0.0
O102 O 0.31581 0.37237 0.15883 0.0
O103 O 0.33072 0.39806 0.22664 0.0
O104 O 0.36512 0.42636 0.13808 0.0
O105 O 0.41198 0.35756 0.11977 0.0
O106 O 0.37966 0.41799 0.01924 0.0
O107 O 0.40656 0.37629 0.00709 0.0
C108 C 0.38029 0.37919 0.32818 0.0
C109 C 0.34377 0.37293 0.90677 0.0
C110 C 0.31518 0.38661 0.21263 0.0
C111 C 0.35513 0.32077 0.13225 0.0
C112 C 0.37347 0.43148 0.07017 0.0
C113 C 0.41836 0.36536 0.05218 0.0
O114 O 0.37592 0.39591 0.2913 0.0
O115 O 0.38555 0.61373 0.67492 0.0
Zn116 Zn 0.38831 0.6133 0.7978 0.0
O117 O 0.36988 0.63355 0.84512 0.0
Zn118 Zn 0.38603 0.65655 0.88624 0.0
Zn119 Zn 0.35176 0.64233 0.75905 0.0
Zn120 Zn 0.35233 0.6218 0.92737 0.0
O121 O 0.37883 0.66277 0.00389 0.0
O122 O 0.35775 0.63642 0.03087 0.0
O123 O 0.41792 0.61963 0.82289 0.0
O124 O 0.41635 0.6499 0.88531 0.0
O125 O 0.38284 0.68093 0.81145 0.0
O126 O 0.36177 0.66903 0.71407 0.0
O127 O 0.32217 0.64484 0.79239 0.0
O128 O 0.38197 0.58539 0.84363 0.0
O129 O 0.32195 0.62567 0.9053 0.0
O130 O 0.35853 0.59182 0.94092 0.0
C131 C 0.36902 0.61612 0.6335 0.0
C132 C 0.3675 0.65246 0.05316 0.0
C133 C 0.37366 0.68293 0.74237 0.0
C134 C 0.42674 0.6348 0.85762 0.0
C135 C 0.31244 0.63616 0.85095 0.0
C136 C 0.37027 0.57939 0.90223 0.0
O137 O 0.3525 0.62238 0.66754 0.0
O138 O 0.6229 0.64932 0.11185 0.0
Zn139 Zn 0.61992 0.64958 -0.0117 0.0
O140 O 0.63512 0.62664 0.94698 0.0
Zn141 Zn 0.66298 0.63508 0.91813 0.0
Zn142 Zn 0.63447 0.60737 0.03567 0.0
Zn143 Zn 0.62105 0.61462 0.85707 0.0
O144 O 0.66812 0.63009 0.79587 0.0
O145 O 0.6361 0.62173 0.75528 0.0
O146 O 0.63263 0.67552 0.94865 0.0
O147 O 0.66541 0.66572 0.93249 0.0
O148 O 0.6838 0.62212 -0.00302 0.0
O149 O 0.6624 0.60671 0.08553 0.0
O150 O 0.6273 0.57911 -0.00088 0.0
O151 O 0.59011 0.64771 0.95406 0.0
O152 O 0.62132 0.58399 0.86568 0.0
O153 O 0.59149 0.62411 0.85503 0.0
C154 C 0.61914 0.63386 0.15769 0.0
C155 C 0.65486 0.62629 0.73954 0.0
C156 C 0.68047 0.61245 0.0644 0.0
C157 C 0.65166 0.67971 0.93694 0.0
C158 C 0.62327 0.57217 0.92774 0.0
C159 C 0.58133 0.63692 0.89861 0.0
O160 O 0.61563 0.61644 0.12534 0.0
O161 O 0.59996 0.38928 0.6775 0.0
Zn162 Zn 0.59992 0.38421 0.79874 0.0
O163 O 0.62141 0.36504 0.82917 0.0
Zn164 Zn 0.60977 0.34318 0.89553 0.0
Zn165 Zn 0.63459 0.3539 0.73508 0.0
Zn166 Zn 0.64247 0.37999 0.88517 0.0
O167 O 0.61998 0.34566 0.01147 0.0
O168 O 0.63893 0.37422 0.00241 0.0
O169 O 0.57206 0.37442 0.83234 0.0
O170 O 0.57884 0.34621 0.90461 0.0
O171 O 0.6143 0.3156 0.84206 0.0
O172 O 0.62374 0.32583 0.71637 0.0
O173 O 0.66549 0.35189 0.74504 0.0
O174 O 0.60497 0.41151 0.85037 0.0
O175 O 0.67099 0.37122 0.85509 0.0
O176 O 0.63901 0.41036 0.87061 0.0
C177 C 0.61354 0.38423 0.62465 0.0
C178 C 0.6304 0.36009 0.0446 0.0
C179 C 0.61761 0.3119 0.76594 0.0
C180 C 0.56605 0.35921 0.87546 0.0
C181 C 0.67771 0.35982 0.79748 0.0
C182 C 0.62206 0.4203 0.8667 0.0
O183 O 0.62796 0.37152 0.64034 0.0
O184 O 0.85748 0.62296 0.41074 0.0
Zn185 Zn 0.86147 0.62668 0.53187 0.0
O186 O 0.8422 0.60896 0.58752 0.0
Zn187 Zn 0.81752 0.62491 0.61561 0.0
Zn188 Zn 0.83594 0.58661 0.51379 0.0
Zn189 Zn 0.85524 0.59749 0.68186 0.0
O190 O 0.80972 0.61992 0.73474 0.0
O191 O 0.83849 0.60438 0.77933 0.0
O192 O 0.85537 0.65592 0.55778 0.0
O193 O 0.82333 0.65556 0.60722 0.0
O194 O 0.79429 0.61731 0.53745 0.0
O195 O 0.80685 0.58938 0.47559 0.0
O196 O 0.84136 0.55845 0.561 0.0
O197 O 0.89066 0.6216 0.56972 0.0
O198 O 0.85679 0.56684 0.67798 0.0
O199 O 0.88438 0.60728 0.69191 0.0
C200 C 0.85462 0.60628 0.37146 0.0
C201 C 0.8207 0.61213 0.79212 0.0
C202 C 0.79253 0.60256 0.48603 0.0
C203 C 0.83959 0.66531 0.58562 0.0
C204 C 0.8505 0.55332 0.62742 0.0
C205 C 0.89685 0.61512 0.63975 0.0
O206 O 0.8519 0.58938 0.40948 0.0
O207 O 0.57686 0.10242 0.58787 0.0
Zn208 Zn 0.57826 0.10184 0.46441 0.0
O209 O 0.59678 0.12326 0.42622 0.0
Zn210 Zn 0.58064 0.14627 0.38564 0.0
Zn211 Zn 0.6141 0.13077 0.51693 0.0
Zn212 Zn 0.61492 0.11333 0.34293 0.0
O213 O 0.58623 0.15166 0.26557 0.0
O214 O 0.60703 0.1253 0.23691 0.0
O215 O 0.54947 0.10636 0.42228 0.0
O216 O 0.55053 0.13937 0.38685 0.0
O217 O 0.58557 0.17123 0.45526 0.0
O218 O 0.60669 0.15908 0.55231 0.0
O219 O 0.64447 0.13092 0.49139 0.0
O220 O 0.58877 0.07419 0.42791 0.0
O221 O 0.64449 0.12088 0.36119 0.0
O222 O 0.61333 0.08293 0.33819 0.0
C223 C 0.59196 0.10512 0.63692 0.0
C224 C 0.59652 0.14085 0.21472 0.0
C225 C 0.5958 0.17351 0.52182 0.0
C226 C 0.54056 0.12269 0.39723 0.0
C227 C 0.65406 0.12717 0.42468 0.0
C228 C 0.60275 0.06935 0.37595 0.0
O229 O 0.60911 0.11247 0.61216 0.0
O230 O 0.13735 0.3713 0.51517 0.0
Zn231 Zn 0.13488 0.35879 0.62539 0.0
O232 O 0.15446 0.37081 0.69991 0.0
Zn233 Zn 0.17619 0.35109 0.72603 0.0
Zn234 Zn 0.16803 0.39408 0.64975 0.0
Zn235 Zn 0.13931 0.38001 0.79468 0.0
O236 O 0.18041 0.34982 0.8482 0.0
O237 O 0.15374 0.36887 0.892 0.0
O238 O 0.14121 0.32926 0.60921 0.0
O239 O 0.1695 0.32295 0.68252 0.0
O240 O 0.20273 0.35942 0.67165 0.0
O241 O 0.19876 0.39309 0.65933 0.0
O242 O 0.15783 0.42041 0.69469 0.0
O243 O 0.1058 0.36012 0.6653 0.0
O244 O 0.13849 0.4109 0.80121 0.0
O245 O 0.1095 0.37085 0.79413 0.0
C246 C 0.15012 0.38404 0.48443 0.0
C247 C 0.16954 0.35767 0.90547 0.0
C248 C 0.20997 0.37709 0.65407 0.0
C249 C 0.15511 0.31698 0.63464 0.0
C250 C 0.14635 0.42484 0.75576 0.0
C251 C 0.09821 0.36419 0.73568 0.0
O252 O 0.16312 0.3936 0.52889 0.0
O253 O 0.40836 0.87596 0.44723 0.0
Zn254 Zn 0.40682 0.87637 0.32365 0.0
O255 O 0.38881 0.85469 0.28551 0.0
Zn256 Zn 0.40556 0.83207 0.24473 0.0
Zn257 Zn 0.373 0.847 0.37925 0.0
Zn258 Zn 0.36899 0.86425 0.20656 0.0
O259 O 0.39969 0.82752 0.12421 0.0
O260 O 0.37624 0.85203 0.09981 0.0
O261 O 0.43589 0.87235 0.28624 0.0
O262 O 0.43589 0.83941 0.25004 0.0
O263 O 0.4013 0.8067 0.31546 0.0
O264 O 0.38345 0.82032 0.4197 0.0
O265 O 0.34291 0.84392 0.35841 0.0
O266 O 0.39565 0.90353 0.28634 0.0
O267 O 0.33949 0.85625 0.23211 0.0
O268 O 0.37007 0.89496 0.20098 0.0
C269 C 0.39299 0.87395 0.49536 0.0
C270 C 0.38788 0.83747 0.07545 0.0
C271 C 0.39343 0.80551 0.38753 0.0
C272 C 0.44545 0.85619 0.26381 0.0
C273 C 0.33167 0.84838 0.29685 0.0
C274 C 0.38107 0.90847 0.23721 0.0
O275 O 0.37581 0.86722 0.46903 0.0
O276 O 0.87915 0.85769 0.82513 0.0
Zn277 Zn 0.88143 0.85376 0.70318 0.0
O278 O 0.86325 0.87368 0.65249 0.0
Zn279 Zn 0.83716 0.86033 0.62408 0.0
Zn280 Zn 0.85902 0.89575 0.73003 0.0
Zn281 Zn 0.8763 0.88544 0.55859 0.0
O282 O 0.82983 0.86585 0.50445 0.0
O283 O 0.86047 0.87748 0.46015 0.0
O284 O 0.87199 0.82501 0.67855 0.0
O285 O 0.83998 0.82956 0.63228 0.0
O286 O 0.81499 0.86866 0.70558 0.0
O287 O 0.83045 0.89403 0.77368 0.0
O288 O 0.86328 0.92398 0.68243 0.0
O289 O 0.91074 0.85674 0.66154 0.0
O290 O 0.87605 0.91622 0.55972 0.0
O291 O 0.90565 0.87628 0.55066 0.0
C292 C 0.87806 0.87427 0.86656 0.0
C293 C 0.84207 0.87139 0.44676 0.0
C294 C 0.81493 0.88241 0.76161 0.0
C295 C 0.85486 0.81778 0.65279 0.0
C296 C 0.87031 0.92947 0.61249 0.0
C297 C 0.91751 0.86567 0.59681 0.0
O298 O 0.87628 0.89161 0.83066 0.0
O299 O 0.88016 0.11341 0.20436 0.0
Zn300 Zn 0.88306 0.11122 0.32714 0.0
O301 O 0.86529 0.13161 0.37706 0.0
Zn302 Zn 0.88164 0.15488 0.41418 0.0
Zn303 Zn 0.84632 0.14016 0.29319 0.0
Zn304 Zn 0.84916 0.11974 0.46325 0.0
O305 O 0.87474 0.16211 0.5316 0.0
O306 O 0.85544 0.13486 0.56514 0.0
O307 O 0.91268 0.11684 0.3541 0.0
O308 O 0.91171 0.14741 0.41462 0.0
O309 O 0.87861 0.17876 0.33555 0.0
O310 O 0.85582 0.16684 0.24457 0.0
O311 O 0.81708 0.1423 0.33243 0.0
O312 O 0.87639 0.08291 0.37029 0.0
O313 O 0.81864 0.12343 0.44617 0.0
O314 O 0.85557 0.08968 0.47623 0.0
C315 C 0.86335 0.11576 0.16469 0.0
C316 C 0.86455 0.15155 0.5839 0.0
C317 C 0.86847 0.18061 0.2685 0.0
C318 C 0.92176 0.13188 0.38874 0.0
C319 C 0.80829 0.13366 0.39353 0.0
C320 C 0.86601 0.07702 0.43298 0.0
O321 O 0.84664 0.11987 0.20241 0.0
O322 O 0.11484 0.13408 0.69384 0.0
Zn323 Zn 0.112 0.13554 0.57068 0.0
O324 O 0.12906 0.11435 0.52467 0.0
Zn325 Zn 0.15564 0.12568 0.49152 0.0
Zn326 Zn 0.13203 0.09501 0.61241 0.0
Zn327 Zn 0.11511 0.10063 0.43793 0.0
O328 O 0.16152 0.11848 0.37212 0.0
O329 O 0.13059 0.10602 0.33526 0.0
O330 O 0.12212 0.16296 0.53535 0.0
O331 O 0.15435 0.15657 0.49462 0.0
O332 O 0.17791 0.11752 0.57381 0.0
O333 O 0.15921 0.09956 0.66417 0.0
O334 O 0.13003 0.06591 0.57561 0.0
O335 O 0.08265 0.13228 0.53387 0.0
O336 O 0.11561 0.0701 0.4528 0.0
O337 O 0.08554 0.10991 0.43079 0.0
C338 C 0.11293 0.11776 0.73656 0.0
C339 C 0.14891 0.11179 0.31783 0.0
C340 C 0.17601 0.10824 0.6429 0.0
C341 C 0.13969 0.16908 0.5098 0.0
C342 C 0.12254 0.0585 0.50964 0.0
C343 C 0.0747 0.12201 0.475 0.0
O344 O 0.11148 0.10047 0.70076 0.0
O345 O 0.09888 0.86931 0.20662 0.0
Zn346 Zn 0.10072 0.87126 0.32973 0.0
O347 O 0.12085 0.85214 0.37203 0.0
Zn348 Zn 0.10652 0.82941 0.42337 0.0
Zn349 Zn 0.13576 0.8434 0.27811 0.0
Zn350 Zn 0.14077 0.8649 0.44224 0.0
O351 O 0.11808 0.82421 0.53572 0.0
O352 O 0.13736 0.85241 0.55206 0.0
O353 O 0.07278 0.86612 0.37715 0.0
O354 O 0.07658 0.83648 0.44328 0.0
O355 O 0.10702 0.80475 0.34906 0.0
O356 O 0.12403 0.81685 0.2397 0.0
O357 O 0.16605 0.84039 0.29602 0.0
O358 O 0.10908 0.8996 0.36112 0.0
O359 O 0.17025 0.85937 0.40795 0.0
O360 O 0.13573 0.89543 0.44664 0.0
C361 C 0.11485 0.869 0.16087 0.0
C362 C 0.12918 0.83601 0.5801 0.0
C363 C 0.1135 0.80285 0.2752 0.0
C364 C 0.06544 0.85166 0.4212 0.0
C365 C 0.17773 0.84866 0.34947 0.0
C366 C 0.12279 0.90694 0.40916 0.0
O367 O 0.13238 0.86394 0.18962 0.0
H368 H 0.35323 0.92547 0.12953 0.0
H369 H 0.36252 0.03735 0.32735 0.0
H370 H 0.3961 0.9412 0.32403 0.0
H371 H 0.32956 0.02526 0.10066 0.0
H372 H 0.37188 0.00113 0.33529 0.0
H373 H 0.34215 0.96135 0.12369 0.0
C374 C 0.36042 0.93648 0.17061 0.0
C375 C 0.3756 0.93033 0.22745 0.0
C376 C 0.36253 0.0064 0.28397 0.0
C377 C 0.36281 0.97125 0.2217 0.0
C378 C 0.35706 0.02705 0.27965 0.0
C379 C 0.34537 0.03438 0.21285 0.0
C380 C 0.35621 0.99295 0.22129 0.0
C381 C 0.33869 0.0203 0.153 0.0
C382 C 0.35404 0.95693 0.16733 0.0
C383 C 0.38438 0.94525 0.27911 0.0
N384 N 0.3443 0.00023 0.15844 0.0
N385 N 0.37777 0.96501 0.27528 0.0
H386 H 0.92708 0.63811 0.56452 0.0
H387 H 0.01716 0.59592 0.85547 0.0
H388 H 0.91681 0.59555 0.76541 0.0
H389 H 0.02337 0.65115 0.70892 0.0
H390 H 0.9811 0.59325 0.8121 0.0
H391 H 0.96348 0.64072 0.60551 0.0
C392 C 0.93249 0.62928 0.61697 0.0
C393 C 0.91891 0.61664 0.66178 0.0
C394 C 0.99035 0.60599 0.78968 0.0
C395 C 0.96035 0.61952 0.70857 0.0
C396 C 0.01094 0.6075 0.81424 0.0
C397 C 0.02326 0.62381 0.7859 0.0
C398 C 0.98209 0.62077 0.73572 0.0
C399 C 0.01437 0.63839 0.73263 0.0
C400 C 0.9532 0.63085 0.6405 0.0
C401 C 0.9267 0.60558 0.72939 0.0
N402 N 0.99431 0.63648 0.70891 0.0
N403 N 0.94692 0.60723 0.75058 0.0
H404 H 0.6184 0.93751 0.41562 0.0
H405 H 0.62964 0.05373 0.2629 0.0
H406 H 0.66293 0.95841 0.2348 0.0
H407 H 0.58814 0.03544 0.45901 0.0
H408 H 0.64076 0.01829 0.24896 0.0
H409 H 0.60655 0.97296 0.43232 0.0
C410 C 0.6258 0.94955 0.37996 0.0
C411 C 0.64162 0.94499 0.32342 0.0
C412 C 0.6292 0.02197 0.29501 0.0
C413 C 0.62801 0.98539 0.34168 0.0
C414 C 0.62276 0.04223 0.30285 0.0
C415 C 0.60801 0.04758 0.3626 0.0
C416 C 0.62085 0.00687 0.34724 0.0
C417 C 0.59957 0.03198 0.41219 0.0
C418 C 0.61897 0.96974 0.38932 0.0
C419 C 0.65064 0.96117 0.27885 0.0
N420 N 0.60619 0.01227 0.40363 0.0
N421 N 0.64363 0.98063 0.28872 0.0
H422 H 0.9704 0.32559 0.70488 0.0
H423 H 0.07393 0.38063 0.85747 0.0
H424 H 0.97032 0.38072 0.85314 0.0
H425 H 0.0715 0.3414 0.64303 0.0
H426 H 0.03637 0.37696 0.87272 0.0
H427 H 0.00819 0.32751 0.69691 0.0
C428 C 0.97833 0.33806 0.73587 0.0
C429 C 0.96722 0.35308 0.7794 0.0
C430 C 0.04412 0.36915 0.82249 0.0
C431 C 0.01031 0.35522 0.77115 0.0
C432 C 0.06553 0.37114 0.814 0.0
C433 C 0.07579 0.3614 0.74862 0.0
C434 C 0.03304 0.3571 0.76591 0.0
C435 C 0.06416 0.34932 0.69392 0.0
C436 C -0.00015 0.33916 0.73113 0.0
C437 C 0.97827 0.36891 0.81836 0.0
N438 N 0.04339 0.34749 0.70387 0.0
N439 N -0.00076 0.36953 0.81355 0.0
H440 H 0.39155 0.4485 0.93335 0.0
H441 H 0.35082 0.5616 0.03417 0.0
H442 H 0.35836 0.46441 0.15577 0.0
H443 H 0.39116 0.54763 0.82901 0.0
H444 H 0.35273 0.52576 0.07757 0.0
H445 H 0.39133 0.48467 0.89297 0.0
C446 C 0.38433 0.4596 0.97396 0.0
C447 C 0.37488 0.45341 0.0479 0.0
C448 C 0.36119 0.53054 0.02312 0.0
C449 C 0.37446 0.49475 0.00173 0.0
C450 C 0.36004 0.55099 -0.00194 0.0
C451 C 0.37084 0.55763 0.92777 0.0
C452 C 0.37314 0.51659 0.97738 0.0
C453 C 0.38259 0.5432 0.88362 0.0
C454 C 0.38421 0.48024 0.95081 0.0
C455 C 0.3658 0.46848 0.09815 0.0
N456 N 0.3834 0.52333 0.90913 0.0
N457 N 0.36572 0.48844 0.07387 0.0
H458 H 0.55423 0.66328 0.97472 0.0
H459 H 0.45426 0.60751 0.79096 0.0
H460 H 0.55672 0.61346 0.79897 0.0
H461 H 0.45124 0.66307 0.93622 0.0
H462 H 0.49192 0.60894 0.79726 0.0
H463 H 0.5165 0.66329 0.96364 0.0
C464 C 0.54688 0.65243 0.93342 0.0
C465 C 0.55867 0.63828 0.88797 0.0
C466 C 0.48303 0.62084 0.82767 0.0
C467 C 0.51554 0.63812 0.8756 0.0
C468 C 0.4615 0.61999 0.82443 0.0
C469 C 0.44955 0.63519 0.8632 0.0
C470 C 0.49272 0.63695 0.87035 0.0
C471 C 0.45983 0.65103 0.9054 0.0
C472 C 0.52534 0.65244 0.9272 0.0
C473 C 0.54829 0.62463 0.83532 0.0
N474 N 0.48084 0.65148 0.90798 0.0
N475 N 0.52731 0.62481 0.83099 0.0
H476 H 0.63534 0.5502 0.79368 0.0
H477 H 0.59228 0.44336 0.94014 0.0
H478 H 0.60853 0.54381 0.03634 0.0
H479 H 0.65182 0.44755 0.82009 0.0
H480 H 0.59203 0.48091 0.95532 0.0
H481 H 0.63524 0.51261 0.77982 0.0
C482 C 0.62922 0.54086 0.84348 0.0
C483 C 0.62194 0.54991 0.91626 0.0
C484 C 0.60512 0.47351 0.92594 0.0
C485 C 0.62161 0.50745 0.90042 0.0
C486 C 0.60527 0.45224 0.91709 0.0
C487 C 0.62214 0.44256 0.8791 0.0
C488 C 0.62165 0.48502 0.89432 0.0
C489 C 0.63864 0.45457 0.8503 0.0
C490 C 0.62933 0.51955 0.83578 0.0
C491 C 0.61434 0.53727 0.97948 0.0
N492 N 0.63789 0.47533 0.85759 0.0
N493 N 0.61421 0.51656 0.96987 0.0
H494 H 0.44944 0.34369 0.12987 0.0
H495 H 0.53391 0.37829 0.7985 0.0
H496 H 0.43621 0.3792 0.91052 0.0
H497 H 0.5477 0.33599 -0.00325 0.0
H498 H 0.49764 0.37761 0.838 0.0
H499 H 0.48526 0.33962 0.08222 0.0
C500 C 0.45402 0.35056 0.07173 0.0
C501 C 0.43985 0.36196 0.02452 0.0
C502 C 0.50852 0.36834 0.8727 0.0
C503 C 0.48059 0.35733 0.96988 0.0
C504 C 0.52927 0.36875 0.85018 0.0
C505 C 0.54385 0.35731 0.89484 0.0
C506 C 0.50227 0.35656 0.94099 0.0
C507 C 0.53693 0.34507 0.96076 0.0
C508 C 0.47442 0.34818 0.04452 0.0
C509 C 0.44658 0.37042 0.94946 0.0
N510 N 0.5166 0.34517 -0.01752 0.0
N511 N 0.46645 0.36802 0.92482 0.0
H512 H 0.86028 0.42074 0.60892 0.0
H513 H 0.87114 0.53716 0.75975 0.0
H514 H 0.89614 0.43907 0.82129 0.0
H515 H 0.83988 0.51953 0.53523 0.0
H516 H 0.87951 0.50119 0.7853 0.0
H517 H 0.85216 0.45674 0.58222 0.0
C518 C 0.86652 0.43233 0.64987 0.0
C519 C 0.87889 0.42684 0.71767 0.0
C520 C 0.87081 0.50517 0.73047 0.0
C521 C 0.86951 0.46815 0.68746 0.0
C522 C 0.86595 0.52573 0.71587 0.0
C523 C 0.85478 0.53142 0.64508 0.0
C524 C 0.86444 0.49011 0.67406 0.0
C525 C 0.84851 0.51588 0.59056 0.0
C526 C 0.86185 0.45291 0.63452 0.0
C527 C 0.88656 0.44257 0.76832 0.0
N528 N 0.85345 0.49593 0.6062 0.0
N529 N 0.88168 0.46251 0.75233 0.0
H530 H 0.5187 0.15118 0.30925 0.0
H531 H 0.41086 0.09285 0.3494 0.0
H532 H 0.51215 0.09277 0.43415 0.0
H533 H 0.42311 0.13876 0.16266 0.0
H534 H 0.44701 0.09477 0.39249 0.0
H535 H 0.48249 0.14922 0.26742 0.0
C536 C 0.50962 0.138 0.32836 0.0
C537 C 0.51845 0.12209 0.37524 0.0
C538 C 0.44179 0.10435 0.34189 0.0
C539 C 0.47707 0.11978 0.32734 0.0
C540 C 0.42117 0.10332 0.31737 0.0
C541 C 0.414 0.11569 0.25235 0.0
C542 C 0.45525 0.11802 0.3018 0.0
C543 C 0.42803 0.1289 0.21284 0.0
C544 C 0.489 0.13684 0.30397 0.0
C545 C 0.50597 0.10533 0.3978 0.0
N546 N 0.44801 0.12981 0.23858 0.0
N547 N 0.48585 0.10464 0.37376 0.0
H548 H 0.13407 0.55534 0.69722 0.0
H549 H 0.11824 0.44084 0.86552 0.0
H550 H 0.09119 0.5401 0.89279 0.0
H551 H 0.16252 0.45835 0.67811 0.0
H552 H 0.10806 0.47696 0.87853 0.0
H553 H 0.14406 0.51942 0.68904 0.0
C554 C 0.12666 0.54442 0.73826 0.0
C555 C 0.1118 0.55076 0.79596 0.0
C556 C 0.12006 0.47284 0.83488 0.0
C557 C 0.12331 0.50951 0.78725 0.0
C558 C 0.12593 0.45227 0.82766 0.0
C559 C 0.14116 0.44657 0.77029 0.0
C560 C 0.1295 0.48769 0.78435 0.0
C561 C 0.1506 0.46199 0.72276 0.0
C562 C 0.13243 0.52388 0.73373 0.0
C563 C 0.10271 0.53588 0.84737 0.0
N564 N 0.14455 0.48181 0.73066 0.0
N565 N 0.10866 0.51589 0.84195 0.0
H566 H 0.57363 0.87886 0.37578 0.0
H567 H 0.47146 0.82865 0.18838 0.0
H568 H 0.57485 0.84067 0.15818 0.0
H569 H 0.47135 0.88452 0.33209 0.0
H570 H 0.50943 0.82897 0.19038 0.0
H571 H 0.53584 0.87666 0.37658 0.0
C572 C 0.56596 0.86985 0.32868 0.0
C573 C 0.57736 0.86003 0.26652 0.0
C574 C 0.50102 0.84116 0.22112 0.0
C575 C 0.53425 0.85749 0.26713 0.0
C576 C 0.47941 0.841 0.22004 0.0
C577 C 0.46826 0.85662 0.25987 0.0
C578 C 0.51145 0.85685 0.26356 0.0
C579 C 0.47932 0.87225 0.30005 0.0
C580 C 0.54442 0.86872 0.32886 0.0
C581 C 0.56662 0.84861 0.20684 0.0
N582 N 0.50031 0.87189 0.30133 0.0
N583 N 0.54562 0.84763 0.20862 0.0
H584 H 0.85556 0.96228 0.70105 0.0
H585 H 0.88518 0.04497 0.35408 0.0
H586 H 0.88612 0.9469 0.47225 0.0
H587 H 0.84869 0.05924 0.56994 0.0
H588 H 0.88713 0.00923 0.39971 0.0
H589 H 0.85476 -0.00169 0.65807 0.0
C590 C 0.86222 0.96648 0.64204 0.0
C591 C 0.87086 0.95151 0.59008 0.0
C592 C 0.87867 0.02018 0.437 0.0
C593 C 0.8699 0.9927 0.5404 0.0
C594 C 0.87752 0.0406 0.41093 0.0
C595 C 0.86672 0.05515 0.45814 0.0
C596 C 0.86902 0.01426 0.51098 0.0
C597 C 0.85714 0.04857 0.53137 0.0
C598 C 0.86168 0.98704 0.61741 0.0
C599 C 0.87923 0.95787 0.51424 0.0
N600 N 0.85855 0.02861 0.55559 0.0
N601 N 0.8785 0.97797 0.49166 0.0
H602 H 0.05129 0.09979 0.36635 0.0
H603 H 0.94624 0.15893 0.47352 0.0
H604 H 0.04719 0.14875 0.5455 0.0
H605 H 0.9489 0.1034 0.32787 0.0
H606 H 0.98372 0.15724 0.49152 0.0
H607 H 0.01414 0.10279 0.34225 0.0
C608 C 0.0426 0.11121 0.40048 0.0
C609 C 0.05235 0.12398 0.4583 0.0
C610 C 0.97608 0.14544 0.45563 0.0
C611 C 0.00986 0.12747 0.43094 0.0
C612 C 0.9547 0.14641 0.44519 0.0
C613 C 0.94442 0.13124 0.39933 0.0
C614 C 0.98726 0.12926 0.41963 0.0
C615 C 0.95617 0.11537 0.36403 0.0
C616 C 0.02139 0.11287 0.3868 0.0
C617 C 0.04031 0.13851 0.50065 0.0
N618 N 0.97698 0.1148 0.37493 0.0
N619 N 0.01966 0.13985 0.48612 0.0
H620 H 0.1012 0.93635 0.32536 0.0
H621 H 0.14008 0.02893 0.60782 0.0
H622 H 0.14519 0.92852 0.52373 0.0
H623 H 0.10486 0.03699 0.3835 0.0
H624 H 0.14054 0.99187 0.58351 0.0
H625 H 0.10101 0.97318 0.35088 0.0
C626 C 0.11087 0.94237 0.37428 0.0
C627 C 0.12322 0.92933 0.42262 0.0
C628 C 0.13273 0.00178 0.53969 0.0
C629 C 0.12301 0.97153 0.45223 0.0
C630 C 0.13238 0.02291 0.55364 0.0
C631 C 0.12242 0.03606 0.49753 0.0
C632 C 0.12296 -0.00621 0.46946 0.0
C633 C 0.11276 0.02744 0.42831 0.0
C634 C 0.11076 0.96343 0.38871 0.0
C635 C 0.13547 0.93803 0.4849 0.0
N636 N 0.11326 0.00683 0.4163 0.0
N637 N 0.13499 0.95864 0.49817 0.0
H638 H 0.04498 0.82675 0.53157 0.0
H639 H 0.93788 0.88662 0.47593 0.0
H640 H 0.03627 0.87947 0.37267 0.0
H641 H 0.9472 0.84021 0.66341 0.0
H642 H 0.97374 0.88279 0.43397 0.0
H643 H 0.00893 0.82995 0.57691 0.0
C644 C 0.0355 0.83894 0.50603 0.0
C645 C 0.04365 0.85287 0.44821 0.0
C646 C 0.96801 0.87345 0.48444 0.0
C647 C 0.00257 0.85659 0.49982 0.0
C648 C 0.94748 0.8756 0.50845 0.0
C649 C 0.93949 0.86368 0.5733 0.0
C650 C 0.98074 0.8592 0.52516 0.0
C651 C 0.95274 0.84973 0.61321 0.0
C652 C 0.01498 0.84079 0.53217 0.0
C653 C 0.0307 0.8684 0.41744 0.0
N654 N 0.97276 0.84781 0.58827 0.0
N655 N 0.01082 0.86981 0.44356 0.0
H656 H 0.37231 0.19082 0.19158 0.0
H657 H 0.31906 0.29931 0.10695 0.0
H658 H 0.30614 0.19771 0.16514 0.0
H659 H 0.38306 0.29143 0.17814 0.0
H660 H 0.31365 0.26232 0.12543 0.0
H661 H 0.37612 0.22793 0.18655 0.0
C662 C 0.35854 0.2002 0.1851 0.0
C663 C 0.33889 0.19122 0.17801 0.0
C664 C 0.32883 0.26876 0.13721 0.0
C665 C 0.34316 0.23382 0.17151 0.0
C666 C 0.33198 0.28982 0.1262 0.0
C667 C 0.35158 0.29846 0.14066 0.0
C668 C 0.34544 0.25631 0.16228 0.0
C669 C 0.3677 0.28547 0.16606 0.0
C670 C 0.36072 0.22142 0.18236 0.0
C671 C 0.32156 0.20409 0.17076 0.0
N672 N 0.36427 0.26506 0.17579 0.0
N673 N 0.32411 0.22484 0.16677 0.0
H674 H 0.28681 0.62794 0.98142 0.0
H675 H 0.18389 0.63212 0.71572 0.0
H676 H 0.28626 0.64746 0.72667 0.0
H677 H 0.1835 0.63749 0.98114 0.0
H678 H 0.22165 0.63508 0.71725 0.0
H679 H 0.24892 0.62871 0.9819 0.0
C680 C 0.27873 0.63245 0.92574 0.0
C681 C 0.28967 0.63758 0.85382 0.0
C682 C 0.21325 0.63576 0.77503 0.0
C683 C 0.24648 0.63831 0.85383 0.0
C684 C 0.19175 0.63399 0.77425 0.0
C685 C 0.18058 0.63451 0.84843 0.0
C686 C 0.22365 0.63771 0.8506 0.0
C687 C 0.19152 0.63706 0.92251 0.0
C688 C 0.25714 0.63297 0.92617 0.0
C689 C 0.27843 0.64342 0.7835 0.0
N690 N 0.2125 0.63837 0.92181 0.0
N691 N 0.25742 0.64343 0.78502 0.0
H692 H 0.63803 0.80736 0.02205 0.0
H693 H 0.68746 0.69535 0.0004 0.0
H694 H 0.6858 0.78622 0.18867 0.0
H695 H 0.62964 0.71302 0.88734 0.0
H696 H 0.69304 0.73121 0.04125 0.0
H697 H 0.64057 0.77527 0.94705 0.0
C698 C 0.64905 0.79594 0.04321 0.0
C699 C 0.66147 0.79935 0.1129 0.0
C700 C 0.67937 0.72726 0.006 0.0
C701 C 0.66448 0.76251 0.02631 0.0
C702 C 0.67628 0.7069 0.98199 0.0
C703 C 0.65791 0.70133 0.94173 0.0
C704 C 0.66404 0.74194 -0.01139 0.0
C705 C 0.64385 0.71674 0.91951 0.0
C706 C 0.65055 0.77765 -0.00016 0.0
C707 C 0.6757 0.78409 0.13612 0.0
N708 N 0.6471 0.73635 0.94412 0.0
N709 N 0.67671 0.76618 0.09319 0.0
H710 H 0.8053 0.3518 0.64575 0.0
H711 H 0.70556 0.3615 0.92266 0.0
H712 H 0.80471 0.33645 0.90516 0.0
H713 H 0.70051 0.34826 0.66261 0.0
H714 H 0.74268 0.35504 0.91513 0.0
H715 H 0.76733 0.35256 0.64732 0.0
C716 C 0.79721 0.34839 0.7027 0.0
C717 C 0.80818 0.34428 0.77565 0.0
C718 C 0.73344 0.3534 0.8598 0.0
C719 C 0.76503 0.34537 0.77785 0.0
C720 C 0.7123 0.35723 0.86391 0.0
C721 C 0.70003 0.35549 0.79304 0.0
C722 C 0.74245 0.34816 0.78398 0.0
C723 C 0.7095 0.34973 0.71864 0.0
C724 C 0.7756 0.34877 0.70343 0.0
C725 C 0.79693 0.33982 0.84757 0.0
N726 N 0.73028 0.34648 0.71574 0.0
N727 N 0.77598 0.34077 0.84708 0.0
H728 H 0.80803 0.69268 0.6182 0.0
H729 H 0.88489 0.78826 0.66279 0.0
H730 H 0.87404 0.68937 0.57669 0.0
H731 H 0.81907 0.79595 0.62647 0.0
H732 H 0.88063 0.75121 0.64797 0.0
H733 H 0.81124 0.73004 0.63659 0.0
C734 C 0.82316 0.69978 0.61289 0.0
C735 C 0.84078 0.68788 0.59563 0.0
C736 C 0.86712 0.761 0.64317 0.0
C737 C 0.84454 0.73037 0.61736 0.0
C738 C 0.86952 0.78217 0.65194 0.0
C739 C 0.85233 0.79526 0.64554 0.0
C740 C 0.84735 0.75277 0.62866 0.0
C741 C 0.83278 0.78643 0.63135 0.0
C742 C 0.82496 0.72106 0.62322 0.0
C743 C 0.86 0.69788 0.58943 0.0
N744 N 0.8308 0.7657 0.62355 0.0
N745 N 0.86136 0.71849 0.60063 0.0
H746 H 0.78478 0.12451 0.52915 0.0
H747 H 0.67821 0.12997 0.28698 0.0
H748 H 0.78014 0.14547 0.27688 0.0
H749 H 0.68137 0.1307 0.55302 0.0
H750 H 0.71581 0.1335 0.28114 0.0
H751 H 0.74699 0.12469 0.53873 0.0
C752 C 0.77582 0.12922 0.47591 0.0
C753 C 0.7856 0.13488 0.40194 0.0
C754 C 0.70825 0.13302 0.34077 0.0
C755 C 0.74248 0.13496 0.41241 0.0
C756 C 0.68682 0.1309 0.34419 0.0
C757 C 0.67668 0.12996 0.42064 0.0
C758 C 0.71966 0.1339 0.41429 0.0
C759 C 0.68858 0.13138 0.4928 0.0
C760 C 0.75428 0.12939 0.48156 0.0
C761 C 0.77324 0.14099 0.33508 0.0
N762 N 0.70951 0.1331 0.48787 0.0
N763 N 0.7523 0.14068 0.34167 0.0
H764 H 0.18418 0.28666 0.6581 0.0
H765 H 0.11141 0.19925 0.48289 0.0
H766 H 0.12488 0.29854 0.54405 0.0
H767 H 0.17645 0.18929 0.5296 0.0
H768 H 0.11665 0.23608 0.50032 0.0
H769 H 0.18223 0.25104 0.60995 0.0
C770 C 0.17078 0.2818 0.62296 0.0
C771 C 0.15455 0.29551 0.60591 0.0
C772 C 0.12986 0.22591 0.50561 0.0
C773 C 0.15233 0.25502 0.55047 0.0
C774 C 0.12686 0.2049 0.4957 0.0
C775 C 0.14349 0.1913 0.50573 0.0
C776 C 0.14954 0.23329 0.52735 0.0
C777 C 0.16324 0.19935 0.52155 0.0
C778 C 0.16977 0.26155 0.59497 0.0
C779 C 0.13768 0.28848 0.5593 0.0
N780 N 0.16568 0.21987 0.53339 0.0
N781 N 0.13694 0.26869 0.53381 0.0
H782 H 0.30924 0.84098 0.43632 0.0
H783 H 0.19963 0.8375 0.21247 0.0
H784 H 0.30254 0.84986 0.17356 0.0
H785 H 0.20729 0.85486 0.4676 0.0
H786 H 0.2373 0.83542 0.19838 0.0
H787 H 0.27167 0.83921 0.44926 0.0
C788 C 0.29989 0.84236 0.38114 0.0
C789 C 0.30904 0.84569 0.30368 0.0
C790 C 0.23068 0.83961 0.25739 0.0
C791 C 0.26605 0.84363 0.31842 0.0
C792 C 0.20922 0.84071 0.26569 0.0
C793 C 0.20035 0.84643 0.34134 0.0
C794 C 0.24328 0.84393 0.32553 0.0
C795 C 0.2135 0.85052 0.40809 0.0
C796 C 0.27845 0.84145 0.38878 0.0
C797 C 0.29611 0.84741 0.23447 0.0
N798 N 0.23435 0.84913 0.39867 0.0
N799 N 0.27521 0.84635 0.24346 0.0
H800 H 0.17193 0.10595 0.80916 0.0
H801 H 0.2915 0.09963 0.90112 0.0
H802 H 0.21776 0.11325 0.6171 0.0
H803 H 0.24827 0.12178 0.08383 0.0
H804 H 0.26421 0.10074 0.79783 0.0
H805 H 0.19928 0.10794 0.91242 0.0
C806 C 0.1878 0.10782 0.78866 0.0
C807 C 0.1927 0.10917 0.70436 0.0
C808 C 0.26069 0.1054 0.86041 0.0
C809 C 0.2239 0.11151 0.82232 0.0
C810 C 0.27616 0.10458 0.91965 0.0
C811 C 0.27197 0.11036 0.00139 0.0
C812 C 0.24078 0.11168 0.88323 0.0
C813 C 0.25201 0.1171 0.02155 0.0
C814 C 0.20332 0.10916 0.84773 0.0
C815 C 0.2134 0.11202 0.68141 0.0
N816 N 0.23699 0.11734 0.9628 0.0
N817 N 0.22835 0.11287 0.74026 0.0
H818 H 0.09908 0.67825 0.11948 0.0
H819 H 0.11351 0.79842 0.10831 0.0
H820 H 0.08865 0.71411 0.89893 0.0
H821 H 0.10073 0.76549 0.33437 0.0
H822 H 0.10505 0.76755 0.03022 0.0
H823 H 0.0998 0.70989 0.19997 0.0
C824 C 0.09677 0.69282 0.08817 0.0
C825 C 0.0941 0.69369 0.00241 0.0
C826 C 0.10393 0.76714 0.09685 0.0
C827 C 0.09508 0.7298 0.09377 0.0
C828 C 0.10895 0.78466 0.14152 0.0
C829 C 0.10807 0.78437 0.22796 0.0
C830 C 0.09831 0.74913 0.139 0.0
C831 C 0.10172 0.76628 0.26778 0.0
C832 C 0.09708 0.71082 0.13416 0.0
C833 C 0.09086 0.71285 0.96493 0.0
N834 N 0.0973 0.74925 0.22289 0.0
N835 N 0.09177 0.73026 0.01082 0.0
H836 H 0.73585 0.91028 0.17572 0.0
H837 H 0.78768 0.85163 0.79984 0.0
H838 H 0.7348 0.84418 0.14863 0.0
H839 H 0.80554 0.91323 0.86929 0.0
H840 H 0.76578 0.84972 0.92254 0.0
H841 H 0.76125 0.91231 0.06435 0.0
C842 C 0.74135 0.89616 0.14794 0.0
C843 C 0.73287 0.87707 0.17054 0.0
C844 C 0.77445 0.86368 0.91065 0.0
C845 C 0.76136 0.87938 0.0417 0.0
C846 C 0.78666 0.86491 0.83989 0.0
C847 C 0.79842 0.88262 0.82435 0.0
C848 C 0.77387 0.88034 0.96561 0.0
C849 C 0.79673 0.89926 0.87906 0.0
C850 C 0.7557 0.89735 0.08384 0.0
C851 C 0.7407 0.85927 0.13273 0.0
N852 N 0.78471 0.89771 0.94742 0.0
N853 N 0.75418 0.86089 0.0689 0.0
H854 H 0.88949 0.30131 0.06953 0.0
H855 H 0.86127 0.18347 0.10296 0.0
H856 H 0.89131 0.26142 0.85735 0.0
H857 H 0.88573 0.2177 0.30907 0.0
H858 H 0.86957 0.21237 0.01201 0.0
H859 H 0.88622 0.27125 0.15888 0.0
C860 C 0.88941 0.28613 0.04193 0.0
C861 C 0.89056 0.28373 0.95612 0.0
C862 C 0.87318 0.21349 0.07709 0.0
C863 C 0.88643 0.24938 0.05772 0.0
C864 C 0.86824 0.19713 0.12921 0.0
C865 C 0.87264 0.1983 0.2139 0.0
C866 C 0.88225 0.23125 0.11012 0.0
C867 C 0.882 0.21621 0.24427 0.0
C868 C 0.88758 0.26902 0.09291 0.0
C869 C 0.89052 0.26382 0.92333 0.0
N870 N 0.88633 0.23207 0.19247 0.0
N871 N 0.88813 0.24732 0.97427 0.0
H872 H 0.30473 0.41807 0.31604 0.0
H873 H 0.23278 0.34561 0.58937 0.0
H874 H 0.28727 0.3563 0.2473 0.0
H875 H 0.23114 0.41187 0.60919 0.0
H876 H 0.25857 0.34874 0.4803 0.0
H877 H 0.28143 0.41586 0.43467 0.0
C878 C 0.29569 0.4042 0.32501 0.0
C879 C 0.29792 0.38733 0.27178 0.0
C880 C 0.2527 0.36257 0.50924 0.0
C881 C 0.27188 0.38452 0.40832 0.0
C882 C 0.2382 0.36081 0.57235 0.0
C883 C 0.2295 0.37854 0.60742 0.0
C884 C 0.25867 0.38216 0.48175 0.0
C885 C 0.23722 0.39781 0.58297 0.0
C886 C 0.28257 0.40291 0.39301 0.0
C887 C 0.28593 0.36972 0.2864 0.0
N888 N 0.25123 0.39913 0.5208 0.0
N889 N 0.27359 0.36868 0.354 0.0
H890 H 0.39171 0.71912 0.78897 0.0
H891 H 0.394 0.76568 0.3325 0.0
H892 H 0.36676 0.68737 0.5773 0.0
H893 H 0.39669 0.80262 0.55312 0.0
H894 H 0.39161 0.73467 0.41909 0.0
H895 H 0.40055 0.74819 0.69986 0.0
C896 C 0.38805 0.7183 0.72387 0.0
C897 C 0.37826 0.70096 0.69062 0.0
C898 C 0.39295 0.74959 0.44819 0.0
C899 C 0.38863 0.73387 0.58855 0.0
C900 C 0.39447 0.76718 0.399 0.0
C901 C 0.39527 0.78659 0.43612 0.0
C902 C 0.39256 0.75163 0.53446 0.0
C903 C 0.39579 0.78786 0.52238 0.0
C904 C 0.39315 0.73483 0.67312 0.0
C905 C 0.37401 0.7006 0.6057 0.0
N906 N 0.39433 0.7706 0.56874 0.0
N907 N 0.37925 0.71684 0.55743 0.0
H908 H 0.72241 0.6099 0.03625 0.0
H909 H 0.75351 0.6185 0.5075 0.0
H910 H 0.67657 0.6092 0.23037 0.0
H911 H 0.79209 0.5867 0.33131 0.0
H912 H 0.72589 0.62015 0.4035 0.0
H913 H 0.74964 0.60642 0.1414 0.0
C914 C 0.71811 0.60894 0.10073 0.0
C915 C 0.69727 0.60962 0.12468 0.0
C916 C 0.74039 0.61268 0.38824 0.0
C917 C 0.72806 0.60611 0.24427 0.0
C918 C 0.75607 0.61173 0.44736 0.0
C919 C 0.77496 0.60227 0.42819 0.0
C920 C 0.74393 0.6046 0.30916 0.0
C921 C 0.77762 0.59386 0.34907 0.0
C922 C 0.73357 0.60691 0.16044 0.0
C923 C 0.69246 0.60843 0.20912 0.0
N924 N 0.76234 0.59542 0.29209 0.0
N925 N 0.70776 0.60691 0.26597 0.0
H926 H 0.60712 0.18178 0.68037 0.0
H927 H 0.61244 0.30166 0.6049 0.0
H928 H 0.58488 0.21082 0.45751 0.0
H929 H 0.61219 0.27565 0.85037 0.0
H930 H 0.60442 0.26796 0.54888 0.0
H931 H 0.61053 0.21563 0.7439 0.0
C932 C 0.60282 0.19528 0.64502 0.0
C933 C 0.59592 0.19357 0.56325 0.0
C934 C 0.60601 0.26963 0.61503 0.0
C935 C 0.59993 0.23215 0.63525 0.0
C936 C 0.61078 0.28882 0.64709 0.0
C937 C 0.61313 0.2914 0.73245 0.0
C938 C 0.60384 0.25282 0.6685 0.0
C939 C 0.61055 0.27428 0.78416 0.0
C940 C 0.6047 0.21454 0.68145 0.0
C941 C 0.59033 0.21148 0.52057 0.0
N942 N 0.60619 0.25558 0.75122 0.0
N943 N 0.59271 0.2301 0.55682 0.0
H944 H 0.31386 0.1502 0.47158 0.0
H945 H 0.34137 0.07921 0.85503 0.0
H946 H 0.3062 0.08441 0.47716 0.0
H947 H 0.34664 0.14547 0.86011 0.0
H948 H 0.32508 0.08153 0.7206 0.0
H949 H 0.31999 0.14986 0.62078 0.0
C950 C 0.31241 0.13584 0.50517 0.0
C951 C 0.30957 0.11729 0.46298 0.0
C952 C 0.32981 0.0956 0.75086 0.0
C953 C 0.31748 0.11659 0.63128 0.0
C954 C 0.33941 0.09427 0.82733 0.0
C955 C 0.34554 0.11217 0.86888 0.0
C956 C 0.32645 0.11496 0.71484 0.0
C957 C 0.34236 0.13124 0.83 0.0
C958 C 0.31631 0.13557 0.58987 0.0
C959 C 0.30831 0.099 0.50819 0.0
N960 N 0.33304 0.13214 0.75497 0.0
N961 N 0.31268 0.09904 0.58984 0.0
H962 H 0.13495 0.64694 0.5302 0.0
H963 H 0.06323 0.62449 0.14149 0.0
H964 H 0.06844 0.65127 0.54518 0.0
H965 H 0.12647 0.60417 0.17165 0.0
H966 H 0.06432 0.63914 0.28079 0.0
H967 H 0.13214 0.63958 0.38342 0.0
C968 C 0.1198 0.64708 0.50145 0.0
C969 C 0.1019 0.64951 0.54884 0.0
C970 C 0.07783 0.63129 0.25682 0.0
C971 C 0.09843 0.64004 0.38325 0.0
C972 C 0.07712 0.62262 0.1782 0.0
C973 C 0.09485 0.61321 0.14524 0.0
C974 C 0.0964 0.63054 0.30156 0.0
C975 C 0.11252 0.61144 0.19466 0.0
C976 C 0.11814 0.64253 0.41829 0.0
C977 C 0.08256 0.64949 0.50977 0.0
N978 N 0.11292 0.62023 0.27003 0.0
N979 N 0.08124 0.64428 0.42888 0.0
H980 H 0.70087 0.86748 0.53601 0.0
H981 H 0.62602 0.8855 0.9131 0.0
H982 H 0.64124 0.83867 0.5658 0.0
H983 H 0.69211 0.89097 0.94702 0.0
H984 H 0.63192 0.87397 0.77247 0.0
H985 H 0.6997 0.8782 0.68134 0.0
C986 C 0.68807 0.86253 0.57446 0.0
C987 C 0.67109 0.85226 0.53997 0.0
C988 C 0.64515 0.87787 0.81042 0.0
C989 C 0.66915 0.86524 0.70225 0.0
C990 C 0.64176 0.88481 0.88999 0.0
C991 C 0.6586 0.88888 0.94168 0.0
C992 C 0.66551 0.87502 0.78245 0.0
C993 C 0.67871 0.88792 0.90879 0.0
C994 C 0.68721 0.86898 0.65649 0.0
C995 C 0.65459 0.84657 0.59087 0.0
N996 N 0.68168 0.88075 0.83103 0.0
N997 N 0.65381 0.85353 0.66926 0.0
H998 H 0.85627 0.36546 0.11529 0.0
H999 H 0.92576 0.3316 0.49345 0.0
H1000 H 0.92282 0.3609 0.09466 0.0
H1001 H 0.85973 0.32284 0.47927 0.0
H1002 H 0.92631 0.33986 0.3457 0.0
H1003 H 0.8582 0.35035 0.25193 0.0
C1004 C 0.87135 0.36161 0.14018 0.0
C1005 C 0.88939 0.36435 0.09338 0.0
C1006 C 0.91181 0.33548 0.3744 0.0
C1007 C 0.89169 0.34655 0.24939 0.0
C1008 C 0.91157 0.33041 0.45811 0.0
C1009 C 0.89265 0.32665 0.49758 0.0
C1010 C 0.89296 0.3369 0.33154 0.0
C1011 C 0.87459 0.32571 0.45036 0.0
C1012 C 0.87242 0.35267 0.21776 0.0
C1013 C 0.90853 0.35912 0.12888 0.0
N1014 N 0.87511 0.33122 0.36993 0.0
N1015 N 0.90919 0.35034 0.20496 0.0
H1016 H 0.37254 0.41112 0.43283 0.0
H1017 H 0.34306 0.33896 0.81126 0.0
H1018 H 0.37788 0.34487 0.42608 0.0
H1019 H 0.33416 0.4046 0.8074 0.0
H1020 H 0.35118 0.3399 0.66381 0.0
H1021 H 0.35692 0.40857 0.56876 0.0
C1022 C 0.37082 0.39604 0.46058 0.0
C1023 C 0.37644 0.37817 0.41763 0.0
C1024 C 0.34681 0.35402 0.69455 0.0
C1025 C 0.35804 0.37512 0.57269 0.0
C1026 C 0.34172 0.35339 0.77809 0.0
C1027 C 0.33791 0.37173 0.82044 0.0
C1028 C 0.34825 0.37317 0.65454 0.0
C1029 C 0.33691 0.39015 0.77603 0.0
C1030 C 0.36158 0.39457 0.53775 0.0
C1031 C 0.37381 0.35906 0.45686 0.0
N1032 N 0.3425 0.39049 0.69556 0.0
N1033 N 0.36465 0.35803 0.53211 0.0
H1034 H 0.40136 0.65861 0.14885 0.0
H1035 H 0.33726 0.61297 0.5252 0.0
H1036 H 0.33482 0.65357 0.15608 0.0
H1037 H 0.40289 0.62522 0.53955 0.0
H1038 H 0.33681 0.62735 0.38685 0.0
H1039 H 0.40268 0.64941 0.29531 0.0
C1040 C 0.387 0.65652 0.18246 0.0
C1041 C 0.36797 0.65654 0.14122 0.0
C1042 C 0.35137 0.62679 0.41987 0.0
C1043 C 0.36934 0.64524 0.30566 0.0
C1044 C 0.35168 0.61822 0.4982 0.0
C1045 C 0.37009 0.61806 0.54375 0.0
C1046 C 0.36961 0.63518 0.38688 0.0
C1047 C 0.38838 0.62502 0.50615 0.0
C1048 C 0.38776 0.65087 0.26536 0.0
C1049 C 0.34978 0.65348 0.18634 0.0
N1050 N 0.38764 0.63356 0.42982 0.0
N1051 N 0.35093 0.64753 0.26607 0.0
H1052 H 0.6595 0.5949 0.63357 0.0
H1053 H 0.63398 0.66665 0.24689 0.0
H1054 H 0.65988 0.66101 0.64917 0.0
H1055 H 0.61887 0.60208 0.26749 0.0
H1056 H 0.64952 0.66518 0.38471 0.0
H1057 H 0.65353 0.59744 0.48524 0.0
C1058 C 0.65924 0.60995 0.60472 0.0
C1059 C 0.66033 0.62777 0.65257 0.0
C1060 C 0.64274 0.65141 0.35877 0.0
C1061 C 0.65226 0.63088 0.48484 0.0
C1062 C 0.63364 0.65227 0.2807 0.0
C1063 C 0.62502 0.63448 0.24559 0.0
C1064 C 0.64336 0.6326 0.40133 0.0
C1065 C 0.62523 0.61622 0.2919 0.0
C1066 C 0.65544 0.61143 0.52055 0.0
C1067 C 0.65938 0.64697 0.61341 0.0
N1068 N 0.63436 0.61575 0.36703 0.0
N1069 N 0.65498 0.64807 0.53156 0.0
H1070 H 0.58052 0.37923 0.5244 0.0
H1071 H 0.65687 0.38195 0.13992 0.0
H1072 H 0.64292 0.40264 0.53337 0.0
H1073 H 0.59977 0.34737 0.14813 0.0
H1074 H 0.64947 0.39529 0.27691 0.0
H1075 H 0.58359 0.37587 0.37453 0.0
C1076 C 0.59448 0.38458 0.494 0.0
C1077 C 0.61164 0.39091 0.53985 0.0
C1078 C 0.63862 0.38469 0.24895 0.0
C1079 C 0.61556 0.38643 0.37159 0.0
C1080 C 0.64299 0.37684 0.17149 0.0
C1081 C 0.62894 0.36349 0.13327 0.0
C1082 C 0.62011 0.37911 0.28821 0.0
C1083 C 0.61112 0.35742 0.17616 0.0
C1084 C 0.59639 0.38231 0.40908 0.0
C1085 C 0.6295 0.39749 0.49904 0.0
N1086 N 0.60712 0.36541 0.25157 0.0
N1087 N 0.6312 0.39468 0.41683 0.0
H1088 H 0.8171 0.64584 0.88858 0.0
H1089 H 0.84373 0.57433 0.27173 0.0
H1090 H 0.81155 0.57983 0.88908 0.0
H1091 H 0.8509 0.64044 0.2731 0.0
H1092 H 0.82754 0.57665 0.13703 0.0
H1093 H 0.82247 0.64506 0.03811 0.0
C1094 C 0.81595 0.63131 0.9211 0.0
C1095 C 0.81395 0.61286 0.87758 0.0
C1096 C 0.83268 0.59067 0.1666 0.0
C1097 C 0.82103 0.61167 0.0461 0.0
C1098 C 0.84223 0.58933 0.24315 0.0
C1099 C 0.84883 0.60721 0.28371 0.0
C1100 C 0.82984 0.61 0.12971 0.0
C1101 C 0.84623 0.62622 0.24381 0.0
C1102 C 0.81942 0.63079 0.00596 0.0
C1103 C 0.81303 0.59434 0.92131 0.0
N1104 N 0.83692 0.62712 0.16886 0.0
N1105 N 0.817 0.59415 0.00325 0.0
H1106 H 0.55676 0.11569 0.71987 0.0
H1107 H 0.62712 0.14398 0.10336 0.0
H1108 H 0.62006 0.09624 0.75485 0.0
H1109 H 0.56067 0.14231 0.12782 0.0
H1110 H 0.6238 0.13376 0.95961 0.0
H1111 H 0.55634 0.12874 0.86184 0.0
C1112 C 0.57027 0.11344 0.75849 0.0
C1113 C 0.58859 0.10516 0.72595 0.0
C1114 C 0.60989 0.13597 -0.00412 0.0
C1115 C 0.58846 0.12073 0.88484 0.0
C1116 C 0.61179 0.14223 0.07707 0.0
C1117 C 0.59414 0.14385 0.12647 0.0
C1118 C 0.59023 0.1311 0.96475 0.0
C1119 C 0.57457 0.14129 0.09067 0.0
C1120 C 0.57012 0.12123 0.83862 0.0
C1121 C 0.60574 0.10277 0.77772 0.0
N1122 N 0.57308 0.13457 0.01163 0.0
N1123 N 0.60539 0.1109 0.85428 0.0
H1124 H 0.12358 0.36902 0.36948 0.0
H1125 H 0.19883 0.37816 -0.00931 0.0
H1126 H 0.18394 0.39694 0.39678 0.0
H1127 H 0.15094 0.33236 0.01271 0.0
H1128 H 0.19547 0.3855 0.13835 0.0
H1129 H 0.13294 0.35853 0.23078 0.0
C1130 C 0.13866 0.37331 0.34563 0.0
C1131 C 0.15312 0.38358 0.39496 0.0
C1132 C 0.18624 0.37334 0.11141 0.0
C1133 C 0.16412 0.37114 0.23751 0.0
C1134 C 0.18843 0.36891 0.02788 0.0
C1135 C 0.17513 0.35467 -0.00906 0.0
C1136 C 0.1704 0.36363 0.15616 0.0
C1137 C 0.16148 0.34337 0.04003 0.0
C1138 C 0.14413 0.36699 0.26708 0.0
C1139 C 0.17236 0.38896 0.36071 0.0
N1140 N 0.15911 0.34843 0.12026 0.0
N1141 N 0.17743 0.38248 0.28385 0.0
H1142 H 0.35679 0.83601 0.96521 0.0
H1143 H 0.42776 0.86262 0.57974 0.0
H1144 H 0.42337 0.83522 -0.01433 0.0
H1145 H 0.36449 0.88244 0.61229 0.0
H1146 H 0.4277 0.8494 0.72158 0.0
H1147 H 0.36 0.8461 0.82112 0.0
C1148 C 0.3721 0.83728 0.93813 0.0
C1149 C 0.38984 0.83501 -0.0134 0.0
C1150 C 0.41402 0.85701 0.69786 0.0
C1151 C 0.39367 0.8475 0.82413 0.0
C1152 C 0.41415 0.86489 0.61777 0.0
C1153 C 0.396 0.87341 0.5846 0.0
C1154 C 0.39559 0.85766 0.74358 0.0
C1155 C 0.3787 0.87577 0.63565 0.0
C1156 C 0.37395 0.84342 0.85663 0.0
C1157 C 0.40936 0.83682 0.94949 0.0
N1158 N 0.3788 0.86759 0.71229 0.0
N1159 N 0.41082 0.84342 0.87016 0.0
H1160 H 0.83171 0.90287 0.34715 0.0
H1161 H 0.87421 0.83968 0.96236 0.0
H1162 H 0.84157 0.83738 0.35175 0.0
H1163 H 0.86878 0.90591 0.97098 0.0
H1164 H 0.85838 0.83768 0.09886 0.0
H1165 H 0.83832 0.90304 0.19889 0.0
C1166 C 0.83427 0.88838 0.31578 0.0
C1167 C 0.83597 0.87007 0.36063 0.0
C1168 C 0.86072 0.85264 0.07084 0.0
C1169 C 0.84487 0.87023 0.19319 0.0
C1170 C 0.87004 0.85383 -0.00658 0.0
C1171 C 0.8729 0.87301 0.95505 0.0
C1172 C 0.85422 0.87074 0.1101 0.0
C1173 C 0.86698 0.89079 -0.00192 0.0
C1174 C 0.83849 0.88851 0.23164 0.0
C1175 C 0.83989 0.85174 0.31838 0.0
N1176 N 0.85785 0.8892 0.0731 0.0
N1177 N 0.84468 0.85232 0.2369 0.0
H1178 H 0.83068 0.11911 0.06004 0.0
H1179 H 0.89832 0.15727 0.68047 0.0
H1180 H 0.89738 0.12399 0.06922 0.0
H1181 H 0.83162 0.1556 0.68407 0.0
H1182 H 0.89862 0.15027 0.82904 0.0
H1183 H 0.83105 0.13477 0.92413 0.0
C1184 C 0.84546 0.12314 0.03273 0.0
C1185 C 0.86402 0.12024 0.07597 0.0
C1186 C 0.88391 0.15204 0.79778 0.0
C1187 C 0.86455 0.13864 0.92091 0.0
C1188 C 0.88376 0.15642 0.71355 0.0
C1189 C 0.86491 0.15679 0.67101 0.0
C1190 C 0.86508 0.14799 0.83816 0.0
C1191 C 0.84643 0.15527 0.71544 0.0
C1192 C 0.84565 0.13237 0.95557 0.0
C1193 C 0.88271 0.1258 0.0377 0.0
N1194 N 0.84696 0.15053 0.7966 0.0
N1195 N 0.8825 0.13484 0.96219 0.0
H1196 H 0.12713 0.15039 0.82768 0.0
H1197 H 0.15072 0.07913 0.21655 0.0
H1198 H 0.11403 0.08531 0.84313 0.0
H1199 H 0.15703 0.14507 0.2221 0.0
H1200 H 0.14512 0.08073 0.068 0.0
H1201 H 0.14313 0.14868 0.96422 0.0
C1202 C 0.12731 0.13582 0.8602 0.0
C1203 C 0.11909 0.11797 0.82406 0.0
C1204 C 0.14822 0.09486 0.10107 0.0
C1205 C 0.13789 0.11585 0.97877 0.0
C1206 C 0.15177 0.09387 0.18546 0.0
C1207 C 0.15434 0.11199 0.23062 0.0
C1208 C 0.14672 0.11415 0.06245 0.0
C1209 C 0.15526 0.13079 0.18856 0.0
C1210 C 0.13671 0.13482 0.93756 0.0
C1211 C 0.12004 0.09948 0.86858 0.0
N1212 N 0.15095 0.13147 0.10658 0.0
N1213 N 0.12932 0.09891 0.94341 0.0
H1214 H 0.16012 0.8452 0.68586 0.0
H1215 H 0.08402 0.85139 0.07127 0.0
H1216 H 0.09726 0.82282 0.67577 0.0
H1217 H 0.14216 0.88367 0.0498 0.0
H1218 H 0.08819 0.83904 0.92959 0.0
H1219 H 0.15501 0.85428 0.8299 0.0
C1220 C 0.14545 0.8416 0.7151 0.0
C1221 C 0.12898 0.83358 0.66938 0.0
C1222 C 0.09981 0.84915 0.95553 0.0
C1223 C 0.12268 0.84473 0.83193 0.0
C1224 C 0.09722 0.85654 0.03546 0.0
C1225 C 0.11287 0.86844 0.07153 0.0
C1226 C 0.11813 0.85377 0.91274 0.0
C1227 C 0.12985 0.87442 0.02371 0.0
C1228 C 0.14239 0.84711 0.79666 0.0
C1229 C 0.1103 0.82906 0.70947 0.0
N1230 N 0.1322 0.86676 0.94694 0.0
N1231 N 0.10745 0.83513 0.78862 0.0
loop_
_geom_bond_atom_site_label_1
_geom_bond_atom_site_label_2
_geom_bond_distance
_geom_bond_site_symmetry_2
_ccdc_geom_bond_type
O0 Zn1 1.953 1_556 S
O0 C16 1.225 . S
Zn1 O0 1.953 1_554 S
Zn1 O2 1.949 . S
Zn1 O8 1.919 . S
Zn1 O13 1.924 . S
O2 Zn1 1.949 . S
O2 Zn3 1.923 . S
O2 Zn4 1.950 . S
O2 Zn5 1.945 . S
Zn3 O2 1.923 . S
Zn3 O6 1.933 . S
Zn3 O9 1.941 . S
Zn3 O10 1.965 . S
Zn4 O2 1.950 . S
Zn4 O11 1.938 . S
Zn4 O12 1.906 . S
Zn4 O22 1.953 1_554 S
Zn5 O2 1.945 . S
Zn5 O7 1.932 . S
Zn5 O14 1.977 . S
Zn5 O15 1.910 . S
O6 Zn3 1.933 . S
O6 C17 1.226 . S
O7 Zn5 1.932 . S
O7 C17 1.307 . S
O8 Zn1 1.919 . S
O8 C19 1.253 . S
O9 Zn3 1.941 . S
O9 C19 1.283 . S
O10 Zn3 1.965 . S
O10 C18 1.303 . S
O11 Zn4 1.938 . S
O11 C18 1.247 . S
O12 Zn4 1.906 . S
O12 C20 1.304 . S
O13 Zn1 1.924 . S
O13 C21 1.311 . S
O14 Zn5 1.977 . S
O14 C20 1.272 . S
O15 Zn5 1.910 . S
O15 C21 1.231 . S
C16 O0 1.225 . S
C16 O22 1.298 . S
C17 O6 1.226 . S
C17 O7 1.307 . S
C18 O10 1.303 . S
C18 O11 1.247 . S
C19 O8 1.253 . S
C19 O9 1.283 . S
C20 O12 1.304 . S
C20 O14 1.272 . S
C21 O13 1.311 . S
C21 O15 1.231 . S
O22 Zn4 1.953 1_556 S
O22 C16 1.298 . S
O23 Zn24 1.953 1_554 S
O23 C39 1.225 . S
Zn24 O23 1.953 1_556 S
Zn24 O25 1.949 . S
Zn24 O31 1.919 . S
Zn24 O36 1.924 . S
O25 Zn24 1.949 . S
O25 Zn26 1.923 . S
O25 Zn27 1.950 . S
O25 Zn28 1.945 . S
Zn26 O25 1.923 . S
Zn26 O29 1.933 . S
Zn26 O32 1.941 . S
Zn26 O33 1.965 . S
Zn27 O25 1.950 . S
Zn27 O34 1.938 . S
Zn27 O35 1.906 . S
Zn27 O45 1.953 1_556 S
Zn28 O25 1.945 . S
Zn28 O30 1.932 . S
Zn28 O37 1.977 . S
Zn28 O38 1.910 . S
O29 Zn26 1.933 . S
O29 C40 1.226 . S
O30 Zn28 1.932 . S
O30 C40 1.307 . S
O31 Zn24 1.919 . S
O31 C42 1.253 . S
O32 Zn26 1.941 . S
O32 C42 1.283 . S
O33 Zn26 1.965 . S
O33 C41 1.303 . S
O34 Zn27 1.938 . S
O34 C41 1.247 . S
O35 Zn27 1.906 . S
O35 C43 1.304 . S
O36 Zn24 1.924 . S
O36 C44 1.311 . S
O37 Zn28 1.977 . S
O37 C43 1.272 . S
O38 Zn28 1.910 . S
O38 C44 1.231 . S
C39 O23 1.225 . S
C39 O45 1.298 . S
C40 O29 1.226 . S
C40 O30 1.307 . S
C41 O33 1.303 . S
C41 O34 1.247 . S
C42 O31 1.253 . S
C42 O32 1.283 . S
C43 O35 1.304 . S
C43 O37 1.272 . S
C44 O36 1.311 . S
C44 O38 1.231 . S
O45 Zn27 1.953 1_554 S
O45 C39 1.298 . S
O46 Zn47 1.953 1_556 S
O46 C62 1.225 . S
Zn47 O46 1.953 1_554 S
Zn47 O48 1.949 . S
Zn47 O54 1.919 . S
Zn47 O59 1.924 . S
O48 Zn47 1.949 . S
O48 Zn49 1.923 . S
O48 Zn50 1.950 . S
O48 Zn51 1.945 . S
Zn49 O48 1.923 . S
Zn49 O52 1.933 . S
Zn49 O55 1.941 . S
Zn49 O56 1.965 . S
Zn50 O48 1.950 . S
Zn50 O57 1.938 . S
Zn50 O58 1.906 . S
Zn50 O68 1.953 1_554 S
Zn51 O48 1.945 . S
Zn51 O53 1.932 . S
Zn51 O60 1.977 . S
Zn51 O61 1.910 . S
O52 Zn49 1.933 . S
O52 C63 1.226 . S
O53 Zn51 1.932 . S
O53 C63 1.307 . S
O54 Zn47 1.919 . S
O54 C65 1.253 . S
O55 Zn49 1.941 . S
O55 C65 1.283 . S
O56 Zn49 1.965 . S
O56 C64 1.303 . S
O57 Zn50 1.938 . S
O57 C64 1.247 . S
O58 Zn50 1.906 . S
O58 C66 1.304 . S
O59 Zn47 1.924 . S
O59 C67 1.311 . S
O60 Zn51 1.977 . S
O60 C66 1.272 . S
O61 Zn51 1.910 . S
O61 C67 1.231 . S
C62 O46 1.225 . S
C62 O68 1.298 . S
C63 O52 1.226 . S
C63 O53 1.307 . S
C64 O56 1.303 . S
C64 O57 1.247 . S
C65 O54 1.253 . S
C65 O55 1.283 . S
C66 O58 1.304 . S
C66 O60 1.272 . S
C67 O59 1.311 . S
C67 O61 1.231 . S
O68 Zn50 1.953 1_556 S
O68 C62 1.298 . S
O69 Zn70 1.953 1_554 S
O69 C85 1.225 . S
Zn70 O69 1.953 1_556 S
Zn70 O71 1.949 . S
Zn70 O77 1.919 . S
Zn70 O82 1.924 . S
O71 Zn70 1.949 . S
O71 Zn72 1.923 . S
O71 Zn73 1.950 . S
O71 Zn74 1.945 . S
Zn72 O71 1.923 . S
Zn72 O75 1.933 . S
Zn72 O78 1.941 . S
Zn72 O79 1.965 . S
Zn73 O71 1.950 . S
Zn73 O80 1.938 . S
Zn73 O81 1.906 . S
Zn73 O91 1.953 1_556 S
Zn74 O71 1.945 . S
Zn74 O76 1.932 . S
Zn74 O83 1.977 . S
Zn74 O84 1.910 . S
O75 Zn72 1.933 . S
O75 C86 1.226 . S
O76 Zn74 1.932 . S
O76 C86 1.307 . S
O77 Zn70 1.919 . S
O77 C88 1.253 . S
O78 Zn72 1.941 . S
O78 C88 1.283 . S
O79 Zn72 1.965 . S
O79 C87 1.303 . S
O80 Zn73 1.938 . S
O80 C87 1.247 . S
O81 Zn73 1.906 . S
O81 C89 1.304 . S
O82 Zn70 1.924 . S
O82 C90 1.311 . S
O83 Zn74 1.977 . S
O83 C89 1.272 . S
O84 Zn74 1.910 . S
O84 C90 1.231 . S
C85 O69 1.225 . S
C85 O91 1.298 . S
C86 O75 1.226 . S
C86 O76 1.307 . S
C87 O79 1.303 . S
C87 O80 1.247 . S
C88 O77 1.253 . S
C88 O78 1.283 . S
C89 O81 1.304 . S
C89 O83 1.272 . S
C90 O82 1.311 . S
C90 O84 1.231 . S
O91 Zn73 1.953 1_554 S
O91 C85 1.298 . S
O92 Zn93 1.953 . S
O92 C108 1.225 . S
Zn93 O92 1.953 . S
Zn93 O94 1.949 . S
Zn93 O100 1.919 . S
Zn93 O105 1.924 . S
O94 Zn93 1.949 . S
O94 Zn95 1.923 . S
O94 Zn96 1.950 . S
O94 Zn97 1.945 . S
Zn95 O94 1.923 . S
Zn95 O98 1.933 1_554 S
Zn95 O101 1.941 . S
Zn95 O102 1.965 . S
Zn96 O94 1.950 . S
Zn96 O103 1.938 . S
Zn96 O104 1.906 . S
Zn96 O114 1.953 . S
Zn97 O94 1.945 . S
Zn97 O99 1.932 1_554 S
Zn97 O106 1.977 . S
Zn97 O107 1.910 . S
O98 Zn95 1.933 1_556 S
O98 C109 1.226 . S
O99 Zn97 1.932 1_556 S
O99 C109 1.307 . S
O100 Zn93 1.919 . S
O100 C111 1.253 . S
O101 Zn95 1.941 . S
O101 C111 1.283 . S
O102 Zn95 1.965 . S
O102 C110 1.303 . S
O103 Zn96 1.938 . S
O103 C110 1.247 . S
O104 Zn96 1.906 . S
O104 C112 1.304 . S
O105 Zn93 1.924 . S
O105 C113 1.311 . S
O106 Zn97 1.977 . S
O106 C112 1.272 . S
O107 Zn97 1.910 . S
O107 C113 1.231 . S
C108 O92 1.225 . S
C108 O114 1.298 . S
C109 O98 1.226 . S
C109 O99 1.307 . S
C110 O102 1.303 . S
C110 O103 1.247 . S
C111 O100 1.253 . S
C111 O101 1.283 . S
C112 O104 1.304 . S
C112 O106 1.272 . S
C113 O105 1.311 . S
C113 O107 1.231 . S
O114 Zn96 1.953 . S
O114 C108 1.298 . S
O115 Zn116 1.953 . S
O115 C131 1.225 . S
Zn116 O115 1.953 . S
Zn116 O117 1.949 . S
Zn116 O123 1.919 . S
Zn116 O128 1.924 . S
O117 Zn116 1.949 . S
O117 Zn118 1.923 . S
O117 Zn119 1.950 . S
O117 Zn120 1.945 . S
Zn118 O117 1.923 . S
Zn118 O121 1.933 1_556 S
Zn118 O124 1.941 . S
Zn118 O125 1.965 . S
Zn119 O117 1.950 . S
Zn119 O126 1.938 . S
Zn119 O127 1.906 . S
Zn119 O137 1.953 . S
Zn120 O117 1.945 . S
Zn120 O122 1.932 1_556 S
Zn120 O129 1.977 . S
Zn120 O130 1.910 . S
O121 Zn118 1.933 1_554 S
O121 C132 1.226 . S
O122 Zn120 1.932 1_554 S
O122 C132 1.307 . S
O123 Zn116 1.919 . S
O123 C134 1.253 . S
O124 Zn118 1.941 . S
O124 C134 1.283 . S
O125 Zn118 1.965 . S
O125 C133 1.303 . S
O126 Zn119 1.938 . S
O126 C133 1.247 . S
O127 Zn119 1.906 . S
O127 C135 1.304 . S
O128 Zn116 1.924 . S
O128 C136 1.311 . S
O129 Zn120 1.977 . S
O129 C135 1.272 . S
O130 Zn120 1.910 . S
O130 C136 1.231 . S
C131 O115 1.225 . S
C131 O137 1.298 . S
C132 O121 1.226 . S
C132 O122 1.307 . S
C133 O125 1.303 . S
C133 O126 1.247 . S
C134 O123 1.253 . S
C134 O124 1.283 . S
C135 O127 1.304 . S
C135 O129 1.272 . S
C136 O128 1.311 . S
C136 O130 1.231 . S
O137 Zn119 1.953 . S
O137 C131 1.298 . S
O138 Zn139 1.953 . S
O138 C154 1.225 . S
Zn139 O138 1.953 . S
Zn139 O140 1.949 . S
Zn139 O146 1.919 . S
Zn139 O151 1.924 . S
O140 Zn139 1.949 . S
O140 Zn141 1.923 . S
O140 Zn142 1.950 . S
O140 Zn143 1.945 . S
Zn141 O140 1.923 . S
Zn141 O144 1.933 1_554 S
Zn141 O147 1.941 . S
Zn141 O148 1.965 . S
Zn142 O140 1.950 . S
Zn142 O149 1.938 . S
Zn142 O150 1.906 . S
Zn142 O160 1.953 . S
Zn143 O140 1.945 . S
Zn143 O145 1.932 1_554 S
Zn143 O152 1.977 . S
Zn143 O153 1.910 . S
O144 Zn141 1.933 1_556 S
O144 C155 1.226 . S
O145 Zn143 1.932 1_556 S
O145 C155 1.307 . S
O146 Zn139 1.919 . S
O146 C157 1.253 . S
O147 Zn141 1.941 . S
O147 C157 1.283 . S
O148 Zn141 1.965 . S
O148 C156 1.303 . S
O149 Zn142 1.938 . S
O149 C156 1.247 . S
O150 Zn142 1.906 . S
O150 C158 1.304 . S
O151 Zn139 1.924 . S
O151 C159 1.311 . S
O152 Zn143 1.977 . S
O152 C158 1.272 . S
O153 Zn143 1.910 . S
O153 C159 1.231 . S
C154 O138 1.225 . S
C154 O160 1.298 . S
C155 O144 1.226 . S
C155 O145 1.307 . S
C156 O148 1.303 . S
C156 O149 1.247 . S
C157 O146 1.253 . S
C157 O147 1.283 . S
C158 O150 1.304 . S
C158 O152 1.272 . S
C159 O151 1.311 . S
C159 O153 1.231 . S
O160 Zn142 1.953 . S
O160 C154 1.298 . S
O161 Zn162 1.953 . S
O161 C177 1.225 . S
Zn162 O161 1.953 . S
Zn162 O163 1.949 . S
Zn162 O169 1.919 . S
Zn162 O174 1.924 . S
O163 Zn162 1.949 . S
O163 Zn164 1.923 . S
O163 Zn165 1.950 . S
O163 Zn166 1.945 . S
Zn164 O163 1.923 . S
Zn164 O167 1.933 1_556 S
Zn164 O170 1.941 . S
Zn164 O171 1.965 . S
Zn165 O163 1.950 . S
Zn165 O172 1.938 . S
Zn165 O173 1.906 . S
Zn165 O183 1.953 . S
Zn166 O163 1.945 . S
Zn166 O168 1.932 1_556 S
Zn166 O175 1.977 . S
Zn166 O176 1.910 . S
O167 Zn164 1.933 1_554 S
O167 C178 1.226 . S
O168 Zn166 1.932 1_554 S
O168 C178 1.307 . S
O169 Zn162 1.919 . S
O169 C180 1.253 . S
O170 Zn164 1.941 . S
O170 C180 1.283 . S
O171 Zn164 1.965 . S
O171 C179 1.303 . S
O172 Zn165 1.938 . S
O172 C179 1.247 . S
O173 Zn165 1.906 . S
O173 C181 1.304 . S
O174 Zn162 1.924 . S
O174 C182 1.311 . S
O175 Zn166 1.977 . S
O175 C181 1.272 . S
O176 Zn166 1.910 . S
O176 C182 1.231 . S
C177 O161 1.225 . S
C177 O183 1.298 . S
C178 O167 1.226 . S
C178 O168 1.307 . S
C179 O171 1.303 . S
C179 O172 1.247 . S
C180 O169 1.253 . S
C180 O170 1.283 . S
C181 O173 1.304 . S
C181 O175 1.272 . S
C182 O174 1.311 . S
C182 O176 1.231 . S
O183 Zn165 1.953 . S
O183 C177 1.298 . S
O184 Zn185 1.953 . S
O184 C200 1.225 . S
Zn185 O184 1.953 . S
Zn185 O186 1.949 . S
Zn185 O192 1.919 . S
Zn185 O197 1.924 . S
O186 Zn185 1.949 . S
O186 Zn187 1.923 . S
O186 Zn188 1.950 . S
O186 Zn189 1.945 . S
Zn187 O186 1.923 . S
Zn187 O190 1.933 . S
Zn187 O193 1.941 . S
Zn187 O194 1.965 . S
Zn188 O186 1.950 . S
Zn188 O195 1.938 . S
Zn188 O196 1.906 . S
Zn188 O206 1.953 . S
Zn189 O186 1.945 . S
Zn189 O191 1.932 . S
Zn189 O198 1.977 . S
Zn189 O199 1.910 . S
O190 Zn187 1.933 . S
O190 C201 1.226 . S
O191 Zn189 1.932 . S
O191 C201 1.307 . S
O192 Zn185 1.919 . S
O192 C203 1.253 . S
O193 Zn187 1.941 . S
O193 C203 1.283 . S
O194 Zn187 1.965 . S
O194 C202 1.303 . S
O195 Zn188 1.938 . S
O195 C202 1.247 . S
O196 Zn188 1.906 . S
O196 C204 1.304 . S
O197 Zn185 1.924 . S
O197 C205 1.311 . S
O198 Zn189 1.977 . S
O198 C204 1.272 . S
O199 Zn189 1.910 . S
O199 C205 1.231 . S
C200 O184 1.225 . S
C200 O206 1.298 . S
C201 O190 1.226 . S
C201 O191 1.307 . S
C202 O194 1.303 . S
C202 O195 1.247 . S
C203 O192 1.253 . S
C203 O193 1.283 . S
C204 O196 1.304 . S
C204 O198 1.272 . S
C205 O197 1.311 . S
C205 O199 1.231 . S
O206 Zn188 1.953 . S
O206 C200 1.298 . S
O207 Zn208 1.953 . S
O207 C223 1.225 . S
Zn208 O207 1.953 . S
Zn208 O209 1.949 . S
Zn208 O215 1.919 . S
Zn208 O220 1.924 . S
O209 Zn208 1.949 . S
O209 Zn210 1.923 . S
O209 Zn211 1.950 . S
O209 Zn212 1.945 . S
Zn210 O209 1.923 . S
Zn210 O213 1.933 . S
Zn210 O216 1.941 . S
Zn210 O217 1.965 . S
Zn211 O209 1.950 . S
Zn211 O218 1.938 . S
Zn211 O219 1.906 . S
Zn211 O229 1.953 . S
Zn212 O209 1.945 . S
Zn212 O214 1.932 . S
Zn212 O221 1.977 . S
Zn212 O222 1.910 . S
O213 Zn210 1.933 . S
O213 C224 1.226 . S
O214 Zn212 1.932 . S
O214 C224 1.307 . S
O215 Zn208 1.919 . S
O215 C226 1.253 . S
O216 Zn210 1.941 . S
O216 C226 1.283 . S
O217 Zn210 1.965 . S
O217 C225 1.303 . S
O218 Zn211 1.938 . S
O218 C225 1.247 . S
O219 Zn211 1.906 . S
O219 C227 1.304 . S
O220 Zn208 1.924 . S
O220 C228 1.311 . S
O221 Zn212 1.977 . S
O221 C227 1.272 . S
O222 Zn212 1.910 . S
O222 C228 1.231 . S
C223 O207 1.225 . S
C223 O229 1.298 . S
C224 O213 1.226 . S
C224 O214 1.307 . S
C225 O217 1.303 . S
C225 O218 1.247 . S
C226 O215 1.253 . S
C226 O216 1.283 . S
C227 O219 1.304 . S
C227 O221 1.272 . S
C228 O220 1.311 . S
C228 O222 1.231 . S
O229 Zn211 1.953 . S
O229 C223 1.298 . S
O230 Zn231 1.953 . S
O230 C246 1.225 . S
Zn231 O230 1.953 . S
Zn231 O232 1.949 . S
Zn231 O238 1.919 . S
Zn231 O243 1.924 . S
O232 Zn231 1.949 . S
O232 Zn233 1.923 . S
O232 Zn234 1.950 . S
O232 Zn235 1.945 . S
Zn233 O232 1.923 . S
Zn233 O236 1.933 . S
Zn233 O239 1.941 . S
Zn233 O240 1.965 . S
Zn234 O232 1.950 . S
Zn234 O241 1.938 . S
Zn234 O242 1.906 . S
Zn234 O252 1.953 . S
Zn235 O232 1.945 . S
Zn235 O237 1.932 . S
Zn235 O244 1.977 . S
Zn235 O245 1.910 . S
O236 Zn233 1.933 . S
O236 C247 1.226 . S
O237 Zn235 1.932 . S
O237 C247 1.307 . S
O238 Zn231 1.919 . S
O238 C249 1.253 . S
O239 Zn233 1.941 . S
O239 C249 1.283 . S
O240 Zn233 1.965 . S
O240 C248 1.303 . S
O241 Zn234 1.938 . S
O241 C248 1.247 . S
O242 Zn234 1.906 . S
O242 C250 1.304 . S
O243 Zn231 1.924 . S
O243 C251 1.311 . S
O244 Zn235 1.977 . S
O244 C250 1.272 . S
O245 Zn235 1.910 . S
O245 C251 1.231 . S
C246 O230 1.225 . S
C246 O252 1.298 . S
C247 O236 1.226 . S
C247 O237 1.307 . S
C248 O240 1.303 . S
C248 O241 1.247 . S
C249 O238 1.253 . S
C249 O239 1.283 . S
C250 O242 1.304 . S
C250 O244 1.272 . S
C251 O243 1.311 . S
C251 O245 1.231 . S
O252 Zn234 1.953 . S
O252 C246 1.298 . S
O253 Zn254 1.953 . S
O253 C269 1.225 . S
Zn254 O253 1.953 . S
Zn254 O255 1.949 . S
Zn254 O261 1.919 . S
Zn254 O266 1.924 . S
O255 Zn254 1.949 . S
O255 Zn256 1.923 . S
O255 Zn257 1.950 . S
O255 Zn258 1.945 . S
Zn256 O255 1.923 . S
Zn256 O259 1.933 . S
Zn256 O262 1.941 . S
Zn256 O263 1.965 . S
Zn257 O255 1.950 . S
Zn257 O264 1.938 . S
Zn257 O265 1.906 . S
Zn257 O275 1.953 . S
Zn258 O255 1.945 . S
Zn258 O260 1.932 . S
Zn258 O267 1.977 . S
Zn258 O268 1.910 . S
O259 Zn256 1.933 . S
O259 C270 1.226 . S
O260 Zn258 1.932 . S
O260 C270 1.307 . S
O261 Zn254 1.919 . S
O261 C272 1.253 . S
O262 Zn256 1.941 . S
O262 C272 1.283 . S
O263 Zn256 1.965 . S
O263 C271 1.303 . S
O264 Zn257 1.938 . S
O264 C271 1.247 . S
O265 Zn257 1.906 . S
O265 C273 1.304 . S
O266 Zn254 1.924 . S
O266 C274 1.311 . S
O267 Zn258 1.977 . S
O267 C273 1.272 . S
O268 Zn258 1.910 . S
O268 C274 1.231 . S
C269 O253 1.225 . S
C269 O275 1.298 . S
C270 O259 1.226 . S
C270 O260 1.307 . S
C271 O263 1.303 . S
C271 O264 1.247 . S
C272 O261 1.253 . S
C272 O262 1.283 . S
C273 O265 1.304 . S
C273 O267 1.272 . S
C274 O266 1.311 . S
C274 O268 1.231 . S
O275 Zn257 1.953 . S
O275 C269 1.298 . S
O276 Zn277 1.953 . S
O276 C292 1.225 . S
Zn277 O276 1.953 . S
Zn277 O278 1.949 . S
Zn277 O284 1.919 . S
Zn277 O289 1.924 . S
O278 Zn277 1.949 . S
O278 Zn279 1.923 . S
O278 Zn280 1.950 . S
O278 Zn281 1.945 . S
Zn279 O278 1.923 . S
Zn279 O282 1.933 . S
Zn279 O285 1.941 . S
Zn279 O286 1.965 . S
Zn280 O278 1.950 . S
Zn280 O287 1.938 . S
Zn280 O288 1.906 . S
Zn280 O298 1.953 . S
Zn281 O278 1.945 . S
Zn281 O283 1.932 . S
Zn281 O290 1.977 . S
Zn281 O291 1.910 . S
O282 Zn279 1.933 . S
O282 C293 1.226 . S
O283 Zn281 1.932 . S
O283 C293 1.307 . S
O284 Zn277 1.919 . S
O284 C295 1.253 . S
O285 Zn279 1.941 . S
O285 C295 1.283 . S
O286 Zn279 1.965 . S
O286 C294 1.303 . S
O287 Zn280 1.938 . S
O287 C294 1.247 . S
O288 Zn280 1.906 . S
O288 C296 1.304 . S
O289 Zn277 1.924 . S
O289 C297 1.311 . S
O290 Zn281 1.977 . S
O290 C296 1.272 . S
O291 Zn281 1.910 . S
O291 C297 1.231 . S
C292 O276 1.225 . S
C292 O298 1.298 . S
C293 O282 1.226 . S
C293 O283 1.307 . S
C294 O286 1.303 . S
C294 O287 1.247 . S
C295 O284 1.253 . S
C295 O285 1.283 . S
C296 O288 1.304 . S
C296 O290 1.272 . S
C297 O289 1.311 . S
C297 O291 1.231 . S
O298 Zn280 1.953 . S
O298 C292 1.298 . S
O299 Zn300 1.953 . S
O299 C315 1.225 . S
Zn300 O299 1.953 . S
Zn300 O301 1.949 . S
Zn300 O307 1.919 . S
Zn300 O312 1.924 . S
O301 Zn300 1.949 . S
O301 Zn302 1.923 . S
O301 Zn303 1.950 . S
O301 Zn304 1.945 . S
Zn302 O301 1.923 . S
Zn302 O305 1.933 . S
Zn302 O308 1.941 . S
Zn302 O309 1.965 . S
Zn303 O301 1.950 . S
Zn303 O310 1.938 . S
Zn303 O311 1.906 . S
Zn303 O321 1.953 . S
Zn304 O301 1.945 . S
Zn304 O306 1.932 . S
Zn304 O313 1.977 . S
Zn304 O314 1.910 . S
O305 Zn302 1.933 . S
O305 C316 1.226 . S
O306 Zn304 1.932 . S
O306 C316 1.307 . S
O307 Zn300 1.919 . S
O307 C318 1.253 . S
O308 Zn302 1.941 . S
O308 C318 1.283 . S
O309 Zn302 1.965 . S
O309 C317 1.303 . S
O310 Zn303 1.938 . S
O310 C317 1.247 . S
O311 Zn303 1.906 . S
O311 C319 1.304 . S
O312 Zn300 1.924 . S
O312 C320 1.311 . S
O313 Zn304 1.977 . S
O313 C319 1.272 . S
O314 Zn304 1.910 . S
O314 C320 1.231 . S
C315 O299 1.225 . S
C315 O321 1.298 . S
C316 O305 1.226 . S
C316 O306 1.307 . S
C317 O309 1.303 . S
C317 O310 1.247 . S
C318 O307 1.253 . S
C318 O308 1.283 . S
C319 O311 1.304 . S
C319 O313 1.272 . S
C320 O312 1.311 . S
C320 O314 1.231 . S
O321 Zn303 1.953 . S
O321 C315 1.298 . S
O322 Zn323 1.953 . S
O322 C338 1.225 . S
Zn323 O322 1.953 . S
Zn323 O324 1.949 . S
Zn323 O330 1.919 . S
Zn323 O335 1.924 . S
O324 Zn323 1.949 . S
O324 Zn325 1.923 . S
O324 Zn326 1.950 . S
O324 Zn327 1.945 . S
Zn325 O324 1.923 . S
Zn325 O328 1.933 . S
Zn325 O331 1.941 . S
Zn325 O332 1.965 . S
Zn326 O324 1.950 . S
Zn326 O333 1.938 . S
Zn326 O334 1.906 . S
Zn326 O344 1.953 . S
Zn327 O324 1.945 . S
Zn327 O329 1.932 . S
Zn327 O336 1.977 . S
Zn327 O337 1.910 . S
O328 Zn325 1.933 . S
O328 C339 1.226 . S
O329 Zn327 1.932 . S
O329 C339 1.307 . S
O330 Zn323 1.919 . S
O330 C341 1.253 . S
O331 Zn325 1.941 . S
O331 C341 1.283 . S
O332 Zn325 1.965 . S
O332 C340 1.303 . S
O333 Zn326 1.938 . S
O333 C340 1.247 . S
O334 Zn326 1.906 . S
O334 C342 1.304 . S
O335 Zn323 1.924 . S
O335 C343 1.311 . S
O336 Zn327 1.977 . S
O336 C342 1.272 . S
O337 Zn327 1.910 . S
O337 C343 1.231 . S
C338 O322 1.225 . S
C338 O344 1.298 . S
C339 O328 1.226 . S
C339 O329 1.307 . S
C340 O332 1.303 . S
C340 O333 1.247 . S
C341 O330 1.253 . S
C341 O331 1.283 . S
C342 O334 1.304 . S
C342 O336 1.272 . S
C343 O335 1.311 . S
C343 O337 1.231 . S
O344 Zn326 1.953 . S
O344 C338 1.298 . S
O345 Zn346 1.953 . S
O345 C361 1.225 . S
Zn346 O345 1.953 . S
Zn346 O347 1.949 . S
Zn346 O353 1.919 . S
Zn346 O358 1.924 . S
O347 Zn346 1.949 . S
O347 Zn348 1.923 . S
O347 Zn349 1.950 . S
O347 Zn350 1.945 . S
Zn348 O347 1.923 . S
Zn348 O351 1.933 . S
Zn348 O354 1.941 . S
Zn348 O355 1.965 . S
Zn349 O347 1.950 . S
Zn349 O356 1.938 . S
Zn349 O357 1.906 . S
Zn349 O367 1.953 . S
Zn350 O347 1.945 . S
Zn350 O352 1.932 . S
Zn350 O359 1.977 . S
Zn350 O360 1.910 . S
O351 Zn348 1.933 . S
O351 C362 1.226 . S
O352 Zn350 1.932 . S
O352 C362 1.307 . S
O353 Zn346 1.919 . S
O353 C364 1.253 . S
O354 Zn348 1.941 . S
O354 C364 1.283 . S
O355 Zn348 1.965 . S
O355 C363 1.303 . S
O356 Zn349 1.938 . S
O356 C363 1.247 . S
O357 Zn349 1.906 . S
O357 C365 1.304 . S
O358 Zn346 1.924 . S
O358 C366 1.311 . S
O359 Zn350 1.977 . S
O359 C365 1.272 . S
O360 Zn350 1.910 . S
O360 C366 1.231 . S
C361 O345 1.225 . S
C361 O367 1.298 . S
C362 O351 1.226 . S
C362 O352 1.307 . S
C363 O355 1.303 . S
C363 O356 1.247 . S
C364 O353 1.253 . S
C364 O354 1.283 . S
C365 O357 1.304 . S
C365 O359 1.272 . S
C366 O358 1.311 . S
C366 O360 1.231 . S
O367 Zn349 1.953 . S
O367 C361 1.298 . S
H368 C374 0.930 . S
H369 C378 0.930 . S
H370 C383 0.929 . S
H371 C381 0.929 . S
H372 C376 0.929 . S
H373 C382 0.929 . S
C374 H368 0.930 . S
C374 C375 1.367 . S
C374 C382 1.378 . S
C375 C374 1.367 . S
C375 C383 1.433 . S
C376 H372 0.929 . S
C376 C378 1.378 . S
C376 C380 1.350 . S
C377 C380 1.463 1_565 S
C377 C382 1.350 . S
C377 N385 1.427 . S
C378 H369 0.930 . S
C378 C376 1.378 . S
C378 C379 1.367 . S
C379 C378 1.367 . S
C379 C381 1.433 . S
C380 C376 1.350 . S
C380 C377 1.463 1_545 S
C380 N384 1.427 . S
C381 H371 0.929 . S
C381 C379 1.433 . S
C381 N384 1.384 . S
C382 H373 0.929 . S
C382 C374 1.378 . S
C382 C377 1.350 . S
C383 H370 0.929 . S
C383 C375 1.433 . S
C383 N385 1.384 . S
N384 C380 1.427 . S
N384 C381 1.384 . S
N385 C377 1.427 . S
N385 C383 1.384 . S
H386 C392 0.930 . S
H387 C396 0.930 . S
H388 C401 0.929 . S
H389 C399 0.929 . S
H390 C394 0.929 . S
H391 C400 0.929 . S
C392 H386 0.930 . S
C392 C393 1.367 . S
C392 C400 1.378 . S
C393 C392 1.367 . S
C393 C401 1.433 . S
C394 H390 0.929 . S
C394 C396 1.378 . S
C394 C398 1.350 . S
C395 C398 1.463 1_655 S
C395 C400 1.350 . S
C395 N403 1.427 . S
C396 H387 0.930 . S
C396 C394 1.378 . S
C396 C397 1.367 . S
C397 C396 1.367 . S
C397 C399 1.433 . S
C398 C394 1.350 . S
C398 C395 1.463 1_455 S
C398 N402 1.427 . S
C399 H389 0.929 . S
C399 C397 1.433 . S
C399 N402 1.384 . S
C400 H391 0.929 . S
C400 C392 1.378 . S
C400 C395 1.350 . S
C401 H388 0.929 . S
C401 C393 1.433 . S
C401 N403 1.384 . S
N402 C398 1.427 . S
N402 C399 1.384 . S
N403 C395 1.427 . S
N403 C401 1.384 . S
H404 C410 0.930 . S
H405 C414 0.930 . S
H406 C419 0.929 . S
H407 C417 0.929 . S
H408 C412 0.929 . S
H409 C418 0.929 . S
C410 H404 0.930 . S
C410 C411 1.367 . S
C410 C418 1.378 . S
C411 C410 1.367 . S
C411 C419 1.433 . S
C412 H408 0.929 . S
C412 C414 1.378 . S
C412 C416 1.350 . S
C413 C416 1.463 1_565 S
C413 C418 1.350 . S
C413 N421 1.427 . S
C414 H405 0.930 . S
C414 C412 1.378 . S
C414 C415 1.367 . S
C415 C414 1.367 . S
C415 C417 1.433 . S
C416 C412 1.350 . S
C416 C413 1.463 1_545 S
C416 N420 1.427 . S
C417 H407 0.929 . S
C417 C415 1.433 . S
C417 N420 1.384 . S
C418 H409 0.929 . S
C418 C410 1.378 . S
C418 C413 1.350 . S
C419 H406 0.929 . S
C419 C411 1.433 . S
C419 N421 1.384 . S
N420 C416 1.427 . S
N420 C417 1.384 . S
N421 C413 1.427 . S
N421 C419 1.384 . S
H422 C428 0.930 . S
H423 C432 0.930 . S
H424 C437 0.929 . S
H425 C435 0.929 . S
H426 C430 0.929 . S
H427 C436 0.929 . S
C428 H422 0.930 . S
C428 C429 1.367 . S
C428 C436 1.378 . S
C429 C428 1.367 . S
C429 C437 1.433 . S
C430 H426 0.929 . S
C430 C432 1.378 . S
C430 C434 1.350 . S
C431 C434 1.463 1_655 S
C431 C436 1.350 . S
C431 N439 1.427 . S
C432 H423 0.930 . S
C432 C430 1.378 . S
C432 C433 1.367 . S
C433 C432 1.367 . S
C433 C435 1.433 . S
C434 C430 1.350 . S
C434 C431 1.463 1_455 S
C434 N438 1.427 . S
C435 H425 0.929 . S
C435 C433 1.433 . S
C435 N438 1.384 . S
C436 H427 0.929 . S
C436 C428 1.378 . S
C436 C431 1.350 . S
C437 H424 0.929 . S
C437 C429 1.433 . S
C437 N439 1.384 . S
N438 C434 1.427 . S
N438 C435 1.384 . S
N439 C431 1.427 . S
N439 C437 1.384 . S
H440 C446 0.930 . S
H441 C450 0.930 1_554 S
H442 C455 0.929 . S
H443 C453 0.929 . S
H444 C448 0.929 . S
H445 C454 0.929 . S
C446 H440 0.930 . S
C446 C447 1.367 1_556 S
C446 C454 1.378 . S
C447 C446 1.367 1_554 S
C447 C455 1.433 . S
C448 H444 0.929 . S
C448 C450 1.378 1_554 S
C448 C452 1.350 1_554 S
C449 C452 1.463 . S
C449 C454 1.350 . S
C449 N457 1.427 1_556 S
C450 H441 0.930 1_556 S
C450 C448 1.378 1_556 S
C450 C451 1.367 . S
C451 C450 1.367 . S
C451 C453 1.433 . S
C452 C448 1.350 1_556 S
C452 C449 1.463 . S
C452 N456 1.427 . S
C453 H443 0.929 . S
C453 C451 1.433 . S
C453 N456 1.384 . S
C454 H445 0.929 . S
C454 C446 1.378 . S
C454 C449 1.350 . S
C455 H442 0.929 . S
C455 C447 1.433 . S
C455 N457 1.384 . S
N456 C452 1.427 . S
N456 C453 1.384 . S
N457 C449 1.427 1_554 S
N457 C455 1.384 . S
H458 C464 0.930 . S
H459 C468 0.930 . S
H460 C473 0.929 . S
H461 C471 0.929 . S
H462 C466 0.929 1_554 S
H463 C472 0.929 . S
C464 H458 0.930 . S
C464 C465 1.367 . S
C464 C472 1.378 . S
C465 C464 1.367 . S
C465 C473 1.433 . S
C466 H462 0.929 1_556 S
C466 C468 1.378 . S
C466 C470 1.350 1_556 S
C467 C470 1.463 . S
C467 C472 1.350 . S
C467 N475 1.427 . S
C468 H459 0.930 . S
C468 C466 1.378 . S
C468 C469 1.367 . S
C469 C468 1.367 . S
C469 C471 1.433 . S
C470 C466 1.350 1_554 S
C470 C467 1.463 . S
C470 N474 1.427 1_554 S
C471 H461 0.929 . S
C471 C469 1.433 . S
C471 N474 1.384 . S
C472 H463 0.929 . S
C472 C464 1.378 . S
C472 C467 1.350 . S
C473 H460 0.929 . S
C473 C465 1.433 . S
C473 N475 1.384 . S
N474 C470 1.427 1_556 S
N474 C471 1.384 . S
N475 C467 1.427 . S
N475 C473 1.384 . S
H476 C482 0.930 . S
H477 C486 0.930 . S
H478 C491 0.929 . S
H479 C489 0.929 . S
H480 C484 0.929 1_554 S
H481 C490 0.929 . S
C482 H476 0.930 . S
C482 C483 1.367 1_556 S
C482 C490 1.378 . S
C483 C482 1.367 1_554 S
C483 C491 1.433 . S
C484 H480 0.929 1_556 S
C484 C486 1.378 . S
C484 C488 1.350 . S
C485 C488 1.463 . S
C485 C490 1.350 . S
C485 N493 1.427 1_556 S
C486 H477 0.930 . S
C486 C484 1.378 . S
C486 C487 1.367 . S
C487 C486 1.367 . S
C487 C489 1.433 . S
C488 C484 1.350 . S
C488 C485 1.463 . S
C488 N492 1.427 . S
C489 H479 0.929 . S
C489 C487 1.433 . S
C489 N492 1.384 . S
C490 H481 0.929 . S
C490 C482 1.378 . S
C490 C485 1.350 . S
C491 H478 0.929 . S
C491 C483 1.433 . S
C491 N493 1.384 . S
N492 C488 1.427 . S
N492 C489 1.384 . S
N493 C485 1.427 1_554 S
N493 C491 1.384 . S
H494 C500 0.930 . S
H495 C504 0.930 1_554 S
H496 C509 0.929 . S
H497 C507 0.929 . S
H498 C502 0.929 . S
H499 C508 0.929 1_556 S
C500 H494 0.930 . S
C500 C501 1.367 . S
C500 C508 1.378 . S
C501 C500 1.367 . S
C501 C509 1.433 . S
C502 H498 0.929 . S
C502 C504 1.378 1_554 S
C502 C506 1.350 . S
C503 C506 1.463 . S
C503 C508 1.350 . S
C503 N511 1.427 . S
C504 H495 0.930 1_556 S
C504 C502 1.378 1_556 S
C504 C505 1.367 . S
C505 C504 1.367 . S
C505 C507 1.433 . S
C506 C502 1.350 . S
C506 C503 1.463 . S
C506 N510 1.427 1_554 S
C507 H497 0.929 . S
C507 C505 1.433 . S
C507 N510 1.384 . S
C508 H499 0.929 1_554 S
C508 C500 1.378 . S
C508 C503 1.350 . S
C509 H496 0.929 . S
C509 C501 1.433 . S
C509 N511 1.384 . S
N510 C506 1.427 1_556 S
N510 C507 1.384 . S
N511 C503 1.427 . S
N511 C509 1.384 . S
H512 C518 0.930 . S
H513 C522 0.930 . S
H514 C527 0.929 . S
H515 C525 0.929 . S
H516 C520 0.929 . S
H517 C526 0.929 . S
C518 H512 0.930 . S
C518 C519 1.367 . S
C518 C526 1.378 . S
C519 C518 1.367 . S
C519 C527 1.433 . S
C520 H516 0.929 . S
C520 C522 1.378 . S
C520 C524 1.350 . S
C521 C524 1.463 . S
C521 C526 1.350 . S
C521 N529 1.427 . S
C522 H513 0.930 . S
C522 C520 1.378 . S
C522 C523 1.367 . S
C523 C522 1.367 . S
C523 C525 1.433 . S
C524 C520 1.350 . S
C524 C521 1.463 . S
C524 N528 1.427 . S
C525 H515 0.929 . S
C525 C523 1.433 . S
C525 N528 1.384 . S
C526 H517 0.929 . S
C526 C518 1.378 . S
C526 C521 1.350 . S
C527 H514 0.929 . S
C527 C519 1.433 . S
C527 N529 1.384 . S
N528 C524 1.427 . S
N528 C525 1.384 . S
N529 C521 1.427 . S
N529 C527 1.384 . S
H530 C536 0.930 . S
H531 C540 0.930 . S
H532 C545 0.929 . S
H533 C543 0.929 . S
H534 C538 0.929 . S
H535 C544 0.929 . S
C536 H530 0.930 . S
C536 C537 1.367 . S
C536 C544 1.378 . S
C537 C536 1.367 . S
C537 C545 1.433 . S
C538 H534 0.929 . S
C538 C540 1.378 . S
C538 C542 1.350 . S
C539 C542 1.463 . S
C539 C544 1.350 . S
C539 N547 1.427 . S
C540 H531 0.930 . S
C540 C538 1.378 . S
C540 C541 1.367 . S
C541 C540 1.367 . S
C541 C543 1.433 . S
C542 C538 1.350 . S
C542 C539 1.463 . S
C542 N546 1.427 . S
C543 H533 0.929 . S
C543 C541 1.433 . S
C543 N546 1.384 . S
C544 H535 0.929 . S
C544 C536 1.378 . S
C544 C539 1.350 . S
C545 H532 0.929 . S
C545 C537 1.433 . S
C545 N547 1.384 . S
N546 C542 1.427 . S
N546 C543 1.384 . S
N547 C539 1.427 . S
N547 C545 1.384 . S
H548 C554 0.930 . S
H549 C558 0.930 . S
H550 C563 0.929 . S
H551 C561 0.929 . S
H552 C556 0.929 . S
H553 C562 0.929 . S
C554 H548 0.930 . S
C554 C555 1.367 . S
C554 C562 1.378 . S
C555 C554 1.367 . S
C555 C563 1.433 . S
C556 H552 0.929 . S
C556 C558 1.378 . S
C556 C560 1.350 . S
C557 C560 1.463 . S
C557 C562 1.350 . S
C557 N565 1.427 . S
C558 H549 0.930 . S
C558 C556 1.378 . S
C558 C559 1.367 . S
C559 C558 1.367 . S
C559 C561 1.433 . S
C560 C556 1.350 . S
C560 C557 1.463 . S
C560 N564 1.427 . S
C561 H551 0.929 . S
C561 C559 1.433 . S
C561 N564 1.384 . S
C562 H553 0.929 . S
C562 C554 1.378 . S
C562 C557 1.350 . S
C563 H550 0.929 . S
C563 C555 1.433 . S
C563 N565 1.384 . S
N564 C560 1.427 . S
N564 C561 1.384 . S
N565 C557 1.427 . S
N565 C563 1.384 . S
H566 C572 0.930 . S
H567 C576 0.930 . S
H568 C581 0.929 . S
H569 C579 0.929 . S
H570 C574 0.929 . S
H571 C580 0.929 . S
C572 H566 0.930 . S
C572 C573 1.367 . S
C572 C580 1.378 . S
C573 C572 1.367 . S
C573 C581 1.433 . S
C574 H570 0.929 . S
C574 C576 1.378 . S
C574 C578 1.350 . S
C575 C578 1.463 . S
C575 C580 1.350 . S
C575 N583 1.427 . S
C576 H567 0.930 . S
C576 C574 1.378 . S
C576 C577 1.367 . S
C577 C576 1.367 . S
C577 C579 1.433 . S
C578 C574 1.350 . S
C578 C575 1.463 . S
C578 N582 1.427 . S
C579 H569 0.929 . S
C579 C577 1.433 . S
C579 N582 1.384 . S
C580 H571 0.929 . S
C580 C572 1.378 . S
C580 C575 1.350 . S
C581 H568 0.929 . S
C581 C573 1.433 . S
C581 N583 1.384 . S
N582 C578 1.427 . S
N582 C579 1.384 . S
N583 C575 1.427 . S
N583 C581 1.384 . S
H584 C590 0.930 . S
H585 C594 0.930 . S
H586 C599 0.929 . S
H587 C597 0.929 . S
H588 C592 0.929 . S
H589 C598 0.929 . S
C590 H584 0.930 . S
C590 C591 1.367 . S
C590 C598 1.378 . S
C591 C590 1.367 . S
C591 C599 1.433 . S
C592 H588 0.929 . S
C592 C594 1.378 . S
C592 C596 1.350 . S
C593 C596 1.463 1_565 S
C593 C598 1.350 . S
C593 N601 1.427 . S
C594 H585 0.930 . S
C594 C592 1.378 . S
C594 C595 1.367 . S
C595 C594 1.367 . S
C595 C597 1.433 . S
C596 C592 1.350 . S
C596 C593 1.463 1_545 S
C596 N600 1.427 . S
C597 H587 0.929 . S
C597 C595 1.433 . S
C597 N600 1.384 . S
C598 H589 0.929 . S
C598 C590 1.378 . S
C598 C593 1.350 . S
C599 H586 0.929 . S
C599 C591 1.433 . S
C599 N601 1.384 . S
N600 C596 1.427 . S
N600 C597 1.384 . S
N601 C593 1.427 . S
N601 C599 1.384 . S
H602 C608 0.930 . S
H603 C612 0.930 . S
H604 C617 0.929 . S
H605 C615 0.929 . S
H606 C610 0.929 . S
H607 C616 0.929 . S
C608 H602 0.930 . S
C608 C609 1.367 . S
C608 C616 1.378 . S
C609 C608 1.367 . S
C609 C617 1.433 . S
C610 H606 0.929 . S
C610 C612 1.378 . S
C610 C614 1.350 . S
C611 C614 1.463 1_455 S
C611 C616 1.350 . S
C611 N619 1.427 . S
C612 H603 0.930 . S
C612 C610 1.378 . S
C612 C613 1.367 . S
C613 C612 1.367 . S
C613 C615 1.433 . S
C614 C610 1.350 . S
C614 C611 1.463 1_655 S
C614 N618 1.427 . S
C615 H605 0.929 . S
C615 C613 1.433 . S
C615 N618 1.384 . S
C616 H607 0.929 . S
C616 C608 1.378 . S
C616 C611 1.350 . S
C617 H604 0.929 . S
C617 C609 1.433 . S
C617 N619 1.384 . S
N618 C614 1.427 . S
N618 C615 1.384 . S
N619 C611 1.427 . S
N619 C617 1.384 . S
H620 C626 0.930 . S
H621 C630 0.930 . S
H622 C635 0.929 . S
H623 C633 0.929 . S
H624 C628 0.901 1_565 S
H625 C634 0.929 . S
C626 H620 0.930 . S
C626 C627 1.367 . S
C626 C634 1.378 . S
C627 C626 1.367 . S
C627 C635 1.433 . S
C628 H624 0.901 1_545 S
C628 C630 1.378 . S
C628 C632 1.350 . S
C629 C632 1.463 1_565 S
C629 C634 1.350 . S
C629 N637 1.427 . S
C630 H621 0.930 . S
C630 C628 1.378 . S
C630 C631 1.367 . S
C631 C630 1.367 . S
C631 C633 1.433 . S
C632 C628 1.350 . S
C632 C629 1.463 1_545 S
C632 N636 1.427 . S
C633 H623 0.929 . S
C633 C631 1.433 . S
C633 N636 1.384 . S
C634 H625 0.929 . S
C634 C626 1.378 . S
C634 C629 1.350 . S
C635 H622 0.929 . S
C635 C627 1.433 . S
C635 N637 1.384 . S
N636 C632 1.427 . S
N636 C633 1.384 . S
N637 C629 1.427 . S
N637 C635 1.384 . S
H638 C644 0.930 . S
H639 C648 0.930 . S
H640 C653 0.929 . S
H641 C651 0.929 . S
H642 C646 0.929 . S
H643 C652 0.929 . S
C644 H638 0.930 . S
C644 C645 1.367 . S
C644 C652 1.378 . S
C645 C644 1.367 . S
C645 C653 1.433 . S
C646 H642 0.929 . S
C646 C648 1.378 . S
C646 C650 1.350 . S
C647 C650 1.463 1_455 S
C647 C652 1.350 . S
C647 N655 1.427 . S
C648 H639 0.930 . S
C648 C646 1.378 . S
C648 C649 1.367 . S
C649 C648 1.367 . S
C649 C651 1.433 . S
C650 C646 1.350 . S
C650 C647 1.463 1_655 S
C650 N654 1.427 . S
C651 H641 0.929 . S
C651 C649 1.433 . S
C651 N654 1.384 . S
C652 H643 0.929 . S
C652 C644 1.378 . S
C652 C647 1.350 . S
C653 H640 0.929 . S
C653 C645 1.433 . S
C653 N655 1.384 . S
N654 C650 1.427 . S
N654 C651 1.384 . S
N655 C647 1.427 . S
N655 C653 1.384 . S
H656 C662 0.930 . S
H657 C666 0.930 1_556 S
H658 C671 0.929 . S
H659 C669 0.929 . S
H660 C664 0.929 1_556 S
H661 C670 0.929 . S
C662 H656 0.930 . S
C662 C663 1.367 . S
C662 C670 1.378 . S
C663 C662 1.367 . S
C663 C671 1.433 . S
C664 H660 0.929 1_554 S
C664 C666 1.378 . S
C664 C668 1.350 . S
C665 C668 1.463 . S
C665 C670 1.350 . S
C665 N673 1.427 . S
C666 H657 0.930 1_554 S
C666 C664 1.378 . S
C666 C667 1.367 . S
C667 C666 1.367 . S
C667 C669 1.433 . S
C668 C664 1.350 . S
C668 C665 1.463 . S
C668 N672 1.427 . S
C669 H659 0.929 . S
C669 C667 1.433 . S
C669 N672 1.384 . S
C670 H661 0.929 . S
C670 C662 1.378 . S
C670 C665 1.350 . S
C671 H658 0.929 . S
C671 C663 1.433 . S
C671 N673 1.384 . S
N672 C668 1.427 . S
N672 C669 1.384 . S
N673 C665 1.427 . S
N673 C671 1.384 . S
H674 C680 0.930 1_554 S
H675 C684 0.930 . S
H676 C689 0.929 . S
H677 C687 0.929 . S
H678 C682 0.929 . S
H679 C688 0.929 1_554 S
C680 H674 0.930 1_556 S
C680 C681 1.367 . S
C680 C688 1.378 . S
C681 C680 1.367 . S
C681 C689 1.433 . S
C682 H678 0.929 . S
C682 C684 1.378 . S
C682 C686 1.350 . S
C683 C686 1.463 . S
C683 C688 1.350 . S
C683 N691 1.427 . S
C684 H675 0.930 . S
C684 C682 1.378 . S
C684 C685 1.367 . S
C685 C684 1.367 . S
C685 C687 1.433 . S
C686 C682 1.350 . S
C686 C683 1.463 . S
C686 N690 1.427 . S
C687 H677 0.929 . S
C687 C685 1.433 . S
C687 N690 1.384 . S
C688 H679 0.929 1_556 S
C688 C680 1.378 . S
C688 C683 1.350 . S
C689 H676 0.929 . S
C689 C681 1.433 . S
C689 N691 1.384 . S
N690 C686 1.427 . S
N690 C687 1.384 . S
N691 C683 1.427 . S
N691 C689 1.384 . S
H692 C698 0.930 . S
H693 C702 0.930 . S
H694 C707 0.929 . S
H695 C705 0.929 1_556 S
H696 C700 0.929 . S
H697 C706 0.929 . S
C698 H692 0.930 . S
C698 C699 1.367 . S
C698 C706 1.378 . S
C699 C698 1.367 . S
C699 C707 1.433 . S
C700 H696 0.929 . S
C700 C702 1.378 . S
C700 C704 1.350 . S
C701 C704 1.463 . S
C701 C706 1.350 . S
C701 N709 1.427 . S
C702 H693 0.930 . S
C702 C700 1.378 . S
C702 C703 1.367 . S
C703 C702 1.367 . S
C703 C705 1.433 . S
C704 C700 1.350 . S
C704 C701 1.463 . S
C704 N708 1.427 . S
C705 H695 0.929 1_554 S
C705 C703 1.433 . S
C705 N708 1.384 . S
C706 H697 0.929 . S
C706 C698 1.378 . S
C706 C701 1.350 . S
C707 H694 0.929 . S
C707 C699 1.433 . S
C707 N709 1.384 . S
N708 C704 1.427 . S
N708 C705 1.384 . S
N709 C701 1.427 . S
N709 C707 1.384 . S
H710 C716 0.930 . S
H711 C720 0.930 1_554 S
H712 C725 0.929 . S
H713 C723 0.929 . S
H714 C718 0.929 1_554 S
H715 C724 0.929 . S
C716 H710 0.930 . S
C716 C717 1.367 . S
C716 C724 1.378 . S
C717 C716 1.367 . S
C717 C725 1.433 . S
C718 H714 0.929 1_556 S
C718 C720 1.378 . S
C718 C722 1.350 . S
C719 C722 1.463 . S
C719 C724 1.350 . S
C719 N727 1.427 . S
C720 H711 0.930 1_556 S
C720 C718 1.378 . S
C720 C721 1.367 . S
C721 C720 1.367 . S
C721 C723 1.433 . S
C722 C718 1.350 . S
C722 C719 1.463 . S
C722 N726 1.427 . S
C723 H713 0.929 . S
C723 C721 1.433 . S
C723 N726 1.384 . S
C724 H715 0.929 . S
C724 C716 1.378 . S
C724 C719 1.350 . S
C725 H712 0.929 . S
C725 C717 1.433 . S
C725 N727 1.384 . S
N726 C722 1.427 . S
N726 C723 1.384 . S
N727 C719 1.427 . S
N727 C725 1.384 . S
H728 C734 0.930 . S
H729 C738 0.930 . S
H730 C743 0.929 . S
H731 C741 0.929 . S
H732 C736 0.929 . S
H733 C742 0.929 . S
C734 H728 0.930 . S
C734 C735 1.367 . S
C734 C742 1.378 . S
C735 C734 1.367 . S
C735 C743 1.433 . S
C736 H732 0.929 . S
C736 C738 1.378 . S
C736 C740 1.350 . S
C737 C740 1.463 . S
C737 C742 1.350 . S
C737 N745 1.427 . S
C738 H729 0.930 . S
C738 C736 1.378 . S
C738 C739 1.367 . S
C739 C738 1.367 . S
C739 C741 1.433 . S
C740 C736 1.350 . S
C740 C737 1.463 . S
C740 N744 1.427 . S
C741 H731 0.929 . S
C741 C739 1.433 . S
C741 N744 1.384 . S
C742 H733 0.929 . S
C742 C734 1.378 . S
C742 C737 1.350 . S
C743 H730 0.929 . S
C743 C735 1.433 . S
C743 N745 1.384 . S
N744 C740 1.427 . S
N744 C741 1.384 . S
N745 C737 1.427 . S
N745 C743 1.384 . S
H746 C752 0.930 . S
H747 C756 0.930 . S
H748 C761 0.929 . S
H749 C759 0.929 . S
H750 C754 0.929 . S
H751 C760 0.929 . S
C752 H746 0.930 . S
C752 C753 1.367 . S
C752 C760 1.378 . S
C753 C752 1.367 . S
C753 C761 1.433 . S
C754 H750 0.929 . S
C754 C756 1.378 . S
C754 C758 1.350 . S
C755 C758 1.463 . S
C755 C760 1.350 . S
C755 N763 1.427 . S
C756 H747 0.930 . S
C756 C754 1.378 . S
C756 C757 1.367 . S
C757 C756 1.367 . S
C757 C759 1.433 . S
C758 C754 1.350 . S
C758 C755 1.463 . S
C758 N762 1.427 . S
C759 H749 0.929 . S
C759 C757 1.433 . S
C759 N762 1.384 . S
C760 H751 0.929 . S
C760 C752 1.378 . S
C760 C755 1.350 . S
C761 H748 0.929 . S
C761 C753 1.433 . S
C761 N763 1.384 . S
N762 C758 1.427 . S
N762 C759 1.384 . S
N763 C755 1.427 . S
N763 C761 1.384 . S
H764 C770 0.930 . S
H765 C774 0.930 . S
H766 C779 0.929 . S
H767 C777 0.929 . S
H768 C772 0.929 . S
H769 C778 0.929 . S
C770 H764 0.930 . S
C770 C771 1.367 . S
C770 C778 1.378 . S
C771 C770 1.367 . S
C771 C779 1.433 . S
C772 H768 0.929 . S
C772 C774 1.378 . S
C772 C776 1.350 . S
C773 C776 1.463 . S
C773 C778 1.350 . S
C773 N781 1.427 . S
C774 H765 0.930 . S
C774 C772 1.378 . S
C774 C775 1.367 . S
C775 C774 1.367 . S
C775 C777 1.433 . S
C776 C772 1.350 . S
C776 C773 1.463 . S
C776 N780 1.427 . S
C777 H767 0.929 . S
C777 C775 1.433 . S
C777 N780 1.384 . S
C778 H769 0.929 . S
C778 C770 1.378 . S
C778 C773 1.350 . S
C779 H766 0.929 . S
C779 C771 1.433 . S
C779 N781 1.384 . S
N780 C776 1.427 . S
N780 C777 1.384 . S
N781 C773 1.427 . S
N781 C779 1.384 . S
H782 C788 0.930 . S
H783 C792 0.930 . S
H784 C797 0.929 . S
H785 C795 0.929 . S
H786 C790 0.929 . S
H787 C796 0.929 . S
C788 H782 0.930 . S
C788 C789 1.367 . S
C788 C796 1.378 . S
C789 C788 1.367 . S
C789 C797 1.433 . S
C790 H786 0.929 . S
C790 C792 1.378 . S
C790 C794 1.350 . S
C791 C794 1.463 . S
C791 C796 1.350 . S
C791 N799 1.427 . S
C792 H783 0.930 . S
C792 C790 1.378 . S
C792 C793 1.367 . S
C793 C792 1.367 . S
C793 C795 1.433 . S
C794 C790 1.350 . S
C794 C791 1.463 . S
C794 N798 1.427 . S
C795 H785 0.929 . S
C795 C793 1.433 . S
C795 N798 1.384 . S
C796 H787 0.929 . S
C796 C788 1.378 . S
C796 C791 1.350 . S
C797 H784 0.929 . S
C797 C789 1.433 . S
C797 N799 1.384 . S
N798 C794 1.427 . S
N798 C795 1.384 . S
N799 C791 1.427 . S
N799 C797 1.384 . S
H800 C806 0.930 . S
H801 C810 0.930 . S
H802 C815 0.929 . S
H803 C813 0.929 . S
H804 C808 0.929 . S
H805 C814 0.929 . S
C806 H800 0.930 . S
C806 C807 1.367 . S
C806 C814 1.378 . S
C807 C806 1.367 . S
C807 C815 1.433 . S
C808 H804 0.929 . S
C808 C810 1.378 . S
C808 C812 1.350 . S
C809 C812 1.463 . S
C809 C814 1.350 . S
C809 N817 1.427 . S
C810 H801 0.930 . S
C810 C808 1.378 . S
C810 C811 1.367 1_556 S
C811 C810 1.367 1_554 S
C811 C813 1.433 . S
C812 C808 1.350 . S
C812 C809 1.463 . S
C812 N816 1.427 . S
C813 H803 0.929 . S
C813 C811 1.433 . S
C813 N816 1.384 1_554 S
C814 H805 0.929 . S
C814 C806 1.378 . S
C814 C809 1.350 . S
C815 H802 0.929 . S
C815 C807 1.433 . S
C815 N817 1.384 . S
N816 C812 1.427 . S
N816 C813 1.384 1_556 S
N817 C809 1.427 . S
N817 C815 1.384 . S
H818 C824 0.930 . S
H819 C828 0.930 . S
H820 C833 0.929 . S
H821 C831 0.929 . S
H822 C826 0.929 . S
H823 C832 0.929 . S
C824 H818 0.930 . S
C824 C825 1.367 . S
C824 C832 1.378 . S
C825 C824 1.367 . S
C825 C833 1.433 1_554 S
C826 H822 0.929 . S
C826 C828 1.378 . S
C826 C830 1.350 . S
C827 C830 1.463 . S
C827 C832 1.350 . S
C827 N835 1.427 . S
C828 H819 0.930 . S
C828 C826 1.378 . S
C828 C829 1.367 . S
C829 C828 1.367 . S
C829 C831 1.433 . S
C830 C826 1.350 . S
C830 C827 1.463 . S
C830 N834 1.427 . S
C831 H821 0.929 . S
C831 C829 1.433 . S
C831 N834 1.384 . S
C832 H823 0.929 . S
C832 C824 1.378 . S
C832 C827 1.350 . S
C833 H820 0.929 . S
C833 C825 1.433 1_556 S
C833 N835 1.384 1_556 S
N834 C830 1.427 . S
N834 C831 1.384 . S
N835 C827 1.427 . S
N835 C833 1.384 1_554 S
H836 C842 0.930 . S
H837 C846 0.930 . S
H838 C851 0.929 . S
H839 C849 0.929 . S
H840 C844 0.929 . S
H841 C850 0.929 . S
C842 H836 0.930 . S
C842 C843 1.367 1_556 S
C842 C850 1.378 . S
C843 C842 1.367 1_554 S
C843 C851 1.433 . S
C844 H840 0.929 . S
C844 C846 1.378 . S
C844 C848 1.350 . S
C845 C848 1.463 . S
C845 C850 1.350 . S
C845 N853 1.427 . S
C846 H837 0.930 . S
C846 C844 1.378 . S
C846 C847 1.367 . S
C847 C846 1.367 . S
C847 C849 1.433 . S
C848 C844 1.350 . S
C848 C845 1.463 . S
C848 N852 1.427 . S
C849 H839 0.929 . S
C849 C847 1.433 . S
C849 N852 1.384 . S
C850 H841 0.929 . S
C850 C842 1.378 . S
C850 C845 1.350 . S
C851 H838 0.929 . S
C851 C843 1.433 . S
C851 N853 1.384 1_554 S
N852 C848 1.427 . S
N852 C849 1.384 . S
N853 C845 1.427 . S
N853 C851 1.384 1_556 S
H854 C860 0.930 . S
H855 C864 0.930 . S
H856 C869 0.929 . S
H857 C867 0.929 . S
H858 C862 0.929 . S
H859 C868 0.929 . S
C860 H854 0.930 . S
C860 C861 1.367 . S
C860 C868 1.378 . S
C861 C860 1.367 . S
C861 C869 1.433 1_554 S
C862 H858 0.929 . S
C862 C864 1.378 . S
C862 C866 1.350 . S
C863 C866 1.463 . S
C863 C868 1.350 . S
C863 N871 1.427 . S
C864 H855 0.930 . S
C864 C862 1.378 . S
C864 C865 1.367 . S
C865 C864 1.367 . S
C865 C867 1.433 . S
C866 C862 1.350 . S
C866 C863 1.463 . S
C866 N870 1.427 . S
C867 H857 0.929 . S
C867 C865 1.433 . S
C867 N870 1.384 . S
C868 H859 0.929 . S
C868 C860 1.378 . S
C868 C863 1.350 . S
C869 H856 0.929 . S
C869 C861 1.433 1_556 S
C869 N871 1.384 1_556 S
N870 C866 1.427 . S
N870 C867 1.384 . S
N871 C863 1.427 . S
N871 C869 1.384 1_554 S
H872 C878 0.930 . S
H873 C882 0.930 . S
H874 C887 0.929 . S
H875 C885 0.929 . S
H876 C880 0.929 . S
H877 C886 0.929 . S
C878 H872 0.930 . S
C878 C879 1.367 . S
C878 C886 1.378 . S
C879 C878 1.367 . S
C879 C887 1.433 . S
C880 H876 0.929 . S
C880 C882 1.378 . S
C880 C884 1.350 . S
C881 C884 1.463 . S
C881 C886 1.350 . S
C881 N889 1.427 . S
C882 H873 0.930 . S
C882 C880 1.378 . S
C882 C883 1.367 . S
C883 C882 1.367 . S
C883 C885 1.433 . S
C884 C880 1.350 . S
C884 C881 1.463 . S
C884 N888 1.427 . S
C885 H875 0.929 . S
C885 C883 1.433 . S
C885 N888 1.384 . S
C886 H877 0.929 . S
C886 C878 1.378 . S
C886 C881 1.350 . S
C887 H874 0.929 . S
C887 C879 1.433 . S
C887 N889 1.384 . S
N888 C884 1.427 . S
N888 C885 1.384 . S
N889 C881 1.427 . S
N889 C887 1.384 . S
H890 C896 0.930 . S
H891 C900 0.930 . S
H892 C905 0.929 . S
H893 C903 0.929 . S
H894 C898 0.929 . S
H895 C904 0.929 . S
C896 H890 0.930 . S
C896 C897 1.367 . S
C896 C904 1.378 . S
C897 C896 1.367 . S
C897 C905 1.433 . S
C898 H894 0.929 . S
C898 C900 1.378 . S
C898 C902 1.350 . S
C899 C902 1.463 . S
C899 C904 1.350 . S
C899 N907 1.427 . S
C900 H891 0.930 . S
C900 C898 1.378 . S
C900 C901 1.367 . S
C901 C900 1.367 . S
C901 C903 1.433 . S
C902 C898 1.350 . S
C902 C899 1.463 . S
C902 N906 1.427 . S
C903 H893 0.929 . S
C903 C901 1.433 . S
C903 N906 1.384 . S
C904 H895 0.929 . S
C904 C896 1.378 . S
C904 C899 1.350 . S
C905 H892 0.929 . S
C905 C897 1.433 . S
C905 N907 1.384 . S
N906 C902 1.427 . S
N906 C903 1.384 . S
N907 C899 1.427 . S
N907 C905 1.384 . S
H908 C914 0.930 . S
H909 C918 0.930 . S
H910 C923 0.929 . S
H911 C921 0.929 . S
H912 C916 0.929 . S
H913 C922 0.929 . S
C914 H908 0.930 . S
C914 C915 1.367 . S
C914 C922 1.378 . S
C915 C914 1.367 . S
C915 C923 1.433 . S
C916 H912 0.929 . S
C916 C918 1.378 . S
C916 C920 1.350 . S
C917 C920 1.463 . S
C917 C922 1.350 . S
C917 N925 1.427 . S
C918 H909 0.930 . S
C918 C916 1.378 . S
C918 C919 1.367 . S
C919 C918 1.367 . S
C919 C921 1.433 . S
C920 C916 1.350 . S
C920 C917 1.463 . S
C920 N924 1.427 . S
C921 H911 0.929 . S
C921 C919 1.433 . S
C921 N924 1.384 . S
C922 H913 0.929 . S
C922 C914 1.378 . S
C922 C917 1.350 . S
C923 H910 0.929 . S
C923 C915 1.433 . S
C923 N925 1.384 . S
N924 C920 1.427 . S
N924 C921 1.384 . S
N925 C917 1.427 . S
N925 C923 1.384 . S
H926 C932 0.930 . S
H927 C936 0.930 . S
H928 C941 0.929 . S
H929 C939 0.929 . S
H930 C934 0.929 . S
H931 C940 0.929 . S
C932 H926 0.930 . S
C932 C933 1.367 . S
C932 C940 1.378 . S
C933 C932 1.367 . S
C933 C941 1.433 . S
C934 H930 0.929 . S
C934 C936 1.378 . S
C934 C938 1.350 . S
C935 C938 1.463 . S
C935 C940 1.350 . S
C935 N943 1.427 . S
C936 H927 0.930 . S
C936 C934 1.378 . S
C936 C937 1.367 . S
C937 C936 1.367 . S
C937 C939 1.433 . S
C938 C934 1.350 . S
C938 C935 1.463 . S
C938 N942 1.427 . S
C939 H929 0.929 . S
C939 C937 1.433 . S
C939 N942 1.384 . S
C940 H931 0.929 . S
C940 C932 1.378 . S
C940 C935 1.350 . S
C941 H928 0.929 . S
C941 C933 1.433 . S
C941 N943 1.384 . S
N942 C938 1.427 . S
N942 C939 1.384 . S
N943 C935 1.427 . S
N943 C941 1.384 . S
H944 C950 0.930 . S
H945 C954 0.930 . S
H946 C959 0.929 . S
H947 C957 0.929 . S
H948 C952 0.929 . S
H949 C958 0.929 . S
C950 H944 0.930 . S
C950 C951 1.367 . S
C950 C958 1.378 . S
C951 C950 1.367 . S
C951 C959 1.433 . S
C952 H948 0.929 . S
C952 C954 1.378 . S
C952 C956 1.350 . S
C953 C956 1.463 . S
C953 C958 1.350 . S
C953 N961 1.427 . S
C954 H945 0.930 . S
C954 C952 1.378 . S
C954 C955 1.367 . S
C955 C954 1.367 . S
C955 C957 1.433 . S
C956 C952 1.350 . S
C956 C953 1.463 . S
C956 N960 1.427 . S
C957 H947 0.929 . S
C957 C955 1.433 . S
C957 N960 1.384 . S
C958 H949 0.929 . S
C958 C950 1.378 . S
C958 C953 1.350 . S
C959 H946 0.929 . S
C959 C951 1.433 . S
C959 N961 1.384 . S
N960 C956 1.427 . S
N960 C957 1.384 . S
N961 C953 1.427 . S
N961 C959 1.384 . S
H962 C968 0.930 . S
H963 C972 0.930 . S
H964 C977 0.929 . S
H965 C975 0.929 . S
H966 C970 0.929 . S
H967 C976 0.929 . S
C968 H962 0.930 . S
C968 C969 1.367 . S
C968 C976 1.378 . S
C969 C968 1.367 . S
C969 C977 1.433 . S
C970 H966 0.929 . S
C970 C972 1.378 . S
C970 C974 1.350 . S
C971 C974 1.463 . S
C971 C976 1.350 . S
C971 N979 1.427 . S
C972 H963 0.930 . S
C972 C970 1.378 . S
C972 C973 1.367 . S
C973 C972 1.367 . S
C973 C975 1.433 . S
C974 C970 1.350 . S
C974 C971 1.463 . S
C974 N978 1.427 . S
C975 H965 0.929 . S
C975 C973 1.433 . S
C975 N978 1.384 . S
C976 H967 0.929 . S
C976 C968 1.378 . S
C976 C971 1.350 . S
C977 H964 0.929 . S
C977 C969 1.433 . S
C977 N979 1.384 . S
N978 C974 1.427 . S
N978 C975 1.384 . S
N979 C971 1.427 . S
N979 C977 1.384 . S
H980 C986 0.930 . S
H981 C990 0.930 . S
H982 C995 0.929 . S
H983 C993 0.929 . S
H984 C988 0.929 . S
H985 C994 0.929 . S
C986 H980 0.930 . S
C986 C987 1.367 . S
C986 C994 1.378 . S
C987 C986 1.367 . S
C987 C995 1.433 . S
C988 H984 0.929 . S
C988 C990 1.378 . S
C988 C992 1.350 . S
C989 C992 1.463 . S
C989 C994 1.350 . S
C989 N997 1.427 . S
C990 H981 0.930 . S
C990 C988 1.378 . S
C990 C991 1.367 . S
C991 C990 1.367 . S
C991 C993 1.433 . S
C992 C988 1.350 . S
C992 C989 1.463 . S
C992 N996 1.427 . S
C993 H983 0.929 . S
C993 C991 1.433 . S
C993 N996 1.384 . S
C994 H985 0.929 . S
C994 C986 1.378 . S
C994 C989 1.350 . S
C995 H982 0.929 . S
C995 C987 1.433 . S
C995 N997 1.384 . S
N996 C992 1.427 . S
N996 C993 1.384 . S
N997 C989 1.427 . S
N997 C995 1.384 . S
H998 C1004 0.930 . S
H999 C1008 0.930 . S
H1000 C1013 0.929 . S
H1001 C1011 0.929 . S
H1002 C1006 0.929 . S
H1003 C1012 0.929 . S
C1004 H998 0.930 . S
C1004 C1005 1.367 . S
C1004 C1012 1.378 . S
C1005 C1004 1.367 . S
C1005 C1013 1.433 . S
C1006 H1002 0.929 . S
C1006 C1008 1.378 . S
C1006 C1010 1.350 . S
C1007 C1010 1.463 . S
C1007 C1012 1.350 . S
C1007 N1015 1.427 . S
C1008 H999 0.930 . S
C1008 C1006 1.378 . S
C1008 C1009 1.367 . S
C1009 C1008 1.367 . S
C1009 C1011 1.433 . S
C1010 C1006 1.350 . S
C1010 C1007 1.463 . S
C1010 N1014 1.427 . S
C1011 H1001 0.929 . S
C1011 C1009 1.433 . S
C1011 N1014 1.384 . S
C1012 H1003 0.929 . S
C1012 C1004 1.378 . S
C1012 C1007 1.350 . S
C1013 H1000 0.929 . S
C1013 C1005 1.433 . S
C1013 N1015 1.384 . S
N1014 C1010 1.427 . S
N1014 C1011 1.384 . S
N1015 C1007 1.427 . S
N1015 C1013 1.384 . S
H1016 C1022 0.930 . S
H1017 C1026 0.930 . S
H1018 C1031 0.929 . S
H1019 C1029 0.929 . S
H1020 C1024 0.929 . S
H1021 C1030 0.929 . S
C1022 H1016 0.930 . S
C1022 C1023 1.367 . S
C1022 C1030 1.378 . S
C1023 C1022 1.367 . S
C1023 C1031 1.433 . S
C1024 H1020 0.929 . S
C1024 C1026 1.378 . S
C1024 C1028 1.350 . S
C1025 C1028 1.463 . S
C1025 C1030 1.350 . S
C1025 N1033 1.427 . S
C1026 H1017 0.930 . S
C1026 C1024 1.378 . S
C1026 C1027 1.367 . S
C1027 C1026 1.367 . S
C1027 C1029 1.433 . S
C1028 C1024 1.350 . S
C1028 C1025 1.463 . S
C1028 N1032 1.427 . S
C1029 H1019 0.929 . S
C1029 C1027 1.433 . S
C1029 N1032 1.384 . S
C1030 H1021 0.929 . S
C1030 C1022 1.378 . S
C1030 C1025 1.350 . S
C1031 H1018 0.929 . S
C1031 C1023 1.433 . S
C1031 N1033 1.384 . S
N1032 C1028 1.427 . S
N1032 C1029 1.384 . S
N1033 C1025 1.427 . S
N1033 C1031 1.384 . S
H1034 C1040 0.930 . S
H1035 C1044 0.930 . S
H1036 C1049 0.929 . S
H1037 C1047 0.929 . S
H1038 C1042 0.929 . S
H1039 C1048 0.929 . S
C1040 H1034 0.930 . S
C1040 C1041 1.367 . S
C1040 C1048 1.378 . S
C1041 C1040 1.367 . S
C1041 C1049 1.433 . S
C1042 H1038 0.929 . S
C1042 C1044 1.378 . S
C1042 C1046 1.350 . S
C1043 C1046 1.463 . S
C1043 C1048 1.350 . S
C1043 N1051 1.427 . S
C1044 H1035 0.930 . S
C1044 C1042 1.378 . S
C1044 C1045 1.367 . S
C1045 C1044 1.367 . S
C1045 C1047 1.433 . S
C1046 C1042 1.350 . S
C1046 C1043 1.463 . S
C1046 N1050 1.427 . S
C1047 H1037 0.929 . S
C1047 C1045 1.433 . S
C1047 N1050 1.384 . S
C1048 H1039 0.929 . S
C1048 C1040 1.378 . S
C1048 C1043 1.350 . S
C1049 H1036 0.929 . S
C1049 C1041 1.433 . S
C1049 N1051 1.384 . S
N1050 C1046 1.427 . S
N1050 C1047 1.384 . S
N1051 C1043 1.427 . S
N1051 C1049 1.384 . S
H1052 C1058 0.930 . S
H1053 C1062 0.930 . S
H1054 C1067 0.929 . S
H1055 C1065 0.929 . S
H1056 C1060 0.929 . S
H1057 C1066 0.929 . S
C1058 H1052 0.930 . S
C1058 C1059 1.367 . S
C1058 C1066 1.378 . S
C1059 C1058 1.367 . S
C1059 C1067 1.433 . S
C1060 H1056 0.929 . S
C1060 C1062 1.378 . S
C1060 C1064 1.350 . S
C1061 C1064 1.463 . S
C1061 C1066 1.350 . S
C1061 N1069 1.427 . S
C1062 H1053 0.930 . S
C1062 C1060 1.378 . S
C1062 C1063 1.367 . S
C1063 C1062 1.367 . S
C1063 C1065 1.433 . S
C1064 C1060 1.350 . S
C1064 C1061 1.463 . S
C1064 N1068 1.427 . S
C1065 H1055 0.929 . S
C1065 C1063 1.433 . S
C1065 N1068 1.384 . S
C1066 H1057 0.929 . S
C1066 C1058 1.378 . S
C1066 C1061 1.350 . S
C1067 H1054 0.929 . S
C1067 C1059 1.433 . S
C1067 N1069 1.384 . S
N1068 C1064 1.427 . S
N1068 C1065 1.384 . S
N1069 C1061 1.427 . S
N1069 C1067 1.384 . S
H1070 C1076 0.930 . S
H1071 C1080 0.930 . S
H1072 C1085 0.929 . S
H1073 C1083 0.929 . S
H1074 C1078 0.929 . S
H1075 C1084 0.929 . S
C1076 H1070 0.930 . S
C1076 C1077 1.367 . S
C1076 C1084 1.378 . S
C1077 C1076 1.367 . S
C1077 C1085 1.433 . S
C1078 H1074 0.929 . S
C1078 C1080 1.378 . S
C1078 C1082 1.350 . S
C1079 C1082 1.463 . S
C1079 C1084 1.350 . S
C1079 N1087 1.427 . S
C1080 H1071 0.930 . S
C1080 C1078 1.378 . S
C1080 C1081 1.367 . S
C1081 C1080 1.367 . S
C1081 C1083 1.433 . S
C1082 C1078 1.350 . S
C1082 C1079 1.463 . S
C1082 N1086 1.427 . S
C1083 H1073 0.929 . S
C1083 C1081 1.433 . S
C1083 N1086 1.384 . S
C1084 H1075 0.929 . S
C1084 C1076 1.378 . S
C1084 C1079 1.350 . S
C1085 H1072 0.929 . S
C1085 C1077 1.433 . S
C1085 N1087 1.384 . S
N1086 C1082 1.427 . S
N1086 C1083 1.384 . S
N1087 C1079 1.427 . S
N1087 C1085 1.384 . S
H1088 C1094 0.930 . S
H1089 C1098 0.930 . S
H1090 C1103 0.929 . S
H1091 C1101 0.929 . S
H1092 C1096 0.929 . S
H1093 C1102 0.929 . S
C1094 H1088 0.930 . S
C1094 C1095 1.367 . S
C1094 C1102 1.378 1_556 S
C1095 C1094 1.367 . S
C1095 C1103 1.433 . S
C1096 H1092 0.929 . S
C1096 C1098 1.378 . S
C1096 C1100 1.350 . S
C1097 C1100 1.463 . S
C1097 C1102 1.350 . S
C1097 N1105 1.427 . S
C1098 H1089 0.930 . S
C1098 C1096 1.378 . S
C1098 C1099 1.367 . S
C1099 C1098 1.367 . S
C1099 C1101 1.433 . S
C1100 C1096 1.350 . S
C1100 C1097 1.463 . S
C1100 N1104 1.427 . S
C1101 H1091 0.929 . S
C1101 C1099 1.433 . S
C1101 N1104 1.384 . S
C1102 H1093 0.929 . S
C1102 C1094 1.378 1_554 S
C1102 C1097 1.350 . S
C1103 H1090 0.929 . S
C1103 C1095 1.433 . S
C1103 N1105 1.384 1_556 S
N1104 C1100 1.427 . S
N1104 C1101 1.384 . S
N1105 C1097 1.427 . S
N1105 C1103 1.384 1_554 S
H1106 C1112 0.930 . S
H1107 C1116 0.930 . S
H1108 C1121 0.929 . S
H1109 C1119 0.929 . S
H1110 C1114 0.929 . S
H1111 C1120 0.929 . S
C1112 H1106 0.930 . S
C1112 C1113 1.367 . S
C1112 C1120 1.378 . S
C1113 C1112 1.367 . S
C1113 C1121 1.433 . S
C1114 H1110 0.929 . S
C1114 C1116 1.378 1_556 S
C1114 C1118 1.350 . S
C1115 C1118 1.463 . S
C1115 C1120 1.350 . S
C1115 N1123 1.427 . S
C1116 H1107 0.930 . S
C1116 C1114 1.378 1_554 S
C1116 C1117 1.367 . S
C1117 C1116 1.367 . S
C1117 C1119 1.433 . S
C1118 C1114 1.350 . S
C1118 C1115 1.463 . S
C1118 N1122 1.427 . S
C1119 H1109 0.929 . S
C1119 C1117 1.433 . S
C1119 N1122 1.384 1_554 S
C1120 H1111 0.929 . S
C1120 C1112 1.378 . S
C1120 C1115 1.350 . S
C1121 H1108 0.929 . S
C1121 C1113 1.433 . S
C1121 N1123 1.384 . S
N1122 C1118 1.427 . S
N1122 C1119 1.384 1_556 S
N1123 C1115 1.427 . S
N1123 C1121 1.384 . S
H1124 C1130 0.930 . S
H1125 C1134 0.930 . S
H1126 C1139 0.929 . S
H1127 C1137 0.929 . S
H1128 C1132 0.929 . S
H1129 C1138 0.929 . S
C1130 H1124 0.930 . S
C1130 C1131 1.367 . S
C1130 C1138 1.378 . S
C1131 C1130 1.367 . S
C1131 C1139 1.433 . S
C1132 H1128 0.929 . S
C1132 C1134 1.378 1_554 S
C1132 C1136 1.350 . S
C1133 C1136 1.463 . S
C1133 C1138 1.350 . S
C1133 N1141 1.427 . S
C1134 H1125 0.930 . S
C1134 C1132 1.378 1_556 S
C1134 C1135 1.367 . S
C1135 C1134 1.367 . S
C1135 C1137 1.433 . S
C1136 C1132 1.350 . S
C1136 C1133 1.463 . S
C1136 N1140 1.427 . S
C1137 H1127 0.929 . S
C1137 C1135 1.433 . S
C1137 N1140 1.384 1_556 S
C1138 H1129 0.929 . S
C1138 C1130 1.378 . S
C1138 C1133 1.350 . S
C1139 H1126 0.929 . S
C1139 C1131 1.433 . S
C1139 N1141 1.384 . S
N1140 C1136 1.427 . S
N1140 C1137 1.384 1_554 S
N1141 C1133 1.427 . S
N1141 C1139 1.384 . S
H1142 C1148 0.930 . S
H1143 C1152 0.930 . S
H1144 C1157 0.929 . S
H1145 C1155 0.929 . S
H1146 C1150 0.929 . S
H1147 C1156 0.929 . S
C1148 H1142 0.930 . S
C1148 C1149 1.367 . S
C1148 C1156 1.378 1_554 S
C1149 C1148 1.367 . S
C1149 C1157 1.433 . S
C1150 H1146 0.929 . S
C1150 C1152 1.378 . S
C1150 C1154 1.350 . S
C1151 C1154 1.463 . S
C1151 C1156 1.350 . S
C1151 N1159 1.427 . S
C1152 H1143 0.930 . S
C1152 C1150 1.378 . S
C1152 C1153 1.367 . S
C1153 C1152 1.367 . S
C1153 C1155 1.433 . S
C1154 C1150 1.350 . S
C1154 C1151 1.463 . S
C1154 N1158 1.427 . S
C1155 H1145 0.929 . S
C1155 C1153 1.433 . S
C1155 N1158 1.384 . S
C1156 H1147 0.929 . S
C1156 C1148 1.378 1_556 S
C1156 C1151 1.350 . S
C1157 H1144 0.929 . S
C1157 C1149 1.433 . S
C1157 N1159 1.384 1_554 S
N1158 C1154 1.427 . S
N1158 C1155 1.384 . S
N1159 C1151 1.427 . S
N1159 C1157 1.384 1_556 S
H1160 C1166 0.930 . S
H1161 C1170 0.930 . S
H1162 C1175 0.929 . S
H1163 C1173 0.929 . S
H1164 C1168 0.929 . S
H1165 C1174 0.929 . S
C1166 H1160 0.930 . S
C1166 C1167 1.367 . S
C1166 C1174 1.378 . S
C1167 C1166 1.367 . S
C1167 C1175 1.433 . S
C1168 H1164 0.929 . S
C1168 C1170 1.378 1_554 S
C1168 C1172 1.350 . S
C1169 C1172 1.463 . S
C1169 C1174 1.350 . S
C1169 N1177 1.427 . S
C1170 H1161 0.930 . S
C1170 C1168 1.378 1_556 S
C1170 C1171 1.367 . S
C1171 C1170 1.367 . S
C1171 C1173 1.433 . S
C1172 C1168 1.350 . S
C1172 C1169 1.463 . S
C1172 N1176 1.427 . S
C1173 H1163 0.929 . S
C1173 C1171 1.433 . S
C1173 N1176 1.384 1_556 S
C1174 H1165 0.929 . S
C1174 C1166 1.378 . S
C1174 C1169 1.350 . S
C1175 H1162 0.929 . S
C1175 C1167 1.433 . S
C1175 N1177 1.384 . S
N1176 C1172 1.427 . S
N1176 C1173 1.384 1_554 S
N1177 C1169 1.427 . S
N1177 C1175 1.384 . S
H1178 C1184 0.930 . S
H1179 C1188 0.930 . S
H1180 C1193 0.929 . S
H1181 C1191 0.929 . S
H1182 C1186 0.929 . S
H1183 C1192 0.929 . S
C1184 H1178 0.930 . S
C1184 C1185 1.367 . S
C1184 C1192 1.378 1_554 S
C1185 C1184 1.367 . S
C1185 C1193 1.433 . S
C1186 H1182 0.929 . S
C1186 C1188 1.378 . S
C1186 C1190 1.350 . S
C1187 C1190 1.463 . S
C1187 C1192 1.350 . S
C1187 N1195 1.427 . S
C1188 H1179 0.930 . S
C1188 C1186 1.378 . S
C1188 C1189 1.367 . S
C1189 C1188 1.367 . S
C1189 C1191 1.433 . S
C1190 C1186 1.350 . S
C1190 C1187 1.463 . S
C1190 N1194 1.427 . S
C1191 H1181 0.929 . S
C1191 C1189 1.433 . S
C1191 N1194 1.384 . S
C1192 H1183 0.929 . S
C1192 C1184 1.378 1_556 S
C1192 C1187 1.350 . S
C1193 H1180 0.929 . S
C1193 C1185 1.433 . S
C1193 N1195 1.384 1_554 S
N1194 C1190 1.427 . S
N1194 C1191 1.384 . S
N1195 C1187 1.427 . S
N1195 C1193 1.384 1_556 S
H1196 C1202 0.930 . S
H1197 C1206 0.930 . S
H1198 C1211 0.929 . S
H1199 C1209 0.929 . S
H1200 C1204 0.929 . S
H1201 C1210 0.929 . S
C1202 H1196 0.930 . S
C1202 C1203 1.367 . S
C1202 C1210 1.378 1_556 S
C1203 C1202 1.367 . S
C1203 C1211 1.433 . S
C1204 H1200 0.929 . S
C1204 C1206 1.378 . S
C1204 C1208 1.350 . S
C1205 C1208 1.463 . S
C1205 C1210 1.350 . S
C1205 N1213 1.427 . S
C1206 H1197 0.930 . S
C1206 C1204 1.378 . S
C1206 C1207 1.367 . S
C1207 C1206 1.367 . S
C1207 C1209 1.433 . S
C1208 C1204 1.350 . S
C1208 C1205 1.463 . S
C1208 N1212 1.427 . S
C1209 H1199 0.929 . S
C1209 C1207 1.433 . S
C1209 N1212 1.384 . S
C1210 H1201 0.929 . S
C1210 C1202 1.378 1_554 S
C1210 C1205 1.350 . S
C1211 H1198 0.929 . S
C1211 C1203 1.433 . S
C1211 N1213 1.384 1_556 S
N1212 C1208 1.427 . S
N1212 C1209 1.384 . S
N1213 C1205 1.427 . S
N1213 C1211 1.384 1_554 S
H1214 C1220 0.930 . S
H1215 C1224 0.930 . S
H1216 C1229 0.929 . S
H1217 C1227 0.929 . S
H1218 C1222 0.929 . S
H1219 C1228 0.929 . S
C1220 H1214 0.930 . S
C1220 C1221 1.367 . S
C1220 C1228 1.378 . S
C1221 C1220 1.367 . S
C1221 C1229 1.433 . S
C1222 H1218 0.929 . S
C1222 C1224 1.378 1_556 S
C1222 C1226 1.350 . S
C1223 C1226 1.463 . S
C1223 C1228 1.350 . S
C1223 N1231 1.427 . S
C1224 H1215 0.930 . S
C1224 C1222 1.378 1_554 S
C1224 C1225 1.367 . S
C1225 C1224 1.367 . S
C1225 C1227 1.433 . S
C1226 C1222 1.350 . S
C1226 C1223 1.463 . S
C1226 N1230 1.427 . S
C1227 H1217 0.929 . S
C1227 C1225 1.433 . S
C1227 N1230 1.384 1_554 S
C1228 H1219 0.929 . S
C1228 C1220 1.378 . S
C1228 C1223 1.350 . S
C1229 H1216 0.929 . S
C1229 C1221 1.433 . S
C1229 N1231 1.384 . S
N1230 C1226 1.427 . S
N1230 C1227 1.384 1_556 S
N1231 C1223 1.427 . S
N1231 C1229 1.384 . S
C375 C274 1.471 . S
C379 C20 1.522 . S
C393 C205 1.474 . S
C397 C42 1.543 . S
C411 C66 1.519 . S
C415 C228 1.481 . S
C429 C88 1.546 . S
C433 C251 1.469 . S
C447 C112 1.524 . S
C451 C136 1.470 . S
C465 C159 1.474 . S
C469 C134 1.543 . S
C483 C158 1.527 . S
C487 C182 1.472 . S
C501 C113 1.472 . S
C505 C180 1.544 . S
C519 C90 1.470 . S
C523 C204 1.525 . S
C537 C226 1.543 . S
C541 C21 1.481 . S
C555 C44 1.471 . S
C559 C250 1.522 . S
C573 C67 1.482 . S
C577 C272 1.543 . S
C591 C296 1.520 . S
C595 C320 1.485 . S
C609 C343 1.480 . S
C613 C318 1.543 . S
C627 C366 1.485 . S
C631 C342 1.524 . S
C645 C364 1.542 . S
C649 C297 1.484 . S
C663 C19 1.267 . S
C667 C111 1.267 . S
C681 C135 1.347 . S
C685 C43 1.347 . S
C699 C65 1.249 . S
C703 C157 1.250 . S
C717 C89 1.348 . S
C721 C181 1.345 . S
C735 C203 1.252 . S
C739 C295 1.253 . S
C753 C319 1.339 . S
C757 C227 1.347 . S
C771 C249 1.257 . S
C775 C341 1.258 . S
C789 C273 1.334 . S
C793 C365 1.335 . S
C807 C340 1.659 . S
C811 C18 1.662 . S
C825 C41 1.700 1_554 S
C829 C363 1.705 . S
C843 C64 1.658 . S
C847 C294 1.664 . S
C861 C87 1.701 1_554 S
C865 C317 1.704 . S
C879 C110 1.659 . S
C883 C248 1.664 . S
C897 C133 1.706 . S
C901 C271 1.701 . S
C915 C156 1.659 . S
C919 C202 1.664 . S
C933 C225 1.705 . S
C937 C179 1.700 . S
C951 C17 0.951 . S
C955 C16 0.949 . S
C969 C40 0.935 . S
C973 C39 0.933 . S
C987 C63 0.952 . S
C991 C62 0.950 . S
C1005 C85 0.935 . S
C1009 C86 0.936 . S
C1023 C108 0.943 . S
C1027 C109 0.946 . S
C1041 C132 0.927 . S
C1045 C131 0.924 . S
C1059 C155 0.941 . S
C1063 C154 0.939 . S
C1077 C177 0.924 . S
C1081 C178 0.926 . S
C1095 C201 0.951 . S
C1099 C200 0.950 . S
C1113 C223 0.927 . S
C1117 C224 0.929 . S
C1131 C246 0.949 . S
C1135 C247 0.950 . S
C1149 C270 0.937 . S
C1153 C269 0.936 . S
C1167 C293 0.938 . S
C1171 C292 0.935 . S
C1185 C315 0.935 . S
C1189 C316 0.936 . S
C1203 C338 0.942 . S
C1207 C339 0.943 . S
C1221 C362 0.938 . S
C1225 C361 0.936 . S
