# Generated by pormake.
# Topology afi, (4)-cn, num edge types: 1
# Building blocks:
#     Node 0, Type 0, BuildingBlock: CEKHIL_clean_sbu_0, # of connection points: 4
#     Node 1, Type 0, BuildingBlock: CEKHIL_clean_sbu_0, # of connection points: 4
#     Node 2, Type 0, BuildingBlock: CEKHIL_clean_sbu_0, # of connection points: 4
#     Node 3, Type 0, BuildingBlock: CEKHIL_clean_sbu_0, # of connection points: 4
#     Node 4, Type 0, BuildingBlock: CEKHIL_clean_sbu_0, # of connection points: 4
#     Node 5, Type 0, BuildingBlock: CEKHIL_clean_sbu_0, # of connection points: 4
#     Node 6, Type 0, BuildingBlock: CEKHIL_clean_sbu_0, # of connection points: 4
#     Node 7, Type 0, BuildingBlock: CEKHIL_clean_sbu_0, # of connection points: 4
#     Node 8, Type 0, BuildingBlock: CEKHIL_clean_sbu_0, # of connection points: 4
#     Node 9, Type 0, BuildingBlock: CEKHIL_clean_sbu_0, # of connection points: 4
#     Node 10, Type 0, BuildingBlock: CEKHIL_clean_sbu_0, # of connection points: 4
#     Node 11, Type 0, BuildingBlock: CEKHIL_clean_sbu_0, # of connection points: 4
#     Node 12, Type 0, BuildingBlock: CEKHIL_clean_sbu_0, # of connection points: 4
#     Node 13, Type 0, BuildingBlock: CEKHIL_clean_sbu_0, # of connection points: 4
#     Node 14, Type 0, BuildingBlock: CEKHIL_clean_sbu_0, # of connection points: 4
#     Node 15, Type 0, BuildingBlock: CEKHIL_clean_sbu_0, # of connection points: 4
#     Node 16, Type 0, BuildingBlock: CEKHIL_clean_sbu_0, # of connection points: 4
#     Node 17, Type 0, BuildingBlock: CEKHIL_clean_sbu_0, # of connection points: 4
#     Node 18, Type 0, BuildingBlock: CEKHIL_clean_sbu_0, # of connection points: 4
#     Node 19, Type 0, BuildingBlock: CEKHIL_clean_sbu_0, # of connection points: 4
#     Node 20, Type 0, BuildingBlock: CEKHIL_clean_sbu_0, # of connection points: 4
#     Node 21, Type 0, BuildingBlock: CEKHIL_clean_sbu_0, # of connection points: 4
#     Node 22, Type 0, BuildingBlock: CEKHIL_clean_sbu_0, # of connection points: 4
#     Node 23, Type 0, BuildingBlock: CEKHIL_clean_sbu_0, # of connection points: 4
#     Edge 24, Type (0, 0), BuildingBlock: EZIPEK_clean_linker_0, # of connection points: 2
#     Edge 25, Type (0, 0), BuildingBlock: EZIPEK_clean_linker_0, # of connection points: 2
#     Edge 26, Type (0, 0), BuildingBlock: EZIPEK_clean_linker_0, # of connection points: 2
#     Edge 27, Type (0, 0), BuildingBlock: EZIPEK_clean_linker_0, # of connection points: 2
#     Edge 28, Type (0, 0), BuildingBlock: EZIPEK_clean_linker_0, # of connection points: 2
#     Edge 29, Type (0, 0), BuildingBlock: EZIPEK_clean_linker_0, # of connection points: 2
#     Edge 30, Type (0, 0), BuildingBlock: EZIPEK_clean_linker_0, # of connection points: 2
#     Edge 31, Type (0, 0), BuildingBlock: EZIPEK_clean_linker_0, # of connection points: 2
#     Edge 32, Type (0, 0), BuildingBlock: EZIPEK_clean_linker_0, # of connection points: 2
#     Edge 33, Type (0, 0), BuildingBlock: EZIPEK_clean_linker_0, # of connection points: 2
#     Edge 34, Type (0, 0), BuildingBlock: EZIPEK_clean_linker_0, # of connection points: 2
#     Edge 35, Type (0, 0), BuildingBlock: EZIPEK_clean_linker_0, # of connection points: 2
#     Edge 36, Type (0, 0), BuildingBlock: EZIPEK_clean_linker_0, # of connection points: 2
#     Edge 37, Type (0, 0), BuildingBlock: EZIPEK_clean_linker_0, # of connection points: 2
#     Edge 38, Type (0, 0), BuildingBlock: EZIPEK_clean_linker_0, # of connection points: 2
#     Edge 39, Type (0, 0), BuildingBlock: EZIPEK_clean_linker_0, # of connection points: 2
#     Edge 40, Type (0, 0), BuildingBlock: EZIPEK_clean_linker_0, # of connection points: 2
#     Edge 41, Type (0, 0), BuildingBlock: EZIPEK_clean_linker_0, # of connection points: 2
#     Edge 42, Type (0, 0), BuildingBlock: EZIPEK_clean_linker_0, # of connection points: 2
#     Edge 43, Type (0, 0), BuildingBlock: EZIPEK_clean_linker_0, # of connection points: 2
#     Edge 44, Type (0, 0), BuildingBlock: EZIPEK_clean_linker_0, # of connection points: 2
#     Edge 45, Type (0, 0), BuildingBlock: EZIPEK_clean_linker_0, # of connection points: 2
#     Edge 46, Type (0, 0), BuildingBlock: EZIPEK_clean_linker_0, # of connection points: 2
#     Edge 47, Type (0, 0), BuildingBlock: EZIPEK_clean_linker_0, # of connection points: 2
#     Edge 48, Type (0, 0), BuildingBlock: EZIPEK_clean_linker_0, # of connection points: 2
#     Edge 49, Type (0, 0), BuildingBlock: EZIPEK_clean_linker_0, # of connection points: 2
#     Edge 50, Type (0, 0), BuildingBlock: EZIPEK_clean_linker_0, # of connection points: 2
#     Edge 51, Type (0, 0), BuildingBlock: EZIPEK_clean_linker_0, # of connection points: 2
#     Edge 52, Type (0, 0), BuildingBlock: EZIPEK_clean_linker_0, # of connection points: 2
#     Edge 53, Type (0, 0), BuildingBlock: EZIPEK_clean_linker_0, # of connection points: 2
#     Edge 54, Type (0, 0), BuildingBlock: EZIPEK_clean_linker_0, # of connection points: 2
#     Edge 55, Type (0, 0), BuildingBlock: EZIPEK_clean_linker_0, # of connection points: 2
#     Edge 56, Type (0, 0), BuildingBlock: EZIPEK_clean_linker_0, # of connection points: 2
#     Edge 57, Type (0, 0), BuildingBlock: EZIPEK_clean_linker_0, # of connection points: 2
#     Edge 58, Type (0, 0), BuildingBlock: EZIPEK_clean_linker_0, # of connection points: 2
#     Edge 59, Type (0, 0), BuildingBlock: EZIPEK_clean_linker_0, # of connection points: 2
#     Edge 60, Type (0, 0), BuildingBlock: EZIPEK_clean_linker_0, # of connection points: 2
#     Edge 61, Type (0, 0), BuildingBlock: EZIPEK_clean_linker_0, # of connection points: 2
#     Edge 62, Type (0, 0), BuildingBlock: EZIPEK_clean_linker_0, # of connection points: 2
#     Edge 63, Type (0, 0), BuildingBlock: EZIPEK_clean_linker_0, # of connection points: 2
#     Edge 64, Type (0, 0), BuildingBlock: EZIPEK_clean_linker_0, # of connection points: 2
#     Edge 65, Type (0, 0), BuildingBlock: EZIPEK_clean_linker_0, # of connection points: 2
#     Edge 66, Type (0, 0), BuildingBlock: EZIPEK_clean_linker_0, # of connection points: 2
#     Edge 67, Type (0, 0), BuildingBlock: EZIPEK_clean_linker_0, # of connection points: 2
#     Edge 68, Type (0, 0), BuildingBlock: EZIPEK_clean_linker_0, # of connection points: 2
#     Edge 69, Type (0, 0), BuildingBlock: EZIPEK_clean_linker_0, # of connection points: 2
#     Edge 70, Type (0, 0), BuildingBlock: EZIPEK_clean_linker_0, # of connection points: 2
#     Edge 71, Type (0, 0), BuildingBlock: EZIPEK_clean_linker_0, # of connection points: 2
# Relax obj value: 0.097
# Max RMSD: 0.106
# Mean RMSD: 0.106
data_MOF--net-afi--node1-CEKHIL_clean_sbu_0--edge1-EZIPEK_clean_linker_0
_symmetry_space_group_name_H-M    P1
_symmetry_Int_Tables_number       1
_symmetry_cell_setting            triclinic
loop_
_symmetry_equiv_pos_as_xyz
'x, y, z'
_cell_length_a     49.439206
_cell_length_b     49.522053
_cell_length_c     28.292352
_cell_angle_alpha  90.010161
_cell_angle_beta   90.016645
_cell_angle_gamma 120.06641
loop_
_atom_site_label
_atom_site_type_symbol
_atom_site_fract_x
_atom_site_fract_y
_atom_site_fract_z
_atom_type_partial_charge
Co0 Co 0.47779 0.13887 0.20464 0.0
O1 O 0.49735 0.18403 0.20353 0.0
O2 O 0.45013 0.15207 0.23162 0.0
C3 C 0.52025 0.13789 0.23321 0.0
O4 O 0.4497 0.09155 0.21508 0.0
Co5 Co 0.50182 0.1022 0.14621 0.0
O6 O 0.47209 0.0657 0.18409 0.0
C7 C 0.46877 0.13035 0.09834 0.0
C8 C 0.4723 0.18055 0.22399 0.0
C9 C 0.45092 0.06635 0.20886 0.0
O10 O 0.46054 0.13652 0.13841 0.0
O11 O 0.48695 0.11907 0.09439 0.0
O12 O 0.50168 0.14144 0.26177 0.0
O13 O 0.51389 0.137 0.18886 0.0
Co14 Co 0.34154 0.46955 0.20506 0.0
O15 O 0.31601 0.48915 0.20388 0.0
O16 O 0.30058 0.44196 0.23196 0.0
C17 C 0.38505 0.51178 0.23404 0.0
O18 O 0.36084 0.44156 0.21542 0.0
Co19 Co 0.40232 0.49379 0.14645 0.0
O20 O 0.40901 0.4639 0.18384 0.0
C21 C 0.34102 0.46054 0.09867 0.0
C22 C 0.29436 0.46415 0.2243 0.0
C23 C 0.38729 0.4428 0.20885 0.0
O24 O 0.32665 0.45237 0.13878 0.0
O25 O 0.37051 0.47877 0.09466 0.0
O26 O 0.36277 0.49321 0.26236 0.0
O27 O 0.37965 0.50565 0.1896 0.0
Co28 Co 0.87479 0.33806 0.20638 0.0
O29 O 0.82968 0.31149 0.20339 0.0
O30 O 0.86223 0.29681 0.23082 0.0
C31 C 0.87378 0.37984 0.23767 0.0
O32 O 0.92215 0.35811 0.21862 0.0
Co33 Co 0.91177 0.40092 0.15311 0.0
O34 O 0.94741 0.40783 0.19355 0.0
C35 C 0.88526 0.34132 0.10035 0.0
C36 C 0.83359 0.28996 0.22297 0.0
C37 C 0.94698 0.38528 0.21583 0.0
O38 O 0.87875 0.32559 0.13923 0.0
O39 O 0.89623 0.37083 0.09882 0.0
O40 O 0.87032 0.35705 0.26458 0.0
O41 O 0.87598 0.37596 0.19306 0.0
Co42 Co 0.54559 0.87072 0.20117 0.0
O43 O 0.52575 0.8257 0.19717 0.0
O44 O 0.57124 0.85597 0.23102 0.0
C45 C 0.50232 0.87153 0.22619 0.0
O46 O 0.57355 0.91771 0.21475 0.0
Co47 Co 0.52435 0.9091 0.1411 0.0
O48 O 0.55295 0.94462 0.18153 0.0
C49 C 0.55854 0.88117 0.09598 0.0
C50 C 0.54926 0.82781 0.22077 0.0
C51 C 0.57294 0.94322 0.20826 0.0
O52 O 0.56549 0.87445 0.13667 0.0
O53 O 0.54065 0.89269 0.09067 0.0
O54 O 0.51958 0.867 0.25607 0.0
O55 O 0.51033 0.87339 0.18241 0.0
Co56 Co 0.67965 0.53757 0.20421 0.0
O57 O 0.70584 0.51864 0.2031 0.0
O58 O 0.72027 0.56539 0.23205 0.0
C59 C 0.63635 0.49453 0.23162 0.0
O60 O 0.65967 0.56496 0.21474 0.0
Co61 Co 0.61882 0.51302 0.14528 0.0
O62 O 0.61128 0.54195 0.18383 0.0
C63 C 0.68042 0.54725 0.09826 0.0
C64 C 0.72705 0.54359 0.22426 0.0
C65 C 0.63297 0.56327 0.20863 0.0
O66 O 0.69475 0.55541 0.13841 0.0
O67 O 0.65099 0.52874 0.09402 0.0
O68 O 0.6581 0.51307 0.26076 0.0
O69 O 0.64207 0.50136 0.18747 0.0
Co70 Co 0.14281 0.67304 0.1917 0.0
O71 O 0.18775 0.69797 0.18573 0.0
O72 O 0.1594 0.71266 0.22502 0.0
C73 C 0.14093 0.62689 0.20958 0.0
O74 O 0.09631 0.6536 0.20996 0.0
Co75 Co 0.10362 0.62055 0.12379 0.0
O76 O 0.06732 0.61257 0.1629 0.0
C77 C 0.13357 0.68342 0.08806 0.0
C78 C 0.18702 0.71991 0.20964 0.0
C79 C 0.0699 0.62985 0.19781 0.0
O80 O 0.1386 0.69331 0.13114 0.0
O81 O 0.12244 0.65485 0.0772 0.0
O82 O 0.14654 0.64783 0.24172 0.0
O83 O 0.13915 0.63541 0.1669 0.0
Co84 Co 0.88238 0.54234 0.31212 0.0
O85 O 0.83718 0.52316 0.31588 0.0
O86 O 0.86815 0.5668 0.27748 0.0
C87 C 0.88273 0.49735 0.29436 0.0
O88 O 0.9292 0.56883 0.29547 0.0
Co89 Co 0.9209 0.52691 0.37913 0.0
O90 O 0.95801 0.55652 0.34236 0.0
C91 C 0.89109 0.56023 0.41602 0.0
C92 C 0.83995 0.54585 0.28945 0.0
C93 C 0.95561 0.57172 0.30803 0.0
O94 O 0.88636 0.56613 0.3733 0.0
O95 O 0.90173 0.54218 0.42575 0.0
O96 O 0.87835 0.51336 0.26191 0.0
O97 O 0.88477 0.50773 0.33701 0.0
Co98 Co 0.34583 0.87339 0.2998 0.0
O99 O 0.32055 0.82815 0.30167 0.0
O100 O 0.30493 0.85929 0.27194 0.0
C101 C 0.38965 0.87453 0.27228 0.0
O102 O 0.3649 0.92055 0.28785 0.0
Co103 Co 0.40616 0.91103 0.35883 0.0
O104 O 0.41197 0.94774 0.32274 0.0
C105 C 0.34465 0.8836 0.4056 0.0
C106 C 0.29897 0.83097 0.27992 0.0
C107 C 0.39061 0.9463 0.29592 0.0
O108 O 0.33044 0.87649 0.36531 0.0
O109 O 0.37412 0.89504 0.41019 0.0
O110 O 0.36747 0.87046 0.24345 0.0
O111 O 0.38406 0.87585 0.31649 0.0
Co112 Co 0.4763 0.33945 0.30288 0.0
O113 O 0.4956 0.31367 0.30659 0.0
O114 O 0.44925 0.29867 0.27514 0.0
C115 C 0.51964 0.38278 0.27592 0.0
O116 O 0.44873 0.35888 0.28942 0.0
Co117 Co 0.49908 0.40009 0.36105 0.0
O118 O 0.46791 0.40558 0.32498 0.0
C119 C 0.46492 0.33891 0.40836 0.0
C120 C 0.47111 0.29225 0.28478 0.0
C121 C 0.44836 0.38434 0.29762 0.0
O122 O 0.45722 0.3246 0.36819 0.0
O123 O 0.48344 0.36828 0.41262 0.0
O124 O 0.50172 0.36062 0.24693 0.0
O125 O 0.51214 0.37742 0.31996 0.0
Co126 Co 0.14143 0.47222 0.30216 0.0
O127 O 0.18655 0.4909 0.30454 0.0
O128 O 0.15404 0.44359 0.27741 0.0
C129 C 0.1424 0.51499 0.27076 0.0
O130 O 0.09401 0.44471 0.29066 0.0
Co131 Co 0.10496 0.498 0.35617 0.0
O132 O 0.06816 0.46777 0.31907 0.0
C133 C 0.1311 0.4645 0.40831 0.0
C134 C 0.18268 0.46546 0.28509 0.0
C135 C 0.06878 0.44611 0.29573 0.0
O136 O 0.13787 0.45575 0.36922 0.0
O137 O 0.12017 0.48305 0.41027 0.0
O138 O 0.14516 0.49526 0.24382 0.0
O139 O 0.14063 0.5093 0.31551 0.0
Co140 Co 0.67623 0.13454 0.30568 0.0
O141 O 0.70181 0.17966 0.30832 0.0
O142 O 0.71667 0.14834 0.27665 0.0
C143 C 0.63226 0.13377 0.27983 0.0
O144 O 0.65689 0.08749 0.29299 0.0
Co145 Co 0.61665 0.09671 0.36585 0.0
O146 O 0.61018 0.06012 0.32869 0.0
C147 C 0.67862 0.1247 0.41127 0.0
C148 C 0.72303 0.17662 0.28587 0.0
C149 C 0.63127 0.06171 0.30109 0.0
O150 O 0.69227 0.13121 0.37057 0.0
O151 O 0.64921 0.1134 0.41656 0.0
O152 O 0.65414 0.13797 0.2503 0.0
O153 O 0.63827 0.13218 0.3238 0.0
Co154 Co 0.54513 0.66806 0.30351 0.0
O155 O 0.52584 0.69372 0.30854 0.0
O156 O 0.57069 0.70829 0.27306 0.0
C157 C 0.50108 0.62413 0.27981 0.0
O158 O 0.57248 0.64852 0.28861 0.0
Co159 Co 0.52431 0.60865 0.36387 0.0
O160 O 0.55404 0.6023 0.32543 0.0
C161 C 0.55974 0.67088 0.40812 0.0
C162 C 0.54911 0.71485 0.28421 0.0
C163 C 0.57298 0.62312 0.29698 0.0
O164 O 0.56622 0.68435 0.36729 0.0
O165 O 0.5415 0.64157 0.4139 0.0
O166 O 0.51805 0.64575 0.24952 0.0
O167 O 0.50988 0.63036 0.3233 0.0
Co168 Co 0.54055 0.86916 0.80363 0.0
O169 O 0.52512 0.82468 0.80474 0.0
O170 O 0.56989 0.85961 0.77253 0.0
C171 C 0.49546 0.86631 0.77972 0.0
O172 O 0.56323 0.91676 0.79238 0.0
Co173 Co 0.5131 0.89893 0.87068 0.0
O174 O 0.54412 0.93886 0.8414 0.0
C175 C 0.55217 0.87556 0.90979 0.0
C176 C 0.55002 0.83044 0.78139 0.0
C177 C 0.56225 0.94084 0.80793 0.0
O178 O 0.56142 0.87369 0.86782 0.0
O179 O 0.53043 0.88174 0.91774 0.0
O180 O 0.51379 0.86396 0.74917 0.0
O181 O 0.5032 0.86698 0.82345 0.0
Co182 Co 0.67973 0.54038 0.80265 0.0
O183 O 0.70556 0.52105 0.80349 0.0
O184 O 0.72071 0.56818 0.77569 0.0
C185 C 0.63632 0.49789 0.77423 0.0
O186 O 0.65999 0.56815 0.79277 0.0
Co187 Co 0.61874 0.5156 0.86129 0.0
O188 O 0.61129 0.54451 0.82256 0.0
C189 C 0.68023 0.54889 0.90888 0.0
C190 C 0.7272 0.54614 0.78326 0.0
C191 C 0.63311 0.56618 0.79843 0.0
O192 O 0.69464 0.55744 0.86886 0.0
O193 O 0.65075 0.53049 0.91281 0.0
O194 O 0.6583 0.51655 0.7455 0.0
O195 O 0.64194 0.50425 0.81851 0.0
Co196 Co 0.14749 0.67863 0.80188 0.0
O197 O 0.19207 0.70746 0.80339 0.0
O198 O 0.15761 0.71719 0.76926 0.0
C199 C 0.15003 0.63593 0.78032 0.0
O200 O 0.09979 0.65364 0.79037 0.0
Co201 Co 0.11733 0.62265 0.87125 0.0
O202 O 0.07749 0.61327 0.84101 0.0
C203 C 0.1414 0.68591 0.9073 0.0
C204 C 0.18669 0.72648 0.77911 0.0
C205 C 0.0756 0.62885 0.80662 0.0
O206 O 0.14292 0.69609 0.86482 0.0
O207 O 0.1352 0.65817 0.91667 0.0
O208 O 0.1527 0.65618 0.74878 0.0
O209 O 0.14929 0.6437 0.82363 0.0
Co210 Co 0.47607 0.14537 0.80162 0.0
O211 O 0.49434 0.19032 0.80507 0.0
O212 O 0.44723 0.15776 0.777 0.0
C213 C 0.51912 0.14677 0.77073 0.0
O214 O 0.44921 0.09809 0.78916 0.0
Co215 Co 0.50286 0.10898 0.85486 0.0
O216 O 0.47542 0.07417 0.81219 0.0
C217 C 0.4681 0.13382 0.90737 0.0
C218 C 0.46893 0.18637 0.78522 0.0
C219 C 0.45265 0.07391 0.79069 0.0
O220 O 0.45923 0.14085 0.86858 0.0
O221 O 0.48693 0.12319 0.90894 0.0
O222 O 0.49985 0.1502 0.74354 0.0
O223 O 0.51289 0.14454 0.81524 0.0
Co224 Co 0.33955 0.47476 0.80425 0.0
O225 O 0.31263 0.49283 0.80959 0.0
O226 O 0.29892 0.4475 0.77595 0.0
C227 C 0.38287 0.51947 0.77902 0.0
O228 O 0.36045 0.44871 0.78892 0.0
Co229 Co 0.40143 0.49876 0.86211 0.0
O230 O 0.40942 0.47244 0.81815 0.0
C231 C 0.33982 0.46239 0.90914 0.0
C232 C 0.29167 0.46858 0.7867 0.0
C233 C 0.38775 0.4514 0.79294 0.0
O234 O 0.32529 0.4546 0.86906 0.0
O235 O 0.36918 0.4814 0.91331 0.0
O236 O 0.36053 0.50212 0.7498 0.0
O237 O 0.37708 0.51013 0.82218 0.0
Co238 Co 0.86993 0.3362 0.80196 0.0
O239 O 0.82477 0.30971 0.80492 0.0
O240 O 0.85701 0.29481 0.77727 0.0
C241 C 0.86912 0.37815 0.77099 0.0
O242 O 0.91739 0.35641 0.78995 0.0
Co243 Co 0.90668 0.39927 0.85554 0.0
O244 O 0.94176 0.40645 0.81367 0.0
C245 C 0.88165 0.33962 0.90789 0.0
C246 C 0.82839 0.28807 0.78515 0.0
C247 C 0.94187 0.38392 0.79211 0.0
O248 O 0.87412 0.32372 0.86905 0.0
O249 O 0.89264 0.36913 0.90957 0.0
O250 O 0.86556 0.35543 0.7438 0.0
O251 O 0.87114 0.37403 0.81552 0.0
Co252 Co 0.13645 0.47246 0.70547 0.0
O253 O 0.1817 0.4919 0.70314 0.0
O254 O 0.1501 0.44518 0.73278 0.0
C255 C 0.13643 0.51551 0.73377 0.0
O256 O 0.08907 0.4448 0.71776 0.0
Co257 Co 0.09927 0.4954 0.64695 0.0
O258 O 0.06136 0.46221 0.67814 0.0
C259 C 0.12825 0.46356 0.59918 0.0
C260 C 0.17854 0.46724 0.72436 0.0
C261 C 0.06298 0.44345 0.70711 0.0
O262 O 0.13338 0.45457 0.63939 0.0
O263 O 0.11762 0.48223 0.59521 0.0
O264 O 0.1399 0.49684 0.76215 0.0
O265 O 0.13463 0.50864 0.68941 0.0
Co266 Co 0.67032 0.13229 0.70138 0.0
O267 O 0.69689 0.17734 0.6963 0.0
O268 O 0.70953 0.1465 0.73493 0.0
C269 C 0.62579 0.13323 0.71989 0.0
O270 O 0.64943 0.08559 0.71928 0.0
Co271 Co 0.61444 0.09313 0.63698 0.0
O272 O 0.60769 0.05626 0.67353 0.0
C273 C 0.67723 0.12254 0.59741 0.0
C274 C 0.71697 0.17462 0.72247 0.0
C275 C 0.62574 0.05905 0.70744 0.0
O276 O 0.68878 0.12724 0.63958 0.0
O277 O 0.64832 0.11212 0.58914 0.0
O278 O 0.6464 0.13761 0.75203 0.0
O279 O 0.63328 0.1301 0.67726 0.0
Co280 Co 0.54726 0.67278 0.70061 0.0
O281 O 0.52958 0.69989 0.69397 0.0
O282 O 0.57452 0.71325 0.72901 0.0
C283 C 0.50159 0.63019 0.72498 0.0
O284 O 0.57292 0.65167 0.71753 0.0
Co285 Co 0.52376 0.61099 0.64373 0.0
O286 O 0.55104 0.60341 0.68623 0.0
C287 C 0.56041 0.67234 0.59637 0.0
C288 C 0.55364 0.72066 0.71746 0.0
C289 C 0.57128 0.62494 0.7125 0.0
O290 O 0.56819 0.68685 0.63639 0.0
O291 O 0.54121 0.64306 0.59226 0.0
O292 O 0.51915 0.65229 0.75437 0.0
O293 O 0.51164 0.63548 0.6821 0.0
Co294 Co 0.88324 0.54368 0.70216 0.0
O295 O 0.83812 0.52512 0.69718 0.0
O296 O 0.86909 0.56848 0.7362 0.0
C297 C 0.88243 0.4982 0.71995 0.0
O298 O 0.93009 0.56956 0.71968 0.0
Co299 Co 0.92205 0.52744 0.63652 0.0
O300 O 0.95918 0.55743 0.67302 0.0
C301 C 0.89262 0.56111 0.59847 0.0
C302 C 0.84092 0.5479 0.72343 0.0
C303 C 0.9566 0.57257 0.70724 0.0
O304 O 0.88812 0.56758 0.64094 0.0
O305 O 0.90299 0.54272 0.58938 0.0
O306 O 0.87808 0.51425 0.75237 0.0
O307 O 0.88534 0.50895 0.67743 0.0
Co308 Co 0.34629 0.88064 0.70068 0.0
O309 O 0.31981 0.83559 0.69795 0.0
O310 O 0.30541 0.86781 0.72738 0.0
C311 C 0.38905 0.88004 0.72934 0.0
O312 O 0.36657 0.92786 0.7133 0.0
Co313 Co 0.4066 0.91723 0.64245 0.0
O314 O 0.4118 0.95528 0.67372 0.0
C315 C 0.34578 0.88849 0.59453 0.0
C316 C 0.29845 0.83928 0.71864 0.0
C317 C 0.39149 0.95378 0.70279 0.0
O318 O 0.33176 0.88403 0.63467 0.0
O319 O 0.37506 0.89865 0.59062 0.0
O320 O 0.36681 0.8767 0.7575 0.0
O321 O 0.38417 0.88194 0.68491 0.0
Co322 Co 0.47426 0.34506 0.70242 0.0
O323 O 0.49306 0.31882 0.70096 0.0
O324 O 0.4467 0.30487 0.73146 0.0
C325 C 0.51782 0.3885 0.72852 0.0
O326 O 0.44721 0.36538 0.71363 0.0
Co327 Co 0.49768 0.40434 0.64117 0.0
O328 O 0.46714 0.41145 0.67599 0.0
C329 C 0.46382 0.34231 0.59653 0.0
C330 C 0.46833 0.29793 0.72294 0.0
C331 C 0.4474 0.39099 0.70406 0.0
O332 O 0.45542 0.32902 0.63735 0.0
O333 O 0.48267 0.3715 0.59103 0.0
O334 O 0.49954 0.36696 0.75806 0.0
O335 O 0.51051 0.38245 0.68447 0.0
C336 C 0.42331 0.03305 0.28089 0.0
C337 C 0.42714 0.03625 0.23098 0.0
C338 C 0.39962 0.97913 0.22244 0.0
C339 C 0.397 0.97595 0.27242 0.0
N340 N 0.39691 0.99876 0.34739 0.0
N341 N 0.40947 0.01275 0.15446 0.0
C342 C 0.40571 1.00265 0.30097 0.0
C343 C 0.41205 0.00932 0.20189 0.0
N344 N 0.43794 0.05868 0.30947 0.0
N345 N 0.39225 0.95382 0.19459 0.0
H346 H 0.41778 0.03459 0.13877 0.0
H347 H 0.39628 0.99411 0.1318 0.0
H348 H 0.38258 0.9312 0.20764 0.0
H349 H 0.39761 0.95551 0.15872 0.0
H350 H 0.4395 0.05731 0.346 0.0
H351 H 0.45019 0.08143 0.29675 0.0
H352 H 0.39988 0.01697 0.36924 0.0
H353 H 0.38367 0.97672 0.36265 0.0
C354 C 0.40661 0.39884 0.30189 0.0
C355 C 0.42505 0.39051 0.2737 0.0
C356 C 0.40633 0.40468 0.20274 0.0
C357 C 0.39399 0.41946 0.23144 0.0
N358 N 0.3824 0.43066 0.30972 0.0
N359 N 0.44327 0.38634 0.1962 0.0
C360 C 0.39348 0.416 0.28142 0.0
C361 C 0.42464 0.39301 0.2237 0.0
N362 N 0.40158 0.3901 0.34832 0.0
N363 N 0.40032 0.40172 0.1553 0.0
H364 H 0.45688 0.3775 0.2096 0.0
H365 H 0.44688 0.3916 0.16031 0.0
H366 H 0.38641 0.4095 0.13933 0.0
H367 H 0.4062 0.38873 0.13297 0.0
H368 H 0.386 0.39281 0.36983 0.0
H369 H 0.41058 0.37715 0.36391 0.0
H370 H 0.3854 0.43243 0.34625 0.0
H371 H 0.37186 0.44282 0.29682 0.0
C372 C 0.98153 0.39015 0.28569 0.0
C373 C 0.9774 0.39095 0.23611 0.0
C374 C 0.03447 0.41866 0.2247 0.0
C375 C 0.03856 0.42166 0.27455 0.0
N376 N 0.01755 0.40243 0.35173 0.0
N377 N 0.99869 0.39583 0.15826 0.0
C378 C 0.01244 0.40478 0.30479 0.0
C379 C 1.00361 0.40199 0.20558 0.0
N380 N 0.95598 0.3764 0.31455 0.0
N381 N 0.0599 0.43287 0.19564 0.0
H382 H 0.9763 0.38298 0.14387 0.0
H383 H 0.01634 0.40072 0.13394 0.0
H384 H 0.08277 0.44291 0.20796 0.0
H385 H 0.05856 0.4355 0.15938 0.0
H386 H 0.95694 0.37856 0.35116 0.0
H387 H 0.93335 0.36283 0.30164 0.0
H388 H 1.00011 0.38875 0.3758 0.0
H389 H 0.04 0.41232 0.36601 0.0
C390 C 0.61183 1.00032 0.20477 0.0
C391 C 0.59595 0.97281 0.23245 0.0
C392 C 0.61531 1.00503 0.30415 0.0
C393 C 0.62473 0.03229 0.27662 0.0
N394 N 0.63064 0.05567 0.19943 0.0
N395 N 0.58239 0.94895 0.3099 0.0
C396 C 0.62326 0.03003 0.22648 0.0
C397 C 0.59815 0.97504 0.28259 0.0
N398 N 0.61606 0.99792 0.15756 0.0
N399 N 0.62307 0.00794 0.35098 0.0
H400 H 0.5702 0.92645 0.29617 0.0
H401 H 0.57977 0.94974 0.34632 0.0
H402 H 0.63613 0.02963 0.36736 0.0
H403 H 0.6195 0.98921 0.37212 0.0
H404 H 0.6299 0.0171 0.13617 0.0
H405 H 0.60851 0.97645 0.14103 0.0
H406 H 0.62613 0.05444 0.16329 0.0
H407 H 0.63914 0.07795 0.21328 0.0
C408 C 0.6148 0.60873 0.30076 0.0
C409 C 0.596 0.61667 0.2727 0.0
C410 C 0.61354 0.60113 0.20183 0.0
C411 C 0.62623 0.58675 0.23073 0.0
N412 N 0.63923 0.57712 0.30906 0.0
N413 N 0.57706 0.62009 0.19542 0.0
C414 C 0.62759 0.59117 0.28056 0.0
C415 C 0.59574 0.6134 0.22277 0.0
N416 N 0.62058 0.61829 0.34682 0.0
N417 N 0.61887 0.6033 0.15421 0.0
H418 H 0.56413 0.6297 0.20879 0.0
H419 H 0.57283 0.61425 0.15976 0.0
H420 H 0.6325 0.5952 0.1382 0.0
H421 H 0.61275 0.61597 0.13161 0.0
H422 H 0.63645 0.61592 0.36812 0.0
H423 H 0.61188 0.63158 0.36216 0.0
H424 H 0.63682 0.576 0.34569 0.0
H425 H 0.64972 0.56487 0.29632 0.0
C426 C 0.02727 0.63533 0.24095 0.0
C427 C 0.04211 0.61787 0.22956 0.0
C428 C 0.99681 0.57069 0.25938 0.0
C429 C 0.98356 0.58826 0.27679 0.0
N430 N 0.98781 0.63842 0.28865 0.0
N431 N 0.04485 0.57123 0.24377 0.0
C432 C 0.99921 0.62102 0.26883 0.0
C433 C 0.02803 0.58625 0.2437 0.0
N434 N 0.03929 0.66498 0.22414 0.0
N435 N 0.97911 0.53899 0.25588 0.0
H436 H 0.06875 0.58286 0.23667 0.0
H437 H 0.03605 0.54869 0.25694 0.0
H438 H 0.95514 0.52716 0.26234 0.0
H439 H 0.98729 0.52534 0.24035 0.0
H440 H 0.0279 0.67778 0.22734 0.0
H441 H 0.05975 0.67596 0.20414 0.0
H442 H 0.99977 0.66271 0.28803 0.0
H443 H 0.96724 0.62845 0.30843 0.0
C444 C 0.56727 0.99159 0.7791 0.0
C445 C 0.58077 0.97211 0.78404 0.0
C446 C 0.62702 0.01174 0.74028 0.0
C447 C 0.61422 0.03172 0.7398 0.0
N448 N 0.57768 0.04461 0.77433 0.0
N449 N 0.62774 0.96841 0.77919 0.0
C450 C 0.58623 0.02291 0.76454 0.0
C451 C 0.61194 0.98349 0.7674 0.0
N452 N 0.5359 0.98001 0.78494 0.0
N453 N 0.65317 0.0194 0.71438 0.0
H454 H 0.61849 0.94906 0.80145 0.0
H455 H 0.65125 0.97718 0.77121 0.0
H456 H 0.66511 0.04035 0.69574 0.0
H457 H 0.6617 1.00418 0.7092 0.0
H458 H 0.52514 0.99303 0.77738 0.0
H459 H 0.51988 0.9566 0.79106 0.0
H460 H 0.55853 0.03983 0.79552 0.0
H461 H 0.59203 0.06818 0.76627 0.0
C462 C 0.62748 0.59449 0.72718 0.0
C463 C 0.62624 0.58977 0.77694 0.0
C464 C 0.59496 0.61559 0.78578 0.0
C465 C 0.59462 0.61859 0.73596 0.0
N466 N 0.61847 0.62042 0.66109 0.0
N467 N 0.61842 0.60537 0.8539 0.0
C468 C 0.61357 0.61115 0.70732 0.0
C469 C 0.6131 0.60354 0.80629 0.0
N470 N 0.64026 0.58164 0.69847 0.0
N471 N 0.57663 0.62258 0.81338 0.0
H472 H 0.63234 0.59749 0.86953 0.0
H473 H 0.61191 0.61749 0.877 0.0
H474 H 0.56393 0.63244 0.7999 0.0
H475 H 0.57268 0.61709 0.84917 0.0
H476 H 0.63784 0.58047 0.66185 0.0
H477 H 0.65204 0.57064 0.71109 0.0
H478 H 0.63435 0.6185 0.63921 0.0
H479 H 0.60888 0.63298 0.64597 0.0
C480 C 0.99345 0.56984 0.76374 0.0
C481 C 0.9843 0.58871 0.73899 0.0
C482 C 0.03266 0.63513 0.76565 0.0
C483 C 0.04426 0.61568 0.78265 0.0
N484 N 0.03669 0.56312 0.78488 0.0
N485 N 0.99619 0.63968 0.71287 0.0
C486 C 0.02489 0.58262 0.7783 0.0
C487 C 1.00418 0.62155 0.73893 0.0
N488 N 0.97194 0.53951 0.77365 0.0
N489 N 0.04776 0.66613 0.77677 0.0
H490 H 0.97507 0.63039 0.69451 0.0
H491 H 0.0113 0.66342 0.70725 0.0
H492 H 0.06738 0.67658 0.79857 0.0
H493 H 0.03885 0.68069 0.76864 0.0
H494 H 0.97689 0.52536 0.795 0.0
H495 H 0.9483 0.52992 0.76548 0.0
H496 H 0.02385 0.5393 0.77759 0.0
H497 H 0.06012 0.5708 0.79153 0.0
C498 C 0.41714 0.01629 0.79854 0.0
C499 C 0.42855 0.04336 0.7699 0.0
C500 C 0.4039 0.00958 0.70075 0.0
C501 C 0.39877 0.98325 0.72771 0.0
N502 N 0.40212 0.96176 0.80276 0.0
N503 N 0.43095 0.06597 0.69326 0.0
C504 C 0.40522 0.9865 0.77697 0.0
C505 C 0.42087 0.0401 0.72096 0.0
N506 N 0.41745 0.01917 0.8466 0.0
N507 N 0.39216 1.00521 0.65589 0.0
H508 H 0.44147 0.08852 0.7068 0.0
H509 H 0.43002 0.06524 0.6565 0.0
H510 H 0.3794 0.98309 0.64066 0.0
H511 H 0.39241 0.02285 0.63555 0.0
H512 H 0.40687 1.00014 0.86943 0.0
H513 H 0.42523 0.04065 0.86325 0.0
H514 H 0.41027 0.96387 0.83728 0.0
H515 H 0.39355 0.93949 0.78878 0.0
C516 C 0.39436 0.42512 0.72015 0.0
C517 C 0.39471 0.42832 0.77007 0.0
C518 C 0.42463 0.40112 0.77779 0.0
C519 C 0.42491 0.39846 0.72777 0.0
N520 N 0.4021 0.39916 0.65295 0.0
N521 N 0.40044 0.41001 0.84611 0.0
C522 C 0.40708 0.40759 0.69952 0.0
C523 C 0.40661 0.41311 0.79872 0.0
N524 N 0.38357 0.44019 0.69223 0.0
N525 N 0.44319 0.39439 0.80537 0.0
H526 H 0.38675 0.41801 0.86217 0.0
H527 H 0.40593 0.39664 0.86829 0.0
H528 H 0.45695 0.38571 0.79209 0.0
H529 H 0.44681 0.39971 0.84127 0.0
H530 H 0.38649 0.4421 0.65569 0.0
H531 H 0.37319 0.45236 0.70577 0.0
H532 H 0.38702 0.40258 0.63134 0.0
H533 H 0.41061 0.38581 0.63727 0.0
C534 C 0.02956 0.42343 0.78064 0.0
C535 C 0.03331 0.42077 0.73139 0.0
C536 C 0.97634 0.38632 0.7231 0.0
C537 C 0.9726 0.39025 0.77202 0.0
N538 N 0.99601 0.40239 0.84934 0.0
N539 N 0.01189 0.39291 0.65881 0.0
C540 C 0.99944 0.40545 0.80138 0.0
C541 C 1.00712 0.39989 0.70367 0.0
N542 N 0.05415 0.44469 0.80721 0.0
N543 N 0.95071 0.37105 0.69466 0.0
H544 H 0.03419 0.40227 0.64418 0.0
H545 H 0.99434 0.37578 0.63791 0.0
H546 H 0.92796 0.35912 0.7076 0.0
H547 H 0.95185 0.3712 0.65791 0.0
H548 H 0.05174 0.45038 0.84181 0.0
H549 H 0.07663 0.45842 0.79384 0.0
H550 H 0.0148 0.4105 0.87265 0.0
H551 H 0.97427 0.38865 0.86536 0.0
C552 C 0.4676 0.2134 0.2883 0.0
C553 C 0.46975 0.20804 0.23941 0.0
C554 C 0.47318 0.25815 0.22037 0.0
C555 C 0.46921 0.26262 0.26894 0.0
N556 N 0.4569 0.2421 0.34802 0.0
N557 N 0.46847 0.22215 0.15832 0.0
C558 C 0.46472 0.2395 0.30259 0.0
C559 C 0.47082 0.22956 0.20526 0.0
N560 N 0.46978 0.19441 0.32129 0.0
N561 N 0.48035 0.28171 0.18882 0.0
H562 H 0.46613 0.20121 0.14611 0.0
H563 H 0.46589 0.23526 0.13181 0.0
H564 H 0.48182 0.30277 0.19826 0.0
H565 H 0.48717 0.28141 0.15411 0.0
H566 H 0.47195 0.19909 0.3574 0.0
H567 H 0.47203 0.17518 0.31245 0.0
H568 H 0.45009 0.22453 0.37317 0.0
H569 H 0.45449 0.26081 0.35949 0.0
C570 C 0.23018 0.46109 0.30378 0.0
C571 C 0.20993 0.46251 0.26958 0.0
C572 C 0.24254 0.45991 0.20595 0.0
C573 C 0.26449 0.46184 0.24005 0.0
N574 N 0.28125 0.46776 0.32133 0.0
N575 N 0.19847 0.46698 0.18801 0.0
C576 C 0.25877 0.46318 0.28901 0.0
C577 C 0.21644 0.46272 0.22058 0.0
N578 N 0.22161 0.45686 0.35033 0.0
N579 N 0.24622 0.45452 0.15964 0.0
H580 H 0.17905 0.46886 0.19711 0.0
H581 H 0.20412 0.47105 0.15229 0.0
H582 H 0.26493 0.45217 0.14786 0.0
H583 H 0.22946 0.44963 0.13367 0.0
H584 H 0.23361 0.45239 0.37656 0.0
H585 H 0.20079 0.45507 0.3622 0.0
H586 H 0.28016 0.4726 0.35686 0.0
H587 H 0.30229 0.46905 0.31208 0.0
C588 C 0.77525 0.22404 0.30286 0.0
C589 C 0.75249 0.20439 0.26941 0.0
C590 C 0.78543 0.23841 0.20501 0.0
C591 C 0.80644 0.25981 0.23882 0.0
N592 N 0.8194 0.27516 0.32041 0.0
N593 N 0.73381 0.19443 0.18896 0.0
C594 C 0.80093 0.25314 0.28792 0.0
C595 C 0.75708 0.2119 0.22049 0.0
N596 N 0.7728 0.21444 0.34874 0.0
N597 N 0.79309 0.2429 0.15813 0.0
H598 H 0.7129 0.1747 0.19872 0.0
H599 H 0.73416 0.20075 0.15378 0.0
H600 H 0.81384 0.26177 0.14578 0.0
H601 H 0.78043 0.22659 0.13199 0.0
H602 H 0.79021 0.22609 0.37393 0.0
H603 H 0.75453 0.19311 0.36061 0.0
H604 H 0.81442 0.27319 0.35642 0.0
H605 H 0.83842 0.29671 0.31112 0.0
C606 C 0.52153 0.77179 0.24963 0.0
C607 C 0.54987 0.79925 0.23737 0.0
C608 C 0.57837 0.77293 0.26348 0.0
C609 C 0.5498 0.74408 0.26768 0.0
N610 N 0.49466 0.71568 0.24789 0.0
N611 N 0.60525 0.82204 0.22163 0.0
C612 C 0.52147 0.74333 0.25584 0.0
C613 C 0.57837 0.79878 0.24111 0.0
N614 N 0.49481 0.77276 0.25777 0.0
N615 N 0.60533 0.7764 0.28242 0.0
H616 H 0.60603 0.84009 0.20168 0.0
H617 H 0.62587 0.82115 0.22031 0.0
H618 H 0.60614 0.75907 0.30217 0.0
H619 H 0.62604 0.79784 0.28345 0.0
H620 H 0.47434 0.75345 0.26996 0.0
H621 H 0.4942 0.79348 0.25895 0.0
H622 H 0.47415 0.71456 0.23602 0.0
H623 H 0.4941 0.69439 0.24643 0.0
C624 C 0.77795 0.54518 0.20745 0.0
C625 C 0.75702 0.54626 0.24073 0.0
C626 C 0.79305 0.55189 0.30507 0.0
C627 C 0.81204 0.54713 0.2724 0.0
N628 N 0.82049 0.53511 0.19305 0.0
N629 N 0.74233 0.54607 0.32215 0.0
C630 C 0.80399 0.54277 0.22366 0.0
C631 C 0.764 0.54853 0.28983 0.0
N632 N 0.77357 0.54763 0.16029 0.0
N633 N 0.80329 0.5607 0.35037 0.0
H634 H 0.72073 0.54338 0.31266 0.0
H635 H 0.74459 0.54398 0.35837 0.0
H636 H 0.82474 0.56409 0.36228 0.0
H637 H 0.7921 0.56759 0.37467 0.0
H638 H 0.78966 0.55015 0.13443 0.0
H639 H 0.75525 0.55023 0.14737 0.0
H640 H 0.81362 0.52816 0.15828 0.0
H641 H 0.8397 0.5332 0.20342 0.0
C642 C 0.21383 0.77442 0.24645 0.0
C643 C 0.21623 0.75104 0.2204 0.0
C644 C 0.2739 0.78398 0.22615 0.0
C645 C 0.27054 0.80328 0.26003 0.0
N646 N 0.23663 0.81461 0.3065 0.0
N647 N 0.25064 0.73757 0.17802 0.0
C648 C 0.24031 0.79783 0.27132 0.0
C649 C 0.24686 0.75692 0.20823 0.0
N650 N 0.18719 0.77624 0.24409 0.0
N651 N 0.30286 0.79278 0.20817 0.0
H652 H 0.23472 0.725 0.15144 0.0
H653 H 0.27079 0.73585 0.17722 0.0
H654 H 0.3231 0.81288 0.21877 0.0
H655 H 0.30674 0.78189 0.17963 0.0
H656 H 0.18512 0.79414 0.25983 0.0
H657 H 0.16935 0.76328 0.22005 0.0
H658 H 0.21478 0.80932 0.31948 0.0
H659 H 0.25537 0.83181 0.32574 0.0
C660 C 0.55464 0.75588 0.78283 0.0
C661 C 0.55576 0.75037 0.73371 0.0
C662 C 0.5542 0.79818 0.71546 0.0
C663 C 0.55468 0.80446 0.7646 0.0
N664 N 0.56217 0.79305 0.84464 0.0
N665 N 0.563 0.76931 0.65372 0.0
C666 C 0.55696 0.7844 0.79814 0.0
C667 C 0.55743 0.77246 0.70014 0.0
N668 N 0.54974 0.7332 0.81487 0.0
N669 N 0.54915 0.81586 0.68343 0.0
H670 H 0.5659 0.75104 0.64155 0.0
H671 H 0.56763 0.78622 0.62816 0.0
H672 H 0.54682 0.83491 0.69304 0.0
H673 H 0.54489 0.81025 0.64771 0.0
H674 H 0.54505 0.73433 0.85047 0.0
H675 H 0.54769 0.71191 0.80538 0.0
H676 H 0.56724 0.7811 0.87019 0.0
H677 H 0.56449 0.81398 0.85687 0.0
C678 C 0.7663 0.55303 0.71984 0.0
C679 C 0.75753 0.54889 0.76833 0.0
C680 C 0.80324 0.54351 0.78731 0.0
C681 C 0.81301 0.54962 0.73937 0.0
N682 N 0.80762 0.56689 0.66225 0.0
N683 N 0.77114 0.54675 0.84947 0.0
C684 C 0.79562 0.55634 0.70628 0.0
C685 C 0.77701 0.54597 0.80244 0.0
N686 N 0.74601 0.55231 0.68634 0.0
N687 N 0.81833 0.53426 0.81811 0.0
H688 H 0.75273 0.54943 0.86176 0.0
H689 H 0.78616 0.54787 0.87617 0.0
H690 H 0.83777 0.53249 0.80859 0.0
H691 H 0.81016 0.52599 0.852 0.0
H692 H 0.74958 0.55167 0.65018 0.0
H693 H 0.72422 0.54957 0.69453 0.0
H694 H 0.79764 0.57515 0.63798 0.0
H695 H 0.82934 0.57033 0.65172 0.0
C696 C 0.24695 0.79133 0.69943 0.0
C697 C 0.26816 0.81196 0.73381 0.0
C698 C 0.2322 0.77968 0.7969 0.0
C699 C 0.21302 0.75709 0.76288 0.0
N700 N 0.20364 0.73963 0.68183 0.0
N701 N 0.28299 0.82399 0.81573 0.0
C702 C 0.22064 0.76253 0.71407 0.0
C703 C 0.26122 0.8058 0.78272 0.0
N704 N 0.2515 0.79969 0.65281 0.0
N705 N 0.22224 0.77653 0.8427 0.0
H706 H 0.30451 0.84327 0.80699 0.0
H707 H 0.28085 0.81855 0.85158 0.0
H708 H 0.20089 0.75799 0.85399 0.0
H709 H 0.23354 0.79367 0.86835 0.0
H710 H 0.23531 0.78726 0.6264 0.0
H711 H 0.27024 0.82074 0.64107 0.0
H712 H 0.21019 0.74066 0.64661 0.0
H713 H 0.18411 0.71841 0.69096 0.0
C714 C 0.46285 0.24559 0.70548 0.0
C715 C 0.46571 0.26807 0.73921 0.0
C716 C 0.46533 0.23429 0.80338 0.0
C717 C 0.46599 0.21353 0.76944 0.0
N718 N 0.46929 0.20119 0.68786 0.0
N719 N 0.47321 0.28584 0.82006 0.0
C720 C 0.46559 0.21954 0.72035 0.0
C721 C 0.46771 0.26288 0.78818 0.0
N722 N 0.45666 0.24872 0.65934 0.0
N723 N 0.46152 0.22622 0.85012 0.0
H724 H 0.4748 0.30692 0.81049 0.0
H725 H 0.47855 0.28505 0.85545 0.0
H726 H 0.4594 0.20535 0.86226 0.0
H727 H 0.45765 0.23868 0.87627 0.0
H728 H 0.45109 0.23158 0.63381 0.0
H729 H 0.45427 0.26735 0.64741 0.0
H730 H 0.47291 0.20649 0.65199 0.0
H731 H 0.47124 0.18186 0.69708 0.0
C732 C 0.21257 0.46519 0.78941 0.0
C733 C 0.20636 0.4653 0.74033 0.0
C734 C 0.25642 0.46823 0.7217 0.0
C735 C 0.26171 0.4662 0.77066 0.0
N736 N 0.24217 0.45675 0.85041 0.0
N737 N 0.21935 0.46106 0.65971 0.0
C738 C 0.23899 0.46296 0.80432 0.0
C739 C 0.22746 0.46514 0.70646 0.0
N740 N 0.19403 0.46861 0.82187 0.0
N741 N 0.2796 0.47445 0.68981 0.0
H742 H 0.19824 0.45838 0.64746 0.0
H743 H 0.23209 0.45746 0.63367 0.0
H744 H 0.30104 0.47677 0.69934 0.0
H745 H 0.27865 0.47981 0.65449 0.0
H746 H 0.19937 0.47234 0.85773 0.0
H747 H 0.17451 0.47029 0.81256 0.0
H748 H 0.22492 0.45093 0.87587 0.0
H749 H 0.26095 0.45455 0.86227 0.0
C750 C 0.79631 0.24994 0.72068 0.0
C751 C 0.80091 0.25788 0.76952 0.0
C752 C 0.75001 0.21153 0.78741 0.0
C753 C 0.74643 0.20257 0.73905 0.0
N754 N 0.76886 0.20982 0.66137 0.0
N755 N 0.78501 0.24328 0.85033 0.0
C756 C 0.7704 0.22081 0.70618 0.0
C757 C 0.77853 0.2378 0.80317 0.0
N758 N 0.81578 0.27088 0.68777 0.0
N759 N 0.72568 0.19567 0.81804 0.0
H760 H 0.80577 0.26197 0.86305 0.0
H761 H 0.77124 0.22782 0.87669 0.0
H762 H 0.70457 0.17625 0.80806 0.0
H763 H 0.72542 0.20315 0.85234 0.0
H764 H 0.81155 0.26798 0.65155 0.0
H765 H 0.83479 0.29255 0.6966 0.0
H766 H 0.78708 0.22034 0.6371 0.0
H767 H 0.75049 0.18844 0.64986 0.0
C768 C 0.43377 0.11052 0.02837 0.0
C769 C 0.45752 0.1364 0.05313 0.0
C770 C 0.47529 0.16584 0.979 0.0
C771 C 0.45665 0.13775 0.95389 0.0
N772 N 0.41448 0.08479 0.95234 0.0
N773 N 0.4979 0.19022 0.05466 0.0
C774 C 0.43407 0.11071 0.97799 0.0
C775 C 0.47675 0.16491 0.02927 0.0
N776 N 0.4119 0.08554 0.05349 0.0
N777 N 0.49246 0.19287 0.95426 0.0
H778 H 0.49866 0.18996 0.09152 0.0
H779 H 0.51492 0.21104 0.03972 0.0
H780 H 0.4917 0.19348 0.91743 0.0
H781 H 0.50548 0.21475 0.96978 0.0
H782 H 0.39292 0.06614 0.03842 0.0
H783 H 0.41173 0.08547 0.09041 0.0
H784 H 0.39931 0.0631 0.96701 0.0
H785 H 0.41386 0.08517 0.91545 0.0
C786 C 0.31275 0.46766 0.97949 0.0
C787 C 0.32291 0.44965 0.95429 0.0
C788 C 0.32654 0.426 0.02838 0.0
C789 C 0.32368 0.44916 0.05349 0.0
N790 N 0.30835 0.48804 0.05582 0.0
N791 N 0.33361 0.40753 0.95199 0.0
C792 C 0.314 0.46812 0.02988 0.0
C793 C 0.32708 0.42681 0.978 0.0
N794 N 0.30356 0.48537 0.95477 0.0
N795 N 0.33006 0.40431 0.05322 0.0
H796 H 0.33303 0.40746 0.91508 0.0
H797 H 0.33963 0.39192 0.96633 0.0
H798 H 0.32956 0.40378 0.09014 0.0
H799 H 0.3314 0.38592 0.03795 0.0
H800 H 0.29468 0.4984 0.97011 0.0
H801 H 0.30313 0.48538 0.91789 0.0
H802 H 0.30366 0.50458 0.04144 0.0
H803 H 0.30858 0.48796 0.09271 0.0
C804 C 0.84996 0.3151 0.98036 0.0
C805 C 0.87773 0.32418 0.95441 0.0
C806 C 0.90642 0.32975 0.02785 0.0
C807 C 0.88007 0.32559 0.05376 0.0
N808 N 0.82484 0.30606 0.05752 0.0
N809 N 0.92926 0.33119 0.95076 0.0
C810 C 0.85098 0.31495 0.03079 0.0
C811 C 0.90485 0.32806 0.97751 0.0
N812 N 0.8234 0.30881 0.95651 0.0
N813 N 0.9333 0.33709 0.05166 0.0
H814 H 0.92798 0.32978 0.91391 0.0
H815 H 0.94964 0.33307 0.9645 0.0
H816 H 0.93419 0.33711 0.08854 0.0
H817 H 0.95451 0.34323 0.03554 0.0
H818 H 0.80275 0.30466 0.97255 0.0
H819 H 0.82228 0.30802 0.91965 0.0
H820 H 0.80238 0.29665 0.04385 0.0
H821 H 0.82556 0.30636 0.09438 0.0
C822 C 0.55327 0.8459 0.02971 0.0
C823 C 0.57083 0.87544 0.05153 0.0
C824 C 0.59099 0.89951 0.97424 0.0
C825 C 0.56739 0.87198 0.95262 0.0
N826 N 0.53051 0.81724 0.95666 0.0
N827 N 0.61147 0.92894 0.04736 0.0
C828 C 0.55061 0.84429 0.97946 0.0
C829 C 0.59206 0.90166 0.02452 0.0
N830 N 0.53808 0.81997 0.05744 0.0
N831 N 0.61099 0.92384 0.94625 0.0
H832 H 0.61284 0.93019 0.08423 0.0
H833 H 0.62592 0.95002 0.03049 0.0
H834 H 0.60999 0.92209 0.90943 0.0
H835 H 0.62953 0.9446 0.95891 0.0
H836 H 0.5255 0.79731 0.04444 0.0
H837 H 0.5401 0.82126 0.09421 0.0
H838 H 0.51529 0.79642 0.97358 0.0
H839 H 0.52911 0.816 0.91981 0.0
C840 C 0.69528 0.58299 0.02922 0.0
C841 C 0.69768 0.55917 0.05322 0.0
C842 C 0.70539 0.53941 0.9781 0.0
C843 C 0.69756 0.55967 0.95409 0.0
N844 N 0.69448 0.6064 0.95371 0.0
N845 N 0.7141 0.52113 0.05353 0.0
C846 C 0.69623 0.58379 0.97886 0.0
C847 C 0.70644 0.53992 0.02845 0.0
N848 N 0.68995 0.60323 0.05486 0.0
N849 N 0.70934 0.51822 0.95256 0.0
H850 H 0.71424 0.52109 0.09042 0.0
H851 H 0.7221 0.50728 0.03847 0.0
H852 H 0.70912 0.5181 0.91566 0.0
H853 H 0.71244 0.50072 0.96729 0.0
H854 H 0.68517 0.61965 0.0402 0.0
H855 H 0.69021 0.60327 0.09178 0.0
H856 H 0.69441 0.62552 0.96878 0.0
H857 H 0.69519 0.60687 0.91681 0.0
C858 C 0.11791 0.70254 0.96987 0.0
C859 C 0.14531 0.70562 0.94902 0.0
C860 C 0.17061 0.71684 0.02661 0.0
C861 C 0.14084 0.7049 0.04752 0.0
N862 N 0.08822 0.69453 0.04256 0.0
N863 N 0.19994 0.7229 0.95428 0.0
C864 C 0.11536 0.70141 0.0201 0.0
C865 C 0.17275 0.71616 0.97644 0.0
N866 N 0.09399 0.69868 0.94128 0.0
N867 N 0.19607 0.72674 0.05521 0.0
H868 H 0.20143 0.72271 0.91746 0.0
H869 H 0.22062 0.72845 0.97171 0.0
H870 H 0.19408 0.72703 0.09194 0.0
H871 H 0.21892 0.73645 0.04305 0.0
H872 H 0.07317 0.69657 0.95341 0.0
H873 H 0.09611 0.69945 0.90451 0.0
H874 H 0.06759 0.68944 0.02543 0.0
H875 H 0.08684 0.69423 0.07943 0.0
C876 C 0.85666 0.5546 0.53307 0.0
C877 C 0.88523 0.57418 0.55653 0.0
C878 C 0.90945 0.59862 0.48116 0.0
C879 C 0.8839 0.57373 0.4576 0.0
N880 N 0.83046 0.53273 0.45802 0.0
N881 N 0.93608 0.61969 0.55629 0.0
C882 C 0.85612 0.55393 0.4827 0.0
C883 C 0.91047 0.59849 0.53154 0.0
N884 N 0.831 0.53526 0.55937 0.0
N885 N 0.93329 0.62089 0.45477 0.0
H886 H 0.93638 0.6197 0.59321 0.0
H887 H 0.95653 0.63711 0.54094 0.0
H888 H 0.93222 0.62057 0.41787 0.0
H889 H 0.9529 0.64019 0.46877 0.0
H890 H 0.80891 0.52055 0.54544 0.0
H891 H 0.83182 0.53527 0.59622 0.0
H892 H 0.80968 0.51589 0.47332 0.0
H893 H 0.8303 0.53228 0.42113 0.0
C894 C 0.3306 0.90737 0.52363 0.0
C895 C 0.32832 0.88183 0.54939 0.0
C896 C 0.3174 0.85166 0.4761 0.0
C897 C 0.32735 0.87952 0.4503 0.0
N898 N 0.33724 0.93204 0.44662 0.0
N899 N 0.31426 0.82794 0.55285 0.0
C900 C 0.33111 0.90661 0.47328 0.0
C901 C 0.31908 0.85304 0.52643 0.0
N902 N 0.33365 0.93262 0.54779 0.0
N903 N 0.3078 0.82447 0.45197 0.0
H904 H 0.3148 0.82863 0.58973 0.0
H905 H 0.31022 0.80683 0.53877 0.0
H906 H 0.30665 0.82363 0.4151 0.0
H907 H 0.29893 0.80274 0.46792 0.0
H908 H 0.33452 0.95199 0.53194 0.0
H909 H 0.33321 0.93304 0.58469 0.0
H910 H 0.34303 0.95375 0.4604 0.0
H911 H 0.33653 0.93109 0.40972 0.0
C912 C 0.47105 0.31416 0.52923 0.0
C913 C 0.45201 0.32397 0.55232 0.0
C914 C 0.42895 0.32578 0.47666 0.0
C915 C 0.4521 0.32187 0.45333 0.0
N916 N 0.4882 0.303 0.45454 0.0
N917 N 0.4068 0.32983 0.55163 0.0
C918 C 0.47041 0.31226 0.47891 0.0
C919 C 0.42845 0.32608 0.52703 0.0
N920 N 0.49122 0.30903 0.55552 0.0
N921 N 0.40911 0.3313 0.45021 0.0
H922 H 0.40652 0.32993 0.58855 0.0
H923 H 0.38829 0.33094 0.53623 0.0
H924 H 0.40892 0.33012 0.41334 0.0
H925 H 0.39303 0.33685 0.46411 0.0
H926 H 0.50774 0.30417 0.54145 0.0
H927 H 0.49129 0.30982 0.5924 0.0
H928 H 0.50159 0.29464 0.47022 0.0
H929 H 0.48786 0.30197 0.41767 0.0
C930 C 0.16287 0.47212 0.53004 0.0
C931 C 0.13443 0.45249 0.55389 0.0
C932 C 0.1086 0.42979 0.47848 0.0
C933 C 0.13541 0.45298 0.45458 0.0
N934 N 0.19045 0.48948 0.45482 0.0
N935 N 0.08365 0.40678 0.55383 0.0
C936 C 0.16358 0.47157 0.47964 0.0
C937 C 0.10854 0.42894 0.52888 0.0
N938 N 0.18832 0.49268 0.55578 0.0
N939 N 0.0828 0.41003 0.45269 0.0
H940 H 0.08377 0.40621 0.59074 0.0
H941 H 0.06409 0.38806 0.53864 0.0
H942 H 0.08319 0.40979 0.41578 0.0
H943 H 0.06127 0.39419 0.4672 0.0
H944 H 0.20924 0.50982 0.54119 0.0
H945 H 0.18814 0.49262 0.59268 0.0
H946 H 0.21237 0.50276 0.47016 0.0
H947 H 0.1909 0.48926 0.41794 0.0
C948 C 0.69416 0.10378 0.47956 0.0
C949 C 0.69666 0.13006 0.45563 0.0
C950 C 0.70574 0.15788 0.53075 0.0
C951 C 0.69706 0.12959 0.55473 0.0
N952 N 0.69314 0.07949 0.55517 0.0
N953 N 0.71422 0.18477 0.45523 0.0
C954 C 0.69535 0.104 0.52993 0.0
C955 C 0.70632 0.1583 0.48034 0.0
N956 N 0.68846 0.0781 0.45389 0.0
N957 N 0.71068 0.18329 0.55647 0.0
H958 H 0.71411 0.18485 0.41834 0.0
H959 H 0.72254 0.2067 0.47023 0.0
H960 H 0.71052 0.183 0.59336 0.0
H961 H 0.71471 0.20427 0.54195 0.0
H962 H 0.68382 0.05695 0.46853 0.0
H963 H 0.68845 0.07829 0.41696 0.0
H964 H 0.69252 0.06001 0.54018 0.0
H965 H 0.69394 0.07992 0.59208 0.0
C966 C 0.5953 0.68399 0.47705 0.0
C967 C 0.57331 0.68895 0.45215 0.0
C968 C 0.55511 0.69984 0.52631 0.0
C969 C 0.57299 0.68934 0.55127 0.0
N970 N 0.61665 0.68098 0.55338 0.0
N971 N 0.54044 0.71162 0.44996 0.0
C972 C 0.59577 0.68517 0.52739 0.0
C973 C 0.55635 0.70086 0.47595 0.0
N974 N 0.61403 0.67615 0.45219 0.0
N975 N 0.53529 0.70637 0.55085 0.0
H976 H 0.54137 0.71225 0.41309 0.0
H977 H 0.52848 0.72195 0.46441 0.0
H978 H 0.53472 0.70626 0.58773 0.0
H979 H 0.51924 0.71134 0.53522 0.0
H980 H 0.62895 0.66952 0.46746 0.0
H981 H 0.61437 0.67635 0.41526 0.0
H982 H 0.63469 0.67859 0.53898 0.0
H983 H 0.6169 0.68196 0.59027 0.0
C984 C 0.54702 0.10888 0.25994 0.0
C985 C 0.54876 0.13763 0.24928 0.0
C986 C 0.60579 0.16454 0.25994 0.0
C987 C 0.60407 0.1352 0.26536 0.0
N988 N 0.57384 0.07939 0.25763 0.0
N989 N 0.58 0.19284 0.2343 0.0
C990 C 0.57488 0.10732 0.26177 0.0
C991 C 0.57826 0.16552 0.24785 0.0
N992 N 0.51881 0.08321 0.26954 0.0
N993 N 0.63354 0.19143 0.26731 0.0
H994 H 0.56026 0.19471 0.22752 0.0
H995 H 0.60097 0.21319 0.22719 0.0
H996 H 0.65432 0.19163 0.27457 0.0
H997 H 0.63562 0.21339 0.2692 0.0
H998 H 0.51636 0.06214 0.28123 0.0
H999 H 0.49838 0.08432 0.27128 0.0
H1000 H 0.55332 0.05841 0.25116 0.0
H1001 H 0.59408 0.07803 0.25438 0.0
C1002 C 0.47054 0.56704 0.26012 0.0
C1003 C 0.47126 0.59573 0.26671 0.0
C1004 C 0.4146 0.56923 0.25255 0.0
C1005 C 0.41376 0.54017 0.25052 0.0
N1006 N 0.43959 0.51092 0.26623 0.0
N1007 N 0.44325 0.62361 0.27657 0.0
C1008 C 0.44136 0.53892 0.25849 0.0
C1009 C 0.44303 0.5967 0.26508 0.0
N1010 N 0.49768 0.56672 0.25341 0.0
N1011 N 0.38839 0.57065 0.24182 0.0
H1012 H 0.46365 0.64419 0.28528 0.0
H1013 H 0.42303 0.62494 0.28088 0.0
H1014 H 0.36687 0.55085 0.23463 0.0
H1015 H 0.38839 0.59152 0.23731 0.0
H1016 H 0.4984 0.54664 0.24467 0.0
H1017 H 0.51911 0.58721 0.2507 0.0
H1018 H 0.45877 0.50874 0.27579 0.0
H1019 H 0.41821 0.49037 0.26906 0.0
C1020 C 0.85296 0.44382 0.2573 0.0
C1021 C 0.87914 0.46592 0.284 0.0
C1022 C 0.89795 0.42825 0.2886 0.0
C1023 C 0.87444 0.4084 0.2562 0.0
N1024 N 0.82964 0.39742 0.20829 0.0
N1025 N 0.92777 0.47947 0.32301 0.0
C1026 C 0.85208 0.41634 0.23998 0.0
C1027 C 0.90168 0.45798 0.2997 0.0
N1028 N 0.82786 0.44802 0.25115 0.0
N1029 N 0.91709 0.41894 0.30861 0.0
H1030 H 0.93126 0.50112 0.33228 0.0
H1031 H 0.94718 0.47706 0.32949 0.0
H1032 H 0.91692 0.39867 0.29879 0.0
H1033 H 0.93167 0.43011 0.33729 0.0
H1034 H 0.80679 0.43133 0.23621 0.0
H1035 H 0.82659 0.46667 0.26581 0.0
H1036 H 0.81564 0.40409 0.19 0.0
H1037 H 0.82586 0.3755 0.19847 0.0
C1038 C 0.47488 0.90012 0.25199 0.0
C1039 C 0.4734 0.87162 0.24028 0.0
C1040 C 0.41633 0.84429 0.25012 0.0
C1041 C 0.41783 0.87345 0.25675 0.0
N1042 N 0.4478 0.92935 0.25041 0.0
N1043 N 0.44241 0.81673 0.22246 0.0
C1044 C 0.44692 0.90147 0.25378 0.0
C1045 C 0.44397 0.8437 0.23754 0.0
N1046 N 0.50287 0.9257 0.26291 0.0
N1047 N 0.38872 0.81719 0.2571 0.0
H1048 H 0.46222 0.81516 0.21484 0.0
H1049 H 0.4215 0.79648 0.21464 0.0
H1050 H 0.36794 0.81675 0.26531 0.0
H1051 H 0.38683 0.79529 0.25795 0.0
H1052 H 0.50502 0.9465 0.27534 0.0
H1053 H 0.52333 0.92467 0.26506 0.0
H1054 H 0.46829 0.95046 0.24451 0.0
H1055 H 0.42748 0.93055 0.24712 0.0
C1056 C 0.60535 0.43635 0.24283 0.0
C1057 C 0.60742 0.46593 0.24681 0.0
C1058 C 0.55097 0.44018 0.2596 0.0
C1059 C 0.54925 0.41079 0.26099 0.0
N1060 N 0.57539 0.38075 0.25915 0.0
N1061 N 0.58351 0.49587 0.27027 0.0
C1062 C 0.57664 0.40879 0.25398 0.0
C1063 C 0.58061 0.4678 0.25874 0.0
N1064 N 0.63071 0.43459 0.22791 0.0
N1065 N 0.52423 0.44165 0.25644 0.0
H1066 H 0.60521 0.51611 0.27246 0.0
H1067 H 0.56504 0.49828 0.28291 0.0
H1068 H 0.50254 0.42165 0.25204 0.0
H1069 H 0.52402 0.4624 0.25166 0.0
H1070 H 0.62974 0.41372 0.21897 0.0
H1071 H 0.65251 0.45429 0.22189 0.0
H1072 H 0.59513 0.37833 0.25987 0.0
H1073 H 0.55463 0.35998 0.26571 0.0
C1074 C 0.16853 0.60082 0.24758 0.0
C1075 C 0.14285 0.59805 0.22057 0.0
C1076 C 0.11791 0.5407 0.22469 0.0
C1077 C 0.1432 0.54349 0.25186 0.0
N1078 N 0.1952 0.57549 0.28239 0.0
N1079 N 0.09701 0.56462 0.17387 0.0
C1080 C 0.16921 0.57341 0.26163 0.0
C1081 C 0.11888 0.56782 0.20607 0.0
N1082 N 0.19275 0.62978 0.25886 0.0
N1083 N 0.09193 0.51206 0.21867 0.0
H1084 H 0.09492 0.58315 0.16219 0.0
H1085 H 0.08212 0.5438 0.15652 0.0
H1086 H 0.09078 0.49164 0.23025 0.0
H1087 H 0.07075 0.50866 0.20559 0.0
H1088 H 0.20962 0.6338 0.2842 0.0
H1089 H 0.19603 0.6502 0.24302 0.0
H1090 H 0.2163 0.59619 0.28658 0.0
H1091 H 0.19657 0.55598 0.29264 0.0
C1092 C 0.43738 0.84581 0.77995 0.0
C1093 C 0.46792 0.86901 0.76571 0.0
C1094 C 0.44687 0.90131 0.73665 0.0
C1095 C 0.41604 0.87688 0.74566 0.0
N1096 N 0.38148 0.82351 0.76935 0.0
N1097 N 0.50053 0.91598 0.72108 0.0
C1098 C 0.4111 0.84849 0.76585 0.0
C1099 C 0.47226 0.89572 0.74075 0.0
N1100 N 0.43338 0.82099 0.80643 0.0
N1101 N 0.4522 0.9306 0.72765 0.0
H1102 H 0.52026 0.91372 0.7246 0.0
H1103 H 0.50375 0.9339 0.69831 0.0
H1104 H 0.43444 0.93592 0.73056 0.0
H1105 H 0.47446 0.95007 0.72442 0.0
H1106 H 0.41236 0.80551 0.82283 0.0
H1107 H 0.45153 0.81674 0.81424 0.0
H1108 H 0.37666 0.8012 0.77872 0.0
H1109 H 0.36164 0.82432 0.75914 0.0
C1110 C 0.60347 0.43975 0.76411 0.0
C1111 C 0.60703 0.46987 0.75842 0.0
C1112 C 0.55104 0.44607 0.7425 0.0
C1113 C 0.54793 0.41607 0.74306 0.0
N1114 N 0.57192 0.38412 0.74889 0.0
N1115 N 0.58568 0.5014 0.73131 0.0
C1116 C 0.57438 0.4128 0.75242 0.0
C1117 C 0.58126 0.47293 0.7441 0.0
N1118 N 0.62781 0.4369 0.78112 0.0
N1119 N 0.525 0.4489 0.74322 0.0
H1120 H 0.6078 0.52112 0.73012 0.0
H1121 H 0.56811 0.50464 0.71689 0.0
H1122 H 0.50277 0.42956 0.74702 0.0
H1123 H 0.52571 0.4702 0.74659 0.0
H1124 H 0.62563 0.41571 0.79141 0.0
H1125 H 0.64993 0.45606 0.78745 0.0
H1126 H 0.59106 0.38072 0.74994 0.0
H1127 H 0.55086 0.36379 0.7418 0.0
C1128 C 0.17028 0.59828 0.78332 0.0
C1129 C 0.14724 0.60547 0.76778 0.0
C1130 C 0.11503 0.55186 0.7396 0.0
C1131 C 0.1394 0.5456 0.74971 0.0
N1132 N 0.19266 0.56472 0.77477 0.0
N1133 N 0.10057 0.59063 0.72182 0.0
C1134 C 0.16768 0.56924 0.77018 0.0
C1135 C 0.12065 0.58284 0.74267 0.0
N1136 N 0.19492 0.61933 0.81002 0.0
N1137 N 0.08574 0.52776 0.73046 0.0
H1138 H 0.10282 0.61262 0.72461 0.0
H1139 H 0.08281 0.57569 0.69893 0.0
H1140 H 0.08036 0.50471 0.73413 0.0
H1141 H 0.06629 0.53048 0.72638 0.0
H1142 H 0.21021 0.61392 0.8273 0.0
H1143 H 0.19918 0.64179 0.81712 0.0
H1144 H 0.21493 0.58234 0.78436 0.0
H1145 H 0.19194 0.54404 0.76527 0.0
C1146 C 0.56769 0.11482 0.71586 0.0
C1147 C 0.59846 0.13763 0.72999 0.0
C1148 C 0.57714 0.16756 0.76849 0.0
C1149 C 0.54664 0.14524 0.75281 0.0
N1150 N 0.51392 0.10117 0.7031 0.0
N1151 N 0.63302 0.18986 0.7585 0.0
C1152 C 0.54232 0.12017 0.72351 0.0
C1153 C 0.60335 0.16516 0.75332 0.0
N1154 N 0.56222 0.08706 0.69769 0.0
N1155 N 0.58117 0.19128 0.79773 0.0
H1156 H 0.65277 0.1898 0.74581 0.0
H1157 H 0.63793 0.21168 0.77078 0.0
H1158 H 0.56324 0.19576 0.80607 0.0
H1159 H 0.60197 0.20562 0.81559 0.0
H1160 H 0.54001 0.06788 0.69246 0.0
H1161 H 0.57996 0.08215 0.69223 0.0
H1162 H 0.51029 0.0849 0.67693 0.0
H1163 H 0.49441 0.10338 0.70925 0.0
C1164 C 0.4235 0.55322 0.71679 0.0
C1165 C 0.41322 0.54775 0.76464 0.0
C1166 C 0.46405 0.59237 0.78682 0.0
C1167 C 0.47132 0.60156 0.73872 0.0
N1168 N 0.44902 0.59415 0.65958 0.0
N1169 N 0.42168 0.57192 0.84239 0.0
C1170 C 0.44852 0.58308 0.70395 0.0
C1171 C 0.4328 0.57015 0.79903 0.0
N1172 N 0.41067 0.53025 0.68348 0.0
N1173 N 0.48651 0.6036 0.82104 0.0
H1174 H 0.39804 0.55987 0.85106 0.0
H1175 H 0.43539 0.58923 0.86682 0.0
H1176 H 0.51026 0.61691 0.81372 0.0
H1177 H 0.48167 0.59567 0.85588 0.0
H1178 H 0.41932 0.5336 0.64904 0.0
H1179 H 0.39496 0.50706 0.69144 0.0
H1180 H 0.43152 0.58137 0.63485 0.0
H1181 H 0.46334 0.61736 0.64991 0.0
C1182 C 0.89586 0.42808 0.72389 0.0
C1183 C 0.8707 0.40722 0.75307 0.0
C1184 C 0.85051 0.44371 0.75306 0.0
C1185 C 0.87806 0.46646 0.72976 0.0
N1186 N 0.92867 0.48105 0.69726 0.0
N1187 N 0.8244 0.39541 0.79754 0.0
C1188 C 0.901 0.45868 0.71579 0.0
C1189 C 0.8482 0.41519 0.76841 0.0
N1190 N 0.91513 0.41887 0.70404 0.0
N1191 N 0.8257 0.44847 0.75806 0.0
H1192 H 0.81997 0.37306 0.80598 0.0
H1193 H 0.80992 0.40173 0.81521 0.0
H1194 H 0.8257 0.46821 0.74525 0.0
H1195 H 0.80385 0.43149 0.7703 0.0
H1196 H 0.93149 0.43151 0.67794 0.0
H1197 H 0.91312 0.39732 0.71068 0.0
H1198 H 0.94798 0.47825 0.69216 0.0
H1199 H 0.93333 0.50354 0.69112 0.0
loop_
_geom_bond_atom_site_label_1
_geom_bond_atom_site_label_2
_geom_bond_distance
_geom_bond_site_symmetry_2
_ccdc_geom_bond_type
Co0 O1 2.216 . S
Co0 O2 2.091 . S
Co0 O4 2.004 . S
Co0 O10 2.021 . S
Co0 O12 2.137 . S
Co0 O13 2.244 . S
O1 Co0 2.216 . S
O1 C8 1.247 . S
O2 Co0 2.091 . S
O2 C8 1.261 . S
C3 O12 1.247 . S
C3 O13 1.272 . S
O4 Co0 2.004 . S
O4 C9 1.259 . S
Co5 O6 2.061 . S
Co5 O11 2.052 . S
Co5 O13 2.135 . S
O6 Co5 2.061 . S
O6 C9 1.235 . S
C7 O10 1.238 . S
C7 O11 1.241 . S
C8 O1 1.247 . S
C8 O2 1.261 . S
C9 O4 1.259 . S
C9 O6 1.235 . S
O10 Co0 2.021 . S
O10 C7 1.238 . S
O11 Co5 2.052 . S
O11 C7 1.241 . S
O12 Co0 2.137 . S
O12 C3 1.247 . S
O13 Co0 2.244 . S
O13 C3 1.272 . S
O13 Co5 2.135 . S
Co14 O15 2.216 . S
Co14 O16 2.091 . S
Co14 O18 2.004 . S
Co14 O24 2.021 . S
Co14 O26 2.137 . S
Co14 O27 2.244 . S
O15 Co14 2.216 . S
O15 C22 1.247 . S
O16 Co14 2.091 . S
O16 C22 1.261 . S
C17 O26 1.247 . S
C17 O27 1.272 . S
O18 Co14 2.004 . S
O18 C23 1.259 . S
Co19 O20 2.061 . S
Co19 O25 2.052 . S
Co19 O27 2.135 . S
O20 Co19 2.061 . S
O20 C23 1.235 . S
C21 O24 1.238 . S
C21 O25 1.241 . S
C22 O15 1.247 . S
C22 O16 1.261 . S
C23 O18 1.259 . S
C23 O20 1.235 . S
O24 Co14 2.021 . S
O24 C21 1.238 . S
O25 Co19 2.052 . S
O25 C21 1.241 . S
O26 Co14 2.137 . S
O26 C17 1.247 . S
O27 Co14 2.244 . S
O27 C17 1.272 . S
O27 Co19 2.135 . S
Co28 O29 2.216 . S
Co28 O30 2.091 . S
Co28 O32 2.004 . S
Co28 O38 2.021 . S
Co28 O40 2.137 . S
Co28 O41 2.244 . S
O29 Co28 2.216 . S
O29 C36 1.247 . S
O30 Co28 2.091 . S
O30 C36 1.261 . S
C31 O40 1.247 . S
C31 O41 1.272 . S
O32 Co28 2.004 . S
O32 C37 1.259 . S
Co33 O34 2.061 . S
Co33 O39 2.052 . S
Co33 O41 2.135 . S
O34 Co33 2.061 . S
O34 C37 1.235 . S
C35 O38 1.238 . S
C35 O39 1.241 . S
C36 O29 1.247 . S
C36 O30 1.261 . S
C37 O32 1.259 . S
C37 O34 1.235 . S
O38 Co28 2.021 . S
O38 C35 1.238 . S
O39 Co33 2.052 . S
O39 C35 1.241 . S
O40 Co28 2.137 . S
O40 C31 1.247 . S
O41 Co28 2.244 . S
O41 C31 1.272 . S
O41 Co33 2.135 . S
Co42 O43 2.216 . S
Co42 O44 2.091 . S
Co42 O46 2.004 . S
Co42 O52 2.021 . S
Co42 O54 2.137 . S
Co42 O55 2.244 . S
O43 Co42 2.216 . S
O43 C50 1.247 . S
O44 Co42 2.091 . S
O44 C50 1.261 . S
C45 O54 1.247 . S
C45 O55 1.272 . S
O46 Co42 2.004 . S
O46 C51 1.259 . S
Co47 O48 2.061 . S
Co47 O53 2.052 . S
Co47 O55 2.135 . S
O48 Co47 2.061 . S
O48 C51 1.235 . S
C49 O52 1.238 . S
C49 O53 1.241 . S
C50 O43 1.247 . S
C50 O44 1.261 . S
C51 O46 1.259 . S
C51 O48 1.235 . S
O52 Co42 2.021 . S
O52 C49 1.238 . S
O53 Co47 2.052 . S
O53 C49 1.241 . S
O54 Co42 2.137 . S
O54 C45 1.247 . S
O55 Co42 2.244 . S
O55 C45 1.272 . S
O55 Co47 2.135 . S
Co56 O57 2.216 . S
Co56 O58 2.091 . S
Co56 O60 2.004 . S
Co56 O66 2.021 . S
Co56 O68 2.137 . S
Co56 O69 2.244 . S
O57 Co56 2.216 . S
O57 C64 1.247 . S
O58 Co56 2.091 . S
O58 C64 1.261 . S
C59 O68 1.247 . S
C59 O69 1.272 . S
O60 Co56 2.004 . S
O60 C65 1.259 . S
Co61 O62 2.061 . S
Co61 O67 2.052 . S
Co61 O69 2.135 . S
O62 Co61 2.061 . S
O62 C65 1.235 . S
C63 O66 1.238 . S
C63 O67 1.241 . S
C64 O57 1.247 . S
C64 O58 1.261 . S
C65 O60 1.259 . S
C65 O62 1.235 . S
O66 Co56 2.021 . S
O66 C63 1.238 . S
O67 Co61 2.052 . S
O67 C63 1.241 . S
O68 Co56 2.137 . S
O68 C59 1.247 . S
O69 Co56 2.244 . S
O69 C59 1.272 . S
O69 Co61 2.135 . S
Co70 O71 2.216 . S
Co70 O72 2.091 . S
Co70 O74 2.004 . S
Co70 O80 2.021 . S
Co70 O82 2.137 . S
Co70 O83 2.244 . S
O71 Co70 2.216 . S
O71 C78 1.247 . S
O72 Co70 2.091 . S
O72 C78 1.261 . S
C73 O82 1.247 . S
C73 O83 1.272 . S
O74 Co70 2.004 . S
O74 C79 1.259 . S
Co75 O76 2.061 . S
Co75 O81 2.052 . S
Co75 O83 2.135 . S
O76 Co75 2.061 . S
O76 C79 1.235 . S
C77 O80 1.238 . S
C77 O81 1.241 . S
C78 O71 1.247 . S
C78 O72 1.261 . S
C79 O74 1.259 . S
C79 O76 1.235 . S
O80 Co70 2.021 . S
O80 C77 1.238 . S
O81 Co75 2.052 . S
O81 C77 1.241 . S
O82 Co70 2.137 . S
O82 C73 1.247 . S
O83 Co70 2.244 . S
O83 C73 1.272 . S
O83 Co75 2.135 . S
Co84 O85 2.216 . S
Co84 O86 2.091 . S
Co84 O88 2.004 . S
Co84 O94 2.021 . S
Co84 O96 2.137 . S
Co84 O97 2.244 . S
O85 Co84 2.216 . S
O85 C92 1.247 . S
O86 Co84 2.091 . S
O86 C92 1.261 . S
C87 O96 1.247 . S
C87 O97 1.272 . S
O88 Co84 2.004 . S
O88 C93 1.259 . S
Co89 O90 2.061 . S
Co89 O95 2.052 . S
Co89 O97 2.135 . S
O90 Co89 2.061 . S
O90 C93 1.235 . S
C91 O94 1.238 . S
C91 O95 1.241 . S
C92 O85 1.247 . S
C92 O86 1.261 . S
C93 O88 1.259 . S
C93 O90 1.235 . S
O94 Co84 2.021 . S
O94 C91 1.238 . S
O95 Co89 2.052 . S
O95 C91 1.241 . S
O96 Co84 2.137 . S
O96 C87 1.247 . S
O97 Co84 2.244 . S
O97 C87 1.272 . S
O97 Co89 2.135 . S
Co98 O99 2.216 . S
Co98 O100 2.091 . S
Co98 O102 2.004 . S
Co98 O108 2.021 . S
Co98 O110 2.137 . S
Co98 O111 2.244 . S
O99 Co98 2.216 . S
O99 C106 1.247 . S
O100 Co98 2.091 . S
O100 C106 1.261 . S
C101 O110 1.247 . S
C101 O111 1.272 . S
O102 Co98 2.004 . S
O102 C107 1.259 . S
Co103 O104 2.061 . S
Co103 O109 2.052 . S
Co103 O111 2.135 . S
O104 Co103 2.061 . S
O104 C107 1.235 . S
C105 O108 1.238 . S
C105 O109 1.241 . S
C106 O99 1.247 . S
C106 O100 1.261 . S
C107 O102 1.259 . S
C107 O104 1.235 . S
O108 Co98 2.021 . S
O108 C105 1.238 . S
O109 Co103 2.052 . S
O109 C105 1.241 . S
O110 Co98 2.137 . S
O110 C101 1.247 . S
O111 Co98 2.244 . S
O111 C101 1.272 . S
O111 Co103 2.135 . S
Co112 O113 2.216 . S
Co112 O114 2.091 . S
Co112 O116 2.004 . S
Co112 O122 2.021 . S
Co112 O124 2.137 . S
Co112 O125 2.244 . S
O113 Co112 2.216 . S
O113 C120 1.247 . S
O114 Co112 2.091 . S
O114 C120 1.261 . S
C115 O124 1.247 . S
C115 O125 1.272 . S
O116 Co112 2.004 . S
O116 C121 1.259 . S
Co117 O118 2.061 . S
Co117 O123 2.052 . S
Co117 O125 2.135 . S
O118 Co117 2.061 . S
O118 C121 1.235 . S
C119 O122 1.238 . S
C119 O123 1.241 . S
C120 O113 1.247 . S
C120 O114 1.261 . S
C121 O116 1.259 . S
C121 O118 1.235 . S
O122 Co112 2.021 . S
O122 C119 1.238 . S
O123 Co117 2.052 . S
O123 C119 1.241 . S
O124 Co112 2.137 . S
O124 C115 1.247 . S
O125 Co112 2.244 . S
O125 C115 1.272 . S
O125 Co117 2.135 . S
Co126 O127 2.216 . S
Co126 O128 2.091 . S
Co126 O130 2.004 . S
Co126 O136 2.021 . S
Co126 O138 2.137 . S
Co126 O139 2.244 . S
O127 Co126 2.216 . S
O127 C134 1.247 . S
O128 Co126 2.091 . S
O128 C134 1.261 . S
C129 O138 1.247 . S
C129 O139 1.272 . S
O130 Co126 2.004 . S
O130 C135 1.259 . S
Co131 O132 2.061 . S
Co131 O137 2.052 . S
Co131 O139 2.135 . S
O132 Co131 2.061 . S
O132 C135 1.235 . S
C133 O136 1.238 . S
C133 O137 1.241 . S
C134 O127 1.247 . S
C134 O128 1.261 . S
C135 O130 1.259 . S
C135 O132 1.235 . S
O136 Co126 2.021 . S
O136 C133 1.238 . S
O137 Co131 2.052 . S
O137 C133 1.241 . S
O138 Co126 2.137 . S
O138 C129 1.247 . S
O139 Co126 2.244 . S
O139 C129 1.272 . S
O139 Co131 2.135 . S
Co140 O141 2.216 . S
Co140 O142 2.091 . S
Co140 O144 2.004 . S
Co140 O150 2.021 . S
Co140 O152 2.137 . S
Co140 O153 2.244 . S
O141 Co140 2.216 . S
O141 C148 1.247 . S
O142 Co140 2.091 . S
O142 C148 1.261 . S
C143 O152 1.247 . S
C143 O153 1.272 . S
O144 Co140 2.004 . S
O144 C149 1.259 . S
Co145 O146 2.061 . S
Co145 O151 2.052 . S
Co145 O153 2.135 . S
O146 Co145 2.061 . S
O146 C149 1.235 . S
C147 O150 1.238 . S
C147 O151 1.241 . S
C148 O141 1.247 . S
C148 O142 1.261 . S
C149 O144 1.259 . S
C149 O146 1.235 . S
O150 Co140 2.021 . S
O150 C147 1.238 . S
O151 Co145 2.052 . S
O151 C147 1.241 . S
O152 Co140 2.137 . S
O152 C143 1.247 . S
O153 Co140 2.244 . S
O153 C143 1.272 . S
O153 Co145 2.135 . S
Co154 O155 2.216 . S
Co154 O156 2.091 . S
Co154 O158 2.004 . S
Co154 O164 2.021 . S
Co154 O166 2.137 . S
Co154 O167 2.244 . S
O155 Co154 2.216 . S
O155 C162 1.247 . S
O156 Co154 2.091 . S
O156 C162 1.261 . S
C157 O166 1.247 . S
C157 O167 1.272 . S
O158 Co154 2.004 . S
O158 C163 1.259 . S
Co159 O160 2.061 . S
Co159 O165 2.052 . S
Co159 O167 2.135 . S
O160 Co159 2.061 . S
O160 C163 1.235 . S
C161 O164 1.238 . S
C161 O165 1.241 . S
C162 O155 1.247 . S
C162 O156 1.261 . S
C163 O158 1.259 . S
C163 O160 1.235 . S
O164 Co154 2.021 . S
O164 C161 1.238 . S
O165 Co159 2.052 . S
O165 C161 1.241 . S
O166 Co154 2.137 . S
O166 C157 1.247 . S
O167 Co154 2.244 . S
O167 C157 1.272 . S
O167 Co159 2.135 . S
Co168 O169 2.216 . S
Co168 O170 2.091 . S
Co168 O172 2.004 . S
Co168 O178 2.021 . S
Co168 O180 2.137 . S
Co168 O181 2.244 . S
O169 Co168 2.216 . S
O169 C176 1.247 . S
O170 Co168 2.091 . S
O170 C176 1.261 . S
C171 O180 1.247 . S
C171 O181 1.272 . S
O172 Co168 2.004 . S
O172 C177 1.259 . S
Co173 O174 2.061 . S
Co173 O179 2.052 . S
Co173 O181 2.135 . S
O174 Co173 2.061 . S
O174 C177 1.235 . S
C175 O178 1.238 . S
C175 O179 1.241 . S
C176 O169 1.247 . S
C176 O170 1.261 . S
C177 O172 1.259 . S
C177 O174 1.235 . S
O178 Co168 2.021 . S
O178 C175 1.238 . S
O179 Co173 2.052 . S
O179 C175 1.241 . S
O180 Co168 2.137 . S
O180 C171 1.247 . S
O181 Co168 2.244 . S
O181 C171 1.272 . S
O181 Co173 2.135 . S
Co182 O183 2.216 . S
Co182 O184 2.091 . S
Co182 O186 2.004 . S
Co182 O192 2.021 . S
Co182 O194 2.137 . S
Co182 O195 2.244 . S
O183 Co182 2.216 . S
O183 C190 1.247 . S
O184 Co182 2.091 . S
O184 C190 1.261 . S
C185 O194 1.247 . S
C185 O195 1.272 . S
O186 Co182 2.004 . S
O186 C191 1.259 . S
Co187 O188 2.061 . S
Co187 O193 2.052 . S
Co187 O195 2.135 . S
O188 Co187 2.061 . S
O188 C191 1.235 . S
C189 O192 1.238 . S
C189 O193 1.241 . S
C190 O183 1.247 . S
C190 O184 1.261 . S
C191 O186 1.259 . S
C191 O188 1.235 . S
O192 Co182 2.021 . S
O192 C189 1.238 . S
O193 Co187 2.052 . S
O193 C189 1.241 . S
O194 Co182 2.137 . S
O194 C185 1.247 . S
O195 Co182 2.244 . S
O195 C185 1.272 . S
O195 Co187 2.135 . S
Co196 O197 2.216 . S
Co196 O198 2.091 . S
Co196 O200 2.004 . S
Co196 O206 2.021 . S
Co196 O208 2.137 . S
Co196 O209 2.244 . S
O197 Co196 2.216 . S
O197 C204 1.247 . S
O198 Co196 2.091 . S
O198 C204 1.261 . S
C199 O208 1.247 . S
C199 O209 1.272 . S
O200 Co196 2.004 . S
O200 C205 1.259 . S
Co201 O202 2.061 . S
Co201 O207 2.052 . S
Co201 O209 2.135 . S
O202 Co201 2.061 . S
O202 C205 1.235 . S
C203 O206 1.238 . S
C203 O207 1.241 . S
C204 O197 1.247 . S
C204 O198 1.261 . S
C205 O200 1.259 . S
C205 O202 1.235 . S
O206 Co196 2.021 . S
O206 C203 1.238 . S
O207 Co201 2.052 . S
O207 C203 1.241 . S
O208 Co196 2.137 . S
O208 C199 1.247 . S
O209 Co196 2.244 . S
O209 C199 1.272 . S
O209 Co201 2.135 . S
Co210 O211 2.216 . S
Co210 O212 2.091 . S
Co210 O214 2.004 . S
Co210 O220 2.021 . S
Co210 O222 2.137 . S
Co210 O223 2.244 . S
O211 Co210 2.216 . S
O211 C218 1.247 . S
O212 Co210 2.091 . S
O212 C218 1.261 . S
C213 O222 1.247 . S
C213 O223 1.272 . S
O214 Co210 2.004 . S
O214 C219 1.259 . S
Co215 O216 2.061 . S
Co215 O221 2.052 . S
Co215 O223 2.135 . S
O216 Co215 2.061 . S
O216 C219 1.235 . S
C217 O220 1.238 . S
C217 O221 1.241 . S
C218 O211 1.247 . S
C218 O212 1.261 . S
C219 O214 1.259 . S
C219 O216 1.235 . S
O220 Co210 2.021 . S
O220 C217 1.238 . S
O221 Co215 2.052 . S
O221 C217 1.241 . S
O222 Co210 2.137 . S
O222 C213 1.247 . S
O223 Co210 2.244 . S
O223 C213 1.272 . S
O223 Co215 2.135 . S
Co224 O225 2.216 . S
Co224 O226 2.091 . S
Co224 O228 2.004 . S
Co224 O234 2.021 . S
Co224 O236 2.137 . S
Co224 O237 2.244 . S
O225 Co224 2.216 . S
O225 C232 1.247 . S
O226 Co224 2.091 . S
O226 C232 1.261 . S
C227 O236 1.247 . S
C227 O237 1.272 . S
O228 Co224 2.004 . S
O228 C233 1.259 . S
Co229 O230 2.061 . S
Co229 O235 2.052 . S
Co229 O237 2.135 . S
O230 Co229 2.061 . S
O230 C233 1.235 . S
C231 O234 1.238 . S
C231 O235 1.241 . S
C232 O225 1.247 . S
C232 O226 1.261 . S
C233 O228 1.259 . S
C233 O230 1.235 . S
O234 Co224 2.021 . S
O234 C231 1.238 . S
O235 Co229 2.052 . S
O235 C231 1.241 . S
O236 Co224 2.137 . S
O236 C227 1.247 . S
O237 Co224 2.244 . S
O237 C227 1.272 . S
O237 Co229 2.135 . S
Co238 O239 2.216 . S
Co238 O240 2.091 . S
Co238 O242 2.004 . S
Co238 O248 2.021 . S
Co238 O250 2.137 . S
Co238 O251 2.244 . S
O239 Co238 2.216 . S
O239 C246 1.247 . S
O240 Co238 2.091 . S
O240 C246 1.261 . S
C241 O250 1.247 . S
C241 O251 1.272 . S
O242 Co238 2.004 . S
O242 C247 1.259 . S
Co243 O244 2.061 . S
Co243 O249 2.052 . S
Co243 O251 2.135 . S
O244 Co243 2.061 . S
O244 C247 1.235 . S
C245 O248 1.238 . S
C245 O249 1.241 . S
C246 O239 1.247 . S
C246 O240 1.261 . S
C247 O242 1.259 . S
C247 O244 1.235 . S
O248 Co238 2.021 . S
O248 C245 1.238 . S
O249 Co243 2.052 . S
O249 C245 1.241 . S
O250 Co238 2.137 . S
O250 C241 1.247 . S
O251 Co238 2.244 . S
O251 C241 1.272 . S
O251 Co243 2.135 . S
Co252 O253 2.216 . S
Co252 O254 2.091 . S
Co252 O256 2.004 . S
Co252 O262 2.021 . S
Co252 O264 2.137 . S
Co252 O265 2.244 . S
O253 Co252 2.216 . S
O253 C260 1.247 . S
O254 Co252 2.091 . S
O254 C260 1.261 . S
C255 O264 1.247 . S
C255 O265 1.272 . S
O256 Co252 2.004 . S
O256 C261 1.259 . S
Co257 O258 2.061 . S
Co257 O263 2.052 . S
Co257 O265 2.135 . S
O258 Co257 2.061 . S
O258 C261 1.235 . S
C259 O262 1.238 . S
C259 O263 1.241 . S
C260 O253 1.247 . S
C260 O254 1.261 . S
C261 O256 1.259 . S
C261 O258 1.235 . S
O262 Co252 2.021 . S
O262 C259 1.238 . S
O263 Co257 2.052 . S
O263 C259 1.241 . S
O264 Co252 2.137 . S
O264 C255 1.247 . S
O265 Co252 2.244 . S
O265 C255 1.272 . S
O265 Co257 2.135 . S
Co266 O267 2.216 . S
Co266 O268 2.091 . S
Co266 O270 2.004 . S
Co266 O276 2.021 . S
Co266 O278 2.137 . S
Co266 O279 2.244 . S
O267 Co266 2.216 . S
O267 C274 1.247 . S
O268 Co266 2.091 . S
O268 C274 1.261 . S
C269 O278 1.247 . S
C269 O279 1.272 . S
O270 Co266 2.004 . S
O270 C275 1.259 . S
Co271 O272 2.061 . S
Co271 O277 2.052 . S
Co271 O279 2.135 . S
O272 Co271 2.061 . S
O272 C275 1.235 . S
C273 O276 1.238 . S
C273 O277 1.241 . S
C274 O267 1.247 . S
C274 O268 1.261 . S
C275 O270 1.259 . S
C275 O272 1.235 . S
O276 Co266 2.021 . S
O276 C273 1.238 . S
O277 Co271 2.052 . S
O277 C273 1.241 . S
O278 Co266 2.137 . S
O278 C269 1.247 . S
O279 Co266 2.244 . S
O279 C269 1.272 . S
O279 Co271 2.135 . S
Co280 O281 2.216 . S
Co280 O282 2.091 . S
Co280 O284 2.004 . S
Co280 O290 2.021 . S
Co280 O292 2.137 . S
Co280 O293 2.244 . S
O281 Co280 2.216 . S
O281 C288 1.247 . S
O282 Co280 2.091 . S
O282 C288 1.261 . S
C283 O292 1.247 . S
C283 O293 1.272 . S
O284 Co280 2.004 . S
O284 C289 1.259 . S
Co285 O286 2.061 . S
Co285 O291 2.052 . S
Co285 O293 2.135 . S
O286 Co285 2.061 . S
O286 C289 1.235 . S
C287 O290 1.238 . S
C287 O291 1.241 . S
C288 O281 1.247 . S
C288 O282 1.261 . S
C289 O284 1.259 . S
C289 O286 1.235 . S
O290 Co280 2.021 . S
O290 C287 1.238 . S
O291 Co285 2.052 . S
O291 C287 1.241 . S
O292 Co280 2.137 . S
O292 C283 1.247 . S
O293 Co280 2.244 . S
O293 C283 1.272 . S
O293 Co285 2.135 . S
Co294 O295 2.216 . S
Co294 O296 2.091 . S
Co294 O298 2.004 . S
Co294 O304 2.021 . S
Co294 O306 2.137 . S
Co294 O307 2.244 . S
O295 Co294 2.216 . S
O295 C302 1.247 . S
O296 Co294 2.091 . S
O296 C302 1.261 . S
C297 O306 1.247 . S
C297 O307 1.272 . S
O298 Co294 2.004 . S
O298 C303 1.259 . S
Co299 O300 2.061 . S
Co299 O305 2.052 . S
Co299 O307 2.135 . S
O300 Co299 2.061 . S
O300 C303 1.235 . S
C301 O304 1.238 . S
C301 O305 1.241 . S
C302 O295 1.247 . S
C302 O296 1.261 . S
C303 O298 1.259 . S
C303 O300 1.235 . S
O304 Co294 2.021 . S
O304 C301 1.238 . S
O305 Co299 2.052 . S
O305 C301 1.241 . S
O306 Co294 2.137 . S
O306 C297 1.247 . S
O307 Co294 2.244 . S
O307 C297 1.272 . S
O307 Co299 2.135 . S
Co308 O309 2.216 . S
Co308 O310 2.091 . S
Co308 O312 2.004 . S
Co308 O318 2.021 . S
Co308 O320 2.137 . S
Co308 O321 2.244 . S
O309 Co308 2.216 . S
O309 C316 1.247 . S
O310 Co308 2.091 . S
O310 C316 1.261 . S
C311 O320 1.247 . S
C311 O321 1.272 . S
O312 Co308 2.004 . S
O312 C317 1.259 . S
Co313 O314 2.061 . S
Co313 O319 2.052 . S
Co313 O321 2.135 . S
O314 Co313 2.061 . S
O314 C317 1.235 . S
C315 O318 1.238 . S
C315 O319 1.241 . S
C316 O309 1.247 . S
C316 O310 1.261 . S
C317 O312 1.259 . S
C317 O314 1.235 . S
O318 Co308 2.021 . S
O318 C315 1.238 . S
O319 Co313 2.052 . S
O319 C315 1.241 . S
O320 Co308 2.137 . S
O320 C311 1.247 . S
O321 Co308 2.244 . S
O321 C311 1.272 . S
O321 Co313 2.135 . S
Co322 O323 2.216 . S
Co322 O324 2.091 . S
Co322 O326 2.004 . S
Co322 O332 2.021 . S
Co322 O334 2.137 . S
Co322 O335 2.244 . S
O323 Co322 2.216 . S
O323 C330 1.247 . S
O324 Co322 2.091 . S
O324 C330 1.261 . S
C325 O334 1.247 . S
C325 O335 1.272 . S
O326 Co322 2.004 . S
O326 C331 1.259 . S
Co327 O328 2.061 . S
Co327 O333 2.052 . S
Co327 O335 2.135 . S
O328 Co327 2.061 . S
O328 C331 1.235 . S
C329 O332 1.238 . S
C329 O333 1.241 . S
C330 O323 1.247 . S
C330 O324 1.261 . S
C331 O326 1.259 . S
C331 O328 1.235 . S
O332 Co322 2.021 . S
O332 C329 1.238 . S
O333 Co327 2.052 . S
O333 C329 1.241 . S
O334 Co322 2.137 . S
O334 C325 1.247 . S
O335 Co322 2.244 . S
O335 C325 1.272 . S
O335 Co327 2.135 . S
C336 C337 1.363 . S
C336 C342 1.379 1_545 S
C336 N344 1.356 . S
C337 C336 1.363 . S
C337 C343 1.363 . S
C338 C339 1.363 . S
C338 C343 1.379 1_565 S
C338 N345 1.356 . S
C339 C338 1.363 . S
C339 C342 1.363 . S
N340 C342 1.356 . S
N340 H352 0.984 . S
N340 H353 0.985 . S
N341 C343 1.356 . S
N341 H346 0.984 . S
N341 H347 0.985 . S
C342 C336 1.379 1_565 S
C342 C339 1.363 . S
C342 N340 1.356 . S
C343 C337 1.363 . S
C343 C338 1.379 1_545 S
C343 N341 1.356 . S
N344 C336 1.356 . S
N344 H350 0.984 . S
N344 H351 0.984 . S
N345 C338 1.356 . S
N345 H348 0.984 . S
N345 H349 0.985 . S
H346 N341 0.984 . S
H347 N341 0.985 . S
H348 N345 0.984 . S
H349 N345 0.985 . S
H350 N344 0.984 . S
H351 N344 0.984 . S
H352 N340 0.984 . S
H353 N340 0.985 . S
C354 C355 1.363 . S
C354 C360 1.379 . S
C354 N362 1.356 . S
C355 C354 1.363 . S
C355 C361 1.363 . S
C356 C357 1.363 . S
C356 C361 1.379 . S
C356 N363 1.356 . S
C357 C356 1.363 . S
C357 C360 1.363 . S
N358 C360 1.356 . S
N358 H370 0.984 . S
N358 H371 0.985 . S
N359 C361 1.356 . S
N359 H364 0.984 . S
N359 H365 0.985 . S
C360 C354 1.379 . S
C360 C357 1.363 . S
C360 N358 1.356 . S
C361 C355 1.363 . S
C361 C356 1.379 . S
C361 N359 1.356 . S
N362 C354 1.356 . S
N362 H368 0.984 . S
N362 H369 0.984 . S
N363 C356 1.356 . S
N363 H366 0.984 . S
N363 H367 0.985 . S
H364 N359 0.984 . S
H365 N359 0.985 . S
H366 N363 0.984 . S
H367 N363 0.985 . S
H368 N362 0.984 . S
H369 N362 0.984 . S
H370 N358 0.984 . S
H371 N358 0.985 . S
C372 C373 1.363 . S
C372 C378 1.379 1_655 S
C372 N380 1.356 . S
C373 C372 1.363 . S
C373 C379 1.363 . S
C374 C375 1.363 . S
C374 C379 1.379 1_455 S
C374 N381 1.356 . S
C375 C374 1.363 . S
C375 C378 1.363 . S
N376 C378 1.356 . S
N376 H388 0.984 . S
N376 H389 0.985 . S
N377 C379 1.356 . S
N377 H382 0.984 . S
N377 H383 0.985 . S
C378 C372 1.379 1_455 S
C378 C375 1.363 . S
C378 N376 1.356 . S
C379 C373 1.363 . S
C379 C374 1.379 1_655 S
C379 N377 1.356 . S
N380 C372 1.356 . S
N380 H386 0.984 . S
N380 H387 0.984 . S
N381 C374 1.356 . S
N381 H384 0.984 . S
N381 H385 0.985 . S
H382 N377 0.984 . S
H383 N377 0.985 . S
H384 N381 0.984 . S
H385 N381 0.985 . S
H386 N380 0.984 . S
H387 N380 0.984 . S
H388 N376 0.984 . S
H389 N376 0.985 . S
C390 C391 1.363 . S
C390 C396 1.379 1_565 S
C390 N398 1.356 . S
C391 C390 1.363 . S
C391 C397 1.363 . S
C392 C393 1.363 . S
C392 C397 1.379 1_545 S
C392 N399 1.356 . S
C393 C392 1.363 . S
C393 C396 1.363 . S
N394 C396 1.356 . S
N394 H406 0.984 . S
N394 H407 0.985 . S
N395 C397 1.356 . S
N395 H400 0.984 . S
N395 H401 0.985 . S
C396 C390 1.379 1_545 S
C396 C393 1.363 . S
C396 N394 1.356 . S
C397 C391 1.363 . S
C397 C392 1.379 1_565 S
C397 N395 1.356 . S
N398 C390 1.356 . S
N398 H404 1.010 . S
N398 H405 0.984 . S
N399 C392 1.356 . S
N399 H402 0.984 . S
N399 H403 1.010 . S
H400 N395 0.984 . S
H401 N395 0.985 . S
H402 N399 0.984 . S
H403 N399 1.010 . S
H404 N398 1.010 . S
H405 N398 0.984 . S
H406 N394 0.984 . S
H407 N394 0.985 . S
C408 C409 1.363 . S
C408 C414 1.379 . S
C408 N416 1.356 . S
C409 C408 1.363 . S
C409 C415 1.363 . S
C410 C411 1.363 . S
C410 C415 1.379 . S
C410 N417 1.356 . S
C411 C410 1.363 . S
C411 C414 1.363 . S
N412 C414 1.356 . S
N412 H424 0.984 . S
N412 H425 0.985 . S
N413 C415 1.356 . S
N413 H418 0.984 . S
N413 H419 0.985 . S
C414 C408 1.379 . S
C414 C411 1.363 . S
C414 N412 1.356 . S
C415 C409 1.363 . S
C415 C410 1.379 . S
C415 N413 1.356 . S
N416 C408 1.356 . S
N416 H422 0.984 . S
N416 H423 0.984 . S
N417 C410 1.356 . S
N417 H420 0.984 . S
N417 H421 0.985 . S
H418 N413 0.984 . S
H419 N413 0.985 . S
H420 N417 0.984 . S
H421 N417 0.985 . S
H422 N416 0.984 . S
H423 N416 0.984 . S
H424 N412 0.984 . S
H425 N412 0.985 . S
C426 C427 1.363 . S
C426 C432 1.379 1_455 S
C426 N434 1.356 . S
C427 C426 1.363 . S
C427 C433 1.363 . S
C428 C429 1.363 . S
C428 C433 1.379 1_655 S
C428 N435 1.356 . S
C429 C428 1.363 . S
C429 C432 1.363 . S
N430 C432 1.356 . S
N430 H442 0.984 . S
N430 H443 0.985 . S
N431 C433 1.356 . S
N431 H436 0.984 . S
N431 H437 0.985 . S
C432 C426 1.379 1_655 S
C432 C429 1.363 . S
C432 N430 1.356 . S
C433 C427 1.363 . S
C433 C428 1.379 1_455 S
C433 N431 1.356 . S
N434 C426 1.356 . S
N434 H440 0.984 . S
N434 H441 0.984 . S
N435 C428 1.356 . S
N435 H438 0.984 . S
N435 H439 0.985 . S
H436 N431 0.984 . S
H437 N431 0.985 . S
H438 N435 0.984 . S
H439 N435 0.985 . S
H440 N434 0.984 . S
H441 N434 0.984 . S
H442 N430 0.984 . S
H443 N430 0.985 . S
C444 C445 1.363 . S
C444 C450 1.379 1_565 S
C444 N452 1.356 . S
C445 C444 1.363 . S
C445 C451 1.363 . S
C446 C447 1.363 . S
C446 C451 1.379 1_545 S
C446 N453 1.356 . S
C447 C446 1.363 . S
C447 C450 1.363 . S
N448 C450 1.356 . S
N448 H460 0.984 . S
N448 H461 0.985 . S
N449 C451 1.356 . S
N449 H454 0.984 . S
N449 H455 0.985 . S
C450 C444 1.379 1_545 S
C450 C447 1.363 . S
C450 N448 1.356 . S
C451 C445 1.363 . S
C451 C446 1.379 1_565 S
C451 N449 1.356 . S
N452 C444 1.356 . S
N452 H458 0.984 . S
N452 H459 0.984 . S
N453 C446 1.356 . S
N453 H456 0.984 . S
N453 H457 0.985 . S
H454 N449 0.984 . S
H455 N449 0.985 . S
H456 N453 0.984 . S
H457 N453 0.985 . S
H458 N452 0.984 . S
H459 N452 0.984 . S
H460 N448 0.984 . S
H461 N448 0.985 . S
C462 C463 1.363 . S
C462 C468 1.379 . S
C462 N470 1.356 . S
C463 C462 1.363 . S
C463 C469 1.363 . S
C464 C465 1.363 . S
C464 C469 1.379 . S
C464 N471 1.356 . S
C465 C464 1.363 . S
C465 C468 1.363 . S
N466 C468 1.356 . S
N466 H478 0.984 . S
N466 H479 0.985 . S
N467 C469 1.356 . S
N467 H472 0.984 . S
N467 H473 0.985 . S
C468 C462 1.379 . S
C468 C465 1.363 . S
C468 N466 1.356 . S
C469 C463 1.363 . S
C469 C464 1.379 . S
C469 N467 1.356 . S
N470 C462 1.356 . S
N470 H476 0.984 . S
N470 H477 0.984 . S
N471 C464 1.356 . S
N471 H474 0.984 . S
N471 H475 0.985 . S
H472 N467 0.984 . S
H473 N467 0.985 . S
H474 N471 0.984 . S
H475 N471 0.985 . S
H476 N470 0.984 . S
H477 N470 0.984 . S
H478 N466 0.984 . S
H479 N466 0.985 . S
C480 C481 1.363 . S
C480 C486 1.379 1_655 S
C480 N488 1.356 . S
C481 C480 1.363 . S
C481 C487 1.363 . S
C482 C483 1.363 . S
C482 C487 1.379 1_455 S
C482 N489 1.356 . S
C483 C482 1.363 . S
C483 C486 1.363 . S
N484 C486 1.356 . S
N484 H496 0.984 . S
N484 H497 0.985 . S
N485 C487 1.356 . S
N485 H490 0.984 . S
N485 H491 0.985 . S
C486 C480 1.379 1_455 S
C486 C483 1.363 . S
C486 N484 1.356 . S
C487 C481 1.363 . S
C487 C482 1.379 1_655 S
C487 N485 1.356 . S
N488 C480 1.356 . S
N488 H494 0.984 . S
N488 H495 0.984 . S
N489 C482 1.356 . S
N489 H492 0.984 . S
N489 H493 0.985 . S
H490 N485 0.984 . S
H491 N485 0.985 . S
H492 N489 0.984 . S
H493 N489 0.985 . S
H494 N488 0.984 . S
H495 N488 0.984 . S
H496 N484 0.984 . S
H497 N484 0.985 . S
C498 C499 1.363 . S
C498 C504 1.379 1_545 S
C498 N506 1.356 . S
C499 C498 1.363 . S
C499 C505 1.363 . S
C500 C501 1.363 . S
C500 C505 1.379 1_565 S
C500 N507 1.356 . S
C501 C500 1.363 . S
C501 C504 1.363 . S
N502 C504 1.356 . S
N502 H514 0.984 . S
N502 H515 0.985 . S
N503 C505 1.356 . S
N503 H508 0.984 . S
N503 H509 0.985 . S
C504 C498 1.379 1_565 S
C504 C501 1.363 . S
C504 N502 1.356 . S
C505 C499 1.363 . S
C505 C500 1.379 1_545 S
C505 N503 1.356 . S
N506 C498 1.356 . S
N506 H512 0.984 . S
N506 H513 0.984 . S
N507 C500 1.356 . S
N507 H510 0.984 . S
N507 H511 0.985 . S
H508 N503 0.984 . S
H509 N503 0.985 . S
H510 N507 0.984 . S
H511 N507 0.985 . S
H512 N506 0.984 . S
H513 N506 0.984 . S
H514 N502 0.984 . S
H515 N502 0.985 . S
C516 C517 1.363 . S
C516 C522 1.379 . S
C516 N524 1.356 . S
C517 C516 1.363 . S
C517 C523 1.363 . S
C518 C519 1.363 . S
C518 C523 1.379 . S
C518 N525 1.356 . S
C519 C518 1.363 . S
C519 C522 1.363 . S
N520 C522 1.356 . S
N520 H532 0.984 . S
N520 H533 0.985 . S
N521 C523 1.356 . S
N521 H526 0.984 . S
N521 H527 0.985 . S
C522 C516 1.379 . S
C522 C519 1.363 . S
C522 N520 1.356 . S
C523 C517 1.363 . S
C523 C518 1.379 . S
C523 N521 1.356 . S
N524 C516 1.356 . S
N524 H530 0.984 . S
N524 H531 0.984 . S
N525 C518 1.356 . S
N525 H528 0.984 . S
N525 H529 0.985 . S
H526 N521 0.984 . S
H527 N521 0.985 . S
H528 N525 0.984 . S
H529 N525 0.985 . S
H530 N524 0.984 . S
H531 N524 0.984 . S
H532 N520 0.984 . S
H533 N520 0.985 . S
C534 C535 1.363 . S
C534 C540 1.379 1_455 S
C534 N542 1.356 . S
C535 C534 1.363 . S
C535 C541 1.363 . S
C536 C537 1.363 . S
C536 C541 1.379 1_655 S
C536 N543 1.356 . S
C537 C536 1.363 . S
C537 C540 1.363 . S
N538 C540 1.356 . S
N538 H550 0.984 . S
N538 H551 0.985 . S
N539 C541 1.356 . S
N539 H544 0.984 . S
N539 H545 0.985 . S
C540 C534 1.379 1_655 S
C540 C537 1.363 . S
C540 N538 1.356 . S
C541 C535 1.363 . S
C541 C536 1.379 1_455 S
C541 N539 1.356 . S
N542 C534 1.356 . S
N542 H548 0.984 . S
N542 H549 0.984 . S
N543 C536 1.356 . S
N543 H546 0.984 . S
N543 H547 0.985 . S
H544 N539 0.984 . S
H545 N539 0.985 . S
H546 N543 0.984 . S
H547 N543 0.985 . S
H548 N542 0.984 . S
H549 N542 0.984 . S
H550 N538 0.984 . S
H551 N538 0.985 . S
C552 C553 1.363 . S
C552 C558 1.379 . S
C552 N560 1.356 . S
C553 C552 1.363 . S
C553 C559 1.363 . S
C554 C555 1.363 . S
C554 C559 1.379 . S
C554 N561 1.356 . S
C555 C554 1.363 . S
C555 C558 1.363 . S
N556 C558 1.356 . S
N556 H568 0.984 . S
N556 H569 0.985 . S
N557 C559 1.356 . S
N557 H562 0.984 . S
N557 H563 0.985 . S
C558 C552 1.379 . S
C558 C555 1.363 . S
C558 N556 1.356 . S
C559 C553 1.363 . S
C559 C554 1.379 . S
C559 N557 1.356 . S
N560 C552 1.356 . S
N560 H566 0.984 . S
N560 H567 0.984 . S
N561 C554 1.356 . S
N561 H564 0.984 . S
N561 H565 0.985 . S
H562 N557 0.984 . S
H563 N557 0.985 . S
H564 N561 0.984 . S
H565 N561 0.985 . S
H566 N560 0.984 . S
H567 N560 0.984 . S
H568 N556 0.984 . S
H569 N556 0.985 . S
C570 C571 1.363 . S
C570 C576 1.379 . S
C570 N578 1.356 . S
C571 C570 1.363 . S
C571 C577 1.363 . S
C572 C573 1.363 . S
C572 C577 1.379 . S
C572 N579 1.356 . S
C573 C572 1.363 . S
C573 C576 1.363 . S
N574 C576 1.356 . S
N574 H586 0.984 . S
N574 H587 0.985 . S
N575 C577 1.356 . S
N575 H580 0.984 . S
N575 H581 0.985 . S
C576 C570 1.379 . S
C576 C573 1.363 . S
C576 N574 1.356 . S
C577 C571 1.363 . S
C577 C572 1.379 . S
C577 N575 1.356 . S
N578 C570 1.356 . S
N578 H584 0.984 . S
N578 H585 0.984 . S
N579 C572 1.356 . S
N579 H582 0.984 . S
N579 H583 0.985 . S
H580 N575 0.984 . S
H581 N575 0.985 . S
H582 N579 0.984 . S
H583 N579 0.985 . S
H584 N578 0.984 . S
H585 N578 0.984 . S
H586 N574 0.984 . S
H587 N574 0.985 . S
C588 C589 1.363 . S
C588 C594 1.379 . S
C588 N596 1.356 . S
C589 C588 1.363 . S
C589 C595 1.363 . S
C590 C591 1.363 . S
C590 C595 1.379 . S
C590 N597 1.356 . S
C591 C590 1.363 . S
C591 C594 1.363 . S
N592 C594 1.356 . S
N592 H604 0.984 . S
N592 H605 0.985 . S
N593 C595 1.356 . S
N593 H598 0.984 . S
N593 H599 0.985 . S
C594 C588 1.379 . S
C594 C591 1.363 . S
C594 N592 1.356 . S
C595 C589 1.363 . S
C595 C590 1.379 . S
C595 N593 1.356 . S
N596 C588 1.356 . S
N596 H602 0.984 . S
N596 H603 0.984 . S
N597 C590 1.356 . S
N597 H600 0.984 . S
N597 H601 0.985 . S
H598 N593 0.984 . S
H599 N593 0.985 . S
H600 N597 0.984 . S
H601 N597 0.985 . S
H602 N596 0.984 . S
H603 N596 0.984 . S
H604 N592 0.984 . S
H605 N592 0.985 . S
C606 C607 1.363 . S
C606 C612 1.379 . S
C606 N614 1.356 . S
C607 C606 1.363 . S
C607 C613 1.363 . S
C608 C609 1.363 . S
C608 C613 1.379 . S
C608 N615 1.356 . S
C609 C608 1.363 . S
C609 C612 1.363 . S
N610 C612 1.356 . S
N610 H622 0.984 . S
N610 H623 0.985 . S
N611 C613 1.356 . S
N611 H616 0.984 . S
N611 H617 0.985 . S
C612 C606 1.379 . S
C612 C609 1.363 . S
C612 N610 1.356 . S
C613 C607 1.363 . S
C613 C608 1.379 . S
C613 N611 1.356 . S
N614 C606 1.356 . S
N614 H620 0.984 . S
N614 H621 0.984 . S
N615 C608 1.356 . S
N615 H618 0.984 . S
N615 H619 0.985 . S
H616 N611 0.984 . S
H617 N611 0.985 . S
H618 N615 0.984 . S
H619 N615 0.985 . S
H620 N614 0.984 . S
H621 N614 0.984 . S
H622 N610 0.984 . S
H623 N610 0.985 . S
C624 C625 1.363 . S
C624 C630 1.379 . S
C624 N632 1.356 . S
C625 C624 1.363 . S
C625 C631 1.363 . S
C626 C627 1.363 . S
C626 C631 1.379 . S
C626 N633 1.356 . S
C627 C626 1.363 . S
C627 C630 1.363 . S
N628 C630 1.356 . S
N628 H640 0.984 . S
N628 H641 0.985 . S
N629 C631 1.356 . S
N629 H634 0.984 . S
N629 H635 0.985 . S
C630 C624 1.379 . S
C630 C627 1.363 . S
C630 N628 1.356 . S
C631 C625 1.363 . S
C631 C626 1.379 . S
C631 N629 1.356 . S
N632 C624 1.356 . S
N632 H638 0.984 . S
N632 H639 0.984 . S
N633 C626 1.356 . S
N633 H636 0.984 . S
N633 H637 0.985 . S
H634 N629 0.984 . S
H635 N629 0.985 . S
H636 N633 0.984 . S
H637 N633 0.985 . S
H638 N632 0.984 . S
H639 N632 0.984 . S
H640 N628 0.984 . S
H641 N628 0.985 . S
C642 C643 1.363 . S
C642 C648 1.379 . S
C642 N650 1.356 . S
C643 C642 1.363 . S
C643 C649 1.363 . S
C644 C645 1.363 . S
C644 C649 1.379 . S
C644 N651 1.356 . S
C645 C644 1.363 . S
C645 C648 1.363 . S
N646 C648 1.356 . S
N646 H658 0.984 . S
N646 H659 0.985 . S
N647 C649 1.356 . S
N647 H652 0.984 . S
N647 H653 0.985 . S
C648 C642 1.379 . S
C648 C645 1.363 . S
C648 N646 1.356 . S
C649 C643 1.363 . S
C649 C644 1.379 . S
C649 N647 1.356 . S
N650 C642 1.356 . S
N650 H656 0.984 . S
N650 H657 0.984 . S
N651 C644 1.356 . S
N651 H654 0.984 . S
N651 H655 0.985 . S
H652 N647 0.984 . S
H653 N647 0.985 . S
H654 N651 0.984 . S
H655 N651 0.985 . S
H656 N650 0.984 . S
H657 N650 0.984 . S
H658 N646 0.984 . S
H659 N646 0.985 . S
C660 C661 1.363 . S
C660 C666 1.379 . S
C660 N668 1.356 . S
C661 C660 1.363 . S
C661 C667 1.363 . S
C662 C663 1.363 . S
C662 C667 1.379 . S
C662 N669 1.356 . S
C663 C662 1.363 . S
C663 C666 1.363 . S
N664 C666 1.356 . S
N664 H676 0.984 . S
N664 H677 0.985 . S
N665 C667 1.356 . S
N665 H670 0.984 . S
N665 H671 0.985 . S
C666 C660 1.379 . S
C666 C663 1.363 . S
C666 N664 1.356 . S
C667 C661 1.363 . S
C667 C662 1.379 . S
C667 N665 1.356 . S
N668 C660 1.356 . S
N668 H674 0.984 . S
N668 H675 0.984 . S
N669 C662 1.356 . S
N669 H672 0.984 . S
N669 H673 0.985 . S
H670 N665 0.984 . S
H671 N665 0.985 . S
H672 N669 0.984 . S
H673 N669 0.985 . S
H674 N668 0.984 . S
H675 N668 0.984 . S
H676 N664 0.984 . S
H677 N664 0.985 . S
C678 C679 1.363 . S
C678 C684 1.379 . S
C678 N686 1.356 . S
C679 C678 1.363 . S
C679 C685 1.363 . S
C680 C681 1.363 . S
C680 C685 1.379 . S
C680 N687 1.356 . S
C681 C680 1.363 . S
C681 C684 1.363 . S
N682 C684 1.356 . S
N682 H694 0.984 . S
N682 H695 0.985 . S
N683 C685 1.356 . S
N683 H688 0.984 . S
N683 H689 0.985 . S
C684 C678 1.379 . S
C684 C681 1.363 . S
C684 N682 1.356 . S
C685 C679 1.363 . S
C685 C680 1.379 . S
C685 N683 1.356 . S
N686 C678 1.356 . S
N686 H692 0.984 . S
N686 H693 0.984 . S
N687 C680 1.356 . S
N687 H690 0.984 . S
N687 H691 0.985 . S
H688 N683 0.984 . S
H689 N683 0.985 . S
H690 N687 0.984 . S
H691 N687 0.985 . S
H692 N686 0.984 . S
H693 N686 0.984 . S
H694 N682 0.984 . S
H695 N682 0.985 . S
C696 C697 1.363 . S
C696 C702 1.379 . S
C696 N704 1.356 . S
C697 C696 1.363 . S
C697 C703 1.363 . S
C698 C699 1.363 . S
C698 C703 1.379 . S
C698 N705 1.356 . S
C699 C698 1.363 . S
C699 C702 1.363 . S
N700 C702 1.356 . S
N700 H712 0.984 . S
N700 H713 0.985 . S
N701 C703 1.356 . S
N701 H706 0.984 . S
N701 H707 0.985 . S
C702 C696 1.379 . S
C702 C699 1.363 . S
C702 N700 1.356 . S
C703 C697 1.363 . S
C703 C698 1.379 . S
C703 N701 1.356 . S
N704 C696 1.356 . S
N704 H710 0.984 . S
N704 H711 0.984 . S
N705 C698 1.356 . S
N705 H708 0.984 . S
N705 H709 0.985 . S
H706 N701 0.984 . S
H707 N701 0.985 . S
H708 N705 0.984 . S
H709 N705 0.985 . S
H710 N704 0.984 . S
H711 N704 0.984 . S
H712 N700 0.984 . S
H713 N700 0.985 . S
C714 C715 1.363 . S
C714 C720 1.379 . S
C714 N722 1.356 . S
C715 C714 1.363 . S
C715 C721 1.363 . S
C716 C717 1.363 . S
C716 C721 1.379 . S
C716 N723 1.356 . S
C717 C716 1.363 . S
C717 C720 1.363 . S
N718 C720 1.356 . S
N718 H730 0.984 . S
N718 H731 0.985 . S
N719 C721 1.356 . S
N719 H724 0.984 . S
N719 H725 0.985 . S
C720 C714 1.379 . S
C720 C717 1.363 . S
C720 N718 1.356 . S
C721 C715 1.363 . S
C721 C716 1.379 . S
C721 N719 1.356 . S
N722 C714 1.356 . S
N722 H728 0.984 . S
N722 H729 0.984 . S
N723 C716 1.356 . S
N723 H726 0.984 . S
N723 H727 0.985 . S
H724 N719 0.984 . S
H725 N719 0.985 . S
H726 N723 0.984 . S
H727 N723 0.985 . S
H728 N722 0.984 . S
H729 N722 0.984 . S
H730 N718 0.984 . S
H731 N718 0.985 . S
C732 C733 1.363 . S
C732 C738 1.379 . S
C732 N740 1.356 . S
C733 C732 1.363 . S
C733 C739 1.363 . S
C734 C735 1.363 . S
C734 C739 1.379 . S
C734 N741 1.356 . S
C735 C734 1.363 . S
C735 C738 1.363 . S
N736 C738 1.356 . S
N736 H748 0.984 . S
N736 H749 0.985 . S
N737 C739 1.356 . S
N737 H742 0.984 . S
N737 H743 0.985 . S
C738 C732 1.379 . S
C738 C735 1.363 . S
C738 N736 1.356 . S
C739 C733 1.363 . S
C739 C734 1.379 . S
C739 N737 1.356 . S
N740 C732 1.356 . S
N740 H746 0.984 . S
N740 H747 0.984 . S
N741 C734 1.356 . S
N741 H744 0.984 . S
N741 H745 0.985 . S
H742 N737 0.984 . S
H743 N737 0.985 . S
H744 N741 0.984 . S
H745 N741 0.985 . S
H746 N740 0.984 . S
H747 N740 0.984 . S
H748 N736 0.984 . S
H749 N736 0.985 . S
C750 C751 1.363 . S
C750 C756 1.379 . S
C750 N758 1.356 . S
C751 C750 1.363 . S
C751 C757 1.363 . S
C752 C753 1.363 . S
C752 C757 1.379 . S
C752 N759 1.356 . S
C753 C752 1.363 . S
C753 C756 1.363 . S
N754 C756 1.356 . S
N754 H766 0.984 . S
N754 H767 0.985 . S
N755 C757 1.356 . S
N755 H760 0.984 . S
N755 H761 0.985 . S
C756 C750 1.379 . S
C756 C753 1.363 . S
C756 N754 1.356 . S
C757 C751 1.363 . S
C757 C752 1.379 . S
C757 N755 1.356 . S
N758 C750 1.356 . S
N758 H764 0.984 . S
N758 H765 0.984 . S
N759 C752 1.356 . S
N759 H762 0.984 . S
N759 H763 0.985 . S
H760 N755 0.984 . S
H761 N755 0.985 . S
H762 N759 0.984 . S
H763 N759 0.985 . S
H764 N758 0.984 . S
H765 N758 0.984 . S
H766 N754 0.984 . S
H767 N754 0.985 . S
C768 C769 1.363 . S
C768 C774 1.379 1_554 S
C768 N776 1.356 . S
C769 C768 1.363 . S
C769 C775 1.363 . S
C770 C771 1.363 . S
C770 C775 1.379 1_556 S
C770 N777 1.356 . S
C771 C770 1.363 . S
C771 C774 1.363 . S
N772 C774 1.356 . S
N772 H784 0.984 . S
N772 H785 0.985 . S
N773 C775 1.356 . S
N773 H778 0.984 . S
N773 H779 0.985 . S
C774 C768 1.379 1_556 S
C774 C771 1.363 . S
C774 N772 1.356 . S
C775 C769 1.363 . S
C775 C770 1.379 1_554 S
C775 N773 1.356 . S
N776 C768 1.356 . S
N776 H782 0.984 . S
N776 H783 0.984 . S
N777 C770 1.356 . S
N777 H780 0.984 . S
N777 H781 0.985 . S
H778 N773 0.984 . S
H779 N773 0.985 . S
H780 N777 0.984 . S
H781 N777 0.985 . S
H782 N776 0.984 . S
H783 N776 0.984 . S
H784 N772 0.984 . S
H785 N772 0.985 . S
C786 C787 1.363 . S
C786 C792 1.379 1_556 S
C786 N794 1.356 . S
C787 C786 1.363 . S
C787 C793 1.363 . S
C788 C789 1.363 . S
C788 C793 1.379 1_554 S
C788 N795 1.356 . S
C789 C788 1.363 . S
C789 C792 1.363 . S
N790 C792 1.356 . S
N790 H802 0.984 . S
N790 H803 0.985 . S
N791 C793 1.356 . S
N791 H796 0.984 . S
N791 H797 0.985 . S
C792 C786 1.379 1_554 S
C792 C789 1.363 . S
C792 N790 1.356 . S
C793 C787 1.363 . S
C793 C788 1.379 1_556 S
C793 N791 1.356 . S
N794 C786 1.356 . S
N794 H800 0.984 . S
N794 H801 0.984 . S
N795 C788 1.356 . S
N795 H798 0.984 . S
N795 H799 0.985 . S
H796 N791 0.984 . S
H797 N791 0.985 . S
H798 N795 0.984 . S
H799 N795 0.985 . S
H800 N794 0.984 . S
H801 N794 0.984 . S
H802 N790 0.984 . S
H803 N790 0.985 . S
C804 C805 1.363 . S
C804 C810 1.379 1_556 S
C804 N812 1.356 . S
C805 C804 1.363 . S
C805 C811 1.363 . S
C806 C807 1.363 . S
C806 C811 1.379 1_554 S
C806 N813 1.356 . S
C807 C806 1.363 . S
C807 C810 1.363 . S
N808 C810 1.356 . S
N808 H820 0.984 . S
N808 H821 0.985 . S
N809 C811 1.356 . S
N809 H814 0.984 . S
N809 H815 0.985 . S
C810 C804 1.379 1_554 S
C810 C807 1.363 . S
C810 N808 1.356 . S
C811 C805 1.363 . S
C811 C806 1.379 1_556 S
C811 N809 1.356 . S
N812 C804 1.356 . S
N812 H818 0.984 . S
N812 H819 0.984 . S
N813 C806 1.356 . S
N813 H816 0.984 . S
N813 H817 0.985 . S
H814 N809 0.984 . S
H815 N809 0.985 . S
H816 N813 0.984 . S
H817 N813 0.985 . S
H818 N812 0.984 . S
H819 N812 0.984 . S
H820 N808 0.984 . S
H821 N808 0.985 . S
C822 C823 1.363 . S
C822 C828 1.379 1_554 S
C822 N830 1.356 . S
C823 C822 1.363 . S
C823 C829 1.363 . S
C824 C825 1.363 . S
C824 C829 1.379 1_556 S
C824 N831 1.356 . S
C825 C824 1.363 . S
C825 C828 1.363 . S
N826 C828 1.356 . S
N826 H838 0.984 . S
N826 H839 0.985 . S
N827 C829 1.356 . S
N827 H832 0.984 . S
N827 H833 0.985 . S
C828 C822 1.379 1_556 S
C828 C825 1.363 . S
C828 N826 1.356 . S
C829 C823 1.363 . S
C829 C824 1.379 1_554 S
C829 N827 1.356 . S
N830 C822 1.356 . S
N830 H836 0.984 . S
N830 H837 0.984 . S
N831 C824 1.356 . S
N831 H834 0.984 . S
N831 H835 0.985 . S
H832 N827 0.984 . S
H833 N827 0.985 . S
H834 N831 0.984 . S
H835 N831 0.985 . S
H836 N830 0.984 . S
H837 N830 0.984 . S
H838 N826 0.984 . S
H839 N826 0.985 . S
C840 C841 1.363 . S
C840 C846 1.379 1_554 S
C840 N848 1.356 . S
C841 C840 1.363 . S
C841 C847 1.363 . S
C842 C843 1.363 . S
C842 C847 1.379 1_556 S
C842 N849 1.356 . S
C843 C842 1.363 . S
C843 C846 1.363 . S
N844 C846 1.356 . S
N844 H856 0.984 . S
N844 H857 0.985 . S
N845 C847 1.356 . S
N845 H850 0.984 . S
N845 H851 0.985 . S
C846 C840 1.379 1_556 S
C846 C843 1.363 . S
C846 N844 1.356 . S
C847 C841 1.363 . S
C847 C842 1.379 1_554 S
C847 N845 1.356 . S
N848 C840 1.356 . S
N848 H854 0.984 . S
N848 H855 0.984 . S
N849 C842 1.356 . S
N849 H852 0.984 . S
N849 H853 0.985 . S
H850 N845 0.984 . S
H851 N845 0.985 . S
H852 N849 0.984 . S
H853 N849 0.985 . S
H854 N848 0.984 . S
H855 N848 0.984 . S
H856 N844 0.984 . S
H857 N844 0.985 . S
C858 C859 1.363 . S
C858 C864 1.379 1_556 S
C858 N866 1.356 . S
C859 C858 1.363 . S
C859 C865 1.363 . S
C860 C861 1.363 . S
C860 C865 1.379 1_554 S
C860 N867 1.356 . S
C861 C860 1.363 . S
C861 C864 1.363 . S
N862 C864 1.356 . S
N862 H874 0.984 . S
N862 H875 0.985 . S
N863 C865 1.356 . S
N863 H868 0.984 . S
N863 H869 0.985 . S
C864 C858 1.379 1_554 S
C864 C861 1.363 . S
C864 N862 1.356 . S
C865 C859 1.363 . S
C865 C860 1.379 1_556 S
C865 N863 1.356 . S
N866 C858 1.356 . S
N866 H872 0.984 . S
N866 H873 0.984 . S
N867 C860 1.356 . S
N867 H870 0.984 . S
N867 H871 0.985 . S
H868 N863 0.984 . S
H869 N863 0.985 . S
H870 N867 0.984 . S
H871 N867 0.985 . S
H872 N866 0.984 . S
H873 N866 0.984 . S
H874 N862 0.984 . S
H875 N862 0.985 . S
C876 C877 1.363 . S
C876 C882 1.379 . S
C876 N884 1.356 . S
C877 C876 1.363 . S
C877 C883 1.363 . S
C878 C879 1.363 . S
C878 C883 1.379 . S
C878 N885 1.356 . S
C879 C878 1.363 . S
C879 C882 1.363 . S
N880 C882 1.356 . S
N880 H892 0.984 . S
N880 H893 0.985 . S
N881 C883 1.356 . S
N881 H886 0.984 . S
N881 H887 0.985 . S
C882 C876 1.379 . S
C882 C879 1.363 . S
C882 N880 1.356 . S
C883 C877 1.363 . S
C883 C878 1.379 . S
C883 N881 1.356 . S
N884 C876 1.356 . S
N884 H890 0.984 . S
N884 H891 0.984 . S
N885 C878 1.356 . S
N885 H888 0.984 . S
N885 H889 0.985 . S
H886 N881 0.984 . S
H887 N881 0.985 . S
H888 N885 0.984 . S
H889 N885 0.985 . S
H890 N884 0.984 . S
H891 N884 0.984 . S
H892 N880 0.984 . S
H893 N880 0.985 . S
C894 C895 1.363 . S
C894 C900 1.379 . S
C894 N902 1.356 . S
C895 C894 1.363 . S
C895 C901 1.363 . S
C896 C897 1.363 . S
C896 C901 1.379 . S
C896 N903 1.356 . S
C897 C896 1.363 . S
C897 C900 1.363 . S
N898 C900 1.356 . S
N898 H910 0.984 . S
N898 H911 0.985 . S
N899 C901 1.356 . S
N899 H904 0.984 . S
N899 H905 0.985 . S
C900 C894 1.379 . S
C900 C897 1.363 . S
C900 N898 1.356 . S
C901 C895 1.363 . S
C901 C896 1.379 . S
C901 N899 1.356 . S
N902 C894 1.356 . S
N902 H908 0.984 . S
N902 H909 0.984 . S
N903 C896 1.356 . S
N903 H906 0.984 . S
N903 H907 0.985 . S
H904 N899 0.984 . S
H905 N899 0.985 . S
H906 N903 0.984 . S
H907 N903 0.985 . S
H908 N902 0.984 . S
H909 N902 0.984 . S
H910 N898 0.984 . S
H911 N898 0.985 . S
C912 C913 1.363 . S
C912 C918 1.379 . S
C912 N920 1.356 . S
C913 C912 1.363 . S
C913 C919 1.363 . S
C914 C915 1.363 . S
C914 C919 1.379 . S
C914 N921 1.356 . S
C915 C914 1.363 . S
C915 C918 1.363 . S
N916 C918 1.356 . S
N916 H928 0.984 . S
N916 H929 0.985 . S
N917 C919 1.356 . S
N917 H922 0.984 . S
N917 H923 0.985 . S
C918 C912 1.379 . S
C918 C915 1.363 . S
C918 N916 1.356 . S
C919 C913 1.363 . S
C919 C914 1.379 . S
C919 N917 1.356 . S
N920 C912 1.356 . S
N920 H926 0.984 . S
N920 H927 0.984 . S
N921 C914 1.356 . S
N921 H924 0.984 . S
N921 H925 0.985 . S
H922 N917 0.984 . S
H923 N917 0.985 . S
H924 N921 0.984 . S
H925 N921 0.985 . S
H926 N920 0.984 . S
H927 N920 0.984 . S
H928 N916 0.984 . S
H929 N916 0.985 . S
C930 C931 1.363 . S
C930 C936 1.379 . S
C930 N938 1.356 . S
C931 C930 1.363 . S
C931 C937 1.363 . S
C932 C933 1.363 . S
C932 C937 1.379 . S
C932 N939 1.356 . S
C933 C932 1.363 . S
C933 C936 1.363 . S
N934 C936 1.356 . S
N934 H946 0.984 . S
N934 H947 0.985 . S
N935 C937 1.356 . S
N935 H940 0.984 . S
N935 H941 0.985 . S
C936 C930 1.379 . S
C936 C933 1.363 . S
C936 N934 1.356 . S
C937 C931 1.363 . S
C937 C932 1.379 . S
C937 N935 1.356 . S
N938 C930 1.356 . S
N938 H944 0.984 . S
N938 H945 0.984 . S
N939 C932 1.356 . S
N939 H942 0.984 . S
N939 H943 0.985 . S
H940 N935 0.984 . S
H941 N935 0.985 . S
H942 N939 0.984 . S
H943 N939 0.985 . S
H944 N938 0.984 . S
H945 N938 0.984 . S
H946 N934 0.984 . S
H947 N934 0.985 . S
C948 C949 1.363 . S
C948 C954 1.379 . S
C948 N956 1.356 . S
C949 C948 1.363 . S
C949 C955 1.363 . S
C950 C951 1.363 . S
C950 C955 1.379 . S
C950 N957 1.356 . S
C951 C950 1.363 . S
C951 C954 1.363 . S
N952 C954 1.356 . S
N952 H964 0.984 . S
N952 H965 0.985 . S
N953 C955 1.356 . S
N953 H958 0.984 . S
N953 H959 0.985 . S
C954 C948 1.379 . S
C954 C951 1.363 . S
C954 N952 1.356 . S
C955 C949 1.363 . S
C955 C950 1.379 . S
C955 N953 1.356 . S
N956 C948 1.356 . S
N956 H962 0.984 . S
N956 H963 0.984 . S
N957 C950 1.356 . S
N957 H960 0.984 . S
N957 H961 0.985 . S
H958 N953 0.984 . S
H959 N953 0.985 . S
H960 N957 0.984 . S
H961 N957 0.985 . S
H962 N956 0.984 . S
H963 N956 0.984 . S
H964 N952 0.984 . S
H965 N952 0.985 . S
C966 C967 1.363 . S
C966 C972 1.379 . S
C966 N974 1.356 . S
C967 C966 1.363 . S
C967 C973 1.363 . S
C968 C969 1.363 . S
C968 C973 1.379 . S
C968 N975 1.356 . S
C969 C968 1.363 . S
C969 C972 1.363 . S
N970 C972 1.356 . S
N970 H982 0.984 . S
N970 H983 0.985 . S
N971 C973 1.356 . S
N971 H976 0.984 . S
N971 H977 0.985 . S
C972 C966 1.379 . S
C972 C969 1.363 . S
C972 N970 1.356 . S
C973 C967 1.363 . S
C973 C968 1.379 . S
C973 N971 1.356 . S
N974 C966 1.356 . S
N974 H980 0.984 . S
N974 H981 0.984 . S
N975 C968 1.356 . S
N975 H978 0.984 . S
N975 H979 0.985 . S
H976 N971 0.984 . S
H977 N971 0.985 . S
H978 N975 0.984 . S
H979 N975 0.985 . S
H980 N974 0.984 . S
H981 N974 0.984 . S
H982 N970 0.984 . S
H983 N970 0.985 . S
C984 C985 1.363 . S
C984 C990 1.379 . S
C984 N992 1.356 . S
C985 C984 1.363 . S
C985 C991 1.363 . S
C986 C987 1.363 . S
C986 C991 1.379 . S
C986 N993 1.356 . S
C987 C986 1.363 . S
C987 C990 1.363 . S
N988 C990 1.356 . S
N988 H1000 0.984 . S
N988 H1001 0.985 . S
N989 C991 1.356 . S
N989 H994 0.984 . S
N989 H995 0.985 . S
C990 C984 1.379 . S
C990 C987 1.363 . S
C990 N988 1.356 . S
C991 C985 1.363 . S
C991 C986 1.379 . S
C991 N989 1.356 . S
N992 C984 1.356 . S
N992 H998 0.984 . S
N992 H999 0.984 . S
N993 C986 1.356 . S
N993 H996 0.984 . S
N993 H997 0.985 . S
H994 N989 0.984 . S
H995 N989 0.985 . S
H996 N993 0.984 . S
H997 N993 0.985 . S
H998 N992 0.984 . S
H999 N992 0.984 . S
H1000 N988 0.984 . S
H1001 N988 0.985 . S
C1002 C1003 1.363 . S
C1002 C1008 1.379 . S
C1002 N1010 1.356 . S
C1003 C1002 1.363 . S
C1003 C1009 1.363 . S
C1004 C1005 1.363 . S
C1004 C1009 1.379 . S
C1004 N1011 1.356 . S
C1005 C1004 1.363 . S
C1005 C1008 1.363 . S
N1006 C1008 1.356 . S
N1006 H1018 0.984 . S
N1006 H1019 0.985 . S
N1007 C1009 1.356 . S
N1007 H1012 0.984 . S
N1007 H1013 0.985 . S
C1008 C1002 1.379 . S
C1008 C1005 1.363 . S
C1008 N1006 1.356 . S
C1009 C1003 1.363 . S
C1009 C1004 1.379 . S
C1009 N1007 1.356 . S
N1010 C1002 1.356 . S
N1010 H1016 0.984 . S
N1010 H1017 0.984 . S
N1011 C1004 1.356 . S
N1011 H1014 0.984 . S
N1011 H1015 0.985 . S
H1012 N1007 0.984 . S
H1013 N1007 0.985 . S
H1014 N1011 0.984 . S
H1015 N1011 0.985 . S
H1016 N1010 0.984 . S
H1017 N1010 0.984 . S
H1018 N1006 0.984 . S
H1019 N1006 0.985 . S
C1020 C1021 1.363 . S
C1020 C1026 1.379 . S
C1020 N1028 1.356 . S
C1021 C1020 1.363 . S
C1021 C1027 1.363 . S
C1022 C1023 1.363 . S
C1022 C1027 1.379 . S
C1022 N1029 1.356 . S
C1023 C1022 1.363 . S
C1023 C1026 1.363 . S
N1024 C1026 1.356 . S
N1024 H1036 0.984 . S
N1024 H1037 0.985 . S
N1025 C1027 1.356 . S
N1025 H1030 0.984 . S
N1025 H1031 0.985 . S
C1026 C1020 1.379 . S
C1026 C1023 1.363 . S
C1026 N1024 1.356 . S
C1027 C1021 1.363 . S
C1027 C1022 1.379 . S
C1027 N1025 1.356 . S
N1028 C1020 1.356 . S
N1028 H1034 0.984 . S
N1028 H1035 0.984 . S
N1029 C1022 1.356 . S
N1029 H1032 0.984 . S
N1029 H1033 0.985 . S
H1030 N1025 0.984 . S
H1031 N1025 0.985 . S
H1032 N1029 0.984 . S
H1033 N1029 0.985 . S
H1034 N1028 0.984 . S
H1035 N1028 0.984 . S
H1036 N1024 0.984 . S
H1037 N1024 0.985 . S
C1038 C1039 1.363 . S
C1038 C1044 1.379 . S
C1038 N1046 1.356 . S
C1039 C1038 1.363 . S
C1039 C1045 1.363 . S
C1040 C1041 1.363 . S
C1040 C1045 1.379 . S
C1040 N1047 1.356 . S
C1041 C1040 1.363 . S
C1041 C1044 1.363 . S
N1042 C1044 1.356 . S
N1042 H1054 0.984 . S
N1042 H1055 0.985 . S
N1043 C1045 1.356 . S
N1043 H1048 0.984 . S
N1043 H1049 0.985 . S
C1044 C1038 1.379 . S
C1044 C1041 1.363 . S
C1044 N1042 1.356 . S
C1045 C1039 1.363 . S
C1045 C1040 1.379 . S
C1045 N1043 1.356 . S
N1046 C1038 1.356 . S
N1046 H1052 0.984 . S
N1046 H1053 0.984 . S
N1047 C1040 1.356 . S
N1047 H1050 0.984 . S
N1047 H1051 0.985 . S
H1048 N1043 0.984 . S
H1049 N1043 0.985 . S
H1050 N1047 0.984 . S
H1051 N1047 0.985 . S
H1052 N1046 0.984 . S
H1053 N1046 0.984 . S
H1054 N1042 0.984 . S
H1055 N1042 0.985 . S
C1056 C1057 1.363 . S
C1056 C1062 1.379 . S
C1056 N1064 1.356 . S
C1057 C1056 1.363 . S
C1057 C1063 1.363 . S
C1058 C1059 1.363 . S
C1058 C1063 1.379 . S
C1058 N1065 1.356 . S
C1059 C1058 1.363 . S
C1059 C1062 1.363 . S
N1060 C1062 1.356 . S
N1060 H1072 0.984 . S
N1060 H1073 0.985 . S
N1061 C1063 1.356 . S
N1061 H1066 0.984 . S
N1061 H1067 0.985 . S
C1062 C1056 1.379 . S
C1062 C1059 1.363 . S
C1062 N1060 1.356 . S
C1063 C1057 1.363 . S
C1063 C1058 1.379 . S
C1063 N1061 1.356 . S
N1064 C1056 1.356 . S
N1064 H1070 0.984 . S
N1064 H1071 0.984 . S
N1065 C1058 1.356 . S
N1065 H1068 0.984 . S
N1065 H1069 0.985 . S
H1066 N1061 0.984 . S
H1067 N1061 0.985 . S
H1068 N1065 0.984 . S
H1069 N1065 0.985 . S
H1070 N1064 0.984 . S
H1071 N1064 0.984 . S
H1072 N1060 0.984 . S
H1073 N1060 0.985 . S
C1074 C1075 1.363 . S
C1074 C1080 1.379 . S
C1074 N1082 1.356 . S
C1075 C1074 1.363 . S
C1075 C1081 1.363 . S
C1076 C1077 1.363 . S
C1076 C1081 1.379 . S
C1076 N1083 1.356 . S
C1077 C1076 1.363 . S
C1077 C1080 1.363 . S
N1078 C1080 1.356 . S
N1078 H1090 0.984 . S
N1078 H1091 0.985 . S
N1079 C1081 1.356 . S
N1079 H1084 0.984 . S
N1079 H1085 0.985 . S
C1080 C1074 1.379 . S
C1080 C1077 1.363 . S
C1080 N1078 1.356 . S
C1081 C1075 1.363 . S
C1081 C1076 1.379 . S
C1081 N1079 1.356 . S
N1082 C1074 1.356 . S
N1082 H1088 0.984 . S
N1082 H1089 0.984 . S
N1083 C1076 1.356 . S
N1083 H1086 0.984 . S
N1083 H1087 0.985 . S
H1084 N1079 0.984 . S
H1085 N1079 0.985 . S
H1086 N1083 0.984 . S
H1087 N1083 0.985 . S
H1088 N1082 0.984 . S
H1089 N1082 0.984 . S
H1090 N1078 0.984 . S
H1091 N1078 0.985 . S
C1092 C1093 1.363 . S
C1092 C1098 1.379 . S
C1092 N1100 1.356 . S
C1093 C1092 1.363 . S
C1093 C1099 1.363 . S
C1094 C1095 1.363 . S
C1094 C1099 1.379 . S
C1094 N1101 1.356 . S
C1095 C1094 1.363 . S
C1095 C1098 1.363 . S
N1096 C1098 1.356 . S
N1096 H1108 0.984 . S
N1096 H1109 0.985 . S
N1097 C1099 1.356 . S
N1097 H1102 0.984 . S
N1097 H1103 0.985 . S
C1098 C1092 1.379 . S
C1098 C1095 1.363 . S
C1098 N1096 1.356 . S
C1099 C1093 1.363 . S
C1099 C1094 1.379 . S
C1099 N1097 1.356 . S
N1100 C1092 1.356 . S
N1100 H1106 0.984 . S
N1100 H1107 0.984 . S
N1101 C1094 1.356 . S
N1101 H1104 0.984 . S
N1101 H1105 0.985 . S
H1102 N1097 0.984 . S
H1103 N1097 0.985 . S
H1104 N1101 0.984 . S
H1105 N1101 0.985 . S
H1106 N1100 0.984 . S
H1107 N1100 0.984 . S
H1108 N1096 0.984 . S
H1109 N1096 0.985 . S
C1110 C1111 1.363 . S
C1110 C1116 1.379 . S
C1110 N1118 1.356 . S
C1111 C1110 1.363 . S
C1111 C1117 1.363 . S
C1112 C1113 1.363 . S
C1112 C1117 1.379 . S
C1112 N1119 1.356 . S
C1113 C1112 1.363 . S
C1113 C1116 1.363 . S
N1114 C1116 1.356 . S
N1114 H1126 0.984 . S
N1114 H1127 0.985 . S
N1115 C1117 1.356 . S
N1115 H1120 0.984 . S
N1115 H1121 0.985 . S
C1116 C1110 1.379 . S
C1116 C1113 1.363 . S
C1116 N1114 1.356 . S
C1117 C1111 1.363 . S
C1117 C1112 1.379 . S
C1117 N1115 1.356 . S
N1118 C1110 1.356 . S
N1118 H1124 0.984 . S
N1118 H1125 0.984 . S
N1119 C1112 1.356 . S
N1119 H1122 0.984 . S
N1119 H1123 0.985 . S
H1120 N1115 0.984 . S
H1121 N1115 0.985 . S
H1122 N1119 0.984 . S
H1123 N1119 0.985 . S
H1124 N1118 0.984 . S
H1125 N1118 0.984 . S
H1126 N1114 0.984 . S
H1127 N1114 0.985 . S
C1128 C1129 1.363 . S
C1128 C1134 1.379 . S
C1128 N1136 1.356 . S
C1129 C1128 1.363 . S
C1129 C1135 1.363 . S
C1130 C1131 1.363 . S
C1130 C1135 1.379 . S
C1130 N1137 1.356 . S
C1131 C1130 1.363 . S
C1131 C1134 1.363 . S
N1132 C1134 1.356 . S
N1132 H1144 0.984 . S
N1132 H1145 0.985 . S
N1133 C1135 1.356 . S
N1133 H1138 0.984 . S
N1133 H1139 0.985 . S
C1134 C1128 1.379 . S
C1134 C1131 1.363 . S
C1134 N1132 1.356 . S
C1135 C1129 1.363 . S
C1135 C1130 1.379 . S
C1135 N1133 1.356 . S
N1136 C1128 1.356 . S
N1136 H1142 0.984 . S
N1136 H1143 0.984 . S
N1137 C1130 1.356 . S
N1137 H1140 0.984 . S
N1137 H1141 0.985 . S
H1138 N1133 0.984 . S
H1139 N1133 0.985 . S
H1140 N1137 0.984 . S
H1141 N1137 0.985 . S
H1142 N1136 0.984 . S
H1143 N1136 0.984 . S
H1144 N1132 0.984 . S
H1145 N1132 0.985 . S
C1146 C1147 1.363 . S
C1146 C1152 1.379 . S
C1146 N1154 1.356 . S
C1147 C1146 1.363 . S
C1147 C1153 1.363 . S
C1148 C1149 1.363 . S
C1148 C1153 1.379 . S
C1148 N1155 1.356 . S
C1149 C1148 1.363 . S
C1149 C1152 1.363 . S
N1150 C1152 1.356 . S
N1150 H1162 0.984 . S
N1150 H1163 0.985 . S
N1151 C1153 1.356 . S
N1151 H1156 0.984 . S
N1151 H1157 0.985 . S
C1152 C1146 1.379 . S
C1152 C1149 1.363 . S
C1152 N1150 1.356 . S
C1153 C1147 1.363 . S
C1153 C1148 1.379 . S
C1153 N1151 1.356 . S
N1154 C1146 1.356 . S
N1154 H1160 0.984 . S
N1154 H1161 0.984 . S
N1155 C1148 1.356 . S
N1155 H1158 0.984 . S
N1155 H1159 0.985 . S
H1156 N1151 0.984 . S
H1157 N1151 0.985 . S
H1158 N1155 0.984 . S
H1159 N1155 0.985 . S
H1160 N1154 0.984 . S
H1161 N1154 0.984 . S
H1162 N1150 0.984 . S
H1163 N1150 0.985 . S
C1164 C1165 1.363 . S
C1164 C1170 1.379 . S
C1164 N1172 1.356 . S
C1165 C1164 1.363 . S
C1165 C1171 1.363 . S
C1166 C1167 1.363 . S
C1166 C1171 1.379 . S
C1166 N1173 1.356 . S
C1167 C1166 1.363 . S
C1167 C1170 1.363 . S
N1168 C1170 1.356 . S
N1168 H1180 0.984 . S
N1168 H1181 0.985 . S
N1169 C1171 1.356 . S
N1169 H1174 0.984 . S
N1169 H1175 0.985 . S
C1170 C1164 1.379 . S
C1170 C1167 1.363 . S
C1170 N1168 1.356 . S
C1171 C1165 1.363 . S
C1171 C1166 1.379 . S
C1171 N1169 1.356 . S
N1172 C1164 1.356 . S
N1172 H1178 0.984 . S
N1172 H1179 0.984 . S
N1173 C1166 1.356 . S
N1173 H1176 0.984 . S
N1173 H1177 0.985 . S
H1174 N1169 0.984 . S
H1175 N1169 0.985 . S
H1176 N1173 0.984 . S
H1177 N1173 0.985 . S
H1178 N1172 0.984 . S
H1179 N1172 0.984 . S
H1180 N1168 0.984 . S
H1181 N1168 0.985 . S
C1182 C1183 1.363 . S
C1182 C1188 1.379 . S
C1182 N1190 1.356 . S
C1183 C1182 1.363 . S
C1183 C1189 1.363 . S
C1184 C1185 1.363 . S
C1184 C1189 1.379 . S
C1184 N1191 1.356 . S
C1185 C1184 1.363 . S
C1185 C1188 1.363 . S
N1186 C1188 1.356 . S
N1186 H1198 0.984 . S
N1186 H1199 0.985 . S
N1187 C1189 1.356 . S
N1187 H1192 0.984 . S
N1187 H1193 0.985 . S
C1188 C1182 1.379 . S
C1188 C1185 1.363 . S
C1188 N1186 1.356 . S
C1189 C1183 1.363 . S
C1189 C1184 1.379 . S
C1189 N1187 1.356 . S
N1190 C1182 1.356 . S
N1190 H1196 0.984 . S
N1190 H1197 0.984 . S
N1191 C1184 1.356 . S
N1191 H1194 0.984 . S
N1191 H1195 0.985 . S
H1192 N1187 0.984 . S
H1193 N1187 0.985 . S
H1194 N1191 0.984 . S
H1195 N1191 0.985 . S
H1196 N1190 0.984 . S
H1197 N1190 0.984 . S
H1198 N1186 0.984 . S
H1199 N1186 0.985 . S
C337 C9 1.537 . S
C339 C107 1.537 . S
C355 C121 1.537 . S
C357 C23 1.537 . S
C373 C37 1.537 . S
C375 C135 1.536 . S
C391 C51 1.536 . S
C393 C149 1.536 . S
C409 C163 1.537 . S
C411 C65 1.537 . S
C427 C79 1.536 . S
C429 C93 1.536 . S
C445 C177 1.537 . S
C447 C275 1.537 . S
C463 C191 1.537 . S
C465 C289 1.537 . S
C481 C303 1.536 . S
C483 C205 1.537 . S
C499 C219 1.536 . S
C501 C317 1.536 . S
C517 C233 1.537 . S
C519 C331 1.537 . S
C535 C261 1.536 . S
C537 C247 1.536 . S
C553 C8 1.423 . S
C555 C120 1.423 . S
C571 C134 1.423 . S
C573 C22 1.423 . S
C589 C148 1.422 . S
C591 C36 1.422 . S
C607 C50 1.423 . S
C609 C162 1.423 . S
C625 C64 1.423 . S
C627 C92 1.423 . S
C643 C78 1.422 . S
C645 C106 1.422 . S
C661 C288 1.423 . S
C663 C176 1.423 . S
C679 C190 1.423 . S
C681 C302 1.423 . S
C697 C316 1.422 . S
C699 C204 1.422 . S
C715 C330 1.423 . S
C717 C218 1.423 . S
C733 C260 1.423 . S
C735 C232 1.423 . S
C751 C246 1.422 . S
C753 C274 1.422 . S
C769 C7 1.525 . S
C771 C217 1.525 . S
C787 C231 1.525 . S
C789 C21 1.525 . S
C805 C245 1.525 . S
C807 C35 1.525 . S
C823 C49 1.525 . S
C825 C175 1.525 . S
C841 C63 1.525 . S
C843 C189 1.525 . S
C859 C203 1.525 . S
C861 C77 1.525 . S
C877 C301 1.525 . S
C879 C91 1.525 . S
C895 C315 1.525 . S
C897 C105 1.525 . S
C913 C329 1.525 . S
C915 C119 1.525 . S
C931 C259 1.525 . S
C933 C133 1.525 . S
C949 C147 1.525 . S
C951 C273 1.525 . S
C967 C161 1.525 . S
C969 C287 1.525 . S
C985 C3 1.487 . S
C987 C143 1.488 . S
C1003 C157 1.487 . S
C1005 C17 1.487 . S
C1021 C87 1.487 . S
C1023 C31 1.487 . S
C1039 C45 1.487 . S
C1041 C101 1.487 . S
C1057 C59 1.487 . S
C1059 C115 1.487 . S
C1075 C73 1.488 . S
C1077 C129 1.488 . S
C1093 C171 1.487 . S
C1095 C311 1.488 . S
C1111 C185 1.487 . S
C1113 C325 1.487 . S
C1129 C199 1.487 . S
C1131 C255 1.487 . S
C1147 C269 1.487 . S
C1149 C213 1.487 . S
C1165 C227 1.487 . S
C1167 C283 1.487 . S
C1183 C241 1.488 . S
C1185 C297 1.488 . S
