# Generated by pormake.
# Topology uka, (4)-cn, num edge types: 1
# Building blocks:
#     Node 0, Type 0, BuildingBlock: NAHDIM_clean_sbu_0, # of connection points: 4
#     Node 1, Type 0, BuildingBlock: NAHDIM_clean_sbu_0, # of connection points: 4
#     Node 2, Type 0, BuildingBlock: NAHDIM_clean_sbu_0, # of connection points: 4
#     Node 3, Type 0, BuildingBlock: NAHDIM_clean_sbu_0, # of connection points: 4
#     Node 4, Type 0, BuildingBlock: NAHDIM_clean_sbu_0, # of connection points: 4
#     Node 5, Type 0, BuildingBlock: NAHDIM_clean_sbu_0, # of connection points: 4
#     Node 6, Type 0, BuildingBlock: NAHDIM_clean_sbu_0, # of connection points: 4
#     Node 7, Type 0, BuildingBlock: NAHDIM_clean_sbu_0, # of connection points: 4
#     Node 8, Type 0, BuildingBlock: NAHDIM_clean_sbu_0, # of connection points: 4
#     Node 9, Type 0, BuildingBlock: NAHDIM_clean_sbu_0, # of connection points: 4
#     Node 10, Type 0, BuildingBlock: NAHDIM_clean_sbu_0, # of connection points: 4
#     Node 11, Type 0, BuildingBlock: NAHDIM_clean_sbu_0, # of connection points: 4
#     Node 12, Type 0, BuildingBlock: NAHDIM_clean_sbu_0, # of connection points: 4
#     Node 13, Type 0, BuildingBlock: NAHDIM_clean_sbu_0, # of connection points: 4
#     Node 14, Type 0, BuildingBlock: NAHDIM_clean_sbu_0, # of connection points: 4
#     Node 15, Type 0, BuildingBlock: NAHDIM_clean_sbu_0, # of connection points: 4
#     Node 16, Type 0, BuildingBlock: NAHDIM_clean_sbu_0, # of connection points: 4
#     Node 17, Type 0, BuildingBlock: NAHDIM_clean_sbu_0, # of connection points: 4
#     Node 18, Type 0, BuildingBlock: NAHDIM_clean_sbu_0, # of connection points: 4
#     Node 19, Type 0, BuildingBlock: NAHDIM_clean_sbu_0, # of connection points: 4
#     Node 20, Type 0, BuildingBlock: NAHDIM_clean_sbu_0, # of connection points: 4
#     Node 21, Type 0, BuildingBlock: NAHDIM_clean_sbu_0, # of connection points: 4
#     Node 22, Type 0, BuildingBlock: NAHDIM_clean_sbu_0, # of connection points: 4
#     Node 23, Type 0, BuildingBlock: NAHDIM_clean_sbu_0, # of connection points: 4
#     Node 24, Type 0, BuildingBlock: NAHDIM_clean_sbu_0, # of connection points: 4
#     Node 25, Type 0, BuildingBlock: NAHDIM_clean_sbu_0, # of connection points: 4
#     Node 26, Type 0, BuildingBlock: NAHDIM_clean_sbu_0, # of connection points: 4
#     Node 27, Type 0, BuildingBlock: NAHDIM_clean_sbu_0, # of connection points: 4
#     Node 28, Type 0, BuildingBlock: NAHDIM_clean_sbu_0, # of connection points: 4
#     Node 29, Type 0, BuildingBlock: NAHDIM_clean_sbu_0, # of connection points: 4
#     Node 30, Type 0, BuildingBlock: NAHDIM_clean_sbu_0, # of connection points: 4
#     Node 31, Type 0, BuildingBlock: NAHDIM_clean_sbu_0, # of connection points: 4
#     Edge 32, Type (0, 0), BuildingBlock: CIFDUS_clean_linker_0, # of connection points: 2
#     Edge 33, Type (0, 0), BuildingBlock: CIFDUS_clean_linker_0, # of connection points: 2
#     Edge 34, Type (0, 0), BuildingBlock: CIFDUS_clean_linker_0, # of connection points: 2
#     Edge 35, Type (0, 0), BuildingBlock: CIFDUS_clean_linker_0, # of connection points: 2
#     Edge 36, Type (0, 0), BuildingBlock: CIFDUS_clean_linker_0, # of connection points: 2
#     Edge 37, Type (0, 0), BuildingBlock: CIFDUS_clean_linker_0, # of connection points: 2
#     Edge 38, Type (0, 0), BuildingBlock: CIFDUS_clean_linker_0, # of connection points: 2
#     Edge 39, Type (0, 0), BuildingBlock: CIFDUS_clean_linker_0, # of connection points: 2
#     Edge 40, Type (0, 0), BuildingBlock: CIFDUS_clean_linker_0, # of connection points: 2
#     Edge 41, Type (0, 0), BuildingBlock: CIFDUS_clean_linker_0, # of connection points: 2
#     Edge 42, Type (0, 0), BuildingBlock: CIFDUS_clean_linker_0, # of connection points: 2
#     Edge 43, Type (0, 0), BuildingBlock: CIFDUS_clean_linker_0, # of connection points: 2
#     Edge 44, Type (0, 0), BuildingBlock: CIFDUS_clean_linker_0, # of connection points: 2
#     Edge 45, Type (0, 0), BuildingBlock: CIFDUS_clean_linker_0, # of connection points: 2
#     Edge 46, Type (0, 0), BuildingBlock: CIFDUS_clean_linker_0, # of connection points: 2
#     Edge 47, Type (0, 0), BuildingBlock: CIFDUS_clean_linker_0, # of connection points: 2
#     Edge 48, Type (0, 0), BuildingBlock: CIFDUS_clean_linker_0, # of connection points: 2
#     Edge 49, Type (0, 0), BuildingBlock: CIFDUS_clean_linker_0, # of connection points: 2
#     Edge 50, Type (0, 0), BuildingBlock: CIFDUS_clean_linker_0, # of connection points: 2
#     Edge 51, Type (0, 0), BuildingBlock: CIFDUS_clean_linker_0, # of connection points: 2
#     Edge 52, Type (0, 0), BuildingBlock: CIFDUS_clean_linker_0, # of connection points: 2
#     Edge 53, Type (0, 0), BuildingBlock: CIFDUS_clean_linker_0, # of connection points: 2
#     Edge 54, Type (0, 0), BuildingBlock: CIFDUS_clean_linker_0, # of connection points: 2
#     Edge 55, Type (0, 0), BuildingBlock: CIFDUS_clean_linker_0, # of connection points: 2
#     Edge 56, Type (0, 0), BuildingBlock: CIFDUS_clean_linker_0, # of connection points: 2
#     Edge 57, Type (0, 0), BuildingBlock: CIFDUS_clean_linker_0, # of connection points: 2
#     Edge 58, Type (0, 0), BuildingBlock: CIFDUS_clean_linker_0, # of connection points: 2
#     Edge 59, Type (0, 0), BuildingBlock: CIFDUS_clean_linker_0, # of connection points: 2
#     Edge 60, Type (0, 0), BuildingBlock: CIFDUS_clean_linker_0, # of connection points: 2
#     Edge 61, Type (0, 0), BuildingBlock: CIFDUS_clean_linker_0, # of connection points: 2
#     Edge 62, Type (0, 0), BuildingBlock: CIFDUS_clean_linker_0, # of connection points: 2
#     Edge 63, Type (0, 0), BuildingBlock: CIFDUS_clean_linker_0, # of connection points: 2
#     Edge 64, Type (0, 0), BuildingBlock: CIFDUS_clean_linker_0, # of connection points: 2
#     Edge 65, Type (0, 0), BuildingBlock: CIFDUS_clean_linker_0, # of connection points: 2
#     Edge 66, Type (0, 0), BuildingBlock: CIFDUS_clean_linker_0, # of connection points: 2
#     Edge 67, Type (0, 0), BuildingBlock: CIFDUS_clean_linker_0, # of connection points: 2
#     Edge 68, Type (0, 0), BuildingBlock: CIFDUS_clean_linker_0, # of connection points: 2
#     Edge 69, Type (0, 0), BuildingBlock: CIFDUS_clean_linker_0, # of connection points: 2
#     Edge 70, Type (0, 0), BuildingBlock: CIFDUS_clean_linker_0, # of connection points: 2
#     Edge 71, Type (0, 0), BuildingBlock: CIFDUS_clean_linker_0, # of connection points: 2
#     Edge 72, Type (0, 0), BuildingBlock: CIFDUS_clean_linker_0, # of connection points: 2
#     Edge 73, Type (0, 0), BuildingBlock: CIFDUS_clean_linker_0, # of connection points: 2
#     Edge 74, Type (0, 0), BuildingBlock: CIFDUS_clean_linker_0, # of connection points: 2
#     Edge 75, Type (0, 0), BuildingBlock: CIFDUS_clean_linker_0, # of connection points: 2
#     Edge 76, Type (0, 0), BuildingBlock: CIFDUS_clean_linker_0, # of connection points: 2
#     Edge 77, Type (0, 0), BuildingBlock: CIFDUS_clean_linker_0, # of connection points: 2
#     Edge 78, Type (0, 0), BuildingBlock: CIFDUS_clean_linker_0, # of connection points: 2
#     Edge 79, Type (0, 0), BuildingBlock: CIFDUS_clean_linker_0, # of connection points: 2
#     Edge 80, Type (0, 0), BuildingBlock: CIFDUS_clean_linker_0, # of connection points: 2
#     Edge 81, Type (0, 0), BuildingBlock: CIFDUS_clean_linker_0, # of connection points: 2
#     Edge 82, Type (0, 0), BuildingBlock: CIFDUS_clean_linker_0, # of connection points: 2
#     Edge 83, Type (0, 0), BuildingBlock: CIFDUS_clean_linker_0, # of connection points: 2
#     Edge 84, Type (0, 0), BuildingBlock: CIFDUS_clean_linker_0, # of connection points: 2
#     Edge 85, Type (0, 0), BuildingBlock: CIFDUS_clean_linker_0, # of connection points: 2
#     Edge 86, Type (0, 0), BuildingBlock: CIFDUS_clean_linker_0, # of connection points: 2
#     Edge 87, Type (0, 0), BuildingBlock: CIFDUS_clean_linker_0, # of connection points: 2
#     Edge 88, Type (0, 0), BuildingBlock: CIFDUS_clean_linker_0, # of connection points: 2
#     Edge 89, Type (0, 0), BuildingBlock: CIFDUS_clean_linker_0, # of connection points: 2
#     Edge 90, Type (0, 0), BuildingBlock: CIFDUS_clean_linker_0, # of connection points: 2
#     Edge 91, Type (0, 0), BuildingBlock: CIFDUS_clean_linker_0, # of connection points: 2
#     Edge 92, Type (0, 0), BuildingBlock: CIFDUS_clean_linker_0, # of connection points: 2
#     Edge 93, Type (0, 0), BuildingBlock: CIFDUS_clean_linker_0, # of connection points: 2
#     Edge 94, Type (0, 0), BuildingBlock: CIFDUS_clean_linker_0, # of connection points: 2
#     Edge 95, Type (0, 0), BuildingBlock: CIFDUS_clean_linker_0, # of connection points: 2
# Relax obj value: 0.247
# Max RMSD: 0.250
# Mean RMSD: 0.250
data_MOF--net-uka--node1-NAHDIM_clean_sbu_0--edge1-CIFDUS_clean_linker_0
_symmetry_space_group_name_H-M    P1
_symmetry_Int_Tables_number       1
_symmetry_cell_setting            triclinic
loop_
_symmetry_equiv_pos_as_xyz
'x, y, z'
_cell_length_a     53.085448
_cell_length_b     53.073178
_cell_length_c     36.060333
_cell_angle_alpha  89.916633
_cell_angle_beta   89.918875
_cell_angle_gamma 89.971838
loop_
_atom_site_label
_atom_site_type_symbol
_atom_site_fract_x
_atom_site_fract_y
_atom_site_fract_z
_atom_type_partial_charge
C0 C 0.15557 0.27475 0.20345 0.0
O1 O 0.14196 0.26372 0.17778 0.0
O2 O 0.09212 0.25538 0.23472 0.0
Zn3 Zn 0.10687 0.29001 0.2269 0.0
O4 O 0.09502 0.30551 0.17909 0.0
C5 C 0.10095 0.30608 0.30245 0.0
O6 O 0.11897 0.28956 0.30813 0.0
O7 O 0.1446 0.28811 0.22781 0.0
C8 C 0.08839 0.29259 0.15111 0.0
O9 O 0.08903 0.26788 0.15307 0.0
C10 C 0.10439 0.23882 0.25274 0.0
O11 O 0.12757 0.2438 0.26303 0.0
O12 O 0.09388 0.31057 0.26942 0.0
C13 C 0.9882 0.92246 0.49032 0.0
O14 O 0.00373 0.90928 0.4696 0.0
O15 O 0.00976 0.86183 0.51902 0.0
Zn16 Zn 0.97406 0.87353 0.51448 0.0
O17 O 0.95747 0.85831 0.46956 0.0
C18 C 0.96833 0.86116 0.59156 0.0
O19 O 0.99162 0.86945 0.59313 0.0
O20 O 0.97318 0.911 0.51192 0.0
C21 C 0.93567 0.84853 0.47198 0.0
O22 O 0.92395 0.84866 0.50408 0.0
C23 C 0.01329 0.8382 0.5205 0.0
O24 O -0.00584 0.82316 0.51388 0.0
O25 O 0.95659 0.86194 0.56088 0.0
C26 C 0.30722 0.76703 0.74893 0.0
O27 O 0.32041 0.77888 0.72345 0.0
O28 O 0.36687 0.78929 0.80537 0.0
Zn29 Zn 0.35602 0.75734 0.78019 0.0
O30 O 0.37243 0.75118 0.7308 0.0
C31 C 0.36874 0.72864 0.8467 0.0
O32 O 0.36048 0.74837 0.86504 0.0
O33 O 0.31858 0.75646 0.77573 0.0
C34 C 0.39562 0.74517 0.73058 0.0
O35 O 0.40844 0.74614 0.76169 0.0
C36 C 0.38408 0.80425 0.79467 0.0
O37 O 0.39559 0.80016 0.76299 0.0
O38 O 0.36743 0.72847 0.81156 0.0
C39 C 0.50856 0.08541 0.0059 0.0
O40 O 0.49619 0.09849 0.98086 0.0
O41 O 0.47348 0.1383 0.0414 0.0
Zn42 Zn 0.51068 0.13391 0.03488 0.0
O43 O 0.52281 0.14998 0.98751 0.0
C44 C 0.51556 0.1531 0.10916 0.0
O45 O 0.4935 0.14222 0.11317 0.0
O46 O 0.51784 0.09689 0.03357 0.0
C47 C 0.54622 0.1544 0.98393 0.0
O48 O 0.56148 0.1485 0.01126 0.0
C49 C 0.46175 0.15804 0.03157 0.0
O50 O 0.47381 0.17547 0.01269 0.0
O51 O 0.52718 0.15101 0.07843 0.0
C52 C 0.16579 0.74517 0.28857 0.0
O53 O 0.15212 0.76501 0.29693 0.0
O54 O 0.0986 0.74835 0.26996 0.0
Zn55 Zn 0.11785 0.71802 0.28872 0.0
O56 O 0.10655 0.70702 0.33983 0.0
C57 C 0.12225 0.68436 0.22455 0.0
O58 O 0.14364 0.69592 0.21771 0.0
O59 O 0.15521 0.72379 0.28576 0.0
C60 C 0.08733 0.69277 0.34207 0.0
O61 O 0.07505 0.68704 0.31163 0.0
C62 C 0.10568 0.75684 0.23863 0.0
O63 O 0.12568 0.74691 0.2229 0.0
O64 O 0.10949 0.69028 0.25309 0.0
C65 C 0.53014 0.92073 0.47274 0.0
O66 O 0.51359 0.90821 0.49265 0.0
O67 O 0.51103 0.85815 0.44878 0.0
Zn68 Zn 0.54607 0.87083 0.45962 0.0
O69 O 0.55715 0.85941 0.51013 0.0
C70 C 0.56569 0.85246 0.38893 0.0
O71 O 0.54645 0.86434 0.37417 0.0
O72 O 0.5472 0.90858 0.45567 0.0
C73 C 0.5423 0.85394 0.53659 0.0
O74 O 0.51791 0.85679 0.53208 0.0
C75 C 0.49676 0.86957 0.42599 0.0
O76 O 0.50472 0.89047 0.41033 0.0
O77 O 0.56949 0.85411 0.42363 0.0
C78 C 0.30778 0.23206 0.7402 0.0
O79 O 0.32086 0.21598 0.76014 0.0
O80 O 0.36861 0.21957 0.69388 0.0
Zn81 Zn 0.3568 0.25016 0.72126 0.0
O82 O 0.37113 0.25329 0.77278 0.0
C83 C 0.37079 0.27981 0.65721 0.0
O84 O 0.3638 0.25957 0.639 0.0
O85 O 0.31926 0.24911 0.72213 0.0
C86 C 0.39267 0.26356 0.77581 0.0
O87 O 0.40526 0.26929 0.74556 0.0
C88 C 0.38587 0.20406 0.7024 0.0
O89 O 0.39805 0.20673 0.73383 0.0
O90 O 0.3683 0.28036 0.69224 0.0
C91 C 0.03677 0.05497 0.98649 0.0
O92 O 0.04926 0.06832 0.96188 0.0
O93 O 0.03087 0.11987 0.96254 0.0
Zn94 Zn 0.00519 0.09929 0.99065 0.0
O95 O 0.99219 0.11777 0.03616 0.0
C96 C 0.979 0.08991 0.92164 0.0
O97 O 0.00177 0.08577 0.90868 0.0
O98 O 0.01819 0.06487 0.00328 0.0
C99 C 0.97183 0.13037 0.03353 0.0
O100 O 0.96018 0.13132 0.00147 0.0
C101 C 0.023 0.14027 0.94812 0.0
O102 O -0.00011 0.14764 0.95526 0.0
O103 O 0.97615 0.09457 0.95592 0.0
C104 C 0.84853 0.74994 0.78116 0.0
O105 O 0.86282 0.76778 0.79506 0.0
O106 O 0.91066 0.7595 0.74926 0.0
Zn107 Zn 0.89646 0.72732 0.76936 0.0
O108 O 0.90863 0.72073 0.8212 0.0
C109 C 0.90302 0.70329 0.7001 0.0
O110 O 0.89156 0.72403 0.6895 0.0
O111 O 0.85883 0.73005 0.76879 0.0
C112 C 0.9281 0.70745 0.82741 0.0
O113 O 0.94073 0.69809 0.79925 0.0
C114 C 0.93307 0.76716 0.75411 0.0
O115 O 0.94831 0.75423 0.7756 0.0
O116 O 0.90701 0.69976 0.73447 0.0
C117 C 0.00063 0.07008 0.45471 0.0
O118 O 0.98629 0.08301 0.47751 0.0
O119 O 0.96834 0.12318 0.4124 0.0
Zn120 Zn 0.00492 0.1184 0.42422 0.0
O121 O 0.01452 0.13588 0.4714 0.0
C122 C 0.04902 0.13238 0.38314 0.0
O123 O 0.06037 0.12003 0.40995 0.0
O124 O 0.01179 0.08156 0.42854 0.0
C125 C 0.00785 0.1584 0.47815 0.0
O126 O 0.9937 0.17051 0.45414 0.0
C127 C 0.95053 0.12801 0.43491 0.0
O128 O 0.9553 0.13046 0.47046 0.0
O129 O 0.02514 0.13356 0.38301 0.0
C130 C 0.65895 0.28425 0.24915 0.0
O131 O 0.64408 0.26548 0.25843 0.0
O132 O 0.59932 0.27345 0.22103 0.0
Zn133 Zn 0.61148 0.30702 0.23947 0.0
O134 O 0.59679 0.316 0.28942 0.0
C135 C 0.60395 0.32632 0.16712 0.0
O136 O 0.61695 0.30598 0.159 0.0
O137 O 0.64924 0.30545 0.24111 0.0
C138 C 0.5776 0.33029 0.2914 0.0
O139 O 0.56719 0.33847 0.26062 0.0
C140 C 0.5783 0.26285 0.2272 0.0
O141 O 0.56199 0.27362 0.24956 0.0
O142 O 0.60042 0.33189 0.20098 0.0
C143 C 0.52101 0.93598 0.02153 0.0
O144 O 0.53281 0.92193 0.04599 0.0
O145 O 0.54127 0.87328 0.98267 0.0
Zn146 Zn 0.50682 0.88816 0.98879 0.0
O147 O 0.48771 0.8716 0.03046 0.0
C148 C 0.46461 0.88117 0.93982 0.0
O149 O 0.45162 0.88727 0.96953 0.0
O150 O 0.50879 0.92548 0.99554 0.0
C151 C 0.49495 0.85099 0.04492 0.0
O152 O 0.51616 0.84072 0.03375 0.0
C153 C 0.55504 0.88242 0.95719 0.0
O154 O 0.54708 0.90246 0.93922 0.0
O155 O 0.48849 0.8809 0.94148 0.0
C156 C 0.81944 0.20321 0.76752 0.0
O157 O 0.82933 0.1919 0.73856 0.0
O158 O 0.88391 0.17585 0.79942 0.0
Zn159 Zn 0.8713 0.21043 0.78687 0.0
O160 O 0.88219 0.22166 0.73604 0.0
C161 C 0.88734 0.25769 0.81647 0.0
O162 O 0.87699 0.26612 0.78579 0.0
O163 O 0.8339 0.21237 0.79201 0.0
C164 C 0.90543 0.22501 0.72907 0.0
O165 O 0.92218 0.21954 0.75465 0.0
C166 C 0.89576 0.16091 0.7781 0.0
O167 O 0.89924 0.16706 0.74318 0.0
O168 O 0.8867 0.23424 0.82344 0.0
C169 C 0.49612 0.06702 0.46574 0.0
O170 O 0.5153 0.08072 0.4546 0.0
O171 O 0.50846 0.12794 0.50366 0.0
Zn172 Zn 0.47515 0.11541 0.48495 0.0
O173 O 0.46266 0.13372 0.43941 0.0
C174 C 0.45875 0.11707 0.55957 0.0
O175 O 0.4799 0.10453 0.56381 0.0
O176 O 0.47658 0.07794 0.47825 0.0
C177 C 0.46996 0.15583 0.43104 0.0
O178 O 0.48691 0.16704 0.45171 0.0
C179 C 0.52921 0.13522 0.48972 0.0
O180 O 0.53224 0.13567 0.45356 0.0
O181 O 0.45165 0.12294 0.52701 0.0
C182 C 0.67031 0.69393 0.24443 0.0
O183 O 0.65486 0.69816 0.21668 0.0
O184 O 0.61307 0.71929 0.28823 0.0
Zn185 Zn 0.62388 0.68378 0.27746 0.0
O186 O 0.60901 0.67179 0.22956 0.0
C187 C 0.60495 0.67063 0.34947 0.0
O188 O 0.61083 0.69417 0.35661 0.0
O189 O 0.66147 0.68524 0.2746 0.0
C190 C 0.58615 0.67659 0.22196 0.0
O191 O 0.57243 0.68945 0.24566 0.0
C192 C 0.60773 0.7368 0.26549 0.0
O193 O 0.60792 0.73239 0.22966 0.0
O194 O 0.61067 0.66142 0.31805 0.0
C195 C 0.03368 0.90568 0.00691 0.0
O196 O 0.05342 0.89443 0.99242 0.0
O197 O 0.97932 0.8422 0.02474 0.0
Zn198 Zn 0.01454 0.85483 0.01543 0.0
O199 O 0.02762 0.8429 0.96612 0.0
C200 C 0.03187 0.83826 0.08836 0.0
O201 O 0.00956 0.84566 0.09983 0.0
O202 O 0.0152 0.8925 0.01803 0.0
C203 C 0.01523 0.82957 0.94326 0.0
O204 O 0.9917 0.82378 0.95069 0.0
C205 C 0.96294 0.85593 0.04067 0.0
O206 O 0.96896 0.87901 0.0503 0.0
O207 O 0.03767 0.84071 0.05433 0.0
C208 C 0.69984 0.75009 0.74845 0.0
O209 O 0.68514 0.7322 0.73566 0.0
O210 O 0.63447 0.74628 0.77863 0.0
Zn211 Zn 0.6529 0.7767 0.75917 0.0
O212 O 0.64019 0.78663 0.70876 0.0
C213 C 0.64405 0.80244 0.82815 0.0
O214 O 0.64939 0.78026 0.84234 0.0
O215 O 0.69012 0.77069 0.75925 0.0
C216 C 0.61753 0.79432 0.70705 0.0
O217 O 0.60379 0.79429 0.7374 0.0
C218 C 0.62117 0.73134 0.75932 0.0
O219 O 0.61956 0.73479 0.72332 0.0
O220 O 0.64515 0.80544 0.79324 0.0
C221 C 0.47194 0.42901 0.97365 0.0
O222 O 0.4917 0.41633 0.96205 0.0
O223 O 0.49182 0.37375 0.02028 0.0
Zn224 Zn 0.45773 0.3802 -0.00159 0.0
O225 O 0.45309 0.36074 0.95096 0.0
C226 C 0.43624 0.37156 0.07058 0.0
O227 O 0.45685 0.38304 0.08153 0.0
O228 O 0.45413 0.41724 0.98958 0.0
C229 C 0.44277 0.33912 0.95124 0.0
O230 O 0.43526 0.32944 0.98293 0.0
C231 C 0.5092 0.3604 0.00616 0.0
O232 O 0.50568 0.34979 0.97368 0.0
O233 O 0.43217 0.36896 0.03606 0.0
C234 C 0.80089 0.2375 0.22712 0.0
O235 O 0.81683 0.25642 0.22661 0.0
O236 O 0.86177 0.23728 0.2638 0.0
Zn237 Zn 0.8463 0.20901 0.2348 0.0
O238 O 0.86455 0.20319 0.18666 0.0
C239 C 0.84786 0.17932 0.30067 0.0
O240 O 0.83721 0.19952 0.31473 0.0
O241 O 0.80934 0.21513 0.22883 0.0
C242 C 0.88695 0.19485 0.18935 0.0
O243 O 0.89681 0.19199 0.2225 0.0
C244 C 0.87692 0.25404 0.25218 0.0
O245 O 0.88337 0.25446 0.217 0.0
O246 O 0.8517 0.17835 0.26593 0.0
C247 C -0.0009 0.52414 0.54935 0.0
O248 O 0.97931 0.53816 0.54203 0.0
O249 O 0.99331 0.58649 0.59075 0.0
Zn250 Zn 0.0231 0.572 0.56359 0.0
O251 O 0.02863 0.58951 0.51438 0.0
C252 C 0.05042 0.57656 0.63108 0.0
O253 O 0.02979 0.56627 0.6444 0.0
O254 O 0.01968 0.53467 0.55826 0.0
C255 C 0.03996 0.61064 0.51434 0.0
O256 O 0.04721 0.62035 0.54607 0.0
C257 C 0.97942 0.60422 0.57881 0.0
O258 O 0.9828 0.6127 0.54493 0.0
O259 O 0.05265 0.57927 0.59622 0.0
C260 C 0.67002 0.21506 0.75242 0.0
O261 O 0.66027 0.22738 0.78059 0.0
O262 O 0.61284 0.25092 0.7099 0.0
Zn263 Zn 0.61883 0.21536 0.72707 0.0
O264 O 0.60433 0.20851 0.77775 0.0
C265 C 0.60763 0.19351 0.65633 0.0
O266 O 0.62514 0.20928 0.64509 0.0
O267 O 0.65572 0.20798 0.72627 0.0
C268 C 0.58078 0.20502 0.78151 0.0
O269 O 0.56615 0.20701 0.75229 0.0
C270 C 0.60036 0.26769 0.72707 0.0
O271 O 0.59101 0.26257 0.75997 0.0
O272 O 0.60202 0.19258 0.69057 0.0
C273 C 0.01072 0.42561 0.94159 0.0
O274 O -0.00234 0.4078 0.95812 0.0
O275 O -0.00265 0.36896 0.88702 0.0
Zn276 Zn 0.03013 0.38308 0.90543 0.0
O277 O 0.04126 0.36504 0.9516 0.0
C278 C 0.05032 0.37992 0.8319 0.0
O279 O 0.02801 0.38876 0.82299 0.0
O280 O 0.02638 0.41957 0.91652 0.0
C281 C 0.04695 0.34178 0.95088 0.0
O282 O 0.04538 0.32945 0.91939 0.0
C283 C 0.98319 0.35456 0.90598 0.0
O284 O 0.98925 0.34918 0.94039 0.0
O285 O 0.0559 0.37732 0.86594 0.0
C286 C 0.80499 0.75747 0.2689 0.0
O287 O 0.82094 0.75567 0.2966 0.0
O288 O 0.86555 0.74879 0.20953 0.0
Zn289 Zn 0.84777 0.77838 0.23164 0.0
O290 O 0.86446 0.78877 0.27904 0.0
C291 C 0.85228 0.80099 0.16053 0.0
O292 O 0.84602 0.77809 0.15026 0.0
O293 O 0.81195 0.76805 0.23897 0.0
C294 C 0.88673 0.79743 0.27684 0.0
O295 O 0.89776 0.79851 0.24423 0.0
C296 C 0.86798 0.72707 0.22388 0.0
O297 O 0.85963 0.72288 0.25762 0.0
O298 O 0.85172 0.80649 0.1948 0.0
C299 C 0.44823 0.5834 0.52095 0.0
O300 O 0.4631 0.5984 0.53989 0.0
O301 O 0.4686 0.64171 0.47775 0.0
Zn302 Zn 0.4333 0.63044 0.4903 0.0
O303 O 0.42101 0.64865 0.5357 0.0
C304 C 0.41693 0.6438 0.41568 0.0
O305 O 0.4402 0.63829 0.4063 0.0
O306 O 0.43278 0.59299 0.49805 0.0
C307 C 0.43507 0.66231 0.55586 0.0
O308 O 0.45929 0.66362 0.54856 0.0
C309 C 0.48425 0.62742 0.4613 0.0
O310 O 0.47736 0.60448 0.45221 0.0
O311 O 0.40995 0.64071 0.44909 0.0
C312 C 0.30148 0.25604 0.24779 0.0
O313 O 0.31613 0.2692 0.2698 0.0
O314 O 0.36308 0.27004 0.21016 0.0
Zn315 Zn 0.34857 0.23625 0.22281 0.0
O316 O 0.36375 0.22074 0.26857 0.0
C317 C 0.35543 0.22413 0.14689 0.0
O318 O 0.34524 0.24656 0.14316 0.0
O319 O 0.31125 0.23986 0.22622 0.0
C320 C 0.38758 0.21936 0.27142 0.0
O321 O 0.40175 0.22911 0.24518 0.0
C322 C 0.37655 0.28592 0.22742 0.0
O323 O 0.38312 0.28158 0.26195 0.0
O324 O 0.35743 0.21467 0.17917 0.0
C325 C 0.4946 0.57728 0.96409 0.0
O326 O 0.47584 0.58964 0.97936 0.0
O327 O 0.48132 0.64194 0.94601 0.0
Zn328 Zn 0.51465 0.62685 0.9606 0.0
O329 O 0.52312 0.63484 0.01341 0.0
C330 C 0.54005 0.64412 0.89404 0.0
O331 O 0.52054 0.6342 0.87709 0.0
O332 O 0.51391 0.58941 0.95336 0.0
C333 C 0.52129 0.65725 0.02544 0.0
O334 O 0.51296 0.67509 0.00332 0.0
C335 C 0.46366 0.64843 0.96787 0.0
O336 O 0.46614 0.64499 0.00375 0.0
O337 O 0.54156 0.64256 0.92912 0.0
C338 C 0.15959 0.74105 0.76106 0.0
O339 O 0.14679 0.72934 0.78711 0.0
O340 O 0.10853 0.70119 0.72744 0.0
Zn341 Zn 0.11197 0.73869 0.72696 0.0
O342 O 0.09202 0.755 0.76768 0.0
C343 C 0.10358 0.77056 0.66201 0.0
O344 O 0.11995 0.78593 0.67726 0.0
O345 O 0.14834 0.74761 0.73154 0.0
C346 C 0.06807 0.75488 0.76768 0.0
O347 O 0.05605 0.74312 0.74101 0.0
C348 C 0.098 0.68743 0.75177 0.0
O349 O 0.08872 0.69779 0.7819 0.0
O350 O 0.09809 0.75006 0.67825 0.0
C351 C 0.97247 0.37712 0.52665 0.0
O352 O 0.99051 0.36352 0.5415 0.0
O353 O -0.00516 0.32541 0.47123 0.0
Zn354 Zn 0.96113 0.32951 0.49617 0.0
O355 O 0.95651 0.30915 0.54289 0.0
C356 C 0.93805 0.32371 0.42523 0.0
O357 O 0.95674 0.33851 0.41538 0.0
O358 O 0.9562 0.36632 0.50637 0.0
C359 C 0.96908 0.28993 0.55294 0.0
O360 O 0.98787 0.28186 0.53244 0.0
C361 C 0.01731 0.32288 0.48276 0.0
O362 O 0.022 0.32153 0.51846 0.0
O363 O 0.93546 0.31787 0.45922 0.0
C364 C 0.30733 0.78093 0.2358 0.0
O365 O 0.31856 0.76281 0.21729 0.0
O366 O 0.3696 0.76019 0.2606 0.0
Zn367 Zn 0.35837 0.79548 0.24725 0.0
O368 O 0.37231 0.80489 0.19725 0.0
C369 C 0.38052 0.81345 0.31609 0.0
O370 O 0.37376 0.79132 0.32901 0.0
O371 O 0.32064 0.79827 0.25006 0.0
C372 C 0.39561 0.80009 0.1931 0.0
O373 O 0.40758 0.78818 0.21977 0.0
C374 C 0.35758 0.74632 0.2833 0.0
O375 O 0.33634 0.75461 0.2975 0.0
O376 O 0.37473 0.81946 0.28306 0.0
C377 C 0.98702 0.56011 0.03253 0.0
O378 O 0.00298 0.57674 0.01917 0.0
O379 O 0.00336 0.60881 0.10342 0.0
Zn380 Zn 0.97381 0.60348 0.07017 0.0
O381 O 0.97707 0.62349 0.02294 0.0
C382 C 0.9407 0.61196 0.13229 0.0
O383 O 0.95603 0.59642 0.14946 0.0
O384 O 0.97126 0.56706 0.05697 0.0
C385 C 0.96767 0.64537 0.01928 0.0
O386 O 0.95659 0.65604 0.04783 0.0
C387 C 0.02527 0.61571 0.09364 0.0
O388 O 0.03019 0.61945 0.05835 0.0
O389 O 0.94368 0.61596 0.09782 0.0
C390 C 0.16096 0.2333 0.6941 0.0
O391 O 0.14886 0.2472 0.66974 0.0
O392 O 0.10419 0.26148 0.71872 0.0
Zn393 Zn 0.11093 0.22431 0.71617 0.0
O394 O 0.09649 0.20834 0.67045 0.0
C395 C 0.0763 0.21839 0.77624 0.0
O396 O 0.06657 0.23854 0.76064 0.0
O397 O 0.14835 0.22028 0.71713 0.0
C398 C 0.07369 0.21128 0.66065 0.0
O399 O 0.05874 0.22562 0.68058 0.0
C400 C 0.09565 0.27698 0.69497 0.0
O401 O 0.08958 0.26925 0.66158 0.0
O402 O 0.09572 0.20833 0.76182 0.0
C403 C 0.48935 0.43934 0.53934 0.0
O404 O 0.47376 0.42433 0.52172 0.0
O405 O 0.48013 0.37544 0.56383 0.0
Zn406 Zn 0.51321 0.39241 0.55327 0.0
O407 O 0.52652 0.38151 0.50334 0.0
C408 C 0.52983 0.37977 0.62664 0.0
O409 O 0.50774 0.38917 0.63559 0.0
O410 O 0.50851 0.4299 0.55523 0.0
C411 C 0.54015 0.36187 0.50093 0.0
O412 O 0.5455 0.34914 0.53118 0.0
C413 C 0.46846 0.36105 0.54157 0.0
O414 O 0.4776 0.35728 0.50816 0.0
O415 O 0.53694 0.38066 0.593 0.0
H416 H 0.03108 0.16033 0.32573 0.0
H417 H 0.10012 0.13824 0.38005 0.0
H418 H 0.12385 0.16736 0.34094 0.0
H419 H 0.12432 0.20216 0.29627 0.0
H420 H 0.05509 0.22522 0.2434 0.0
H421 H 0.0322 0.19232 0.27667 0.0
C422 C 0.05137 0.16164 0.32875 0.0
C423 C 0.06375 0.14738 0.35616 0.0
C424 C 0.06485 0.17867 0.30656 0.0
C425 C 0.09007 0.14914 0.3594 0.0
C426 C 0.10367 0.16583 0.33709 0.0
C427 C 0.10429 0.19978 0.29157 0.0
C428 C 0.09139 0.21637 0.26776 0.0
C429 C 0.09115 0.18117 0.31131 0.0
C430 C 0.06547 0.21285 0.26177 0.0
C431 C 0.05233 0.1941 0.2809 0.0
H432 H 0.02354 0.78953 0.53759 0.0
H433 H 0.05439 0.86462 0.54462 0.0
H434 H 0.08736 0.84947 0.58618 0.0
H435 H 0.10362 0.81619 0.6272 0.0
H436 H 0.07125 0.74164 0.62184 0.0
H437 H 0.04284 0.75532 0.57285 0.0
C438 C 0.03775 0.80252 0.54759 0.0
C439 C 0.03623 0.82822 0.5385 0.0
C440 C 0.0562 0.79386 0.57227 0.0
C441 C 0.05497 0.84474 0.55146 0.0
C442 C 0.07376 0.83614 0.57541 0.0
C443 C 0.09064 0.80284 0.6149 0.0
C444 C 0.08927 0.77807 0.62864 0.0
C445 C 0.07397 0.81093 0.58711 0.0
C446 C 0.07246 0.76094 0.61218 0.0
C447 C 0.05618 0.76872 0.58412 0.0
H448 H 0.41512 0.86933 0.93228 0.0
H449 H 0.48545 0.87134 0.8721 0.0
H450 H 0.46562 0.85045 0.81945 0.0
H451 H 0.42964 0.82753 0.79338 0.0
H452 H 0.36011 0.82335 0.85526 0.0
H453 H 0.37819 0.84946 0.90408 0.0
C454 C 0.42602 0.86555 0.90745 0.0
C455 C 0.45177 0.87164 0.9063 0.0
C456 C 0.41467 0.853 0.87761 0.0
C457 C 0.46563 0.86663 0.87386 0.0
C458 C 0.45432 0.85466 0.84372 0.0
C459 C 0.41829 0.83274 0.81719 0.0
C460 C 0.39365 0.82336 0.82083 0.0
C461 C 0.42904 0.84715 0.84569 0.0
C462 C 0.37921 0.83018 0.85195 0.0
C463 C 0.38955 0.84506 0.87993 0.0
H464 H 0.37287 0.17622 0.14199 0.0
H465 H 0.36935 0.24647 0.08179 0.0
H466 H 0.39982 0.23059 0.03681 0.0
H467 H 0.43215 0.19932 0.02049 0.0
H468 H 0.43578 0.12927 0.08138 0.0
H469 H 0.40034 0.14237 0.11965 0.0
C470 C 0.37841 0.18786 0.11862 0.0
C471 C 0.36926 0.21262 0.11565 0.0
C472 C 0.39617 0.17876 0.09314 0.0
C473 C 0.37625 0.22737 0.08489 0.0
C474 C 0.39381 0.21837 0.05924 0.0
C475 C 0.42487 0.1867 0.04162 0.0
C476 C 0.437 0.16362 0.04857 0.0
C477 C 0.40463 0.19448 0.06397 0.0
C478 C 0.42705 0.14732 0.07569 0.0
C479 C 0.40681 0.15481 0.09776 0.0
H480 H 0.11628 0.77734 0.17173 0.0
H481 H 0.06024 0.77758 0.25856 0.0
H482 H 0.03292 0.80424 0.22046 0.0
H483 H 0.02382 0.82488 0.16059 0.0
H484 H 0.07993 0.82325 0.07374 0.0
H485 H 0.10833 0.79972 0.11387 0.0
C486 C 0.09819 0.78337 0.18256 0.0
C487 C 0.09026 0.7753 0.21785 0.0
C488 C 0.08249 0.79831 0.16036 0.0
C489 C 0.0668 0.78347 0.23145 0.0
C490 C 0.05113 0.79863 0.20961 0.0
C491 C 0.04234 0.81957 0.15056 0.0
C492 C 0.04961 0.82567 0.11406 0.0
C493 C 0.05859 0.80576 0.17372 0.0
C494 C 0.07372 0.81868 0.10157 0.0
C495 C 0.09002 0.80521 0.12451 0.0
H496 H 0.40525 0.80135 0.37959 0.0
H497 H 0.39596 0.86123 0.29957 0.0
H498 H 0.42978 0.88501 0.32899 0.0
H499 H 0.46457 0.88688 0.37338 0.0
H500 H 0.47509 0.8262 0.45175 0.0
H501 H 0.43805 0.80475 0.42713 0.0
C502 C 0.41033 0.81978 0.36892 0.0
C503 C 0.39824 0.82939 0.33723 0.0
C504 C 0.43018 0.8331 0.38544 0.0
C505 C 0.40508 0.85331 0.32378 0.0
C506 C 0.42447 0.8669 0.34052 0.0
C507 C 0.45862 0.8691 0.3854 0.0
C508 C 0.47276 0.85804 0.41408 0.0
C509 C 0.43758 0.85667 0.37072 0.0
C510 C 0.46467 0.83505 0.42945 0.0
C511 C 0.4435 0.82275 0.41537 0.0
H512 H 0.42509 0.17086 0.70688 0.0
H513 H 0.36456 0.19493 0.63512 0.0
H514 H 0.38046 0.16811 0.58575 0.0
H515 H 0.41368 0.14114 0.56078 0.0
H516 H 0.47466 0.11722 0.63163 0.0
H517 H 0.45624 0.14033 0.68351 0.0
C518 C 0.4152 0.16998 0.68062 0.0
C519 C 0.39389 0.18519 0.67462 0.0
C520 C 0.42458 0.15463 0.65202 0.0
C521 C 0.38118 0.18366 0.64047 0.0
C522 C 0.39026 0.16832 0.6121 0.0
C523 C 0.42279 0.14071 0.58768 0.0
C524 C 0.44565 0.12774 0.59217 0.0
C525 C 0.41229 0.15426 0.61725 0.0
C526 C 0.45707 0.12714 0.62734 0.0
C527 C 0.44661 0.14045 0.65702 0.0
H528 H 0.09261 0.17851 0.81772 0.0
H529 H 0.03337 0.23413 0.81047 0.0
H530 H 0.01278 0.21589 0.86457 0.0
H531 H 0.01043 0.18321 0.91207 0.0
H532 H 0.06905 0.12703 0.91957 0.0
H533 H 0.09121 0.1467 0.86755 0.0
C534 C 0.07523 0.18668 0.82804 0.0
C535 C 0.06447 0.20755 0.80984 0.0
C536 C 0.0634 0.17607 0.85926 0.0
C537 C 0.04204 0.218 0.82377 0.0
C538 C 0.03023 0.20761 0.85476 0.0
C539 C 0.02817 0.17535 0.90261 0.0
C540 C 0.03799 0.15361 0.9196 0.0
C541 C 0.0406 0.18651 0.87247 0.0
C542 C 0.06106 0.14377 0.90701 0.0
C543 C 0.07368 0.15493 0.87714 0.0
H544 H 0.99232 0.84357 0.65294 0.0
H545 H 0.91906 0.84866 0.60157 0.0
H546 H 0.90118 0.82214 0.6502 0.0
H547 H 0.90713 0.79438 0.70336 0.0
H548 H 0.98069 0.78715 0.75326 0.0
H549 H -0.00239 0.81796 0.70936 0.0
C550 C 0.97236 0.83922 0.65273 0.0
C551 C 0.95706 0.84792 0.62356 0.0
C552 C 0.96231 0.82345 0.68032 0.0
C553 C 0.93126 0.84203 0.62357 0.0
C554 C 0.92103 0.82685 0.65134 0.0
C555 C 0.92681 0.79973 0.70502 0.0
C556 C 0.94268 0.78825 0.7313 0.0
C557 C 0.9365 0.81695 0.67925 0.0
C558 C 0.96809 0.79557 0.73314 0.0
C559 C 0.9778 0.81314 0.70798 0.0
H560 H 0.93054 0.11151 0.37077 0.0
H561 H 0.91466 0.15869 0.46523 0.0
H562 H 0.87764 0.17587 0.43369 0.0
H563 H 0.85458 0.18251 0.37536 0.0
H564 H 0.87176 0.136 0.28042 0.0
H565 H 0.90309 0.11309 0.31643 0.0
C566 C 0.91868 0.12522 0.38469 0.0
C567 C 0.92553 0.13427 0.41983 0.0
C568 C 0.89777 0.13523 0.36623 0.0
C569 C 0.90981 0.1516 0.43801 0.0
C570 C 0.88874 0.16152 0.41991 0.0
C571 C 0.8647 0.16694 0.36281 0.0
C572 C 0.86129 0.16139 0.325 0.0
C573 C 0.8832 0.15424 0.3834 0.0
C574 C 0.87433 0.14094 0.30931 0.0
C575 C 0.89235 0.12789 0.32982 0.0
H576 H 0.56152 0.17542 0.11216 0.0
H577 H 0.49088 0.1698 0.171 0.0
H578 H 0.50464 0.20223 0.21443 0.0
H579 H 0.53545 0.2346 0.23266 0.0
H580 H 0.60605 0.23982 0.17343 0.0
H581 H 0.59359 0.20511 0.1335 0.0
C582 C 0.54922 0.18109 0.1347 0.0
C583 C 0.52513 0.17037 0.13807 0.0
C584 C 0.55716 0.19984 0.15944 0.0
C585 C 0.50952 0.17778 0.16767 0.0
C586 C 0.51732 0.19642 0.19247 0.0
C587 C 0.5482 0.22799 0.21125 0.0
C588 C 0.57151 0.24003 0.20586 0.0
C589 C 0.5409 0.20796 0.18815 0.0
C590 C 0.5879 0.23105 0.17815 0.0
C591 C 0.5808 0.21118 0.15518 0.0
H592 H 0.58291 0.89233 0.89579 0.0
H593 H 0.5755 0.83937 0.98614 0.0
H594 H 0.60544 0.81108 0.95596 0.0
H595 H 0.629 0.79895 0.90012 0.0
H596 H 0.63435 0.85111 0.80843 0.0
H597 H 0.61013 0.8822 0.84314 0.0
C598 C 0.58817 0.87482 0.90926 0.0
C599 C 0.57667 0.86781 0.94287 0.0
C600 C 0.60482 0.85833 0.89129 0.0
C601 C 0.58388 0.84512 0.96006 0.0
C602 C 0.60093 0.82887 0.94275 0.0
C603 C 0.62526 0.81728 0.88798 0.0
C604 C 0.63315 0.82255 0.85154 0.0
C605 C 0.61079 0.83488 0.90774 0.0
C606 C 0.62824 0.84644 0.83628 0.0
C607 C 0.61435 0.86425 0.85608 0.0
H608 H 0.88623 0.13798 0.84353 0.0
H609 H 0.9376 0.1372 0.75074 0.0
H610 H 0.9668 0.11071 0.7858 0.0
H611 H 0.98076 0.09459 0.84642 0.0
H612 H 0.92971 0.09718 0.9397 0.0
H613 H 0.89724 0.11577 0.90066 0.0
C614 C 0.90357 0.13155 0.8307 0.0
C615 C 0.91002 0.13995 0.79497 0.0
C616 C 0.92048 0.11689 0.85128 0.0
C617 C 0.93229 0.13112 0.77835 0.0
C618 C 0.94909 0.11613 0.79849 0.0
C619 C 0.96232 0.09862 0.85799 0.0
C620 C 0.95786 0.09505 0.8961 0.0
C621 C 0.94387 0.10991 0.83556 0.0
C622 C 0.93379 0.10014 0.91057 0.0
C623 C 0.9152 0.11085 0.8883 0.0
H624 H 0.612 0.19354 0.58086 0.0
H625 H 0.57071 0.15941 0.67124 0.0
H626 H 0.54428 0.13694 0.62726 0.0
H627 H 0.53105 0.12915 0.56387 0.0
H628 H 0.57107 0.16345 0.47259 0.0
H629 H 0.60017 0.18341 0.51634 0.0
C630 C 0.59737 0.18101 0.59092 0.0
C631 C 0.59321 0.17837 0.62932 0.0
C632 C 0.58202 0.16823 0.5654 0.0
C633 C 0.57424 0.16196 0.64188 0.0
C634 C 0.55909 0.14908 0.61676 0.0
C635 C 0.54622 0.14087 0.55339 0.0
C636 C 0.54872 0.14506 0.51505 0.0
C637 C 0.56253 0.15244 0.57855 0.0
C638 C 0.56871 0.15998 0.502 0.0
C639 C 0.58526 0.17148 0.52701 0.0
H640 H 0.6226 0.75716 0.33009 0.0
H641 H 0.57731 0.77231 0.23341 0.0
H642 H 0.5621 0.81147 0.26169 0.0
H643 H 0.55863 0.83891 0.31667 0.0
H644 H 0.60461 0.8232 0.41275 0.0
H645 H 0.62293 0.78694 0.38157 0.0
C646 C 0.60954 0.76915 0.31509 0.0
C647 C 0.60072 0.76175 0.28008 0.0
C648 C 0.601 0.79148 0.3314 0.0
C649 C 0.58424 0.77763 0.26054 0.0
C650 C 0.5755 0.79994 0.27673 0.0
C651 C 0.57296 0.82781 0.33055 0.0
C652 C 0.57989 0.83354 0.36725 0.0
C653 C 0.58331 0.80673 0.31256 0.0
C654 C 0.59868 0.81909 0.38467 0.0
C655 C 0.60914 0.79826 0.36693 0.0
H656 H 0.87401 0.78769 0.09542 0.0
H657 H 0.86315 0.85096 0.16878 0.0
H658 H 0.89454 0.87512 0.13417 0.0
H659 H 0.92928 0.87579 0.08929 0.0
H660 H 0.94236 0.8111 0.0194 0.0
H661 H 0.90577 0.79003 0.0463 0.0
C662 C 0.87803 0.80698 0.10331 0.0
C663 C 0.86645 0.81744 0.13484 0.0
C664 C 0.89682 0.82035 0.08428 0.0
C665 C 0.87195 0.84244 0.14475 0.0
C666 C 0.88999 0.8562 0.1251 0.0
C667 C 0.92388 0.85726 0.07947 0.0
C668 C 0.93873 0.84488 0.05278 0.0
C669 C 0.90326 0.84497 0.0958 0.0
C670 C 0.93142 0.82091 0.04027 0.0
C671 C 0.9105 0.80884 0.05564 0.0
H672 H 0.54218 0.65234 0.8194 0.0
H673 H 0.58057 0.66928 0.92191 0.0
H674 H 0.60986 0.69655 0.8888 0.0
H675 H 0.62307 0.71754 0.83168 0.0
H676 H 0.58489 0.70112 0.72891 0.0
H677 H 0.5572 0.67152 0.7612 0.0
C678 C 0.55707 0.66184 0.83445 0.0
C679 C 0.559 0.6589 0.87314 0.0
C680 C 0.57386 0.67765 0.81525 0.0
C681 C 0.57853 0.67125 0.89216 0.0
C682 C 0.5953 0.68691 0.87327 0.0
C683 C 0.60881 0.70738 0.81623 0.0
C684 C 0.60593 0.71171 0.77799 0.0
C685 C 0.59289 0.69055 0.83495 0.0
C686 C 0.58749 0.6982 0.75839 0.0
C687 C 0.57159 0.68132 0.77685 0.0
H688 H 0.59977 0.31346 0.09442 0.0
H689 H 0.57526 0.36869 0.1746 0.0
H690 H 0.54547 0.3859 0.12981 0.0
H691 H 0.52303 0.382 0.07101 0.0
H692 H 0.54622 0.32586 0.99143 0.0
H693 H 0.58012 0.31246 0.03281 0.0
C694 C 0.58825 0.32955 0.10191 0.0
C695 C 0.5895 0.33954 0.13799 0.0
C696 C 0.57074 0.33902 0.07629 0.0
C697 C 0.57452 0.36049 0.14713 0.0
C698 C 0.55741 0.3703 0.12158 0.0
C699 C 0.53566 0.36701 0.06247 0.0
C700 C 0.53184 0.35467 0.02844 0.0
C701 C 0.5548 0.35917 0.08657 0.0
C702 C 0.54861 0.33555 0.0176 0.0
C703 C 0.56796 0.32783 0.0413 0.0
H704 H 0.86712 0.25736 0.32577 0.0
H705 H 0.91321 0.28972 0.23921 0.0
H706 H 0.935 0.31564 0.28507 0.0
H707 H 0.94283 0.32687 0.35019 0.0
H708 H 0.89724 0.29341 0.43647 0.0
H709 H 0.87327 0.27025 0.39006 0.0
C710 C 0.8818 0.27021 0.31679 0.0
C711 C 0.88865 0.27144 0.27912 0.0
C712 C 0.89441 0.28479 0.34327 0.0
C713 C 0.90762 0.28832 0.26804 0.0
C714 C 0.92012 0.30312 0.29426 0.0
C715 C 0.92748 0.31473 0.35884 0.0
C716 C 0.92197 0.31176 0.3968 0.0
C717 C 0.91395 0.30118 0.33202 0.0
C718 C 0.90199 0.29595 0.40748 0.0
C719 C 0.88828 0.28266 0.38096 0.0
H720 H 0.92531 0.65788 0.71251 0.0
H721 H 0.9032 0.70873 0.62482 0.0
H722 H 0.92305 0.68136 0.57902 0.0
H723 H 0.94948 0.64473 0.56438 0.0
H724 H 0.97185 0.5941 0.65225 0.0
H725 H 0.94885 0.61949 0.69724 0.0
C726 C 0.92465 0.66288 0.68335 0.0
C727 C 0.91301 0.68546 0.6722 0.0
C728 C 0.9362 0.64712 0.65712 0.0
C729 C 0.91213 0.69153 0.63425 0.0
C730 C 0.92352 0.6759 0.60798 0.0
C731 C 0.94907 0.63905 0.59328 0.0
C732 C 0.96259 0.61767 0.60489 0.0
C733 C 0.93602 0.6539 0.61918 0.0
C734 C 0.96172 0.61053 0.64248 0.0
C735 C 0.94863 0.6251 0.66832 0.0
H736 H 0.57296 0.35355 0.61435 0.0
H737 H 0.51814 0.37044 0.69931 0.0
H738 H 0.53715 0.33891 0.73997 0.0
H739 H 0.56607 0.30311 0.74831 0.0
H740 H 0.61955 0.28531 0.66188 0.0
H741 H 0.60443 0.32075 0.6251 0.0
C742 C 0.56539 0.35066 0.64198 0.0
C743 C 0.54394 0.36411 0.65354 0.0
C744 C 0.57602 0.33212 0.66487 0.0
C745 C 0.53452 0.36022 0.68956 0.0
C746 C 0.54532 0.3421 0.71281 0.0
C747 C 0.57469 0.30723 0.72171 0.0
C748 C 0.59368 0.29135 0.70769 0.0
C749 C 0.56557 0.32739 0.70029 0.0
C750 C 0.60471 0.29703 0.67319 0.0
C751 C 0.59607 0.3173 0.65208 0.0
H752 H 0.95914 0.31232 0.92933 0.0
H753 H 0.9601 0.36745 0.84123 0.0
H754 H 0.9285 0.34335 0.80728 0.0
H755 H 0.90343 0.30492 0.80021 0.0
H756 H 0.90449 0.24848 0.8865 0.0
H757 H 0.93235 0.27488 0.92369 0.0
C758 C 0.95215 0.31925 0.90297 0.0
C759 C 0.962 0.34157 0.88775 0.0
C760 C 0.9345 0.30497 0.88315 0.0
C761 C 0.9529 0.35023 0.85344 0.0
C762 C 0.93486 0.33646 0.83398 0.0
C763 C 0.90947 0.29854 0.82737 0.0
C764 C 0.90201 0.27474 0.8405 0.0
C765 C 0.92595 0.31353 0.8482 0.0
C766 C 0.91011 0.26668 0.87566 0.0
C767 C 0.92605 0.28175 0.89694 0.0
H768 H 0.91734 0.65402 0.10774 0.0
H769 H 0.92683 0.60781 0.20532 0.0
H770 H 0.90386 0.63892 0.24235 0.0
H771 H 0.88383 0.68081 0.2476 0.0
H772 H 0.87724 0.72747 0.14981 0.0
H773 H 0.89653 0.69463 0.11239 0.0
C774 C 0.91412 0.6505 0.13701 0.0
C775 C 0.92383 0.62864 0.15376 0.0
C776 C 0.90172 0.66875 0.15822 0.0
C777 C 0.91956 0.62452 0.19177 0.0
C778 C 0.90655 0.64235 0.21298 0.0
C779 C 0.88652 0.6837 0.21809 0.0
C780 C 0.87927 0.70663 0.20163 0.0
C781 C 0.89802 0.66481 0.19663 0.0
C782 C 0.88287 0.71012 0.16332 0.0
C783 C 0.89382 0.69131 0.14179 0.0
H784 H 0.57803 0.68965 0.40701 0.0
H785 H 0.59141 0.62103 0.34594 0.0
H786 H 0.55645 0.60067 0.37828 0.0
H787 H 0.51924 0.604 0.41835 0.0
H788 H 0.50464 0.67343 0.47687 0.0
H789 H 0.54301 0.69177 0.45114 0.0
C790 C 0.57364 0.67009 0.40126 0.0
C791 C 0.58716 0.65696 0.37383 0.0
C792 C 0.55306 0.65875 0.41912 0.0
C793 C 0.58118 0.63162 0.36674 0.0
C794 C 0.56112 0.62 0.3851 0.0
C795 C 0.52458 0.62304 0.42585 0.0
C796 C 0.5089 0.63742 0.44911 0.0
C797 C 0.54644 0.63365 0.41044 0.0
C798 C 0.51622 0.66202 0.45871 0.0
C799 C 0.53817 0.67254 0.44402 0.0
H800 H 0.44393 0.36579 0.14488 0.0
H801 H 0.39127 0.34866 0.05724 0.0
H802 H 0.36656 0.32294 0.09983 0.0
H803 H 0.36226 0.30202 0.15959 0.0
H804 H 0.4155 0.31723 0.24711 0.0
H805 H 0.43737 0.34745 0.20704 0.0
C806 C 0.42685 0.35673 0.13523 0.0
C807 C 0.41963 0.35892 0.09779 0.0
C808 C 0.4129 0.34157 0.15976 0.0
C809 C 0.39739 0.34712 0.0858 0.0
C810 C 0.38324 0.33238 0.11013 0.0
C811 C 0.3785 0.31212 0.17016 0.0
C812 C 0.38745 0.30711 0.20612 0.0
C813 C 0.39121 0.32895 0.14682 0.0
C814 C 0.40827 0.32066 0.21949 0.0
C815 C 0.42086 0.33783 0.19651 0.0
H816 H 0.44591 0.64624 0.89794 0.0
H817 H 0.43221 0.68096 0.00414 0.0
H818 H 0.39951 0.70758 0.9766 0.0
H819 H 0.37802 0.72381 0.92085 0.0
H820 H 0.39208 0.68837 0.81501 0.0
H821 H 0.42119 0.65903 0.84407 0.0
C822 C 0.43557 0.65946 0.91513 0.0
C823 C 0.44165 0.66193 0.95281 0.0
C824 C 0.41695 0.67466 0.89916 0.0
C825 C 0.42787 0.67879 0.97498 0.0
C826 C 0.40927 0.69408 0.95922 0.0
C827 C 0.38717 0.70944 0.90426 0.0
C828 C 0.38315 0.7086 0.86572 0.0
C829 C 0.40411 0.69262 0.92111 0.0
C830 C 0.39497 0.68966 0.84468 0.0
C831 C 0.41171 0.67287 0.86123 0.0
H832 H 0.11918 0.65955 0.6974 0.0
H833 H 0.06286 0.65639 0.7837 0.0
H834 H 0.04587 0.61765 0.75704 0.0
H835 H 0.04216 0.5899 0.70281 0.0
H836 H 0.09678 0.59541 0.61434 0.0
H837 H 0.11956 0.62774 0.6486 0.0
C838 C 0.10349 0.65012 0.71084 0.0
C839 C 0.09189 0.66114 0.74191 0.0
C840 C 0.09335 0.62841 0.6947 0.0
C841 C 0.07196 0.64843 0.75951 0.0
C842 C 0.06214 0.62636 0.74412 0.0
C843 C 0.05944 0.59766 0.69148 0.0
C844 C 0.0675 0.59066 0.65576 0.0
C845 C 0.07193 0.61692 0.71072 0.0
C846 C 0.08999 0.60078 0.64156 0.0
C847 C 0.10297 0.61933 0.66106 0.0
H848 H 0.01697 0.34134 0.4132 0.0
H849 H 0.06355 0.30052 0.49064 0.0
H850 H 0.09521 0.29381 0.44206 0.0
H851 H 0.10745 0.29626 0.37611 0.0
H852 H 0.06028 0.33738 0.29947 0.0
H853 H 0.03119 0.34756 0.34948 0.0
C854 C 0.03414 0.3311 0.41953 0.0
C855 C 0.0378 0.32107 0.4552 0.0
C856 C 0.0521 0.32736 0.39163 0.0
C857 C 0.06031 0.30831 0.46328 0.0
C858 C 0.07834 0.30442 0.4355 0.0
C859 C 0.09102 0.30777 0.37045 0.0
C860 C 0.0859 0.31572 0.33394 0.0
C861 C 0.07415 0.31339 0.39935 0.0
C862 C 0.06461 0.33082 0.32719 0.0
C863 C 0.04788 0.33659 0.35576 0.0
H864 H 0.42946 0.66345 0.34844 0.0
H865 H 0.36725 0.65552 0.42482 0.0
H866 H 0.34209 0.68443 0.38748 0.0
H867 H 0.33969 0.71582 0.33781 0.0
H868 H 0.40259 0.7253 0.26305 0.0
H869 H 0.42537 0.69168 0.29484 0.0
C870 C 0.41025 0.66768 0.35658 0.0
C871 C 0.4004 0.65761 0.38966 0.0
C872 C 0.39607 0.6848 0.33547 0.0
C873 C 0.37541 0.66322 0.39969 0.0
C874 C 0.361 0.6798 0.37841 0.0
C875 C 0.35822 0.7103 0.32807 0.0
C876 C 0.36955 0.72334 0.29846 0.0
C877 C 0.37145 0.69134 0.34696 0.0
C878 C 0.39351 0.71576 0.28603 0.0
C879 C 0.40659 0.69657 0.30425 0.0
H880 H 0.072 0.63623 0.08415 0.0
H881 H 0.02014 0.61012 0.16828 0.0
H882 H 0.0475 0.62648 0.21659 0.0
H883 H 0.08335 0.65235 0.23466 0.0
H884 H 0.13509 0.67951 0.15134 0.0
H885 H 0.11084 0.65814 0.10311 0.0
C886 C 0.06687 0.6338 0.11306 0.0
C887 C 0.04383 0.62238 0.1225 0.0
C888 C 0.0826 0.64353 0.14087 0.0
C889 C 0.0376 0.61914 0.16014 0.0
C890 C 0.05323 0.6285 0.18786 0.0
C891 C 0.08954 0.65331 0.206 0.0
C892 C 0.11071 0.66779 0.19649 0.0
C893 C 0.07533 0.64139 0.17849 0.0
C894 C 0.11876 0.66854 0.15936 0.0
C895 C 0.10481 0.65646 0.13174 0.0
H896 H 0.11839 0.30326 0.749 0.0
H897 H 0.05742 0.30727 0.67035 0.0
H898 H 0.04 0.34377 0.70302 0.0
H899 H 0.03808 0.36884 0.76041 0.0
H900 H 0.09835 0.36288 0.84029 0.0
H901 H 0.12034 0.33318 0.80027 0.0
C902 C 0.10159 0.31252 0.73855 0.0
C903 C 0.08888 0.3024 0.7079 0.0
C904 C 0.09143 0.33294 0.75795 0.0
C905 C 0.06744 0.31471 0.69407 0.0
C906 C 0.05738 0.33543 0.71293 0.0
C907 C 0.05634 0.36156 0.76862 0.0
C908 C 0.06627 0.36756 0.80369 0.0
C909 C 0.06858 0.3439 0.74591 0.0
C910 C 0.09008 0.3582 0.81373 0.0
C911 C 0.10264 0.34114 0.79093 0.0
H912 H 0.44445 0.36599 0.60758 0.0
H913 H 0.44326 0.32323 0.50582 0.0
H914 H 0.41071 0.29571 0.53147 0.0
H915 H 0.3858 0.28133 0.58498 0.0
H916 H 0.38815 0.32366 0.68713 0.0
H917 H 0.41685 0.35394 0.65889 0.0
C918 C 0.43691 0.35082 0.5908 0.0
C919 C 0.44653 0.34648 0.55502 0.0
C920 C 0.41848 0.33489 0.60586 0.0
C921 C 0.43631 0.32691 0.53355 0.0
C922 C 0.41774 0.31111 0.54823 0.0
C923 C 0.39228 0.29738 0.60091 0.0
C924 C 0.38504 0.30003 0.63825 0.0
C925 C 0.40915 0.31455 0.58469 0.0
C926 C 0.39355 0.32102 0.65842 0.0
C927 C 0.41004 0.33834 0.64233 0.0
H928 H 0.26864 0.2393 0.19597 0.0
H929 H 0.27326 0.28537 0.29429 0.0
H930 H 0.22852 0.29568 0.28882 0.0
H931 H 0.18823 0.29168 0.25591 0.0
H932 H 0.18415 0.24603 0.15703 0.0
H933 H 0.22871 0.23567 0.16284 0.0
C934 C 0.25986 0.25148 0.21637 0.0
C935 C 0.27423 0.26147 0.24559 0.0
C936 C 0.2343 0.25756 0.21281 0.0
C937 C 0.2626 0.27741 0.27156 0.0
C938 C 0.23704 0.28335 0.26841 0.0
C939 C 0.19711 0.27956 0.23552 0.0
C940 C 0.18286 0.26965 0.20608 0.0
C941 C 0.22275 0.27361 0.23906 0.0
C942 C 0.19466 0.25394 0.17996 0.0
C943 C 0.22013 0.24793 0.18329 0.0
H944 H 0.01644 0.95254 0.44558 0.0
H945 H 0.96001 0.9548 0.53193 0.0
H946 H 0.95967 0.00068 0.52937 0.0
H947 H 0.97465 0.04003 0.50191 0.0
H948 H 0.03051 0.03805 0.41481 0.0
H949 H 0.0319 0.99212 0.41859 0.0
C950 C 0.0041 0.96306 0.46388 0.0
C951 C 0.98824 0.95025 0.48881 0.0
C952 C 0.0039 0.98947 0.4622 0.0
C953 C 0.97236 0.96418 0.51237 0.0
C954 C 0.97216 0.99043 0.51098 0.0
C955 C 0.98724 0.02959 0.48386 0.0
C956 C 0.00242 0.04243 0.4581 0.0
C957 C 0.98776 0.00324 0.48591 0.0
C958 C 0.01858 0.0286 0.43486 0.0
C959 C 0.01937 0.00234 0.43697 0.0
H960 H 0.27511 0.74676 0.79928 0.0
H961 H 0.27708 0.78368 0.69252 0.0
H962 H 0.23138 0.77956 0.68738 0.0
H963 H 0.19112 0.76439 0.71244 0.0
H964 H 0.18944 0.72741 0.8192 0.0
H965 H 0.23488 0.73278 0.82509 0.0
C966 C 0.26558 0.75397 0.77488 0.0
C967 C 0.27951 0.76539 0.74624 0.0
C968 C 0.23937 0.75152 0.77208 0.0
C969 C 0.26681 0.77476 0.71494 0.0
C970 C 0.24068 0.77239 0.71196 0.0
C971 C 0.20066 0.75758 0.73707 0.0
C972 C 0.18691 0.74541 0.76525 0.0
C973 C 0.22681 0.76065 0.74025 0.0
C974 C 0.19957 0.7368 0.79704 0.0
C975 C 0.22556 0.73982 0.80043 0.0
H976 H 0.53026 0.05248 0.05447 0.0
H977 H 0.49055 0.05605 0.95011 0.0
H978 H 0.4913 0.01029 0.94571 0.0
H979 H 0.50212 0.96933 0.97195 0.0
H980 H 0.54178 0.9651 0.07621 0.0
H981 H 0.54216 0.01111 0.08011 0.0
C982 C 0.52188 0.04325 0.03069 0.0
C983 C 0.51029 0.0577 0.00274 0.0
C984 C 0.52226 0.01683 0.02835 0.0
C985 C 0.49954 0.04543 0.97208 0.0
C986 C 0.49992 0.01923 0.96953 0.0
C987 C 0.51087 0.97842 0.99557 0.0
C988 C 0.52179 0.96378 0.02384 0.0
C989 C 0.51103 0.00476 -0.00238 0.0
C990 C 0.53319 0.97592 0.05409 0.0
C991 C 0.53341 0.00222 0.05635 0.0
H992 H 0.19448 0.78778 0.29028 0.0
H993 H 0.19737 0.70861 0.26295 0.0
H994 H 0.24082 0.71314 0.24234 0.0
H995 H 0.27805 0.73932 0.23215 0.0
H996 H 0.27617 0.81812 0.26125 0.0
H997 H 0.23217 0.81403 0.28067 0.0
C998 C 0.20464 0.7715 0.27997 0.0
C999 C 0.19264 0.7479 0.27825 0.0
C1000 C 0.22974 0.77419 0.26815 0.0
C1001 C 0.20612 0.72699 0.26477 0.0
C1002 C 0.23097 0.72956 0.25279 0.0
C1003 C 0.26795 0.75568 0.24237 0.0
C1004 C 0.28027 0.77902 0.245 0.0
C1005 C 0.24292 0.75306 0.25422 0.0
C1006 C 0.26705 0.79995 0.25887 0.0
C1007 C 0.24193 0.7976 0.27008 0.0
H1008 H 0.49037 0.94983 0.49206 0.0
H1009 H 0.56441 0.95341 0.44272 0.0
H1010 H 0.56007 -0.00101 0.43498 0.0
H1011 H 0.53547 0.03785 0.44326 0.0
H1012 H 0.46116 0.03376 0.49186 0.0
H1013 H 0.46536 0.98825 0.4985 0.0
C1014 C 0.50562 0.96057 0.47972 0.0
C1015 C 0.52775 0.94829 0.46825 0.0
C1016 C 0.5029 0.98664 0.47504 0.0
C1017 C 0.54719 0.96244 0.45189 0.0
C1018 C 0.54472 0.98849 0.44742 0.0
C1019 C 0.52013 0.027 0.45511 0.0
C1020 C 0.49808 0.03924 0.46715 0.0
C1021 C 0.52267 0.00079 0.45898 0.0
C1022 C 0.47836 0.02486 0.48236 0.0
C1023 C 0.48075 -0.00118 0.4863 0.0
H1024 H 0.19132 0.20854 0.74281 0.0
H1025 H 0.19288 0.2614 0.65164 0.0
H1026 H 0.23833 0.26591 0.65841 0.0
H1027 H 0.27741 0.25554 0.69074 0.0
H1028 H 0.27632 0.20231 0.78136 0.0
H1029 H 0.23078 0.19739 0.77437 0.0
C1030 C 0.20161 0.22095 0.72429 0.0
C1031 C 0.18869 0.23465 0.69681 0.0
C1032 C 0.22776 0.22354 0.72839 0.0
C1033 C 0.20233 0.25062 0.67302 0.0
C1034 C 0.22832 0.25329 0.67693 0.0
C1035 C 0.26722 0.24293 0.7091 0.0
C1036 C 0.2802 0.22943 0.73668 0.0
C1037 C 0.24118 0.24 0.70468 0.0
C1038 C 0.26675 0.21297 0.75995 0.0
C1039 C 0.24073 0.21012 0.75594 0.0
H1040 H 0.00921 0.02098 0.02531 0.0
H1041 H 0.07575 0.02772 0.95706 0.0
H1042 H 0.08153 0.98204 0.95903 0.0
H1043 H 0.06603 0.93999 0.97682 0.0
H1044 H -0.00155 0.93375 0.04305 0.0
H1045 H -0.0052 0.97946 0.04512 0.0
C1046 C 0.02516 0.01254 0.01118 0.0
C1047 C 0.04195 0.02775 0.99093 0.0
C1048 C 0.02807 0.9863 0.01178 0.0
C1049 C 0.06248 0.01644 0.97275 0.0
C1050 C 0.06577 0.99031 0.97378 0.0
C1051 C 0.05061 0.94864 0.99192 0.0
C1052 C 0.03246 0.93345 0.00952 0.0
C1053 C 0.04841 0.97502 0.99265 0.0
C1054 C 0.01259 0.94496 0.02899 0.0
C1055 C 0.01048 0.97113 0.03026 0.0
H1056 H 0.81423 0.71766 0.75147 0.0
H1057 H 0.82086 0.79018 0.80476 0.0
H1058 H 0.77554 0.79661 0.79899 0.0
H1059 H 0.73419 0.78188 0.77855 0.0
H1060 H 0.72728 0.70936 0.72542 0.0
H1061 H 0.77265 0.70276 0.73134 0.0
C1062 C 0.80577 0.73485 0.76192 0.0
C1063 C 0.82095 0.75341 0.77852 0.0
C1064 C 0.77969 0.73848 0.75844 0.0
C1065 C 0.80965 0.77557 0.79187 0.0
C1066 C 0.78373 0.7793 0.78855 0.0
C1067 C 0.74257 0.76463 0.76816 0.0
C1068 C 0.72735 0.74617 0.75149 0.0
C1069 C 0.7686 0.76092 0.77178 0.0
C1070 C 0.73855 0.7239 0.73835 0.0
C1071 C 0.7645 0.7201 0.74174 0.0
H1072 H 0.68313 0.23941 0.24774 0.0
H1073 H 0.69606 0.31957 0.24064 0.0
H1074 H 0.74117 0.31213 0.23204 0.0
H1075 H 0.77684 0.28279 0.22696 0.0
H1076 H 0.76336 0.20262 0.23301 0.0
H1077 H 0.71843 0.21021 0.24122 0.0
C1078 C 0.69581 0.25529 0.24452 0.0
C1079 C 0.6863 0.28001 0.24509 0.0
C1080 C 0.72157 0.25088 0.23912 0.0
C1081 C 0.70294 0.30035 0.2404 0.0
C1082 C 0.72871 0.29611 0.23542 0.0
C1083 C 0.76407 0.26697 0.22986 0.0
C1084 C 0.77349 0.24219 0.22944 0.0
C1085 C 0.73822 0.27144 0.23469 0.0
C1086 C 0.75665 0.2219 0.23321 0.0
C1087 C 0.73094 0.2262 0.23804 0.0
H1088 H 0.70572 0.22781 0.80298 0.0
H1089 H 0.69574 0.19075 0.69748 0.0
H1090 H 0.74096 0.18321 0.69336 0.0
H1091 H 0.78346 0.18799 0.7189 0.0
H1092 H 0.79346 0.22532 0.82418 0.0
H1093 H 0.74811 0.23179 0.82915 0.0
C1094 C 0.71341 0.21803 0.77912 0.0
C1095 C 0.69736 0.20995 0.75056 0.0
C1096 C 0.73946 0.21381 0.77682 0.0
C1097 C 0.70766 0.19724 0.71987 0.0
C1098 C 0.73354 0.19291 0.71745 0.0
C1099 C 0.77573 0.19746 0.743 0.0
C1100 C 0.79186 0.20621 0.77103 0.0
C1101 C 0.74963 0.20124 0.74565 0.0
C1102 C 0.7815 0.21843 0.80211 0.0
C1103 C 0.75555 0.22216 0.80501 0.0
H1104 H 0.77361 0.74725 0.21178 0.0
H1105 H 0.78121 0.73876 0.33031 0.0
H1106 H 0.74092 0.7165 0.33289 0.0
H1107 H 0.7031 0.70047 0.30155 0.0
H1108 H 0.69586 0.7092 0.18296 0.0
H1109 H 0.73678 0.72997 0.1803 0.0
C1110 C 0.76642 0.74066 0.23824 0.0
C1111 C 0.78025 0.74486 0.27086 0.0
C1112 C 0.74347 0.72768 0.23945 0.0
C1113 C 0.77084 0.73587 0.30482 0.0
C1114 C 0.74786 0.72308 0.3063 0.0
C1115 C 0.71063 0.7066 0.27506 0.0
C1116 C 0.69643 0.70335 0.24251 0.0
C1117 C 0.73401 0.71891 0.27378 0.0
C1118 C 0.70638 0.71153 0.20843 0.0
C1119 C 0.72973 0.72352 0.20689 0.0
H1120 H 0.50857 0.45989 0.94693 0.0
H1121 H 0.43396 0.4606 0.99484 0.0
H1122 H 0.43411 0.50656 0.9948 0.0
H1123 H 0.45609 0.54642 0.9838 0.0
H1124 H 0.53091 0.54582 0.93667 0.0
H1125 H 0.52993 0.49988 0.93371 0.0
C1126 C 0.49226 0.47007 0.95712 0.0
C1127 C 0.47135 0.4568 0.97103 0.0
C1128 C 0.49254 0.49651 0.95734 0.0
C1129 C 0.45036 0.47033 0.98409 0.0
C1130 C 0.45043 0.49662 0.98413 0.0
C1131 C 0.47216 0.53628 0.97274 0.0
C1132 C 0.49359 0.54954 0.9607 0.0
C1133 C 0.47153 0.50989 0.97127 0.0
C1134 C 0.5142 0.53608 0.94627 0.0
C1135 C 0.51367 0.5098 0.94456 0.0
H1136 H 0.00983 0.406 0.55467 0.0
H1137 H 0.93543 0.41043 0.50696 0.0
H1138 H 0.93686 0.45643 0.5104 0.0
H1139 H 0.95983 0.49539 0.5254 0.0
H1140 H 0.03481 0.4904 0.57122 0.0
H1141 H 0.03253 0.44459 0.56991 0.0
C1142 C 0.99382 0.41699 0.54528 0.0
C1143 C 0.97255 0.40482 0.53065 0.0
C1144 C -0.00506 0.44334 0.54674 0.0
C1145 C 0.95206 0.41936 0.51833 0.0
C1146 C 0.95287 0.44566 0.52022 0.0
C1147 C 0.97565 0.48428 0.53514 0.0
C1148 C -0.00254 0.49634 0.5483 0.0
C1149 C 0.97432 0.45786 0.53409 0.0
C1150 C 0.01782 0.48165 0.56078 0.0
C1151 C 0.01653 0.45542 0.56014 0.0
H1152 H 0.97988 0.4444 0.995 0.0
H1153 H 0.03591 0.46635 0.91421 0.0
H1154 H 0.03312 0.50992 0.93505 0.0
H1155 H 0.01566 0.54147 0.97697 0.0
H1156 H 0.95964 0.51994 0.05793 0.0
H1157 H 0.96155 0.47638 0.03613 0.0
C1158 C 0.99142 0.45872 0.98186 0.0
C1159 C 0.00814 0.45212 0.95321 0.0
C1160 C 0.98979 0.48374 0.99404 0.0
C1161 C 0.02291 0.47091 0.93639 0.0
C1162 C 0.02136 0.49583 0.94829 0.0
C1163 C 0.00384 0.52728 0.98989 0.0
C1164 C 0.98763 0.53389 0.01913 0.0
C1165 C 0.00502 0.5024 0.97725 0.0
C1166 C 0.97232 0.51531 0.03539 0.0
C1167 C 0.9734 0.49042 0.02296 0.0
H1168 H 0.45078 0.46502 0.50735 0.0
H1169 H 0.51719 0.47534 0.57465 0.0
H1170 H 0.50956 0.52068 0.57638 0.0
H1171 H 0.48473 0.55747 0.55743 0.0
H1172 H 0.4188 0.54721 0.48913 0.0
H1173 H 0.42549 0.50171 0.48944 0.0
C1174 C 0.46359 0.47716 0.52247 0.0
C1175 C 0.48457 0.46678 0.54072 0.0
C1176 C 0.45916 0.50322 0.52324 0.0
C1177 C 0.50093 0.48282 0.56023 0.0
C1178 C 0.49657 0.50876 0.56128 0.0
C1179 C 0.4717 0.54529 0.54284 0.0
C1180 C 0.45131 0.55575 0.52327 0.0
C1181 C 0.47582 0.51917 0.54273 0.0
C1182 C 0.43468 0.53967 0.50438 0.0
C1183 C 0.4385 0.51364 0.50448 0.0
H1184 H 0.05563 0.3627 0.01832 0.0
H1185 H 0.05567 0.29144 0.96072 0.0
H1186 H 0.06815 0.26987 0.0177 0.0
H1187 H 0.07914 0.27128 0.08386 0.0
H1188 H 0.07976 0.34279 0.14085 0.0
H1189 H 0.06689 0.36417 0.08406 0.0
C1190 C 0.05834 0.34244 0.01818 0.0
C1191 C 0.05469 0.32872 0.98529 0.0
C1192 C 0.06563 0.33018 0.05094 0.0
C1193 C 0.05839 0.30249 0.98562 0.0
C1194 C 0.0655 0.29012 0.01821 0.0
C1195 C 0.0764 0.29153 0.08389 0.0
C1196 C 0.08038 0.30538 0.1166 0.0
C1197 C 0.06917 0.30378 0.05104 0.0
C1198 C 0.07687 0.33164 0.11608 0.0
C1199 C 0.06949 0.34391 0.08361 0.0
H1200 H 0.8693 0.79784 0.34779 0.0
H1201 H 0.9333 0.81905 0.28065 0.0
H1202 H 0.95419 0.83646 0.33511 0.0
H1203 H 0.95402 0.84634 0.40154 0.0
H1204 H 0.8899 0.82527 0.46857 0.0
H1205 H 0.8694 0.80712 0.41436 0.0
C1206 C 0.88785 0.8062 0.34506 0.0
C1207 C 0.89968 0.80716 0.31017 0.0
C1208 C 0.89974 0.81626 0.37645 0.0
C1209 C 0.92374 0.81804 0.30716 0.0
C1210 C 0.93571 0.82804 0.33829 0.0
C1211 C 0.93558 0.83775 0.40433 0.0
C1212 C 0.9235 0.83726 0.43907 0.0
C1213 C 0.92384 0.82736 0.37303 0.0
C1214 C 0.89962 0.826 0.44216 0.0
C1215 C 0.88786 0.81559 0.41117 0.0
H1216 H 0.37124 0.72281 0.67349 0.0
H1217 H 0.44555 0.74029 0.71434 0.0
H1218 H 0.46445 0.71661 0.66324 0.0
H1219 H 0.45974 0.68928 0.6087 0.0
H1220 H 0.38521 0.67009 0.57015 0.0
H1221 H 0.36655 0.69593 0.6188 0.0
C1222 C 0.39158 0.72175 0.6709 0.0
C1223 C 0.40699 0.73338 0.6975 0.0
C1224 C 0.40227 0.70751 0.64216 0.0
C1225 C 0.4333 0.73151 0.69413 0.0
C1226 C 0.44411 0.7179 0.66502 0.0
C1227 C 0.43942 0.69077 0.61091 0.0
C1228 C 0.42393 0.67769 0.58588 0.0
C1229 C 0.42876 0.7055 0.63921 0.0
C1230 C 0.39761 0.67981 0.58919 0.0
C1231 C 0.38689 0.69467 0.61692 0.0
H1232 H 0.6062 0.19604 0.84565 0.0
H1233 H 0.53137 0.19673 0.7989 0.0
H1234 H 0.51398 0.18188 0.85768 0.0
H1235 H 0.52016 0.16724 0.92166 0.0
H1236 H 0.59511 0.16607 0.96802 0.0
H1237 H 0.61223 0.18259 0.91009 0.0
C1238 C 0.58606 0.19308 0.84834 0.0
C1239 C 0.57015 0.19741 0.81782 0.0
C1240 C 0.57619 0.18435 0.88213 0.0
C1241 C 0.54409 0.19349 0.82187 0.0
C1242 C 0.53411 0.18496 0.85548 0.0
C1243 C 0.54023 0.17068 0.91916 0.0
C1244 C 0.55632 0.1653 0.94913 0.0
C1245 C 0.55001 0.18008 0.88568 0.0
C1246 C 0.58227 0.16994 0.94539 0.0
C1247 C 0.59211 0.1794 0.91225 0.0
H1248 H 0.07004 0.65153 0.50445 0.0
H1249 H 0.02209 0.59978 0.4451 0.0
H1250 H 0.03168 0.62143 0.38694 0.0
H1251 H 0.05449 0.65427 0.35279 0.0
H1252 H 0.10369 0.70505 0.41168 0.0
H1253 H 0.09266 0.68459 0.47029 0.0
C1254 C 0.06158 0.64503 0.47883 0.0
C1255 C 0.04537 0.62403 0.47916 0.0
C1256 C 0.06741 0.65738 0.44543 0.0
C1257 C 0.0347 0.61582 0.44565 0.0
C1258 C 0.04015 0.62821 0.41238 0.0
C1259 C 0.06269 0.66101 0.37846 0.0
C1260 C 0.07988 0.6812 0.37784 0.0
C1261 C 0.05659 0.64891 0.41192 0.0
C1262 C 0.09046 0.68953 0.41135 0.0
C1263 C 0.08417 0.67783 0.44487 0.0
H1264 H 0.56956 0.80989 0.69419 0.0
H1265 H 0.64197 0.80109 0.64103 0.0
H1266 H 0.62508 0.81908 0.58389 0.0
H1267 H 0.59002 0.83773 0.54934 0.0
H1268 H 0.51737 0.84592 0.60195 0.0
H1269 H 0.53419 0.8278 0.65914 0.0
C1270 C 0.58166 0.81185 0.6701 0.0
C1271 C 0.60702 0.80422 0.67195 0.0
C1272 C 0.57183 0.82219 0.63732 0.0
C1273 C 0.62238 0.8068 0.6404 0.0
C1274 C 0.61276 0.81714 0.60772 0.0
C1275 C 0.57785 0.83565 0.57333 0.0
C1276 C 0.5525 0.8433 0.57142 0.0
C1277 C 0.58756 0.82502 0.60595 0.0
C1278 C 0.53696 0.84023 0.60268 0.0
C1279 C 0.54656 0.82985 0.63539 0.0
H1280 H 0.42946 0.29772 0.78886 0.0
H1281 H 0.37586 0.24964 0.84462 0.0
H1282 H 0.38799 0.26767 0.90438 0.0
H1283 H 0.41173 0.29912 0.94009 0.0
H1284 H 0.46342 0.34882 0.88341 0.0
H1285 H 0.45412 0.32807 0.82463 0.0
C1286 C 0.42064 0.29092 0.81411 0.0
C1287 C 0.40176 0.27238 0.8123 0.0
C1288 C 0.4272 0.30184 0.84815 0.0
C1289 C 0.39039 0.26395 0.84527 0.0
C1290 C 0.39728 0.27429 0.87942 0.0
C1291 C 0.42113 0.30527 0.91493 0.0
C1292 C 0.43816 0.32557 0.9161 0.0
C1293 C 0.41532 0.29357 0.8811 0.0
C1294 C 0.45009 0.33337 0.88323 0.0
C1295 C 0.44481 0.32149 0.84961 0.0
H1296 H 0.93275 0.17194 0.1871 0.0
H1297 H 0.8726 0.19878 0.11683 0.0
H1298 H 0.89431 0.18217 0.06239 0.0
H1299 H 0.92913 0.15832 0.03522 0.0
H1300 H 0.98897 0.13058 0.10526 0.0
H1301 H 0.96858 0.14941 0.15941 0.0
C1302 C 0.92446 0.17434 0.15986 0.0
C1303 C 0.901 0.18649 0.1561 0.0
C1304 C 0.9369 0.16449 0.1287 0.0
C1305 C 0.89057 0.18944 0.12056 0.0
C1306 C 0.90296 0.17991 0.08941 0.0
C1307 C 0.93784 0.15645 0.06228 0.0
C1308 C 0.96049 0.1429 0.06618 0.0
C1309 C 0.92594 0.16712 0.09324 0.0
C1310 C 0.97151 0.14083 0.10146 0.0
C1311 C 0.95985 0.15157 0.13245 0.0
H1312 H 0.93922 0.68546 -0.00173 0.0
H1313 H 0.99279 0.63117 0.9566 0.0
H1314 H 0.98672 0.64707 0.89369 0.0
H1315 H 0.96366 0.67394 0.85 0.0
H1316 H 0.9087 0.72692 0.89142 0.0
H1317 H 0.91799 0.71406 0.95494 0.0
C1318 C 0.94983 0.67733 0.97551 0.0
C1319 C 0.96629 0.65705 0.9821 0.0
C1320 C 0.94585 0.68617 0.9393 0.0
C1321 C 0.97986 0.6467 0.95226 0.0
C1322 C 0.97638 0.65574 0.91626 0.0
C1323 C 0.95388 0.68286 0.87292 0.0
C1324 C 0.93535 0.70119 0.86592 0.0
C1325 C 0.959 0.67508 0.90935 0.0
C1326 C 0.9229 0.71259 0.89599 0.0
C1327 C 0.9282 0.70526 0.93234 0.0
H1328 H 0.03214 0.2233 0.62023 0.0
H1329 H 0.09408 0.17069 0.62584 0.0
H1330 H 0.07866 0.14928 0.57055 0.0
H1331 H 0.04794 0.14567 0.52036 0.0
H1332 H 0.98724 0.19947 0.51219 0.0
H1333 H 0.00178 0.2202 0.56873 0.0
C1334 C 0.04219 0.2071 0.60938 0.0
C1335 C 0.06417 0.19853 0.62714 0.0
C1336 C 0.03348 0.19512 0.57715 0.0
C1337 C 0.07716 0.17769 0.61259 0.0
C1338 C 0.06834 0.1654 0.58102 0.0
C1339 C 0.03783 0.16188 0.53106 0.0
C1340 C 0.01649 0.17095 0.51231 0.0
C1341 C 0.04657 0.17398 0.56307 0.0
C1342 C 0.00377 0.19217 0.52616 0.0
C1343 C 0.01205 0.20401 0.5585 0.0
H1344 H 0.52591 0.37812 0.43251 0.0
H1345 H 0.57573 0.32588 0.4877 0.0
H1346 H 0.59161 0.31139 0.42787 0.0
H1347 H 0.59157 0.31369 0.35986 0.0
H1348 H 0.54105 0.36529 0.30469 0.0
H1349 H 0.52521 0.37977 0.3645 0.0
C1350 C 0.54028 0.36361 0.43146 0.0
C1351 C 0.54968 0.35319 0.46454 0.0
C1352 C 0.54919 0.35518 0.39695 0.0
C1353 C 0.56815 0.33423 0.46266 0.0
C1354 C 0.57727 0.32593 0.42845 0.0
C1355 C 0.57708 0.32809 0.3609 0.0
C1356 C 0.56759 0.33842 0.32781 0.0
C1357 C 0.56795 0.33628 0.39541 0.0
C1358 C 0.54871 0.35697 0.3297 0.0
C1359 C 0.53965 0.36533 0.36391 0.0
H1360 H 0.44559 0.85959 0.06059 0.0
H1361 H 0.5091 0.8136 0.09242 0.0
H1362 H 0.4835 0.7929 0.1398 0.0
H1363 H 0.44361 0.78887 0.17349 0.0
H1364 H 0.37974 0.83416 0.14106 0.0
H1365 H 0.40491 0.8539 0.09222 0.0
C1366 C 0.45384 0.84507 0.07796 0.0
C1367 C 0.47929 0.83833 0.07328 0.0
C1368 C 0.43894 0.83305 0.10487 0.0
C1369 C 0.48959 0.81921 0.09557 0.0
C1370 C 0.47497 0.80735 0.12265 0.0
C1371 C 0.43511 0.80295 0.1556 0.0
C1372 C 0.40988 0.81015 0.16109 0.0
C1373 C 0.44969 0.81424 0.1277 0.0
C1374 C 0.39912 0.82825 0.13743 0.0
C1375 C 0.41354 0.83965 0.10961 0.0
H1376 H 0.92216 0.28585 0.581 0.0
H1377 H -0.00105 0.26269 0.59976 0.0
H1378 H 0.986 0.23983 0.65574 0.0
H1379 H 0.95275 0.22738 0.70002 0.0
H1380 H 0.87577 0.24954 0.67918 0.0
H1381 H 0.88887 0.27178 0.6232 0.0
C1382 C 0.93606 0.27586 0.59745 0.0
C1383 C 0.96146 0.27599 0.58652 0.0
C1384 C 0.92842 0.26257 0.62912 0.0
C1385 C 0.97925 0.2627 0.60765 0.0
C1386 C 0.97186 0.24972 0.63966 0.0
C1387 C 0.93885 0.23699 0.68313 0.0
C1388 C 0.91335 0.2369 0.69386 0.0
C1389 C 0.94649 0.24961 0.65073 0.0
C1390 C 0.89551 0.24926 0.67152 0.0
C1391 C 0.90299 0.26208 0.63957 0.0
H1392 H 0.4354 0.22406 0.29701 0.0
H1393 H 0.36585 0.18398 0.31603 0.0
H1394 H 0.38559 0.15994 0.36599 0.0
H1395 H 0.42267 0.1502 0.40419 0.0
H1396 H 0.49128 0.19233 0.38826 0.0
H1397 H 0.47195 0.21559 0.33701 0.0
C1398 C 0.42458 0.21007 0.31213 0.0
C1399 C 0.39925 0.20573 0.30276 0.0
C1400 C 0.43592 0.19662 0.34123 0.0
C1401 C 0.38536 0.18775 0.32282 0.0
C1402 C 0.39666 0.17391 0.35128 0.0
C1403 C 0.4334 0.16437 0.3893 0.0
C1404 C 0.45841 0.16942 0.39964 0.0
C1405 C 0.42194 0.17813 0.36064 0.0
C1406 C 0.472 0.18813 0.38068 0.0
C1407 C 0.46096 0.20142 0.35142 0.0
H1408 H 0.55552 0.63212 0.06674 0.0
H1409 H 0.5057 0.69634 0.06868 0.0
H1410 H 0.52036 0.70718 0.13096 0.0
H1411 H 0.54839 0.69909 0.18393 0.0
H1412 H 0.60059 0.63684 0.17951 0.0
H1413 H 0.58393 0.62444 0.11907 0.0
C1414 C 0.54775 0.64837 0.08095 0.0
C1415 C 0.52951 0.66336 0.06336 0.0
C1416 C 0.55675 0.65485 0.11618 0.0
C1417 C 0.51983 0.68457 0.08174 0.0
C1418 C 0.52817 0.69075 0.11731 0.0
C1419 C 0.55594 0.6827 0.1698 0.0
C1420 C 0.57555 0.6688 0.18607 0.0
C1421 C 0.54676 0.67613 0.13466 0.0
C1422 C 0.5855 0.64784 0.16737 0.0
C1423 C 0.57598 0.64073 0.13289 0.0
H1424 H 0.08696 0.78672 0.81922 0.0
H1425 H 0.01751 0.75264 0.78261 0.0
H1426 H -0.00529 0.77354 0.83288 0.0
H1427 H -0.00511 0.8004 0.88865 0.0
H1428 H 0.0646 0.83477 0.92394 0.0
H1429 H 0.0868 0.81493 0.8726 0.0
C1430 C 0.06683 0.78382 0.8222 0.0
C1431 C 0.05402 0.76795 0.79743 0.0
C1432 C 0.05385 0.79597 0.85095 0.0
C1433 C 0.02787 0.76468 0.80143 0.0
C1434 C 0.01481 0.77662 0.83018 0.0
C1435 C 0.01491 0.80367 0.88498 0.0
C1436 C 0.02805 0.81893 0.91032 0.0
C1437 C 0.02766 0.79216 0.8553 0.0
C1438 C 0.05397 0.82307 0.90499 0.0
C1439 C 0.06675 0.81168 0.87566 0.0
loop_
_geom_bond_atom_site_label_1
_geom_bond_atom_site_label_2
_geom_bond_distance
_geom_bond_site_symmetry_2
_ccdc_geom_bond_type
C0 O1 1.160 . S
C0 O7 1.185 . S
O1 C0 1.160 . S
O2 Zn3 1.899 . S
O2 C10 1.284 . S
Zn3 O2 1.899 . S
Zn3 O4 2.032 . S
Zn3 O7 2.086 . S
Zn3 O12 1.977 . S
O4 Zn3 2.032 . S
O4 C8 1.278 . S
C5 O6 1.203 . S
C5 O12 1.267 . S
O6 C5 1.203 . S
O7 C0 1.185 . S
O7 Zn3 2.086 . S
C8 O4 1.278 . S
C8 O9 1.211 . S
O9 C8 1.211 . S
C10 O2 1.284 . S
C10 O11 1.273 . S
O11 C10 1.273 . S
O12 Zn3 1.977 . S
O12 C5 1.267 . S
C13 O14 1.160 1_655 S
C13 O20 1.185 . S
O14 C13 1.160 1_455 S
O15 Zn16 1.899 1_455 S
O15 C23 1.284 . S
Zn16 O15 1.899 1_655 S
Zn16 O17 2.032 . S
Zn16 O20 2.086 . S
Zn16 O25 1.977 . S
O17 Zn16 2.032 . S
O17 C21 1.278 . S
C18 O19 1.203 . S
C18 O25 1.267 . S
O19 C18 1.203 . S
O20 C13 1.185 . S
O20 Zn16 2.086 . S
C21 O17 1.278 . S
C21 O22 1.211 . S
O22 C21 1.211 . S
C23 O15 1.284 . S
C23 O24 1.273 . S
O24 C23 1.273 . S
O25 Zn16 1.977 . S
O25 C18 1.267 . S
C26 O27 1.160 . S
C26 O33 1.185 . S
O27 C26 1.160 . S
O28 Zn29 1.899 . S
O28 C36 1.284 . S
Zn29 O28 1.899 . S
Zn29 O30 2.032 . S
Zn29 O33 2.086 . S
Zn29 O38 1.977 . S
O30 Zn29 2.032 . S
O30 C34 1.278 . S
C31 O32 1.203 . S
C31 O38 1.267 . S
O32 C31 1.203 . S
O33 C26 1.185 . S
O33 Zn29 2.086 . S
C34 O30 1.278 . S
C34 O35 1.211 . S
O35 C34 1.211 . S
C36 O28 1.284 . S
C36 O37 1.273 . S
O37 C36 1.273 . S
O38 Zn29 1.977 . S
O38 C31 1.267 . S
C39 O40 1.160 . S
C39 O46 1.185 . S
O40 C39 1.160 . S
O41 Zn42 1.899 . S
O41 C49 1.284 . S
Zn42 O41 1.899 . S
Zn42 O43 2.032 1_554 S
Zn42 O46 2.086 . S
Zn42 O51 1.977 . S
O43 Zn42 2.032 1_556 S
O43 C47 1.278 . S
C44 O45 1.203 . S
C44 O51 1.267 . S
O45 C44 1.203 . S
O46 C39 1.185 . S
O46 Zn42 2.086 . S
C47 O43 1.278 . S
C47 O48 1.211 . S
O48 C47 1.211 . S
C49 O41 1.284 . S
C49 O50 1.273 . S
O50 C49 1.273 . S
O51 Zn42 1.977 . S
O51 C44 1.267 . S
C52 O53 1.160 . S
C52 O59 1.185 . S
O53 C52 1.160 . S
O54 Zn55 1.899 . S
O54 C62 1.284 . S
Zn55 O54 1.899 . S
Zn55 O56 2.032 . S
Zn55 O59 2.086 . S
Zn55 O64 1.977 . S
O56 Zn55 2.032 . S
O56 C60 1.278 . S
C57 O58 1.203 . S
C57 O64 1.267 . S
O58 C57 1.203 . S
O59 C52 1.185 . S
O59 Zn55 2.086 . S
C60 O56 1.278 . S
C60 O61 1.211 . S
O61 C60 1.211 . S
C62 O54 1.284 . S
C62 O63 1.273 . S
O63 C62 1.273 . S
O64 Zn55 1.977 . S
O64 C57 1.267 . S
C65 O66 1.160 . S
C65 O72 1.185 . S
O66 C65 1.160 . S
O67 Zn68 1.899 . S
O67 C75 1.284 . S
Zn68 O67 1.899 . S
Zn68 O69 2.032 . S
Zn68 O72 2.086 . S
Zn68 O77 1.977 . S
O69 Zn68 2.032 . S
O69 C73 1.278 . S
C70 O71 1.203 . S
C70 O77 1.267 . S
O71 C70 1.203 . S
O72 C65 1.185 . S
O72 Zn68 2.086 . S
C73 O69 1.278 . S
C73 O74 1.211 . S
O74 C73 1.211 . S
C75 O67 1.284 . S
C75 O76 1.273 . S
O76 C75 1.273 . S
O77 Zn68 1.977 . S
O77 C70 1.267 . S
C78 O79 1.160 . S
C78 O85 1.185 . S
O79 C78 1.160 . S
O80 Zn81 1.899 . S
O80 C88 1.284 . S
Zn81 O80 1.899 . S
Zn81 O82 2.032 . S
Zn81 O85 2.086 . S
Zn81 O90 1.977 . S
O82 Zn81 2.032 . S
O82 C86 1.278 . S
C83 O84 1.203 . S
C83 O90 1.267 . S
O84 C83 1.203 . S
O85 C78 1.185 . S
O85 Zn81 2.086 . S
C86 O82 1.278 . S
C86 O87 1.211 . S
O87 C86 1.211 . S
C88 O80 1.284 . S
C88 O89 1.273 . S
O89 C88 1.273 . S
O90 Zn81 1.977 . S
O90 C83 1.267 . S
C91 O92 1.160 1_655 S
C91 O98 1.185 . S
O92 C91 1.160 1_455 S
O93 Zn94 1.899 1_455 S
O93 C101 1.284 . S
Zn94 O93 1.899 1_655 S
Zn94 O95 2.032 1_556 S
Zn94 O98 2.086 . S
Zn94 O103 1.977 . S
O95 Zn94 2.032 1_554 S
O95 C99 1.278 . S
C96 O97 1.203 . S
C96 O103 1.267 . S
O97 C96 1.203 . S
O98 C91 1.185 . S
O98 Zn94 2.086 . S
C99 O95 1.278 . S
C99 O100 1.211 . S
O100 C99 1.211 . S
C101 O93 1.284 . S
C101 O102 1.273 . S
O102 C101 1.273 . S
O103 Zn94 1.977 . S
O103 C96 1.267 . S
C104 O105 1.160 . S
C104 O111 1.185 . S
O105 C104 1.160 . S
O106 Zn107 1.899 . S
O106 C114 1.284 . S
Zn107 O106 1.899 . S
Zn107 O108 2.032 . S
Zn107 O111 2.086 . S
Zn107 O116 1.977 . S
O108 Zn107 2.032 . S
O108 C112 1.278 . S
C109 O110 1.203 . S
C109 O116 1.267 . S
O110 C109 1.203 . S
O111 C104 1.185 . S
O111 Zn107 2.086 . S
C112 O108 1.278 . S
C112 O113 1.211 . S
O113 C112 1.211 . S
C114 O106 1.284 . S
C114 O115 1.273 . S
O115 C114 1.273 . S
O116 Zn107 1.977 . S
O116 C109 1.267 . S
C117 O118 1.160 1_455 S
C117 O124 1.185 . S
O118 C117 1.160 1_655 S
O119 Zn120 1.899 1_655 S
O119 C127 1.284 . S
Zn120 O119 1.899 1_455 S
Zn120 O121 2.032 . S
Zn120 O124 2.086 . S
Zn120 O129 1.977 . S
O121 Zn120 2.032 . S
O121 C125 1.278 . S
C122 O123 1.203 . S
C122 O129 1.267 . S
O123 C122 1.203 . S
O124 C117 1.185 . S
O124 Zn120 2.086 . S
C125 O121 1.278 . S
C125 O126 1.211 . S
O126 C125 1.211 . S
C127 O119 1.284 . S
C127 O128 1.273 . S
O128 C127 1.273 . S
O129 Zn120 1.977 . S
O129 C122 1.267 . S
C130 O131 1.160 . S
C130 O137 1.185 . S
O131 C130 1.160 . S
O132 Zn133 1.899 . S
O132 C140 1.284 . S
Zn133 O132 1.899 . S
Zn133 O134 2.032 . S
Zn133 O137 2.086 . S
Zn133 O142 1.977 . S
O134 Zn133 2.032 . S
O134 C138 1.278 . S
C135 O136 1.203 . S
C135 O142 1.267 . S
O136 C135 1.203 . S
O137 C130 1.185 . S
O137 Zn133 2.086 . S
C138 O134 1.278 . S
C138 O139 1.211 . S
O139 C138 1.211 . S
C140 O132 1.284 . S
C140 O141 1.273 . S
O141 C140 1.273 . S
O142 Zn133 1.977 . S
O142 C135 1.267 . S
C143 O144 1.160 . S
C143 O150 1.185 . S
O144 C143 1.160 . S
O145 Zn146 1.899 . S
O145 C153 1.284 . S
Zn146 O145 1.899 . S
Zn146 O147 2.032 1_556 S
Zn146 O150 2.086 . S
Zn146 O155 1.977 . S
O147 Zn146 2.032 1_554 S
O147 C151 1.278 . S
C148 O149 1.203 . S
C148 O155 1.267 . S
O149 C148 1.203 . S
O150 C143 1.185 . S
O150 Zn146 2.086 . S
C151 O147 1.278 . S
C151 O152 1.211 . S
O152 C151 1.211 . S
C153 O145 1.284 . S
C153 O154 1.273 . S
O154 C153 1.273 . S
O155 Zn146 1.977 . S
O155 C148 1.267 . S
C156 O157 1.160 . S
C156 O163 1.185 . S
O157 C156 1.160 . S
O158 Zn159 1.899 . S
O158 C166 1.284 . S
Zn159 O158 1.899 . S
Zn159 O160 2.032 . S
Zn159 O163 2.086 . S
Zn159 O168 1.977 . S
O160 Zn159 2.032 . S
O160 C164 1.278 . S
C161 O162 1.203 . S
C161 O168 1.267 . S
O162 C161 1.203 . S
O163 C156 1.185 . S
O163 Zn159 2.086 . S
C164 O160 1.278 . S
C164 O165 1.211 . S
O165 C164 1.211 . S
C166 O158 1.284 . S
C166 O167 1.273 . S
O167 C166 1.273 . S
O168 Zn159 1.977 . S
O168 C161 1.267 . S
C169 O170 1.160 . S
C169 O176 1.185 . S
O170 C169 1.160 . S
O171 Zn172 1.899 . S
O171 C179 1.284 . S
Zn172 O171 1.899 . S
Zn172 O173 2.032 . S
Zn172 O176 2.086 . S
Zn172 O181 1.977 . S
O173 Zn172 2.032 . S
O173 C177 1.278 . S
C174 O175 1.203 . S
C174 O181 1.267 . S
O175 C174 1.203 . S
O176 C169 1.185 . S
O176 Zn172 2.086 . S
C177 O173 1.278 . S
C177 O178 1.211 . S
O178 C177 1.211 . S
C179 O171 1.284 . S
C179 O180 1.273 . S
O180 C179 1.273 . S
O181 Zn172 1.977 . S
O181 C174 1.267 . S
C182 O183 1.160 . S
C182 O189 1.185 . S
O183 C182 1.160 . S
O184 Zn185 1.899 . S
O184 C192 1.284 . S
Zn185 O184 1.899 . S
Zn185 O186 2.032 . S
Zn185 O189 2.086 . S
Zn185 O194 1.977 . S
O186 Zn185 2.032 . S
O186 C190 1.278 . S
C187 O188 1.203 . S
C187 O194 1.267 . S
O188 C187 1.203 . S
O189 C182 1.185 . S
O189 Zn185 2.086 . S
C190 O186 1.278 . S
C190 O191 1.211 . S
O191 C190 1.211 . S
C192 O184 1.284 . S
C192 O193 1.273 . S
O193 C192 1.273 . S
O194 Zn185 1.977 . S
O194 C187 1.267 . S
C195 O196 1.160 1_455 S
C195 O202 1.185 . S
O196 C195 1.160 1_655 S
O197 Zn198 1.899 1_655 S
O197 C205 1.284 . S
Zn198 O197 1.899 1_455 S
Zn198 O199 2.032 1_554 S
Zn198 O202 2.086 . S
Zn198 O207 1.977 . S
O199 Zn198 2.032 1_556 S
O199 C203 1.278 . S
C200 O201 1.203 . S
C200 O207 1.267 . S
O201 C200 1.203 . S
O202 C195 1.185 . S
O202 Zn198 2.086 . S
C203 O199 1.278 . S
C203 O204 1.211 . S
O204 C203 1.211 . S
C205 O197 1.284 . S
C205 O206 1.273 . S
O206 C205 1.273 . S
O207 Zn198 1.977 . S
O207 C200 1.267 . S
C208 O209 1.160 . S
C208 O215 1.185 . S
O209 C208 1.160 . S
O210 Zn211 1.899 . S
O210 C218 1.284 . S
Zn211 O210 1.899 . S
Zn211 O212 2.032 . S
Zn211 O215 2.086 . S
Zn211 O220 1.977 . S
O212 Zn211 2.032 . S
O212 C216 1.278 . S
C213 O214 1.203 . S
C213 O220 1.267 . S
O214 C213 1.203 . S
O215 C208 1.185 . S
O215 Zn211 2.086 . S
C216 O212 1.278 . S
C216 O217 1.211 . S
O217 C216 1.211 . S
C218 O210 1.284 . S
C218 O219 1.273 . S
O219 C218 1.273 . S
O220 Zn211 1.977 . S
O220 C213 1.267 . S
C221 O222 1.160 . S
C221 O228 1.185 . S
O222 C221 1.160 . S
O223 Zn224 1.899 . S
O223 C231 1.284 . S
Zn224 O223 1.899 . S
Zn224 O225 2.032 1_554 S
Zn224 O228 2.086 . S
Zn224 O233 1.977 . S
O225 Zn224 2.032 1_556 S
O225 C229 1.278 . S
C226 O227 1.203 . S
C226 O233 1.267 . S
O227 C226 1.203 . S
O228 C221 1.185 . S
O228 Zn224 2.086 . S
C229 O225 1.278 . S
C229 O230 1.211 . S
O230 C229 1.211 . S
C231 O223 1.284 . S
C231 O232 1.273 . S
O232 C231 1.273 . S
O233 Zn224 1.977 . S
O233 C226 1.267 . S
C234 O235 1.160 . S
C234 O241 1.185 . S
O235 C234 1.160 . S
O236 Zn237 1.899 . S
O236 C244 1.284 . S
Zn237 O236 1.899 . S
Zn237 O238 2.032 . S
Zn237 O241 2.086 . S
Zn237 O246 1.977 . S
O238 Zn237 2.032 . S
O238 C242 1.278 . S
C239 O240 1.203 . S
C239 O246 1.267 . S
O240 C239 1.203 . S
O241 C234 1.185 . S
O241 Zn237 2.086 . S
C242 O238 1.278 . S
C242 O243 1.211 . S
O243 C242 1.211 . S
C244 O236 1.284 . S
C244 O245 1.273 . S
O245 C244 1.273 . S
O246 Zn237 1.977 . S
O246 C239 1.267 . S
C247 O248 1.160 1_455 S
C247 O254 1.185 . S
O248 C247 1.160 1_655 S
O249 Zn250 1.899 1_655 S
O249 C257 1.284 . S
Zn250 O249 1.899 1_455 S
Zn250 O251 2.032 . S
Zn250 O254 2.086 . S
Zn250 O259 1.977 . S
O251 Zn250 2.032 . S
O251 C255 1.278 . S
C252 O253 1.203 . S
C252 O259 1.267 . S
O253 C252 1.203 . S
O254 C247 1.185 . S
O254 Zn250 2.086 . S
C255 O251 1.278 . S
C255 O256 1.211 . S
O256 C255 1.211 . S
C257 O249 1.284 . S
C257 O258 1.273 . S
O258 C257 1.273 . S
O259 Zn250 1.977 . S
O259 C252 1.267 . S
C260 O261 1.160 . S
C260 O267 1.185 . S
O261 C260 1.160 . S
O262 Zn263 1.899 . S
O262 C270 1.284 . S
Zn263 O262 1.899 . S
Zn263 O264 2.032 . S
Zn263 O267 2.086 . S
Zn263 O272 1.977 . S
O264 Zn263 2.032 . S
O264 C268 1.278 . S
C265 O266 1.203 . S
C265 O272 1.267 . S
O266 C265 1.203 . S
O267 C260 1.185 . S
O267 Zn263 2.086 . S
C268 O264 1.278 . S
C268 O269 1.211 . S
O269 C268 1.211 . S
C270 O262 1.284 . S
C270 O271 1.273 . S
O271 C270 1.273 . S
O272 Zn263 1.977 . S
O272 C265 1.267 . S
C273 O274 1.160 1_455 S
C273 O280 1.185 . S
O274 C273 1.160 1_655 S
O275 Zn276 1.899 1_655 S
O275 C283 1.284 . S
Zn276 O275 1.899 1_455 S
Zn276 O277 2.032 1_556 S
Zn276 O280 2.086 . S
Zn276 O285 1.977 . S
O277 Zn276 2.032 1_554 S
O277 C281 1.278 . S
C278 O279 1.203 . S
C278 O285 1.267 . S
O279 C278 1.203 . S
O280 C273 1.185 . S
O280 Zn276 2.086 . S
C281 O277 1.278 . S
C281 O282 1.211 . S
O282 C281 1.211 . S
C283 O275 1.284 . S
C283 O284 1.273 . S
O284 C283 1.273 . S
O285 Zn276 1.977 . S
O285 C278 1.267 . S
C286 O287 1.160 . S
C286 O293 1.185 . S
O287 C286 1.160 . S
O288 Zn289 1.899 . S
O288 C296 1.284 . S
Zn289 O288 1.899 . S
Zn289 O290 2.032 . S
Zn289 O293 2.086 . S
Zn289 O298 1.977 . S
O290 Zn289 2.032 . S
O290 C294 1.278 . S
C291 O292 1.203 . S
C291 O298 1.267 . S
O292 C291 1.203 . S
O293 C286 1.185 . S
O293 Zn289 2.086 . S
C294 O290 1.278 . S
C294 O295 1.211 . S
O295 C294 1.211 . S
C296 O288 1.284 . S
C296 O297 1.273 . S
O297 C296 1.273 . S
O298 Zn289 1.977 . S
O298 C291 1.267 . S
C299 O300 1.160 . S
C299 O306 1.185 . S
O300 C299 1.160 . S
O301 Zn302 1.899 . S
O301 C309 1.284 . S
Zn302 O301 1.899 . S
Zn302 O303 2.032 . S
Zn302 O306 2.086 . S
Zn302 O311 1.977 . S
O303 Zn302 2.032 . S
O303 C307 1.278 . S
C304 O305 1.203 . S
C304 O311 1.267 . S
O305 C304 1.203 . S
O306 C299 1.185 . S
O306 Zn302 2.086 . S
C307 O303 1.278 . S
C307 O308 1.211 . S
O308 C307 1.211 . S
C309 O301 1.284 . S
C309 O310 1.273 . S
O310 C309 1.273 . S
O311 Zn302 1.977 . S
O311 C304 1.267 . S
C312 O313 1.160 . S
C312 O319 1.185 . S
O313 C312 1.160 . S
O314 Zn315 1.899 . S
O314 C322 1.284 . S
Zn315 O314 1.899 . S
Zn315 O316 2.032 . S
Zn315 O319 2.086 . S
Zn315 O324 1.977 . S
O316 Zn315 2.032 . S
O316 C320 1.278 . S
C317 O318 1.203 . S
C317 O324 1.267 . S
O318 C317 1.203 . S
O319 C312 1.185 . S
O319 Zn315 2.086 . S
C320 O316 1.278 . S
C320 O321 1.211 . S
O321 C320 1.211 . S
C322 O314 1.284 . S
C322 O323 1.273 . S
O323 C322 1.273 . S
O324 Zn315 1.977 . S
O324 C317 1.267 . S
C325 O326 1.160 . S
C325 O332 1.185 . S
O326 C325 1.160 . S
O327 Zn328 1.899 . S
O327 C335 1.284 . S
Zn328 O327 1.899 . S
Zn328 O329 2.032 1_556 S
Zn328 O332 2.086 . S
Zn328 O337 1.977 . S
O329 Zn328 2.032 1_554 S
O329 C333 1.278 . S
C330 O331 1.203 . S
C330 O337 1.267 . S
O331 C330 1.203 . S
O332 C325 1.185 . S
O332 Zn328 2.086 . S
C333 O329 1.278 . S
C333 O334 1.211 . S
O334 C333 1.211 . S
C335 O327 1.284 . S
C335 O336 1.273 . S
O336 C335 1.273 . S
O337 Zn328 1.977 . S
O337 C330 1.267 . S
C338 O339 1.160 . S
C338 O345 1.185 . S
O339 C338 1.160 . S
O340 Zn341 1.899 . S
O340 C348 1.284 . S
Zn341 O340 1.899 . S
Zn341 O342 2.032 . S
Zn341 O345 2.086 . S
Zn341 O350 1.977 . S
O342 Zn341 2.032 . S
O342 C346 1.278 . S
C343 O344 1.203 . S
C343 O350 1.267 . S
O344 C343 1.203 . S
O345 C338 1.185 . S
O345 Zn341 2.086 . S
C346 O342 1.278 . S
C346 O347 1.211 . S
O347 C346 1.211 . S
C348 O340 1.284 . S
C348 O349 1.273 . S
O349 C348 1.273 . S
O350 Zn341 1.977 . S
O350 C343 1.267 . S
C351 O352 1.160 1_655 S
C351 O358 1.185 . S
O352 C351 1.160 1_455 S
O353 Zn354 1.899 1_455 S
O353 C361 1.284 . S
Zn354 O353 1.899 1_655 S
Zn354 O355 2.032 . S
Zn354 O358 2.086 . S
Zn354 O363 1.977 . S
O355 Zn354 2.032 . S
O355 C359 1.278 . S
C356 O357 1.203 . S
C356 O363 1.267 . S
O357 C356 1.203 . S
O358 C351 1.185 . S
O358 Zn354 2.086 . S
C359 O355 1.278 . S
C359 O360 1.211 . S
O360 C359 1.211 . S
C361 O353 1.284 . S
C361 O362 1.273 . S
O362 C361 1.273 . S
O363 Zn354 1.977 . S
O363 C356 1.267 . S
C364 O365 1.160 . S
C364 O371 1.185 . S
O365 C364 1.160 . S
O366 Zn367 1.899 . S
O366 C374 1.284 . S
Zn367 O366 1.899 . S
Zn367 O368 2.032 . S
Zn367 O371 2.086 . S
Zn367 O376 1.977 . S
O368 Zn367 2.032 . S
O368 C372 1.278 . S
C369 O370 1.203 . S
C369 O376 1.267 . S
O370 C369 1.203 . S
O371 C364 1.185 . S
O371 Zn367 2.086 . S
C372 O368 1.278 . S
C372 O373 1.211 . S
O373 C372 1.211 . S
C374 O366 1.284 . S
C374 O375 1.273 . S
O375 C374 1.273 . S
O376 Zn367 1.977 . S
O376 C369 1.267 . S
C377 O378 1.160 1_655 S
C377 O384 1.185 . S
O378 C377 1.160 1_455 S
O379 Zn380 1.899 1_455 S
O379 C387 1.284 . S
Zn380 O379 1.899 1_655 S
Zn380 O381 2.032 1_554 S
Zn380 O384 2.086 . S
Zn380 O389 1.977 . S
O381 Zn380 2.032 1_556 S
O381 C385 1.278 . S
C382 O383 1.203 . S
C382 O389 1.267 . S
O383 C382 1.203 . S
O384 C377 1.185 . S
O384 Zn380 2.086 . S
C385 O381 1.278 . S
C385 O386 1.211 . S
O386 C385 1.211 . S
C387 O379 1.284 . S
C387 O388 1.273 . S
O388 C387 1.273 . S
O389 Zn380 1.977 . S
O389 C382 1.267 . S
C390 O391 1.160 . S
C390 O397 1.185 . S
O391 C390 1.160 . S
O392 Zn393 1.899 . S
O392 C400 1.284 . S
Zn393 O392 1.899 . S
Zn393 O394 2.032 . S
Zn393 O397 2.086 . S
Zn393 O402 1.977 . S
O394 Zn393 2.032 . S
O394 C398 1.278 . S
C395 O396 1.203 . S
C395 O402 1.267 . S
O396 C395 1.203 . S
O397 C390 1.185 . S
O397 Zn393 2.086 . S
C398 O394 1.278 . S
C398 O399 1.211 . S
O399 C398 1.211 . S
C400 O392 1.284 . S
C400 O401 1.273 . S
O401 C400 1.273 . S
O402 Zn393 1.977 . S
O402 C395 1.267 . S
C403 O404 1.160 . S
C403 O410 1.185 . S
O404 C403 1.160 . S
O405 Zn406 1.899 . S
O405 C413 1.284 . S
Zn406 O405 1.899 . S
Zn406 O407 2.032 . S
Zn406 O410 2.086 . S
Zn406 O415 1.977 . S
O407 Zn406 2.032 . S
O407 C411 1.278 . S
C408 O409 1.203 . S
C408 O415 1.267 . S
O409 C408 1.203 . S
O410 C403 1.185 . S
O410 Zn406 2.086 . S
C411 O407 1.278 . S
C411 O412 1.211 . S
O412 C411 1.211 . S
C413 O405 1.284 . S
C413 O414 1.273 . S
O414 C413 1.273 . S
O415 Zn406 1.977 . S
O415 C408 1.267 . S
H416 C422 0.930 . S
H417 C425 0.930 . S
H418 C426 0.930 . S
H419 C427 0.930 . S
H420 C430 0.930 . S
H421 C431 0.930 . S
C422 H416 0.930 . S
C422 C423 1.355 . S
C422 C424 1.415 . S
C423 C422 1.355 . S
C423 C425 1.419 . S
C424 C422 1.415 . S
C424 C429 1.425 . S
C424 C431 1.409 . S
C425 H417 0.930 . S
C425 C423 1.419 . S
C425 C426 1.362 . S
C426 H418 0.930 . S
C426 C425 1.362 . S
C426 C429 1.409 . S
C427 H419 0.930 . S
C427 C428 1.355 . S
C427 C429 1.415 . S
C428 C427 1.355 . S
C428 C430 1.419 . S
C429 C424 1.425 . S
C429 C426 1.409 . S
C429 C427 1.415 . S
C430 H420 0.930 . S
C430 C428 1.419 . S
C430 C431 1.362 . S
C431 H421 0.930 . S
C431 C424 1.409 . S
C431 C430 1.362 . S
H432 C438 0.930 . S
H433 C441 0.921 1_655 S
H434 C442 0.930 . S
H435 C443 0.930 . S
H436 C446 0.930 . S
H437 C447 0.930 . S
C438 H432 0.930 . S
C438 C439 1.355 . S
C438 C440 1.415 . S
C439 C438 1.355 . S
C439 C441 1.419 . S
C440 C438 1.415 . S
C440 C445 1.425 . S
C440 C447 1.409 . S
C441 H433 0.921 1_455 S
C441 C439 1.419 . S
C441 C442 1.362 . S
C442 H434 0.930 . S
C442 C441 1.362 . S
C442 C445 1.409 . S
C443 H435 0.930 . S
C443 C444 1.355 . S
C443 C445 1.415 . S
C444 C443 1.355 . S
C444 C446 1.419 . S
C445 C440 1.425 . S
C445 C442 1.409 . S
C445 C443 1.415 . S
C446 H436 0.930 . S
C446 C444 1.419 . S
C446 C447 1.362 . S
C447 H437 0.930 . S
C447 C440 1.409 . S
C447 C446 1.362 . S
H448 C454 0.930 . S
H449 C457 0.930 . S
H450 C458 0.930 . S
H451 C459 0.930 . S
H452 C462 0.930 . S
H453 C463 0.930 . S
C454 H448 0.930 . S
C454 C455 1.355 . S
C454 C456 1.415 . S
C455 C454 1.355 . S
C455 C457 1.419 . S
C456 C454 1.415 . S
C456 C461 1.425 . S
C456 C463 1.409 . S
C457 H449 0.930 . S
C457 C455 1.419 . S
C457 C458 1.362 . S
C458 H450 0.930 . S
C458 C457 1.362 . S
C458 C461 1.409 . S
C459 H451 0.930 . S
C459 C460 1.355 . S
C459 C461 1.415 . S
C460 C459 1.355 . S
C460 C462 1.419 . S
C461 C456 1.425 . S
C461 C458 1.409 . S
C461 C459 1.415 . S
C462 H452 0.930 . S
C462 C460 1.419 . S
C462 C463 1.362 . S
C463 H453 0.930 . S
C463 C456 1.409 . S
C463 C462 1.362 . S
H464 C470 0.930 . S
H465 C473 0.930 . S
H466 C474 0.930 . S
H467 C475 0.930 . S
H468 C478 0.930 . S
H469 C479 0.930 . S
C470 H464 0.930 . S
C470 C471 1.355 . S
C470 C472 1.415 . S
C471 C470 1.355 . S
C471 C473 1.419 . S
C472 C470 1.415 . S
C472 C477 1.425 . S
C472 C479 1.409 . S
C473 H465 0.930 . S
C473 C471 1.419 . S
C473 C474 1.362 . S
C474 H466 0.930 . S
C474 C473 1.362 . S
C474 C477 1.409 . S
C475 H467 0.930 . S
C475 C476 1.355 . S
C475 C477 1.415 . S
C476 C475 1.355 . S
C476 C478 1.419 . S
C477 C472 1.425 . S
C477 C474 1.409 . S
C477 C475 1.415 . S
C478 H468 0.930 . S
C478 C476 1.419 . S
C478 C479 1.362 . S
C479 H469 0.930 . S
C479 C472 1.409 . S
C479 C478 1.362 . S
H480 C486 0.930 . S
H481 C489 0.930 . S
H482 C490 0.930 . S
H483 C491 0.930 . S
H484 C494 0.930 . S
H485 C495 0.930 . S
C486 H480 0.930 . S
C486 C487 1.355 . S
C486 C488 1.415 . S
C487 C486 1.355 . S
C487 C489 1.419 . S
C488 C486 1.415 . S
C488 C493 1.425 . S
C488 C495 1.409 . S
C489 H481 0.930 . S
C489 C487 1.419 . S
C489 C490 1.362 . S
C490 H482 0.930 . S
C490 C489 1.362 . S
C490 C493 1.409 . S
C491 H483 0.930 . S
C491 C492 1.355 . S
C491 C493 1.415 . S
C492 C491 1.355 . S
C492 C494 1.419 . S
C493 C488 1.425 . S
C493 C490 1.409 . S
C493 C491 1.415 . S
C494 H484 0.930 . S
C494 C492 1.419 . S
C494 C495 1.362 . S
C495 H485 0.930 . S
C495 C488 1.409 . S
C495 C494 1.362 . S
H496 C502 0.930 . S
H497 C505 0.930 . S
H498 C506 0.930 . S
H499 C507 0.930 . S
H500 C510 0.930 . S
H501 C511 0.930 . S
C502 H496 0.930 . S
C502 C503 1.355 . S
C502 C504 1.415 . S
C503 C502 1.355 . S
C503 C505 1.419 . S
C504 C502 1.415 . S
C504 C509 1.425 . S
C504 C511 1.409 . S
C505 H497 0.930 . S
C505 C503 1.419 . S
C505 C506 1.362 . S
C506 H498 0.930 . S
C506 C505 1.362 . S
C506 C509 1.409 . S
C507 H499 0.930 . S
C507 C508 1.355 . S
C507 C509 1.415 . S
C508 C507 1.355 . S
C508 C510 1.419 . S
C509 C504 1.425 . S
C509 C506 1.409 . S
C509 C507 1.415 . S
C510 H500 0.930 . S
C510 C508 1.419 . S
C510 C511 1.362 . S
C511 H501 0.930 . S
C511 C504 1.409 . S
C511 C510 1.362 . S
H512 C518 0.930 . S
H513 C521 0.930 . S
H514 C522 0.930 . S
H515 C523 0.930 . S
H516 C526 0.930 . S
H517 C527 0.930 . S
C518 H512 0.930 . S
C518 C519 1.355 . S
C518 C520 1.415 . S
C519 C518 1.355 . S
C519 C521 1.419 . S
C520 C518 1.415 . S
C520 C525 1.425 . S
C520 C527 1.409 . S
C521 H513 0.930 . S
C521 C519 1.419 . S
C521 C522 1.362 . S
C522 H514 0.930 . S
C522 C521 1.362 . S
C522 C525 1.409 . S
C523 H515 0.930 . S
C523 C524 1.355 . S
C523 C525 1.415 . S
C524 C523 1.355 . S
C524 C526 1.419 . S
C525 C520 1.425 . S
C525 C522 1.409 . S
C525 C523 1.415 . S
C526 H516 0.930 . S
C526 C524 1.419 . S
C526 C527 1.362 . S
C527 H517 0.930 . S
C527 C520 1.409 . S
C527 C526 1.362 . S
H528 C534 0.930 . S
H529 C537 0.930 . S
H530 C538 0.930 . S
H531 C539 0.930 . S
H532 C542 0.930 . S
H533 C543 0.930 . S
C534 H528 0.930 . S
C534 C535 1.355 . S
C534 C536 1.415 . S
C535 C534 1.355 . S
C535 C537 1.419 . S
C536 C534 1.415 . S
C536 C541 1.425 . S
C536 C543 1.409 . S
C537 H529 0.930 . S
C537 C535 1.419 . S
C537 C538 1.362 . S
C538 H530 0.930 . S
C538 C537 1.362 . S
C538 C541 1.409 . S
C539 H531 0.930 . S
C539 C540 1.355 . S
C539 C541 1.415 . S
C540 C539 1.355 . S
C540 C542 1.419 . S
C541 C536 1.425 . S
C541 C538 1.409 . S
C541 C539 1.415 . S
C542 H532 0.930 . S
C542 C540 1.419 . S
C542 C543 1.362 . S
C543 H533 0.930 . S
C543 C536 1.409 . S
C543 C542 1.362 . S
H544 C550 0.930 . S
H545 C553 0.930 . S
H546 C554 0.930 . S
H547 C555 0.930 . S
H548 C558 0.930 . S
H549 C559 0.930 . S
C550 H544 0.930 . S
C550 C551 1.355 . S
C550 C552 1.415 . S
C551 C550 1.355 . S
C551 C553 1.419 . S
C552 C550 1.415 . S
C552 C557 1.425 . S
C552 C559 1.409 . S
C553 H545 0.930 . S
C553 C551 1.419 . S
C553 C554 1.362 . S
C554 H546 0.930 . S
C554 C553 1.362 . S
C554 C557 1.409 . S
C555 H547 0.930 . S
C555 C556 1.355 . S
C555 C557 1.415 . S
C556 C555 1.355 . S
C556 C558 1.419 . S
C557 C552 1.425 . S
C557 C554 1.409 . S
C557 C555 1.415 . S
C558 H548 0.930 . S
C558 C556 1.419 . S
C558 C559 1.362 . S
C559 H549 0.930 . S
C559 C552 1.409 . S
C559 C558 1.362 . S
H560 C566 0.930 . S
H561 C569 0.930 . S
H562 C570 0.930 . S
H563 C571 0.930 . S
H564 C574 0.930 . S
H565 C575 0.930 . S
C566 H560 0.930 . S
C566 C567 1.355 . S
C566 C568 1.415 . S
C567 C566 1.355 . S
C567 C569 1.419 . S
C568 C566 1.415 . S
C568 C573 1.425 . S
C568 C575 1.409 . S
C569 H561 0.930 . S
C569 C567 1.419 . S
C569 C570 1.362 . S
C570 H562 0.930 . S
C570 C569 1.362 . S
C570 C573 1.409 . S
C571 H563 0.930 . S
C571 C572 1.355 . S
C571 C573 1.415 . S
C572 C571 1.355 . S
C572 C574 1.419 . S
C573 C568 1.425 . S
C573 C570 1.409 . S
C573 C571 1.415 . S
C574 H564 0.930 . S
C574 C572 1.419 . S
C574 C575 1.362 . S
C575 H565 0.930 . S
C575 C568 1.409 . S
C575 C574 1.362 . S
H576 C582 0.930 . S
H577 C585 0.930 . S
H578 C586 0.930 . S
H579 C587 0.930 . S
H580 C590 0.930 . S
H581 C591 0.930 . S
C582 H576 0.930 . S
C582 C583 1.355 . S
C582 C584 1.415 . S
C583 C582 1.355 . S
C583 C585 1.419 . S
C584 C582 1.415 . S
C584 C589 1.425 . S
C584 C591 1.409 . S
C585 H577 0.930 . S
C585 C583 1.419 . S
C585 C586 1.362 . S
C586 H578 0.930 . S
C586 C585 1.362 . S
C586 C589 1.409 . S
C587 H579 0.930 . S
C587 C588 1.355 . S
C587 C589 1.415 . S
C588 C587 1.355 . S
C588 C590 1.419 . S
C589 C584 1.425 . S
C589 C586 1.409 . S
C589 C587 1.415 . S
C590 H580 0.930 . S
C590 C588 1.419 . S
C590 C591 1.362 . S
C591 H581 0.930 . S
C591 C584 1.409 . S
C591 C590 1.362 . S
H592 C598 0.930 . S
H593 C601 0.930 . S
H594 C602 0.930 . S
H595 C603 0.930 . S
H596 C606 0.930 . S
H597 C607 0.930 . S
C598 H592 0.930 . S
C598 C599 1.355 . S
C598 C600 1.415 . S
C599 C598 1.355 . S
C599 C601 1.419 . S
C600 C598 1.415 . S
C600 C605 1.425 . S
C600 C607 1.409 . S
C601 H593 0.930 . S
C601 C599 1.419 . S
C601 C602 1.362 . S
C602 H594 0.930 . S
C602 C601 1.362 . S
C602 C605 1.409 . S
C603 H595 0.930 . S
C603 C604 1.355 . S
C603 C605 1.415 . S
C604 C603 1.355 . S
C604 C606 1.419 . S
C605 C600 1.425 . S
C605 C602 1.409 . S
C605 C603 1.415 . S
C606 H596 0.930 . S
C606 C604 1.419 . S
C606 C607 1.362 . S
C607 H597 0.930 . S
C607 C600 1.409 . S
C607 C606 1.362 . S
H608 C614 0.930 . S
H609 C617 0.930 . S
H610 C618 0.930 . S
H611 C619 0.930 . S
H612 C622 0.930 . S
H613 C623 0.930 . S
C614 H608 0.930 . S
C614 C615 1.355 . S
C614 C616 1.415 . S
C615 C614 1.355 . S
C615 C617 1.419 . S
C616 C614 1.415 . S
C616 C621 1.425 . S
C616 C623 1.409 . S
C617 H609 0.930 . S
C617 C615 1.419 . S
C617 C618 1.362 . S
C618 H610 0.930 . S
C618 C617 1.362 . S
C618 C621 1.409 . S
C619 H611 0.930 . S
C619 C620 1.355 . S
C619 C621 1.415 . S
C620 C619 1.355 . S
C620 C622 1.419 . S
C621 C616 1.425 . S
C621 C618 1.409 . S
C621 C619 1.415 . S
C622 H612 0.930 . S
C622 C620 1.419 . S
C622 C623 1.362 . S
C623 H613 0.930 . S
C623 C616 1.409 . S
C623 C622 1.362 . S
H624 C630 0.930 . S
H625 C633 0.930 . S
H626 C634 0.930 . S
H627 C635 0.930 . S
H628 C638 0.930 . S
H629 C639 0.930 . S
C630 H624 0.930 . S
C630 C631 1.355 . S
C630 C632 1.415 . S
C631 C630 1.355 . S
C631 C633 1.419 . S
C632 C630 1.415 . S
C632 C637 1.425 . S
C632 C639 1.409 . S
C633 H625 0.930 . S
C633 C631 1.419 . S
C633 C634 1.362 . S
C634 H626 0.930 . S
C634 C633 1.362 . S
C634 C637 1.409 . S
C635 H627 0.930 . S
C635 C636 1.355 . S
C635 C637 1.415 . S
C636 C635 1.355 . S
C636 C638 1.419 . S
C637 C632 1.425 . S
C637 C634 1.409 . S
C637 C635 1.415 . S
C638 H628 0.930 . S
C638 C636 1.419 . S
C638 C639 1.362 . S
C639 H629 0.930 . S
C639 C632 1.409 . S
C639 C638 1.362 . S
H640 C646 0.930 . S
H641 C649 0.930 . S
H642 C650 0.930 . S
H643 C651 0.930 . S
H644 C654 0.930 . S
H645 C655 0.930 . S
C646 H640 0.930 . S
C646 C647 1.355 . S
C646 C648 1.415 . S
C647 C646 1.355 . S
C647 C649 1.419 . S
C648 C646 1.415 . S
C648 C653 1.425 . S
C648 C655 1.409 . S
C649 H641 0.930 . S
C649 C647 1.419 . S
C649 C650 1.362 . S
C650 H642 0.930 . S
C650 C649 1.362 . S
C650 C653 1.409 . S
C651 H643 0.930 . S
C651 C652 1.355 . S
C651 C653 1.415 . S
C652 C651 1.355 . S
C652 C654 1.419 . S
C653 C648 1.425 . S
C653 C650 1.409 . S
C653 C651 1.415 . S
C654 H644 0.930 . S
C654 C652 1.419 . S
C654 C655 1.362 . S
C655 H645 0.930 . S
C655 C648 1.409 . S
C655 C654 1.362 . S
H656 C662 0.930 . S
H657 C665 0.930 . S
H658 C666 0.930 . S
H659 C667 0.930 . S
H660 C670 0.930 . S
H661 C671 0.930 . S
C662 H656 0.930 . S
C662 C663 1.355 . S
C662 C664 1.415 . S
C663 C662 1.355 . S
C663 C665 1.419 . S
C664 C662 1.415 . S
C664 C669 1.425 . S
C664 C671 1.409 . S
C665 H657 0.930 . S
C665 C663 1.419 . S
C665 C666 1.362 . S
C666 H658 0.930 . S
C666 C665 1.362 . S
C666 C669 1.409 . S
C667 H659 0.930 . S
C667 C668 1.355 . S
C667 C669 1.415 . S
C668 C667 1.355 . S
C668 C670 1.419 . S
C669 C664 1.425 . S
C669 C666 1.409 . S
C669 C667 1.415 . S
C670 H660 0.930 . S
C670 C668 1.419 . S
C670 C671 1.362 . S
C671 H661 0.930 . S
C671 C664 1.409 . S
C671 C670 1.362 . S
H672 C678 0.930 . S
H673 C681 0.930 . S
H674 C682 0.930 . S
H675 C683 0.930 . S
H676 C686 0.930 . S
H677 C687 0.930 . S
C678 H672 0.930 . S
C678 C679 1.355 . S
C678 C680 1.415 . S
C679 C678 1.355 . S
C679 C681 1.419 . S
C680 C678 1.415 . S
C680 C685 1.425 . S
C680 C687 1.409 . S
C681 H673 0.930 . S
C681 C679 1.419 . S
C681 C682 1.362 . S
C682 H674 0.930 . S
C682 C681 1.362 . S
C682 C685 1.409 . S
C683 H675 0.930 . S
C683 C684 1.355 . S
C683 C685 1.415 . S
C684 C683 1.355 . S
C684 C686 1.419 . S
C685 C680 1.425 . S
C685 C682 1.409 . S
C685 C683 1.415 . S
C686 H676 0.930 . S
C686 C684 1.419 . S
C686 C687 1.362 . S
C687 H677 0.930 . S
C687 C680 1.409 . S
C687 C686 1.362 . S
H688 C694 0.930 . S
H689 C697 0.930 . S
H690 C698 0.930 . S
H691 C699 0.930 . S
H692 C702 0.930 . S
H693 C703 0.930 . S
C694 H688 0.930 . S
C694 C695 1.355 . S
C694 C696 1.415 . S
C695 C694 1.355 . S
C695 C697 1.419 . S
C696 C694 1.415 . S
C696 C701 1.425 . S
C696 C703 1.409 . S
C697 H689 0.930 . S
C697 C695 1.419 . S
C697 C698 1.362 . S
C698 H690 0.930 . S
C698 C697 1.362 . S
C698 C701 1.409 . S
C699 H691 0.930 . S
C699 C700 1.355 . S
C699 C701 1.415 . S
C700 C699 1.355 . S
C700 C702 1.419 . S
C701 C696 1.425 . S
C701 C698 1.409 . S
C701 C699 1.415 . S
C702 H692 0.930 . S
C702 C700 1.419 . S
C702 C703 1.362 . S
C703 H693 0.930 . S
C703 C696 1.409 . S
C703 C702 1.362 . S
H704 C710 0.930 . S
H705 C713 0.930 . S
H706 C714 0.930 . S
H707 C715 0.930 . S
H708 C718 0.930 . S
H709 C719 0.930 . S
C710 H704 0.930 . S
C710 C711 1.355 . S
C710 C712 1.415 . S
C711 C710 1.355 . S
C711 C713 1.419 . S
C712 C710 1.415 . S
C712 C717 1.425 . S
C712 C719 1.409 . S
C713 H705 0.930 . S
C713 C711 1.419 . S
C713 C714 1.362 . S
C714 H706 0.930 . S
C714 C713 1.362 . S
C714 C717 1.409 . S
C715 H707 0.930 . S
C715 C716 1.355 . S
C715 C717 1.415 . S
C716 C715 1.355 . S
C716 C718 1.419 . S
C717 C712 1.425 . S
C717 C714 1.409 . S
C717 C715 1.415 . S
C718 H708 0.930 . S
C718 C716 1.419 . S
C718 C719 1.362 . S
C719 H709 0.930 . S
C719 C712 1.409 . S
C719 C718 1.362 . S
H720 C726 0.930 . S
H721 C729 0.930 . S
H722 C730 0.930 . S
H723 C731 0.930 . S
H724 C734 0.930 1_455 S
H725 C735 0.930 . S
C726 H720 0.930 . S
C726 C727 1.355 . S
C726 C728 1.415 . S
C727 C726 1.355 . S
C727 C729 1.419 . S
C728 C726 1.415 . S
C728 C733 1.425 . S
C728 C735 1.409 . S
C729 H721 0.930 . S
C729 C727 1.419 . S
C729 C730 1.362 . S
C730 H722 0.930 . S
C730 C729 1.362 . S
C730 C733 1.409 . S
C731 H723 0.930 . S
C731 C732 1.355 . S
C731 C733 1.415 . S
C732 C731 1.355 . S
C732 C734 1.419 . S
C733 C728 1.425 . S
C733 C730 1.409 . S
C733 C731 1.415 . S
C734 H724 0.930 1_655 S
C734 C732 1.419 . S
C734 C735 1.362 . S
C735 H725 0.930 . S
C735 C728 1.409 . S
C735 C734 1.362 . S
H736 C742 0.930 . S
H737 C745 0.930 . S
H738 C746 0.930 . S
H739 C747 0.930 . S
H740 C750 0.930 . S
H741 C751 0.930 . S
C742 H736 0.930 . S
C742 C743 1.355 . S
C742 C744 1.415 . S
C743 C742 1.355 . S
C743 C745 1.419 . S
C744 C742 1.415 . S
C744 C749 1.425 . S
C744 C751 1.409 . S
C745 H737 0.930 . S
C745 C743 1.419 . S
C745 C746 1.362 . S
C746 H738 0.930 . S
C746 C745 1.362 . S
C746 C749 1.409 . S
C747 H739 0.930 . S
C747 C748 1.355 . S
C747 C749 1.415 . S
C748 C747 1.355 . S
C748 C750 1.419 . S
C749 C744 1.425 . S
C749 C746 1.409 . S
C749 C747 1.415 . S
C750 H740 0.930 . S
C750 C748 1.419 . S
C750 C751 1.362 . S
C751 H741 0.930 . S
C751 C744 1.409 . S
C751 C750 1.362 . S
H752 C758 0.930 . S
H753 C761 0.930 . S
H754 C762 0.930 . S
H755 C763 0.930 . S
H756 C766 0.930 . S
H757 C767 0.930 . S
C758 H752 0.930 . S
C758 C759 1.355 . S
C758 C760 1.415 . S
C759 C758 1.355 . S
C759 C761 1.419 . S
C760 C758 1.415 . S
C760 C765 1.425 . S
C760 C767 1.409 . S
C761 H753 0.930 . S
C761 C759 1.419 . S
C761 C762 1.362 . S
C762 H754 0.930 . S
C762 C761 1.362 . S
C762 C765 1.409 . S
C763 H755 0.930 . S
C763 C764 1.355 . S
C763 C765 1.415 . S
C764 C763 1.355 . S
C764 C766 1.419 . S
C765 C760 1.425 . S
C765 C762 1.409 . S
C765 C763 1.415 . S
C766 H756 0.930 . S
C766 C764 1.419 . S
C766 C767 1.362 . S
C767 H757 0.930 . S
C767 C760 1.409 . S
C767 C766 1.362 . S
H768 C774 0.930 . S
H769 C777 0.930 . S
H770 C778 0.930 . S
H771 C779 0.930 . S
H772 C782 0.930 . S
H773 C783 0.930 . S
C774 H768 0.930 . S
C774 C775 1.355 . S
C774 C776 1.415 . S
C775 C774 1.355 . S
C775 C777 1.419 . S
C776 C774 1.415 . S
C776 C781 1.425 . S
C776 C783 1.409 . S
C777 H769 0.930 . S
C777 C775 1.419 . S
C777 C778 1.362 . S
C778 H770 0.930 . S
C778 C777 1.362 . S
C778 C781 1.409 . S
C779 H771 0.930 . S
C779 C780 1.355 . S
C779 C781 1.415 . S
C780 C779 1.355 . S
C780 C782 1.419 . S
C781 C776 1.425 . S
C781 C778 1.409 . S
C781 C779 1.415 . S
C782 H772 0.930 . S
C782 C780 1.419 . S
C782 C783 1.362 . S
C783 H773 0.930 . S
C783 C776 1.409 . S
C783 C782 1.362 . S
H784 C790 0.930 . S
H785 C793 0.930 . S
H786 C794 0.930 . S
H787 C795 0.930 . S
H788 C798 0.930 . S
H789 C799 0.930 . S
C790 H784 0.930 . S
C790 C791 1.355 . S
C790 C792 1.415 . S
C791 C790 1.355 . S
C791 C793 1.419 . S
C792 C790 1.415 . S
C792 C797 1.425 . S
C792 C799 1.409 . S
C793 H785 0.930 . S
C793 C791 1.419 . S
C793 C794 1.362 . S
C794 H786 0.930 . S
C794 C793 1.362 . S
C794 C797 1.409 . S
C795 H787 0.930 . S
C795 C796 1.355 . S
C795 C797 1.415 . S
C796 C795 1.355 . S
C796 C798 1.419 . S
C797 C792 1.425 . S
C797 C794 1.409 . S
C797 C795 1.415 . S
C798 H788 0.930 . S
C798 C796 1.419 . S
C798 C799 1.362 . S
C799 H789 0.930 . S
C799 C792 1.409 . S
C799 C798 1.362 . S
H800 C806 0.930 . S
H801 C809 0.930 . S
H802 C810 0.930 . S
H803 C811 0.930 . S
H804 C814 0.930 . S
H805 C815 0.930 . S
C806 H800 0.930 . S
C806 C807 1.355 . S
C806 C808 1.415 . S
C807 C806 1.355 . S
C807 C809 1.419 . S
C808 C806 1.415 . S
C808 C813 1.425 . S
C808 C815 1.409 . S
C809 H801 0.930 . S
C809 C807 1.419 . S
C809 C810 1.362 . S
C810 H802 0.930 . S
C810 C809 1.362 . S
C810 C813 1.409 . S
C811 H803 0.930 . S
C811 C812 1.355 . S
C811 C813 1.415 . S
C812 C811 1.355 . S
C812 C814 1.419 . S
C813 C808 1.425 . S
C813 C810 1.409 . S
C813 C811 1.415 . S
C814 H804 0.930 . S
C814 C812 1.419 . S
C814 C815 1.362 . S
C815 H805 0.930 . S
C815 C808 1.409 . S
C815 C814 1.362 . S
H816 C822 0.930 . S
H817 C825 0.930 . S
H818 C826 0.930 . S
H819 C827 0.930 . S
H820 C830 0.930 . S
H821 C831 0.930 . S
C822 H816 0.930 . S
C822 C823 1.355 . S
C822 C824 1.415 . S
C823 C822 1.355 . S
C823 C825 1.419 . S
C824 C822 1.415 . S
C824 C829 1.425 . S
C824 C831 1.409 . S
C825 H817 0.930 . S
C825 C823 1.419 . S
C825 C826 1.362 . S
C826 H818 0.930 . S
C826 C825 1.362 . S
C826 C829 1.409 . S
C827 H819 0.930 . S
C827 C828 1.355 . S
C827 C829 1.415 . S
C828 C827 1.355 . S
C828 C830 1.419 . S
C829 C824 1.425 . S
C829 C826 1.409 . S
C829 C827 1.415 . S
C830 H820 0.930 . S
C830 C828 1.419 . S
C830 C831 1.362 . S
C831 H821 0.930 . S
C831 C824 1.409 . S
C831 C830 1.362 . S
H832 C838 0.930 . S
H833 C841 0.930 . S
H834 C842 0.930 . S
H835 C843 0.930 . S
H836 C846 0.930 . S
H837 C847 0.930 . S
C838 H832 0.930 . S
C838 C839 1.355 . S
C838 C840 1.415 . S
C839 C838 1.355 . S
C839 C841 1.419 . S
C840 C838 1.415 . S
C840 C845 1.425 . S
C840 C847 1.409 . S
C841 H833 0.930 . S
C841 C839 1.419 . S
C841 C842 1.362 . S
C842 H834 0.930 . S
C842 C841 1.362 . S
C842 C845 1.409 . S
C843 H835 0.930 . S
C843 C844 1.355 . S
C843 C845 1.415 . S
C844 C843 1.355 . S
C844 C846 1.419 . S
C845 C840 1.425 . S
C845 C842 1.409 . S
C845 C843 1.415 . S
C846 H836 0.930 . S
C846 C844 1.419 . S
C846 C847 1.362 . S
C847 H837 0.930 . S
C847 C840 1.409 . S
C847 C846 1.362 . S
H848 C854 0.930 . S
H849 C857 0.930 . S
H850 C858 0.930 . S
H851 C859 0.930 . S
H852 C862 0.930 . S
H853 C863 0.930 . S
C854 H848 0.930 . S
C854 C855 1.355 . S
C854 C856 1.415 . S
C855 C854 1.355 . S
C855 C857 1.419 . S
C856 C854 1.415 . S
C856 C861 1.425 . S
C856 C863 1.409 . S
C857 H849 0.930 . S
C857 C855 1.419 . S
C857 C858 1.362 . S
C858 H850 0.930 . S
C858 C857 1.362 . S
C858 C861 1.409 . S
C859 H851 0.930 . S
C859 C860 1.355 . S
C859 C861 1.415 . S
C860 C859 1.355 . S
C860 C862 1.419 . S
C861 C856 1.425 . S
C861 C858 1.409 . S
C861 C859 1.415 . S
C862 H852 0.930 . S
C862 C860 1.419 . S
C862 C863 1.362 . S
C863 H853 0.930 . S
C863 C856 1.409 . S
C863 C862 1.362 . S
H864 C870 0.930 . S
H865 C873 0.930 . S
H866 C874 0.930 . S
H867 C875 0.930 . S
H868 C878 0.930 . S
H869 C879 0.930 . S
C870 H864 0.930 . S
C870 C871 1.355 . S
C870 C872 1.415 . S
C871 C870 1.355 . S
C871 C873 1.419 . S
C872 C870 1.415 . S
C872 C877 1.425 . S
C872 C879 1.409 . S
C873 H865 0.930 . S
C873 C871 1.419 . S
C873 C874 1.362 . S
C874 H866 0.930 . S
C874 C873 1.362 . S
C874 C877 1.409 . S
C875 H867 0.930 . S
C875 C876 1.355 . S
C875 C877 1.415 . S
C876 C875 1.355 . S
C876 C878 1.419 . S
C877 C872 1.425 . S
C877 C874 1.409 . S
C877 C875 1.415 . S
C878 H868 0.930 . S
C878 C876 1.419 . S
C878 C879 1.362 . S
C879 H869 0.930 . S
C879 C872 1.409 . S
C879 C878 1.362 . S
H880 C886 0.930 . S
H881 C889 0.930 1_655 S
H882 C890 0.930 . S
H883 C891 0.930 . S
H884 C894 0.930 . S
H885 C895 0.930 . S
C886 H880 0.930 . S
C886 C887 1.355 . S
C886 C888 1.415 . S
C887 C886 1.355 . S
C887 C889 1.419 . S
C888 C886 1.415 . S
C888 C893 1.425 . S
C888 C895 1.409 . S
C889 H881 0.930 1_455 S
C889 C887 1.419 . S
C889 C890 1.362 . S
C890 H882 0.930 . S
C890 C889 1.362 . S
C890 C893 1.409 . S
C891 H883 0.930 . S
C891 C892 1.355 . S
C891 C893 1.415 . S
C892 C891 1.355 . S
C892 C894 1.419 . S
C893 C888 1.425 . S
C893 C890 1.409 . S
C893 C891 1.415 . S
C894 H884 0.930 . S
C894 C892 1.419 . S
C894 C895 1.362 . S
C895 H885 0.930 . S
C895 C888 1.409 . S
C895 C894 1.362 . S
H896 C902 0.930 . S
H897 C905 0.930 . S
H898 C906 0.930 . S
H899 C907 0.930 . S
H900 C910 0.930 . S
H901 C911 0.930 . S
C902 H896 0.930 . S
C902 C903 1.355 . S
C902 C904 1.415 . S
C903 C902 1.355 . S
C903 C905 1.419 . S
C904 C902 1.415 . S
C904 C909 1.425 . S
C904 C911 1.409 . S
C905 H897 0.930 . S
C905 C903 1.419 . S
C905 C906 1.362 . S
C906 H898 0.930 . S
C906 C905 1.362 . S
C906 C909 1.409 . S
C907 H899 0.930 . S
C907 C908 1.355 . S
C907 C909 1.415 . S
C908 C907 1.355 . S
C908 C910 1.419 . S
C909 C904 1.425 . S
C909 C906 1.409 . S
C909 C907 1.415 . S
C910 H900 0.930 . S
C910 C908 1.419 . S
C910 C911 1.362 . S
C911 H901 0.930 . S
C911 C904 1.409 . S
C911 C910 1.362 . S
H912 C918 0.930 . S
H913 C921 0.930 . S
H914 C922 0.930 . S
H915 C923 0.930 . S
H916 C926 0.930 . S
H917 C927 0.930 . S
C918 H912 0.930 . S
C918 C919 1.355 . S
C918 C920 1.415 . S
C919 C918 1.355 . S
C919 C921 1.419 . S
C920 C918 1.415 . S
C920 C925 1.425 . S
C920 C927 1.409 . S
C921 H913 0.930 . S
C921 C919 1.419 . S
C921 C922 1.362 . S
C922 H914 0.930 . S
C922 C921 1.362 . S
C922 C925 1.409 . S
C923 H915 0.930 . S
C923 C924 1.355 . S
C923 C925 1.415 . S
C924 C923 1.355 . S
C924 C926 1.419 . S
C925 C920 1.425 . S
C925 C922 1.409 . S
C925 C923 1.415 . S
C926 H916 0.930 . S
C926 C924 1.419 . S
C926 C927 1.362 . S
C927 H917 0.930 . S
C927 C920 1.409 . S
C927 C926 1.362 . S
H928 C934 0.930 . S
H929 C937 0.930 . S
H930 C938 0.930 . S
H931 C939 0.930 . S
H932 C942 0.930 . S
H933 C943 0.930 . S
C934 H928 0.930 . S
C934 C935 1.355 . S
C934 C936 1.415 . S
C935 C934 1.355 . S
C935 C937 1.419 . S
C936 C934 1.415 . S
C936 C941 1.425 . S
C936 C943 1.409 . S
C937 H929 0.930 . S
C937 C935 1.419 . S
C937 C938 1.362 . S
C938 H930 0.930 . S
C938 C937 1.362 . S
C938 C941 1.409 . S
C939 H931 0.930 . S
C939 C940 1.355 . S
C939 C941 1.415 . S
C940 C939 1.355 . S
C940 C942 1.419 . S
C941 C936 1.425 . S
C941 C938 1.409 . S
C941 C939 1.415 . S
C942 H932 0.930 . S
C942 C940 1.419 . S
C942 C943 1.362 . S
C943 H933 0.930 . S
C943 C936 1.409 . S
C943 C942 1.362 . S
H944 C950 0.930 . S
H945 C953 0.930 . S
H946 C954 0.948 . S
H947 C955 0.930 . S
H948 C958 0.930 . S
H949 C959 0.948 . S
C950 H944 0.930 . S
C950 C951 1.355 1_455 S
C950 C952 1.415 . S
C951 C950 1.355 1_655 S
C951 C953 1.419 . S
C952 C950 1.415 . S
C952 C957 1.425 1_465 S
C952 C959 1.417 . S
C953 H945 0.930 . S
C953 C951 1.419 . S
C953 C954 1.337 1_565 S
C954 H946 0.948 . S
C954 C953 1.337 1_545 S
C954 C957 1.417 . S
C955 H947 0.930 . S
C955 C956 1.355 1_655 S
C955 C957 1.415 . S
C956 C955 1.355 1_455 S
C956 C958 1.419 . S
C957 C952 1.425 1_645 S
C957 C954 1.417 . S
C957 C955 1.415 . S
C958 H948 0.930 . S
C958 C956 1.419 . S
C958 C959 1.337 1_545 S
C959 H949 0.948 . S
C959 C952 1.417 . S
C959 C958 1.337 1_565 S
H960 C966 0.930 . S
H961 C969 0.930 . S
H962 C970 0.930 . S
H963 C971 0.930 . S
H964 C974 0.930 . S
H965 C975 0.930 . S
C966 H960 0.930 . S
C966 C967 1.355 . S
C966 C968 1.415 . S
C967 C966 1.355 . S
C967 C969 1.419 . S
C968 C966 1.415 . S
C968 C973 1.425 . S
C968 C975 1.409 . S
C969 H961 0.930 . S
C969 C967 1.419 . S
C969 C970 1.362 . S
C970 H962 0.930 . S
C970 C969 1.362 . S
C970 C973 1.409 . S
C971 H963 0.930 . S
C971 C972 1.355 . S
C971 C973 1.415 . S
C972 C971 1.355 . S
C972 C974 1.419 . S
C973 C968 1.425 . S
C973 C970 1.409 . S
C973 C971 1.415 . S
C974 H964 0.930 . S
C974 C972 1.419 . S
C974 C975 1.362 . S
C975 H965 0.930 . S
C975 C968 1.409 . S
C975 C974 1.362 . S
H976 C982 0.930 1_556 S
H977 C985 0.930 . S
H978 C986 0.930 . S
H979 C987 0.930 1_554 S
H980 C990 0.930 . S
H981 C991 0.930 . S
C982 H976 0.930 1_554 S
C982 C983 1.355 . S
C982 C984 1.412 1_544 S
C983 C982 1.355 . S
C983 C985 1.419 . S
C984 C982 1.412 1_566 S
C984 C989 1.425 1_566 S
C984 C991 1.412 . S
C985 H977 0.930 . S
C985 C983 1.419 . S
C985 C986 1.362 . S
C986 H978 0.930 . S
C986 C985 1.362 . S
C986 C989 1.412 . S
C987 H979 0.930 1_556 S
C987 C988 1.355 . S
C987 C989 1.412 1_566 S
C988 C987 1.355 . S
C988 C990 1.419 . S
C989 C984 1.425 1_544 S
C989 C986 1.412 . S
C989 C987 1.412 1_544 S
C990 H980 0.930 . S
C990 C988 1.419 . S
C990 C991 1.362 . S
C991 H981 0.930 . S
C991 C984 1.412 . S
C991 C990 1.362 . S
H992 C998 0.930 . S
H993 C1001 0.930 . S
H994 C1002 0.930 . S
H995 C1003 0.930 . S
H996 C1006 0.930 . S
H997 C1007 0.930 . S
C998 H992 0.930 . S
C998 C999 1.355 . S
C998 C1000 1.415 . S
C999 C998 1.355 . S
C999 C1001 1.419 . S
C1000 C998 1.415 . S
C1000 C1005 1.425 . S
C1000 C1007 1.409 . S
C1001 H993 0.930 . S
C1001 C999 1.419 . S
C1001 C1002 1.362 . S
C1002 H994 0.930 . S
C1002 C1001 1.362 . S
C1002 C1005 1.409 . S
C1003 H995 0.930 . S
C1003 C1004 1.355 . S
C1003 C1005 1.415 . S
C1004 C1003 1.355 . S
C1004 C1006 1.419 . S
C1005 C1000 1.425 . S
C1005 C1002 1.409 . S
C1005 C1003 1.415 . S
C1006 H996 0.930 . S
C1006 C1004 1.419 . S
C1006 C1007 1.362 . S
C1007 H997 0.930 . S
C1007 C1000 1.409 . S
C1007 C1006 1.362 . S
H1008 C1014 0.930 . S
H1009 C1017 0.930 . S
H1010 C1018 0.930 . S
H1011 C1019 0.930 . S
H1012 C1022 0.930 . S
H1013 C1023 0.930 . S
C1014 H1008 0.930 . S
C1014 C1015 1.355 . S
C1014 C1016 1.415 . S
C1015 C1014 1.355 . S
C1015 C1017 1.419 . S
C1016 C1014 1.415 . S
C1016 C1021 1.425 1_565 S
C1016 C1023 1.409 . S
C1017 H1009 0.930 . S
C1017 C1015 1.419 . S
C1017 C1018 1.362 1_565 S
C1018 H1010 0.930 . S
C1018 C1017 1.362 1_545 S
C1018 C1021 1.409 . S
C1019 H1011 0.930 . S
C1019 C1020 1.355 . S
C1019 C1021 1.415 . S
C1020 C1019 1.355 . S
C1020 C1022 1.419 . S
C1021 C1016 1.425 1_545 S
C1021 C1018 1.409 . S
C1021 C1019 1.415 . S
C1022 H1012 0.930 . S
C1022 C1020 1.419 . S
C1022 C1023 1.362 1_545 S
C1023 H1013 0.930 . S
C1023 C1016 1.409 . S
C1023 C1022 1.362 1_565 S
H1024 C1030 0.930 . S
H1025 C1033 0.930 . S
H1026 C1034 0.930 . S
H1027 C1035 0.930 . S
H1028 C1038 0.930 . S
H1029 C1039 0.930 . S
C1030 H1024 0.930 . S
C1030 C1031 1.355 . S
C1030 C1032 1.415 . S
C1031 C1030 1.355 . S
C1031 C1033 1.419 . S
C1032 C1030 1.415 . S
C1032 C1037 1.425 . S
C1032 C1039 1.409 . S
C1033 H1025 0.930 . S
C1033 C1031 1.419 . S
C1033 C1034 1.362 . S
C1034 H1026 0.930 . S
C1034 C1033 1.362 . S
C1034 C1037 1.409 . S
C1035 H1027 0.930 . S
C1035 C1036 1.355 . S
C1035 C1037 1.415 . S
C1036 C1035 1.355 . S
C1036 C1038 1.419 . S
C1037 C1032 1.425 . S
C1037 C1034 1.409 . S
C1037 C1035 1.415 . S
C1038 H1028 0.930 . S
C1038 C1036 1.419 . S
C1038 C1039 1.362 . S
C1039 H1029 0.930 . S
C1039 C1032 1.409 . S
C1039 C1038 1.362 . S
H1040 C1046 0.930 . S
H1041 C1049 0.930 . S
H1042 C1050 0.930 . S
H1043 C1051 0.930 . S
H1044 C1054 0.930 . S
H1045 C1055 0.930 . S
C1046 H1040 0.930 . S
C1046 C1047 1.355 1_554 S
C1046 C1048 1.415 . S
C1047 C1046 1.355 1_556 S
C1047 C1049 1.419 1_655 S
C1048 C1046 1.415 . S
C1048 C1053 1.425 1_644 S
C1048 C1055 1.409 1_545 S
C1049 H1041 0.930 . S
C1049 C1047 1.419 1_455 S
C1049 C1050 1.362 . S
C1050 H1042 0.930 . S
C1050 C1049 1.362 . S
C1050 C1053 1.409 1_545 S
C1051 H1043 0.930 . S
C1051 C1052 1.355 1_556 S
C1051 C1053 1.415 . S
C1052 C1051 1.355 1_554 S
C1052 C1054 1.419 1_455 S
C1053 C1048 1.425 1_466 S
C1053 C1050 1.409 1_565 S
C1053 C1051 1.415 . S
C1054 H1044 0.930 . S
C1054 C1052 1.419 1_655 S
C1054 C1055 1.362 . S
C1055 H1045 0.930 . S
C1055 C1048 1.409 1_565 S
C1055 C1054 1.362 . S
H1056 C1062 0.930 . S
H1057 C1065 0.930 . S
H1058 C1066 0.930 . S
H1059 C1067 0.930 . S
H1060 C1070 0.930 . S
H1061 C1071 0.930 . S
C1062 H1056 0.930 . S
C1062 C1063 1.355 . S
C1062 C1064 1.415 . S
C1063 C1062 1.355 . S
C1063 C1065 1.419 . S
C1064 C1062 1.415 . S
C1064 C1069 1.425 . S
C1064 C1071 1.409 . S
C1065 H1057 0.930 . S
C1065 C1063 1.419 . S
C1065 C1066 1.362 . S
C1066 H1058 0.930 . S
C1066 C1065 1.362 . S
C1066 C1069 1.409 . S
C1067 H1059 0.930 . S
C1067 C1068 1.355 . S
C1067 C1069 1.415 . S
C1068 C1067 1.355 . S
C1068 C1070 1.419 . S
C1069 C1064 1.425 . S
C1069 C1066 1.409 . S
C1069 C1067 1.415 . S
C1070 H1060 0.930 . S
C1070 C1068 1.419 . S
C1070 C1071 1.362 . S
C1071 H1061 0.930 . S
C1071 C1064 1.409 . S
C1071 C1070 1.362 . S
H1072 C1078 0.930 . S
H1073 C1081 0.930 . S
H1074 C1082 0.930 . S
H1075 C1083 0.930 . S
H1076 C1086 0.930 . S
H1077 C1087 0.930 . S
C1078 H1072 0.930 . S
C1078 C1079 1.355 . S
C1078 C1080 1.415 . S
C1079 C1078 1.355 . S
C1079 C1081 1.419 . S
C1080 C1078 1.415 . S
C1080 C1085 1.425 . S
C1080 C1087 1.409 . S
C1081 H1073 0.930 . S
C1081 C1079 1.419 . S
C1081 C1082 1.362 . S
C1082 H1074 0.930 . S
C1082 C1081 1.362 . S
C1082 C1085 1.409 . S
C1083 H1075 0.930 . S
C1083 C1084 1.355 . S
C1083 C1085 1.415 . S
C1084 C1083 1.355 . S
C1084 C1086 1.419 . S
C1085 C1080 1.425 . S
C1085 C1082 1.409 . S
C1085 C1083 1.415 . S
C1086 H1076 0.930 . S
C1086 C1084 1.419 . S
C1086 C1087 1.362 . S
C1087 H1077 0.930 . S
C1087 C1080 1.409 . S
C1087 C1086 1.362 . S
H1088 C1094 0.930 . S
H1089 C1097 0.930 . S
H1090 C1098 0.930 . S
H1091 C1099 0.930 . S
H1092 C1102 0.930 . S
H1093 C1103 0.930 . S
C1094 H1088 0.930 . S
C1094 C1095 1.355 . S
C1094 C1096 1.415 . S
C1095 C1094 1.355 . S
C1095 C1097 1.419 . S
C1096 C1094 1.415 . S
C1096 C1101 1.425 . S
C1096 C1103 1.409 . S
C1097 H1089 0.930 . S
C1097 C1095 1.419 . S
C1097 C1098 1.362 . S
C1098 H1090 0.930 . S
C1098 C1097 1.362 . S
C1098 C1101 1.409 . S
C1099 H1091 0.930 . S
C1099 C1100 1.355 . S
C1099 C1101 1.415 . S
C1100 C1099 1.355 . S
C1100 C1102 1.419 . S
C1101 C1096 1.425 . S
C1101 C1098 1.409 . S
C1101 C1099 1.415 . S
C1102 H1092 0.930 . S
C1102 C1100 1.419 . S
C1102 C1103 1.362 . S
C1103 H1093 0.930 . S
C1103 C1096 1.409 . S
C1103 C1102 1.362 . S
H1104 C1110 0.930 . S
H1105 C1113 0.930 . S
H1106 C1114 0.930 . S
H1107 C1115 0.930 . S
H1108 C1118 0.930 . S
H1109 C1119 0.930 . S
C1110 H1104 0.930 . S
C1110 C1111 1.355 . S
C1110 C1112 1.415 . S
C1111 C1110 1.355 . S
C1111 C1113 1.419 . S
C1112 C1110 1.415 . S
C1112 C1117 1.425 . S
C1112 C1119 1.409 . S
C1113 H1105 0.930 . S
C1113 C1111 1.419 . S
C1113 C1114 1.362 . S
C1114 H1106 0.930 . S
C1114 C1113 1.362 . S
C1114 C1117 1.409 . S
C1115 H1107 0.930 . S
C1115 C1116 1.355 . S
C1115 C1117 1.415 . S
C1116 C1115 1.355 . S
C1116 C1118 1.419 . S
C1117 C1112 1.425 . S
C1117 C1114 1.409 . S
C1117 C1115 1.415 . S
C1118 H1108 0.930 . S
C1118 C1116 1.419 . S
C1118 C1119 1.362 . S
C1119 H1109 0.930 . S
C1119 C1112 1.409 . S
C1119 C1118 1.362 . S
H1120 C1126 0.930 . S
H1121 C1129 0.930 . S
H1122 C1130 0.930 . S
H1123 C1131 0.930 . S
H1124 C1134 0.930 . S
H1125 C1135 0.930 . S
C1126 H1120 0.930 . S
C1126 C1127 1.355 . S
C1126 C1128 1.415 . S
C1127 C1126 1.355 . S
C1127 C1129 1.419 . S
C1128 C1126 1.415 . S
C1128 C1133 1.425 1_554 S
C1128 C1135 1.409 . S
C1129 H1121 0.930 . S
C1129 C1127 1.419 . S
C1129 C1130 1.362 1_554 S
C1130 H1122 0.930 . S
C1130 C1129 1.362 1_556 S
C1130 C1133 1.409 . S
C1131 H1123 0.930 . S
C1131 C1132 1.355 . S
C1131 C1133 1.415 . S
C1132 C1131 1.355 . S
C1132 C1134 1.419 . S
C1133 C1128 1.425 1_556 S
C1133 C1130 1.409 . S
C1133 C1131 1.415 . S
C1134 H1124 0.930 . S
C1134 C1132 1.419 . S
C1134 C1135 1.362 1_556 S
C1135 H1125 0.930 . S
C1135 C1128 1.409 . S
C1135 C1134 1.362 1_554 S
H1136 C1142 0.930 . S
H1137 C1145 0.930 . S
H1138 C1146 0.930 . S
H1139 C1147 0.930 . S
H1140 C1150 0.930 . S
H1141 C1151 0.930 . S
C1142 H1136 0.930 . S
C1142 C1143 1.355 1_455 S
C1142 C1144 1.415 . S
C1143 C1142 1.355 1_655 S
C1143 C1145 1.419 . S
C1144 C1142 1.415 . S
C1144 C1149 1.425 1_455 S
C1144 C1151 1.409 . S
C1145 H1137 0.930 . S
C1145 C1143 1.419 . S
C1145 C1146 1.362 . S
C1146 H1138 0.930 . S
C1146 C1145 1.362 . S
C1146 C1149 1.409 . S
C1147 H1139 0.930 . S
C1147 C1148 1.355 1_655 S
C1147 C1149 1.415 . S
C1148 C1147 1.355 1_455 S
C1148 C1150 1.419 . S
C1149 C1144 1.425 1_655 S
C1149 C1146 1.409 . S
C1149 C1147 1.415 . S
C1150 H1140 0.930 . S
C1150 C1148 1.419 . S
C1150 C1151 1.362 . S
C1151 H1141 0.930 . S
C1151 C1144 1.409 . S
C1151 C1150 1.362 . S
H1152 C1158 0.930 . S
H1153 C1161 0.930 . S
H1154 C1162 0.930 . S
H1155 C1163 0.930 . S
H1156 C1166 0.930 . S
H1157 C1167 0.930 . S
C1158 H1152 0.930 . S
C1158 C1159 1.355 1_654 S
C1158 C1160 1.415 . S
C1159 C1158 1.355 1_456 S
C1159 C1161 1.419 . S
C1160 C1158 1.415 . S
C1160 C1165 1.425 1_654 S
C1160 C1167 1.409 . S
C1161 H1153 0.930 . S
C1161 C1159 1.419 . S
C1161 C1162 1.362 . S
C1162 H1154 0.930 . S
C1162 C1161 1.362 . S
C1162 C1165 1.409 . S
C1163 H1155 0.930 . S
C1163 C1164 1.355 1_456 S
C1163 C1165 1.415 . S
C1164 C1163 1.355 1_654 S
C1164 C1166 1.419 . S
C1165 C1160 1.425 1_456 S
C1165 C1162 1.409 . S
C1165 C1163 1.415 . S
C1166 H1156 0.930 . S
C1166 C1164 1.419 . S
C1166 C1167 1.362 . S
C1167 H1157 0.930 . S
C1167 C1160 1.409 . S
C1167 C1166 1.362 . S
H1168 C1174 0.930 . S
H1169 C1177 0.930 . S
H1170 C1178 0.930 . S
H1171 C1179 0.930 . S
H1172 C1182 0.930 . S
H1173 C1183 0.930 . S
C1174 H1168 0.930 . S
C1174 C1175 1.355 . S
C1174 C1176 1.415 . S
C1175 C1174 1.355 . S
C1175 C1177 1.419 . S
C1176 C1174 1.415 . S
C1176 C1181 1.425 . S
C1176 C1183 1.409 . S
C1177 H1169 0.930 . S
C1177 C1175 1.419 . S
C1177 C1178 1.362 . S
C1178 H1170 0.930 . S
C1178 C1177 1.362 . S
C1178 C1181 1.409 . S
C1179 H1171 0.930 . S
C1179 C1180 1.355 . S
C1179 C1181 1.415 . S
C1180 C1179 1.355 . S
C1180 C1182 1.419 . S
C1181 C1176 1.425 . S
C1181 C1178 1.409 . S
C1181 C1179 1.415 . S
C1182 H1172 0.930 . S
C1182 C1180 1.419 . S
C1182 C1183 1.362 . S
C1183 H1173 0.930 . S
C1183 C1176 1.409 . S
C1183 C1182 1.362 . S
H1184 C1190 0.930 . S
H1185 C1193 0.930 . S
H1186 C1194 0.930 . S
H1187 C1195 0.930 . S
H1188 C1198 0.930 . S
H1189 C1199 0.930 . S
C1190 H1184 0.930 . S
C1190 C1191 1.355 . S
C1190 C1192 1.415 . S
C1191 C1190 1.355 . S
C1191 C1193 1.419 . S
C1192 C1190 1.415 . S
C1192 C1197 1.425 . S
C1192 C1199 1.409 . S
C1193 H1185 0.930 . S
C1193 C1191 1.419 . S
C1193 C1194 1.362 . S
C1194 H1186 0.930 . S
C1194 C1193 1.362 . S
C1194 C1197 1.409 . S
C1195 H1187 0.930 . S
C1195 C1196 1.355 . S
C1195 C1197 1.415 . S
C1196 C1195 1.355 . S
C1196 C1198 1.419 . S
C1197 C1192 1.425 . S
C1197 C1194 1.409 . S
C1197 C1195 1.415 . S
C1198 H1188 0.930 . S
C1198 C1196 1.419 . S
C1198 C1199 1.362 . S
C1199 H1189 0.930 . S
C1199 C1192 1.409 . S
C1199 C1198 1.362 . S
H1200 C1206 0.930 . S
H1201 C1209 0.930 . S
H1202 C1210 0.930 . S
H1203 C1211 0.930 . S
H1204 C1214 0.930 . S
H1205 C1215 0.930 . S
C1206 H1200 0.930 . S
C1206 C1207 1.355 . S
C1206 C1208 1.415 . S
C1207 C1206 1.355 . S
C1207 C1209 1.419 . S
C1208 C1206 1.415 . S
C1208 C1213 1.425 . S
C1208 C1215 1.409 . S
C1209 H1201 0.930 . S
C1209 C1207 1.419 . S
C1209 C1210 1.362 . S
C1210 H1202 0.930 . S
C1210 C1209 1.362 . S
C1210 C1213 1.409 . S
C1211 H1203 0.930 . S
C1211 C1212 1.355 . S
C1211 C1213 1.415 . S
C1212 C1211 1.355 . S
C1212 C1214 1.419 . S
C1213 C1208 1.425 . S
C1213 C1210 1.409 . S
C1213 C1211 1.415 . S
C1214 H1204 0.930 . S
C1214 C1212 1.419 . S
C1214 C1215 1.362 . S
C1215 H1205 0.930 . S
C1215 C1208 1.409 . S
C1215 C1214 1.362 . S
H1216 C1222 0.930 . S
H1217 C1225 0.930 . S
H1218 C1226 0.930 . S
H1219 C1227 0.930 . S
H1220 C1230 0.930 . S
H1221 C1231 0.930 . S
C1222 H1216 0.930 . S
C1222 C1223 1.355 . S
C1222 C1224 1.415 . S
C1223 C1222 1.355 . S
C1223 C1225 1.419 . S
C1224 C1222 1.415 . S
C1224 C1229 1.425 . S
C1224 C1231 1.409 . S
C1225 H1217 0.930 . S
C1225 C1223 1.419 . S
C1225 C1226 1.362 . S
C1226 H1218 0.930 . S
C1226 C1225 1.362 . S
C1226 C1229 1.409 . S
C1227 H1219 0.930 . S
C1227 C1228 1.355 . S
C1227 C1229 1.415 . S
C1228 C1227 1.355 . S
C1228 C1230 1.419 . S
C1229 C1224 1.425 . S
C1229 C1226 1.409 . S
C1229 C1227 1.415 . S
C1230 H1220 0.930 . S
C1230 C1228 1.419 . S
C1230 C1231 1.362 . S
C1231 H1221 0.930 . S
C1231 C1224 1.409 . S
C1231 C1230 1.362 . S
H1232 C1238 0.930 . S
H1233 C1241 0.930 . S
H1234 C1242 0.930 . S
H1235 C1243 0.930 . S
H1236 C1246 0.930 . S
H1237 C1247 0.930 . S
C1238 H1232 0.930 . S
C1238 C1239 1.355 . S
C1238 C1240 1.415 . S
C1239 C1238 1.355 . S
C1239 C1241 1.419 . S
C1240 C1238 1.415 . S
C1240 C1245 1.425 . S
C1240 C1247 1.409 . S
C1241 H1233 0.930 . S
C1241 C1239 1.419 . S
C1241 C1242 1.362 . S
C1242 H1234 0.930 . S
C1242 C1241 1.362 . S
C1242 C1245 1.409 . S
C1243 H1235 0.930 . S
C1243 C1244 1.355 . S
C1243 C1245 1.415 . S
C1244 C1243 1.355 . S
C1244 C1246 1.419 . S
C1245 C1240 1.425 . S
C1245 C1242 1.409 . S
C1245 C1243 1.415 . S
C1246 H1236 0.930 . S
C1246 C1244 1.419 . S
C1246 C1247 1.362 . S
C1247 H1237 0.930 . S
C1247 C1240 1.409 . S
C1247 C1246 1.362 . S
H1248 C1254 0.930 . S
H1249 C1257 0.930 . S
H1250 C1258 0.930 . S
H1251 C1259 0.930 . S
H1252 C1262 0.930 . S
H1253 C1263 0.930 . S
C1254 H1248 0.930 . S
C1254 C1255 1.355 . S
C1254 C1256 1.415 . S
C1255 C1254 1.355 . S
C1255 C1257 1.419 . S
C1256 C1254 1.415 . S
C1256 C1261 1.425 . S
C1256 C1263 1.409 . S
C1257 H1249 0.930 . S
C1257 C1255 1.419 . S
C1257 C1258 1.362 . S
C1258 H1250 0.930 . S
C1258 C1257 1.362 . S
C1258 C1261 1.409 . S
C1259 H1251 0.930 . S
C1259 C1260 1.355 . S
C1259 C1261 1.415 . S
C1260 C1259 1.355 . S
C1260 C1262 1.419 . S
C1261 C1256 1.425 . S
C1261 C1258 1.409 . S
C1261 C1259 1.415 . S
C1262 H1252 0.930 . S
C1262 C1260 1.419 . S
C1262 C1263 1.362 . S
C1263 H1253 0.930 . S
C1263 C1256 1.409 . S
C1263 C1262 1.362 . S
H1264 C1270 0.930 . S
H1265 C1273 0.930 . S
H1266 C1274 0.930 . S
H1267 C1275 0.930 . S
H1268 C1278 0.930 . S
H1269 C1279 0.930 . S
C1270 H1264 0.930 . S
C1270 C1271 1.355 . S
C1270 C1272 1.415 . S
C1271 C1270 1.355 . S
C1271 C1273 1.419 . S
C1272 C1270 1.415 . S
C1272 C1277 1.425 . S
C1272 C1279 1.409 . S
C1273 H1265 0.930 . S
C1273 C1271 1.419 . S
C1273 C1274 1.362 . S
C1274 H1266 0.930 . S
C1274 C1273 1.362 . S
C1274 C1277 1.409 . S
C1275 H1267 0.930 . S
C1275 C1276 1.355 . S
C1275 C1277 1.415 . S
C1276 C1275 1.355 . S
C1276 C1278 1.419 . S
C1277 C1272 1.425 . S
C1277 C1274 1.409 . S
C1277 C1275 1.415 . S
C1278 H1268 0.930 . S
C1278 C1276 1.419 . S
C1278 C1279 1.362 . S
C1279 H1269 0.930 . S
C1279 C1272 1.409 . S
C1279 C1278 1.362 . S
H1280 C1286 0.930 . S
H1281 C1289 0.930 . S
H1282 C1290 0.930 . S
H1283 C1291 0.930 . S
H1284 C1294 0.930 . S
H1285 C1295 0.930 . S
C1286 H1280 0.930 . S
C1286 C1287 1.355 . S
C1286 C1288 1.415 . S
C1287 C1286 1.355 . S
C1287 C1289 1.419 . S
C1288 C1286 1.415 . S
C1288 C1293 1.425 . S
C1288 C1295 1.409 . S
C1289 H1281 0.930 . S
C1289 C1287 1.419 . S
C1289 C1290 1.362 . S
C1290 H1282 0.930 . S
C1290 C1289 1.362 . S
C1290 C1293 1.409 . S
C1291 H1283 0.930 . S
C1291 C1292 1.355 . S
C1291 C1293 1.415 . S
C1292 C1291 1.355 . S
C1292 C1294 1.419 . S
C1293 C1288 1.425 . S
C1293 C1290 1.409 . S
C1293 C1291 1.415 . S
C1294 H1284 0.930 . S
C1294 C1292 1.419 . S
C1294 C1295 1.362 . S
C1295 H1285 0.930 . S
C1295 C1288 1.409 . S
C1295 C1294 1.362 . S
H1296 C1302 0.930 . S
H1297 C1305 0.930 . S
H1298 C1306 0.930 . S
H1299 C1307 0.930 . S
H1300 C1310 0.930 . S
H1301 C1311 0.930 . S
C1302 H1296 0.930 . S
C1302 C1303 1.355 . S
C1302 C1304 1.415 . S
C1303 C1302 1.355 . S
C1303 C1305 1.419 . S
C1304 C1302 1.415 . S
C1304 C1309 1.425 . S
C1304 C1311 1.409 . S
C1305 H1297 0.930 . S
C1305 C1303 1.419 . S
C1305 C1306 1.362 . S
C1306 H1298 0.930 . S
C1306 C1305 1.362 . S
C1306 C1309 1.409 . S
C1307 H1299 0.930 . S
C1307 C1308 1.355 . S
C1307 C1309 1.415 . S
C1308 C1307 1.355 . S
C1308 C1310 1.419 . S
C1309 C1304 1.425 . S
C1309 C1306 1.409 . S
C1309 C1307 1.415 . S
C1310 H1300 0.930 . S
C1310 C1308 1.419 . S
C1310 C1311 1.362 . S
C1311 H1301 0.930 . S
C1311 C1304 1.409 . S
C1311 C1310 1.362 . S
H1312 C1318 0.930 . S
H1313 C1321 0.930 . S
H1314 C1322 0.930 . S
H1315 C1323 0.930 . S
H1316 C1326 0.930 . S
H1317 C1327 0.930 . S
C1318 H1312 0.930 . S
C1318 C1319 1.355 . S
C1318 C1320 1.415 . S
C1319 C1318 1.355 . S
C1319 C1321 1.419 . S
C1320 C1318 1.415 . S
C1320 C1325 1.425 . S
C1320 C1327 1.409 . S
C1321 H1313 0.930 . S
C1321 C1319 1.419 . S
C1321 C1322 1.362 . S
C1322 H1314 0.930 . S
C1322 C1321 1.362 . S
C1322 C1325 1.409 . S
C1323 H1315 0.930 . S
C1323 C1324 1.355 . S
C1323 C1325 1.415 . S
C1324 C1323 1.355 . S
C1324 C1326 1.419 . S
C1325 C1320 1.425 . S
C1325 C1322 1.409 . S
C1325 C1323 1.415 . S
C1326 H1316 0.930 . S
C1326 C1324 1.419 . S
C1326 C1327 1.362 . S
C1327 H1317 0.930 . S
C1327 C1320 1.409 . S
C1327 C1326 1.362 . S
H1328 C1334 0.930 . S
H1329 C1337 0.930 . S
H1330 C1338 0.930 . S
H1331 C1339 0.930 . S
H1332 C1342 0.930 . S
H1333 C1343 0.930 . S
C1334 H1328 0.930 . S
C1334 C1335 1.355 . S
C1334 C1336 1.415 . S
C1335 C1334 1.355 . S
C1335 C1337 1.419 . S
C1336 C1334 1.415 . S
C1336 C1341 1.425 . S
C1336 C1343 1.409 . S
C1337 H1329 0.930 . S
C1337 C1335 1.419 . S
C1337 C1338 1.362 . S
C1338 H1330 0.930 . S
C1338 C1337 1.362 . S
C1338 C1341 1.409 . S
C1339 H1331 0.930 . S
C1339 C1340 1.355 . S
C1339 C1341 1.415 . S
C1340 C1339 1.355 . S
C1340 C1342 1.419 . S
C1341 C1336 1.425 . S
C1341 C1338 1.409 . S
C1341 C1339 1.415 . S
C1342 H1332 0.930 . S
C1342 C1340 1.419 . S
C1342 C1343 1.362 . S
C1343 H1333 0.930 . S
C1343 C1336 1.409 . S
C1343 C1342 1.362 . S
H1344 C1350 0.930 . S
H1345 C1353 0.930 . S
H1346 C1354 0.930 . S
H1347 C1355 0.930 . S
H1348 C1358 0.930 . S
H1349 C1359 0.930 . S
C1350 H1344 0.930 . S
C1350 C1351 1.355 . S
C1350 C1352 1.415 . S
C1351 C1350 1.355 . S
C1351 C1353 1.419 . S
C1352 C1350 1.415 . S
C1352 C1357 1.425 . S
C1352 C1359 1.409 . S
C1353 H1345 0.930 . S
C1353 C1351 1.419 . S
C1353 C1354 1.362 . S
C1354 H1346 0.930 . S
C1354 C1353 1.362 . S
C1354 C1357 1.409 . S
C1355 H1347 0.930 . S
C1355 C1356 1.355 . S
C1355 C1357 1.415 . S
C1356 C1355 1.355 . S
C1356 C1358 1.419 . S
C1357 C1352 1.425 . S
C1357 C1354 1.409 . S
C1357 C1355 1.415 . S
C1358 H1348 0.930 . S
C1358 C1356 1.419 . S
C1358 C1359 1.362 . S
C1359 H1349 0.930 . S
C1359 C1352 1.409 . S
C1359 C1358 1.362 . S
H1360 C1366 0.930 . S
H1361 C1369 0.930 . S
H1362 C1370 0.930 . S
H1363 C1371 0.930 . S
H1364 C1374 0.930 . S
H1365 C1375 0.930 . S
C1366 H1360 0.930 . S
C1366 C1367 1.355 . S
C1366 C1368 1.415 . S
C1367 C1366 1.355 . S
C1367 C1369 1.419 . S
C1368 C1366 1.415 . S
C1368 C1373 1.425 . S
C1368 C1375 1.409 . S
C1369 H1361 0.930 . S
C1369 C1367 1.419 . S
C1369 C1370 1.362 . S
C1370 H1362 0.930 . S
C1370 C1369 1.362 . S
C1370 C1373 1.409 . S
C1371 H1363 0.930 . S
C1371 C1372 1.355 . S
C1371 C1373 1.415 . S
C1372 C1371 1.355 . S
C1372 C1374 1.419 . S
C1373 C1368 1.425 . S
C1373 C1370 1.409 . S
C1373 C1371 1.415 . S
C1374 H1364 0.930 . S
C1374 C1372 1.419 . S
C1374 C1375 1.362 . S
C1375 H1365 0.930 . S
C1375 C1368 1.409 . S
C1375 C1374 1.362 . S
H1376 C1382 0.930 . S
H1377 C1385 0.930 . S
H1378 C1386 0.930 . S
H1379 C1387 0.930 . S
H1380 C1390 0.930 . S
H1381 C1391 0.930 . S
C1382 H1376 0.930 . S
C1382 C1383 1.355 . S
C1382 C1384 1.415 . S
C1383 C1382 1.355 . S
C1383 C1385 1.419 . S
C1384 C1382 1.415 . S
C1384 C1389 1.425 . S
C1384 C1391 1.409 . S
C1385 H1377 0.930 . S
C1385 C1383 1.419 . S
C1385 C1386 1.362 . S
C1386 H1378 0.930 . S
C1386 C1385 1.362 . S
C1386 C1389 1.409 . S
C1387 H1379 0.930 . S
C1387 C1388 1.355 . S
C1387 C1389 1.415 . S
C1388 C1387 1.355 . S
C1388 C1390 1.419 . S
C1389 C1384 1.425 . S
C1389 C1386 1.409 . S
C1389 C1387 1.415 . S
C1390 H1380 0.930 . S
C1390 C1388 1.419 . S
C1390 C1391 1.362 . S
C1391 H1381 0.930 . S
C1391 C1384 1.409 . S
C1391 C1390 1.362 . S
H1392 C1398 0.930 . S
H1393 C1401 0.930 . S
H1394 C1402 0.930 . S
H1395 C1403 0.930 . S
H1396 C1406 0.930 . S
H1397 C1407 0.930 . S
C1398 H1392 0.930 . S
C1398 C1399 1.355 . S
C1398 C1400 1.415 . S
C1399 C1398 1.355 . S
C1399 C1401 1.419 . S
C1400 C1398 1.415 . S
C1400 C1405 1.425 . S
C1400 C1407 1.409 . S
C1401 H1393 0.930 . S
C1401 C1399 1.419 . S
C1401 C1402 1.362 . S
C1402 H1394 0.930 . S
C1402 C1401 1.362 . S
C1402 C1405 1.409 . S
C1403 H1395 0.930 . S
C1403 C1404 1.355 . S
C1403 C1405 1.415 . S
C1404 C1403 1.355 . S
C1404 C1406 1.419 . S
C1405 C1400 1.425 . S
C1405 C1402 1.409 . S
C1405 C1403 1.415 . S
C1406 H1396 0.930 . S
C1406 C1404 1.419 . S
C1406 C1407 1.362 . S
C1407 H1397 0.930 . S
C1407 C1400 1.409 . S
C1407 C1406 1.362 . S
H1408 C1414 0.930 . S
H1409 C1417 0.930 . S
H1410 C1418 0.930 . S
H1411 C1419 0.930 . S
H1412 C1422 0.930 . S
H1413 C1423 0.930 . S
C1414 H1408 0.930 . S
C1414 C1415 1.355 . S
C1414 C1416 1.415 . S
C1415 C1414 1.355 . S
C1415 C1417 1.419 . S
C1416 C1414 1.415 . S
C1416 C1421 1.425 . S
C1416 C1423 1.409 . S
C1417 H1409 0.930 . S
C1417 C1415 1.419 . S
C1417 C1418 1.362 . S
C1418 H1410 0.930 . S
C1418 C1417 1.362 . S
C1418 C1421 1.409 . S
C1419 H1411 0.930 . S
C1419 C1420 1.355 . S
C1419 C1421 1.415 . S
C1420 C1419 1.355 . S
C1420 C1422 1.419 . S
C1421 C1416 1.425 . S
C1421 C1418 1.409 . S
C1421 C1419 1.415 . S
C1422 H1412 0.930 . S
C1422 C1420 1.419 . S
C1422 C1423 1.362 . S
C1423 H1413 0.930 . S
C1423 C1416 1.409 . S
C1423 C1422 1.362 . S
H1424 C1430 0.930 . S
H1425 C1433 0.930 . S
H1426 C1434 0.930 . S
H1427 C1435 0.930 . S
H1428 C1438 0.930 . S
H1429 C1439 0.930 . S
C1430 H1424 0.930 . S
C1430 C1431 1.355 . S
C1430 C1432 1.415 . S
C1431 C1430 1.355 . S
C1431 C1433 1.419 . S
C1432 C1430 1.415 . S
C1432 C1437 1.425 . S
C1432 C1439 1.409 . S
C1433 H1425 0.930 . S
C1433 C1431 1.419 . S
C1433 C1434 1.362 . S
C1434 H1426 0.930 . S
C1434 C1433 1.362 . S
C1434 C1437 1.409 . S
C1435 H1427 0.930 . S
C1435 C1436 1.355 . S
C1435 C1437 1.415 . S
C1436 C1435 1.355 . S
C1436 C1438 1.419 . S
C1437 C1432 1.425 . S
C1437 C1434 1.409 . S
C1437 C1435 1.415 . S
C1438 H1428 0.930 . S
C1438 C1436 1.419 . S
C1438 C1439 1.362 . S
C1439 H1429 0.930 . S
C1439 C1432 1.409 . S
C1439 C1438 1.362 . S
C423 C122 0.967 . S
C428 C10 0.955 . S
C439 C23 0.955 . S
C444 C343 0.974 . S
C455 C148 0.847 . S
C460 C36 0.975 . S
C471 C317 0.837 . S
C476 C49 0.978 . S
C487 C62 0.962 . S
C492 C200 0.995 . S
C503 C369 0.960 . S
C508 C75 0.956 . S
C519 C88 0.977 . S
C524 C174 0.839 . S
C535 C395 0.826 . S
C540 C101 0.990 . S
C551 C18 0.886 . S
C556 C114 0.990 . S
C567 C127 0.992 . S
C572 C239 0.844 . S
C583 C44 0.914 . S
C588 C140 0.960 . S
C599 C153 0.955 . S
C604 C213 0.976 . S
C615 C166 0.992 . S
C620 C96 0.858 . S
C631 C265 0.881 . S
C636 C179 0.991 . S
C647 C192 0.965 . S
C652 C70 0.993 . S
C663 C291 0.993 . S
C668 C205 0.965 . S
C679 C330 0.895 . S
C684 C218 0.989 . S
C695 C135 0.994 . S
C700 C231 0.958 . S
C711 C244 0.966 . S
C716 C356 0.990 . S
C727 C109 0.946 . S
C732 C257 0.957 . S
C743 C408 0.887 . S
C748 C270 0.965 . S
C759 C283 0.956 . S
C764 C161 0.947 . S
C775 C382 0.873 . S
C780 C296 0.968 . S
C791 C187 0.948 . S
C796 C309 0.956 . S
C807 C226 0.944 . S
C812 C322 0.981 . S
C823 C335 0.983 . S
C828 C31 0.936 . S
C839 C348 0.992 . S
C844 C252 0.857 . S
C855 C361 0.992 . S
C860 C5 0.838 . S
C871 C304 0.989 . S
C876 C374 0.956 . S
C887 C387 0.956 . S
C892 C57 0.958 . S
C903 C400 0.988 . S
C908 C278 0.902 . S
C919 C413 0.974 . S
C924 C83 0.972 . S
C935 C312 1.219 . S
C940 C0 1.219 . S
C951 C13 1.318 . S
C956 C117 1.318 . S
C967 C26 1.223 . S
C972 C338 1.223 . S
C983 C39 1.217 . S
C988 C143 1.217 . S
C999 C52 1.320 . S
C1004 C364 1.320 . S
C1015 C65 1.301 . S
C1020 C169 1.301 . S
C1031 C390 1.220 . S
C1036 C78 1.220 . S
C1047 C91 1.217 . S
C1052 C195 1.217 . S
C1063 C104 1.287 . S
C1068 C208 1.287 . S
C1079 C130 1.318 . S
C1084 C234 1.318 . S
C1095 C260 1.266 . S
C1100 C156 1.266 . S
C1111 C286 1.223 . S
C1116 C182 1.223 . S
C1127 C221 1.319 . S
C1132 C325 1.319 . S
C1143 C351 1.320 . S
C1148 C247 1.320 . S
C1159 C273 1.300 . S
C1164 C377 1.300 . S
C1175 C403 1.311 . S
C1180 C299 1.311 . S
C1191 C281 1.579 . S
C1196 C8 1.570 . S
C1207 C294 1.556 . S
C1212 C21 1.557 . S
C1223 C34 1.602 . S
C1228 C307 1.590 . S
C1239 C268 1.557 . S
C1244 C47 1.556 . S
C1255 C255 1.642 . S
C1260 C60 1.639 . S
C1271 C216 1.624 . S
C1276 C73 1.633 . S
C1287 C86 1.640 . S
C1292 C229 1.642 . S
C1303 C242 1.639 . S
C1308 C99 1.642 . S
C1319 C385 1.637 . S
C1324 C112 1.641 . S
C1335 C398 1.564 . S
C1340 C125 1.572 . S
C1351 C411 1.564 . S
C1356 C138 1.559 . S
C1367 C151 1.638 . S
C1372 C372 1.632 . S
C1383 C359 1.635 . S
C1388 C164 1.627 . S
C1399 C320 1.607 . S
C1404 C177 1.618 . S
C1415 C333 1.633 . S
C1420 C190 1.624 . S
C1431 C346 1.632 . S
C1436 C203 1.624 . S
