# Generated by pormake.
# Topology mdf, (4)-cn, num edge types: 1
# Building blocks:
#     Node 0, Type 0, BuildingBlock: NAHDIM_clean_sbu_0, # of connection points: 4
#     Node 1, Type 0, BuildingBlock: NAHDIM_clean_sbu_0, # of connection points: 4
#     Node 2, Type 0, BuildingBlock: NAHDIM_clean_sbu_0, # of connection points: 4
#     Node 3, Type 0, BuildingBlock: NAHDIM_clean_sbu_0, # of connection points: 4
#     Node 4, Type 0, BuildingBlock: NAHDIM_clean_sbu_0, # of connection points: 4
#     Node 5, Type 0, BuildingBlock: NAHDIM_clean_sbu_0, # of connection points: 4
#     Node 6, Type 0, BuildingBlock: NAHDIM_clean_sbu_0, # of connection points: 4
#     Node 7, Type 0, BuildingBlock: NAHDIM_clean_sbu_0, # of connection points: 4
#     Edge 8, Type (0, 0), BuildingBlock: KIFKEQ_clean_linker_1, # of connection points: 2
#     Edge 9, Type (0, 0), BuildingBlock: KIFKEQ_clean_linker_1, # of connection points: 2
#     Edge 10, Type (0, 0), BuildingBlock: KIFKEQ_clean_linker_1, # of connection points: 2
#     Edge 11, Type (0, 0), BuildingBlock: KIFKEQ_clean_linker_1, # of connection points: 2
#     Edge 12, Type (0, 0), BuildingBlock: KIFKEQ_clean_linker_1, # of connection points: 2
#     Edge 13, Type (0, 0), BuildingBlock: KIFKEQ_clean_linker_1, # of connection points: 2
#     Edge 14, Type (0, 0), BuildingBlock: KIFKEQ_clean_linker_1, # of connection points: 2
#     Edge 15, Type (0, 0), BuildingBlock: KIFKEQ_clean_linker_1, # of connection points: 2
#     Edge 16, Type (0, 0), BuildingBlock: KIFKEQ_clean_linker_1, # of connection points: 2
#     Edge 17, Type (0, 0), BuildingBlock: KIFKEQ_clean_linker_1, # of connection points: 2
#     Edge 18, Type (0, 0), BuildingBlock: KIFKEQ_clean_linker_1, # of connection points: 2
#     Edge 19, Type (0, 0), BuildingBlock: KIFKEQ_clean_linker_1, # of connection points: 2
#     Edge 20, Type (0, 0), BuildingBlock: KIFKEQ_clean_linker_1, # of connection points: 2
#     Edge 21, Type (0, 0), BuildingBlock: KIFKEQ_clean_linker_1, # of connection points: 2
#     Edge 22, Type (0, 0), BuildingBlock: KIFKEQ_clean_linker_1, # of connection points: 2
#     Edge 23, Type (0, 0), BuildingBlock: KIFKEQ_clean_linker_1, # of connection points: 2
# Relax obj value: 0.050
# Max RMSD: 0.056
# Mean RMSD: 0.056
data_MOF--net-mdf--node1-NAHDIM_clean_sbu_0--edge1-KIFKEQ_clean_linker_1
_symmetry_space_group_name_H-M    P1
_symmetry_Int_Tables_number       1
_symmetry_cell_setting            triclinic
loop_
_symmetry_equiv_pos_as_xyz
'x, y, z'
_cell_length_a     35.781343
_cell_length_b     35.750037
_cell_length_c     15.105674
_cell_angle_alpha  90.015627
_cell_angle_beta   89.990811
_cell_angle_gamma 95.69385
loop_
_atom_site_label
_atom_site_type_symbol
_atom_site_fract_x
_atom_site_fract_y
_atom_site_fract_z
_atom_type_partial_charge
C0 C 0.22426 0.60263 0.48531 0.0
O1 O 0.21594 0.60803 0.40185 0.0
O2 O 0.28465 0.58285 0.31003 0.0
Zn3 Zn 0.26512 0.54679 0.40613 0.0
O4 O 0.22318 0.50908 0.36208 0.0
C5 C 0.33589 0.51356 0.40468 0.0
O6 O 0.33832 0.52793 0.32462 0.0
O7 O 0.24527 0.57716 0.50464 0.0
C8 C 0.23065 0.47941 0.32202 0.0
O9 O 0.2659 0.47414 0.30707 0.0
C10 C 0.27864 0.57768 0.22781 0.0
O11 O 0.25812 0.54726 0.20126 0.0
O12 O 0.30745 0.51858 0.45223 0.0
C13 C 0.40058 0.78129 0.51705 0.0
O14 O 0.38548 0.77951 0.59641 0.0
O15 O 0.42593 0.73186 0.70396 0.0
Zn16 Zn 0.46204 0.7513 0.60822 0.0
O17 O 0.49969 0.79242 0.65453 0.0
C18 C 0.50552 0.68854 0.62249 0.0
O19 O 0.50304 0.69675 0.70691 0.0
O20 O 0.43325 0.77089 0.50628 0.0
C21 C 0.52686 0.80462 0.6048 0.0
O22 O 0.52896 0.79056 0.52478 0.0
C23 C 0.4327 0.73655 0.78599 0.0
O24 O 0.46431 0.75546 0.81084 0.0
O25 O 0.48996 0.70832 0.56598 0.0
C26 C 0.26782 0.88978 0.00182 0.0
O27 O 0.27338 0.8783 0.92067 0.0
O28 O 0.21022 0.90532 0.8158 0.0
Zn29 Zn 0.22771 0.9433 0.90939 0.0
O30 O 0.26769 0.98192 0.86153 0.0
C31 C 0.16575 0.98587 0.88588 0.0
O32 O 0.1779 0.98452 0.80395 0.0
O33 O 0.24854 0.91735 0.01387 0.0
C34 C 0.2742 0.01326 0.90119 0.0
O35 O 0.25493 0.01948 0.97286 0.0
C36 C 0.22097 0.9082 0.73569 0.0
O37 O 0.24553 0.93626 0.71263 0.0
O38 O 0.18293 0.96965 0.94624 0.0
C39 C 0.10502 0.73972 0.97714 0.0
O40 O 0.12448 0.75334 0.04564 0.0
O41 O 0.07583 0.77007 0.18491 0.0
Zn42 Zn 0.04066 0.75601 0.08343 0.0
O43 O 0.00216 0.71349 0.1205 0.0
C44 C 0.02564 0.8348 0.06546 0.0
O45 O 0.05852 0.84228 0.1036 0.0
O46 O 0.0694 0.73873 0.97863 0.0
C47 C 0.96946 0.72004 0.14536 0.0
O48 O 0.96102 0.75496 0.14801 0.0
C49 C 0.06318 0.77537 0.26198 0.0
O50 O 0.02673 0.77096 0.27525 0.0
O51 O 0.01361 0.80082 0.0492 0.0
C52 C 0.72902 0.10727 0.0062 0.0
O53 O 0.71702 0.10885 0.9242 0.0
O54 O 0.79467 0.08797 0.82907 0.0
Zn55 Zn 0.77252 0.05407 0.9263 0.0
O56 O 0.72926 0.01892 0.87965 0.0
C57 C 0.84745 0.03225 0.96133 0.0
O58 O 0.85854 0.0649 0.92519 0.0
O59 O 0.75383 0.08538 0.02454 0.0
C60 C 0.73582 0.99117 0.83139 0.0
O61 O 0.7708 0.98626 0.81199 0.0
C62 C 0.77958 0.09114 0.75362 0.0
O63 O 0.74701 0.07221 0.73669 0.0
O64 O 0.81248 0.02263 0.97078 0.0
C65 C 0.89217 0.25961 0.98902 0.0
O66 O 0.87321 0.24711 0.05927 0.0
O67 O 0.92389 0.22263 0.18975 0.0
Zn68 Zn 0.95754 0.23922 0.08708 0.0
O69 O 0.99629 0.28104 0.12669 0.0
C70 C 0.97514 0.16135 0.05803 0.0
O71 O 0.94521 0.15155 0.10626 0.0
O72 O 0.92758 0.25864 0.98717 0.0
C73 C 0.02905 0.27409 0.15004 0.0
O74 O 0.03752 0.23917 0.14906 0.0
C75 C 0.93806 0.21176 0.26124 0.0
O76 O 0.97468 0.21162 0.26692 0.0
O77 O 0.98439 0.19595 0.04186 0.0
C78 C 0.77257 0.39343 0.49243 0.0
O79 O 0.77994 0.38646 0.40916 0.0
O80 O 0.71058 0.41504 0.31842 0.0
Zn81 Zn 0.73362 0.45064 0.41187 0.0
O82 O 0.77635 0.48593 0.36321 0.0
C83 C 0.66378 0.48603 0.42099 0.0
O84 O 0.65587 0.46731 0.3474 0.0
O85 O 0.75295 0.42017 0.51061 0.0
C86 C 0.76901 0.51359 0.31554 0.0
O87 O 0.73383 0.5175 0.29601 0.0
C88 C 0.72204 0.41423 0.23885 0.0
O89 O 0.75076 0.43755 0.21379 0.0
O90 O 0.69468 0.48245 0.46022 0.0
C91 C 0.60174 0.23745 0.4977 0.0
O92 O 0.62072 0.25806 0.55769 0.0
O93 O 0.57286 0.26734 0.70626 0.0
Zn94 Zn 0.53729 0.25137 0.60619 0.0
O95 O 0.49818 0.21023 0.64809 0.0
C96 C 0.50918 0.32532 0.60882 0.0
O97 O 0.52458 0.32754 0.68776 0.0
O98 O 0.56626 0.23118 0.50509 0.0
C99 C 0.46541 0.21727 0.67116 0.0
O100 O 0.45674 0.2521 0.66805 0.0
C101 C 0.5623 0.26689 0.78663 0.0
O102 O 0.5273 0.2551 0.80585 0.0
O103 O 0.51157 0.29595 0.56235 0.0
H104 H 0.36169 0.70282 0.75891 0.0
H105 H 0.44483 0.72851 0.96315 0.0
H106 H 0.32063 0.6684 0.86611 0.0
H107 H 0.40446 0.69304 0.06957 0.0
H108 H 0.31466 0.64743 0.25943 0.0
H109 H 0.34797 0.68992 0.15337 0.0
H110 H 0.31817 0.61027 0.94343 0.0
H111 H 0.28379 0.56852 0.04891 0.0
C112 C 0.37117 0.70117 0.82676 0.0
C113 C 0.40663 0.71815 0.85241 0.0
C114 C 0.34772 0.68126 0.88814 0.0
C115 C 0.35932 0.6776 0.97641 0.0
C116 C 0.39435 0.69561 0.00251 0.0
C117 C 0.41765 0.7158 0.94129 0.0
C118 C 0.31497 0.63916 0.19046 0.0
C119 C 0.29679 0.60449 0.16264 0.0
C120 C 0.33424 0.66344 0.1297 0.0
C121 C 0.33605 0.65345 0.03985 0.0
C122 C 0.31698 0.61917 0.01181 0.0
C123 C 0.29744 0.59506 0.07244 0.0
H124 H 0.42478 0.79155 0.34622 0.0
H125 H 0.32938 0.80287 0.51624 0.0
H126 H 0.3912 0.81621 0.22242 0.0
H127 H 0.29545 0.8267 0.39183 0.0
H128 H 0.26603 0.90982 0.17641 0.0
H129 H 0.29701 0.88219 0.30036 0.0
H130 H 0.33885 0.80083 0.12371 0.0
H131 H 0.3086 0.82905 0.99931 0.0
C132 C 0.39655 0.79907 0.35708 0.0
C133 C 0.37984 0.7954 0.44124 0.0
C134 C 0.37718 0.81296 0.2859 0.0
C135 C 0.34062 0.82345 0.29715 0.0
C136 C 0.32377 0.81939 0.38115 0.0
C137 C 0.34317 0.80555 0.4524 0.0
C138 C 0.28172 0.88595 0.16402 0.0
C139 C 0.28503 0.87179 0.07786 0.0
C140 C 0.29931 0.86995 0.23523 0.0
C141 C 0.32055 0.83937 0.22197 0.0
C142 C 0.32323 0.82476 0.13601 0.0
C143 C 0.3057 0.84081 0.06476 0.0
H144 H 0.13986 0.78841 0.25637 0.0
H145 H 0.04481 0.79279 0.43137 0.0
H146 H 0.18171 0.81468 0.37308 0.0
H147 H 0.08641 0.81978 0.54695 0.0
H148 H 0.17089 0.84622 0.76137 0.0
H149 H 0.13601 0.80839 0.64886 0.0
H150 H 0.19449 0.87525 0.44397 0.0
H151 H 0.23002 0.9124 0.55623 0.0
C152 C 0.12791 0.79479 0.31984 0.0
C153 C 0.08896 0.78877 0.33439 0.0
C154 C 0.15188 0.80998 0.38658 0.0
C155 C 0.13742 0.81948 0.46925 0.0
C156 C 0.09859 0.81233 0.48452 0.0
C157 C 0.07466 0.79711 0.41792 0.0
C158 C 0.17664 0.85255 0.69228 0.0
C159 C 0.20291 0.88263 0.66775 0.0
C160 C 0.1565 0.83097 0.62782 0.0
C161 C 0.1621 0.83909 0.53743 0.0
C162 C 0.18967 0.86802 0.51293 0.0
C163 C 0.2099 0.88951 0.57739 0.0
H164 H 0.07357 0.71222 0.82249 0.0
H165 H 0.17969 0.73047 0.96025 0.0
H166 H 0.10416 0.68168 0.70213 0.0
H167 H 0.21036 0.70025 0.83906 0.0
H168 H 0.23707 0.59985 0.66369 0.0
H169 H 0.20984 0.63605 0.77974 0.0
H170 H 0.14998 0.69395 0.58219 0.0
H171 H 0.17674 0.6574 0.46612 0.0
C172 C 0.10349 0.71002 0.82677 0.0
C173 C 0.12413 0.72356 0.90129 0.0
C174 C 0.12106 0.69271 0.75748 0.0
C175 C 0.15965 0.68841 0.76124 0.0
C176 C 0.18048 0.70271 0.8348 0.0
C177 C 0.16293 0.7202 0.90398 0.0
C178 C 0.21819 0.62037 0.64494 0.0
C179 C 0.20887 0.62554 0.55567 0.0
C180 C 0.2028 0.64131 0.71143 0.0
C181 C 0.17768 0.6678 0.69015 0.0
C182 C 0.16886 0.6734 0.60077 0.0
C183 C 0.18433 0.65255 0.53426 0.0
H184 H 0.84323 0.1394 0.77146 0.0
H185 H 0.76232 0.09386 0.57754 0.0
H186 H 0.87976 0.17272 0.65475 0.0
H187 H 0.79947 0.12626 0.46037 0.0
H188 H 0.8616 0.21073 0.27437 0.0
H189 H 0.82148 0.18605 0.39587 0.0
H190 H 0.91931 0.1558 0.53643 0.0
H191 H 0.95933 0.18133 0.41655 0.0
C192 C 0.83319 0.13656 0.70391 0.0
C193 C 0.80004 0.11371 0.68365 0.0
C194 C 0.85424 0.1555 0.63691 0.0
C195 C 0.84282 0.15182 0.548 0.0
C196 C 0.80895 0.13001 0.52817 0.0
C197 C 0.78773 0.11125 0.59533 0.0
C198 C 0.87452 0.19902 0.33152 0.0
C199 C 0.91366 0.19793 0.33574 0.0
C200 C 0.85151 0.18472 0.40096 0.0
C201 C 0.86715 0.16894 0.47597 0.0
C202 C 0.90634 0.16832 0.48042 0.0
C203 C 0.92931 0.18272 0.41127 0.0
H204 H 0.9227 0.28486 0.83174 0.0
H205 H 0.81792 0.27153 0.97622 0.0
H206 H 0.89183 0.31472 0.711 0.0
H207 H 0.78691 0.30105 0.85445 0.0
H208 H 0.76109 0.39927 0.67077 0.0
H209 H 0.78823 0.36421 0.78893 0.0
H210 H 0.84478 0.30138 0.59447 0.0
H211 H 0.81811 0.33679 0.47623 0.0
C212 C 0.893 0.28804 0.83751 0.0
C213 C 0.87283 0.276 0.91388 0.0
C214 C 0.87525 0.30495 0.76796 0.0
C215 C 0.83693 0.3103 0.7732 0.0
C216 C 0.81658 0.2977 0.84893 0.0
C217 C 0.83431 0.28063 0.91846 0.0
C218 C 0.77921 0.37789 0.65315 0.0
C219 C 0.78766 0.37103 0.56408 0.0
C220 C 0.79454 0.35762 0.72089 0.0
C221 C 0.81876 0.33011 0.70105 0.0
C222 C 0.82662 0.32275 0.61191 0.0
C223 C 0.8112 0.34294 0.54417 0.0
H224 H 0.67102 0.35395 0.27307 0.0
H225 H 0.7277 0.4162 0.05866 0.0
H226 H 0.6355 0.3135 0.16648 0.0
H227 H 0.69114 0.37689 0.95199 0.0
H228 H 0.63811 0.28578 0.77473 0.0
H229 H 0.67952 0.31676 0.8864 0.0
H230 H 0.58547 0.31725 0.06609 0.0
H231 H 0.5446 0.285 0.95594 0.0
C232 C 0.67584 0.35903 0.2031 0.0
C233 C 0.70197 0.38844 0.17425 0.0
C234 C 0.65534 0.33596 0.14192 0.0
C235 C 0.66013 0.34206 0.05042 0.0
C236 C 0.687 0.37095 0.02178 0.0
C237 C 0.70783 0.39372 0.083 0.0
C238 C 0.62641 0.29217 0.83849 0.0
C239 C 0.58803 0.28312 0.85634 0.0
C240 C 0.6501 0.31015 0.90236 0.0
C241 C 0.63587 0.31985 0.98521 0.0
C242 C 0.59763 0.3098 0.00366 0.0
C243 C 0.57406 0.29148 0.94017 0.0
H244 H 0.67266 0.15303 0.9899 0.0
H245 H 0.74818 0.11165 0.18173 0.0
H246 H 0.64342 0.18711 0.10665 0.0
H247 H 0.71856 0.14545 0.29867 0.0
H248 H 0.67758 0.23861 0.4718 0.0
H249 H 0.70996 0.20979 0.35107 0.0
H250 H 0.603 0.16984 0.2354 0.0
H251 H 0.57063 0.19883 0.35531 0.0
C252 C 0.68311 0.15127 0.0569 0.0
C253 C 0.7126 0.1294 0.07657 0.0
C254 C 0.66622 0.17066 0.12385 0.0
C255 C 0.67851 0.16877 0.21194 0.0
C256 C 0.70865 0.1477 0.23131 0.0
C257 C 0.72546 0.12816 0.16437 0.0
C258 C 0.66097 0.22382 0.4204 0.0
C259 C 0.62151 0.22093 0.42332 0.0
C260 C 0.67954 0.20717 0.35151 0.0
C261 C 0.65904 0.18754 0.28377 0.0
C262 C 0.61961 0.18515 0.28607 0.0
C263 C 0.60105 0.20156 0.35514 0.0
H264 H 0.39498 0.49025 0.31205 0.0
H265 H 0.34106 0.48164 0.56832 0.0
H266 H 0.43955 0.44713 0.3608 0.0
H267 H 0.38549 0.43831 0.61661 0.0
H268 H 0.4923 0.38774 0.69903 0.0
H269 H 0.4531 0.43579 0.6499 0.0
H270 H 0.4365 0.37925 0.39822 0.0
H271 H 0.47594 0.33129 0.44689 0.0
C272 C 0.39274 0.47935 0.37894 0.0
C273 C 0.36434 0.48928 0.4362 0.0
C274 C 0.41817 0.45448 0.40663 0.0
C275 C 0.41594 0.43921 0.49238 0.0
C276 C 0.38815 0.44988 0.55039 0.0
C277 C 0.36257 0.47456 0.52254 0.0
C278 C 0.48052 0.38566 0.63297 0.0
C279 C 0.48712 0.35557 0.57701 0.0
C280 C 0.4579 0.4131 0.60507 0.0
C281 C 0.4416 0.41123 0.52038 0.0
C282 C 0.44895 0.38166 0.46359 0.0
C283 C 0.47138 0.35407 0.49168 0.0
H284 H 0.7407 0.92926 0.72765 0.0
H285 H 0.66028 0.99295 0.85867 0.0
H286 H 0.68969 0.88509 0.67334 0.0
H287 H 0.60912 0.94901 0.80285 0.0
H288 H 0.53229 0.83829 0.76795 0.0
H289 H 0.58233 0.8839 0.82228 0.0
H290 H 0.63797 0.88193 0.56872 0.0
H291 H 0.58842 0.83593 0.51495 0.0
C292 C 0.71213 0.93397 0.74456 0.0
C293 C 0.70461 0.96466 0.79757 0.0
C294 C 0.68284 0.90874 0.71295 0.0
C295 C 0.64529 0.91355 0.73353 0.0
C296 C 0.63774 0.94425 0.78657 0.0
C297 C 0.66707 0.96955 0.81816 0.0
C298 C 0.55515 0.84768 0.72373 0.0
C299 C 0.55641 0.83335 0.63719 0.0
C300 C 0.58374 0.87397 0.75474 0.0
C301 C 0.61424 0.88648 0.69996 0.0
C302 C 0.61519 0.87247 0.6131 0.0
C303 C 0.58663 0.84623 0.5821 0.0
H304 H 0.03486 0.17182 0.94572 0.0
H305 H 0.97038 0.0863 0.09979 0.0
H306 H 0.07738 0.12628 0.90116 0.0
H307 H 0.01326 0.04054 0.05481 0.0
H308 H 0.13054 0.99128 0.04599 0.0
H309 H 0.08077 0.03075 0.08297 0.0
H310 H 0.07874 0.06855 0.81167 0.0
H311 H 0.12851 0.02944 0.7747 0.0
C312 C 0.02956 0.14321 0.96955 0.0
C313 C 0.99932 0.13277 0.02667 0.0
C314 C 0.05383 0.11703 0.94353 0.0
C315 C 0.04863 0.07981 0.97436 0.0
C316 C 0.01807 0.0691 0.03044 0.0
C317 C 0.99348 0.09528 0.05589 0.0
C318 C 0.11929 0.00782 0.99413 0.0
C319 C 0.13379 0.00755 0.90763 0.0
C320 C 0.09059 0.03021 0.0152 0.0
C321 C 0.07607 0.05297 0.95034 0.0
C322 C 0.08975 0.05171 0.86331 0.0
C323 C 0.1182 0.02919 0.84214 0.0
H324 H 0.9766 0.64433 0.14497 0.0
H325 H 0.8977 0.72523 0.20147 0.0
H326 H 0.92873 0.59325 0.18252 0.0
H327 H 0.85032 0.67439 0.2404 0.0
H328 H 0.76224 0.57519 0.21242 0.0
H329 H 0.81127 0.62381 0.1692 0.0
H330 H 0.89341 0.56568 0.3095 0.0
H331 H 0.84436 0.51649 0.35147 0.0
C332 C 0.94913 0.65124 0.16573 0.0
C333 C 0.94095 0.68887 0.16992 0.0
C334 C 0.92177 0.62197 0.18763 0.0
C335 C 0.88563 0.62972 0.21401 0.0
C336 C 0.87764 0.66738 0.21885 0.0
C337 C 0.90494 0.69658 0.19706 0.0
C338 C 0.79077 0.57261 0.23373 0.0
C339 C 0.79933 0.54202 0.28576 0.0
C340 C 0.81886 0.60065 0.20939 0.0
C341 C 0.85622 0.59883 0.23653 0.0
C342 C 0.86497 0.56779 0.28692 0.0
C343 C 0.83682 0.53968 0.31131 0.0
H344 H 0.29181 0.08411 0.96593 0.0
H345 H 0.32099 0.00891 0.7586 0.0
H346 H 0.33823 0.13269 0.90957 0.0
H347 H 0.36719 0.05786 0.70144 0.0
H348 H 0.47371 0.14212 0.68658 0.0
H349 H 0.42779 0.09246 0.74161 0.0
H350 H 0.34785 0.17388 0.78098 0.0
H351 H 0.39377 0.22352 0.72739 0.0
C352 C 0.30808 0.07793 0.90823 0.0
C353 C 0.30266 0.04261 0.86679 0.0
C354 C 0.33455 0.10589 0.87558 0.0
C355 C 0.35633 0.09921 0.80083 0.0
C356 C 0.35111 0.06378 0.75967 0.0
C357 C 0.3245 0.03581 0.79216 0.0
C358 C 0.44632 0.14941 0.70691 0.0
C359 C 0.43747 0.18683 0.70284 0.0
C360 C 0.41994 0.12091 0.73799 0.0
C361 C 0.3842 0.12923 0.76594 0.0
C362 C 0.37532 0.16661 0.76121 0.0
C363 C 0.40161 0.19505 0.72999 0.0
H364 H 0.92384 0.04124 0.93775 0.0
H365 H 0.83362 0.96243 0.03445 0.0
H366 H 0.9682 0.99452 0.96151 0.0
H367 H 0.87802 0.91634 0.06035 0.0
H368 H 0.95549 0.82808 0.99282 0.0
H369 H 0.91408 0.87712 0.97008 0.0
H370 H 0.99892 0.95958 0.07563 0.0
H371 H 0.04087 0.91039 0.09705 0.0
C372 C 0.91352 0.01414 0.96501 0.0
C373 C 0.87509 0.00544 0.98339 0.0
C374 C 0.93901 0.98745 0.97905 0.0
C375 C 0.9266 0.95156 0.01194 0.0
C376 C 0.88839 0.94343 0.03312 0.0
C377 C 0.86295 0.96999 0.0189 0.0
C378 C 0.96548 0.85666 0.01084 0.0
C379 C 0.00145 0.86524 0.04722 0.0
C380 C 0.94158 0.88477 0.99843 0.0
C381 C 0.95296 0.9222 0.02217 0.0
C382 C 0.98932 0.93104 0.05643 0.0
C383 C 0.0133 0.90282 0.06897 0.0
H384 H 0.02313 0.35 0.14842 0.0
H385 H 0.09976 0.26781 0.21199 0.0
H386 H 0.07129 0.40044 0.18807 0.0
H387 H 0.14739 0.31801 0.25351 0.0
H388 H 0.23751 0.41554 0.22714 0.0
H389 H 0.18824 0.36705 0.18495 0.0
H390 H 0.10573 0.42888 0.31363 0.0
H391 H 0.15507 0.47804 0.35413 0.0
C392 C 0.05014 0.34268 0.17136 0.0
C393 C 0.05765 0.30487 0.17661 0.0
C394 C 0.07768 0.37159 0.19451 0.0
C395 C 0.1133 0.36331 0.22352 0.0
C396 C 0.12053 0.32545 0.22985 0.0
C397 C 0.09309 0.29662 0.20654 0.0
C398 C 0.20886 0.41892 0.24626 0.0
C399 C 0.20026 0.45063 0.29428 0.0
C400 C 0.18061 0.39095 0.22253 0.0
C401 C 0.14303 0.39388 0.2465 0.0
C402 C 0.13432 0.42589 0.29341 0.0
C403 C 0.16263 0.45399 0.31699 0.0
H404 H 0.51944 0.66618 0.45323 0.0
H405 H 0.53928 0.63952 0.72721 0.0
H406 H 0.55602 0.61556 0.40688 0.0
H407 H 0.5751 0.58844 0.68087 0.0
H408 H 0.67451 0.53315 0.56325 0.0
H409 H 0.63481 0.58061 0.61225 0.0
H410 H 0.55552 0.54757 0.40408 0.0
H411 H 0.5957 0.50055 0.35369 0.0
C412 C 0.53137 0.64936 0.50357 0.0
C413 C 0.52661 0.65704 0.59391 0.0
C414 C 0.55213 0.62017 0.477 0.0
C415 C 0.56857 0.59797 0.54016 0.0
C416 C 0.5633 0.60534 0.63049 0.0
C417 C 0.5426 0.63454 0.65705 0.0
C418 C 0.64851 0.53581 0.52819 0.0
C419 C 0.63837 0.51313 0.45431 0.0
C420 C 0.62563 0.56293 0.5566 0.0
C421 C 0.59201 0.56798 0.51197 0.0
C422 C 0.5815 0.54479 0.43912 0.0
C423 C 0.60443 0.51768 0.41059 0.0
loop_
_geom_bond_atom_site_label_1
_geom_bond_atom_site_label_2
_geom_bond_distance
_geom_bond_site_symmetry_2
_ccdc_geom_bond_type
C0 O1 1.160 . S
C0 O7 1.185 . S
O1 C0 1.160 . S
O2 Zn3 1.899 . S
O2 C10 1.284 . S
Zn3 O2 1.899 . S
Zn3 O4 2.032 . S
Zn3 O7 2.086 . S
Zn3 O12 1.977 . S
O4 Zn3 2.032 . S
O4 C8 1.278 . S
C5 O6 1.203 . S
C5 O12 1.267 . S
O6 C5 1.203 . S
O7 C0 1.185 . S
O7 Zn3 2.086 . S
C8 O4 1.278 . S
C8 O9 1.211 . S
O9 C8 1.211 . S
C10 O2 1.284 . S
C10 O11 1.273 . S
O11 C10 1.273 . S
O12 Zn3 1.977 . S
O12 C5 1.267 . S
C13 O14 1.160 . S
C13 O20 1.185 . S
O14 C13 1.160 . S
O15 Zn16 1.899 . S
O15 C23 1.284 . S
Zn16 O15 1.899 . S
Zn16 O17 2.032 . S
Zn16 O20 2.086 . S
Zn16 O25 1.977 . S
O17 Zn16 2.032 . S
O17 C21 1.278 . S
C18 O19 1.203 . S
C18 O25 1.267 . S
O19 C18 1.203 . S
O20 C13 1.185 . S
O20 Zn16 2.086 . S
C21 O17 1.278 . S
C21 O22 1.211 . S
O22 C21 1.211 . S
C23 O15 1.284 . S
C23 O24 1.273 . S
O24 C23 1.273 . S
O25 Zn16 1.977 . S
O25 C18 1.267 . S
C26 O27 1.160 1_554 S
C26 O33 1.185 . S
O27 C26 1.160 1_556 S
O28 Zn29 1.899 . S
O28 C36 1.284 . S
Zn29 O28 1.899 . S
Zn29 O30 2.032 . S
Zn29 O33 2.086 1_556 S
Zn29 O38 1.977 . S
O30 Zn29 2.032 . S
O30 C34 1.278 1_565 S
C31 O32 1.202 1_545 S
C31 O38 1.265 1_545 S
O32 C31 1.202 1_565 S
O33 C26 1.185 . S
O33 Zn29 2.086 1_554 S
C34 O30 1.278 1_545 S
C34 O35 1.211 . S
O35 C34 1.211 . S
C36 O28 1.284 . S
C36 O37 1.273 . S
O37 C36 1.273 . S
O38 Zn29 1.977 . S
O38 C31 1.265 1_565 S
C39 O40 1.160 1_556 S
C39 O46 1.185 . S
O40 C39 1.160 1_554 S
O41 Zn42 1.899 . S
O41 C49 1.284 . S
Zn42 O41 1.899 . S
Zn42 O43 2.032 . S
Zn42 O46 2.086 1_554 S
Zn42 O51 1.977 . S
O43 Zn42 2.032 . S
O43 C47 1.278 1_455 S
C44 O45 1.202 1_655 S
C44 O51 1.265 1_655 S
O45 C44 1.202 1_455 S
O46 C39 1.185 . S
O46 Zn42 2.086 1_556 S
C47 O43 1.278 1_655 S
C47 O48 1.211 . S
O48 C47 1.211 . S
C49 O41 1.284 . S
C49 O50 1.273 . S
O50 C49 1.273 . S
O51 Zn42 1.977 . S
O51 C44 1.265 1_455 S
C52 O53 1.160 1_554 S
C52 O59 1.185 . S
O53 C52 1.160 1_556 S
O54 Zn55 1.899 . S
O54 C62 1.284 . S
Zn55 O54 1.899 . S
Zn55 O56 2.032 . S
Zn55 O59 2.086 1_556 S
Zn55 O64 1.977 . S
O56 Zn55 2.032 . S
O56 C60 1.278 1_545 S
C57 O58 1.202 1_565 S
C57 O64 1.265 1_565 S
O58 C57 1.202 1_545 S
O59 C52 1.185 . S
O59 Zn55 2.086 1_554 S
C60 O56 1.278 1_565 S
C60 O61 1.211 . S
O61 C60 1.211 . S
C62 O54 1.284 . S
C62 O63 1.273 . S
O63 C62 1.273 . S
O64 Zn55 1.977 . S
O64 C57 1.265 1_545 S
C65 O66 1.160 1_556 S
C65 O72 1.185 . S
O66 C65 1.160 1_554 S
O67 Zn68 1.899 . S
O67 C75 1.284 . S
Zn68 O67 1.899 . S
Zn68 O69 2.032 . S
Zn68 O72 2.086 1_554 S
Zn68 O77 1.977 . S
O69 Zn68 2.032 . S
O69 C73 1.278 1_655 S
C70 O71 1.202 1_455 S
C70 O77 1.265 1_455 S
O71 C70 1.202 1_655 S
O72 C65 1.185 . S
O72 Zn68 2.086 1_556 S
C73 O69 1.278 1_455 S
C73 O74 1.211 . S
O74 C73 1.211 . S
C75 O67 1.284 . S
C75 O76 1.273 . S
O76 C75 1.273 . S
O77 Zn68 1.977 . S
O77 C70 1.265 1_655 S
C78 O79 1.160 . S
C78 O85 1.185 . S
O79 C78 1.160 . S
O80 Zn81 1.899 . S
O80 C88 1.284 . S
Zn81 O80 1.899 . S
Zn81 O82 2.032 . S
Zn81 O85 2.086 . S
Zn81 O90 1.977 . S
O82 Zn81 2.032 . S
O82 C86 1.278 . S
C83 O84 1.203 . S
C83 O90 1.267 . S
O84 C83 1.203 . S
O85 C78 1.185 . S
O85 Zn81 2.086 . S
C86 O82 1.278 . S
C86 O87 1.211 . S
O87 C86 1.211 . S
C88 O80 1.284 . S
C88 O89 1.273 . S
O89 C88 1.273 . S
O90 Zn81 1.977 . S
O90 C83 1.267 . S
C91 O92 1.160 . S
C91 O98 1.185 . S
O92 C91 1.160 . S
O93 Zn94 1.899 . S
O93 C101 1.284 . S
Zn94 O93 1.899 . S
Zn94 O95 2.032 . S
Zn94 O98 2.086 . S
Zn94 O103 1.977 . S
O95 Zn94 2.032 . S
O95 C99 1.278 . S
C96 O97 1.203 . S
C96 O103 1.267 . S
O97 C96 1.203 . S
O98 C91 1.185 . S
O98 Zn94 2.086 . S
C99 O95 1.278 . S
C99 O100 1.211 . S
O100 C99 1.211 . S
C101 O93 1.284 . S
C101 O102 1.273 . S
O102 C101 1.273 . S
O103 Zn94 1.977 . S
O103 C96 1.267 . S
H104 C112 0.950 . S
H105 C117 0.950 . S
H106 C114 0.950 . S
H107 C116 0.950 1_554 S
H108 C118 0.950 . S
H109 C120 0.950 . S
H110 C122 0.950 1_556 S
H111 C123 0.950 . S
C112 H104 0.950 . S
C112 C113 1.386 . S
C112 C114 1.391 . S
C113 C112 1.386 . S
C113 C117 1.393 . S
C114 H106 0.950 . S
C114 C112 1.391 . S
C114 C115 1.400 . S
C115 C114 1.400 . S
C115 C116 1.398 . S
C115 C121 1.491 1_556 S
C116 H107 0.950 1_556 S
C116 C115 1.398 . S
C116 C117 1.391 . S
C117 H105 0.950 . S
C117 C113 1.393 . S
C117 C116 1.391 . S
C118 H108 0.950 . S
C118 C119 1.386 . S
C118 C120 1.391 . S
C119 C118 1.386 . S
C119 C123 1.393 . S
C120 H109 0.950 . S
C120 C118 1.391 . S
C120 C121 1.400 . S
C121 C115 1.491 1_554 S
C121 C120 1.400 . S
C121 C122 1.398 . S
C122 H110 0.950 1_554 S
C122 C121 1.398 . S
C122 C123 1.391 . S
C123 H111 0.950 . S
C123 C119 1.393 . S
C123 C122 1.391 . S
H124 C132 0.950 . S
H125 C137 0.950 . S
H126 C134 0.950 . S
H127 C136 0.950 . S
H128 C138 0.950 . S
H129 C140 0.950 . S
H130 C142 0.950 . S
H131 C143 0.950 . S
C132 H124 0.950 . S
C132 C133 1.386 . S
C132 C134 1.391 . S
C133 C132 1.386 . S
C133 C137 1.393 . S
C134 H126 0.950 . S
C134 C132 1.391 . S
C134 C135 1.400 . S
C135 C134 1.400 . S
C135 C136 1.398 . S
C135 C141 1.491 . S
C136 H127 0.950 . S
C136 C135 1.398 . S
C136 C137 1.391 . S
C137 H125 0.950 . S
C137 C133 1.393 . S
C137 C136 1.391 . S
C138 H128 0.950 . S
C138 C139 1.386 . S
C138 C140 1.391 . S
C139 C138 1.386 . S
C139 C143 1.393 . S
C140 H129 0.950 . S
C140 C138 1.391 . S
C140 C141 1.400 . S
C141 C135 1.491 . S
C141 C140 1.400 . S
C141 C142 1.398 . S
C142 H130 0.950 . S
C142 C141 1.398 . S
C142 C143 1.391 . S
C143 H131 0.950 . S
C143 C139 1.393 . S
C143 C142 1.391 . S
H144 C152 0.950 . S
H145 C157 0.950 . S
H146 C154 0.950 . S
H147 C156 0.950 . S
H148 C158 0.950 . S
H149 C160 0.950 . S
H150 C162 0.950 . S
H151 C163 0.950 . S
C152 H144 0.950 . S
C152 C153 1.386 . S
C152 C154 1.391 . S
C153 C152 1.386 . S
C153 C157 1.393 . S
C154 H146 0.950 . S
C154 C152 1.391 . S
C154 C155 1.400 . S
C155 C154 1.400 . S
C155 C156 1.398 . S
C155 C161 1.491 . S
C156 H147 0.950 . S
C156 C155 1.398 . S
C156 C157 1.391 . S
C157 H145 0.950 . S
C157 C153 1.393 . S
C157 C156 1.391 . S
C158 H148 0.950 . S
C158 C159 1.386 . S
C158 C160 1.391 . S
C159 C158 1.386 . S
C159 C163 1.393 . S
C160 H149 0.950 . S
C160 C158 1.391 . S
C160 C161 1.400 . S
C161 C155 1.491 . S
C161 C160 1.400 . S
C161 C162 1.398 . S
C162 H150 0.950 . S
C162 C161 1.398 . S
C162 C163 1.391 . S
C163 H151 0.950 . S
C163 C159 1.393 . S
C163 C162 1.391 . S
H164 C172 0.950 . S
H165 C177 0.950 . S
H166 C174 0.950 . S
H167 C176 0.950 . S
H168 C178 0.950 . S
H169 C180 0.950 . S
H170 C182 0.950 . S
H171 C183 0.950 . S
C172 H164 0.950 . S
C172 C173 1.386 . S
C172 C174 1.391 . S
C173 C172 1.386 . S
C173 C177 1.393 . S
C174 H166 0.950 . S
C174 C172 1.391 . S
C174 C175 1.400 . S
C175 C174 1.400 . S
C175 C176 1.398 . S
C175 C181 1.491 . S
C176 H167 0.950 . S
C176 C175 1.398 . S
C176 C177 1.391 . S
C177 H165 0.950 . S
C177 C173 1.393 . S
C177 C176 1.391 . S
C178 H168 0.950 . S
C178 C179 1.386 . S
C178 C180 1.391 . S
C179 C178 1.386 . S
C179 C183 1.393 . S
C180 H169 0.950 . S
C180 C178 1.391 . S
C180 C181 1.400 . S
C181 C175 1.491 . S
C181 C180 1.400 . S
C181 C182 1.398 . S
C182 H170 0.950 . S
C182 C181 1.398 . S
C182 C183 1.391 . S
C183 H171 0.950 . S
C183 C179 1.393 . S
C183 C182 1.391 . S
H184 C192 0.950 . S
H185 C197 0.950 . S
H186 C194 0.950 . S
H187 C196 0.950 . S
H188 C198 0.950 . S
H189 C200 0.950 . S
H190 C202 0.950 . S
H191 C203 0.950 . S
C192 H184 0.950 . S
C192 C193 1.386 . S
C192 C194 1.391 . S
C193 C192 1.386 . S
C193 C197 1.393 . S
C194 H186 0.950 . S
C194 C192 1.391 . S
C194 C195 1.400 . S
C195 C194 1.400 . S
C195 C196 1.398 . S
C195 C201 1.491 . S
C196 H187 0.950 . S
C196 C195 1.398 . S
C196 C197 1.391 . S
C197 H185 0.950 . S
C197 C193 1.393 . S
C197 C196 1.391 . S
C198 H188 0.950 . S
C198 C199 1.386 . S
C198 C200 1.391 . S
C199 C198 1.386 . S
C199 C203 1.393 . S
C200 H189 0.950 . S
C200 C198 1.391 . S
C200 C201 1.400 . S
C201 C195 1.491 . S
C201 C200 1.400 . S
C201 C202 1.398 . S
C202 H190 0.950 . S
C202 C201 1.398 . S
C202 C203 1.391 . S
C203 H191 0.950 . S
C203 C199 1.393 . S
C203 C202 1.391 . S
H204 C212 0.950 . S
H205 C217 0.950 . S
H206 C214 0.950 . S
H207 C216 0.950 . S
H208 C218 0.950 . S
H209 C220 0.950 . S
H210 C222 0.950 . S
H211 C223 0.950 . S
C212 H204 0.950 . S
C212 C213 1.386 . S
C212 C214 1.391 . S
C213 C212 1.386 . S
C213 C217 1.393 . S
C214 H206 0.950 . S
C214 C212 1.391 . S
C214 C215 1.400 . S
C215 C214 1.400 . S
C215 C216 1.398 . S
C215 C221 1.491 . S
C216 H207 0.950 . S
C216 C215 1.398 . S
C216 C217 1.391 . S
C217 H205 0.950 . S
C217 C213 1.393 . S
C217 C216 1.391 . S
C218 H208 0.950 . S
C218 C219 1.386 . S
C218 C220 1.391 . S
C219 C218 1.386 . S
C219 C223 1.393 . S
C220 H209 0.950 . S
C220 C218 1.391 . S
C220 C221 1.400 . S
C221 C215 1.491 . S
C221 C220 1.400 . S
C221 C222 1.398 . S
C222 H210 0.950 . S
C222 C221 1.398 . S
C222 C223 1.391 . S
C223 H211 0.950 . S
C223 C219 1.393 . S
C223 C222 1.391 . S
H224 C232 0.950 . S
H225 C237 0.950 . S
H226 C234 0.950 . S
H227 C236 0.950 1_556 S
H228 C238 0.950 . S
H229 C240 0.950 . S
H230 C242 0.950 1_554 S
H231 C243 0.950 . S
C232 H224 0.950 . S
C232 C233 1.386 . S
C232 C234 1.391 . S
C233 C232 1.386 . S
C233 C237 1.393 . S
C234 H226 0.950 . S
C234 C232 1.391 . S
C234 C235 1.400 . S
C235 C234 1.400 . S
C235 C236 1.398 . S
C235 C241 1.491 1_554 S
C236 H227 0.950 1_554 S
C236 C235 1.398 . S
C236 C237 1.391 . S
C237 H225 0.950 . S
C237 C233 1.393 . S
C237 C236 1.391 . S
C238 H228 0.950 . S
C238 C239 1.386 . S
C238 C240 1.391 . S
C239 C238 1.386 . S
C239 C243 1.393 . S
C240 H229 0.950 . S
C240 C238 1.391 . S
C240 C241 1.400 . S
C241 C235 1.491 1_556 S
C241 C240 1.400 . S
C241 C242 1.398 . S
C242 H230 0.950 1_556 S
C242 C241 1.398 . S
C242 C243 1.391 . S
C243 H231 0.950 . S
C243 C239 1.393 . S
C243 C242 1.391 . S
H244 C252 0.950 . S
H245 C257 0.950 . S
H246 C254 0.950 . S
H247 C256 0.950 . S
H248 C258 0.950 . S
H249 C260 0.950 . S
H250 C262 0.950 . S
H251 C263 0.950 . S
C252 H244 0.950 . S
C252 C253 1.386 . S
C252 C254 1.391 . S
C253 C252 1.386 . S
C253 C257 1.393 . S
C254 H246 0.950 . S
C254 C252 1.391 . S
C254 C255 1.400 . S
C255 C254 1.400 . S
C255 C256 1.398 . S
C255 C261 1.491 . S
C256 H247 0.950 . S
C256 C255 1.398 . S
C256 C257 1.391 . S
C257 H245 0.950 . S
C257 C253 1.393 . S
C257 C256 1.391 . S
C258 H248 0.950 . S
C258 C259 1.386 . S
C258 C260 1.391 . S
C259 C258 1.386 . S
C259 C263 1.393 . S
C260 H249 0.950 . S
C260 C258 1.391 . S
C260 C261 1.400 . S
C261 C255 1.491 . S
C261 C260 1.400 . S
C261 C262 1.398 . S
C262 H250 0.950 . S
C262 C261 1.398 . S
C262 C263 1.391 . S
C263 H251 0.950 . S
C263 C259 1.393 . S
C263 C262 1.391 . S
H264 C272 0.950 . S
H265 C277 0.950 . S
H266 C274 0.950 . S
H267 C276 0.950 . S
H268 C278 0.950 . S
H269 C280 0.950 . S
H270 C282 0.950 . S
H271 C283 0.950 . S
C272 H264 0.950 . S
C272 C273 1.386 . S
C272 C274 1.391 . S
C273 C272 1.386 . S
C273 C277 1.393 . S
C274 H266 0.950 . S
C274 C272 1.391 . S
C274 C275 1.400 . S
C275 C274 1.400 . S
C275 C276 1.398 . S
C275 C281 1.491 . S
C276 H267 0.950 . S
C276 C275 1.398 . S
C276 C277 1.391 . S
C277 H265 0.950 . S
C277 C273 1.393 . S
C277 C276 1.391 . S
C278 H268 0.950 . S
C278 C279 1.386 . S
C278 C280 1.391 . S
C279 C278 1.386 . S
C279 C283 1.393 . S
C280 H269 0.950 . S
C280 C278 1.391 . S
C280 C281 1.400 . S
C281 C275 1.491 . S
C281 C280 1.400 . S
C281 C282 1.398 . S
C282 H270 0.950 . S
C282 C281 1.398 . S
C282 C283 1.391 . S
C283 H271 0.950 . S
C283 C279 1.393 . S
C283 C282 1.391 . S
H284 C292 0.950 . S
H285 C297 0.950 1_545 S
H286 C294 0.950 . S
H287 C296 0.950 . S
H288 C298 0.950 . S
H289 C300 0.950 . S
H290 C302 0.950 . S
H291 C303 0.950 . S
C292 H284 0.950 . S
C292 C293 1.386 . S
C292 C294 1.391 . S
C293 C292 1.386 . S
C293 C297 1.393 . S
C294 H286 0.950 . S
C294 C292 1.391 . S
C294 C295 1.400 . S
C295 C294 1.400 . S
C295 C296 1.398 . S
C295 C301 1.491 . S
C296 H287 0.950 . S
C296 C295 1.398 . S
C296 C297 1.391 . S
C297 H285 0.950 1_565 S
C297 C293 1.393 . S
C297 C296 1.391 . S
C298 H288 0.950 . S
C298 C299 1.386 . S
C298 C300 1.391 . S
C299 C298 1.386 . S
C299 C303 1.393 . S
C300 H289 0.950 . S
C300 C298 1.391 . S
C300 C301 1.400 . S
C301 C295 1.491 . S
C301 C300 1.400 . S
C301 C302 1.398 . S
C302 H290 0.950 . S
C302 C301 1.398 . S
C302 C303 1.391 . S
C303 H291 0.950 . S
C303 C299 1.393 . S
C303 C302 1.391 . S
H304 C312 0.950 . S
H305 C317 0.950 . S
H306 C314 0.950 . S
H307 C316 0.950 . S
H308 C318 0.950 1_565 S
H309 C320 0.950 . S
H310 C322 0.950 . S
H311 C323 0.950 . S
C312 H304 0.950 . S
C312 C313 1.386 1_556 S
C312 C314 1.391 . S
C313 C312 1.386 1_554 S
C313 C317 1.393 . S
C314 H306 0.950 . S
C314 C312 1.391 . S
C314 C315 1.400 1_556 S
C315 C314 1.400 1_554 S
C315 C316 1.398 . S
C315 C321 1.491 1_554 S
C316 H307 0.950 . S
C316 C315 1.398 . S
C316 C317 1.391 . S
C317 H305 0.950 . S
C317 C313 1.393 . S
C317 C316 1.391 . S
C318 H308 0.950 1_545 S
C318 C319 1.386 1_554 S
C318 C320 1.391 . S
C319 C318 1.386 1_556 S
C319 C323 1.393 . S
C320 H309 0.950 . S
C320 C318 1.391 . S
C320 C321 1.400 1_554 S
C321 C315 1.491 1_556 S
C321 C320 1.400 1_556 S
C321 C322 1.398 . S
C322 H310 0.950 . S
C322 C321 1.398 . S
C322 C323 1.391 . S
C323 H311 0.950 . S
C323 C319 1.393 . S
C323 C322 1.391 . S
H324 C332 0.950 1_455 S
H325 C337 0.950 . S
H326 C334 0.950 . S
H327 C336 0.950 . S
H328 C338 0.950 . S
H329 C340 0.950 . S
H330 C342 0.950 . S
H331 C343 0.950 . S
C332 H324 0.950 1_655 S
C332 C333 1.386 . S
C332 C334 1.391 . S
C333 C332 1.386 . S
C333 C337 1.393 . S
C334 H326 0.950 . S
C334 C332 1.391 . S
C334 C335 1.400 . S
C335 C334 1.400 . S
C335 C336 1.398 . S
C335 C341 1.491 . S
C336 H327 0.950 . S
C336 C335 1.398 . S
C336 C337 1.391 . S
C337 H325 0.950 . S
C337 C333 1.393 . S
C337 C336 1.391 . S
C338 H328 0.950 . S
C338 C339 1.386 . S
C338 C340 1.391 . S
C339 C338 1.386 . S
C339 C343 1.393 . S
C340 H329 0.950 . S
C340 C338 1.391 . S
C340 C341 1.400 . S
C341 C335 1.491 . S
C341 C340 1.400 . S
C341 C342 1.398 . S
C342 H330 0.950 . S
C342 C341 1.398 . S
C342 C343 1.391 . S
C343 H331 0.950 . S
C343 C339 1.393 . S
C343 C342 1.391 . S
H344 C352 0.950 . S
H345 C357 0.950 1_565 S
H346 C354 0.950 . S
H347 C356 0.950 . S
H348 C358 0.950 . S
H349 C360 0.950 . S
H350 C362 0.950 . S
H351 C363 0.950 . S
C352 H344 0.950 . S
C352 C353 1.386 . S
C352 C354 1.391 . S
C353 C352 1.386 . S
C353 C357 1.393 . S
C354 H346 0.950 . S
C354 C352 1.391 . S
C354 C355 1.400 . S
C355 C354 1.400 . S
C355 C356 1.398 . S
C355 C361 1.491 . S
C356 H347 0.950 . S
C356 C355 1.398 . S
C356 C357 1.391 . S
C357 H345 0.950 1_545 S
C357 C353 1.393 . S
C357 C356 1.391 . S
C358 H348 0.950 . S
C358 C359 1.386 . S
C358 C360 1.391 . S
C359 C358 1.386 . S
C359 C363 1.393 . S
C360 H349 0.950 . S
C360 C358 1.391 . S
C360 C361 1.400 . S
C361 C355 1.491 . S
C361 C360 1.400 . S
C361 C362 1.398 . S
C362 H350 0.950 . S
C362 C361 1.398 . S
C362 C363 1.391 . S
C363 H351 0.950 . S
C363 C359 1.393 . S
C363 C362 1.391 . S
H364 C372 0.950 1_545 S
H365 C377 0.950 . S
H366 C374 0.950 . S
H367 C376 0.950 . S
H368 C378 0.950 . S
H369 C380 0.950 . S
H370 C382 0.950 . S
H371 C383 0.950 1_455 S
C372 H364 0.950 1_565 S
C372 C373 1.386 1_554 S
C372 C374 1.391 . S
C373 C372 1.386 1_556 S
C373 C377 1.393 . S
C374 H366 0.950 . S
C374 C372 1.391 . S
C374 C375 1.400 1_554 S
C375 C374 1.400 1_556 S
C375 C376 1.398 . S
C375 C381 1.491 1_556 S
C376 H367 0.950 . S
C376 C375 1.398 . S
C376 C377 1.391 . S
C377 H365 0.950 . S
C377 C373 1.393 . S
C377 C376 1.391 . S
C378 H368 0.950 . S
C378 C379 1.386 1_556 S
C378 C380 1.391 . S
C379 C378 1.386 1_554 S
C379 C383 1.393 . S
C380 H369 0.950 . S
C380 C378 1.391 . S
C380 C381 1.400 1_556 S
C381 C375 1.491 1_554 S
C381 C380 1.400 1_554 S
C381 C382 1.398 . S
C382 H370 0.950 . S
C382 C381 1.398 . S
C382 C383 1.391 . S
C383 H371 0.950 1_655 S
C383 C379 1.393 . S
C383 C382 1.391 . S
H384 C392 0.950 1_655 S
H385 C397 0.950 . S
H386 C394 0.950 . S
H387 C396 0.950 . S
H388 C398 0.950 . S
H389 C400 0.950 . S
H390 C402 0.950 . S
H391 C403 0.950 . S
C392 H384 0.950 1_455 S
C392 C393 1.386 . S
C392 C394 1.391 . S
C393 C392 1.386 . S
C393 C397 1.393 . S
C394 H386 0.950 . S
C394 C392 1.391 . S
C394 C395 1.400 . S
C395 C394 1.400 . S
C395 C396 1.398 . S
C395 C401 1.491 . S
C396 H387 0.950 . S
C396 C395 1.398 . S
C396 C397 1.391 . S
C397 H385 0.950 . S
C397 C393 1.393 . S
C397 C396 1.391 . S
C398 H388 0.950 . S
C398 C399 1.386 . S
C398 C400 1.391 . S
C399 C398 1.386 . S
C399 C403 1.393 . S
C400 H389 0.950 . S
C400 C398 1.391 . S
C400 C401 1.400 . S
C401 C395 1.491 . S
C401 C400 1.400 . S
C401 C402 1.398 . S
C402 H390 0.950 . S
C402 C401 1.398 . S
C402 C403 1.391 . S
C403 H391 0.950 . S
C403 C399 1.393 . S
C403 C402 1.391 . S
H404 C412 0.950 . S
H405 C417 0.950 . S
H406 C414 0.950 . S
H407 C416 0.950 . S
H408 C418 0.950 . S
H409 C420 0.950 . S
H410 C422 0.950 . S
H411 C423 0.950 . S
C412 H404 0.950 . S
C412 C413 1.386 . S
C412 C414 1.391 . S
C413 C412 1.386 . S
C413 C417 1.393 . S
C414 H406 0.950 . S
C414 C412 1.391 . S
C414 C415 1.400 . S
C415 C414 1.400 . S
C415 C416 1.398 . S
C415 C421 1.491 . S
C416 H407 0.950 . S
C416 C415 1.398 . S
C416 C417 1.391 . S
C417 H405 0.950 . S
C417 C413 1.393 . S
C417 C416 1.391 . S
C418 H408 0.950 . S
C418 C419 1.386 . S
C418 C420 1.391 . S
C419 C418 1.386 . S
C419 C423 1.393 . S
C420 H409 0.950 . S
C420 C418 1.391 . S
C420 C421 1.400 . S
C421 C415 1.491 . S
C421 C420 1.400 . S
C421 C422 1.398 . S
C422 H410 0.950 . S
C422 C421 1.398 . S
C422 C423 1.391 . S
C423 H411 0.950 . S
C423 C419 1.393 . S
C423 C422 1.391 . S
C113 C23 1.372 . S
C119 C10 1.374 . S
C133 C13 1.392 . S
C139 C26 1.401 . S
C153 C49 1.380 . S
C159 C36 1.384 . S
C173 C39 1.393 . S
C179 C0 1.401 . S
C193 C62 1.372 . S
C199 C75 1.375 . S
C213 C65 1.399 . S
C219 C78 1.401 . S
C233 C88 1.372 . S
C239 C101 1.375 . S
C253 C52 1.402 . S
C259 C91 1.394 . S
C273 C5 1.421 . S
C279 C96 1.420 . S
C293 C60 1.430 . S
C299 C21 1.426 . S
C313 C70 1.423 . S
C319 C31 1.423 . S
C333 C47 1.427 . S
C339 C86 1.442 . S
C353 C34 1.427 . S
C359 C99 1.428 . S
C373 C57 1.441 . S
C379 C44 1.442 . S
C393 C73 1.428 . S
C399 C8 1.441 . S
C413 C18 1.431 . S
C419 C83 1.432 . S
