# Generated by pormake.
# Topology yfu, (5)-cn, num edge types: 1
# Building blocks:
#     Node 0, Type 0, BuildingBlock: XOMCOT_clean_sbu_1, # of connection points: 5
#     Node 1, Type 0, BuildingBlock: XOMCOT_clean_sbu_1, # of connection points: 5
#     Node 2, Type 0, BuildingBlock: XOMCOT_clean_sbu_1, # of connection points: 5
#     Node 3, Type 0, BuildingBlock: XOMCOT_clean_sbu_1, # of connection points: 5
#     Node 4, Type 0, BuildingBlock: XOMCOT_clean_sbu_1, # of connection points: 5
#     Node 5, Type 0, BuildingBlock: XOMCOT_clean_sbu_1, # of connection points: 5
#     Node 6, Type 0, BuildingBlock: XOMCOT_clean_sbu_1, # of connection points: 5
#     Node 7, Type 0, BuildingBlock: XOMCOT_clean_sbu_1, # of connection points: 5
#     Node 8, Type 0, BuildingBlock: XOMCOT_clean_sbu_1, # of connection points: 5
#     Node 9, Type 0, BuildingBlock: XOMCOT_clean_sbu_1, # of connection points: 5
#     Node 10, Type 0, BuildingBlock: XOMCOT_clean_sbu_1, # of connection points: 5
#     Node 11, Type 0, BuildingBlock: XOMCOT_clean_sbu_1, # of connection points: 5
#     Node 12, Type 0, BuildingBlock: XOMCOT_clean_sbu_1, # of connection points: 5
#     Node 13, Type 0, BuildingBlock: XOMCOT_clean_sbu_1, # of connection points: 5
#     Node 14, Type 0, BuildingBlock: XOMCOT_clean_sbu_1, # of connection points: 5
#     Node 15, Type 0, BuildingBlock: XOMCOT_clean_sbu_1, # of connection points: 5
#     Node 16, Type 0, BuildingBlock: XOMCOT_clean_sbu_1, # of connection points: 5
#     Node 17, Type 0, BuildingBlock: XOMCOT_clean_sbu_1, # of connection points: 5
#     Node 18, Type 0, BuildingBlock: XOMCOT_clean_sbu_1, # of connection points: 5
#     Node 19, Type 0, BuildingBlock: XOMCOT_clean_sbu_1, # of connection points: 5
#     Node 20, Type 0, BuildingBlock: XOMCOT_clean_sbu_1, # of connection points: 5
#     Node 21, Type 0, BuildingBlock: XOMCOT_clean_sbu_1, # of connection points: 5
#     Node 22, Type 0, BuildingBlock: XOMCOT_clean_sbu_1, # of connection points: 5
#     Node 23, Type 0, BuildingBlock: XOMCOT_clean_sbu_1, # of connection points: 5
#     Node 24, Type 0, BuildingBlock: XOMCOT_clean_sbu_1, # of connection points: 5
#     Node 25, Type 0, BuildingBlock: XOMCOT_clean_sbu_1, # of connection points: 5
#     Node 26, Type 0, BuildingBlock: XOMCOT_clean_sbu_1, # of connection points: 5
#     Node 27, Type 0, BuildingBlock: XOMCOT_clean_sbu_1, # of connection points: 5
#     Node 28, Type 0, BuildingBlock: XOMCOT_clean_sbu_1, # of connection points: 5
#     Node 29, Type 0, BuildingBlock: XOMCOT_clean_sbu_1, # of connection points: 5
#     Node 30, Type 0, BuildingBlock: XOMCOT_clean_sbu_1, # of connection points: 5
#     Node 31, Type 0, BuildingBlock: XOMCOT_clean_sbu_1, # of connection points: 5
#     Edge 32, Type (0, 0), BuildingBlock: CIFDUS_clean_linker_0, # of connection points: 2
#     Edge 33, Type (0, 0), BuildingBlock: CIFDUS_clean_linker_0, # of connection points: 2
#     Edge 34, Type (0, 0), BuildingBlock: CIFDUS_clean_linker_0, # of connection points: 2
#     Edge 35, Type (0, 0), BuildingBlock: CIFDUS_clean_linker_0, # of connection points: 2
#     Edge 36, Type (0, 0), BuildingBlock: CIFDUS_clean_linker_0, # of connection points: 2
#     Edge 37, Type (0, 0), BuildingBlock: CIFDUS_clean_linker_0, # of connection points: 2
#     Edge 38, Type (0, 0), BuildingBlock: CIFDUS_clean_linker_0, # of connection points: 2
#     Edge 39, Type (0, 0), BuildingBlock: CIFDUS_clean_linker_0, # of connection points: 2
#     Edge 40, Type (0, 0), BuildingBlock: CIFDUS_clean_linker_0, # of connection points: 2
#     Edge 41, Type (0, 0), BuildingBlock: CIFDUS_clean_linker_0, # of connection points: 2
#     Edge 42, Type (0, 0), BuildingBlock: CIFDUS_clean_linker_0, # of connection points: 2
#     Edge 43, Type (0, 0), BuildingBlock: CIFDUS_clean_linker_0, # of connection points: 2
#     Edge 44, Type (0, 0), BuildingBlock: CIFDUS_clean_linker_0, # of connection points: 2
#     Edge 45, Type (0, 0), BuildingBlock: CIFDUS_clean_linker_0, # of connection points: 2
#     Edge 46, Type (0, 0), BuildingBlock: CIFDUS_clean_linker_0, # of connection points: 2
#     Edge 47, Type (0, 0), BuildingBlock: CIFDUS_clean_linker_0, # of connection points: 2
#     Edge 48, Type (0, 0), BuildingBlock: CIFDUS_clean_linker_0, # of connection points: 2
#     Edge 49, Type (0, 0), BuildingBlock: CIFDUS_clean_linker_0, # of connection points: 2
#     Edge 50, Type (0, 0), BuildingBlock: CIFDUS_clean_linker_0, # of connection points: 2
#     Edge 51, Type (0, 0), BuildingBlock: CIFDUS_clean_linker_0, # of connection points: 2
#     Edge 52, Type (0, 0), BuildingBlock: CIFDUS_clean_linker_0, # of connection points: 2
#     Edge 53, Type (0, 0), BuildingBlock: CIFDUS_clean_linker_0, # of connection points: 2
#     Edge 54, Type (0, 0), BuildingBlock: CIFDUS_clean_linker_0, # of connection points: 2
#     Edge 55, Type (0, 0), BuildingBlock: CIFDUS_clean_linker_0, # of connection points: 2
#     Edge 56, Type (0, 0), BuildingBlock: CIFDUS_clean_linker_0, # of connection points: 2
#     Edge 57, Type (0, 0), BuildingBlock: CIFDUS_clean_linker_0, # of connection points: 2
#     Edge 58, Type (0, 0), BuildingBlock: CIFDUS_clean_linker_0, # of connection points: 2
#     Edge 59, Type (0, 0), BuildingBlock: CIFDUS_clean_linker_0, # of connection points: 2
#     Edge 60, Type (0, 0), BuildingBlock: CIFDUS_clean_linker_0, # of connection points: 2
#     Edge 61, Type (0, 0), BuildingBlock: CIFDUS_clean_linker_0, # of connection points: 2
#     Edge 62, Type (0, 0), BuildingBlock: CIFDUS_clean_linker_0, # of connection points: 2
#     Edge 63, Type (0, 0), BuildingBlock: CIFDUS_clean_linker_0, # of connection points: 2
#     Edge 64, Type (0, 0), BuildingBlock: CIFDUS_clean_linker_0, # of connection points: 2
#     Edge 65, Type (0, 0), BuildingBlock: CIFDUS_clean_linker_0, # of connection points: 2
#     Edge 66, Type (0, 0), BuildingBlock: CIFDUS_clean_linker_0, # of connection points: 2
#     Edge 67, Type (0, 0), BuildingBlock: CIFDUS_clean_linker_0, # of connection points: 2
#     Edge 68, Type (0, 0), BuildingBlock: CIFDUS_clean_linker_0, # of connection points: 2
#     Edge 69, Type (0, 0), BuildingBlock: CIFDUS_clean_linker_0, # of connection points: 2
#     Edge 70, Type (0, 0), BuildingBlock: CIFDUS_clean_linker_0, # of connection points: 2
#     Edge 71, Type (0, 0), BuildingBlock: CIFDUS_clean_linker_0, # of connection points: 2
#     Edge 72, Type (0, 0), BuildingBlock: CIFDUS_clean_linker_0, # of connection points: 2
#     Edge 73, Type (0, 0), BuildingBlock: CIFDUS_clean_linker_0, # of connection points: 2
#     Edge 74, Type (0, 0), BuildingBlock: CIFDUS_clean_linker_0, # of connection points: 2
#     Edge 75, Type (0, 0), BuildingBlock: CIFDUS_clean_linker_0, # of connection points: 2
#     Edge 76, Type (0, 0), BuildingBlock: CIFDUS_clean_linker_0, # of connection points: 2
#     Edge 77, Type (0, 0), BuildingBlock: CIFDUS_clean_linker_0, # of connection points: 2
#     Edge 78, Type (0, 0), BuildingBlock: CIFDUS_clean_linker_0, # of connection points: 2
#     Edge 79, Type (0, 0), BuildingBlock: CIFDUS_clean_linker_0, # of connection points: 2
#     Edge 80, Type (0, 0), BuildingBlock: CIFDUS_clean_linker_0, # of connection points: 2
#     Edge 81, Type (0, 0), BuildingBlock: CIFDUS_clean_linker_0, # of connection points: 2
#     Edge 82, Type (0, 0), BuildingBlock: CIFDUS_clean_linker_0, # of connection points: 2
#     Edge 83, Type (0, 0), BuildingBlock: CIFDUS_clean_linker_0, # of connection points: 2
#     Edge 84, Type (0, 0), BuildingBlock: CIFDUS_clean_linker_0, # of connection points: 2
#     Edge 85, Type (0, 0), BuildingBlock: CIFDUS_clean_linker_0, # of connection points: 2
#     Edge 86, Type (0, 0), BuildingBlock: CIFDUS_clean_linker_0, # of connection points: 2
#     Edge 87, Type (0, 0), BuildingBlock: CIFDUS_clean_linker_0, # of connection points: 2
#     Edge 88, Type (0, 0), BuildingBlock: CIFDUS_clean_linker_0, # of connection points: 2
#     Edge 89, Type (0, 0), BuildingBlock: CIFDUS_clean_linker_0, # of connection points: 2
#     Edge 90, Type (0, 0), BuildingBlock: CIFDUS_clean_linker_0, # of connection points: 2
#     Edge 91, Type (0, 0), BuildingBlock: CIFDUS_clean_linker_0, # of connection points: 2
#     Edge 92, Type (0, 0), BuildingBlock: CIFDUS_clean_linker_0, # of connection points: 2
#     Edge 93, Type (0, 0), BuildingBlock: CIFDUS_clean_linker_0, # of connection points: 2
#     Edge 94, Type (0, 0), BuildingBlock: CIFDUS_clean_linker_0, # of connection points: 2
#     Edge 95, Type (0, 0), BuildingBlock: CIFDUS_clean_linker_0, # of connection points: 2
#     Edge 96, Type (0, 0), BuildingBlock: CIFDUS_clean_linker_0, # of connection points: 2
#     Edge 97, Type (0, 0), BuildingBlock: CIFDUS_clean_linker_0, # of connection points: 2
#     Edge 98, Type (0, 0), BuildingBlock: CIFDUS_clean_linker_0, # of connection points: 2
#     Edge 99, Type (0, 0), BuildingBlock: CIFDUS_clean_linker_0, # of connection points: 2
#     Edge 100, Type (0, 0), BuildingBlock: CIFDUS_clean_linker_0, # of connection points: 2
#     Edge 101, Type (0, 0), BuildingBlock: CIFDUS_clean_linker_0, # of connection points: 2
#     Edge 102, Type (0, 0), BuildingBlock: CIFDUS_clean_linker_0, # of connection points: 2
#     Edge 103, Type (0, 0), BuildingBlock: CIFDUS_clean_linker_0, # of connection points: 2
#     Edge 104, Type (0, 0), BuildingBlock: CIFDUS_clean_linker_0, # of connection points: 2
#     Edge 105, Type (0, 0), BuildingBlock: CIFDUS_clean_linker_0, # of connection points: 2
#     Edge 106, Type (0, 0), BuildingBlock: CIFDUS_clean_linker_0, # of connection points: 2
#     Edge 107, Type (0, 0), BuildingBlock: CIFDUS_clean_linker_0, # of connection points: 2
#     Edge 108, Type (0, 0), BuildingBlock: CIFDUS_clean_linker_0, # of connection points: 2
#     Edge 109, Type (0, 0), BuildingBlock: CIFDUS_clean_linker_0, # of connection points: 2
#     Edge 110, Type (0, 0), BuildingBlock: CIFDUS_clean_linker_0, # of connection points: 2
#     Edge 111, Type (0, 0), BuildingBlock: CIFDUS_clean_linker_0, # of connection points: 2
# Relax obj value: 0.459
# Max RMSD: 0.266
# Mean RMSD: 0.266
data_MOF--net-yfu--node1-XOMCOT_clean_sbu_1--edge1-CIFDUS_clean_linker_0
_symmetry_space_group_name_H-M    P1
_symmetry_Int_Tables_number       1
_symmetry_cell_setting            triclinic
loop_
_symmetry_equiv_pos_as_xyz
'x, y, z'
_cell_length_a     41.242289
_cell_length_b     41.27621
_cell_length_c     70.707207
_cell_angle_alpha  90.115959
_cell_angle_beta   89.864295
_cell_angle_gamma 90.005571
loop_
_atom_site_label
_atom_site_type_symbol
_atom_site_fract_x
_atom_site_fract_y
_atom_site_fract_z
_atom_type_partial_charge
C0 C 0.07717 0.13737 0.28389 0.0
C1 C 0.06019 0.16436 0.2784 0.0
N2 N 0.04894 0.17969 0.29389 0.0
N3 N 0.07687 0.13474 0.30295 0.0
C4 C 0.05985 0.16164 0.30861 0.0
H5 H 0.0882 0.12036 0.27421 0.0
Co6 Co 0.0955 0.0986 0.31693 0.0
C7 C 0.16454 0.12494 0.3227 0.0
O8 O 0.17976 0.09944 0.32913 0.0
N9 N 0.11315 0.06257 0.33075 0.0
C10 C 0.11669 0.02363 0.35249 0.0
C11 C 0.0974 0.04732 0.34497 0.0
C12 C 0.1412 0.04552 0.32905 0.0
N13 N 0.1446 0.02263 0.34265 0.0
O14 O 0.11077 0.079 0.29411 0.0
H15 H 0.07336 0.05318 0.34993 0.0
H16 H 0.15869 0.04942 0.31787 0.0
O17 O 0.13435 0.12387 0.31894 0.0
C18 C 0.09411 0.05386 0.29028 0.0
O19 O 0.06934 0.04662 0.30122 0.0
N20 N 0.07934 0.11529 0.33944 0.0
C21 C 0.05044 0.10965 0.37463 0.0
C22 C 0.0833 0.1181 0.37324 0.0
C23 C 0.09747 0.12096 0.35528 0.0
C24 C 0.04679 0.11048 0.34065 0.0
C25 C 0.03173 0.10822 0.35812 0.0
H26 H 0.12345 0.12364 0.35429 0.0
H27 H 0.03308 0.10504 0.32801 0.0
H28 H 0.05427 0.1674 0.32317 0.0
H29 H 0.05551 0.17161 0.26395 0.0
H30 H 0.11093 0.00913 0.36478 0.0
H31 H 0.09834 0.11973 0.38574 0.0
H32 H 1.00604 0.10279 0.35866 0.0
C33 C 0.14815 0.80404 0.54684 0.0
C34 C 0.11999 0.7872 0.54324 0.0
N35 N 0.09591 0.80029 0.55362 0.0
N36 N 0.14209 0.82784 0.55945 0.0
C37 C 0.10992 0.8249 0.56334 0.0
H38 H 0.17179 0.79856 0.54105 0.0
Co39 Co 0.17438 0.85403 0.57089 0.0
C40 C 0.12715 0.89996 0.55731 0.0
O41 O 0.13232 0.88955 0.53999 0.0
N42 N 0.20703 0.87833 0.58273 0.0
C43 C 0.25336 0.88339 0.59841 0.0
C44 C 0.2334 0.86243 0.58899 0.0
C45 C 0.21123 0.90925 0.5889 0.0
N46 N 0.23965 0.91299 0.5984 0.0
O47 O 0.19063 0.86641 0.54675 0.0
H48 H 0.23722 0.83664 0.58746 0.0
H49 H 0.19358 0.92833 0.58686 0.0
O50 O 0.14499 0.88984 0.57082 0.0
C51 C 0.21632 0.85262 0.5409 0.0
O52 O 0.22975 0.83005 0.55132 0.0
N53 N 0.16036 0.84094 0.59444 0.0
C54 C 0.15221 0.81545 0.6303 0.0
C55 C 0.14203 0.84712 0.62648 0.0
C56 C 0.14683 0.85975 0.60831 0.0
C57 C 0.16948 0.80994 0.59789 0.0
C58 C 0.16554 0.79666 0.61569 0.0
H59 H 0.14075 0.88475 0.60563 0.0
H60 H 0.1808 0.79583 0.58679 0.0
H61 H 0.09729 0.83966 0.57367 0.0
H62 H 0.11747 0.76671 0.53377 0.0
H63 H 0.27559 0.87688 0.60556 0.0
H64 H 0.13137 0.86203 0.63748 0.0
H65 H 0.17297 0.77181 0.61805 0.0
C66 C 0.4372 0.87607 0.78561 0.0
C67 C 0.45187 0.84615 0.78368 0.0
N68 N 0.44822 0.82955 0.79997 0.0
N69 N 0.42409 0.87861 0.80303 0.0
C70 C 0.43102 0.84978 0.81133 0.0
H71 H 0.43699 0.895 0.77507 0.0
Co72 Co 0.40474 0.91546 0.81478 0.0
C73 C 0.34308 0.88378 0.83074 0.0
O74 O 0.33238 0.9061 0.84244 0.0
N75 N 0.38609 0.95224 0.82659 0.0
C76 C 0.38189 0.99573 0.84507 0.0
C77 C 0.40285 0.97362 0.83722 0.0
C78 C 0.35518 0.96333 0.8272 0.0
N79 N 0.3517 0.98897 0.83903 0.0
O80 O 0.38299 0.92683 0.79204 0.0
H81 H 0.4287 0.97268 0.83963 0.0
H82 H 0.33537 0.95192 0.81972 0.0
O83 O 0.3694 0.88786 0.82162 0.0
C84 C 0.39926 0.94978 0.78473 0.0
O85 O 0.42739 0.95725 0.79227 0.0
N86 N 0.42769 0.90675 0.83677 0.0
C87 C 0.46865 0.91567 0.86739 0.0
C88 C 0.43592 0.90781 0.87035 0.0
C89 C 0.41558 0.90345 0.85467 0.0
C90 C 0.45982 0.91202 0.83379 0.0
C91 C 0.48078 0.91608 0.84886 0.0
H92 H 0.38994 0.90022 0.85697 0.0
H93 H 0.46882 0.91545 0.81956 0.0
H94 H 0.42459 0.84436 0.82582 0.0
H95 H 0.46447 0.83757 0.77121 0.0
H96 H 0.38843 0.015 0.85473 0.0
H97 H 0.42581 0.90709 0.88449 0.0
H98 H 0.50608 0.92113 0.84597 0.0
C99 C 0.38719 0.18133 0.02125 0.0
C100 C 0.41563 0.19815 0.01854 0.0
N101 N 0.42904 0.20455 0.03552 0.0
N102 N 0.3822 0.17672 0.03991 0.0
C103 C 0.40833 0.19103 0.04822 0.0
H104 H 0.37071 0.17408 0.01018 0.0
Co105 Co 0.3443 0.15863 0.05152 0.0
C106 C 0.3747 0.10917 0.07827 0.0
O107 O 0.34898 0.10048 0.08795 0.0
N108 N 0.30623 0.14124 0.06297 0.0
C109 C 0.25979 0.13979 0.07897 0.0
C110 C 0.28214 0.15945 0.07034 0.0
C111 C 0.29645 0.11033 0.06606 0.0
N112 N 0.26896 0.10868 0.07661 0.0
O113 O 0.33996 0.12812 0.03165 0.0
H114 H 0.28149 0.18563 0.07019 0.0
H115 H 0.31011 0.08946 0.06132 0.0
O116 O 0.37273 0.13032 0.06521 0.0
C117 C 0.31774 0.1409 0.02172 0.0
O118 O 0.30708 0.1699 0.02629 0.0
N119 N 0.34623 0.18988 0.07013 0.0
C120 C 0.33621 0.24107 0.09487 0.0
C121 C 0.34033 0.20943 0.10173 0.0
C122 C 0.34586 0.18417 0.08911 0.0
C123 C 0.34169 0.22022 0.06318 0.0
C124 C 0.33747 0.24629 0.07529 0.0
H125 H 0.34749 0.15999 0.09459 0.0
H126 H 0.34075 0.22406 0.04807 0.0
H127 H 0.41158 0.19221 0.06338 0.0
H128 H 0.42482 0.20627 0.00501 0.0
H129 H 0.23936 0.14818 0.08724 0.0
H130 H 0.3386 0.20392 0.11666 0.0
H131 H 0.33529 0.27023 0.06922 0.0
C132 C 0.03861 0.91587 0.1793 0.0
C133 C 0.01546 0.89219 0.18206 0.0
N134 N 0.02751 0.86355 0.17611 0.0
N135 N 0.06529 0.90246 0.17156 0.0
C136 C 0.05777 0.87046 0.16985 0.0
H137 H 0.03596 0.94138 0.18244 0.0
Co138 Co 0.10282 0.92531 0.16384 0.0
C139 C 0.14958 0.87394 0.15621 0.0
O140 O 0.16061 0.89023 0.14159 0.0
N141 N 0.14136 0.94842 0.15614 0.0
C142 C 0.19278 0.96588 0.15538 0.0
C143 C 0.1709 0.94579 0.16436 0.0
C144 C 0.14595 0.97151 0.14273 0.0
N145 N 0.17685 0.98208 0.14182 0.0
O146 O 0.11232 0.93618 0.18951 0.0
H147 H 0.17626 0.93007 0.17616 0.0
H148 H 0.12729 0.98123 0.13379 0.0
O149 O 0.12664 0.88559 0.16611 0.0
C150 C 0.10656 0.96632 0.1916 0.0
O151 O 0.09434 0.98248 0.1773 0.0
N152 N 0.09127 0.91776 0.13873 0.0
C153 C 0.06445 0.91976 0.10247 0.0
C154 C 0.07678 0.89054 0.10994 0.0
C155 C 0.09049 0.89012 0.12808 0.0
C156 C 0.07807 0.94552 0.13204 0.0
C157 C 0.0672 0.94778 0.11362 0.0
H158 H 0.09862 0.86733 0.1338 0.0
H159 H 0.07648 0.96652 0.14116 0.0
H160 H 0.07356 0.85268 0.16343 0.0
H161 H 0.99147 0.89582 0.18793 0.0
H162 H 0.2181 0.96909 0.15892 0.0
H163 H 0.07449 0.86782 0.10242 0.0
H164 H 0.05974 0.97139 0.10872 0.0
C165 C 0.35173 0.77236 0.40836 0.0
C166 C 0.37492 0.75002 0.41327 0.0
N167 N 0.39627 0.76406 0.42513 0.0
N168 N 0.35817 0.80104 0.41674 0.0
C169 C 0.38437 0.7945 0.42781 0.0
H170 H 0.33225 0.76808 0.3985 0.0
Co171 Co 0.33697 0.8412 0.41062 0.0
C172 C 0.40818 0.86039 0.40733 0.0
O173 O 0.42188 0.83182 0.40592 0.0
N174 N 0.31601 0.88134 0.40444 0.0
C175 C 0.30864 0.93361 0.39748 0.0
C176 C 0.32952 0.91121 0.40512 0.0
C177 C 0.28623 0.88677 0.39691 0.0
N178 N 0.28143 0.91817 0.39219 0.0
O179 O 0.33533 0.8521 0.43667 0.0
H180 H 0.35335 0.91671 0.41058 0.0
H181 H 0.26841 0.8681 0.39451 0.0
O182 O 0.37757 0.86334 0.40815 0.0
C183 C 0.30648 0.84861 0.4427 0.0
O184 O 0.28418 0.83816 0.43093 0.0
N185 N 0.33588 0.8297 0.38506 0.0
C186 C 0.32534 0.79987 0.35031 0.0
C187 C 0.3559 0.81304 0.35475 0.0
C188 C 0.3606 0.8283 0.37223 0.0
C189 C 0.30573 0.81906 0.38036 0.0
C190 C 0.29952 0.80577 0.36272 0.0
H191 H 0.38456 0.83652 0.37577 0.0
H192 H 0.28686 0.81855 0.39096 0.0
H193 H 0.39617 0.81271 0.43642 0.0
H194 H 0.37637 0.72551 0.40788 0.0
H195 H 0.31312 0.95932 0.39603 0.0
H196 H 0.37674 0.80897 0.34571 0.0
H197 H 0.2754 0.7967 0.35981 0.0
C198 C 0.46726 0.12455 0.69537 0.0
C199 C 0.48374 0.15338 0.69775 0.0
N200 N 0.46216 0.17795 0.69797 0.0
N201 N 0.4352 0.13048 0.69398 0.0
C202 C 0.43289 0.16319 0.69596 0.0
H203 H 0.47819 0.10085 0.69397 0.0
Co204 Co 0.4023 0.09981 0.68739 0.0
C205 C 0.35563 0.13934 0.66437 0.0
O206 O 0.33553 0.11599 0.65978 0.0
N207 N 0.36865 0.06958 0.68023 0.0
C208 C 0.32008 0.0454 0.67928 0.0
C209 C 0.33984 0.06596 0.68927 0.0
C210 C 0.36533 0.05045 0.66459 0.0
N211 N 0.33597 0.03571 0.66367 0.0
O212 O 0.37925 0.10844 0.71062 0.0
H213 H 0.33255 0.07836 0.70203 0.0
H214 H 0.38324 0.04857 0.65347 0.0
O215 O 0.38013 0.13389 0.67477 0.0
C216 C 0.39152 0.10735 0.72716 0.0
O217 O 0.42139 0.11726 0.72981 0.0
N218 N 0.42617 0.08948 0.66593 0.0
C219 C 0.47606 0.07356 0.64118 0.0
C220 C 0.45783 0.10193 0.63849 0.0
C221 C 0.43295 0.10962 0.65116 0.0
C222 C 0.44224 0.06092 0.66803 0.0
C223 C 0.46703 0.05225 0.65565 0.0
H224 H 0.42111 0.1328 0.64986 0.0
H225 H 0.4369 0.04568 0.68007 0.0
H226 H 0.41002 0.17596 0.69572 0.0
H227 H 0.50982 0.156 0.69833 0.0
H228 H 0.29568 0.03836 0.68317 0.0
H229 H 0.46443 0.11934 0.62771 0.0
H230 H 0.48035 0.03005 0.65813 0.0
C231 C 0.14176 0.20577 0.93072 0.0
C232 C 0.11931 0.22963 0.93461 0.0
N233 N 0.08931 0.21675 0.93361 0.0
N234 N 0.1263 0.17765 0.92727 0.0
C235 C 0.09428 0.18505 0.92942 0.0
H236 H 0.16767 0.20917 0.92955 0.0
Co237 Co 0.14663 0.13989 0.91741 0.0
C238 C 0.10022 0.09195 0.93089 0.0
O239 O 0.12288 0.07677 0.94041 0.0
N240 N 0.16613 0.10191 0.90701 0.0
C241 C 0.17202 0.0613 0.88649 0.0
C242 C 0.15036 0.08178 0.89509 0.0
C243 C 0.19772 0.09316 0.9052 0.0
N244 N 0.202 0.06869 0.89261 0.0
O245 O 0.16053 0.12813 0.94192 0.0
H246 H 0.12508 0.08394 0.89138 0.0
H247 H 0.21752 0.1064 0.91152 0.0
O248 O 0.1071 0.11663 0.92079 0.0
C249 C 0.18963 0.13727 0.94429 0.0
O250 O 0.20349 0.15502 0.93115 0.0
N251 N 0.13636 0.15305 0.89301 0.0
C252 C 0.13529 0.18739 0.85943 0.0
C253 C 0.10612 0.18024 0.86891 0.0
C254 C 0.10714 0.16216 0.88572 0.0
C255 C 0.16421 0.15763 0.883 0.0
C256 C 0.1639 0.17283 0.86564 0.0
H257 H 0.08505 0.15806 0.89359 0.0
H258 H 0.18737 0.15151 0.8891 0.0
H259 H 0.07479 0.16813 0.92672 0.0
H260 H 0.12471 0.25485 0.93739 0.0
H261 H 0.16615 0.04349 0.87578 0.0
H262 H 0.08344 0.19098 0.86446 0.0
H263 H 0.18679 0.17722 0.85853 0.0
C264 C 0.94044 0.88787 0.69468 0.0
C265 C 0.96053 0.86184 0.69882 0.0
N266 N 0.96123 0.84184 0.68373 0.0
N267 N 0.92828 0.88425 0.67707 0.0
C268 C 0.94165 0.85603 0.67094 0.0
H269 H 0.934 0.90722 0.7043 0.0
Co270 Co 0.89414 0.90588 0.66392 0.0
C271 C 0.84853 0.85329 0.66882 0.0
O272 O 0.82649 0.87276 0.67598 0.0
N273 N 0.86002 0.92499 0.65001 0.0
C274 C 0.82435 0.93003 0.62667 0.0
C275 C 0.84383 0.90899 0.63629 0.0
C276 C 0.85007 0.95615 0.64819 0.0
N277 N 0.82811 0.95986 0.63408 0.0
O278 O 0.8718 0.91353 0.68713 0.0
H279 H 0.84745 0.88385 0.63255 0.0
H280 H 0.85971 0.97593 0.65645 0.0
O281 O 0.87473 0.86433 0.66173 0.0
C282 C 0.87832 0.94254 0.6918 0.0
O283 O 0.89931 0.95882 0.68158 0.0
N284 N 0.91745 0.90302 0.6417 0.0
C285 C 0.96541 0.91222 0.61497 0.0
C286 C 0.94732 0.8833 0.61503 0.0
C287 C 0.92253 0.87935 0.62852 0.0
C288 C 0.9325 0.93219 0.64034 0.0
C289 C 0.95618 0.93752 0.62692 0.0
H290 H 0.90931 0.85676 0.62927 0.0
H291 H 0.9272 0.95102 0.65048 0.0
H292 H 0.93506 0.84433 0.65788 0.0
H293 H 0.97305 0.85767 0.71203 0.0
H294 H 0.81013 0.92392 0.61434 0.0
H295 H 0.95373 0.86337 0.60576 0.0
H296 H 0.96908 0.96041 0.62694 0.0
C297 C 0.87689 0.21077 0.43966 0.0
C298 C 0.90301 0.23012 0.44449 0.0
N299 N 0.93032 0.2121 0.44392 0.0
N300 N 0.88727 0.18039 0.43611 0.0
C301 C 0.91975 0.18201 0.43933 0.0
H302 H 0.85246 0.21922 0.43719 0.0
Co303 Co 0.8656 0.14774 0.42158 0.0
C304 C 0.90462 0.09136 0.43259 0.0
O305 O 0.87903 0.07423 0.43733 0.0
N306 N 0.84586 0.11509 0.40643 0.0
C307 C 0.84227 0.07737 0.384 0.0
C308 C 0.86294 0.09637 0.3943 0.0
C309 C 0.81451 0.10722 0.40291 0.0
N310 N 0.81161 0.08418 0.38926 0.0
O311 O 0.84343 0.13179 0.44361 0.0
H312 H 0.88899 0.09715 0.39257 0.0
H313 H 0.79418 0.11911 0.40963 0.0
O314 O 0.90146 0.11964 0.42566 0.0
C315 C 0.81672 0.14733 0.44312 0.0
O316 O 0.81353 0.17013 0.43031 0.0
N317 N 0.88315 0.16577 0.39987 0.0
C318 C 0.89585 0.2153 0.37468 0.0
C319 C 0.92157 0.19893 0.38349 0.0
C320 C 0.91466 0.17322 0.39581 0.0
C321 C 0.8584 0.17949 0.39004 0.0
C322 C 0.86425 0.20385 0.3771 0.0
H323 H 0.93422 0.16168 0.40336 0.0
H324 H 0.83357 0.17381 0.39366 0.0
H325 H 0.936 0.16233 0.43621 0.0
H326 H 0.90195 0.25595 0.44698 0.0
H327 H 0.84959 0.06004 0.37333 0.0
H328 H 0.9463 0.20732 0.38188 0.0
H329 H 0.84376 0.21616 0.37077 0.0
C330 C 0.57483 0.11377 0.19871 0.0
C331 C 0.55507 0.1372 0.20665 0.0
N332 N 0.55924 0.16527 0.19721 0.0
N333 N 0.59188 0.12678 0.18434 0.0
C334 C 0.58168 0.15825 0.18378 0.0
H335 H 0.57665 0.08884 0.20323 0.0
Co336 Co 0.62308 0.10566 0.1685 0.0
C337 C 0.67363 0.15335 0.17108 0.0
O338 O 0.69559 0.1314 0.1751 0.0
N339 N 0.65433 0.08617 0.15182 0.0
C340 C 0.68295 0.08047 0.12516 0.0
C341 C 0.66414 0.10106 0.13575 0.0
C342 C 0.66824 0.05633 0.15066 0.0
N343 N 0.68556 0.05231 0.13449 0.0
O344 O 0.64815 0.09454 0.18993 0.0
H345 H 0.65737 0.12535 0.13167 0.0
H346 H 0.6651 0.03743 0.16105 0.0
O347 O 0.6448 0.14542 0.16679 0.0
C348 C 0.64308 0.06529 0.19455 0.0
O349 O 0.6213 0.04855 0.18514 0.0
N350 N 0.59739 0.11351 0.14795 0.0
C351 C 0.55196 0.11224 0.11936 0.0
C352 C 0.56759 0.14142 0.12409 0.0
C353 C 0.5908 0.14149 0.13849 0.0
C354 C 0.58376 0.08492 0.1428 0.0
C355 C 0.56159 0.08356 0.12822 0.0
H356 H 0.60258 0.16391 0.14238 0.0
H357 H 0.58989 0.06304 0.15038 0.0
H358 H 0.59106 0.17607 0.17401 0.0
H359 H 0.53866 0.13371 0.21845 0.0
H360 H 0.69416 0.08589 0.11166 0.0
H361 H 0.56077 0.16406 0.11749 0.0
H362 H 0.55077 0.06043 0.12462 0.0
C363 C 0.65734 0.79687 0.90703 0.0
C364 C 0.63324 0.77408 0.90998 0.0
N365 N 0.6084 0.78853 0.91906 0.0
N366 N 0.64781 0.8258 0.91403 0.0
C367 C 0.61803 0.81958 0.92148 0.0
H368 H 0.67947 0.7931 0.89908 0.0
Co369 Co 0.66835 0.86609 0.90809 0.0
C370 C 0.61545 0.89782 0.9302 0.0
O371 O 0.62714 0.88909 0.94667 0.0
N372 N 0.68839 0.90607 0.90175 0.0
C373 C 0.69448 0.9551 0.88911 0.0
C374 C 0.67289 0.93376 0.89709 0.0
C375 C 0.71966 0.91158 0.89668 0.0
N376 N 0.72388 0.941 0.88855 0.0
O377 O 0.68457 0.86962 0.93343 0.0
H378 H 0.64706 0.93761 0.89798 0.0
H379 H 0.73824 0.89312 0.89711 0.0
O380 O 0.62939 0.88912 0.91486 0.0
C381 C 0.71362 0.86038 0.93634 0.0
O382 O 0.73024 0.84801 0.9222 0.0
N383 N 0.65454 0.86146 0.88288 0.0
C384 C 0.64415 0.83243 0.84789 0.0
C385 C 0.61818 0.83719 0.86058 0.0
C386 C 0.6238 0.85258 0.87795 0.0
C387 C 0.67879 0.86059 0.86976 0.0
C388 C 0.67351 0.84811 0.85179 0.0
H389 H 0.60439 0.85364 0.88823 0.0
H390 H 0.70333 0.86639 0.87361 0.0
H391 H 0.60222 0.83772 0.92722 0.0
H392 H 0.6336 0.74912 0.90527 0.0
H393 H 0.68854 0.97863 0.88337 0.0
H394 H 0.59478 0.82602 0.85823 0.0
H395 H 0.69385 0.84658 0.84211 0.0
C396 C 0.95465 0.12668 0.77223 0.0
C397 C 0.97165 0.15499 0.7695 0.0
N398 N 0.96546 0.1751 0.78407 0.0
N399 N 0.93782 0.1285 0.78857 0.0
C400 C 0.94468 0.15861 0.7954 0.0
H401 H 0.95613 0.10534 0.7634 0.0
Co402 Co 0.91768 0.092 0.79983 0.0
C403 C 0.87465 0.11855 0.82896 0.0
O404 O 0.88344 0.09557 0.84075 0.0
N405 N 0.89755 0.05411 0.81095 0.0
C406 C 0.89073 1.00553 0.82421 0.0
C407 C 0.91238 0.02604 0.81566 0.0
C408 C 0.86596 0.04856 0.81555 0.0
N409 N 0.86151 0.0199 0.82452 0.0
O410 O 0.88849 0.08817 0.77925 0.0
H411 H 0.93735 0.02 0.81296 0.0
H412 H 0.84681 0.06599 0.81323 0.0
O413 O 0.88746 0.12022 0.81257 0.0
C414 C 0.89848 0.06402 0.76973 0.0
O415 O 0.92624 0.05058 0.77434 0.0
N416 N 0.94812 0.09392 0.81928 0.0
C417 C 0.99056 0.07921 0.84847 0.0
C418 C 0.97051 0.10681 0.8495 0.0
C419 C 0.94943 0.11382 0.83468 0.0
C420 C 0.97161 0.07138 0.8165 0.0
C421 C 0.99195 0.06239 0.8312 0.0
H422 H 0.93382 0.13465 0.83596 0.0
H423 H 0.9726 0.05829 0.80325 0.0
H424 H 0.93647 0.1675 0.80898 0.0
H425 H 0.98858 0.15987 0.75813 0.0
H426 H 0.89622 0.98173 0.82973 0.0
H427 H 0.97049 0.12269 0.86169 0.0
H428 H 0.00737 0.04156 0.82903 0.0
C429 C 0.60407 0.15676 0.53696 0.0
C430 C 0.57693 0.17537 0.53401 0.0
N431 N 0.58184 0.20471 0.54184 0.0
N432 N 0.62627 0.17399 0.54673 0.0
C433 C 0.61213 0.20343 0.54925 0.0
H434 H 0.60688 0.13165 0.53287 0.0
Co435 Co 0.66471 0.15563 0.55679 0.0
C436 C 0.6349 0.10826 0.58393 0.0
O437 O 0.65633 0.11473 0.59716 0.0
N438 N 0.70324 0.13652 0.56644 0.0
C439 C 0.7544 0.12872 0.57556 0.0
C440 C 0.73294 0.15023 0.56765 0.0
C441 C 0.70833 0.10564 0.57218 0.0
N442 N 0.73872 0.10066 0.57864 0.0
O443 O 0.67142 0.13023 0.53464 0.0
H444 H 0.73931 0.174 0.56256 0.0
H445 H 0.69015 0.0869 0.57154 0.0
O446 O 0.63724 0.12191 0.56778 0.0
C447 C 0.68357 0.14655 0.52115 0.0
O448 O 0.68337 0.1783 0.52238 0.0
N449 N 0.66076 0.18204 0.57835 0.0
C450 C 0.66906 0.21457 0.61247 0.0
C451 C 0.64064 0.19665 0.60893 0.0
C452 C 0.6367 0.18095 0.59159 0.0
C453 C 0.68532 0.20376 0.58028 0.0
C454 C 0.6909 0.21911 0.59748 0.0
H455 H 0.61472 0.16744 0.58904 0.0
H456 H 0.70135 0.20843 0.56855 0.0
H457 H 0.62307 0.22299 0.55721 0.0
H458 H 0.55502 0.16771 0.52688 0.0
H459 H 0.77979 0.1332 0.57835 0.0
H460 H 0.62153 0.1947 0.6194 0.0
H461 H 0.71245 0.23382 0.59894 0.0
C462 C 0.59785 0.89138 0.27083 0.0
C463 C 0.58146 0.86411 0.26513 0.0
N464 N 0.57091 0.84789 0.28053 0.0
N465 N 0.59843 0.8927 0.28985 0.0
C466 C 0.58192 0.86569 0.29538 0.0
H467 H 0.60818 0.90936 0.26154 0.0
Co468 Co 0.61662 0.9269 0.30441 0.0
C469 C 0.65536 0.89314 0.33405 0.0
O470 O 0.65632 0.91839 0.34535 0.0
N471 N 0.6345 0.96174 0.31915 0.0
C472 C 0.63855 1.00514 0.33781 0.0
C473 C 0.61764 0.98463 0.32872 0.0
C474 C 0.66598 0.97002 0.32213 0.0
N475 N 0.66907 0.99579 0.33393 0.0
O476 O 0.65148 0.93095 0.28689 0.0
H477 H 0.59165 0.98682 0.32927 0.0
H478 H 0.6862 0.95631 0.31652 0.0
O479 O 0.6405 0.89472 0.31831 0.0
C480 C 0.64556 0.95704 0.27804 0.0
O481 O 0.61878 0.97297 0.28199 0.0
N482 N 0.58104 0.9251 0.32033 0.0
C483 C 0.52662 0.93625 0.34247 0.0
C484 C 0.55118 0.91515 0.34858 0.0
C485 C 0.57823 0.90993 0.33733 0.0
C486 C 0.55637 0.94353 0.31344 0.0
C487 C 0.5291 0.95001 0.32445 0.0
H488 H 0.59624 0.89343 0.34239 0.0
H489 H 0.55891 0.95485 0.29973 0.0
H490 H 0.5773 0.85971 0.31002 0.0
H491 H 0.57763 0.8571 0.25057 0.0
H492 H 0.63163 0.02556 0.34655 0.0
H493 H 0.5494 0.90216 0.36184 0.0
H494 H 0.51049 0.96593 0.31899 0.0
C495 C 0.87768 0.79452 0.04533 0.0
C496 C 0.90463 0.77447 0.04369 0.0
N497 N 0.93151 0.79133 0.04848 0.0
N498 N 0.88716 0.82419 0.05104 0.0
C499 C 0.91994 0.82124 0.05277 0.0
H500 H 0.8527 0.7875 0.04315 0.0
Co501 Co 0.86233 0.86122 0.05903 0.0
C502 C 0.90781 0.91048 0.04653 0.0
O503 O 0.8852 0.92561 0.03694 0.0
N504 N 0.84018 0.89925 0.06821 0.0
C505 C 0.83505 0.94085 0.08825 0.0
C506 C 0.85619 0.91984 0.07987 0.0
C507 C 0.80863 0.90868 0.06992 0.0
N508 N 0.80508 0.93384 0.08221 0.0
O509 O 0.8511 0.87087 0.03329 0.0
H510 H 0.88159 0.91822 0.08345 0.0
H511 H 0.78849 0.89592 0.06356 0.0
O512 O 0.90097 0.88612 0.05683 0.0
C513 C 0.82265 0.86074 0.02943 0.0
O514 O 0.80631 0.84549 0.04266 0.0
N515 N 0.86897 0.84937 0.0839 0.0
C516 C 0.86284 0.8173 0.11806 0.0
C517 C 0.89344 0.82846 0.11202 0.0
C518 C 0.89599 0.84504 0.0947 0.0
C519 C 0.8392 0.84034 0.09029 0.0
C520 C 0.83545 0.82534 0.10755 0.0
H521 H 0.91952 0.85243 0.08952 0.0
H522 H 0.81818 0.84334 0.08137 0.0
H523 H 0.93506 0.84045 0.05803 0.0
H524 H 0.90405 0.74916 0.03973 0.0
H525 H 0.84108 0.95914 0.09867 0.0
H526 H 0.91516 0.82247 0.11985 0.0
H527 H 0.81146 0.81747 0.11185 0.0
C528 C 0.54279 0.61036 0.8262 0.0
C529 C 0.521 0.63503 0.82285 0.0
N530 N 0.53561 0.65788 0.81218 0.0
N531 N 0.57137 0.61752 0.81795 0.0
C532 C 0.56582 0.64602 0.80893 0.0
H533 H 0.53879 0.58965 0.83524 0.0
Co534 Co 0.61124 0.59625 0.82337 0.0
C535 C 0.65488 0.65175 0.82696 0.0
O536 O 0.66596 0.63947 0.84282 0.0
N537 N 0.6513 0.57396 0.82822 0.0
C538 C 0.70352 0.55965 0.83023 0.0
C539 C 0.682 0.58214 0.82328 0.0
C540 C 0.65501 0.54433 0.8362 0.0
N541 N 0.68639 0.53596 0.83853 0.0
O542 O 0.61398 0.58109 0.79782 0.0
H543 H 0.68875 0.60288 0.81488 0.0
H544 H 0.63506 0.52874 0.84011 0.0
O545 O 0.63389 0.63627 0.81726 0.0
C546 C 0.60081 0.55313 0.79738 0.0
O547 O 0.58648 0.54271 0.81284 0.0
N548 N 0.60658 0.60909 0.84932 0.0
C549 C 0.57322 0.61759 0.8831 0.0
C550 C 0.57819 0.64399 0.87105 0.0
C551 C 0.59557 0.63933 0.85422 0.0
C552 C 0.60553 0.58486 0.86241 0.0
C553 C 0.59076 0.58928 0.87986 0.0
H554 H 0.59571 0.65879 0.84404 0.0
H555 H 0.61123 0.56052 0.85878 0.0
H556 H 0.58419 0.65867 0.80097 0.0
H557 H 0.49661 0.63639 0.82845 0.0
H558 H 0.72967 0.56033 0.82895 0.0
H559 H 0.56477 0.6663 0.87307 0.0
H560 H 0.587 0.56829 0.88881 0.0
C561 C 0.6441 0.32355 0.0344 0.0
C562 C 0.62189 0.30152 0.0276 0.0
N563 N 0.5926 0.30825 0.03515 0.0
N564 N 0.62914 0.34452 0.04615 0.0
C565 C 0.5976 0.33466 0.04618 0.0
H566 H 0.66984 0.3234 0.0315 0.0
Co567 Co 0.65068 0.37627 0.06108 0.0
C568 C 0.58821 0.39575 0.08043 0.0
O569 O 0.59053 0.37502 0.09433 0.0
N570 N 0.67099 0.40869 0.07679 0.0
C571 C 0.68112 0.43589 0.10342 0.0
C572 C 0.66091 0.41445 0.09469 0.0
C573 C 0.69815 0.42719 0.07517 0.0
N574 N 0.70474 0.44401 0.09122 0.0
O575 O 0.65413 0.40393 0.03959 0.0
H576 H 0.64163 0.40182 0.10178 0.0
H577 H 0.71357 0.42748 0.06283 0.0
O578 O 0.60958 0.39685 0.06745 0.0
C579 C 0.68279 0.39755 0.03392 0.0
O580 O 0.69973 0.37576 0.04316 0.0
N581 N 0.653 0.34669 0.08111 0.0
C582 C 0.67271 0.30122 0.10751 0.0
C583 C 0.64024 0.30247 0.10173 0.0
C584 C 0.63108 0.32474 0.08788 0.0
C585 C 0.68497 0.3439 0.08591 0.0
C586 C 0.69522 0.32196 0.09935 0.0
H587 H 0.60674 0.32355 0.08243 0.0
H588 H 0.70318 0.35835 0.07891 0.0
H589 H 0.57876 0.34588 0.05457 0.0
H590 H 0.62724 0.28121 0.0184 0.0
H591 H 0.67974 0.44303 0.11813 0.0
H592 H 0.62261 0.28537 0.10715 0.0
H593 H 0.72071 0.32067 0.10298 0.0
C594 C 0.90976 0.37536 0.27875 0.0
C595 C 0.92755 0.34732 0.27717 0.0
N596 N 0.94067 0.34029 0.2941 0.0
N597 N 0.91127 0.38678 0.29664 0.0
C598 C 0.93041 0.36464 0.30567 0.0
H599 H 0.89677 0.3865 0.26725 0.0
Co600 Co 0.8914 0.42609 0.30624 0.0
C601 C 0.84699 0.38367 0.33286 0.0
O602 O 0.82557 0.398 0.34379 0.0
N603 N 0.87244 0.46409 0.31597 0.0
C604 C 0.86903 0.51383 0.32799 0.0
C605 C 0.88815 0.49261 0.31791 0.0
C606 C 0.8433 0.46897 0.32442 0.0
N607 N 0.84097 0.49886 0.33205 0.0
O608 O 0.85998 0.4268 0.28651 0.0
H609 H 0.9125 0.49729 0.31294 0.0
H610 H 0.82445 0.45089 0.32536 0.0
O611 O 0.86483 0.40067 0.32218 0.0
C612 C 0.87362 0.44472 0.27416 0.0
O613 O 0.9045 0.45164 0.27625 0.0
N614 N 0.92242 0.42941 0.32444 0.0
C615 C 0.96973 0.45273 0.34832 0.0
C616 C 0.94066 0.44077 0.35577 0.0
C617 C 0.9169 0.42951 0.34349 0.0
C618 C 0.9503 0.4414 0.31698 0.0
C619 C 0.97413 0.45378 0.32868 0.0
H620 H 0.89388 0.42213 0.3493 0.0
H621 H 0.9533 0.44261 0.30181 0.0
H622 H 0.93654 0.36618 0.32051 0.0
H623 H 0.93101 0.33351 0.2643 0.0
H624 H 0.87539 0.5382 0.33229 0.0
H625 H 0.93678 0.43916 0.3709 0.0
H626 H 0.99645 0.46279 0.3225 0.0
C627 C 0.87296 0.70815 0.5399 0.0
C628 C 0.90104 0.72572 0.53709 0.0
N629 N 0.92466 0.71254 0.54767 0.0
N630 N 0.87871 0.68393 0.55225 0.0
C631 C 0.91061 0.68715 0.55659 0.0
H632 H 0.8494 0.71403 0.53421 0.0
Co633 Co 0.84662 0.65996 0.56547 0.0
C634 C 0.89159 0.61099 0.55199 0.0
O635 O 0.89016 0.62292 0.5348 0.0
N636 N 0.81442 0.63817 0.57916 0.0
C637 C 0.77287 0.63473 0.59909 0.0
C638 C 0.7927 0.65539 0.58929 0.0
C639 C 0.8072 0.60681 0.58292 0.0
N640 N 0.78196 0.60411 0.59519 0.0
O641 O 0.8261 0.64672 0.54249 0.0
H642 H 0.79174 0.68156 0.58972 0.0
H643 H 0.82065 0.58651 0.5772 0.0
O644 O 0.87355 0.62253 0.565 0.0
C645 C 0.80032 0.66303 0.54002 0.0
O646 O 0.79561 0.68876 0.55066 0.0
N647 N 0.86449 0.67306 0.5882 0.0
C648 C 0.87245 0.69684 0.62439 0.0
C649 C 0.87755 0.66395 0.62082 0.0
C650 C 0.87344 0.65237 0.60238 0.0
C651 C 0.86128 0.70534 0.5914 0.0
C652 C 0.86567 0.71784 0.60938 0.0
H653 H 0.87484 0.62658 0.59985 0.0
H654 H 0.85313 0.72111 0.58018 0.0
H655 H 0.92274 0.67264 0.56717 0.0
H656 H 0.90369 0.74703 0.52832 0.0
H657 H 0.75303 0.6418 0.60825 0.0
H658 H 0.88268 0.64729 0.63225 0.0
H659 H 0.86172 0.74349 0.6118 0.0
C660 C 0.54045 0.40084 0.67516 0.0
C661 C 0.51915 0.37729 0.68103 0.0
N662 N 0.53421 0.3577 0.69351 0.0
N663 N 0.56959 0.3961 0.68328 0.0
C664 C 0.56402 0.37154 0.69567 0.0
H665 H 0.53586 0.41812 0.66401 0.0
Co666 Co 0.60858 0.41429 0.67269 0.0
C667 C 0.63178 0.34345 0.67882 0.0
O668 O 0.60343 0.3292 0.67971 0.0
N669 N 0.64677 0.43223 0.66155 0.0
C670 C 0.68672 0.43454 0.64034 0.0
C671 C 0.66422 0.41511 0.64882 0.0
C672 C 0.65901 0.46272 0.66017 0.0
N673 N 0.68335 0.46479 0.64719 0.0
O674 O 0.62146 0.42903 0.69723 0.0
H675 H 0.65884 0.3906 0.6445 0.0
H676 H 0.64875 0.48339 0.66741 0.0
O677 O 0.63361 0.37394 0.67586 0.0
C678 C 0.61149 0.45806 0.69939 0.0
O679 O 0.59508 0.47165 0.68562 0.0
N680 N 0.59436 0.40339 0.64836 0.0
C681 C 0.55557 0.40141 0.61648 0.0
C682 C 0.56385 0.37262 0.62584 0.0
C683 C 0.58378 0.37411 0.64183 0.0
C684 C 0.58925 0.43086 0.63813 0.0
C685 C 0.57092 0.4302 0.62177 0.0
H686 H 0.58749 0.35243 0.64989 0.0
H687 H 0.59698 0.45407 0.6436 0.0
H688 H 0.58266 0.36212 0.70485 0.0
H689 H 0.49545 0.37341 0.67496 0.0
H690 H 0.70328 0.42693 0.62933 0.0
H691 H 0.5524 0.34986 0.62214 0.0
H692 H 0.56558 0.45283 0.61468 0.0
C693 C 0.86858 0.31283 0.96332 0.0
C694 C 0.89543 0.29366 0.96645 0.0
N695 N 0.91501 0.2953 0.9512 0.0
N696 N 0.87091 0.32664 0.94611 0.0
C697 C 0.8997 0.31565 0.93914 0.0
H698 H 0.84785 0.31503 0.97261 0.0
Co699 Co 0.83695 0.34833 0.93319 0.0
C700 C 0.87406 0.38715 0.90474 0.0
O701 O 0.85226 0.38531 0.89124 0.0
N702 N 0.80232 0.3694 0.92008 0.0
C703 C 0.75395 0.37611 0.90676 0.0
C704 C 0.77355 0.35517 0.91642 0.0
C705 C 0.79866 0.39994 0.91326 0.0
N706 N 0.76985 0.40432 0.90434 0.0
O707 O 0.83412 0.38061 0.95226 0.0
H708 H 0.76659 0.33113 0.92075 0.0
H709 H 0.81709 0.41842 0.91455 0.0
O710 O 0.86924 0.37326 0.92051 0.0
C711 C 0.80897 0.37285 0.96163 0.0
O712 O 0.79505 0.34486 0.95811 0.0
N713 N 0.83714 0.3154 0.91555 0.0
C714 C 0.82645 0.26096 0.89352 0.0
C715 C 0.84938 0.28428 0.88798 0.0
C716 C 0.85456 0.31138 0.8993 0.0
C717 C 0.81621 0.29215 0.92157 0.0
C718 C 0.80971 0.2652 0.91054 0.0
H719 H 0.87336 0.32797 0.89523 0.0
H720 H 0.80389 0.29502 0.93498 0.0
H721 H 0.90825 0.3206 0.92496 0.0
H722 H 0.89971 0.27875 0.97877 0.0
H723 H 0.72962 0.37067 0.90209 0.0
H724 H 0.86413 0.28105 0.87542 0.0
H725 H 0.79207 0.2477 0.91547 0.0
C726 C 0.93902 0.63876 0.19906 0.0
C727 C 0.95781 0.66585 0.20214 0.0
N728 N 0.95384 0.68638 0.18756 0.0
N729 N 0.92317 0.64181 0.18249 0.0
C730 C 0.93242 0.67145 0.17594 0.0
H731 H 0.93858 0.61742 0.20787 0.0
Co732 Co 0.90113 0.60782 0.16938 0.0
C733 C 0.85213 0.65633 0.17467 0.0
O734 O 0.85771 0.65579 0.19295 0.0
N735 N 0.88065 0.57429 0.15614 0.0
C736 C 0.87589 0.52933 0.1391 0.0
C737 C 0.89696 0.54883 0.1489 0.0
C738 C 0.84958 0.56972 0.15068 0.0
N739 N 0.84604 0.54248 0.14015 0.0
O740 O 0.87991 0.5932 0.19197 0.0
H741 H 0.92275 0.54496 0.15047 0.0
H742 H 0.83014 0.5864 0.154 0.0
O743 O 0.86682 0.6367 0.16374 0.0
C744 C 0.89511 0.56797 0.19725 0.0
O745 O 0.92337 0.56183 0.18939 0.0
N746 N 0.92249 0.61875 0.14737 0.0
C747 C 0.9577 0.60779 0.11474 0.0
C748 C 0.92531 0.61767 0.11349 0.0
C749 C 0.90785 0.62313 0.13021 0.0
C750 C 0.95459 0.61194 0.14863 0.0
C751 C 0.97279 0.60699 0.13248 0.0
H752 H 0.88205 0.62754 0.1294 0.0
H753 H 0.96544 0.60749 0.16229 0.0
H754 H 0.92548 0.68081 0.16224 0.0
H755 H 0.97417 0.66964 0.2139 0.0
H756 H 0.88209 0.50696 0.13195 0.0
H757 H 0.91318 0.61894 0.09994 0.0
H758 H 0.99812 0.60046 0.13394 0.0
C759 C 0.61084 0.662 0.45684 0.0
C760 C 0.58028 0.67536 0.45835 0.0
N761 N 0.56523 0.67269 0.44152 0.0
N762 N 0.61549 0.6506 0.43913 0.0
C763 C 0.58697 0.6571 0.43025 0.0
H764 H 0.6291 0.6626 0.46775 0.0
Co765 Co 0.6564 0.6398 0.42796 0.0
C766 C 0.64275 0.59445 0.39665 0.0
O767 O 0.66523 0.60833 0.38624 0.0
N768 N 0.69753 0.62983 0.41688 0.0
C769 C 0.74246 0.6334 0.39944 0.0
C770 C 0.71808 0.65055 0.40815 0.0
C771 C 0.7112 0.60022 0.41407 0.0
N772 N 0.73797 0.60183 0.40308 0.0
O773 O 0.66602 0.60979 0.44784 0.0
H774 H 0.715 0.67643 0.40719 0.0
H775 H 0.70012 0.57771 0.41855 0.0
O776 O 0.6359 0.60579 0.41305 0.0
C777 C 0.68382 0.62637 0.45896 0.0
O778 O 0.68902 0.65699 0.45505 0.0
N779 N 0.64895 0.67185 0.41021 0.0
C780 C 0.64243 0.73057 0.39187 0.0
C781 C 0.63072 0.70214 0.38342 0.0
C782 C 0.63374 0.67274 0.39306 0.0
C783 C 0.65958 0.69952 0.41859 0.0
C784 C 0.65703 0.72899 0.40962 0.0
H785 H 0.62269 0.65149 0.38702 0.0
H786 H 0.67054 0.69858 0.4324 0.0
H787 H 0.58309 0.65254 0.41538 0.0
H788 H 0.57042 0.68707 0.4708 0.0
H789 H 0.76124 0.6432 0.39037 0.0
H790 H 0.61864 0.70284 0.36983 0.0
H791 H 0.66663 0.75039 0.41652 0.0
C792 C 0.45032 0.37969 0.22092 0.0
C793 C 0.46911 0.3521 0.22214 0.0
N794 N 0.46753 0.33592 0.20557 0.0
N795 N 0.43656 0.38136 0.20368 0.0
C796 C 0.44757 0.35423 0.19467 0.0
H797 H 0.44688 0.39745 0.232 0.0
Co798 Co 0.40819 0.4156 0.19602 0.0
C799 C 0.37621 0.38601 0.16205 0.0
O800 O 0.37885 0.41154 0.15105 0.0
N801 N 0.37957 0.45055 0.18857 0.0
C802 C 0.36442 0.50118 0.18184 0.0
C803 C 0.38644 0.48223 0.19121 0.0
C804 C 0.35131 0.45142 0.17859 0.0
N805 N 0.34258 0.48184 0.17334 0.0
O806 O 0.37695 0.40108 0.21411 0.0
H807 H 0.40664 0.49154 0.19917 0.0
H808 H 0.33773 0.43012 0.17469 0.0
O809 O 0.38765 0.38628 0.17875 0.0
C810 C 0.36302 0.41216 0.22885 0.0
O811 O 0.34125 0.39385 0.23722 0.0
N812 N 0.43947 0.42933 0.1781 0.0
C813 C 0.4792 0.45607 0.15027 0.0
C814 C 0.46542 0.42533 0.14791 0.0
C815 C 0.44641 0.41216 0.16209 0.0
C816 C 0.45597 0.45735 0.1817 0.0
C817 C 0.47551 0.47162 0.16778 0.0
H818 H 0.43736 0.38809 0.15985 0.0
H819 H 0.45392 0.46881 0.19537 0.0
H820 H 0.44079 0.3476 0.18047 0.0
H821 H 0.48326 0.34488 0.23429 0.0
H822 H 0.36502 0.52735 0.18114 0.0
H823 H 0.46993 0.41099 0.13532 0.0
H824 H 0.48757 0.49439 0.1707 0.0
C825 C 0.39166 0.68717 0.94595 0.0
C826 C 0.42139 0.70234 0.9475 0.0
N827 N 0.43724 0.69984 0.93082 0.0
N828 N 0.3885 0.6748 0.92841 0.0
C829 C 0.41673 0.68275 0.91961 0.0
H830 H 0.37331 0.68586 0.95687 0.0
Co831 Co 0.35161 0.65426 0.91756 0.0
C832 C 0.38758 0.59391 0.90192 0.0
O833 O 0.3661 0.57783 0.89196 0.0
N834 N 0.31483 0.6346 0.90647 0.0
C835 C 0.26978 0.63212 0.88935 0.0
C836 C 0.29205 0.6523 0.89755 0.0
C837 C 0.30472 0.60357 0.90433 0.0
N838 N 0.27778 0.60127 0.89343 0.0
O839 O 0.34211 0.63287 0.94093 0.0
H840 H 0.29228 0.67842 0.89644 0.0
H841 H 0.31684 0.58309 0.91064 0.0
O842 O 0.37994 0.62034 0.91001 0.0
C843 C 0.3168 0.64535 0.94832 0.0
O844 O 0.30346 0.67051 0.94006 0.0
N845 N 0.35877 0.67633 0.89516 0.0
C846 C 0.34923 0.71471 0.86368 0.0
C847 C 0.3566 0.68183 0.86142 0.0
C848 C 0.36123 0.66277 0.87754 0.0
C849 C 0.35386 0.70862 0.89741 0.0
C850 C 0.34954 0.72834 0.88186 0.0
H851 H 0.36399 0.63696 0.87586 0.0
H852 H 0.3511 0.71872 0.91145 0.0
H853 H 0.4216 0.67686 0.90497 0.0
H854 H 0.43037 0.71438 0.96003 0.0
H855 H 0.25015 0.63978 0.88028 0.0
H856 H 0.35685 0.67073 0.84753 0.0
H857 H 0.34494 0.7539 0.88413 0.0
C858 C 0.05231 0.61285 0.69111 0.0
C859 C 0.03205 0.63722 0.69752 0.0
N860 N 0.03602 0.6635 0.68644 0.0
N861 N 0.06931 0.62359 0.67606 0.0
C862 C 0.05835 0.65433 0.67346 0.0
H863 H 0.05545 0.58941 0.69763 0.0
Co864 Co 0.1058 0.60499 0.66371 0.0
C865 C 0.14952 0.65609 0.67642 0.0
O866 O 0.16845 0.63519 0.68497 0.0
N867 N 0.14258 0.58833 0.65092 0.0
C868 C 0.18565 0.58617 0.63193 0.0
C869 C 0.16537 0.60615 0.64195 0.0
C870 C 0.14934 0.55743 0.64574 0.0
N871 N 0.17549 0.55542 0.63415 0.0
O872 O 0.12307 0.59146 0.68738 0.0
H873 H 0.16646 0.63228 0.64171 0.0
H874 H 0.13422 0.53701 0.64943 0.0
O875 O 0.12587 0.64659 0.6662 0.0
C876 C 0.11682 0.56166 0.69022 0.0
O877 O 0.09842 0.54632 0.678 0.0
N878 N 0.08755 0.61356 0.64049 0.0
C879 C 0.05285 0.60857 0.60703 0.0
C880 C 0.0673 0.63825 0.61225 0.0
C881 C 0.08525 0.64015 0.62915 0.0
C882 C 0.075 0.58459 0.63507 0.0
C883 C 0.0585 0.58132 0.61823 0.0
H884 H 0.09618 0.66284 0.63337 0.0
H885 H 0.07762 0.56375 0.64415 0.0
H886 H 0.0681 0.67054 0.66292 0.0
H887 H 0.01622 0.63585 0.70972 0.0
H888 H 0.20593 0.59399 0.62336 0.0
H889 H 0.06358 0.65987 0.60388 0.0
H890 H 0.04879 0.55777 0.61451 0.0
C891 C 0.15786 0.29922 0.43351 0.0
C892 C 0.13156 0.2808 0.4392 0.0
N893 N 0.10411 0.29778 0.43608 0.0
N894 N 0.14736 0.32787 0.4268 0.0
C895 C 0.11457 0.32628 0.42875 0.0
H896 H 0.18295 0.29159 0.43346 0.0
Co897 Co 0.17244 0.35931 0.41353 0.0
C898 C 0.1196 0.40672 0.41003 0.0
O899 O 0.12979 0.42665 0.42324 0.0
N900 N 0.1959 0.39134 0.39937 0.0
C901 C 0.20582 0.42276 0.3744 0.0
C902 C 0.18448 0.4019 0.38257 0.0
C903 C 0.22519 0.40624 0.40085 0.0
N904 N 0.23159 0.42575 0.38582 0.0
O905 O 0.17626 0.38443 0.43581 0.0
H906 H 0.16281 0.39337 0.37583 0.0
H907 H 0.24187 0.40226 0.41236 0.0
O908 O 0.13447 0.38053 0.40653 0.0
C909 C 0.20372 0.37717 0.44264 0.0
O910 O 0.22111 0.35468 0.43421 0.0
N911 N 0.17106 0.33372 0.39206 0.0
C912 C 0.17627 0.29748 0.35911 0.0
C913 C 0.14566 0.30543 0.36658 0.0
C914 C 0.14357 0.32362 0.38316 0.0
C915 C 0.20089 0.32598 0.38514 0.0
C916 C 0.20408 0.30873 0.36839 0.0
H917 H 0.11997 0.32912 0.38899 0.0
H918 H 0.22242 0.33373 0.3926 0.0
H919 H 0.09832 0.34489 0.42379 0.0
H920 H 0.13273 0.25646 0.44479 0.0
H921 H 0.20327 0.43333 0.36049 0.0
H922 H 0.12355 0.29639 0.36025 0.0
H923 H 0.22815 0.30327 0.36313 0.0
C924 C 0.43047 0.6494 0.28387 0.0
C925 C 0.44561 0.67805 0.27933 0.0
N926 N 0.4675 0.68512 0.29286 0.0
N927 N 0.44293 0.63741 0.30005 0.0
C928 C 0.46497 0.6603 0.30533 0.0
H929 H 0.41039 0.63881 0.27624 0.0
Co930 Co 0.42485 0.60191 0.31402 0.0
C931 C 0.36761 0.63027 0.32672 0.0
O932 O 0.37788 0.62193 0.3436 0.0
N933 N 0.40675 0.56829 0.3288 0.0
C934 C 0.39883 0.53805 0.35441 0.0
C935 C 0.41909 0.5597 0.34574 0.0
C936 C 0.37853 0.55158 0.3276 0.0
N937 N 0.3731 0.53301 0.34312 0.0
O938 O 0.41514 0.57789 0.29095 0.0
H939 H 0.44054 0.57 0.35207 0.0
H940 H 0.36161 0.55431 0.31603 0.0
O941 O 0.38409 0.62259 0.31223 0.0
C942 C 0.43134 0.57342 0.27571 0.0
O943 O 0.45977 0.58739 0.27361 0.0
N944 N 0.46497 0.58159 0.31637 0.0
C945 C 0.51996 0.55 0.32893 0.0
C946 C 0.5128 0.58138 0.33515 0.0
C947 C 0.48474 0.59636 0.32906 0.0
C948 C 0.47133 0.55057 0.31042 0.0
C949 C 0.4993 0.53447 0.31628 0.0
H950 H 0.477 0.61823 0.33608 0.0
H951 H 0.45378 0.53693 0.30242 0.0
H952 H 0.47797 0.65984 0.31847 0.0
H953 H 0.43956 0.69316 0.26738 0.0
H954 H 0.40179 0.52857 0.36856 0.0
H955 H 0.52785 0.59345 0.34557 0.0
H956 H 0.50375 0.50972 0.31186 0.0
C957 C 0.15855 0.70263 0.06222 0.0
C958 C 0.13256 0.72286 0.05867 0.0
N959 N 0.10619 0.7047 0.05466 0.0
N960 N 0.14914 0.67148 0.06061 0.0
C961 C 0.11739 0.67369 0.05554 0.0
H962 H 0.18237 0.71021 0.06683 0.0
Co963 Co 0.17368 0.63474 0.06923 0.0
C964 C 0.12483 0.58866 0.08296 0.0
O965 O 0.14347 0.58095 0.09731 0.0
N966 N 0.19822 0.59709 0.07814 0.0
C967 C 0.21583 0.54572 0.08049 0.0
C968 C 0.19675 0.56709 0.07035 0.0
C969 C 0.21894 0.59286 0.09294 0.0
N970 N 0.22993 0.56221 0.09465 0.0
O971 O 0.17991 0.62085 0.04366 0.0
H972 H 0.18216 0.56089 0.05818 0.0
H973 H 0.22589 0.61121 0.10291 0.0
O974 O 0.13395 0.61028 0.07126 0.0
C975 C 0.20931 0.62701 0.0393 0.0
O976 O 0.2281 0.64019 0.05217 0.0
N977 N 0.17074 0.6513 0.09346 0.0
C978 C 0.17762 0.69713 0.12193 0.0
C979 C 0.14678 0.68421 0.11772 0.0
C980 C 0.14389 0.66056 0.10345 0.0
C981 C 0.20031 0.6637 0.0977 0.0
C982 C 0.20474 0.68356 0.11311 0.0
H983 H 0.12005 0.65281 0.099 0.0
H984 H 0.22069 0.6591 0.08843 0.0
H985 H 0.10252 0.65284 0.05313 0.0
H986 H 0.13316 0.74898 0.05965 0.0
H987 H 0.21947 0.52026 0.07749 0.0
H988 H 0.12501 0.69432 0.12394 0.0
H989 H 0.22909 0.69178 0.11623 0.0
C990 C 0.05245 0.40383 0.78707 0.0
C991 C 0.02907 0.38054 0.78384 0.0
N992 N 0.03806 0.35295 0.79254 0.0
N993 N 0.07626 0.39122 0.7978 0.0
C994 C 0.06668 0.36013 0.8009 0.0
H995 H 0.05184 0.42861 0.78215 0.0
Co996 Co 0.11248 0.41452 0.80727 0.0
C997 C 0.15384 0.36566 0.82486 0.0
O998 O 0.16097 0.38644 0.83833 0.0
N999 N 0.14929 0.43795 0.81667 0.0
C1000 C 0.20083 0.45347 0.82018 0.0
C1001 C 0.18002 0.4335 0.81041 0.0
C1002 C 0.1522 0.46156 0.82996 0.0
N1003 N 0.18322 0.47116 0.83243 0.0
O1004 O 0.12976 0.41783 0.78227 0.0
H1005 H 0.18697 0.41633 0.79956 0.0
H1006 H 0.13229 0.47162 0.83794 0.0
O1007 O 0.13458 0.37385 0.81161 0.0
C1008 C 0.12409 0.44715 0.77765 0.0
O1009 O 0.10861 0.46581 0.78974 0.0
N1010 N 0.09293 0.41472 0.83082 0.0
C1011 C 0.04249 0.4214 0.85628 0.0
C1012 C 0.05999 0.39228 0.85541 0.0
C1013 C 0.08531 0.38929 0.84235 0.0
C1014 C 0.07744 0.44365 0.83261 0.0
C1015 C 0.05287 0.44788 0.84568 0.0
H1016 H 0.09595 0.36571 0.84023 0.0
H1017 H 0.08242 0.46291 0.8227 0.0
H1018 H 0.07947 0.34344 0.80987 0.0
H1019 H 0.0071 0.38369 0.7757 0.0
H1020 H 0.22678 0.45535 0.81814 0.0
H1021 H 0.05201 0.37112 0.86318 0.0
H1022 H 0.03977 0.47064 0.84599 0.0
C1023 C 0.40437 0.36834 0.53177 0.0
C1024 C 0.43275 0.35108 0.52952 0.0
N1025 N 0.43099 0.32435 0.54029 0.0
N1026 N 0.38442 0.35273 0.54395 0.0
C1027 C 0.40168 0.32593 0.54885 0.0
H1028 H 0.3993 0.39149 0.52532 0.0
Co1029 Co 0.34428 0.36947 0.55378 0.0
C1030 C 0.37658 0.4229 0.57868 0.0
O1031 O 0.35343 0.44056 0.5862 0.0
N1032 N 0.305 0.38599 0.56356 0.0
C1033 C 0.25615 0.38792 0.57692 0.0
C1034 C 0.27938 0.36806 0.56925 0.0
C1035 C 0.29579 0.41691 0.56694 0.0
N1036 N 0.26663 0.41871 0.57569 0.0
O1037 O 0.34106 0.39914 0.53356 0.0
H1038 H 0.27759 0.34205 0.56816 0.0
H1039 H 0.3103 0.43771 0.56319 0.0
O1040 O 0.36983 0.39909 0.56797 0.0
C1041 C 0.32224 0.38485 0.52209 0.0
O1042 O 0.31345 0.35489 0.52571 0.0
N1043 N 0.3446 0.33944 0.57301 0.0
C1044 C 0.33093 0.29191 0.59932 0.0
C1045 C 0.34265 0.32217 0.60519 0.0
C1046 C 0.34916 0.34586 0.59175 0.0
C1047 C 0.33296 0.31025 0.56712 0.0
C1048 C 0.32609 0.28599 0.58006 0.0
H1049 H 0.35658 0.36947 0.59659 0.0
H1050 H 0.32843 0.30619 0.55224 0.0
H1051 H 0.39393 0.30836 0.55919 0.0
H1052 H 0.45312 0.35776 0.52066 0.0
H1053 H 0.23333 0.3802 0.583 0.0
H1054 H 0.34638 0.32751 0.62004 0.0
H1055 H 0.31753 0.26272 0.57503 0.0
H1056 H 0.21972 0.24877 0.35745 0.0
H1057 H 0.13878 0.29005 0.32725 0.0
H1058 H 0.13287 0.23984 0.30919 0.0
H1059 H 0.1426 0.18131 0.30808 0.0
H1060 H 0.22124 0.14018 0.34038 0.0
H1061 H 0.23715 0.194 0.35092 0.0
C1062 C 0.20165 0.24754 0.34636 0.0
C1063 C 0.17909 0.27273 0.34408 0.0
C1064 C 0.19777 0.21847 0.33659 0.0
C1065 C 0.15581 0.27052 0.32965 0.0
C1066 C 0.15243 0.24187 0.31934 0.0
C1067 C 0.16373 0.18424 0.31704 0.0
C1068 C 0.17998 0.15688 0.32406 0.0
C1069 C 0.17192 0.21507 0.32366 0.0
C1070 C 0.20792 0.16089 0.33512 0.0
C1071 C 0.21693 0.19164 0.34124 0.0
H1072 H 0.98006 0.90267 0.57749 0.0
H1073 H 0.02166 0.92772 0.63155 0.0
H1074 H 0.07477 0.93388 0.61716 0.0
H1075 H 0.11014 0.92782 0.59016 0.0
H1076 H 0.0712 0.89785 0.53635 0.0
H1077 H 0.0162 0.90016 0.54929 0.0
C1078 C 1.00085 0.9095 0.58598 0.0
C1079 C 0.9971 0.91483 0.60547 0.0
C1080 C 0.03163 0.91289 0.57761 0.0
C1081 C 0.02404 0.92379 0.61645 0.0
C1082 C 0.05438 0.92743 0.60826 0.0
C1083 C 0.08958 0.92231 0.58116 0.0
C1084 C 0.09474 0.91201 0.56253 0.0
C1085 C 0.05851 0.92164 0.58895 0.0
C1086 C 0.06788 0.90582 0.55083 0.0
C1087 C 0.03643 0.90658 0.5583 0.0
H1088 H 0.29721 0.75324 0.86159 0.0
H1089 H 0.3816 0.72322 0.83009 0.0
H1090 H 0.37888 0.7729 0.81124 0.0
H1091 H 0.36472 0.83041 0.81216 0.0
H1092 H 0.2888 0.86368 0.84965 0.0
H1093 H 0.27597 0.80781 0.85786 0.0
C1094 C 0.31449 0.75734 0.85024 0.0
C1095 C 0.34038 0.73567 0.84769 0.0
C1096 C 0.31507 0.78727 0.84118 0.0
C1097 C 0.36191 0.74009 0.83254 0.0
C1098 C 0.36069 0.76872 0.82205 0.0
C1099 C 0.34497 0.82547 0.82187 0.0
C1100 C 0.32881 0.85111 0.83107 0.0
C1101 C 0.33939 0.79357 0.82757 0.0
C1102 C 0.30231 0.84433 0.8429 0.0
C1103 C 0.29499 0.8124 0.8476 0.0
H1104 H 0.43265 0.13137 0.06554 0.0
H1105 H 0.38916 0.06834 0.10727 0.0
H1106 H 0.44146 0.06232 0.12279 0.0
H1107 H 0.49695 0.08 0.12662 0.0
H1108 H 0.54097 0.14435 0.08591 0.0
H1109 H 0.49007 0.14577 0.06803 0.0
C1110 C 0.43463 0.11601 0.0779 0.0
C1111 C 0.40698 0.10076 0.08545 0.0
C1112 C 0.46447 0.11345 0.08707 0.0
C1113 C 0.41004 0.08057 0.1013 0.0
C1114 C 0.43984 0.07725 0.11022 0.0
C1115 C 0.49583 0.09366 0.11355 0.0
C1116 C 0.52268 0.11184 0.10746 0.0
C1117 C 0.46685 0.09435 0.10353 0.0
C1118 C 0.52047 0.1303 0.09087 0.0
C1119 C 0.49153 0.13096 0.08064 0.0
H1120 H 0.14339 0.72347 0.15189 0.0
H1121 H 0.22 0.74449 0.1117 0.0
H1122 H 0.22345 0.79899 0.12292 0.0
H1123 H 0.19888 0.84346 0.13932 0.0
H1124 H 0.11885 0.82699 0.17742 0.0
H1125 H 0.12283 0.76857 0.17201 0.0
C1126 C 0.16106 0.73989 0.1458 0.0
C1127 C 0.18158 0.72925 0.13113 0.0
C1128 C 0.16207 0.77246 0.15168 0.0
C1129 C 0.20448 0.75105 0.12345 0.0
C1130 C 0.20632 0.78273 0.12966 0.0
C1131 C 0.18268 0.82707 0.14674 0.0
C1132 C 0.15774 0.83945 0.15798 0.0
C1133 C 0.18443 0.79398 0.14313 0.0
C1134 C 0.13763 0.81798 0.16808 0.0
C1135 C 0.13982 0.78457 0.16497 0.0
H1136 H 0.52348 0.94098 0.38065 0.0
H1137 H 0.46346 0.94103 0.33069 0.0
H1138 H 0.41634 0.92724 0.3497 0.0
H1139 H 0.39726 0.89824 0.37765 0.0
H1140 H 0.46162 0.88389 0.42476 0.0
H1141 H 0.50187 0.91965 0.41016 0.0
C1142 C 0.49993 0.93845 0.374 0.0
C1143 C 0.49726 0.94041 0.35423 0.0
C1144 C 0.47382 0.92701 0.38461 0.0
C1145 C 0.46641 0.93902 0.34585 0.0
C1146 C 0.43945 0.93066 0.3567 0.0
C1147 C 0.41968 0.90402 0.38493 0.0
C1148 C 0.42713 0.88854 0.40196 0.0
C1149 C 0.44358 0.92195 0.37568 0.0
C1150 C 0.45598 0.89562 0.41148 0.0
C1151 C 0.47887 0.91586 0.4031 0.0
H1152 H 0.30524 0.1631 0.64377 0.0
H1153 H 0.40111 0.18677 0.664 0.0
H1154 H 0.39918 0.23846 0.64817 0.0
H1155 H 0.37332 0.27431 0.62584 0.0
H1156 H 0.27983 0.25001 0.60266 0.0
H1157 H 0.27777 0.20107 0.62222 0.0
C1158 C 0.3255 0.17976 0.64485 0.0
C1159 C 0.35295 0.17133 0.65544 0.0
C1160 C 0.32481 0.20917 0.635 0.0
C1161 C 0.37919 0.19301 0.65656 0.0
C1162 C 0.37834 0.22251 0.64727 0.0
C1163 C 0.35212 0.25873 0.62544 0.0
C1164 C 0.32681 0.26548 0.61296 0.0
C1165 C 0.35158 0.23053 0.6362 0.0
C1166 C 0.2997 0.24491 0.6122 0.0
C1167 C 0.29855 0.21703 0.62331 0.0
H1168 H 0.09685 0.04187 0.90768 0.0
H1169 H 0.03836 0.10631 0.94124 0.0
H1170 H 0.99351 0.1006 0.91885 0.0
H1171 H 0.97801 0.08996 0.88612 0.0
H1172 H 0.04736 0.0433 0.8488 0.0
H1173 H 0.08067 0.02965 0.87553 0.0
C1174 C 0.07376 0.05369 0.9103 0.0
C1175 C 0.07076 0.07488 0.92565 0.0
C1176 C 0.05059 0.05467 0.89597 0.0
C1177 C 0.04091 0.08979 0.92939 0.0
C1178 C 0.01572 0.08721 0.91633 0.0
C1179 C 1.00056 0.07721 0.88361 0.0
C1180 C 0.01 0.06848 0.86509 0.0
C1181 C 0.02149 0.07206 0.89884 0.0
C1182 C 0.03871 0.05036 0.86264 0.0
C1183 C 0.05817 0.04259 0.87802 0.0
H1184 H 0.81881 0.71541 0.64229 0.0
H1185 H 0.92252 0.71014 0.6482 0.0
H1186 H 0.92184 0.75774 0.66884 0.0
H1187 H 0.89433 0.80894 0.6753 0.0
H1188 H 0.79248 0.81941 0.66339 0.0
H1189 H 0.78917 0.76182 0.65516 0.0
C1190 C 0.84092 0.72382 0.64901 0.0
C1191 C 0.87072 0.7102 0.64357 0.0
C1192 C 0.84059 0.75298 0.65904 0.0
C1193 C 0.89941 0.72063 0.65221 0.0
C1194 C 0.89903 0.7482 0.66365 0.0
C1195 C 0.87136 0.79838 0.6712 0.0
C1196 C 0.84399 0.81821 0.66906 0.0
C1197 C 0.87022 0.76604 0.66556 0.0
C1198 C 0.81391 0.80442 0.66469 0.0
C1199 C 0.81212 0.77162 0.65995 0.0
H1200 H 0.01373 0.05679 0.38089 0.0
H1201 H 0.0542 0.14014 0.40913 0.0
H1202 H 0.01684 0.13209 0.43565 0.0
H1203 H 0.96221 0.11336 0.44456 0.0
H1204 H 0.9171 0.03634 0.41302 0.0
H1205 H 0.96637 0.02941 0.39424 0.0
C1206 C 0.01457 0.07297 0.39301 0.0
C1207 C 0.03538 0.09998 0.39274 0.0
C1208 C 0.99155 0.06966 0.40739 0.0
C1209 C 0.03765 0.11978 0.40882 0.0
C1210 C 0.01604 0.1154 0.42385 0.0
C1211 C 0.96388 0.09416 0.43412 0.0
C1212 C 0.93615 0.07597 0.4297 0.0
C1213 C 0.99125 0.09219 0.42245 0.0
C1214 C 0.93831 0.05058 0.41657 0.0
C1215 C 0.96625 0.04712 0.40558 0.0
H1216 H 0.71815 0.17458 0.14668 0.0
H1217 H 0.6463 0.20563 0.18709 0.0
H1218 H 0.64268 0.25844 0.17175 0.0
H1219 H 0.6509 0.28998 0.14277 0.0
H1220 H 0.71975 0.25699 0.10102 0.0
H1221 H 0.73375 0.21061 0.12078 0.0
C1222 C 0.70309 0.19364 0.15262 0.0
C1223 C 0.68252 0.1868 0.16779 0.0
C1224 C 0.69974 0.22301 0.14305 0.0
C1225 C 0.66242 0.21097 0.17537 0.0
C1226 C 0.65997 0.24084 0.16644 0.0
C1227 C 0.66932 0.27281 0.13827 0.0
C1228 C 0.68389 0.27613 0.12052 0.0
C1229 C 0.67693 0.24621 0.14957 0.0
C1230 C 0.70815 0.25441 0.1147 0.0
C1231 C 0.71616 0.22802 0.12596 0.0
H1232 H 0.59352 0.9489 0.91092 0.0
H1233 H 0.56199 0.86849 0.94496 0.0
H1234 H 0.50859 0.86995 0.92996 0.0
H1235 H 0.47697 0.8857 0.90157 0.0
H1236 H 0.50919 0.96719 0.86832 0.0
H1237 H 0.55601 0.97414 0.88876 0.0
C1238 C 0.57442 0.9327 0.91562 0.0
C1239 C 0.58162 0.90812 0.9285 0.0
C1240 C 0.54422 0.93337 0.90671 0.0
C1241 C 0.55685 0.88743 0.93482 0.0
C1242 C 0.52647 0.88801 0.92608 0.0
C1243 C 0.49365 0.90562 0.89924 0.0
C1244 C 0.49058 0.92497 0.88301 0.0
C1245 C 0.52071 0.90951 0.9111 0.0
C1246 C 0.51192 0.95116 0.88033 0.0
C1247 C 0.53861 0.95527 0.89204 0.0
H1248 H 0.84455 0.12186 0.86262 0.0
H1249 H 0.86012 0.17536 0.81097 0.0
H1250 H 0.83885 0.22432 0.82594 0.0
H1251 H 0.8266 0.2535 0.85535 0.0
H1252 H 0.81904 0.20006 0.9077 0.0
H1253 H 0.82531 0.14945 0.8907 0.0
C1254 C 0.84279 0.14408 0.85452 0.0
C1255 C 0.85484 0.14542 0.83601 0.0
C1256 C 0.83209 0.17224 0.86341 0.0
C1257 C 0.85155 0.17402 0.82544 0.0
C1258 C 0.83954 0.20202 0.834 0.0
C1259 C 0.82598 0.23071 0.86297 0.0
C1260 C 0.82306 0.23059 0.88275 0.0
C1261 C 0.83153 0.20173 0.85327 0.0
C1262 C 0.82118 0.20093 0.89244 0.0
C1263 C 0.82513 0.17191 0.88277 0.0
H1264 H 0.62147 0.07657 0.61647 0.0
H1265 H 0.57826 0.10647 0.56378 0.0
H1266 H 0.52445 0.0941 0.57617 0.0
H1267 H 0.48941 0.08296 0.60372 0.0
H1268 H 0.53341 0.05548 0.65666 0.0
H1269 H 0.58693 0.05818 0.64233 0.0
C1270 C 0.60036 0.07974 0.60754 0.0
C1271 C 0.60385 0.09308 0.58941 0.0
C1272 C 0.56947 0.07328 0.61488 0.0
C1273 C 0.57628 0.09653 0.57789 0.0
C1274 C 0.54542 0.08966 0.58501 0.0
C1275 C 0.51073 0.07706 0.61198 0.0
C1276 C 0.50741 0.06924 0.63123 0.0
C1277 C 0.54166 0.07937 0.60377 0.0
C1278 C 0.53518 0.06124 0.64175 0.0
C1279 C 0.5659 0.06307 0.63363 0.0
H1280 H 0.65908 0.74587 0.35585 0.0
H1281 H 0.6207 0.78609 0.40766 0.0
H1282 H 0.62567 0.84062 0.39495 0.0
H1283 H 0.64151 0.87659 0.3696 0.0
H1284 H 0.67485 0.83769 0.31637 0.0
H1285 H 0.672 0.78257 0.32926 0.0
C1286 C 0.65126 0.76661 0.36413 0.0
C1287 C 0.63994 0.76227 0.38267 0.0
C1288 C 0.65407 0.79791 0.3567 0.0
C1289 C 0.62991 0.78913 0.3934 0.0
C1290 C 0.63288 0.82023 0.38622 0.0
C1291 C 0.64886 0.85611 0.36095 0.0
C1292 C 0.65917 0.86094 0.3423 0.0
C1293 C 0.64546 0.82487 0.36805 0.0
C1294 C 0.66747 0.83426 0.33095 0.0
C1295 C 0.66546 0.80289 0.33822 0.0
H1296 H 0.0168 0.96337 0.09312 0.0
H1297 H 0.06537 0.87777 0.07157 0.0
H1298 H 0.02263 0.8714 0.04812 0.0
H1299 H 0.96565 0.88322 0.03946 0.0
H1300 H 0.91972 0.96949 0.06104 0.0
H1301 H 0.96896 0.9836 0.07825 0.0
C1302 C 0.01957 0.94393 0.083 0.0
C1303 C 0.04417 0.92035 0.08493 0.0
C1304 C 0.99522 0.94051 0.06953 0.0
C1305 C 0.04604 0.89547 0.07128 0.0
C1306 C 0.02168 0.89188 0.05771 0.0
C1307 C 0.96716 0.90581 0.04729 0.0
C1308 C 0.93943 0.92522 0.04934 0.0
C1309 C 0.99517 0.91315 0.05756 0.0
C1310 C 0.94109 0.95449 0.05929 0.0
C1311 C 0.96901 0.96221 0.06933 0.0
H1312 H 0.69455 0.79249 0.83967 0.0
H1313 H 0.59336 0.80788 0.82652 0.0
H1314 H 0.58986 0.75246 0.81438 0.0
H1315 H 0.6124 0.69742 0.8152 0.0
H1316 H 0.71213 0.68257 0.831 0.0
H1317 H 0.71968 0.74098 0.83401 0.0
C1318 C 0.6719 0.78472 0.83341 0.0
C1319 C 0.64398 0.80441 0.83453 0.0
C1320 C 0.66981 0.75272 0.82718 0.0
C1321 C 0.61502 0.79307 0.82638 0.0
C1322 C 0.61301 0.76134 0.81945 0.0
C1323 C 0.63613 0.70698 0.81835 0.0
C1324 C 0.66169 0.68588 0.8229 0.0
C1325 C 0.63976 0.74045 0.82093 0.0
C1326 C 0.69216 0.69855 0.82753 0.0
C1327 C 0.69638 0.73185 0.82934 0.0
H1328 H 0.59976 0.44497 0.10365 0.0
H1329 H 0.52888 0.40657 0.06509 0.0
H1330 H 0.48594 0.43646 0.08156 0.0
H1331 H 0.46827 0.45636 0.11253 0.0
H1332 H 0.53953 0.48261 0.15436 0.0
H1333 H 0.58253 0.47682 0.13095 0.0
C1334 C 0.57511 0.44454 0.09836 0.0
C1335 C 0.56701 0.4235 0.08351 0.0
C1336 C 0.55054 0.45934 0.1089 0.0
C1337 C 0.53529 0.42274 0.07658 0.0
C1338 C 0.51081 0.43949 0.08616 0.0
C1339 C 0.49316 0.46198 0.11626 0.0
C1340 C 0.50102 0.46835 0.13527 0.0
C1341 C 0.51792 0.45535 0.10327 0.0
C1342 C 0.53295 0.47695 0.13991 0.0
C1343 C 0.55763 0.47313 0.12657 0.0
H1344 H 0.87731 0.23552 0.34005 0.0
H1345 H 0.91968 0.2682 0.39236 0.0
H1346 H 0.90795 0.32446 0.38402 0.0
H1347 H 0.87966 0.36353 0.36346 0.0
H1348 H 0.83806 0.33099 0.31096 0.0
H1349 H 0.85501 0.27525 0.31773 0.0
C1350 C 0.88505 0.25515 0.34922 0.0
C1351 C 0.89959 0.24797 0.36664 0.0
C1352 C 0.8774 0.2872 0.34456 0.0
C1353 C 0.90912 0.27335 0.37866 0.0
C1354 C 0.90184 0.30541 0.37408 0.0
C1355 C 0.8744 0.34406 0.35359 0.0
C1356 C 0.85705 0.35061 0.33701 0.0
C1357 C 0.88491 0.31245 0.3574 0.0
C1358 C 0.85088 0.32587 0.32397 0.0
C1359 C 0.86076 0.29424 0.32778 0.0
H1360 H 0.95327 0.62178 0.54013 0.0
H1361 H 0.89584 0.56608 0.57943 0.0
H1362 H 0.94313 0.55815 0.59944 0.0
H1363 H 0.99607 0.57697 0.60888 0.0
H1364 H 0.05468 0.63414 0.57089 0.0
H1365 H 0.01173 0.63108 0.54695 0.0
C1366 C 0.95158 0.60666 0.55262 0.0
C1367 C 0.92116 0.59481 0.55851 0.0
C1368 C 0.97859 0.60359 0.56457 0.0
C1369 C 0.91906 0.57541 0.57473 0.0
C1370 C 0.94593 0.57137 0.58631 0.0
C1371 C 0.9999 0.58832 0.59523 0.0
C1372 C 0.02844 0.60601 0.59173 0.0
C1373 C 0.97509 0.58706 0.58191 0.0
C1374 C 0.03262 0.62098 0.57408 0.0
C1375 C 0.00808 0.61921 0.56043 0.0
H1376 H 0.70034 0.27196 0.61998 0.0
H1377 H 0.65085 0.19254 0.64753 0.0
H1378 H 0.64479 0.22516 0.67603 0.0
H1379 H 0.63894 0.2804 0.68825 0.0
H1380 H 0.69062 0.35854 0.66174 0.0
H1381 H 0.71252 0.32133 0.63805 0.0
C1382 C 0.68938 0.26099 0.63233 0.0
C1383 C 0.67419 0.23047 0.63112 0.0
C1384 C 0.68616 0.27971 0.64874 0.0
C1385 C 0.66087 0.21679 0.64764 0.0
C1386 C 0.65777 0.23523 0.66406 0.0
C1387 C 0.65615 0.28904 0.67777 0.0
C1388 C 0.66 0.32248 0.67498 0.0
C1389 C 0.66801 0.26753 0.66413 0.0
C1390 C 0.6844 0.33322 0.66263 0.0
C1391 C 0.69707 0.3119 0.64917 0.0
H1392 H 0.02347 0.40315 0.89153 0.0
H1393 H 0.98815 0.44014 0.83838 0.0
H1394 H 0.93256 0.43645 0.8496 0.0
H1395 H 0.8939 0.41797 0.87319 0.0
H1396 H 0.92834 0.38058 0.92648 0.0
H1397 H 0.98422 0.38956 0.91666 0.0
C1398 C 1.00351 0.41074 0.88261 0.0
C1399 C 0.00968 0.42204 0.86431 0.0
C1400 C 0.97149 0.40837 0.88909 0.0
C1401 C 0.98384 0.43184 0.85271 0.0
C1402 C 0.95207 0.42956 0.85902 0.0
C1403 C 0.9136 0.41223 0.88275 0.0
C1404 C 0.90706 0.39805 0.90029 0.0
C1405 C 0.9456 0.41725 0.87702 0.0
C1406 C 0.93278 0.39118 0.91272 0.0
C1407 C 0.96478 0.3962 0.90713 0.0
H1408 H 0.83205 0.7608 0.11422 0.0
H1409 H 0.88475 0.81824 0.15474 0.0
H1410 H 0.87938 0.77451 0.17823 0.0
H1411 H 0.8657 0.71752 0.18517 0.0
H1412 H 0.8149 0.66057 0.14347 0.0
H1413 H 0.81209 0.70745 0.12253 0.0
C1414 C 0.84195 0.76401 0.12831 0.0
C1415 C 0.85919 0.79235 0.13281 0.0
C1416 C 0.83872 0.7391 0.14143 0.0
C1417 C 0.87217 0.79615 0.15096 0.0
C1418 C 0.86879 0.77138 0.16433 0.0
C1419 C 0.85278 0.71589 0.17185 0.0
C1420 C 0.84023 0.68595 0.16581 0.0
C1421 C 0.85283 0.74242 0.15952 0.0
C1422 C 0.82431 0.68363 0.14837 0.0
C1423 C 0.82319 0.7102 0.13633 0.0
H1424 H 0.64934 0.56839 0.36175 0.0
H1425 H 0.59008 0.56401 0.41213 0.0
H1426 H 0.54839 0.53457 0.39475 0.0
H1427 H 0.52323 0.52639 0.36387 0.0
H1428 H 0.57903 0.54066 0.31312 0.0
H1429 H 0.62822 0.54799 0.33182 0.0
C1430 C 0.62764 0.56032 0.36907 0.0
C1431 C 0.62207 0.56952 0.38795 0.0
C1432 C 0.60318 0.54497 0.35877 0.0
C1433 C 0.59443 0.55802 0.39742 0.0
C1434 C 0.57061 0.54116 0.38749 0.0
C1435 C 0.54665 0.52913 0.35701 0.0
C1436 C 0.54787 0.53383 0.33738 0.0
C1437 C 0.57381 0.53669 0.36791 0.0
C1438 C 0.57786 0.53721 0.3283 0.0
C1439 C 0.60575 0.54216 0.33903 0.0
H1440 H 0.33562 0.37785 0.13253 0.0
H1441 H 0.38946 0.3255 0.17491 0.0
H1442 H 0.37877 0.27471 0.15869 0.0
H1443 H 0.36185 0.24726 0.13007 0.0
H1444 H 0.30203 0.29755 0.08942 0.0
H1445 H 0.30753 0.34742 0.10753 0.0
C1446 C 0.3446 0.35522 0.13829 0.0
C1447 C 0.36449 0.35539 0.1543 0.0
C1448 C 0.33771 0.326 0.12917 0.0
C1449 C 0.37503 0.32601 0.16216 0.0
C1450 C 0.36883 0.29693 0.15297 0.0
C1451 C 0.34892 0.26862 0.12538 0.0
C1452 C 0.33273 0.26886 0.10794 0.0
C1453 C 0.3513 0.29689 0.13606 0.0
C1454 C 0.31613 0.29704 0.10231 0.0
C1455 C 0.31896 0.32554 0.11272 0.0
H1456 H 0.52669 0.58097 0.8693 0.0
H1457 H 0.54828 0.64484 0.91588 0.0
H1458 H 0.49269 0.63745 0.92811 0.0
H1459 H 0.43703 0.61728 0.92313 0.0
H1460 H 0.41617 0.55663 0.87478 0.0
H1461 H 0.47324 0.55741 0.86585 0.0
C1462 C 0.51926 0.59306 0.88225 0.0
C1463 C 0.54112 0.61339 0.89176 0.0
C1464 C 0.48769 0.58922 0.88876 0.0
C1465 C 0.53157 0.62915 0.90841 0.0
C1466 C 0.5 0.62482 0.91534 0.0
C1467 C 0.44508 0.60398 0.91074 0.0
C1468 C 0.42237 0.58752 0.89936 0.0
C1469 C 0.47766 0.60561 0.90529 0.0
C1470 C 0.43313 0.56957 0.88371 0.0
C1471 C 0.46566 0.5703 0.87848 0.0
H1472 H 0.19872 0.78953 0.652 0.0
H1473 H 0.09567 0.80563 0.64932 0.0
H1474 H 0.08621 0.75829 0.6693 0.0
H1475 H 0.10651 0.70471 0.67812 0.0
H1476 H 0.20901 0.68477 0.67626 0.0
H1477 H 0.2199 0.7412 0.66777 0.0
C1478 C 0.17436 0.78342 0.65661 0.0
C1479 C 0.14784 0.80008 0.64887 0.0
C1480 C 0.16914 0.75481 0.66669 0.0
C1481 C 0.11634 0.79275 0.65502 0.0
C1482 C 0.11095 0.76537 0.66614 0.0
C1483 C 0.13122 0.71299 0.67619 0.0
C1484 C 0.15688 0.69074 0.67695 0.0
C1485 C 0.13699 0.74485 0.67053 0.0
C1486 C 0.18894 0.70162 0.67535 0.0
C1487 C 0.19509 0.73377 0.67043 0.0
H1488 H 0.07162 0.45231 0.41403 0.0
H1489 H 0.11129 0.38145 0.37516 0.0
H1490 H 0.07323 0.39641 0.3515 0.0
H1491 H 0.02532 0.42367 0.34273 0.0
H1492 H 0.97589 0.48681 0.38188 0.0
H1493 H 0.02084 0.48099 0.40455 0.0
C1494 C 0.07187 0.44047 0.40033 0.0
C1495 C 0.09491 0.41638 0.39634 0.0
C1496 C 0.04802 0.44768 0.38684 0.0
C1497 C 0.09464 0.40065 0.37866 0.0
C1498 C 0.07264 0.40904 0.36498 0.0
C1499 C 0.02478 0.4371 0.35595 0.0
C1500 C 0.99796 0.45597 0.36062 0.0
C1501 C 0.04899 0.43194 0.36904 0.0
C1502 C 0.9968 0.47231 0.37807 0.0
C1503 C 0.02223 0.46877 0.391 0.0
H1504 H 0.37022 0.68248 0.30412 0.0
H1505 H 0.3124 0.63593 0.34708 0.0
H1506 H 0.28518 0.68707 0.35396 0.0
H1507 H 0.29084 0.7448 0.35449 0.0
H1508 H 0.35499 0.79332 0.31532 0.0
H1509 H 0.36652 0.74144 0.29989 0.0
C1510 C 0.35059 0.68338 0.31436 0.0
C1511 C 0.34345 0.65597 0.32536 0.0
C1512 C 0.33699 0.71332 0.31923 0.0
C1513 C 0.31826 0.65704 0.33865 0.0
C1514 C 0.30299 0.68628 0.34266 0.0
C1515 C 0.30616 0.74469 0.34202 0.0
C1516 C 0.32278 0.77292 0.33644 0.0
C1517 C 0.31404 0.71482 0.33406 0.0
C1518 C 0.34261 0.77178 0.32024 0.0
C1519 C 0.34926 0.74212 0.31147 0.0
H1520 H 0.07384 0.61397 0.06367 0.0
H1521 H 0.09996 0.53585 0.10096 0.0
H1522 H 0.04281 0.5266 0.1081 0.0
H1523 H 0.98981 0.55183 0.11146 0.0
H1524 H 0.96832 0.63978 0.08132 0.0
H1525 H 0.01801 0.63343 0.06271 0.0
C1526 C 0.06716 0.59469 0.07309 0.0
C1527 C 0.09116 0.57678 0.08251 0.0
C1528 C 0.03467 0.59152 0.07838 0.0
C1529 C 0.0819 0.55072 0.09404 0.0
C1530 C 0.04925 0.54545 0.09812 0.0
C1531 C 0.99565 0.56896 0.10032 0.0
C1532 C 0.97659 0.59693 0.09822 0.0
C1533 C 0.02591 0.5674 0.09157 0.0
C1534 C 0.98319 0.61846 0.08341 0.0
C1535 C 0.01189 0.61511 0.07305 0.0
H1536 H 0.17941 0.2342 0.86302 0.0
H1537 H 0.09709 0.20611 0.82914 0.0
H1538 H 0.10046 0.25794 0.8121 0.0
H1539 H 0.1236 0.31286 0.8096 0.0
H1540 H 0.20132 0.34121 0.84694 0.0
H1541 H 0.20478 0.28608 0.85888 0.0
C1542 C 0.16274 0.23873 0.85147 0.0
C1543 C 0.13829 0.21618 0.84714 0.0
C1544 C 0.16434 0.2684 0.84228 0.0
C1545 C 0.11615 0.22313 0.83267 0.0
C1546 C 0.11815 0.25262 0.82294 0.0
C1547 C 0.14126 0.30698 0.82032 0.0
C1548 C 0.16134 0.3313 0.82793 0.0
C1549 C 0.14163 0.27576 0.82804 0.0
C1550 C 0.18519 0.323 0.84116 0.0
C1551 C 0.18702 0.2916 0.84808 0.0
H1552 H 0.42777 0.38471 0.56945 0.0
H1553 H 0.40096 0.46827 0.60293 0.0
H1554 H 0.45545 0.47008 0.61625 0.0
H1555 H 0.50822 0.44533 0.62034 0.0
H1556 H 0.53529 0.36089 0.5878 0.0
H1557 H 0.48233 0.36191 0.572 0.0
C1558 C 0.43386 0.40365 0.57943 0.0
C1559 C 0.41027 0.4263 0.58524 0.0
C1560 C 0.46498 0.40422 0.5872 0.0
C1561 C 0.41863 0.45054 0.59827 0.0
C1562 C 0.44972 0.45154 0.6059 0.0
C1563 C 0.50304 0.42765 0.60938 0.0
C1564 C 0.52578 0.40334 0.60499 0.0
C1565 C 0.47277 0.42817 0.6007 0.0
C1566 C 0.51816 0.37989 0.59131 0.0
C1567 C 0.48799 0.38049 0.58233 0.0
H1568 H 0.14672 0.96614 0.36185 0.0
H1569 H 0.20757 0.03802 0.33538 0.0
H1570 H 0.25578 0.01126 0.34795 0.0
H1571 H 0.28048 0.96935 0.3683 0.0
H1572 H 0.21908 0.8985 0.39528 0.0
H1573 H 0.17135 0.92309 0.38084 0.0
C1574 C 0.17048 0.97602 0.35879 0.0
C1575 C 0.17327 1.00437 0.34779 0.0
C1576 C 0.19808 0.96082 0.36635 0.0
C1577 C 0.20449 0.01623 0.34366 0.0
C1578 C 0.23213 1.00107 0.35102 0.0
C1579 C 0.25664 0.95938 0.37108 0.0
C1580 C 0.25341 0.93222 0.38305 0.0
C1581 C 0.22918 0.97372 0.36271 0.0
C1582 C 0.22236 0.91921 0.38611 0.0
C1583 C 0.19501 0.93336 0.3779 0.0
H1584 H 0.27364 0.02963 0.65222 0.0
H1585 H 0.37026 0.99338 0.64228 0.0
H1586 H 0.3489 0.95372 0.61976 0.0
H1587 H 0.30255 0.92709 0.60453 0.0
H1588 H 0.2056 0.96202 0.61489 0.0
H1589 H 0.2273 1.00492 0.63531 0.0
C1590 C 0.29003 0.01305 0.64513 0.0
C1591 C 0.32357 0.01428 0.64914 0.0
C1592 C 0.27748 0.99017 0.63224 0.0
C1593 C 0.34448 0.9931 0.63945 0.0
C1594 C 0.33221 0.97029 0.62664 0.0
C1595 C 0.28609 0.94407 0.61124 0.0
C1596 C 0.25236 0.94096 0.60835 0.0
C1597 C 0.29873 0.96826 0.62317 0.0
C1598 C 0.23157 0.96381 0.61678 0.0
C1599 C 0.24401 0.98818 0.62859 0.0
H1600 H 0.21242 0.04159 0.85814 0.0
H1601 H 0.26033 0.06761 0.91022 0.0
H1602 H 0.31135 0.04595 0.89792 0.0
H1603 H 0.3418 0.01813 0.87285 0.0
H1604 H 0.29381 0.99165 0.8209 0.0
H1605 H 0.24299 0.01421 0.83296 0.0
C1606 C 0.23382 0.04223 0.86697 0.0
C1607 C 0.23226 0.05605 0.88524 0.0
C1608 C 0.26303 0.02949 0.85985 0.0
C1609 C 0.26071 0.05733 0.89613 0.0
C1610 C 0.28989 0.04479 0.88912 0.0
C1611 C 0.32044 0.01769 0.86399 0.0
C1612 C 0.32186 1.00332 0.84586 0.0
C1613 C 0.2913 0.03073 0.87102 0.0
C1614 C 0.2935 1.00233 0.83489 0.0
C1615 C 0.26443 0.01535 0.84177 0.0
H1616 H 0.20943 0.10394 0.0927 0.0
H1617 H 0.2974 0.04974 0.08266 0.0
H1618 H 0.27647 1.00536 0.10183 0.0
H1619 H 0.2341 0.98287 0.12316 0.0
H1620 H 0.14714 0.03809 0.13332 0.0
H1621 H 0.16723 0.08149 0.11297 0.0
C1622 C 0.22431 0.08264 0.09471 0.0
C1623 C 0.25528 0.08079 0.08626 0.0
C1624 C 0.21244 0.05741 0.10611 0.0
C1625 C 0.27349 0.05222 0.08879 0.0
C1626 C 0.26163 0.02678 0.09995 0.0
C1627 C 0.21972 1.0045 0.1209 0.0
C1628 C 0.18921 0.00737 0.12975 0.0
C1629 C 0.23136 0.02932 0.10897 0.0
C1630 C 0.17054 0.03526 0.12654 0.0
C1631 C 0.18206 0.06008 0.11494 0.0
H1632 H 0.77487 0.965 0.6121 0.0
H1633 H 0.8491 0.022 0.63944 0.0
H1634 H 0.82725 0.07097 0.62499 0.0
H1635 H 0.7884 0.09728 0.6035 0.0
H1636 H 0.71691 0.03897 0.57466 0.0
H1637 H 0.73682 0.99079 0.59062 0.0
C1638 C 0.7867 0.98794 0.6148 0.0
C1639 C 0.81403 0.98939 0.62672 0.0
C1640 C 0.7746 0.01587 0.60604 0.0
C1641 C 0.82806 0.01984 0.63044 0.0
C1642 C 0.8157 0.04793 0.62203 0.0
C1643 C 0.77741 0.07401 0.60049 0.0
C1644 C 0.75121 0.07195 0.58774 0.0
C1645 C 0.78927 0.04615 0.60957 0.0
C1646 C 0.73684 0.04156 0.58446 0.0
C1647 C 0.74832 0.01387 0.59355 0.0
H1648 H 0.80554 0.05112 0.35612 0.0
H1649 H 0.75079 0.08538 0.40438 0.0
H1650 H 0.70184 0.06098 0.39137 0.0
H1651 H 0.67484 0.02889 0.36681 0.0
H1652 H 0.72967 0.99397 0.31886 0.0
H1653 H 0.77877 0.01859 0.3318 0.0
C1654 C 0.78316 0.05308 0.36405 0.0
C1655 C 0.7823 0.07018 0.38139 0.0
C1656 C 0.7551 0.03852 0.35663 0.0
C1657 C 0.75248 0.07278 0.39099 0.0
C1658 C 0.72439 0.05859 0.3836 0.0
C1659 C 0.69737 0.02693 0.359 0.0
C1660 C 0.69833 0.00976 0.34171 0.0
C1661 C 0.72546 0.04135 0.36647 0.0
C1662 C 0.72813 0.00682 0.33219 0.0
C1663 C 0.7562 0.0211 0.33954 0.0
H1664 H 0.68962 0.02787 0.09918 0.0
H1665 H 0.72458 0.01527 0.15604 0.0
H1666 H 0.7632 0.97421 0.14495 0.0
H1667 H 0.79063 0.94616 0.11852 0.0
H1668 H 0.75533 0.95764 0.0617 0.0
H1669 H 0.71267 0.99439 0.07323 0.0
C1670 C 0.70543 0.01574 0.10913 0.0
C1671 C 0.70452 0.02476 0.1284 0.0
C1672 C 0.72741 0.99205 0.10261 0.0
C1673 C 0.72478 0.00863 0.14122 0.0
C1674 C 0.74696 0.98533 0.13483 0.0
C1675 C 0.77314 0.95627 0.10874 0.0
C1676 C 0.77612 0.94942 0.08925 0.0
C1677 C 0.74899 0.97742 0.11551 0.0
C1678 C 0.75328 0.96239 0.07673 0.0
C1679 C 0.72918 0.98363 0.08332 0.0
H1680 H 0.72561 0.98211 0.85869 0.0
H1681 H 0.78657 0.92644 0.89601 0.0
H1682 H 0.83473 0.94594 0.87931 0.0
H1683 H 0.85946 0.97925 0.85446 0.0
H1684 H 0.79867 0.03481 0.817 0.0
H1685 H 0.75045 0.01553 0.83378 0.0
C1686 C 0.7494 0.9745 0.86338 0.0
C1687 C 0.75235 0.9529 0.87876 0.0
C1688 C 0.77701 0.98587 0.8537 0.0
C1689 C 0.78349 0.94282 0.88421 0.0
C1690 C 0.81106 0.95408 0.87469 0.0
C1691 C 0.83571 0.98686 0.84973 0.0
C1692 C 0.83285 0.0083 0.83428 0.0
C1693 C 0.8081 0.97556 0.8594 0.0
C1694 C 0.80173 0.01849 0.82882 0.0
C1695 C 0.77411 0.00735 0.83839 0.0
H1696 H 0.71869 0.40645 0.88019 0.0
H1697 H 0.79613 0.46521 0.90298 0.0
H1698 H 0.77798 0.51082 0.88384 0.0
H1699 H 0.73923 0.53454 0.86095 0.0
H1700 H 0.66083 0.47587 0.83974 0.0
H1701 H 0.68001 0.42983 0.85827 0.0
C1702 C 0.73159 0.42916 0.88136 0.0
C1703 C 0.75883 0.43194 0.89335 0.0
C1704 C 0.72077 0.45548 0.87051 0.0
C1705 C 0.77524 0.46186 0.89398 0.0
C1706 C 0.76479 0.48814 0.88302 0.0
C1707 C 0.72663 0.51153 0.86026 0.0
C1708 C 0.69874 0.50853 0.84887 0.0
C1709 C 0.73757 0.48524 0.87122 0.0
C1710 C 0.68222 0.47881 0.84842 0.0
C1711 C 0.69324 0.45249 0.85899 0.0
H1712 H 0.70852 0.49086 0.11764 0.0
H1713 H 0.76506 0.43994 0.07564 0.0
H1714 H 0.81401 0.46771 0.08651 0.0
H1715 H 0.84114 0.5038 0.10933 0.0
H1716 H 0.78454 0.55176 0.15251 0.0
H1717 H 0.73519 0.52752 0.13987 0.0
C1718 C 0.73153 0.48567 0.11087 0.0
C1719 C 0.73303 0.46299 0.09595 0.0
C1720 C 0.75962 0.50104 0.11751 0.0
C1721 C 0.76302 0.45735 0.08704 0.0
C1722 C 0.7911 0.47303 0.09338 0.0
C1723 C 0.81806 0.50886 0.11605 0.0
C1724 C 0.8167 0.5295 0.13198 0.0
C1725 C 0.78976 0.49445 0.10884 0.0
C1726 C 0.78638 0.53629 0.14019 0.0
C1727 C 0.75814 0.52227 0.13301 0.0
H1728 H 0.8396 0.50499 0.36971 0.0
H1729 H 0.78528 0.52357 0.31909 0.0
H1730 H 0.74549 0.5553 0.33727 0.0
H1731 H 0.73009 0.58287 0.36719 0.0
H1732 H 0.78405 0.56385 0.4179 0.0
H1733 H 0.81994 0.52674 0.40043 0.0
C1734 C 0.81856 0.51546 0.36288 0.0
C1735 C 0.81505 0.51217 0.3432 0.0
C1736 C 0.79602 0.53366 0.37347 0.0
C1737 C 0.78804 0.5258 0.33426 0.0
C1738 C 0.76554 0.54403 0.34464 0.0
C1739 C 0.74929 0.56989 0.37438 0.0
C1740 C 0.75467 0.57579 0.39372 0.0
C1741 C 0.76978 0.54886 0.36417 0.0
C1742 C 0.77959 0.55927 0.40304 0.0
C1743 C 0.80013 0.53833 0.39302 0.0
H1744 H 0.71513 0.47162 0.61369 0.0
H1745 H 0.68965 0.52308 0.66488 0.0
H1746 H 0.71868 0.57079 0.65336 0.0
H1747 H 0.75181 0.59754 0.62893 0.0
H1748 H 0.77794 0.54537 0.57822 0.0
H1749 H 0.74916 0.49755 0.58986 0.0
C1750 C 0.71618 0.4929 0.62262 0.0
C1751 C 0.7002 0.49333 0.64034 0.0
C1752 C 0.73336 0.52004 0.61604 0.0
C1753 C 0.70138 0.52188 0.6512 0.0
C1754 C 0.7182 0.54916 0.64465 0.0
C1755 C 0.7511 0.57578 0.62036 0.0
C1756 C 0.76691 0.57517 0.60262 0.0
C1757 C 0.73431 0.54847 0.6271 0.0
C1758 C 0.76629 0.54647 0.59194 0.0
C1759 C 0.74959 0.51921 0.59854 0.0
H1760 H 0.23075 0.50438 0.11317 0.0
H1761 H 0.28215 0.59472 0.10714 0.0
H1762 H 0.32126 0.57785 0.13095 0.0
H1763 H 0.3411 0.53792 0.15338 0.0
H1764 H 0.2898 0.4477 0.16091 0.0
H1765 H 0.25089 0.46381 0.1366 0.0
C1766 C 0.25066 0.52018 0.11703 0.0
C1767 C 0.25341 0.55088 0.10836 0.0
C1768 C 0.2731 0.5104 0.13107 0.0
C1769 C 0.2792 0.57121 0.11368 0.0
C1770 C 0.30167 0.56151 0.12729 0.0
C1771 C 0.32121 0.52179 0.15009 0.0
C1772 C 0.31855 0.49161 0.15938 0.0
C1773 C 0.29877 0.53129 0.13617 0.0
C1774 C 0.29282 0.471 0.15416 0.0
C1775 C 0.2704 0.48026 0.14021 0.0
H1776 H 0.23953 0.47188 0.85178 0.0
H1777 H 0.15321 0.52745 0.84069 0.0
H1778 H 0.17402 0.57198 0.85999 0.0
H1779 H 0.21744 0.59587 0.87885 0.0
H1780 H 0.30484 0.54135 0.88939 0.0
H1781 H 0.28244 0.49528 0.87211 0.0
C1782 C 0.22534 0.49376 0.85366 0.0
C1783 C 0.19493 0.49645 0.84476 0.0
C1784 C 0.23749 0.5193 0.86482 0.0
C1785 C 0.17652 0.5247 0.84751 0.0
C1786 C 0.18848 0.5502 0.85848 0.0
C1787 C 0.2318 0.57406 0.87735 0.0
C1788 C 0.26312 0.57256 0.88527 0.0
C1789 C 0.21906 0.5479 0.86704 0.0
C1790 C 0.28071 0.54346 0.88357 0.0
C1791 C 0.268 0.5171 0.87351 0.0
H1792 H 0.22692 0.42038 0.60603 0.0
H1793 H 0.27224 0.48093 0.5639 0.0
H1794 H 0.24736 0.52885 0.57821 0.0
H1795 H 0.2127 0.55326 0.6025 0.0
H1796 H 0.16853 0.49278 0.64517 0.0
H1797 H 0.19212 0.44485 0.63032 0.0
C1798 C 0.231 0.44396 0.59977 0.0
C1799 C 0.25128 0.44695 0.58379 0.0
C1800 C 0.21667 0.47137 0.60809 0.0
C1801 C 0.25693 0.4779 0.57623 0.0
C1802 C 0.24258 0.50529 0.58436 0.0
C1803 C 0.20842 0.52975 0.60877 0.0
C1804 C 0.18888 0.52691 0.6251 0.0
C1805 C 0.22251 0.5023 0.60033 0.0
C1806 C 0.18314 0.49588 0.63258 0.0
C1807 C 0.19683 0.46841 0.62415 0.0
H1808 H 0.3693 0.48225 0.36704 0.0
H1809 H 0.31146 0.54448 0.33159 0.0
H1810 H 0.26223 0.51764 0.3427 0.0
H1811 H 0.23573 0.47772 0.36296 0.0
H1812 H 0.29311 0.41443 0.39802 0.0
H1813 H 0.34251 0.44184 0.38736 0.0
C1814 C 0.34594 0.49006 0.36178 0.0
C1815 C 0.3442 0.51542 0.34844 0.0
C1816 C 0.31769 0.47481 0.36845 0.0
C1817 C 0.31367 0.5248 0.34159 0.0
C1818 C 0.28546 0.50968 0.34811 0.0
C1819 C 0.259 0.46958 0.36818 0.0
C1820 C 0.2606 0.44371 0.38117 0.0
C1821 C 0.28722 0.48481 0.3616 0.0
C1822 C 0.29103 0.43434 0.38817 0.0
C1823 C 0.31932 0.4498 0.3819 0.0
H1824 H 0.11998 0.0697 0.25606 0.0
H1825 H 0.08661 0.98896 0.2894 0.0
H1826 H 0.09265 0.95274 0.2623 0.0
H1827 H 0.10023 0.94554 0.22796 0.0
H1828 H 0.12923 0.02734 0.19413 0.0
H1829 H 0.1326 0.06133 0.22234 0.0
C1830 C 0.11463 0.04407 0.2574 0.0
C1831 C 0.10246 0.03201 0.27453 0.0
C1832 C 0.1171 0.02356 0.24155 0.0
C1833 C 0.09551 0.99881 0.27618 0.0
C1834 C 0.09899 0.97807 0.26071 0.0
C1835 C 0.10798 0.97059 0.22691 0.0
C1836 C 0.11414 0.98409 0.2091 0.0
C1837 C 0.10867 0.99036 0.24314 0.0
C1838 C 0.12397 0.01662 0.20778 0.0
C1839 C 0.12586 0.03608 0.22388 0.0
H1840 H 0.27846 0.84507 0.52971 0.0
H1841 H 0.1847 0.87694 0.51021 0.0
H1842 H 0.20594 0.88203 0.47802 0.0
H1843 H 0.2493 0.8712 0.45507 0.0
H1844 H 0.34335 0.84017 0.4744 0.0
H1845 H 0.32404 0.84148 0.50725 0.0
C1846 C 0.2628 0.85342 0.51842 0.0
C1847 C 0.22997 0.86 0.52215 0.0
C1848 C 0.27519 0.85632 0.50003 0.0
C1849 C 0.21002 0.87152 0.50759 0.0
C1850 C 0.22211 0.87432 0.4892 0.0
C1851 C 0.26565 0.86515 0.46654 0.0
C1852 C 0.29742 0.85503 0.46246 0.0
C1853 C 0.25436 0.86584 0.48521 0.0
C1854 C 0.31873 0.84791 0.47731 0.0
C1855 C 0.30763 0.84844 0.49602 0.0
H1856 H 0.37673 0.04535 0.7189 0.0
H1857 H 0.38363 0.11317 0.7651 0.0
H1858 H 0.37956 0.06857 0.78777 0.0
H1859 H 0.38466 0.01042 0.79385 0.0
H1860 H 0.38227 0.94247 0.74761 0.0
H1861 H 0.37257 0.98702 0.7253 0.0
C1862 C 0.37545 0.05054 0.73389 0.0
C1863 C 0.37962 0.08254 0.74038 0.0
C1864 C 0.37441 0.02467 0.74672 0.0
C1865 C 0.37991 0.08876 0.75987 0.0
C1866 C 0.37786 0.06327 0.77278 0.0
C1867 C 0.38093 1.00542 0.77893 0.0
C1868 C 0.38417 0.97359 0.7722 0.0
C1869 C 0.37665 0.03113 0.76631 0.0
C1870 C 0.37956 0.96694 0.75297 0.0
C1871 C 0.37438 0.9924 0.74027 0.0
H1872 H 0.25345 0.12494 0.9447 0.0
H1873 H 0.16835 0.1258 0.98026 0.0
H1874 H 0.20235 0.11793 0.00828 0.0
H1875 H 0.2564 0.12198 0.02255 0.0
H1876 H 0.3413 0.1248 0.98706 0.0
H1877 H 0.30735 0.11871 0.95885 0.0
C1878 C 0.24238 0.12292 0.95859 0.0
C1879 C 0.20873 0.12686 0.96066 0.0
C1880 C 0.26204 0.11878 0.97449 0.0
C1881 C 0.19433 0.12326 0.97851 0.0
C1882 C 0.21373 0.1188 -0.00554 0.0
C1883 C 0.26739 0.11974 0.00864 0.0
C1884 C 0.30099 0.12368 0.00664 0.0
C1885 C 0.24764 0.11798 -0.00736 0.0
C1886 C 0.31542 0.12128 0.98875 0.0
C1887 C 0.29597 0.11841 0.97269 0.0
H1888 H 0.85694 1.00323 0.69458 0.0
H1889 H 0.87307 0.91665 0.72717 0.0
H1890 H 0.87237 0.94862 0.75643 0.0
H1891 H 0.88172 1.0019 0.77092 0.0
H1892 H 0.8711 0.08863 0.73774 0.0
H1893 H 0.85422 0.0561 0.7104 0.0
C1894 C 0.85904 0.99133 0.70821 0.0
C1895 C 0.86561 0.95798 0.70893 0.0
C1896 C 0.86014 0.01003 0.72469 0.0
C1897 C 0.86798 0.94238 0.72644 0.0
C1898 C 0.868 0.96071 0.74308 0.0
C1899 C 0.87455 0.01359 0.75784 0.0
C1900 C 0.87803 0.04727 0.75599 0.0
C1901 C 0.8663 0.99468 0.74216 0.0
C1902 C 0.86853 0.06265 0.73928 0.0
C1903 C 0.85924 0.04403 0.72367 0.0
H1904 H 0.68215 0.14876 0.48326 0.0
H1905 H 0.7384 0.11373 0.5301 0.0
H1906 H 0.78574 0.10687 0.50944 0.0
H1907 H 0.81329 0.12025 0.4789 0.0
H1908 H 0.75487 0.15441 0.43244 0.0
H1909 H 0.70641 0.15128 0.45177 0.0
C1910 C 0.70442 0.13837 0.48871 0.0
C1911 C 0.70694 0.13172 0.50803 0.0
C1912 C 0.73146 0.13487 0.47682 0.0
C1913 C 0.73592 0.11863 0.51513 0.0
C1914 C 0.76311 0.11512 0.50337 0.0
C1915 C 0.78983 0.12627 0.47298 0.0
C1916 C 0.78786 0.1386 0.45448 0.0
C1917 C 0.7616 0.1246 0.48432 0.0
C1918 C 0.75724 0.14588 0.44686 0.0
C1919 C 0.72937 0.144 0.45787 0.0
H1920 H 0.65973 1.00278 0.19789 0.0
H1921 H 0.66263 0.09436 0.22727 0.0
H1922 H 0.67523 0.06649 0.25688 0.0
H1923 H 0.67036 0.01614 0.27495 0.0
H1924 H 0.66231 0.92478 0.24587 0.0
H1925 H 0.66834 0.9522 0.2154 0.0
C1926 C 0.66402 0.0166 0.21072 0.0
C1927 C 0.65937 0.05029 0.21072 0.0
C1928 C 0.67034 1.00036 0.22765 0.0
C1929 C 0.66574 0.0683 0.22712 0.0
C1930 C 0.67279 0.05237 0.24402 0.0
C1931 C 0.67164 1.00221 0.26192 0.0
C1932 C 0.6654 0.96883 0.26239 0.0
C1933 C 0.67308 0.01837 0.24459 0.0
C1934 C 0.66712 0.95058 0.24569 0.0
C1935 C 0.66994 0.96635 0.2283 0.0
H1936 H 0.75869 0.86312 0.02158 0.0
H1937 H 0.85281 0.86816 -0.00496 0.0
H1938 H 0.82709 0.86924 0.96379 0.0
H1939 H 0.77784 0.86536 0.94409 0.0
H1940 H 0.68379 0.86278 0.97088 0.0
H1941 H 0.70951 0.86418 0.00205 0.0
C1942 C 0.7736 0.86462 0.00895 0.0
C1943 C 0.80763 0.86511 0.01059 0.0
C1944 C 0.75864 0.86547 -0.00887 0.0
C1945 C 0.8266 0.86769 -0.00586 0.0
C1946 C 0.81188 0.86814 0.97629 0.0
C1947 C 0.76298 0.86519 0.95676 0.0
C1948 C 0.72895 0.86351 0.95519 0.0
C1949 C 0.77795 0.86646 0.97462 0.0
C1950 C 0.70999 0.86395 0.97171 0.0
C1951 C 0.7247 0.86468 0.98952 0.0
H1952 H 0.62561 0.56579 0.76198 0.0
H1953 H 0.58184 0.4903 0.79565 0.0
H1954 H 0.58513 0.45288 0.76917 0.0
H1955 H 0.59744 0.44189 0.73568 0.0
H1956 H 0.63758 0.51788 0.7012 0.0
H1957 H 0.63945 0.55424 0.72859 0.0
C1958 C 0.61689 0.54115 0.76351 0.0
C1959 C 0.6033 0.5311 0.7808 0.0
C1960 C 0.61849 0.51955 0.74804 0.0
C1961 C 0.59218 0.49896 0.7825 0.0
C1962 C 0.59416 0.47734 0.76736 0.0
C1963 C 0.60727 0.46617 0.73435 0.0
C1964 C 0.61776 0.47717 0.71662 0.0
C1965 C 0.60699 0.48737 0.74999 0.0
C1966 C 0.62965 0.50892 0.71485 0.0
C1967 C 0.6305 0.52977 0.73046 0.0
H1968 H 0.74195 0.42323 0.0326 0.0
H1969 H 0.65863 0.40205 -0.00188 0.0
H1970 H 0.69301 0.40146 0.96981 0.0
H1971 H 0.7476 0.39089 0.95736 0.0
H1972 H 0.83107 0.40442 -0.007 0.0
H1973 H 0.79609 0.42487 0.01846 0.0
C1974 C 0.73116 0.42008 0.01874 0.0
C1975 C 0.69805 0.41234 0.01731 0.0
C1976 C 0.75138 0.4176 0.00291 0.0
C1977 C 0.68405 0.40825 -0.00056 0.0
C1978 C 0.70384 0.40734 0.98334 0.0
C1979 C 0.75809 0.39958 0.97049 0.0
C1980 C 0.79151 0.39588 0.97363 0.0
C1981 C 0.7377 0.40955 0.98522 0.0
C1982 C 0.80533 0.40721 0.99044 0.0
C1983 C 0.78528 0.41851 0.005 0.0
H1984 H 0.87026 0.43683 0.23661 0.0
H1985 H 0.84085 0.4995 0.28214 0.0
H1986 H 0.84009 0.54591 0.2607 0.0
H1987 H 0.86135 0.57003 0.23086 0.0
H1988 H 0.89241 0.5062 0.18601 0.0
H1989 H 0.87823 0.45907 0.2049 0.0
C1990 C 0.86174 0.46027 0.24151 0.0
C1991 C 0.85553 0.46484 0.2608 0.0
C1992 C 0.86272 0.48697 0.22925 0.0
C1993 C 0.84521 0.49541 0.2672 0.0
C1994 C 0.84548 0.52211 0.25501 0.0
C1995 C 0.86401 0.54579 0.22512 0.0
C1996 C 0.87877 0.5414 0.20737 0.0
C1997 C 0.85631 0.51851 0.23629 0.0
C1998 C 0.8819 0.50999 0.19991 0.0
C1999 C 0.87373 0.48301 0.21067 0.0
H2000 H 0.80232 0.62027 0.51002 0.0
H2001 H 0.73707 0.67711 0.54455 0.0
H2002 H 0.69164 0.6612 0.52492 0.0
H2003 H 0.67217 0.63982 0.49499 0.0
H2004 H 0.73676 0.5873 0.45831 0.0
H2005 H 0.78012 0.59134 0.48189 0.0
C2006 C 0.77808 0.62882 0.51329 0.0
C2007 C 0.77328 0.65066 0.52837 0.0
C2008 C 0.75177 0.61998 0.50163 0.0
C2009 C 0.74167 0.66115 0.53266 0.0
C2010 C 0.71552 0.6518 0.52155 0.0
C2011 C 0.69524 0.62776 0.49266 0.0
C2012 C 0.7013 0.61302 0.47516 0.0
C2013 C 0.72045 0.63228 0.50563 0.0
C2014 C 0.73141 0.59811 0.47194 0.0
C2015 C 0.75644 0.6012 0.48523 0.0
H2016 H 0.37323 0.54293 0.27419 0.0
H2017 H 0.46821 0.54382 0.24845 0.0
H2018 H 0.45523 0.49443 0.23093 0.0
H2019 H 0.41837 0.44828 0.2251 0.0
H2020 H 0.32331 0.44853 0.25069 0.0
H2021 H 0.33501 0.4999 0.2662 0.0
C2022 C 0.39097 0.53258 0.26456 0.0
C2023 C 0.42172 0.54687 0.2628 0.0
C2024 C 0.3835 0.50408 0.25468 0.0
C2025 C 0.44432 0.5333 0.25012 0.0
C2026 C 0.43702 0.5049 0.24018 0.0
C2027 C 0.40013 0.45982 0.23387 0.0
C2028 C 0.37007 0.44458 0.23673 0.0
C2029 C 0.40694 0.48963 0.2427 0.0
C2030 C 0.34673 0.45969 0.24829 0.0
C2031 C 0.35333 0.48914 0.25714 0.0
H2032 H 0.25294 0.64028 0.95494 0.0
H2033 H 0.34618 0.62148 0.98005 0.0
H2034 H 0.31981 0.60972 0.01044 0.0
H2035 H 0.27102 0.6123 0.03049 0.0
H2036 H 0.17775 0.631 0.00533 0.0
H2037 H 0.20326 0.63462 0.97403 0.0
C2038 C 0.26739 0.63308 0.96703 0.0
C2039 C 0.30139 0.63221 0.96548 0.0
C2040 C 0.25207 0.6265 0.98432 0.0
C2041 C 0.31997 0.62232 0.98101 0.0
C2042 C 0.30491 0.61582 -0.00165 0.0
C2043 C 0.25622 0.61657 0.01808 0.0
C2044 C 0.22267 0.62187 0.02016 0.0
C2045 C 0.2711 0.61893 0.00029 0.0
C2046 C 0.20359 0.62685 0.00403 0.0
C2047 C 0.21823 0.62919 0.9862 0.0
H2048 H 0.12133 0.49697 0.69475 0.0
H2049 H 0.13733 0.58767 0.72375 0.0
H2050 H 0.14712 0.55842 0.75328 0.0
H2051 H 0.14273 0.50814 0.77142 0.0
H2052 H 0.12431 0.41763 0.74287 0.0
H2053 H 0.1247 0.44568 0.71228 0.0
C2054 C 0.12732 0.51032 0.7075 0.0
C2055 C 0.12787 0.54443 0.70725 0.0
C2056 C 0.13245 0.49339 0.72438 0.0
C2057 C 0.13645 0.56143 0.72369 0.0
C2058 C 0.14195 0.54473 0.74054 0.0
C2059 C 0.1395 0.49447 0.75842 0.0
C2060 C 0.133 0.46107 0.75926 0.0
C2061 C 0.13879 0.51087 0.74115 0.0
C2062 C 0.12938 0.44337 0.74246 0.0
C2063 C 0.12924 0.45948 0.72506 0.0
H2064 H 0.26271 0.40326 0.44451 0.0
H2065 H 0.17595 0.38714 0.4772 0.0
H2066 H 0.20598 0.39795 0.50645 0.0
H2067 H 0.25916 0.39753 0.52209 0.0
H2068 H 0.34632 0.4084 0.48908 0.0
H2069 H 0.31393 0.41552 0.46036 0.0
C2070 C 0.2502 0.40335 0.45802 0.0
C2071 C 0.21754 0.39398 0.45895 0.0
C2072 C 0.26784 0.40846 0.4746 0.0
C2073 C 0.20118 0.39431 0.47633 0.0
C2074 C 0.21842 0.40018 0.49299 0.0
C2075 C 0.27082 0.40293 0.50867 0.0
C2076 C 0.30477 0.40224 0.50739 0.0
C2077 C 0.2521 0.40522 0.49227 0.0
C2078 C 0.32012 0.40907 0.49019 0.0
C2079 C 0.30162 0.41265 0.47382 0.0
H2080 H 0.04633 0.23435 0.3162 0.0
H2081 H 0.99764 0.18404 0.27093 0.0
H2082 H 0.95949 0.22855 0.26762 0.0
H2083 H 0.94053 0.28226 0.27646 0.0
H2084 H 0.98814 0.33522 0.321 0.0
H2085 H 0.02538 0.28946 0.32593 0.0
C2086 C 0.02712 0.2331 0.30579 0.0
C2087 C 0.02515 0.20575 0.2937 0.0
C2088 C 1.00498 0.2594 0.30378 0.0
C2089 C 1.00012 0.20477 0.28022 0.0
C2090 C 0.97815 0.23027 0.27834 0.0
C2091 C 0.9591 0.28407 0.28722 0.0
C2092 C 0.96146 0.31257 0.29818 0.0
C2093 C 0.98055 0.25786 0.28981 0.0
C2094 C 0.98542 0.31371 0.31236 0.0
C2095 C 0.00692 0.2875 0.31511 0.0
H2096 H 0.94506 0.77478 0.55084 0.0
H2097 H 0.97804 0.67619 0.5492 0.0
H2098 H 0.03463 0.69425 0.55141 0.0
H2099 H 0.07469 0.73856 0.55262 0.0
H2100 H 0.04198 0.83738 0.55615 0.0
H2101 H 0.98537 0.81925 0.55454 0.0
C2102 C 0.96473 0.75737 0.55096 0.0
C2103 C 0.95761 0.72399 0.54971 0.0
C2104 C 0.99714 0.76817 0.55256 0.0
C2105 C 0.98321 0.70173 0.55025 0.0
C2106 C 0.01542 0.71216 0.55141 0.0
C2107 C 0.05514 0.75609 0.55305 0.0
C2108 C 0.06255 0.78937 0.55425 0.0
C2109 C 0.02272 0.74535 0.5524 0.0
C2110 C 0.03691 0.81174 0.55522 0.0
C2111 C 1.00456 0.80132 0.5542 0.0
H2112 H 0.49726 0.79689 0.78226 0.0
H2113 H 0.42918 0.78965 0.82856 0.0
H2114 H 0.44999 0.73617 0.83624 0.0
H2115 H 0.48745 0.69115 0.83004 0.0
H2116 H 0.55577 0.69793 0.78388 0.0
H2117 H 0.53516 0.7518 0.77619 0.0
C2118 C 0.48664 0.78365 0.79393 0.0
C2119 C 0.46112 0.79767 0.80459 0.0
C2120 C 0.49896 0.75263 0.79843 0.0
C2121 C 0.4486 0.77995 0.81997 0.0
C2122 C 0.46053 0.74912 0.82441 0.0
C2123 C 0.49765 0.70402 0.8181 0.0
C2124 C 0.52304 0.68984 0.80745 0.0
C2125 C 0.48563 0.73514 0.81371 0.0
C2126 C 0.53633 0.70785 0.7924 0.0
C2127 C 0.52443 0.73876 0.78793 0.0
H2128 H 0.47815 0.21657 0.01104 0.0
H2129 H 0.44574 0.23701 0.06787 0.0
H2130 H 0.49307 0.27179 0.07283 0.0
H2131 H 0.54408 0.29717 0.06073 0.0
H2132 H 0.57465 0.27643 0.0036 0.0
H2133 H 0.52748 0.2418 -0.00099 0.0
C2134 C 0.48105 0.22879 0.02449 0.0
C2135 C 0.45791 0.22404 0.03896 0.0
C2136 C 0.50815 0.24908 0.02718 0.0
C2137 C 0.463 0.23974 0.05644 0.0
C2138 C 0.49007 0.25994 0.05925 0.0
C2139 C 0.54019 0.28534 0.04723 0.0
C2140 C 0.56313 0.2895 0.03251 0.0
C2141 C 0.5128 0.265 0.04467 0.0
C2142 C 0.55776 0.27352 0.01521 0.0
C2143 C 0.53069 0.25369 0.01256 0.0
H2144 H 0.93148 0.74423 0.17546 0.0
H2145 H 0.01822 0.69433 0.19228 0.0
H2146 H 0.04975 0.74429 0.18886 0.0
H2147 H 0.05213 0.80356 0.18285 0.0
H2148 H 0.96424 0.85406 0.16837 0.0
H2149 H 0.93403 0.80328 0.16932 0.0
C2150 C 0.95729 0.74441 0.17821 0.0
C2151 C 0.9724 0.71565 0.18419 0.0
C2152 C 0.97513 0.77362 0.1768 0.0
C2153 C 1.00594 0.71621 0.18784 0.0
C2154 C 0.024 0.7448 0.18586 0.0
C2155 C 0.02642 0.80332 0.1797 0.0
C2156 C 0.0105 0.83277 0.17563 0.0
C2157 C 0.00881 0.77387 0.18063 0.0
C2158 C 0.97707 0.83195 0.17176 0.0
C2159 C 0.95972 0.80281 0.17218 0.0
H2160 H 0.53265 0.72275 0.45842 0.0
H2161 H 0.52654 0.654 0.41246 0.0
H2162 H 0.4742 0.67647 0.40335 0.0
H2163 H 0.43001 0.71509 0.40833 0.0
H2164 H 0.43477 0.78355 0.45446 0.0
H2165 H 0.48773 0.76174 0.46348 0.0
C2166 C 0.51984 0.71233 0.44653 0.0
C2167 C 0.53391 0.68632 0.43626 0.0
C2168 C 0.48936 0.72538 0.44135 0.0
C2169 C 0.51682 0.67398 0.42062 0.0
C2170 C 0.48665 0.68678 0.41543 0.0
C2171 C 0.44211 0.7251 0.42058 0.0
C2172 C 0.42762 0.75086 0.43082 0.0
C2173 C 0.4726 0.71236 0.42572 0.0
C2174 C 0.44487 0.76382 0.44626 0.0
C2175 C 0.47527 0.75124 0.45147 0.0
H2176 H 0.51739 0.20794 0.71015 0.0
H2177 H 0.42347 0.22721 0.68578 0.0
H2178 H 0.43663 0.28448 0.68365 0.0
H2179 H 0.47518 0.32901 0.68739 0.0
H2180 H 0.56985 0.31018 0.71108 0.0
H2181 H 0.55559 0.25343 0.71498 0.0
C2182 C 0.49972 0.22453 0.70433 0.0
C2183 C 0.46939 0.21257 0.69801 0.0
C2184 C 0.50752 0.25788 0.70303 0.0
C2185 C 0.44687 0.23508 0.69086 0.0
C2186 C 0.45446 0.26811 0.68956 0.0
C2187 C 0.49302 0.31286 0.69338 0.0
C2188 C 0.52409 0.32474 0.69847 0.0
C2189 C 0.48482 0.27978 0.69542 0.0
C2190 C 0.54594 0.30258 0.70673 0.0
C2191 C 0.53781 0.26973 0.70895 0.0
H2192 H 0.03098 0.19534 0.94665 0.0
H2193 H 0.07856 0.27836 0.92225 0.0
H2194 H 0.02851 0.30961 0.92454 0.0
H2195 H 0.97106 0.31445 0.93454 0.0
H2196 H 0.92409 0.23247 0.96032 0.0
H2197 H 0.97325 0.19997 0.95629 0.0
C2198 C 0.0303 0.22018 0.94174 0.0
C2199 C 0.05882 0.23443 0.93446 0.0
C2200 C 1.00129 0.2384 0.94337 0.0
C2201 C 0.05734 0.26681 0.92824 0.0
C2202 C 0.02856 0.28474 0.92944 0.0
C2203 C 0.97161 0.28942 0.93914 0.0
C2204 C 0.94391 0.27603 0.94783 0.0
C2205 C 1.0004 0.27098 0.93716 0.0
C2206 C 0.94513 0.24354 0.95383 0.0
C2207 C 0.97328 0.22488 0.95147 0.0
H2208 H 0.97403 0.79737 0.71108 0.0
H2209 H 0.98388 0.81534 0.6513 0.0
H2210 H 0.00793 0.76187 0.64678 0.0
H2211 H 0.02556 0.70927 0.65961 0.0
H2212 H 0.01541 0.69082 0.71934 0.0
H2213 H 0.9923 0.7447 0.72399 0.0
C2214 C 0.98178 0.78973 0.69711 0.0
C2215 C 0.97708 0.8106 0.68158 0.0
C2216 C 0.99543 0.75856 0.69454 0.0
C2217 C 0.98687 0.79987 0.66352 0.0
C2218 C 1.00075 0.76922 0.6609 0.0
C2219 C 0.01846 0.71703 0.67367 0.0
C2220 C 0.02214 0.6956 0.68905 0.0
C2221 C 1.00502 0.74823 0.67628 0.0
C2222 C 0.01245 0.7063 0.70714 0.0
C2223 C 0.99938 0.73734 0.70985 0.0
H2224 H 0.08164 0.23579 0.43958 0.0
H2225 H 0.04987 0.33544 0.43808 0.0
H2226 H 0.99368 0.31793 0.44054 0.0
H2227 H 0.95301 0.27448 0.44237 0.0
H2228 H 0.98497 0.17519 0.44643 0.0
H2229 H 0.04108 0.19251 0.44358 0.0
C2230 C 0.06263 0.25385 0.44 0.0
C2231 C 0.07061 0.28709 0.43845 0.0
C2232 C 0.02999 0.24364 0.44171 0.0
C2233 C 0.04501 0.30974 0.43886 0.0
C2234 C 0.01262 0.29973 0.4404 0.0
C2235 C 0.97202 0.25646 0.44288 0.0
C2236 C 0.96398 0.2232 0.44421 0.0
C2237 C 1.00472 0.26673 0.44173 0.0
C2238 C 0.98973 0.20073 0.44482 0.0
C2239 C 0.02213 0.2107 0.44338 0.0
H2240 H 0.48862 0.28922 0.22961 0.0
H2241 H 0.48419 0.31376 0.17043 0.0
H2242 H 0.51314 0.26375 0.16243 0.0
H2243 H 0.54012 0.21222 0.17235 0.0
H2244 H 0.54299 0.18838 0.23165 0.0
H2245 H 0.515 0.23875 0.2394 0.0
C2246 C 0.49414 0.28394 0.21494 0.0
C2247 C 0.48411 0.30574 0.20071 0.0
C2248 C 0.5108 0.25498 0.21042 0.0
C2249 C 0.49117 0.29765 0.18176 0.0
C2250 C 0.50799 0.26898 0.17716 0.0
C2251 C 0.5348 0.21819 0.18696 0.0
C2252 C 0.5437 0.19619 0.20139 0.0
C2253 C 0.51804 0.24737 0.19137 0.0
C2254 C 0.53621 0.20441 0.22023 0.0
C2255 C 0.52022 0.23337 0.22469 0.0
H2256 H 0.57515 0.74206 0.89987 0.0
H2257 H 0.56972 0.80514 0.94845 0.0
H2258 H 0.51617 0.78365 0.95626 0.0
H2259 H 0.47103 0.74668 0.94959 0.0
H2260 H 0.47529 0.68483 0.90031 0.0
H2261 H 0.52872 0.70608 0.89259 0.0
C2262 C 0.56241 0.75086 0.91227 0.0
C2263 C 0.57679 0.77507 0.92365 0.0
C2264 C 0.53123 0.73858 0.9166 0.0
C2265 C 0.55937 0.78667 0.9394 0.0
C2266 C 0.5287 0.77429 0.94392 0.0
C2267 C 0.48356 0.73745 0.93725 0.0
C2268 C 0.46882 0.71339 0.92588 0.0
C2269 C 0.5144 0.75014 0.93268 0.0
C2270 C 0.4856 0.70295 0.90957 0.0
C2271 C 0.51643 0.71513 0.90509 0.0
H2272 H 0.94038 0.2348 0.79027 0.0
H2273 H 0.03001 0.18194 0.78623 0.0
H2274 H 0.06094 0.23221 0.78975 0.0
H2275 H 0.06261 0.29209 0.79209 0.0
H2276 H 0.97297 0.34547 0.79405 0.0
H2277 H 0.94212 0.29484 0.79326 0.0
C2278 C 0.96666 0.23443 0.79046 0.0
C2279 C 0.98294 0.20471 0.78809 0.0
C2280 C 0.98435 0.26375 0.79196 0.0
C2281 C 0.01703 0.20454 0.78805 0.0
C2282 C 0.0347 0.23332 0.79005 0.0
C2283 C 0.03636 0.29256 0.79259 0.0
C2284 C 0.02019 0.32265 0.7931 0.0
C2285 C 0.01868 0.2632 0.79173 0.0
C2286 C 0.98606 0.32276 0.79345 0.0
C2287 C 0.96838 0.29374 0.79307 0.0
H2288 H 0.51714 0.19903 0.54604 0.0
H2289 H 0.59379 0.2692 0.54014 0.0
H2290 H 0.55367 0.31312 0.53946 0.0
H2291 H 0.49633 0.33121 0.53911 0.0
H2292 H 0.42021 0.26057 0.54593 0.0
H2293 H 0.46044 0.21725 0.54771 0.0
C2294 C 0.52507 0.22394 0.54455 0.0
C2295 C 0.55845 0.2308 0.54286 0.0
C2296 C 0.50188 0.24896 0.54429 0.0
C2297 C 0.56832 0.26329 0.54146 0.0
C2298 C 0.54534 0.28835 0.54097 0.0
C2299 C 0.4886 0.30632 0.54094 0.0
C2300 C 0.45519 0.29916 0.5422 0.0
C2301 C 0.512 0.28145 0.54212 0.0
C2302 C 0.44565 0.26682 0.54499 0.0
C2303 C 0.46868 0.24199 0.54592 0.0
H2304 H 0.55923 0.80539 0.30968 0.0
H2305 H 0.53498 0.82471 0.25131 0.0
H2306 H 0.50252 0.77618 0.25008 0.0
H2307 H 0.48086 0.72788 0.26484 0.0
H2308 H 0.50094 0.70848 0.32364 0.0
H2309 H 0.53486 0.75685 0.32519 0.0
C2310 C 0.54675 0.79917 0.29671 0.0
C2311 C 0.55051 0.81901 0.28051 0.0
C2312 C 0.52716 0.77089 0.29606 0.0
C2313 C 0.53378 0.81005 0.26392 0.0
C2314 C 0.51474 0.78215 0.26319 0.0
C2315 C 0.49216 0.73413 0.27815 0.0
C2316 C 0.48783 0.714 0.29405 0.0
C2317 C 0.51132 0.76233 0.27908 0.0
C2318 C 0.50367 0.72287 0.31098 0.0
C2319 C 0.5231 0.75085 0.31195 0.0
H2320 H 0.95565 0.7299 0.04253 0.0
H2321 H 0.98547 0.82696 0.05771 0.0
H2322 H 0.04085 0.80899 0.06069 0.0
H2323 H 0.08177 0.76602 0.05962 0.0
H2324 H 0.05339 0.6691 0.04353 0.0
H2325 H 0.99734 0.68684 0.04062 0.0
C2326 C 0.97403 0.74734 0.04645 0.0
C2327 C 0.96521 0.78007 0.04989 0.0
C2328 C 1.00673 0.73681 0.04815 0.0
C2329 C 0.99032 0.80172 0.05497 0.0
C2330 C 0.02256 0.79142 0.0567 0.0
C2331 C 0.0637 0.74854 0.05531 0.0
C2332 C 0.07271 0.71585 0.052 0.0
C2333 C 0.03114 0.75902 0.05338 0.0
C2334 C 0.04794 0.69418 0.04652 0.0
C2335 C 0.01555 0.70442 0.04472 0.0
loop_
_geom_bond_atom_site_label_1
_geom_bond_atom_site_label_2
_geom_bond_distance
_geom_bond_site_symmetry_2
_ccdc_geom_bond_type
C0 C1 1.351 . S
C0 N3 1.368 . S
C0 H5 0.931 . S
C1 C0 1.351 . S
C1 N2 1.373 . S
C1 H29 0.930 . S
N2 C1 1.373 . S
N2 C4 1.340 . S
N3 C0 1.368 . S
N3 C4 1.321 . S
N3 Co6 2.135 . S
C4 N2 1.340 . S
C4 N3 1.321 . S
C4 H28 0.930 . S
H5 C0 0.931 . S
Co6 N3 2.135 . S
Co6 N9 2.121 . S
Co6 O14 2.055 . S
Co6 O17 2.039 . S
Co6 N20 2.140 . S
C7 O8 1.227 . S
C7 O17 1.265 . S
O8 C7 1.227 . S
N9 Co6 2.121 . S
N9 C11 1.375 . S
N9 C12 1.313 . S
C10 C11 1.338 . S
C10 N13 1.377 . S
C10 H30 0.930 . S
C11 N9 1.375 . S
C11 C10 1.338 . S
C11 H15 0.931 . S
C12 N9 1.313 . S
C12 N13 1.344 . S
C12 H16 0.930 . S
N13 C10 1.377 . S
N13 C12 1.344 . S
O14 Co6 2.055 . S
O14 C18 1.253 . S
H15 C11 0.931 . S
H16 C12 0.930 . S
O17 Co6 2.039 . S
O17 C7 1.265 . S
C18 O14 1.253 . S
C18 O19 1.227 . S
O19 C18 1.227 . S
N20 Co6 2.140 . S
N20 C23 1.346 . S
N20 C24 1.345 . S
C21 C22 1.387 . S
C21 C25 1.391 . S
C22 C21 1.387 . S
C22 C23 1.369 . S
C22 H31 0.929 . S
C23 N20 1.346 . S
C23 C22 1.369 . S
C23 H26 0.928 . S
C24 N20 1.345 . S
C24 C25 1.371 . S
C24 H27 0.931 . S
C25 C21 1.391 . S
C25 C24 1.371 . S
C25 H32 0.930 . S
H26 C23 0.928 . S
H27 C24 0.931 . S
H28 C4 0.930 . S
H29 C1 0.930 . S
H30 C10 0.930 . S
H31 C22 0.929 . S
H32 C25 0.930 . S
C33 C34 1.351 . S
C33 N36 1.368 . S
C33 H38 0.931 . S
C34 C33 1.351 . S
C34 N35 1.373 . S
C34 H62 0.930 . S
N35 C34 1.373 . S
N35 C37 1.340 . S
N36 C33 1.368 . S
N36 C37 1.321 . S
N36 Co39 2.135 . S
C37 N35 1.340 . S
C37 N36 1.321 . S
C37 H61 0.930 . S
H38 C33 0.931 . S
Co39 N36 2.135 . S
Co39 N42 2.121 . S
Co39 O47 2.055 . S
Co39 O50 2.039 . S
Co39 N53 2.140 . S
C40 O41 1.227 . S
C40 O50 1.265 . S
O41 C40 1.227 . S
N42 Co39 2.121 . S
N42 C44 1.375 . S
N42 C45 1.313 . S
C43 C44 1.338 . S
C43 N46 1.377 . S
C43 H63 0.930 . S
C44 N42 1.375 . S
C44 C43 1.338 . S
C44 H48 0.931 . S
C45 N42 1.313 . S
C45 N46 1.344 . S
C45 H49 0.930 . S
N46 C43 1.377 . S
N46 C45 1.344 . S
O47 Co39 2.055 . S
O47 C51 1.253 . S
H48 C44 0.931 . S
H49 C45 0.930 . S
O50 Co39 2.039 . S
O50 C40 1.265 . S
C51 O47 1.253 . S
C51 O52 1.227 . S
O52 C51 1.227 . S
N53 Co39 2.140 . S
N53 C56 1.346 . S
N53 C57 1.345 . S
C54 C55 1.387 . S
C54 C58 1.391 . S
C55 C54 1.387 . S
C55 C56 1.369 . S
C55 H64 0.929 . S
C56 N53 1.346 . S
C56 C55 1.369 . S
C56 H59 0.928 . S
C57 N53 1.345 . S
C57 C58 1.371 . S
C57 H60 0.931 . S
C58 C54 1.391 . S
C58 C57 1.371 . S
C58 H65 0.930 . S
H59 C56 0.928 . S
H60 C57 0.931 . S
H61 C37 0.930 . S
H62 C34 0.930 . S
H63 C43 0.930 . S
H64 C55 0.929 . S
H65 C58 0.930 . S
C66 C67 1.351 . S
C66 N69 1.368 . S
C66 H71 0.931 . S
C67 C66 1.351 . S
C67 N68 1.373 . S
C67 H95 0.930 . S
N68 C67 1.373 . S
N68 C70 1.340 . S
N69 C66 1.368 . S
N69 C70 1.321 . S
N69 Co72 2.135 . S
C70 N68 1.340 . S
C70 N69 1.321 . S
C70 H94 0.930 . S
H71 C66 0.931 . S
Co72 N69 2.135 . S
Co72 N75 2.121 . S
Co72 O80 2.055 . S
Co72 O83 2.039 . S
Co72 N86 2.140 . S
C73 O74 1.227 . S
C73 O83 1.265 . S
O74 C73 1.227 . S
N75 Co72 2.121 . S
N75 C77 1.375 . S
N75 C78 1.313 . S
C76 C77 1.338 . S
C76 N79 1.377 . S
C76 H96 0.930 . S
C77 N75 1.375 . S
C77 C76 1.338 . S
C77 H81 0.931 . S
C78 N75 1.313 . S
C78 N79 1.344 . S
C78 H82 0.930 . S
N79 C76 1.377 . S
N79 C78 1.344 . S
O80 Co72 2.055 . S
O80 C84 1.253 . S
H81 C77 0.931 . S
H82 C78 0.930 . S
O83 Co72 2.039 . S
O83 C73 1.265 . S
C84 O80 1.253 . S
C84 O85 1.227 . S
O85 C84 1.227 . S
N86 Co72 2.140 . S
N86 C89 1.346 . S
N86 C90 1.345 . S
C87 C88 1.387 . S
C87 C91 1.391 . S
C88 C87 1.387 . S
C88 C89 1.369 . S
C88 H97 0.929 . S
C89 N86 1.346 . S
C89 C88 1.369 . S
C89 H92 0.928 . S
C90 N86 1.345 . S
C90 C91 1.371 . S
C90 H93 0.931 . S
C91 C87 1.391 . S
C91 C90 1.371 . S
C91 H98 0.930 . S
H92 C89 0.928 . S
H93 C90 0.931 . S
H94 C70 0.930 . S
H95 C67 0.930 . S
H96 C76 0.930 . S
H97 C88 0.929 . S
H98 C91 0.930 . S
C99 C100 1.351 . S
C99 N102 1.368 . S
C99 H104 0.931 . S
C100 C99 1.351 . S
C100 N101 1.373 . S
C100 H128 0.930 . S
N101 C100 1.373 . S
N101 C103 1.340 . S
N102 C99 1.368 . S
N102 C103 1.321 . S
N102 Co105 2.135 . S
C103 N101 1.340 . S
C103 N102 1.321 . S
C103 H127 0.930 . S
H104 C99 0.931 . S
Co105 N102 2.135 . S
Co105 N108 2.121 . S
Co105 O113 2.055 . S
Co105 O116 2.039 . S
Co105 N119 2.140 . S
C106 O107 1.227 . S
C106 O116 1.265 . S
O107 C106 1.227 . S
N108 Co105 2.121 . S
N108 C110 1.375 . S
N108 C111 1.313 . S
C109 C110 1.338 . S
C109 N112 1.377 . S
C109 H129 0.930 . S
C110 N108 1.375 . S
C110 C109 1.338 . S
C110 H114 0.931 . S
C111 N108 1.313 . S
C111 N112 1.344 . S
C111 H115 0.930 . S
N112 C109 1.377 . S
N112 C111 1.344 . S
O113 Co105 2.055 . S
O113 C117 1.253 . S
H114 C110 0.931 . S
H115 C111 0.930 . S
O116 Co105 2.039 . S
O116 C106 1.265 . S
C117 O113 1.253 . S
C117 O118 1.227 . S
O118 C117 1.227 . S
N119 Co105 2.140 . S
N119 C122 1.346 . S
N119 C123 1.345 . S
C120 C121 1.387 . S
C120 C124 1.391 . S
C121 C120 1.387 . S
C121 C122 1.369 . S
C121 H130 0.929 . S
C122 N119 1.346 . S
C122 C121 1.369 . S
C122 H125 0.928 . S
C123 N119 1.345 . S
C123 C124 1.371 . S
C123 H126 0.931 . S
C124 C120 1.391 . S
C124 C123 1.371 . S
C124 H131 0.930 . S
H125 C122 0.928 . S
H126 C123 0.931 . S
H127 C103 0.930 . S
H128 C100 0.930 . S
H129 C109 0.930 . S
H130 C121 0.929 . S
H131 C124 0.930 . S
C132 C133 1.351 . S
C132 N135 1.368 . S
C132 H137 0.931 . S
C133 C132 1.351 . S
C133 N134 1.373 . S
C133 H161 0.930 . S
N134 C133 1.373 . S
N134 C136 1.340 . S
N135 C132 1.368 . S
N135 C136 1.321 . S
N135 Co138 2.135 . S
C136 N134 1.340 . S
C136 N135 1.321 . S
C136 H160 0.930 . S
H137 C132 0.931 . S
Co138 N135 2.135 . S
Co138 N141 2.121 . S
Co138 O146 2.055 . S
Co138 O149 2.039 . S
Co138 N152 2.140 . S
C139 O140 1.227 . S
C139 O149 1.265 . S
O140 C139 1.227 . S
N141 Co138 2.121 . S
N141 C143 1.375 . S
N141 C144 1.313 . S
C142 C143 1.338 . S
C142 N145 1.377 . S
C142 H162 0.930 . S
C143 N141 1.375 . S
C143 C142 1.338 . S
C143 H147 0.931 . S
C144 N141 1.313 . S
C144 N145 1.344 . S
C144 H148 0.930 . S
N145 C142 1.377 . S
N145 C144 1.344 . S
O146 Co138 2.055 . S
O146 C150 1.253 . S
H147 C143 0.931 . S
H148 C144 0.930 . S
O149 Co138 2.039 . S
O149 C139 1.265 . S
C150 O146 1.253 . S
C150 O151 1.227 . S
O151 C150 1.227 . S
N152 Co138 2.140 . S
N152 C155 1.346 . S
N152 C156 1.345 . S
C153 C154 1.387 . S
C153 C157 1.391 . S
C154 C153 1.387 . S
C154 C155 1.369 . S
C154 H163 0.929 . S
C155 N152 1.346 . S
C155 C154 1.369 . S
C155 H158 0.928 . S
C156 N152 1.345 . S
C156 C157 1.371 . S
C156 H159 0.931 . S
C157 C153 1.391 . S
C157 C156 1.371 . S
C157 H164 0.930 . S
H158 C155 0.928 . S
H159 C156 0.931 . S
H160 C136 0.930 . S
H161 C133 0.930 . S
H162 C142 0.930 . S
H163 C154 0.929 . S
H164 C157 0.930 . S
C165 C166 1.351 . S
C165 N168 1.368 . S
C165 H170 0.931 . S
C166 C165 1.351 . S
C166 N167 1.373 . S
C166 H194 0.930 . S
N167 C166 1.373 . S
N167 C169 1.340 . S
N168 C165 1.368 . S
N168 C169 1.321 . S
N168 Co171 2.135 . S
C169 N167 1.340 . S
C169 N168 1.321 . S
C169 H193 0.930 . S
H170 C165 0.931 . S
Co171 N168 2.135 . S
Co171 N174 2.121 . S
Co171 O179 2.055 . S
Co171 O182 2.039 . S
Co171 N185 2.140 . S
C172 O173 1.227 . S
C172 O182 1.265 . S
O173 C172 1.227 . S
N174 Co171 2.121 . S
N174 C176 1.375 . S
N174 C177 1.313 . S
C175 C176 1.338 . S
C175 N178 1.377 . S
C175 H195 0.930 . S
C176 N174 1.375 . S
C176 C175 1.338 . S
C176 H180 0.931 . S
C177 N174 1.313 . S
C177 N178 1.344 . S
C177 H181 0.930 . S
N178 C175 1.377 . S
N178 C177 1.344 . S
O179 Co171 2.055 . S
O179 C183 1.253 . S
H180 C176 0.931 . S
H181 C177 0.930 . S
O182 Co171 2.039 . S
O182 C172 1.265 . S
C183 O179 1.253 . S
C183 O184 1.227 . S
O184 C183 1.227 . S
N185 Co171 2.140 . S
N185 C188 1.346 . S
N185 C189 1.345 . S
C186 C187 1.387 . S
C186 C190 1.391 . S
C187 C186 1.387 . S
C187 C188 1.369 . S
C187 H196 0.929 . S
C188 N185 1.346 . S
C188 C187 1.369 . S
C188 H191 0.928 . S
C189 N185 1.345 . S
C189 C190 1.371 . S
C189 H192 0.931 . S
C190 C186 1.391 . S
C190 C189 1.371 . S
C190 H197 0.930 . S
H191 C188 0.928 . S
H192 C189 0.931 . S
H193 C169 0.930 . S
H194 C166 0.930 . S
H195 C175 0.930 . S
H196 C187 0.929 . S
H197 C190 0.930 . S
C198 C199 1.351 . S
C198 N201 1.368 . S
C198 H203 0.931 . S
C199 C198 1.351 . S
C199 N200 1.373 . S
C199 H227 0.930 . S
N200 C199 1.373 . S
N200 C202 1.340 . S
N201 C198 1.368 . S
N201 C202 1.321 . S
N201 Co204 2.135 . S
C202 N200 1.340 . S
C202 N201 1.321 . S
C202 H226 0.930 . S
H203 C198 0.931 . S
Co204 N201 2.135 . S
Co204 N207 2.121 . S
Co204 O212 2.055 . S
Co204 O215 2.039 . S
Co204 N218 2.140 . S
C205 O206 1.227 . S
C205 O215 1.265 . S
O206 C205 1.227 . S
N207 Co204 2.121 . S
N207 C209 1.375 . S
N207 C210 1.313 . S
C208 C209 1.338 . S
C208 N211 1.377 . S
C208 H228 0.930 . S
C209 N207 1.375 . S
C209 C208 1.338 . S
C209 H213 0.931 . S
C210 N207 1.313 . S
C210 N211 1.344 . S
C210 H214 0.930 . S
N211 C208 1.377 . S
N211 C210 1.344 . S
O212 Co204 2.055 . S
O212 C216 1.253 . S
H213 C209 0.931 . S
H214 C210 0.930 . S
O215 Co204 2.039 . S
O215 C205 1.265 . S
C216 O212 1.253 . S
C216 O217 1.227 . S
O217 C216 1.227 . S
N218 Co204 2.140 . S
N218 C221 1.346 . S
N218 C222 1.345 . S
C219 C220 1.387 . S
C219 C223 1.391 . S
C220 C219 1.387 . S
C220 C221 1.369 . S
C220 H229 0.929 . S
C221 N218 1.346 . S
C221 C220 1.369 . S
C221 H224 0.928 . S
C222 N218 1.345 . S
C222 C223 1.371 . S
C222 H225 0.931 . S
C223 C219 1.391 . S
C223 C222 1.371 . S
C223 H230 0.930 . S
H224 C221 0.928 . S
H225 C222 0.931 . S
H226 C202 0.930 . S
H227 C199 0.930 . S
H228 C208 0.930 . S
H229 C220 0.929 . S
H230 C223 0.930 . S
C231 C232 1.351 . S
C231 N234 1.368 . S
C231 H236 0.931 . S
C232 C231 1.351 . S
C232 N233 1.373 . S
C232 H260 0.930 . S
N233 C232 1.373 . S
N233 C235 1.340 . S
N234 C231 1.368 . S
N234 C235 1.321 . S
N234 Co237 2.135 . S
C235 N233 1.340 . S
C235 N234 1.321 . S
C235 H259 0.930 . S
H236 C231 0.931 . S
Co237 N234 2.135 . S
Co237 N240 2.121 . S
Co237 O245 2.055 . S
Co237 O248 2.039 . S
Co237 N251 2.140 . S
C238 O239 1.227 . S
C238 O248 1.265 . S
O239 C238 1.227 . S
N240 Co237 2.121 . S
N240 C242 1.375 . S
N240 C243 1.313 . S
C241 C242 1.338 . S
C241 N244 1.377 . S
C241 H261 0.930 . S
C242 N240 1.375 . S
C242 C241 1.338 . S
C242 H246 0.931 . S
C243 N240 1.313 . S
C243 N244 1.344 . S
C243 H247 0.930 . S
N244 C241 1.377 . S
N244 C243 1.344 . S
O245 Co237 2.055 . S
O245 C249 1.253 . S
H246 C242 0.931 . S
H247 C243 0.930 . S
O248 Co237 2.039 . S
O248 C238 1.265 . S
C249 O245 1.253 . S
C249 O250 1.227 . S
O250 C249 1.227 . S
N251 Co237 2.140 . S
N251 C254 1.346 . S
N251 C255 1.345 . S
C252 C253 1.387 . S
C252 C256 1.391 . S
C253 C252 1.387 . S
C253 C254 1.369 . S
C253 H262 0.929 . S
C254 N251 1.346 . S
C254 C253 1.369 . S
C254 H257 0.928 . S
C255 N251 1.345 . S
C255 C256 1.371 . S
C255 H258 0.931 . S
C256 C252 1.391 . S
C256 C255 1.371 . S
C256 H263 0.930 . S
H257 C254 0.928 . S
H258 C255 0.931 . S
H259 C235 0.930 . S
H260 C232 0.930 . S
H261 C241 0.930 . S
H262 C253 0.929 . S
H263 C256 0.930 . S
C264 C265 1.351 . S
C264 N267 1.368 . S
C264 H269 0.931 . S
C265 C264 1.351 . S
C265 N266 1.373 . S
C265 H293 0.930 . S
N266 C265 1.373 . S
N266 C268 1.340 . S
N267 C264 1.368 . S
N267 C268 1.321 . S
N267 Co270 2.135 . S
C268 N266 1.340 . S
C268 N267 1.321 . S
C268 H292 0.930 . S
H269 C264 0.931 . S
Co270 N267 2.135 . S
Co270 N273 2.121 . S
Co270 O278 2.055 . S
Co270 O281 2.039 . S
Co270 N284 2.140 . S
C271 O272 1.227 . S
C271 O281 1.265 . S
O272 C271 1.227 . S
N273 Co270 2.121 . S
N273 C275 1.375 . S
N273 C276 1.313 . S
C274 C275 1.338 . S
C274 N277 1.377 . S
C274 H294 0.930 . S
C275 N273 1.375 . S
C275 C274 1.338 . S
C275 H279 0.931 . S
C276 N273 1.313 . S
C276 N277 1.344 . S
C276 H280 0.930 . S
N277 C274 1.377 . S
N277 C276 1.344 . S
O278 Co270 2.055 . S
O278 C282 1.253 . S
H279 C275 0.931 . S
H280 C276 0.930 . S
O281 Co270 2.039 . S
O281 C271 1.265 . S
C282 O278 1.253 . S
C282 O283 1.227 . S
O283 C282 1.227 . S
N284 Co270 2.140 . S
N284 C287 1.346 . S
N284 C288 1.345 . S
C285 C286 1.387 . S
C285 C289 1.391 . S
C286 C285 1.387 . S
C286 C287 1.369 . S
C286 H295 0.929 . S
C287 N284 1.346 . S
C287 C286 1.369 . S
C287 H290 0.928 . S
C288 N284 1.345 . S
C288 C289 1.371 . S
C288 H291 0.931 . S
C289 C285 1.391 . S
C289 C288 1.371 . S
C289 H296 0.930 . S
H290 C287 0.928 . S
H291 C288 0.931 . S
H292 C268 0.930 . S
H293 C265 0.930 . S
H294 C274 0.930 . S
H295 C286 0.929 . S
H296 C289 0.930 . S
C297 C298 1.351 . S
C297 N300 1.368 . S
C297 H302 0.931 . S
C298 C297 1.351 . S
C298 N299 1.373 . S
C298 H326 0.930 . S
N299 C298 1.373 . S
N299 C301 1.340 . S
N300 C297 1.368 . S
N300 C301 1.321 . S
N300 Co303 2.135 . S
C301 N299 1.340 . S
C301 N300 1.321 . S
C301 H325 0.930 . S
H302 C297 0.931 . S
Co303 N300 2.135 . S
Co303 N306 2.121 . S
Co303 O311 2.055 . S
Co303 O314 2.039 . S
Co303 N317 2.140 . S
C304 O305 1.227 . S
C304 O314 1.265 . S
O305 C304 1.227 . S
N306 Co303 2.121 . S
N306 C308 1.375 . S
N306 C309 1.313 . S
C307 C308 1.338 . S
C307 N310 1.377 . S
C307 H327 0.930 . S
C308 N306 1.375 . S
C308 C307 1.338 . S
C308 H312 0.931 . S
C309 N306 1.313 . S
C309 N310 1.344 . S
C309 H313 0.930 . S
N310 C307 1.377 . S
N310 C309 1.344 . S
O311 Co303 2.055 . S
O311 C315 1.253 . S
H312 C308 0.931 . S
H313 C309 0.930 . S
O314 Co303 2.039 . S
O314 C304 1.265 . S
C315 O311 1.253 . S
C315 O316 1.227 . S
O316 C315 1.227 . S
N317 Co303 2.140 . S
N317 C320 1.346 . S
N317 C321 1.345 . S
C318 C319 1.387 . S
C318 C322 1.391 . S
C319 C318 1.387 . S
C319 C320 1.369 . S
C319 H328 0.929 . S
C320 N317 1.346 . S
C320 C319 1.369 . S
C320 H323 0.928 . S
C321 N317 1.345 . S
C321 C322 1.371 . S
C321 H324 0.931 . S
C322 C318 1.391 . S
C322 C321 1.371 . S
C322 H329 0.930 . S
H323 C320 0.928 . S
H324 C321 0.931 . S
H325 C301 0.930 . S
H326 C298 0.930 . S
H327 C307 0.930 . S
H328 C319 0.929 . S
H329 C322 0.930 . S
C330 C331 1.351 . S
C330 N333 1.368 . S
C330 H335 0.931 . S
C331 C330 1.351 . S
C331 N332 1.373 . S
C331 H359 0.930 . S
N332 C331 1.373 . S
N332 C334 1.340 . S
N333 C330 1.368 . S
N333 C334 1.321 . S
N333 Co336 2.135 . S
C334 N332 1.340 . S
C334 N333 1.321 . S
C334 H358 0.930 . S
H335 C330 0.931 . S
Co336 N333 2.135 . S
Co336 N339 2.121 . S
Co336 O344 2.055 . S
Co336 O347 2.039 . S
Co336 N350 2.140 . S
C337 O338 1.227 . S
C337 O347 1.265 . S
O338 C337 1.227 . S
N339 Co336 2.121 . S
N339 C341 1.375 . S
N339 C342 1.313 . S
C340 C341 1.338 . S
C340 N343 1.377 . S
C340 H360 0.930 . S
C341 N339 1.375 . S
C341 C340 1.338 . S
C341 H345 0.931 . S
C342 N339 1.313 . S
C342 N343 1.344 . S
C342 H346 0.930 . S
N343 C340 1.377 . S
N343 C342 1.344 . S
O344 Co336 2.055 . S
O344 C348 1.253 . S
H345 C341 0.931 . S
H346 C342 0.930 . S
O347 Co336 2.039 . S
O347 C337 1.265 . S
C348 O344 1.253 . S
C348 O349 1.227 . S
O349 C348 1.227 . S
N350 Co336 2.140 . S
N350 C353 1.346 . S
N350 C354 1.345 . S
C351 C352 1.387 . S
C351 C355 1.391 . S
C352 C351 1.387 . S
C352 C353 1.369 . S
C352 H361 0.929 . S
C353 N350 1.346 . S
C353 C352 1.369 . S
C353 H356 0.928 . S
C354 N350 1.345 . S
C354 C355 1.371 . S
C354 H357 0.931 . S
C355 C351 1.391 . S
C355 C354 1.371 . S
C355 H362 0.930 . S
H356 C353 0.928 . S
H357 C354 0.931 . S
H358 C334 0.930 . S
H359 C331 0.930 . S
H360 C340 0.930 . S
H361 C352 0.929 . S
H362 C355 0.930 . S
C363 C364 1.351 . S
C363 N366 1.368 . S
C363 H368 0.931 . S
C364 C363 1.351 . S
C364 N365 1.373 . S
C364 H392 0.930 . S
N365 C364 1.373 . S
N365 C367 1.340 . S
N366 C363 1.368 . S
N366 C367 1.321 . S
N366 Co369 2.135 . S
C367 N365 1.340 . S
C367 N366 1.321 . S
C367 H391 0.930 . S
H368 C363 0.931 . S
Co369 N366 2.135 . S
Co369 N372 2.121 . S
Co369 O377 2.055 . S
Co369 O380 2.039 . S
Co369 N383 2.140 . S
C370 O371 1.227 . S
C370 O380 1.265 . S
O371 C370 1.227 . S
N372 Co369 2.121 . S
N372 C374 1.375 . S
N372 C375 1.313 . S
C373 C374 1.338 . S
C373 N376 1.377 . S
C373 H393 0.930 . S
C374 N372 1.375 . S
C374 C373 1.338 . S
C374 H378 0.931 . S
C375 N372 1.313 . S
C375 N376 1.344 . S
C375 H379 0.930 . S
N376 C373 1.377 . S
N376 C375 1.344 . S
O377 Co369 2.055 . S
O377 C381 1.253 . S
H378 C374 0.931 . S
H379 C375 0.930 . S
O380 Co369 2.039 . S
O380 C370 1.265 . S
C381 O377 1.253 . S
C381 O382 1.227 . S
O382 C381 1.227 . S
N383 Co369 2.140 . S
N383 C386 1.346 . S
N383 C387 1.345 . S
C384 C385 1.387 . S
C384 C388 1.391 . S
C385 C384 1.387 . S
C385 C386 1.369 . S
C385 H394 0.929 . S
C386 N383 1.346 . S
C386 C385 1.369 . S
C386 H389 0.928 . S
C387 N383 1.345 . S
C387 C388 1.371 . S
C387 H390 0.931 . S
C388 C384 1.391 . S
C388 C387 1.371 . S
C388 H395 0.930 . S
H389 C386 0.928 . S
H390 C387 0.931 . S
H391 C367 0.930 . S
H392 C364 0.930 . S
H393 C373 0.930 . S
H394 C385 0.929 . S
H395 C388 0.930 . S
C396 C397 1.351 . S
C396 N399 1.368 . S
C396 H401 0.931 . S
C397 C396 1.351 . S
C397 N398 1.373 . S
C397 H425 0.930 . S
N398 C397 1.373 . S
N398 C400 1.340 . S
N399 C396 1.368 . S
N399 C400 1.321 . S
N399 Co402 2.135 . S
C400 N398 1.340 . S
C400 N399 1.321 . S
C400 H424 0.930 . S
H401 C396 0.931 . S
Co402 N399 2.135 . S
Co402 N405 2.121 . S
Co402 O410 2.055 . S
Co402 O413 2.039 . S
Co402 N416 2.140 . S
C403 O404 1.227 . S
C403 O413 1.265 . S
O404 C403 1.227 . S
N405 Co402 2.121 . S
N405 C407 1.375 . S
N405 C408 1.313 . S
C406 C407 1.338 . S
C406 N409 1.377 . S
C406 H426 0.930 . S
C407 N405 1.375 . S
C407 C406 1.338 . S
C407 H411 0.931 . S
C408 N405 1.313 . S
C408 N409 1.344 . S
C408 H412 0.930 . S
N409 C406 1.377 . S
N409 C408 1.344 . S
O410 Co402 2.055 . S
O410 C414 1.253 . S
H411 C407 0.931 . S
H412 C408 0.930 . S
O413 Co402 2.039 . S
O413 C403 1.265 . S
C414 O410 1.253 . S
C414 O415 1.227 . S
O415 C414 1.227 . S
N416 Co402 2.140 . S
N416 C419 1.346 . S
N416 C420 1.345 . S
C417 C418 1.387 . S
C417 C421 1.391 . S
C418 C417 1.387 . S
C418 C419 1.369 . S
C418 H427 0.929 . S
C419 N416 1.346 . S
C419 C418 1.369 . S
C419 H422 0.928 . S
C420 N416 1.345 . S
C420 C421 1.371 . S
C420 H423 0.931 . S
C421 C417 1.391 . S
C421 C420 1.371 . S
C421 H428 0.930 . S
H422 C419 0.928 . S
H423 C420 0.931 . S
H424 C400 0.930 . S
H425 C397 0.930 . S
H426 C406 0.930 . S
H427 C418 0.929 . S
H428 C421 0.930 . S
C429 C430 1.351 . S
C429 N432 1.368 . S
C429 H434 0.931 . S
C430 C429 1.351 . S
C430 N431 1.373 . S
C430 H458 0.930 . S
N431 C430 1.373 . S
N431 C433 1.340 . S
N432 C429 1.368 . S
N432 C433 1.321 . S
N432 Co435 2.135 . S
C433 N431 1.340 . S
C433 N432 1.321 . S
C433 H457 0.930 . S
H434 C429 0.931 . S
Co435 N432 2.135 . S
Co435 N438 2.121 . S
Co435 O443 2.055 . S
Co435 O446 2.039 . S
Co435 N449 2.140 . S
C436 O437 1.227 . S
C436 O446 1.265 . S
O437 C436 1.227 . S
N438 Co435 2.121 . S
N438 C440 1.375 . S
N438 C441 1.313 . S
C439 C440 1.338 . S
C439 N442 1.377 . S
C439 H459 0.930 . S
C440 N438 1.375 . S
C440 C439 1.338 . S
C440 H444 0.931 . S
C441 N438 1.313 . S
C441 N442 1.344 . S
C441 H445 0.930 . S
N442 C439 1.377 . S
N442 C441 1.344 . S
O443 Co435 2.055 . S
O443 C447 1.253 . S
H444 C440 0.931 . S
H445 C441 0.930 . S
O446 Co435 2.039 . S
O446 C436 1.265 . S
C447 O443 1.253 . S
C447 O448 1.227 . S
O448 C447 1.227 . S
N449 Co435 2.140 . S
N449 C452 1.346 . S
N449 C453 1.345 . S
C450 C451 1.387 . S
C450 C454 1.391 . S
C451 C450 1.387 . S
C451 C452 1.369 . S
C451 H460 0.929 . S
C452 N449 1.346 . S
C452 C451 1.369 . S
C452 H455 0.928 . S
C453 N449 1.345 . S
C453 C454 1.371 . S
C453 H456 0.931 . S
C454 C450 1.391 . S
C454 C453 1.371 . S
C454 H461 0.930 . S
H455 C452 0.928 . S
H456 C453 0.931 . S
H457 C433 0.930 . S
H458 C430 0.930 . S
H459 C439 0.930 . S
H460 C451 0.929 . S
H461 C454 0.930 . S
C462 C463 1.351 . S
C462 N465 1.368 . S
C462 H467 0.931 . S
C463 C462 1.351 . S
C463 N464 1.373 . S
C463 H491 0.930 . S
N464 C463 1.373 . S
N464 C466 1.340 . S
N465 C462 1.368 . S
N465 C466 1.321 . S
N465 Co468 2.135 . S
C466 N464 1.340 . S
C466 N465 1.321 . S
C466 H490 0.930 . S
H467 C462 0.931 . S
Co468 N465 2.135 . S
Co468 N471 2.121 . S
Co468 O476 2.055 . S
Co468 O479 2.039 . S
Co468 N482 2.140 . S
C469 O470 1.227 . S
C469 O479 1.265 . S
O470 C469 1.227 . S
N471 Co468 2.121 . S
N471 C473 1.375 . S
N471 C474 1.313 . S
C472 C473 1.338 . S
C472 N475 1.377 . S
C472 H492 0.930 . S
C473 N471 1.375 . S
C473 C472 1.338 . S
C473 H477 0.931 . S
C474 N471 1.313 . S
C474 N475 1.344 . S
C474 H478 0.930 . S
N475 C472 1.377 . S
N475 C474 1.344 . S
O476 Co468 2.055 . S
O476 C480 1.253 . S
H477 C473 0.931 . S
H478 C474 0.930 . S
O479 Co468 2.039 . S
O479 C469 1.265 . S
C480 O476 1.253 . S
C480 O481 1.227 . S
O481 C480 1.227 . S
N482 Co468 2.140 . S
N482 C485 1.346 . S
N482 C486 1.345 . S
C483 C484 1.387 . S
C483 C487 1.391 . S
C484 C483 1.387 . S
C484 C485 1.369 . S
C484 H493 0.929 . S
C485 N482 1.346 . S
C485 C484 1.369 . S
C485 H488 0.928 . S
C486 N482 1.345 . S
C486 C487 1.371 . S
C486 H489 0.931 . S
C487 C483 1.391 . S
C487 C486 1.371 . S
C487 H494 0.930 . S
H488 C485 0.928 . S
H489 C486 0.931 . S
H490 C466 0.930 . S
H491 C463 0.930 . S
H492 C472 0.930 . S
H493 C484 0.929 . S
H494 C487 0.930 . S
C495 C496 1.351 . S
C495 N498 1.368 . S
C495 H500 0.931 . S
C496 C495 1.351 . S
C496 N497 1.373 . S
C496 H524 0.930 . S
N497 C496 1.373 . S
N497 C499 1.340 . S
N498 C495 1.368 . S
N498 C499 1.321 . S
N498 Co501 2.135 . S
C499 N497 1.340 . S
C499 N498 1.321 . S
C499 H523 0.930 . S
H500 C495 0.931 . S
Co501 N498 2.135 . S
Co501 N504 2.121 . S
Co501 O509 2.055 . S
Co501 O512 2.039 . S
Co501 N515 2.140 . S
C502 O503 1.227 . S
C502 O512 1.265 . S
O503 C502 1.227 . S
N504 Co501 2.121 . S
N504 C506 1.375 . S
N504 C507 1.313 . S
C505 C506 1.338 . S
C505 N508 1.377 . S
C505 H525 0.930 . S
C506 N504 1.375 . S
C506 C505 1.338 . S
C506 H510 0.931 . S
C507 N504 1.313 . S
C507 N508 1.344 . S
C507 H511 0.930 . S
N508 C505 1.377 . S
N508 C507 1.344 . S
O509 Co501 2.055 . S
O509 C513 1.253 . S
H510 C506 0.931 . S
H511 C507 0.930 . S
O512 Co501 2.039 . S
O512 C502 1.265 . S
C513 O509 1.253 . S
C513 O514 1.227 . S
O514 C513 1.227 . S
N515 Co501 2.140 . S
N515 C518 1.346 . S
N515 C519 1.345 . S
C516 C517 1.387 . S
C516 C520 1.391 . S
C517 C516 1.387 . S
C517 C518 1.369 . S
C517 H526 0.929 . S
C518 N515 1.346 . S
C518 C517 1.369 . S
C518 H521 0.928 . S
C519 N515 1.345 . S
C519 C520 1.371 . S
C519 H522 0.931 . S
C520 C516 1.391 . S
C520 C519 1.371 . S
C520 H527 0.930 . S
H521 C518 0.928 . S
H522 C519 0.931 . S
H523 C499 0.930 . S
H524 C496 0.930 . S
H525 C505 0.930 . S
H526 C517 0.929 . S
H527 C520 0.930 . S
C528 C529 1.351 . S
C528 N531 1.368 . S
C528 H533 0.931 . S
C529 C528 1.351 . S
C529 N530 1.373 . S
C529 H557 0.930 . S
N530 C529 1.373 . S
N530 C532 1.340 . S
N531 C528 1.368 . S
N531 C532 1.321 . S
N531 Co534 2.135 . S
C532 N530 1.340 . S
C532 N531 1.321 . S
C532 H556 0.930 . S
H533 C528 0.931 . S
Co534 N531 2.135 . S
Co534 N537 2.121 . S
Co534 O542 2.055 . S
Co534 O545 2.039 . S
Co534 N548 2.140 . S
C535 O536 1.227 . S
C535 O545 1.265 . S
O536 C535 1.227 . S
N537 Co534 2.121 . S
N537 C539 1.375 . S
N537 C540 1.313 . S
C538 C539 1.338 . S
C538 N541 1.377 . S
C538 H558 0.930 . S
C539 N537 1.375 . S
C539 C538 1.338 . S
C539 H543 0.931 . S
C540 N537 1.313 . S
C540 N541 1.344 . S
C540 H544 0.930 . S
N541 C538 1.377 . S
N541 C540 1.344 . S
O542 Co534 2.055 . S
O542 C546 1.253 . S
H543 C539 0.931 . S
H544 C540 0.930 . S
O545 Co534 2.039 . S
O545 C535 1.265 . S
C546 O542 1.253 . S
C546 O547 1.227 . S
O547 C546 1.227 . S
N548 Co534 2.140 . S
N548 C551 1.346 . S
N548 C552 1.345 . S
C549 C550 1.387 . S
C549 C553 1.391 . S
C550 C549 1.387 . S
C550 C551 1.369 . S
C550 H559 0.929 . S
C551 N548 1.346 . S
C551 C550 1.369 . S
C551 H554 0.928 . S
C552 N548 1.345 . S
C552 C553 1.371 . S
C552 H555 0.931 . S
C553 C549 1.391 . S
C553 C552 1.371 . S
C553 H560 0.930 . S
H554 C551 0.928 . S
H555 C552 0.931 . S
H556 C532 0.930 . S
H557 C529 0.930 . S
H558 C538 0.930 . S
H559 C550 0.929 . S
H560 C553 0.930 . S
C561 C562 1.351 . S
C561 N564 1.368 . S
C561 H566 0.931 . S
C562 C561 1.351 . S
C562 N563 1.373 . S
C562 H590 0.930 . S
N563 C562 1.373 . S
N563 C565 1.340 . S
N564 C561 1.368 . S
N564 C565 1.321 . S
N564 Co567 2.135 . S
C565 N563 1.340 . S
C565 N564 1.321 . S
C565 H589 0.930 . S
H566 C561 0.931 . S
Co567 N564 2.135 . S
Co567 N570 2.121 . S
Co567 O575 2.055 . S
Co567 O578 2.039 . S
Co567 N581 2.140 . S
C568 O569 1.227 . S
C568 O578 1.265 . S
O569 C568 1.227 . S
N570 Co567 2.121 . S
N570 C572 1.375 . S
N570 C573 1.313 . S
C571 C572 1.338 . S
C571 N574 1.377 . S
C571 H591 0.930 . S
C572 N570 1.375 . S
C572 C571 1.338 . S
C572 H576 0.931 . S
C573 N570 1.313 . S
C573 N574 1.344 . S
C573 H577 0.930 . S
N574 C571 1.377 . S
N574 C573 1.344 . S
O575 Co567 2.055 . S
O575 C579 1.253 . S
H576 C572 0.931 . S
H577 C573 0.930 . S
O578 Co567 2.039 . S
O578 C568 1.265 . S
C579 O575 1.253 . S
C579 O580 1.227 . S
O580 C579 1.227 . S
N581 Co567 2.140 . S
N581 C584 1.346 . S
N581 C585 1.345 . S
C582 C583 1.387 . S
C582 C586 1.391 . S
C583 C582 1.387 . S
C583 C584 1.369 . S
C583 H592 0.929 . S
C584 N581 1.346 . S
C584 C583 1.369 . S
C584 H587 0.928 . S
C585 N581 1.345 . S
C585 C586 1.371 . S
C585 H588 0.931 . S
C586 C582 1.391 . S
C586 C585 1.371 . S
C586 H593 0.930 . S
H587 C584 0.928 . S
H588 C585 0.931 . S
H589 C565 0.930 . S
H590 C562 0.930 . S
H591 C571 0.930 . S
H592 C583 0.929 . S
H593 C586 0.930 . S
C594 C595 1.351 . S
C594 N597 1.368 . S
C594 H599 0.931 . S
C595 C594 1.351 . S
C595 N596 1.373 . S
C595 H623 0.930 . S
N596 C595 1.373 . S
N596 C598 1.340 . S
N597 C594 1.368 . S
N597 C598 1.321 . S
N597 Co600 2.135 . S
C598 N596 1.340 . S
C598 N597 1.321 . S
C598 H622 0.930 . S
H599 C594 0.931 . S
Co600 N597 2.135 . S
Co600 N603 2.121 . S
Co600 O608 2.055 . S
Co600 O611 2.039 . S
Co600 N614 2.140 . S
C601 O602 1.227 . S
C601 O611 1.265 . S
O602 C601 1.227 . S
N603 Co600 2.121 . S
N603 C605 1.375 . S
N603 C606 1.313 . S
C604 C605 1.338 . S
C604 N607 1.377 . S
C604 H624 0.930 . S
C605 N603 1.375 . S
C605 C604 1.338 . S
C605 H609 0.931 . S
C606 N603 1.313 . S
C606 N607 1.344 . S
C606 H610 0.930 . S
N607 C604 1.377 . S
N607 C606 1.344 . S
O608 Co600 2.055 . S
O608 C612 1.253 . S
H609 C605 0.931 . S
H610 C606 0.930 . S
O611 Co600 2.039 . S
O611 C601 1.265 . S
C612 O608 1.253 . S
C612 O613 1.227 . S
O613 C612 1.227 . S
N614 Co600 2.140 . S
N614 C617 1.346 . S
N614 C618 1.345 . S
C615 C616 1.387 . S
C615 C619 1.391 . S
C616 C615 1.387 . S
C616 C617 1.369 . S
C616 H625 0.929 . S
C617 N614 1.346 . S
C617 C616 1.369 . S
C617 H620 0.928 . S
C618 N614 1.345 . S
C618 C619 1.371 . S
C618 H621 0.931 . S
C619 C615 1.391 . S
C619 C618 1.371 . S
C619 H626 0.930 . S
H620 C617 0.928 . S
H621 C618 0.931 . S
H622 C598 0.930 . S
H623 C595 0.930 . S
H624 C604 0.930 . S
H625 C616 0.929 . S
H626 C619 0.930 . S
C627 C628 1.351 . S
C627 N630 1.368 . S
C627 H632 0.931 . S
C628 C627 1.351 . S
C628 N629 1.373 . S
C628 H656 0.930 . S
N629 C628 1.373 . S
N629 C631 1.340 . S
N630 C627 1.368 . S
N630 C631 1.321 . S
N630 Co633 2.135 . S
C631 N629 1.340 . S
C631 N630 1.321 . S
C631 H655 0.930 . S
H632 C627 0.931 . S
Co633 N630 2.135 . S
Co633 N636 2.121 . S
Co633 O641 2.055 . S
Co633 O644 2.039 . S
Co633 N647 2.140 . S
C634 O635 1.227 . S
C634 O644 1.265 . S
O635 C634 1.227 . S
N636 Co633 2.121 . S
N636 C638 1.375 . S
N636 C639 1.313 . S
C637 C638 1.338 . S
C637 N640 1.377 . S
C637 H657 0.930 . S
C638 N636 1.375 . S
C638 C637 1.338 . S
C638 H642 0.931 . S
C639 N636 1.313 . S
C639 N640 1.344 . S
C639 H643 0.930 . S
N640 C637 1.377 . S
N640 C639 1.344 . S
O641 Co633 2.055 . S
O641 C645 1.253 . S
H642 C638 0.931 . S
H643 C639 0.930 . S
O644 Co633 2.039 . S
O644 C634 1.265 . S
C645 O641 1.253 . S
C645 O646 1.227 . S
O646 C645 1.227 . S
N647 Co633 2.140 . S
N647 C650 1.346 . S
N647 C651 1.345 . S
C648 C649 1.387 . S
C648 C652 1.391 . S
C649 C648 1.387 . S
C649 C650 1.369 . S
C649 H658 0.929 . S
C650 N647 1.346 . S
C650 C649 1.369 . S
C650 H653 0.928 . S
C651 N647 1.345 . S
C651 C652 1.371 . S
C651 H654 0.931 . S
C652 C648 1.391 . S
C652 C651 1.371 . S
C652 H659 0.930 . S
H653 C650 0.928 . S
H654 C651 0.931 . S
H655 C631 0.930 . S
H656 C628 0.930 . S
H657 C637 0.930 . S
H658 C649 0.929 . S
H659 C652 0.930 . S
C660 C661 1.351 . S
C660 N663 1.368 . S
C660 H665 0.931 . S
C661 C660 1.351 . S
C661 N662 1.373 . S
C661 H689 0.930 . S
N662 C661 1.373 . S
N662 C664 1.340 . S
N663 C660 1.368 . S
N663 C664 1.321 . S
N663 Co666 2.135 . S
C664 N662 1.340 . S
C664 N663 1.321 . S
C664 H688 0.930 . S
H665 C660 0.931 . S
Co666 N663 2.135 . S
Co666 N669 2.121 . S
Co666 O674 2.055 . S
Co666 O677 2.039 . S
Co666 N680 2.140 . S
C667 O668 1.227 . S
C667 O677 1.265 . S
O668 C667 1.227 . S
N669 Co666 2.121 . S
N669 C671 1.375 . S
N669 C672 1.313 . S
C670 C671 1.338 . S
C670 N673 1.377 . S
C670 H690 0.930 . S
C671 N669 1.375 . S
C671 C670 1.338 . S
C671 H675 0.931 . S
C672 N669 1.313 . S
C672 N673 1.344 . S
C672 H676 0.930 . S
N673 C670 1.377 . S
N673 C672 1.344 . S
O674 Co666 2.055 . S
O674 C678 1.253 . S
H675 C671 0.931 . S
H676 C672 0.930 . S
O677 Co666 2.039 . S
O677 C667 1.265 . S
C678 O674 1.253 . S
C678 O679 1.227 . S
O679 C678 1.227 . S
N680 Co666 2.140 . S
N680 C683 1.346 . S
N680 C684 1.345 . S
C681 C682 1.387 . S
C681 C685 1.391 . S
C682 C681 1.387 . S
C682 C683 1.369 . S
C682 H691 0.929 . S
C683 N680 1.346 . S
C683 C682 1.369 . S
C683 H686 0.928 . S
C684 N680 1.345 . S
C684 C685 1.371 . S
C684 H687 0.931 . S
C685 C681 1.391 . S
C685 C684 1.371 . S
C685 H692 0.930 . S
H686 C683 0.928 . S
H687 C684 0.931 . S
H688 C664 0.930 . S
H689 C661 0.930 . S
H690 C670 0.930 . S
H691 C682 0.929 . S
H692 C685 0.930 . S
C693 C694 1.351 . S
C693 N696 1.368 . S
C693 H698 0.931 . S
C694 C693 1.351 . S
C694 N695 1.373 . S
C694 H722 0.930 . S
N695 C694 1.373 . S
N695 C697 1.340 . S
N696 C693 1.368 . S
N696 C697 1.321 . S
N696 Co699 2.135 . S
C697 N695 1.340 . S
C697 N696 1.321 . S
C697 H721 0.930 . S
H698 C693 0.931 . S
Co699 N696 2.135 . S
Co699 N702 2.121 . S
Co699 O707 2.055 . S
Co699 O710 2.039 . S
Co699 N713 2.140 . S
C700 O701 1.227 . S
C700 O710 1.265 . S
O701 C700 1.227 . S
N702 Co699 2.121 . S
N702 C704 1.375 . S
N702 C705 1.313 . S
C703 C704 1.338 . S
C703 N706 1.377 . S
C703 H723 0.930 . S
C704 N702 1.375 . S
C704 C703 1.338 . S
C704 H708 0.931 . S
C705 N702 1.313 . S
C705 N706 1.344 . S
C705 H709 0.930 . S
N706 C703 1.377 . S
N706 C705 1.344 . S
O707 Co699 2.055 . S
O707 C711 1.253 . S
H708 C704 0.931 . S
H709 C705 0.930 . S
O710 Co699 2.039 . S
O710 C700 1.265 . S
C711 O707 1.253 . S
C711 O712 1.227 . S
O712 C711 1.227 . S
N713 Co699 2.140 . S
N713 C716 1.346 . S
N713 C717 1.345 . S
C714 C715 1.387 . S
C714 C718 1.391 . S
C715 C714 1.387 . S
C715 C716 1.369 . S
C715 H724 0.929 . S
C716 N713 1.346 . S
C716 C715 1.369 . S
C716 H719 0.928 . S
C717 N713 1.345 . S
C717 C718 1.371 . S
C717 H720 0.931 . S
C718 C714 1.391 . S
C718 C717 1.371 . S
C718 H725 0.930 . S
H719 C716 0.928 . S
H720 C717 0.931 . S
H721 C697 0.930 . S
H722 C694 0.930 . S
H723 C703 0.930 . S
H724 C715 0.929 . S
H725 C718 0.930 . S
C726 C727 1.351 . S
C726 N729 1.368 . S
C726 H731 0.931 . S
C727 C726 1.351 . S
C727 N728 1.373 . S
C727 H755 0.930 . S
N728 C727 1.373 . S
N728 C730 1.340 . S
N729 C726 1.368 . S
N729 C730 1.321 . S
N729 Co732 2.135 . S
C730 N728 1.340 . S
C730 N729 1.321 . S
C730 H754 0.930 . S
H731 C726 0.931 . S
Co732 N729 2.135 . S
Co732 N735 2.121 . S
Co732 O740 2.055 . S
Co732 O743 2.039 . S
Co732 N746 2.140 . S
C733 O734 1.227 . S
C733 O743 1.265 . S
O734 C733 1.227 . S
N735 Co732 2.121 . S
N735 C737 1.375 . S
N735 C738 1.313 . S
C736 C737 1.338 . S
C736 N739 1.377 . S
C736 H756 0.930 . S
C737 N735 1.375 . S
C737 C736 1.338 . S
C737 H741 0.931 . S
C738 N735 1.313 . S
C738 N739 1.344 . S
C738 H742 0.930 . S
N739 C736 1.377 . S
N739 C738 1.344 . S
O740 Co732 2.055 . S
O740 C744 1.253 . S
H741 C737 0.931 . S
H742 C738 0.930 . S
O743 Co732 2.039 . S
O743 C733 1.265 . S
C744 O740 1.253 . S
C744 O745 1.227 . S
O745 C744 1.227 . S
N746 Co732 2.140 . S
N746 C749 1.346 . S
N746 C750 1.345 . S
C747 C748 1.387 . S
C747 C751 1.391 . S
C748 C747 1.387 . S
C748 C749 1.369 . S
C748 H757 0.929 . S
C749 N746 1.346 . S
C749 C748 1.369 . S
C749 H752 0.928 . S
C750 N746 1.345 . S
C750 C751 1.371 . S
C750 H753 0.931 . S
C751 C747 1.391 . S
C751 C750 1.371 . S
C751 H758 0.930 . S
H752 C749 0.928 . S
H753 C750 0.931 . S
H754 C730 0.930 . S
H755 C727 0.930 . S
H756 C736 0.930 . S
H757 C748 0.929 . S
H758 C751 0.930 . S
C759 C760 1.351 . S
C759 N762 1.368 . S
C759 H764 0.931 . S
C760 C759 1.351 . S
C760 N761 1.373 . S
C760 H788 0.930 . S
N761 C760 1.373 . S
N761 C763 1.340 . S
N762 C759 1.368 . S
N762 C763 1.321 . S
N762 Co765 2.135 . S
C763 N761 1.340 . S
C763 N762 1.321 . S
C763 H787 0.930 . S
H764 C759 0.931 . S
Co765 N762 2.135 . S
Co765 N768 2.121 . S
Co765 O773 2.055 . S
Co765 O776 2.039 . S
Co765 N779 2.140 . S
C766 O767 1.227 . S
C766 O776 1.265 . S
O767 C766 1.227 . S
N768 Co765 2.121 . S
N768 C770 1.375 . S
N768 C771 1.313 . S
C769 C770 1.338 . S
C769 N772 1.377 . S
C769 H789 0.930 . S
C770 N768 1.375 . S
C770 C769 1.338 . S
C770 H774 0.931 . S
C771 N768 1.313 . S
C771 N772 1.344 . S
C771 H775 0.930 . S
N772 C769 1.377 . S
N772 C771 1.344 . S
O773 Co765 2.055 . S
O773 C777 1.253 . S
H774 C770 0.931 . S
H775 C771 0.930 . S
O776 Co765 2.039 . S
O776 C766 1.265 . S
C777 O773 1.253 . S
C777 O778 1.227 . S
O778 C777 1.227 . S
N779 Co765 2.140 . S
N779 C782 1.346 . S
N779 C783 1.345 . S
C780 C781 1.387 . S
C780 C784 1.391 . S
C781 C780 1.387 . S
C781 C782 1.369 . S
C781 H790 0.929 . S
C782 N779 1.346 . S
C782 C781 1.369 . S
C782 H785 0.928 . S
C783 N779 1.345 . S
C783 C784 1.371 . S
C783 H786 0.931 . S
C784 C780 1.391 . S
C784 C783 1.371 . S
C784 H791 0.930 . S
H785 C782 0.928 . S
H786 C783 0.931 . S
H787 C763 0.930 . S
H788 C760 0.930 . S
H789 C769 0.930 . S
H790 C781 0.929 . S
H791 C784 0.930 . S
C792 C793 1.351 . S
C792 N795 1.368 . S
C792 H797 0.931 . S
C793 C792 1.351 . S
C793 N794 1.373 . S
C793 H821 0.930 . S
N794 C793 1.373 . S
N794 C796 1.340 . S
N795 C792 1.368 . S
N795 C796 1.321 . S
N795 Co798 2.135 . S
C796 N794 1.340 . S
C796 N795 1.321 . S
C796 H820 0.930 . S
H797 C792 0.931 . S
Co798 N795 2.135 . S
Co798 N801 2.121 . S
Co798 O806 2.055 . S
Co798 O809 2.039 . S
Co798 N812 2.140 . S
C799 O800 1.227 . S
C799 O809 1.265 . S
O800 C799 1.227 . S
N801 Co798 2.121 . S
N801 C803 1.375 . S
N801 C804 1.313 . S
C802 C803 1.338 . S
C802 N805 1.377 . S
C802 H822 0.930 . S
C803 N801 1.375 . S
C803 C802 1.338 . S
C803 H807 0.931 . S
C804 N801 1.313 . S
C804 N805 1.344 . S
C804 H808 0.930 . S
N805 C802 1.377 . S
N805 C804 1.344 . S
O806 Co798 2.055 . S
O806 C810 1.253 . S
H807 C803 0.931 . S
H808 C804 0.930 . S
O809 Co798 2.039 . S
O809 C799 1.265 . S
C810 O806 1.253 . S
C810 O811 1.227 . S
O811 C810 1.227 . S
N812 Co798 2.140 . S
N812 C815 1.346 . S
N812 C816 1.345 . S
C813 C814 1.387 . S
C813 C817 1.391 . S
C814 C813 1.387 . S
C814 C815 1.369 . S
C814 H823 0.929 . S
C815 N812 1.346 . S
C815 C814 1.369 . S
C815 H818 0.928 . S
C816 N812 1.345 . S
C816 C817 1.371 . S
C816 H819 0.931 . S
C817 C813 1.391 . S
C817 C816 1.371 . S
C817 H824 0.930 . S
H818 C815 0.928 . S
H819 C816 0.931 . S
H820 C796 0.930 . S
H821 C793 0.930 . S
H822 C802 0.930 . S
H823 C814 0.929 . S
H824 C817 0.930 . S
C825 C826 1.351 . S
C825 N828 1.368 . S
C825 H830 0.931 . S
C826 C825 1.351 . S
C826 N827 1.373 . S
C826 H854 0.930 . S
N827 C826 1.373 . S
N827 C829 1.340 . S
N828 C825 1.368 . S
N828 C829 1.321 . S
N828 Co831 2.135 . S
C829 N827 1.340 . S
C829 N828 1.321 . S
C829 H853 0.930 . S
H830 C825 0.931 . S
Co831 N828 2.135 . S
Co831 N834 2.121 . S
Co831 O839 2.055 . S
Co831 O842 2.039 . S
Co831 N845 2.140 . S
C832 O833 1.227 . S
C832 O842 1.265 . S
O833 C832 1.227 . S
N834 Co831 2.121 . S
N834 C836 1.375 . S
N834 C837 1.313 . S
C835 C836 1.338 . S
C835 N838 1.377 . S
C835 H855 0.930 . S
C836 N834 1.375 . S
C836 C835 1.338 . S
C836 H840 0.931 . S
C837 N834 1.313 . S
C837 N838 1.344 . S
C837 H841 0.930 . S
N838 C835 1.377 . S
N838 C837 1.344 . S
O839 Co831 2.055 . S
O839 C843 1.253 . S
H840 C836 0.931 . S
H841 C837 0.930 . S
O842 Co831 2.039 . S
O842 C832 1.265 . S
C843 O839 1.253 . S
C843 O844 1.227 . S
O844 C843 1.227 . S
N845 Co831 2.140 . S
N845 C848 1.346 . S
N845 C849 1.345 . S
C846 C847 1.387 . S
C846 C850 1.391 . S
C847 C846 1.387 . S
C847 C848 1.369 . S
C847 H856 0.929 . S
C848 N845 1.346 . S
C848 C847 1.369 . S
C848 H851 0.928 . S
C849 N845 1.345 . S
C849 C850 1.371 . S
C849 H852 0.931 . S
C850 C846 1.391 . S
C850 C849 1.371 . S
C850 H857 0.930 . S
H851 C848 0.928 . S
H852 C849 0.931 . S
H853 C829 0.930 . S
H854 C826 0.930 . S
H855 C835 0.930 . S
H856 C847 0.929 . S
H857 C850 0.930 . S
C858 C859 1.351 . S
C858 N861 1.368 . S
C858 H863 0.931 . S
C859 C858 1.351 . S
C859 N860 1.373 . S
C859 H887 0.930 . S
N860 C859 1.373 . S
N860 C862 1.340 . S
N861 C858 1.368 . S
N861 C862 1.321 . S
N861 Co864 2.135 . S
C862 N860 1.340 . S
C862 N861 1.321 . S
C862 H886 0.930 . S
H863 C858 0.931 . S
Co864 N861 2.135 . S
Co864 N867 2.121 . S
Co864 O872 2.055 . S
Co864 O875 2.039 . S
Co864 N878 2.140 . S
C865 O866 1.227 . S
C865 O875 1.265 . S
O866 C865 1.227 . S
N867 Co864 2.121 . S
N867 C869 1.375 . S
N867 C870 1.313 . S
C868 C869 1.338 . S
C868 N871 1.377 . S
C868 H888 0.930 . S
C869 N867 1.375 . S
C869 C868 1.338 . S
C869 H873 0.931 . S
C870 N867 1.313 . S
C870 N871 1.344 . S
C870 H874 0.930 . S
N871 C868 1.377 . S
N871 C870 1.344 . S
O872 Co864 2.055 . S
O872 C876 1.253 . S
H873 C869 0.931 . S
H874 C870 0.930 . S
O875 Co864 2.039 . S
O875 C865 1.265 . S
C876 O872 1.253 . S
C876 O877 1.227 . S
O877 C876 1.227 . S
N878 Co864 2.140 . S
N878 C881 1.346 . S
N878 C882 1.345 . S
C879 C880 1.387 . S
C879 C883 1.391 . S
C880 C879 1.387 . S
C880 C881 1.369 . S
C880 H889 0.929 . S
C881 N878 1.346 . S
C881 C880 1.369 . S
C881 H884 0.928 . S
C882 N878 1.345 . S
C882 C883 1.371 . S
C882 H885 0.931 . S
C883 C879 1.391 . S
C883 C882 1.371 . S
C883 H890 0.930 . S
H884 C881 0.928 . S
H885 C882 0.931 . S
H886 C862 0.930 . S
H887 C859 0.930 . S
H888 C868 0.930 . S
H889 C880 0.929 . S
H890 C883 0.930 . S
C891 C892 1.351 . S
C891 N894 1.368 . S
C891 H896 0.931 . S
C892 C891 1.351 . S
C892 N893 1.373 . S
C892 H920 0.930 . S
N893 C892 1.373 . S
N893 C895 1.340 . S
N894 C891 1.368 . S
N894 C895 1.321 . S
N894 Co897 2.135 . S
C895 N893 1.340 . S
C895 N894 1.321 . S
C895 H919 0.930 . S
H896 C891 0.931 . S
Co897 N894 2.135 . S
Co897 N900 2.121 . S
Co897 O905 2.055 . S
Co897 O908 2.039 . S
Co897 N911 2.140 . S
C898 O899 1.227 . S
C898 O908 1.265 . S
O899 C898 1.227 . S
N900 Co897 2.121 . S
N900 C902 1.375 . S
N900 C903 1.313 . S
C901 C902 1.338 . S
C901 N904 1.377 . S
C901 H921 0.930 . S
C902 N900 1.375 . S
C902 C901 1.338 . S
C902 H906 0.931 . S
C903 N900 1.313 . S
C903 N904 1.344 . S
C903 H907 0.930 . S
N904 C901 1.377 . S
N904 C903 1.344 . S
O905 Co897 2.055 . S
O905 C909 1.253 . S
H906 C902 0.931 . S
H907 C903 0.930 . S
O908 Co897 2.039 . S
O908 C898 1.265 . S
C909 O905 1.253 . S
C909 O910 1.227 . S
O910 C909 1.227 . S
N911 Co897 2.140 . S
N911 C914 1.346 . S
N911 C915 1.345 . S
C912 C913 1.387 . S
C912 C916 1.391 . S
C913 C912 1.387 . S
C913 C914 1.369 . S
C913 H922 0.929 . S
C914 N911 1.346 . S
C914 C913 1.369 . S
C914 H917 0.928 . S
C915 N911 1.345 . S
C915 C916 1.371 . S
C915 H918 0.931 . S
C916 C912 1.391 . S
C916 C915 1.371 . S
C916 H923 0.930 . S
H917 C914 0.928 . S
H918 C915 0.931 . S
H919 C895 0.930 . S
H920 C892 0.930 . S
H921 C901 0.930 . S
H922 C913 0.929 . S
H923 C916 0.930 . S
C924 C925 1.351 . S
C924 N927 1.368 . S
C924 H929 0.931 . S
C925 C924 1.351 . S
C925 N926 1.373 . S
C925 H953 0.930 . S
N926 C925 1.373 . S
N926 C928 1.340 . S
N927 C924 1.368 . S
N927 C928 1.321 . S
N927 Co930 2.135 . S
C928 N926 1.340 . S
C928 N927 1.321 . S
C928 H952 0.930 . S
H929 C924 0.931 . S
Co930 N927 2.135 . S
Co930 N933 2.121 . S
Co930 O938 2.055 . S
Co930 O941 2.039 . S
Co930 N944 2.140 . S
C931 O932 1.227 . S
C931 O941 1.265 . S
O932 C931 1.227 . S
N933 Co930 2.121 . S
N933 C935 1.375 . S
N933 C936 1.313 . S
C934 C935 1.338 . S
C934 N937 1.377 . S
C934 H954 0.930 . S
C935 N933 1.375 . S
C935 C934 1.338 . S
C935 H939 0.931 . S
C936 N933 1.313 . S
C936 N937 1.344 . S
C936 H940 0.930 . S
N937 C934 1.377 . S
N937 C936 1.344 . S
O938 Co930 2.055 . S
O938 C942 1.253 . S
H939 C935 0.931 . S
H940 C936 0.930 . S
O941 Co930 2.039 . S
O941 C931 1.265 . S
C942 O938 1.253 . S
C942 O943 1.227 . S
O943 C942 1.227 . S
N944 Co930 2.140 . S
N944 C947 1.346 . S
N944 C948 1.345 . S
C945 C946 1.387 . S
C945 C949 1.391 . S
C946 C945 1.387 . S
C946 C947 1.369 . S
C946 H955 0.929 . S
C947 N944 1.346 . S
C947 C946 1.369 . S
C947 H950 0.928 . S
C948 N944 1.345 . S
C948 C949 1.371 . S
C948 H951 0.931 . S
C949 C945 1.391 . S
C949 C948 1.371 . S
C949 H956 0.930 . S
H950 C947 0.928 . S
H951 C948 0.931 . S
H952 C928 0.930 . S
H953 C925 0.930 . S
H954 C934 0.930 . S
H955 C946 0.929 . S
H956 C949 0.930 . S
C957 C958 1.351 . S
C957 N960 1.368 . S
C957 H962 0.931 . S
C958 C957 1.351 . S
C958 N959 1.373 . S
C958 H986 0.930 . S
N959 C958 1.373 . S
N959 C961 1.340 . S
N960 C957 1.368 . S
N960 C961 1.321 . S
N960 Co963 2.135 . S
C961 N959 1.340 . S
C961 N960 1.321 . S
C961 H985 0.930 . S
H962 C957 0.931 . S
Co963 N960 2.135 . S
Co963 N966 2.121 . S
Co963 O971 2.055 . S
Co963 O974 2.039 . S
Co963 N977 2.140 . S
C964 O965 1.227 . S
C964 O974 1.265 . S
O965 C964 1.227 . S
N966 Co963 2.121 . S
N966 C968 1.375 . S
N966 C969 1.313 . S
C967 C968 1.338 . S
C967 N970 1.377 . S
C967 H987 0.930 . S
C968 N966 1.375 . S
C968 C967 1.338 . S
C968 H972 0.931 . S
C969 N966 1.313 . S
C969 N970 1.344 . S
C969 H973 0.930 . S
N970 C967 1.377 . S
N970 C969 1.344 . S
O971 Co963 2.055 . S
O971 C975 1.253 . S
H972 C968 0.931 . S
H973 C969 0.930 . S
O974 Co963 2.039 . S
O974 C964 1.265 . S
C975 O971 1.253 . S
C975 O976 1.227 . S
O976 C975 1.227 . S
N977 Co963 2.140 . S
N977 C980 1.346 . S
N977 C981 1.345 . S
C978 C979 1.387 . S
C978 C982 1.391 . S
C979 C978 1.387 . S
C979 C980 1.369 . S
C979 H988 0.929 . S
C980 N977 1.346 . S
C980 C979 1.369 . S
C980 H983 0.928 . S
C981 N977 1.345 . S
C981 C982 1.371 . S
C981 H984 0.931 . S
C982 C978 1.391 . S
C982 C981 1.371 . S
C982 H989 0.930 . S
H983 C980 0.928 . S
H984 C981 0.931 . S
H985 C961 0.930 . S
H986 C958 0.930 . S
H987 C967 0.930 . S
H988 C979 0.929 . S
H989 C982 0.930 . S
C990 C991 1.351 . S
C990 N993 1.368 . S
C990 H995 0.931 . S
C991 C990 1.351 . S
C991 N992 1.373 . S
C991 H1019 0.930 . S
N992 C991 1.373 . S
N992 C994 1.340 . S
N993 C990 1.368 . S
N993 C994 1.321 . S
N993 Co996 2.135 . S
C994 N992 1.340 . S
C994 N993 1.321 . S
C994 H1018 0.930 . S
H995 C990 0.931 . S
Co996 N993 2.135 . S
Co996 N999 2.121 . S
Co996 O1004 2.055 . S
Co996 O1007 2.039 . S
Co996 N1010 2.140 . S
C997 O998 1.227 . S
C997 O1007 1.265 . S
O998 C997 1.227 . S
N999 Co996 2.121 . S
N999 C1001 1.375 . S
N999 C1002 1.313 . S
C1000 C1001 1.338 . S
C1000 N1003 1.377 . S
C1000 H1020 0.930 . S
C1001 N999 1.375 . S
C1001 C1000 1.338 . S
C1001 H1005 0.931 . S
C1002 N999 1.313 . S
C1002 N1003 1.344 . S
C1002 H1006 0.930 . S
N1003 C1000 1.377 . S
N1003 C1002 1.344 . S
O1004 Co996 2.055 . S
O1004 C1008 1.253 . S
H1005 C1001 0.931 . S
H1006 C1002 0.930 . S
O1007 Co996 2.039 . S
O1007 C997 1.265 . S
C1008 O1004 1.253 . S
C1008 O1009 1.227 . S
O1009 C1008 1.227 . S
N1010 Co996 2.140 . S
N1010 C1013 1.346 . S
N1010 C1014 1.345 . S
C1011 C1012 1.387 . S
C1011 C1015 1.391 . S
C1012 C1011 1.387 . S
C1012 C1013 1.369 . S
C1012 H1021 0.929 . S
C1013 N1010 1.346 . S
C1013 C1012 1.369 . S
C1013 H1016 0.928 . S
C1014 N1010 1.345 . S
C1014 C1015 1.371 . S
C1014 H1017 0.931 . S
C1015 C1011 1.391 . S
C1015 C1014 1.371 . S
C1015 H1022 0.930 . S
H1016 C1013 0.928 . S
H1017 C1014 0.931 . S
H1018 C994 0.930 . S
H1019 C991 0.930 . S
H1020 C1000 0.930 . S
H1021 C1012 0.929 . S
H1022 C1015 0.930 . S
C1023 C1024 1.351 . S
C1023 N1026 1.368 . S
C1023 H1028 0.931 . S
C1024 C1023 1.351 . S
C1024 N1025 1.373 . S
C1024 H1052 0.930 . S
N1025 C1024 1.373 . S
N1025 C1027 1.340 . S
N1026 C1023 1.368 . S
N1026 C1027 1.321 . S
N1026 Co1029 2.135 . S
C1027 N1025 1.340 . S
C1027 N1026 1.321 . S
C1027 H1051 0.930 . S
H1028 C1023 0.931 . S
Co1029 N1026 2.135 . S
Co1029 N1032 2.121 . S
Co1029 O1037 2.055 . S
Co1029 O1040 2.039 . S
Co1029 N1043 2.140 . S
C1030 O1031 1.227 . S
C1030 O1040 1.265 . S
O1031 C1030 1.227 . S
N1032 Co1029 2.121 . S
N1032 C1034 1.375 . S
N1032 C1035 1.313 . S
C1033 C1034 1.338 . S
C1033 N1036 1.377 . S
C1033 H1053 0.930 . S
C1034 N1032 1.375 . S
C1034 C1033 1.338 . S
C1034 H1038 0.931 . S
C1035 N1032 1.313 . S
C1035 N1036 1.344 . S
C1035 H1039 0.930 . S
N1036 C1033 1.377 . S
N1036 C1035 1.344 . S
O1037 Co1029 2.055 . S
O1037 C1041 1.253 . S
H1038 C1034 0.931 . S
H1039 C1035 0.930 . S
O1040 Co1029 2.039 . S
O1040 C1030 1.265 . S
C1041 O1037 1.253 . S
C1041 O1042 1.227 . S
O1042 C1041 1.227 . S
N1043 Co1029 2.140 . S
N1043 C1046 1.346 . S
N1043 C1047 1.345 . S
C1044 C1045 1.387 . S
C1044 C1048 1.391 . S
C1045 C1044 1.387 . S
C1045 C1046 1.369 . S
C1045 H1054 0.929 . S
C1046 N1043 1.346 . S
C1046 C1045 1.369 . S
C1046 H1049 0.928 . S
C1047 N1043 1.345 . S
C1047 C1048 1.371 . S
C1047 H1050 0.931 . S
C1048 C1044 1.391 . S
C1048 C1047 1.371 . S
C1048 H1055 0.930 . S
H1049 C1046 0.928 . S
H1050 C1047 0.931 . S
H1051 C1027 0.930 . S
H1052 C1024 0.930 . S
H1053 C1033 0.930 . S
H1054 C1045 0.929 . S
H1055 C1048 0.930 . S
H1056 C1062 0.930 . S
H1057 C1065 0.930 . S
H1058 C1066 0.930 . S
H1059 C1067 0.930 . S
H1060 C1070 0.930 . S
H1061 C1071 0.930 . S
C1062 H1056 0.930 . S
C1062 C1063 1.355 . S
C1062 C1064 1.415 . S
C1063 C1062 1.355 . S
C1063 C1065 1.419 . S
C1064 C1062 1.415 . S
C1064 C1069 1.425 . S
C1064 C1071 1.409 . S
C1065 H1057 0.930 . S
C1065 C1063 1.419 . S
C1065 C1066 1.362 . S
C1066 H1058 0.930 . S
C1066 C1065 1.362 . S
C1066 C1069 1.409 . S
C1067 H1059 0.930 . S
C1067 C1068 1.355 . S
C1067 C1069 1.415 . S
C1068 C1067 1.355 . S
C1068 C1070 1.419 . S
C1069 C1064 1.425 . S
C1069 C1066 1.409 . S
C1069 C1067 1.415 . S
C1070 H1060 0.930 . S
C1070 C1068 1.419 . S
C1070 C1071 1.362 . S
C1071 H1061 0.930 . S
C1071 C1064 1.409 . S
C1071 C1070 1.362 . S
H1072 C1078 0.930 . S
H1073 C1081 0.930 . S
H1074 C1082 0.930 . S
H1075 C1083 0.930 . S
H1076 C1086 0.930 . S
H1077 C1087 0.930 . S
C1078 H1072 0.930 . S
C1078 C1079 1.355 . S
C1078 C1080 1.415 1_655 S
C1079 C1078 1.355 . S
C1079 C1081 1.419 1_655 S
C1080 C1078 1.415 1_455 S
C1080 C1085 1.425 . S
C1080 C1087 1.409 . S
C1081 H1073 0.930 . S
C1081 C1079 1.419 1_455 S
C1081 C1082 1.362 . S
C1082 H1074 0.930 . S
C1082 C1081 1.362 . S
C1082 C1085 1.409 . S
C1083 H1075 0.930 . S
C1083 C1084 1.355 . S
C1083 C1085 1.415 . S
C1084 C1083 1.355 . S
C1084 C1086 1.419 . S
C1085 C1080 1.425 . S
C1085 C1082 1.409 . S
C1085 C1083 1.415 . S
C1086 H1076 0.930 . S
C1086 C1084 1.419 . S
C1086 C1087 1.362 . S
C1087 H1077 0.930 . S
C1087 C1080 1.409 . S
C1087 C1086 1.362 . S
H1088 C1094 0.930 . S
H1089 C1097 0.930 . S
H1090 C1098 0.930 . S
H1091 C1099 0.930 . S
H1092 C1102 0.930 . S
H1093 C1103 0.930 . S
C1094 H1088 0.930 . S
C1094 C1095 1.355 . S
C1094 C1096 1.415 . S
C1095 C1094 1.355 . S
C1095 C1097 1.419 . S
C1096 C1094 1.415 . S
C1096 C1101 1.425 . S
C1096 C1103 1.409 . S
C1097 H1089 0.930 . S
C1097 C1095 1.419 . S
C1097 C1098 1.362 . S
C1098 H1090 0.930 . S
C1098 C1097 1.362 . S
C1098 C1101 1.409 . S
C1099 H1091 0.930 . S
C1099 C1100 1.355 . S
C1099 C1101 1.415 . S
C1100 C1099 1.355 . S
C1100 C1102 1.419 . S
C1101 C1096 1.425 . S
C1101 C1098 1.409 . S
C1101 C1099 1.415 . S
C1102 H1092 0.930 . S
C1102 C1100 1.419 . S
C1102 C1103 1.362 . S
C1103 H1093 0.930 . S
C1103 C1096 1.409 . S
C1103 C1102 1.362 . S
H1104 C1110 0.930 . S
H1105 C1113 0.930 . S
H1106 C1114 0.930 . S
H1107 C1115 0.930 . S
H1108 C1118 0.930 . S
H1109 C1119 0.930 . S
C1110 H1104 0.930 . S
C1110 C1111 1.355 . S
C1110 C1112 1.415 . S
C1111 C1110 1.355 . S
C1111 C1113 1.419 . S
C1112 C1110 1.415 . S
C1112 C1117 1.425 . S
C1112 C1119 1.409 . S
C1113 H1105 0.930 . S
C1113 C1111 1.419 . S
C1113 C1114 1.362 . S
C1114 H1106 0.930 . S
C1114 C1113 1.362 . S
C1114 C1117 1.409 . S
C1115 H1107 0.930 . S
C1115 C1116 1.355 . S
C1115 C1117 1.415 . S
C1116 C1115 1.355 . S
C1116 C1118 1.419 . S
C1117 C1112 1.425 . S
C1117 C1114 1.409 . S
C1117 C1115 1.415 . S
C1118 H1108 0.930 . S
C1118 C1116 1.419 . S
C1118 C1119 1.362 . S
C1119 H1109 0.930 . S
C1119 C1112 1.409 . S
C1119 C1118 1.362 . S
H1120 C1126 0.930 . S
H1121 C1129 0.930 . S
H1122 C1130 0.930 . S
H1123 C1131 0.930 . S
H1124 C1134 0.930 . S
H1125 C1135 0.930 . S
C1126 H1120 0.930 . S
C1126 C1127 1.355 . S
C1126 C1128 1.415 . S
C1127 C1126 1.355 . S
C1127 C1129 1.419 . S
C1128 C1126 1.415 . S
C1128 C1133 1.425 . S
C1128 C1135 1.409 . S
C1129 H1121 0.930 . S
C1129 C1127 1.419 . S
C1129 C1130 1.362 . S
C1130 H1122 0.930 . S
C1130 C1129 1.362 . S
C1130 C1133 1.409 . S
C1131 H1123 0.930 . S
C1131 C1132 1.355 . S
C1131 C1133 1.415 . S
C1132 C1131 1.355 . S
C1132 C1134 1.419 . S
C1133 C1128 1.425 . S
C1133 C1130 1.409 . S
C1133 C1131 1.415 . S
C1134 H1124 0.930 . S
C1134 C1132 1.419 . S
C1134 C1135 1.362 . S
C1135 H1125 0.930 . S
C1135 C1128 1.409 . S
C1135 C1134 1.362 . S
H1136 C1142 0.930 . S
H1137 C1145 0.930 . S
H1138 C1146 0.930 . S
H1139 C1147 0.930 . S
H1140 C1150 0.930 . S
H1141 C1151 0.930 . S
C1142 H1136 0.930 . S
C1142 C1143 1.355 . S
C1142 C1144 1.415 . S
C1143 C1142 1.355 . S
C1143 C1145 1.419 . S
C1144 C1142 1.415 . S
C1144 C1149 1.425 . S
C1144 C1151 1.409 . S
C1145 H1137 0.930 . S
C1145 C1143 1.419 . S
C1145 C1146 1.362 . S
C1146 H1138 0.930 . S
C1146 C1145 1.362 . S
C1146 C1149 1.409 . S
C1147 H1139 0.930 . S
C1147 C1148 1.355 . S
C1147 C1149 1.415 . S
C1148 C1147 1.355 . S
C1148 C1150 1.419 . S
C1149 C1144 1.425 . S
C1149 C1146 1.409 . S
C1149 C1147 1.415 . S
C1150 H1140 0.930 . S
C1150 C1148 1.419 . S
C1150 C1151 1.362 . S
C1151 H1141 0.930 . S
C1151 C1144 1.409 . S
C1151 C1150 1.362 . S
H1152 C1158 0.930 . S
H1153 C1161 0.930 . S
H1154 C1162 0.930 . S
H1155 C1163 0.930 . S
H1156 C1166 0.930 . S
H1157 C1167 0.930 . S
C1158 H1152 0.930 . S
C1158 C1159 1.355 . S
C1158 C1160 1.415 . S
C1159 C1158 1.355 . S
C1159 C1161 1.419 . S
C1160 C1158 1.415 . S
C1160 C1165 1.425 . S
C1160 C1167 1.409 . S
C1161 H1153 0.930 . S
C1161 C1159 1.419 . S
C1161 C1162 1.362 . S
C1162 H1154 0.930 . S
C1162 C1161 1.362 . S
C1162 C1165 1.409 . S
C1163 H1155 0.930 . S
C1163 C1164 1.355 . S
C1163 C1165 1.415 . S
C1164 C1163 1.355 . S
C1164 C1166 1.419 . S
C1165 C1160 1.425 . S
C1165 C1162 1.409 . S
C1165 C1163 1.415 . S
C1166 H1156 0.930 . S
C1166 C1164 1.419 . S
C1166 C1167 1.362 . S
C1167 H1157 0.930 . S
C1167 C1160 1.409 . S
C1167 C1166 1.362 . S
H1168 C1174 0.930 . S
H1169 C1177 0.930 . S
H1170 C1178 0.930 . S
H1171 C1179 0.930 . S
H1172 C1182 0.930 . S
H1173 C1183 0.930 . S
C1174 H1168 0.930 . S
C1174 C1175 1.355 . S
C1174 C1176 1.415 . S
C1175 C1174 1.355 . S
C1175 C1177 1.419 . S
C1176 C1174 1.415 . S
C1176 C1181 1.425 . S
C1176 C1183 1.409 . S
C1177 H1169 0.930 . S
C1177 C1175 1.419 . S
C1177 C1178 1.362 . S
C1178 H1170 0.930 . S
C1178 C1177 1.362 . S
C1178 C1181 1.409 . S
C1179 H1171 0.930 . S
C1179 C1180 1.355 . S
C1179 C1181 1.415 1_655 S
C1180 C1179 1.355 . S
C1180 C1182 1.419 1_655 S
C1181 C1176 1.425 . S
C1181 C1178 1.409 . S
C1181 C1179 1.415 1_455 S
C1182 H1172 0.930 . S
C1182 C1180 1.419 1_455 S
C1182 C1183 1.362 . S
C1183 H1173 0.930 . S
C1183 C1176 1.409 . S
C1183 C1182 1.362 . S
H1184 C1190 0.930 . S
H1185 C1193 0.930 . S
H1186 C1194 0.930 . S
H1187 C1195 0.930 . S
H1188 C1198 0.930 . S
H1189 C1199 0.930 . S
C1190 H1184 0.930 . S
C1190 C1191 1.355 . S
C1190 C1192 1.415 . S
C1191 C1190 1.355 . S
C1191 C1193 1.419 . S
C1192 C1190 1.415 . S
C1192 C1197 1.425 . S
C1192 C1199 1.409 . S
C1193 H1185 0.930 . S
C1193 C1191 1.419 . S
C1193 C1194 1.362 . S
C1194 H1186 0.930 . S
C1194 C1193 1.362 . S
C1194 C1197 1.409 . S
C1195 H1187 0.930 . S
C1195 C1196 1.355 . S
C1195 C1197 1.415 . S
C1196 C1195 1.355 . S
C1196 C1198 1.419 . S
C1197 C1192 1.425 . S
C1197 C1194 1.409 . S
C1197 C1195 1.415 . S
C1198 H1188 0.930 . S
C1198 C1196 1.419 . S
C1198 C1199 1.362 . S
C1199 H1189 0.930 . S
C1199 C1192 1.409 . S
C1199 C1198 1.362 . S
H1200 C1206 0.930 . S
H1201 C1209 0.930 . S
H1202 C1210 0.930 1_455 S
H1203 C1211 0.930 . S
H1204 C1214 0.930 . S
H1205 C1215 0.930 . S
C1206 H1200 0.930 . S
C1206 C1207 1.355 1_655 S
C1206 C1208 1.415 . S
C1207 C1206 1.355 1_455 S
C1207 C1209 1.419 . S
C1208 C1206 1.415 . S
C1208 C1213 1.425 . S
C1208 C1215 1.409 . S
C1209 H1201 0.930 . S
C1209 C1207 1.419 . S
C1209 C1210 1.362 1_455 S
C1210 H1202 0.930 1_655 S
C1210 C1209 1.362 1_655 S
C1210 C1213 1.409 . S
C1211 H1203 0.930 . S
C1211 C1212 1.355 . S
C1211 C1213 1.415 . S
C1212 C1211 1.355 . S
C1212 C1214 1.419 . S
C1213 C1208 1.425 . S
C1213 C1210 1.409 . S
C1213 C1211 1.415 . S
C1214 H1204 0.930 . S
C1214 C1212 1.419 . S
C1214 C1215 1.362 . S
C1215 H1205 0.930 . S
C1215 C1208 1.409 . S
C1215 C1214 1.362 . S
H1216 C1222 0.930 . S
H1217 C1225 0.930 . S
H1218 C1226 0.930 . S
H1219 C1227 0.930 . S
H1220 C1230 0.930 . S
H1221 C1231 0.930 . S
C1222 H1216 0.930 . S
C1222 C1223 1.355 . S
C1222 C1224 1.415 . S
C1223 C1222 1.355 . S
C1223 C1225 1.419 . S
C1224 C1222 1.415 . S
C1224 C1229 1.425 . S
C1224 C1231 1.409 . S
C1225 H1217 0.930 . S
C1225 C1223 1.419 . S
C1225 C1226 1.362 . S
C1226 H1218 0.930 . S
C1226 C1225 1.362 . S
C1226 C1229 1.409 . S
C1227 H1219 0.930 . S
C1227 C1228 1.355 . S
C1227 C1229 1.415 . S
C1228 C1227 1.355 . S
C1228 C1230 1.419 . S
C1229 C1224 1.425 . S
C1229 C1226 1.409 . S
C1229 C1227 1.415 . S
C1230 H1220 0.930 . S
C1230 C1228 1.419 . S
C1230 C1231 1.362 . S
C1231 H1221 0.930 . S
C1231 C1224 1.409 . S
C1231 C1230 1.362 . S
H1232 C1238 0.930 . S
H1233 C1241 0.930 . S
H1234 C1242 0.930 . S
H1235 C1243 0.930 . S
H1236 C1246 0.930 . S
H1237 C1247 0.930 . S
C1238 H1232 0.930 . S
C1238 C1239 1.355 . S
C1238 C1240 1.415 . S
C1239 C1238 1.355 . S
C1239 C1241 1.419 . S
C1240 C1238 1.415 . S
C1240 C1245 1.425 . S
C1240 C1247 1.409 . S
C1241 H1233 0.930 . S
C1241 C1239 1.419 . S
C1241 C1242 1.362 . S
C1242 H1234 0.930 . S
C1242 C1241 1.362 . S
C1242 C1245 1.409 . S
C1243 H1235 0.930 . S
C1243 C1244 1.355 . S
C1243 C1245 1.415 . S
C1244 C1243 1.355 . S
C1244 C1246 1.419 . S
C1245 C1240 1.425 . S
C1245 C1242 1.409 . S
C1245 C1243 1.415 . S
C1246 H1236 0.930 . S
C1246 C1244 1.419 . S
C1246 C1247 1.362 . S
C1247 H1237 0.930 . S
C1247 C1240 1.409 . S
C1247 C1246 1.362 . S
H1248 C1254 0.930 . S
H1249 C1257 0.930 . S
H1250 C1258 0.930 . S
H1251 C1259 0.930 . S
H1252 C1262 0.930 . S
H1253 C1263 0.930 . S
C1254 H1248 0.930 . S
C1254 C1255 1.355 . S
C1254 C1256 1.415 . S
C1255 C1254 1.355 . S
C1255 C1257 1.419 . S
C1256 C1254 1.415 . S
C1256 C1261 1.425 . S
C1256 C1263 1.409 . S
C1257 H1249 0.930 . S
C1257 C1255 1.419 . S
C1257 C1258 1.362 . S
C1258 H1250 0.930 . S
C1258 C1257 1.362 . S
C1258 C1261 1.409 . S
C1259 H1251 0.930 . S
C1259 C1260 1.355 . S
C1259 C1261 1.415 . S
C1260 C1259 1.355 . S
C1260 C1262 1.419 . S
C1261 C1256 1.425 . S
C1261 C1258 1.409 . S
C1261 C1259 1.415 . S
C1262 H1252 0.930 . S
C1262 C1260 1.419 . S
C1262 C1263 1.362 . S
C1263 H1253 0.930 . S
C1263 C1256 1.409 . S
C1263 C1262 1.362 . S
H1264 C1270 0.930 . S
H1265 C1273 0.930 . S
H1266 C1274 0.930 . S
H1267 C1275 0.930 . S
H1268 C1278 0.930 . S
H1269 C1279 0.930 . S
C1270 H1264 0.930 . S
C1270 C1271 1.355 . S
C1270 C1272 1.415 . S
C1271 C1270 1.355 . S
C1271 C1273 1.419 . S
C1272 C1270 1.415 . S
C1272 C1277 1.425 . S
C1272 C1279 1.409 . S
C1273 H1265 0.930 . S
C1273 C1271 1.419 . S
C1273 C1274 1.362 . S
C1274 H1266 0.930 . S
C1274 C1273 1.362 . S
C1274 C1277 1.409 . S
C1275 H1267 0.930 . S
C1275 C1276 1.355 . S
C1275 C1277 1.415 . S
C1276 C1275 1.355 . S
C1276 C1278 1.419 . S
C1277 C1272 1.425 . S
C1277 C1274 1.409 . S
C1277 C1275 1.415 . S
C1278 H1268 0.930 . S
C1278 C1276 1.419 . S
C1278 C1279 1.362 . S
C1279 H1269 0.930 . S
C1279 C1272 1.409 . S
C1279 C1278 1.362 . S
H1280 C1286 0.930 . S
H1281 C1289 0.930 . S
H1282 C1290 0.930 . S
H1283 C1291 0.930 . S
H1284 C1294 0.930 . S
H1285 C1295 0.930 . S
C1286 H1280 0.930 . S
C1286 C1287 1.355 . S
C1286 C1288 1.415 . S
C1287 C1286 1.355 . S
C1287 C1289 1.419 . S
C1288 C1286 1.415 . S
C1288 C1293 1.425 . S
C1288 C1295 1.409 . S
C1289 H1281 0.930 . S
C1289 C1287 1.419 . S
C1289 C1290 1.362 . S
C1290 H1282 0.930 . S
C1290 C1289 1.362 . S
C1290 C1293 1.409 . S
C1291 H1283 0.930 . S
C1291 C1292 1.355 . S
C1291 C1293 1.415 . S
C1292 C1291 1.355 . S
C1292 C1294 1.419 . S
C1293 C1288 1.425 . S
C1293 C1290 1.409 . S
C1293 C1291 1.415 . S
C1294 H1284 0.930 . S
C1294 C1292 1.419 . S
C1294 C1295 1.362 . S
C1295 H1285 0.930 . S
C1295 C1288 1.409 . S
C1295 C1294 1.362 . S
H1296 C1302 0.930 . S
H1297 C1305 0.930 . S
H1298 C1306 0.930 . S
H1299 C1307 0.930 . S
H1300 C1310 0.930 . S
H1301 C1311 0.930 . S
C1302 H1296 0.930 . S
C1302 C1303 1.355 1_655 S
C1302 C1304 1.415 . S
C1303 C1302 1.355 1_455 S
C1303 C1305 1.419 . S
C1304 C1302 1.415 . S
C1304 C1309 1.425 . S
C1304 C1311 1.409 . S
C1305 H1297 0.930 . S
C1305 C1303 1.419 . S
C1305 C1306 1.362 1_455 S
C1306 H1298 0.930 . S
C1306 C1305 1.362 1_655 S
C1306 C1309 1.409 . S
C1307 H1299 0.930 . S
C1307 C1308 1.355 . S
C1307 C1309 1.415 . S
C1308 C1307 1.355 . S
C1308 C1310 1.419 . S
C1309 C1304 1.425 . S
C1309 C1306 1.409 . S
C1309 C1307 1.415 . S
C1310 H1300 0.930 . S
C1310 C1308 1.419 . S
C1310 C1311 1.362 . S
C1311 H1301 0.930 . S
C1311 C1304 1.409 . S
C1311 C1310 1.362 . S
H1312 C1318 0.930 . S
H1313 C1321 0.930 . S
H1314 C1322 0.930 . S
H1315 C1323 0.930 . S
H1316 C1326 0.930 . S
H1317 C1327 0.930 . S
C1318 H1312 0.930 . S
C1318 C1319 1.355 . S
C1318 C1320 1.415 . S
C1319 C1318 1.355 . S
C1319 C1321 1.419 . S
C1320 C1318 1.415 . S
C1320 C1325 1.425 . S
C1320 C1327 1.409 . S
C1321 H1313 0.930 . S
C1321 C1319 1.419 . S
C1321 C1322 1.362 . S
C1322 H1314 0.930 . S
C1322 C1321 1.362 . S
C1322 C1325 1.409 . S
C1323 H1315 0.930 . S
C1323 C1324 1.355 . S
C1323 C1325 1.415 . S
C1324 C1323 1.355 . S
C1324 C1326 1.419 . S
C1325 C1320 1.425 . S
C1325 C1322 1.409 . S
C1325 C1323 1.415 . S
C1326 H1316 0.930 . S
C1326 C1324 1.419 . S
C1326 C1327 1.362 . S
C1327 H1317 0.930 . S
C1327 C1320 1.409 . S
C1327 C1326 1.362 . S
H1328 C1334 0.930 . S
H1329 C1337 0.930 . S
H1330 C1338 0.930 . S
H1331 C1339 0.930 . S
H1332 C1342 0.930 . S
H1333 C1343 0.930 . S
C1334 H1328 0.930 . S
C1334 C1335 1.355 . S
C1334 C1336 1.415 . S
C1335 C1334 1.355 . S
C1335 C1337 1.419 . S
C1336 C1334 1.415 . S
C1336 C1341 1.425 . S
C1336 C1343 1.409 . S
C1337 H1329 0.930 . S
C1337 C1335 1.419 . S
C1337 C1338 1.362 . S
C1338 H1330 0.930 . S
C1338 C1337 1.362 . S
C1338 C1341 1.409 . S
C1339 H1331 0.930 . S
C1339 C1340 1.355 . S
C1339 C1341 1.415 . S
C1340 C1339 1.355 . S
C1340 C1342 1.419 . S
C1341 C1336 1.425 . S
C1341 C1338 1.409 . S
C1341 C1339 1.415 . S
C1342 H1332 0.930 . S
C1342 C1340 1.419 . S
C1342 C1343 1.362 . S
C1343 H1333 0.930 . S
C1343 C1336 1.409 . S
C1343 C1342 1.362 . S
H1344 C1350 0.930 . S
H1345 C1353 0.930 . S
H1346 C1354 0.930 . S
H1347 C1355 0.930 . S
H1348 C1358 0.930 . S
H1349 C1359 0.930 . S
C1350 H1344 0.930 . S
C1350 C1351 1.355 . S
C1350 C1352 1.415 . S
C1351 C1350 1.355 . S
C1351 C1353 1.419 . S
C1352 C1350 1.415 . S
C1352 C1357 1.425 . S
C1352 C1359 1.409 . S
C1353 H1345 0.930 . S
C1353 C1351 1.419 . S
C1353 C1354 1.362 . S
C1354 H1346 0.930 . S
C1354 C1353 1.362 . S
C1354 C1357 1.409 . S
C1355 H1347 0.930 . S
C1355 C1356 1.355 . S
C1355 C1357 1.415 . S
C1356 C1355 1.355 . S
C1356 C1358 1.419 . S
C1357 C1352 1.425 . S
C1357 C1354 1.409 . S
C1357 C1355 1.415 . S
C1358 H1348 0.930 . S
C1358 C1356 1.419 . S
C1358 C1359 1.362 . S
C1359 H1349 0.930 . S
C1359 C1352 1.409 . S
C1359 C1358 1.362 . S
H1360 C1366 0.930 . S
H1361 C1369 0.930 . S
H1362 C1370 0.930 . S
H1363 C1371 0.930 . S
H1364 C1374 0.930 . S
H1365 C1375 0.930 1_455 S
C1366 H1360 0.930 . S
C1366 C1367 1.355 . S
C1366 C1368 1.415 . S
C1367 C1366 1.355 . S
C1367 C1369 1.419 . S
C1368 C1366 1.415 . S
C1368 C1373 1.425 . S
C1368 C1375 1.409 . S
C1369 H1361 0.930 . S
C1369 C1367 1.419 . S
C1369 C1370 1.362 . S
C1370 H1362 0.930 . S
C1370 C1369 1.362 . S
C1370 C1373 1.409 . S
C1371 H1363 0.930 . S
C1371 C1372 1.355 1_655 S
C1371 C1373 1.415 . S
C1372 C1371 1.355 1_455 S
C1372 C1374 1.419 . S
C1373 C1368 1.425 . S
C1373 C1370 1.409 . S
C1373 C1371 1.415 . S
C1374 H1364 0.930 . S
C1374 C1372 1.419 . S
C1374 C1375 1.362 1_455 S
C1375 H1365 0.930 1_655 S
C1375 C1368 1.409 . S
C1375 C1374 1.362 1_655 S
H1376 C1382 0.930 . S
H1377 C1385 0.930 . S
H1378 C1386 0.930 . S
H1379 C1387 0.930 . S
H1380 C1390 0.930 . S
H1381 C1391 0.930 . S
C1382 H1376 0.930 . S
C1382 C1383 1.355 . S
C1382 C1384 1.415 . S
C1383 C1382 1.355 . S
C1383 C1385 1.419 . S
C1384 C1382 1.415 . S
C1384 C1389 1.425 . S
C1384 C1391 1.409 . S
C1385 H1377 0.930 . S
C1385 C1383 1.419 . S
C1385 C1386 1.362 . S
C1386 H1378 0.930 . S
C1386 C1385 1.362 . S
C1386 C1389 1.409 . S
C1387 H1379 0.930 . S
C1387 C1388 1.355 . S
C1387 C1389 1.415 . S
C1388 C1387 1.355 . S
C1388 C1390 1.419 . S
C1389 C1384 1.425 . S
C1389 C1386 1.409 . S
C1389 C1387 1.415 . S
C1390 H1380 0.930 . S
C1390 C1388 1.419 . S
C1390 C1391 1.362 . S
C1391 H1381 0.930 . S
C1391 C1384 1.409 . S
C1391 C1390 1.362 . S
H1392 C1398 0.930 1_455 S
H1393 C1401 0.930 . S
H1394 C1402 0.930 . S
H1395 C1403 0.930 . S
H1396 C1406 0.930 . S
H1397 C1407 0.930 . S
C1398 H1392 0.930 1_655 S
C1398 C1399 1.355 1_655 S
C1398 C1400 1.415 . S
C1399 C1398 1.355 1_455 S
C1399 C1401 1.419 1_455 S
C1400 C1398 1.415 . S
C1400 C1405 1.425 . S
C1400 C1407 1.409 . S
C1401 H1393 0.930 . S
C1401 C1399 1.419 1_655 S
C1401 C1402 1.362 . S
C1402 H1394 0.930 . S
C1402 C1401 1.362 . S
C1402 C1405 1.409 . S
C1403 H1395 0.930 . S
C1403 C1404 1.355 . S
C1403 C1405 1.415 . S
C1404 C1403 1.355 . S
C1404 C1406 1.419 . S
C1405 C1400 1.425 . S
C1405 C1402 1.409 . S
C1405 C1403 1.415 . S
C1406 H1396 0.930 . S
C1406 C1404 1.419 . S
C1406 C1407 1.362 . S
C1407 H1397 0.930 . S
C1407 C1400 1.409 . S
C1407 C1406 1.362 . S
H1408 C1414 0.930 . S
H1409 C1417 0.930 . S
H1410 C1418 0.930 . S
H1411 C1419 0.930 . S
H1412 C1422 0.930 . S
H1413 C1423 0.930 . S
C1414 H1408 0.930 . S
C1414 C1415 1.355 . S
C1414 C1416 1.415 . S
C1415 C1414 1.355 . S
C1415 C1417 1.419 . S
C1416 C1414 1.415 . S
C1416 C1421 1.425 . S
C1416 C1423 1.409 . S
C1417 H1409 0.930 . S
C1417 C1415 1.419 . S
C1417 C1418 1.362 . S
C1418 H1410 0.930 . S
C1418 C1417 1.362 . S
C1418 C1421 1.409 . S
C1419 H1411 0.930 . S
C1419 C1420 1.355 . S
C1419 C1421 1.415 . S
C1420 C1419 1.355 . S
C1420 C1422 1.419 . S
C1421 C1416 1.425 . S
C1421 C1418 1.409 . S
C1421 C1419 1.415 . S
C1422 H1412 0.930 . S
C1422 C1420 1.419 . S
C1422 C1423 1.362 . S
C1423 H1413 0.930 . S
C1423 C1416 1.409 . S
C1423 C1422 1.362 . S
H1424 C1430 0.930 . S
H1425 C1433 0.930 . S
H1426 C1434 0.930 . S
H1427 C1435 0.930 . S
H1428 C1438 0.930 . S
H1429 C1439 0.930 . S
C1430 H1424 0.930 . S
C1430 C1431 1.355 . S
C1430 C1432 1.415 . S
C1431 C1430 1.355 . S
C1431 C1433 1.419 . S
C1432 C1430 1.415 . S
C1432 C1437 1.425 . S
C1432 C1439 1.409 . S
C1433 H1425 0.930 . S
C1433 C1431 1.419 . S
C1433 C1434 1.362 . S
C1434 H1426 0.930 . S
C1434 C1433 1.362 . S
C1434 C1437 1.409 . S
C1435 H1427 0.930 . S
C1435 C1436 1.355 . S
C1435 C1437 1.415 . S
C1436 C1435 1.355 . S
C1436 C1438 1.419 . S
C1437 C1432 1.425 . S
C1437 C1434 1.409 . S
C1437 C1435 1.415 . S
C1438 H1428 0.930 . S
C1438 C1436 1.419 . S
C1438 C1439 1.362 . S
C1439 H1429 0.930 . S
C1439 C1432 1.409 . S
C1439 C1438 1.362 . S
H1440 C1446 0.930 . S
H1441 C1449 0.930 . S
H1442 C1450 0.930 . S
H1443 C1451 0.930 . S
H1444 C1454 0.930 . S
H1445 C1455 0.930 . S
C1446 H1440 0.930 . S
C1446 C1447 1.355 . S
C1446 C1448 1.415 . S
C1447 C1446 1.355 . S
C1447 C1449 1.419 . S
C1448 C1446 1.415 . S
C1448 C1453 1.425 . S
C1448 C1455 1.409 . S
C1449 H1441 0.930 . S
C1449 C1447 1.419 . S
C1449 C1450 1.362 . S
C1450 H1442 0.930 . S
C1450 C1449 1.362 . S
C1450 C1453 1.409 . S
C1451 H1443 0.930 . S
C1451 C1452 1.355 . S
C1451 C1453 1.415 . S
C1452 C1451 1.355 . S
C1452 C1454 1.419 . S
C1453 C1448 1.425 . S
C1453 C1450 1.409 . S
C1453 C1451 1.415 . S
C1454 H1444 0.930 . S
C1454 C1452 1.419 . S
C1454 C1455 1.362 . S
C1455 H1445 0.930 . S
C1455 C1448 1.409 . S
C1455 C1454 1.362 . S
H1456 C1462 0.930 . S
H1457 C1465 0.930 . S
H1458 C1466 0.930 . S
H1459 C1467 0.930 . S
H1460 C1470 0.930 . S
H1461 C1471 0.930 . S
C1462 H1456 0.930 . S
C1462 C1463 1.355 . S
C1462 C1464 1.415 . S
C1463 C1462 1.355 . S
C1463 C1465 1.419 . S
C1464 C1462 1.415 . S
C1464 C1469 1.425 . S
C1464 C1471 1.409 . S
C1465 H1457 0.930 . S
C1465 C1463 1.419 . S
C1465 C1466 1.362 . S
C1466 H1458 0.930 . S
C1466 C1465 1.362 . S
C1466 C1469 1.409 . S
C1467 H1459 0.930 . S
C1467 C1468 1.355 . S
C1467 C1469 1.415 . S
C1468 C1467 1.355 . S
C1468 C1470 1.419 . S
C1469 C1464 1.425 . S
C1469 C1466 1.409 . S
C1469 C1467 1.415 . S
C1470 H1460 0.930 . S
C1470 C1468 1.419 . S
C1470 C1471 1.362 . S
C1471 H1461 0.930 . S
C1471 C1464 1.409 . S
C1471 C1470 1.362 . S
H1472 C1478 0.930 . S
H1473 C1481 0.930 . S
H1474 C1482 0.930 . S
H1475 C1483 0.930 . S
H1476 C1486 0.930 . S
H1477 C1487 0.930 . S
C1478 H1472 0.930 . S
C1478 C1479 1.355 . S
C1478 C1480 1.415 . S
C1479 C1478 1.355 . S
C1479 C1481 1.419 . S
C1480 C1478 1.415 . S
C1480 C1485 1.425 . S
C1480 C1487 1.409 . S
C1481 H1473 0.930 . S
C1481 C1479 1.419 . S
C1481 C1482 1.362 . S
C1482 H1474 0.930 . S
C1482 C1481 1.362 . S
C1482 C1485 1.409 . S
C1483 H1475 0.930 . S
C1483 C1484 1.355 . S
C1483 C1485 1.415 . S
C1484 C1483 1.355 . S
C1484 C1486 1.419 . S
C1485 C1480 1.425 . S
C1485 C1482 1.409 . S
C1485 C1483 1.415 . S
C1486 H1476 0.930 . S
C1486 C1484 1.419 . S
C1486 C1487 1.362 . S
C1487 H1477 0.930 . S
C1487 C1480 1.409 . S
C1487 C1486 1.362 . S
H1488 C1494 0.930 . S
H1489 C1497 0.930 . S
H1490 C1498 0.930 . S
H1491 C1499 0.930 . S
H1492 C1502 0.930 . S
H1493 C1503 0.930 . S
C1494 H1488 0.930 . S
C1494 C1495 1.355 . S
C1494 C1496 1.415 . S
C1495 C1494 1.355 . S
C1495 C1497 1.419 . S
C1496 C1494 1.415 . S
C1496 C1501 1.425 . S
C1496 C1503 1.409 . S
C1497 H1489 0.930 . S
C1497 C1495 1.419 . S
C1497 C1498 1.362 . S
C1498 H1490 0.930 . S
C1498 C1497 1.362 . S
C1498 C1501 1.409 . S
C1499 H1491 0.930 . S
C1499 C1500 1.355 1_455 S
C1499 C1501 1.415 . S
C1500 C1499 1.355 1_655 S
C1500 C1502 1.419 . S
C1501 C1496 1.425 . S
C1501 C1498 1.409 . S
C1501 C1499 1.415 . S
C1502 H1492 0.930 . S
C1502 C1500 1.419 . S
C1502 C1503 1.362 1_655 S
C1503 H1493 0.930 . S
C1503 C1496 1.409 . S
C1503 C1502 1.362 1_455 S
H1504 C1510 0.930 . S
H1505 C1513 0.930 . S
H1506 C1514 0.930 . S
H1507 C1515 0.930 . S
H1508 C1518 0.930 . S
H1509 C1519 0.930 . S
C1510 H1504 0.930 . S
C1510 C1511 1.355 . S
C1510 C1512 1.415 . S
C1511 C1510 1.355 . S
C1511 C1513 1.419 . S
C1512 C1510 1.415 . S
C1512 C1517 1.425 . S
C1512 C1519 1.409 . S
C1513 H1505 0.930 . S
C1513 C1511 1.419 . S
C1513 C1514 1.362 . S
C1514 H1506 0.930 . S
C1514 C1513 1.362 . S
C1514 C1517 1.409 . S
C1515 H1507 0.930 . S
C1515 C1516 1.355 . S
C1515 C1517 1.415 . S
C1516 C1515 1.355 . S
C1516 C1518 1.419 . S
C1517 C1512 1.425 . S
C1517 C1514 1.409 . S
C1517 C1515 1.415 . S
C1518 H1508 0.930 . S
C1518 C1516 1.419 . S
C1518 C1519 1.362 . S
C1519 H1509 0.930 . S
C1519 C1512 1.409 . S
C1519 C1518 1.362 . S
H1520 C1526 0.930 . S
H1521 C1529 0.930 . S
H1522 C1530 0.930 . S
H1523 C1531 0.930 . S
H1524 C1534 0.930 . S
H1525 C1535 0.923 1_655 S
C1526 H1520 0.930 . S
C1526 C1527 1.355 . S
C1526 C1528 1.415 . S
C1527 C1526 1.355 . S
C1527 C1529 1.419 . S
C1528 C1526 1.415 . S
C1528 C1533 1.425 . S
C1528 C1535 1.428 . S
C1529 H1521 0.930 . S
C1529 C1527 1.419 . S
C1529 C1530 1.362 . S
C1530 H1522 0.930 . S
C1530 C1529 1.362 . S
C1530 C1533 1.409 . S
C1531 H1523 0.930 . S
C1531 C1532 1.355 1_455 S
C1531 C1533 1.415 . S
C1532 C1531 1.355 1_655 S
C1532 C1534 1.419 . S
C1533 C1528 1.425 . S
C1533 C1530 1.409 . S
C1533 C1531 1.415 . S
C1534 H1524 0.930 . S
C1534 C1532 1.419 . S
C1534 C1535 1.351 1_655 S
C1535 H1525 0.923 1_455 S
C1535 C1528 1.428 . S
C1535 C1534 1.351 1_455 S
H1536 C1542 0.930 . S
H1537 C1545 0.930 . S
H1538 C1546 0.930 . S
H1539 C1547 0.930 . S
H1540 C1550 0.930 . S
H1541 C1551 0.930 . S
C1542 H1536 0.930 . S
C1542 C1543 1.355 . S
C1542 C1544 1.415 . S
C1543 C1542 1.355 . S
C1543 C1545 1.419 . S
C1544 C1542 1.415 . S
C1544 C1549 1.425 . S
C1544 C1551 1.409 . S
C1545 H1537 0.930 . S
C1545 C1543 1.419 . S
C1545 C1546 1.362 . S
C1546 H1538 0.930 . S
C1546 C1545 1.362 . S
C1546 C1549 1.409 . S
C1547 H1539 0.930 . S
C1547 C1548 1.355 . S
C1547 C1549 1.415 . S
C1548 C1547 1.355 . S
C1548 C1550 1.419 . S
C1549 C1544 1.425 . S
C1549 C1546 1.409 . S
C1549 C1547 1.415 . S
C1550 H1540 0.930 . S
C1550 C1548 1.419 . S
C1550 C1551 1.362 . S
C1551 H1541 0.930 . S
C1551 C1544 1.409 . S
C1551 C1550 1.362 . S
H1552 C1558 0.930 . S
H1553 C1561 0.930 . S
H1554 C1562 0.930 . S
H1555 C1563 0.930 . S
H1556 C1566 0.930 . S
H1557 C1567 0.930 . S
C1558 H1552 0.930 . S
C1558 C1559 1.355 . S
C1558 C1560 1.415 . S
C1559 C1558 1.355 . S
C1559 C1561 1.419 . S
C1560 C1558 1.415 . S
C1560 C1565 1.425 . S
C1560 C1567 1.409 . S
C1561 H1553 0.930 . S
C1561 C1559 1.419 . S
C1561 C1562 1.362 . S
C1562 H1554 0.930 . S
C1562 C1561 1.362 . S
C1562 C1565 1.409 . S
C1563 H1555 0.930 . S
C1563 C1564 1.355 . S
C1563 C1565 1.415 . S
C1564 C1563 1.355 . S
C1564 C1566 1.419 . S
C1565 C1560 1.425 . S
C1565 C1562 1.409 . S
C1565 C1563 1.415 . S
C1566 H1556 0.930 . S
C1566 C1564 1.419 . S
C1566 C1567 1.362 . S
C1567 H1557 0.930 . S
C1567 C1560 1.409 . S
C1567 C1566 1.362 . S
H1568 C1574 0.930 . S
H1569 C1577 0.930 . S
H1570 C1578 0.930 . S
H1571 C1579 0.930 . S
H1572 C1582 0.930 . S
H1573 C1583 0.930 1_545 S
C1574 H1568 0.930 . S
C1574 C1575 1.355 1_545 S
C1574 C1576 1.415 1_545 S
C1575 C1574 1.355 1_565 S
C1575 C1577 1.419 . S
C1576 C1574 1.415 1_565 S
C1576 C1581 1.425 . S
C1576 C1583 1.409 . S
C1577 H1569 0.930 . S
C1577 C1575 1.419 . S
C1577 C1578 1.362 . S
C1578 H1570 0.930 . S
C1578 C1577 1.362 . S
C1578 C1581 1.409 . S
C1579 H1571 0.930 . S
C1579 C1580 1.355 . S
C1579 C1581 1.415 . S
C1580 C1579 1.355 . S
C1580 C1582 1.419 . S
C1581 C1576 1.425 . S
C1581 C1578 1.409 . S
C1581 C1579 1.415 . S
C1582 H1572 0.930 . S
C1582 C1580 1.419 . S
C1582 C1583 1.362 . S
C1583 H1573 0.930 1_565 S
C1583 C1576 1.409 . S
C1583 C1582 1.362 . S
H1584 C1590 0.930 1_545 S
H1585 C1593 0.930 . S
H1586 C1594 0.930 . S
H1587 C1595 0.930 . S
H1588 C1598 0.930 . S
H1589 C1599 0.930 . S
C1590 H1584 0.930 1_565 S
C1590 C1591 1.355 . S
C1590 C1592 1.415 . S
C1591 C1590 1.355 . S
C1591 C1593 1.419 . S
C1592 C1590 1.415 . S
C1592 C1597 1.425 . S
C1592 C1599 1.409 . S
C1593 H1585 0.930 . S
C1593 C1591 1.419 . S
C1593 C1594 1.362 . S
C1594 H1586 0.930 . S
C1594 C1593 1.362 . S
C1594 C1597 1.409 . S
C1595 H1587 0.930 . S
C1595 C1596 1.355 . S
C1595 C1597 1.415 . S
C1596 C1595 1.355 . S
C1596 C1598 1.419 . S
C1597 C1592 1.425 . S
C1597 C1594 1.409 . S
C1597 C1595 1.415 . S
C1598 H1588 0.930 . S
C1598 C1596 1.419 . S
C1598 C1599 1.362 . S
C1599 H1589 0.930 . S
C1599 C1592 1.409 . S
C1599 C1598 1.362 . S
H1600 C1606 0.930 . S
H1601 C1609 0.930 . S
H1602 C1610 0.930 . S
H1603 C1611 0.930 . S
H1604 C1614 0.930 . S
H1605 C1615 0.930 . S
C1606 H1600 0.930 . S
C1606 C1607 1.355 . S
C1606 C1608 1.415 . S
C1607 C1606 1.355 . S
C1607 C1609 1.419 . S
C1608 C1606 1.415 . S
C1608 C1613 1.425 . S
C1608 C1615 1.409 . S
C1609 H1601 0.930 . S
C1609 C1607 1.419 . S
C1609 C1610 1.362 . S
C1610 H1602 0.930 . S
C1610 C1609 1.362 . S
C1610 C1613 1.409 . S
C1611 H1603 0.930 . S
C1611 C1612 1.354 1_565 S
C1611 C1613 1.415 1_565 S
C1612 C1611 1.354 1_545 S
C1612 C1614 1.427 . S
C1613 C1608 1.425 . S
C1613 C1610 1.409 . S
C1613 C1611 1.415 1_545 S
C1614 H1604 0.930 . S
C1614 C1612 1.427 . S
C1614 C1615 1.362 . S
C1615 H1605 0.930 . S
C1615 C1608 1.409 . S
C1615 C1614 1.362 . S
H1616 C1622 0.930 . S
H1617 C1625 0.930 . S
H1618 C1626 0.930 1_565 S
H1619 C1627 0.930 . S
H1620 C1630 0.930 . S
H1621 C1631 0.930 . S
C1622 H1616 0.930 . S
C1622 C1623 1.355 . S
C1622 C1624 1.415 . S
C1623 C1622 1.355 . S
C1623 C1625 1.419 . S
C1624 C1622 1.415 . S
C1624 C1629 1.425 . S
C1624 C1631 1.409 . S
C1625 H1617 0.930 . S
C1625 C1623 1.419 . S
C1625 C1626 1.362 . S
C1626 H1618 0.930 1_545 S
C1626 C1625 1.362 . S
C1626 C1629 1.409 . S
C1627 H1619 0.930 . S
C1627 C1628 1.355 1_565 S
C1627 C1629 1.415 1_565 S
C1628 C1627 1.355 1_545 S
C1628 C1630 1.419 . S
C1629 C1624 1.425 . S
C1629 C1626 1.409 . S
C1629 C1627 1.415 1_545 S
C1630 H1620 0.930 . S
C1630 C1628 1.419 . S
C1630 C1631 1.362 . S
C1631 H1621 0.930 . S
C1631 C1624 1.409 . S
C1631 C1630 1.362 . S
H1632 C1638 0.930 . S
H1633 C1641 0.930 . S
H1634 C1642 0.930 . S
H1635 C1643 0.930 . S
H1636 C1646 0.930 . S
H1637 C1647 0.930 1_565 S
C1638 H1632 0.930 . S
C1638 C1639 1.355 1_565 S
C1638 C1640 1.415 1_565 S
C1639 C1638 1.355 1_545 S
C1639 C1641 1.419 . S
C1640 C1638 1.415 1_545 S
C1640 C1645 1.425 . S
C1640 C1647 1.409 . S
C1641 H1633 0.930 . S
C1641 C1639 1.419 . S
C1641 C1642 1.362 . S
C1642 H1634 0.930 . S
C1642 C1641 1.362 . S
C1642 C1645 1.409 . S
C1643 H1635 0.930 . S
C1643 C1644 1.355 . S
C1643 C1645 1.415 . S
C1644 C1643 1.355 . S
C1644 C1646 1.419 . S
C1645 C1640 1.425 . S
C1645 C1642 1.409 . S
C1645 C1643 1.415 . S
C1646 H1636 0.930 . S
C1646 C1644 1.419 . S
C1646 C1647 1.362 . S
C1647 H1637 0.930 1_545 S
C1647 C1640 1.409 . S
C1647 C1646 1.362 . S
H1648 C1654 0.930 . S
H1649 C1657 0.930 . S
H1650 C1658 0.930 . S
H1651 C1659 0.930 . S
H1652 C1662 0.930 . S
H1653 C1663 0.930 . S
C1654 H1648 0.930 . S
C1654 C1655 1.355 . S
C1654 C1656 1.415 . S
C1655 C1654 1.355 . S
C1655 C1657 1.419 . S
C1656 C1654 1.415 . S
C1656 C1661 1.425 . S
C1656 C1663 1.409 1_545 S
C1657 H1649 0.930 . S
C1657 C1655 1.419 . S
C1657 C1658 1.362 . S
C1658 H1650 0.930 . S
C1658 C1657 1.362 . S
C1658 C1661 1.409 . S
C1659 H1651 0.930 . S
C1659 C1660 1.355 1_545 S
C1659 C1661 1.415 . S
C1660 C1659 1.355 1_565 S
C1660 C1662 1.419 . S
C1661 C1656 1.425 . S
C1661 C1658 1.409 . S
C1661 C1659 1.415 . S
C1662 H1652 0.930 . S
C1662 C1660 1.419 . S
C1662 C1663 1.362 . S
C1663 H1653 0.930 . S
C1663 C1656 1.409 1_565 S
C1663 C1662 1.362 . S
H1664 C1670 0.930 . S
H1665 C1673 0.930 1_545 S
H1666 C1674 0.930 . S
H1667 C1675 0.930 . S
H1668 C1678 0.930 . S
H1669 C1679 0.930 . S
C1670 H1664 0.930 . S
C1670 C1671 1.354 1_565 S
C1670 C1672 1.415 . S
C1671 C1670 1.354 1_545 S
C1671 C1673 1.419 1_545 S
C1672 C1670 1.415 . S
C1672 C1677 1.425 . S
C1672 C1679 1.409 . S
C1673 H1665 0.930 1_565 S
C1673 C1671 1.419 1_565 S
C1673 C1674 1.362 . S
C1674 H1666 0.930 . S
C1674 C1673 1.362 . S
C1674 C1677 1.409 . S
C1675 H1667 0.930 . S
C1675 C1676 1.355 . S
C1675 C1677 1.415 . S
C1676 C1675 1.355 . S
C1676 C1678 1.419 . S
C1677 C1672 1.425 . S
C1677 C1674 1.409 . S
C1677 C1675 1.415 . S
C1678 H1668 0.930 . S
C1678 C1676 1.419 . S
C1678 C1679 1.362 . S
C1679 H1669 0.930 . S
C1679 C1672 1.409 . S
C1679 C1678 1.362 . S
H1680 C1686 0.930 . S
H1681 C1689 0.930 . S
H1682 C1690 0.930 . S
H1683 C1691 0.930 . S
H1684 C1694 0.930 . S
H1685 C1695 0.930 . S
C1686 H1680 0.930 . S
C1686 C1687 1.355 . S
C1686 C1688 1.415 . S
C1687 C1686 1.355 . S
C1687 C1689 1.419 . S
C1688 C1686 1.415 . S
C1688 C1693 1.425 . S
C1688 C1695 1.409 . S
C1689 H1681 0.930 . S
C1689 C1687 1.419 . S
C1689 C1690 1.362 . S
C1690 H1682 0.930 . S
C1690 C1689 1.362 . S
C1690 C1693 1.409 . S
C1691 H1683 0.930 . S
C1691 C1692 1.355 1_565 S
C1691 C1693 1.415 . S
C1692 C1691 1.355 1_545 S
C1692 C1694 1.419 . S
C1693 C1688 1.425 . S
C1693 C1690 1.409 . S
C1693 C1691 1.415 . S
C1694 H1684 0.930 . S
C1694 C1692 1.419 . S
C1694 C1695 1.362 1_545 S
C1695 H1685 0.930 . S
C1695 C1688 1.409 . S
C1695 C1694 1.362 1_565 S
H1696 C1702 0.930 . S
H1697 C1705 0.930 . S
H1698 C1706 0.930 . S
H1699 C1707 0.930 . S
H1700 C1710 0.930 . S
H1701 C1711 0.930 . S
C1702 H1696 0.930 . S
C1702 C1703 1.355 . S
C1702 C1704 1.415 . S
C1703 C1702 1.355 . S
C1703 C1705 1.419 . S
C1704 C1702 1.415 . S
C1704 C1709 1.425 . S
C1704 C1711 1.409 . S
C1705 H1697 0.930 . S
C1705 C1703 1.419 . S
C1705 C1706 1.362 . S
C1706 H1698 0.930 . S
C1706 C1705 1.362 . S
C1706 C1709 1.409 . S
C1707 H1699 0.930 . S
C1707 C1708 1.355 . S
C1707 C1709 1.415 . S
C1708 C1707 1.355 . S
C1708 C1710 1.419 . S
C1709 C1704 1.425 . S
C1709 C1706 1.409 . S
C1709 C1707 1.415 . S
C1710 H1700 0.930 . S
C1710 C1708 1.419 . S
C1710 C1711 1.362 . S
C1711 H1701 0.930 . S
C1711 C1704 1.409 . S
C1711 C1710 1.362 . S
H1712 C1718 0.930 . S
H1713 C1721 0.930 . S
H1714 C1722 0.930 . S
H1715 C1723 0.930 . S
H1716 C1726 0.930 . S
H1717 C1727 0.930 . S
C1718 H1712 0.930 . S
C1718 C1719 1.355 . S
C1718 C1720 1.415 . S
C1719 C1718 1.355 . S
C1719 C1721 1.419 . S
C1720 C1718 1.415 . S
C1720 C1725 1.425 . S
C1720 C1727 1.409 . S
C1721 H1713 0.930 . S
C1721 C1719 1.419 . S
C1721 C1722 1.362 . S
C1722 H1714 0.930 . S
C1722 C1721 1.362 . S
C1722 C1725 1.409 . S
C1723 H1715 0.930 . S
C1723 C1724 1.355 . S
C1723 C1725 1.415 . S
C1724 C1723 1.355 . S
C1724 C1726 1.419 . S
C1725 C1720 1.425 . S
C1725 C1722 1.409 . S
C1725 C1723 1.415 . S
C1726 H1716 0.930 . S
C1726 C1724 1.419 . S
C1726 C1727 1.362 . S
C1727 H1717 0.930 . S
C1727 C1720 1.409 . S
C1727 C1726 1.362 . S
H1728 C1734 0.930 . S
H1729 C1737 0.930 . S
H1730 C1738 0.930 . S
H1731 C1739 0.930 . S
H1732 C1742 0.930 . S
H1733 C1743 0.930 . S
C1734 H1728 0.930 . S
C1734 C1735 1.355 . S
C1734 C1736 1.415 . S
C1735 C1734 1.355 . S
C1735 C1737 1.419 . S
C1736 C1734 1.415 . S
C1736 C1741 1.425 . S
C1736 C1743 1.409 . S
C1737 H1729 0.930 . S
C1737 C1735 1.419 . S
C1737 C1738 1.362 . S
C1738 H1730 0.930 . S
C1738 C1737 1.362 . S
C1738 C1741 1.409 . S
C1739 H1731 0.930 . S
C1739 C1740 1.355 . S
C1739 C1741 1.415 . S
C1740 C1739 1.355 . S
C1740 C1742 1.419 . S
C1741 C1736 1.425 . S
C1741 C1738 1.409 . S
C1741 C1739 1.415 . S
C1742 H1732 0.930 . S
C1742 C1740 1.419 . S
C1742 C1743 1.362 . S
C1743 H1733 0.930 . S
C1743 C1736 1.409 . S
C1743 C1742 1.362 . S
H1744 C1750 0.930 . S
H1745 C1753 0.930 . S
H1746 C1754 0.930 . S
H1747 C1755 0.930 . S
H1748 C1758 0.930 . S
H1749 C1759 0.930 . S
C1750 H1744 0.930 . S
C1750 C1751 1.355 . S
C1750 C1752 1.415 . S
C1751 C1750 1.355 . S
C1751 C1753 1.419 . S
C1752 C1750 1.415 . S
C1752 C1757 1.425 . S
C1752 C1759 1.409 . S
C1753 H1745 0.930 . S
C1753 C1751 1.419 . S
C1753 C1754 1.362 . S
C1754 H1746 0.930 . S
C1754 C1753 1.362 . S
C1754 C1757 1.409 . S
C1755 H1747 0.930 . S
C1755 C1756 1.355 . S
C1755 C1757 1.415 . S
C1756 C1755 1.355 . S
C1756 C1758 1.419 . S
C1757 C1752 1.425 . S
C1757 C1754 1.409 . S
C1757 C1755 1.415 . S
C1758 H1748 0.930 . S
C1758 C1756 1.419 . S
C1758 C1759 1.362 . S
C1759 H1749 0.930 . S
C1759 C1752 1.409 . S
C1759 C1758 1.362 . S
H1760 C1766 0.930 . S
H1761 C1769 0.930 . S
H1762 C1770 0.930 . S
H1763 C1771 0.930 . S
H1764 C1774 0.930 . S
H1765 C1775 0.930 . S
C1766 H1760 0.930 . S
C1766 C1767 1.355 . S
C1766 C1768 1.415 . S
C1767 C1766 1.355 . S
C1767 C1769 1.419 . S
C1768 C1766 1.415 . S
C1768 C1773 1.425 . S
C1768 C1775 1.409 . S
C1769 H1761 0.930 . S
C1769 C1767 1.419 . S
C1769 C1770 1.362 . S
C1770 H1762 0.930 . S
C1770 C1769 1.362 . S
C1770 C1773 1.409 . S
C1771 H1763 0.930 . S
C1771 C1772 1.355 . S
C1771 C1773 1.415 . S
C1772 C1771 1.355 . S
C1772 C1774 1.419 . S
C1773 C1768 1.425 . S
C1773 C1770 1.409 . S
C1773 C1771 1.415 . S
C1774 H1764 0.930 . S
C1774 C1772 1.419 . S
C1774 C1775 1.362 . S
C1775 H1765 0.930 . S
C1775 C1768 1.409 . S
C1775 C1774 1.362 . S
H1776 C1782 0.930 . S
H1777 C1785 0.930 . S
H1778 C1786 0.930 . S
H1779 C1787 0.930 . S
H1780 C1790 0.930 . S
H1781 C1791 0.930 . S
C1782 H1776 0.930 . S
C1782 C1783 1.355 . S
C1782 C1784 1.415 . S
C1783 C1782 1.355 . S
C1783 C1785 1.419 . S
C1784 C1782 1.415 . S
C1784 C1789 1.425 . S
C1784 C1791 1.409 . S
C1785 H1777 0.930 . S
C1785 C1783 1.419 . S
C1785 C1786 1.362 . S
C1786 H1778 0.930 . S
C1786 C1785 1.362 . S
C1786 C1789 1.409 . S
C1787 H1779 0.930 . S
C1787 C1788 1.355 . S
C1787 C1789 1.415 . S
C1788 C1787 1.355 . S
C1788 C1790 1.419 . S
C1789 C1784 1.425 . S
C1789 C1786 1.409 . S
C1789 C1787 1.415 . S
C1790 H1780 0.930 . S
C1790 C1788 1.419 . S
C1790 C1791 1.362 . S
C1791 H1781 0.930 . S
C1791 C1784 1.409 . S
C1791 C1790 1.362 . S
H1792 C1798 0.930 . S
H1793 C1801 0.930 . S
H1794 C1802 0.930 . S
H1795 C1803 0.930 . S
H1796 C1806 0.930 . S
H1797 C1807 0.930 . S
C1798 H1792 0.930 . S
C1798 C1799 1.355 . S
C1798 C1800 1.415 . S
C1799 C1798 1.355 . S
C1799 C1801 1.419 . S
C1800 C1798 1.415 . S
C1800 C1805 1.425 . S
C1800 C1807 1.409 . S
C1801 H1793 0.930 . S
C1801 C1799 1.419 . S
C1801 C1802 1.362 . S
C1802 H1794 0.930 . S
C1802 C1801 1.362 . S
C1802 C1805 1.409 . S
C1803 H1795 0.930 . S
C1803 C1804 1.355 . S
C1803 C1805 1.415 . S
C1804 C1803 1.355 . S
C1804 C1806 1.419 . S
C1805 C1800 1.425 . S
C1805 C1802 1.409 . S
C1805 C1803 1.415 . S
C1806 H1796 0.930 . S
C1806 C1804 1.419 . S
C1806 C1807 1.362 . S
C1807 H1797 0.930 . S
C1807 C1800 1.409 . S
C1807 C1806 1.362 . S
H1808 C1814 0.930 . S
H1809 C1817 0.930 . S
H1810 C1818 0.930 . S
H1811 C1819 0.930 . S
H1812 C1822 0.930 . S
H1813 C1823 0.930 . S
C1814 H1808 0.930 . S
C1814 C1815 1.355 . S
C1814 C1816 1.415 . S
C1815 C1814 1.355 . S
C1815 C1817 1.419 . S
C1816 C1814 1.415 . S
C1816 C1821 1.425 . S
C1816 C1823 1.409 . S
C1817 H1809 0.930 . S
C1817 C1815 1.419 . S
C1817 C1818 1.362 . S
C1818 H1810 0.930 . S
C1818 C1817 1.362 . S
C1818 C1821 1.409 . S
C1819 H1811 0.930 . S
C1819 C1820 1.355 . S
C1819 C1821 1.415 . S
C1820 C1819 1.355 . S
C1820 C1822 1.419 . S
C1821 C1816 1.425 . S
C1821 C1818 1.409 . S
C1821 C1819 1.415 . S
C1822 H1812 0.930 . S
C1822 C1820 1.419 . S
C1822 C1823 1.362 . S
C1823 H1813 0.930 . S
C1823 C1816 1.409 . S
C1823 C1822 1.362 . S
H1824 C1830 0.930 . S
H1825 C1833 0.930 . S
H1826 C1834 0.930 . S
H1827 C1835 0.930 . S
H1828 C1838 0.930 . S
H1829 C1839 0.930 . S
C1830 H1824 0.930 . S
C1830 C1831 1.355 . S
C1830 C1832 1.415 . S
C1831 C1830 1.355 . S
C1831 C1833 1.419 . S
C1832 C1830 1.415 . S
C1832 C1837 1.425 1_545 S
C1832 C1839 1.409 . S
C1833 H1825 0.930 . S
C1833 C1831 1.419 . S
C1833 C1834 1.362 1_545 S
C1834 H1826 0.930 . S
C1834 C1833 1.362 1_565 S
C1834 C1837 1.409 . S
C1835 H1827 0.930 . S
C1835 C1836 1.355 . S
C1835 C1837 1.415 . S
C1836 C1835 1.355 . S
C1836 C1838 1.419 . S
C1837 C1832 1.425 1_565 S
C1837 C1834 1.409 . S
C1837 C1835 1.415 . S
C1838 H1828 0.930 . S
C1838 C1836 1.419 . S
C1838 C1839 1.362 1_565 S
C1839 H1829 0.930 . S
C1839 C1832 1.409 . S
C1839 C1838 1.362 1_545 S
H1840 C1846 0.930 . S
H1841 C1849 0.930 . S
H1842 C1850 0.930 . S
H1843 C1851 0.930 . S
H1844 C1854 0.930 . S
H1845 C1855 0.930 . S
C1846 H1840 0.930 . S
C1846 C1847 1.355 . S
C1846 C1848 1.415 . S
C1847 C1846 1.355 . S
C1847 C1849 1.419 . S
C1848 C1846 1.415 . S
C1848 C1853 1.425 . S
C1848 C1855 1.409 . S
C1849 H1841 0.930 . S
C1849 C1847 1.419 . S
C1849 C1850 1.362 . S
C1850 H1842 0.930 . S
C1850 C1849 1.362 . S
C1850 C1853 1.409 . S
C1851 H1843 0.930 . S
C1851 C1852 1.355 . S
C1851 C1853 1.415 . S
C1852 C1851 1.355 . S
C1852 C1854 1.419 . S
C1853 C1848 1.425 . S
C1853 C1850 1.409 . S
C1853 C1851 1.415 . S
C1854 H1844 0.930 . S
C1854 C1852 1.419 . S
C1854 C1855 1.362 . S
C1855 H1845 0.930 . S
C1855 C1848 1.409 . S
C1855 C1854 1.362 . S
H1856 C1862 0.930 . S
H1857 C1865 0.930 . S
H1858 C1866 0.930 . S
H1859 C1867 0.930 . S
H1860 C1870 0.930 . S
H1861 C1871 0.930 . S
C1862 H1856 0.930 . S
C1862 C1863 1.355 . S
C1862 C1864 1.415 1_545 S
C1863 C1862 1.355 . S
C1863 C1865 1.419 . S
C1864 C1862 1.415 1_565 S
C1864 C1869 1.425 1_565 S
C1864 C1871 1.409 . S
C1865 H1857 0.930 . S
C1865 C1863 1.419 . S
C1865 C1866 1.362 . S
C1866 H1858 0.930 . S
C1866 C1865 1.362 . S
C1866 C1869 1.409 . S
C1867 H1859 0.930 . S
C1867 C1868 1.355 . S
C1867 C1869 1.415 1_565 S
C1868 C1867 1.355 . S
C1868 C1870 1.419 . S
C1869 C1864 1.425 1_545 S
C1869 C1866 1.409 . S
C1869 C1867 1.415 1_545 S
C1870 H1860 0.930 . S
C1870 C1868 1.419 . S
C1870 C1871 1.362 . S
C1871 H1861 0.930 . S
C1871 C1864 1.409 . S
C1871 C1870 1.362 . S
H1872 C1878 0.930 . S
H1873 C1881 0.930 . S
H1874 C1882 0.930 . S
H1875 C1883 0.930 . S
H1876 C1886 0.930 . S
H1877 C1887 0.930 . S
C1878 H1872 0.930 . S
C1878 C1879 1.355 . S
C1878 C1880 1.415 . S
C1879 C1878 1.355 . S
C1879 C1881 1.419 . S
C1880 C1878 1.415 . S
C1880 C1885 1.425 1_556 S
C1880 C1887 1.409 1_556 S
C1881 H1873 0.930 . S
C1881 C1879 1.419 . S
C1881 C1882 1.362 . S
C1882 H1874 0.930 . S
C1882 C1881 1.362 . S
C1882 C1885 1.409 1_556 S
C1883 H1875 0.930 . S
C1883 C1884 1.355 . S
C1883 C1885 1.415 . S
C1884 C1883 1.355 . S
C1884 C1886 1.419 . S
C1885 C1880 1.425 1_554 S
C1885 C1882 1.409 1_554 S
C1885 C1883 1.415 . S
C1886 H1876 0.930 . S
C1886 C1884 1.419 . S
C1886 C1887 1.362 . S
C1887 H1877 0.930 . S
C1887 C1880 1.409 1_554 S
C1887 C1886 1.362 . S
H1888 C1894 0.930 . S
H1889 C1897 0.930 . S
H1890 C1898 0.930 . S
H1891 C1899 0.930 . S
H1892 C1902 0.930 . S
H1893 C1903 0.930 . S
C1894 H1888 0.930 . S
C1894 C1895 1.355 . S
C1894 C1896 1.438 . S
C1895 C1894 1.355 . S
C1895 C1897 1.419 . S
C1896 C1894 1.438 . S
C1896 C1901 1.424 1_565 S
C1896 C1903 1.388 1_565 S
C1897 H1889 0.930 . S
C1897 C1895 1.419 . S
C1897 C1898 1.362 . S
C1898 H1890 0.930 . S
C1898 C1897 1.362 . S
C1898 C1901 1.388 1_565 S
C1899 H1891 0.930 . S
C1899 C1900 1.355 . S
C1899 C1901 1.438 . S
C1900 C1899 1.355 . S
C1900 C1902 1.419 . S
C1901 C1896 1.424 1_545 S
C1901 C1898 1.388 1_545 S
C1901 C1899 1.438 . S
C1902 H1892 0.930 . S
C1902 C1900 1.419 . S
C1902 C1903 1.362 . S
C1903 H1893 0.930 . S
C1903 C1896 1.388 1_545 S
C1903 C1902 1.362 . S
H1904 C1910 0.930 . S
H1905 C1913 0.930 . S
H1906 C1914 0.930 . S
H1907 C1915 0.930 . S
H1908 C1918 0.930 . S
H1909 C1919 0.930 . S
C1910 H1904 0.930 . S
C1910 C1911 1.355 . S
C1910 C1912 1.415 . S
C1911 C1910 1.355 . S
C1911 C1913 1.419 . S
C1912 C1910 1.415 . S
C1912 C1917 1.425 . S
C1912 C1919 1.409 . S
C1913 H1905 0.930 . S
C1913 C1911 1.419 . S
C1913 C1914 1.362 . S
C1914 H1906 0.930 . S
C1914 C1913 1.362 . S
C1914 C1917 1.409 . S
C1915 H1907 0.930 . S
C1915 C1916 1.355 . S
C1915 C1917 1.415 . S
C1916 C1915 1.355 . S
C1916 C1918 1.419 . S
C1917 C1912 1.425 . S
C1917 C1914 1.409 . S
C1917 C1915 1.415 . S
C1918 H1908 0.930 . S
C1918 C1916 1.419 . S
C1918 C1919 1.362 . S
C1919 H1909 0.930 . S
C1919 C1912 1.409 . S
C1919 C1918 1.362 . S
H1920 C1926 0.930 . S
H1921 C1929 0.930 . S
H1922 C1930 0.930 . S
H1923 C1931 0.930 . S
H1924 C1934 0.930 . S
H1925 C1935 0.930 . S
C1926 H1920 0.930 . S
C1926 C1927 1.355 . S
C1926 C1928 1.415 1_545 S
C1927 C1926 1.355 . S
C1927 C1929 1.419 . S
C1928 C1926 1.415 1_565 S
C1928 C1933 1.425 1_565 S
C1928 C1935 1.409 . S
C1929 H1921 0.930 . S
C1929 C1927 1.419 . S
C1929 C1930 1.362 . S
C1930 H1922 0.930 . S
C1930 C1929 1.362 . S
C1930 C1933 1.409 . S
C1931 H1923 0.930 . S
C1931 C1932 1.355 . S
C1931 C1933 1.415 1_565 S
C1932 C1931 1.355 . S
C1932 C1934 1.419 . S
C1933 C1928 1.425 1_545 S
C1933 C1930 1.409 . S
C1933 C1931 1.415 1_545 S
C1934 H1924 0.930 . S
C1934 C1932 1.419 . S
C1934 C1935 1.362 . S
C1935 H1925 0.930 . S
C1935 C1928 1.409 . S
C1935 C1934 1.362 . S
H1936 C1942 0.930 . S
H1937 C1945 0.939 . S
H1938 C1946 0.930 . S
H1939 C1947 0.930 . S
H1940 C1950 0.939 . S
H1941 C1951 0.930 . S
C1942 H1936 0.930 . S
C1942 C1943 1.355 . S
C1942 C1944 1.415 . S
C1943 C1942 1.355 . S
C1943 C1945 1.419 . S
C1944 C1942 1.415 . S
C1944 C1949 1.425 1_554 S
C1944 C1951 1.409 . S
C1945 H1937 0.939 . S
C1945 C1943 1.419 . S
C1945 C1946 1.362 1_554 S
C1946 H1938 0.930 . S
C1946 C1945 1.362 1_556 S
C1946 C1949 1.409 . S
C1947 H1939 0.930 . S
C1947 C1948 1.355 . S
C1947 C1949 1.415 . S
C1948 C1947 1.355 . S
C1948 C1950 1.419 . S
C1949 C1944 1.425 1_556 S
C1949 C1946 1.409 . S
C1949 C1947 1.415 . S
C1950 H1940 0.939 . S
C1950 C1948 1.419 . S
C1950 C1951 1.362 1_556 S
C1951 H1941 0.930 . S
C1951 C1944 1.409 . S
C1951 C1950 1.362 1_554 S
H1952 C1958 0.930 . S
H1953 C1961 0.930 . S
H1954 C1962 0.930 . S
H1955 C1963 0.930 . S
H1956 C1966 0.930 . S
H1957 C1967 0.930 . S
C1958 H1952 0.930 . S
C1958 C1959 1.355 . S
C1958 C1960 1.415 . S
C1959 C1958 1.355 . S
C1959 C1961 1.419 . S
C1960 C1958 1.415 . S
C1960 C1965 1.425 . S
C1960 C1967 1.409 . S
C1961 H1953 0.930 . S
C1961 C1959 1.419 . S
C1961 C1962 1.362 . S
C1962 H1954 0.930 . S
C1962 C1961 1.362 . S
C1962 C1965 1.409 . S
C1963 H1955 0.930 . S
C1963 C1964 1.355 . S
C1963 C1965 1.415 . S
C1964 C1963 1.355 . S
C1964 C1966 1.419 . S
C1965 C1960 1.425 . S
C1965 C1962 1.409 . S
C1965 C1963 1.415 . S
C1966 H1956 0.930 . S
C1966 C1964 1.419 . S
C1966 C1967 1.362 . S
C1967 H1957 0.930 . S
C1967 C1960 1.409 . S
C1967 C1966 1.362 . S
H1968 C1974 0.930 . S
H1969 C1977 0.930 . S
H1970 C1978 0.930 . S
H1971 C1979 0.930 . S
H1972 C1982 0.930 . S
H1973 C1983 0.930 . S
C1974 H1968 0.930 . S
C1974 C1975 1.355 . S
C1974 C1976 1.415 . S
C1975 C1974 1.355 . S
C1975 C1977 1.419 . S
C1976 C1974 1.415 . S
C1976 C1981 1.425 1_554 S
C1976 C1983 1.409 . S
C1977 H1969 0.930 . S
C1977 C1975 1.419 . S
C1977 C1978 1.362 1_554 S
C1978 H1970 0.930 . S
C1978 C1977 1.362 1_556 S
C1978 C1981 1.409 . S
C1979 H1971 0.930 . S
C1979 C1980 1.355 . S
C1979 C1981 1.415 . S
C1980 C1979 1.355 . S
C1980 C1982 1.419 . S
C1981 C1976 1.425 1_556 S
C1981 C1978 1.409 . S
C1981 C1979 1.415 . S
C1982 H1972 0.930 . S
C1982 C1980 1.419 . S
C1982 C1983 1.362 1_556 S
C1983 H1973 0.930 . S
C1983 C1976 1.409 . S
C1983 C1982 1.362 1_554 S
H1984 C1990 0.930 . S
H1985 C1993 0.930 . S
H1986 C1994 0.930 . S
H1987 C1995 0.930 . S
H1988 C1998 0.930 . S
H1989 C1999 0.930 . S
C1990 H1984 0.930 . S
C1990 C1991 1.355 . S
C1990 C1992 1.415 . S
C1991 C1990 1.355 . S
C1991 C1993 1.419 . S
C1992 C1990 1.415 . S
C1992 C1997 1.425 . S
C1992 C1999 1.409 . S
C1993 H1985 0.930 . S
C1993 C1991 1.419 . S
C1993 C1994 1.362 . S
C1994 H1986 0.930 . S
C1994 C1993 1.362 . S
C1994 C1997 1.409 . S
C1995 H1987 0.930 . S
C1995 C1996 1.355 . S
C1995 C1997 1.415 . S
C1996 C1995 1.355 . S
C1996 C1998 1.419 . S
C1997 C1992 1.425 . S
C1997 C1994 1.409 . S
C1997 C1995 1.415 . S
C1998 H1988 0.930 . S
C1998 C1996 1.419 . S
C1998 C1999 1.362 . S
C1999 H1989 0.930 . S
C1999 C1992 1.409 . S
C1999 C1998 1.362 . S
H2000 C2006 0.930 . S
H2001 C2009 0.930 . S
H2002 C2010 0.930 . S
H2003 C2011 0.930 . S
H2004 C2014 0.930 . S
H2005 C2015 0.930 . S
C2006 H2000 0.930 . S
C2006 C2007 1.355 . S
C2006 C2008 1.415 . S
C2007 C2006 1.355 . S
C2007 C2009 1.419 . S
C2008 C2006 1.415 . S
C2008 C2013 1.425 . S
C2008 C2015 1.409 . S
C2009 H2001 0.930 . S
C2009 C2007 1.419 . S
C2009 C2010 1.362 . S
C2010 H2002 0.930 . S
C2010 C2009 1.362 . S
C2010 C2013 1.409 . S
C2011 H2003 0.930 . S
C2011 C2012 1.355 . S
C2011 C2013 1.415 . S
C2012 C2011 1.355 . S
C2012 C2014 1.419 . S
C2013 C2008 1.425 . S
C2013 C2010 1.409 . S
C2013 C2011 1.415 . S
C2014 H2004 0.930 . S
C2014 C2012 1.419 . S
C2014 C2015 1.362 . S
C2015 H2005 0.930 . S
C2015 C2008 1.409 . S
C2015 C2014 1.362 . S
H2016 C2022 0.930 . S
H2017 C2025 0.930 . S
H2018 C2026 0.930 . S
H2019 C2027 0.930 . S
H2020 C2030 0.930 . S
H2021 C2031 0.930 . S
C2022 H2016 0.930 . S
C2022 C2023 1.355 . S
C2022 C2024 1.415 . S
C2023 C2022 1.355 . S
C2023 C2025 1.419 . S
C2024 C2022 1.415 . S
C2024 C2029 1.425 . S
C2024 C2031 1.409 . S
C2025 H2017 0.930 . S
C2025 C2023 1.419 . S
C2025 C2026 1.362 . S
C2026 H2018 0.930 . S
C2026 C2025 1.362 . S
C2026 C2029 1.409 . S
C2027 H2019 0.930 . S
C2027 C2028 1.355 . S
C2027 C2029 1.415 . S
C2028 C2027 1.355 . S
C2028 C2030 1.419 . S
C2029 C2024 1.425 . S
C2029 C2026 1.409 . S
C2029 C2027 1.415 . S
C2030 H2020 0.930 . S
C2030 C2028 1.419 . S
C2030 C2031 1.362 . S
C2031 H2021 0.930 . S
C2031 C2024 1.409 . S
C2031 C2030 1.362 . S
H2032 C2038 0.930 . S
H2033 C2041 0.930 . S
H2034 C2042 0.930 . S
H2035 C2043 0.930 . S
H2036 C2046 0.930 . S
H2037 C2047 0.930 . S
C2038 H2032 0.930 . S
C2038 C2039 1.355 . S
C2038 C2040 1.415 . S
C2039 C2038 1.355 . S
C2039 C2041 1.419 . S
C2040 C2038 1.415 . S
C2040 C2045 1.425 1_556 S
C2040 C2047 1.409 . S
C2041 H2033 0.930 . S
C2041 C2039 1.419 . S
C2041 C2042 1.362 1_556 S
C2042 H2034 0.930 . S
C2042 C2041 1.362 1_554 S
C2042 C2045 1.409 . S
C2043 H2035 0.930 . S
C2043 C2044 1.355 . S
C2043 C2045 1.415 . S
C2044 C2043 1.355 . S
C2044 C2046 1.419 . S
C2045 C2040 1.425 1_554 S
C2045 C2042 1.409 . S
C2045 C2043 1.415 . S
C2046 H2036 0.930 . S
C2046 C2044 1.419 . S
C2046 C2047 1.362 1_554 S
C2047 H2037 0.930 . S
C2047 C2040 1.409 . S
C2047 C2046 1.362 1_556 S
H2048 C2054 0.930 . S
H2049 C2057 0.930 . S
H2050 C2058 0.930 . S
H2051 C2059 0.930 . S
H2052 C2062 0.930 . S
H2053 C2063 0.930 . S
C2054 H2048 0.930 . S
C2054 C2055 1.355 . S
C2054 C2056 1.415 . S
C2055 C2054 1.355 . S
C2055 C2057 1.419 . S
C2056 C2054 1.415 . S
C2056 C2061 1.425 . S
C2056 C2063 1.409 . S
C2057 H2049 0.930 . S
C2057 C2055 1.419 . S
C2057 C2058 1.362 . S
C2058 H2050 0.930 . S
C2058 C2057 1.362 . S
C2058 C2061 1.409 . S
C2059 H2051 0.930 . S
C2059 C2060 1.355 . S
C2059 C2061 1.415 . S
C2060 C2059 1.355 . S
C2060 C2062 1.419 . S
C2061 C2056 1.425 . S
C2061 C2058 1.409 . S
C2061 C2059 1.415 . S
C2062 H2052 0.930 . S
C2062 C2060 1.419 . S
C2062 C2063 1.362 . S
C2063 H2053 0.930 . S
C2063 C2056 1.409 . S
C2063 C2062 1.362 . S
H2064 C2070 0.930 . S
H2065 C2073 0.930 . S
H2066 C2074 0.930 . S
H2067 C2075 0.930 . S
H2068 C2078 0.930 . S
H2069 C2079 0.930 . S
C2070 H2064 0.930 . S
C2070 C2071 1.355 . S
C2070 C2072 1.415 . S
C2071 C2070 1.355 . S
C2071 C2073 1.419 . S
C2072 C2070 1.415 . S
C2072 C2077 1.425 . S
C2072 C2079 1.409 . S
C2073 H2065 0.930 . S
C2073 C2071 1.419 . S
C2073 C2074 1.362 . S
C2074 H2066 0.930 . S
C2074 C2073 1.362 . S
C2074 C2077 1.409 . S
C2075 H2067 0.930 . S
C2075 C2076 1.355 . S
C2075 C2077 1.415 . S
C2076 C2075 1.355 . S
C2076 C2078 1.419 . S
C2077 C2072 1.425 . S
C2077 C2074 1.409 . S
C2077 C2075 1.415 . S
C2078 H2068 0.930 . S
C2078 C2076 1.419 . S
C2078 C2079 1.362 . S
C2079 H2069 0.930 . S
C2079 C2072 1.409 . S
C2079 C2078 1.362 . S
H2080 C2086 0.930 . S
H2081 C2089 0.934 . S
H2082 C2090 0.930 . S
H2083 C2091 0.930 . S
H2084 C2094 0.934 . S
H2085 C2095 0.930 . S
C2086 H2080 0.930 . S
C2086 C2087 1.355 . S
C2086 C2088 1.415 . S
C2087 C2086 1.355 . S
C2087 C2089 1.419 . S
C2088 C2086 1.415 . S
C2088 C2093 1.425 1_455 S
C2088 C2095 1.409 . S
C2089 H2081 0.934 . S
C2089 C2087 1.419 . S
C2089 C2090 1.362 1_455 S
C2090 H2082 0.930 . S
C2090 C2089 1.362 1_655 S
C2090 C2093 1.409 . S
C2091 H2083 0.930 . S
C2091 C2092 1.355 . S
C2091 C2093 1.415 . S
C2092 C2091 1.355 . S
C2092 C2094 1.419 . S
C2093 C2088 1.425 1_655 S
C2093 C2090 1.409 . S
C2093 C2091 1.415 . S
C2094 H2084 0.934 . S
C2094 C2092 1.419 . S
C2094 C2095 1.362 1_655 S
C2095 H2085 0.930 . S
C2095 C2088 1.409 . S
C2095 C2094 1.362 1_455 S
H2096 C2102 0.930 . S
H2097 C2105 0.930 . S
H2098 C2106 0.930 . S
H2099 C2107 0.930 . S
H2100 C2110 0.930 . S
H2101 C2111 0.930 . S
C2102 H2096 0.930 . S
C2102 C2103 1.355 . S
C2102 C2104 1.415 . S
C2103 C2102 1.355 . S
C2103 C2105 1.419 . S
C2104 C2102 1.415 . S
C2104 C2109 1.425 1_655 S
C2104 C2111 1.409 . S
C2105 H2097 0.930 . S
C2105 C2103 1.419 . S
C2105 C2106 1.362 1_655 S
C2106 H2098 0.930 . S
C2106 C2105 1.362 1_455 S
C2106 C2109 1.409 . S
C2107 H2099 0.930 . S
C2107 C2108 1.355 . S
C2107 C2109 1.415 . S
C2108 C2107 1.355 . S
C2108 C2110 1.419 . S
C2109 C2104 1.425 1_455 S
C2109 C2106 1.409 . S
C2109 C2107 1.415 . S
C2110 H2100 0.930 . S
C2110 C2108 1.419 . S
C2110 C2111 1.362 1_455 S
C2111 H2101 0.930 . S
C2111 C2104 1.409 . S
C2111 C2110 1.362 1_655 S
H2112 C2118 0.930 . S
H2113 C2121 0.930 . S
H2114 C2122 0.930 . S
H2115 C2123 0.930 . S
H2116 C2126 0.930 . S
H2117 C2127 0.930 . S
C2118 H2112 0.930 . S
C2118 C2119 1.355 . S
C2118 C2120 1.415 . S
C2119 C2118 1.355 . S
C2119 C2121 1.419 . S
C2120 C2118 1.415 . S
C2120 C2125 1.425 . S
C2120 C2127 1.409 . S
C2121 H2113 0.930 . S
C2121 C2119 1.419 . S
C2121 C2122 1.362 . S
C2122 H2114 0.930 . S
C2122 C2121 1.362 . S
C2122 C2125 1.409 . S
C2123 H2115 0.930 . S
C2123 C2124 1.355 . S
C2123 C2125 1.415 . S
C2124 C2123 1.355 . S
C2124 C2126 1.419 . S
C2125 C2120 1.425 . S
C2125 C2122 1.409 . S
C2125 C2123 1.415 . S
C2126 H2116 0.930 . S
C2126 C2124 1.419 . S
C2126 C2127 1.362 . S
C2127 H2117 0.930 . S
C2127 C2120 1.409 . S
C2127 C2126 1.362 . S
H2128 C2134 0.930 . S
H2129 C2137 0.930 . S
H2130 C2138 0.930 . S
H2131 C2139 0.930 . S
H2132 C2142 0.930 . S
H2133 C2143 0.930 . S
C2134 H2128 0.930 . S
C2134 C2135 1.355 . S
C2134 C2136 1.415 . S
C2135 C2134 1.355 . S
C2135 C2137 1.419 . S
C2136 C2134 1.415 . S
C2136 C2141 1.425 . S
C2136 C2143 1.409 . S
C2137 H2129 0.930 . S
C2137 C2135 1.419 . S
C2137 C2138 1.362 . S
C2138 H2130 0.930 . S
C2138 C2137 1.362 . S
C2138 C2141 1.409 . S
C2139 H2131 0.930 . S
C2139 C2140 1.355 . S
C2139 C2141 1.415 . S
C2140 C2139 1.355 . S
C2140 C2142 1.419 . S
C2141 C2136 1.425 . S
C2141 C2138 1.409 . S
C2141 C2139 1.415 . S
C2142 H2132 0.930 . S
C2142 C2140 1.419 . S
C2142 C2143 1.362 . S
C2143 H2133 0.930 . S
C2143 C2136 1.409 . S
C2143 C2142 1.362 . S
H2144 C2150 0.930 . S
H2145 C2153 0.930 . S
H2146 C2154 0.930 . S
H2147 C2155 0.930 . S
H2148 C2158 0.930 . S
H2149 C2159 0.930 . S
C2150 H2144 0.930 . S
C2150 C2151 1.355 . S
C2150 C2152 1.415 . S
C2151 C2150 1.355 . S
C2151 C2153 1.419 . S
C2152 C2150 1.415 . S
C2152 C2157 1.425 1_655 S
C2152 C2159 1.409 . S
C2153 H2145 0.930 . S
C2153 C2151 1.419 . S
C2153 C2154 1.362 1_655 S
C2154 H2146 0.930 . S
C2154 C2153 1.362 1_455 S
C2154 C2157 1.409 . S
C2155 H2147 0.930 . S
C2155 C2156 1.355 . S
C2155 C2157 1.415 . S
C2156 C2155 1.355 . S
C2156 C2158 1.419 . S
C2157 C2152 1.425 1_455 S
C2157 C2154 1.409 . S
C2157 C2155 1.415 . S
C2158 H2148 0.930 . S
C2158 C2156 1.419 . S
C2158 C2159 1.362 1_455 S
C2159 H2149 0.930 . S
C2159 C2152 1.409 . S
C2159 C2158 1.362 1_655 S
H2160 C2166 0.930 . S
H2161 C2169 0.930 . S
H2162 C2170 0.930 . S
H2163 C2171 0.930 . S
H2164 C2174 0.930 . S
H2165 C2175 0.930 . S
C2166 H2160 0.930 . S
C2166 C2167 1.355 . S
C2166 C2168 1.415 . S
C2167 C2166 1.355 . S
C2167 C2169 1.419 . S
C2168 C2166 1.415 . S
C2168 C2173 1.425 . S
C2168 C2175 1.409 . S
C2169 H2161 0.930 . S
C2169 C2167 1.419 . S
C2169 C2170 1.362 . S
C2170 H2162 0.930 . S
C2170 C2169 1.362 . S
C2170 C2173 1.409 . S
C2171 H2163 0.930 . S
C2171 C2172 1.355 . S
C2171 C2173 1.415 . S
C2172 C2171 1.355 . S
C2172 C2174 1.419 . S
C2173 C2168 1.425 . S
C2173 C2170 1.409 . S
C2173 C2171 1.415 . S
C2174 H2164 0.930 . S
C2174 C2172 1.419 . S
C2174 C2175 1.362 . S
C2175 H2165 0.930 . S
C2175 C2168 1.409 . S
C2175 C2174 1.362 . S
H2176 C2182 0.930 . S
H2177 C2185 0.930 . S
H2178 C2186 0.930 . S
H2179 C2187 0.930 . S
H2180 C2190 0.930 . S
H2181 C2191 0.930 . S
C2182 H2176 0.930 . S
C2182 C2183 1.355 . S
C2182 C2184 1.415 . S
C2183 C2182 1.355 . S
C2183 C2185 1.419 . S
C2184 C2182 1.415 . S
C2184 C2189 1.425 . S
C2184 C2191 1.409 . S
C2185 H2177 0.930 . S
C2185 C2183 1.419 . S
C2185 C2186 1.362 . S
C2186 H2178 0.930 . S
C2186 C2185 1.362 . S
C2186 C2189 1.409 . S
C2187 H2179 0.930 . S
C2187 C2188 1.355 . S
C2187 C2189 1.415 . S
C2188 C2187 1.355 . S
C2188 C2190 1.419 . S
C2189 C2184 1.425 . S
C2189 C2186 1.409 . S
C2189 C2187 1.415 . S
C2190 H2180 0.930 . S
C2190 C2188 1.419 . S
C2190 C2191 1.362 . S
C2191 H2181 0.930 . S
C2191 C2184 1.409 . S
C2191 C2190 1.362 . S
H2192 C2198 0.930 . S
H2193 C2201 0.930 . S
H2194 C2202 0.930 . S
H2195 C2203 0.930 . S
H2196 C2206 0.930 . S
H2197 C2207 0.930 . S
C2198 H2192 0.930 . S
C2198 C2199 1.355 . S
C2198 C2200 1.415 1_455 S
C2199 C2198 1.355 . S
C2199 C2201 1.419 . S
C2200 C2198 1.415 1_655 S
C2200 C2205 1.425 1_655 S
C2200 C2207 1.409 . S
C2201 H2193 0.930 . S
C2201 C2199 1.419 . S
C2201 C2202 1.362 . S
C2202 H2194 0.930 . S
C2202 C2201 1.362 . S
C2202 C2205 1.409 . S
C2203 H2195 0.930 . S
C2203 C2204 1.355 . S
C2203 C2205 1.415 1_655 S
C2204 C2203 1.355 . S
C2204 C2206 1.419 . S
C2205 C2200 1.425 1_455 S
C2205 C2202 1.409 . S
C2205 C2203 1.415 1_455 S
C2206 H2196 0.930 . S
C2206 C2204 1.419 . S
C2206 C2207 1.362 . S
C2207 H2197 0.930 . S
C2207 C2200 1.409 . S
C2207 C2206 1.362 . S
H2208 C2214 0.930 . S
H2209 C2217 0.930 . S
H2210 C2218 0.930 1_455 S
H2211 C2219 0.930 . S
H2212 C2222 0.930 . S
H2213 C2223 0.930 1_655 S
C2214 H2208 0.930 . S
C2214 C2215 1.355 . S
C2214 C2216 1.415 . S
C2215 C2214 1.355 . S
C2215 C2217 1.419 . S
C2216 C2214 1.415 . S
C2216 C2221 1.425 1_655 S
C2216 C2223 1.409 1_655 S
C2217 H2209 0.930 . S
C2217 C2215 1.419 . S
C2217 C2218 1.362 . S
C2218 H2210 0.930 1_655 S
C2218 C2217 1.362 . S
C2218 C2221 1.409 1_655 S
C2219 H2211 0.930 . S
C2219 C2220 1.355 . S
C2219 C2221 1.415 . S
C2220 C2219 1.355 . S
C2220 C2222 1.419 . S
C2221 C2216 1.425 1_455 S
C2221 C2218 1.409 1_455 S
C2221 C2219 1.415 . S
C2222 H2212 0.930 . S
C2222 C2220 1.419 . S
C2222 C2223 1.362 . S
C2223 H2213 0.930 1_455 S
C2223 C2216 1.409 1_455 S
C2223 C2222 1.362 . S
H2224 C2230 0.930 . S
H2225 C2233 0.930 . S
H2226 C2234 0.930 . S
H2227 C2235 0.930 . S
H2228 C2238 0.930 . S
H2229 C2239 0.930 . S
C2230 H2224 0.930 . S
C2230 C2231 1.355 . S
C2230 C2232 1.415 . S
C2231 C2230 1.355 . S
C2231 C2233 1.419 . S
C2232 C2230 1.415 . S
C2232 C2237 1.425 1_455 S
C2232 C2239 1.409 . S
C2233 H2225 0.930 . S
C2233 C2231 1.419 . S
C2233 C2234 1.362 1_455 S
C2234 H2226 0.930 . S
C2234 C2233 1.362 1_655 S
C2234 C2237 1.409 . S
C2235 H2227 0.930 . S
C2235 C2236 1.355 . S
C2235 C2237 1.415 . S
C2236 C2235 1.355 . S
C2236 C2238 1.419 . S
C2237 C2232 1.425 1_655 S
C2237 C2234 1.409 . S
C2237 C2235 1.415 . S
C2238 H2228 0.930 . S
C2238 C2236 1.419 . S
C2238 C2239 1.362 1_655 S
C2239 H2229 0.930 . S
C2239 C2232 1.409 . S
C2239 C2238 1.362 1_455 S
H2240 C2246 0.930 . S
H2241 C2249 0.930 . S
H2242 C2250 0.930 . S
H2243 C2251 0.930 . S
H2244 C2254 0.930 . S
H2245 C2255 0.930 . S
C2246 H2240 0.930 . S
C2246 C2247 1.355 . S
C2246 C2248 1.415 . S
C2247 C2246 1.355 . S
C2247 C2249 1.419 . S
C2248 C2246 1.415 . S
C2248 C2253 1.425 . S
C2248 C2255 1.409 . S
C2249 H2241 0.930 . S
C2249 C2247 1.419 . S
C2249 C2250 1.362 . S
C2250 H2242 0.930 . S
C2250 C2249 1.362 . S
C2250 C2253 1.409 . S
C2251 H2243 0.930 . S
C2251 C2252 1.355 . S
C2251 C2253 1.415 . S
C2252 C2251 1.355 . S
C2252 C2254 1.419 . S
C2253 C2248 1.425 . S
C2253 C2250 1.409 . S
C2253 C2251 1.415 . S
C2254 H2244 0.930 . S
C2254 C2252 1.419 . S
C2254 C2255 1.362 . S
C2255 H2245 0.930 . S
C2255 C2248 1.409 . S
C2255 C2254 1.362 . S
H2256 C2262 0.930 . S
H2257 C2265 0.930 . S
H2258 C2266 0.930 . S
H2259 C2267 0.930 . S
H2260 C2270 0.930 . S
H2261 C2271 0.930 . S
C2262 H2256 0.930 . S
C2262 C2263 1.355 . S
C2262 C2264 1.415 . S
C2263 C2262 1.355 . S
C2263 C2265 1.419 . S
C2264 C2262 1.415 . S
C2264 C2269 1.425 . S
C2264 C2271 1.409 . S
C2265 H2257 0.930 . S
C2265 C2263 1.419 . S
C2265 C2266 1.362 . S
C2266 H2258 0.930 . S
C2266 C2265 1.362 . S
C2266 C2269 1.409 . S
C2267 H2259 0.930 . S
C2267 C2268 1.355 . S
C2267 C2269 1.415 . S
C2268 C2267 1.355 . S
C2268 C2270 1.419 . S
C2269 C2264 1.425 . S
C2269 C2266 1.409 . S
C2269 C2267 1.415 . S
C2270 H2260 0.930 . S
C2270 C2268 1.419 . S
C2270 C2271 1.362 . S
C2271 H2261 0.930 . S
C2271 C2264 1.409 . S
C2271 C2270 1.362 . S
H2272 C2278 0.930 . S
H2273 C2281 0.934 . S
H2274 C2282 0.930 . S
H2275 C2283 0.930 . S
H2276 C2286 0.934 . S
H2277 C2287 0.930 . S
C2278 H2272 0.930 . S
C2278 C2279 1.355 . S
C2278 C2280 1.415 . S
C2279 C2278 1.355 . S
C2279 C2281 1.419 . S
C2280 C2278 1.415 . S
C2280 C2285 1.425 1_655 S
C2280 C2287 1.409 . S
C2281 H2273 0.934 . S
C2281 C2279 1.419 . S
C2281 C2282 1.362 1_655 S
C2282 H2274 0.930 . S
C2282 C2281 1.362 1_455 S
C2282 C2285 1.409 . S
C2283 H2275 0.930 . S
C2283 C2284 1.355 . S
C2283 C2285 1.415 . S
C2284 C2283 1.355 . S
C2284 C2286 1.419 . S
C2285 C2280 1.425 1_455 S
C2285 C2282 1.409 . S
C2285 C2283 1.415 . S
C2286 H2276 0.934 . S
C2286 C2284 1.419 . S
C2286 C2287 1.362 1_455 S
C2287 H2277 0.930 . S
C2287 C2280 1.409 . S
C2287 C2286 1.362 1_655 S
H2288 C2294 0.930 . S
H2289 C2297 0.930 . S
H2290 C2298 0.930 . S
H2291 C2299 0.930 . S
H2292 C2302 0.930 . S
H2293 C2303 0.930 . S
C2294 H2288 0.930 . S
C2294 C2295 1.355 . S
C2294 C2296 1.415 . S
C2295 C2294 1.355 . S
C2295 C2297 1.419 . S
C2296 C2294 1.415 . S
C2296 C2301 1.425 . S
C2296 C2303 1.409 . S
C2297 H2289 0.930 . S
C2297 C2295 1.419 . S
C2297 C2298 1.362 . S
C2298 H2290 0.930 . S
C2298 C2297 1.362 . S
C2298 C2301 1.409 . S
C2299 H2291 0.930 . S
C2299 C2300 1.355 . S
C2299 C2301 1.415 . S
C2300 C2299 1.355 . S
C2300 C2302 1.419 . S
C2301 C2296 1.425 . S
C2301 C2298 1.409 . S
C2301 C2299 1.415 . S
C2302 H2292 0.930 . S
C2302 C2300 1.419 . S
C2302 C2303 1.362 . S
C2303 H2293 0.930 . S
C2303 C2296 1.409 . S
C2303 C2302 1.362 . S
H2304 C2310 0.930 . S
H2305 C2313 0.930 . S
H2306 C2314 0.930 . S
H2307 C2315 0.930 . S
H2308 C2318 0.930 . S
H2309 C2319 0.930 . S
C2310 H2304 0.930 . S
C2310 C2311 1.355 . S
C2310 C2312 1.415 . S
C2311 C2310 1.355 . S
C2311 C2313 1.419 . S
C2312 C2310 1.415 . S
C2312 C2317 1.425 . S
C2312 C2319 1.409 . S
C2313 H2305 0.930 . S
C2313 C2311 1.419 . S
C2313 C2314 1.362 . S
C2314 H2306 0.930 . S
C2314 C2313 1.362 . S
C2314 C2317 1.409 . S
C2315 H2307 0.930 . S
C2315 C2316 1.355 . S
C2315 C2317 1.415 . S
C2316 C2315 1.355 . S
C2316 C2318 1.419 . S
C2317 C2312 1.425 . S
C2317 C2314 1.409 . S
C2317 C2315 1.415 . S
C2318 H2308 0.930 . S
C2318 C2316 1.419 . S
C2318 C2319 1.362 . S
C2319 H2309 0.930 . S
C2319 C2312 1.409 . S
C2319 C2318 1.362 . S
H2320 C2326 0.930 . S
H2321 C2329 0.930 . S
H2322 C2330 0.930 . S
H2323 C2331 0.930 . S
H2324 C2334 0.930 . S
H2325 C2335 0.930 . S
C2326 H2320 0.930 . S
C2326 C2327 1.355 . S
C2326 C2328 1.415 . S
C2327 C2326 1.355 . S
C2327 C2329 1.419 . S
C2328 C2326 1.415 . S
C2328 C2333 1.425 1_655 S
C2328 C2335 1.409 . S
C2329 H2321 0.930 . S
C2329 C2327 1.419 . S
C2329 C2330 1.362 1_655 S
C2330 H2322 0.930 . S
C2330 C2329 1.362 1_455 S
C2330 C2333 1.409 . S
C2331 H2323 0.930 . S
C2331 C2332 1.355 . S
C2331 C2333 1.415 . S
C2332 C2331 1.355 . S
C2332 C2334 1.419 . S
C2333 C2328 1.425 1_455 S
C2333 C2330 1.409 . S
C2333 C2331 1.415 . S
C2334 H2324 0.930 . S
C2334 C2332 1.419 . S
C2334 C2335 1.362 1_455 S
C2335 H2325 0.930 . S
C2335 C2328 1.409 . S
C2335 C2334 1.362 1_655 S
C1063 C912 0.739 . S
C1068 C7 0.607 . S
C1079 C285 0.694 . S
C1084 C40 0.700 . S
C1095 C846 0.699 . S
C1100 C73 0.642 . S
C1111 C106 0.754 . S
C1116 C351 0.608 . S
C1127 C978 0.614 . S
C1132 C139 0.758 . S
C1143 C483 0.620 . S
C1148 C172 0.756 . S
C1159 C205 0.606 . S
C1164 C1044 0.740 . S
C1175 C238 0.646 . S
C1180 C417 0.736 . S
C1191 C648 0.608 . S
C1196 C271 0.756 . S
C1207 C21 0.623 . S
C1212 C304 0.727 . S
C1223 C337 0.756 . S
C1228 C582 0.609 . S
C1239 C370 0.615 . S
C1244 C87 0.750 . S
C1255 C403 0.734 . S
C1260 C714 0.657 . S
C1271 C436 0.706 . S
C1276 C219 0.688 . S
C1287 C780 0.737 . S
C1292 C469 0.644 . S
C1303 C153 0.608 . S
C1308 C502 0.751 . S
C1319 C384 0.609 . S
C1324 C535 0.748 . S
C1335 C568 0.642 . S
C1340 C813 0.738 . S
C1351 C318 0.625 . S
C1356 C601 0.754 . S
C1367 C634 0.683 . S
C1372 C879 0.660 . S
C1383 C450 0.730 . S
C1388 C667 0.613 . S
C1399 C1011 0.625 . S
C1404 C700 0.754 . S
C1415 C516 0.651 . S
C1420 C733 0.694 . S
C1431 C766 0.665 . S
C1436 C945 0.723 . S
C1447 C799 0.625 . S
C1452 C120 0.746 . S
C1463 C549 0.674 . S
C1468 C832 0.668 . S
C1479 C54 0.614 . S
C1484 C865 0.758 . S
C1495 C898 0.605 . S
C1500 C615 0.742 . S
C1511 C931 0.605 . S
C1516 C186 0.750 . S
C1527 C964 0.669 . S
C1532 C747 0.673 . S
C1543 C252 0.610 . S
C1548 C997 0.747 . S
C1559 C1030 0.662 . S
C1564 C681 0.680 . S
C1575 N13 1.576 1_565 S
C1580 N178 1.561 . S
C1591 N211 1.555 1_565 S
C1596 N46 1.507 . S
C1607 N244 1.492 . S
C1612 N79 1.524 1_545 S
C1623 N112 1.519 . S
C1628 N145 1.565 1_545 S
C1639 N277 1.553 1_545 S
C1644 N442 1.505 . S
C1655 N310 1.546 . S
C1660 N475 1.500 . S
C1671 N343 1.563 . S
C1676 N508 1.576 . S
C1687 N376 1.571 . S
C1692 N409 1.528 . S
C1703 N706 1.555 . S
C1708 N541 1.578 . S
C1719 N574 1.536 . S
C1724 N739 1.493 . S
C1735 N607 1.543 . S
C1740 N772 1.576 . S
C1751 N673 1.501 . S
C1756 N640 1.548 . S
C1767 N970 1.505 . S
C1772 N805 1.489 . S
C1783 N1003 1.570 . S
C1788 N838 1.572 . S
C1799 N1036 1.535 . S
C1804 N871 1.574 . S
C1815 N937 1.500 . S
C1820 N904 1.547 . S
C1831 C18 1.217 . S
C1836 C150 1.233 . S
C1847 C51 1.277 . S
C1852 C183 1.282 . S
C1863 C216 1.283 . S
C1868 C84 1.267 . S
C1879 C249 1.246 . S
C1884 C117 1.274 . S
C1895 C282 1.281 . S
C1900 C414 1.258 . S
C1911 C447 1.240 . S
C1916 C315 1.218 . S
C1927 C348 1.250 . S
C1932 C480 1.276 . S
C1943 C513 1.273 . S
C1948 C381 1.283 . S
C1959 C546 1.220 . S
C1964 C678 1.244 . S
C1975 C579 1.267 . S
C1980 C711 1.283 . S
C1991 C612 1.217 . S
C1996 C744 1.232 . S
C2007 C645 1.216 . S
C2012 C777 1.229 . S
C2023 C942 1.234 . S
C2028 C810 1.264 . S
C2039 C843 1.283 . S
C2044 C975 1.276 . S
C2055 C876 1.230 . S
C2060 C1008 1.259 . S
C2071 C909 1.245 . S
C2076 C1041 1.273 . S
C2087 N2 1.245 . S
C2092 N596 1.245 . S
C2103 N629 1.288 . S
C2108 N35 1.288 . S
C2119 N68 1.286 . S
C2124 N530 1.287 . S
C2135 N101 1.261 . S
C2140 N563 1.260 . S
C2151 N728 1.245 . S
C2156 N134 1.245 . S
C2167 N761 1.287 . S
C2172 N167 1.288 . S
C2183 N200 1.260 . S
C2188 N662 1.259 . S
C2199 N233 1.247 . S
C2204 N695 1.246 . S
C2215 N266 1.258 . S
C2220 N860 1.256 . S
C2231 N893 1.288 . S
C2236 N299 1.288 . S
C2247 N794 1.250 . S
C2252 N332 1.249 . S
C2263 N365 1.287 . S
C2268 N827 1.287 . S
C2279 N398 1.245 . S
C2284 N992 1.245 . S
C2295 N431 1.245 . S
C2300 N1025 1.246 . S
C2311 N464 1.264 . S
C2316 N926 1.265 . S
C2327 N497 1.284 . S
C2332 N959 1.282 . S
