# Generated by pormake.
# Topology wkc, (5)-cn, num edge types: 1
# Building blocks:
#     Node 0, Type 0, BuildingBlock: BEQFEK_clean_sbu_0, # of connection points: 5
#     Node 1, Type 0, BuildingBlock: BEQFEK_clean_sbu_0, # of connection points: 5
#     Node 2, Type 0, BuildingBlock: BEQFEK_clean_sbu_0, # of connection points: 5
#     Node 3, Type 0, BuildingBlock: BEQFEK_clean_sbu_0, # of connection points: 5
#     Node 4, Type 0, BuildingBlock: BEQFEK_clean_sbu_0, # of connection points: 5
#     Node 5, Type 0, BuildingBlock: BEQFEK_clean_sbu_0, # of connection points: 5
#     Node 6, Type 0, BuildingBlock: BEQFEK_clean_sbu_0, # of connection points: 5
#     Node 7, Type 0, BuildingBlock: BEQFEK_clean_sbu_0, # of connection points: 5
#     Node 8, Type 0, BuildingBlock: BEQFEK_clean_sbu_0, # of connection points: 5
#     Node 9, Type 0, BuildingBlock: BEQFEK_clean_sbu_0, # of connection points: 5
#     Node 10, Type 0, BuildingBlock: BEQFEK_clean_sbu_0, # of connection points: 5
#     Node 11, Type 0, BuildingBlock: BEQFEK_clean_sbu_0, # of connection points: 5
#     Edge 12, Type (0, 0), BuildingBlock: OJICUG_clean_linker_0, # of connection points: 2
#     Edge 13, Type (0, 0), BuildingBlock: OJICUG_clean_linker_0, # of connection points: 2
#     Edge 14, Type (0, 0), BuildingBlock: OJICUG_clean_linker_0, # of connection points: 2
#     Edge 15, Type (0, 0), BuildingBlock: OJICUG_clean_linker_0, # of connection points: 2
#     Edge 16, Type (0, 0), BuildingBlock: OJICUG_clean_linker_0, # of connection points: 2
#     Edge 17, Type (0, 0), BuildingBlock: OJICUG_clean_linker_0, # of connection points: 2
#     Edge 18, Type (0, 0), BuildingBlock: OJICUG_clean_linker_0, # of connection points: 2
#     Edge 19, Type (0, 0), BuildingBlock: OJICUG_clean_linker_0, # of connection points: 2
#     Edge 20, Type (0, 0), BuildingBlock: OJICUG_clean_linker_0, # of connection points: 2
#     Edge 21, Type (0, 0), BuildingBlock: OJICUG_clean_linker_0, # of connection points: 2
#     Edge 22, Type (0, 0), BuildingBlock: OJICUG_clean_linker_0, # of connection points: 2
#     Edge 23, Type (0, 0), BuildingBlock: OJICUG_clean_linker_0, # of connection points: 2
#     Edge 24, Type (0, 0), BuildingBlock: OJICUG_clean_linker_0, # of connection points: 2
#     Edge 25, Type (0, 0), BuildingBlock: OJICUG_clean_linker_0, # of connection points: 2
#     Edge 26, Type (0, 0), BuildingBlock: OJICUG_clean_linker_0, # of connection points: 2
#     Edge 27, Type (0, 0), BuildingBlock: OJICUG_clean_linker_0, # of connection points: 2
#     Edge 28, Type (0, 0), BuildingBlock: OJICUG_clean_linker_0, # of connection points: 2
#     Edge 29, Type (0, 0), BuildingBlock: OJICUG_clean_linker_0, # of connection points: 2
#     Edge 30, Type (0, 0), BuildingBlock: OJICUG_clean_linker_0, # of connection points: 2
#     Edge 31, Type (0, 0), BuildingBlock: OJICUG_clean_linker_0, # of connection points: 2
#     Edge 32, Type (0, 0), BuildingBlock: OJICUG_clean_linker_0, # of connection points: 2
#     Edge 33, Type (0, 0), BuildingBlock: OJICUG_clean_linker_0, # of connection points: 2
#     Edge 34, Type (0, 0), BuildingBlock: OJICUG_clean_linker_0, # of connection points: 2
#     Edge 35, Type (0, 0), BuildingBlock: OJICUG_clean_linker_0, # of connection points: 2
#     Edge 36, Type (0, 0), BuildingBlock: OJICUG_clean_linker_0, # of connection points: 2
#     Edge 37, Type (0, 0), BuildingBlock: OJICUG_clean_linker_0, # of connection points: 2
#     Edge 38, Type (0, 0), BuildingBlock: OJICUG_clean_linker_0, # of connection points: 2
#     Edge 39, Type (0, 0), BuildingBlock: OJICUG_clean_linker_0, # of connection points: 2
#     Edge 40, Type (0, 0), BuildingBlock: OJICUG_clean_linker_0, # of connection points: 2
#     Edge 41, Type (0, 0), BuildingBlock: OJICUG_clean_linker_0, # of connection points: 2
# Relax obj value: 0.265
# Max RMSD: 0.181
# Mean RMSD: 0.181
data_MOF--net-wkc--node1-BEQFEK_clean_sbu_0--edge1-OJICUG_clean_linker_0
_symmetry_space_group_name_H-M    P1
_symmetry_Int_Tables_number       1
_symmetry_cell_setting            triclinic
loop_
_symmetry_equiv_pos_as_xyz
'x, y, z'
_cell_length_a     31.525305
_cell_length_b     31.637163
_cell_length_c     32.175644
_cell_angle_alpha  89.968995
_cell_angle_beta   90.017536
_cell_angle_gamma 119.86972
loop_
_atom_site_label
_atom_site_type_symbol
_atom_site_fract_x
_atom_site_fract_y
_atom_site_fract_z
_atom_type_partial_charge
Co0 Co 0.25903 0.33082 1.00345 0.0
Co1 Co 0.25615 0.41349 0.05532 0.0
C2 C 0.16433 0.32808 0.02467 0.0
O3 O 0.18674 0.30775 0.00869 0.0
O4 O 0.18731 0.36955 0.04196 0.0
C5 C 0.24054 0.25276 0.94139 0.0
O6 O 0.19321 0.2341 0.94656 0.0
C7 C 0.23942 0.49437 0.07305 0.0
C8 C 0.29496 0.53445 0.12144 0.0
C9 C 0.26017 0.53665 0.09665 0.0
N10 N 0.26214 0.46929 0.08249 0.0
N11 N 0.29452 0.4928 0.11207 0.0
C12 C 0.19873 0.47761 0.04203 0.0
H13 H 0.1711 0.43908 0.04821 0.0
H14 H 0.21343 0.47966 0.01031 0.0
H15 H 0.1802 0.49954 0.04361 0.0
C16 C 0.33659 0.41836 0.95953 0.0
N17 N 0.29908 0.39754 0.98681 0.0
N18 N 0.29745 0.43211 0.00818 0.0
C19 C 0.33321 0.47593 0.99471 0.0
C20 C 0.35969 0.46878 0.96376 0.0
C21 C 0.35388 0.39029 0.93419 0.0
H22 H 0.35862 0.3648 0.95476 0.0
H23 H 0.32569 0.36855 0.91059 0.0
H24 H 0.3891 0.41438 0.9184 0.0
O25 O 0.28166 0.32294 0.05934 0.0
O26 O 0.27622 0.37998 0.09558 0.0
H27 H 0.35661 0.52863 0.04357 0.0
H28 H 0.36846 0.55485 0.99204 0.0
C29 C 0.34219 0.52384 0.01145 0.0
H30 H 0.30736 0.52434 0.01216 0.0
H31 H 0.31773 0.48143 0.12461 0.0
O32 O 0.27031 0.28992 0.96244 0.0
C33 C 0.28541 0.34517 0.09345 0.0
Co34 Co 0.9259 0.26172 0.16914 0.0
Co35 Co 0.84275 0.26655 0.21889 0.0
C36 C 0.83084 0.17125 0.19497 0.0
O37 O 0.87322 0.1909 0.17821 0.0
O38 O 0.81408 0.19711 0.20987 0.0
C39 C 0.97417 0.25754 0.09173 0.0
O40 O 0.9345 0.25024 0.07219 0.0
C41 C 0.74793 0.25756 0.23717 0.0
C42 C 0.76855 0.31735 0.28231 0.0
C43 C 0.7295 0.28219 0.25965 0.0
N44 N 0.79586 0.27792 0.24561 0.0
N45 N 0.80772 0.31272 0.27344 0.0
C46 C 0.7224 0.22007 0.204 0.0
H47 H 0.74928 0.21917 0.18231 0.0
H48 H 0.69675 0.22777 0.18633 0.0
H49 H 0.70099 0.1837 0.21876 0.0
C50 C 0.9201 0.34165 0.12161 0.0
N51 N 0.90271 0.30455 0.14948 0.0
N52 N 0.86569 0.30355 0.16937 0.0
C53 C 0.85716 0.33818 0.15376 0.0
C54 C 0.89164 0.36397 0.12344 0.0
C55 C 0.9672 0.36048 0.09837 0.0
H56 H 0.99238 0.35142 0.11509 0.0
H57 H 0.95953 0.34374 0.06702 0.0
H58 H 0.98513 0.40059 0.09428 0.0
O59 O 0.95739 0.28616 0.22422 0.0
O60 O 0.89644 0.28613 0.25896 0.0
H61 H 0.82494 0.36286 0.19931 0.0
H62 H 0.8117 0.37144 0.1464 0.0
C63 C 0.81678 0.34679 0.16772 0.0
H64 H 0.78204 0.31178 0.16842 0.0
H65 H 0.84311 0.33503 0.28466 0.0
O66 O 0.977 0.26294 0.13106 0.0
C67 C 0.93964 0.29277 0.2576 0.0
Co68 Co 0.65701 0.92252 0.33682 0.0
Co69 Co 0.5753 0.8398 0.39165 0.0
C70 C 0.66354 0.8353 0.3619 0.0
O71 O 0.68331 0.87614 0.34284 0.0
O72 O 0.62244 0.81876 0.37985 0.0
C73 C 0.73336 0.98426 0.27444 0.0
O74 O 0.75159 0.955 0.27728 0.0
C75 C 0.49176 0.74286 0.40009 0.0
C76 C 0.46074 0.74667 0.46064 0.0
C77 C 0.45276 0.71651 0.42676 0.0
N78 N 0.5206 0.78685 0.41697 0.0
N79 N 0.50237 0.78879 0.45342 0.0
C80 C 0.50247 0.72677 0.35958 0.0
H81 H 0.48551 0.73647 0.33382 0.0
H82 H 0.48758 0.68674 0.35936 0.0
H83 H 0.5424 0.74565 0.35385 0.0
C84 C 0.56756 0.90322 0.28861 0.0
N85 N 0.58982 0.89222 0.31926 0.0
N86 N 0.55599 0.86016 0.34414 0.0
C87 C 0.51158 0.85095 0.33112 0.0
C88 C 0.51721 0.87728 0.29513 0.0
C89 C 0.59408 0.93907 0.25464 0.0
H90 H 0.62525 0.93511 0.24362 0.0
H91 H 0.56941 0.9338 0.22812 0.0
H92 H 0.60865 0.97649 0.26705 0.0
O93 O 0.66316 0.95285 0.39316 0.0
O94 O 0.60562 0.89283 0.43121 0.0
H95 H 0.43968 0.83739 0.34906 0.0
H96 H 0.44737 0.78485 0.34918 0.0
C97 C 0.46563 0.82433 0.3563 0.0
H98 H 0.47423 0.82983 0.3899 0.0
H99 H 0.51759 0.8193 0.47277 0.0
O100 O 0.69671 0.97637 0.2967 0.0
C101 C 0.64082 0.93626 0.42768 0.0
Co102 Co 0.73169 0.66071 0.50631 0.0
Co103 Co 0.73354 0.57712 0.55784 0.0
C104 C 0.82609 0.66407 0.53099 0.0
O105 O 0.80403 0.68446 0.5143 0.0
O106 O 0.80252 0.62173 0.5468 0.0
C107 C 0.75212 0.73962 0.44429 0.0
O108 O 0.79927 0.75873 0.45095 0.0
C109 C 0.75031 0.49661 0.57737 0.0
C110 C 0.69059 0.45378 0.6218 0.0
C111 C 0.72789 0.45324 0.59947 0.0
N112 N 0.72627 0.52078 0.58517 0.0
N113 N 0.69136 0.49562 0.6125 0.0
C114 C 0.79385 0.51532 0.54928 0.0
H115 H 0.82127 0.55269 0.55902 0.0
H116 H 0.78277 0.51737 0.51694 0.0
H117 H 0.81129 0.49236 0.55051 0.0
C118 C 0.65695 0.57343 0.45983 0.0
N119 N 0.6931 0.59421 0.48835 0.0
N120 N 0.69522 0.55953 0.50913 0.0
C121 C 0.66169 0.5158 0.49375 0.0
C122 C 0.63566 0.52296 0.46238 0.0
C123 C 0.63901 0.6012 0.4348 0.0
H124 H 0.63482 0.62702 0.45535 0.0
H125 H 0.66655 0.62253 0.41061 0.0
H126 H 0.60338 0.57688 0.4197 0.0
O127 O 0.70638 0.66725 0.56133 0.0
O128 O 0.71137 0.60964 0.5971 0.0
H129 H 0.63731 0.45959 0.5397 0.0
H130 H 0.63203 0.43783 0.48698 0.0
C131 C 0.65484 0.46795 0.50863 0.0
H132 H 0.69084 0.47013 0.51114 0.0
H133 H 0.66663 0.50595 0.62332 0.0
O134 O 0.7218 0.70201 0.4646 0.0
C135 C 0.70178 0.64418 0.59514 0.0
Co136 Co 0.07049 0.72848 0.67209 0.0
Co137 Co 0.1511 0.72481 0.72695 0.0
C138 C 0.16329 0.81955 0.69775 0.0
O139 O 0.12178 0.79982 0.67944 0.0
O140 O 0.17885 0.79386 0.7152 0.0
C141 C 0.01025 0.75106 0.61358 0.0
O142 O 0.03374 0.79664 0.62606 0.0
C143 C 0.24578 0.73522 0.74697 0.0
C144 C 0.22625 0.67966 0.79608 0.0
C145 C 0.26474 0.71263 0.77156 0.0
N146 N 0.19813 0.71582 0.75606 0.0
N147 N 0.18691 0.6836 0.7862 0.0
C148 C 0.27031 0.76934 0.71136 0.0
H149 H 0.24277 0.76872 0.68951 0.0
H150 H 0.29483 0.75946 0.69447 0.0
H151 H 0.2928 0.80692 0.72358 0.0
C152 C 0.08146 0.65192 0.62644 0.0
N153 N 0.0961 0.68698 0.65583 0.0
N154 N 0.13019 0.68596 0.67865 0.0
C155 C 0.13882 0.65089 0.66426 0.0
C156 C 0.1079 0.62771 0.63092 0.0
C157 C 0.03903 0.63828 0.59805 0.0
H158 H 0.00688 0.63221 0.6167 0.0
H159 H 0.04818 0.66886 0.57628 0.0
H160 H 0.02929 0.60477 0.58008 0.0
O161 O 0.03679 0.70575 0.72703 0.0
O162 O 0.09612 0.70634 0.76495 0.0
H163 H 0.16635 0.62687 0.71437 0.0
H164 H 0.18018 0.6126 0.66351 0.0
C165 C 0.17631 0.64002 0.68196 0.0
H166 H 0.21232 0.67371 0.68207 0.0
H167 H 0.15179 0.66237 0.79835 0.0
O168 O 0.02071 0.72046 0.62939 0.0
C169 C 0.05315 0.70003 0.76165 0.0
Co170 Co 0.33631 0.06867 0.83782 0.0
Co171 Co 0.41803 0.15103 0.89283 0.0
C172 C 0.33038 0.15628 0.86228 0.0
O173 O 0.31056 0.11551 0.84316 0.0
O174 O 0.37121 0.17245 0.88064 0.0
C175 C 0.26067 0.00736 0.77479 0.0
O176 O 0.24291 0.03706 0.77675 0.0
C177 C 0.5016 0.24787 0.9019 0.0
C178 C 0.53279 0.24311 0.96208 0.0
C179 C 0.54069 0.27382 0.9286 0.0
N180 N 0.47282 0.20362 0.91838 0.0
N181 N 0.49116 0.2011 0.9546 0.0
C182 C 0.49074 0.26454 0.86173 0.0
H183 H 0.45085 0.24539 0.85586 0.0
H184 H 0.50806 0.25567 0.83573 0.0
H185 H 0.50514 0.30449 0.86212 0.0
C186 C 0.42575 0.08741 0.78999 0.0
N187 N 0.40353 0.09849 0.82059 0.0
N188 N 0.43738 0.13049 0.84548 0.0
C189 C 0.48176 0.13964 0.83247 0.0
C190 C 0.47607 0.11324 0.79654 0.0
C191 C 0.39924 0.05173 0.75594 0.0
H192 H 0.36816 0.05583 0.74489 0.0
H193 H 0.42393 0.05703 0.72945 0.0
H194 H 0.38458 0.01426 0.76829 0.0
O195 O 0.32944 0.03836 0.89431 0.0
O196 O 0.3872 0.09807 0.93239 0.0
H197 H 0.55411 0.15406 0.84993 0.0
H198 H 0.54553 0.20608 0.85051 0.0
C199 C 0.52781 0.16659 0.85747 0.0
H200 H 0.51941 0.1608 0.89109 0.0
H201 H 0.47601 0.17029 0.97362 0.0
O202 O 0.2967 0.01489 0.79776 0.0
C203 C 0.35169 0.05482 0.92887 0.0
Co204 Co 0.6598 0.72972 0.83471 0.0
Co205 Co 0.57222 0.72542 0.78465 0.0
C206 C 0.65583 0.82048 0.80859 0.0
O207 O 0.67836 0.80066 0.82545 0.0
O208 O 0.61321 0.79479 0.79368 0.0
C209 C 0.71158 0.73352 0.91242 0.0
O210 O 0.67903 0.74073 0.93172 0.0
C211 C 0.48676 0.73494 0.76612 0.0
C212 C 0.44742 0.67514 0.72103 0.0
C213 C 0.44368 0.71041 0.74365 0.0
N214 N 0.51418 0.71439 0.75774 0.0
N215 N 0.49115 0.6796 0.72991 0.0
C216 C 0.49883 0.77247 0.79928 0.0
H217 H 0.52657 0.77328 0.82099 0.0
H218 H 0.46554 0.76489 0.81694 0.0
H219 H 0.51388 0.80884 0.78451 0.0
C220 C 0.57367 0.65008 0.88207 0.0
N221 N 0.59364 0.68716 0.85419 0.0
N222 N 0.5578 0.68842 0.8342 0.0
C223 C 0.51453 0.65403 0.84978 0.0
C224 C 0.52293 0.6281 0.88019 0.0
C225 C 0.6016 0.6309 0.90537 0.0
H226 H 0.63597 0.64 0.88888 0.0
H227 H 0.61035 0.64728 0.93685 0.0
H228 H 0.57928 0.59075 0.90915 0.0
O229 O 0.66692 0.70518 0.7797 0.0
O230 O 0.6063 0.70563 0.74475 0.0
H231 H 0.45776 0.62974 0.80411 0.0
H232 H 0.43584 0.62122 0.85698 0.0
C233 C 0.46569 0.64577 0.83572 0.0
H234 H 0.46621 0.68091 0.83503 0.0
H235 H 0.5041 0.65716 0.71874 0.0
O236 O 0.70937 0.72828 0.87308 0.0
C237 C 0.64273 0.69876 0.74624 0.0
Co238 Co 0.9238 0.66133 1.00099 0.0
Co239 Co 0.8389 0.57839 0.9488 0.0
C240 C 0.83113 0.66286 0.97963 0.0
O241 O 0.87392 0.68355 0.99553 0.0
O242 O 0.81294 0.62139 0.96238 0.0
C243 C 0.98286 0.74039 0.06246 0.0
O244 O 0.95533 0.75997 0.05529 0.0
C245 C 0.74202 0.49678 0.9306 0.0
C246 C 0.75853 0.457 0.88268 0.0
C247 C 0.72117 0.45432 0.90725 0.0
N248 N 0.78982 0.52242 0.9213 0.0
N249 N 0.79929 0.4991 0.89196 0.0
C250 C 0.7175 0.51314 0.96136 0.0
H251 H 0.72742 0.55132 0.95467 0.0
H252 H 0.73063 0.51205 0.99313 0.0
H253 H 0.6771 0.49038 0.96001 0.0
C254 C 0.91486 0.57389 0.04445 0.0
N255 N 0.89786 0.59457 0.01731 0.0
N256 N 0.86181 0.55989 0.99588 0.0
C257 C 0.85414 0.51616 0.00921 0.0
C258 C 0.88792 0.52348 0.04009 0.0
C259 C 0.96006 0.60213 0.06995 0.0
H260 H 0.98998 0.6288 0.04978 0.0
H261 H 0.95278 0.62253 0.0943 0.0
H262 H 0.97207 0.57825 0.08487 0.0
O263 O 0.95484 0.66991 0.94528 0.0
O264 O 0.89263 0.6128 0.90883 0.0
H265 H 0.82499 0.46327 0.96049 0.0
H266 H 0.81067 0.43724 0.01208 0.0
C267 C 0.81531 0.46815 0.99256 0.0
H268 H 0.77995 0.46753 0.9918 0.0
H269 H 0.83403 0.51086 0.87962 0.0
O270 O 0.97513 0.70237 0.04262 0.0
C271 C 0.93651 0.64781 0.91108 0.0
Co272 Co 0.262 0.92281 0.16767 0.0
Co273 Co 0.25973 0.83957 0.11284 0.0
C274 C 0.16769 0.83582 0.14344 0.0
O275 O 0.18924 0.87678 0.16224 0.0
O276 O 0.19175 0.81888 0.12525 0.0
C277 C 0.24853 0.98459 0.2307 0.0
O278 O 0.20103 0.95507 0.22888 0.0
C279 C 0.24532 0.74226 0.10331 0.0
C280 C 0.28093 0.74701 0.04297 0.0
C281 C 0.25803 0.71618 0.07635 0.0
N282 N 0.26115 0.78669 0.08706 0.0
N283 N 0.28177 0.78919 0.05073 0.0
C284 C 0.21785 0.72557 0.14349 0.0
H285 H 0.24406 0.73432 0.16946 0.0
H286 H 0.19221 0.68565 0.14305 0.0
H287 H 0.19722 0.74483 0.14943 0.0
C288 C 0.33247 0.90338 0.21513 0.0
N289 N 0.29878 0.89227 0.18485 0.0
N290 N 0.2999 0.8598 0.16007 0.0
C291 C 0.33502 0.85033 0.17283 0.0
C292 C 0.35648 0.87708 0.20848 0.0
C293 C 0.34253 0.93963 0.24889 0.0
H294 H 0.30766 0.93589 0.26038 0.0
H295 H 0.36236 0.93458 0.27519 0.0
H296 H 0.3652 0.97689 0.23609 0.0
O297 O 0.28577 0.95303 0.11126 0.0
O298 O 0.2823 0.89257 0.07324 0.0
H299 H 0.39216 0.83486 0.155 0.0
H300 H 0.33122 0.78338 0.15479 0.0
C301 C 0.35337 0.82281 0.14772 0.0
H302 H 0.35057 0.82856 0.11412 0.0
H303 H 0.29761 0.8201 0.03184 0.0
O304 O 0.27679 0.9768 0.20769 0.0
C305 C 0.29096 0.93615 0.0767 0.0
Co306 Co 0.33813 0.26413 0.33254 0.0
Co307 Co 0.42235 0.26752 0.27782 0.0
C308 C 0.33977 0.1729 0.30697 0.0
O309 O 0.31805 0.19277 0.32517 0.0
O310 O 0.38105 0.19847 0.28956 0.0
C311 C 0.25527 0.24154 0.3909 0.0
O312 O 0.23319 0.19601 0.37831 0.0
C313 C 0.50666 0.25723 0.25744 0.0
C314 C 0.54255 0.31314 0.20857 0.0
C315 C 0.54817 0.28003 0.23282 0.0
N316 N 0.47836 0.27666 0.24862 0.0
N317 N 0.49928 0.30909 0.21862 0.0
C318 C 0.49716 0.22283 0.29282 0.0
H319 H 0.47025 0.22325 0.31478 0.0
H320 H 0.53159 0.23262 0.30963 0.0
H321 H 0.48212 0.18537 0.28036 0.0
C322 C 0.42565 0.34071 0.37812 0.0
N323 N 0.40521 0.30553 0.34884 0.0
N324 N 0.44029 0.30635 0.32614 0.0
C325 C 0.484 0.34137 0.34053 0.0
C326 C 0.47631 0.36478 0.3737 0.0
C327 C 0.39692 0.35462 0.40632 0.0
H328 H 0.37074 0.36045 0.38757 0.0
H329 H 0.37562 0.32426 0.42831 0.0
H330 H 0.42073 0.38833 0.42405 0.0
O331 O 0.32726 0.28701 0.27764 0.0
O332 O 0.38589 0.28612 0.23985 0.0
H333 H 0.53582 0.36545 0.29066 0.0
H334 H 0.56361 0.37911 0.34166 0.0
C335 C 0.53234 0.35199 0.32299 0.0
H336 H 0.53436 0.31813 0.32273 0.0
H337 H 0.48533 0.33038 0.20669 0.0
O338 O 0.29638 0.27215 0.37521 0.0
C339 C 0.34936 0.29265 0.24307 0.0
Co340 Co 0.06672 0.33178 0.49761 0.0
Co341 Co 0.15202 0.41523 0.44605 0.0
C342 C 0.15779 0.32843 0.47307 0.0
O343 O 0.11535 0.30806 0.48974 0.0
O344 O 0.17651 0.37072 0.45719 0.0
C345 C 0.00856 0.25301 0.55966 0.0
O346 O 0.03683 0.23415 0.55311 0.0
C347 C 0.24925 0.49535 0.42615 0.0
C348 C 0.23235 0.53868 0.38224 0.0
C349 C 0.27024 0.5388 0.40417 0.0
N350 N 0.20097 0.47151 0.41865 0.0
N351 N 0.19119 0.49697 0.39163 0.0
C352 C 0.27409 0.47621 0.45377 0.0
H353 H 0.26079 0.47343 0.48614 0.0
H354 H 0.31447 0.49925 0.45274 0.0
H355 H 0.2643 0.43908 0.4434 0.0
C356 C 0.07934 0.41912 0.54411 0.0
N357 N 0.09456 0.39828 0.51553 0.0
N358 N 0.13139 0.43292 0.49476 0.0
C359 C 0.14178 0.47666 0.51023 0.0
C360 C 0.10867 0.46958 0.54163 0.0
C361 C 0.03364 0.39141 0.56914 0.0
H362 H 0.00363 0.36553 0.54862 0.0
H363 H 0.03986 0.37015 0.5934 0.0
H364 H 0.02232 0.41578 0.58413 0.0
O365 O 0.03481 0.32506 0.4426 0.0
O366 O 0.09733 0.38261 0.40678 0.0
H367 H 0.17383 0.53323 0.46461 0.0
H368 H 0.1907 0.55445 0.51742 0.0
C369 C 0.18302 0.52444 0.49551 0.0
H370 H 0.21662 0.52189 0.49268 0.0
H371 H 0.1561 0.48693 0.38111 0.0
O372 O 0.01561 0.29051 0.53928 0.0
C373 C 0.05323 0.34804 0.40877 0.0
Co374 Co 0.73053 0.06879 0.66616 0.0
Co375 Co 0.73105 0.15152 0.61155 0.0
C376 C 0.82399 0.15634 0.64128 0.0
O377 O 0.8031 0.11545 0.66025 0.0
O378 O 0.7993 0.17276 0.62334 0.0
C379 C 0.74552 0.00692 0.72824 0.0
O380 O 0.793 0.03594 0.72504 0.0
C381 C 0.74417 0.24844 0.60332 0.0
C382 C 0.70908 0.24462 0.54289 0.0
C383 C 0.7314 0.27479 0.57674 0.0
N384 N 0.72898 0.20444 0.58641 0.0
N385 N 0.70864 0.2025 0.55004 0.0
C386 C 0.77118 0.26455 0.64375 0.0
H387 H 0.74466 0.25506 0.66957 0.0
H388 H 0.79644 0.30456 0.64386 0.0
H389 H 0.79211 0.24554 0.64946 0.0
C390 C 0.6603 0.08765 0.71459 0.0
N391 N 0.69346 0.09882 0.68384 0.0
N392 N 0.69149 0.13089 0.65909 0.0
C393 C 0.65628 0.13996 0.67231 0.0
C394 C 0.63576 0.11349 0.70826 0.0
C395 C 0.65121 0.05179 0.74848 0.0
H396 H 0.68642 0.05583 0.75939 0.0
H397 H 0.63187 0.05695 0.7751 0.0
H398 H 0.6284 0.01439 0.73604 0.0
O399 O 0.70639 0.03861 0.60976 0.0
O400 O 0.70848 0.09858 0.57187 0.0
H401 H 0.59788 0.15367 0.65484 0.0
H402 H 0.65813 0.20615 0.65459 0.0
C403 C 0.63683 0.1667 0.6474 0.0
H404 H 0.63972 0.16128 0.61375 0.0
H405 H 0.69329 0.172 0.53068 0.0
O406 O 0.71665 0.01495 0.70623 0.0
C407 C 0.70047 0.05521 0.5753 0.0
C408 C 0.25313 0.1575 0.87888 0.0
C409 C 0.3036 0.18275 0.87042 0.0
H410 H 0.19319 0.15994 0.90838 0.0
C411 C 0.33082 0.23268 0.87977 0.0
H412 H 0.23133 0.11886 0.87242 0.0
C413 C 0.30946 0.25572 0.90092 0.0
C414 C 0.26013 0.22967 0.91293 0.0
H415 H 0.36975 0.2532 0.87345 0.0
H416 H 0.33246 0.29345 0.90962 0.0
C417 C 0.23147 0.1809 0.89993 0.0
C418 C 0.09402 0.26474 0.06395 0.0
C419 C 0.1113 0.30005 0.03235 0.0
H420 H 0.03702 0.22426 0.10826 0.0
C421 C 0.08062 0.31688 0.01711 0.0
H422 H 0.11763 0.25235 0.07702 0.0
C423 C 0.03401 0.29987 0.03426 0.0
C424 C 0.01837 0.26745 0.0681 0.0
H425 H 0.0938 0.34518 0.99364 0.0
H426 H 0.01183 0.31491 0.02319 0.0
C427 C 0.04824 0.24913 0.08212 0.0
C428 C 0.82756 0.09166 0.21081 0.0
C429 C 0.80333 0.11843 0.20494 0.0
H430 H 0.82444 0.02796 0.23766 0.0
C431 C 0.75406 0.09731 0.21711 0.0
H432 H 0.8656 0.10702 0.20207 0.0
C433 C 0.73096 0.05281 0.23803 0.0
C434 C 0.75624 0.0278 0.247 0.0
H435 H 0.73411 0.11669 0.21278 0.0
H436 H 0.6938 0.03904 0.24868 0.0
C437 C 0.80411 0.0466 0.23159 0.0
C438 C 0.68456 0.73626 0.40137 0.0
C439 C 0.7333 0.76267 0.41495 0.0
H440 H 0.62499 0.73831 0.37188 0.0
C441 C 0.76195 0.81171 0.40262 0.0
H442 H 0.66162 0.69833 0.40952 0.0
C443 C 0.74069 0.83494 0.38069 0.0
C444 C 0.69063 0.80926 0.37066 0.0
H445 H 0.7998 0.83296 0.41228 0.0
H446 H 0.76229 0.87374 0.37481 0.0
C447 C 0.66361 0.75914 0.37934 0.0
C448 C 0.94881 0.68695 0.56643 0.0
C449 C 0.9686 0.73362 0.58406 0.0
H450 H 0.88901 0.62922 0.53379 0.0
C451 C 0.94559 0.76115 0.57584 0.0
H452 H 0.96597 0.66507 0.57124 0.0
C453 C 0.90111 0.74041 0.55399 0.0
C454 C 0.87914 0.69191 0.54002 0.0
H455 H 0.96013 0.79743 0.58863 0.0
H456 H 0.88199 0.76078 0.55126 0.0
C457 C 0.90475 0.66644 0.54462 0.0
C458 C 0.16689 0.89961 0.71136 0.0
C459 C 0.19098 0.8726 0.70643 0.0
H460 H 0.17004 0.96377 0.73718 0.0
C461 C 0.24015 0.89373 0.71885 0.0
H462 H 0.12889 0.88419 0.70242 0.0
C463 C 0.26322 0.93849 0.73931 0.0
C464 C 0.23799 0.96372 0.74753 0.0
H465 H 0.25994 0.8741 0.71524 0.0
H466 H 0.30024 0.95223 0.75031 0.0
C467 C 0.1903 0.94495 0.73169 0.0
C468 C 0.75734 0.67206 0.98605 0.0
C469 C 0.80559 0.69044 0.97214 0.0
H470 H 0.69009 0.67299 0.9789 0.0
C471 C 0.82439 0.72738 0.94192 0.0
H472 H 0.74168 0.64258 0.00845 0.0
C473 C 0.79433 0.7431 0.92366 0.0
C474 C 0.74547 0.72328 0.93632 0.0
H475 H 0.86103 0.74105 0.92985 0.0
H476 H 0.80864 0.7693 0.89847 0.0
C477 C 0.72781 0.68916 0.96891 0.0
C478 C 0.09048 0.83604 0.12487 0.0
C479 C 0.11449 0.81009 0.13526 0.0
H480 H 0.02951 0.83425 0.09324 0.0
C481 C 0.09084 0.75979 0.12736 0.0
H482 H 0.10812 0.87498 0.13015 0.0
C483 C 0.04678 0.73689 0.10568 0.0
C484 C 0.02484 0.76351 0.09165 0.0
H485 H 0.10836 0.73877 0.13513 0.0
H486 H 0.03134 0.69876 0.09811 0.0
C487 C 0.04579 0.81282 0.10326 0.0
C488 C 0.26316 0.09285 0.29374 0.0
C489 C 0.31429 0.11981 0.29841 0.0
H490 H 0.20191 0.02858 0.26835 0.0
C491 C 0.34217 0.09852 0.28595 0.0
H492 H 0.2407 0.10838 0.30273 0.0
C493 C 0.32026 0.0536 0.26573 0.0
C494 C 0.26976 0.02841 0.25777 0.0
H495 H 0.38161 0.1181 0.28937 0.0
H496 H 0.34341 0.03971 0.25472 0.0
C497 C 0.24103 0.04737 0.27364 0.0
C498 C 0.23414 0.3261 0.45972 0.0
C499 C 0.18305 0.30061 0.46418 0.0
H500 H 0.29682 0.3275 0.4333 0.0
C501 C 0.1566 0.25212 0.45018 0.0
H502 H 0.25556 0.36331 0.47059 0.0
C503 C 0.18042 0.2314 0.42843 0.0
C504 C 0.23097 0.25895 0.42035 0.0
H505 H 0.1171 0.23174 0.45281 0.0
H506 H 0.15874 0.19514 0.41561 0.0
C507 C 0.25777 0.30561 0.43801 0.0
C508 C 0.90183 0.15723 0.62285 0.0
C509 C 0.87713 0.18265 0.63269 0.0
H510 H 0.96327 0.15966 0.59158 0.0
C511 C 0.9 0.23278 0.62409 0.0
H512 H 0.88481 0.11844 0.62869 0.0
C513 C 0.94397 0.25592 0.60229 0.0
C514 C 0.96661 0.22975 0.58885 0.0
H515 H 0.88197 0.25341 0.63144 0.0
H516 H 0.95881 0.29386 0.59418 0.0
C517 C 0.94643 0.18072 0.60113 0.0
C518 C 0.7323 0.89961 0.7921 0.0
C519 C 0.68139 0.87326 0.79848 0.0
H520 H 0.7928 0.96283 0.7646 0.0
C521 C 0.6534 0.89465 0.78654 0.0
H522 H 0.75485 0.88402 0.80063 0.0
C523 C 0.67481 0.93898 0.76535 0.0
C524 C 0.72495 0.96356 0.75588 0.0
H525 H 0.61415 0.87558 0.79124 0.0
H526 H 0.6515 0.95293 0.75489 0.0
C527 C 0.75394 0.94452 0.77105 0.0
C528 C 0.25923 0.65244 0.12194 0.0
C529 C 0.25395 0.66806 0.08235 0.0
H530 H 0.26429 0.59782 0.15742 0.0
C531 C 0.24935 0.63932 0.04759 0.0
H532 H 0.26551 0.6748 0.14915 0.0
C533 C 0.25006 0.59589 0.05227 0.0
C534 C 0.25463 0.57996 0.09191 0.0
H535 H 0.24636 0.65102 0.0166 0.0
H536 H 0.24909 0.57599 0.02461 0.0
C537 C 0.25932 0.60866 0.12667 0.0
C538 C 0.68206 0.32442 0.24841 0.0
C539 C 0.68252 0.28061 0.25338 0.0
H540 H 0.63898 0.35823 0.23717 0.0
C541 C 0.63845 0.2361 0.25088 0.0
H542 H 0.71568 0.35919 0.24985 0.0
C543 C 0.59445 0.23555 0.24365 0.0
C544 C 0.59418 0.27948 0.23852 0.0
H545 H 0.638 0.20189 0.25486 0.0
H546 H 0.56077 0.2009 0.24188 0.0
C547 C 0.63834 0.32385 0.24066 0.0
C548 C 0.38465 0.63873 0.45416 0.0
C549 C 0.4085 0.66883 0.41999 0.0
H550 H 0.32166 0.5745 0.47613 0.0
C551 C 0.38721 0.65497 0.38035 0.0
H552 H 0.39971 0.64908 0.48518 0.0
C553 C 0.34305 0.61162 0.375 0.0
C554 C 0.31935 0.58155 0.40918 0.0
H555 H 0.40326 0.67843 0.3537 0.0
H556 H 0.32682 0.60217 0.34431 0.0
C557 C 0.34035 0.59564 0.44885 0.0
C558 C 0.72752 0.38017 0.62856 0.0
C559 C 0.73386 0.41025 0.59438 0.0
H560 H 0.72064 0.31323 0.64985 0.0
C561 C 0.74036 0.39595 0.55466 0.0
H562 H 0.72106 0.38979 0.65929 0.0
C563 C 0.74121 0.35266 0.54932 0.0
C564 C 0.73504 0.32259 0.5835 0.0
H565 H 0.74277 0.41708 0.52738 0.0
H566 H 0.74563 0.34218 0.51827 0.0
C567 C 0.72799 0.33665 0.62318 0.0
C568 C 0.31106 0.66879 0.76345 0.0
C569 C 0.31125 0.71316 0.76559 0.0
H570 H 0.353 0.63343 0.754 0.0
C571 C 0.35537 0.75708 0.76013 0.0
H572 H 0.27738 0.63443 0.76719 0.0
C573 C 0.39876 0.75651 0.7526 0.0
C574 C 0.39832 0.712 0.75012 0.0
H575 H 0.35632 0.79172 0.76188 0.0
H576 H 0.43246 0.79071 0.7484 0.0
C577 C 0.35413 0.6682 0.75541 0.0
C578 C 0.65269 0.39461 0.95203 0.0
C579 C 0.67281 0.41047 0.91227 0.0
H580 H 0.59442 0.33936 0.98804 0.0
C581 C 0.64891 0.38133 0.87769 0.0
H582 H 0.67162 0.41488 0.97956 0.0
C583 C 0.60537 0.33731 0.88269 0.0
C584 C 0.58472 0.32187 0.92239 0.0
H585 H 0.66448 0.3921 0.84686 0.0
H586 H 0.58927 0.3147 0.85562 0.0
C587 C 0.60888 0.35092 0.95698 0.0
C588 C 0.34314 0.29398 0.16582 0.0
C589 C 0.33188 0.30541 0.20509 0.0
H590 H 0.33667 0.2969 0.09977 0.0
C591 C 0.30433 0.32905 0.20737 0.0
H592 H 0.36403 0.27538 0.16307 0.0
C593 C 0.28929 0.342 0.171 0.0
C594 C 0.30066 0.33062 0.13174 0.0
H595 H 0.29514 0.33829 0.23717 0.0
H596 H 0.26852 0.36074 0.17366 0.0
C597 C 0.32729 0.30604 0.12953 0.0
C598 C 0.97262 0.30941 0.37183 0.0
C599 C 0.02387 0.33375 0.37028 0.0
H600 H 0.90583 0.27804 0.33724 0.0
C601 C 0.04732 0.34446 0.33134 0.0
H602 H 0.95363 0.30078 0.40137 0.0
C603 C 0.02005 0.33077 0.29466 0.0
C604 C 0.96883 0.30702 0.29618 0.0
H605 H 0.08685 0.36295 0.32918 0.0
H606 H 0.03907 0.33929 0.26513 0.0
C607 C 0.94537 0.29663 0.33511 0.0
C608 C 0.64585 0.94506 0.50486 0.0
C609 C 0.65667 0.96697 0.46526 0.0
H610 H 0.65182 0.95579 0.57081 0.0
C611 C 0.68242 0.01791 0.46221 0.0
H612 H 0.62632 0.90576 0.50816 0.0
C613 C 0.6963 0.04643 0.49811 0.0
C614 C 0.68555 0.02453 0.53771 0.0
H615 H 0.6912 0.03571 0.43214 0.0
H616 H 0.71589 0.08574 0.49482 0.0
C617 C 0.66058 0.97359 0.54075 0.0
C618 C 0.69902 0.64733 0.67257 0.0
C619 C 0.68652 0.65829 0.63361 0.0
H620 H 0.69556 0.65212 0.73878 0.0
C621 C 0.65964 0.68266 0.63203 0.0
H622 H 0.72002 0.6288 0.67476 0.0
C623 C 0.64495 0.69524 0.66873 0.0
C624 C 0.65779 0.6846 0.70768 0.0
H625 H 0.64946 0.69148 0.60248 0.0
H626 H 0.62405 0.71388 0.66658 0.0
C627 C 0.68522 0.66081 0.70924 0.0
C628 C 0.97172 0.66406 0.79723 0.0
C629 C 0.0229 0.6875 0.79958 0.0
H630 H 0.90421 0.63261 0.83084 0.0
C631 C 0.04553 0.69893 0.83889 0.0
H632 H 0.95334 0.65485 0.7674 0.0
C633 C 0.01758 0.68701 0.87514 0.0
C634 C 0.96638 0.66255 0.87285 0.0
H635 H 0.085 0.71739 0.8417 0.0
H636 H 0.03604 0.69608 0.90493 0.0
C637 C 0.9437 0.65124 0.83355 0.0
C638 C 0.29469 0.9448 0.9995 0.0
C639 C 0.30594 0.96677 0.03906 0.0
H640 H 0.29976 0.95541 0.93352 0.0
C641 C 0.33162 0.01771 0.04201 0.0
H642 H 0.27455 0.90549 0.99629 0.0
C643 C 0.34663 0.04616 0.00606 0.0
C644 C 0.33541 0.02419 0.9665 0.0
H645 H 0.34077 0.03556 0.07204 0.0
H646 H 0.36675 0.08547 0.00929 0.0
C647 C 0.30888 0.97326 0.96355 0.0
C648 C 0.40757 0.50753 0.89908 0.0
C649 C 0.4046 0.5064 0.94258 0.0
H650 H 0.44836 0.54641 0.84524 0.0
C651 C 0.44383 0.5427 0.96558 0.0
H652 H 0.378 0.47991 0.88063 0.0
C653 C 0.48386 0.58112 0.94534 0.0
C654 C 0.48528 0.58372 0.90181 0.0
H655 H 0.44286 0.54209 0.99923 0.0
H656 H 0.51253 0.60987 0.96367 0.0
C657 C 0.44767 0.54564 0.8789 0.0
C658 C 0.89752 0.48488 0.1047 0.0
C659 C 0.89549 0.48597 0.06121 0.0
H660 H 0.89945 0.44591 0.15848 0.0
C661 C 0.8983 0.44964 0.03816 0.0
H662 H 0.89568 0.51253 0.12319 0.0
C663 C 0.89986 0.41115 0.05834 0.0
C664 C 0.89875 0.40853 0.10186 0.0
H665 H 0.89782 0.45024 1.00451 0.0
H666 H 0.89959 0.38233 0.03998 0.0
C667 C 0.89946 0.44669 0.12482 0.0
C668 C 0.47963 0.92264 0.2612 0.0
C669 C 0.47748 0.87844 0.27147 0.0
H670 H 0.44258 0.95702 0.23319 0.0
C671 C 0.43524 0.83437 0.26159 0.0
H672 H 0.51154 0.95711 0.26906 0.0
C673 C 0.39572 0.83433 0.24208 0.0
C674 C 0.39765 0.87834 0.23175 0.0
H675 H 0.43269 0.79981 0.26917 0.0
H676 H 0.36354 0.79973 0.23495 0.0
C677 C 0.43994 0.92259 0.24142 0.0
C678 C 0.51571 0.40736 0.44029 0.0
C679 C 0.51393 0.40782 0.39676 0.0
H680 H 0.55505 0.44431 0.4953 0.0
C681 C 0.55015 0.44846 0.37515 0.0
H682 H 0.48816 0.37657 0.45769 0.0
C683 C 0.58917 0.48647 0.39649 0.0
C684 C 0.59215 0.48499 0.43991 0.0
H685 H 0.54907 0.45013 0.34156 0.0
H686 H 0.61777 0.51626 0.37894 0.0
C687 C 0.55425 0.4458 0.46169 0.0
C688 C 0.10511 0.54714 0.54263 0.0
C689 C 0.1034 0.50764 0.56425 0.0
H690 H 0.10863 0.61654 0.5469 0.0
C691 C 0.09869 0.5059 0.60767 0.0
H692 H 0.10759 0.54887 0.50904 0.0
C693 C 0.09777 0.54387 0.62914 0.0
C694 C 0.10255 0.58478 0.6077 0.0
H695 H 0.09718 0.47588 0.6251 0.0
H696 H 0.09477 0.54196 0.66271 0.0
C697 C 0.10511 0.58555 0.56418 0.0
C698 C 0.59697 0.15622 0.74251 0.0
C699 C 0.59501 0.11221 0.73218 0.0
H700 H 0.56024 0.19072 0.77002 0.0
C701 C 0.553 0.06795 0.74235 0.0
H702 H 0.62895 0.19082 0.73499 0.0
C703 C 0.51355 0.06789 0.76254 0.0
C704 C 0.51569 0.1121 0.77276 0.0
H705 H 0.55036 0.03353 0.73413 0.0
H706 H 0.48178 0.03343 0.7707 0.0
C707 C 0.55771 0.15617 0.76248 0.0
loop_
_geom_bond_atom_site_label_1
_geom_bond_atom_site_label_2
_geom_bond_distance
_geom_bond_site_symmetry_2
_ccdc_geom_bond_type
Co0 O3 1.970 . S
Co0 N17 1.989 1_554 S
Co0 O25 1.967 . S
Co0 O32 1.920 1_554 S
Co1 O4 1.966 . S
Co1 N10 2.022 . S
Co1 N18 1.993 1_554 S
Co1 O26 1.941 . S
C2 O3 1.258 . S
C2 O4 1.263 . S
O3 Co0 1.970 . S
O3 C2 1.258 . S
O4 Co1 1.966 . S
O4 C2 1.263 . S
C5 O6 1.235 . S
C5 O32 1.289 . S
O6 C5 1.235 . S
C7 C9 1.400 . S
C7 N10 1.351 . S
C7 C12 1.501 . S
C8 C9 1.387 . S
C8 N11 1.341 . S
C9 C7 1.400 . S
C9 C8 1.387 . S
N10 Co1 2.022 . S
N10 C7 1.351 . S
N10 N11 1.365 . S
N11 C8 1.341 . S
N11 N10 1.365 . S
N11 H31 0.862 . S
C12 C7 1.501 . S
C12 H13 0.961 . S
C12 H14 0.961 . S
C12 H15 0.960 . S
H13 C12 0.961 . S
H14 C12 0.961 . S
H15 C12 0.960 . S
C16 N17 1.342 . S
C16 C20 1.401 . S
C16 C21 1.499 . S
N17 Co0 1.989 1_556 S
N17 C16 1.342 . S
N17 N18 1.388 . S
N18 Co1 1.993 1_556 S
N18 N17 1.388 . S
N18 C19 1.346 . S
C19 N18 1.346 . S
C19 C20 1.396 . S
C19 C29 1.510 . S
C20 C16 1.401 . S
C20 C19 1.396 . S
C21 C16 1.499 . S
C21 H22 0.959 . S
C21 H23 0.960 . S
C21 H24 0.961 . S
H22 C21 0.959 . S
H23 C21 0.960 . S
H24 C21 0.961 . S
O25 Co0 1.967 . S
O25 C33 1.258 . S
O26 Co1 1.941 . S
O26 C33 1.266 . S
H27 C29 0.959 . S
H28 C29 0.961 . S
C29 C19 1.510 . S
C29 H27 0.959 . S
C29 H28 0.961 . S
C29 H30 0.960 1_556 S
H30 C29 0.960 1_554 S
H31 N11 0.862 . S
O32 Co0 1.920 1_556 S
O32 C5 1.289 . S
C33 O25 1.258 . S
C33 O26 1.266 . S
Co34 O37 1.970 . S
Co34 N51 1.989 . S
Co34 O59 1.967 . S
Co34 O66 1.920 . S
Co35 O38 1.966 . S
Co35 N44 2.022 . S
Co35 N52 1.993 . S
Co35 O60 1.941 . S
C36 O37 1.258 . S
C36 O38 1.263 . S
O37 Co34 1.970 . S
O37 C36 1.258 . S
O38 Co35 1.966 . S
O38 C36 1.263 . S
C39 O40 1.235 . S
C39 O66 1.289 . S
O40 C39 1.235 . S
C41 C43 1.400 . S
C41 N44 1.351 . S
C41 C46 1.501 . S
C42 C43 1.387 . S
C42 N45 1.341 . S
C43 C41 1.400 . S
C43 C42 1.387 . S
N44 Co35 2.022 . S
N44 C41 1.351 . S
N44 N45 1.365 . S
N45 C42 1.341 . S
N45 N44 1.365 . S
N45 H65 0.862 . S
C46 C41 1.501 . S
C46 H47 0.961 . S
C46 H48 0.961 . S
C46 H49 0.960 . S
H47 C46 0.961 . S
H48 C46 0.961 . S
H49 C46 0.960 . S
C50 N51 1.342 . S
C50 C54 1.401 . S
C50 C55 1.499 . S
N51 Co34 1.989 . S
N51 C50 1.342 . S
N51 N52 1.388 . S
N52 Co35 1.993 . S
N52 N51 1.388 . S
N52 C53 1.346 . S
C53 N52 1.346 . S
C53 C54 1.396 . S
C53 C63 1.510 . S
C54 C50 1.401 . S
C54 C53 1.396 . S
C55 C50 1.499 . S
C55 H56 0.959 . S
C55 H57 0.960 . S
C55 H58 0.961 . S
H56 C55 0.959 . S
H57 C55 0.960 . S
H58 C55 0.961 . S
O59 Co34 1.967 . S
O59 C67 1.258 . S
O60 Co35 1.941 . S
O60 C67 1.266 . S
H61 C63 0.959 . S
H62 C63 0.961 . S
C63 C53 1.510 . S
C63 H61 0.959 . S
C63 H62 0.961 . S
C63 H64 0.960 . S
H64 C63 0.960 . S
H65 N45 0.862 . S
O66 Co34 1.920 . S
O66 C39 1.289 . S
C67 O59 1.258 . S
C67 O60 1.266 . S
Co68 O71 1.970 . S
Co68 N85 1.989 . S
Co68 O93 1.967 . S
Co68 O100 1.920 . S
Co69 O72 1.966 . S
Co69 N78 2.022 . S
Co69 N86 1.993 . S
Co69 O94 1.941 . S
C70 O71 1.258 . S
C70 O72 1.263 . S
O71 Co68 1.970 . S
O71 C70 1.258 . S
O72 Co69 1.966 . S
O72 C70 1.263 . S
C73 O74 1.235 . S
C73 O100 1.289 . S
O74 C73 1.235 . S
C75 C77 1.400 . S
C75 N78 1.351 . S
C75 C80 1.501 . S
C76 C77 1.387 . S
C76 N79 1.341 . S
C77 C75 1.400 . S
C77 C76 1.387 . S
N78 Co69 2.022 . S
N78 C75 1.351 . S
N78 N79 1.365 . S
N79 C76 1.341 . S
N79 N78 1.365 . S
N79 H99 0.862 . S
C80 C75 1.501 . S
C80 H81 0.961 . S
C80 H82 0.961 . S
C80 H83 0.960 . S
H81 C80 0.961 . S
H82 C80 0.961 . S
H83 C80 0.960 . S
C84 N85 1.342 . S
C84 C88 1.401 . S
C84 C89 1.499 . S
N85 Co68 1.989 . S
N85 C84 1.342 . S
N85 N86 1.388 . S
N86 Co69 1.993 . S
N86 N85 1.388 . S
N86 C87 1.346 . S
C87 N86 1.346 . S
C87 C88 1.396 . S
C87 C97 1.510 . S
C88 C84 1.401 . S
C88 C87 1.396 . S
C89 C84 1.499 . S
C89 H90 0.959 . S
C89 H91 0.960 . S
C89 H92 0.961 . S
H90 C89 0.959 . S
H91 C89 0.960 . S
H92 C89 0.961 . S
O93 Co68 1.967 . S
O93 C101 1.258 . S
O94 Co69 1.941 . S
O94 C101 1.266 . S
H95 C97 0.959 . S
H96 C97 0.961 . S
C97 C87 1.510 . S
C97 H95 0.959 . S
C97 H96 0.961 . S
C97 H98 0.960 . S
H98 C97 0.960 . S
H99 N79 0.862 . S
O100 Co68 1.920 . S
O100 C73 1.289 . S
C101 O93 1.258 . S
C101 O94 1.266 . S
Co102 O105 1.970 . S
Co102 N119 1.989 . S
Co102 O127 1.967 . S
Co102 O134 1.920 . S
Co103 O106 1.966 . S
Co103 N112 2.022 . S
Co103 N120 1.993 . S
Co103 O128 1.941 . S
C104 O105 1.258 . S
C104 O106 1.263 . S
O105 Co102 1.970 . S
O105 C104 1.258 . S
O106 Co103 1.966 . S
O106 C104 1.263 . S
C107 O108 1.235 . S
C107 O134 1.289 . S
O108 C107 1.235 . S
C109 C111 1.400 . S
C109 N112 1.351 . S
C109 C114 1.501 . S
C110 C111 1.387 . S
C110 N113 1.341 . S
C111 C109 1.400 . S
C111 C110 1.387 . S
N112 Co103 2.022 . S
N112 C109 1.351 . S
N112 N113 1.365 . S
N113 C110 1.341 . S
N113 N112 1.365 . S
N113 H133 0.862 . S
C114 C109 1.501 . S
C114 H115 0.961 . S
C114 H116 0.961 . S
C114 H117 0.960 . S
H115 C114 0.961 . S
H116 C114 0.961 . S
H117 C114 0.960 . S
C118 N119 1.342 . S
C118 C122 1.401 . S
C118 C123 1.499 . S
N119 Co102 1.989 . S
N119 C118 1.342 . S
N119 N120 1.388 . S
N120 Co103 1.993 . S
N120 N119 1.388 . S
N120 C121 1.346 . S
C121 N120 1.346 . S
C121 C122 1.396 . S
C121 C131 1.510 . S
C122 C118 1.401 . S
C122 C121 1.396 . S
C123 C118 1.499 . S
C123 H124 0.959 . S
C123 H125 0.960 . S
C123 H126 0.961 . S
H124 C123 0.959 . S
H125 C123 0.960 . S
H126 C123 0.961 . S
O127 Co102 1.967 . S
O127 C135 1.258 . S
O128 Co103 1.941 . S
O128 C135 1.266 . S
H129 C131 0.959 . S
H130 C131 0.961 . S
C131 C121 1.510 . S
C131 H129 0.959 . S
C131 H130 0.961 . S
C131 H132 0.960 . S
H132 C131 0.960 . S
H133 N113 0.862 . S
O134 Co102 1.920 . S
O134 C107 1.289 . S
C135 O127 1.258 . S
C135 O128 1.266 . S
Co136 O139 1.970 . S
Co136 N153 1.989 . S
Co136 O161 1.967 . S
Co136 O168 1.920 . S
Co137 O140 1.966 . S
Co137 N146 2.022 . S
Co137 N154 1.993 . S
Co137 O162 1.941 . S
C138 O139 1.258 . S
C138 O140 1.263 . S
O139 Co136 1.970 . S
O139 C138 1.258 . S
O140 Co137 1.966 . S
O140 C138 1.263 . S
C141 O142 1.235 . S
C141 O168 1.289 . S
O142 C141 1.235 . S
C143 C145 1.400 . S
C143 N146 1.351 . S
C143 C148 1.501 . S
C144 C145 1.387 . S
C144 N147 1.341 . S
C145 C143 1.400 . S
C145 C144 1.387 . S
N146 Co137 2.022 . S
N146 C143 1.351 . S
N146 N147 1.365 . S
N147 C144 1.341 . S
N147 N146 1.365 . S
N147 H167 0.862 . S
C148 C143 1.501 . S
C148 H149 0.961 . S
C148 H150 0.961 . S
C148 H151 0.960 . S
H149 C148 0.961 . S
H150 C148 0.961 . S
H151 C148 0.960 . S
C152 N153 1.342 . S
C152 C156 1.401 . S
C152 C157 1.499 . S
N153 Co136 1.989 . S
N153 C152 1.342 . S
N153 N154 1.388 . S
N154 Co137 1.993 . S
N154 N153 1.388 . S
N154 C155 1.346 . S
C155 N154 1.346 . S
C155 C156 1.396 . S
C155 C165 1.510 . S
C156 C152 1.401 . S
C156 C155 1.396 . S
C157 C152 1.499 . S
C157 H158 0.959 . S
C157 H159 0.960 . S
C157 H160 0.961 . S
H158 C157 0.959 . S
H159 C157 0.960 . S
H160 C157 0.961 . S
O161 Co136 1.967 . S
O161 C169 1.258 . S
O162 Co137 1.941 . S
O162 C169 1.266 . S
H163 C165 0.959 . S
H164 C165 0.961 . S
C165 C155 1.510 . S
C165 H163 0.959 . S
C165 H164 0.961 . S
C165 H166 0.960 . S
H166 C165 0.960 . S
H167 N147 0.862 . S
O168 Co136 1.920 . S
O168 C141 1.289 . S
C169 O161 1.258 . S
C169 O162 1.266 . S
Co170 O173 1.970 . S
Co170 N187 1.989 . S
Co170 O195 1.967 . S
Co170 O202 1.920 . S
Co171 O174 1.966 . S
Co171 N180 2.022 . S
Co171 N188 1.993 . S
Co171 O196 1.941 . S
C172 O173 1.258 . S
C172 O174 1.263 . S
O173 Co170 1.970 . S
O173 C172 1.258 . S
O174 Co171 1.966 . S
O174 C172 1.263 . S
C175 O176 1.235 . S
C175 O202 1.289 . S
O176 C175 1.235 . S
C177 C179 1.400 . S
C177 N180 1.351 . S
C177 C182 1.501 . S
C178 C179 1.387 . S
C178 N181 1.341 . S
C179 C177 1.400 . S
C179 C178 1.387 . S
N180 Co171 2.022 . S
N180 C177 1.351 . S
N180 N181 1.365 . S
N181 C178 1.341 . S
N181 N180 1.365 . S
N181 H201 0.862 . S
C182 C177 1.501 . S
C182 H183 0.961 . S
C182 H184 0.961 . S
C182 H185 0.960 . S
H183 C182 0.961 . S
H184 C182 0.961 . S
H185 C182 0.960 . S
C186 N187 1.342 . S
C186 C190 1.401 . S
C186 C191 1.499 . S
N187 Co170 1.989 . S
N187 C186 1.342 . S
N187 N188 1.388 . S
N188 Co171 1.993 . S
N188 N187 1.388 . S
N188 C189 1.346 . S
C189 N188 1.346 . S
C189 C190 1.396 . S
C189 C199 1.510 . S
C190 C186 1.401 . S
C190 C189 1.396 . S
C191 C186 1.499 . S
C191 H192 0.959 . S
C191 H193 0.960 . S
C191 H194 0.961 . S
H192 C191 0.959 . S
H193 C191 0.960 . S
H194 C191 0.961 . S
O195 Co170 1.967 . S
O195 C203 1.258 . S
O196 Co171 1.941 . S
O196 C203 1.266 . S
H197 C199 0.959 . S
H198 C199 0.961 . S
C199 C189 1.510 . S
C199 H197 0.959 . S
C199 H198 0.961 . S
C199 H200 0.960 . S
H200 C199 0.960 . S
H201 N181 0.862 . S
O202 Co170 1.920 . S
O202 C175 1.289 . S
C203 O195 1.258 . S
C203 O196 1.266 . S
Co204 O207 1.970 . S
Co204 N221 1.989 . S
Co204 O229 1.967 . S
Co204 O236 1.920 . S
Co205 O208 1.966 . S
Co205 N214 2.022 . S
Co205 N222 1.993 . S
Co205 O230 1.941 . S
C206 O207 1.258 . S
C206 O208 1.263 . S
O207 Co204 1.970 . S
O207 C206 1.258 . S
O208 Co205 1.966 . S
O208 C206 1.263 . S
C209 O210 1.235 . S
C209 O236 1.289 . S
O210 C209 1.235 . S
C211 C213 1.400 . S
C211 N214 1.351 . S
C211 C216 1.501 . S
C212 C213 1.387 . S
C212 N215 1.341 . S
C213 C211 1.400 . S
C213 C212 1.387 . S
N214 Co205 2.022 . S
N214 C211 1.351 . S
N214 N215 1.365 . S
N215 C212 1.341 . S
N215 N214 1.365 . S
N215 H235 0.862 . S
C216 C211 1.501 . S
C216 H217 0.961 . S
C216 H218 0.961 . S
C216 H219 0.960 . S
H217 C216 0.961 . S
H218 C216 0.961 . S
H219 C216 0.960 . S
C220 N221 1.342 . S
C220 C224 1.401 . S
C220 C225 1.499 . S
N221 Co204 1.989 . S
N221 C220 1.342 . S
N221 N222 1.388 . S
N222 Co205 1.993 . S
N222 N221 1.388 . S
N222 C223 1.346 . S
C223 N222 1.346 . S
C223 C224 1.396 . S
C223 C233 1.510 . S
C224 C220 1.401 . S
C224 C223 1.396 . S
C225 C220 1.499 . S
C225 H226 0.959 . S
C225 H227 0.960 . S
C225 H228 0.961 . S
H226 C225 0.959 . S
H227 C225 0.960 . S
H228 C225 0.961 . S
O229 Co204 1.967 . S
O229 C237 1.258 . S
O230 Co205 1.941 . S
O230 C237 1.266 . S
H231 C233 0.959 . S
H232 C233 0.961 . S
C233 C223 1.510 . S
C233 H231 0.959 . S
C233 H232 0.961 . S
C233 H234 0.960 . S
H234 C233 0.960 . S
H235 N215 0.862 . S
O236 Co204 1.920 . S
O236 C209 1.289 . S
C237 O229 1.258 . S
C237 O230 1.266 . S
Co238 O241 1.970 . S
Co238 N255 1.989 1_556 S
Co238 O263 1.967 . S
Co238 O270 1.920 1_556 S
Co239 O242 1.966 . S
Co239 N248 2.022 . S
Co239 N256 1.993 . S
Co239 O264 1.941 . S
C240 O241 1.258 . S
C240 O242 1.263 . S
O241 Co238 1.970 . S
O241 C240 1.258 . S
O242 Co239 1.966 . S
O242 C240 1.263 . S
C243 O244 1.235 . S
C243 O270 1.289 . S
O244 C243 1.235 . S
C245 C247 1.400 . S
C245 N248 1.351 . S
C245 C250 1.501 . S
C246 C247 1.387 . S
C246 N249 1.341 . S
C247 C245 1.400 . S
C247 C246 1.387 . S
N248 Co239 2.022 . S
N248 C245 1.351 . S
N248 N249 1.365 . S
N249 C246 1.341 . S
N249 N248 1.365 . S
N249 H269 0.862 . S
C250 C245 1.501 . S
C250 H251 0.961 . S
C250 H252 0.961 . S
C250 H253 0.960 . S
H251 C250 0.961 . S
H252 C250 0.961 . S
H253 C250 0.960 . S
C254 N255 1.342 . S
C254 C258 1.401 . S
C254 C259 1.499 . S
N255 Co238 1.989 1_554 S
N255 C254 1.342 . S
N255 N256 1.388 1_554 S
N256 Co239 1.993 . S
N256 N255 1.388 1_556 S
N256 C257 1.346 1_556 S
C257 N256 1.346 1_554 S
C257 C258 1.396 . S
C257 C267 1.510 . S
C258 C254 1.401 . S
C258 C257 1.396 . S
C259 C254 1.499 . S
C259 H260 0.959 . S
C259 H261 0.960 . S
C259 H262 0.961 . S
H260 C259 0.959 . S
H261 C259 0.960 . S
H262 C259 0.961 . S
O263 Co238 1.967 . S
O263 C271 1.258 . S
O264 Co239 1.941 . S
O264 C271 1.266 . S
H265 C267 0.961 . S
H266 C267 0.961 . S
C267 C257 1.510 . S
C267 H265 0.961 . S
C267 H266 0.961 . S
C267 H268 0.960 1_554 S
H268 C267 0.960 1_556 S
H269 N249 0.862 . S
O270 Co238 1.920 1_554 S
O270 C243 1.289 . S
C271 O263 1.258 . S
C271 O264 1.266 . S
Co272 O275 1.970 . S
Co272 N289 1.989 . S
Co272 O297 1.967 . S
Co272 O304 1.920 . S
Co273 O276 1.966 . S
Co273 N282 2.022 . S
Co273 N290 1.993 . S
Co273 O298 1.941 . S
C274 O275 1.258 . S
C274 O276 1.263 . S
O275 Co272 1.970 . S
O275 C274 1.258 . S
O276 Co273 1.966 . S
O276 C274 1.263 . S
C277 O278 1.235 . S
C277 O304 1.289 . S
O278 C277 1.235 . S
C279 C281 1.400 . S
C279 N282 1.351 . S
C279 C284 1.501 . S
C280 C281 1.387 . S
C280 N283 1.341 . S
C281 C279 1.400 . S
C281 C280 1.387 . S
N282 Co273 2.022 . S
N282 C279 1.351 . S
N282 N283 1.365 . S
N283 C280 1.341 . S
N283 N282 1.365 . S
N283 H303 0.862 . S
C284 C279 1.501 . S
C284 H285 0.961 . S
C284 H286 0.961 . S
C284 H287 0.960 . S
H285 C284 0.961 . S
H286 C284 0.961 . S
H287 C284 0.960 . S
C288 N289 1.342 . S
C288 C292 1.401 . S
C288 C293 1.499 . S
N289 Co272 1.989 . S
N289 C288 1.342 . S
N289 N290 1.388 . S
N290 Co273 1.993 . S
N290 N289 1.388 . S
N290 C291 1.346 . S
C291 N290 1.346 . S
C291 C292 1.396 . S
C291 C301 1.510 . S
C292 C288 1.401 . S
C292 C291 1.396 . S
C293 C288 1.499 . S
C293 H294 0.959 . S
C293 H295 0.960 . S
C293 H296 0.961 . S
H294 C293 0.959 . S
H295 C293 0.960 . S
H296 C293 0.961 . S
O297 Co272 1.967 . S
O297 C305 1.258 . S
O298 Co273 1.941 . S
O298 C305 1.266 . S
H299 C301 0.959 . S
H300 C301 0.961 . S
C301 C291 1.510 . S
C301 H299 0.959 . S
C301 H300 0.961 . S
C301 H302 0.960 . S
H302 C301 0.960 . S
H303 N283 0.862 . S
O304 Co272 1.920 . S
O304 C277 1.289 . S
C305 O297 1.258 . S
C305 O298 1.266 . S
Co306 O309 1.970 . S
Co306 N323 1.989 . S
Co306 O331 1.967 . S
Co306 O338 1.920 . S
Co307 O310 1.966 . S
Co307 N316 2.022 . S
Co307 N324 1.993 . S
Co307 O332 1.941 . S
C308 O309 1.258 . S
C308 O310 1.263 . S
O309 Co306 1.970 . S
O309 C308 1.258 . S
O310 Co307 1.966 . S
O310 C308 1.263 . S
C311 O312 1.235 . S
C311 O338 1.289 . S
O312 C311 1.235 . S
C313 C315 1.400 . S
C313 N316 1.351 . S
C313 C318 1.501 . S
C314 C315 1.387 . S
C314 N317 1.341 . S
C315 C313 1.400 . S
C315 C314 1.387 . S
N316 Co307 2.022 . S
N316 C313 1.351 . S
N316 N317 1.365 . S
N317 C314 1.341 . S
N317 N316 1.365 . S
N317 H337 0.862 . S
C318 C313 1.501 . S
C318 H319 0.961 . S
C318 H320 0.961 . S
C318 H321 0.960 . S
H319 C318 0.961 . S
H320 C318 0.961 . S
H321 C318 0.960 . S
C322 N323 1.342 . S
C322 C326 1.401 . S
C322 C327 1.499 . S
N323 Co306 1.989 . S
N323 C322 1.342 . S
N323 N324 1.388 . S
N324 Co307 1.993 . S
N324 N323 1.388 . S
N324 C325 1.346 . S
C325 N324 1.346 . S
C325 C326 1.396 . S
C325 C335 1.510 . S
C326 C322 1.401 . S
C326 C325 1.396 . S
C327 C322 1.499 . S
C327 H328 0.959 . S
C327 H329 0.960 . S
C327 H330 0.961 . S
H328 C327 0.959 . S
H329 C327 0.960 . S
H330 C327 0.961 . S
O331 Co306 1.967 . S
O331 C339 1.258 . S
O332 Co307 1.941 . S
O332 C339 1.266 . S
H333 C335 0.959 . S
H334 C335 0.961 . S
C335 C325 1.510 . S
C335 H333 0.959 . S
C335 H334 0.961 . S
C335 H336 0.960 . S
H336 C335 0.960 . S
H337 N317 0.862 . S
O338 Co306 1.920 . S
O338 C311 1.289 . S
C339 O331 1.258 . S
C339 O332 1.266 . S
Co340 O343 1.970 . S
Co340 N357 1.989 . S
Co340 O365 1.967 . S
Co340 O372 1.920 . S
Co341 O344 1.966 . S
Co341 N350 2.022 . S
Co341 N358 1.993 . S
Co341 O366 1.941 . S
C342 O343 1.258 . S
C342 O344 1.263 . S
O343 Co340 1.970 . S
O343 C342 1.258 . S
O344 Co341 1.966 . S
O344 C342 1.263 . S
C345 O346 1.235 . S
C345 O372 1.289 . S
O346 C345 1.235 . S
C347 C349 1.400 . S
C347 N350 1.351 . S
C347 C352 1.501 . S
C348 C349 1.387 . S
C348 N351 1.341 . S
C349 C347 1.400 . S
C349 C348 1.387 . S
N350 Co341 2.022 . S
N350 C347 1.351 . S
N350 N351 1.365 . S
N351 C348 1.341 . S
N351 N350 1.365 . S
N351 H371 0.862 . S
C352 C347 1.501 . S
C352 H353 0.961 . S
C352 H354 0.961 . S
C352 H355 0.960 . S
H353 C352 0.961 . S
H354 C352 0.961 . S
H355 C352 0.960 . S
C356 N357 1.342 . S
C356 C360 1.401 . S
C356 C361 1.499 . S
N357 Co340 1.989 . S
N357 C356 1.342 . S
N357 N358 1.388 . S
N358 Co341 1.993 . S
N358 N357 1.388 . S
N358 C359 1.346 . S
C359 N358 1.346 . S
C359 C360 1.396 . S
C359 C369 1.510 . S
C360 C356 1.401 . S
C360 C359 1.396 . S
C361 C356 1.499 . S
C361 H362 0.959 . S
C361 H363 0.960 . S
C361 H364 0.961 . S
H362 C361 0.959 . S
H363 C361 0.960 . S
H364 C361 0.961 . S
O365 Co340 1.967 . S
O365 C373 1.258 . S
O366 Co341 1.941 . S
O366 C373 1.266 . S
H367 C369 0.959 . S
H368 C369 0.961 . S
C369 C359 1.510 . S
C369 H367 0.959 . S
C369 H368 0.961 . S
C369 H370 0.960 . S
H370 C369 0.960 . S
H371 N351 0.862 . S
O372 Co340 1.920 . S
O372 C345 1.289 . S
C373 O365 1.258 . S
C373 O366 1.266 . S
Co374 O377 1.970 . S
Co374 N391 1.989 . S
Co374 O399 1.967 . S
Co374 O406 1.920 . S
Co375 O378 1.966 . S
Co375 N384 2.022 . S
Co375 N392 1.993 . S
Co375 O400 1.941 . S
C376 O377 1.258 . S
C376 O378 1.263 . S
O377 Co374 1.970 . S
O377 C376 1.258 . S
O378 Co375 1.966 . S
O378 C376 1.263 . S
C379 O380 1.235 . S
C379 O406 1.289 . S
O380 C379 1.235 . S
C381 C383 1.400 . S
C381 N384 1.351 . S
C381 C386 1.501 . S
C382 C383 1.387 . S
C382 N385 1.341 . S
C383 C381 1.400 . S
C383 C382 1.387 . S
N384 Co375 2.022 . S
N384 C381 1.351 . S
N384 N385 1.365 . S
N385 C382 1.341 . S
N385 N384 1.365 . S
N385 H405 0.862 . S
C386 C381 1.501 . S
C386 H387 0.961 . S
C386 H388 0.961 . S
C386 H389 0.960 . S
H387 C386 0.961 . S
H388 C386 0.961 . S
H389 C386 0.960 . S
C390 N391 1.342 . S
C390 C394 1.401 . S
C390 C395 1.499 . S
N391 Co374 1.989 . S
N391 C390 1.342 . S
N391 N392 1.388 . S
N392 Co375 1.993 . S
N392 N391 1.388 . S
N392 C393 1.346 . S
C393 N392 1.346 . S
C393 C394 1.396 . S
C393 C403 1.510 . S
C394 C390 1.401 . S
C394 C393 1.396 . S
C395 C390 1.499 . S
C395 H396 0.959 . S
C395 H397 0.960 . S
C395 H398 0.961 . S
H396 C395 0.959 . S
H397 C395 0.960 . S
H398 C395 0.961 . S
O399 Co374 1.967 . S
O399 C407 1.258 . S
O400 Co375 1.941 . S
O400 C407 1.266 . S
H401 C403 0.959 . S
H402 C403 0.961 . S
C403 C393 1.510 . S
C403 H401 0.959 . S
C403 H402 0.961 . S
C403 H404 0.960 . S
H404 C403 0.960 . S
H405 N385 0.862 . S
O406 Co374 1.920 . S
O406 C379 1.289 . S
C407 O399 1.258 . S
C407 O400 1.266 . S
C408 C409 1.387 . S
C408 H412 0.950 . S
C408 C417 1.390 . S
C409 C408 1.387 . S
C409 C411 1.387 . S
H410 C417 0.950 . S
C411 C409 1.387 . S
C411 C413 1.390 . S
C411 H415 0.950 . S
H412 C408 0.950 . S
C413 C411 1.390 . S
C413 C414 1.387 . S
C413 H416 0.950 . S
C414 C413 1.387 . S
C414 C417 1.387 . S
H415 C411 0.950 . S
H416 C413 0.950 . S
C417 C408 1.390 . S
C417 H410 0.950 . S
C417 C414 1.387 . S
C418 C419 1.387 . S
C418 H422 0.950 . S
C418 C427 1.390 . S
C419 C418 1.387 . S
C419 C421 1.387 . S
H420 C427 0.950 . S
C421 C419 1.387 . S
C421 C423 1.390 . S
C421 H425 0.950 1_554 S
H422 C418 0.950 . S
C423 C421 1.390 . S
C423 C424 1.387 . S
C423 H426 0.950 . S
C424 C423 1.387 . S
C424 C427 1.387 . S
H425 C421 0.950 1_556 S
H426 C423 0.950 . S
C427 C418 1.390 . S
C427 H420 0.950 . S
C427 C424 1.387 . S
C428 C429 1.387 . S
C428 H432 0.950 . S
C428 C437 1.390 . S
C429 C428 1.387 . S
C429 C431 1.387 . S
H430 C437 0.950 . S
C431 C429 1.387 . S
C431 C433 1.390 . S
C431 H435 0.950 . S
H432 C428 0.950 . S
C433 C431 1.390 . S
C433 C434 1.387 . S
C433 H436 0.950 . S
C434 C433 1.387 . S
C434 C437 1.387 . S
H435 C431 0.950 . S
H436 C433 0.950 . S
C437 C428 1.390 . S
C437 H430 0.950 . S
C437 C434 1.387 . S
C438 C439 1.387 . S
C438 H442 0.950 . S
C438 C447 1.390 . S
C439 C438 1.387 . S
C439 C441 1.387 . S
H440 C447 0.950 . S
C441 C439 1.387 . S
C441 C443 1.390 . S
C441 H445 0.950 . S
H442 C438 0.950 . S
C443 C441 1.390 . S
C443 C444 1.387 . S
C443 H446 0.950 . S
C444 C443 1.387 . S
C444 C447 1.387 . S
H445 C441 0.950 . S
H446 C443 0.950 . S
C447 C438 1.390 . S
C447 H440 0.950 . S
C447 C444 1.387 . S
C448 C449 1.387 . S
C448 H452 0.950 . S
C448 C457 1.390 . S
C449 C448 1.387 . S
C449 C451 1.387 . S
H450 C457 0.950 . S
C451 C449 1.387 . S
C451 C453 1.390 . S
C451 H455 0.950 . S
H452 C448 0.950 . S
C453 C451 1.390 . S
C453 C454 1.387 . S
C453 H456 0.950 . S
C454 C453 1.387 . S
C454 C457 1.387 . S
H455 C451 0.950 . S
H456 C453 0.950 . S
C457 C448 1.390 . S
C457 H450 0.950 . S
C457 C454 1.387 . S
C458 C459 1.387 . S
C458 H462 0.950 . S
C458 C467 1.390 . S
C459 C458 1.387 . S
C459 C461 1.387 . S
H460 C467 0.950 . S
C461 C459 1.387 . S
C461 C463 1.390 . S
C461 H465 0.950 . S
H462 C458 0.950 . S
C463 C461 1.390 . S
C463 C464 1.387 . S
C463 H466 0.950 . S
C464 C463 1.387 . S
C464 C467 1.387 . S
H465 C461 0.950 . S
H466 C463 0.950 . S
C467 C458 1.390 . S
C467 H460 0.950 . S
C467 C464 1.387 . S
C468 C469 1.387 . S
C468 H472 0.950 . S
C468 C477 1.390 . S
C469 C468 1.387 . S
C469 C471 1.387 . S
H470 C477 0.950 . S
C471 C469 1.387 . S
C471 C473 1.390 . S
C471 H475 0.950 . S
H472 C468 0.950 . S
C473 C471 1.390 . S
C473 C474 1.387 . S
C473 H476 0.950 . S
C474 C473 1.387 . S
C474 C477 1.387 . S
H475 C471 0.950 . S
H476 C473 0.950 . S
C477 C468 1.390 . S
C477 H470 0.950 . S
C477 C474 1.387 . S
C478 C479 1.387 . S
C478 H482 0.950 . S
C478 C487 1.390 . S
C479 C478 1.387 . S
C479 C481 1.387 . S
H480 C487 0.950 . S
C481 C479 1.387 . S
C481 C483 1.390 . S
C481 H485 0.950 . S
H482 C478 0.950 . S
C483 C481 1.390 . S
C483 C484 1.387 . S
C483 H486 0.950 . S
C484 C483 1.387 . S
C484 C487 1.387 . S
H485 C481 0.950 . S
H486 C483 0.950 . S
C487 C478 1.390 . S
C487 H480 0.950 . S
C487 C484 1.387 . S
C488 C489 1.387 . S
C488 H492 0.950 . S
C488 C497 1.390 . S
C489 C488 1.387 . S
C489 C491 1.387 . S
H490 C497 0.950 . S
C491 C489 1.387 . S
C491 C493 1.390 . S
C491 H495 0.950 . S
H492 C488 0.950 . S
C493 C491 1.390 . S
C493 C494 1.387 . S
C493 H496 0.950 . S
C494 C493 1.387 . S
C494 C497 1.387 . S
H495 C491 0.950 . S
H496 C493 0.950 . S
C497 C488 1.390 . S
C497 H490 0.950 . S
C497 C494 1.387 . S
C498 C499 1.387 . S
C498 H502 0.950 . S
C498 C507 1.390 . S
C499 C498 1.387 . S
C499 C501 1.387 . S
H500 C507 0.950 . S
C501 C499 1.387 . S
C501 C503 1.390 . S
C501 H505 0.950 . S
H502 C498 0.950 . S
C503 C501 1.390 . S
C503 C504 1.387 . S
C503 H506 0.950 . S
C504 C503 1.387 . S
C504 C507 1.387 . S
H505 C501 0.950 . S
H506 C503 0.950 . S
C507 C498 1.390 . S
C507 H500 0.950 . S
C507 C504 1.387 . S
C508 C509 1.387 . S
C508 H512 0.950 . S
C508 C517 1.390 . S
C509 C508 1.387 . S
C509 C511 1.387 . S
H510 C517 0.950 . S
C511 C509 1.387 . S
C511 C513 1.390 . S
C511 H515 0.950 . S
H512 C508 0.950 . S
C513 C511 1.390 . S
C513 C514 1.387 . S
C513 H516 0.950 . S
C514 C513 1.387 . S
C514 C517 1.387 . S
H515 C511 0.950 . S
H516 C513 0.950 . S
C517 C508 1.390 . S
C517 H510 0.950 . S
C517 C514 1.387 . S
C518 C519 1.387 . S
C518 H522 0.950 . S
C518 C527 1.390 . S
C519 C518 1.387 . S
C519 C521 1.387 . S
H520 C527 0.950 . S
C521 C519 1.387 . S
C521 C523 1.390 . S
C521 H525 0.950 . S
H522 C518 0.950 . S
C523 C521 1.390 . S
C523 C524 1.387 . S
C523 H526 0.950 . S
C524 C523 1.387 . S
C524 C527 1.387 . S
H525 C521 0.950 . S
H526 C523 0.950 . S
C527 C518 1.390 . S
C527 H520 0.950 . S
C527 C524 1.387 . S
C528 C529 1.387 . S
C528 H532 0.950 . S
C528 C537 1.390 . S
C529 C528 1.387 . S
C529 C531 1.387 . S
H530 C537 0.950 . S
C531 C529 1.387 . S
C531 C533 1.390 . S
C531 H535 0.950 . S
H532 C528 0.950 . S
C533 C531 1.390 . S
C533 C534 1.387 . S
C533 H536 0.950 . S
C534 C533 1.387 . S
C534 C537 1.387 . S
H535 C531 0.950 . S
H536 C533 0.950 . S
C537 C528 1.390 . S
C537 H530 0.950 . S
C537 C534 1.387 . S
C538 C539 1.387 . S
C538 H542 0.950 . S
C538 C547 1.390 . S
C539 C538 1.387 . S
C539 C541 1.387 . S
H540 C547 0.950 . S
C541 C539 1.387 . S
C541 C543 1.390 . S
C541 H545 0.950 . S
H542 C538 0.950 . S
C543 C541 1.390 . S
C543 C544 1.387 . S
C543 H546 0.950 . S
C544 C543 1.387 . S
C544 C547 1.387 . S
H545 C541 0.950 . S
H546 C543 0.950 . S
C547 C538 1.390 . S
C547 H540 0.950 . S
C547 C544 1.387 . S
C548 C549 1.387 . S
C548 H552 0.950 . S
C548 C557 1.390 . S
C549 C548 1.387 . S
C549 C551 1.387 . S
H550 C557 0.950 . S
C551 C549 1.387 . S
C551 C553 1.390 . S
C551 H555 0.950 . S
H552 C548 0.950 . S
C553 C551 1.390 . S
C553 C554 1.387 . S
C553 H556 0.950 . S
C554 C553 1.387 . S
C554 C557 1.387 . S
H555 C551 0.950 . S
H556 C553 0.950 . S
C557 C548 1.390 . S
C557 H550 0.950 . S
C557 C554 1.387 . S
C558 C559 1.387 . S
C558 H562 0.950 . S
C558 C567 1.390 . S
C559 C558 1.387 . S
C559 C561 1.387 . S
H560 C567 0.950 . S
C561 C559 1.387 . S
C561 C563 1.390 . S
C561 H565 0.950 . S
H562 C558 0.950 . S
C563 C561 1.390 . S
C563 C564 1.387 . S
C563 H566 0.950 . S
C564 C563 1.387 . S
C564 C567 1.387 . S
H565 C561 0.950 . S
H566 C563 0.950 . S
C567 C558 1.390 . S
C567 H560 0.950 . S
C567 C564 1.387 . S
C568 C569 1.387 . S
C568 H572 0.950 . S
C568 C577 1.390 . S
C569 C568 1.387 . S
C569 C571 1.387 . S
H570 C577 0.950 . S
C571 C569 1.387 . S
C571 C573 1.390 . S
C571 H575 0.950 . S
H572 C568 0.950 . S
C573 C571 1.390 . S
C573 C574 1.387 . S
C573 H576 0.950 . S
C574 C573 1.387 . S
C574 C577 1.387 . S
H575 C571 0.950 . S
H576 C573 0.950 . S
C577 C568 1.390 . S
C577 H570 0.950 . S
C577 C574 1.387 . S
C578 C579 1.387 . S
C578 H582 0.950 . S
C578 C587 1.390 . S
C579 C578 1.387 . S
C579 C581 1.387 . S
H580 C587 0.950 . S
C581 C579 1.387 . S
C581 C583 1.390 . S
C581 H585 0.950 . S
H582 C578 0.950 . S
C583 C581 1.390 . S
C583 C584 1.387 . S
C583 H586 0.950 . S
C584 C583 1.387 . S
C584 C587 1.387 . S
H585 C581 0.950 . S
H586 C583 0.950 . S
C587 C578 1.390 . S
C587 H580 0.950 . S
C587 C584 1.387 . S
C588 C589 1.387 . S
C588 H592 0.950 . S
C588 C597 1.390 . S
C589 C588 1.387 . S
C589 C591 1.387 . S
H590 C597 0.950 . S
C591 C589 1.387 . S
C591 C593 1.390 . S
C591 H595 0.950 . S
H592 C588 0.950 . S
C593 C591 1.390 . S
C593 C594 1.387 . S
C593 H596 0.950 . S
C594 C593 1.387 . S
C594 C597 1.387 . S
H595 C591 0.950 . S
H596 C593 0.950 . S
C597 C588 1.390 . S
C597 H590 0.950 . S
C597 C594 1.387 . S
C598 C599 1.387 1_655 S
C598 H602 0.950 . S
C598 C607 1.390 . S
C599 C598 1.387 1_455 S
C599 C601 1.387 . S
H600 C607 0.950 . S
C601 C599 1.387 . S
C601 C603 1.390 . S
C601 H605 0.950 . S
H602 C598 0.950 . S
C603 C601 1.390 . S
C603 C604 1.387 1_455 S
C603 H606 0.950 . S
C604 C603 1.387 1_655 S
C604 C607 1.387 . S
H605 C601 0.950 . S
H606 C603 0.950 . S
C607 C598 1.390 . S
C607 H600 0.950 . S
C607 C604 1.387 . S
C608 C609 1.387 . S
C608 H612 0.950 . S
C608 C617 1.390 1_565 S
C609 C608 1.387 . S
C609 C611 1.387 . S
H610 C617 0.950 . S
C611 C609 1.387 . S
C611 C613 1.390 1_565 S
C611 H615 0.950 . S
H612 C608 0.950 . S
C613 C611 1.390 1_545 S
C613 C614 1.387 . S
C613 H616 0.950 . S
C614 C613 1.387 . S
C614 C617 1.387 . S
H615 C611 0.950 . S
H616 C613 0.950 . S
C617 C608 1.390 1_545 S
C617 H610 0.950 . S
C617 C614 1.387 . S
C618 C619 1.387 . S
C618 H622 0.950 . S
C618 C627 1.390 . S
C619 C618 1.387 . S
C619 C621 1.387 . S
H620 C627 0.950 . S
C621 C619 1.387 . S
C621 C623 1.390 . S
C621 H625 0.950 . S
H622 C618 0.950 . S
C623 C621 1.390 . S
C623 C624 1.387 . S
C623 H626 0.950 . S
C624 C623 1.387 . S
C624 C627 1.387 . S
H625 C621 0.950 . S
H626 C623 0.950 . S
C627 C618 1.390 . S
C627 H620 0.950 . S
C627 C624 1.387 . S
C628 C629 1.387 1_655 S
C628 H632 0.950 . S
C628 C637 1.390 . S
C629 C628 1.387 1_455 S
C629 C631 1.387 . S
H630 C637 0.950 . S
C631 C629 1.387 . S
C631 C633 1.390 . S
C631 H635 0.950 . S
H632 C628 0.950 . S
C633 C631 1.390 . S
C633 C634 1.387 1_455 S
C633 H636 0.950 . S
C634 C633 1.387 1_655 S
C634 C637 1.387 . S
H635 C631 0.950 . S
H636 C633 0.950 . S
C637 C628 1.390 . S
C637 H630 0.950 . S
C637 C634 1.387 . S
C638 C639 1.387 . S
C638 H642 0.950 . S
C638 C647 1.390 1_564 S
C639 C638 1.387 . S
C639 C641 1.387 . S
H640 C647 0.950 . S
C641 C639 1.387 . S
C641 C643 1.390 1_564 S
C641 H645 0.950 . S
H642 C638 0.950 . S
C643 C641 1.390 1_546 S
C643 C644 1.387 . S
C643 H646 0.950 . S
C644 C643 1.387 . S
C644 C647 1.387 . S
H645 C641 0.950 . S
H646 C643 0.950 . S
C647 C638 1.390 1_546 S
C647 H640 0.950 . S
C647 C644 1.387 . S
C648 C649 1.387 . S
C648 H652 0.950 . S
C648 C657 1.390 . S
C649 C648 1.387 . S
C649 C651 1.387 . S
H650 C657 0.950 . S
C651 C649 1.387 . S
C651 C653 1.390 . S
C651 H655 0.950 . S
H652 C648 0.950 . S
C653 C651 1.390 . S
C653 C654 1.387 . S
C653 H656 0.950 . S
C654 C653 1.387 . S
C654 C657 1.387 . S
H655 C651 0.950 . S
H656 C653 0.950 . S
C657 C648 1.390 . S
C657 H650 0.950 . S
C657 C654 1.387 . S
C658 C659 1.387 . S
C658 H662 0.950 . S
C658 C667 1.390 . S
C659 C658 1.387 . S
C659 C661 1.387 . S
H660 C667 0.950 . S
C661 C659 1.387 . S
C661 C663 1.390 . S
C661 H665 0.950 . S
H662 C658 0.950 . S
C663 C661 1.390 . S
C663 C664 1.387 . S
C663 H666 0.950 . S
C664 C663 1.387 . S
C664 C667 1.387 . S
H665 C661 0.950 . S
H666 C663 0.950 . S
C667 C658 1.390 . S
C667 H660 0.950 . S
C667 C664 1.387 . S
C668 C669 1.387 . S
C668 H672 0.950 . S
C668 C677 1.390 . S
C669 C668 1.387 . S
C669 C671 1.387 . S
H670 C677 0.950 . S
C671 C669 1.387 . S
C671 C673 1.390 . S
C671 H675 0.950 . S
H672 C668 0.950 . S
C673 C671 1.390 . S
C673 C674 1.387 . S
C673 H676 0.950 . S
C674 C673 1.387 . S
C674 C677 1.387 . S
H675 C671 0.950 . S
H676 C673 0.950 . S
C677 C668 1.390 . S
C677 H670 0.950 . S
C677 C674 1.387 . S
C678 C679 1.387 . S
C678 H682 0.950 . S
C678 C687 1.390 . S
C679 C678 1.387 . S
C679 C681 1.387 . S
H680 C687 0.950 . S
C681 C679 1.387 . S
C681 C683 1.390 . S
C681 H685 0.950 . S
H682 C678 0.950 . S
C683 C681 1.390 . S
C683 C684 1.387 . S
C683 H686 0.950 . S
C684 C683 1.387 . S
C684 C687 1.387 . S
H685 C681 0.950 . S
H686 C683 0.950 . S
C687 C678 1.390 . S
C687 H680 0.950 . S
C687 C684 1.387 . S
C688 C689 1.387 . S
C688 H692 0.950 . S
C688 C697 1.390 . S
C689 C688 1.387 . S
C689 C691 1.387 . S
H690 C697 0.950 . S
C691 C689 1.387 . S
C691 C693 1.390 . S
C691 H695 0.950 . S
H692 C688 0.950 . S
C693 C691 1.390 . S
C693 C694 1.387 . S
C693 H696 0.950 . S
C694 C693 1.387 . S
C694 C697 1.387 . S
H695 C691 0.950 . S
H696 C693 0.950 . S
C697 C688 1.390 . S
C697 H690 0.950 . S
C697 C694 1.387 . S
C698 C699 1.387 . S
C698 H702 0.950 . S
C698 C707 1.390 . S
C699 C698 1.387 . S
C699 C701 1.387 . S
H700 C707 0.950 . S
C701 C699 1.387 . S
C701 C703 1.390 . S
C701 H705 0.950 . S
H702 C698 0.950 . S
C703 C701 1.390 . S
C703 C704 1.387 . S
C703 H706 0.950 . S
C704 C703 1.387 . S
C704 C707 1.387 . S
H705 C701 0.950 . S
H706 C703 0.950 . S
C707 C698 1.390 . S
C707 H700 0.950 . S
C707 C704 1.387 . S
C409 C172 1.433 . S
C414 C5 1.426 . S
C419 C2 1.432 . S
C424 C39 1.424 1_455 S
C429 C36 1.433 . S
C434 C73 1.426 1_545 S
C439 C107 1.424 . S
C444 C70 1.432 . S
C449 C141 1.424 1_655 S
C454 C104 1.432 . S
C459 C138 1.433 . S
C464 C175 1.425 1_565 S
C469 C240 1.433 . S
C474 C209 1.426 . S
C479 C274 1.433 . S
C484 C243 1.426 1_455 S
C489 C308 1.433 . S
C494 C277 1.425 1_545 S
C499 C342 1.432 . S
C504 C311 1.424 . S
C509 C376 1.433 . S
C514 C345 1.426 1_655 S
C519 C206 1.433 . S
C524 C379 1.424 1_565 S
C529 C281 1.268 . S
C534 C9 1.271 . S
C539 C43 1.269 . S
C544 C315 1.269 . S
C549 C77 1.271 . S
C554 C349 1.268 . S
C559 C111 1.271 . S
C564 C383 1.268 . S
C569 C145 1.269 . S
C574 C213 1.269 . S
C579 C247 1.268 . S
C584 C179 1.271 . S
C589 C339 1.524 . S
C594 C33 1.524 . S
C599 C373 1.524 . S
C604 C67 1.524 . S
C609 C101 1.524 . S
C614 C407 1.524 . S
C619 C135 1.524 . S
C624 C237 1.524 . S
C629 C169 1.524 . S
C634 C271 1.524 . S
C639 C305 1.524 . S
C644 C203 1.524 . S
C649 C20 1.682 . S
C654 C224 1.681 . S
C659 C258 1.682 . S
C664 C54 1.682 . S
C669 C88 1.681 . S
C674 C292 1.681 . S
C679 C326 1.682 . S
C684 C122 1.682 . S
C689 C360 1.682 . S
C694 C156 1.683 . S
C699 C394 1.683 . S
C704 C190 1.683 . S
