# Generated by pormake.
# Topology wjh, (4)-cn, num edge types: 1
# Building blocks:
#     Node 0, Type 0, BuildingBlock: TATPOV_clean_sbu_0, # of connection points: 4
#     Node 1, Type 0, BuildingBlock: TATPOV_clean_sbu_0, # of connection points: 4
#     Node 2, Type 0, BuildingBlock: TATPOV_clean_sbu_0, # of connection points: 4
#     Node 3, Type 0, BuildingBlock: TATPOV_clean_sbu_0, # of connection points: 4
#     Node 4, Type 0, BuildingBlock: TATPOV_clean_sbu_0, # of connection points: 4
#     Node 5, Type 0, BuildingBlock: TATPOV_clean_sbu_0, # of connection points: 4
#     Node 6, Type 0, BuildingBlock: TATPOV_clean_sbu_0, # of connection points: 4
#     Node 7, Type 0, BuildingBlock: TATPOV_clean_sbu_0, # of connection points: 4
#     Node 8, Type 0, BuildingBlock: TATPOV_clean_sbu_0, # of connection points: 4
#     Node 9, Type 0, BuildingBlock: TATPOV_clean_sbu_0, # of connection points: 4
#     Node 10, Type 0, BuildingBlock: TATPOV_clean_sbu_0, # of connection points: 4
#     Node 11, Type 0, BuildingBlock: TATPOV_clean_sbu_0, # of connection points: 4
#     Edge 12, Type (0, 0), BuildingBlock: ZUJKAS_clean_linker_0, # of connection points: 2
#     Edge 13, Type (0, 0), BuildingBlock: ZUJKAS_clean_linker_0, # of connection points: 2
#     Edge 14, Type (0, 0), BuildingBlock: ZUJKAS_clean_linker_0, # of connection points: 2
#     Edge 15, Type (0, 0), BuildingBlock: ZUJKAS_clean_linker_0, # of connection points: 2
#     Edge 16, Type (0, 0), BuildingBlock: ZUJKAS_clean_linker_0, # of connection points: 2
#     Edge 17, Type (0, 0), BuildingBlock: ZUJKAS_clean_linker_0, # of connection points: 2
#     Edge 18, Type (0, 0), BuildingBlock: ZUJKAS_clean_linker_0, # of connection points: 2
#     Edge 19, Type (0, 0), BuildingBlock: ZUJKAS_clean_linker_0, # of connection points: 2
#     Edge 20, Type (0, 0), BuildingBlock: ZUJKAS_clean_linker_0, # of connection points: 2
#     Edge 21, Type (0, 0), BuildingBlock: ZUJKAS_clean_linker_0, # of connection points: 2
#     Edge 22, Type (0, 0), BuildingBlock: ZUJKAS_clean_linker_0, # of connection points: 2
#     Edge 23, Type (0, 0), BuildingBlock: ZUJKAS_clean_linker_0, # of connection points: 2
#     Edge 24, Type (0, 0), BuildingBlock: ZUJKAS_clean_linker_0, # of connection points: 2
#     Edge 25, Type (0, 0), BuildingBlock: ZUJKAS_clean_linker_0, # of connection points: 2
#     Edge 26, Type (0, 0), BuildingBlock: ZUJKAS_clean_linker_0, # of connection points: 2
#     Edge 27, Type (0, 0), BuildingBlock: ZUJKAS_clean_linker_0, # of connection points: 2
#     Edge 28, Type (0, 0), BuildingBlock: ZUJKAS_clean_linker_0, # of connection points: 2
#     Edge 29, Type (0, 0), BuildingBlock: ZUJKAS_clean_linker_0, # of connection points: 2
#     Edge 30, Type (0, 0), BuildingBlock: ZUJKAS_clean_linker_0, # of connection points: 2
#     Edge 31, Type (0, 0), BuildingBlock: ZUJKAS_clean_linker_0, # of connection points: 2
#     Edge 32, Type (0, 0), BuildingBlock: ZUJKAS_clean_linker_0, # of connection points: 2
#     Edge 33, Type (0, 0), BuildingBlock: ZUJKAS_clean_linker_0, # of connection points: 2
#     Edge 34, Type (0, 0), BuildingBlock: ZUJKAS_clean_linker_0, # of connection points: 2
#     Edge 35, Type (0, 0), BuildingBlock: ZUJKAS_clean_linker_0, # of connection points: 2
# Relax obj value: 0.159
# Max RMSD: 0.152
# Mean RMSD: 0.151
data_MOF--net-wjh--node1-TATPOV_clean_sbu_0--edge1-ZUJKAS_clean_linker_0
_symmetry_space_group_name_H-M    P1
_symmetry_Int_Tables_number       1
_symmetry_cell_setting            triclinic
loop_
_symmetry_equiv_pos_as_xyz
'x, y, z'
_cell_length_a     80.976061
_cell_length_b     81.413708
_cell_length_c     32.831915
_cell_angle_alpha  90.03688
_cell_angle_beta   90.085459
_cell_angle_gamma 120.38837
loop_
_atom_site_label
_atom_site_type_symbol
_atom_site_fract_x
_atom_site_fract_y
_atom_site_fract_z
_atom_type_partial_charge
Zn0 Zn 0.44451 0.11614 0.08431 0.0
Zn1 Zn 0.47033 0.11776 0.03352 0.0
O2 O 0.47166 0.14388 0.02975 0.0
O3 O 0.44728 0.14064 0.06561 0.0
O4 O 0.48737 0.11829 0.9875 0.0
O5 O 0.42333 0.09147 0.0641 0.0
O6 O 0.44515 0.09199 0.0235 0.0
C7 C 0.4616 0.15069 0.04327 0.0
C8 C 0.47732 0.11655 0.12293 0.0
O9 O 0.48298 0.11686 0.08657 0.0
O10 O 0.46178 0.11634 0.12941 0.0
C11 C 0.50139 0.13353 0.97338 0.0
O12 O 0.5058 0.14991 0.99017 0.0
C13 C 0.42807 0.08349 0.03733 0.0
Zn14 Zn 0.31195 0.45375 0.25318 0.0
Zn15 Zn 0.33661 0.47906 0.20166 0.0
O16 O 0.31282 0.4823 0.2007 0.0
O17 O 0.29102 0.45855 0.23707 0.0
O18 O 0.35296 0.49578 0.15522 0.0
O19 O 0.31341 0.43192 0.23034 0.0
O20 O 0.33519 0.45332 0.18965 0.0
C21 C 0.29595 0.47311 0.21531 0.0
C22 C 0.34652 0.48506 0.2905 0.0
O23 O 0.35148 0.49081 0.25404 0.0
O24 O 0.33067 0.47004 0.29752 0.0
C25 C 0.34488 0.49401 0.12091 0.0
O26 O 0.32645 0.48178 0.1175 0.0
C27 C 0.3258 0.43624 0.20277 0.0
Zn28 Zn 0.84174 0.32224 0.43162 0.0
Zn29 Zn 0.8424 0.34496 0.37475 0.0
O30 O 0.81603 0.32012 0.3697 0.0
O31 O 0.81809 0.29976 0.41035 0.0
O32 O 0.84313 0.3601 0.32507 0.0
O33 O 0.86732 0.32604 0.41908 0.0
O34 O 0.86811 0.34502 0.37054 0.0
C35 C 0.80879 0.30344 0.38466 0.0
C36 C 0.8408 0.35537 0.46195 0.0
O37 O 0.84239 0.3601 0.42453 0.0
O38 O 0.83976 0.33985 0.47215 0.0
C39 C 0.83327 0.36821 0.32193 0.0
O40 O 0.82229 0.36716 0.35245 0.0
C41 C 0.87612 0.33738 0.39024 0.0
Zn42 Zn 0.49501 0.8472 0.60522 0.0
Zn43 Zn 0.47152 0.84444 0.54722 0.0
O44 O 0.47109 0.81866 0.54669 0.0
O45 O 0.49426 0.82338 0.58881 0.0
O46 O 0.45595 0.84347 0.49765 0.0
O47 O 0.51632 0.87227 0.58796 0.0
O48 O 0.49697 0.87012 0.53853 0.0
C49 C 0.48126 0.81278 0.56396 0.0
C50 C 0.46063 0.84598 0.63445 0.0
O51 O 0.45677 0.8457 0.5967 0.0
O52 O 0.47574 0.84619 0.64546 0.0
C53 C 0.44323 0.82821 0.48062 0.0
O54 O 0.43919 0.81172 0.49614 0.0
C55 C 0.51304 0.87936 0.55695 0.0
Zn56 Zn 0.63111 0.5036 0.76284 0.0
Zn57 Zn 0.60785 0.48021 0.70603 0.0
O58 O 0.63169 0.47705 0.70554 0.0
O59 O 0.65246 0.49952 0.74632 0.0
O60 O 0.59202 0.46468 0.65753 0.0
O61 O 0.62972 0.52589 0.743 0.0
O62 O 0.61029 0.50655 0.69583 0.0
C63 C 0.6482 0.48587 0.72209 0.0
C64 C 0.59569 0.47157 0.79387 0.0
O65 O 0.59163 0.46727 0.75641 0.0
O66 O 0.61154 0.48598 0.80393 0.0
C67 C 0.59243 0.45027 0.64376 0.0
O68 O 0.60307 0.44461 0.6623 0.0
C69 C 0.61892 0.52295 0.71271 0.0
Zn70 Zn 0.10551 0.64328 0.92765 0.0
Zn71 Zn 0.10514 0.62061 0.87159 0.0
O72 O 0.13196 0.64511 0.86935 0.0
O73 O 0.12969 0.66577 0.9086 0.0
O74 O 0.10492 0.60583 0.82161 0.0
O75 O 0.08033 0.64016 0.91366 0.0
O76 O 0.07965 0.62096 0.86576 0.0
C77 C 0.13931 0.6618 0.88447 0.0
C78 C 0.10526 0.60956 0.95857 0.0
O79 O 0.10405 0.6049 0.92113 0.0
O80 O 0.10653 0.62521 0.96853 0.0
C81 C 0.11469 0.59761 0.81894 0.0
O82 O 0.1252 0.59828 0.85014 0.0
C83 C 0.07165 0.62881 0.88467 0.0
Zn84 Zn 0.83601 0.50334 0.82218 0.0
Zn85 Zn 0.83655 0.47984 0.8761 0.0
O86 O 0.80921 0.47601 0.87823 0.0
O87 O 0.81075 0.49914 0.84081 0.0
O88 O 0.83684 0.46391 0.92331 0.0
O89 O 0.86024 0.52566 0.84094 0.0
O90 O 0.86096 0.50623 0.88646 0.0
C91 C 0.80138 0.48496 0.86382 0.0
C92 C 0.83879 0.47189 0.78736 0.0
O93 O 0.83923 0.46739 0.82438 0.0
O94 O 0.83713 0.48619 0.77896 0.0
C95 C 0.83145 0.46631 0.95809 0.0
O96 O 0.82584 0.47882 0.96177 0.0
C97 C 0.86861 0.52269 0.87005 0.0
Zn98 Zn 0.31178 0.84959 0.99636 0.0
Zn99 Zn 0.33556 0.84837 0.04906 0.0
O100 O 0.3106 0.82197 0.05112 0.0
O101 O 0.28961 0.82483 0.01381 0.0
O102 O 0.3514 0.84771 0.09641 0.0
O103 O 0.31496 0.874 0.01635 0.0
O104 O 0.33592 0.87384 0.05873 0.0
C105 C 0.29374 0.81491 0.03658 0.0
C106 C 0.34521 0.85024 0.96046 0.0
O107 O 0.35014 0.84995 0.99724 0.0
O108 O 0.32973 0.84998 0.95274 0.0
C109 C 0.35089 0.83254 0.10799 0.0
O110 O 0.34027 0.81668 0.08768 0.0
C111 C 0.3274 0.88209 0.04396 0.0
Zn112 Zn 0.44258 0.32084 0.15288 0.0
Zn113 Zn 0.46753 0.34415 0.20685 0.0
O114 O 0.46934 0.31959 0.20804 0.0
O115 O 0.44579 0.29907 0.16896 0.0
O116 O 0.48385 0.35985 0.25469 0.0
O117 O 0.4208 0.32303 0.1737 0.0
O118 O 0.44193 0.34372 0.21672 0.0
C119 C 0.45975 0.30303 0.19229 0.0
C120 C 0.47546 0.35487 0.11864 0.0
O121 O 0.48065 0.35929 0.15562 0.0
O122 O 0.46017 0.33948 0.11017 0.0
C123 C 0.49794 0.35873 0.26856 0.0
O124 O 0.50284 0.34745 0.25042 0.0
C125 C 0.42501 0.33507 0.20194 0.0
Zn126 Zn 0.11031 0.46178 0.31804 0.0
Zn127 Zn 0.11118 0.48584 0.37264 0.0
O128 O 0.13832 0.48912 0.37404 0.0
O129 O 0.13571 0.46589 0.33516 0.0
O130 O 0.11153 0.50222 0.41963 0.0
O131 O 0.08637 0.4398 0.33865 0.0
O132 O 0.08684 0.45967 0.38466 0.0
C133 C 0.14558 0.47985 0.35852 0.0
C134 C 0.10759 0.49322 0.28381 0.0
O135 O 0.10802 0.49806 0.32092 0.0
O136 O 0.10868 0.47864 0.27501 0.0
C137 C 0.1167 0.49971 0.45459 0.0
O138 O 0.12186 0.48687 0.45864 0.0
C139 C 0.07872 0.44308 0.36868 0.0
Zn140 Zn 0.62749 0.11442 0.47695 0.0
Zn141 Zn 0.60715 0.1161 0.53608 0.0
O142 O 0.633 0.14186 0.53736 0.0
O143 O 0.65129 0.13771 0.49408 0.0
O144 O 0.59308 0.1168 0.58666 0.0
O145 O 0.62325 0.08903 0.4909 0.0
O146 O 0.60624 0.09009 0.54189 0.0
C147 C 0.64913 0.14798 0.51989 0.0
C148 C 0.59448 0.11639 0.44984 0.0
O149 O 0.59093 0.11583 0.48779 0.0
O150 O 0.60936 0.11641 0.4379 0.0
C151 C 0.59456 0.13208 0.60058 0.0
O152 O 0.6053 0.14815 0.58115 0.0
C153 C 0.61284 0.08126 0.52164 0.0
Zn154 Zn 0.49922 0.63738 0.64415 0.0
Zn155 Zn 0.47754 0.61543 0.70319 0.0
O156 O 0.47584 0.63999 0.7066 0.0
O157 O 0.4976 0.65969 0.66337 0.0
O158 O 0.4633 0.60073 0.75353 0.0
O159 O 0.52149 0.63464 0.65822 0.0
O160 O 0.50363 0.61633 0.70819 0.0
C161 C 0.48499 0.65633 0.68988 0.0
C162 C 0.46493 0.60311 0.61663 0.0
O163 O 0.46205 0.59921 0.65447 0.0
O164 O 0.47937 0.61855 0.60506 0.0
C165 C 0.44532 0.59348 0.75766 0.0
O166 O 0.43544 0.59525 0.72795 0.0
C167 C 0.51931 0.62403 0.68822 0.0
H168 H 0.46863 0.11508 0.20359 0.0
H169 H 0.48791 0.11618 0.26184 0.0
H170 H 0.53122 0.11935 0.1806 0.0
H171 H 0.51211 0.11845 0.12185 0.0
H172 H 0.50094 0.09096 0.28122 0.0
H173 H 0.56099 0.16487 0.25848 0.0
H174 H 0.53807 0.15573 0.23364 0.0
H175 H 0.55521 0.14984 0.21439 0.0
C176 C 0.48227 0.11605 0.19798 0.0
C177 C 0.48888 0.11676 0.15802 0.0
C178 C 0.49324 0.11666 0.23136 0.0
C179 C 0.51106 0.11812 0.22544 0.0
C180 C 0.51763 0.11858 0.1857 0.0
H181 H 0.59878 0.11811 0.36751 0.0
H182 H 0.5775 0.11884 0.31614 0.0
C183 C 0.50665 0.11795 0.1522 0.0
C184 C 0.52259 0.11879 0.26096 0.0
H185 H 0.56582 0.14612 0.30736 0.0
C186 C 0.51506 0.10307 0.28725 0.0
C187 C 0.5409 0.1347 0.26872 0.0
C188 C 0.54924 0.15233 0.24258 0.0
C189 C 0.52575 0.1025 0.32031 0.0
C190 C 0.54427 0.1182 0.32742 0.0
C191 C 0.55159 0.13412 0.30172 0.0
C192 C 0.55691 0.11784 0.35941 0.0
C193 C 0.51748 0.08486 0.34643 0.0
C194 C 0.55239 0.11718 0.40087 0.0
C195 C 0.56457 0.11672 0.43058 0.0
C196 C 0.58144 0.11699 0.41911 0.0
C197 C 0.5859 0.11784 0.37749 0.0
C198 C 0.57378 0.11829 0.348 0.0
H199 H 0.50453 0.07274 0.33244 0.0
H200 H 0.52826 0.08048 0.35172 0.0
H201 H 0.51341 0.08795 0.37648 0.0
H202 H 0.53953 0.1171 0.4102 0.0
H203 H 0.56079 0.11616 0.46238 0.0
H204 H 0.3407 0.47584 0.37119 0.0
H205 H 0.35984 0.49492 0.4289 0.0
H206 H 0.39923 0.5383 0.34656 0.0
H207 H 0.38007 0.51938 0.28841 0.0
H208 H 0.39918 0.50913 0.44679 0.0
H209 H 0.38242 0.56683 0.42532 0.0
H210 H 0.3688 0.54382 0.40113 0.0
H211 H 0.39161 0.56133 0.38081 0.0
C212 C 0.35345 0.48942 0.36523 0.0
C213 C 0.35879 0.49617 0.32516 0.0
C214 C 0.36436 0.50027 0.39829 0.0
C215 C 0.38072 0.51809 0.39191 0.0
C216 C 0.38642 0.52469 0.35202 0.0
H217 H 0.46754 0.60769 0.53434 0.0
H218 H 0.44608 0.58595 0.48256 0.0
C219 C 0.37552 0.51383 0.31886 0.0
C220 C 0.39178 0.52982 0.4271 0.0
H221 H 0.40652 0.57247 0.47382 0.0
C222 C 0.40071 0.52292 0.45298 0.0
C223 C 0.39354 0.54769 0.4351 0.0
C224 C 0.38346 0.55533 0.40939 0.0
C225 C 0.41202 0.53382 0.48591 0.0
C226 C 0.41413 0.5519 0.4933 0.0
C227 C 0.40484 0.55858 0.46795 0.0
C228 C 0.42694 0.5647 0.52547 0.0
C229 C 0.42215 0.52625 0.51163 0.0
C230 C 0.42317 0.55996 0.56684 0.0
C231 C 0.43547 0.5724 0.59677 0.0
C232 C 0.45167 0.58977 0.58562 0.0
C233 C 0.45524 0.59443 0.54407 0.0
C234 C 0.44298 0.58204 0.51436 0.0
H235 H 0.42192 0.51378 0.49727 0.0
H236 H 0.43727 0.53749 0.51704 0.0
H237 H 0.41496 0.52175 0.54166 0.0
H238 H 0.41066 0.54673 0.57596 0.0
H239 H 0.43229 0.56844 0.6285 0.0
H240 H 0.83924 0.43847 0.79233 0.0
H241 H 0.84011 0.41929 0.73566 0.0
H242 H 0.84139 0.46004 0.64999 0.0
H243 H 0.84066 0.47931 0.70602 0.0
H244 H 0.81268 0.40374 0.66984 0.0
H245 H 0.88662 0.45308 0.61523 0.0
H246 H 0.87855 0.45491 0.6654 0.0
H247 H 0.87188 0.46357 0.62176 0.0
C248 C 0.83986 0.44342 0.76144 0.0
C249 C 0.83992 0.46043 0.75371 0.0
C250 C 0.84033 0.43245 0.72917 0.0
C251 C 0.84105 0.43843 0.68881 0.0
C252 C 0.84117 0.45539 0.681 0.0
H253 H 0.8424 0.3897 0.45301 0.0
H254 H 0.84157 0.41 0.50731 0.0
C255 C 0.84065 0.46631 0.71311 0.0
C256 C 0.8409 0.42658 0.65462 0.0
H257 H 0.86717 0.42623 0.5738 0.0
C258 C 0.82461 0.40859 0.64891 0.0
C259 C 0.85642 0.43311 0.62724 0.0
C260 C 0.87445 0.45216 0.63275 0.0
C261 C 0.82336 0.39693 0.61621 0.0
C262 C 0.83898 0.40335 0.58912 0.0
C263 C 0.85521 0.42143 0.59461 0.0
C264 C 0.83916 0.39109 0.55617 0.0
C265 C 0.80523 0.37796 0.61065 0.0
C266 C 0.83834 0.37395 0.56588 0.0
C267 C 0.83879 0.36238 0.53517 0.0
C268 C 0.84024 0.36781 0.49405 0.0
C269 C 0.84123 0.38511 0.48436 0.0
C270 C 0.84077 0.39671 0.51527 0.0
H271 H 0.79289 0.37758 0.62632 0.0
H272 H 0.80166 0.37471 0.57787 0.0
H273 H 0.80729 0.36659 0.62391 0.0
H274 H 0.83752 0.36958 0.59733 0.0
H275 H 0.83811 0.34922 0.5438 0.0
H276 H 0.46464 0.84535 0.71666 0.0
H277 H 0.44406 0.84633 0.76936 0.0
H278 H 0.40717 0.84858 0.67741 0.0
H279 H 0.42767 0.84737 0.62395 0.0
H280 H 0.43515 0.87517 0.78175 0.0
H281 H 0.37021 0.80464 0.75267 0.0
H282 H 0.39343 0.81099 0.73256 0.0
H283 H 0.37967 0.82019 0.70942 0.0
C284 C 0.45212 0.84597 0.70744 0.0
C285 C 0.44778 0.84625 0.66603 0.0
C286 C 0.44039 0.84655 0.73768 0.0
C287 C 0.42405 0.84736 0.72723 0.0
C288 C 0.41959 0.84766 0.686 0.0
H289 H 0.33876 0.85135 0.87923 0.0
H290 H 0.35823 0.85147 0.82251 0.0
C291 C 0.43135 0.84705 0.65556 0.0
C292 C 0.41207 0.84836 0.75989 0.0
H293 H 0.36799 0.82377 0.80395 0.0
C294 C 0.42045 0.86396 0.78662 0.0
C295 C 0.39294 0.83369 0.76601 0.0
C296 C 0.3835 0.81633 0.73891 0.0
C297 C 0.41015 0.86532 0.81944 0.0
C298 C 0.39111 0.85052 0.82593 0.0
C299 C 0.38264 0.83505 0.79885 0.0
C300 C 0.37969 0.85083 0.86062 0.0
C301 C 0.41965 0.88266 0.84658 0.0
C302 C 0.3853 0.8503 0.90085 0.0
C303 C 0.37422 0.85026 0.93348 0.0
C304 C 0.35729 0.85063 0.92631 0.0
C305 C 0.35173 0.8511 0.88588 0.0
C306 C 0.36281 0.85114 0.85338 0.0
H307 H 0.43232 0.89469 0.83173 0.0
H308 H 0.40945 0.88742 0.85506 0.0
H309 H 0.42457 0.87906 0.87498 0.0
H310 H 0.39814 0.84971 0.90697 0.0
H311 H 0.37883 0.84979 0.96422 0.0
H312 H 0.46817 0.34928 0.03715 0.0
H313 H 0.48786 0.36935 0.98138 0.0
H314 H 0.52917 0.40873 0.06759 0.0
H315 H 0.50944 0.38877 0.12401 0.0
H316 H 0.51855 0.42572 0.00345 0.0
H317 H 0.53906 0.37446 0.94481 0.0
H318 H 0.51379 0.36483 0.95135 0.0
H319 H 0.52928 0.37259 0.99511 0.0
C320 C 0.48144 0.3622 0.04441 0.0
C321 C 0.48729 0.36738 0.08509 0.0
C322 C 0.4927 0.37359 0.01243 0.0
C323 C 0.51006 0.39031 0.02045 0.0
C324 C 0.51583 0.39577 0.06092 0.0
H325 H 0.59991 0.47777 0.8758 0.0
H326 H 0.5782 0.45815 0.92956 0.0
C327 C 0.50456 0.38436 0.09305 0.0
C328 C 0.52208 0.40214 0.98642 0.0
H329 H 0.54774 0.40175 0.90447 0.0
C330 C 0.52501 0.42054 0.98185 0.0
C331 C 0.53033 0.39522 0.95828 0.0
C332 C 0.52813 0.37576 0.96268 0.0
C333 C 0.53587 0.43222 0.94946 0.0
C334 C 0.54423 0.42535 0.92147 0.0
C335 C 0.5412 0.40689 0.92592 0.0
C336 C 0.55696 0.43742 0.88849 0.0
C337 C 0.5381 0.45169 0.94514 0.0
C338 C 0.55236 0.43201 0.84757 0.0
C339 C 0.56481 0.44317 0.81657 0.0
C340 C 0.58214 0.45981 0.82615 0.0
C341 C 0.58666 0.4651 0.86727 0.0
C342 C 0.57422 0.45397 0.89811 0.0
H343 H 0.5267 0.45271 0.96175 0.0
H344 H 0.55211 0.4625 0.95812 0.0
H345 H 0.53774 0.45524 0.91262 0.0
H346 H 0.53913 0.41916 0.83967 0.0
H347 H 0.56095 0.43869 0.78523 0.0
H348 H 0.1077 0.52692 0.28943 0.0
H349 H 0.10632 0.546 0.23319 0.0
H350 H 0.1032 0.50456 0.14691 0.0
H351 H 0.1044 0.48539 0.20249 0.0
H352 H 0.13272 0.56112 0.16677 0.0
H353 H 0.0583 0.51211 0.11397 0.0
H354 H 0.0668 0.51012 0.16358 0.0
H355 H 0.07287 0.50138 0.11918 0.0
C356 C 0.10656 0.5218 0.25851 0.0
C357 C 0.10613 0.50462 0.25047 0.0
C358 C 0.10579 0.53271 0.22648 0.0
C359 C 0.1044 0.52651 0.18606 0.0
C360 C 0.1039 0.50938 0.17797 0.0
H361 H 0.1032 0.57498 0.95016 0.0
H362 H 0.10357 0.55461 0.00482 0.0
C363 C 0.10471 0.49851 0.20983 0.0
C364 C 0.10435 0.53834 0.15206 0.0
H365 H 0.07771 0.53863 0.07173 0.0
C366 C 0.12067 0.55628 0.14609 0.0
C367 C 0.08866 0.53183 0.125 0.0
C368 C 0.07058 0.51287 0.13081 0.0
C369 C 0.1218 0.56787 0.11342 0.0
C370 C 0.10604 0.56144 0.08657 0.0
C371 C 0.08977 0.54344 0.09235 0.0
C372 C 0.10584 0.5736 0.05346 0.0
C373 C 0.13995 0.58677 0.10755 0.0
C374 C 0.10669 0.59078 0.06294 0.0
C375 C 0.10649 0.60238 0.03202 0.0
C376 C 0.10529 0.59696 0.99093 0.0
C377 C 0.10418 0.57957 0.98149 0.0
C378 C 0.10439 0.56794 0.0126 0.0
H379 H 0.15231 0.58723 0.12342 0.0
H380 H 0.14345 0.58978 0.07473 0.0
H381 H 0.13795 0.59826 0.12037 0.0
H382 H 0.10742 0.59519 0.09435 0.0
H383 H 0.10724 0.6156 0.04046 0.0
H384 H 0.49699 0.31184 0.19182 0.0
H385 H 0.5083 0.29069 0.16764 0.0
H386 H 0.45029 0.24345 0.16792 0.0
H387 H 0.43889 0.26447 0.19121 0.0
H388 H 0.48535 0.23776 0.19303 0.0
H389 H 0.48692 0.2708 0.04312 0.0
H390 H 0.49772 0.28542 0.08761 0.0
H391 H 0.47218 0.27103 0.08405 0.0
C392 C 0.48678 0.29677 0.18853 0.0
C393 C 0.46705 0.28975 0.1931 0.0
C394 C 0.49325 0.28477 0.17443 0.0
C395 C 0.48006 0.26565 0.16561 0.0
C396 C 0.46064 0.25821 0.17456 0.0
H397 H 0.44055 0.16807 0.04072 0.0
H398 H 0.45138 0.20047 0.06393 0.0
C399 C 0.45415 0.2702 0.18799 0.0
C400 C 0.48554 0.25395 0.14117 0.0
H401 H 0.48611 0.24152 0.04204 0.0
C402 C 0.48623 0.23891 0.1601 0.0
C403 C 0.4865 0.25551 0.09821 0.0
C404 C 0.48581 0.27153 0.07673 0.0
C405 C 0.48658 0.22461 0.13691 0.0
C406 C 0.48606 0.2254 0.09389 0.0
C407 C 0.48666 0.24111 0.07501 0.0
C408 C 0.48113 0.20839 0.06915 0.0
C409 C 0.48593 0.20791 0.15839 0.0
C410 C 0.49455 0.20267 0.06189 0.0
C411 C 0.48842 0.18422 0.04785 0.0
C412 C 0.46879 0.17129 0.04178 0.0
C413 C 0.45574 0.17777 0.04513 0.0
C414 C 0.4619 0.19624 0.05851 0.0
H415 H 0.48639 0.20945 0.19207 0.0
H416 H 0.47264 0.19456 0.14986 0.0
H417 H 0.49826 0.20646 0.14867 0.0
H418 H 0.50945 0.21194 0.06996 0.0
H419 H 0.49874 0.17952 0.04591 0.0
H420 H 0.30667 0.5107 0.21604 0.0
H421 H 0.2867 0.5236 0.23941 0.0
H422 H 0.2373 0.46701 0.23944 0.0
H423 H 0.25713 0.45402 0.2169 0.0
H424 H 0.23394 0.50303 0.21234 0.0
H425 H 0.26562 0.50381 0.36389 0.0
H426 H 0.2806 0.51361 0.31954 0.0
H427 H 0.26513 0.48836 0.32387 0.0
C428 C 0.2914 0.50114 0.21933 0.0
C429 C 0.28342 0.48134 0.21497 0.0
C430 C 0.28008 0.50852 0.23293 0.0
C431 C 0.26066 0.49618 0.2415 0.0
C432 C 0.2523 0.47671 0.23297 0.0
H433 H 0.16329 0.45926 0.36265 0.0
H434 H 0.19606 0.47013 0.34096 0.0
C435 C 0.26362 0.46931 0.22002 0.0
C436 C 0.24948 0.50262 0.26506 0.0
H437 H 0.23663 0.50394 0.36345 0.0
C438 C 0.23489 0.50399 0.2453 0.0
C439 C 0.25081 0.50369 0.30805 0.0
C440 C 0.26635 0.50232 0.3304 0.0
C441 C 0.22068 0.50498 0.26769 0.0
C442 C 0.22111 0.50444 0.31076 0.0
C443 C 0.2365 0.5045 0.33046 0.0
C444 C 0.20382 0.49962 0.33459 0.0
C445 C 0.20435 0.5049 0.2453 0.0
C446 C 0.19785 0.51289 0.34065 0.0
C447 C 0.17918 0.50673 0.35383 0.0
C448 C 0.16631 0.48723 0.36027 0.0
C449 C 0.17298 0.47436 0.35797 0.0
C450 C 0.19165 0.48054 0.34549 0.0
H451 H 0.20613 0.50523 0.21171 0.0
H452 H 0.19063 0.49196 0.25347 0.0
H453 H 0.20333 0.51747 0.25456 0.0
H454 H 0.20712 0.52767 0.33236 0.0
H455 H 0.17428 0.51688 0.35493 0.0
H456 H 0.68746 0.16266 0.51714 0.0
H457 H 0.71069 0.1946 0.49345 0.0
H458 H 0.6675 0.21062 0.49851 0.0
H459 H 0.64414 0.17862 0.52301 0.0
H460 H 0.69386 0.20503 0.41356 0.0
H461 H 0.72538 0.25794 0.53979 0.0
H462 H 0.71929 0.23362 0.54878 0.0
H463 H 0.70064 0.23896 0.54037 0.0
C464 C 0.68316 0.17326 0.51513 0.0
C465 C 0.66404 0.16821 0.52173 0.0
C466 C 0.69639 0.19144 0.50138 0.0
C467 C 0.69066 0.20478 0.4939 0.0
C468 C 0.67211 0.20046 0.50433 0.0
H469 H 0.77939 0.3105 0.38237 0.0
H470 H 0.74606 0.28748 0.4001 0.0
C471 C 0.65886 0.18226 0.51863 0.0
C472 C 0.70315 0.22156 0.46887 0.0
H473 H 0.74096 0.26682 0.4758 0.0
C474 C 0.70388 0.21874 0.42688 0.0
C475 C 0.71595 0.23936 0.48641 0.0
C476 C 0.71538 0.24285 0.53132 0.0
C477 C 0.71812 0.23289 0.40242 0.0
C478 C 0.73197 0.25015 0.4206 0.0
C479 C 0.73026 0.25354 0.46194 0.0
C480 C 0.75011 0.26318 0.39974 0.0
C481 C 0.71888 0.22893 0.35781 0.0
C482 C 0.76309 0.25694 0.39203 0.0
C483 C 0.78207 0.27001 0.38239 0.0
C484 C 0.78829 0.28949 0.37989 0.0
C485 C 0.77485 0.2955 0.38351 0.0
C486 C 0.75588 0.28242 0.39397 0.0
H487 H 0.70453 0.21817 0.34609 0.0
H488 H 0.72442 0.24214 0.3395 0.0
H489 H 0.72863 0.22321 0.35355 0.0
H490 H 0.75898 0.24219 0.39687 0.0
H491 H 0.79222 0.26509 0.38009 0.0
H492 H 0.50501 0.79852 0.56677 0.0
H493 H 0.49622 0.76656 0.58945 0.0
H494 H 0.4365 0.74973 0.58481 0.0
H495 H 0.44523 0.78179 0.56138 0.0
H496 H 0.46992 0.75495 0.66901 0.0
H497 H 0.44557 0.70321 0.54014 0.0
H498 H 0.46381 0.72772 0.53151 0.0
H499 H 0.43979 0.72194 0.54239 0.0
C500 C 0.48998 0.78777 0.5688 0.0
C501 C 0.4758 0.79259 0.56251 0.0
C502 C 0.48498 0.76958 0.58195 0.0
C503 C 0.46576 0.75597 0.58914 0.0
C504 C 0.45141 0.76011 0.57922 0.0
H505 H 0.44843 0.64932 0.69425 0.0
H506 H 0.43826 0.67238 0.67855 0.0
C507 C 0.45641 0.77834 0.56554 0.0
C508 C 0.46143 0.73892 0.613 0.0
H509 H 0.45283 0.69365 0.60249 0.0
C510 C 0.4657 0.74135 0.65478 0.0
C511 C 0.45572 0.72125 0.59432 0.0
C512 C 0.45087 0.71818 0.54961 0.0
C513 C 0.46586 0.72694 0.67778 0.0
C514 C 0.46179 0.70984 0.65831 0.0
C515 C 0.45592 0.70682 0.61733 0.0
C516 C 0.46703 0.69665 0.6772 0.0
C517 C 0.4714 0.7305 0.72215 0.0
C518 C 0.48649 0.70284 0.68305 0.0
C519 C 0.4923 0.68976 0.69149 0.0
C520 C 0.47873 0.67031 0.69468 0.0
C521 C 0.45914 0.66431 0.69257 0.0
C522 C 0.45332 0.67741 0.68329 0.0
H523 H 0.46827 0.7412 0.73536 0.0
H524 H 0.46375 0.71713 0.74004 0.0
H525 H 0.48701 0.73612 0.7251 0.0
H526 H 0.4973 0.7176 0.6779 0.0
H527 H 0.50748 0.69467 0.69261 0.0
H528 H 0.68697 0.50564 0.71933 0.0
H529 H 0.70793 0.49362 0.73993 0.0
H530 H 0.65924 0.43672 0.74716 0.0
H531 H 0.6382 0.44862 0.72514 0.0
H532 H 0.68304 0.45768 0.82465 0.0
H533 H 0.72476 0.4542 0.69418 0.0
H534 H 0.72088 0.47411 0.69423 0.0
H535 H 0.70083 0.4504 0.68867 0.0
C536 C 0.68089 0.49045 0.72339 0.0
C537 C 0.66104 0.47804 0.7206 0.0
C538 C 0.69283 0.4836 0.73523 0.0
C539 C 0.68507 0.46432 0.74508 0.0
C540 C 0.66545 0.45162 0.7393 0.0
H541 H 0.77403 0.44771 0.85597 0.0
H542 H 0.74097 0.436 0.83363 0.0
C543 C 0.65351 0.45841 0.72648 0.0
C544 C 0.69699 0.45862 0.76813 0.0
H545 H 0.73886 0.4585 0.76058 0.0
C546 C 0.69492 0.4572 0.81066 0.0
C547 C 0.7124 0.45803 0.7497 0.0
C548 C 0.71486 0.45912 0.70411 0.0
C549 C 0.70891 0.45696 0.83548 0.0
C550 C 0.72516 0.45803 0.81715 0.0
C551 C 0.72632 0.45765 0.77451 0.0
C552 C 0.74262 0.46319 0.84081 0.0
C553 C 0.70694 0.45687 0.88112 0.0
C554 C 0.75409 0.48212 0.85371 0.0
C555 C 0.77297 0.48889 0.86576 0.0
C556 C 0.78052 0.47672 0.86569 0.0
C557 C 0.76842 0.45729 0.85689 0.0
C558 C 0.74961 0.45061 0.84387 0.0
H559 H 0.69187 0.45148 0.89039 0.0
H560 H 0.71214 0.44797 0.89554 0.0
H561 H 0.71582 0.47163 0.8928 0.0
H562 H 0.74897 0.49206 0.85109 0.0
H563 H 0.7821 0.50395 0.87205 0.0
H564 H 0.15757 0.70032 0.87993 0.0
H565 H 0.19038 0.72205 0.90253 0.0
H566 H 0.20022 0.6749 0.91305 0.0
H567 H 0.16751 0.65312 0.88911 0.0
H568 H 0.20045 0.69804 0.98976 0.0
H569 H 0.2486 0.74055 0.86307 0.0
H570 H 0.22435 0.7358 0.86034 0.0
H571 H 0.22889 0.71645 0.85631 0.0
C572 C 0.16705 0.69475 0.885 0.0
C573 C 0.16008 0.67511 0.88273 0.0
C574 C 0.18574 0.70714 0.89804 0.0
C575 C 0.1976 0.7 0.90955 0.0
C576 C 0.19127 0.68063 0.90396 0.0
H577 H 0.30234 0.78679 0.03068 0.0
H578 H 0.28036 0.75437 0.00627 0.0
C579 C 0.17265 0.66826 0.88999 0.0
C580 C 0.21476 0.71217 0.93428 0.0
H581 H 0.25732 0.75392 0.93005 0.0
C582 C 0.21319 0.70996 0.97677 0.0
C583 C 0.23123 0.72765 0.91714 0.0
C584 C 0.23355 0.73028 0.87166 0.0
C585 C 0.22706 0.72377 0.00269 0.0
C586 C 0.24282 0.73997 0.98554 0.0
C587 C 0.24517 0.74139 0.94306 0.0
C588 C 0.25517 0.75704 0.01017 0.0
C589 C 0.22425 0.72159 0.04815 0.0
C590 C 0.24806 0.76884 0.022 0.0
C591 C 0.26055 0.78738 0.03532 0.0
C592 C 0.2803 0.79424 0.03751 0.0
C593 C 0.28713 0.78173 0.02982 0.0
C594 C 0.27465 0.76328 0.01559 0.0
H595 H 0.21389 0.70664 0.05683 0.0
H596 H 0.2381 0.72626 0.06384 0.0
H597 H 0.21864 0.73075 0.059 0.0
H598 H 0.23307 0.76428 0.01765 0.0
H599 H 0.25499 0.79681 0.04076 0.0
H600 H 0.56999 0.10122 0.64676 0.0
H601 H 0.55399 0.10111 0.71005 0.0
H602 H 0.58117 0.16229 0.70492 0.0
H603 H 0.59691 0.16252 0.64133 0.0
H604 H 0.56941 0.11799 0.78362 0.0
H605 H 0.52554 0.14675 0.72097 0.0
H606 H 0.53764 0.13817 0.68884 0.0
H607 H 0.55064 0.16162 0.71083 0.0
C608 C 0.57247 0.11465 0.65894 0.0
C609 C 0.58465 0.13187 0.63877 0.0
C610 C 0.56333 0.11456 0.69518 0.0
C611 C 0.56612 0.13166 0.71193 0.0
C612 C 0.57842 0.14888 0.6921 0.0
H613 H 0.5294 0.16366 0.93093 0.0
H614 H 0.54543 0.16275 0.8686 0.0
C615 C 0.58751 0.14898 0.65581 0.0
C616 C 0.55654 0.13154 0.75064 0.0
H617 H 0.52681 0.14516 0.79319 0.0
C618 C 0.55999 0.12381 0.78566 0.0
C619 C 0.54423 0.13913 0.75329 0.0
C620 C 0.53912 0.14672 0.71641 0.0
C621 C 0.55182 0.12385 0.82339 0.0
C622 C 0.53972 0.13165 0.82608 0.0
C623 C 0.53618 0.13928 0.79107 0.0
C624 C 0.53054 0.13202 0.8649 0.0
C625 C 0.55653 0.11595 0.86031 0.0
C626 C 0.51681 0.11502 0.8835 0.0
C627 C 0.50756 0.11547 0.91912 0.0
C628 C 0.51185 0.13295 0.9368 0.0
C629 C 0.52577 0.14995 0.91827 0.0
C630 C 0.53494 0.14947 0.88257 0.0
H631 H 0.56924 0.11441 0.85517 0.0
H632 H 0.55926 0.12525 0.88724 0.0
H633 H 0.54416 0.10167 0.86742 0.0
H634 H 0.51299 0.10139 0.87004 0.0
H635 H 0.49688 0.10212 0.93249 0.0
H636 H 0.40692 0.57416 0.77417 0.0
H637 H 0.39109 0.55787 0.83731 0.0
H638 H 0.44585 0.57366 0.89057 0.0
H639 H 0.46186 0.59001 0.82758 0.0
H640 H 0.39376 0.52738 0.87714 0.0
H641 H 0.41975 0.59172 0.97479 0.0
H642 H 0.42001 0.59286 0.91983 0.0
H643 H 0.43768 0.58982 0.94635 0.0
C644 C 0.41563 0.57422 0.79931 0.0
C645 C 0.43568 0.58345 0.79581 0.0
C646 C 0.40654 0.56489 0.83536 0.0
C647 C 0.41731 0.56476 0.86875 0.0
C648 C 0.4373 0.57384 0.86535 0.0
H649 H 0.38388 0.51688 0.11351 0.0
H650 H 0.40191 0.53381 0.05254 0.0
C651 C 0.44641 0.5831 0.82923 0.0
C652 C 0.40754 0.55473 0.90676 0.0
H653 H 0.40161 0.56186 0.00696 0.0
C654 C 0.39545 0.5349 0.90554 0.0
C655 C 0.40991 0.56458 0.9438 0.0
C656 C 0.42242 0.58594 0.94649 0.0
C657 C 0.38572 0.5246 0.94045 0.0
C658 C 0.38773 0.53448 0.97736 0.0
C659 C 0.40004 0.55431 0.97868 0.0
C660 C 0.37683 0.52452 0.0146 0.0
C661 C 0.37364 0.5032 0.93756 0.0
C662 C 0.35675 0.51403 0.01383 0.0
C663 C 0.34644 0.50427 0.04844 0.0
C664 C 0.35598 0.505 0.08484 0.0
C665 C 0.37609 0.51598 0.08595 0.0
C666 C 0.38642 0.52566 0.05113 0.0
H667 H 0.3782 0.49755 0.9118 0.0
H668 H 0.3744 0.4963 0.96612 0.0
H669 H 0.3585 0.4991 0.93221 0.0
H670 H 0.349 0.51337 0.98637 0.0
H671 H 0.33096 0.49614 0.0466 0.0
H672 H 0.84573 0.44213 0.96406 0.0
H673 H 0.84612 0.42457 0.02445 0.0
H674 H 0.81804 0.44834 0.09393 0.0
H675 H 0.81757 0.46588 0.03404 0.0
H676 H 0.86304 0.44068 0.10383 0.0
H677 H 0.78477 0.38979 0.11209 0.0
H678 H 0.79636 0.40289 0.06639 0.0
H679 H 0.79152 0.41441 0.10751 0.0
C680 C 0.83956 0.44355 0.99214 0.0
C681 C 0.83156 0.45538 0.99416 0.0
C682 C 0.83982 0.43354 0.02661 0.0
C683 C 0.8319 0.43499 0.0635 0.0
C684 C 0.82396 0.44679 0.0656 0.0
H685 H 0.81603 0.38915 0.30718 0.0
H686 H 0.81653 0.40543 0.24422 0.0
C687 C 0.82379 0.45688 0.03133 0.0
C688 C 0.83229 0.42457 0.10021 0.0
H689 H 0.80337 0.39063 0.16876 0.0
C690 C 0.85003 0.42962 0.11791 0.0
C691 C 0.81528 0.41023 0.11855 0.0
C692 C 0.79588 0.40384 0.10007 0.0
C693 C 0.85119 0.42109 0.15421 0.0
C694 C 0.83415 0.4068 0.17274 0.0
C695 C 0.81642 0.40161 0.15466 0.0
C696 C 0.83431 0.39719 0.21114 0.0
C697 C 0.87061 0.42794 0.17306 0.0
C698 C 0.84401 0.387 0.21348 0.0
C699 C 0.84387 0.37777 0.24956 0.0
C700 C 0.8338 0.37834 0.28392 0.0
C701 C 0.82395 0.38843 0.28136 0.0
C702 C 0.8242 0.39773 0.24535 0.0
H703 H 0.88142 0.44227 0.16167 0.0
H704 H 0.86998 0.42856 0.20677 0.0
H705 H 0.87557 0.41791 0.16501 0.0
H706 H 0.85152 0.38597 0.18723 0.0
H707 H 0.85146 0.37 0.25032 0.0
H708 H 0.4174 0.79841 0.43359 0.0
H709 H 0.40244 0.79981 0.36995 0.0
H710 H 0.4319 0.86105 0.37852 0.0
H711 H 0.44723 0.85983 0.44178 0.0
H712 H 0.37878 0.81404 0.35434 0.0
H713 H 0.44548 0.85324 0.26395 0.0
H714 H 0.44477 0.84262 0.31264 0.0
H715 H 0.44565 0.86512 0.31015 0.0
C716 C 0.42075 0.8122 0.42195 0.0
C717 C 0.43363 0.82902 0.44272 0.0
C718 C 0.41216 0.81296 0.38553 0.0
C719 C 0.4163 0.83055 0.36902 0.0
C720 C 0.42884 0.84734 0.3901 0.0
H721 H 0.37486 0.86291 0.15631 0.0
H722 H 0.39068 0.86241 0.21957 0.0
C723 C 0.43749 0.8466 0.42646 0.0
C724 C 0.40721 0.83123 0.33015 0.0
H725 H 0.41698 0.84892 0.2332 0.0
C726 C 0.38714 0.8216 0.32781 0.0
C727 C 0.41812 0.84111 0.29551 0.0
C728 C 0.43969 0.85096 0.29541 0.0
C729 C 0.3777 0.82179 0.29203 0.0
C730 C 0.38861 0.83168 0.25746 0.0
C731 C 0.40866 0.84138 0.25978 0.0
C732 C 0.37942 0.832 0.21853 0.0
C733 C 0.35611 0.81168 0.29169 0.0
C734 C 0.36815 0.81512 0.19655 0.0
C735 C 0.35915 0.81536 0.16033 0.0
C736 C 0.36125 0.8325 0.14533 0.0
C737 C 0.37288 0.84946 0.16703 0.0
C738 C 0.38194 0.8492 0.20319 0.0
H739 H 0.35011 0.80866 0.323 0.0
H740 H 0.35101 0.82026 0.2755 0.0
H741 H 0.35041 0.7979 0.27542 0.0
H742 H 0.36629 0.80174 0.20747 0.0
H743 H 0.35037 0.80205 0.14437 0.0
H744 H 0.56756 0.45696 0.59995 0.0
H745 H 0.55065 0.44129 0.537 0.0
H746 H 0.57672 0.4064 0.53876 0.0
H747 H 0.59331 0.42165 0.60203 0.0
H748 H 0.56518 0.44017 0.46298 0.0
H749 H 0.52102 0.36679 0.52233 0.0
H750 H 0.53363 0.38718 0.5554 0.0
H751 H 0.54611 0.37663 0.5318 0.0
C752 C 0.56956 0.44583 0.58714 0.0
C753 C 0.58171 0.44049 0.60621 0.0
C754 C 0.55991 0.43691 0.55111 0.0
C755 C 0.56215 0.42244 0.53346 0.0
C756 C 0.57436 0.41717 0.5523 0.0
H757 H 0.52597 0.35653 0.31052 0.0
H758 H 0.54159 0.37269 0.37405 0.0
C759 C 0.58394 0.426 0.58841 0.0
C760 C 0.55229 0.41333 0.4946 0.0
H761 H 0.52238 0.37028 0.45009 0.0
C762 C 0.55569 0.42491 0.46025 0.0
C763 C 0.53989 0.3934 0.49102 0.0
C764 C 0.53478 0.38029 0.52719 0.0
C765 C 0.54743 0.41705 0.42226 0.0
C766 C 0.53531 0.39712 0.41861 0.0
C767 C 0.53177 0.38555 0.45296 0.0
C768 C 0.52623 0.38792 0.37934 0.0
C769 C 0.55206 0.43006 0.38606 0.0
C770 C 0.51237 0.39111 0.3613 0.0
C771 C 0.50336 0.38185 0.32502 0.0
C772 C 0.50803 0.36921 0.30609 0.0
C773 C 0.52205 0.3662 0.32415 0.0
C774 C 0.53098 0.37539 0.36052 0.0
H775 H 0.56463 0.44442 0.39192 0.0
H776 H 0.555 0.42389 0.35876 0.0
H777 H 0.53958 0.43174 0.3791 0.0
H778 H 0.50831 0.40052 0.37565 0.0
H779 H 0.49259 0.38445 0.31204 0.0
H780 H 0.12997 0.49979 0.53114 0.0
H781 H 0.12931 0.51733 0.59096 0.0
H782 H 0.10269 0.54215 0.51983 0.0
H783 H 0.10327 0.52461 0.45959 0.0
H784 H 0.14603 0.55829 0.59934 0.0
H785 H 0.06704 0.51809 0.62083 0.0
H786 H 0.07928 0.50903 0.59047 0.0
H787 H 0.07552 0.52743 0.57069 0.0
C788 C 0.12395 0.50896 0.52811 0.0
C789 C 0.1166 0.51073 0.49055 0.0
C790 C 0.12361 0.51899 0.56236 0.0
C791 C 0.11576 0.53086 0.55994 0.0
C792 C 0.10857 0.53285 0.52247 0.0
H793 H 0.0973 0.5964 0.74638 0.0
H794 H 0.09801 0.58097 0.68294 0.0
C795 C 0.109 0.52289 0.48805 0.0
C796 C 0.11531 0.54125 0.5967 0.0
H797 H 0.08509 0.54369 0.66572 0.0
C798 C 0.13272 0.55514 0.61387 0.0
C799 C 0.09792 0.53715 0.61542 0.0
C800 C 0.07884 0.52203 0.59873 0.0
C801 C 0.13323 0.56512 0.64923 0.0
C802 C 0.11584 0.56074 0.66855 0.0
C803 C 0.09841 0.54701 0.651 0.0
C804 C 0.11544 0.57006 0.70722 0.0
C805 C 0.15239 0.58051 0.66508 0.0
C806 C 0.12472 0.56881 0.74223 0.0
C807 C 0.12444 0.5777 0.7785 0.0
C808 C 0.11465 0.58784 0.78068 0.0
C809 C 0.10501 0.58874 0.74579 0.0
C810 C 0.10539 0.57993 0.70946 0.0
H811 H 0.16345 0.58595 0.64081 0.0
H812 H 0.15144 0.59264 0.6778 0.0
H813 H 0.15723 0.57455 0.68965 0.0
H814 H 0.13214 0.56086 0.7416 0.0
H815 H 0.13186 0.57657 0.80484 0.0
H816 H 0.43588 0.0583 0.99885 0.0
H817 H 0.41566 0.02358 0.99846 0.0
H818 H 0.37008 0.02801 0.05524 0.0
H819 H 0.39013 0.06263 0.056 0.0
H820 H 0.38154 0.00545 0.09833 0.0
H821 H 0.36734 -0.01516 0.93514 0.0
H822 H 0.39205 0.00091 0.94761 0.0
H823 H 0.37495 0.00865 0.9528 0.0
C824 C 0.42135 0.05192 0.01009 0.0
C825 C 0.41468 0.06321 0.02778 0.0
C826 C 0.40982 0.03207 0.00988 0.0
C827 C 0.39142 0.02328 0.02695 0.0
C828 C 0.38428 0.03456 0.04208 0.0
H829 H 0.31016 0.9023 0.02361 0.0
H830 H 0.32467 0.93685 0.02426 0.0
C831 C 0.39576 0.05435 0.04235 0.0
C832 C 0.3804 0.00243 0.033 0.0
H833 H 0.35941 0.95994 0.98274 0.0
C834 C 0.37657 -0.00453 0.07308 0.0
C835 C 0.37392 -0.01047 1.0 0.0
C836 C 0.3771 -0.0037 0.95642 0.0
C837 C 0.36665 0.97585 0.08106 0.0
C838 C 0.3606 0.96295 0.04807 0.0
C839 C 0.36415 0.96992 0.00798 0.0
C840 C 0.35071 0.94212 0.05416 0.0
C841 C 0.36261 0.96907 0.12461 0.0
C842 C 0.36031 0.93364 0.07218 0.0
C843 C 0.35202 0.91383 0.07203 0.0
C844 C 0.3341 0.90226 0.05346 0.0
C845 C 0.32403 0.9108 0.03795 0.0
C846 C 0.33231 0.93055 0.03815 0.0
H847 H 0.36405 0.98044 0.1456 0.0
H848 H 0.34797 0.95653 0.12762 0.0
H849 H 0.37298 0.96473 0.1343 0.0
H850 H 0.37463 0.94237 0.0843 0.0
H851 H 0.36019 0.90771 0.084 0.0
H852 H 0.38696 0.31705 0.18332 0.0
H853 H 0.36641 0.33098 0.18436 0.0
H854 H 0.41138 0.38135 0.24257 0.0
H855 H 0.43203 0.36747 0.2421 0.0
H856 H 0.37374 0.36983 0.27075 0.0
H857 H 0.37948 0.37431 0.1019 0.0
H858 H 0.37048 0.3509 0.12271 0.0
H859 H 0.39468 0.36924 0.13325 0.0
C860 C 0.39235 0.33092 0.19723 0.0
C861 C 0.41124 0.3413 0.21206 0.0
C862 C 0.38062 0.33888 0.19754 0.0
C863 C 0.38762 0.35737 0.21246 0.0
C864 C 0.40583 0.36712 0.23053 0.0
H865 H 0.3583 0.44292 0.16294 0.0
H866 H 0.37175 0.42195 0.16192 0.0
C867 C 0.41757 0.35912 0.2304 0.0
C868 C 0.3766 0.36714 0.20636 0.0
H869 H 0.35996 0.38468 0.13253 0.0
C870 C 0.3706 0.37299 0.24059 0.0
C871 C 0.37286 0.37148 0.16686 0.0
C872 C 0.37983 0.36633 0.12901 0.0
C873 C 0.36088 0.38308 0.23642 0.0
C874 C 0.35683 0.38711 0.19692 0.0
C875 C 0.36288 0.38131 0.16268 0.0
C876 C 0.34727 0.39832 0.19086 0.0
C877 C 0.35553 0.38982 0.27432 0.0
C878 C 0.32864 0.39151 0.20521 0.0
C879 C 0.32091 0.40343 0.20583 0.0
C880 C 0.33169 0.42232 0.19192 0.0
C881 C 0.34965 0.42848 0.17398 0.0
C882 C 0.35739 0.41655 0.17354 0.0
H883 H 0.3633 0.38919 0.30163 0.0
H884 H 0.35863 0.40468 0.27057 0.0
H885 H 0.33995 0.3806 0.27994 0.0
H886 H 0.32045 0.3773 0.21779 0.0
H887 H 0.30694 0.39817 0.2194 0.0
H888 H 0.05694 0.44423 0.43153 0.0
H889 H 0.02262 0.42252 0.44203 0.0
H890 H 0.02165 0.38821 0.34078 0.0
H891 H 0.05577 0.40906 0.3315 0.0
H892 H -0.00365 0.41788 0.39093 0.0
H893 H -0.01225 0.34703 0.41574 0.0
H894 H 0.01083 0.36853 0.41841 0.0
H895 H 0.00106 0.35722 0.37002 0.0
C896 C 0.0495 0.43171 0.41239 0.0
C897 C 0.05909 0.42844 0.3806 0.0
C898 C 0.02988 0.41935 0.4183 0.0
C899 C 0.01954 0.4036 0.39241 0.0
C900 C 0.02932 0.39989 0.36191 0.0
H901 H 0.90014 0.36054 0.32996 0.0
H902 H 0.93507 0.37543 0.32822 0.0
C903 C 0.0489 0.412 0.35643 0.0
C904 C -0.00168 0.39248 0.39364 0.0
H905 H 0.95996 0.34728 0.38924 0.0
C906 C -0.01161 0.40243 0.39121 0.0
C907 C -0.01211 0.37232 0.39427 0.0
C908 C -0.00253 0.36071 0.40021 0.0
C909 C 0.96837 0.39285 0.3885 0.0
C910 C 0.95803 0.37271 0.38635 0.0
C911 C 0.96791 0.36272 0.38982 0.0
C912 C 0.93685 0.36174 0.38327 0.0
C913 C 0.95858 0.40446 0.38886 0.0
C914 C 0.92621 0.34802 0.41286 0.0
C915 C 0.90631 0.33911 0.4132 0.0
C916 C 0.89663 0.34391 0.38423 0.0
C917 C 0.9072 0.35672 0.35296 0.0
C918 C 0.92716 0.36539 0.35223 0.0
H919 H 0.96787 0.41876 0.40253 0.0
H920 H 0.95533 0.40657 0.35711 0.0
H921 H 0.94497 0.39716 0.40622 0.0
H922 H 0.93333 0.3448 0.43687 0.0
H923 H 0.89864 0.32923 0.43764 0.0
H924 H 0.51142 0.90026 0.49299 0.0
H925 H 0.53177 0.93467 0.48285 0.0
H926 H 0.56518 0.93806 0.58839 0.0
H927 H 0.54568 0.90391 0.59757 0.0
H928 H 0.53439 0.96079 0.53308 0.0
H929 H 0.60708 0.97204 0.51385 0.0
H930 H 0.58598 0.9487 0.51081 0.0
H931 H 0.59641 0.95896 0.55956 0.0
C932 C 0.52345 0.90828 0.51328 0.0
C933 C 0.52689 0.89933 0.5461 0.0
C934 C 0.53501 0.92794 0.50758 0.0
C935 C 0.55014 0.93894 0.53463 0.0
C936 C 0.55398 0.92988 0.56644 0.0
H937 H 0.58994 0.05866 0.58401 0.0
H938 H 0.57572 0.02409 0.59027 0.0
C939 C 0.54265 0.91028 0.57182 0.0
C940 C 0.56059 0.96002 0.53253 0.0
H941 H 0.60529 -0.00063 0.53556 0.0
C942 C 0.5499 0.96923 0.53308 0.0
C943 C 0.58083 0.97104 0.53234 0.0
C944 C 0.5932 0.96214 0.52866 0.0
C945 C 0.55884 -0.01086 0.53402 0.0
C946 C 0.57907 0.00013 0.53612 0.0
C947 C 0.58978 -0.00907 0.5349 0.0
C948 C 0.58943 0.02123 0.53628 0.0
C949 C 0.5465 -0.00188 0.53171 0.0
C950 C 0.60284 0.0312 0.50565 0.0
C951 C 0.61133 0.05089 0.50268 0.0
C952 C 0.60643 0.06106 0.53003 0.0
C953 C 0.59385 0.05122 0.56223 0.0
C954 C 0.58556 0.03145 0.56556 0.0
H955 H 0.5321 -0.01189 0.51897 0.0
H956 H 0.54447 0.00214 0.56281 0.0
H957 H 0.55328 0.01114 0.51257 0.0
H958 H 0.60619 0.02367 0.48293 0.0
H959 H 0.62105 0.05798 0.47761 0.0
H960 H 0.59671 0.52256 0.649 0.0
H961 H 0.58401 0.54394 0.63953 0.0
H962 H 0.61627 0.5768 0.74394 0.0
H963 H 0.62964 0.55625 0.75234 0.0
H964 H 0.56146 0.54694 0.69094 0.0
H965 H 0.6241 0.61893 0.67151 0.0
H966 H 0.62589 0.59779 0.66749 0.0
H967 H 0.62673 0.6081 0.71663 0.0
C968 C 0.60156 0.53471 0.6691 0.0
C969 C 0.61411 0.53763 0.70151 0.0
C970 C 0.59424 0.54688 0.66376 0.0
C971 C 0.59928 0.56209 0.69085 0.0
C972 C 0.61253 0.56553 0.72196 0.0
H973 H 0.52038 0.60165 0.74968 0.0
H974 H 0.54123 0.58799 0.75336 0.0
C975 C 0.62006 0.5536 0.72691 0.0
C976 C 0.58894 0.5728 0.69005 0.0
H977 H 0.59522 0.61747 0.69563 0.0
C978 C 0.56886 0.56238 0.69139 0.0
C979 C 0.59855 0.59294 0.69046 0.0
C980 C 0.62 0.60505 0.68599 0.0
C981 C 0.55813 0.57148 0.69378 0.0
C982 C 0.56777 0.59158 0.69664 0.0
C983 C 0.58785 0.60205 0.69447 0.0
C984 C 0.5572 0.60203 0.69887 0.0
C985 C 0.53656 0.55941 0.69221 0.0
C986 C 0.56026 0.61554 0.66896 0.0
C987 C 0.54876 0.62373 0.66744 0.0
C988 C 0.5338 0.61839 0.69557 0.0
C989 C 0.53162 0.60587 0.72729 0.0
C990 C 0.54339 0.59791 0.72916 0.0
H991 H 0.53178 0.5452 0.67856 0.0
H992 H 0.53079 0.55711 0.72363 0.0
H993 H 0.53027 0.56646 0.67424 0.0
H994 H 0.57096 0.61911 0.64553 0.0
H995 H 0.55097 0.63343 0.64273 0.0
H996 H 0.04917 0.6377 0.93013 0.0
H997 H 0.0145 0.6221 0.92899 0.0
H998 H 0.01274 0.59023 0.82237 0.0
H999 H 0.04767 0.60514 0.82461 0.0
H1000 H -0.0123 0.61885 0.88111 0.0
H1001 H -0.01976 0.54769 0.89801 0.0
H1002 H 0.00309 0.56938 0.90095 0.0
H1003 H -0.00748 0.55944 0.85217 0.0
C1004 C 0.04151 0.62755 0.90603 0.0
C1005 C 0.0512 0.62239 0.87788 0.0
C1006 C 0.02161 0.61863 0.90546 0.0
C1007 C 0.01095 0.60454 0.87643 0.0
C1008 C 0.02065 0.60056 0.846 0.0
H1009 H 0.8909 0.55598 0.82994 0.0
H1010 H 0.92519 0.5769 0.83628 0.0
C1011 C 0.04062 0.60925 0.847 0.0
C1012 C -0.01023 0.59349 0.87963 0.0
H1013 H 0.95163 0.54831 0.88682 0.0
C1014 C -0.02019 0.60342 0.88252 0.0
C1015 C -0.02048 0.57338 0.88281 0.0
C1016 C -0.0106 0.56186 0.88379 0.0
C1017 C 0.95988 0.5938 0.88767 0.0
C1018 C 0.94952 0.57365 0.88828 0.0
C1019 C 0.95953 0.56375 0.88617 0.0
C1020 C 0.92829 0.56242 0.88846 0.0
C1021 C 0.95027 0.60542 0.89318 0.0
C1022 C 0.91844 0.54712 0.91559 0.0
C1023 C 0.89871 0.53471 0.91138 0.0
C1024 C 0.8885 0.53748 0.8801 0.0
C1025 C 0.89824 0.55345 0.85458 0.0
C1026 C 0.91793 0.5656 0.85835 0.0
H1027 H 0.96015 0.61938 0.90763 0.0
H1028 H 0.94622 0.60835 0.8629 0.0
H1029 H 0.9372 0.59786 0.91219 0.0
H1030 H 0.92615 0.54437 0.93905 0.0
H1031 H 0.89163 0.52254 0.93149 0.0
loop_
_geom_bond_atom_site_label_1
_geom_bond_atom_site_label_2
_geom_bond_distance
_geom_bond_site_symmetry_2
_ccdc_geom_bond_type
Zn0 O3 2.031 . S
Zn0 O5 2.049 . S
Zn0 O10 2.067 . S
Zn1 O2 1.962 . S
Zn1 O4 1.986 1_554 S
Zn1 O6 1.996 . S
Zn1 O9 1.943 . S
O2 Zn1 1.962 . S
O2 C7 1.254 . S
O3 Zn0 2.031 . S
O3 C7 1.269 . S
O4 Zn1 1.986 1_556 S
O4 C11 1.262 . S
O5 Zn0 2.049 . S
O5 C13 1.260 . S
O6 Zn1 1.996 . S
O6 C13 1.257 . S
C7 O2 1.254 . S
C7 O3 1.269 . S
C8 O9 1.249 . S
C8 O10 1.270 . S
O9 Zn1 1.943 . S
O9 C8 1.249 . S
O10 Zn0 2.067 . S
O10 C8 1.270 . S
C11 O4 1.262 . S
C11 O12 1.232 . S
O12 C11 1.232 . S
C13 O5 1.260 . S
C13 O6 1.257 . S
Zn14 O17 2.031 . S
Zn14 O19 2.049 . S
Zn14 O24 2.067 . S
Zn15 O16 1.962 . S
Zn15 O18 1.986 . S
Zn15 O20 1.996 . S
Zn15 O23 1.943 . S
O16 Zn15 1.962 . S
O16 C21 1.254 . S
O17 Zn14 2.031 . S
O17 C21 1.269 . S
O18 Zn15 1.986 . S
O18 C25 1.262 . S
O19 Zn14 2.049 . S
O19 C27 1.260 . S
O20 Zn15 1.996 . S
O20 C27 1.257 . S
C21 O16 1.254 . S
C21 O17 1.269 . S
C22 O23 1.249 . S
C22 O24 1.270 . S
O23 Zn15 1.943 . S
O23 C22 1.249 . S
O24 Zn14 2.067 . S
O24 C22 1.270 . S
C25 O18 1.262 . S
C25 O26 1.232 . S
O26 C25 1.232 . S
C27 O19 1.260 . S
C27 O20 1.257 . S
Zn28 O31 2.031 . S
Zn28 O33 2.049 . S
Zn28 O38 2.067 . S
Zn29 O30 1.962 . S
Zn29 O32 1.986 . S
Zn29 O34 1.996 . S
Zn29 O37 1.943 . S
O30 Zn29 1.962 . S
O30 C35 1.254 . S
O31 Zn28 2.031 . S
O31 C35 1.269 . S
O32 Zn29 1.986 . S
O32 C39 1.262 . S
O33 Zn28 2.049 . S
O33 C41 1.260 . S
O34 Zn29 1.996 . S
O34 C41 1.257 . S
C35 O30 1.254 . S
C35 O31 1.269 . S
C36 O37 1.249 . S
C36 O38 1.270 . S
O37 Zn29 1.943 . S
O37 C36 1.249 . S
O38 Zn28 2.067 . S
O38 C36 1.270 . S
C39 O32 1.262 . S
C39 O40 1.232 . S
O40 C39 1.232 . S
C41 O33 1.260 . S
C41 O34 1.257 . S
Zn42 O45 2.031 . S
Zn42 O47 2.049 . S
Zn42 O52 2.067 . S
Zn43 O44 1.962 . S
Zn43 O46 1.986 . S
Zn43 O48 1.996 . S
Zn43 O51 1.943 . S
O44 Zn43 1.962 . S
O44 C49 1.254 . S
O45 Zn42 2.031 . S
O45 C49 1.269 . S
O46 Zn43 1.986 . S
O46 C53 1.262 . S
O47 Zn42 2.049 . S
O47 C55 1.260 . S
O48 Zn43 1.996 . S
O48 C55 1.257 . S
C49 O44 1.254 . S
C49 O45 1.269 . S
C50 O51 1.249 . S
C50 O52 1.270 . S
O51 Zn43 1.943 . S
O51 C50 1.249 . S
O52 Zn42 2.067 . S
O52 C50 1.270 . S
C53 O46 1.262 . S
C53 O54 1.232 . S
O54 C53 1.232 . S
C55 O47 1.260 . S
C55 O48 1.257 . S
Zn56 O59 2.031 . S
Zn56 O61 2.049 . S
Zn56 O66 2.067 . S
Zn57 O58 1.962 . S
Zn57 O60 1.986 . S
Zn57 O62 1.996 . S
Zn57 O65 1.943 . S
O58 Zn57 1.962 . S
O58 C63 1.254 . S
O59 Zn56 2.031 . S
O59 C63 1.269 . S
O60 Zn57 1.986 . S
O60 C67 1.262 . S
O61 Zn56 2.049 . S
O61 C69 1.260 . S
O62 Zn57 1.996 . S
O62 C69 1.257 . S
C63 O58 1.254 . S
C63 O59 1.269 . S
C64 O65 1.249 . S
C64 O66 1.270 . S
O65 Zn57 1.943 . S
O65 C64 1.249 . S
O66 Zn56 2.067 . S
O66 C64 1.270 . S
C67 O60 1.262 . S
C67 O68 1.232 . S
O68 C67 1.232 . S
C69 O61 1.260 . S
C69 O62 1.257 . S
Zn70 O73 2.031 . S
Zn70 O75 2.049 . S
Zn70 O80 2.067 . S
Zn71 O72 1.962 . S
Zn71 O74 1.986 . S
Zn71 O76 1.996 . S
Zn71 O79 1.943 . S
O72 Zn71 1.962 . S
O72 C77 1.254 . S
O73 Zn70 2.031 . S
O73 C77 1.269 . S
O74 Zn71 1.986 . S
O74 C81 1.262 . S
O75 Zn70 2.049 . S
O75 C83 1.260 . S
O76 Zn71 1.996 . S
O76 C83 1.257 . S
C77 O72 1.254 . S
C77 O73 1.269 . S
C78 O79 1.249 . S
C78 O80 1.270 . S
O79 Zn71 1.943 . S
O79 C78 1.249 . S
O80 Zn70 2.067 . S
O80 C78 1.270 . S
C81 O74 1.262 . S
C81 O82 1.232 . S
O82 C81 1.232 . S
C83 O75 1.260 . S
C83 O76 1.257 . S
Zn84 O87 2.031 . S
Zn84 O89 2.049 . S
Zn84 O94 2.067 . S
Zn85 O86 1.962 . S
Zn85 O88 1.986 . S
Zn85 O90 1.996 . S
Zn85 O93 1.943 . S
O86 Zn85 1.962 . S
O86 C91 1.254 . S
O87 Zn84 2.031 . S
O87 C91 1.269 . S
O88 Zn85 1.986 . S
O88 C95 1.262 . S
O89 Zn84 2.049 . S
O89 C97 1.260 . S
O90 Zn85 1.996 . S
O90 C97 1.257 . S
C91 O86 1.254 . S
C91 O87 1.269 . S
C92 O93 1.249 . S
C92 O94 1.270 . S
O93 Zn85 1.943 . S
O93 C92 1.249 . S
O94 Zn84 2.067 . S
O94 C92 1.270 . S
C95 O88 1.262 . S
C95 O96 1.232 . S
O96 C95 1.232 . S
C97 O89 1.260 . S
C97 O90 1.257 . S
Zn98 O101 2.031 . S
Zn98 O103 2.049 . S
Zn98 O108 2.067 . S
Zn99 O100 1.962 . S
Zn99 O102 1.986 . S
Zn99 O104 1.996 . S
Zn99 O107 1.943 . S
O100 Zn99 1.962 . S
O100 C105 1.254 . S
O101 Zn98 2.031 . S
O101 C105 1.269 1_556 S
O102 Zn99 1.986 . S
O102 C109 1.262 . S
O103 Zn98 2.049 . S
O103 C111 1.260 1_556 S
O104 Zn99 1.996 . S
O104 C111 1.257 . S
C105 O100 1.254 . S
C105 O101 1.269 1_554 S
C106 O107 1.249 1_556 S
C106 O108 1.270 . S
O107 Zn99 1.943 . S
O107 C106 1.249 1_554 S
O108 Zn98 2.067 . S
O108 C106 1.270 . S
C109 O102 1.262 . S
C109 O110 1.232 . S
O110 C109 1.232 . S
C111 O103 1.260 1_554 S
C111 O104 1.257 . S
Zn112 O115 2.031 . S
Zn112 O117 2.049 . S
Zn112 O122 2.067 . S
Zn113 O114 1.962 . S
Zn113 O116 1.986 . S
Zn113 O118 1.996 . S
Zn113 O121 1.943 . S
O114 Zn113 1.962 . S
O114 C119 1.254 . S
O115 Zn112 2.031 . S
O115 C119 1.269 . S
O116 Zn113 1.986 . S
O116 C123 1.262 . S
O117 Zn112 2.049 . S
O117 C125 1.260 . S
O118 Zn113 1.996 . S
O118 C125 1.257 . S
C119 O114 1.254 . S
C119 O115 1.269 . S
C120 O121 1.249 . S
C120 O122 1.270 . S
O121 Zn113 1.943 . S
O121 C120 1.249 . S
O122 Zn112 2.067 . S
O122 C120 1.270 . S
C123 O116 1.262 . S
C123 O124 1.232 . S
O124 C123 1.232 . S
C125 O117 1.260 . S
C125 O118 1.257 . S
Zn126 O129 2.031 . S
Zn126 O131 2.049 . S
Zn126 O136 2.067 . S
Zn127 O128 1.962 . S
Zn127 O130 1.986 . S
Zn127 O132 1.996 . S
Zn127 O135 1.943 . S
O128 Zn127 1.962 . S
O128 C133 1.254 . S
O129 Zn126 2.031 . S
O129 C133 1.269 . S
O130 Zn127 1.986 . S
O130 C137 1.262 . S
O131 Zn126 2.049 . S
O131 C139 1.260 . S
O132 Zn127 1.996 . S
O132 C139 1.257 . S
C133 O128 1.254 . S
C133 O129 1.269 . S
C134 O135 1.249 . S
C134 O136 1.270 . S
O135 Zn127 1.943 . S
O135 C134 1.249 . S
O136 Zn126 2.067 . S
O136 C134 1.270 . S
C137 O130 1.262 . S
C137 O138 1.232 . S
O138 C137 1.232 . S
C139 O131 1.260 . S
C139 O132 1.257 . S
Zn140 O143 2.031 . S
Zn140 O145 2.049 . S
Zn140 O150 2.067 . S
Zn141 O142 1.962 . S
Zn141 O144 1.986 . S
Zn141 O146 1.996 . S
Zn141 O149 1.943 . S
O142 Zn141 1.962 . S
O142 C147 1.254 . S
O143 Zn140 2.031 . S
O143 C147 1.269 . S
O144 Zn141 1.986 . S
O144 C151 1.262 . S
O145 Zn140 2.049 . S
O145 C153 1.260 . S
O146 Zn141 1.996 . S
O146 C153 1.257 . S
C147 O142 1.254 . S
C147 O143 1.269 . S
C148 O149 1.249 . S
C148 O150 1.270 . S
O149 Zn141 1.943 . S
O149 C148 1.249 . S
O150 Zn140 2.067 . S
O150 C148 1.270 . S
C151 O144 1.262 . S
C151 O152 1.232 . S
O152 C151 1.232 . S
C153 O145 1.260 . S
C153 O146 1.257 . S
Zn154 O157 2.031 . S
Zn154 O159 2.049 . S
Zn154 O164 2.067 . S
Zn155 O156 1.962 . S
Zn155 O158 1.986 . S
Zn155 O160 1.996 . S
Zn155 O163 1.943 . S
O156 Zn155 1.962 . S
O156 C161 1.254 . S
O157 Zn154 2.031 . S
O157 C161 1.269 . S
O158 Zn155 1.986 . S
O158 C165 1.262 . S
O159 Zn154 2.049 . S
O159 C167 1.260 . S
O160 Zn155 1.996 . S
O160 C167 1.257 . S
C161 O156 1.254 . S
C161 O157 1.269 . S
C162 O163 1.249 . S
C162 O164 1.270 . S
O163 Zn155 1.943 . S
O163 C162 1.249 . S
O164 Zn154 2.067 . S
O164 C162 1.270 . S
C165 O158 1.262 . S
C165 O166 1.232 . S
O166 C165 1.232 . S
C167 O159 1.260 . S
C167 O160 1.257 . S
H168 C176 0.929 . S
H169 C178 0.930 . S
H170 C180 0.930 . S
H171 C183 0.929 . S
H172 C186 0.930 . S
H173 C188 0.960 . S
H174 C188 0.960 . S
H175 C188 0.960 . S
C176 H168 0.929 . S
C176 C177 1.377 . S
C176 C178 1.384 . S
C177 C176 1.377 . S
C177 C183 1.390 . S
C178 H169 0.930 . S
C178 C176 1.384 . S
C178 C179 1.372 . S
C179 C178 1.372 . S
C179 C180 1.400 . S
C179 C184 1.490 . S
C180 H170 0.930 . S
C180 C179 1.400 . S
C180 C183 1.386 . S
H181 C197 0.930 . S
H182 C198 0.931 . S
C183 H171 0.929 . S
C183 C177 1.390 . S
C183 C180 1.386 . S
C184 C179 1.490 . S
C184 C186 1.395 . S
C184 C187 1.403 . S
H185 C191 0.930 . S
C186 H172 0.930 . S
C186 C184 1.395 . S
C186 C189 1.403 . S
C187 C184 1.403 . S
C187 C188 1.524 . S
C187 C191 1.400 . S
C188 H173 0.960 . S
C188 H174 0.960 . S
C188 H175 0.960 . S
C188 C187 1.524 . S
C189 C186 1.403 . S
C189 C190 1.392 . S
C189 C193 1.495 . S
C190 C189 1.392 . S
C190 C191 1.385 . S
C190 C192 1.478 . S
C191 H185 0.930 . S
C191 C187 1.400 . S
C191 C190 1.385 . S
C192 C190 1.478 . S
C192 C194 1.381 . S
C192 C198 1.383 . S
C193 C189 1.495 . S
C193 H199 0.959 . S
C193 H200 0.961 . S
C193 H201 0.960 . S
C194 C192 1.381 . S
C194 C195 1.394 . S
C194 H202 0.930 . S
C195 C194 1.394 . S
C195 C196 1.383 . S
C195 H203 0.929 . S
C196 C195 1.383 . S
C196 C197 1.377 . S
C197 H181 0.930 . S
C197 C196 1.377 . S
C197 C198 1.379 . S
C198 H182 0.931 . S
C198 C192 1.383 . S
C198 C197 1.379 . S
H199 C193 0.959 . S
H200 C193 0.961 . S
H201 C193 0.960 . S
H202 C194 0.930 . S
H203 C195 0.929 . S
H204 C212 0.929 . S
H205 C214 0.930 . S
H206 C216 0.930 . S
H207 C219 0.929 . S
H208 C222 0.930 . S
H209 C224 0.960 . S
H210 C224 0.960 . S
H211 C224 0.960 . S
C212 H204 0.929 . S
C212 C213 1.377 . S
C212 C214 1.384 . S
C213 C212 1.377 . S
C213 C219 1.390 . S
C214 H205 0.930 . S
C214 C212 1.384 . S
C214 C215 1.372 . S
C215 C214 1.372 . S
C215 C216 1.400 . S
C215 C220 1.490 . S
C216 H206 0.930 . S
C216 C215 1.400 . S
C216 C219 1.386 . S
H217 C233 0.930 . S
H218 C234 0.931 . S
C219 H207 0.929 . S
C219 C213 1.390 . S
C219 C216 1.386 . S
C220 C215 1.490 . S
C220 C222 1.395 . S
C220 C223 1.403 . S
H221 C227 0.930 . S
C222 H208 0.930 . S
C222 C220 1.395 . S
C222 C225 1.403 . S
C223 C220 1.403 . S
C223 C224 1.524 . S
C223 C227 1.400 . S
C224 H209 0.960 . S
C224 H210 0.960 . S
C224 H211 0.960 . S
C224 C223 1.524 . S
C225 C222 1.403 . S
C225 C226 1.392 . S
C225 C229 1.495 . S
C226 C225 1.392 . S
C226 C227 1.385 . S
C226 C228 1.478 . S
C227 H221 0.930 . S
C227 C223 1.400 . S
C227 C226 1.385 . S
C228 C226 1.478 . S
C228 C230 1.381 . S
C228 C234 1.383 . S
C229 C225 1.495 . S
C229 H235 0.959 . S
C229 H236 0.961 . S
C229 H237 0.960 . S
C230 C228 1.381 . S
C230 C231 1.394 . S
C230 H238 0.930 . S
C231 C230 1.394 . S
C231 C232 1.383 . S
C231 H239 0.929 . S
C232 C231 1.383 . S
C232 C233 1.377 . S
C233 H217 0.930 . S
C233 C232 1.377 . S
C233 C234 1.379 . S
C234 H218 0.931 . S
C234 C228 1.383 . S
C234 C233 1.379 . S
H235 C229 0.959 . S
H236 C229 0.961 . S
H237 C229 0.960 . S
H238 C230 0.930 . S
H239 C231 0.929 . S
H240 C248 0.929 . S
H241 C250 0.930 . S
H242 C252 0.930 . S
H243 C255 0.929 . S
H244 C258 0.930 . S
H245 C260 0.960 . S
H246 C260 0.960 . S
H247 C260 0.960 . S
C248 H240 0.929 . S
C248 C249 1.377 . S
C248 C250 1.384 . S
C249 C248 1.377 . S
C249 C255 1.390 . S
C250 H241 0.930 . S
C250 C248 1.384 . S
C250 C251 1.372 . S
C251 C250 1.372 . S
C251 C252 1.400 . S
C251 C256 1.490 . S
C252 H242 0.930 . S
C252 C251 1.400 . S
C252 C255 1.386 . S
H253 C269 0.930 . S
H254 C270 0.931 . S
C255 H243 0.929 . S
C255 C249 1.390 . S
C255 C252 1.386 . S
C256 C251 1.490 . S
C256 C258 1.395 . S
C256 C259 1.403 . S
H257 C263 0.930 . S
C258 H244 0.930 . S
C258 C256 1.395 . S
C258 C261 1.403 . S
C259 C256 1.403 . S
C259 C260 1.524 . S
C259 C263 1.400 . S
C260 H245 0.960 . S
C260 H246 0.960 . S
C260 H247 0.960 . S
C260 C259 1.524 . S
C261 C258 1.403 . S
C261 C262 1.392 . S
C261 C265 1.495 . S
C262 C261 1.392 . S
C262 C263 1.385 . S
C262 C264 1.478 . S
C263 H257 0.930 . S
C263 C259 1.400 . S
C263 C262 1.385 . S
C264 C262 1.478 . S
C264 C266 1.381 . S
C264 C270 1.383 . S
C265 C261 1.495 . S
C265 H271 0.959 . S
C265 H272 0.961 . S
C265 H273 0.960 . S
C266 C264 1.381 . S
C266 C267 1.394 . S
C266 H274 0.930 . S
C267 C266 1.394 . S
C267 C268 1.383 . S
C267 H275 0.929 . S
C268 C267 1.383 . S
C268 C269 1.377 . S
C269 H253 0.930 . S
C269 C268 1.377 . S
C269 C270 1.379 . S
C270 H254 0.931 . S
C270 C264 1.383 . S
C270 C269 1.379 . S
H271 C265 0.959 . S
H272 C265 0.961 . S
H273 C265 0.960 . S
H274 C266 0.930 . S
H275 C267 0.929 . S
H276 C284 0.929 . S
H277 C286 0.930 . S
H278 C288 0.930 . S
H279 C291 0.929 . S
H280 C294 0.930 . S
H281 C296 0.960 . S
H282 C296 0.960 . S
H283 C296 0.960 . S
C284 H276 0.929 . S
C284 C285 1.377 . S
C284 C286 1.384 . S
C285 C284 1.377 . S
C285 C291 1.390 . S
C286 H277 0.930 . S
C286 C284 1.384 . S
C286 C287 1.372 . S
C287 C286 1.372 . S
C287 C288 1.400 . S
C287 C292 1.490 . S
C288 H278 0.930 . S
C288 C287 1.400 . S
C288 C291 1.386 . S
H289 C305 0.930 . S
H290 C306 0.931 . S
C291 H279 0.929 . S
C291 C285 1.390 . S
C291 C288 1.386 . S
C292 C287 1.490 . S
C292 C294 1.395 . S
C292 C295 1.403 . S
H293 C299 0.930 . S
C294 H280 0.930 . S
C294 C292 1.395 . S
C294 C297 1.403 . S
C295 C292 1.403 . S
C295 C296 1.524 . S
C295 C299 1.400 . S
C296 H281 0.960 . S
C296 H282 0.960 . S
C296 H283 0.960 . S
C296 C295 1.524 . S
C297 C294 1.403 . S
C297 C298 1.392 . S
C297 C301 1.495 . S
C298 C297 1.392 . S
C298 C299 1.385 . S
C298 C300 1.478 . S
C299 H293 0.930 . S
C299 C295 1.400 . S
C299 C298 1.385 . S
C300 C298 1.478 . S
C300 C302 1.381 . S
C300 C306 1.383 . S
C301 C297 1.495 . S
C301 H307 0.959 . S
C301 H308 0.961 . S
C301 H309 0.960 . S
C302 C300 1.381 . S
C302 C303 1.394 . S
C302 H310 0.930 . S
C303 C302 1.394 . S
C303 C304 1.383 . S
C303 H311 0.929 . S
C304 C303 1.383 . S
C304 C305 1.377 . S
C305 H289 0.930 . S
C305 C304 1.377 . S
C305 C306 1.379 . S
C306 H290 0.931 . S
C306 C300 1.383 . S
C306 C305 1.379 . S
H307 C301 0.959 . S
H308 C301 0.961 . S
H309 C301 0.960 . S
H310 C302 0.930 . S
H311 C303 0.929 . S
H312 C320 0.929 . S
H313 C322 0.930 . S
H314 C324 0.930 . S
H315 C327 0.929 . S
H316 C330 0.930 1_554 S
H317 C332 0.960 . S
H318 C332 0.960 . S
H319 C332 0.960 . S
C320 H312 0.929 . S
C320 C321 1.377 . S
C320 C322 1.384 . S
C321 C320 1.377 . S
C321 C327 1.390 . S
C322 H313 0.930 . S
C322 C320 1.384 . S
C322 C323 1.372 . S
C323 C322 1.372 . S
C323 C324 1.400 . S
C323 C328 1.490 1_554 S
C324 H314 0.930 . S
C324 C323 1.400 . S
C324 C327 1.386 . S
H325 C341 0.930 . S
H326 C342 0.931 . S
C327 H315 0.929 . S
C327 C321 1.390 . S
C327 C324 1.386 . S
C328 C323 1.490 1_556 S
C328 C330 1.395 . S
C328 C331 1.403 . S
H329 C335 0.930 . S
C330 H316 0.930 1_556 S
C330 C328 1.395 . S
C330 C333 1.403 . S
C331 C328 1.403 . S
C331 C332 1.524 . S
C331 C335 1.400 . S
C332 H317 0.960 . S
C332 H318 0.960 . S
C332 H319 0.960 . S
C332 C331 1.524 . S
C333 C330 1.403 . S
C333 C334 1.392 . S
C333 C337 1.495 . S
C334 C333 1.392 . S
C334 C335 1.385 . S
C334 C336 1.478 . S
C335 H329 0.930 . S
C335 C331 1.400 . S
C335 C334 1.385 . S
C336 C334 1.478 . S
C336 C338 1.381 . S
C336 C342 1.383 . S
C337 C333 1.495 . S
C337 H343 0.959 . S
C337 H344 0.961 . S
C337 H345 0.960 . S
C338 C336 1.381 . S
C338 C339 1.394 . S
C338 H346 0.930 . S
C339 C338 1.394 . S
C339 C340 1.383 . S
C339 H347 0.929 . S
C340 C339 1.383 . S
C340 C341 1.377 . S
C341 H325 0.930 . S
C341 C340 1.377 . S
C341 C342 1.379 . S
C342 H326 0.931 . S
C342 C336 1.383 . S
C342 C341 1.379 . S
H343 C337 0.959 . S
H344 C337 0.961 . S
H345 C337 0.960 . S
H346 C338 0.930 . S
H347 C339 0.929 . S
H348 C356 0.929 . S
H349 C358 0.930 . S
H350 C360 0.930 . S
H351 C363 0.929 . S
H352 C366 0.930 . S
H353 C368 0.960 . S
H354 C368 0.960 . S
H355 C368 0.960 . S
C356 H348 0.929 . S
C356 C357 1.377 . S
C356 C358 1.384 . S
C357 C356 1.377 . S
C357 C363 1.390 . S
C358 H349 0.930 . S
C358 C356 1.384 . S
C358 C359 1.372 . S
C359 C358 1.372 . S
C359 C360 1.400 . S
C359 C364 1.490 . S
C360 H350 0.930 . S
C360 C359 1.400 . S
C360 C363 1.386 . S
H361 C377 0.930 . S
H362 C378 0.931 . S
C363 H351 0.929 . S
C363 C357 1.390 . S
C363 C360 1.386 . S
C364 C359 1.490 . S
C364 C366 1.395 . S
C364 C367 1.403 . S
H365 C371 0.930 . S
C366 H352 0.930 . S
C366 C364 1.395 . S
C366 C369 1.403 . S
C367 C364 1.403 . S
C367 C368 1.524 . S
C367 C371 1.400 . S
C368 H353 0.960 . S
C368 H354 0.960 . S
C368 H355 0.960 . S
C368 C367 1.524 . S
C369 C366 1.403 . S
C369 C370 1.392 . S
C369 C373 1.495 . S
C370 C369 1.392 . S
C370 C371 1.385 . S
C370 C372 1.478 . S
C371 H365 0.930 . S
C371 C367 1.400 . S
C371 C370 1.385 . S
C372 C370 1.478 . S
C372 C374 1.381 . S
C372 C378 1.383 . S
C373 C369 1.495 . S
C373 H379 0.959 . S
C373 H380 0.961 . S
C373 H381 0.960 . S
C374 C372 1.381 . S
C374 C375 1.394 . S
C374 H382 0.930 . S
C375 C374 1.394 . S
C375 C376 1.383 1_554 S
C375 H383 0.929 . S
C376 C375 1.383 1_556 S
C376 C377 1.377 . S
C377 H361 0.930 . S
C377 C376 1.377 . S
C377 C378 1.379 1_556 S
C378 H362 0.931 . S
C378 C372 1.383 . S
C378 C377 1.379 1_554 S
H379 C373 0.959 . S
H380 C373 0.961 . S
H381 C373 0.960 . S
H382 C374 0.930 . S
H383 C375 0.929 . S
H384 C392 0.929 . S
H385 C394 0.930 . S
H386 C396 0.930 . S
H387 C399 0.929 . S
H388 C402 0.930 . S
H389 C404 0.960 . S
H390 C404 0.960 . S
H391 C404 0.960 . S
C392 H384 0.929 . S
C392 C393 1.377 . S
C392 C394 1.384 . S
C393 C392 1.377 . S
C393 C399 1.390 . S
C394 H385 0.930 . S
C394 C392 1.384 . S
C394 C395 1.372 . S
C395 C394 1.372 . S
C395 C396 1.400 . S
C395 C400 1.490 . S
C396 H386 0.930 . S
C396 C395 1.400 . S
C396 C399 1.386 . S
H397 C413 0.930 . S
H398 C414 0.931 . S
C399 H387 0.929 . S
C399 C393 1.390 . S
C399 C396 1.386 . S
C400 C395 1.490 . S
C400 C402 1.395 . S
C400 C403 1.403 . S
H401 C407 0.930 . S
C402 H388 0.930 . S
C402 C400 1.395 . S
C402 C405 1.403 . S
C403 C400 1.403 . S
C403 C404 1.524 . S
C403 C407 1.400 . S
C404 H389 0.960 . S
C404 H390 0.960 . S
C404 H391 0.960 . S
C404 C403 1.524 . S
C405 C402 1.403 . S
C405 C406 1.392 . S
C405 C409 1.495 . S
C406 C405 1.392 . S
C406 C407 1.385 . S
C406 C408 1.478 . S
C407 H401 0.930 . S
C407 C403 1.400 . S
C407 C406 1.385 . S
C408 C406 1.478 . S
C408 C410 1.381 . S
C408 C414 1.383 . S
C409 C405 1.495 . S
C409 H415 0.959 . S
C409 H416 0.961 . S
C409 H417 0.960 . S
C410 C408 1.381 . S
C410 C411 1.394 . S
C410 H418 0.930 . S
C411 C410 1.394 . S
C411 C412 1.383 . S
C411 H419 0.929 . S
C412 C411 1.383 . S
C412 C413 1.377 . S
C413 H397 0.930 . S
C413 C412 1.377 . S
C413 C414 1.379 . S
C414 H398 0.931 . S
C414 C408 1.383 . S
C414 C413 1.379 . S
H415 C409 0.959 . S
H416 C409 0.961 . S
H417 C409 0.960 . S
H418 C410 0.930 . S
H419 C411 0.929 . S
H420 C428 0.929 . S
H421 C430 0.930 . S
H422 C432 0.930 . S
H423 C435 0.929 . S
H424 C438 0.930 . S
H425 C440 0.960 . S
H426 C440 0.960 . S
H427 C440 0.960 . S
C428 H420 0.929 . S
C428 C429 1.377 . S
C428 C430 1.384 . S
C429 C428 1.377 . S
C429 C435 1.390 . S
C430 H421 0.930 . S
C430 C428 1.384 . S
C430 C431 1.372 . S
C431 C430 1.372 . S
C431 C432 1.400 . S
C431 C436 1.490 . S
C432 H422 0.930 . S
C432 C431 1.400 . S
C432 C435 1.386 . S
H433 C449 0.930 . S
H434 C450 0.931 . S
C435 H423 0.929 . S
C435 C429 1.390 . S
C435 C432 1.386 . S
C436 C431 1.490 . S
C436 C438 1.395 . S
C436 C439 1.403 . S
H437 C443 0.930 . S
C438 H424 0.930 . S
C438 C436 1.395 . S
C438 C441 1.403 . S
C439 C436 1.403 . S
C439 C440 1.524 . S
C439 C443 1.400 . S
C440 H425 0.960 . S
C440 H426 0.960 . S
C440 H427 0.960 . S
C440 C439 1.524 . S
C441 C438 1.403 . S
C441 C442 1.392 . S
C441 C445 1.495 . S
C442 C441 1.392 . S
C442 C443 1.385 . S
C442 C444 1.478 . S
C443 H437 0.930 . S
C443 C439 1.400 . S
C443 C442 1.385 . S
C444 C442 1.478 . S
C444 C446 1.381 . S
C444 C450 1.383 . S
C445 C441 1.495 . S
C445 H451 0.959 . S
C445 H452 0.961 . S
C445 H453 0.960 . S
C446 C444 1.381 . S
C446 C447 1.394 . S
C446 H454 0.930 . S
C447 C446 1.394 . S
C447 C448 1.383 . S
C447 H455 0.929 . S
C448 C447 1.383 . S
C448 C449 1.377 . S
C449 H433 0.930 . S
C449 C448 1.377 . S
C449 C450 1.379 . S
C450 H434 0.931 . S
C450 C444 1.383 . S
C450 C449 1.379 . S
H451 C445 0.959 . S
H452 C445 0.961 . S
H453 C445 0.960 . S
H454 C446 0.930 . S
H455 C447 0.929 . S
H456 C464 0.929 . S
H457 C466 0.930 . S
H458 C468 0.930 . S
H459 C471 0.929 . S
H460 C474 0.930 . S
H461 C476 0.960 . S
H462 C476 0.960 . S
H463 C476 0.960 . S
C464 H456 0.929 . S
C464 C465 1.377 . S
C464 C466 1.384 . S
C465 C464 1.377 . S
C465 C471 1.390 . S
C466 H457 0.930 . S
C466 C464 1.384 . S
C466 C467 1.372 . S
C467 C466 1.372 . S
C467 C468 1.400 . S
C467 C472 1.490 . S
C468 H458 0.930 . S
C468 C467 1.400 . S
C468 C471 1.386 . S
H469 C485 0.930 . S
H470 C486 0.931 . S
C471 H459 0.929 . S
C471 C465 1.390 . S
C471 C468 1.386 . S
C472 C467 1.490 . S
C472 C474 1.395 . S
C472 C475 1.403 . S
H473 C479 0.930 . S
C474 H460 0.930 . S
C474 C472 1.395 . S
C474 C477 1.403 . S
C475 C472 1.403 . S
C475 C476 1.524 . S
C475 C479 1.400 . S
C476 H461 0.960 . S
C476 H462 0.960 . S
C476 H463 0.960 . S
C476 C475 1.524 . S
C477 C474 1.403 . S
C477 C478 1.392 . S
C477 C481 1.495 . S
C478 C477 1.392 . S
C478 C479 1.385 . S
C478 C480 1.478 . S
C479 H473 0.930 . S
C479 C475 1.400 . S
C479 C478 1.385 . S
C480 C478 1.478 . S
C480 C482 1.381 . S
C480 C486 1.383 . S
C481 C477 1.495 . S
C481 H487 0.959 . S
C481 H488 0.961 . S
C481 H489 0.960 . S
C482 C480 1.381 . S
C482 C483 1.394 . S
C482 H490 0.930 . S
C483 C482 1.394 . S
C483 C484 1.383 . S
C483 H491 0.929 . S
C484 C483 1.383 . S
C484 C485 1.377 . S
C485 H469 0.930 . S
C485 C484 1.377 . S
C485 C486 1.379 . S
C486 H470 0.931 . S
C486 C480 1.383 . S
C486 C485 1.379 . S
H487 C481 0.959 . S
H488 C481 0.961 . S
H489 C481 0.960 . S
H490 C482 0.930 . S
H491 C483 0.929 . S
H492 C500 0.929 . S
H493 C502 0.930 . S
H494 C504 0.930 . S
H495 C507 0.929 . S
H496 C510 0.930 . S
H497 C512 0.960 . S
H498 C512 0.960 . S
H499 C512 0.960 . S
C500 H492 0.929 . S
C500 C501 1.377 . S
C500 C502 1.384 . S
C501 C500 1.377 . S
C501 C507 1.390 . S
C502 H493 0.930 . S
C502 C500 1.384 . S
C502 C503 1.372 . S
C503 C502 1.372 . S
C503 C504 1.400 . S
C503 C508 1.490 . S
C504 H494 0.930 . S
C504 C503 1.400 . S
C504 C507 1.386 . S
H505 C521 0.930 . S
H506 C522 0.931 . S
C507 H495 0.929 . S
C507 C501 1.390 . S
C507 C504 1.386 . S
C508 C503 1.490 . S
C508 C510 1.395 . S
C508 C511 1.403 . S
H509 C515 0.930 . S
C510 H496 0.930 . S
C510 C508 1.395 . S
C510 C513 1.403 . S
C511 C508 1.403 . S
C511 C512 1.524 . S
C511 C515 1.400 . S
C512 H497 0.960 . S
C512 H498 0.960 . S
C512 H499 0.960 . S
C512 C511 1.524 . S
C513 C510 1.403 . S
C513 C514 1.392 . S
C513 C517 1.495 . S
C514 C513 1.392 . S
C514 C515 1.385 . S
C514 C516 1.478 . S
C515 H509 0.930 . S
C515 C511 1.400 . S
C515 C514 1.385 . S
C516 C514 1.478 . S
C516 C518 1.381 . S
C516 C522 1.383 . S
C517 C513 1.495 . S
C517 H523 0.959 . S
C517 H524 0.961 . S
C517 H525 0.960 . S
C518 C516 1.381 . S
C518 C519 1.394 . S
C518 H526 0.930 . S
C519 C518 1.394 . S
C519 C520 1.383 . S
C519 H527 0.929 . S
C520 C519 1.383 . S
C520 C521 1.377 . S
C521 H505 0.930 . S
C521 C520 1.377 . S
C521 C522 1.379 . S
C522 H506 0.931 . S
C522 C516 1.383 . S
C522 C521 1.379 . S
H523 C517 0.959 . S
H524 C517 0.961 . S
H525 C517 0.960 . S
H526 C518 0.930 . S
H527 C519 0.929 . S
H528 C536 0.929 . S
H529 C538 0.930 . S
H530 C540 0.930 . S
H531 C543 0.929 . S
H532 C546 0.930 . S
H533 C548 0.960 . S
H534 C548 0.960 . S
H535 C548 0.960 . S
C536 H528 0.929 . S
C536 C537 1.377 . S
C536 C538 1.384 . S
C537 C536 1.377 . S
C537 C543 1.390 . S
C538 H529 0.930 . S
C538 C536 1.384 . S
C538 C539 1.372 . S
C539 C538 1.372 . S
C539 C540 1.400 . S
C539 C544 1.490 . S
C540 H530 0.930 . S
C540 C539 1.400 . S
C540 C543 1.386 . S
H541 C557 0.930 . S
H542 C558 0.931 . S
C543 H531 0.929 . S
C543 C537 1.390 . S
C543 C540 1.386 . S
C544 C539 1.490 . S
C544 C546 1.395 . S
C544 C547 1.403 . S
H545 C551 0.930 . S
C546 H532 0.930 . S
C546 C544 1.395 . S
C546 C549 1.403 . S
C547 C544 1.403 . S
C547 C548 1.524 . S
C547 C551 1.400 . S
C548 H533 0.960 . S
C548 H534 0.960 . S
C548 H535 0.960 . S
C548 C547 1.524 . S
C549 C546 1.403 . S
C549 C550 1.392 . S
C549 C553 1.495 . S
C550 C549 1.392 . S
C550 C551 1.385 . S
C550 C552 1.478 . S
C551 H545 0.930 . S
C551 C547 1.400 . S
C551 C550 1.385 . S
C552 C550 1.478 . S
C552 C554 1.381 . S
C552 C558 1.383 . S
C553 C549 1.495 . S
C553 H559 0.959 . S
C553 H560 0.961 . S
C553 H561 0.960 . S
C554 C552 1.381 . S
C554 C555 1.394 . S
C554 H562 0.930 . S
C555 C554 1.394 . S
C555 C556 1.383 . S
C555 H563 0.929 . S
C556 C555 1.383 . S
C556 C557 1.377 . S
C557 H541 0.930 . S
C557 C556 1.377 . S
C557 C558 1.379 . S
C558 H542 0.931 . S
C558 C552 1.383 . S
C558 C557 1.379 . S
H559 C553 0.959 . S
H560 C553 0.961 . S
H561 C553 0.960 . S
H562 C554 0.930 . S
H563 C555 0.929 . S
H564 C572 0.929 . S
H565 C574 0.930 . S
H566 C576 0.930 . S
H567 C579 0.929 . S
H568 C582 0.930 . S
H569 C584 0.960 . S
H570 C584 0.960 . S
H571 C584 0.960 . S
C572 H564 0.929 . S
C572 C573 1.377 . S
C572 C574 1.384 . S
C573 C572 1.377 . S
C573 C579 1.390 . S
C574 H565 0.930 . S
C574 C572 1.384 . S
C574 C575 1.372 . S
C575 C574 1.372 . S
C575 C576 1.400 . S
C575 C580 1.490 . S
C576 H566 0.930 . S
C576 C575 1.400 . S
C576 C579 1.386 . S
H577 C593 0.930 . S
H578 C594 0.931 . S
C579 H567 0.929 . S
C579 C573 1.390 . S
C579 C576 1.386 . S
C580 C575 1.490 . S
C580 C582 1.395 . S
C580 C583 1.403 . S
H581 C587 0.930 . S
C582 H568 0.930 . S
C582 C580 1.395 . S
C582 C585 1.403 . S
C583 C580 1.403 . S
C583 C584 1.524 . S
C583 C587 1.400 . S
C584 H569 0.960 . S
C584 H570 0.960 . S
C584 H571 0.960 . S
C584 C583 1.524 . S
C585 C582 1.403 . S
C585 C586 1.392 . S
C585 C589 1.495 1_556 S
C586 C585 1.392 . S
C586 C587 1.385 . S
C586 C588 1.478 . S
C587 H581 0.930 . S
C587 C583 1.400 . S
C587 C586 1.385 . S
C588 C586 1.478 . S
C588 C590 1.381 . S
C588 C594 1.383 1_556 S
C589 C585 1.495 1_554 S
C589 H595 0.959 . S
C589 H596 0.961 . S
C589 H597 0.960 . S
C590 C588 1.381 . S
C590 C591 1.394 . S
C590 H598 0.930 . S
C591 C590 1.394 . S
C591 C592 1.383 1_556 S
C591 H599 0.929 . S
C592 C591 1.383 1_554 S
C592 C593 1.377 . S
C593 H577 0.930 . S
C593 C592 1.377 . S
C593 C594 1.379 . S
C594 H578 0.931 . S
C594 C588 1.383 1_554 S
C594 C593 1.379 . S
H595 C589 0.959 . S
H596 C589 0.961 . S
H597 C589 0.960 . S
H598 C590 0.930 . S
H599 C591 0.929 . S
H600 C608 0.929 . S
H601 C610 0.930 . S
H602 C612 0.930 . S
H603 C615 0.929 . S
H604 C618 0.930 . S
H605 C620 0.960 . S
H606 C620 0.960 . S
H607 C620 0.960 . S
C608 H600 0.929 . S
C608 C609 1.377 . S
C608 C610 1.384 . S
C609 C608 1.377 . S
C609 C615 1.390 . S
C610 H601 0.930 . S
C610 C608 1.384 . S
C610 C611 1.372 . S
C611 C610 1.372 . S
C611 C612 1.400 . S
C611 C616 1.490 . S
C612 H602 0.930 . S
C612 C611 1.400 . S
C612 C615 1.386 . S
H613 C629 0.930 . S
H614 C630 0.931 . S
C615 H603 0.929 . S
C615 C609 1.390 . S
C615 C612 1.386 . S
C616 C611 1.490 . S
C616 C618 1.395 . S
C616 C619 1.403 . S
H617 C623 0.930 . S
C618 H604 0.930 . S
C618 C616 1.395 . S
C618 C621 1.403 . S
C619 C616 1.403 . S
C619 C620 1.524 . S
C619 C623 1.400 . S
C620 H605 0.960 . S
C620 H606 0.960 . S
C620 H607 0.960 . S
C620 C619 1.524 . S
C621 C618 1.403 . S
C621 C622 1.392 . S
C621 C625 1.495 . S
C622 C621 1.392 . S
C622 C623 1.385 . S
C622 C624 1.478 . S
C623 H617 0.930 . S
C623 C619 1.400 . S
C623 C622 1.385 . S
C624 C622 1.478 . S
C624 C626 1.381 . S
C624 C630 1.383 . S
C625 C621 1.495 . S
C625 H631 0.959 . S
C625 H632 0.961 . S
C625 H633 0.960 . S
C626 C624 1.381 . S
C626 C627 1.394 . S
C626 H634 0.930 . S
C627 C626 1.394 . S
C627 C628 1.383 . S
C627 H635 0.929 . S
C628 C627 1.383 . S
C628 C629 1.377 . S
C629 H613 0.930 . S
C629 C628 1.377 . S
C629 C630 1.379 . S
C630 H614 0.931 . S
C630 C624 1.383 . S
C630 C629 1.379 . S
H631 C625 0.959 . S
H632 C625 0.961 . S
H633 C625 0.960 . S
H634 C626 0.930 . S
H635 C627 0.929 . S
H636 C644 0.929 . S
H637 C646 0.930 . S
H638 C648 0.930 . S
H639 C651 0.929 . S
H640 C654 0.930 . S
H641 C656 0.960 . S
H642 C656 0.960 . S
H643 C656 0.960 . S
C644 H636 0.929 . S
C644 C645 1.377 . S
C644 C646 1.384 . S
C645 C644 1.377 . S
C645 C651 1.390 . S
C646 H637 0.930 . S
C646 C644 1.384 . S
C646 C647 1.372 . S
C647 C646 1.372 . S
C647 C648 1.400 . S
C647 C652 1.490 . S
C648 H638 0.930 . S
C648 C647 1.400 . S
C648 C651 1.386 . S
H649 C665 0.930 . S
H650 C666 0.931 . S
C651 H639 0.929 . S
C651 C645 1.390 . S
C651 C648 1.386 . S
C652 C647 1.490 . S
C652 C654 1.395 . S
C652 C655 1.403 . S
H653 C659 0.930 1_554 S
C654 H640 0.930 . S
C654 C652 1.395 . S
C654 C657 1.403 . S
C655 C652 1.403 . S
C655 C656 1.524 . S
C655 C659 1.400 . S
C656 H641 0.960 . S
C656 H642 0.960 . S
C656 H643 0.960 . S
C656 C655 1.524 . S
C657 C654 1.403 . S
C657 C658 1.392 . S
C657 C661 1.495 . S
C658 C657 1.392 . S
C658 C659 1.385 . S
C658 C660 1.478 1_556 S
C659 H653 0.930 1_556 S
C659 C655 1.400 . S
C659 C658 1.385 . S
C660 C658 1.478 1_554 S
C660 C662 1.381 . S
C660 C666 1.383 . S
C661 C657 1.495 . S
C661 H667 0.959 . S
C661 H668 0.961 . S
C661 H669 0.960 . S
C662 C660 1.381 . S
C662 C663 1.394 . S
C662 H670 0.930 . S
C663 C662 1.394 . S
C663 C664 1.383 . S
C663 H671 0.929 . S
C664 C663 1.383 . S
C664 C665 1.377 . S
C665 H649 0.930 . S
C665 C664 1.377 . S
C665 C666 1.379 . S
C666 H650 0.931 . S
C666 C660 1.383 . S
C666 C665 1.379 . S
H667 C661 0.959 . S
H668 C661 0.961 . S
H669 C661 0.960 . S
H670 C662 0.930 . S
H671 C663 0.929 . S
H672 C680 0.929 . S
H673 C682 0.930 . S
H674 C684 0.930 . S
H675 C687 0.929 . S
H676 C690 0.930 . S
H677 C692 0.960 . S
H678 C692 0.960 . S
H679 C692 0.960 . S
C680 H672 0.929 . S
C680 C681 1.377 . S
C680 C682 1.384 1_556 S
C681 C680 1.377 . S
C681 C687 1.390 1_556 S
C682 H673 0.930 . S
C682 C680 1.384 1_554 S
C682 C683 1.372 . S
C683 C682 1.372 . S
C683 C684 1.400 . S
C683 C688 1.490 . S
C684 H674 0.930 . S
C684 C683 1.400 . S
C684 C687 1.386 . S
H685 C701 0.930 . S
H686 C702 0.931 . S
C687 H675 0.929 . S
C687 C681 1.390 1_554 S
C687 C684 1.386 . S
C688 C683 1.490 . S
C688 C690 1.395 . S
C688 C691 1.403 . S
H689 C695 0.930 . S
C690 H676 0.930 . S
C690 C688 1.395 . S
C690 C693 1.403 . S
C691 C688 1.403 . S
C691 C692 1.524 . S
C691 C695 1.400 . S
C692 H677 0.960 . S
C692 H678 0.960 . S
C692 H679 0.960 . S
C692 C691 1.524 . S
C693 C690 1.403 . S
C693 C694 1.392 . S
C693 C697 1.495 . S
C694 C693 1.392 . S
C694 C695 1.385 . S
C694 C696 1.478 . S
C695 H689 0.930 . S
C695 C691 1.400 . S
C695 C694 1.385 . S
C696 C694 1.478 . S
C696 C698 1.381 . S
C696 C702 1.383 . S
C697 C693 1.495 . S
C697 H703 0.959 . S
C697 H704 0.961 . S
C697 H705 0.960 . S
C698 C696 1.381 . S
C698 C699 1.394 . S
C698 H706 0.930 . S
C699 C698 1.394 . S
C699 C700 1.383 . S
C699 H707 0.929 . S
C700 C699 1.383 . S
C700 C701 1.377 . S
C701 H685 0.930 . S
C701 C700 1.377 . S
C701 C702 1.379 . S
C702 H686 0.931 . S
C702 C696 1.383 . S
C702 C701 1.379 . S
H703 C697 0.959 . S
H704 C697 0.961 . S
H705 C697 0.960 . S
H706 C698 0.930 . S
H707 C699 0.929 . S
H708 C716 0.929 . S
H709 C718 0.930 . S
H710 C720 0.930 . S
H711 C723 0.929 . S
H712 C726 0.930 . S
H713 C728 0.960 . S
H714 C728 0.960 . S
H715 C728 0.960 . S
C716 H708 0.929 . S
C716 C717 1.377 . S
C716 C718 1.384 . S
C717 C716 1.377 . S
C717 C723 1.390 . S
C718 H709 0.930 . S
C718 C716 1.384 . S
C718 C719 1.372 . S
C719 C718 1.372 . S
C719 C720 1.400 . S
C719 C724 1.490 . S
C720 H710 0.930 . S
C720 C719 1.400 . S
C720 C723 1.386 . S
H721 C737 0.930 . S
H722 C738 0.931 . S
C723 H711 0.929 . S
C723 C717 1.390 . S
C723 C720 1.386 . S
C724 C719 1.490 . S
C724 C726 1.395 . S
C724 C727 1.403 . S
H725 C731 0.930 . S
C726 H712 0.930 . S
C726 C724 1.395 . S
C726 C729 1.403 . S
C727 C724 1.403 . S
C727 C728 1.524 . S
C727 C731 1.400 . S
C728 H713 0.960 . S
C728 H714 0.960 . S
C728 H715 0.960 . S
C728 C727 1.524 . S
C729 C726 1.403 . S
C729 C730 1.392 . S
C729 C733 1.495 . S
C730 C729 1.392 . S
C730 C731 1.385 . S
C730 C732 1.478 . S
C731 H725 0.930 . S
C731 C727 1.400 . S
C731 C730 1.385 . S
C732 C730 1.478 . S
C732 C734 1.381 . S
C732 C738 1.383 . S
C733 C729 1.495 . S
C733 H739 0.959 . S
C733 H740 0.961 . S
C733 H741 0.960 . S
C734 C732 1.381 . S
C734 C735 1.394 . S
C734 H742 0.930 . S
C735 C734 1.394 . S
C735 C736 1.383 . S
C735 H743 0.929 . S
C736 C735 1.383 . S
C736 C737 1.377 . S
C737 H721 0.930 . S
C737 C736 1.377 . S
C737 C738 1.379 . S
C738 H722 0.931 . S
C738 C732 1.383 . S
C738 C737 1.379 . S
H739 C733 0.959 . S
H740 C733 0.961 . S
H741 C733 0.960 . S
H742 C734 0.930 . S
H743 C735 0.929 . S
H744 C752 0.929 . S
H745 C754 0.930 . S
H746 C756 0.930 . S
H747 C759 0.929 . S
H748 C762 0.930 . S
H749 C764 0.960 . S
H750 C764 0.960 . S
H751 C764 0.960 . S
C752 H744 0.929 . S
C752 C753 1.377 . S
C752 C754 1.384 . S
C753 C752 1.377 . S
C753 C759 1.390 . S
C754 H745 0.930 . S
C754 C752 1.384 . S
C754 C755 1.372 . S
C755 C754 1.372 . S
C755 C756 1.400 . S
C755 C760 1.490 . S
C756 H746 0.930 . S
C756 C755 1.400 . S
C756 C759 1.386 . S
H757 C773 0.930 . S
H758 C774 0.931 . S
C759 H747 0.929 . S
C759 C753 1.390 . S
C759 C756 1.386 . S
C760 C755 1.490 . S
C760 C762 1.395 . S
C760 C763 1.403 . S
H761 C767 0.930 . S
C762 H748 0.930 . S
C762 C760 1.395 . S
C762 C765 1.403 . S
C763 C760 1.403 . S
C763 C764 1.524 . S
C763 C767 1.400 . S
C764 H749 0.960 . S
C764 H750 0.960 . S
C764 H751 0.960 . S
C764 C763 1.524 . S
C765 C762 1.403 . S
C765 C766 1.392 . S
C765 C769 1.495 . S
C766 C765 1.392 . S
C766 C767 1.385 . S
C766 C768 1.478 . S
C767 H761 0.930 . S
C767 C763 1.400 . S
C767 C766 1.385 . S
C768 C766 1.478 . S
C768 C770 1.381 . S
C768 C774 1.383 . S
C769 C765 1.495 . S
C769 H775 0.959 . S
C769 H776 0.961 . S
C769 H777 0.960 . S
C770 C768 1.381 . S
C770 C771 1.394 . S
C770 H778 0.930 . S
C771 C770 1.394 . S
C771 C772 1.383 . S
C771 H779 0.929 . S
C772 C771 1.383 . S
C772 C773 1.377 . S
C773 H757 0.930 . S
C773 C772 1.377 . S
C773 C774 1.379 . S
C774 H758 0.931 . S
C774 C768 1.383 . S
C774 C773 1.379 . S
H775 C769 0.959 . S
H776 C769 0.961 . S
H777 C769 0.960 . S
H778 C770 0.930 . S
H779 C771 0.929 . S
H780 C788 0.929 . S
H781 C790 0.930 . S
H782 C792 0.930 . S
H783 C795 0.929 . S
H784 C798 0.930 . S
H785 C800 0.960 . S
H786 C800 0.960 . S
H787 C800 0.960 . S
C788 H780 0.929 . S
C788 C789 1.377 . S
C788 C790 1.384 . S
C789 C788 1.377 . S
C789 C795 1.390 . S
C790 H781 0.930 . S
C790 C788 1.384 . S
C790 C791 1.372 . S
C791 C790 1.372 . S
C791 C792 1.400 . S
C791 C796 1.490 . S
C792 H782 0.930 . S
C792 C791 1.400 . S
C792 C795 1.386 . S
H793 C809 0.930 . S
H794 C810 0.931 . S
C795 H783 0.929 . S
C795 C789 1.390 . S
C795 C792 1.386 . S
C796 C791 1.490 . S
C796 C798 1.395 . S
C796 C799 1.403 . S
H797 C803 0.930 . S
C798 H784 0.930 . S
C798 C796 1.395 . S
C798 C801 1.403 . S
C799 C796 1.403 . S
C799 C800 1.524 . S
C799 C803 1.400 . S
C800 H785 0.960 . S
C800 H786 0.960 . S
C800 H787 0.960 . S
C800 C799 1.524 . S
C801 C798 1.403 . S
C801 C802 1.392 . S
C801 C805 1.495 . S
C802 C801 1.392 . S
C802 C803 1.385 . S
C802 C804 1.478 . S
C803 H797 0.930 . S
C803 C799 1.400 . S
C803 C802 1.385 . S
C804 C802 1.478 . S
C804 C806 1.381 . S
C804 C810 1.383 . S
C805 C801 1.495 . S
C805 H811 0.959 . S
C805 H812 0.961 . S
C805 H813 0.960 . S
C806 C804 1.381 . S
C806 C807 1.394 . S
C806 H814 0.930 . S
C807 C806 1.394 . S
C807 C808 1.383 . S
C807 H815 0.929 . S
C808 C807 1.383 . S
C808 C809 1.377 . S
C809 H793 0.930 . S
C809 C808 1.377 . S
C809 C810 1.379 . S
C810 H794 0.931 . S
C810 C804 1.383 . S
C810 C809 1.379 . S
H811 C805 0.959 . S
H812 C805 0.961 . S
H813 C805 0.960 . S
H814 C806 0.930 . S
H815 C807 0.929 . S
H816 C824 0.929 . S
H817 C826 0.930 . S
H818 C828 0.930 . S
H819 C831 0.929 . S
H820 C834 0.930 . S
H821 C836 0.960 . S
H822 C836 0.960 . S
H823 C836 0.960 . S
C824 H816 0.929 . S
C824 C825 1.377 . S
C824 C826 1.384 . S
C825 C824 1.377 . S
C825 C831 1.390 . S
C826 H817 0.930 . S
C826 C824 1.384 . S
C826 C827 1.372 . S
C827 C826 1.372 . S
C827 C828 1.400 . S
C827 C832 1.490 . S
C828 H818 0.930 . S
C828 C827 1.400 . S
C828 C831 1.386 . S
H829 C845 0.930 . S
H830 C846 0.931 . S
C831 H819 0.929 . S
C831 C825 1.390 . S
C831 C828 1.386 . S
C832 C827 1.490 . S
C832 C834 1.395 . S
C832 C835 1.403 . S
H833 C839 0.930 1_556 S
C834 H820 0.930 . S
C834 C832 1.395 . S
C834 C837 1.403 1_545 S
C835 C832 1.403 . S
C835 C836 1.524 1_554 S
C835 C839 1.400 1_545 S
C836 H821 0.960 . S
C836 H822 0.960 . S
C836 H823 0.960 . S
C836 C835 1.524 1_556 S
C837 C834 1.403 1_565 S
C837 C838 1.392 . S
C837 C841 1.495 . S
C838 C837 1.392 . S
C838 C839 1.385 . S
C838 C840 1.478 . S
C839 H833 0.930 1_554 S
C839 C835 1.400 1_565 S
C839 C838 1.385 . S
C840 C838 1.478 . S
C840 C842 1.381 . S
C840 C846 1.383 . S
C841 C837 1.495 . S
C841 H847 0.959 . S
C841 H848 0.961 . S
C841 H849 0.960 . S
C842 C840 1.381 . S
C842 C843 1.394 . S
C842 H850 0.930 . S
C843 C842 1.394 . S
C843 C844 1.383 . S
C843 H851 0.929 . S
C844 C843 1.383 . S
C844 C845 1.377 . S
C845 H829 0.930 . S
C845 C844 1.377 . S
C845 C846 1.379 . S
C846 H830 0.931 . S
C846 C840 1.383 . S
C846 C845 1.379 . S
H847 C841 0.959 . S
H848 C841 0.961 . S
H849 C841 0.960 . S
H850 C842 0.930 . S
H851 C843 0.929 . S
H852 C860 0.929 . S
H853 C862 0.930 . S
H854 C864 0.930 . S
H855 C867 0.929 . S
H856 C870 0.930 . S
H857 C872 0.960 . S
H858 C872 0.960 . S
H859 C872 0.960 . S
C860 H852 0.929 . S
C860 C861 1.377 . S
C860 C862 1.384 . S
C861 C860 1.377 . S
C861 C867 1.390 . S
C862 H853 0.930 . S
C862 C860 1.384 . S
C862 C863 1.372 . S
C863 C862 1.372 . S
C863 C864 1.400 . S
C863 C868 1.490 . S
C864 H854 0.930 . S
C864 C863 1.400 . S
C864 C867 1.386 . S
H865 C881 0.930 . S
H866 C882 0.931 . S
C867 H855 0.929 . S
C867 C861 1.390 . S
C867 C864 1.386 . S
C868 C863 1.490 . S
C868 C870 1.395 . S
C868 C871 1.403 . S
H869 C875 0.930 . S
C870 H856 0.930 . S
C870 C868 1.395 . S
C870 C873 1.403 . S
C871 C868 1.403 . S
C871 C872 1.524 . S
C871 C875 1.400 . S
C872 H857 0.960 . S
C872 H858 0.960 . S
C872 H859 0.960 . S
C872 C871 1.524 . S
C873 C870 1.403 . S
C873 C874 1.392 . S
C873 C877 1.495 . S
C874 C873 1.392 . S
C874 C875 1.385 . S
C874 C876 1.478 . S
C875 H869 0.930 . S
C875 C871 1.400 . S
C875 C874 1.385 . S
C876 C874 1.478 . S
C876 C878 1.381 . S
C876 C882 1.383 . S
C877 C873 1.495 . S
C877 H883 0.959 . S
C877 H884 0.961 . S
C877 H885 0.960 . S
C878 C876 1.381 . S
C878 C879 1.394 . S
C878 H886 0.930 . S
C879 C878 1.394 . S
C879 C880 1.383 . S
C879 H887 0.929 . S
C880 C879 1.383 . S
C880 C881 1.377 . S
C881 H865 0.930 . S
C881 C880 1.377 . S
C881 C882 1.379 . S
C882 H866 0.931 . S
C882 C876 1.383 . S
C882 C881 1.379 . S
H883 C877 0.959 . S
H884 C877 0.961 . S
H885 C877 0.960 . S
H886 C878 0.930 . S
H887 C879 0.929 . S
H888 C896 0.929 . S
H889 C898 0.930 . S
H890 C900 0.930 . S
H891 C903 0.929 . S
H892 C906 0.930 . S
H893 C908 0.960 . S
H894 C908 0.960 . S
H895 C908 0.960 . S
C896 H888 0.929 . S
C896 C897 1.377 . S
C896 C898 1.384 . S
C897 C896 1.377 . S
C897 C903 1.390 . S
C898 H889 0.930 . S
C898 C896 1.384 . S
C898 C899 1.372 . S
C899 C898 1.372 . S
C899 C900 1.400 . S
C899 C904 1.490 . S
C900 H890 0.930 . S
C900 C899 1.400 . S
C900 C903 1.386 . S
H901 C917 0.930 . S
H902 C918 0.931 . S
C903 H891 0.929 . S
C903 C897 1.390 . S
C903 C900 1.386 . S
C904 C899 1.490 . S
C904 C906 1.395 . S
C904 C907 1.403 . S
H905 C911 0.930 . S
C906 H892 0.930 . S
C906 C904 1.395 . S
C906 C909 1.403 1_455 S
C907 C904 1.403 . S
C907 C908 1.524 . S
C907 C911 1.400 1_455 S
C908 H893 0.960 . S
C908 H894 0.960 . S
C908 H895 0.960 . S
C908 C907 1.524 . S
C909 C906 1.403 1_655 S
C909 C910 1.392 . S
C909 C913 1.495 . S
C910 C909 1.392 . S
C910 C911 1.385 . S
C910 C912 1.478 . S
C911 H905 0.930 . S
C911 C907 1.400 1_655 S
C911 C910 1.385 . S
C912 C910 1.478 . S
C912 C914 1.381 . S
C912 C918 1.383 . S
C913 C909 1.495 . S
C913 H919 0.959 . S
C913 H920 0.961 . S
C913 H921 0.960 . S
C914 C912 1.381 . S
C914 C915 1.394 . S
C914 H922 0.930 . S
C915 C914 1.394 . S
C915 C916 1.383 . S
C915 H923 0.929 . S
C916 C915 1.383 . S
C916 C917 1.377 . S
C917 H901 0.930 . S
C917 C916 1.377 . S
C917 C918 1.379 . S
C918 H902 0.931 . S
C918 C912 1.383 . S
C918 C917 1.379 . S
H919 C913 0.959 . S
H920 C913 0.961 . S
H921 C913 0.960 . S
H922 C914 0.930 . S
H923 C915 0.929 . S
H924 C932 0.929 . S
H925 C934 0.930 . S
H926 C936 0.930 . S
H927 C939 0.929 . S
H928 C942 0.930 . S
H929 C944 0.960 . S
H930 C944 0.960 . S
H931 C944 0.960 . S
C932 H924 0.929 . S
C932 C933 1.377 . S
C932 C934 1.384 . S
C933 C932 1.377 . S
C933 C939 1.390 . S
C934 H925 0.930 . S
C934 C932 1.384 . S
C934 C935 1.372 . S
C935 C934 1.372 . S
C935 C936 1.400 . S
C935 C940 1.490 . S
C936 H926 0.930 . S
C936 C935 1.400 . S
C936 C939 1.386 . S
H937 C953 0.930 . S
H938 C954 0.931 . S
C939 H927 0.929 . S
C939 C933 1.390 . S
C939 C936 1.386 . S
C940 C935 1.490 . S
C940 C942 1.395 . S
C940 C943 1.403 . S
H941 C947 0.930 . S
C942 H928 0.930 . S
C942 C940 1.395 . S
C942 C945 1.403 1_565 S
C943 C940 1.403 . S
C943 C944 1.524 . S
C943 C947 1.400 1_565 S
C944 H929 0.960 . S
C944 H930 0.960 . S
C944 H931 0.960 . S
C944 C943 1.524 . S
C945 C942 1.403 1_545 S
C945 C946 1.392 . S
C945 C949 1.495 . S
C946 C945 1.392 . S
C946 C947 1.385 . S
C946 C948 1.478 . S
C947 H941 0.930 . S
C947 C943 1.400 1_545 S
C947 C946 1.385 . S
C948 C946 1.478 . S
C948 C950 1.381 . S
C948 C954 1.383 . S
C949 C945 1.495 . S
C949 H955 0.959 . S
C949 H956 0.961 . S
C949 H957 0.960 . S
C950 C948 1.381 . S
C950 C951 1.394 . S
C950 H958 0.930 . S
C951 C950 1.394 . S
C951 C952 1.383 . S
C951 H959 0.929 . S
C952 C951 1.383 . S
C952 C953 1.377 . S
C953 H937 0.930 . S
C953 C952 1.377 . S
C953 C954 1.379 . S
C954 H938 0.931 . S
C954 C948 1.383 . S
C954 C953 1.379 . S
H955 C949 0.959 . S
H956 C949 0.961 . S
H957 C949 0.960 . S
H958 C950 0.930 . S
H959 C951 0.929 . S
H960 C968 0.929 . S
H961 C970 0.930 . S
H962 C972 0.930 . S
H963 C975 0.929 . S
H964 C978 0.930 . S
H965 C980 0.960 . S
H966 C980 0.960 . S
H967 C980 0.960 . S
C968 H960 0.929 . S
C968 C969 1.377 . S
C968 C970 1.384 . S
C969 C968 1.377 . S
C969 C975 1.390 . S
C970 H961 0.930 . S
C970 C968 1.384 . S
C970 C971 1.372 . S
C971 C970 1.372 . S
C971 C972 1.400 . S
C971 C976 1.490 . S
C972 H962 0.930 . S
C972 C971 1.400 . S
C972 C975 1.386 . S
H973 C989 0.930 . S
H974 C990 0.931 . S
C975 H963 0.929 . S
C975 C969 1.390 . S
C975 C972 1.386 . S
C976 C971 1.490 . S
C976 C978 1.395 . S
C976 C979 1.403 . S
H977 C983 0.930 . S
C978 H964 0.930 . S
C978 C976 1.395 . S
C978 C981 1.403 . S
C979 C976 1.403 . S
C979 C980 1.524 . S
C979 C983 1.400 . S
C980 H965 0.960 . S
C980 H966 0.960 . S
C980 H967 0.960 . S
C980 C979 1.524 . S
C981 C978 1.403 . S
C981 C982 1.392 . S
C981 C985 1.495 . S
C982 C981 1.392 . S
C982 C983 1.385 . S
C982 C984 1.478 . S
C983 H977 0.930 . S
C983 C979 1.400 . S
C983 C982 1.385 . S
C984 C982 1.478 . S
C984 C986 1.381 . S
C984 C990 1.383 . S
C985 C981 1.495 . S
C985 H991 0.959 . S
C985 H992 0.961 . S
C985 H993 0.960 . S
C986 C984 1.381 . S
C986 C987 1.394 . S
C986 H994 0.930 . S
C987 C986 1.394 . S
C987 C988 1.383 . S
C987 H995 0.929 . S
C988 C987 1.383 . S
C988 C989 1.377 . S
C989 H973 0.930 . S
C989 C988 1.377 . S
C989 C990 1.379 . S
C990 H974 0.931 . S
C990 C984 1.383 . S
C990 C989 1.379 . S
H991 C985 0.959 . S
H992 C985 0.961 . S
H993 C985 0.960 . S
H994 C986 0.930 . S
H995 C987 0.929 . S
H996 C1004 0.929 . S
H997 C1006 0.930 . S
H998 C1008 0.930 . S
H999 C1011 0.929 . S
H1000 C1014 0.930 . S
H1001 C1016 0.960 . S
H1002 C1016 0.960 . S
H1003 C1016 0.960 . S
C1004 H996 0.929 . S
C1004 C1005 1.377 . S
C1004 C1006 1.384 . S
C1005 C1004 1.377 . S
C1005 C1011 1.390 . S
C1006 H997 0.930 . S
C1006 C1004 1.384 . S
C1006 C1007 1.372 . S
C1007 C1006 1.372 . S
C1007 C1008 1.400 . S
C1007 C1012 1.490 . S
C1008 H998 0.930 . S
C1008 C1007 1.400 . S
C1008 C1011 1.386 . S
H1009 C1025 0.930 . S
H1010 C1026 0.931 . S
C1011 H999 0.929 . S
C1011 C1005 1.390 . S
C1011 C1008 1.386 . S
C1012 C1007 1.490 . S
C1012 C1014 1.395 . S
C1012 C1015 1.403 . S
H1013 C1019 0.930 . S
C1014 H1000 0.930 . S
C1014 C1012 1.395 . S
C1014 C1017 1.403 1_455 S
C1015 C1012 1.403 . S
C1015 C1016 1.524 . S
C1015 C1019 1.400 1_455 S
C1016 H1001 0.960 . S
C1016 H1002 0.960 . S
C1016 H1003 0.960 . S
C1016 C1015 1.524 . S
C1017 C1014 1.403 1_655 S
C1017 C1018 1.392 . S
C1017 C1021 1.495 . S
C1018 C1017 1.392 . S
C1018 C1019 1.385 . S
C1018 C1020 1.478 . S
C1019 H1013 0.930 . S
C1019 C1015 1.400 1_655 S
C1019 C1018 1.385 . S
C1020 C1018 1.478 . S
C1020 C1022 1.381 . S
C1020 C1026 1.383 . S
C1021 C1017 1.495 . S
C1021 H1027 0.959 . S
C1021 H1028 0.961 . S
C1021 H1029 0.960 . S
C1022 C1020 1.381 . S
C1022 C1023 1.394 . S
C1022 H1030 0.930 . S
C1023 C1022 1.394 . S
C1023 C1024 1.383 . S
C1023 H1031 0.929 . S
C1024 C1023 1.383 . S
C1024 C1025 1.377 . S
C1025 H1009 0.930 . S
C1025 C1024 1.377 . S
C1025 C1026 1.379 . S
C1026 H1010 0.931 . S
C1026 C1020 1.383 . S
C1026 C1025 1.379 . S
H1027 C1021 0.959 . S
H1028 C1021 0.961 . S
H1029 C1021 0.960 . S
H1030 C1022 0.930 . S
H1031 C1023 0.929 . S
C177 C8 1.561 . S
C196 C148 1.537 . S
C213 C22 1.560 . S
C232 C162 1.535 . S
C249 C92 1.557 . S
C268 C36 1.547 . S
C285 C50 1.567 . S
C304 C106 1.562 . S
C321 C120 1.559 . S
C340 C64 1.535 . S
C357 C134 1.562 . S
C376 C78 1.578 . S
C393 C119 0.929 . S
C412 C7 0.919 . S
C429 C21 0.931 . S
C448 C133 0.911 . S
C465 C147 0.938 . S
C484 C35 0.955 . S
C501 C49 0.938 . S
C520 C161 0.949 . S
C537 C63 0.936 . S
C556 C91 0.952 . S
C573 C77 0.939 . S
C592 C105 0.952 . S
C609 C151 1.391 . S
C628 C11 1.389 . S
C645 C165 1.391 . S
C664 C25 1.387 . S
C681 C95 1.391 . S
C700 C39 1.388 . S
C717 C53 1.391 . S
C736 C109 1.388 . S
C753 C67 1.391 . S
C772 C123 1.388 . S
C789 C137 1.391 . S
C808 C81 1.388 . S
C825 C13 1.071 . S
C844 C111 1.099 . S
C861 C125 1.057 . S
C880 C27 1.038 . S
C897 C139 1.069 . S
C916 C41 1.064 . S
C933 C55 1.072 . S
C952 C153 1.080 . S
C969 C69 1.068 . S
C988 C167 1.058 . S
C1005 C83 1.059 . S
C1024 C97 1.050 . S
