# Generated by pormake.
# Topology uov, (4)-cn, num edge types: 1
# Building blocks:
#     Node 0, Type 0, BuildingBlock: UXUYUI_clean_sbu_0, # of connection points: 4
#     Node 1, Type 0, BuildingBlock: UXUYUI_clean_sbu_0, # of connection points: 4
#     Node 2, Type 0, BuildingBlock: UXUYUI_clean_sbu_0, # of connection points: 4
#     Node 3, Type 0, BuildingBlock: UXUYUI_clean_sbu_0, # of connection points: 4
#     Node 4, Type 0, BuildingBlock: UXUYUI_clean_sbu_0, # of connection points: 4
#     Node 5, Type 0, BuildingBlock: UXUYUI_clean_sbu_0, # of connection points: 4
#     Node 6, Type 0, BuildingBlock: UXUYUI_clean_sbu_0, # of connection points: 4
#     Node 7, Type 0, BuildingBlock: UXUYUI_clean_sbu_0, # of connection points: 4
#     Edge 8, Type (0, 0), BuildingBlock: AJUNOK_clean_linker_0, # of connection points: 2
#     Edge 9, Type (0, 0), BuildingBlock: AJUNOK_clean_linker_0, # of connection points: 2
#     Edge 10, Type (0, 0), BuildingBlock: AJUNOK_clean_linker_0, # of connection points: 2
#     Edge 11, Type (0, 0), BuildingBlock: AJUNOK_clean_linker_0, # of connection points: 2
#     Edge 12, Type (0, 0), BuildingBlock: AJUNOK_clean_linker_0, # of connection points: 2
#     Edge 13, Type (0, 0), BuildingBlock: AJUNOK_clean_linker_0, # of connection points: 2
#     Edge 14, Type (0, 0), BuildingBlock: AJUNOK_clean_linker_0, # of connection points: 2
#     Edge 15, Type (0, 0), BuildingBlock: AJUNOK_clean_linker_0, # of connection points: 2
#     Edge 16, Type (0, 0), BuildingBlock: AJUNOK_clean_linker_0, # of connection points: 2
#     Edge 17, Type (0, 0), BuildingBlock: AJUNOK_clean_linker_0, # of connection points: 2
#     Edge 18, Type (0, 0), BuildingBlock: AJUNOK_clean_linker_0, # of connection points: 2
#     Edge 19, Type (0, 0), BuildingBlock: AJUNOK_clean_linker_0, # of connection points: 2
#     Edge 20, Type (0, 0), BuildingBlock: AJUNOK_clean_linker_0, # of connection points: 2
#     Edge 21, Type (0, 0), BuildingBlock: AJUNOK_clean_linker_0, # of connection points: 2
#     Edge 22, Type (0, 0), BuildingBlock: AJUNOK_clean_linker_0, # of connection points: 2
#     Edge 23, Type (0, 0), BuildingBlock: AJUNOK_clean_linker_0, # of connection points: 2
# Relax obj value: 0.339
# Max RMSD: 0.266
# Mean RMSD: 0.265
data_MOF--net-uov--node1-UXUYUI_clean_sbu_0--edge1-AJUNOK_clean_linker_0
_symmetry_space_group_name_H-M    P1
_symmetry_Int_Tables_number       1
_symmetry_cell_setting            triclinic
loop_
_symmetry_equiv_pos_as_xyz
'x, y, z'
_cell_length_a     35.857601
_cell_length_b     35.853503
_cell_length_c     51.171875
_cell_angle_alpha  90.001643
_cell_angle_beta   89.984464
_cell_angle_gamma 90.218121
loop_
_atom_site_label
_atom_site_type_symbol
_atom_site_fract_x
_atom_site_fract_y
_atom_site_fract_z
_atom_type_partial_charge
Li0 Li 0.04665 0.2354 0.63642 0.0
Li1 Li 0.0281 0.29313 0.61489 0.0
Li2 Li 0.99284 0.23522 0.60875 0.0
Li3 Li 0.05473 0.24329 0.58921 0.0
C4 C 0.9644 0.26512 0.65042 0.0
N5 N 0.89079 0.26659 0.66631 0.0
C6 C 0.944 0.29818 0.64883 0.0
C7 C 0.94746 0.23287 0.66025 0.0
C8 C 0.9068 0.29834 0.65694 0.0
C9 C 0.91018 0.23416 0.66812 0.0
C10 C 0.10163 0.30083 0.62328 0.0
C11 C 0.1341 0.3569 0.61039 0.0
N12 N 0.14568 0.36177 0.63548 0.0
C13 C 0.11397 0.30627 0.64892 0.0
C14 C 0.11192 0.32619 0.60382 0.0
C15 C 0.1362 0.33728 0.65469 0.0
C16 C 0.10604 0.20582 0.66542 0.0
N17 N 0.06909 0.21403 0.66652 0.0
C18 C 0.06453 0.18837 0.70947 0.0
C19 C 0.04828 0.20604 0.68801 0.0
C20 C 0.10251 0.17901 0.70871 0.0
C21 C 0.12344 0.18829 0.68645 0.0
H22 H 0.12183 0.21249 0.64801 0.0
H23 H 0.01901 0.21305 0.68838 0.0
C24 C 0.00336 0.3631 0.5986 0.0
N25 N 0.02276 0.34562 0.61779 0.0
C26 C 0.9972 0.4014 0.59985 0.0
C27 C 0.0311 0.40315 0.64066 0.0
C28 C 0.03607 0.36463 0.63882 0.0
C29 C 0.01119 0.42198 0.62106 0.0
H30 H 0.99211 0.3472 0.58248 0.0
H31 H 0.05038 0.34989 0.65423 0.0
C32 C 0.04926 0.16779 0.61766 0.0
N33 N 0.08174 0.10516 0.63916 0.0
C34 C 0.08503 0.15705 0.60995 0.0
C35 C 0.02989 0.14657 0.63616 0.0
C36 C 0.10097 0.12528 0.62105 0.0
C37 C 0.04684 0.11506 0.64687 0.0
C38 C 0.00877 0.27559 0.55581 0.0
C39 C 0.98631 0.25233 0.54048 0.0
C40 C 0.0321 0.30174 0.54376 0.0
C41 C 0.98789 0.25538 0.51329 0.0
C42 C 0.03291 0.3039 0.51651 0.0
N43 N 0.01099 0.28085 0.50196 0.0
C44 C 0.917 0.23868 0.5943 0.0
C45 C 0.94322 0.17807 0.59522 0.0
C46 C 0.88521 0.22515 0.58165 0.0
N47 N 0.94544 0.21519 0.60025 0.0
C48 C 0.91212 0.16341 0.58246 0.0
C49 C 0.88306 0.18724 0.57482 0.0
H50 H 0.92012 0.26829 0.59773 0.0
H51 H 0.96678 0.16031 0.59932 0.0
C52 C 0.11795 0.2418 0.55448 0.0
N53 N 0.08285 0.22916 0.55947 0.0
C54 C 0.13781 0.22791 0.53305 0.0
C55 C 0.08461 0.18924 0.5222 0.0
C56 C 0.0661 0.20338 0.54392 0.0
C57 C 0.12103 0.20126 0.51668 0.0
H58 H 0.13084 0.2618 0.56748 0.0
H59 H 0.03857 0.19314 0.54883 0.0
O60 O 0.00072 0.26428 0.6423 0.0
O61 O 0.0798 0.27068 0.61725 0.0
O62 O 0.03362 0.19943 0.60762 0.0
O63 O 0.00822 0.27256 0.58247 0.0
H64 H 0.95666 0.32342 0.64132 0.0
H65 H 0.96276 0.20698 0.66142 0.0
H66 H 0.89063 0.3237 0.65575 0.0
H67 H 0.89663 0.20935 0.67559 0.0
H68 H 0.14212 0.37686 0.59555 0.0
H69 H 0.10616 0.28699 0.66425 0.0
H70 H 0.10272 0.32231 0.58388 0.0
H71 H 0.14581 0.34195 0.67446 0.0
H72 H 0.04767 0.18223 0.72651 0.0
H73 H 0.15278 0.18145 0.68516 0.0
H74 H 0.98127 0.41472 0.5845 0.0
H75 H 0.04295 0.418 0.65712 0.0
H76 H 0.10052 0.17329 0.59579 0.0
H77 H 0.00228 0.15468 0.64248 0.0
H78 H 0.12871 0.11673 0.61538 0.0
H79 H 0.03232 0.09855 0.66138 0.0
H80 H 0.96823 0.23178 0.54942 0.0
H81 H 0.04954 0.32004 0.55533 0.0
H82 H 0.97084 0.23739 0.50118 0.0
H83 H 0.05098 0.32388 0.50692 0.0
H84 H 0.86353 0.24445 0.57593 0.0
H85 H 0.91224 0.13429 0.57686 0.0
H86 H 0.16612 0.23731 0.52957 0.0
H87 H 0.0712 0.16787 0.5105 0.0
Li88 Li 0.23359 0.99619 0.4005 0.0
Li89 Li 0.29109 0.96055 0.38796 0.0
Li90 Li 0.23222 0.94545 0.36856 0.0
Li91 Li 0.24308 0.92883 0.41229 0.0
C92 C 0.26112 0.00151 0.34057 0.0
N93 N 0.26278 0.01397 0.28734 0.0
C94 C 0.28466 0.98047 0.32462 0.0
C95 C 0.23855 0.029 0.32952 0.0
C96 C 0.28505 0.98716 0.29772 0.0
C97 C 0.23977 0.03485 0.30254 0.0
C98 C 0.30253 0.9854 0.43686 0.0
C99 C 0.36278 0.97447 0.45636 0.0
N100 N 0.36519 0.01122 0.46274 0.0
C101 C 0.3056 0.02307 0.44366 0.0
C102 C 0.33131 0.96088 0.44334 0.0
C103 C 0.33749 0.03556 0.45674 0.0
C104 C 0.20287 0.03539 0.44001 0.0
N105 N 0.21521 0.04071 0.4152 0.0
C106 C 0.20256 0.10602 0.41795 0.0
C107 C 0.21538 0.07505 0.40389 0.0
C108 C 0.19026 0.10119 0.44381 0.0
C109 C 0.19041 0.06539 0.45477 0.0
H110 H 0.20335 0.0077 0.44841 0.0
H111 H 0.22579 0.07845 0.3842 0.0
C112 C 0.36464 0.94012 0.37279 0.0
N113 N 0.34284 0.96819 0.38189 0.0
C114 C 0.40299 0.94559 0.36983 0.0
C115 C 0.39531 0.00921 0.38446 0.0
C116 C 0.35712 0.00265 0.38678 0.0
C117 C 0.41889 0.98022 0.37643 0.0
H118 H 0.35229 0.91347 0.36792 0.0
H119 H 0.33888 0.02484 0.39307 0.0
C120 C 0.16361 0.95414 0.38639 0.0
N121 N 0.09489 0.95482 0.36187 0.0
C122 C 0.14722 0.92078 0.37793 0.0
C123 C 0.14487 0.98781 0.38247 0.0
C124 C 0.11253 0.92172 0.36552 0.0
C125 C 0.11018 0.98757 0.37004 0.0
C126 C 0.27403 0.8748 0.39104 0.0
C127 C 0.24431 0.8496 0.38896 0.0
C128 C 0.30646 0.8641 0.40418 0.0
C129 C 0.24752 0.81417 0.40008 0.0
C130 C 0.30859 0.82842 0.41502 0.0
N131 N 0.27932 0.8044 0.41278 0.0
C132 C 0.21972 0.89536 0.32725 0.0
C133 C 0.18432 0.95071 0.32338 0.0
C134 C 0.20245 0.88031 0.30523 0.0
N135 N 0.20976 0.92952 0.33631 0.0
C136 C 0.16664 0.93692 0.30103 0.0
C137 C 0.17505 0.90087 0.29204 0.0
H138 H 0.24079 0.87946 0.33731 0.0
H139 H 0.17721 0.97805 0.33068 0.0
C140 C 0.25425 0.88917 0.46072 0.0
N141 N 0.23074 0.89584 0.4404 0.0
C142 C 0.24176 0.86924 0.48258 0.0
C143 C 0.18168 0.86252 0.4617 0.0
C144 C 0.19525 0.88252 0.44041 0.0
C145 C 0.20473 0.8564 0.48341 0.0
H146 H 0.28225 0.90026 0.4604 0.0
H147 H 0.17696 0.8886 0.42429 0.0
O148 O 0.25977 0.99481 0.36684 0.0
O149 O 0.27174 0.97274 0.42369 0.0
O150 O 0.19771 0.95392 0.39847 0.0
O151 O 0.27096 0.91002 0.3809 0.0
H152 H 0.30209 0.9589 0.33288 0.0
H153 H 0.21996 0.04529 0.3416 0.0
H154 H 0.30298 0.97097 0.2851 0.0
H155 H 0.22232 0.05589 0.29368 0.0
H156 H 0.38537 0.95583 0.46128 0.0
H157 H 0.28384 0.04259 0.4387 0.0
H158 H 0.32973 0.93181 0.43794 0.0
H159 H 0.34027 0.06465 0.46203 0.0
H160 H 0.20284 0.13337 0.40898 0.0
H161 H 0.18077 0.06065 0.47457 0.0
H162 H 0.42001 0.92292 0.36262 0.0
H163 H 0.40638 0.0364 0.38957 0.0
H164 H 0.16143 0.89447 0.38036 0.0
H165 H 0.15699 0.01392 0.38879 0.0
H166 H 0.09975 0.89616 0.35865 0.0
H167 H 0.09546 0.01344 0.36682 0.0
H168 H 0.21875 0.85749 0.37926 0.0
H169 H 0.32965 0.88319 0.40623 0.0
H170 H 0.22463 0.79452 0.39874 0.0
H171 H 0.33348 0.81986 0.42531 0.0
H172 H 0.20997 0.8525 0.29892 0.0
H173 H 0.14658 0.95425 0.29097 0.0
H174 H 0.26051 0.86468 0.49884 0.0
H175 H 0.15282 0.85344 0.46167 0.0
Li176 Li 0.94952 0.77071 0.63546 0.0
Li177 Li 0.96907 0.71074 0.61461 0.0
Li178 Li 0.00221 0.76743 0.60604 0.0
Li179 Li 0.9407 0.75946 0.5878 0.0
C180 C 0.03069 0.74746 0.6511 0.0
N181 N 0.1012 0.7595 0.67123 0.0
C182 C 0.05856 0.72077 0.64767 0.0
C183 C 0.03848 0.77996 0.66517 0.0
C184 C 0.09409 0.72745 0.65788 0.0
C185 C 0.07435 0.78562 0.67509 0.0
C186 C 0.891 0.70777 0.60835 0.0
C187 C 0.87136 0.66072 0.57755 0.0
N188 N 0.8376 0.65888 0.58962 0.0
C189 C 0.85612 0.70547 0.62042 0.0
C190 C 0.89872 0.68527 0.58671 0.0
C191 C 0.82949 0.68055 0.61067 0.0
C192 C 0.90373 0.82245 0.66069 0.0
N193 N 0.92693 0.79319 0.66486 0.0
C194 C 0.91547 0.79566 0.7108 0.0
C195 C 0.93319 0.77962 0.68925 0.0
C196 C 0.89123 0.82596 0.70712 0.0
C197 C 0.88587 0.83964 0.68168 0.0
H198 H 0.89921 0.8325 0.64102 0.0
H199 H 0.95167 0.75614 0.6919 0.0
C200 C 0.00614 0.64409 0.60779 0.0
N201 N 0.97505 0.6588 0.61881 0.0
C202 C 0.01292 0.60593 0.60937 0.0
C203 C 0.95516 0.59862 0.63328 0.0
C204 C 0.94979 0.63713 0.6316 0.0
C205 C 0.98718 0.5826 0.62214 0.0
H206 H 0.02567 0.66212 0.59773 0.0
H207 H 0.92525 0.64964 0.64014 0.0
C208 C 0.96765 0.8411 0.60564 0.0
N209 N 0.98115 0.91708 0.60543 0.0
C210 C 0.96345 0.86166 0.5826 0.0
C211 C 0.97833 0.85932 0.62862 0.0
C212 C 0.97054 0.9 0.58288 0.0
C213 C 0.98511 0.89771 0.6281 0.0
C214 C 0.99903 0.73514 0.55581 0.0
C215 C 0.00152 0.77128 0.54574 0.0
C216 C 0.01104 0.70501 0.54072 0.0
C217 C 0.01609 0.77674 0.52071 0.0
C218 C 0.02539 0.71159 0.51575 0.0
N219 N 0.02763 0.74702 0.50635 0.0
C220 C 0.07464 0.7569 0.58856 0.0
C221 C 0.06037 0.82091 0.59376 0.0
C222 C 0.10723 0.76577 0.57499 0.0
N223 N 0.0513 0.78432 0.59678 0.0
C224 C 0.09253 0.83105 0.5801 0.0
C225 C 0.11572 0.80325 0.5697 0.0
H226 H 0.06656 0.72799 0.59084 0.0
H227 H 0.04163 0.84236 0.60024 0.0
C228 C 0.88753 0.8022 0.56303 0.0
N229 N 0.90879 0.77137 0.5595 0.0
C230 C 0.86647 0.81639 0.54248 0.0
C231 C 0.88802 0.76569 0.51529 0.0
C232 C 0.90885 0.7525 0.53644 0.0
C233 C 0.86688 0.79835 0.51812 0.0
H234 H 0.88818 0.81664 0.58159 0.0
H235 H 0.92587 0.72789 0.53418 0.0
O236 O 0.99593 0.74174 0.64083 0.0
O237 O 0.91726 0.73211 0.61768 0.0
O238 O 0.96046 0.80357 0.60578 0.0
O239 O 0.98559 0.72911 0.58049 0.0
H240 H 0.05293 0.69531 0.63704 0.0
H241 H 0.01705 0.80051 0.66848 0.0
H242 H 0.11602 0.70717 0.65517 0.0
H243 H 0.08082 0.81075 0.6859 0.0
H244 H 0.87697 0.64312 0.56084 0.0
H245 H 0.84972 0.72276 0.63717 0.0
H246 H 0.92555 0.68662 0.5771 0.0
H247 H 0.80238 0.67844 0.61984 0.0
H248 H 0.92028 0.78418 0.73008 0.0
H249 H 0.86828 0.86355 0.678 0.0
H250 H 0.03803 0.59478 0.60063 0.0
H251 H 0.93411 0.58157 0.6427 0.0
H252 H 0.95478 0.84824 0.56467 0.0
H253 H 0.98133 0.84406 0.64667 0.0
H254 H 0.96752 0.91619 0.56518 0.0
H255 H 0.99349 0.91211 0.64574 0.0
H256 H 0.99263 0.79486 0.55722 0.0
H257 H 0.00934 0.67684 0.54826 0.0
H258 H 0.01831 0.8046 0.51274 0.0
H259 H 0.03482 0.68853 0.50385 0.0
H260 H 0.12436 0.7435 0.56732 0.0
H261 H 0.0975 0.86028 0.57601 0.0
H262 H 0.8514 0.84219 0.54533 0.0
H263 H 0.88907 0.75106 0.49679 0.0
Li264 Li 0.76659 0.05334 0.36983 0.0
Li265 Li 0.75593 0.06293 0.41561 0.0
Li266 Li 0.76433 -0.0 0.39863 0.0
Li267 Li 0.70525 0.03464 0.39049 0.0
C268 C 0.83488 0.05118 0.39056 0.0
N269 N 0.90428 0.07226 0.37218 0.0
C270 C 0.85174 0.08391 0.39967 0.0
C271 C 0.85348 0.02898 0.37232 0.0
C272 C 0.88682 0.09411 0.3901 0.0
C273 C 0.88848 0.04019 0.36318 0.0
C274 C 0.7131 0.11898 0.39331 0.0
C275 C 0.66324 0.1558 0.41146 0.0
N276 N 0.68368 0.18727 0.40725 0.0
C277 C 0.73352 0.15169 0.38902 0.0
C278 C 0.6776 0.12101 0.40451 0.0
C279 C 0.7182 0.18594 0.39626 0.0
C280 C 0.78456 0.05714 0.31576 0.0
N281 N 0.78908 0.07411 0.33933 0.0
C282 C 0.82755 0.12131 0.32014 0.0
C283 C 0.80958 0.10591 0.34179 0.0
C284 C 0.82352 0.10427 0.29569 0.0
C285 C 0.80149 0.07205 0.29344 0.0
H286 H 0.7678 0.03209 0.3143 0.0
H287 H 0.81222 0.11921 0.36062 0.0
C288 C 0.79779 0.0753 0.45935 0.0
N289 N 0.76941 0.09143 0.44591 0.0
C290 C 0.81094 0.09114 0.4824 0.0
C291 C 0.76572 0.14046 0.47754 0.0
C292 C 0.75295 0.12324 0.45468 0.0
C293 C 0.79494 0.12417 0.49167 0.0
H294 H 0.81017 0.04985 0.45211 0.0
H295 H 0.72985 0.13522 0.44426 0.0
C296 C 0.73647 0.97114 0.35519 0.0
N297 N 0.73563 0.89878 0.33665 0.0
C298 C 0.70437 0.9492 0.35777 0.0
C299 C 0.76801 0.95642 0.34299 0.0
C300 C 0.70454 0.91264 0.34831 0.0
C301 C 0.76708 0.91973 0.33381 0.0
C302 C 0.72337 0.01933 0.4503 0.0
C303 C 0.74622 0.9974 0.46617 0.0
C304 C 0.69865 0.04457 0.46179 0.0
C305 C 0.74413 0.00128 0.4933 0.0
C306 C 0.69746 0.04767 0.48899 0.0
N307 N 0.72004 0.02616 0.50405 0.0
C308 C 0.81957 0.95059 0.41557 0.0
C309 C 0.75906 0.92402 0.41264 0.0
C310 C 0.83246 0.91951 0.42918 0.0
N311 N 0.78324 0.95265 0.40824 0.0
C312 C 0.77089 0.8922 0.42597 0.0
C313 C 0.80761 0.89047 0.43543 0.0
H314 H 0.83787 0.9742 0.41263 0.0
H315 H 0.73001 0.92694 0.40744 0.0
C316 C 0.63668 0.033 0.36264 0.0
N317 N 0.65329 0.02779 0.38623 0.0
C318 C 0.59877 0.02483 0.35945 0.0
C319 C 0.59593 0.00711 0.405 0.0
C320 C 0.63379 0.01521 0.40723 0.0
C321 C 0.57811 0.01115 0.38075 0.0
H322 H 0.65307 0.0427 0.34622 0.0
H323 H 0.64777 0.0109 0.42565 0.0
O324 O 0.80034 0.04093 0.39945 0.0
O325 O 0.72737 0.08528 0.38593 0.0
O326 O 0.73698 0.00687 0.36453 0.0
O327 O 0.72578 0.01677 0.42366 0.0
H328 H 0.83768 0.10154 0.41368 0.0
H329 H 0.84092 0.00348 0.3652 0.0
H330 H 0.90009 0.11949 0.39684 0.0
H331 H 0.90309 0.02341 0.34893 0.0
H332 H 0.63587 0.15778 0.42023 0.0
H333 H 0.76094 0.15067 0.38029 0.0
H334 H 0.66133 0.09605 0.40791 0.0
H335 H 0.73375 0.21147 0.39315 0.0
H336 H 0.84415 0.14641 0.32238 0.0
H337 H 0.79779 0.05843 0.27472 0.0
H338 H 0.83396 0.07814 0.49259 0.0
H339 H 0.75283 0.16602 0.4842 0.0
H340 H 0.67971 0.9601 0.36719 0.0
H341 H 0.79295 0.97313 0.34065 0.0
H342 H 0.67997 0.89527 0.35029 0.0
H343 H 0.79134 0.90792 0.32441 0.0
H344 H 0.76567 0.97788 0.45769 0.0
H345 H 0.68104 0.06205 0.4498 0.0
H346 H 0.76179 0.98461 0.50581 0.0
H347 H 0.6787 0.06731 0.49812 0.0
H348 H 0.86086 0.9195 0.43638 0.0
H349 H 0.75101 0.87015 0.43006 0.0
H350 H 0.58597 0.02837 0.34044 0.0
H351 H 0.5808 0.99765 0.42209 0.0
Li352 Li 0.94035 0.24301 0.08607 0.0
Li353 Li 0.94813 0.22985 0.13182 0.0
Li354 Li 0.96925 0.29167 0.11289 0.0
Li355 Li 0.00204 0.23194 0.10379 0.0
C356 C 0.88418 0.28492 0.1086 0.0
N357 N 0.81585 0.31407 0.09448 0.0
C358 C 0.85178 0.26346 0.11125 0.0
C359 C 0.88181 0.32129 0.09888 0.0
C360 C 0.81751 0.27867 0.10395 0.0
C361 C 0.84701 0.3355 0.09183 0.0
C362 C 0.94676 0.16292 0.10914 0.0
C363 C 0.95172 0.10716 0.13528 0.0
N364 N 0.91943 0.09421 0.12464 0.0
C365 C 0.91365 0.14901 0.09841 0.0
C366 C 0.96604 0.14178 0.12766 0.0
C367 C 0.9003 0.11421 0.1065 0.0
C368 C 0.92849 0.2039 0.04104 0.0
N369 N 0.91286 0.23228 0.05478 0.0
C370 C 0.86444 0.23811 0.02288 0.0
C371 C 0.88181 0.25 0.04592 0.0
C372 C 0.87989 0.20854 0.00863 0.0
C373 C 0.9125 0.19162 0.0178 0.0
H374 H 0.95337 0.19053 0.04835 0.0
H375 H 0.87032 0.27316 0.05655 0.0
C376 C 0.94258 0.21119 0.18557 0.0
N377 N 0.92606 0.207 0.16184 0.0
C378 C 0.92702 0.19444 0.20773 0.0
C379 C 0.87792 0.16924 0.18058 0.0
C380 C 0.89401 0.18702 0.1591 0.0
C381 C 0.89447 0.17268 0.20534 0.0
H382 H 0.96769 0.22779 0.18733 0.0
H383 H 0.88102 0.18456 0.14017 0.0
C384 C 0.98499 0.27923 0.05354 0.0
N385 N 0.97829 0.29215 0.00056 0.0
C386 C 0.00381 0.25658 0.03569 0.0
C387 C 0.96304 0.30864 0.0445 0.0
C388 C -0.0 0.26353 0.00896 0.0
C389 C 0.95993 0.31467 0.01762 0.0
C390 C 0.0313 0.25524 0.14716 0.0
C391 C 0.05576 0.28543 0.14445 0.0
C392 C 0.04387 0.22211 0.15847 0.0
C393 C 0.09262 0.28182 0.15289 0.0
C394 C 0.08094 0.2196 0.16664 0.0
N395 N 0.10435 0.24925 0.16369 0.0
C396 C 0.95861 0.36221 0.13723 0.0
C397 C 0.00162 0.36053 0.10201 0.0
C398 C 0.9649 0.40042 0.14056 0.0
N399 N 0.97685 0.34329 0.11811 0.0
C400 C 0.00884 0.39854 0.1047 0.0
C401 C 0.99047 0.41892 0.12423 0.0
H402 H 0.93909 0.34763 0.14974 0.0
H403 H 0.01576 0.34467 0.08704 0.0
C404 C 0.05201 0.17485 0.09025 0.0
N405 N 0.04907 0.21217 0.09421 0.0
C406 C 0.08322 0.16031 0.07766 0.0
C407 C 0.10853 0.22273 0.07438 0.0
C408 C 0.07674 0.2361 0.08703 0.0
C409 C 0.11157 0.18446 0.06897 0.0
H410 H 0.02909 0.15663 0.09527 0.0
H411 H 0.07308 0.26579 0.08969 0.0
O412 O 0.91787 0.27078 0.11611 0.0
O413 O 0.96022 0.19702 0.10157 0.0
O414 O 0.98741 0.27217 0.07974 0.0
O415 O 0.99535 0.25794 0.1385 0.0
H416 H 0.85306 0.23532 0.11872 0.0
H417 H 0.90653 0.33833 0.09668 0.0
H418 H 0.79223 0.26231 0.1058 0.0
H419 H 0.84478 0.36355 0.08423 0.0
H420 H 0.96626 0.09062 0.14969 0.0
H421 H 0.8981 0.16508 0.08428 0.0
H422 H 0.99163 0.15213 0.13621 0.0
H423 H 0.87463 0.1032 0.09846 0.0
H424 H 0.83922 0.25173 0.01629 0.0
H425 H 0.92487 0.16833 0.00751 0.0
H426 H 0.94007 0.19897 0.22655 0.0
H427 H 0.85287 0.15275 0.17777 0.0
H428 H 0.02076 0.23357 0.04239 0.0
H429 H 0.94826 0.32636 0.05809 0.0
H430 H 0.01417 0.24607 0.9949 0.0
H431 H 0.94285 0.33717 0.01031 0.0
H432 H 0.04647 0.31125 0.13574 0.0
H433 H 0.02524 0.19856 0.1608 0.0
H434 H 0.11192 0.30489 0.1508 0.0
H435 H 0.09111 0.19408 0.17532 0.0
H436 H 0.95014 0.41533 0.15577 0.0
H437 H 0.02812 0.41198 0.09137 0.0
H438 H 0.08383 0.1308 0.07315 0.0
H439 H 0.12963 0.24227 0.06778 0.0
Li440 Li 0.24117 0.05367 0.91432 0.0
Li441 Li 0.23224 0.99246 0.89382 0.0
Li442 Li 0.29032 0.02748 0.88799 0.0
Li443 Li 0.23272 0.04725 0.86705 0.0
C444 C 0.27237 0.00599 0.94691 0.0
N445 N 0.27625 0.00592 0.00086 0.0
C446 C 0.24872 0.98291 0.9615 0.0
C447 C 0.29819 0.0288 0.95978 0.0
C448 C 0.2511 0.9833 0.98875 0.0
C449 C 0.29964 0.02846 0.98705 0.0
C450 C 0.16534 0.04975 0.88615 0.0
C451 C 0.11219 0.04848 0.8573 0.0
N452 N 0.10281 0.08334 0.86538 0.0
C453 C 0.15512 0.08551 0.89426 0.0
C454 C 0.14365 0.03096 0.86763 0.0
C455 C 0.12339 0.10202 0.88351 0.0
C456 C 0.24183 0.11501 0.95073 0.0
N457 N 0.22767 0.08086 0.94463 0.0
C458 C 0.18833 0.08162 0.98222 0.0
C459 C 0.20132 0.06415 0.95973 0.0
C460 C 0.20219 0.11693 0.98903 0.0
C461 C 0.22919 0.13381 0.97299 0.0
H462 H 0.26236 0.12788 0.93812 0.0
H463 H 0.19001 0.03735 0.95402 0.0
C464 C 0.23482 0.91581 0.90636 0.0
N465 N 0.2117 0.94502 0.90164 0.0
C466 C 0.22131 0.88393 0.91892 0.0
C467 C 0.16026 0.91228 0.92041 0.0
C468 C 0.17484 0.94341 0.90763 0.0
C469 C 0.18396 0.88272 0.9272 0.0
H470 H 0.26424 0.91832 0.90207 0.0
H471 H 0.15737 0.96745 0.90435 0.0
C472 C 0.29922 0.10054 0.88063 0.0
N473 N 0.36174 0.14241 0.86859 0.0
C474 C 0.30476 0.11348 0.85515 0.0
C475 C 0.32528 0.10916 0.90003 0.0
C476 C 0.33657 0.13459 0.84945 0.0
C477 C 0.35679 0.13024 0.89353 0.0
C478 C 0.26182 0.96525 0.85149 0.0
C479 C 0.29497 0.94489 0.85236 0.0
C480 C 0.22944 0.94861 0.84162 0.0
C481 C 0.29508 0.90804 0.84348 0.0
C482 C 0.2307 0.91168 0.83297 0.0
N483 N 0.26321 0.89233 0.83408 0.0
C484 C 0.36107 0.00388 0.90396 0.0
C485 C 0.36091 0.03467 0.86294 0.0
C486 C 0.39946 0.99838 0.90233 0.0
N487 N 0.34274 0.02211 0.88457 0.0
C488 C 0.39947 0.03035 0.86071 0.0
C489 C 0.41902 0.01203 0.88062 0.0
H490 H 0.34583 0.99328 0.9206 0.0
H491 H 0.34545 0.04783 0.84737 0.0
C492 C 0.20342 0.10765 0.83879 0.0
N493 N 0.21117 0.07063 0.83737 0.0
C494 C 0.18571 0.12555 0.81802 0.0
C495 C 0.18469 0.06695 0.79463 0.0
C496 C 0.20256 0.05021 0.81581 0.0
C497 C 0.17578 0.10502 0.79572 0.0
H498 H 0.21057 0.12313 0.85624 0.0
H499 H 0.20922 0.02087 0.81518 0.0
O500 O 0.27003 0.00659 0.92021 0.0
O501 O 0.19694 0.03358 0.89582 0.0
O502 O 0.26843 0.07955 0.88654 0.0
O503 O 0.26104 0.00124 0.8603 0.0
H504 H 0.22841 0.96521 0.95198 0.0
H505 H 0.31674 0.04678 0.94881 0.0
H506 H 0.23284 0.96572 0.00027 0.0
H507 H 0.31934 0.04615 0.99725 0.0
H508 H 0.09533 0.03441 0.84278 0.0
H509 H 0.17175 0.10055 0.90843 0.0
H510 H 0.15136 0.00337 0.86102 0.0
H511 H 0.11524 0.12975 0.88949 0.0
H512 H 0.16673 0.0682 0.9937 0.0
H513 H 0.24008 0.16128 0.97752 0.0
H514 H 0.24033 0.86147 0.92348 0.0
H515 H 0.13141 0.91264 0.92669 0.0
H516 H 0.28495 0.10695 0.83987 0.0
H517 H 0.32138 0.09943 0.91984 0.0
H518 H 0.34133 0.14463 0.82979 0.0
H519 H 0.37733 0.13691 0.90831 0.0
H520 H 0.32029 0.9573 0.85991 0.0
H521 H 0.20349 0.96386 0.84101 0.0
H522 H 0.3205 0.89191 0.84411 0.0
H523 H 0.20579 0.89836 0.82546 0.0
H524 H 0.4138 0.98396 0.91796 0.0
H525 H 0.41379 0.04071 0.84352 0.0
H526 H 0.17925 0.15496 0.81955 0.0
H527 H 0.17807 0.05038 0.77754 0.0
Li528 Li 0.99456 0.7661 0.10298 0.0
Li529 Li 0.02892 0.70729 0.11216 0.0
Li530 Li 0.04863 0.7698 0.13062 0.0
Li531 Li 0.05624 0.75637 0.08496 0.0
C532 C 0.96612 0.7419 0.14633 0.0
N533 N 0.89275 0.74506 0.16261 0.0
C534 C 0.9427 0.71099 0.14315 0.0
C535 C 0.95235 0.77431 0.15796 0.0
C536 C 0.90566 0.71317 0.15147 0.0
C537 C 0.91514 0.77539 0.16601 0.0
C538 C 0.01274 0.71896 0.05281 0.0
C539 C 0.03878 0.68392 0.01703 0.0
N540 N 0.02026 0.70613 -0.00013 0.0
C541 C 0.9938 0.74133 0.03486 0.0
C542 C 0.03528 0.68991 0.04389 0.0
C543 C 0.99802 0.73442 0.00815 0.0
C544 C 0.94294 0.82211 0.09049 0.0
N545 N 0.94697 0.78476 0.09371 0.0
C546 C 0.8877 0.77331 0.07386 0.0
C547 C 0.91994 0.76034 0.08615 0.0
C548 C 0.88355 0.81168 0.06923 0.0
C549 C 0.91125 0.83626 0.07831 0.0
H550 H 0.96535 0.84078 0.09577 0.0
H551 H 0.92443 0.73068 0.08825 0.0
C552 C 0.04094 0.63775 0.13742 0.0
N553 N 0.02294 0.6555 0.11767 0.0
C554 C 0.03629 0.59934 0.1409 0.0
C555 C 0.99422 0.59865 0.10395 0.0
C556 C -0.00026 0.63693 0.10117 0.0
C557 C 0.01284 0.57935 0.12389 0.0
H558 H 0.05903 0.65342 0.15034 0.0
H559 H 0.98553 0.65191 0.0858 0.0
C560 C 0.04767 0.83653 0.10815 0.0
N561 N 0.07258 0.90589 0.12424 0.0
C562 C 0.08004 0.85198 0.09732 0.0
C563 C 0.02793 0.85645 0.12711 0.0
C564 C 0.09216 0.88708 0.10571 0.0
C565 C 0.04101 0.89142 0.13501 0.0
C566 C 0.1137 0.71622 0.10713 0.0
C567 C 0.14535 0.73901 0.1085 0.0
C568 C 0.11707 0.67947 0.0983 0.0
C569 C 0.17987 0.72472 0.10085 0.0
C570 C 0.1521 0.6662 0.09088 0.0
N571 N 0.1825 0.68891 0.09228 0.0
C572 C 0.0542 0.79032 0.18415 0.0
C573 C 0.10231 0.81391 0.15699 0.0
C574 C 0.06973 0.80818 0.20589 0.0
N575 N 0.07053 0.79367 0.16028 0.0
C576 C 0.11836 0.83275 0.17802 0.0
C577 C 0.10205 0.83013 0.2029 0.0
H578 H 0.02925 0.77358 0.18633 0.0
H579 H 0.11504 0.81583 0.13795 0.0
C580 C 0.06845 0.79655 0.04021 0.0
N581 N 0.08344 0.76747 0.05358 0.0
C582 C 0.0851 0.80951 0.01737 0.0
C583 C 0.13199 0.7617 0.02175 0.0
C584 C 0.11402 0.74924 0.0444 0.0
C585 C 0.11769 0.79252 0.00823 0.0
H586 H 0.0437 0.81009 0.0476 0.0
H587 H 0.12472 0.72526 0.05454 0.0
O588 O 0.00222 0.7406 0.13777 0.0
O589 O 0.00987 0.72597 0.07898 0.0
O590 O 0.03545 0.80207 0.10032 0.0
O591 O 0.07978 0.72949 0.11498 0.0
H592 H 0.95289 0.68572 0.13415 0.0
H593 H 0.97017 0.7984 0.16066 0.0
H594 H 0.88715 0.68954 0.14902 0.0
H595 H 0.90406 0.80034 0.17494 0.0
H596 H 0.05632 0.66169 0.00982 0.0
H597 H 0.97642 0.76407 0.04147 0.0
H598 H 0.05024 0.67247 0.05756 0.0
H599 H 0.98373 0.75164 0.99401 0.0
H600 H 0.86712 0.75347 0.06691 0.0
H601 H 0.9098 0.8659 0.07439 0.0
H602 H 0.05066 0.58547 0.15675 0.0
H603 H 0.97603 0.58416 0.09041 0.0
H604 H 0.09602 0.83685 0.08291 0.0
H605 H 0.00298 0.84488 0.13581 0.0
H606 H 0.11725 0.89927 0.09758 0.0
H607 H 0.02611 0.90702 0.14976 0.0
H608 H 0.1433 0.76749 0.11519 0.0
H609 H 0.09295 0.66142 0.09702 0.0
H610 H 0.20456 0.7421 0.1017 0.0
H611 H 0.15509 0.63786 0.08395 0.0
H612 H 0.05689 0.80433 0.22485 0.0
H613 H 0.14322 0.84936 0.17478 0.0
H614 H 0.07337 0.83345 0.00745 0.0
H615 H 0.1569 0.74769 0.01499 0.0
Li616 Li 0.76504 0.00797 0.89591 0.0
Li617 Li 0.75614 0.94665 0.91615 0.0
Li618 Li 0.76524 0.95327 0.86891 0.0
Li619 Li 0.7071 0.97278 0.8897 0.0
C620 C 0.8332 0.9522 0.88896 0.0
N621 N 0.89854 0.92175 0.8701 0.0
C622 C 0.84637 0.91852 0.89907 0.0
C623 C 0.85339 0.97054 0.8694 0.0
C624 C 0.87947 0.90357 0.88926 0.0
C625 C 0.8863 0.95463 0.86007 0.0
C626 C 0.72387 0.99351 0.94868 0.0
C627 C 0.69547 0.96997 0.98813 0.0
N628 N 0.71855 0.99204 0.00254 0.0
C629 C 0.74717 0.01613 0.96387 0.0
C630 C 0.69766 0.97039 0.96088 0.0
C631 C 0.74408 0.01494 0.99107 0.0
C632 C 0.76211 0.08437 0.90923 0.0
N633 N 0.78535 0.0556 0.90359 0.0
C634 C 0.83762 0.08942 0.92018 0.0
C635 C 0.82257 0.05786 0.9082 0.0
C636 C 0.8141 0.11891 0.92746 0.0
C637 C 0.77605 0.11663 0.92109 0.0
H638 H 0.73243 0.08126 0.90616 0.0
H639 H 0.84017 0.03411 0.90436 0.0
C640 C 0.75472 0.88443 0.95151 0.0
N641 N 0.76889 0.91887 0.94632 0.0
C642 C 0.76671 0.86478 0.97357 0.0
C643 C 0.80688 0.91683 0.98453 0.0
C644 C 0.79456 0.93515 0.96219 0.0
C645 C 0.79307 0.88115 0.99036 0.0
H646 H 0.73472 0.87196 0.9383 0.0
H647 H 0.80594 0.9622 0.95718 0.0
C648 C 0.73653 0.03504 0.85328 0.0
N649 N 0.73663 0.10788 0.83572 0.0
C650 C 0.70434 0.05668 0.8554 0.0
C651 C 0.76869 0.05031 0.84207 0.0
C652 C 0.70497 0.09349 0.84643 0.0
C653 C 0.76821 0.08724 0.83337 0.0
C654 C 0.69942 0.89934 0.8812 0.0
C655 C 0.69595 0.88629 0.85557 0.0
C656 C 0.67231 0.89004 0.89974 0.0
C657 C 0.6651 0.86439 0.84885 0.0
C658 C 0.64183 0.86815 0.89222 0.0
N659 N 0.63888 0.8559 0.86715 0.0
C660 C 0.80165 0.89562 0.84178 0.0
C661 C 0.78656 0.94815 0.8157 0.0
C662 C 0.81862 0.87821 0.82052 0.0
N663 N 0.78656 0.93015 0.83908 0.0
C664 C 0.80267 0.93147 0.7938 0.0
C665 C 0.8191 0.89618 0.79619 0.0
H666 H 0.80063 0.88173 0.86052 0.0
H667 H 0.77407 0.97545 0.81409 0.0
C668 C 0.63672 0.99804 0.90482 0.0
N669 N 0.65474 0.97832 0.886 0.0
C670 C 0.59852 0.00445 0.90286 0.0
C671 C 0.59797 0.97002 0.86221 0.0
C672 C 0.63639 0.96485 0.86471 0.0
C673 C 0.57882 0.99026 0.88139 0.0
H674 H 0.65211 0.00923 0.9212 0.0
H675 H 0.6516 0.95038 0.8496 0.0
O676 O 0.80053 0.96699 0.89798 0.0
O677 O 0.72701 0.99359 0.92204 0.0
O678 O 0.73666 0.99914 0.86228 0.0
O679 O 0.72933 0.92091 0.88814 0.0
H680 H 0.83104 0.90386 0.91413 0.0
H681 H 0.84352 0.99659 0.86134 0.0
H682 H 0.88991 0.87743 0.8968 0.0
H683 H 0.90207 0.96838 0.84481 0.0
H684 H 0.67547 0.95204 0.99783 0.0
H685 H 0.76777 0.03403 0.95481 0.0
H686 H 0.67941 0.95276 0.94941 0.0
H687 H 0.76209 0.03211 0.00307 0.0
H688 H 0.86686 0.08937 0.92546 0.0
H689 H 0.75696 0.13863 0.92656 0.0
H690 H 0.7559 0.83705 0.97734 0.0
H691 H 0.82803 0.92988 0.99662 0.0
H692 H 0.67922 0.04531 0.86401 0.0
H693 H 0.79383 0.03392 0.84032 0.0
H694 H 0.68032 0.11063 0.84803 0.0
H695 H 0.79295 0.0995 0.82479 0.0
H696 H 0.71668 0.89322 0.84098 0.0
H697 H 0.67465 0.89984 0.91966 0.0
H698 H 0.66195 0.85423 0.82906 0.0
H699 H 0.62051 0.86093 0.90632 0.0
H700 H 0.83084 0.85084 0.82293 0.0
H701 H 0.80273 0.9461 0.77528 0.0
H702 H 0.58444 0.02011 0.91802 0.0
H703 H 0.58348 0.95897 0.84531 0.0
C704 C 0.00482 0.52316 0.5999 0.0
C705 C 0.9933 0.54166 0.62275 0.0
C706 C 0.01077 0.48464 0.59967 0.0
C707 C 0.00529 0.46293 0.62225 0.0
H708 H 0.00891 0.53852 0.58188 0.0
H709 H 0.01993 0.47179 0.58163 0.0
S710 S 0.97529 0.49775 0.68723 0.0
N711 N 0.97746 0.53547 0.66878 0.0
N712 N 0.9871 0.46268 0.66807 0.0
C713 C 0.99373 0.481 0.64528 0.0
C714 C 0.98797 0.52039 0.64556 0.0
C715 C 0.51334 0.02635 0.36591 0.0
C716 C 0.53807 0.0013 0.37793 0.0
C717 C 0.47496 0.01891 0.36492 0.0
C718 C 0.45991 0.98608 0.37582 0.0
H719 H 0.52357 0.05242 0.35789 0.0
H720 H 0.45686 0.03923 0.35581 0.0
S721 S 0.51318 0.91047 0.40817 0.0
N722 N 0.54517 0.94129 0.39948 0.0
N723 N 0.47295 0.92794 0.39851 0.0
C724 C 0.4845 0.96034 0.38727 0.0
C725 C 0.52356 0.96783 0.38814 0.0
C726 C 0.9664 0.48415 0.12656 0.0
C727 C 0.99689 0.45962 0.12668 0.0
C728 C 0.97182 0.52288 0.1263 0.0
C729 C 0.00791 0.53844 0.12642 0.0
H730 H 0.93816 0.47335 0.12577 0.0
H731 H 0.94757 0.5408 0.12565 0.0
S732 S 0.09693 0.48618 0.12833 0.0
N733 N 0.06434 0.45351 0.12831 0.0
N734 N 0.07456 0.52634 0.12751 0.0
C735 C 0.0386 0.51422 0.12741 0.0
C736 C 0.03308 0.4748 0.12756 0.0
C737 C 0.47504 0.97099 0.87967 0.0
C738 C 0.45978 0.00704 0.87898 0.0
C739 C 0.51375 0.96571 0.87957 0.0
C740 C 0.53828 0.99635 0.8793 0.0
H741 H 0.4569 0.94678 0.88046 0.0
H742 H 0.52458 0.93756 0.88045 0.0
S743 S 0.51224 0.09621 0.87701 0.0
N744 N 0.47195 0.07369 0.87739 0.0
N745 N 0.54483 0.06377 0.87771 0.0
C746 C 0.52336 0.03247 0.8783 0.0
C747 C 0.48402 0.03782 0.87798 0.0
C748 C 0.19232 0.13921 0.48453 0.0
C749 C 0.17665 0.13272 0.45974 0.0
C750 C 0.17563 0.16385 0.50222 0.0
C751 C 0.14243 0.18243 0.4958 0.0
H752 H 0.21672 0.12381 0.49072 0.0
H753 H 0.18743 0.16647 0.52162 0.0
S754 S 0.09252 0.17794 0.43243 0.0
N755 N 0.12799 0.1491 0.42885 0.0
N756 N 0.09638 0.1954 0.4622 0.0
C757 C 0.12778 0.17793 0.4705 0.0
C758 C 0.145 0.1531 0.45241 0.0
C759 C 0.16616 0.80704 0.50486 0.0
C760 C 0.18856 0.83913 0.50722 0.0
C761 C 0.14455 0.79424 0.52581 0.0
C762 C 0.14451 0.81304 0.54997 0.0
H763 H 0.16399 0.79269 0.48628 0.0
H764 H 0.12602 0.77077 0.52249 0.0
S765 S 0.20167 0.89585 0.56719 0.0
N766 N 0.21166 0.88778 0.5362 0.0
N767 N 0.1717 0.86302 0.57587 0.0
C768 C 0.16869 0.84366 0.55313 0.0
C769 C 0.19066 0.8568 0.53172 0.0
C770 C 0.85428 0.84437 0.45209 0.0
C771 C 0.81913 0.86138 0.45442 0.0
C772 C 0.86858 0.82196 0.47215 0.0
C773 C 0.8483 0.81587 0.49531 0.0
H774 H 0.87149 0.84963 0.43507 0.0
H775 H 0.89658 0.8111 0.47009 0.0
S776 S 0.75343 0.85087 0.51008 0.0
N777 N 0.76343 0.86861 0.48114 0.0
N778 N 0.78988 0.8255 0.51837 0.0
C779 C 0.8122 0.83075 0.4972 0.0
C780 C 0.79768 0.85369 0.47685 0.0
C781 C 0.82578 0.1786 0.51297 0.0
C782 C 0.81081 0.14249 0.51504 0.0
C783 C 0.84719 0.1939 0.53323 0.0
C784 C 0.85413 0.17367 0.55633 0.0
H785 H 0.82289 0.19421 0.49496 0.0
H786 H 0.8603 0.2208 0.53006 0.0
S787 S 0.81539 0.08056 0.57291 0.0
N788 N 0.80041 0.08864 0.54292 0.0
N789 N 0.84005 0.11767 0.58133 0.0
C790 C 0.83684 0.13866 0.55935 0.0
C791 C 0.81532 0.123 0.53862 0.0
C792 C 0.80848 0.15661 0.96834 0.0
C793 C 0.82822 0.14855 0.94522 0.0
C794 C 0.82445 0.17848 0.98812 0.0
C795 C 0.86076 0.1928 0.98552 0.0
H796 H 0.78149 0.14397 0.97199 0.0
H797 H 0.80924 0.18211 0.00624 0.0
S798 S 0.92155 0.18543 0.92721 0.0
N799 N 0.88394 0.16106 0.91949 0.0
N800 N 0.91423 0.2015 0.95702 0.0
C801 C 0.87972 0.18728 0.96184 0.0
C802 C 0.86338 0.16531 0.9416 0.0
C803 C 0.16912 0.17201 0.00755 0.0
C804 C 0.18566 0.13699 0.01147 0.0
C805 C 0.14706 0.18838 0.02701 0.0
C806 C 0.14092 0.17034 0.05109 0.0
H807 H 0.17131 0.18577 0.98876 0.0
H808 H 0.13287 0.21421 0.0225 0.0
S809 S 0.18356 0.08137 0.07251 0.0
N810 N 0.19835 0.08697 0.04219 0.0
N811 N 0.15722 0.11794 0.07895 0.0
C812 C 0.15965 0.13665 0.05591 0.0
C813 C 0.18194 0.11993 0.03606 0.0
C814 C 0.11889 0.81582 0.96223 0.0
C815 C 0.13778 0.80919 0.98584 0.0
C816 C 0.1351 0.8376 0.94249 0.0
C817 C 0.17061 0.85379 0.94577 0.0
H818 H 0.09082 0.80525 0.95945 0.0
H819 H 0.11908 0.84309 0.92497 0.0
S820 S 0.23146 0.84442 0.00411 0.0
N821 N 0.19406 0.81942 0.01122 0.0
N822 N 0.22432 0.86106 0.97446 0.0
C823 C 0.19036 0.84604 0.96893 0.0
C824 C 0.17396 0.82358 0.98889 0.0
C825 C 0.82637 0.8256 0.00791 0.0
C826 C 0.80919 0.86014 0.01251 0.0
C827 C 0.84839 0.80871 0.02715 0.0
C828 C 0.85383 0.82574 0.05166 0.0
H829 H 0.8248 0.81275 0.98878 0.0
H830 H 0.86318 0.78341 0.02214 0.0
S831 S 0.80916 0.9128 0.07483 0.0
N832 N 0.795 0.9084 0.04427 0.0
N833 N 0.83604 0.87641 0.08063 0.0
C834 C 0.83433 0.85877 0.05715 0.0
C835 C 0.81208 0.87603 0.03752 0.0
C836 C 0.1536 0.17414 0.74179 0.0
C837 C 0.12043 0.15977 0.73102 0.0
C838 C 0.17116 0.15641 0.76284 0.0
C839 C 0.15643 0.12342 0.77365 0.0
H840 H 0.16589 0.19946 0.73402 0.0
H841 H 0.1967 0.16835 0.77053 0.0
S842 S 0.07033 0.07442 0.75247 0.0
N843 N 0.07368 0.11055 0.73257 0.0
N844 N 0.10656 0.07735 0.7723 0.0
C845 C 0.12332 0.10875 0.76306 0.0
C846 C 0.10531 0.12693 0.74174 0.0
C847 C 0.15867 0.84775 0.22882 0.0
C848 C 0.11971 0.8492 0.22561 0.0
C849 C 0.17624 0.86504 0.25005 0.0
C850 C 0.15562 0.88438 0.26909 0.0
H851 H 0.1758 0.83265 0.21499 0.0
H852 H 0.20631 0.86318 0.25156 0.0
S853 S 0.0529 0.89695 0.26968 0.0
N854 N 0.06109 0.8727 0.24287 0.0
N855 N 0.09398 0.90374 0.28348 0.0
C856 C 0.11664 0.88624 0.26611 0.0
C857 C 0.09873 0.8689 0.24429 0.0
C858 C 0.89189 0.85104 0.75289 0.0
C859 C 0.87199 0.84341 0.72976 0.0
C860 C 0.87452 0.86792 0.77438 0.0
C861 C 0.83675 0.8781 0.7734 0.0
H862 H 0.92126 0.84439 0.7543 0.0
H863 H 0.89086 0.87355 0.79176 0.0
S864 S 0.77135 0.86159 0.71857 0.0
N865 N 0.8116 0.84513 0.70804 0.0
N866 N 0.77943 0.87787 0.74822 0.0
C867 C 0.81639 0.87033 0.75063 0.0
C868 C 0.83388 0.85275 0.72886 0.0
C869 C 0.82082 0.13867 0.25344 0.0
C870 C 0.84202 0.1205 0.27259 0.0
C871 C 0.83805 0.15553 0.23185 0.0
C872 C 0.87708 0.15443 0.2285 0.0
H873 H 0.79079 0.14038 0.25542 0.0
H874 H 0.82065 0.16999 0.21787 0.0
S875 S 0.94436 0.10746 0.27267 0.0
N876 N 0.90343 0.1011 0.28683 0.0
N877 N 0.936 0.13145 0.24576 0.0
C878 C 0.89842 0.13555 0.24743 0.0
C879 C 0.88083 0.11887 0.26958 0.0
loop_
_geom_bond_atom_site_label_1
_geom_bond_atom_site_label_2
_geom_bond_distance
_geom_bond_site_symmetry_2
_ccdc_geom_bond_type
Li0 N17 1.990 . S
Li0 O60 1.956 . S
Li0 O61 1.970 . S
Li0 O62 1.961 . S
Li1 N25 1.990 . S
Li1 O60 1.970 . S
Li1 O61 1.956 . S
Li1 O63 1.961 . S
Li2 N47 1.990 1_455 S
Li2 O60 1.961 . S
Li2 O62 1.956 . S
Li2 O63 1.970 . S
Li3 N53 1.990 . S
Li3 O61 1.961 . S
Li3 O62 1.970 . S
Li3 O63 1.956 . S
C4 C6 1.348 . S
C4 C7 1.356 . S
C4 O60 1.325 1_655 S
N5 C8 1.314 . S
N5 C9 1.279 . S
C6 C4 1.348 . S
C6 C8 1.353 . S
C6 H64 0.929 . S
C7 C4 1.356 . S
C7 C9 1.358 . S
C7 H65 0.930 . S
C8 N5 1.314 . S
C8 C6 1.353 . S
C8 H66 0.930 . S
C9 N5 1.279 . S
C9 C7 1.358 . S
C9 H67 0.930 . S
C10 C13 1.348 . S
C10 C14 1.356 . S
C10 O61 1.325 . S
C11 N12 1.279 . S
C11 C14 1.358 . S
C11 H68 0.930 . S
N12 C11 1.279 . S
N12 C15 1.314 . S
C13 C10 1.348 . S
C13 C15 1.353 . S
C13 H69 0.929 . S
C14 C10 1.356 . S
C14 C11 1.358 . S
C14 H70 0.930 . S
C15 N12 1.314 . S
C15 C13 1.353 . S
C15 H71 0.930 . S
C16 N17 1.314 . S
C16 C21 1.353 . S
C16 H22 0.930 . S
N17 Li0 1.990 . S
N17 C16 1.314 . S
N17 C19 1.279 . S
C18 C19 1.358 . S
C18 C20 1.356 . S
C18 H72 0.930 . S
C19 N17 1.279 . S
C19 C18 1.358 . S
C19 H23 0.930 . S
C20 C18 1.356 . S
C20 C21 1.348 . S
C21 C16 1.353 . S
C21 C20 1.348 . S
C21 H73 0.929 . S
H22 C16 0.930 . S
H23 C19 0.930 . S
C24 N25 1.314 . S
C24 C26 1.353 . S
C24 H30 0.930 1_455 S
N25 Li1 1.990 . S
N25 C24 1.314 . S
N25 C28 1.279 . S
C26 C24 1.353 . S
C26 C29 1.348 . S
C26 H74 0.929 1_455 S
C27 C28 1.358 . S
C27 C29 1.356 . S
C27 H75 0.930 . S
C28 N25 1.279 . S
C28 C27 1.358 . S
C28 H31 0.930 . S
C29 C26 1.348 . S
C29 C27 1.356 . S
H30 C24 0.930 1_655 S
H31 C28 0.930 . S
C32 C34 1.348 . S
C32 C35 1.356 . S
C32 O62 1.325 . S
N33 C36 1.314 . S
N33 C37 1.279 . S
C34 C32 1.348 . S
C34 C36 1.353 . S
C34 H76 0.929 . S
C35 C32 1.356 . S
C35 C37 1.358 . S
C35 H77 0.930 . S
C36 N33 1.314 . S
C36 C34 1.353 . S
C36 H78 0.930 . S
C37 N33 1.279 . S
C37 C35 1.358 . S
C37 H79 0.930 . S
C38 C39 1.337 1_455 S
C38 C40 1.356 . S
C38 O63 1.325 . S
C39 C38 1.337 1_655 S
C39 C41 1.355 . S
C39 H80 0.938 . S
C40 C38 1.356 . S
C40 C42 1.358 . S
C40 H81 0.930 . S
C41 C39 1.355 . S
C41 N43 1.314 1_655 S
C41 H82 0.930 . S
C42 C40 1.358 . S
C42 N43 1.279 . S
C42 H83 0.930 . S
N43 C41 1.314 1_455 S
N43 C42 1.279 . S
C44 C46 1.353 . S
C44 N47 1.314 . S
C44 H50 0.930 . S
C45 N47 1.279 . S
C45 C48 1.358 . S
C45 H51 0.930 . S
C46 C44 1.353 . S
C46 C49 1.348 . S
C46 H84 0.929 . S
N47 Li2 1.990 1_655 S
N47 C44 1.314 . S
N47 C45 1.279 . S
C48 C45 1.358 . S
C48 C49 1.356 . S
C48 H85 0.930 . S
C49 C46 1.348 . S
C49 C48 1.356 . S
H50 C44 0.930 . S
H51 C45 0.930 . S
C52 N53 1.314 . S
C52 C54 1.353 . S
C52 H58 0.930 . S
N53 Li3 1.990 . S
N53 C52 1.314 . S
N53 C56 1.279 . S
C54 C52 1.353 . S
C54 C57 1.348 . S
C54 H86 0.929 . S
C55 C56 1.358 . S
C55 C57 1.356 . S
C55 H87 0.930 . S
C56 N53 1.279 . S
C56 C55 1.358 . S
C56 H59 0.930 . S
C57 C54 1.348 . S
C57 C55 1.356 . S
H58 C52 0.930 . S
H59 C56 0.930 . S
O60 Li0 1.956 . S
O60 Li1 1.970 . S
O60 Li2 1.961 . S
O60 C4 1.325 1_455 S
O61 Li0 1.970 . S
O61 Li1 1.956 . S
O61 Li3 1.961 . S
O61 C10 1.325 . S
O62 Li0 1.961 . S
O62 Li2 1.956 . S
O62 Li3 1.970 . S
O62 C32 1.325 . S
O63 Li1 1.961 . S
O63 Li2 1.970 . S
O63 Li3 1.956 . S
O63 C38 1.325 . S
H64 C6 0.929 . S
H65 C7 0.930 . S
H66 C8 0.930 . S
H67 C9 0.930 . S
H68 C11 0.930 . S
H69 C13 0.929 . S
H70 C14 0.930 . S
H71 C15 0.930 . S
H72 C18 0.930 . S
H73 C21 0.929 . S
H74 C26 0.929 1_655 S
H75 C27 0.930 . S
H76 C34 0.929 . S
H77 C35 0.930 . S
H78 C36 0.930 . S
H79 C37 0.930 . S
H80 C39 0.938 . S
H81 C40 0.930 . S
H82 C41 0.930 . S
H83 C42 0.930 . S
H84 C46 0.929 . S
H85 C48 0.930 . S
H86 C54 0.929 . S
H87 C55 0.930 . S
Li88 N105 1.999 . S
Li88 O148 1.955 1_545 S
Li88 O149 1.965 1_545 S
Li88 O150 1.954 1_545 S
Li89 N113 1.990 . S
Li89 O148 1.970 . S
Li89 O149 1.956 . S
Li89 O151 1.961 . S
Li90 N135 1.990 . S
Li90 O148 1.961 . S
Li90 O150 1.956 . S
Li90 O151 1.970 . S
Li91 N141 1.990 . S
Li91 O149 1.961 . S
Li91 O150 1.970 . S
Li91 O151 1.956 . S
C92 C94 1.348 . S
C92 C95 1.356 . S
C92 O148 1.325 1_545 S
N93 C96 1.314 . S
N93 C97 1.279 . S
C94 C92 1.348 . S
C94 C96 1.353 . S
C94 H152 0.929 . S
C95 C92 1.356 . S
C95 C97 1.358 . S
C95 H153 0.930 . S
C96 N93 1.314 . S
C96 C94 1.353 . S
C96 H154 0.930 . S
C97 N93 1.279 . S
C97 C95 1.358 . S
C97 H155 0.930 . S
C98 C101 1.348 1_565 S
C98 C102 1.356 . S
C98 O149 1.325 . S
C99 N100 1.279 . S
C99 C102 1.358 . S
C99 H156 0.930 . S
N100 C99 1.279 . S
N100 C103 1.314 1_565 S
C101 C98 1.348 1_545 S
C101 C103 1.353 . S
C101 H157 0.929 . S
C102 C98 1.356 . S
C102 C99 1.358 . S
C102 H158 0.930 . S
C103 N100 1.314 1_545 S
C103 C101 1.353 . S
C103 H159 0.930 . S
C104 N105 1.314 . S
C104 C109 1.353 . S
C104 H110 0.930 . S
N105 Li88 1.999 . S
N105 C104 1.314 . S
N105 C107 1.279 . S
C106 C107 1.358 . S
C106 C108 1.356 . S
C106 H160 0.930 . S
C107 N105 1.279 . S
C107 C106 1.358 . S
C107 H111 0.930 . S
C108 C106 1.356 . S
C108 C109 1.348 . S
C109 C104 1.353 . S
C109 C108 1.348 . S
C109 H161 0.929 . S
H110 C104 0.930 . S
H111 C107 0.930 . S
C112 N113 1.314 . S
C112 C114 1.353 . S
C112 H118 0.930 . S
N113 Li89 1.990 . S
N113 C112 1.314 . S
N113 C116 1.279 . S
C114 C112 1.353 . S
C114 C117 1.348 . S
C114 H162 0.929 . S
C115 C116 1.358 . S
C115 C117 1.356 . S
C115 H163 0.930 . S
C116 N113 1.279 . S
C116 C115 1.358 . S
C116 H119 0.930 . S
C117 C114 1.348 . S
C117 C115 1.356 . S
H118 C112 0.930 . S
H119 C116 0.930 . S
C120 C122 1.348 . S
C120 C123 1.356 . S
C120 O150 1.325 . S
N121 C124 1.314 . S
N121 C125 1.279 . S
C122 C120 1.348 . S
C122 C124 1.353 . S
C122 H164 0.929 . S
C123 C120 1.356 . S
C123 C125 1.358 . S
C123 H165 0.930 1_565 S
C124 N121 1.314 . S
C124 C122 1.353 . S
C124 H166 0.930 . S
C125 N121 1.279 . S
C125 C123 1.358 . S
C125 H167 0.930 1_565 S
C126 C127 1.348 . S
C126 C128 1.356 . S
C126 O151 1.325 . S
C127 C126 1.348 . S
C127 C129 1.353 . S
C127 H168 0.929 . S
C128 C126 1.356 . S
C128 C130 1.358 . S
C128 H169 0.930 . S
C129 C127 1.353 . S
C129 N131 1.314 . S
C129 H170 0.930 . S
C130 C128 1.358 . S
C130 N131 1.279 . S
C130 H171 0.930 . S
N131 C129 1.314 . S
N131 C130 1.279 . S
C132 C134 1.353 . S
C132 N135 1.314 . S
C132 H138 0.930 . S
C133 N135 1.279 . S
C133 C136 1.358 . S
C133 H139 0.930 . S
C134 C132 1.353 . S
C134 C137 1.348 . S
C134 H172 0.929 . S
N135 Li90 1.990 . S
N135 C132 1.314 . S
N135 C133 1.279 . S
C136 C133 1.358 . S
C136 C137 1.356 . S
C136 H173 0.930 . S
C137 C134 1.348 . S
C137 C136 1.356 . S
H138 C132 0.930 . S
H139 C133 0.930 . S
C140 N141 1.314 . S
C140 C142 1.353 . S
C140 H146 0.930 . S
N141 Li91 1.990 . S
N141 C140 1.314 . S
N141 C144 1.279 . S
C142 C140 1.353 . S
C142 C145 1.348 . S
C142 H174 0.929 . S
C143 C144 1.358 . S
C143 C145 1.356 . S
C143 H175 0.930 . S
C144 N141 1.279 . S
C144 C143 1.358 . S
C144 H147 0.930 . S
C145 C142 1.348 . S
C145 C143 1.356 . S
H146 C140 0.930 . S
H147 C144 0.930 . S
O148 Li88 1.955 1_565 S
O148 Li89 1.970 . S
O148 Li90 1.961 . S
O148 C92 1.325 1_565 S
O149 Li88 1.965 1_565 S
O149 Li89 1.956 . S
O149 Li91 1.961 . S
O149 C98 1.325 . S
O150 Li88 1.954 1_565 S
O150 Li90 1.956 . S
O150 Li91 1.970 . S
O150 C120 1.325 . S
O151 Li89 1.961 . S
O151 Li90 1.970 . S
O151 Li91 1.956 . S
O151 C126 1.325 . S
H152 C94 0.929 . S
H153 C95 0.930 . S
H154 C96 0.930 . S
H155 C97 0.930 . S
H156 C99 0.930 . S
H157 C101 0.929 . S
H158 C102 0.930 . S
H159 C103 0.930 . S
H160 C106 0.930 . S
H161 C109 0.929 . S
H162 C114 0.929 . S
H163 C115 0.930 . S
H164 C122 0.929 . S
H165 C123 0.930 1_545 S
H166 C124 0.930 . S
H167 C125 0.930 1_545 S
H168 C127 0.929 . S
H169 C128 0.930 . S
H170 C129 0.930 . S
H171 C130 0.930 . S
H172 C134 0.929 . S
H173 C136 0.930 . S
H174 C142 0.929 . S
H175 C143 0.930 . S
Li176 N193 1.990 . S
Li176 O236 1.956 . S
Li176 O237 1.970 . S
Li176 O238 1.961 . S
Li177 N201 1.990 . S
Li177 O236 1.970 . S
Li177 O237 1.956 . S
Li177 O239 1.961 . S
Li178 N223 1.990 1_655 S
Li178 O236 1.961 . S
Li178 O238 1.956 . S
Li178 O239 1.970 . S
Li179 N229 1.990 . S
Li179 O237 1.961 . S
Li179 O238 1.970 . S
Li179 O239 1.956 . S
C180 C182 1.348 . S
C180 C183 1.356 . S
C180 O236 1.325 1_455 S
N181 C184 1.314 . S
N181 C185 1.279 . S
C182 C180 1.348 . S
C182 C184 1.353 . S
C182 H240 0.929 . S
C183 C180 1.356 . S
C183 C185 1.358 . S
C183 H241 0.930 . S
C184 N181 1.314 . S
C184 C182 1.353 . S
C184 H242 0.930 . S
C185 N181 1.279 . S
C185 C183 1.358 . S
C185 H243 0.930 . S
C186 C189 1.348 . S
C186 C190 1.356 . S
C186 O237 1.325 . S
C187 N188 1.279 . S
C187 C190 1.358 . S
C187 H244 0.930 . S
N188 C187 1.279 . S
N188 C191 1.314 . S
C189 C186 1.348 . S
C189 C191 1.353 . S
C189 H245 0.929 . S
C190 C186 1.356 . S
C190 C187 1.358 . S
C190 H246 0.930 . S
C191 N188 1.314 . S
C191 C189 1.353 . S
C191 H247 0.930 . S
C192 N193 1.314 . S
C192 C197 1.353 . S
C192 H198 0.930 . S
N193 Li176 1.990 . S
N193 C192 1.314 . S
N193 C195 1.279 . S
C194 C195 1.358 . S
C194 C196 1.356 . S
C194 H248 0.930 . S
C195 N193 1.279 . S
C195 C194 1.358 . S
C195 H199 0.930 . S
C196 C194 1.356 . S
C196 C197 1.348 . S
C197 C192 1.353 . S
C197 C196 1.348 . S
C197 H249 0.929 . S
H198 C192 0.930 . S
H199 C195 0.930 . S
C200 N201 1.314 . S
C200 C202 1.353 . S
C200 H206 0.930 1_655 S
N201 Li177 1.990 . S
N201 C200 1.314 . S
N201 C204 1.279 . S
C202 C200 1.353 . S
C202 C205 1.348 . S
C202 H250 0.929 1_655 S
C203 C204 1.358 . S
C203 C205 1.356 . S
C203 H251 0.930 . S
C204 N201 1.279 . S
C204 C203 1.358 . S
C204 H207 0.930 . S
C205 C202 1.348 . S
C205 C203 1.356 . S
H206 C200 0.930 1_455 S
H207 C204 0.930 . S
C208 C210 1.348 . S
C208 C211 1.356 . S
C208 O238 1.325 . S
N209 C212 1.314 . S
N209 C213 1.279 . S
C210 C208 1.348 . S
C210 C212 1.353 . S
C210 H252 0.929 . S
C211 C208 1.356 . S
C211 C213 1.358 . S
C211 H253 0.930 . S
C212 N209 1.314 . S
C212 C210 1.353 . S
C212 H254 0.930 . S
C213 N209 1.279 . S
C213 C211 1.358 . S
C213 H255 0.930 . S
C214 C215 1.337 1_655 S
C214 C216 1.356 . S
C214 O239 1.325 . S
C215 C214 1.337 1_455 S
C215 C217 1.355 . S
C215 H256 0.938 . S
C216 C214 1.356 . S
C216 C218 1.358 . S
C216 H257 0.930 . S
C217 C215 1.355 . S
C217 N219 1.314 1_455 S
C217 H258 0.930 . S
C218 C216 1.358 . S
C218 N219 1.279 . S
C218 H259 0.930 . S
N219 C217 1.314 1_655 S
N219 C218 1.279 . S
C220 C222 1.353 . S
C220 N223 1.314 . S
C220 H226 0.930 . S
C221 N223 1.279 . S
C221 C224 1.358 . S
C221 H227 0.930 . S
C222 C220 1.353 . S
C222 C225 1.348 . S
C222 H260 0.929 . S
N223 Li178 1.990 1_455 S
N223 C220 1.314 . S
N223 C221 1.279 . S
C224 C221 1.358 . S
C224 C225 1.356 . S
C224 H261 0.930 . S
C225 C222 1.348 . S
C225 C224 1.356 . S
H226 C220 0.930 . S
H227 C221 0.930 . S
C228 N229 1.314 . S
C228 C230 1.353 . S
C228 H234 0.930 . S
N229 Li179 1.990 . S
N229 C228 1.314 . S
N229 C232 1.279 . S
C230 C228 1.353 . S
C230 C233 1.348 . S
C230 H262 0.929 . S
C231 C232 1.358 . S
C231 C233 1.356 . S
C231 H263 0.930 . S
C232 N229 1.279 . S
C232 C231 1.358 . S
C232 H235 0.930 . S
C233 C230 1.348 . S
C233 C231 1.356 . S
H234 C228 0.930 . S
H235 C232 0.930 . S
O236 Li176 1.956 . S
O236 Li177 1.970 . S
O236 Li178 1.961 . S
O236 C180 1.325 1_655 S
O237 Li176 1.970 . S
O237 Li177 1.956 . S
O237 Li179 1.961 . S
O237 C186 1.325 . S
O238 Li176 1.961 . S
O238 Li178 1.956 . S
O238 Li179 1.970 . S
O238 C208 1.325 . S
O239 Li177 1.961 . S
O239 Li178 1.970 . S
O239 Li179 1.956 . S
O239 C214 1.325 . S
H240 C182 0.929 . S
H241 C183 0.930 . S
H242 C184 0.930 . S
H243 C185 0.930 . S
H244 C187 0.930 . S
H245 C189 0.929 . S
H246 C190 0.930 . S
H247 C191 0.930 . S
H248 C194 0.930 . S
H249 C197 0.929 . S
H250 C202 0.929 1_455 S
H251 C203 0.930 . S
H252 C210 0.929 . S
H253 C211 0.930 . S
H254 C212 0.930 . S
H255 C213 0.930 . S
H256 C215 0.938 . S
H257 C216 0.930 . S
H258 C217 0.930 . S
H259 C218 0.930 . S
H260 C222 0.929 . S
H261 C224 0.930 . S
H262 C230 0.929 . S
H263 C231 0.930 . S
Li264 N281 1.990 . S
Li264 O324 1.956 . S
Li264 O325 1.970 . S
Li264 O326 1.961 . S
Li265 N289 1.990 . S
Li265 O324 1.970 . S
Li265 O325 1.956 . S
Li265 O327 1.961 . S
Li266 N311 1.999 . S
Li266 O324 1.954 1_565 S
Li266 O326 1.955 1_565 S
Li266 O327 1.965 1_565 S
Li267 N317 1.990 . S
Li267 O325 1.961 . S
Li267 O326 1.970 . S
Li267 O327 1.956 . S
C268 C270 1.348 . S
C268 C271 1.356 . S
C268 O324 1.325 . S
N269 C272 1.314 . S
N269 C273 1.279 . S
C270 C268 1.348 . S
C270 C272 1.353 . S
C270 H328 0.929 . S
C271 C268 1.356 . S
C271 C273 1.358 . S
C271 H329 0.930 1_545 S
C272 N269 1.314 . S
C272 C270 1.353 . S
C272 H330 0.930 . S
C273 N269 1.279 . S
C273 C271 1.358 . S
C273 H331 0.930 1_545 S
C274 C277 1.348 . S
C274 C278 1.356 . S
C274 O325 1.325 . S
C275 N276 1.279 . S
C275 C278 1.358 . S
C275 H332 0.930 . S
N276 C275 1.279 . S
N276 C279 1.314 . S
C277 C274 1.348 . S
C277 C279 1.353 . S
C277 H333 0.929 . S
C278 C274 1.356 . S
C278 C275 1.358 . S
C278 H334 0.930 . S
C279 N276 1.314 . S
C279 C277 1.353 . S
C279 H335 0.930 . S
C280 N281 1.314 . S
C280 C285 1.353 . S
C280 H286 0.930 . S
N281 Li264 1.990 . S
N281 C280 1.314 . S
N281 C283 1.279 . S
C282 C283 1.358 . S
C282 C284 1.356 . S
C282 H336 0.930 . S
C283 N281 1.279 . S
C283 C282 1.358 . S
C283 H287 0.930 . S
C284 C282 1.356 . S
C284 C285 1.348 . S
C285 C280 1.353 . S
C285 C284 1.348 . S
C285 H337 0.929 . S
H286 C280 0.930 . S
H287 C283 0.930 . S
C288 N289 1.314 . S
C288 C290 1.353 . S
C288 H294 0.930 . S
N289 Li265 1.990 . S
N289 C288 1.314 . S
N289 C292 1.279 . S
C290 C288 1.353 . S
C290 C293 1.348 . S
C290 H338 0.929 . S
C291 C292 1.358 . S
C291 C293 1.356 . S
C291 H339 0.930 . S
C292 N289 1.279 . S
C292 C291 1.358 . S
C292 H295 0.930 . S
C293 C290 1.348 . S
C293 C291 1.356 . S
H294 C288 0.930 . S
H295 C292 0.930 . S
C296 C298 1.348 . S
C296 C299 1.356 . S
C296 O326 1.325 1_565 S
N297 C300 1.314 . S
N297 C301 1.279 . S
C298 C296 1.348 . S
C298 C300 1.353 . S
C298 H340 0.929 . S
C299 C296 1.356 . S
C299 C301 1.358 . S
C299 H341 0.930 . S
C300 N297 1.314 . S
C300 C298 1.353 . S
C300 H342 0.930 . S
C301 N297 1.279 . S
C301 C299 1.358 . S
C301 H343 0.930 . S
C302 C303 1.348 1_545 S
C302 C304 1.356 . S
C302 O327 1.325 . S
C303 C302 1.348 1_565 S
C303 C305 1.353 . S
C303 H344 0.929 . S
C304 C302 1.356 . S
C304 C306 1.358 . S
C304 H345 0.930 . S
C305 C303 1.353 . S
C305 N307 1.314 1_565 S
C305 H346 0.930 . S
C306 C304 1.358 . S
C306 N307 1.279 . S
C306 H347 0.930 . S
N307 C305 1.314 1_545 S
N307 C306 1.279 . S
C308 C310 1.353 . S
C308 N311 1.314 . S
C308 H314 0.930 . S
C309 N311 1.279 . S
C309 C312 1.358 . S
C309 H315 0.930 . S
C310 C308 1.353 . S
C310 C313 1.348 . S
C310 H348 0.929 . S
N311 Li266 1.999 . S
N311 C308 1.314 . S
N311 C309 1.279 . S
C312 C309 1.358 . S
C312 C313 1.356 . S
C312 H349 0.930 . S
C313 C310 1.348 . S
C313 C312 1.356 . S
H314 C308 0.930 . S
H315 C309 0.930 . S
C316 N317 1.314 . S
C316 C318 1.353 . S
C316 H322 0.930 . S
N317 Li267 1.990 . S
N317 C316 1.314 . S
N317 C320 1.279 . S
C318 C316 1.353 . S
C318 C321 1.348 . S
C318 H350 0.929 . S
C319 C320 1.358 . S
C319 C321 1.356 . S
C319 H351 0.930 . S
C320 N317 1.279 . S
C320 C319 1.358 . S
C320 H323 0.930 . S
C321 C318 1.348 . S
C321 C319 1.356 . S
H322 C316 0.930 . S
H323 C320 0.930 . S
O324 Li264 1.956 . S
O324 Li265 1.970 . S
O324 Li266 1.954 1_545 S
O324 C268 1.325 . S
O325 Li264 1.970 . S
O325 Li265 1.956 . S
O325 Li267 1.961 . S
O325 C274 1.325 . S
O326 Li264 1.961 . S
O326 Li266 1.955 1_545 S
O326 Li267 1.970 . S
O326 C296 1.325 1_545 S
O327 Li265 1.961 . S
O327 Li266 1.965 1_545 S
O327 Li267 1.956 . S
O327 C302 1.325 . S
H328 C270 0.929 . S
H329 C271 0.930 1_565 S
H330 C272 0.930 . S
H331 C273 0.930 1_565 S
H332 C275 0.930 . S
H333 C277 0.929 . S
H334 C278 0.930 . S
H335 C279 0.930 . S
H336 C282 0.930 . S
H337 C285 0.929 . S
H338 C290 0.929 . S
H339 C291 0.930 . S
H340 C298 0.929 . S
H341 C299 0.930 . S
H342 C300 0.930 . S
H343 C301 0.930 . S
H344 C303 0.929 . S
H345 C304 0.930 . S
H346 C305 0.930 . S
H347 C306 0.930 . S
H348 C310 0.929 . S
H349 C312 0.930 . S
H350 C318 0.929 . S
H351 C319 0.930 . S
Li352 N369 1.990 . S
Li352 O412 1.956 . S
Li352 O413 1.970 . S
Li352 O414 1.961 . S
Li353 N377 1.990 . S
Li353 O412 1.970 . S
Li353 O413 1.956 . S
Li353 O415 1.961 . S
Li354 N399 1.990 . S
Li354 O412 1.961 . S
Li354 O414 1.956 . S
Li354 O415 1.970 . S
Li355 N405 1.999 . S
Li355 O413 1.954 1_455 S
Li355 O414 1.965 1_455 S
Li355 O415 1.955 1_455 S
C356 C358 1.348 . S
C356 C359 1.356 . S
C356 O412 1.325 . S
N357 C360 1.314 . S
N357 C361 1.279 . S
C358 C356 1.348 . S
C358 C360 1.353 . S
C358 H416 0.929 . S
C359 C356 1.356 . S
C359 C361 1.358 . S
C359 H417 0.930 . S
C360 N357 1.314 . S
C360 C358 1.353 . S
C360 H418 0.930 . S
C361 N357 1.279 . S
C361 C359 1.358 . S
C361 H419 0.930 . S
C362 C365 1.348 . S
C362 C366 1.356 . S
C362 O413 1.325 . S
C363 N364 1.279 . S
C363 C366 1.358 . S
C363 H420 0.930 1_655 S
N364 C363 1.279 . S
N364 C367 1.314 . S
C365 C362 1.348 . S
C365 C367 1.353 . S
C365 H421 0.929 . S
C366 C362 1.356 . S
C366 C363 1.358 . S
C366 H422 0.930 1_655 S
C367 N364 1.314 . S
C367 C365 1.353 . S
C367 H423 0.930 . S
C368 N369 1.314 . S
C368 C373 1.353 . S
C368 H374 0.930 . S
N369 Li352 1.990 . S
N369 C368 1.314 . S
N369 C371 1.279 . S
C370 C371 1.358 . S
C370 C372 1.356 . S
C370 H424 0.930 . S
C371 N369 1.279 . S
C371 C370 1.358 . S
C371 H375 0.930 . S
C372 C370 1.356 . S
C372 C373 1.348 . S
C373 C368 1.353 . S
C373 C372 1.348 . S
C373 H425 0.929 1_554 S
H374 C368 0.930 . S
H375 C371 0.930 . S
C376 N377 1.314 . S
C376 C378 1.353 . S
C376 H382 0.930 . S
N377 Li353 1.990 . S
N377 C376 1.314 . S
N377 C380 1.279 . S
C378 C376 1.353 . S
C378 C381 1.348 . S
C378 H426 0.929 . S
C379 C380 1.358 . S
C379 C381 1.356 . S
C379 H427 0.930 . S
C380 N377 1.279 . S
C380 C379 1.358 . S
C380 H383 0.930 . S
C381 C378 1.348 . S
C381 C379 1.356 . S
H382 C376 0.930 . S
H383 C380 0.930 . S
C384 C386 1.348 1_655 S
C384 C387 1.356 . S
C384 O414 1.325 . S
N385 C388 1.314 1_656 S
N385 C389 1.283 . S
C386 C384 1.348 1_455 S
C386 C388 1.353 . S
C386 H428 0.929 . S
C387 C384 1.356 . S
C387 C389 1.352 1_554 S
C387 H429 0.930 . S
C388 N385 1.314 1_454 S
C388 C386 1.353 . S
C388 H430 0.930 1_554 S
C389 N385 1.283 . S
C389 C387 1.352 1_556 S
C389 H431 0.934 . S
C390 C391 1.348 . S
C390 C392 1.356 . S
C390 O415 1.325 1_455 S
C391 C390 1.348 . S
C391 C393 1.353 . S
C391 H432 0.929 . S
C392 C390 1.356 . S
C392 C394 1.358 . S
C392 H433 0.930 . S
C393 C391 1.353 . S
C393 N395 1.314 . S
C393 H434 0.930 . S
C394 C392 1.358 . S
C394 N395 1.279 . S
C394 H435 0.930 . S
N395 C393 1.314 . S
N395 C394 1.279 . S
C396 C398 1.353 . S
C396 N399 1.314 . S
C396 H402 0.930 . S
C397 N399 1.279 . S
C397 C400 1.358 . S
C397 H403 0.930 . S
C398 C396 1.353 . S
C398 C401 1.348 . S
C398 H436 0.929 . S
N399 Li354 1.990 . S
N399 C396 1.314 . S
N399 C397 1.279 . S
C400 C397 1.358 . S
C400 C401 1.356 . S
C400 H437 0.930 . S
C401 C398 1.348 . S
C401 C400 1.356 . S
H402 C396 0.930 . S
H403 C397 0.930 . S
C404 N405 1.314 . S
C404 C406 1.353 . S
C404 H410 0.930 . S
N405 Li355 1.999 . S
N405 C404 1.314 . S
N405 C408 1.279 . S
C406 C404 1.353 . S
C406 C409 1.348 . S
C406 H438 0.929 . S
C407 C408 1.358 . S
C407 C409 1.356 . S
C407 H439 0.930 . S
C408 N405 1.279 . S
C408 C407 1.358 . S
C408 H411 0.930 . S
C409 C406 1.348 . S
C409 C407 1.356 . S
H410 C404 0.930 . S
H411 C408 0.930 . S
O412 Li352 1.956 . S
O412 Li353 1.970 . S
O412 Li354 1.961 . S
O412 C356 1.325 . S
O413 Li352 1.970 . S
O413 Li353 1.956 . S
O413 Li355 1.954 1_655 S
O413 C362 1.325 . S
O414 Li352 1.961 . S
O414 Li354 1.956 . S
O414 Li355 1.965 1_655 S
O414 C384 1.325 . S
O415 Li353 1.961 . S
O415 Li354 1.970 . S
O415 Li355 1.955 1_655 S
O415 C390 1.325 1_655 S
H416 C358 0.929 . S
H417 C359 0.930 . S
H418 C360 0.930 . S
H419 C361 0.930 . S
H420 C363 0.930 1_455 S
H421 C365 0.929 . S
H422 C366 0.930 1_455 S
H423 C367 0.930 . S
H424 C370 0.930 . S
H425 C373 0.929 1_556 S
H426 C378 0.929 . S
H427 C379 0.930 . S
H428 C386 0.929 . S
H429 C387 0.930 . S
H430 C388 0.930 1_556 S
H431 C389 0.934 . S
H432 C391 0.929 . S
H433 C392 0.930 . S
H434 C393 0.930 . S
H435 C394 0.930 . S
H436 C398 0.929 . S
H437 C400 0.930 . S
H438 C406 0.929 . S
H439 C407 0.930 . S
Li440 N457 1.990 . S
Li440 O500 1.956 . S
Li440 O501 1.970 . S
Li440 O502 1.961 . S
Li441 N465 1.990 1_545 S
Li441 O500 1.970 . S
Li441 O501 1.956 . S
Li441 O503 1.961 . S
Li442 N487 1.990 . S
Li442 O500 1.961 . S
Li442 O502 1.956 . S
Li442 O503 1.970 . S
Li443 N493 1.990 . S
Li443 O501 1.961 . S
Li443 O502 1.970 . S
Li443 O503 1.956 . S
C444 C446 1.337 1_545 S
C444 C447 1.356 . S
C444 O500 1.325 . S
N445 C448 1.335 1_545 S
N445 C449 1.279 1_554 S
C446 C444 1.337 1_565 S
C446 C448 1.313 1_556 S
C446 H504 0.938 . S
C447 C444 1.356 . S
C447 C449 1.358 . S
C447 H505 0.930 . S
C448 N445 1.335 1_565 S
C448 C446 1.313 1_554 S
C448 H506 0.955 . S
C449 N445 1.279 1_556 S
C449 C447 1.358 . S
C449 H507 0.930 1_556 S
C450 C453 1.348 . S
C450 C454 1.356 . S
C450 O501 1.325 . S
C451 N452 1.279 . S
C451 C454 1.358 . S
C451 H508 0.930 . S
N452 C451 1.279 . S
N452 C455 1.314 . S
C453 C450 1.348 . S
C453 C455 1.353 . S
C453 H509 0.929 . S
C454 C450 1.356 . S
C454 C451 1.358 . S
C454 H510 0.930 . S
C455 N452 1.314 . S
C455 C453 1.353 . S
C455 H511 0.930 . S
C456 N457 1.314 . S
C456 C461 1.353 . S
C456 H462 0.930 . S
N457 Li440 1.990 . S
N457 C456 1.314 . S
N457 C459 1.279 . S
C458 C459 1.358 . S
C458 C460 1.356 . S
C458 H512 0.930 1_556 S
C459 N457 1.279 . S
C459 C458 1.358 . S
C459 H463 0.930 . S
C460 C458 1.356 . S
C460 C461 1.348 . S
C461 C456 1.353 . S
C461 C460 1.348 . S
C461 H513 0.929 . S
H462 C456 0.930 . S
H463 C459 0.930 . S
C464 N465 1.314 . S
C464 C466 1.353 . S
C464 H470 0.930 . S
N465 Li441 1.990 1_565 S
N465 C464 1.314 . S
N465 C468 1.279 . S
C466 C464 1.353 . S
C466 C469 1.348 . S
C466 H514 0.929 . S
C467 C468 1.358 . S
C467 C469 1.356 . S
C467 H515 0.930 . S
C468 N465 1.279 . S
C468 C467 1.358 . S
C468 H471 0.930 . S
C469 C466 1.348 . S
C469 C467 1.356 . S
H470 C464 0.930 . S
H471 C468 0.930 . S
C472 C474 1.348 . S
C472 C475 1.356 . S
C472 O502 1.325 . S
N473 C476 1.314 . S
N473 C477 1.279 . S
C474 C472 1.348 . S
C474 C476 1.353 . S
C474 H516 0.929 . S
C475 C472 1.356 . S
C475 C477 1.358 . S
C475 H517 0.930 . S
C476 N473 1.314 . S
C476 C474 1.353 . S
C476 H518 0.930 . S
C477 N473 1.279 . S
C477 C475 1.358 . S
C477 H519 0.930 . S
C478 C479 1.348 . S
C478 C480 1.356 . S
C478 O503 1.325 1_565 S
C479 C478 1.348 . S
C479 C481 1.353 . S
C479 H520 0.929 . S
C480 C478 1.356 . S
C480 C482 1.358 . S
C480 H521 0.930 . S
C481 C479 1.353 . S
C481 N483 1.314 . S
C481 H522 0.930 . S
C482 C480 1.358 . S
C482 N483 1.279 . S
C482 H523 0.930 . S
N483 C481 1.314 . S
N483 C482 1.279 . S
C484 C486 1.353 . S
C484 N487 1.314 . S
C484 H490 0.930 1_545 S
C485 N487 1.279 . S
C485 C488 1.358 . S
C485 H491 0.930 . S
C486 C484 1.353 . S
C486 C489 1.348 . S
C486 H524 0.929 1_545 S
N487 Li442 1.990 . S
N487 C484 1.314 . S
N487 C485 1.279 . S
C488 C485 1.358 . S
C488 C489 1.356 . S
C488 H525 0.930 . S
C489 C486 1.348 . S
C489 C488 1.356 . S
H490 C484 0.930 1_565 S
H491 C485 0.930 . S
C492 N493 1.314 . S
C492 C494 1.353 . S
C492 H498 0.930 . S
N493 Li443 1.990 . S
N493 C492 1.314 . S
N493 C496 1.279 . S
C494 C492 1.353 . S
C494 C497 1.348 . S
C494 H526 0.929 . S
C495 C496 1.358 . S
C495 C497 1.356 . S
C495 H527 0.930 . S
C496 N493 1.279 . S
C496 C495 1.358 . S
C496 H499 0.930 . S
C497 C494 1.348 . S
C497 C495 1.356 . S
H498 C492 0.930 . S
H499 C496 0.930 . S
O500 Li440 1.956 . S
O500 Li441 1.970 . S
O500 Li442 1.961 . S
O500 C444 1.325 . S
O501 Li440 1.970 . S
O501 Li441 1.956 . S
O501 Li443 1.961 . S
O501 C450 1.325 . S
O502 Li440 1.961 . S
O502 Li442 1.956 . S
O502 Li443 1.970 . S
O502 C472 1.325 . S
O503 Li441 1.961 . S
O503 Li442 1.970 . S
O503 Li443 1.956 . S
O503 C478 1.325 1_545 S
H504 C446 0.938 . S
H505 C447 0.930 . S
H506 C448 0.955 . S
H507 C449 0.930 1_554 S
H508 C451 0.930 . S
H509 C453 0.929 . S
H510 C454 0.930 . S
H511 C455 0.930 . S
H512 C458 0.930 1_554 S
H513 C461 0.929 . S
H514 C466 0.929 . S
H515 C467 0.930 . S
H516 C474 0.929 . S
H517 C475 0.930 . S
H518 C476 0.930 . S
H519 C477 0.930 . S
H520 C479 0.929 . S
H521 C480 0.930 . S
H522 C481 0.930 . S
H523 C482 0.930 . S
H524 C486 0.929 1_565 S
H525 C488 0.930 . S
H526 C494 0.929 . S
H527 C495 0.930 . S
Li528 N545 1.999 . S
Li528 O588 1.955 1_655 S
Li528 O589 1.965 1_655 S
Li528 O590 1.954 1_655 S
Li529 N553 1.990 . S
Li529 O588 1.970 . S
Li529 O589 1.956 . S
Li529 O591 1.961 . S
Li530 N575 1.990 . S
Li530 O588 1.961 . S
Li530 O590 1.956 . S
Li530 O591 1.970 . S
Li531 N581 1.990 . S
Li531 O589 1.961 . S
Li531 O590 1.970 . S
Li531 O591 1.956 . S
C532 C534 1.348 . S
C532 C535 1.356 . S
C532 O588 1.325 1_655 S
N533 C536 1.314 . S
N533 C537 1.279 . S
C534 C532 1.348 . S
C534 C536 1.353 . S
C534 H592 0.929 . S
C535 C532 1.356 . S
C535 C537 1.358 . S
C535 H593 0.930 . S
C536 N533 1.314 . S
C536 C534 1.353 . S
C536 H594 0.930 . S
C537 N533 1.279 . S
C537 C535 1.358 . S
C537 H595 0.930 . S
C538 C541 1.348 1_455 S
C538 C542 1.356 . S
C538 O589 1.325 . S
C539 N540 1.283 . S
C539 C542 1.352 1_556 S
C539 H596 0.934 . S
N540 C539 1.283 . S
N540 C543 1.314 1_456 S
C541 C538 1.348 1_655 S
C541 C543 1.353 . S
C541 H597 0.929 . S
C542 C538 1.356 . S
C542 C539 1.352 1_554 S
C542 H598 0.930 . S
C543 N540 1.314 1_654 S
C543 C541 1.353 . S
C543 H599 0.930 1_554 S
C544 N545 1.314 . S
C544 C549 1.353 . S
C544 H550 0.930 . S
N545 Li528 1.999 . S
N545 C544 1.314 . S
N545 C547 1.279 . S
C546 C547 1.358 . S
C546 C548 1.356 . S
C546 H600 0.930 . S
C547 N545 1.279 . S
C547 C546 1.358 . S
C547 H551 0.930 . S
C548 C546 1.356 . S
C548 C549 1.348 . S
C549 C544 1.353 . S
C549 C548 1.348 . S
C549 H601 0.929 . S
H550 C544 0.930 . S
H551 C547 0.930 . S
C552 N553 1.314 . S
C552 C554 1.353 . S
C552 H558 0.930 . S
N553 Li529 1.990 . S
N553 C552 1.314 . S
N553 C556 1.279 . S
C554 C552 1.353 . S
C554 C557 1.348 . S
C554 H602 0.929 . S
C555 C556 1.358 . S
C555 C557 1.356 . S
C555 H603 0.930 . S
C556 N553 1.279 . S
C556 C555 1.358 . S
C556 H559 0.930 . S
C557 C554 1.348 . S
C557 C555 1.356 . S
H558 C552 0.930 . S
H559 C556 0.930 . S
C560 C562 1.348 . S
C560 C563 1.356 . S
C560 O590 1.325 . S
N561 C564 1.314 . S
N561 C565 1.279 . S
C562 C560 1.348 . S
C562 C564 1.353 . S
C562 H604 0.929 . S
C563 C560 1.356 . S
C563 C565 1.358 . S
C563 H605 0.930 1_455 S
C564 N561 1.314 . S
C564 C562 1.353 . S
C564 H606 0.930 . S
C565 N561 1.279 . S
C565 C563 1.358 . S
C565 H607 0.930 1_455 S
C566 C567 1.348 . S
C566 C568 1.356 . S
C566 O591 1.325 . S
C567 C566 1.348 . S
C567 C569 1.353 . S
C567 H608 0.929 . S
C568 C566 1.356 . S
C568 C570 1.358 . S
C568 H609 0.930 . S
C569 C567 1.353 . S
C569 N571 1.314 . S
C569 H610 0.930 . S
C570 C568 1.358 . S
C570 N571 1.279 . S
C570 H611 0.930 . S
N571 C569 1.314 . S
N571 C570 1.279 . S
C572 C574 1.353 . S
C572 N575 1.314 . S
C572 H578 0.930 . S
C573 N575 1.279 . S
C573 C576 1.358 . S
C573 H579 0.930 . S
C574 C572 1.353 . S
C574 C577 1.348 . S
C574 H612 0.929 . S
N575 Li530 1.990 . S
N575 C572 1.314 . S
N575 C573 1.279 . S
C576 C573 1.358 . S
C576 C577 1.356 . S
C576 H613 0.930 . S
C577 C574 1.348 . S
C577 C576 1.356 . S
H578 C572 0.930 . S
H579 C573 0.930 . S
C580 N581 1.314 . S
C580 C582 1.353 . S
C580 H586 0.930 . S
N581 Li531 1.990 . S
N581 C580 1.314 . S
N581 C584 1.279 . S
C582 C580 1.353 . S
C582 C585 1.348 . S
C582 H614 0.929 1_554 S
C583 C584 1.358 . S
C583 C585 1.356 . S
C583 H615 0.930 . S
C584 N581 1.279 . S
C584 C583 1.358 . S
C584 H587 0.930 . S
C585 C582 1.348 . S
C585 C583 1.356 . S
H586 C580 0.930 . S
H587 C584 0.930 . S
O588 Li528 1.955 1_455 S
O588 Li529 1.970 . S
O588 Li530 1.961 . S
O588 C532 1.325 1_455 S
O589 Li528 1.965 1_455 S
O589 Li529 1.956 . S
O589 Li531 1.961 . S
O589 C538 1.325 . S
O590 Li528 1.954 1_455 S
O590 Li530 1.956 . S
O590 Li531 1.970 . S
O590 C560 1.325 . S
O591 Li529 1.961 . S
O591 Li530 1.970 . S
O591 Li531 1.956 . S
O591 C566 1.325 . S
H592 C534 0.929 . S
H593 C535 0.930 . S
H594 C536 0.930 . S
H595 C537 0.930 . S
H596 C539 0.934 . S
H597 C541 0.929 . S
H598 C542 0.930 . S
H599 C543 0.930 1_556 S
H600 C546 0.930 . S
H601 C549 0.929 . S
H602 C554 0.929 . S
H603 C555 0.930 . S
H604 C562 0.929 . S
H605 C563 0.930 1_655 S
H606 C564 0.930 . S
H607 C565 0.930 1_655 S
H608 C567 0.929 . S
H609 C568 0.930 . S
H610 C569 0.930 . S
H611 C570 0.930 . S
H612 C574 0.929 . S
H613 C576 0.930 . S
H614 C582 0.929 1_556 S
H615 C583 0.930 . S
Li616 N633 1.990 1_565 S
Li616 O676 1.956 . S
Li616 O677 1.970 . S
Li616 O678 1.961 . S
Li617 N641 1.990 . S
Li617 O676 1.970 . S
Li617 O677 1.956 . S
Li617 O679 1.961 . S
Li618 N663 1.990 . S
Li618 O676 1.961 . S
Li618 O678 1.956 . S
Li618 O679 1.970 . S
Li619 N669 1.990 . S
Li619 O677 1.961 . S
Li619 O678 1.970 . S
Li619 O679 1.956 . S
C620 C622 1.348 . S
C620 C623 1.356 . S
C620 O676 1.325 . S
N621 C624 1.314 . S
N621 C625 1.279 . S
C622 C620 1.348 . S
C622 C624 1.353 . S
C622 H680 0.929 . S
C623 C620 1.356 . S
C623 C625 1.358 . S
C623 H681 0.930 . S
C624 N621 1.314 . S
C624 C622 1.353 . S
C624 H682 0.930 . S
C625 N621 1.279 . S
C625 C623 1.358 . S
C625 H683 0.930 . S
C626 C629 1.337 1_565 S
C626 C630 1.356 . S
C626 O677 1.325 . S
C627 N628 1.279 1_556 S
C627 C630 1.358 . S
C627 H684 0.930 1_556 S
N628 C627 1.279 1_554 S
N628 C631 1.335 1_565 S
C629 C626 1.337 1_545 S
C629 C631 1.313 1_556 S
C629 H685 0.938 . S
C630 C626 1.356 . S
C630 C627 1.358 . S
C630 H686 0.930 . S
C631 N628 1.335 1_545 S
C631 C629 1.313 1_554 S
C631 H687 0.955 . S
C632 N633 1.314 . S
C632 C637 1.353 . S
C632 H638 0.930 . S
N633 Li616 1.990 1_545 S
N633 C632 1.314 . S
N633 C635 1.279 . S
C634 C635 1.358 . S
C634 C636 1.356 . S
C634 H688 0.930 . S
C635 N633 1.279 . S
C635 C634 1.358 . S
C635 H639 0.930 . S
C636 C634 1.356 . S
C636 C637 1.348 . S
C637 C632 1.353 . S
C637 C636 1.348 . S
C637 H689 0.929 . S
H638 C632 0.930 . S
H639 C635 0.930 . S
C640 N641 1.314 . S
C640 C642 1.353 . S
C640 H646 0.930 . S
N641 Li617 1.990 . S
N641 C640 1.314 . S
N641 C644 1.279 . S
C642 C640 1.353 . S
C642 C645 1.348 . S
C642 H690 0.929 . S
C643 C644 1.358 . S
C643 C645 1.356 . S
C643 H691 0.930 1_556 S
C644 N641 1.279 . S
C644 C643 1.358 . S
C644 H647 0.930 . S
C645 C642 1.348 . S
C645 C643 1.356 . S
H646 C640 0.930 . S
H647 C644 0.930 . S
C648 C650 1.348 . S
C648 C651 1.356 . S
C648 O678 1.325 1_545 S
N649 C652 1.314 . S
N649 C653 1.279 . S
C650 C648 1.348 . S
C650 C652 1.353 . S
C650 H692 0.929 . S
C651 C648 1.356 . S
C651 C653 1.358 . S
C651 H693 0.930 . S
C652 N649 1.314 . S
C652 C650 1.353 . S
C652 H694 0.930 . S
C653 N649 1.279 . S
C653 C651 1.358 . S
C653 H695 0.930 . S
C654 C655 1.348 . S
C654 C656 1.356 . S
C654 O679 1.325 . S
C655 C654 1.348 . S
C655 C657 1.353 . S
C655 H696 0.929 . S
C656 C654 1.356 . S
C656 C658 1.358 . S
C656 H697 0.930 . S
C657 C655 1.353 . S
C657 N659 1.314 . S
C657 H698 0.930 . S
C658 C656 1.358 . S
C658 N659 1.279 . S
C658 H699 0.930 . S
N659 C657 1.314 . S
N659 C658 1.279 . S
C660 C662 1.353 . S
C660 N663 1.314 . S
C660 H666 0.930 . S
C661 N663 1.279 . S
C661 C664 1.358 . S
C661 H667 0.930 . S
C662 C660 1.353 . S
C662 C665 1.348 . S
C662 H700 0.929 . S
N663 Li618 1.990 . S
N663 C660 1.314 . S
N663 C661 1.279 . S
C664 C661 1.358 . S
C664 C665 1.356 . S
C664 H701 0.930 . S
C665 C662 1.348 . S
C665 C664 1.356 . S
H666 C660 0.930 . S
H667 C661 0.930 . S
C668 N669 1.314 . S
C668 C670 1.353 . S
C668 H674 0.930 1_565 S
N669 Li619 1.990 . S
N669 C668 1.314 . S
N669 C672 1.279 . S
C670 C668 1.353 . S
C670 C673 1.348 . S
C670 H702 0.929 1_565 S
C671 C672 1.358 . S
C671 C673 1.356 . S
C671 H703 0.930 . S
C672 N669 1.279 . S
C672 C671 1.358 . S
C672 H675 0.930 . S
C673 C670 1.348 . S
C673 C671 1.356 . S
H674 C668 0.930 1_545 S
H675 C672 0.930 . S
O676 Li616 1.956 . S
O676 Li617 1.970 . S
O676 Li618 1.961 . S
O676 C620 1.325 . S
O677 Li616 1.970 . S
O677 Li617 1.956 . S
O677 Li619 1.961 . S
O677 C626 1.325 . S
O678 Li616 1.961 . S
O678 Li618 1.956 . S
O678 Li619 1.970 . S
O678 C648 1.325 1_565 S
O679 Li617 1.961 . S
O679 Li618 1.970 . S
O679 Li619 1.956 . S
O679 C654 1.325 . S
H680 C622 0.929 . S
H681 C623 0.930 . S
H682 C624 0.930 . S
H683 C625 0.930 . S
H684 C627 0.930 1_554 S
H685 C629 0.938 . S
H686 C630 0.930 . S
H687 C631 0.955 . S
H688 C634 0.930 . S
H689 C637 0.929 . S
H690 C642 0.929 . S
H691 C643 0.930 1_554 S
H692 C650 0.929 . S
H693 C651 0.930 . S
H694 C652 0.930 . S
H695 C653 0.930 . S
H696 C655 0.929 . S
H697 C656 0.930 . S
H698 C657 0.930 . S
H699 C658 0.930 . S
H700 C662 0.929 . S
H701 C664 0.930 . S
H702 C670 0.929 1_545 S
H703 C671 0.930 . S
C704 C705 1.369 . S
C704 C706 1.419 1_655 S
C704 H708 0.930 . S
C705 C704 1.369 . S
C705 C714 1.429 . S
C706 C704 1.419 1_455 S
C706 C707 1.363 . S
C706 H709 0.929 . S
C707 C706 1.363 . S
C707 C713 1.428 . S
H708 C704 0.930 . S
H709 C706 0.929 . S
S710 N711 1.613 1_455 S
S710 N712 1.610 . S
N711 S710 1.613 1_655 S
N711 C714 1.350 . S
N712 S710 1.610 . S
N712 C713 1.351 . S
C713 C707 1.428 . S
C713 N712 1.351 . S
C713 C714 1.434 1_455 S
C714 C705 1.429 . S
C714 N711 1.350 . S
C714 C713 1.434 1_655 S
C715 C716 1.369 . S
C715 C717 1.419 . S
C715 H719 0.930 . S
C716 C715 1.369 . S
C716 C725 1.429 1_545 S
C717 C715 1.419 . S
C717 C718 1.363 1_545 S
C717 H720 0.929 . S
C718 C717 1.363 1_565 S
C718 C724 1.428 . S
H719 C715 0.930 . S
H720 C717 0.929 . S
S721 N722 1.613 . S
S721 N723 1.610 . S
N722 S721 1.613 . S
N722 C725 1.350 . S
N723 S721 1.610 . S
N723 C724 1.351 . S
C724 C718 1.428 . S
C724 N723 1.351 . S
C724 C725 1.434 . S
C725 C716 1.429 1_565 S
C725 N722 1.350 . S
C725 C724 1.434 . S
C726 C727 1.369 . S
C726 C728 1.419 . S
C726 H730 0.930 . S
C727 C726 1.369 . S
C727 C736 1.429 1_655 S
C728 C726 1.419 . S
C728 C729 1.363 1_655 S
C728 H731 0.929 . S
C729 C728 1.363 1_455 S
C729 C735 1.428 . S
H730 C726 0.930 . S
H731 C728 0.929 . S
S732 N733 1.613 . S
S732 N734 1.610 . S
N733 S732 1.613 . S
N733 C736 1.350 . S
N734 S732 1.610 . S
N734 C735 1.351 . S
C735 C729 1.428 . S
C735 N734 1.351 . S
C735 C736 1.434 . S
C736 C727 1.429 1_455 S
C736 N733 1.350 . S
C736 C735 1.434 . S
C737 C738 1.369 1_565 S
C737 C739 1.419 . S
C737 H741 0.930 . S
C738 C737 1.369 1_545 S
C738 C747 1.429 . S
C739 C737 1.419 . S
C739 C740 1.363 . S
C739 H742 0.929 . S
C740 C739 1.363 . S
C740 C746 1.428 1_565 S
H741 C737 0.930 . S
H742 C739 0.929 . S
S743 N744 1.613 . S
S743 N745 1.610 . S
N744 S743 1.613 . S
N744 C747 1.350 . S
N745 S743 1.610 . S
N745 C746 1.351 . S
C746 C740 1.428 1_545 S
C746 N745 1.351 . S
C746 C747 1.434 . S
C747 C738 1.429 . S
C747 N744 1.350 . S
C747 C746 1.434 . S
C748 C749 1.369 . S
C748 C750 1.419 . S
C748 H752 0.930 . S
C749 C748 1.369 . S
C749 C758 1.429 . S
C750 C748 1.419 . S
C750 C751 1.363 . S
C750 H753 0.929 . S
C751 C750 1.363 . S
C751 C757 1.428 . S
H752 C748 0.930 . S
H753 C750 0.929 . S
S754 N755 1.613 . S
S754 N756 1.610 . S
N755 S754 1.613 . S
N755 C758 1.350 . S
N756 S754 1.610 . S
N756 C757 1.351 . S
C757 C751 1.428 . S
C757 N756 1.351 . S
C757 C758 1.434 . S
C758 C749 1.429 . S
C758 N755 1.350 . S
C758 C757 1.434 . S
C759 C760 1.369 . S
C759 C761 1.419 . S
C759 H763 0.930 . S
C760 C759 1.369 . S
C760 C769 1.429 . S
C761 C759 1.419 . S
C761 C762 1.363 . S
C761 H764 0.929 . S
C762 C761 1.363 . S
C762 C768 1.428 . S
H763 C759 0.930 . S
H764 C761 0.929 . S
S765 N766 1.613 . S
S765 N767 1.610 . S
N766 S765 1.613 . S
N766 C769 1.350 . S
N767 S765 1.610 . S
N767 C768 1.351 . S
C768 C762 1.428 . S
C768 N767 1.351 . S
C768 C769 1.434 . S
C769 C760 1.429 . S
C769 N766 1.350 . S
C769 C768 1.434 . S
C770 C771 1.369 . S
C770 C772 1.419 . S
C770 H774 0.930 . S
C771 C770 1.369 . S
C771 C780 1.429 . S
C772 C770 1.419 . S
C772 C773 1.363 . S
C772 H775 0.929 . S
C773 C772 1.363 . S
C773 C779 1.428 . S
H774 C770 0.930 . S
H775 C772 0.929 . S
S776 N777 1.613 . S
S776 N778 1.610 . S
N777 S776 1.613 . S
N777 C780 1.350 . S
N778 S776 1.610 . S
N778 C779 1.351 . S
C779 C773 1.428 . S
C779 N778 1.351 . S
C779 C780 1.434 . S
C780 C771 1.429 . S
C780 N777 1.350 . S
C780 C779 1.434 . S
C781 C782 1.369 . S
C781 C783 1.419 . S
C781 H785 0.930 . S
C782 C781 1.369 . S
C782 C791 1.429 . S
C783 C781 1.419 . S
C783 C784 1.363 . S
C783 H786 0.929 . S
C784 C783 1.363 . S
C784 C790 1.428 . S
H785 C781 0.930 . S
H786 C783 0.929 . S
S787 N788 1.613 . S
S787 N789 1.610 . S
N788 S787 1.613 . S
N788 C791 1.350 . S
N789 S787 1.610 . S
N789 C790 1.351 . S
C790 C784 1.428 . S
C790 N789 1.351 . S
C790 C791 1.434 . S
C791 C782 1.429 . S
C791 N788 1.350 . S
C791 C790 1.434 . S
C792 C793 1.369 . S
C792 C794 1.419 . S
C792 H796 0.930 . S
C793 C792 1.369 . S
C793 C802 1.429 . S
C794 C792 1.419 . S
C794 C795 1.363 1_556 S
C794 H797 0.929 1_556 S
C795 C794 1.363 1_554 S
C795 C801 1.428 1_554 S
H796 C792 0.930 . S
H797 C794 0.929 1_554 S
S798 N799 1.613 . S
S798 N800 1.610 . S
N799 S798 1.613 . S
N799 C802 1.350 . S
N800 S798 1.610 . S
N800 C801 1.351 . S
C801 C795 1.428 1_556 S
C801 N800 1.351 . S
C801 C802 1.434 . S
C802 C793 1.429 . S
C802 N799 1.350 . S
C802 C801 1.434 . S
C803 C804 1.369 1_554 S
C803 C805 1.420 . S
C803 H807 0.928 1_554 S
C804 C803 1.369 1_556 S
C804 C813 1.429 1_556 S
C805 C803 1.420 . S
C805 C806 1.363 . S
C805 H808 0.929 . S
C806 C805 1.363 . S
C806 C812 1.428 . S
H807 C803 0.928 1_556 S
H808 C805 0.929 . S
S809 N810 1.613 . S
S809 N811 1.610 . S
N810 S809 1.613 . S
N810 C813 1.350 . S
N811 S809 1.610 . S
N811 C812 1.351 . S
C812 C806 1.428 . S
C812 N811 1.351 . S
C812 C813 1.434 . S
C813 C804 1.429 1_554 S
C813 N810 1.350 . S
C813 C812 1.434 . S
C814 C815 1.369 1_556 S
C814 C816 1.419 . S
C814 H818 0.930 . S
C815 C814 1.369 1_554 S
C815 C824 1.429 1_554 S
C816 C814 1.419 . S
C816 C817 1.363 . S
C816 H819 0.929 . S
C817 C816 1.363 . S
C817 C823 1.428 . S
H818 C814 0.930 . S
H819 C816 0.929 . S
S820 N821 1.613 1_556 S
S820 N822 1.610 . S
N821 S820 1.613 1_554 S
N821 C824 1.350 1_554 S
N822 S820 1.610 . S
N822 C823 1.351 . S
C823 C817 1.428 . S
C823 N822 1.351 . S
C823 C824 1.434 . S
C824 C815 1.429 1_556 S
C824 N821 1.350 1_556 S
C824 C823 1.434 . S
C825 C826 1.368 1_554 S
C825 C827 1.432 . S
C825 H829 0.917 1_554 S
C826 C825 1.368 1_556 S
C826 C835 1.429 1_556 S
C827 C825 1.432 . S
C827 C828 1.363 . S
C827 H830 0.929 . S
C828 C827 1.363 . S
C828 C834 1.428 . S
H829 C825 0.917 1_556 S
H830 C827 0.929 . S
S831 N832 1.613 . S
S831 N833 1.610 . S
N832 S831 1.613 . S
N832 C835 1.350 . S
N833 S831 1.610 . S
N833 C834 1.351 . S
C834 C828 1.428 . S
C834 N833 1.351 . S
C834 C835 1.434 . S
C835 C826 1.429 1_554 S
C835 N832 1.350 . S
C835 C834 1.434 . S
C836 C837 1.369 . S
C836 C838 1.419 . S
C836 H840 0.930 . S
C837 C836 1.369 . S
C837 C846 1.429 . S
C838 C836 1.419 . S
C838 C839 1.363 . S
C838 H841 0.929 . S
C839 C838 1.363 . S
C839 C845 1.428 . S
H840 C836 0.930 . S
H841 C838 0.929 . S
S842 N843 1.613 . S
S842 N844 1.610 . S
N843 S842 1.613 . S
N843 C846 1.350 . S
N844 S842 1.610 . S
N844 C845 1.351 . S
C845 C839 1.428 . S
C845 N844 1.351 . S
C845 C846 1.434 . S
C846 C837 1.429 . S
C846 N843 1.350 . S
C846 C845 1.434 . S
C847 C848 1.369 . S
C847 C849 1.419 . S
C847 H851 0.930 . S
C848 C847 1.369 . S
C848 C857 1.429 . S
C849 C847 1.419 . S
C849 C850 1.363 . S
C849 H852 0.929 . S
C850 C849 1.363 . S
C850 C856 1.428 . S
H851 C847 0.930 . S
H852 C849 0.929 . S
S853 N854 1.613 . S
S853 N855 1.610 . S
N854 S853 1.613 . S
N854 C857 1.350 . S
N855 S853 1.610 . S
N855 C856 1.351 . S
C856 C850 1.428 . S
C856 N855 1.351 . S
C856 C857 1.434 . S
C857 C848 1.429 . S
C857 N854 1.350 . S
C857 C856 1.434 . S
C858 C859 1.369 . S
C858 C860 1.419 . S
C858 H862 0.930 . S
C859 C858 1.369 . S
C859 C868 1.429 . S
C860 C858 1.419 . S
C860 C861 1.363 . S
C860 H863 0.929 . S
C861 C860 1.363 . S
C861 C867 1.428 . S
H862 C858 0.930 . S
H863 C860 0.929 . S
S864 N865 1.613 . S
S864 N866 1.610 . S
N865 S864 1.613 . S
N865 C868 1.350 . S
N866 S864 1.610 . S
N866 C867 1.351 . S
C867 C861 1.428 . S
C867 N866 1.351 . S
C867 C868 1.434 . S
C868 C859 1.429 . S
C868 N865 1.350 . S
C868 C867 1.434 . S
C869 C870 1.369 . S
C869 C871 1.419 . S
C869 H873 0.930 . S
C870 C869 1.369 . S
C870 C879 1.429 . S
C871 C869 1.419 . S
C871 C872 1.363 . S
C871 H874 0.929 . S
C872 C871 1.363 . S
C872 C878 1.428 . S
H873 C869 0.930 . S
H874 C871 0.929 . S
S875 N876 1.613 . S
S875 N877 1.610 . S
N876 S875 1.613 . S
N876 C879 1.350 . S
N877 S875 1.610 . S
N877 C878 1.351 . S
C878 C872 1.428 . S
C878 N877 1.351 . S
C878 C879 1.434 . S
C879 C870 1.429 . S
C879 N876 1.350 . S
C879 C878 1.434 . S
C705 C205 1.307 . S
C707 C29 1.314 . S
C716 C321 1.290 . S
C718 C117 1.300 . S
C727 C401 1.292 . S
C729 C557 1.300 . S
C738 C489 1.315 . S
C740 C673 1.308 . S
C749 C108 1.073 . S
C751 C57 1.056 . S
C760 C145 1.047 . S
C762 C225 1.060 . S
C771 C313 1.057 . S
C773 C233 1.064 . S
C782 C293 1.054 . S
C784 C49 1.062 . S
C793 C636 1.064 . S
C795 C372 1.051 . S
C804 C460 1.052 . S
C806 C409 1.072 . S
C815 C585 1.061 . S
C817 C469 1.049 . S
C826 C645 1.051 . S
C828 C548 1.072 . S
C837 C20 2.193 . S
C839 C497 2.188 . S
C848 C577 2.190 . S
C850 C137 2.186 . S
C859 C196 2.186 . S
C861 C665 2.193 . S
C870 C284 2.184 . S
C872 C381 2.191 . S
