# Generated by pormake.
# Topology pcl, (4)-cn, num edge types: 1
# Building blocks:
#     Node 0, Type 0, BuildingBlock: TATPOV_clean_sbu_0, # of connection points: 4
#     Node 1, Type 0, BuildingBlock: TATPOV_clean_sbu_0, # of connection points: 4
#     Node 2, Type 0, BuildingBlock: TATPOV_clean_sbu_0, # of connection points: 4
#     Node 3, Type 0, BuildingBlock: TATPOV_clean_sbu_0, # of connection points: 4
#     Node 4, Type 0, BuildingBlock: TATPOV_clean_sbu_0, # of connection points: 4
#     Node 5, Type 0, BuildingBlock: TATPOV_clean_sbu_0, # of connection points: 4
#     Node 6, Type 0, BuildingBlock: TATPOV_clean_sbu_0, # of connection points: 4
#     Node 7, Type 0, BuildingBlock: TATPOV_clean_sbu_0, # of connection points: 4
#     Node 8, Type 0, BuildingBlock: TATPOV_clean_sbu_0, # of connection points: 4
#     Node 9, Type 0, BuildingBlock: TATPOV_clean_sbu_0, # of connection points: 4
#     Node 10, Type 0, BuildingBlock: TATPOV_clean_sbu_0, # of connection points: 4
#     Node 11, Type 0, BuildingBlock: TATPOV_clean_sbu_0, # of connection points: 4
#     Node 12, Type 0, BuildingBlock: TATPOV_clean_sbu_0, # of connection points: 4
#     Node 13, Type 0, BuildingBlock: TATPOV_clean_sbu_0, # of connection points: 4
#     Node 14, Type 0, BuildingBlock: TATPOV_clean_sbu_0, # of connection points: 4
#     Node 15, Type 0, BuildingBlock: TATPOV_clean_sbu_0, # of connection points: 4
#     Edge 16, Type (0, 0), BuildingBlock: ZUJKAS_clean_linker_0, # of connection points: 2
#     Edge 17, Type (0, 0), BuildingBlock: ZUJKAS_clean_linker_0, # of connection points: 2
#     Edge 18, Type (0, 0), BuildingBlock: ZUJKAS_clean_linker_0, # of connection points: 2
#     Edge 19, Type (0, 0), BuildingBlock: ZUJKAS_clean_linker_0, # of connection points: 2
#     Edge 20, Type (0, 0), BuildingBlock: ZUJKAS_clean_linker_0, # of connection points: 2
#     Edge 21, Type (0, 0), BuildingBlock: ZUJKAS_clean_linker_0, # of connection points: 2
#     Edge 22, Type (0, 0), BuildingBlock: ZUJKAS_clean_linker_0, # of connection points: 2
#     Edge 23, Type (0, 0), BuildingBlock: ZUJKAS_clean_linker_0, # of connection points: 2
#     Edge 24, Type (0, 0), BuildingBlock: ZUJKAS_clean_linker_0, # of connection points: 2
#     Edge 25, Type (0, 0), BuildingBlock: ZUJKAS_clean_linker_0, # of connection points: 2
#     Edge 26, Type (0, 0), BuildingBlock: ZUJKAS_clean_linker_0, # of connection points: 2
#     Edge 27, Type (0, 0), BuildingBlock: ZUJKAS_clean_linker_0, # of connection points: 2
#     Edge 28, Type (0, 0), BuildingBlock: ZUJKAS_clean_linker_0, # of connection points: 2
#     Edge 29, Type (0, 0), BuildingBlock: ZUJKAS_clean_linker_0, # of connection points: 2
#     Edge 30, Type (0, 0), BuildingBlock: ZUJKAS_clean_linker_0, # of connection points: 2
#     Edge 31, Type (0, 0), BuildingBlock: ZUJKAS_clean_linker_0, # of connection points: 2
#     Edge 32, Type (0, 0), BuildingBlock: ZUJKAS_clean_linker_0, # of connection points: 2
#     Edge 33, Type (0, 0), BuildingBlock: ZUJKAS_clean_linker_0, # of connection points: 2
#     Edge 34, Type (0, 0), BuildingBlock: ZUJKAS_clean_linker_0, # of connection points: 2
#     Edge 35, Type (0, 0), BuildingBlock: ZUJKAS_clean_linker_0, # of connection points: 2
#     Edge 36, Type (0, 0), BuildingBlock: ZUJKAS_clean_linker_0, # of connection points: 2
#     Edge 37, Type (0, 0), BuildingBlock: ZUJKAS_clean_linker_0, # of connection points: 2
#     Edge 38, Type (0, 0), BuildingBlock: ZUJKAS_clean_linker_0, # of connection points: 2
#     Edge 39, Type (0, 0), BuildingBlock: ZUJKAS_clean_linker_0, # of connection points: 2
#     Edge 40, Type (0, 0), BuildingBlock: ZUJKAS_clean_linker_0, # of connection points: 2
#     Edge 41, Type (0, 0), BuildingBlock: ZUJKAS_clean_linker_0, # of connection points: 2
#     Edge 42, Type (0, 0), BuildingBlock: ZUJKAS_clean_linker_0, # of connection points: 2
#     Edge 43, Type (0, 0), BuildingBlock: ZUJKAS_clean_linker_0, # of connection points: 2
#     Edge 44, Type (0, 0), BuildingBlock: ZUJKAS_clean_linker_0, # of connection points: 2
#     Edge 45, Type (0, 0), BuildingBlock: ZUJKAS_clean_linker_0, # of connection points: 2
#     Edge 46, Type (0, 0), BuildingBlock: ZUJKAS_clean_linker_0, # of connection points: 2
#     Edge 47, Type (0, 0), BuildingBlock: ZUJKAS_clean_linker_0, # of connection points: 2
# Relax obj value: 0.054
# Max RMSD: 0.062
# Mean RMSD: 0.053
data_MOF--net-pcl--node1-TATPOV_clean_sbu_0--edge1-ZUJKAS_clean_linker_0
_symmetry_space_group_name_H-M    P1
_symmetry_Int_Tables_number       1
_symmetry_cell_setting            triclinic
loop_
_symmetry_equiv_pos_as_xyz
'x, y, z'
_cell_length_a     57.077637
_cell_length_b     63.40899
_cell_length_c     57.40019
_cell_angle_alpha  90.035485
_cell_angle_beta   90.009314
_cell_angle_gamma 90.010541
loop_
_atom_site_label
_atom_site_type_symbol
_atom_site_fract_x
_atom_site_fract_y
_atom_site_fract_z
_atom_type_partial_charge
Zn0 Zn 0.13051 0.39306 0.10519 0.0
Zn1 Zn 0.14875 0.36418 0.0779 0.0
O2 O 0.16078 0.39242 0.06406 0.0
O3 O 0.14996 0.41575 0.09034 0.0
O4 O 0.16375 0.3419 0.05767 0.0
O5 O 0.14215 0.37809 0.13362 0.0
O6 O 0.16136 0.35636 0.11066 0.0
C7 C 0.16063 0.41133 0.07165 0.0
C8 C 0.09556 0.37045 0.07953 0.0
O9 O 0.11313 0.35939 0.07322 0.0
O10 O 0.09854 0.38645 0.09239 0.0
C11 C 0.18529 0.34323 0.05219 0.0
O12 O 0.19747 0.35956 0.05941 0.0
C13 C 0.15624 0.36287 0.13104 0.0
Zn14 Zn 0.86296 0.60839 0.61532 0.0
Zn15 Zn 0.8435 0.63463 0.58568 0.0
O16 O 0.8363 0.60542 0.57104 0.0
O17 O 0.85662 0.58416 0.59364 0.0
O18 O 0.82684 0.65513 0.56438 0.0
O19 O 0.83979 0.61564 0.64021 0.0
O20 O 0.82729 0.64107 0.61731 0.0
C21 C 0.84379 0.58698 0.57593 0.0
C22 C 0.89599 0.63768 0.59668 0.0
O23 O 0.87869 0.64263 0.58372 0.0
O24 O 0.89338 0.62435 0.61288 0.0
C25 C 0.83643 0.66577 0.54821 0.0
O26 O 0.85892 0.66341 0.54411 0.0
C27 C 0.82685 0.63153 0.63686 0.0
Zn28 Zn 0.13957 0.60634 0.88623 0.0
Zn29 Zn 0.15733 0.63565 0.91435 0.0
O30 O 0.16667 0.60736 0.92987 0.0
O31 O 0.15136 0.58318 0.90694 0.0
O32 O 0.17241 0.65719 0.93546 0.0
O33 O 0.15996 0.61625 0.86013 0.0
O34 O 0.17279 0.64211 0.88236 0.0
C35 C 0.16298 0.58802 0.92494 0.0
C36 C 0.10443 0.63414 0.90544 0.0
O37 O 0.12186 0.6421 0.91622 0.0
O38 O 0.10753 0.61908 0.89125 0.0
C39 C 0.16818 0.67679 0.93348 0.0
O40 O 0.15317 0.68314 0.91761 0.0
C41 C 0.17249 0.63253 0.86282 0.0
Zn42 Zn 0.87033 0.39063 0.38459 0.0
Zn43 Zn 0.8512 0.36255 0.41296 0.0
O44 O 0.84333 0.39108 0.42894 0.0
O45 O 0.86239 0.41385 0.40705 0.0
O46 O 0.8361 0.34016 0.43312 0.0
O47 O 0.84788 0.38301 0.3591 0.0
O48 O 0.83462 0.35739 0.3813 0.0
C49 C 0.84985 0.40994 0.42472 0.0
C50 C 0.90401 0.36127 0.40206 0.0
O51 O 0.88653 0.35489 0.41399 0.0
O52 O 0.90137 0.37583 0.38722 0.0
C53 C 0.82827 0.34296 0.45364 0.0
O54 O 0.83019 0.36163 0.46339 0.0
C55 C 0.8346 0.36725 0.36195 0.0
Zn56 Zn 0.82791 0.60233 0.89102 0.0
Zn57 Zn 0.81007 0.63436 0.91449 0.0
O58 O 0.79967 0.64003 0.88032 0.0
O59 O 0.81527 0.61351 0.86107 0.0
O60 O 0.7952 0.65856 0.93208 0.0
O61 O 0.80876 0.58153 0.90875 0.0
O62 O 0.79621 0.60766 0.93075 0.0
C63 C 0.80324 0.63026 0.86122 0.0
C64 C 0.86316 0.62719 0.91417 0.0
O65 O 0.84562 0.63852 0.91991 0.0
O66 O 0.86012 0.61057 0.9023 0.0
C67 C 0.77377 0.66308 0.92861 0.0
O68 O 0.76162 0.65164 0.91382 0.0
C69 C 0.79684 0.58801 0.92587 0.0
Zn70 Zn 0.17724 0.40124 0.38422 0.0
Zn71 Zn 0.19664 0.369 0.40658 0.0
O72 O 0.20599 0.36422 0.37213 0.0
O73 O 0.1902 0.39113 0.35375 0.0
O74 O 0.21329 0.34492 0.4225 0.0
O75 O 0.19547 0.42208 0.40305 0.0
O76 O 0.21001 0.39561 0.42319 0.0
C77 C 0.20216 0.37433 0.35332 0.0
C78 C 0.14344 0.37434 0.40736 0.0
O79 O 0.16152 0.36363 0.41286 0.0
O80 O 0.14561 0.39111 0.39556 0.0
C81 C 0.20824 0.33849 0.44285 0.0
O82 O 0.19133 0.34784 0.45446 0.0
C83 C 0.20821 0.41541 0.41949 0.0
Zn84 Zn 0.82172 0.39861 0.11388 0.0
Zn85 Zn 0.80242 0.36855 0.08813 0.0
O86 O 0.79051 0.36233 0.12167 0.0
O87 O 0.80435 0.38895 0.1421 0.0
O88 O 0.78642 0.34585 0.06922 0.0
O89 O 0.80765 0.42116 0.09394 0.0
O90 O 0.79111 0.39642 0.07263 0.0
C91 C 0.79237 0.3722 0.14095 0.0
C92 C 0.85577 0.37099 0.09255 0.0
O93 O 0.83767 0.36255 0.08346 0.0
O94 O 0.85356 0.38639 0.10646 0.0
C95 C 0.78917 0.32659 0.07476 0.0
O96 O 0.80278 0.32191 0.09249 0.0
C97 C 0.79477 0.4159 0.07697 0.0
Zn98 Zn 0.17321 0.59903 0.60578 0.0
Zn99 Zn 0.19261 0.63066 0.58317 0.0
O100 O 0.20159 0.63672 0.61754 0.0
O101 O 0.1837 0.6111 0.6363 0.0
O102 O 0.20934 0.6539 0.56583 0.0
O103 O 0.1934 0.57766 0.59013 0.0
O104 O 0.2064 0.60342 0.56792 0.0
C105 C 0.1963 0.62752 0.63658 0.0
C106 C 0.13974 0.62412 0.58042 0.0
O107 O 0.15748 0.63578 0.57642 0.0
O108 O 0.14203 0.60705 0.59164 0.0
C109 C 0.20321 0.6731 0.56775 0.0
O110 O 0.18524 0.67789 0.58104 0.0
C111 C 0.20576 0.58387 0.57321 0.0
Zn112 Zn 0.64133 0.89516 0.11512 0.0
Zn113 Zn 0.65748 0.86727 0.08461 0.0
O114 O 0.66632 0.89593 0.06951 0.0
O115 O 0.65244 0.9189 0.0948 0.0
O116 O 0.67192 0.84546 0.06325 0.0
O117 O 0.66241 0.88469 0.1402 0.0
O118 O 0.67409 0.85997 0.11593 0.0
C119 C 0.66296 0.91499 0.07588 0.0
C120 C 0.60505 0.86878 0.09592 0.0
O121 O 0.62178 0.86147 0.08362 0.0
O122 O 0.60901 0.88276 0.11119 0.0
C123 C 0.66177 0.8367 0.04605 0.0
O124 O 0.64023 0.84221 0.04075 0.0
C125 C 0.67472 0.86856 0.13602 0.0
Zn126 Zn 0.36418 0.10855 0.61262 0.0
Zn127 Zn 0.34546 0.13734 0.58514 0.0
O128 O 0.33398 0.10919 0.57064 0.0
O129 O 0.34704 0.08556 0.59557 0.0
O130 O 0.32916 0.15975 0.56621 0.0
O131 O 0.35039 0.12151 0.64112 0.0
O132 O 0.33309 0.14456 0.61826 0.0
C133 C 0.33565 0.09005 0.57732 0.0
C134 C 0.39882 0.13338 0.58853 0.0
O135 O 0.38095 0.14287 0.58025 0.0
O136 O 0.39612 0.11798 0.60232 0.0
C137 C 0.33509 0.16584 0.54596 0.0
O138 O 0.35317 0.15702 0.53568 0.0
C139 C 0.33702 0.13723 0.63857 0.0
Zn140 Zn 0.63783 0.10679 0.88302 0.0
Zn141 Zn 0.65527 0.1369 0.91017 0.0
O142 O 0.66478 0.10931 0.92719 0.0
O143 O 0.65017 0.0845 0.90458 0.0
O144 O 0.67022 0.1599 0.92944 0.0
O145 O 0.65753 0.11601 0.85614 0.0
O146 O 0.67055 0.14214 0.8778 0.0
C147 C 0.66139 0.08983 0.92268 0.0
C148 C 0.6024 0.13465 0.9015 0.0
O149 O 0.61975 0.14311 0.91193 0.0
O150 O 0.60565 0.11924 0.88782 0.0
C151 C 0.66741 0.16182 0.9513 0.0
O152 O 0.65387 0.14835 0.96232 0.0
C153 C 0.67008 0.13232 0.8584 0.0
Zn154 Zn 0.36744 0.89815 0.39498 0.0
Zn155 Zn 0.34787 0.86761 0.4195 0.0
O156 O 0.33568 0.89524 0.43472 0.0
O157 O 0.34859 0.92028 0.4115 0.0
O158 O 0.33078 0.84492 0.43749 0.0
O159 O 0.35589 0.88536 0.36514 0.0
O160 O 0.33697 0.86158 0.38572 0.0
C161 C 0.33686 0.91471 0.42916 0.0
C162 C 0.40117 0.87296 0.41978 0.0
O163 O 0.38322 0.86197 0.42508 0.0
O164 O 0.39885 0.88963 0.40785 0.0
C165 C 0.33859 0.83577 0.4556 0.0
O166 O 0.35929 0.84103 0.46374 0.0
C167 C 0.3423 0.86962 0.36606 0.0
Zn168 Zn 0.32478 0.10041 0.88728 0.0
Zn169 Zn 0.3076 0.13241 0.91204 0.0
O170 O 0.29639 0.13901 0.87857 0.0
O171 O 0.30992 0.11213 0.85837 0.0
O172 O 0.29307 0.156 0.93068 0.0
O173 O 0.30722 0.07933 0.90637 0.0
O174 O 0.29386 0.10555 0.92768 0.0
C175 C 0.29861 0.12928 0.85926 0.0
C176 C 0.36068 0.12544 0.90957 0.0
O177 O 0.34325 0.13627 0.91666 0.0
O178 O 0.35738 0.10929 0.89698 0.0
C179 C 0.30107 0.1747 0.92987 0.0
O180 O 0.31953 0.17866 0.91691 0.0
C181 C 0.2951 0.08583 0.92336 0.0
Zn182 Zn 0.67466 0.89478 0.38101 0.0
Zn183 Zn 0.69355 0.86526 0.40792 0.0
O184 O 0.70612 0.85823 0.3749 0.0
O185 O 0.69289 0.88445 0.35349 0.0
O186 O 0.70936 0.84316 0.42766 0.0
O187 O 0.68817 0.91775 0.40092 0.0
O188 O 0.70459 0.89342 0.42283 0.0
C189 C 0.70479 0.8677 0.35536 0.0
C190 C 0.64029 0.86756 0.40259 0.0
O191 O 0.65825 0.85939 0.41223 0.0
O192 O 0.64273 0.88255 0.38819 0.0
C193 C 0.70493 0.82373 0.42437 0.0
O194 O 0.68954 0.81842 0.40838 0.0
C195 C 0.70085 0.91281 0.41815 0.0
Zn196 Zn 0.32563 0.90372 0.10878 0.0
Zn197 Zn 0.30686 0.8717 0.08598 0.0
O198 O 0.29812 0.86506 0.12028 0.0
O199 O 0.31493 0.89133 0.13903 0.0
O200 O 0.29059 0.84874 0.06778 0.0
O201 O 0.3052 0.92488 0.09324 0.0
O202 O 0.29239 0.89885 0.07127 0.0
C203 C 0.30294 0.87455 0.13929 0.0
C204 C 0.35958 0.87915 0.08329 0.0
O205 O 0.34207 0.86726 0.07913 0.0
O206 O 0.35699 0.8961 0.09468 0.0
C207 C 0.29535 0.82927 0.0701 0.0
O208 O 0.31175 0.82356 0.08487 0.0
C209 C 0.29272 0.91842 0.07651 0.0
Zn210 Zn 0.67379 0.10085 0.60532 0.0
Zn211 Zn 0.69203 0.1322 0.58071 0.0
O212 O 0.70298 0.13828 0.61461 0.0
O213 O 0.68788 0.11204 0.63471 0.0
O214 O 0.7073 0.15575 0.56257 0.0
O215 O 0.69167 0.07941 0.58709 0.0
O216 O 0.70498 0.10502 0.5648 0.0
C217 C 0.69993 0.12876 0.63393 0.0
C218 C 0.63889 0.12637 0.5821 0.0
O219 O 0.65666 0.13695 0.57543 0.0
O220 O 0.64164 0.11017 0.59472 0.0
C221 C 0.70601 0.17463 0.56995 0.0
O222 O 0.69426 0.17851 0.58916 0.0
C223 C 0.70364 0.08543 0.5698 0.0
H224 H 0.07861 0.33166 0.06605 0.0
H225 H 0.03738 0.32224 0.05885 0.0
H226 H 0.01723 0.38697 0.07029 0.0
H227 H 0.05789 0.39638 0.07759 0.0
H228 H 0.00132 0.32844 0.09272 0.0
H229 H 0.98049 0.37065 0.01116 0.0
H230 H 0.01014 0.36394 0.01946 0.0
H231 H 0.99623 0.38709 0.03125 0.0
C232 C 0.06539 0.3439 0.06657 0.0
C233 C 0.07144 0.36474 0.07249 0.0
C234 C 0.0419 0.33851 0.06247 0.0
C235 C 0.02432 0.35398 0.06369 0.0
C236 C 0.03055 0.37487 0.06878 0.0
H237 H 0.89573 0.3782 0.11697 0.0
H238 H 0.9355 0.36772 0.10701 0.0
C239 C 0.0538 0.38018 0.07316 0.0
C240 C 0.99915 0.34842 0.06245 0.0
H241 H 0.94807 0.36585 0.03832 0.0
C242 C 0.98967 0.33605 0.08038 0.0
C243 C 0.98397 0.35811 0.04619 0.0
C244 C 0.99326 0.37051 0.02578 0.0
C245 C 0.96536 0.33492 0.08385 0.0
C246 C 0.9503 0.34656 0.06912 0.0
C247 C 0.95966 0.35713 0.04978 0.0
C248 C 0.92569 0.35088 0.0757 0.0
C249 C 0.95605 0.32228 0.10407 0.0
C250 C 0.90692 0.34501 0.06126 0.0
C251 C 0.88395 0.35094 0.067 0.0
C252 C 0.87958 0.36321 0.08698 0.0
C253 C 0.89846 0.36882 0.10143 0.0
C254 C 0.92122 0.36269 0.09587 0.0
H255 H 0.96818 0.30927 0.10877 0.0
H256 H 0.95428 0.33274 0.11949 0.0
H257 H 0.93855 0.31554 0.10004 0.0
H258 H 0.91009 0.33609 0.04548 0.0
H259 H 0.86976 0.34646 0.05549 0.0
H260 H 0.91582 0.64542 0.55416 0.0
H261 H 0.95792 0.64909 0.54618 0.0
H262 H 0.97181 0.65125 0.62 0.0
H263 H 0.93007 0.6467 0.62801 0.0
H264 H 0.99629 0.67561 0.55788 0.0
H265 H 0.00342 0.5968 0.59897 0.0
H266 H 0.9756 0.60858 0.59182 0.0
H267 H 0.9908 0.61613 0.61802 0.0
C268 C 0.92784 0.64727 0.56863 0.0
C269 C 0.91983 0.64544 0.59169 0.0
C270 C 0.95186 0.64934 0.56406 0.0
C271 C 0.96801 0.64987 0.58252 0.0
C272 C 0.95968 0.65034 0.60551 0.0
H273 H 0.11937 0.66281 0.58537 0.0
H274 H 0.07745 0.67074 0.58194 0.0
C275 C 0.93585 0.64783 0.61007 0.0
C276 C 0.99344 0.64714 0.57809 0.0
H277 H 0.039 0.61444 0.5909 0.0
C278 C 0.00569 0.6622 0.56492 0.0
C279 C 0.00554 0.62934 0.5868 0.0
C280 C 0.99314 0.61167 0.59947 0.0
C281 C 0.02994 0.66019 0.56085 0.0
C282 C 0.04222 0.64292 0.57064 0.0
C283 C 0.02973 0.62773 0.58339 0.0
C284 C 0.06799 0.63996 0.5684 0.0
C285 C 0.04201 0.67639 0.54583 0.0
C286 C 0.0768 0.62016 0.56174 0.0
C287 C 0.10051 0.61545 0.56445 0.0
C288 C 0.11603 0.63061 0.57329 0.0
C289 C 0.10771 0.65096 0.57824 0.0
C290 C 0.08377 0.65552 0.57613 0.0
H291 H 0.02949 0.68404 0.53366 0.0
H292 H 0.04949 0.68889 0.55715 0.0
H293 H 0.05644 0.66924 0.53555 0.0
H294 H 0.06507 0.6079 0.55565 0.0
H295 H 0.10657 0.59965 0.56049 0.0
H296 H 0.90173 0.60213 0.91489 0.0
H297 H 0.9422 0.61239 0.92189 0.0
H298 H 0.92036 0.67646 0.93464 0.0
H299 H 0.87936 0.66623 0.92768 0.0
H300 H 0.9568 0.67184 0.90099 0.0
H301 H 0.97799 0.62838 0.98168 0.0
H302 H 0.96316 0.61201 0.96086 0.0
H303 H 0.94825 0.63442 0.97314 0.0
C304 C 0.9054 0.61837 0.91949 0.0
C305 C 0.88732 0.63339 0.92066 0.0
C306 C 0.92857 0.62417 0.92369 0.0
C307 C 0.93426 0.64511 0.92912 0.0
C308 C 0.91627 0.66016 0.93072 0.0
H309 H 0.08787 0.65693 0.94279 0.0
H310 H 0.04679 0.66581 0.95127 0.0
C311 C 0.8929 0.65429 0.92676 0.0
C312 C 0.95927 0.65122 0.93071 0.0
H313 H 0.01061 0.63523 0.9555 0.0
C314 C 0.96854 0.66434 0.91333 0.0
C315 C 0.97456 0.6417 0.94699 0.0
C316 C 0.96545 0.62852 0.96688 0.0
C317 C 0.99285 0.66655 0.91048 0.0
C318 C 0.00815 0.6552 0.92525 0.0
C319 C 0.99886 0.64374 0.944 0.0
C320 C 0.03323 0.65229 0.91939 0.0
C321 C 0.00194 0.68018 0.89095 0.0
C322 C 0.03914 0.64178 0.89871 0.0
C323 C 0.06236 0.63653 0.89397 0.0
C324 C 0.08027 0.64169 0.9098 0.0
C325 C 0.07447 0.65284 0.93021 0.0
C326 C 0.05105 0.6579 0.93509 0.0
H327 H 0.98934 0.69294 0.88662 0.0
H328 H 0.01909 0.68736 0.89552 0.0
H329 H 0.00433 0.67034 0.87513 0.0
H330 H 0.02564 0.63691 0.88658 0.0
H331 H 0.06621 0.628 0.87807 0.0
H332 H 0.10339 0.39749 0.40681 0.0
H333 H 0.06363 0.38568 0.41469 0.0
H334 H 0.08923 0.32337 0.43067 0.0
H335 H 0.12953 0.33516 0.42277 0.0
H336 H 0.05199 0.32439 0.39786 0.0
H337 H 0.0298 0.37132 0.47584 0.0
H338 H 0.04321 0.3873 0.45377 0.0
H339 H 0.0597 0.36628 0.46705 0.0
C340 C 0.1007 0.38132 0.41227 0.0
C341 C 0.11965 0.36725 0.4141 0.0
C342 C 0.07794 0.37464 0.41697 0.0
C343 C 0.07351 0.35374 0.42363 0.0
C344 C 0.09234 0.33963 0.4258 0.0
H345 H 0.92088 0.34086 0.44087 0.0
H346 H 0.962 0.33209 0.44924 0.0
C347 C 0.11531 0.34639 0.4213 0.0
C348 C 0.04889 0.34664 0.42607 0.0
H349 H 0.99718 0.36209 0.45046 0.0
C350 C 0.04005 0.33215 0.40982 0.0
C351 C 0.03337 0.35643 0.44194 0.0
C352 C 0.04206 0.37103 0.46081 0.0
C353 C 0.01583 0.32883 0.4075 0.0
C354 C 1.00017 0.3405 0.42159 0.0
C355 C 0.00915 0.35333 0.43942 0.0
C356 C 0.97496 0.34244 0.41572 0.0
C357 C 0.00721 0.31363 0.38919 0.0
C358 C 0.96862 0.35098 0.39408 0.0
C359 C 0.94537 0.35613 0.38937 0.0
C360 C 0.92786 0.35288 0.4062 0.0
C361 C 0.93398 0.34343 0.42752 0.0
C362 C 0.95743 0.33845 0.43233 0.0
H363 H 0.02008 0.30076 0.38627 0.0
H364 H 0.99011 0.30658 0.39415 0.0
H365 H 0.00498 0.32216 0.37246 0.0
H366 H 0.98187 0.35467 0.38119 0.0
H367 H 0.94125 0.36334 0.37276 0.0
H368 H 0.3909 0.90353 0.06052 0.0
H369 H 0.43259 0.8965 0.05486 0.0
H370 H 0.42408 0.83522 0.08653 0.0
H371 H 0.38195 0.84178 0.09067 0.0
H372 H 0.46055 0.89359 0.0886 0.0
H373 H 0.47071 0.81985 0.03833 0.0
H374 H 0.44313 0.83369 0.04008 0.0
H375 H 0.45197 0.81597 0.06301 0.0
C376 C 0.39785 0.88828 0.06548 0.0
C377 C 0.38336 0.87315 0.07594 0.0
C378 C 0.42168 0.88427 0.06232 0.0
C379 C 0.43164 0.86529 0.0702 0.0
C380 C 0.41687 0.84974 0.07972 0.0
H381 H 0.57032 0.86542 0.12786 0.0
H382 H 0.52843 0.86148 0.12041 0.0
C383 C 0.39281 0.85354 0.08224 0.0
C384 C 0.45762 0.86333 0.07165 0.0
H385 H 0.50414 0.83058 0.06138 0.0
C386 C 0.47 0.87989 0.08229 0.0
C387 C 0.47018 0.84556 0.06336 0.0
C388 C 0.45831 0.82788 0.05034 0.0
C389 C 0.49431 0.8791 0.08524 0.0
C390 C 0.50668 0.86079 0.07834 0.0
C391 C 0.49455 0.84441 0.06709 0.0
C392 C 0.53215 0.85866 0.08301 0.0
C393 C 0.5065 0.89808 0.09556 0.0
C394 C 0.54827 0.85674 0.06464 0.0
C395 C 0.57239 0.85846 0.06896 0.0
C396 C 0.58055 0.86237 0.09166 0.0
C397 C 0.56445 0.86271 0.11015 0.0
C398 C 0.54052 0.86056 0.1059 0.0
H399 H 0.49604 0.9127 0.0931 0.0
H400 H 0.50879 0.89568 0.11457 0.0
H401 H 0.52403 0.90051 0.08761 0.0
H402 H 0.54218 0.8551 0.04685 0.0
H403 H 0.58446 0.85814 0.0544 0.0
H404 H 0.62428 0.16388 0.56264 0.0
H405 H 0.58371 0.17465 0.55428 0.0
H406 H 0.55893 0.11424 0.57835 0.0
H407 H 0.59895 0.10341 0.5867 0.0
H408 H 0.53838 0.13046 0.5341 0.0
H409 H 0.53549 0.18639 0.60913 0.0
H410 H 0.5591 0.18798 0.58835 0.0
H411 H 0.55733 0.16584 0.60768 0.0
C412 C 0.61017 0.15286 0.56594 0.0
C413 C 0.61483 0.13285 0.57552 0.0
C414 C 0.58705 0.15905 0.56119 0.0
C415 C 0.56839 0.14524 0.56579 0.0
C416 C 0.57311 0.12509 0.57463 0.0
H417 H 0.43877 0.12256 0.61106 0.0
H418 H 0.47888 0.13148 0.60091 0.0
C419 C 0.59603 0.11898 0.57951 0.0
C420 C 0.54363 0.15166 0.56291 0.0
H421 H 0.4996 0.17536 0.59341 0.0
C422 C 0.52988 0.14087 0.54649 0.0
C423 C 0.53271 0.1652 0.57919 0.0
C424 C 0.54677 0.17707 0.59718 0.0
C425 C 0.50532 0.14192 0.54718 0.0
C426 C 0.49437 0.15402 0.56475 0.0
C427 C 0.50814 0.16621 0.57989 0.0
C428 C 0.46956 0.15039 0.57098 0.0
C429 C 0.49117 0.12859 0.53057 0.0
C430 C 0.45095 0.15829 0.55757 0.0
C431 C 0.42772 0.15324 0.56341 0.0
C432 C 0.42295 0.14006 0.58257 0.0
C433 C 0.44175 0.13259 0.59608 0.0
C434 C 0.46473 0.13776 0.59039 0.0
H435 H 0.50236 0.12035 0.51761 0.0
H436 H 0.48105 0.11663 0.54048 0.0
H437 H 0.47841 0.13866 0.52112 0.0
H438 H 0.45441 0.1681 0.54252 0.0
H439 H 0.41359 0.15924 0.5527 0.0
H440 H 0.56462 0.1287 0.87353 0.0
H441 H 0.52383 0.13707 0.88179 0.0
H442 H 0.54394 0.16508 0.94728 0.0
H443 H 0.58525 0.15681 0.93901 0.0
H444 H 0.50825 0.13338 0.95011 0.0
H445 H 0.48663 0.19291 0.88316 0.0
H446 H 0.50236 0.17089 0.87124 0.0
H447 H 0.51635 0.18766 0.89241 0.0
C448 C 0.56049 0.13695 0.88955 0.0
C449 C 0.57816 0.14204 0.90566 0.0
C450 C 0.53715 0.14188 0.89415 0.0
C451 C 0.53089 0.15195 0.91499 0.0
C452 C 0.54848 0.15751 0.93097 0.0
H453 H 0.37675 0.1639 0.92505 0.0
H454 H 0.41777 0.17422 0.93178 0.0
C455 C 0.57202 0.15281 0.92622 0.0
C456 C 0.50573 0.15436 0.92071 0.0
H457 H 0.45432 0.1712 0.89673 0.0
C458 C 0.49646 0.14214 0.93888 0.0
C459 C 0.49038 0.16598 0.90625 0.0
C460 C 0.49946 0.18028 0.88731 0.0
C461 C 0.47217 0.13971 0.94158 0.0
C462 C 0.45687 0.14964 0.92561 0.0
C463 C 0.46608 0.16341 0.90883 0.0
C464 C 0.43193 0.14343 0.92373 0.0
C465 C 0.46307 0.12568 0.96075 0.0
C466 C 0.42642 0.12279 0.9169 0.0
C467 C 0.40324 0.11696 0.9128 0.0
C468 C 0.38498 0.13163 0.91552 0.0
C469 C 0.39043 0.15223 0.92292 0.0
C470 C 0.4138 0.15815 0.92675 0.0
H471 H 0.47568 0.12475 0.97546 0.0
H472 H 0.44596 0.13142 0.96742 0.0
H473 H 0.46056 0.1095 0.9538 0.0
H474 H 0.44017 0.1113 0.91405 0.0
H475 H 0.39967 0.10096 0.90719 0.0
H476 H 0.41685 0.83318 0.431 0.0
H477 H 0.45779 0.82237 0.43735 0.0
H478 H 0.47993 0.88705 0.42996 0.0
H479 H 0.43957 0.89784 0.42359 0.0
H480 H 0.49333 0.82869 0.40398 0.0
H481 H 0.51738 0.86732 0.48675 0.0
H482 H 0.48729 0.86219 0.47865 0.0
H483 H 0.50223 0.88522 0.46783 0.0
C484 C 0.43045 0.84509 0.43124 0.0
C485 C 0.42504 0.86634 0.42667 0.0
C486 C 0.45378 0.83891 0.43485 0.0
C487 C 0.47185 0.85395 0.43448 0.0
C488 C 0.46626 0.87523 0.43084 0.0
H489 H 0.60023 0.87531 0.37846 0.0
H490 H 0.56035 0.8656 0.38888 0.0
C491 C 0.44315 0.88135 0.42697 0.0
C492 C 0.49686 0.84768 0.43493 0.0
H493 H 0.54905 0.86298 0.45848 0.0
C494 C 0.50551 0.83562 0.41632 0.0
C495 C 0.51275 0.85642 0.4512 0.0
C496 C 0.50439 0.86832 0.47237 0.0
C497 C 0.52968 0.83393 0.41223 0.0
C498 C 0.54547 0.84475 0.427 0.0
C499 C 0.53692 0.85494 0.44696 0.0
C500 C 0.57011 0.84855 0.42005 0.0
C501 C 0.53806 0.82155 0.3914 0.0
C502 C 0.58891 0.84236 0.43427 0.0
C503 C 0.61194 0.8479 0.42831 0.0
C504 C 0.61638 0.86008 0.40829 0.0
C505 C 0.59747 0.86597 0.39402 0.0
C506 C 0.57463 0.86027 0.39983 0.0
H507 H 0.52552 0.80879 0.38685 0.0
H508 H 0.53941 0.83225 0.37617 0.0
H509 H 0.55556 0.81449 0.39463 0.0
H510 H 0.58573 0.83352 0.4501 0.0
H511 H 0.62613 0.8432 0.43969 0.0
H512 H 0.19722 0.34015 0.13441 0.0
H513 H 0.21644 0.32822 0.17049 0.0
H514 H 0.1585 0.35255 0.21058 0.0
H515 H 0.13945 0.36434 0.1751 0.0
H516 H 0.23017 0.3551 0.2061 0.0
H517 H 0.16963 0.2959 0.24164 0.0
H518 H 0.16985 0.30295 0.21112 0.0
H519 H 0.15323 0.31829 0.2318 0.0
C520 C 0.18842 0.3425 0.15093 0.0
C521 C 0.1669 0.35327 0.15198 0.0
C522 C 0.1994 0.33568 0.17147 0.0
C523 C 0.18869 0.33914 0.19318 0.0
C524 C 0.16683 0.34919 0.19403 0.0
H525 H 0.20607 0.39594 0.31274 0.0
H526 H 0.21195 0.3816 0.27399 0.0
C527 C 0.15606 0.35617 0.1737 0.0
C528 C 0.20111 0.33508 0.21539 0.0
H529 H 0.18809 0.31958 0.27067 0.0
C530 C 0.22151 0.34667 0.2201 0.0
C531 C 0.19034 0.32358 0.23356 0.0
C532 C 0.1697 0.30929 0.22916 0.0
C533 C 0.22939 0.34945 0.24306 0.0
C534 C 0.21624 0.34075 0.26161 0.0
C535 C 0.19792 0.3267 0.25655 0.0
C536 C 0.21762 0.34948 0.28555 0.0
C537 C 0.25076 0.36289 0.24731 0.0
C538 C 0.21888 0.33625 0.30515 0.0
C539 C 0.21531 0.34448 0.32755 0.0
C540 C 0.21004 0.36599 0.33056 0.0
C541 C 0.21 0.37929 0.31101 0.0
C542 C 0.21368 0.37113 0.2888 0.0
H543 H 0.26387 0.36053 0.23324 0.0
H544 H 0.24564 0.37977 0.24711 0.0
H545 H 0.25906 0.35925 0.26434 0.0
H546 H 0.22161 0.31945 0.30303 0.0
H547 H 0.21539 0.33384 0.3423 0.0
H548 H 0.80794 0.60813 0.6714 0.0
H549 H 0.78944 0.62064 0.70697 0.0
H550 H 0.79482 0.68482 0.68264 0.0
H551 H 0.81334 0.6722 0.64648 0.0
H552 H 0.81609 0.6774 0.72585 0.0
H553 H 0.72651 0.64536 0.72703 0.0
H554 H 0.74672 0.62568 0.71707 0.0
H555 H 0.74265 0.64942 0.70027 0.0
C556 C 0.80466 0.62487 0.67332 0.0
C557 C 0.81217 0.6392 0.65626 0.0
C558 C 0.79385 0.63201 0.69357 0.0
C559 C 0.7904 0.65365 0.69733 0.0
C560 C 0.79701 0.66803 0.67991 0.0
H561 H 0.78962 0.67076 0.85005 0.0
H562 H 0.77961 0.68407 0.81095 0.0
C563 C 0.80756 0.66082 0.65932 0.0
C564 C 0.7836 0.66075 0.72097 0.0
H565 H 0.74727 0.64535 0.76488 0.0
C566 C 0.80055 0.67126 0.73435 0.0
C567 C 0.7632 0.65296 0.73194 0.0
C568 C 0.74364 0.64293 0.71821 0.0
C569 C 0.79922 0.67148 0.75878 0.0
C570 C 0.78033 0.66111 0.76989 0.0
C571 C 0.76187 0.65311 0.75634 0.0
C572 C 0.78256 0.6536 0.7942 0.0
C573 C 0.81934 0.6806 0.77255 0.0
C574 C 0.78674 0.63206 0.79775 0.0
C575 C 0.79251 0.62453 0.81975 0.0
C576 C 0.79411 0.63834 0.83883 0.0
C577 C 0.78858 0.65978 0.83563 0.0
C578 C 0.78294 0.6674 0.81335 0.0
H579 H 0.83294 0.68774 0.76118 0.0
H580 H 0.81272 0.69294 0.78458 0.0
H581 H 0.82765 0.66807 0.78326 0.0
H582 H 0.78658 0.62115 0.7832 0.0
H583 H 0.79637 0.60789 0.82167 0.0
H584 H 0.19102 0.60884 0.8284 0.0
H585 H 0.20846 0.62087 0.79216 0.0
H586 H 0.20197 0.68549 0.81482 0.0
H587 H 0.18445 0.67334 0.85172 0.0
H588 H 0.18068 0.67677 0.7718 0.0
H589 H 0.27075 0.64592 0.77116 0.0
H590 H 0.25097 0.62616 0.78172 0.0
H591 H 0.25465 0.65034 0.79787 0.0
C592 C 0.19378 0.6256 0.82595 0.0
C593 C 0.18629 0.64017 0.84279 0.0
C594 C 0.204 0.63246 0.80531 0.0
C595 C 0.2069 0.65406 0.80092 0.0
C596 C 0.20021 0.66873 0.81804 0.0
H597 H 0.21073 0.66784 0.64746 0.0
H598 H 0.21942 0.68176 0.68663 0.0
C599 C 0.19023 0.6618 0.83904 0.0
C600 C 0.21345 0.66067 0.77704 0.0
H601 H 0.24974 0.64448 0.73341 0.0
C602 C 0.19628 0.67061 0.76343 0.0
C603 C 0.23391 0.65283 0.76619 0.0
C604 C 0.25371 0.64343 0.78011 0.0
C605 C 0.19753 0.67024 0.73899 0.0
C606 C 0.21649 0.6598 0.72813 0.0
C607 C 0.23509 0.65231 0.74179 0.0
C608 C 0.21433 0.65184 0.70401 0.0
C609 C 0.17732 0.67883 0.72497 0.0
C610 C 0.20916 0.63043 0.70088 0.0
C611 C 0.20406 0.62256 0.67883 0.0
C612 C 0.20421 0.6359 0.65931 0.0
C613 C 0.21049 0.65721 0.66221 0.0
C614 C 0.2154 0.66518 0.68452 0.0
H615 H 0.16404 0.68677 0.73609 0.0
H616 H 0.18389 0.69034 0.71197 0.0
H617 H 0.16866 0.66581 0.71531 0.0
H618 H 0.20819 0.6199 0.71573 0.0
H619 H 0.19952 0.60603 0.67718 0.0
H620 H 0.78418 0.33081 0.15252 0.0
H621 H 0.77608 0.31719 0.19182 0.0
H622 H 0.77101 0.38099 0.21753 0.0
H623 H 0.77883 0.39447 0.17877 0.0
H624 H 0.80628 0.32447 0.22657 0.0
H625 H 0.72072 0.35372 0.25558 0.0
H626 H 0.72826 0.35187 0.22505 0.0
H627 H 0.73594 0.37499 0.24177 0.0
C628 C 0.78046 0.34184 0.16645 0.0
C629 C 0.78232 0.36369 0.1627 0.0
C630 C 0.77586 0.33406 0.18887 0.0
C631 C 0.7726 0.34804 0.20762 0.0
C632 C 0.7728 0.36983 0.20335 0.0
H633 H 0.82079 0.39065 0.32494 0.0
H634 H 0.7999 0.37886 0.29033 0.0
C635 C 0.77758 0.37756 0.18117 0.0
C636 C 0.77359 0.34069 0.23214 0.0
H637 H 0.7527 0.3553 0.28541 0.0
C638 C 0.79403 0.33032 0.23949 0.0
C639 C 0.75752 0.34806 0.24905 0.0
C640 C 0.73427 0.35756 0.24235 0.0
C641 C 0.80035 0.32981 0.26311 0.0
C642 C 0.78579 0.33987 0.27964 0.0
C643 C 0.76398 0.34783 0.27264 0.0
C644 C 0.79541 0.34678 0.30229 0.0
C645 C 0.82376 0.32068 0.26996 0.0
C646 C 0.79936 0.33267 0.32072 0.0
C647 C 0.8113 0.33944 0.34075 0.0
C648 C 0.81965 0.36029 0.34235 0.0
C649 C 0.8148 0.37445 0.32417 0.0
C650 C 0.80273 0.36778 0.30442 0.0
H651 H 0.83269 0.31282 0.25511 0.0
H652 H 0.8353 0.33341 0.27668 0.0
H653 H 0.82137 0.30899 0.28415 0.0
H654 H 0.79383 0.31638 0.31931 0.0
H655 H 0.8148 0.3282 0.35452 0.0
H656 H 0.71264 0.82609 0.34459 0.0
H657 H 0.72286 0.81194 0.30598 0.0
H658 H 0.73073 0.87539 0.27998 0.0
H659 H 0.72062 0.8894 0.31805 0.0
H660 H 0.69478 0.82004 0.2689 0.0
H661 H 0.78344 0.8463 0.2461 0.0
H662 H 0.77371 0.84429 0.27601 0.0
H663 H 0.76811 0.86786 0.25929 0.0
C664 C 0.71737 0.83692 0.33078 0.0
C665 C 0.71568 0.85883 0.33419 0.0
C666 C 0.72319 0.82883 0.30877 0.0
C667 C 0.72792 0.84258 0.29014 0.0
C668 C 0.72779 0.86441 0.29415 0.0
H669 H 0.69197 0.88979 0.17307 0.0
H670 H 0.71111 0.87538 0.20737 0.0
C671 C 0.72171 0.87244 0.31589 0.0
C672 C 0.72849 0.83501 0.2657 0.0
H673 H 0.75376 0.849 0.21419 0.0
C674 C 0.70816 0.82544 0.25688 0.0
C675 C 0.74608 0.84173 0.25002 0.0
C676 C 0.76916 0.8504 0.25846 0.0
C677 C 0.70341 0.82538 0.23288 0.0
C678 C 0.71953 0.83501 0.2175 0.0
C679 C 0.74128 0.84186 0.22605 0.0
C680 C 0.71158 0.84324 0.19472 0.0
C681 C 0.68 0.81739 0.22445 0.0
C682 C 0.70606 0.82998 0.17588 0.0
C683 C 0.69508 0.83827 0.156 0.0
C684 C 0.68927 0.85982 0.155 0.0
C685 C 0.69595 0.87309 0.17344 0.0
C686 C 0.70706 0.8649 0.193 0.0
H687 H 0.66951 0.81019 0.23868 0.0
H688 H 0.66979 0.83059 0.21678 0.0
H689 H 0.68266 0.80539 0.21062 0.0
H690 H 0.70949 0.81321 0.1769 0.0
H691 H 0.69013 0.82771 0.142 0.0
H692 H 0.28733 0.17057 0.84981 0.0
H693 H 0.27916 0.18574 0.81126 0.0
H694 H 0.282 0.12347 0.781 0.0
H695 H 0.28977 0.10841 0.81901 0.0
H696 H 0.31026 0.18408 0.77708 0.0
H697 H 0.23001 0.14802 0.74317 0.0
H698 H 0.2364 0.14869 0.77402 0.0
H699 H 0.24719 0.12746 0.75597 0.0
C700 C 0.28545 0.16012 0.83499 0.0
C701 C 0.28943 0.13833 0.83736 0.0
C702 C 0.28075 0.16879 0.81301 0.0
C703 C 0.27957 0.15574 0.79324 0.0
C704 C 0.28211 0.13387 0.79598 0.0
H705 H 0.35233 0.13358 0.68297 0.0
H706 H 0.33425 0.14704 0.71821 0.0
C707 C 0.28693 0.12527 0.81776 0.0
C708 C 0.28025 0.1646 0.76933 0.0
H709 H 0.26327 0.1505 0.71456 0.0
C710 C 0.29935 0.17748 0.76343 0.0
C711 C 0.26572 0.15663 0.75138 0.0
C712 C 0.24353 0.14464 0.75658 0.0
C713 C 0.30635 0.17978 0.74016 0.0
C714 C 0.29415 0.16867 0.72259 0.0
C715 C 0.27301 0.15858 0.72812 0.0
C716 C 0.30585 0.16298 0.70045 0.0
C717 C 0.32801 0.19249 0.73482 0.0
C718 C 0.2957 0.16722 0.67866 0.0
C719 C 0.30614 0.15947 0.65823 0.0
C720 C 0.32649 0.14698 0.6595 0.0
C721 C 0.33662 0.14306 0.68137 0.0
C722 C 0.32643 0.15096 0.70155 0.0
H723 H 0.32974 0.20597 0.74708 0.0
H724 H 0.34371 0.18236 0.73699 0.0
H725 H 0.32773 0.1986 0.71669 0.0
H726 H 0.2796 0.17619 0.67751 0.0
H727 H 0.29793 0.16266 0.64159 0.0
H728 H 0.6869 0.1723 0.84967 0.0
H729 H 0.70506 0.18483 0.81325 0.0
H730 H 0.70158 0.1218 0.78521 0.0
H731 H 0.68357 0.10931 0.82102 0.0
H732 H 0.74601 0.14633 0.77668 0.0
H733 H 0.66308 0.18726 0.75204 0.0
H734 H 0.67666 0.19208 0.77991 0.0
H735 H 0.6628 0.1672 0.77433 0.0
C736 C 0.6904 0.16111 0.83583 0.0
C737 C 0.68357 0.13987 0.83806 0.0
C738 C 0.70071 0.16829 0.81509 0.0
C739 C 0.70453 0.15423 0.79657 0.0
C740 C 0.69882 0.13289 0.79933 0.0
H741 H 0.71221 0.10652 0.67215 0.0
H742 H 0.72117 0.12005 0.71072 0.0
C743 C 0.68838 0.1258 0.81977 0.0
C744 C 0.71234 0.16135 0.77331 0.0
H745 H 0.6878 0.17626 0.72177 0.0
C746 C 0.73371 0.15363 0.76475 0.0
C747 C 0.69643 0.17114 0.75784 0.0
C748 C 0.67341 0.17996 0.76632 0.0
C749 C 0.73836 0.15329 0.74076 0.0
C750 C 0.721 0.16042 0.72506 0.0
C751 C 0.70102 0.17061 0.73382 0.0
C752 C 0.72034 0.15295 0.70059 0.0
C753 C 0.76105 0.1438 0.73235 0.0
C754 C 0.71696 0.16692 0.68189 0.0
C755 C 0.71183 0.15912 0.65957 0.0
C756 C 0.70944 0.13729 0.65593 0.0
C757 C 0.71386 0.12342 0.67446 0.0
C758 C 0.71926 0.13115 0.6965 0.0
H759 H 0.77548 0.14721 0.7448 0.0
H760 H 0.75913 0.12641 0.73129 0.0
H761 H 0.76597 0.14988 0.71488 0.0
H762 H 0.71737 0.1838 0.68476 0.0
H763 H 0.70836 0.17014 0.64558 0.0
H764 H 0.29476 0.8332 0.15128 0.0
H765 H 0.28946 0.81933 0.191 0.0
H766 H 0.28998 0.88288 0.21793 0.0
H767 H 0.29517 0.89661 0.17881 0.0
H768 H 0.32249 0.82514 0.22455 0.0
H769 H 0.23931 0.85686 0.25754 0.0
H770 H 0.24544 0.85473 0.22671 0.0
H771 H 0.25498 0.8775 0.24303 0.0
C772 C 0.29301 0.84415 0.16567 0.0
C773 C 0.29555 0.86596 0.16204 0.0
C774 C 0.28999 0.83623 0.1883 0.0
C775 C 0.28893 0.85008 0.20742 0.0
C776 C 0.29011 0.87188 0.20348 0.0
H777 H 0.35846 0.87681 0.32235 0.0
H778 H 0.34251 0.86411 0.28571 0.0
C779 C 0.29338 0.87973 0.18108 0.0
C780 C 0.29071 0.84234 0.23172 0.0
H781 H 0.27207 0.85605 0.2861 0.0
C782 C 0.31097 0.83117 0.23802 0.0
C783 C 0.27549 0.84973 0.24939 0.0
C784 C 0.25246 0.86016 0.24374 0.0
C785 C 0.31796 0.82975 0.26139 0.0
C786 C 0.30449 0.83996 0.27871 0.0
C787 C 0.28267 0.8486 0.27275 0.0
C788 C 0.31484 0.84567 0.3015 0.0
C789 C 0.34063 0.81872 0.26714 0.0
C790 C 0.30433 0.83978 0.32264 0.0
C791 C 0.31351 0.84708 0.34385 0.0
C792 C 0.33298 0.86072 0.34409 0.0
C793 C 0.34343 0.8664 0.32284 0.0
C794 C 0.33446 0.85896 0.30184 0.0
H795 H 0.34412 0.80569 0.25467 0.0
H796 H 0.3553 0.83015 0.26576 0.0
H797 H 0.34039 0.81225 0.28512 0.0
H798 H 0.28896 0.82977 0.32269 0.0
H799 H 0.30504 0.8425 0.35996 0.0
H800 H 0.31584 0.21547 0.93519 0.0
H801 H 0.29625 0.24392 0.95639 0.0
H802 H 0.23998 0.2016 0.97452 0.0
H803 H 0.2597 0.17295 0.95387 0.0
H804 H 0.25355 0.26154 0.94889 0.0
H805 H 0.25627 0.22641 0.03728 0.0
H806 H 0.27322 0.21607 0.01333 0.0
H807 H 0.24265 0.20958 0.0161 0.0
C808 C 0.29938 0.21216 0.94383 0.0
C809 C 0.2894 0.1919 0.94295 0.0
C810 C 0.28819 0.22846 0.95591 0.0
C811 C 0.26684 0.22482 0.96737 0.0
C812 C 0.25673 0.20465 0.96632 0.0
H813 H 0.16722 0.30472 0.04012 0.0
H814 H 0.18688 0.27628 0.01885 0.0
C815 C 0.26797 0.18831 0.95438 0.0
C816 C 0.25481 0.24228 0.97977 0.0
H817 H 0.23239 0.25689 0.03256 0.0
C818 C 0.24906 0.26057 0.96722 0.0
C819 C 0.24896 0.24101 0.0037 0.0
C820 C 0.25579 0.2223 0.01846 0.0
C821 C 0.23728 0.27747 0.97785 0.0
C822 C 0.23123 0.27605 0.00167 0.0
C823 C 0.23696 0.25782 0.01425 0.0
C824 C 0.21921 0.2935 0.01395 0.0
C825 C 0.23104 0.29659 0.96352 0.0
C826 C 0.23097 0.31252 0.01828 0.0
C827 C 0.21987 0.32875 0.03053 0.0
C828 C 0.19676 0.32625 0.03861 0.0
C829 C 0.18498 0.30719 0.03407 0.0
C830 C 0.19618 0.29091 0.02197 0.0
H831 H 0.23292 0.29359 0.94454 0.0
H832 H 0.21276 0.30163 0.96713 0.0
H833 H 0.24283 0.30982 0.96831 0.0
H834 H 0.24885 0.3147 0.01244 0.0
H835 H 0.22945 0.3432 0.03375 0.0
H836 H 0.7893 0.67317 0.55104 0.0
H837 H 0.76638 0.69919 0.52945 0.0
H838 H 0.82883 0.71971 0.49377 0.0
H839 H 0.85187 0.69347 0.51498 0.0
H840 H 0.7709 0.74211 0.52928 0.0
H841 H 0.78345 0.71028 0.44013 0.0
H842 H 0.7906 0.69537 0.46595 0.0
H843 H 0.81041 0.71522 0.45531 0.0
C844 C 0.79817 0.6831 0.53848 0.0
C845 C 0.82243 0.68117 0.53468 0.0
C846 C 0.78503 0.69799 0.52617 0.0
C847 C 0.79582 0.7112 0.50978 0.0
C848 C 0.82004 0.70937 0.50597 0.0
H849 H 0.74048 0.82912 0.45586 0.0
H850 H 0.76202 0.80179 0.47691 0.0
C851 C 0.8332 0.69443 0.51822 0.0
C852 C 0.78184 0.72736 0.49728 0.0
H853 H 0.76614 0.74432 0.44303 0.0
C854 C 0.76977 0.74255 0.51042 0.0
C855 C 0.78015 0.72774 0.47269 0.0
C856 C 0.79164 0.71117 0.45767 0.0
C857 C 0.75635 0.75833 0.49964 0.0
C858 C 0.75535 0.75917 0.47503 0.0
C859 C 0.7671 0.74377 0.46189 0.0
C860 C 0.74209 0.77581 0.46253 0.0
C861 C 0.74305 0.77371 0.51473 0.0
C862 C 0.72407 0.77028 0.44705 0.0
C863 C 0.71186 0.78585 0.43482 0.0
C864 C 0.71749 0.80729 0.43779 0.0
C865 C 0.73557 0.81278 0.4533 0.0
C866 C 0.74783 0.79718 0.46545 0.0
H867 H 0.74032 0.76744 0.5326 0.0
H868 H 0.75324 0.78856 0.51622 0.0
H869 H 0.72571 0.77752 0.50703 0.0
H870 H 0.71942 0.75388 0.44445 0.0
H871 H 0.69807 0.78107 0.42298 0.0
H872 H 0.25955 0.83583 0.03925 0.0
H873 H 0.23787 0.80941 0.01694 0.0
H874 H 0.28013 0.76015 0.04715 0.0
H875 H 0.30174 0.78644 0.06983 0.0
H876 H 0.25489 0.78069 0.98431 0.0
H877 H 0.21331 0.73928 0.05885 0.0
H878 H 0.22697 0.76483 0.06177 0.0
H879 H 0.24464 0.74139 0.06065 0.0
C880 C 0.26421 0.81937 0.04124 0.0
C881 C 0.28232 0.81324 0.05643 0.0
C882 C 0.25179 0.8043 0.02845 0.0
C883 C 0.25714 0.7828 0.03065 0.0
C884 C 0.27538 0.77662 0.04557 0.0
H885 H 0.20267 0.66915 0.96555 0.0
H886 H 0.2243 0.69496 0.98883 0.0
C887 C 0.2878 0.79169 0.05841 0.0
C888 C 0.24398 0.76695 0.01683 0.0
H889 H 0.20841 0.72383 0.02156 0.0
C890 C 0.24465 0.76829 0.99244 0.0
C891 C 0.2307 0.75077 0.0275 0.0
C892 C 0.22863 0.74901 0.05363 0.0
C893 C 0.23266 0.75372 0.97838 0.0
C894 C 0.21927 0.73761 0.98903 0.0
C895 C 0.21867 0.73621 0.01344 0.0
C896 C 0.20578 0.72203 0.97515 0.0
C897 C 0.23487 0.75545 0.95225 0.0
C898 C 0.1879 0.72865 0.96004 0.0
C899 C 0.17555 0.71394 0.94664 0.0
C900 C 0.18071 0.69231 0.94826 0.0
C901 C 0.19828 0.68569 0.96383 0.0
C902 C 0.21066 0.70042 0.97716 0.0
H903 H 0.25049 0.76482 0.94711 0.0
H904 H 0.23609 0.73962 0.94406 0.0
H905 H 0.21913 0.7635 0.9452 0.0
H906 H 0.18347 0.7452 0.95862 0.0
H907 H 0.16201 0.71957 0.93498 0.0
H908 H 0.70939 0.21599 0.58301 0.0
H909 H 0.73009 0.24444 0.5629 0.0
H910 H 0.75106 0.20104 0.50895 0.0
H911 H 0.73032 0.17246 0.52885 0.0
H912 H 0.77884 0.24564 0.55108 0.0
H913 H 0.72147 0.25107 0.47308 0.0
H914 H 0.71241 0.23805 0.49957 0.0
H915 H 0.73206 0.22508 0.47977 0.0
C916 C 0.71828 0.21249 0.56679 0.0
C917 C 0.71813 0.19195 0.5575 0.0
C918 C 0.73013 0.22877 0.55536 0.0
C919 C 0.74187 0.22488 0.53433 0.0
C920 C 0.74178 0.20443 0.52498 0.0
H921 H 0.82273 0.30216 0.43906 0.0
H922 H 0.80253 0.27352 0.45927 0.0
C923 C 0.73 0.1881 0.53644 0.0
C924 C 0.75473 0.24213 0.52251 0.0
H925 H 0.75625 0.2714 0.47264 0.0
C926 C 0.77389 0.25135 0.53397 0.0
C927 C 0.74822 0.24945 0.50017 0.0
C928 C 0.72731 0.24056 0.48744 0.0
C929 C 0.787 0.26751 0.52349 0.0
C930 C 0.78044 0.27493 0.50118 0.0
C931 C 0.76126 0.26568 0.48973 0.0
C932 C 0.79319 0.29228 0.48935 0.0
C933 C 0.80809 0.27614 0.53618 0.0
C934 C 0.79452 0.3124 0.4995 0.0
C935 C 0.80615 0.32881 0.48804 0.0
C936 C 0.81648 0.32546 0.4661 0.0
C937 C 0.81502 0.30529 0.45595 0.0
C938 C 0.80345 0.28889 0.46746 0.0
H939 H 0.81446 0.26504 0.54975 0.0
H940 H 0.82266 0.27946 0.52391 0.0
H941 H 0.80322 0.29111 0.54494 0.0
H942 H 0.78629 0.31549 0.51614 0.0
H943 H 0.8068 0.34417 0.49628 0.0
H944 H 0.7064 0.822 0.05229 0.0
H945 H 0.72588 0.79334 0.03141 0.0
H946 H 0.66401 0.78403 0.98953 0.0
H947 H 0.64447 0.81291 0.01007 0.0
H948 H 0.71238 0.75163 0.02886 0.0
H949 H 0.71557 0.78703 0.94053 0.0
H950 H 0.70926 0.80234 0.9663 0.0
H951 H 0.68678 0.78646 0.95311 0.0
C952 C 0.69696 0.814 0.0385 0.0
C953 C 0.67387 0.81981 0.03281 0.0
C954 C 0.70814 0.79759 0.02661 0.0
C955 C 0.69652 0.78673 0.00871 0.0
C956 C 0.67349 0.79249 0.00294 0.0
H957 H 0.7292 0.67804 0.92307 0.0
H958 H 0.71086 0.70791 0.94293 0.0
C959 C 0.6623 0.80894 0.0148 0.0
C960 C 0.70821 0.76881 0.99677 0.0
H961 H 0.72584 0.75079 0.94348 0.0
C962 C 0.71546 0.75149 0.01021 0.0
C963 C 0.71218 0.76866 0.97244 0.0
C964 C 0.70575 0.78719 0.95725 0.0
C965 C 0.72617 0.73386 -8e-05 0.0
C966 C 0.73002 0.73367 0.97558 0.0
C967 C 0.72282 0.75098 0.96214 0.0
C968 C 0.74131 0.71555 0.9637 0.0
C969 C 0.73279 0.71536 0.01508 0.0
C970 C 0.76462 0.71007 0.96865 0.0
C971 C 0.77519 0.693 0.95732 0.0
C972 C 0.76265 0.68113 0.94077 0.0
C973 C 0.73935 0.68678 0.93577 0.0
C974 C 0.72883 0.70388 0.94706 0.0
H975 H 0.72381 0.7159 0.03225 0.0
H976 H 0.7284 0.70023 0.00637 0.0
H977 H 0.75196 0.71564 0.01824 0.0
H978 H 0.77468 0.7191 0.98116 0.0
H979 H 0.79319 0.68915 0.9615 0.0
H980 H 0.29725 0.18737 0.56287 0.0
H981 H 0.27591 0.21622 0.54435 0.0
H982 H 0.32181 0.21265 0.48482 0.0
H983 H 0.34319 0.18356 0.50312 0.0
H984 H 0.29379 0.25537 0.53023 0.0
H985 H 0.25612 0.21108 0.45554 0.0
H986 H 0.26837 0.1981 0.48074 0.0
H987 H 0.28733 0.20883 0.45874 0.0
C988 C 0.30277 0.1926 0.54577 0.0
C989 C 0.32192 0.18308 0.53444 0.0
C990 C 0.29055 0.20912 0.53523 0.0
C991 C 0.29709 0.2164 0.51311 0.0
C992 C 0.3162 0.207 0.50173 0.0
H993 H 0.24488 0.31657 0.42391 0.0
H994 H 0.26668 0.28734 0.44126 0.0
C995 C 0.32847 0.19045 0.51227 0.0
C996 C 0.2843 0.23428 0.50237 0.0
H997 H 0.25052 0.24809 0.4557 0.0
C998 C 0.28427 0.25378 0.51397 0.0
C999 C 0.27196 0.23216 0.48113 0.0
C1000 C 0.2707 0.21139 0.46835 0.0
C1001 C 0.27245 0.27131 0.50475 0.0
C1002 C 0.25996 0.26916 0.48359 0.0
C1003 C 0.26009 0.24969 0.47193 0.0
C1004 C 0.24665 0.28693 0.47324 0.0
C1005 C 0.27384 0.29209 0.51753 0.0
C1006 C 0.22796 0.29624 0.48537 0.0
C1007 C 0.21548 0.31302 0.47554 0.0
C1008 C 0.22136 0.32068 0.4533 0.0
C1009 C 0.23992 0.31111 0.4411 0.0
C1010 C 0.25239 0.29438 0.45096 0.0
H1011 H 0.28892 0.29255 0.52976 0.0
H1012 H 0.27547 0.30545 0.50513 0.0
H1013 H 0.25759 0.29437 0.52783 0.0
H1014 H 0.2229 0.29045 0.50238 0.0
H1015 H 0.2012 0.31991 0.48534 0.0
H1016 H 0.75906 0.33074 0.03782 0.0
H1017 H 0.73819 0.30269 0.01713 0.0
H1018 H 0.77008 0.25622 0.06182 0.0
H1019 H 0.79122 0.28408 0.08246 0.0
H1020 H 0.77144 0.24544 0.01468 0.0
H1021 H 0.68185 0.26914 0.04175 0.0
H1022 H 0.69862 0.2898 0.02834 0.0
H1023 H 0.70789 0.2791 0.05582 0.0
C1024 C 0.76164 0.31456 0.04328 0.0
C1025 C 0.77675 0.30967 0.06188 0.0
C1026 C 0.74957 0.29856 0.03151 0.0
C1027 C 0.7523 0.27741 0.03818 0.0
C1028 C 0.76763 0.27245 0.05648 0.0
H1029 H 0.66552 0.17049 0.99805 0.0
H1030 H 0.68642 0.19827 0.01922 0.0
C1031 C 0.77969 0.28842 0.06827 0.0
C1032 C 0.73949 0.26037 0.02586 0.0
H1033 H 0.6846 0.24224 0.01307 0.0
C1034 C 0.75246 0.24471 0.01435 0.0
C1035 C 0.71472 0.2593 0.02573 0.0
C1036 C 0.6999 0.2751 0.03874 0.0
C1037 C 0.74132 0.22818 0.00238 0.0
C1038 C 0.71656 0.22748 0.00164 0.0
C1039 C 0.70358 0.24293 0.01349 0.0
C1040 C 0.70379 0.21078 0.98872 0.0
C1041 C 0.75617 0.21145 0.99092 0.0
C1042 C 0.70637 0.20882 0.96451 0.0
C1043 C 0.69448 0.19298 0.95237 0.0
C1044 C 0.67966 0.17884 0.96419 0.0
C1045 C 0.67684 0.18106 0.98841 0.0
C1046 C 0.68875 0.19693 0.00054 0.0
H1047 H 0.77427 0.21123 0.99805 0.0
H1048 H 0.74829 0.19557 0.99322 0.0
H1049 H 0.75732 0.21472 0.97197 0.0
H1050 H 0.71754 0.2196 0.95498 0.0
H1051 H 0.69696 0.19181 0.9337 0.0
H1052 H 0.19306 0.71524 0.56567 0.0
H1053 H 0.21534 0.74294 0.54597 0.0
H1054 H 0.26608 0.69688 0.52336 0.0
H1055 H 0.24368 0.66903 0.54256 0.0
H1056 H 0.26012 0.75613 0.55341 0.0
H1057 H 0.25075 0.72679 0.4629 0.0
H1058 H 0.2333 0.71678 0.48665 0.0
H1059 H 0.2628 0.70754 0.48241 0.0
C1060 C 0.20888 0.71096 0.55638 0.0
C1061 C 0.21651 0.68988 0.55558 0.0
C1062 C 0.22161 0.72683 0.54515 0.0
C1063 C 0.24218 0.72195 0.53288 0.0
C1064 C 0.24996 0.70096 0.53224 0.0
H1065 H 0.35121 0.8107 0.49237 0.0
H1066 H 0.32776 0.78335 0.51133 0.0
C1067 C 0.23719 0.68506 0.54336 0.0
C1068 C 0.25584 0.73891 0.52134 0.0
H1069 H 0.2784 0.75436 0.46895 0.0
C1070 C 0.26404 0.7558 0.53492 0.0
C1071 C 0.26068 0.73861 0.49716 0.0
C1072 C 0.25123 0.72158 0.48137 0.0
C1073 C 0.27726 0.77221 0.52507 0.0
C1074 C 0.28285 0.77149 0.50106 0.0
C1075 C 0.27433 0.75478 0.48741 0.0
C1076 C 0.29717 0.78808 0.48964 0.0
C1077 C 0.28471 0.79036 0.5404 0.0
C1078 C 0.28803 0.79944 0.47075 0.0
C1079 C 0.30147 0.81492 0.45971 0.0
C1080 C 0.32439 0.81933 0.46734 0.0
C1081 C 0.33357 0.80782 0.48618 0.0
C1082 C 0.32013 0.79226 0.49713 0.0
H1083 H 0.2737 0.79151 0.55631 0.0
H1084 H 0.30312 0.7879 0.546 0.0
H1085 H 0.28372 0.80557 0.53087 0.0
H1086 H 0.27039 0.79641 0.4646 0.0
H1087 H 0.29385 0.82346 0.44524 0.0
H1088 H 0.17865 0.59134 0.97002 0.0
H1089 H 0.1879 0.56233 0.99677 0.0
H1090 H 0.1749 0.51738 0.94188 0.0
H1091 H 0.16568 0.54606 0.91517 0.0
H1092 H 0.1542 0.53074 0.00701 0.0
H1093 H 0.23573 0.49527 0.97214 0.0
H1094 H 0.22667 0.52188 0.96531 0.0
H1095 H 0.2136 0.49984 0.95048 0.0
C1096 C 0.17823 0.5753 0.96355 0.0
C1097 C 0.17128 0.57099 0.94053 0.0
C1098 C 0.18354 0.55877 0.97883 0.0
C1099 C 0.18238 0.53775 0.9712 0.0
C1100 C 0.17637 0.53349 0.948 0.0
H1101 H 0.16802 0.41274 0.02455 0.0
H1102 H 0.17713 0.44415 0.00136 0.0
C1103 C 0.17087 0.54993 0.93282 0.0
C1104 C 0.18443 0.52012 0.98796 0.0
H1105 H 0.21308 0.47373 0.99809 0.0
C1106 C 0.16733 0.51845 0.00538 0.0
C1107 C 0.2014 0.50403 0.98552 0.0
C1108 C 0.22053 0.50537 0.96748 0.0
C1109 C 0.16604 0.50066 0.01979 0.0
C1110 C 0.18279 0.48434 0.01715 0.0
C1111 C 0.20032 0.48627 0.00012 0.0
C1112 C 0.18143 0.46474 0.03116 0.0
C1113 C 0.14597 0.49905 0.03686 0.0
C1114 C 0.18201 0.46568 0.05556 0.0
C1115 C 0.17647 0.4479 0.06878 0.0
C1116 C 0.17077 0.42873 0.05783 0.0
C1117 C 0.17229 0.42732 0.03345 0.0
C1118 C 0.17747 0.44524 0.02019 0.0
H1119 H 0.1316 0.51021 0.03258 0.0
H1120 H 0.13865 0.48283 0.03719 0.0
H1121 H 0.15239 0.50293 0.0546 0.0
H1122 H 0.18567 0.48042 0.06438 0.0
H1123 H 0.1758 0.44937 0.08757 0.0
H1124 H 0.86806 0.55033 0.5729 0.0
H1125 H 0.86081 0.5205 0.54729 0.0
H1126 H 0.7997 0.55177 0.51957 0.0
H1127 H 0.80765 0.58239 0.54458 0.0
H1128 H 0.82642 0.49356 0.5438 0.0
H1129 H 0.83291 0.53797 0.46054 0.0
H1130 H 0.8403 0.54969 0.48817 0.0
H1131 H 0.81011 0.54676 0.47974 0.0
C1132 C 0.85307 0.55093 0.56135 0.0
C1133 C 0.83851 0.56879 0.56064 0.0
C1134 C 0.84889 0.53379 0.54673 0.0
C1135 C 0.82987 0.53392 0.53123 0.0
C1136 C 0.81483 0.55149 0.53092 0.0
H1137 H 0.81345 0.41218 0.45607 0.0
H1138 H 0.80351 0.44201 0.48155 0.0
C1139 C 0.81931 0.56893 0.5453 0.0
C1140 C 0.82653 0.51564 0.51531 0.0
H1141 H 0.82689 0.5015 0.45793 0.0
C1142 C 0.82634 0.49528 0.525 0.0
C1143 C 0.82641 0.5179 0.49078 0.0
C1144 C 0.82764 0.53922 0.47913 0.0
C1145 C 0.82753 0.47717 0.51094 0.0
C1146 C 0.82794 0.47945 0.48642 0.0
C1147 C 0.8266 0.49977 0.47673 0.0
C1148 C 0.83273 0.46142 0.47054 0.0
C1149 C 0.82988 0.45594 0.5226 0.0
C1150 C 0.85193 0.46262 0.45534 0.0
C1151 C 0.85723 0.44593 0.44046 0.0
C1152 C 0.84365 0.42745 0.4406 0.0
C1153 C 0.82436 0.42615 0.45577 0.0
C1154 C 0.81876 0.44314 0.47042 0.0
H1155 H 0.8347 0.45743 0.54129 0.0
H1156 H 0.81288 0.44751 0.52163 0.0
H1157 H 0.84336 0.44615 0.51379 0.0
H1158 H 0.86306 0.47646 0.45513 0.0
H1159 H 0.87227 0.44742 0.42907 0.0
H1160 H 0.7914 0.45779 0.08669 0.0
H1161 H 0.78127 0.48624 0.06006 0.0
H1162 H 0.76684 0.44086 0.00594 0.0
H1163 H 0.7771 0.41207 0.03263 0.0
H1164 H 0.80012 0.47157 0.99427 0.0
H1165 H 0.72085 0.50936 0.03108 0.0
H1166 H 0.74356 0.50507 0.05219 0.0
H1167 H 0.72965 0.48282 0.03852 0.0
C1168 C 0.78564 0.45377 0.06926 0.0
C1169 C 0.78524 0.43265 0.06171 0.0
C1170 C 0.77961 0.47009 0.05412 0.0
C1171 C 0.77301 0.46567 0.03112 0.0
C1172 C 0.77166 0.44457 0.02374 0.0
H1173 H 0.77779 0.55083 0.91237 0.0
H1174 H 0.76709 0.52116 0.93733 0.0
C1175 C 0.77753 0.42815 0.03898 0.0
C1176 C 0.7709 0.48318 0.01417 0.0
H1177 H 0.74342 0.53022 0.00425 0.0
C1178 C 0.78743 0.4842 0.99615 0.0
C1179 C 0.75457 0.49977 0.01694 0.0
C1180 C 0.73601 0.49916 0.03561 0.0
C1181 C 0.78876 0.50176 0.98141 0.0
C1182 C 0.77263 0.51854 0.98432 0.0
C1183 C 0.75571 0.51733 0.00202 0.0
C1184 C 0.77392 0.53771 0.96959 0.0
C1185 C 0.80821 0.50259 0.96357 0.0
C1186 C 0.77955 0.55734 0.97951 0.0
C1187 C 0.78519 0.57453 0.96524 0.0
C1188 C 0.7855 0.57215 0.94091 0.0
C1189 C 0.77799 0.55299 0.9311 0.0
C1190 C 0.77198 0.53601 0.94532 0.0
H1191 H 0.8224 0.49115 0.96754 0.0
H1192 H 0.801 0.49857 0.94617 0.0
H1193 H 0.81598 0.51862 0.96261 0.0
H1194 H 0.78098 0.559 0.99825 0.0
H1195 H 0.79096 0.58912 0.97322 0.0
H1196 H 0.21608 0.45697 0.41086 0.0
H1197 H 0.22716 0.48411 0.43877 0.0
H1198 H 0.23587 0.43674 0.49195 0.0
H1199 H 0.22458 0.40928 0.46397 0.0
H1200 H 0.20394 0.46811 0.50307 0.0
H1201 H 0.28632 0.5044 0.47187 0.0
H1202 H 0.26472 0.50179 0.44934 0.0
H1203 H 0.27678 0.47852 0.46267 0.0
C1204 C 0.22089 0.45221 0.42835 0.0
C1205 C 0.21923 0.43098 0.43528 0.0
C1206 C 0.22747 0.46777 0.44423 0.0
C1207 C 0.2326 0.46245 0.46738 0.0
C1208 C 0.2322 0.44114 0.47408 0.0
H1209 H 0.22313 0.54621 0.58746 0.0
H1210 H 0.23476 0.51653 0.56289 0.0
C1211 C 0.22576 0.42547 0.45809 0.0
C1212 C 0.23451 0.47941 0.48506 0.0
H1213 H 0.26262 0.52564 0.49759 0.0
C1214 C 0.21707 0.48046 0.50221 0.0
C1215 C 0.25144 0.49566 0.48363 0.0
C1216 C 0.27101 0.49497 0.466 0.0
C1217 C 0.21537 0.49779 0.51728 0.0
C1218 C 0.23203 0.51428 0.5156 0.0
C1219 C 0.24991 0.51298 0.49887 0.0
C1220 C 0.23021 0.53336 0.53044 0.0
C1221 C 0.19498 0.49874 0.53403 0.0
C1222 C 0.22552 0.55312 0.52039 0.0
C1223 C 0.21932 0.5703 0.53446 0.0
C1224 C 0.21751 0.5678 0.55871 0.0
C1225 C 0.22407 0.54847 0.56877 0.0
C1226 C 0.23063 0.53149 0.55477 0.0
H1227 H 0.18083 0.48754 0.52914 0.0
H1228 H 0.20113 0.49449 0.55175 0.0
H1229 H 0.18744 0.51487 0.53474 0.0
H1230 H 0.22525 0.55492 0.50162 0.0
H1231 H 0.21434 0.58502 0.52627 0.0
H1232 H 0.67374 0.09381 0.96871 0.0
H1233 H 0.68176 0.06513 0.99632 0.0
H1234 H 0.67452 0.01966 0.9409 0.0
H1235 H 0.66649 0.04801 0.91337 0.0
H1236 H 0.64797 0.03216 0.00372 0.0
H1237 H 0.73393 0.99981 0.97619 0.0
H1238 H 0.72444 0.02617 0.96883 0.0
H1239 H 0.71345 0.0039 0.95285 0.0
C1240 C 0.67436 0.07774 0.96235 0.0
C1241 C 0.66934 0.07316 0.9389 0.0
C1242 C 0.67893 0.06139 0.97812 0.0
C1243 C 0.67899 0.04031 0.97057 0.0
C1244 C 0.67498 0.03583 0.947 0.0
H1245 H 0.67088 0.91513 0.02869 0.0
H1246 H 0.67715 0.94615 0.00386 0.0
C1247 C 0.67019 0.05207 0.93133 0.0
C1248 C 0.68033 0.02279 0.98756 0.0
H1249 H 0.71071 0.97804 0.00114 0.0
C1250 C 0.66187 0.02049 0.00344 0.0
C1251 C 0.6983 0.00745 0.98682 0.0
C1252 C 0.71878 0.00948 0.97039 0.0
C1253 C 0.66042 0.00288 0.01813 0.0
C1254 C 0.67833 0.98742 0.01737 0.0
C1255 C 0.69703 0.9899 0.00172 0.0
C1256 C 0.67751 0.96844 0.03244 0.0
C1257 C 0.63915 1.00058 0.03358 0.0
C1258 C 0.67659 0.97062 0.05673 0.0
C1259 C 0.67271 0.95306 0.07083 0.0
C1260 C 0.67015 0.93288 0.06097 0.0
C1261 C 0.67273 0.93048 0.03676 0.0
C1262 C 0.6763 0.94818 0.02258 0.0
H1263 H 0.62435 0.01052 0.02749 0.0
H1264 H 0.63317 0.98393 0.03428 0.0
H1265 H 0.6437 0.00566 0.05152 0.0
H1266 H 0.67815 0.98602 0.06475 0.0
H1267 H 0.6712 0.95537 0.08947 0.0
H1268 H 0.32177 0.91094 0.47434 0.0
H1269 H 0.31149 0.93974 0.50096 0.0
H1270 H 0.31913 0.98451 0.44496 0.0
H1271 H 0.32931 0.95598 0.41834 0.0
H1272 H 0.34425 0.97206 0.50904 0.0
H1273 H 0.25997 0.0056 0.47862 0.0
H1274 H 0.26947 0.97926 0.47112 0.0
H1275 H 0.28107 0.00167 0.45581 0.0
C1276 C 0.32062 0.92684 0.46756 0.0
C1277 C 0.32655 0.9312 0.44428 0.0
C1278 C 0.31476 0.94327 0.48279 0.0
C1279 C 0.31434 0.96423 0.47488 0.0
C1280 C 0.3189 0.96843 0.45135 0.0
H1281 H 0.32711 0.08952 0.53032 0.0
H1282 H 0.31848 0.05839 0.50636 0.0
C1283 C 0.32493 0.95209 0.43619 0.0
C1284 C 0.31272 0.98194 0.49165 0.0
H1285 H 0.28324 0.02758 0.5036 0.0
C1286 C 0.33068 0.98401 0.50816 0.0
C1287 C 0.29521 0.99765 0.49015 0.0
C1288 C 0.27521 0.9959 0.4731 0.0
C1289 C 0.33216 0.00176 0.52263 0.0
C1290 C 0.31476 0.01763 0.52105 0.0
C1291 C 0.2965 0.01538 0.50484 0.0
C1292 C 0.31597 0.03695 0.53558 0.0
C1293 C 0.353 0.00378 0.53872 0.0
C1294 C 0.3163 0.03538 0.55995 0.0
C1295 C 0.32155 0.05298 0.57357 0.0
C1296 C 0.32606 0.07261 0.56312 0.0
C1297 C 0.32374 0.07458 0.53884 0.0
C1298 C 0.31883 0.05682 0.52515 0.0
H1299 H 0.36757 0.99318 0.53346 0.0
H1300 H 0.35966 0.02023 0.53907 0.0
H1301 H 0.34766 0.99939 0.55665 0.0
H1302 H 0.31352 0.02031 0.56839 0.0
H1303 H 0.32286 0.05106 0.59228 0.0
H1304 H 0.27537 0.95606 0.09079 0.0
H1305 H 0.263 0.98543 0.06625 0.0
H1306 H 0.27154 0.94649 0.00516 0.0
H1307 H 0.28316 0.91677 0.02982 0.0
H1308 H 0.29347 0.00195 0.037 0.0
H1309 H 0.21432 0.97989 0.98708 0.0
H1310 H 0.22359 0.96568 0.01275 0.0
H1311 H 0.23686 0.96029 0.98492 0.0
C1312 C 0.27388 0.95357 0.07218 0.0
C1313 C 0.28039 0.93422 0.06216 0.0
C1314 C 0.26678 0.97036 0.05817 0.0
C1315 C 0.26628 0.9682 0.03385 0.0
C1316 C 0.27128 0.94844 0.0239 0.0
H1317 H 0.29108 0.04352 0.91616 0.0
H1318 H 0.27896 0.01681 0.94412 0.0
C1319 C 0.27805 0.93147 0.03799 0.0
C1320 C 0.26457 0.98732 0.01904 0.0
H1321 H 0.23795 0.00798 0.9709 0.0
C1322 C 0.28096 0.00348 0.02287 0.0
C1323 C 0.24837 0.98924 0.00052 0.0
C1324 C 0.22964 0.97293 0.99621 0.0
C1325 C 0.28241 0.02097 0.00806 0.0
C1326 C 0.26677 0.02255 0.98904 0.0
C1327 C 0.24982 0.00678 0.9856 0.0
C1328 C 0.26979 0.03911 0.97113 0.0
C1329 C 0.30159 0.03698 0.01212 0.0
C1330 C 0.26779 0.06061 0.97674 0.0
C1331 C 0.2749 0.07604 0.96079 0.0
C1332 C 0.28405 0.07014 0.93899 0.0
C1333 C 0.28441 0.04863 0.93291 0.0
C1334 C 0.27734 0.0333 0.94881 0.0
H1335 H 0.31466 0.03146 0.0251 0.0
H1336 H 0.31087 0.04059 0.9956 0.0
H1337 H 0.29375 0.05183 0.01872 0.0
H1338 H 0.26169 0.0654 0.99381 0.0
H1339 H 0.27422 0.09246 0.96593 0.0
H1340 H 0.71956 0.047 0.58299 0.0
H1341 H 0.72969 0.01738 0.55778 0.0
H1342 H 0.72029 0.05691 0.49733 0.0
H1343 H 0.71093 0.08688 0.52266 0.0
H1344 H 0.69825 0.00135 0.52922 0.0
H1345 H 0.77646 0.02295 0.47751 0.0
H1346 H 0.76796 0.03715 0.50345 0.0
H1347 H 0.75392 0.04262 0.47602 0.0
C1348 C 0.72033 0.04953 0.56434 0.0
C1349 C 0.71433 0.06918 0.55474 0.0
C1350 C 0.72613 0.0326 0.54995 0.0
C1351 C 0.72582 0.03487 0.52564 0.0
C1352 C 0.72116 0.05484 0.51603 0.0
H1353 H 0.70062 0.9551 0.40967 0.0
H1354 H 0.71078 0.98347 0.43651 0.0
C1355 C 0.7157 0.07196 0.5305 0.0
C1356 C 0.72686 0.0158 0.51064 0.0
H1357 H 0.7529 0.99445 0.4625 0.0
C1358 C 0.71052 0.99969 0.5149 0.0
C1359 C 0.74275 0.01368 0.49187 0.0
C1360 C 0.76141 0.02994 0.48706 0.0
C1361 C 0.70902 0.98192 0.50046 0.0
C1362 C 0.72448 0.98005 0.48134 0.0
C1363 C 0.74117 0.9959 0.47728 0.0
C1364 C 0.72188 0.96271 0.46425 0.0
C1365 C 0.69018 0.96575 0.50516 0.0
C1366 C 0.72546 0.9416 0.47074 0.0
C1367 C 0.71958 0.92523 0.45541 0.0
C1368 C 0.71001 0.92979 0.4334 0.0
C1369 C 0.70771 0.951 0.42658 0.0
C1370 C 0.71364 0.96729 0.44184 0.0
H1371 H 0.67719 0.97137 0.51817 0.0
H1372 H 0.68077 0.96166 0.48883 0.0
H1373 H 0.69836 0.95114 0.512 0.0
H1374 H 0.73204 0.93779 0.48793 0.0
H1375 H 0.72169 0.90908 0.46115 0.0
loop_
_geom_bond_atom_site_label_1
_geom_bond_atom_site_label_2
_geom_bond_distance
_geom_bond_site_symmetry_2
_ccdc_geom_bond_type
Zn0 O3 2.031 . S
Zn0 O5 2.049 . S
Zn0 O10 2.067 . S
Zn1 O2 1.962 . S
Zn1 O4 1.986 . S
Zn1 O6 1.996 . S
Zn1 O9 1.943 . S
O2 Zn1 1.962 . S
O2 C7 1.254 . S
O3 Zn0 2.031 . S
O3 C7 1.269 . S
O4 Zn1 1.986 . S
O4 C11 1.262 . S
O5 Zn0 2.049 . S
O5 C13 1.260 . S
O6 Zn1 1.996 . S
O6 C13 1.257 . S
C7 O2 1.254 . S
C7 O3 1.269 . S
C8 O9 1.249 . S
C8 O10 1.270 . S
O9 Zn1 1.943 . S
O9 C8 1.249 . S
O10 Zn0 2.067 . S
O10 C8 1.270 . S
C11 O4 1.262 . S
C11 O12 1.232 . S
O12 C11 1.232 . S
C13 O5 1.260 . S
C13 O6 1.257 . S
Zn14 O17 2.031 . S
Zn14 O19 2.049 . S
Zn14 O24 2.067 . S
Zn15 O16 1.962 . S
Zn15 O18 1.986 . S
Zn15 O20 1.996 . S
Zn15 O23 1.943 . S
O16 Zn15 1.962 . S
O16 C21 1.254 . S
O17 Zn14 2.031 . S
O17 C21 1.269 . S
O18 Zn15 1.986 . S
O18 C25 1.262 . S
O19 Zn14 2.049 . S
O19 C27 1.260 . S
O20 Zn15 1.996 . S
O20 C27 1.257 . S
C21 O16 1.254 . S
C21 O17 1.269 . S
C22 O23 1.249 . S
C22 O24 1.270 . S
O23 Zn15 1.943 . S
O23 C22 1.249 . S
O24 Zn14 2.067 . S
O24 C22 1.270 . S
C25 O18 1.262 . S
C25 O26 1.232 . S
O26 C25 1.232 . S
C27 O19 1.260 . S
C27 O20 1.257 . S
Zn28 O31 2.031 . S
Zn28 O33 2.049 . S
Zn28 O38 2.067 . S
Zn29 O30 1.962 . S
Zn29 O32 1.986 . S
Zn29 O34 1.996 . S
Zn29 O37 1.943 . S
O30 Zn29 1.962 . S
O30 C35 1.254 . S
O31 Zn28 2.031 . S
O31 C35 1.269 . S
O32 Zn29 1.986 . S
O32 C39 1.262 . S
O33 Zn28 2.049 . S
O33 C41 1.260 . S
O34 Zn29 1.996 . S
O34 C41 1.257 . S
C35 O30 1.254 . S
C35 O31 1.269 . S
C36 O37 1.249 . S
C36 O38 1.270 . S
O37 Zn29 1.943 . S
O37 C36 1.249 . S
O38 Zn28 2.067 . S
O38 C36 1.270 . S
C39 O32 1.262 . S
C39 O40 1.232 . S
O40 C39 1.232 . S
C41 O33 1.260 . S
C41 O34 1.257 . S
Zn42 O45 2.031 . S
Zn42 O47 2.049 . S
Zn42 O52 2.067 . S
Zn43 O44 1.962 . S
Zn43 O46 1.986 . S
Zn43 O48 1.996 . S
Zn43 O51 1.943 . S
O44 Zn43 1.962 . S
O44 C49 1.254 . S
O45 Zn42 2.031 . S
O45 C49 1.269 . S
O46 Zn43 1.986 . S
O46 C53 1.262 . S
O47 Zn42 2.049 . S
O47 C55 1.260 . S
O48 Zn43 1.996 . S
O48 C55 1.257 . S
C49 O44 1.254 . S
C49 O45 1.269 . S
C50 O51 1.249 . S
C50 O52 1.270 . S
O51 Zn43 1.943 . S
O51 C50 1.249 . S
O52 Zn42 2.067 . S
O52 C50 1.270 . S
C53 O46 1.262 . S
C53 O54 1.232 . S
O54 C53 1.232 . S
C55 O47 1.260 . S
C55 O48 1.257 . S
Zn56 O59 2.031 . S
Zn56 O61 2.049 . S
Zn56 O66 2.067 . S
Zn57 O58 1.962 . S
Zn57 O60 1.986 . S
Zn57 O62 1.996 . S
Zn57 O65 1.943 . S
O58 Zn57 1.962 . S
O58 C63 1.254 . S
O59 Zn56 2.031 . S
O59 C63 1.269 . S
O60 Zn57 1.986 . S
O60 C67 1.262 . S
O61 Zn56 2.049 . S
O61 C69 1.260 . S
O62 Zn57 1.996 . S
O62 C69 1.257 . S
C63 O58 1.254 . S
C63 O59 1.269 . S
C64 O65 1.249 . S
C64 O66 1.270 . S
O65 Zn57 1.943 . S
O65 C64 1.249 . S
O66 Zn56 2.067 . S
O66 C64 1.270 . S
C67 O60 1.262 . S
C67 O68 1.232 . S
O68 C67 1.232 . S
C69 O61 1.260 . S
C69 O62 1.257 . S
Zn70 O73 2.031 . S
Zn70 O75 2.049 . S
Zn70 O80 2.067 . S
Zn71 O72 1.962 . S
Zn71 O74 1.986 . S
Zn71 O76 1.996 . S
Zn71 O79 1.943 . S
O72 Zn71 1.962 . S
O72 C77 1.254 . S
O73 Zn70 2.031 . S
O73 C77 1.269 . S
O74 Zn71 1.986 . S
O74 C81 1.262 . S
O75 Zn70 2.049 . S
O75 C83 1.260 . S
O76 Zn71 1.996 . S
O76 C83 1.257 . S
C77 O72 1.254 . S
C77 O73 1.269 . S
C78 O79 1.249 . S
C78 O80 1.270 . S
O79 Zn71 1.943 . S
O79 C78 1.249 . S
O80 Zn70 2.067 . S
O80 C78 1.270 . S
C81 O74 1.262 . S
C81 O82 1.232 . S
O82 C81 1.232 . S
C83 O75 1.260 . S
C83 O76 1.257 . S
Zn84 O87 2.031 . S
Zn84 O89 2.049 . S
Zn84 O94 2.067 . S
Zn85 O86 1.962 . S
Zn85 O88 1.986 . S
Zn85 O90 1.996 . S
Zn85 O93 1.943 . S
O86 Zn85 1.962 . S
O86 C91 1.254 . S
O87 Zn84 2.031 . S
O87 C91 1.269 . S
O88 Zn85 1.986 . S
O88 C95 1.262 . S
O89 Zn84 2.049 . S
O89 C97 1.260 . S
O90 Zn85 1.996 . S
O90 C97 1.257 . S
C91 O86 1.254 . S
C91 O87 1.269 . S
C92 O93 1.249 . S
C92 O94 1.270 . S
O93 Zn85 1.943 . S
O93 C92 1.249 . S
O94 Zn84 2.067 . S
O94 C92 1.270 . S
C95 O88 1.262 . S
C95 O96 1.232 . S
O96 C95 1.232 . S
C97 O89 1.260 . S
C97 O90 1.257 . S
Zn98 O101 2.031 . S
Zn98 O103 2.049 . S
Zn98 O108 2.067 . S
Zn99 O100 1.962 . S
Zn99 O102 1.986 . S
Zn99 O104 1.996 . S
Zn99 O107 1.943 . S
O100 Zn99 1.962 . S
O100 C105 1.254 . S
O101 Zn98 2.031 . S
O101 C105 1.269 . S
O102 Zn99 1.986 . S
O102 C109 1.262 . S
O103 Zn98 2.049 . S
O103 C111 1.260 . S
O104 Zn99 1.996 . S
O104 C111 1.257 . S
C105 O100 1.254 . S
C105 O101 1.269 . S
C106 O107 1.249 . S
C106 O108 1.270 . S
O107 Zn99 1.943 . S
O107 C106 1.249 . S
O108 Zn98 2.067 . S
O108 C106 1.270 . S
C109 O102 1.262 . S
C109 O110 1.232 . S
O110 C109 1.232 . S
C111 O103 1.260 . S
C111 O104 1.257 . S
Zn112 O115 2.031 . S
Zn112 O117 2.049 . S
Zn112 O122 2.067 . S
Zn113 O114 1.962 . S
Zn113 O116 1.986 . S
Zn113 O118 1.996 . S
Zn113 O121 1.943 . S
O114 Zn113 1.962 . S
O114 C119 1.254 . S
O115 Zn112 2.031 . S
O115 C119 1.269 . S
O116 Zn113 1.986 . S
O116 C123 1.262 . S
O117 Zn112 2.049 . S
O117 C125 1.260 . S
O118 Zn113 1.996 . S
O118 C125 1.257 . S
C119 O114 1.254 . S
C119 O115 1.269 . S
C120 O121 1.249 . S
C120 O122 1.270 . S
O121 Zn113 1.943 . S
O121 C120 1.249 . S
O122 Zn112 2.067 . S
O122 C120 1.270 . S
C123 O116 1.262 . S
C123 O124 1.232 . S
O124 C123 1.232 . S
C125 O117 1.260 . S
C125 O118 1.257 . S
Zn126 O129 2.031 . S
Zn126 O131 2.049 . S
Zn126 O136 2.067 . S
Zn127 O128 1.962 . S
Zn127 O130 1.986 . S
Zn127 O132 1.996 . S
Zn127 O135 1.943 . S
O128 Zn127 1.962 . S
O128 C133 1.254 . S
O129 Zn126 2.031 . S
O129 C133 1.269 . S
O130 Zn127 1.986 . S
O130 C137 1.262 . S
O131 Zn126 2.049 . S
O131 C139 1.260 . S
O132 Zn127 1.996 . S
O132 C139 1.257 . S
C133 O128 1.254 . S
C133 O129 1.269 . S
C134 O135 1.249 . S
C134 O136 1.270 . S
O135 Zn127 1.943 . S
O135 C134 1.249 . S
O136 Zn126 2.067 . S
O136 C134 1.270 . S
C137 O130 1.262 . S
C137 O138 1.232 . S
O138 C137 1.232 . S
C139 O131 1.260 . S
C139 O132 1.257 . S
Zn140 O143 2.031 . S
Zn140 O145 2.049 . S
Zn140 O150 2.067 . S
Zn141 O142 1.962 . S
Zn141 O144 1.986 . S
Zn141 O146 1.996 . S
Zn141 O149 1.943 . S
O142 Zn141 1.962 . S
O142 C147 1.254 . S
O143 Zn140 2.031 . S
O143 C147 1.269 . S
O144 Zn141 1.986 . S
O144 C151 1.262 . S
O145 Zn140 2.049 . S
O145 C153 1.260 . S
O146 Zn141 1.996 . S
O146 C153 1.257 . S
C147 O142 1.254 . S
C147 O143 1.269 . S
C148 O149 1.249 . S
C148 O150 1.270 . S
O149 Zn141 1.943 . S
O149 C148 1.249 . S
O150 Zn140 2.067 . S
O150 C148 1.270 . S
C151 O144 1.262 . S
C151 O152 1.232 . S
O152 C151 1.232 . S
C153 O145 1.260 . S
C153 O146 1.257 . S
Zn154 O157 2.031 . S
Zn154 O159 2.049 . S
Zn154 O164 2.067 . S
Zn155 O156 1.962 . S
Zn155 O158 1.986 . S
Zn155 O160 1.996 . S
Zn155 O163 1.943 . S
O156 Zn155 1.962 . S
O156 C161 1.254 . S
O157 Zn154 2.031 . S
O157 C161 1.269 . S
O158 Zn155 1.986 . S
O158 C165 1.262 . S
O159 Zn154 2.049 . S
O159 C167 1.260 . S
O160 Zn155 1.996 . S
O160 C167 1.257 . S
C161 O156 1.254 . S
C161 O157 1.269 . S
C162 O163 1.249 . S
C162 O164 1.270 . S
O163 Zn155 1.943 . S
O163 C162 1.249 . S
O164 Zn154 2.067 . S
O164 C162 1.270 . S
C165 O158 1.262 . S
C165 O166 1.232 . S
O166 C165 1.232 . S
C167 O159 1.260 . S
C167 O160 1.257 . S
Zn168 O171 2.031 . S
Zn168 O173 2.049 . S
Zn168 O178 2.067 . S
Zn169 O170 1.962 . S
Zn169 O172 1.986 . S
Zn169 O174 1.996 . S
Zn169 O177 1.943 . S
O170 Zn169 1.962 . S
O170 C175 1.254 . S
O171 Zn168 2.031 . S
O171 C175 1.269 . S
O172 Zn169 1.986 . S
O172 C179 1.262 . S
O173 Zn168 2.049 . S
O173 C181 1.260 . S
O174 Zn169 1.996 . S
O174 C181 1.257 . S
C175 O170 1.254 . S
C175 O171 1.269 . S
C176 O177 1.249 . S
C176 O178 1.270 . S
O177 Zn169 1.943 . S
O177 C176 1.249 . S
O178 Zn168 2.067 . S
O178 C176 1.270 . S
C179 O172 1.262 . S
C179 O180 1.232 . S
O180 C179 1.232 . S
C181 O173 1.260 . S
C181 O174 1.257 . S
Zn182 O185 2.031 . S
Zn182 O187 2.049 . S
Zn182 O192 2.067 . S
Zn183 O184 1.962 . S
Zn183 O186 1.986 . S
Zn183 O188 1.996 . S
Zn183 O191 1.943 . S
O184 Zn183 1.962 . S
O184 C189 1.254 . S
O185 Zn182 2.031 . S
O185 C189 1.269 . S
O186 Zn183 1.986 . S
O186 C193 1.262 . S
O187 Zn182 2.049 . S
O187 C195 1.260 . S
O188 Zn183 1.996 . S
O188 C195 1.257 . S
C189 O184 1.254 . S
C189 O185 1.269 . S
C190 O191 1.249 . S
C190 O192 1.270 . S
O191 Zn183 1.943 . S
O191 C190 1.249 . S
O192 Zn182 2.067 . S
O192 C190 1.270 . S
C193 O186 1.262 . S
C193 O194 1.232 . S
O194 C193 1.232 . S
C195 O187 1.260 . S
C195 O188 1.257 . S
Zn196 O199 2.031 . S
Zn196 O201 2.049 . S
Zn196 O206 2.067 . S
Zn197 O198 1.962 . S
Zn197 O200 1.986 . S
Zn197 O202 1.996 . S
Zn197 O205 1.943 . S
O198 Zn197 1.962 . S
O198 C203 1.254 . S
O199 Zn196 2.031 . S
O199 C203 1.269 . S
O200 Zn197 1.986 . S
O200 C207 1.262 . S
O201 Zn196 2.049 . S
O201 C209 1.260 . S
O202 Zn197 1.996 . S
O202 C209 1.257 . S
C203 O198 1.254 . S
C203 O199 1.269 . S
C204 O205 1.249 . S
C204 O206 1.270 . S
O205 Zn197 1.943 . S
O205 C204 1.249 . S
O206 Zn196 2.067 . S
O206 C204 1.270 . S
C207 O200 1.262 . S
C207 O208 1.232 . S
O208 C207 1.232 . S
C209 O201 1.260 . S
C209 O202 1.257 . S
Zn210 O213 2.031 . S
Zn210 O215 2.049 . S
Zn210 O220 2.067 . S
Zn211 O212 1.962 . S
Zn211 O214 1.986 . S
Zn211 O216 1.996 . S
Zn211 O219 1.943 . S
O212 Zn211 1.962 . S
O212 C217 1.254 . S
O213 Zn210 2.031 . S
O213 C217 1.269 . S
O214 Zn211 1.986 . S
O214 C221 1.262 . S
O215 Zn210 2.049 . S
O215 C223 1.260 . S
O216 Zn211 1.996 . S
O216 C223 1.257 . S
C217 O212 1.254 . S
C217 O213 1.269 . S
C218 O219 1.249 . S
C218 O220 1.270 . S
O219 Zn211 1.943 . S
O219 C218 1.249 . S
O220 Zn210 2.067 . S
O220 C218 1.270 . S
C221 O214 1.262 . S
C221 O222 1.232 . S
O222 C221 1.232 . S
C223 O215 1.260 . S
C223 O216 1.257 . S
H224 C232 0.929 . S
H225 C234 0.930 . S
H226 C236 0.930 . S
H227 C239 0.929 . S
H228 C242 0.930 1_455 S
H229 C244 0.960 1_655 S
H230 C244 0.960 . S
H231 C244 0.960 . S
C232 H224 0.929 . S
C232 C233 1.377 . S
C232 C234 1.384 . S
C233 C232 1.377 . S
C233 C239 1.390 . S
C234 H225 0.930 . S
C234 C232 1.384 . S
C234 C235 1.372 . S
C235 C234 1.372 . S
C235 C236 1.400 . S
C235 C240 1.490 . S
C236 H226 0.930 . S
C236 C235 1.400 . S
C236 C239 1.386 . S
H237 C253 0.930 . S
H238 C254 0.931 . S
C239 H227 0.929 . S
C239 C233 1.390 . S
C239 C236 1.386 . S
C240 C235 1.490 . S
C240 C242 1.395 1_455 S
C240 C243 1.403 1_455 S
H241 C247 0.930 . S
C242 H228 0.930 1_655 S
C242 C240 1.395 1_655 S
C242 C245 1.403 . S
C243 C240 1.403 1_655 S
C243 C244 1.524 1_655 S
C243 C247 1.400 . S
C244 H229 0.960 1_455 S
C244 H230 0.960 . S
C244 H231 0.960 . S
C244 C243 1.524 1_455 S
C245 C242 1.403 . S
C245 C246 1.392 . S
C245 C249 1.495 . S
C246 C245 1.392 . S
C246 C247 1.385 . S
C246 C248 1.478 . S
C247 H241 0.930 . S
C247 C243 1.400 . S
C247 C246 1.385 . S
C248 C246 1.478 . S
C248 C250 1.381 . S
C248 C254 1.383 . S
C249 C245 1.495 . S
C249 H255 0.959 . S
C249 H256 0.961 . S
C249 H257 0.960 . S
C250 C248 1.381 . S
C250 C251 1.394 . S
C250 H258 0.930 . S
C251 C250 1.394 . S
C251 C252 1.383 . S
C251 H259 0.929 . S
C252 C251 1.383 . S
C252 C253 1.377 . S
C253 H237 0.930 . S
C253 C252 1.377 . S
C253 C254 1.379 . S
C254 H238 0.931 . S
C254 C248 1.383 . S
C254 C253 1.379 . S
H255 C249 0.959 . S
H256 C249 0.961 . S
H257 C249 0.960 . S
H258 C250 0.930 . S
H259 C251 0.929 . S
H260 C268 0.929 . S
H261 C270 0.930 . S
H262 C272 0.930 . S
H263 C275 0.929 . S
H264 C278 0.930 1_655 S
H265 C280 0.960 1_455 S
H266 C280 0.960 . S
H267 C280 0.960 . S
C268 H260 0.929 . S
C268 C269 1.377 . S
C268 C270 1.384 . S
C269 C268 1.377 . S
C269 C275 1.390 . S
C270 H261 0.930 . S
C270 C268 1.384 . S
C270 C271 1.372 . S
C271 C270 1.372 . S
C271 C272 1.400 . S
C271 C276 1.490 . S
C272 H262 0.930 . S
C272 C271 1.400 . S
C272 C275 1.386 . S
H273 C289 0.930 . S
H274 C290 0.931 . S
C275 H263 0.929 . S
C275 C269 1.390 . S
C275 C272 1.386 . S
C276 C271 1.490 . S
C276 C278 1.395 1_655 S
C276 C279 1.403 1_655 S
H277 C283 0.930 . S
C278 H264 0.930 1_455 S
C278 C276 1.395 1_455 S
C278 C281 1.403 . S
C279 C276 1.403 1_455 S
C279 C280 1.524 1_455 S
C279 C283 1.400 . S
C280 H265 0.960 1_655 S
C280 H266 0.960 . S
C280 H267 0.960 . S
C280 C279 1.524 1_655 S
C281 C278 1.403 . S
C281 C282 1.392 . S
C281 C285 1.495 . S
C282 C281 1.392 . S
C282 C283 1.385 . S
C282 C284 1.478 . S
C283 H277 0.930 . S
C283 C279 1.400 . S
C283 C282 1.385 . S
C284 C282 1.478 . S
C284 C286 1.381 . S
C284 C290 1.383 . S
C285 C281 1.495 . S
C285 H291 0.959 . S
C285 H292 0.961 . S
C285 H293 0.960 . S
C286 C284 1.381 . S
C286 C287 1.394 . S
C286 H294 0.930 . S
C287 C286 1.394 . S
C287 C288 1.383 . S
C287 H295 0.929 . S
C288 C287 1.383 . S
C288 C289 1.377 . S
C289 H273 0.930 . S
C289 C288 1.377 . S
C289 C290 1.379 . S
C290 H274 0.931 . S
C290 C284 1.383 . S
C290 C289 1.379 . S
H291 C285 0.959 . S
H292 C285 0.961 . S
H293 C285 0.960 . S
H294 C286 0.930 . S
H295 C287 0.929 . S
H296 C304 0.929 . S
H297 C306 0.930 . S
H298 C308 0.930 . S
H299 C311 0.929 . S
H300 C314 0.930 . S
H301 C316 0.960 . S
H302 C316 0.960 . S
H303 C316 0.960 . S
C304 H296 0.929 . S
C304 C305 1.377 . S
C304 C306 1.384 . S
C305 C304 1.377 . S
C305 C311 1.390 . S
C306 H297 0.930 . S
C306 C304 1.384 . S
C306 C307 1.372 . S
C307 C306 1.372 . S
C307 C308 1.400 . S
C307 C312 1.490 . S
C308 H298 0.930 . S
C308 C307 1.400 . S
C308 C311 1.386 . S
H309 C325 0.930 . S
H310 C326 0.931 . S
C311 H299 0.929 . S
C311 C305 1.390 . S
C311 C308 1.386 . S
C312 C307 1.490 . S
C312 C314 1.395 . S
C312 C315 1.403 . S
H313 C319 0.913 1_455 S
C314 H300 0.930 . S
C314 C312 1.395 . S
C314 C317 1.403 . S
C315 C312 1.403 . S
C315 C316 1.524 . S
C315 C319 1.431 . S
C316 H301 0.960 . S
C316 H302 0.960 . S
C316 H303 0.960 . S
C316 C315 1.524 . S
C317 C314 1.403 . S
C317 C318 1.392 1_655 S
C317 C321 1.495 1_655 S
C318 C317 1.392 1_455 S
C318 C319 1.371 1_455 S
C318 C320 1.478 . S
C319 H313 0.913 1_655 S
C319 C315 1.431 . S
C319 C318 1.371 1_655 S
C320 C318 1.478 . S
C320 C322 1.381 . S
C320 C326 1.383 . S
C321 C317 1.495 1_455 S
C321 H327 0.959 1_455 S
C321 H328 0.961 . S
C321 H329 0.960 . S
C322 C320 1.381 . S
C322 C323 1.394 . S
C322 H330 0.930 . S
C323 C322 1.394 . S
C323 C324 1.383 . S
C323 H331 0.929 . S
C324 C323 1.383 . S
C324 C325 1.377 . S
C325 H309 0.930 . S
C325 C324 1.377 . S
C325 C326 1.379 . S
C326 H310 0.931 . S
C326 C320 1.383 . S
C326 C325 1.379 . S
H327 C321 0.959 1_655 S
H328 C321 0.961 . S
H329 C321 0.960 . S
H330 C322 0.930 . S
H331 C323 0.929 . S
H332 C340 0.929 . S
H333 C342 0.930 . S
H334 C344 0.930 . S
H335 C347 0.929 . S
H336 C350 0.930 . S
H337 C352 0.960 . S
H338 C352 0.960 . S
H339 C352 0.960 . S
C340 H332 0.929 . S
C340 C341 1.377 . S
C340 C342 1.384 . S
C341 C340 1.377 . S
C341 C347 1.390 . S
C342 H333 0.930 . S
C342 C340 1.384 . S
C342 C343 1.372 . S
C343 C342 1.372 . S
C343 C344 1.400 . S
C343 C348 1.490 . S
C344 H334 0.930 . S
C344 C343 1.400 . S
C344 C347 1.386 . S
H345 C361 0.930 . S
H346 C362 0.931 . S
C347 H335 0.929 . S
C347 C341 1.390 . S
C347 C344 1.386 . S
C348 C343 1.490 . S
C348 C350 1.395 . S
C348 C351 1.403 . S
H349 C355 0.913 1_655 S
C350 H336 0.930 . S
C350 C348 1.395 . S
C350 C353 1.403 . S
C351 C348 1.403 . S
C351 C352 1.524 . S
C351 C355 1.431 . S
C352 H337 0.960 . S
C352 H338 0.960 . S
C352 H339 0.960 . S
C352 C351 1.524 . S
C353 C350 1.403 . S
C353 C354 1.392 1_455 S
C353 C357 1.495 1_455 S
C354 C353 1.392 1_655 S
C354 C355 1.371 1_655 S
C354 C356 1.478 . S
C355 H349 0.913 1_455 S
C355 C351 1.431 . S
C355 C354 1.371 1_455 S
C356 C354 1.478 . S
C356 C358 1.381 . S
C356 C362 1.383 . S
C357 C353 1.495 1_655 S
C357 H363 0.959 1_655 S
C357 H364 0.961 . S
C357 H365 0.960 . S
C358 C356 1.381 . S
C358 C359 1.394 . S
C358 H366 0.930 . S
C359 C358 1.394 . S
C359 C360 1.383 . S
C359 H367 0.929 . S
C360 C359 1.383 . S
C360 C361 1.377 . S
C361 H345 0.930 . S
C361 C360 1.377 . S
C361 C362 1.379 . S
C362 H346 0.931 . S
C362 C356 1.383 . S
C362 C361 1.379 . S
H363 C357 0.959 1_455 S
H364 C357 0.961 . S
H365 C357 0.960 . S
H366 C358 0.930 . S
H367 C359 0.929 . S
H368 C376 0.929 . S
H369 C378 0.930 . S
H370 C380 0.930 . S
H371 C383 0.929 . S
H372 C386 0.930 . S
H373 C388 0.960 . S
H374 C388 0.960 . S
H375 C388 0.960 . S
C376 H368 0.929 . S
C376 C377 1.377 . S
C376 C378 1.384 . S
C377 C376 1.377 . S
C377 C383 1.390 . S
C378 H369 0.930 . S
C378 C376 1.384 . S
C378 C379 1.372 . S
C379 C378 1.372 . S
C379 C380 1.400 . S
C379 C384 1.490 . S
C380 H370 0.930 . S
C380 C379 1.400 . S
C380 C383 1.386 . S
H381 C397 0.930 . S
H382 C398 0.931 . S
C383 H371 0.929 . S
C383 C377 1.390 . S
C383 C380 1.386 . S
C384 C379 1.490 . S
C384 C386 1.395 . S
C384 C387 1.403 . S
H385 C391 0.930 . S
C386 H372 0.930 . S
C386 C384 1.395 . S
C386 C389 1.403 . S
C387 C384 1.403 . S
C387 C388 1.524 . S
C387 C391 1.400 . S
C388 H373 0.960 . S
C388 H374 0.960 . S
C388 H375 0.960 . S
C388 C387 1.524 . S
C389 C386 1.403 . S
C389 C390 1.392 . S
C389 C393 1.495 . S
C390 C389 1.392 . S
C390 C391 1.385 . S
C390 C392 1.478 . S
C391 H385 0.930 . S
C391 C387 1.400 . S
C391 C390 1.385 . S
C392 C390 1.478 . S
C392 C394 1.381 . S
C392 C398 1.383 . S
C393 C389 1.495 . S
C393 H399 0.959 . S
C393 H400 0.961 . S
C393 H401 0.960 . S
C394 C392 1.381 . S
C394 C395 1.394 . S
C394 H402 0.930 . S
C395 C394 1.394 . S
C395 C396 1.383 . S
C395 H403 0.929 . S
C396 C395 1.383 . S
C396 C397 1.377 . S
C397 H381 0.930 . S
C397 C396 1.377 . S
C397 C398 1.379 . S
C398 H382 0.931 . S
C398 C392 1.383 . S
C398 C397 1.379 . S
H399 C393 0.959 . S
H400 C393 0.961 . S
H401 C393 0.960 . S
H402 C394 0.930 . S
H403 C395 0.929 . S
H404 C412 0.929 . S
H405 C414 0.930 . S
H406 C416 0.930 . S
H407 C419 0.929 . S
H408 C422 0.930 . S
H409 C424 0.960 . S
H410 C424 0.960 . S
H411 C424 0.960 . S
C412 H404 0.929 . S
C412 C413 1.377 . S
C412 C414 1.384 . S
C413 C412 1.377 . S
C413 C419 1.390 . S
C414 H405 0.930 . S
C414 C412 1.384 . S
C414 C415 1.372 . S
C415 C414 1.372 . S
C415 C416 1.400 . S
C415 C420 1.490 . S
C416 H406 0.930 . S
C416 C415 1.400 . S
C416 C419 1.386 . S
H417 C433 0.930 . S
H418 C434 0.931 . S
C419 H407 0.929 . S
C419 C413 1.390 . S
C419 C416 1.386 . S
C420 C415 1.490 . S
C420 C422 1.395 . S
C420 C423 1.403 . S
H421 C427 0.930 . S
C422 H408 0.930 . S
C422 C420 1.395 . S
C422 C425 1.403 . S
C423 C420 1.403 . S
C423 C424 1.524 . S
C423 C427 1.400 . S
C424 H409 0.960 . S
C424 H410 0.960 . S
C424 H411 0.960 . S
C424 C423 1.524 . S
C425 C422 1.403 . S
C425 C426 1.392 . S
C425 C429 1.495 . S
C426 C425 1.392 . S
C426 C427 1.385 . S
C426 C428 1.478 . S
C427 H421 0.930 . S
C427 C423 1.400 . S
C427 C426 1.385 . S
C428 C426 1.478 . S
C428 C430 1.381 . S
C428 C434 1.383 . S
C429 C425 1.495 . S
C429 H435 0.959 . S
C429 H436 0.961 . S
C429 H437 0.960 . S
C430 C428 1.381 . S
C430 C431 1.394 . S
C430 H438 0.930 . S
C431 C430 1.394 . S
C431 C432 1.383 . S
C431 H439 0.929 . S
C432 C431 1.383 . S
C432 C433 1.377 . S
C433 H417 0.930 . S
C433 C432 1.377 . S
C433 C434 1.379 . S
C434 H418 0.931 . S
C434 C428 1.383 . S
C434 C433 1.379 . S
H435 C429 0.959 . S
H436 C429 0.961 . S
H437 C429 0.960 . S
H438 C430 0.930 . S
H439 C431 0.929 . S
H440 C448 0.929 . S
H441 C450 0.930 . S
H442 C452 0.930 . S
H443 C455 0.929 . S
H444 C458 0.930 . S
H445 C460 0.960 . S
H446 C460 0.960 . S
H447 C460 0.960 . S
C448 H440 0.929 . S
C448 C449 1.377 . S
C448 C450 1.384 . S
C449 C448 1.377 . S
C449 C455 1.390 . S
C450 H441 0.930 . S
C450 C448 1.384 . S
C450 C451 1.372 . S
C451 C450 1.372 . S
C451 C452 1.400 . S
C451 C456 1.490 . S
C452 H442 0.930 . S
C452 C451 1.400 . S
C452 C455 1.386 . S
H453 C469 0.930 . S
H454 C470 0.931 . S
C455 H443 0.929 . S
C455 C449 1.390 . S
C455 C452 1.386 . S
C456 C451 1.490 . S
C456 C458 1.395 . S
C456 C459 1.403 . S
H457 C463 0.930 . S
C458 H444 0.930 . S
C458 C456 1.395 . S
C458 C461 1.403 . S
C459 C456 1.403 . S
C459 C460 1.524 . S
C459 C463 1.400 . S
C460 H445 0.960 . S
C460 H446 0.960 . S
C460 H447 0.960 . S
C460 C459 1.524 . S
C461 C458 1.403 . S
C461 C462 1.392 . S
C461 C465 1.495 . S
C462 C461 1.392 . S
C462 C463 1.385 . S
C462 C464 1.478 . S
C463 H457 0.930 . S
C463 C459 1.400 . S
C463 C462 1.385 . S
C464 C462 1.478 . S
C464 C466 1.381 . S
C464 C470 1.383 . S
C465 C461 1.495 . S
C465 H471 0.959 . S
C465 H472 0.961 . S
C465 H473 0.960 . S
C466 C464 1.381 . S
C466 C467 1.394 . S
C466 H474 0.930 . S
C467 C466 1.394 . S
C467 C468 1.383 . S
C467 H475 0.929 . S
C468 C467 1.383 . S
C468 C469 1.377 . S
C469 H453 0.930 . S
C469 C468 1.377 . S
C469 C470 1.379 . S
C470 H454 0.931 . S
C470 C464 1.383 . S
C470 C469 1.379 . S
H471 C465 0.959 . S
H472 C465 0.961 . S
H473 C465 0.960 . S
H474 C466 0.930 . S
H475 C467 0.929 . S
H476 C484 0.929 . S
H477 C486 0.930 . S
H478 C488 0.930 . S
H479 C491 0.929 . S
H480 C494 0.930 . S
H481 C496 0.960 . S
H482 C496 0.960 . S
H483 C496 0.960 . S
C484 H476 0.929 . S
C484 C485 1.377 . S
C484 C486 1.384 . S
C485 C484 1.377 . S
C485 C491 1.390 . S
C486 H477 0.930 . S
C486 C484 1.384 . S
C486 C487 1.372 . S
C487 C486 1.372 . S
C487 C488 1.400 . S
C487 C492 1.490 . S
C488 H478 0.930 . S
C488 C487 1.400 . S
C488 C491 1.386 . S
H489 C505 0.930 . S
H490 C506 0.931 . S
C491 H479 0.929 . S
C491 C485 1.390 . S
C491 C488 1.386 . S
C492 C487 1.490 . S
C492 C494 1.395 . S
C492 C495 1.403 . S
H493 C499 0.930 . S
C494 H480 0.930 . S
C494 C492 1.395 . S
C494 C497 1.403 . S
C495 C492 1.403 . S
C495 C496 1.524 . S
C495 C499 1.400 . S
C496 H481 0.960 . S
C496 H482 0.960 . S
C496 H483 0.960 . S
C496 C495 1.524 . S
C497 C494 1.403 . S
C497 C498 1.392 . S
C497 C501 1.495 . S
C498 C497 1.392 . S
C498 C499 1.385 . S
C498 C500 1.478 . S
C499 H493 0.930 . S
C499 C495 1.400 . S
C499 C498 1.385 . S
C500 C498 1.478 . S
C500 C502 1.381 . S
C500 C506 1.383 . S
C501 C497 1.495 . S
C501 H507 0.959 . S
C501 H508 0.961 . S
C501 H509 0.960 . S
C502 C500 1.381 . S
C502 C503 1.394 . S
C502 H510 0.930 . S
C503 C502 1.394 . S
C503 C504 1.383 . S
C503 H511 0.929 . S
C504 C503 1.383 . S
C504 C505 1.377 . S
C505 H489 0.930 . S
C505 C504 1.377 . S
C505 C506 1.379 . S
C506 H490 0.931 . S
C506 C500 1.383 . S
C506 C505 1.379 . S
H507 C501 0.959 . S
H508 C501 0.961 . S
H509 C501 0.960 . S
H510 C502 0.930 . S
H511 C503 0.929 . S
H512 C520 0.929 . S
H513 C522 0.930 . S
H514 C524 0.930 . S
H515 C527 0.929 . S
H516 C530 0.930 . S
H517 C532 0.960 . S
H518 C532 0.960 . S
H519 C532 0.960 . S
C520 H512 0.929 . S
C520 C521 1.377 . S
C520 C522 1.384 . S
C521 C520 1.377 . S
C521 C527 1.390 . S
C522 H513 0.930 . S
C522 C520 1.384 . S
C522 C523 1.372 . S
C523 C522 1.372 . S
C523 C524 1.400 . S
C523 C528 1.490 . S
C524 H514 0.930 . S
C524 C523 1.400 . S
C524 C527 1.386 . S
H525 C541 0.930 . S
H526 C542 0.931 . S
C527 H515 0.929 . S
C527 C521 1.390 . S
C527 C524 1.386 . S
C528 C523 1.490 . S
C528 C530 1.395 . S
C528 C531 1.403 . S
H529 C535 0.930 . S
C530 H516 0.930 . S
C530 C528 1.395 . S
C530 C533 1.403 . S
C531 C528 1.403 . S
C531 C532 1.524 . S
C531 C535 1.400 . S
C532 H517 0.960 . S
C532 H518 0.960 . S
C532 H519 0.960 . S
C532 C531 1.524 . S
C533 C530 1.403 . S
C533 C534 1.392 . S
C533 C537 1.495 . S
C534 C533 1.392 . S
C534 C535 1.385 . S
C534 C536 1.478 . S
C535 H529 0.930 . S
C535 C531 1.400 . S
C535 C534 1.385 . S
C536 C534 1.478 . S
C536 C538 1.381 . S
C536 C542 1.383 . S
C537 C533 1.495 . S
C537 H543 0.959 . S
C537 H544 0.961 . S
C537 H545 0.960 . S
C538 C536 1.381 . S
C538 C539 1.394 . S
C538 H546 0.930 . S
C539 C538 1.394 . S
C539 C540 1.383 . S
C539 H547 0.929 . S
C540 C539 1.383 . S
C540 C541 1.377 . S
C541 H525 0.930 . S
C541 C540 1.377 . S
C541 C542 1.379 . S
C542 H526 0.931 . S
C542 C536 1.383 . S
C542 C541 1.379 . S
H543 C537 0.959 . S
H544 C537 0.961 . S
H545 C537 0.960 . S
H546 C538 0.930 . S
H547 C539 0.929 . S
H548 C556 0.929 . S
H549 C558 0.930 . S
H550 C560 0.930 . S
H551 C563 0.929 . S
H552 C566 0.930 . S
H553 C568 0.960 . S
H554 C568 0.960 . S
H555 C568 0.960 . S
C556 H548 0.929 . S
C556 C557 1.377 . S
C556 C558 1.384 . S
C557 C556 1.377 . S
C557 C563 1.390 . S
C558 H549 0.930 . S
C558 C556 1.384 . S
C558 C559 1.372 . S
C559 C558 1.372 . S
C559 C560 1.400 . S
C559 C564 1.490 . S
C560 H550 0.930 . S
C560 C559 1.400 . S
C560 C563 1.386 . S
H561 C577 0.930 . S
H562 C578 0.931 . S
C563 H551 0.929 . S
C563 C557 1.390 . S
C563 C560 1.386 . S
C564 C559 1.490 . S
C564 C566 1.395 . S
C564 C567 1.403 . S
H565 C571 0.930 . S
C566 H552 0.930 . S
C566 C564 1.395 . S
C566 C569 1.403 . S
C567 C564 1.403 . S
C567 C568 1.524 . S
C567 C571 1.400 . S
C568 H553 0.960 . S
C568 H554 0.960 . S
C568 H555 0.960 . S
C568 C567 1.524 . S
C569 C566 1.403 . S
C569 C570 1.392 . S
C569 C573 1.495 . S
C570 C569 1.392 . S
C570 C571 1.385 . S
C570 C572 1.478 . S
C571 H565 0.930 . S
C571 C567 1.400 . S
C571 C570 1.385 . S
C572 C570 1.478 . S
C572 C574 1.381 . S
C572 C578 1.383 . S
C573 C569 1.495 . S
C573 H579 0.959 . S
C573 H580 0.961 . S
C573 H581 0.960 . S
C574 C572 1.381 . S
C574 C575 1.394 . S
C574 H582 0.930 . S
C575 C574 1.394 . S
C575 C576 1.383 . S
C575 H583 0.929 . S
C576 C575 1.383 . S
C576 C577 1.377 . S
C577 H561 0.930 . S
C577 C576 1.377 . S
C577 C578 1.379 . S
C578 H562 0.931 . S
C578 C572 1.383 . S
C578 C577 1.379 . S
H579 C573 0.959 . S
H580 C573 0.961 . S
H581 C573 0.960 . S
H582 C574 0.930 . S
H583 C575 0.929 . S
H584 C592 0.929 . S
H585 C594 0.930 . S
H586 C596 0.930 . S
H587 C599 0.929 . S
H588 C602 0.930 . S
H589 C604 0.960 . S
H590 C604 0.960 . S
H591 C604 0.960 . S
C592 H584 0.929 . S
C592 C593 1.377 . S
C592 C594 1.384 . S
C593 C592 1.377 . S
C593 C599 1.390 . S
C594 H585 0.930 . S
C594 C592 1.384 . S
C594 C595 1.372 . S
C595 C594 1.372 . S
C595 C596 1.400 . S
C595 C600 1.490 . S
C596 H586 0.930 . S
C596 C595 1.400 . S
C596 C599 1.386 . S
H597 C613 0.930 . S
H598 C614 0.931 . S
C599 H587 0.929 . S
C599 C593 1.390 . S
C599 C596 1.386 . S
C600 C595 1.490 . S
C600 C602 1.395 . S
C600 C603 1.403 . S
H601 C607 0.930 . S
C602 H588 0.930 . S
C602 C600 1.395 . S
C602 C605 1.403 . S
C603 C600 1.403 . S
C603 C604 1.524 . S
C603 C607 1.400 . S
C604 H589 0.960 . S
C604 H590 0.960 . S
C604 H591 0.960 . S
C604 C603 1.524 . S
C605 C602 1.403 . S
C605 C606 1.392 . S
C605 C609 1.495 . S
C606 C605 1.392 . S
C606 C607 1.385 . S
C606 C608 1.478 . S
C607 H601 0.930 . S
C607 C603 1.400 . S
C607 C606 1.385 . S
C608 C606 1.478 . S
C608 C610 1.381 . S
C608 C614 1.383 . S
C609 C605 1.495 . S
C609 H615 0.959 . S
C609 H616 0.961 . S
C609 H617 0.960 . S
C610 C608 1.381 . S
C610 C611 1.394 . S
C610 H618 0.930 . S
C611 C610 1.394 . S
C611 C612 1.383 . S
C611 H619 0.929 . S
C612 C611 1.383 . S
C612 C613 1.377 . S
C613 H597 0.930 . S
C613 C612 1.377 . S
C613 C614 1.379 . S
C614 H598 0.931 . S
C614 C608 1.383 . S
C614 C613 1.379 . S
H615 C609 0.959 . S
H616 C609 0.961 . S
H617 C609 0.960 . S
H618 C610 0.930 . S
H619 C611 0.929 . S
H620 C628 0.929 . S
H621 C630 0.930 . S
H622 C632 0.930 . S
H623 C635 0.929 . S
H624 C638 0.930 . S
H625 C640 0.960 . S
H626 C640 0.960 . S
H627 C640 0.960 . S
C628 H620 0.929 . S
C628 C629 1.377 . S
C628 C630 1.384 . S
C629 C628 1.377 . S
C629 C635 1.390 . S
C630 H621 0.930 . S
C630 C628 1.384 . S
C630 C631 1.372 . S
C631 C630 1.372 . S
C631 C632 1.400 . S
C631 C636 1.490 . S
C632 H622 0.930 . S
C632 C631 1.400 . S
C632 C635 1.386 . S
H633 C649 0.930 . S
H634 C650 0.931 . S
C635 H623 0.929 . S
C635 C629 1.390 . S
C635 C632 1.386 . S
C636 C631 1.490 . S
C636 C638 1.395 . S
C636 C639 1.403 . S
H637 C643 0.930 . S
C638 H624 0.930 . S
C638 C636 1.395 . S
C638 C641 1.403 . S
C639 C636 1.403 . S
C639 C640 1.524 . S
C639 C643 1.400 . S
C640 H625 0.960 . S
C640 H626 0.960 . S
C640 H627 0.960 . S
C640 C639 1.524 . S
C641 C638 1.403 . S
C641 C642 1.392 . S
C641 C645 1.495 . S
C642 C641 1.392 . S
C642 C643 1.385 . S
C642 C644 1.478 . S
C643 H637 0.930 . S
C643 C639 1.400 . S
C643 C642 1.385 . S
C644 C642 1.478 . S
C644 C646 1.381 . S
C644 C650 1.383 . S
C645 C641 1.495 . S
C645 H651 0.959 . S
C645 H652 0.961 . S
C645 H653 0.960 . S
C646 C644 1.381 . S
C646 C647 1.394 . S
C646 H654 0.930 . S
C647 C646 1.394 . S
C647 C648 1.383 . S
C647 H655 0.929 . S
C648 C647 1.383 . S
C648 C649 1.377 . S
C649 H633 0.930 . S
C649 C648 1.377 . S
C649 C650 1.379 . S
C650 H634 0.931 . S
C650 C644 1.383 . S
C650 C649 1.379 . S
H651 C645 0.959 . S
H652 C645 0.961 . S
H653 C645 0.960 . S
H654 C646 0.930 . S
H655 C647 0.929 . S
H656 C664 0.929 . S
H657 C666 0.930 . S
H658 C668 0.930 . S
H659 C671 0.929 . S
H660 C674 0.930 . S
H661 C676 0.960 . S
H662 C676 0.960 . S
H663 C676 0.960 . S
C664 H656 0.929 . S
C664 C665 1.377 . S
C664 C666 1.384 . S
C665 C664 1.377 . S
C665 C671 1.390 . S
C666 H657 0.930 . S
C666 C664 1.384 . S
C666 C667 1.372 . S
C667 C666 1.372 . S
C667 C668 1.400 . S
C667 C672 1.490 . S
C668 H658 0.930 . S
C668 C667 1.400 . S
C668 C671 1.386 . S
H669 C685 0.930 . S
H670 C686 0.931 . S
C671 H659 0.929 . S
C671 C665 1.390 . S
C671 C668 1.386 . S
C672 C667 1.490 . S
C672 C674 1.395 . S
C672 C675 1.403 . S
H673 C679 0.930 . S
C674 H660 0.930 . S
C674 C672 1.395 . S
C674 C677 1.403 . S
C675 C672 1.403 . S
C675 C676 1.524 . S
C675 C679 1.400 . S
C676 H661 0.960 . S
C676 H662 0.960 . S
C676 H663 0.960 . S
C676 C675 1.524 . S
C677 C674 1.403 . S
C677 C678 1.392 . S
C677 C681 1.495 . S
C678 C677 1.392 . S
C678 C679 1.385 . S
C678 C680 1.478 . S
C679 H673 0.930 . S
C679 C675 1.400 . S
C679 C678 1.385 . S
C680 C678 1.478 . S
C680 C682 1.381 . S
C680 C686 1.383 . S
C681 C677 1.495 . S
C681 H687 0.959 . S
C681 H688 0.961 . S
C681 H689 0.960 . S
C682 C680 1.381 . S
C682 C683 1.394 . S
C682 H690 0.930 . S
C683 C682 1.394 . S
C683 C684 1.383 . S
C683 H691 0.929 . S
C684 C683 1.383 . S
C684 C685 1.377 . S
C685 H669 0.930 . S
C685 C684 1.377 . S
C685 C686 1.379 . S
C686 H670 0.931 . S
C686 C680 1.383 . S
C686 C685 1.379 . S
H687 C681 0.959 . S
H688 C681 0.961 . S
H689 C681 0.960 . S
H690 C682 0.930 . S
H691 C683 0.929 . S
H692 C700 0.929 . S
H693 C702 0.930 . S
H694 C704 0.930 . S
H695 C707 0.929 . S
H696 C710 0.930 . S
H697 C712 0.960 . S
H698 C712 0.960 . S
H699 C712 0.960 . S
C700 H692 0.929 . S
C700 C701 1.377 . S
C700 C702 1.384 . S
C701 C700 1.377 . S
C701 C707 1.390 . S
C702 H693 0.930 . S
C702 C700 1.384 . S
C702 C703 1.372 . S
C703 C702 1.372 . S
C703 C704 1.400 . S
C703 C708 1.490 . S
C704 H694 0.930 . S
C704 C703 1.400 . S
C704 C707 1.386 . S
H705 C721 0.930 . S
H706 C722 0.931 . S
C707 H695 0.929 . S
C707 C701 1.390 . S
C707 C704 1.386 . S
C708 C703 1.490 . S
C708 C710 1.395 . S
C708 C711 1.403 . S
H709 C715 0.930 . S
C710 H696 0.930 . S
C710 C708 1.395 . S
C710 C713 1.403 . S
C711 C708 1.403 . S
C711 C712 1.524 . S
C711 C715 1.400 . S
C712 H697 0.960 . S
C712 H698 0.960 . S
C712 H699 0.960 . S
C712 C711 1.524 . S
C713 C710 1.403 . S
C713 C714 1.392 . S
C713 C717 1.495 . S
C714 C713 1.392 . S
C714 C715 1.385 . S
C714 C716 1.478 . S
C715 H709 0.930 . S
C715 C711 1.400 . S
C715 C714 1.385 . S
C716 C714 1.478 . S
C716 C718 1.381 . S
C716 C722 1.383 . S
C717 C713 1.495 . S
C717 H723 0.959 . S
C717 H724 0.961 . S
C717 H725 0.960 . S
C718 C716 1.381 . S
C718 C719 1.394 . S
C718 H726 0.930 . S
C719 C718 1.394 . S
C719 C720 1.383 . S
C719 H727 0.929 . S
C720 C719 1.383 . S
C720 C721 1.377 . S
C721 H705 0.930 . S
C721 C720 1.377 . S
C721 C722 1.379 . S
C722 H706 0.931 . S
C722 C716 1.383 . S
C722 C721 1.379 . S
H723 C717 0.959 . S
H724 C717 0.961 . S
H725 C717 0.960 . S
H726 C718 0.930 . S
H727 C719 0.929 . S
H728 C736 0.929 . S
H729 C738 0.930 . S
H730 C740 0.930 . S
H731 C743 0.929 . S
H732 C746 0.930 . S
H733 C748 0.960 . S
H734 C748 0.960 . S
H735 C748 0.960 . S
C736 H728 0.929 . S
C736 C737 1.377 . S
C736 C738 1.384 . S
C737 C736 1.377 . S
C737 C743 1.390 . S
C738 H729 0.930 . S
C738 C736 1.384 . S
C738 C739 1.372 . S
C739 C738 1.372 . S
C739 C740 1.400 . S
C739 C744 1.490 . S
C740 H730 0.930 . S
C740 C739 1.400 . S
C740 C743 1.386 . S
H741 C757 0.930 . S
H742 C758 0.931 . S
C743 H731 0.929 . S
C743 C737 1.390 . S
C743 C740 1.386 . S
C744 C739 1.490 . S
C744 C746 1.395 . S
C744 C747 1.403 . S
H745 C751 0.930 . S
C746 H732 0.930 . S
C746 C744 1.395 . S
C746 C749 1.403 . S
C747 C744 1.403 . S
C747 C748 1.524 . S
C747 C751 1.400 . S
C748 H733 0.960 . S
C748 H734 0.960 . S
C748 H735 0.960 . S
C748 C747 1.524 . S
C749 C746 1.403 . S
C749 C750 1.392 . S
C749 C753 1.495 . S
C750 C749 1.392 . S
C750 C751 1.385 . S
C750 C752 1.478 . S
C751 H745 0.930 . S
C751 C747 1.400 . S
C751 C750 1.385 . S
C752 C750 1.478 . S
C752 C754 1.381 . S
C752 C758 1.383 . S
C753 C749 1.495 . S
C753 H759 0.959 . S
C753 H760 0.961 . S
C753 H761 0.960 . S
C754 C752 1.381 . S
C754 C755 1.394 . S
C754 H762 0.930 . S
C755 C754 1.394 . S
C755 C756 1.383 . S
C755 H763 0.929 . S
C756 C755 1.383 . S
C756 C757 1.377 . S
C757 H741 0.930 . S
C757 C756 1.377 . S
C757 C758 1.379 . S
C758 H742 0.931 . S
C758 C752 1.383 . S
C758 C757 1.379 . S
H759 C753 0.959 . S
H760 C753 0.961 . S
H761 C753 0.960 . S
H762 C754 0.930 . S
H763 C755 0.929 . S
H764 C772 0.929 . S
H765 C774 0.930 . S
H766 C776 0.930 . S
H767 C779 0.929 . S
H768 C782 0.930 . S
H769 C784 0.960 . S
H770 C784 0.960 . S
H771 C784 0.960 . S
C772 H764 0.929 . S
C772 C773 1.377 . S
C772 C774 1.384 . S
C773 C772 1.377 . S
C773 C779 1.390 . S
C774 H765 0.930 . S
C774 C772 1.384 . S
C774 C775 1.372 . S
C775 C774 1.372 . S
C775 C776 1.400 . S
C775 C780 1.490 . S
C776 H766 0.930 . S
C776 C775 1.400 . S
C776 C779 1.386 . S
H777 C793 0.930 . S
H778 C794 0.931 . S
C779 H767 0.929 . S
C779 C773 1.390 . S
C779 C776 1.386 . S
C780 C775 1.490 . S
C780 C782 1.395 . S
C780 C783 1.403 . S
H781 C787 0.930 . S
C782 H768 0.930 . S
C782 C780 1.395 . S
C782 C785 1.403 . S
C783 C780 1.403 . S
C783 C784 1.524 . S
C783 C787 1.400 . S
C784 H769 0.960 . S
C784 H770 0.960 . S
C784 H771 0.960 . S
C784 C783 1.524 . S
C785 C782 1.403 . S
C785 C786 1.392 . S
C785 C789 1.495 . S
C786 C785 1.392 . S
C786 C787 1.385 . S
C786 C788 1.478 . S
C787 H781 0.930 . S
C787 C783 1.400 . S
C787 C786 1.385 . S
C788 C786 1.478 . S
C788 C790 1.381 . S
C788 C794 1.383 . S
C789 C785 1.495 . S
C789 H795 0.959 . S
C789 H796 0.961 . S
C789 H797 0.960 . S
C790 C788 1.381 . S
C790 C791 1.394 . S
C790 H798 0.930 . S
C791 C790 1.394 . S
C791 C792 1.383 . S
C791 H799 0.929 . S
C792 C791 1.383 . S
C792 C793 1.377 . S
C793 H777 0.930 . S
C793 C792 1.377 . S
C793 C794 1.379 . S
C794 H778 0.931 . S
C794 C788 1.383 . S
C794 C793 1.379 . S
H795 C789 0.959 . S
H796 C789 0.961 . S
H797 C789 0.960 . S
H798 C790 0.930 . S
H799 C791 0.929 . S
H800 C808 0.929 . S
H801 C810 0.930 . S
H802 C812 0.930 . S
H803 C815 0.929 . S
H804 C818 0.930 . S
H805 C820 0.960 . S
H806 C820 0.960 . S
H807 C820 0.960 . S
C808 H800 0.929 . S
C808 C809 1.377 . S
C808 C810 1.384 . S
C809 C808 1.377 . S
C809 C815 1.390 . S
C810 H801 0.930 . S
C810 C808 1.384 . S
C810 C811 1.372 . S
C811 C810 1.372 . S
C811 C812 1.400 . S
C811 C816 1.490 . S
C812 H802 0.930 . S
C812 C811 1.400 . S
C812 C815 1.386 . S
H813 C829 0.930 . S
H814 C830 0.931 . S
C815 H803 0.929 . S
C815 C809 1.390 . S
C815 C812 1.386 . S
C816 C811 1.490 . S
C816 C818 1.395 . S
C816 C819 1.403 1_556 S
H817 C823 0.930 . S
C818 H804 0.930 . S
C818 C816 1.395 . S
C818 C821 1.403 . S
C819 C816 1.403 1_554 S
C819 C820 1.524 . S
C819 C823 1.400 . S
C820 H805 0.960 . S
C820 H806 0.960 . S
C820 H807 0.960 . S
C820 C819 1.524 . S
C821 C818 1.403 . S
C821 C822 1.392 1_556 S
C821 C825 1.495 . S
C822 C821 1.392 1_554 S
C822 C823 1.385 . S
C822 C824 1.478 . S
C823 H817 0.930 . S
C823 C819 1.400 . S
C823 C822 1.385 . S
C824 C822 1.478 . S
C824 C826 1.381 . S
C824 C830 1.383 . S
C825 C821 1.495 . S
C825 H831 0.959 . S
C825 H832 0.961 . S
C825 H833 0.960 . S
C826 C824 1.381 . S
C826 C827 1.394 . S
C826 H834 0.930 . S
C827 C826 1.394 . S
C827 C828 1.383 . S
C827 H835 0.929 . S
C828 C827 1.383 . S
C828 C829 1.377 . S
C829 H813 0.930 . S
C829 C828 1.377 . S
C829 C830 1.379 . S
C830 H814 0.931 . S
C830 C824 1.383 . S
C830 C829 1.379 . S
H831 C825 0.959 . S
H832 C825 0.961 . S
H833 C825 0.960 . S
H834 C826 0.930 . S
H835 C827 0.929 . S
H836 C844 0.929 . S
H837 C846 0.930 . S
H838 C848 0.930 . S
H839 C851 0.929 . S
H840 C854 0.930 . S
H841 C856 0.960 . S
H842 C856 0.960 . S
H843 C856 0.960 . S
C844 H836 0.929 . S
C844 C845 1.377 . S
C844 C846 1.384 . S
C845 C844 1.377 . S
C845 C851 1.390 . S
C846 H837 0.930 . S
C846 C844 1.384 . S
C846 C847 1.372 . S
C847 C846 1.372 . S
C847 C848 1.400 . S
C847 C852 1.490 . S
C848 H838 0.930 . S
C848 C847 1.400 . S
C848 C851 1.386 . S
H849 C865 0.930 . S
H850 C866 0.931 . S
C851 H839 0.929 . S
C851 C845 1.390 . S
C851 C848 1.386 . S
C852 C847 1.490 . S
C852 C854 1.395 . S
C852 C855 1.403 . S
H853 C859 0.930 . S
C854 H840 0.930 . S
C854 C852 1.395 . S
C854 C857 1.403 . S
C855 C852 1.403 . S
C855 C856 1.524 . S
C855 C859 1.400 . S
C856 H841 0.960 . S
C856 H842 0.960 . S
C856 H843 0.960 . S
C856 C855 1.524 . S
C857 C854 1.403 . S
C857 C858 1.392 . S
C857 C861 1.495 . S
C858 C857 1.392 . S
C858 C859 1.385 . S
C858 C860 1.478 . S
C859 H853 0.930 . S
C859 C855 1.400 . S
C859 C858 1.385 . S
C860 C858 1.478 . S
C860 C862 1.381 . S
C860 C866 1.383 . S
C861 C857 1.495 . S
C861 H867 0.959 . S
C861 H868 0.961 . S
C861 H869 0.960 . S
C862 C860 1.381 . S
C862 C863 1.394 . S
C862 H870 0.930 . S
C863 C862 1.394 . S
C863 C864 1.383 . S
C863 H871 0.929 . S
C864 C863 1.383 . S
C864 C865 1.377 . S
C865 H849 0.930 . S
C865 C864 1.377 . S
C865 C866 1.379 . S
C866 H850 0.931 . S
C866 C860 1.383 . S
C866 C865 1.379 . S
H867 C861 0.959 . S
H868 C861 0.961 . S
H869 C861 0.960 . S
H870 C862 0.930 . S
H871 C863 0.929 . S
H872 C880 0.929 . S
H873 C882 0.930 . S
H874 C884 0.930 . S
H875 C887 0.929 . S
H876 C890 0.930 . S
H877 C892 0.960 . S
H878 C892 0.960 . S
H879 C892 0.960 . S
C880 H872 0.929 . S
C880 C881 1.377 . S
C880 C882 1.384 . S
C881 C880 1.377 . S
C881 C887 1.390 . S
C882 H873 0.930 . S
C882 C880 1.384 . S
C882 C883 1.372 . S
C883 C882 1.372 . S
C883 C884 1.400 . S
C883 C888 1.490 . S
C884 H874 0.930 . S
C884 C883 1.400 . S
C884 C887 1.386 . S
H885 C901 0.930 . S
H886 C902 0.931 . S
C887 H875 0.929 . S
C887 C881 1.390 . S
C887 C884 1.386 . S
C888 C883 1.490 . S
C888 C890 1.395 1_554 S
C888 C891 1.403 . S
H889 C895 0.930 . S
C890 H876 0.930 . S
C890 C888 1.395 1_556 S
C890 C893 1.403 . S
C891 C888 1.403 . S
C891 C892 1.524 . S
C891 C895 1.400 . S
C892 H877 0.960 . S
C892 H878 0.960 . S
C892 H879 0.960 . S
C892 C891 1.524 . S
C893 C890 1.403 . S
C893 C894 1.392 . S
C893 C897 1.495 . S
C894 C893 1.392 . S
C894 C895 1.385 1_556 S
C894 C896 1.478 . S
C895 H889 0.930 . S
C895 C891 1.400 . S
C895 C894 1.385 1_554 S
C896 C894 1.478 . S
C896 C898 1.381 . S
C896 C902 1.383 . S
C897 C893 1.495 . S
C897 H903 0.959 . S
C897 H904 0.961 . S
C897 H905 0.960 . S
C898 C896 1.381 . S
C898 C899 1.394 . S
C898 H906 0.930 . S
C899 C898 1.394 . S
C899 C900 1.383 . S
C899 H907 0.929 . S
C900 C899 1.383 . S
C900 C901 1.377 . S
C901 H885 0.930 . S
C901 C900 1.377 . S
C901 C902 1.379 . S
C902 H886 0.931 . S
C902 C896 1.383 . S
C902 C901 1.379 . S
H903 C897 0.959 . S
H904 C897 0.961 . S
H905 C897 0.960 . S
H906 C898 0.930 . S
H907 C899 0.929 . S
H908 C916 0.929 . S
H909 C918 0.930 . S
H910 C920 0.930 . S
H911 C923 0.929 . S
H912 C926 0.930 . S
H913 C928 0.960 . S
H914 C928 0.960 . S
H915 C928 0.960 . S
C916 H908 0.929 . S
C916 C917 1.377 . S
C916 C918 1.384 . S
C917 C916 1.377 . S
C917 C923 1.390 . S
C918 H909 0.930 . S
C918 C916 1.384 . S
C918 C919 1.372 . S
C919 C918 1.372 . S
C919 C920 1.400 . S
C919 C924 1.490 . S
C920 H910 0.930 . S
C920 C919 1.400 . S
C920 C923 1.386 . S
H921 C937 0.930 . S
H922 C938 0.931 . S
C923 H911 0.929 . S
C923 C917 1.390 . S
C923 C920 1.386 . S
C924 C919 1.490 . S
C924 C926 1.395 . S
C924 C927 1.403 . S
H925 C931 0.930 . S
C926 H912 0.930 . S
C926 C924 1.395 . S
C926 C929 1.403 . S
C927 C924 1.403 . S
C927 C928 1.524 . S
C927 C931 1.400 . S
C928 H913 0.960 . S
C928 H914 0.960 . S
C928 H915 0.960 . S
C928 C927 1.524 . S
C929 C926 1.403 . S
C929 C930 1.392 . S
C929 C933 1.495 . S
C930 C929 1.392 . S
C930 C931 1.385 . S
C930 C932 1.478 . S
C931 H925 0.930 . S
C931 C927 1.400 . S
C931 C930 1.385 . S
C932 C930 1.478 . S
C932 C934 1.381 . S
C932 C938 1.383 . S
C933 C929 1.495 . S
C933 H939 0.959 . S
C933 H940 0.961 . S
C933 H941 0.960 . S
C934 C932 1.381 . S
C934 C935 1.394 . S
C934 H942 0.930 . S
C935 C934 1.394 . S
C935 C936 1.383 . S
C935 H943 0.929 . S
C936 C935 1.383 . S
C936 C937 1.377 . S
C937 H921 0.930 . S
C937 C936 1.377 . S
C937 C938 1.379 . S
C938 H922 0.931 . S
C938 C932 1.383 . S
C938 C937 1.379 . S
H939 C933 0.959 . S
H940 C933 0.961 . S
H941 C933 0.960 . S
H942 C934 0.930 . S
H943 C935 0.929 . S
H944 C952 0.929 . S
H945 C954 0.930 . S
H946 C956 0.930 1_556 S
H947 C959 0.929 . S
H948 C962 0.930 . S
H949 C964 0.960 . S
H950 C964 0.960 . S
H951 C964 0.960 . S
C952 H944 0.929 . S
C952 C953 1.377 . S
C952 C954 1.384 . S
C953 C952 1.377 . S
C953 C959 1.390 . S
C954 H945 0.930 . S
C954 C952 1.384 . S
C954 C955 1.372 . S
C955 C954 1.372 . S
C955 C956 1.400 . S
C955 C960 1.490 . S
C956 H946 0.930 1_554 S
C956 C955 1.400 . S
C956 C959 1.386 . S
H957 C973 0.930 . S
H958 C974 0.931 . S
C959 H947 0.929 . S
C959 C953 1.390 . S
C959 C956 1.386 . S
C960 C955 1.490 . S
C960 C962 1.395 . S
C960 C963 1.403 1_554 S
H961 C967 0.930 . S
C962 H948 0.930 . S
C962 C960 1.395 . S
C962 C965 1.403 . S
C963 C960 1.403 1_556 S
C963 C964 1.524 . S
C963 C967 1.400 . S
C964 H949 0.960 . S
C964 H950 0.960 . S
C964 H951 0.960 . S
C964 C963 1.524 . S
C965 C962 1.403 . S
C965 C966 1.392 1_554 S
C965 C969 1.495 . S
C966 C965 1.392 1_556 S
C966 C967 1.385 . S
C966 C968 1.478 . S
C967 H961 0.930 . S
C967 C963 1.400 . S
C967 C966 1.385 . S
C968 C966 1.478 . S
C968 C970 1.381 . S
C968 C974 1.383 . S
C969 C965 1.495 . S
C969 H975 0.959 . S
C969 H976 0.961 . S
C969 H977 0.960 . S
C970 C968 1.381 . S
C970 C971 1.394 . S
C970 H978 0.930 1_556 S
C971 C970 1.394 . S
C971 C972 1.383 . S
C971 H979 0.929 . S
C972 C971 1.383 . S
C972 C973 1.377 . S
C973 H957 0.930 . S
C973 C972 1.377 . S
C973 C974 1.379 . S
C974 H958 0.931 . S
C974 C968 1.383 . S
C974 C973 1.379 . S
H975 C969 0.959 . S
H976 C969 0.961 . S
H977 C969 0.960 . S
H978 C970 0.930 1_554 S
H979 C971 0.929 . S
H980 C988 0.929 . S
H981 C990 0.930 . S
H982 C992 0.930 . S
H983 C995 0.929 . S
H984 C998 0.930 . S
H985 C1000 0.960 . S
H986 C1000 0.960 . S
H987 C1000 0.960 . S
C988 H980 0.929 . S
C988 C989 1.377 . S
C988 C990 1.384 . S
C989 C988 1.377 . S
C989 C995 1.390 . S
C990 H981 0.930 . S
C990 C988 1.384 . S
C990 C991 1.372 . S
C991 C990 1.372 . S
C991 C992 1.400 . S
C991 C996 1.490 . S
C992 H982 0.930 . S
C992 C991 1.400 . S
C992 C995 1.386 . S
H993 C1009 0.930 . S
H994 C1010 0.931 . S
C995 H983 0.929 . S
C995 C989 1.390 . S
C995 C992 1.386 . S
C996 C991 1.490 . S
C996 C998 1.395 . S
C996 C999 1.403 . S
H997 C1003 0.930 . S
C998 H984 0.930 . S
C998 C996 1.395 . S
C998 C1001 1.403 . S
C999 C996 1.403 . S
C999 C1000 1.524 . S
C999 C1003 1.400 . S
C1000 H985 0.960 . S
C1000 H986 0.960 . S
C1000 H987 0.960 . S
C1000 C999 1.524 . S
C1001 C998 1.403 . S
C1001 C1002 1.392 . S
C1001 C1005 1.495 . S
C1002 C1001 1.392 . S
C1002 C1003 1.385 . S
C1002 C1004 1.478 . S
C1003 H997 0.930 . S
C1003 C999 1.400 . S
C1003 C1002 1.385 . S
C1004 C1002 1.478 . S
C1004 C1006 1.381 . S
C1004 C1010 1.383 . S
C1005 C1001 1.495 . S
C1005 H1011 0.959 . S
C1005 H1012 0.961 . S
C1005 H1013 0.960 . S
C1006 C1004 1.381 . S
C1006 C1007 1.394 . S
C1006 H1014 0.930 . S
C1007 C1006 1.394 . S
C1007 C1008 1.383 . S
C1007 H1015 0.929 . S
C1008 C1007 1.383 . S
C1008 C1009 1.377 . S
C1009 H993 0.930 . S
C1009 C1008 1.377 . S
C1009 C1010 1.379 . S
C1010 H994 0.931 . S
C1010 C1004 1.383 . S
C1010 C1009 1.379 . S
H1011 C1005 0.959 . S
H1012 C1005 0.961 . S
H1013 C1005 0.960 . S
H1014 C1006 0.930 . S
H1015 C1007 0.929 . S
H1016 C1024 0.929 . S
H1017 C1026 0.930 1_556 S
H1018 C1028 0.930 . S
H1019 C1031 0.929 . S
H1020 C1034 0.930 . S
H1021 C1036 0.960 . S
H1022 C1036 0.960 . S
H1023 C1036 0.960 . S
C1024 H1016 0.929 . S
C1024 C1025 1.377 . S
C1024 C1026 1.384 . S
C1025 C1024 1.377 . S
C1025 C1031 1.390 . S
C1026 H1017 0.930 1_554 S
C1026 C1024 1.384 . S
C1026 C1027 1.372 . S
C1027 C1026 1.372 . S
C1027 C1028 1.400 . S
C1027 C1032 1.490 . S
C1028 H1018 0.930 . S
C1028 C1027 1.400 . S
C1028 C1031 1.386 . S
H1029 C1045 0.930 . S
H1030 C1046 0.931 1_554 S
C1031 H1019 0.929 . S
C1031 C1025 1.390 . S
C1031 C1028 1.386 . S
C1032 C1027 1.490 . S
C1032 C1034 1.374 1_554 S
C1032 C1035 1.403 . S
H1033 C1039 0.930 . S
C1034 H1020 0.930 . S
C1034 C1032 1.374 1_556 S
C1034 C1037 1.426 . S
C1035 C1032 1.403 . S
C1035 C1036 1.524 . S
C1035 C1039 1.400 1_554 S
C1036 H1021 0.960 . S
C1036 H1022 0.960 . S
C1036 H1023 0.960 . S
C1036 C1035 1.524 . S
C1037 C1034 1.426 . S
C1037 C1038 1.392 . S
C1037 C1041 1.495 . S
C1038 C1037 1.392 . S
C1038 C1039 1.385 . S
C1038 C1040 1.478 . S
C1039 H1033 0.930 . S
C1039 C1035 1.400 1_556 S
C1039 C1038 1.385 . S
C1040 C1038 1.478 . S
C1040 C1042 1.381 . S
C1040 C1046 1.383 . S
C1041 C1037 1.495 . S
C1041 H1047 0.959 . S
C1041 H1048 0.961 . S
C1041 H1049 0.960 . S
C1042 C1040 1.381 . S
C1042 C1043 1.394 . S
C1042 H1050 0.930 . S
C1043 C1042 1.394 . S
C1043 C1044 1.383 . S
C1043 H1051 0.929 . S
C1044 C1043 1.383 . S
C1044 C1045 1.377 . S
C1045 H1029 0.930 . S
C1045 C1044 1.377 . S
C1045 C1046 1.379 . S
C1046 H1030 0.931 1_556 S
C1046 C1040 1.383 . S
C1046 C1045 1.379 . S
H1047 C1041 0.959 . S
H1048 C1041 0.961 . S
H1049 C1041 0.960 . S
H1050 C1042 0.930 . S
H1051 C1043 0.929 . S
H1052 C1060 0.929 . S
H1053 C1062 0.930 . S
H1054 C1064 0.930 . S
H1055 C1067 0.929 . S
H1056 C1070 0.930 . S
H1057 C1072 0.960 . S
H1058 C1072 0.960 . S
H1059 C1072 0.960 . S
C1060 H1052 0.929 . S
C1060 C1061 1.377 . S
C1060 C1062 1.384 . S
C1061 C1060 1.377 . S
C1061 C1067 1.390 . S
C1062 H1053 0.930 . S
C1062 C1060 1.384 . S
C1062 C1063 1.372 . S
C1063 C1062 1.372 . S
C1063 C1064 1.400 . S
C1063 C1068 1.490 . S
C1064 H1054 0.930 . S
C1064 C1063 1.400 . S
C1064 C1067 1.386 . S
H1065 C1081 0.930 . S
H1066 C1082 0.931 . S
C1067 H1055 0.929 . S
C1067 C1061 1.390 . S
C1067 C1064 1.386 . S
C1068 C1063 1.490 . S
C1068 C1070 1.395 . S
C1068 C1071 1.403 . S
H1069 C1075 0.930 . S
C1070 H1056 0.930 . S
C1070 C1068 1.395 . S
C1070 C1073 1.403 . S
C1071 C1068 1.403 . S
C1071 C1072 1.524 . S
C1071 C1075 1.400 . S
C1072 H1057 0.960 . S
C1072 H1058 0.960 . S
C1072 H1059 0.960 . S
C1072 C1071 1.524 . S
C1073 C1070 1.403 . S
C1073 C1074 1.392 . S
C1073 C1077 1.495 . S
C1074 C1073 1.392 . S
C1074 C1075 1.385 . S
C1074 C1076 1.478 . S
C1075 H1069 0.930 . S
C1075 C1071 1.400 . S
C1075 C1074 1.385 . S
C1076 C1074 1.478 . S
C1076 C1078 1.381 . S
C1076 C1082 1.383 . S
C1077 C1073 1.495 . S
C1077 H1083 0.959 . S
C1077 H1084 0.961 . S
C1077 H1085 0.960 . S
C1078 C1076 1.381 . S
C1078 C1079 1.394 . S
C1078 H1086 0.930 . S
C1079 C1078 1.394 . S
C1079 C1080 1.383 . S
C1079 H1087 0.929 . S
C1080 C1079 1.383 . S
C1080 C1081 1.377 . S
C1081 H1065 0.930 . S
C1081 C1080 1.377 . S
C1081 C1082 1.379 . S
C1082 H1066 0.931 . S
C1082 C1076 1.383 . S
C1082 C1081 1.379 . S
H1083 C1077 0.959 . S
H1084 C1077 0.961 . S
H1085 C1077 0.960 . S
H1086 C1078 0.930 . S
H1087 C1079 0.929 . S
H1088 C1096 0.929 . S
H1089 C1098 0.930 1_554 S
H1090 C1100 0.930 . S
H1091 C1103 0.929 . S
H1092 C1106 0.930 . S
H1093 C1108 0.960 . S
H1094 C1108 0.960 . S
H1095 C1108 0.960 . S
C1096 H1088 0.929 . S
C1096 C1097 1.377 . S
C1096 C1098 1.384 . S
C1097 C1096 1.377 . S
C1097 C1103 1.390 . S
C1098 H1089 0.930 1_556 S
C1098 C1096 1.384 . S
C1098 C1099 1.372 . S
C1099 C1098 1.372 . S
C1099 C1100 1.400 . S
C1099 C1104 1.490 . S
C1100 H1090 0.930 . S
C1100 C1099 1.400 . S
C1100 C1103 1.386 . S
H1101 C1117 0.930 . S
H1102 C1118 0.931 . S
C1103 H1091 0.929 . S
C1103 C1097 1.390 . S
C1103 C1100 1.386 . S
C1104 C1099 1.490 . S
C1104 C1106 1.395 1_556 S
C1104 C1107 1.403 . S
H1105 C1111 0.930 . S
C1106 H1092 0.930 . S
C1106 C1104 1.395 1_554 S
C1106 C1109 1.403 . S
C1107 C1104 1.403 . S
C1107 C1108 1.524 . S
C1107 C1111 1.400 . S
C1108 H1093 0.960 . S
C1108 H1094 0.960 . S
C1108 H1095 0.960 . S
C1108 C1107 1.524 . S
C1109 C1106 1.403 . S
C1109 C1110 1.392 . S
C1109 C1113 1.495 . S
C1110 C1109 1.392 . S
C1110 C1111 1.385 1_554 S
C1110 C1112 1.478 . S
C1111 H1105 0.930 . S
C1111 C1107 1.400 . S
C1111 C1110 1.385 1_556 S
C1112 C1110 1.478 . S
C1112 C1114 1.381 . S
C1112 C1118 1.383 . S
C1113 C1109 1.495 . S
C1113 H1119 0.959 . S
C1113 H1120 0.961 . S
C1113 H1121 0.960 . S
C1114 C1112 1.381 . S
C1114 C1115 1.394 . S
C1114 H1122 0.930 . S
C1115 C1114 1.394 . S
C1115 C1116 1.383 . S
C1115 H1123 0.929 . S
C1116 C1115 1.383 . S
C1116 C1117 1.377 . S
C1117 H1101 0.930 . S
C1117 C1116 1.377 . S
C1117 C1118 1.379 . S
C1118 H1102 0.931 . S
C1118 C1112 1.383 . S
C1118 C1117 1.379 . S
H1119 C1113 0.959 . S
H1120 C1113 0.961 . S
H1121 C1113 0.960 . S
H1122 C1114 0.930 . S
H1123 C1115 0.929 . S
H1124 C1132 0.929 . S
H1125 C1134 0.930 . S
H1126 C1136 0.930 . S
H1127 C1139 0.929 . S
H1128 C1142 0.930 . S
H1129 C1144 0.960 . S
H1130 C1144 0.960 . S
H1131 C1144 0.960 . S
C1132 H1124 0.929 . S
C1132 C1133 1.377 . S
C1132 C1134 1.384 . S
C1133 C1132 1.377 . S
C1133 C1139 1.390 . S
C1134 H1125 0.930 . S
C1134 C1132 1.384 . S
C1134 C1135 1.372 . S
C1135 C1134 1.372 . S
C1135 C1136 1.400 . S
C1135 C1140 1.490 . S
C1136 H1126 0.930 . S
C1136 C1135 1.400 . S
C1136 C1139 1.386 . S
H1137 C1153 0.930 . S
H1138 C1154 0.931 . S
C1139 H1127 0.929 . S
C1139 C1133 1.390 . S
C1139 C1136 1.386 . S
C1140 C1135 1.490 . S
C1140 C1142 1.395 . S
C1140 C1143 1.403 . S
H1141 C1147 0.930 . S
C1142 H1128 0.930 . S
C1142 C1140 1.395 . S
C1142 C1145 1.403 . S
C1143 C1140 1.403 . S
C1143 C1144 1.524 . S
C1143 C1147 1.400 . S
C1144 H1129 0.960 . S
C1144 H1130 0.960 . S
C1144 H1131 0.960 . S
C1144 C1143 1.524 . S
C1145 C1142 1.403 . S
C1145 C1146 1.392 . S
C1145 C1149 1.495 . S
C1146 C1145 1.392 . S
C1146 C1147 1.385 . S
C1146 C1148 1.478 . S
C1147 H1141 0.930 . S
C1147 C1143 1.400 . S
C1147 C1146 1.385 . S
C1148 C1146 1.478 . S
C1148 C1150 1.381 . S
C1148 C1154 1.383 . S
C1149 C1145 1.495 . S
C1149 H1155 0.959 . S
C1149 H1156 0.961 . S
C1149 H1157 0.960 . S
C1150 C1148 1.381 . S
C1150 C1151 1.394 . S
C1150 H1158 0.930 . S
C1151 C1150 1.394 . S
C1151 C1152 1.383 . S
C1151 H1159 0.929 . S
C1152 C1151 1.383 . S
C1152 C1153 1.377 . S
C1153 H1137 0.930 . S
C1153 C1152 1.377 . S
C1153 C1154 1.379 . S
C1154 H1138 0.931 . S
C1154 C1148 1.383 . S
C1154 C1153 1.379 . S
H1155 C1149 0.959 . S
H1156 C1149 0.961 . S
H1157 C1149 0.960 . S
H1158 C1150 0.930 . S
H1159 C1151 0.929 . S
H1160 C1168 0.929 . S
H1161 C1170 0.930 . S
H1162 C1172 0.930 . S
H1163 C1175 0.929 . S
H1164 C1178 0.930 . S
H1165 C1180 0.960 . S
H1166 C1180 0.960 . S
H1167 C1180 0.960 . S
C1168 H1160 0.929 . S
C1168 C1169 1.377 . S
C1168 C1170 1.384 . S
C1169 C1168 1.377 . S
C1169 C1175 1.390 . S
C1170 H1161 0.930 . S
C1170 C1168 1.384 . S
C1170 C1171 1.372 . S
C1171 C1170 1.372 . S
C1171 C1172 1.400 . S
C1171 C1176 1.490 . S
C1172 H1162 0.930 . S
C1172 C1171 1.400 . S
C1172 C1175 1.386 . S
H1173 C1189 0.930 . S
H1174 C1190 0.931 . S
C1175 H1163 0.929 . S
C1175 C1169 1.390 . S
C1175 C1172 1.386 . S
C1176 C1171 1.490 . S
C1176 C1178 1.395 1_554 S
C1176 C1179 1.403 . S
H1177 C1183 0.930 . S
C1178 H1164 0.930 . S
C1178 C1176 1.395 1_556 S
C1178 C1181 1.403 . S
C1179 C1176 1.403 . S
C1179 C1180 1.524 . S
C1179 C1183 1.400 . S
C1180 H1165 0.960 . S
C1180 H1166 0.960 . S
C1180 H1167 0.960 . S
C1180 C1179 1.524 . S
C1181 C1178 1.403 . S
C1181 C1182 1.392 . S
C1181 C1185 1.495 . S
C1182 C1181 1.392 . S
C1182 C1183 1.385 1_556 S
C1182 C1184 1.478 . S
C1183 H1177 0.930 . S
C1183 C1179 1.400 . S
C1183 C1182 1.385 1_554 S
C1184 C1182 1.478 . S
C1184 C1186 1.381 . S
C1184 C1190 1.383 . S
C1185 C1181 1.495 . S
C1185 H1191 0.959 . S
C1185 H1192 0.961 . S
C1185 H1193 0.960 . S
C1186 C1184 1.381 . S
C1186 C1187 1.394 . S
C1186 H1194 0.930 . S
C1187 C1186 1.394 . S
C1187 C1188 1.383 . S
C1187 H1195 0.929 . S
C1188 C1187 1.383 . S
C1188 C1189 1.377 . S
C1189 H1173 0.930 . S
C1189 C1188 1.377 . S
C1189 C1190 1.379 . S
C1190 H1174 0.931 . S
C1190 C1184 1.383 . S
C1190 C1189 1.379 . S
H1191 C1185 0.959 . S
H1192 C1185 0.961 . S
H1193 C1185 0.960 . S
H1194 C1186 0.930 . S
H1195 C1187 0.929 . S
H1196 C1204 0.929 . S
H1197 C1206 0.930 . S
H1198 C1208 0.930 . S
H1199 C1211 0.929 . S
H1200 C1214 0.930 . S
H1201 C1216 0.960 . S
H1202 C1216 0.960 . S
H1203 C1216 0.960 . S
C1204 H1196 0.929 . S
C1204 C1205 1.377 . S
C1204 C1206 1.384 . S
C1205 C1204 1.377 . S
C1205 C1211 1.390 . S
C1206 H1197 0.930 . S
C1206 C1204 1.384 . S
C1206 C1207 1.372 . S
C1207 C1206 1.372 . S
C1207 C1208 1.400 . S
C1207 C1212 1.490 . S
C1208 H1198 0.930 . S
C1208 C1207 1.400 . S
C1208 C1211 1.386 . S
H1209 C1225 0.930 . S
H1210 C1226 0.931 . S
C1211 H1199 0.929 . S
C1211 C1205 1.390 . S
C1211 C1208 1.386 . S
C1212 C1207 1.490 . S
C1212 C1214 1.395 . S
C1212 C1215 1.403 . S
H1213 C1219 0.930 . S
C1214 H1200 0.930 . S
C1214 C1212 1.395 . S
C1214 C1217 1.403 . S
C1215 C1212 1.403 . S
C1215 C1216 1.524 . S
C1215 C1219 1.400 . S
C1216 H1201 0.960 . S
C1216 H1202 0.960 . S
C1216 H1203 0.960 . S
C1216 C1215 1.524 . S
C1217 C1214 1.403 . S
C1217 C1218 1.392 . S
C1217 C1221 1.495 . S
C1218 C1217 1.392 . S
C1218 C1219 1.385 . S
C1218 C1220 1.478 . S
C1219 H1213 0.930 . S
C1219 C1215 1.400 . S
C1219 C1218 1.385 . S
C1220 C1218 1.478 . S
C1220 C1222 1.381 . S
C1220 C1226 1.383 . S
C1221 C1217 1.495 . S
C1221 H1227 0.959 . S
C1221 H1228 0.961 . S
C1221 H1229 0.960 . S
C1222 C1220 1.381 . S
C1222 C1223 1.394 . S
C1222 H1230 0.930 . S
C1223 C1222 1.394 . S
C1223 C1224 1.383 . S
C1223 H1231 0.929 . S
C1224 C1223 1.383 . S
C1224 C1225 1.377 . S
C1225 H1209 0.930 . S
C1225 C1224 1.377 . S
C1225 C1226 1.379 . S
C1226 H1210 0.931 . S
C1226 C1220 1.383 . S
C1226 C1225 1.379 . S
H1227 C1221 0.959 . S
H1228 C1221 0.961 . S
H1229 C1221 0.960 . S
H1230 C1222 0.930 . S
H1231 C1223 0.929 . S
H1232 C1240 0.929 . S
H1233 C1242 0.930 1_554 S
H1234 C1244 0.930 . S
H1235 C1247 0.929 . S
H1236 C1250 0.930 . S
H1237 C1252 0.931 1_565 S
H1238 C1252 0.960 . S
H1239 C1252 0.960 . S
C1240 H1232 0.929 . S
C1240 C1241 1.377 . S
C1240 C1242 1.384 . S
C1241 C1240 1.377 . S
C1241 C1247 1.390 . S
C1242 H1233 0.930 1_556 S
C1242 C1240 1.384 . S
C1242 C1243 1.372 . S
C1243 C1242 1.372 . S
C1243 C1244 1.400 . S
C1243 C1248 1.490 . S
C1244 H1234 0.930 . S
C1244 C1243 1.400 . S
C1244 C1247 1.386 . S
H1245 C1261 0.930 . S
H1246 C1262 0.931 1_556 S
C1247 H1235 0.929 . S
C1247 C1241 1.390 . S
C1247 C1244 1.386 . S
C1248 C1243 1.490 . S
C1248 C1250 1.395 1_556 S
C1248 C1251 1.403 . S
H1249 C1255 0.933 . S
C1250 H1236 0.930 . S
C1250 C1248 1.395 1_554 S
C1250 C1253 1.403 1_545 S
C1251 C1248 1.403 . S
C1251 C1252 1.524 . S
C1251 C1255 1.400 1_546 S
C1252 H1237 0.931 1_545 S
C1252 H1238 0.960 . S
C1252 H1239 0.960 . S
C1252 C1251 1.524 . S
C1253 C1250 1.403 1_565 S
C1253 C1254 1.392 . S
C1253 C1257 1.495 . S
C1254 C1253 1.392 . S
C1254 C1255 1.385 . S
C1254 C1256 1.478 . S
C1255 H1249 0.933 . S
C1255 C1251 1.400 1_564 S
C1255 C1254 1.385 . S
C1256 C1254 1.478 . S
C1256 C1258 1.381 . S
C1256 C1262 1.383 . S
C1257 C1253 1.495 . S
C1257 H1263 0.959 1_565 S
C1257 H1264 0.961 . S
C1257 H1265 0.960 . S
C1258 C1256 1.381 . S
C1258 C1259 1.394 . S
C1258 H1266 0.930 . S
C1259 C1258 1.394 . S
C1259 C1260 1.383 . S
C1259 H1267 0.929 . S
C1260 C1259 1.383 . S
C1260 C1261 1.377 . S
C1261 H1245 0.930 . S
C1261 C1260 1.377 . S
C1261 C1262 1.379 . S
C1262 H1246 0.931 1_554 S
C1262 C1256 1.383 . S
C1262 C1261 1.379 . S
H1263 C1257 0.959 1_545 S
H1264 C1257 0.961 . S
H1265 C1257 0.960 . S
H1266 C1258 0.930 . S
H1267 C1259 0.929 . S
H1268 C1276 0.929 . S
H1269 C1278 0.930 . S
H1270 C1280 0.930 . S
H1271 C1283 0.929 . S
H1272 C1286 0.930 . S
H1273 C1288 0.960 . S
H1274 C1288 0.960 . S
H1275 C1288 0.960 . S
C1276 H1268 0.929 . S
C1276 C1277 1.377 . S
C1276 C1278 1.384 . S
C1277 C1276 1.377 . S
C1277 C1283 1.390 . S
C1278 H1269 0.930 . S
C1278 C1276 1.384 . S
C1278 C1279 1.372 . S
C1279 C1278 1.372 . S
C1279 C1280 1.400 . S
C1279 C1284 1.490 . S
C1280 H1270 0.930 . S
C1280 C1279 1.400 . S
C1280 C1283 1.386 . S
H1281 C1297 0.930 . S
H1282 C1298 0.931 . S
C1283 H1271 0.929 . S
C1283 C1277 1.390 . S
C1283 C1280 1.386 . S
C1284 C1279 1.490 . S
C1284 C1286 1.395 . S
C1284 C1287 1.403 . S
H1285 C1291 0.930 . S
C1286 H1272 0.930 . S
C1286 C1284 1.395 . S
C1286 C1289 1.403 1_565 S
C1287 C1284 1.403 . S
C1287 C1288 1.524 . S
C1287 C1291 1.400 1_565 S
C1288 H1273 0.960 . S
C1288 H1274 0.960 . S
C1288 H1275 0.960 . S
C1288 C1287 1.524 . S
C1289 C1286 1.403 1_545 S
C1289 C1290 1.392 . S
C1289 C1293 1.495 . S
C1290 C1289 1.392 . S
C1290 C1291 1.385 . S
C1290 C1292 1.478 . S
C1291 H1285 0.930 . S
C1291 C1287 1.400 1_545 S
C1291 C1290 1.385 . S
C1292 C1290 1.478 . S
C1292 C1294 1.381 . S
C1292 C1298 1.383 . S
C1293 C1289 1.495 . S
C1293 H1299 0.975 . S
C1293 H1300 0.961 . S
C1293 H1301 0.960 . S
C1294 C1292 1.381 . S
C1294 C1295 1.394 . S
C1294 H1302 0.930 . S
C1295 C1294 1.394 . S
C1295 C1296 1.383 . S
C1295 H1303 0.929 . S
C1296 C1295 1.383 . S
C1296 C1297 1.377 . S
C1297 H1281 0.930 . S
C1297 C1296 1.377 . S
C1297 C1298 1.379 . S
C1298 H1282 0.931 . S
C1298 C1292 1.383 . S
C1298 C1297 1.379 . S
H1299 C1293 0.975 . S
H1300 C1293 0.961 . S
H1301 C1293 0.960 . S
H1302 C1294 0.930 . S
H1303 C1295 0.929 . S
H1304 C1312 0.929 . S
H1305 C1314 0.930 . S
H1306 C1316 0.930 1_556 S
H1307 C1319 0.929 . S
H1308 C1322 0.930 . S
H1309 C1324 0.960 . S
H1310 C1324 0.960 1_554 S
H1311 C1324 0.960 . S
C1312 H1304 0.929 . S
C1312 C1313 1.377 . S
C1312 C1314 1.384 . S
C1313 C1312 1.377 . S
C1313 C1319 1.390 . S
C1314 H1305 0.930 . S
C1314 C1312 1.384 . S
C1314 C1315 1.372 . S
C1315 C1314 1.372 . S
C1315 C1316 1.400 . S
C1315 C1320 1.490 . S
C1316 H1306 0.930 1_554 S
C1316 C1315 1.400 . S
C1316 C1319 1.386 . S
H1317 C1333 0.930 . S
H1318 C1334 0.931 . S
C1319 H1307 0.929 . S
C1319 C1313 1.390 . S
C1319 C1316 1.386 . S
C1320 C1315 1.490 . S
C1320 C1322 1.395 . S
C1320 C1323 1.403 1_554 S
H1321 C1327 0.930 . S
C1322 H1308 0.930 . S
C1322 C1320 1.395 . S
C1322 C1325 1.403 1_565 S
C1323 C1320 1.403 1_556 S
C1323 C1324 1.524 . S
C1323 C1327 1.400 1_565 S
C1324 H1309 0.960 . S
C1324 H1310 0.960 1_556 S
C1324 H1311 0.960 . S
C1324 C1323 1.524 . S
C1325 C1322 1.403 1_545 S
C1325 C1326 1.392 1_554 S
C1325 C1329 1.495 . S
C1326 C1325 1.392 1_556 S
C1326 C1327 1.385 . S
C1326 C1328 1.478 . S
C1327 H1321 0.930 . S
C1327 C1323 1.400 1_545 S
C1327 C1326 1.385 . S
C1328 C1326 1.478 . S
C1328 C1330 1.381 . S
C1328 C1334 1.383 . S
C1329 C1325 1.495 . S
C1329 H1335 0.959 . S
C1329 H1336 0.961 1_554 S
C1329 H1337 0.960 . S
C1330 C1328 1.381 . S
C1330 C1331 1.394 . S
C1330 H1338 0.930 1_556 S
C1331 C1330 1.394 . S
C1331 C1332 1.383 . S
C1331 H1339 0.929 . S
C1332 C1331 1.383 . S
C1332 C1333 1.377 . S
C1333 H1317 0.930 . S
C1333 C1332 1.377 . S
C1333 C1334 1.379 . S
C1334 H1318 0.931 . S
C1334 C1328 1.383 . S
C1334 C1333 1.379 . S
H1335 C1329 0.959 . S
H1336 C1329 0.961 1_556 S
H1337 C1329 0.960 . S
H1338 C1330 0.930 1_554 S
H1339 C1331 0.929 . S
H1340 C1348 0.929 . S
H1341 C1350 0.930 . S
H1342 C1352 0.930 . S
H1343 C1355 0.929 . S
H1344 C1358 0.935 . S
H1345 C1360 0.960 . S
H1346 C1360 0.960 . S
H1347 C1360 0.960 . S
C1348 H1340 0.929 . S
C1348 C1349 1.377 . S
C1348 C1350 1.384 . S
C1349 C1348 1.377 . S
C1349 C1355 1.390 . S
C1350 H1341 0.930 . S
C1350 C1348 1.384 . S
C1350 C1351 1.372 . S
C1351 C1350 1.372 . S
C1351 C1352 1.400 . S
C1351 C1356 1.490 . S
C1352 H1342 0.930 . S
C1352 C1351 1.400 . S
C1352 C1355 1.386 . S
H1353 C1369 0.930 . S
H1354 C1370 0.931 . S
C1355 H1343 0.929 . S
C1355 C1349 1.390 . S
C1355 C1352 1.386 . S
C1356 C1351 1.490 . S
C1356 C1358 1.427 . S
C1356 C1359 1.403 . S
H1357 C1363 0.930 . S
C1358 H1344 0.935 . S
C1358 C1356 1.427 . S
C1358 C1361 1.367 1_545 S
C1359 C1356 1.403 . S
C1359 C1360 1.524 . S
C1359 C1363 1.400 1_545 S
C1360 H1345 0.960 . S
C1360 H1346 0.960 . S
C1360 H1347 0.960 . S
C1360 C1359 1.524 . S
C1361 C1358 1.367 1_565 S
C1361 C1362 1.392 . S
C1361 C1365 1.495 . S
C1362 C1361 1.392 . S
C1362 C1363 1.385 . S
C1362 C1364 1.478 . S
C1363 H1357 0.930 . S
C1363 C1359 1.400 1_565 S
C1363 C1362 1.385 . S
C1364 C1362 1.478 . S
C1364 C1366 1.381 . S
C1364 C1370 1.383 . S
C1365 C1361 1.495 . S
C1365 H1371 0.959 . S
C1365 H1372 0.961 . S
C1365 H1373 0.960 . S
C1366 C1364 1.381 . S
C1366 C1367 1.394 . S
C1366 H1374 0.930 . S
C1367 C1366 1.394 . S
C1367 C1368 1.383 . S
C1367 H1375 0.929 . S
C1368 C1367 1.383 . S
C1368 C1369 1.377 . S
C1369 H1353 0.930 . S
C1369 C1368 1.377 . S
C1369 C1370 1.379 . S
C1370 H1354 0.931 . S
C1370 C1364 1.383 . S
C1370 C1369 1.379 . S
H1371 C1365 0.959 . S
H1372 C1365 0.961 . S
H1373 C1365 0.960 . S
H1374 C1366 0.930 . S
H1375 C1367 0.929 . S
C233 C8 1.411 . S
C252 C92 1.424 . S
C269 C22 1.413 . S
C288 C106 1.428 . S
C305 C64 1.402 . S
C324 C36 1.384 . S
C341 C78 1.403 . S
C360 C50 1.383 . S
C377 C204 1.406 . S
C396 C120 1.383 . S
C413 C218 1.414 . S
C432 C134 1.430 . S
C449 C148 1.407 . S
C468 C176 1.378 . S
C485 C162 1.415 . S
C504 C190 1.398 . S
C521 C13 1.285 . S
C540 C77 1.356 . S
C557 C27 1.283 . S
C576 C63 1.356 . S
C593 C41 1.272 . S
C612 C105 1.382 . S
C629 C91 1.380 . S
C648 C55 1.281 . S
C665 C189 1.378 . S
C684 C125 1.237 . S
C701 C175 1.378 . S
C720 C139 1.314 . S
C737 C153 1.289 . S
C756 C217 1.372 . S
C773 C203 1.377 . S
C792 C167 1.315 . S
C809 C179 1.317 . S
C828 C11 1.301 . S
C845 C25 1.313 . S
C864 C193 1.323 . S
C881 C207 1.316 . S
C900 C39 1.321 . S
C917 C221 1.316 . S
C936 C53 1.305 . S
C953 C123 1.315 . S
C972 C67 1.322 . S
C989 C137 1.314 . S
C1008 C81 1.323 . S
C1025 C95 1.319 . S
C1044 C151 1.311 . S
C1061 C109 1.318 . S
C1080 C165 1.301 . S
C1097 C35 1.495 . S
C1116 C7 1.476 . S
C1133 C21 1.494 . S
C1152 C49 1.494 . S
C1169 C97 1.186 . S
C1188 C69 1.148 . S
C1205 C83 1.186 . S
C1224 C111 1.148 . S
C1241 C147 1.496 . S
C1260 C119 1.479 . S
C1277 C161 1.496 . S
C1296 C133 1.479 . S
C1313 C209 1.196 . S
C1332 C181 1.181 . S
C1349 C223 1.202 . S
C1368 C195 1.210 . S
