# Generated by pormake.
# Topology uon, (4)-cn, num edge types: 1
# Building blocks:
#     Node 0, Type 0, BuildingBlock: ICAMEG_clean_sbu_1, # of connection points: 4
#     Node 1, Type 0, BuildingBlock: ICAMEG_clean_sbu_1, # of connection points: 4
#     Node 2, Type 0, BuildingBlock: ICAMEG_clean_sbu_1, # of connection points: 4
#     Node 3, Type 0, BuildingBlock: ICAMEG_clean_sbu_1, # of connection points: 4
#     Node 4, Type 0, BuildingBlock: ICAMEG_clean_sbu_1, # of connection points: 4
#     Node 5, Type 0, BuildingBlock: ICAMEG_clean_sbu_1, # of connection points: 4
#     Edge 6, Type (0, 0), BuildingBlock: EZIPEK_clean_linker_0, # of connection points: 2
#     Edge 7, Type (0, 0), BuildingBlock: EZIPEK_clean_linker_0, # of connection points: 2
#     Edge 8, Type (0, 0), BuildingBlock: EZIPEK_clean_linker_0, # of connection points: 2
#     Edge 9, Type (0, 0), BuildingBlock: EZIPEK_clean_linker_0, # of connection points: 2
#     Edge 10, Type (0, 0), BuildingBlock: EZIPEK_clean_linker_0, # of connection points: 2
#     Edge 11, Type (0, 0), BuildingBlock: EZIPEK_clean_linker_0, # of connection points: 2
#     Edge 12, Type (0, 0), BuildingBlock: EZIPEK_clean_linker_0, # of connection points: 2
#     Edge 13, Type (0, 0), BuildingBlock: EZIPEK_clean_linker_0, # of connection points: 2
#     Edge 14, Type (0, 0), BuildingBlock: EZIPEK_clean_linker_0, # of connection points: 2
#     Edge 15, Type (0, 0), BuildingBlock: EZIPEK_clean_linker_0, # of connection points: 2
#     Edge 16, Type (0, 0), BuildingBlock: EZIPEK_clean_linker_0, # of connection points: 2
#     Edge 17, Type (0, 0), BuildingBlock: EZIPEK_clean_linker_0, # of connection points: 2
# Relax obj value: 0.158
# Max RMSD: 0.296
# Mean RMSD: 0.272
data_MOF--net-uon--node1-ICAMEG_clean_sbu_1--edge1-EZIPEK_clean_linker_0
_symmetry_space_group_name_H-M    P1
_symmetry_Int_Tables_number       1
_symmetry_cell_setting            triclinic
loop_
_symmetry_equiv_pos_as_xyz
'x, y, z'
_cell_length_a     27.519786
_cell_length_b     27.408322
_cell_length_c     12.819671
_cell_angle_alpha  89.525731
_cell_angle_beta   90.558908
_cell_angle_gamma 119.9563
loop_
_atom_site_label
_atom_site_type_symbol
_atom_site_fract_x
_atom_site_fract_y
_atom_site_fract_z
_atom_type_partial_charge
Co0 Co 0.20304 0.42611 0.99344 0.0
Co1 Co 0.25624 0.41444 0.23009 0.0
O2 O 0.25389 0.41492 0.08046 0.0
C3 C 0.31627 0.51458 0.94232 0.0
O4 O 0.32444 0.51484 0.04276 0.0
C5 C 0.24397 0.30679 0.15691 0.0
O6 O 0.20301 0.30405 0.09968 0.0
O7 O 0.17337 0.36288 0.23784 0.0
O8 O 0.1377 0.3766 0.08832 0.0
H9 H 0.18769 0.40613 0.59468 0.0
H10 H 0.2801 0.39553 0.88858 0.0
O11 O 0.26865 0.47937 0.90313 0.0
H12 H 0.09083 0.23167 0.84283 0.0
H13 H 0.13016 0.44445 0.64295 0.0
H14 H 0.10449 0.44282 0.02223 0.0
H15 H 0.10518 0.31597 0.93799 0.0
H16 H 0.19465 0.43372 0.76507 0.0
O17 O 0.26898 0.34806 0.2203 0.0
H18 H 0.18296 0.40946 0.40461 0.0
H19 H 0.33565 0.40759 0.38048 0.0
H20 H 0.0383 0.45175 0.90476 0.0
H21 H 0.26848 0.31239 0.79431 0.0
H22 H 0.05064 0.4517 0.71292 0.0
H23 H 0.17319 0.22977 0.76997 0.0
O24 O 0.21462 0.49216 0.07595 0.0
H25 H 0.44769 0.48658 0.08174 0.0
H26 H 0.33518 0.52371 0.33103 0.0
H27 H 0.43427 0.59528 0.30467 0.0
H28 H 0.49141 0.57752 0.17788 0.0
H29 H 0.34943 0.41624 0.11154 0.0
H30 H 0.3435 0.40698 0.57204 0.0
H31 H 0.27012 0.40838 0.68076 0.0
O32 O 0.24379 0.48185 0.23613 0.0
C33 C 0.13211 0.35612 0.18088 0.0
C34 C 0.22133 0.40834 0.54887 0.0
C35 C 0.30839 0.40812 0.53578 0.0
N36 N 0.26045 0.41194 0.38098 0.0
C37 C 0.21889 0.41039 0.44046 0.0
C38 C 0.3039 0.40894 0.4273 0.0
C39 C 0.26703 0.4085 0.59681 0.0
C40 C 0.23837 0.36034 0.87648 0.0
N41 N 0.19266 0.36156 0.91412 0.0
C42 C 0.23212 0.31308 0.82385 0.0
C43 C 0.17868 0.26671 0.8104 0.0
C44 C 0.13247 0.2678 0.85106 0.0
C45 C 0.14051 0.31571 0.90382 0.0
C46 C 0.12406 0.44355 0.72633 0.0
C47 C 0.1099 0.44228 0.93969 0.0
C48 C 0.16041 0.43769 0.79551 0.0
N49 N 0.15266 0.43642 0.90072 0.0
C50 C 0.07241 0.4477 0.87311 0.0
C51 C 0.07942 0.44787 0.76569 0.0
C52 C 0.22935 0.5082 0.17 0.0
C53 C 0.42397 0.49486 0.13831 0.0
C54 C 0.36003 0.5152 0.27726 0.0
C55 C 0.41616 0.55593 0.26264 0.0
C56 C 0.44813 0.54589 0.19162 0.0
N57 N 0.33644 0.4658 0.22283 0.0
C58 C 0.3681 0.45474 0.15613 0.0
Co59 Co 0.75283 0.23842 0.4939 0.0
Co60 Co 0.87764 0.27853 0.62338 0.0
O61 O 0.83326 0.28653 0.51239 0.0
C62 C 0.76666 0.34784 0.55466 0.0
O63 O 0.80373 0.34889 0.62016 0.0
C64 C 0.92891 0.26516 0.42828 0.0
O65 O 0.87881 0.2257 0.39885 0.0
O66 O 0.83862 0.19577 0.60448 0.0
O67 O 0.76034 0.1691 0.50962 0.0
H68 H 0.90858 0.19073 0.94346 0.0
H69 H 0.81831 0.33013 0.34293 0.0
O70 O 0.74431 0.30781 0.48784 0.0
H71 H 0.72588 0.15633 0.13385 0.0
H72 H 0.56411 0.18668 0.33916 0.0
H73 H 0.66522 0.13189 0.5905 0.0
H74 H 0.71203 0.15303 0.32439 0.0
H75 H 0.66705 0.24456 0.35893 0.0
O76 O 0.93596 0.29048 0.51525 0.0
H77 H 0.85207 0.20351 0.80747 0.0
H78 H 0.9996 0.33434 0.66794 0.0
H79 H 0.56273 0.07249 0.57157 0.0
H80 H 0.8341 0.33533 0.15296 0.0
H81 H 0.51146 0.09995 0.44531 0.0
H82 H 0.78724 0.24814 0.04693 0.0
O83 O 0.73968 0.23468 0.64368 0.0
H84 H 0.95103 0.47867 0.51246 0.0
H85 H 0.91122 0.35118 0.81229 0.0
H86 H 0.94736 0.45221 0.84334 0.0
H87 H 0.96784 0.51698 0.69257 0.0
H88 H 0.92 0.37881 0.48501 0.0
H89 H 0.0575 0.32232 0.79934 0.0
H90 H 0.01189 0.24982 0.9409 0.0
O91 O 0.82077 0.26719 0.73237 0.0
C92 C 0.79358 0.1577 0.56212 0.0
C93 C 0.92891 0.22248 0.88352 0.0
C94 C 0.0126 0.29615 0.80325 0.0
N95 N 0.92262 0.2701 0.73064 0.0
C96 C 0.89714 0.23016 0.80664 0.0
C97 C 0.97955 0.30275 0.72805 0.0
C98 C 0.98706 0.25578 0.88174 0.0
C99 C 0.7982 0.29193 0.29738 0.0
N100 N 0.76462 0.24123 0.3446 0.0
C101 C 0.80718 0.29516 0.18984 0.0
C102 C 0.78096 0.24617 0.13043 0.0
C103 C 0.74662 0.19464 0.1792 0.0
C104 C 0.73914 0.19294 0.28712 0.0
C105 C 0.58615 0.17421 0.39375 0.0
C106 C 0.64344 0.14372 0.53417 0.0
C107 C 0.64435 0.20678 0.40544 0.0
N108 N 0.67228 0.19125 0.47479 0.0
C109 C 0.58529 0.11005 0.52426 0.0
C110 C 0.55655 0.12551 0.45353 0.0
C111 C 0.76783 0.2469 0.72775 0.0
C112 C 0.94456 0.45156 0.57877 0.0
C113 C 0.92183 0.37938 0.74625 0.0
C114 C 0.94182 0.43649 0.7644 0.0
C115 C 0.95328 0.47278 0.67985 0.0
N116 N 0.91432 0.35913 0.6467 0.0
C117 C 0.92658 0.39472 0.56357 0.0
Co118 Co 0.57333 0.77729 0.65142 0.0
Co119 Co 0.59223 0.84954 0.8805 0.0
O120 O 0.58558 0.84173 0.73121 0.0
C121 C 0.47747 0.79197 0.62114 0.0
O122 O 0.48518 0.80393 0.71998 0.0
C123 C 0.69041 0.94282 0.77646 0.0
O124 O 0.6978 0.90323 0.7364 0.0
O125 O 0.6468 0.82132 0.88449 0.0
O126 O 0.62947 0.76843 0.74117 0.0
H127 H 0.56915 0.77928 0.24566 0.0
H128 H 0.58663 0.8686 0.50397 0.0
O129 O 0.51162 0.78181 0.57136 0.0
H130 H 0.76387 0.86594 0.48441 0.0
H131 H 0.54247 0.67459 0.31401 0.0
H132 H 0.55562 0.66247 0.69634 0.0
H133 H 0.68716 0.7985 0.59516 0.0
H134 H 0.56066 0.75484 0.42569 0.0
O135 O 0.65463 0.93043 0.85028 0.0
H136 H 0.58723 0.77764 0.05846 0.0
H137 H 0.61504 0.94378 0.02238 0.0
H138 H 0.53674 0.58066 0.58781 0.0
H139 H 0.66295 0.93795 0.39333 0.0
H140 H 0.52907 0.58662 0.3951 0.0
H141 H 0.75225 0.93694 0.38247 0.0
O142 O 0.51484 0.72494 0.74609 0.0
H143 H 0.50223 0.96274 0.76043 0.0
H144 H 0.48769 0.81473 -0.00037 0.0
H145 H 0.41082 0.8358 0.99098 0.0
H146 H 0.41641 0.90859 0.86712 0.0
H147 H 0.57992 0.94438 0.78092 0.0
H148 H 0.59797 0.94761 0.20995 0.0
H149 H 0.56863 0.86256 0.31947 0.0
O150 O 0.52875 0.76827 0.90155 0.0
C151 C 0.65463 0.78718 0.82893 0.0
C152 C 0.58005 0.81591 0.19778 0.0
C153 C 0.59632 0.91046 0.17756 0.0
N154 N 0.60057 0.85998 0.02962 0.0
C155 C 0.59062 0.81532 0.09182 0.0
C156 C 0.60669 0.90835 0.07187 0.0
C157 C 0.58075 0.86301 0.2396 0.0
C158 C 0.62513 0.86742 0.49978 0.0
N159 N 0.63201 0.82908 0.55701 0.0
C160 C 0.66836 0.90705 0.43696 0.0
C161 C 0.71856 0.90662 0.43105 0.0
C162 C 0.72509 0.86693 0.48823 0.0
C163 C 0.68126 0.82854 0.55114 0.0
C164 C 0.54577 0.67171 0.39778 0.0
C165 C 0.55346 0.66545 0.61251 0.0
C166 C 0.55644 0.71711 0.46122 0.0
N167 N 0.56077 0.71384 0.56692 0.0
C168 C 0.54254 0.61899 0.55153 0.0
C169 C 0.53853 0.62232 0.4435 0.0
C170 C 0.50244 0.72558 0.84077 0.0
C171 C 0.49842 0.92983 0.81279 0.0
C172 C 0.49109 0.84696 0.94621 0.0
C173 C 0.44725 0.85877 0.94199 0.0
C174 C 0.45041 0.89957 0.87269 0.0
N175 N 0.53673 0.87449 0.88254 0.0
C176 C 0.54208 0.91804 0.82184 0.0
Co177 Co 0.77734 0.53135 0.16118 0.0
Co178 Co 0.72164 0.60409 0.28384 0.0
O179 O 0.72348 0.5584 0.16925 0.0
C180 C 0.6628 0.43025 0.1736 0.0
O181 O 0.63994 0.46153 0.15731 0.0
C182 C 0.74219 0.67407 0.09049 0.0
O183 O 0.77679 0.65732 0.0595 0.0
O184 O 0.80488 0.64895 0.28855 0.0
O185 O 0.84112 0.61035 0.18434 0.0
H186 H 0.79416 0.70897 0.61806 0.0
H187 H 0.69266 0.49999 0.98901 0.0
O188 O 0.71435 0.4501 0.14973 0.0
H189 H 0.87727 0.60469 0.82008 0.0
H190 H 0.85496 0.41474 0.01384 0.0
H191 H 0.88106 0.55599 0.27756 0.0
H192 H 0.87032 0.58839 0.01011 0.0
H193 H 0.7872 0.44848 0.02726 0.0
O194 O 0.71843 0.65856 0.17927 0.0
H195 H 0.77947 0.63748 0.48769 0.0
H196 H 0.66447 0.67031 0.32141 0.0
H197 H 0.94953 0.52309 0.26738 0.0
H198 H 0.69784 0.51465 0.79839 0.0
H199 H 0.93678 0.45211 0.13443 0.0
H200 H 0.79037 0.56755 0.71297 0.0
O201 O 0.77421 0.51729 0.3123 0.0
H202 H 0.53308 0.49816 0.11355 0.0
H203 H 0.63485 0.55168 0.44877 0.0
H204 H 0.53247 0.48766 0.44818 0.0
H205 H 0.4808 0.45925 0.27975 0.0
H206 H 0.63433 0.56356 0.11862 0.0
H207 H 0.67892 0.74287 0.44737 0.0
H208 H 0.74749 0.76528 0.59495 0.0
O209 O 0.72238 0.5493 0.38789 0.0
C210 C 0.8467 0.64966 0.24559 0.0
C211 C 0.76534 0.70049 0.55363 0.0
C212 C 0.70093 0.71988 0.45811 0.0
N213 N 0.72163 0.65028 0.39648 0.0
C214 C 0.75623 0.65953 0.48027 0.0
C215 C 0.6927 0.67848 0.38658 0.0
C216 C 0.73872 0.73193 0.54059 0.0
C217 C 0.73317 0.52286 0.95265 0.0
N218 N 0.78112 0.54366 0.01117 0.0
C219 C 0.73578 0.5311 0.84461 0.0
C220 C 0.78783 0.56084 0.79651 0.0
C221 C 0.83655 0.58184 0.8566 0.0
C222 C 0.83235 0.57287 0.96436 0.0
C223 C 0.861 0.44576 0.07189 0.0
C224 C 0.87533 0.52524 0.21928 0.0
C225 C 0.82281 0.46501 0.07985 0.0
N226 N 0.83061 0.50473 0.15213 0.0
C227 C 0.91416 0.50665 0.21408 0.0
C228 C 0.90694 0.46677 0.13958 0.0
C229 C 0.74739 0.52074 0.38897 0.0
C230 C 0.55443 0.51062 0.18789 0.0
C231 C 0.61238 0.54069 0.37527 0.0
C232 C 0.55445 0.50428 0.37545 0.0
C233 C 0.52543 0.48872 0.28085 0.0
N234 N 0.64055 0.56076 0.28349 0.0
C235 C 0.61207 0.54772 0.19098 0.0
Co236 Co 0.22968 0.80429 0.36261 0.0
Co237 Co 0.14319 0.7413 0.57503 0.0
O238 O 0.15962 0.75017 0.42652 0.0
C239 C 0.1893 0.69198 0.26055 0.0
O240 O 0.13816 0.67409 0.29259 0.0
C241 C 0.05834 0.75981 0.46611 0.0
O242 O 0.10087 0.80701 0.43291 0.0
O243 O 0.17609 0.82442 0.59403 0.0
O244 O 0.24023 0.86353 0.46844 0.0
H245 H 0.18853 0.76725 0.95746 0.0
H246 H 0.16023 0.75782 0.16303 0.0
O247 O 0.22642 0.74414 0.26642 0.0
H248 H 0.15701 0.93194 0.23621 0.0
H249 H 0.36022 0.89199 0.05936 0.0
H250 H 0.343 0.8867 0.44172 0.0
H251 H 0.20899 0.90319 0.34931 0.0
H252 H 0.26889 0.8326 0.14272 0.0
O253 O 0.06643 0.73068 0.53563 0.0
H254 H 0.20713 0.79162 0.7709 0.0
H255 H 0.03905 0.66959 0.6949 0.0
H256 H 0.4356 0.94612 0.36197 0.0
H257 H 0.10554 0.78552 0.05061 0.0
H258 H 0.44473 0.94699 0.16952 0.0
H259 H 0.10419 0.87304 0.0848 0.0
O260 O 0.27002 0.78111 0.45852 0.0
H261 H 0.02848 0.55023 0.40926 0.0
H262 H 0.15673 0.65681 0.69728 0.0
H263 H 0.12309 0.55582 0.68175 0.0
H264 H 0.06039 0.50188 0.53412 0.0
H265 H 0.06071 0.65085 0.43191 0.0
H266 H 0.01815 0.64521 0.88079 0.0
H267 H 0.09395 0.69186 0.01282 0.0
O268 O 0.22017 0.75081 0.60786 0.0
C269 C 0.21725 0.86764 0.55194 0.0
C270 C 0.15538 0.74585 0.90038 0.0
C271 C 0.05969 0.67749 0.85739 0.0
N272 N 0.1245 0.73141 0.72202 0.0
C273 C 0.16564 0.75962 0.79471 0.0
C274 C 0.07159 0.69208 0.75236 0.0
C275 C 0.10228 0.70372 0.93142 0.0
C276 C 0.16012 0.79588 0.18123 0.0
N277 N 0.18855 0.82773 0.26621 0.0
C278 C 0.12909 0.81145 0.11573 0.0
C279 C 0.1279 0.86055 0.13522 0.0
C280 C 0.15735 0.89341 0.22006 0.0
C281 C 0.18717 0.87627 0.28478 0.0
C282 C 0.35669 0.89159 0.14342 0.0
C283 C 0.34645 0.88839 0.3581 0.0
C284 C 0.30485 0.85845 0.19121 0.0
N285 N 0.30019 0.8571 0.29745 0.0
C286 C 0.39901 0.92194 0.31322 0.0
C287 C 0.40409 0.9229 0.20517 0.0
C288 C 0.26375 0.76388 0.55235 0.0
C289 C 0.05625 0.5732 0.47332 0.0
C290 C 0.12842 0.63364 0.63417 0.0
C291 C 0.10909 0.57613 0.62626 0.0
C292 C 0.07385 0.54603 0.54368 0.0
N293 N 0.11265 0.66053 0.56278 0.0
C294 C 0.07519 0.63051 0.4857 0.0
Co295 Co 0.48216 0.2409 0.87036 0.0
Co296 Co 0.40013 0.12101 0.01604 0.0
O297 O 0.44351 0.1592 0.89175 0.0
C298 C 0.56929 0.21099 0.86869 0.0
O299 O 0.54041 0.17653 0.94394 0.0
C300 C 0.32625 0.06203 0.83285 0.0
O301 O 0.34007 0.11226 0.79694 0.0
O302 O 0.35652 0.16094 0.00139 0.0
O303 O 0.41641 0.24524 0.92961 0.0
H304 H 0.30298 0.10996 0.35127 0.0
H305 H 0.47998 0.17296 0.69011 0.0
O306 O 0.55028 0.23889 0.81987 0.0
H307 H 0.37341 0.2647 0.57532 0.0
H308 H 0.6025 0.41977 0.66931 0.0
H309 H 0.49868 0.33927 0.9945 0.0
H310 H 0.41584 0.28213 0.75132 0.0
H311 H 0.55284 0.31689 0.69915 0.0
O312 O 0.34437 0.05706 0.92249 0.0
H313 H 0.36167 0.1577 0.19822 0.0
H314 H 0.34384 0.00304 0.09281 0.0
H315 H 0.54711 0.44179 0.96756 0.0
H316 H 0.43877 0.15475 0.51304 0.0
H317 H 0.59843 0.48264 0.80278 0.0
H318 H 0.38461 0.20047 0.45505 0.0
O319 O 0.5161 0.2542 0.00994 0.0
H320 H 0.49839 0.01992 0.89259 0.0
H321 H 0.45988 0.10365 0.19573 0.0
H322 H 0.52488 0.06702 0.21488 0.0
H323 H 0.54519 0.02514 0.06181 0.0
H324 H 0.43363 0.0565 0.87676 0.0
H325 H 0.29002 0.95511 0.24799 0.0
H326 H 0.26495 0.00756 0.37589 0.0
O327 O 0.45627 0.18244 0.11152 0.0
C328 C 0.37086 0.21165 0.97736 0.0
C329 C 0.31197 0.08625 0.29522 0.0
C330 C 0.30366 0.99902 0.23692 0.0
N331 N 0.35575 0.08296 0.13669 0.0
C332 C 0.34501 0.11296 0.20836 0.0
C333 C 0.33515 0.02663 0.14949 0.0
C334 C 0.29083 0.02874 0.30904 0.0
C335 C 0.45674 0.19321 0.66515 0.0
N336 N 0.44987 0.22812 0.73124 0.0
C337 C 0.43342 0.18267 0.56489 0.0
C338 C 0.40302 0.20831 0.53241 0.0
C339 C 0.39662 0.24427 0.59998 0.0
C340 C 0.42048 0.25375 0.69974 0.0
C341 C 0.57937 0.40224 0.74046 0.0
C342 C 0.52062 0.35645 0.92259 0.0
C343 C 0.55119 0.3441 0.7579 0.0
N344 N 0.52152 0.32182 0.84753 0.0
C345 C 0.54828 0.4147 0.9079 0.0
C346 C 0.57735 0.4376 0.81566 0.0
C347 C 0.50209 0.22862 0.09683 0.0
C348 C 0.4894 0.03709 0.95996 0.0
C349 C 0.46797 0.0851 0.12881 0.0
C350 C 0.50493 0.06443 0.14033 0.0
C351 C 0.51618 0.04084 0.05466 0.0
N352 N 0.44342 0.08308 0.03424 0.0
C353 C 0.45262 0.05804 0.95126 0.0
C354 C 0.24615 0.23064 0.0467 0.0
C355 C 0.26984 0.27143 0.12779 0.0
C356 C 0.35793 0.27022 0.1129 0.0
C357 C 0.33682 0.23468 0.02397 0.0
N358 N 0.26194 0.18406 0.9009 0.0
N359 N 0.33601 0.30297 0.27031 0.0
C360 C 0.28096 0.2153 0.98993 0.0
C361 C 0.32245 0.28388 0.17016 0.0
N362 N 0.18943 0.20257 0.03103 0.0
N363 N 0.41239 0.29168 0.14303 0.0
H364 H 0.30707 0.30424 0.32047 0.0
H365 H 0.37198 0.30864 0.30883 0.0
H366 H 0.43847 0.27863 0.11109 0.0
H367 H 0.4324 0.3252 0.19481 0.0
H368 H 0.16876 0.16967 0.97836 0.0
H369 H 0.16216 0.20662 0.08146 0.0
H370 H 0.22398 0.17388 0.86489 0.0
H371 H 0.28652 0.17249 0.85775 0.0
C372 C 0.99476 0.33456 0.29733 0.0
C373 C 0.97697 0.28439 0.35525 0.0
C374 C 0.05267 0.27412 0.27654 0.0
C375 C 0.07556 0.3288 0.23171 0.0
N376 N 0.07322 0.41581 0.22076 0.0
N377 N 0.99044 0.20719 0.40599 0.0
C378 C 0.04759 0.36011 0.24681 0.0
C379 C 0.00616 0.25413 0.3461 0.0
N380 N 0.96088 0.35763 0.28937 0.0
N381 N 0.07456 0.24082 0.25059 0.0
H382 H 0.95586 0.19077 0.45544 0.0
H383 H 0.01368 0.18676 0.41194 0.0
H384 H 0.10753 0.25382 0.19821 0.0
H385 H 0.0568 0.19875 0.27279 0.0
H386 H 0.96935 0.39125 0.23978 0.0
H387 H 0.92136 0.33925 0.32352 0.0
H388 H 0.05726 0.44192 0.24014 0.0
H389 H 0.11358 0.43754 0.191 0.0
C390 C 0.71972 0.05432 0.5659 0.0
C391 C 0.77375 0.0975 0.59504 0.0
C392 C 0.77423 0.03844 0.74115 0.0
C393 C 0.71723 0.99856 0.72064 0.0
N394 N 0.63528 0.96907 0.61127 0.0
N395 N 0.86104 0.11468 0.67249 0.0
C396 C 0.68996 0.00676 0.63235 0.0
C397 C 0.80377 0.08521 0.67222 0.0
N398 N 0.69959 0.05586 0.46883 0.0
N399 N 0.79995 0.03229 0.82788 0.0
H400 H 0.88381 0.14301 0.61311 0.0
H401 H 0.8857 0.10536 0.72158 0.0
H402 H 0.77963 0.99841 0.87939 0.0
H403 H 0.83945 0.06316 0.85356 0.0
H404 H 0.66159 0.02446 0.43867 0.0
H405 H 0.72504 0.08495 0.41269 0.0
H406 H 0.61034 0.97706 0.5603 0.0
H407 H 0.61437 0.93013 0.64742 0.0
C408 C 0.74119 0.7626 0.03581 0.0
C409 C 0.72552 0.70567 0.01629 0.0
C410 C 0.68069 0.70922 0.85116 0.0
C411 C 0.68969 0.76373 0.87715 0.0
N412 N 0.75101 0.84994 0.96735 0.0
N413 N 0.675 0.6224 0.91088 0.0
C414 C 0.7264 0.79264 0.96228 0.0
C415 C 0.69425 0.67857 0.92504 0.0
N416 N 0.76917 0.78767 0.12599 0.0
N417 N 0.66393 0.68829 0.75302 0.0
H418 H 0.6849 0.59847 0.96097 0.0
H419 H 0.6452 0.59824 0.85463 0.0
H420 H 0.6621 0.71211 0.69159 0.0
H421 H 0.66105 0.651 0.72727 0.0
H422 H 0.77546 0.82634 0.15178 0.0
H423 H 0.78302 0.76809 0.179 0.0
H424 H 0.78154 0.87461 0.022 0.0
H425 H 0.74634 0.87358 0.90797 0.0
C426 C 0.95241 0.69437 0.24121 0.0
C427 C 0.90456 0.6926 0.28411 0.0
C428 C 0.95944 0.74168 0.44079 0.0
C429 C 0.00458 0.73549 0.40505 0.0
N430 N 0.04384 0.70523 0.26959 0.0
N431 N 0.87671 0.74622 0.39137 0.0
C432 C 0.00116 0.7122 0.30419 0.0
C433 C 0.91173 0.72527 0.37486 0.0
N434 N 0.95298 0.68444 0.13713 0.0
N435 N 0.96162 0.76248 0.53823 0.0
H436 H 0.84755 0.74318 0.33543 0.0
H437 H 0.88232 0.77385 0.45165 0.0
H438 H 0.99637 0.776 0.58751 0.0
H439 H 0.9273 0.76203 0.57289 0.0
H440 H 0.98809 0.68944 0.09771 0.0
H441 H 0.9205 0.67931 0.0875 0.0
H442 H 0.04097 0.68147 0.2044 0.0
H443 H 0.08114 0.72053 0.31053 0.0
C444 C 0.32805 0.00862 0.67503 0.0
C445 C 0.29775 0.01266 0.76028 0.0
C446 C 0.2116 0.93113 0.69147 0.0
C447 C 0.24271 0.92375 0.61054 0.0
N448 N 0.32559 0.9735 0.50258 0.0
N449 N 0.21207 0.97397 0.8574 0.0
C450 C 0.29971 0.96731 0.59597 0.0
C451 C 0.23991 0.97277 0.77064 0.0
N452 N 0.38483 0.04364 0.67067 0.0
N453 N 0.15432 0.90233 0.68646 0.0
H454 H 0.23105 0.0046 0.91507 0.0
H455 H 0.17184 0.94213 0.87655 0.0
H456 H 0.13235 0.8781 0.622 0.0
H457 H 0.12887 0.90863 0.73767 0.0
H458 H 0.41091 0.03743 0.62082 0.0
H459 H 0.40681 0.07631 0.72316 0.0
H460 H 0.36533 0.00666 0.48477 0.0
H461 H 0.30441 0.95225 0.43591 0.0
C462 C 0.23169 0.64826 0.14656 0.0
C463 C 0.20658 0.64954 0.24098 0.0
C464 C 0.19922 0.56002 0.29416 0.0
C465 C 0.22728 0.55967 0.20227 0.0
N466 N 0.28842 0.61615 0.06298 0.0
N467 N 0.18823 0.61841 0.41931 0.0
C468 C 0.2487 0.60746 0.13439 0.0
C469 C 0.19693 0.60899 0.31917 0.0
N470 N 0.23856 0.68501 0.06787 0.0
N471 N 0.17201 0.51321 0.35545 0.0
H472 H 0.19004 0.65567 0.44219 0.0
H473 H 0.18695 0.59248 0.48026 0.0
H474 H 0.16991 0.47538 0.33812 0.0
H475 H 0.14616 0.51025 0.41699 0.0
H476 H 0.25155 0.68183 0.99334 0.0
H477 H 0.22701 0.71575 0.07486 0.0
H478 H 0.30915 0.65286 0.01858 0.0
H479 H 0.30635 0.59077 0.06084 0.0
C480 C 0.63416 0.17474 0.83216 0.0
C481 C 0.62654 0.22134 0.85241 0.0
C482 C 0.72823 0.28446 0.85208 0.0
C483 C 0.73434 0.23855 0.82116 0.0
N484 N 0.69952 0.13955 0.82705 0.0
N485 N 0.66641 0.31699 0.9149 0.0
C486 C 0.68921 0.18328 0.8309 0.0
C487 C 0.67369 0.27532 0.87334 0.0
N488 N 0.58942 0.12375 0.8056 0.0
N489 N 0.77435 0.33694 0.85407 0.0
H490 H 0.62707 0.31162 0.932 0.0
H491 H 0.69936 0.35546 0.9401 0.0
H492 H 0.81449 0.34285 0.84349 0.0
H493 H 0.77283 0.37383 0.8637 0.0
H494 H 0.59327 0.08957 0.78202 0.0
H495 H 0.5489 0.11731 0.79699 0.0
H496 H 0.66878 0.09767 0.83877 0.0
H497 H 0.74046 0.14678 0.821 0.0
C498 C 0.4625 0.62581 0.89499 0.0
C499 C 0.45395 0.67208 0.87655 0.0
C500 C 0.35268 0.60722 0.85473 0.0
C501 C 0.3609 0.56202 0.88333 0.0
N502 N 0.4221 0.52399 0.89834 0.0
N503 N 0.39099 0.70819 0.85029 0.0
C504 C 0.41565 0.57022 0.89353 0.0
C505 C 0.39898 0.66306 0.85868 0.0
N506 N 0.51533 0.63557 0.91724 0.0
N507 N 0.30063 0.59648 0.82365 0.0
H508 H 0.42366 0.74899 0.86073 0.0
H509 H 0.35203 0.70553 0.84384 0.0
H510 H 0.26666 0.55575 0.81737 0.0
H511 H 0.29198 0.6269 0.7947 0.0
H512 H 0.52441 0.6044 0.93956 0.0
H513 H 0.55006 0.67612 0.92099 0.0
H514 H 0.46069 0.52565 0.89687 0.0
H515 H 0.38769 0.48318 0.89492 0.0
C516 C 0.79359 0.49581 0.52952 0.0
C517 C 0.74353 0.48555 0.4795 0.0
C518 C 0.7004 0.38514 0.51903 0.0
C519 C 0.75339 0.39462 0.55476 0.0
N520 N 0.83385 0.46136 0.65717 0.0
N521 N 0.64372 0.42734 0.47283 0.0
C522 C 0.79523 0.45068 0.58043 0.0
C523 C 0.69481 0.43222 0.48957 0.0
N524 N 0.83999 0.54816 0.52521 0.0
N525 N 0.65572 0.33167 0.51466 0.0
H526 H 0.63986 0.46271 0.45855 0.0
H527 H 0.60589 0.39034 0.48533 0.0
H528 H 0.65654 0.29767 0.55004 0.0
H529 H 0.6182 0.32126 0.47649 0.0
H530 H 0.87954 0.55629 0.55006 0.0
H531 H 0.83874 0.58257 0.49255 0.0
H532 H 0.8624 0.50209 0.68165 0.0
H533 H 0.83126 0.43042 0.70801 0.0
C534 C 0.36182 0.82154 0.60528 0.0
C535 C 0.31476 0.76697 0.59754 0.0
C536 C 0.37702 0.72716 0.58461 0.0
C537 C 0.42367 0.78266 0.57986 0.0
N538 N 0.46047 0.88253 0.56866 0.0
N539 N 0.27579 0.66714 0.59381 0.0
C540 C 0.4158 0.8298 0.58436 0.0
C541 C 0.32196 0.71943 0.59138 0.0
N542 N 0.35435 0.86513 0.6345 0.0
N543 N 0.38593 0.68233 0.58729 0.0
H544 H 0.23659 0.6617 0.61147 0.0
H545 H 0.27606 0.62992 0.58025 0.0
H546 H 0.42552 0.68682 0.57715 0.0
H547 H 0.35489 0.64093 0.60127 0.0
H548 H 0.38728 0.90558 0.64974 0.0
H549 H 0.3147 0.85897 0.65228 0.0
H550 H 0.45689 0.91854 0.56284 0.0
H551 H 0.50041 0.88916 0.55198 0.0
C552 C 0.53067 0.29276 0.24446 0.0
C553 C 0.5418 0.25773 0.18314 0.0
C554 C 0.64148 0.32841 0.18704 0.0
C555 C 0.62574 0.3697 0.20576 0.0
N556 N 0.55789 0.38805 0.29076 0.0
N557 N 0.60927 0.23209 0.13227 0.0
C558 C 0.57122 0.35091 0.2483 0.0
C559 C 0.5982 0.27217 0.16787 0.0
N560 N 0.48145 0.26989 0.29754 0.0
N561 N 0.69635 0.34197 0.19257 0.0
H562 H 0.57749 0.19008 0.12749 0.0
H563 H 0.64866 0.24027 0.10808 0.0
H564 H 0.72746 0.3802 0.22277 0.0
H565 H 0.70967 0.31291 0.18204 0.0
H566 H 0.47179 0.29204 0.35123 0.0
H567 H 0.45255 0.22684 0.29299 0.0
H568 H 0.51728 0.37752 0.31123 0.0
H569 H 0.58799 0.42936 0.30734 0.0
loop_
_geom_bond_atom_site_label_1
_geom_bond_atom_site_label_2
_geom_bond_distance
_geom_bond_site_symmetry_2
_ccdc_geom_bond_type
Co0 O2 2.143 . S
Co0 O8 2.074 1_556 S
Co0 O11 2.093 . S
Co0 O24 2.097 1_556 S
Co0 N41 2.151 . S
Co0 N49 2.214 . S
Co1 O2 2.160 1_554 S
Co1 O7 2.058 . S
Co1 O17 2.057 . S
Co1 O32 2.037 . S
Co1 N36 2.145 . S
Co1 N57 2.257 . S
O2 Co0 2.143 . S
O2 Co1 2.160 1_556 S
C3 O4 1.278 . S
C3 O11 1.224 . S
O4 C3 1.278 . S
C5 O6 1.245 1_554 S
C5 O17 1.232 . S
O6 C5 1.245 1_556 S
O7 Co1 2.058 . S
O7 C33 1.269 . S
O8 Co0 2.074 1_554 S
O8 C33 1.257 . S
H9 C34 0.930 . S
H10 C40 0.930 . S
O11 Co0 2.093 . S
O11 C3 1.224 . S
H12 C44 0.929 1_655 S
H13 C46 0.930 . S
H14 C47 0.930 . S
H15 C45 0.929 . S
H16 C48 0.928 . S
O17 Co1 2.057 . S
O17 C5 1.232 . S
H18 C37 0.929 . S
H19 C38 0.929 . S
H20 C50 0.931 . S
H21 C42 0.929 . S
H22 C51 0.930 1_655 S
H23 C43 0.931 . S
O24 Co0 2.097 1_554 S
O24 C52 1.214 . S
H25 C53 0.929 . S
H26 C54 0.929 . S
H27 C55 0.930 . S
H28 C56 0.929 . S
H29 C58 0.930 . S
H30 C35 0.930 . S
H31 C39 0.930 . S
O32 Co1 2.037 . S
O32 C52 1.234 . S
C33 O7 1.269 . S
C33 O8 1.257 . S
C34 H9 0.930 . S
C34 C37 1.388 . S
C34 C39 1.418 . S
C35 H30 0.930 . S
C35 C38 1.404 . S
C35 C39 1.353 . S
N36 Co1 2.145 . S
N36 C37 1.397 . S
N36 C38 1.334 . S
C37 H18 0.929 . S
C37 C34 1.388 . S
C37 N36 1.397 . S
C38 H19 0.929 . S
C38 C35 1.404 . S
C38 N36 1.334 . S
C39 H31 0.930 . S
C39 C34 1.418 . S
C39 C35 1.353 . S
C40 H10 0.930 . S
C40 N41 1.330 . S
C40 C42 1.446 . S
N41 Co0 2.151 . S
N41 C40 1.330 . S
N41 C45 1.418 . S
C42 H21 0.929 . S
C42 C40 1.446 . S
C42 C43 1.332 . S
C43 H23 0.931 . S
C43 C42 1.332 . S
C43 C44 1.267 . S
C44 H12 0.929 1_455 S
C44 C43 1.267 . S
C44 C45 1.251 . S
C45 H15 0.929 . S
C45 N41 1.418 . S
C45 C44 1.251 . S
C46 H13 0.930 . S
C46 C48 1.406 . S
C46 C51 1.261 . S
C47 H14 0.930 . S
C47 N49 1.325 . S
C47 C50 1.357 . S
C48 H16 0.928 . S
C48 C46 1.406 . S
C48 N49 1.261 . S
N49 Co0 2.214 . S
N49 C47 1.325 . S
N49 C48 1.261 . S
C50 H20 0.931 . S
C50 C47 1.357 . S
C50 C51 1.312 . S
C51 H22 0.930 1_455 S
C51 C46 1.261 . S
C51 C50 1.312 . S
C52 O24 1.214 . S
C52 O32 1.234 . S
C53 H25 0.929 . S
C53 C56 1.391 . S
C53 C58 1.391 . S
C54 H26 0.929 . S
C54 C55 1.390 . S
C54 N57 1.391 . S
C55 H27 0.930 . S
C55 C54 1.390 . S
C55 C56 1.392 . S
C56 H28 0.929 . S
C56 C53 1.391 . S
C56 C55 1.392 . S
N57 Co1 2.257 . S
N57 C54 1.391 . S
N57 C58 1.388 . S
C58 H29 0.930 . S
C58 C53 1.391 . S
C58 N57 1.388 . S
Co59 O61 2.143 . S
Co59 O67 2.074 . S
Co59 O70 2.093 . S
Co59 O83 2.097 . S
Co59 N100 2.151 . S
Co59 N108 2.214 . S
Co60 O61 2.160 . S
Co60 O66 2.058 . S
Co60 O76 2.057 . S
Co60 O91 2.037 . S
Co60 N95 2.145 . S
Co60 N116 2.257 . S
O61 Co59 2.143 . S
O61 Co60 2.160 . S
C62 O63 1.278 . S
C62 O70 1.224 . S
O63 C62 1.278 . S
C64 O65 1.245 . S
C64 O76 1.232 . S
O65 C64 1.245 . S
O66 Co60 2.058 . S
O66 C92 1.269 . S
O67 Co59 2.074 . S
O67 C92 1.257 . S
H68 C93 0.930 . S
H69 C99 0.930 . S
O70 Co59 2.093 . S
O70 C62 1.224 . S
H71 C103 0.929 . S
H72 C105 0.930 . S
H73 C106 0.930 . S
H74 C104 0.929 . S
H75 C107 0.928 . S
O76 Co60 2.057 . S
O76 C64 1.232 . S
H77 C96 0.929 . S
H78 C97 0.929 1_455 S
H79 C109 0.931 . S
H80 C101 0.929 . S
H81 C110 0.930 . S
H82 C102 0.931 . S
O83 Co59 2.097 . S
O83 C111 1.214 . S
H84 C112 0.929 1_455 S
H85 C113 0.929 1_554 S
H86 C114 0.930 . S
H87 C115 0.927 . S
H88 C117 0.930 . S
H89 C94 0.930 . S
H90 C98 0.930 . S
O91 Co60 2.037 . S
O91 C111 1.234 . S
C92 O66 1.269 . S
C92 O67 1.257 . S
C93 H68 0.930 . S
C93 C96 1.388 1_554 S
C93 C98 1.418 . S
C94 H89 0.930 . S
C94 C97 1.404 1_455 S
C94 C98 1.353 1_456 S
N95 Co60 2.145 . S
N95 C96 1.397 . S
N95 C97 1.334 . S
C96 H77 0.929 . S
C96 C93 1.388 1_556 S
C96 N95 1.397 . S
C97 H78 0.929 1_655 S
C97 C94 1.404 1_655 S
C97 N95 1.334 . S
C98 H90 0.930 . S
C98 C93 1.418 . S
C98 C94 1.353 1_654 S
C99 H69 0.930 . S
C99 N100 1.330 . S
C99 C101 1.446 . S
N100 Co59 2.151 . S
N100 C99 1.330 . S
N100 C104 1.418 . S
C101 H80 0.929 . S
C101 C99 1.446 . S
C101 C102 1.332 . S
C102 H82 0.931 . S
C102 C101 1.332 . S
C102 C103 1.267 . S
C103 H71 0.929 . S
C103 C102 1.267 . S
C103 C104 1.251 . S
C104 H74 0.929 . S
C104 N100 1.418 . S
C104 C103 1.251 . S
C105 H72 0.930 . S
C105 C107 1.406 . S
C105 C110 1.261 . S
C106 H73 0.930 . S
C106 N108 1.325 . S
C106 C109 1.357 . S
C107 H75 0.928 . S
C107 C105 1.406 . S
C107 N108 1.261 . S
N108 Co59 2.214 . S
N108 C106 1.325 . S
N108 C107 1.261 . S
C109 H79 0.931 . S
C109 C106 1.357 . S
C109 C110 1.312 . S
C110 H81 0.930 . S
C110 C105 1.261 . S
C110 C109 1.312 . S
C111 O83 1.214 . S
C111 O91 1.234 . S
C112 H84 0.929 1_655 S
C112 C115 1.391 . S
C112 C117 1.391 . S
C113 H85 0.929 1_556 S
C113 C114 1.390 1_556 S
C113 N116 1.391 . S
C114 H86 0.930 . S
C114 C113 1.390 1_554 S
C114 C115 1.392 1_554 S
C115 H87 0.927 . S
C115 C112 1.391 . S
C115 C114 1.392 1_556 S
N116 Co60 2.257 . S
N116 C113 1.391 . S
N116 C117 1.388 . S
C117 H88 0.930 . S
C117 C112 1.391 . S
C117 N116 1.388 . S
Co118 O120 2.143 . S
Co118 O126 2.074 . S
Co118 O129 2.093 . S
Co118 O142 2.097 . S
Co118 N159 2.151 . S
Co118 N167 2.214 . S
Co119 O120 2.160 . S
Co119 O125 2.058 . S
Co119 O135 2.057 . S
Co119 O150 2.037 . S
Co119 N154 2.145 . S
Co119 N175 2.257 . S
O120 Co118 2.143 . S
O120 Co119 2.160 . S
C121 O122 1.278 . S
C121 O129 1.224 . S
O122 C121 1.278 . S
C123 O124 1.245 . S
C123 O135 1.232 . S
O124 C123 1.245 . S
O125 Co119 2.058 . S
O125 C151 1.269 . S
O126 Co118 2.074 . S
O126 C151 1.257 . S
H127 C152 0.930 . S
H128 C158 0.930 . S
O129 Co118 2.093 . S
O129 C121 1.224 . S
H130 C162 0.929 . S
H131 C164 0.930 . S
H132 C165 0.930 . S
H133 C163 0.929 . S
H134 C166 0.928 . S
O135 Co119 2.057 . S
O135 C123 1.232 . S
H136 C155 0.929 1_556 S
H137 C156 0.929 . S
H138 C168 0.931 . S
H139 C160 0.929 . S
H140 C169 0.930 . S
H141 C161 0.931 . S
O142 Co118 2.097 . S
O142 C170 1.214 . S
H143 C171 0.929 . S
H144 C172 0.929 . S
H145 C173 0.930 . S
H146 C174 0.929 . S
H147 C176 0.930 . S
H148 C153 0.930 . S
H149 C157 0.930 . S
O150 Co119 2.037 . S
O150 C170 1.234 . S
C151 O125 1.269 . S
C151 O126 1.257 . S
C152 H127 0.930 . S
C152 C155 1.388 . S
C152 C157 1.418 . S
C153 H148 0.930 . S
C153 C156 1.404 1_554 S
C153 C157 1.353 . S
N154 Co119 2.145 . S
N154 C155 1.397 1_556 S
N154 C156 1.334 . S
C155 H136 0.929 1_554 S
C155 C152 1.388 . S
C155 N154 1.397 1_554 S
C156 H137 0.929 . S
C156 C153 1.404 1_556 S
C156 N154 1.334 . S
C157 H149 0.930 . S
C157 C152 1.418 . S
C157 C153 1.353 . S
C158 H128 0.930 . S
C158 N159 1.330 . S
C158 C160 1.446 . S
N159 Co118 2.151 . S
N159 C158 1.330 . S
N159 C163 1.418 . S
C160 H139 0.929 . S
C160 C158 1.446 . S
C160 C161 1.332 . S
C161 H141 0.931 . S
C161 C160 1.332 . S
C161 C162 1.267 . S
C162 H130 0.929 . S
C162 C161 1.267 . S
C162 C163 1.251 . S
C163 H133 0.929 . S
C163 N159 1.418 . S
C163 C162 1.251 . S
C164 H131 0.930 . S
C164 C166 1.406 . S
C164 C169 1.261 . S
C165 H132 0.930 . S
C165 N167 1.325 . S
C165 C168 1.357 . S
C166 H134 0.928 . S
C166 C164 1.406 . S
C166 N167 1.261 . S
N167 Co118 2.214 . S
N167 C165 1.325 . S
N167 C166 1.261 . S
C168 H138 0.931 . S
C168 C165 1.357 . S
C168 C169 1.312 . S
C169 H140 0.930 . S
C169 C164 1.261 . S
C169 C168 1.312 . S
C170 O142 1.214 . S
C170 O150 1.234 . S
C171 H143 0.929 . S
C171 C174 1.391 . S
C171 C176 1.391 . S
C172 H144 0.929 . S
C172 C173 1.390 . S
C172 N175 1.391 . S
C173 H145 0.930 . S
C173 C172 1.390 . S
C173 C174 1.392 . S
C174 H146 0.929 . S
C174 C171 1.391 . S
C174 C173 1.392 . S
N175 Co119 2.257 . S
N175 C172 1.391 . S
N175 C176 1.388 . S
C176 H147 0.930 . S
C176 C171 1.391 . S
C176 N175 1.388 . S
Co177 O179 2.143 . S
Co177 O185 2.074 . S
Co177 O188 2.093 . S
Co177 O201 2.097 . S
Co177 N218 2.151 . S
Co177 N226 2.214 . S
Co178 O179 2.160 . S
Co178 O184 2.058 . S
Co178 O194 2.057 . S
Co178 O209 2.037 . S
Co178 N213 2.145 . S
Co178 N234 2.257 . S
O179 Co177 2.143 . S
O179 Co178 2.160 . S
C180 O181 1.278 . S
C180 O188 1.224 . S
O181 C180 1.278 . S
C182 O183 1.245 . S
C182 O194 1.232 . S
O183 C182 1.245 . S
O184 Co178 2.058 . S
O184 C210 1.269 . S
O185 Co177 2.074 . S
O185 C210 1.257 . S
H186 C211 0.930 . S
H187 C217 0.930 . S
O188 Co177 2.093 . S
O188 C180 1.224 . S
H189 C221 0.929 . S
H190 C223 0.930 . S
H191 C224 0.930 . S
H192 C222 0.929 . S
H193 C225 0.928 . S
O194 Co178 2.057 . S
O194 C182 1.232 . S
H195 C214 0.929 . S
H196 C215 0.929 . S
H197 C227 0.931 . S
H198 C219 0.929 . S
H199 C228 0.930 . S
H200 C220 0.931 . S
O201 Co177 2.097 . S
O201 C229 1.214 . S
H202 C230 0.929 . S
H203 C231 0.929 . S
H204 C232 0.930 . S
H205 C233 0.929 . S
H206 C235 0.930 . S
H207 C212 0.930 . S
H208 C216 0.930 . S
O209 Co178 2.037 . S
O209 C229 1.234 . S
C210 O184 1.269 . S
C210 O185 1.257 . S
C211 H186 0.930 . S
C211 C214 1.388 . S
C211 C216 1.418 . S
C212 H207 0.930 . S
C212 C215 1.404 . S
C212 C216 1.353 . S
N213 Co178 2.145 . S
N213 C214 1.397 . S
N213 C215 1.334 . S
C214 H195 0.929 . S
C214 C211 1.388 . S
C214 N213 1.397 . S
C215 H196 0.929 . S
C215 C212 1.404 . S
C215 N213 1.334 . S
C216 H208 0.930 . S
C216 C211 1.418 . S
C216 C212 1.353 . S
C217 H187 0.930 . S
C217 N218 1.330 . S
C217 C219 1.446 1_554 S
N218 Co177 2.151 . S
N218 C217 1.330 . S
N218 C222 1.418 . S
C219 H198 0.929 . S
C219 C217 1.446 1_556 S
C219 C220 1.332 . S
C220 H200 0.931 . S
C220 C219 1.332 . S
C220 C221 1.267 . S
C221 H189 0.929 . S
C221 C220 1.267 . S
C221 C222 1.251 1_556 S
C222 H192 0.929 . S
C222 N218 1.418 . S
C222 C221 1.251 1_554 S
C223 H190 0.930 . S
C223 C225 1.406 . S
C223 C228 1.261 . S
C224 H191 0.930 . S
C224 N226 1.325 . S
C224 C227 1.357 . S
C225 H193 0.928 . S
C225 C223 1.406 . S
C225 N226 1.261 . S
N226 Co177 2.214 . S
N226 C224 1.325 . S
N226 C225 1.261 . S
C227 H197 0.931 . S
C227 C224 1.357 . S
C227 C228 1.312 . S
C228 H199 0.930 . S
C228 C223 1.261 . S
C228 C227 1.312 . S
C229 O201 1.214 . S
C229 O209 1.234 . S
C230 H202 0.929 . S
C230 C233 1.391 . S
C230 C235 1.391 . S
C231 H203 0.929 . S
C231 C232 1.390 . S
C231 N234 1.391 . S
C232 H204 0.930 . S
C232 C231 1.390 . S
C232 C233 1.392 . S
C233 H205 0.929 . S
C233 C230 1.391 . S
C233 C232 1.392 . S
N234 Co178 2.257 . S
N234 C231 1.391 . S
N234 C235 1.388 . S
C235 H206 0.930 . S
C235 C230 1.391 . S
C235 N234 1.388 . S
Co236 O238 2.143 . S
Co236 O244 2.074 . S
Co236 O247 2.093 . S
Co236 O260 2.097 . S
Co236 N277 2.151 . S
Co236 N285 2.214 . S
Co237 O238 2.160 . S
Co237 O243 2.058 . S
Co237 O253 2.057 . S
Co237 O268 2.037 . S
Co237 N272 2.145 . S
Co237 N293 2.257 . S
O238 Co236 2.143 . S
O238 Co237 2.160 . S
C239 O240 1.278 . S
C239 O247 1.224 . S
O240 C239 1.278 . S
C241 O242 1.245 . S
C241 O253 1.232 . S
O242 C241 1.245 . S
O243 Co237 2.058 . S
O243 C269 1.269 . S
O244 Co236 2.074 . S
O244 C269 1.257 . S
H245 C270 0.930 . S
H246 C276 0.930 . S
O247 Co236 2.093 . S
O247 C239 1.224 . S
H248 C280 0.929 1_545 S
H249 C282 0.930 1_556 S
H250 C283 0.930 . S
H251 C281 0.929 . S
H252 C284 0.928 1_556 S
O253 Co237 2.057 . S
O253 C241 1.232 . S
H254 C273 0.929 . S
H255 C274 0.929 . S
H256 C286 0.931 . S
H257 C278 0.929 . S
H258 C287 0.930 1_545 S
H259 C279 0.931 . S
O260 Co236 2.097 . S
O260 C288 1.214 . S
H261 C289 0.929 . S
H262 C290 0.929 . S
H263 C291 0.930 . S
H264 C292 0.929 . S
H265 C294 0.930 . S
H266 C271 0.930 . S
H267 C275 0.930 . S
O268 Co237 2.037 . S
O268 C288 1.234 . S
C269 O243 1.269 . S
C269 O244 1.257 . S
C270 H245 0.930 . S
C270 C273 1.388 . S
C270 C275 1.418 . S
C271 H266 0.930 . S
C271 C274 1.404 . S
C271 C275 1.353 . S
N272 Co237 2.145 . S
N272 C273 1.397 . S
N272 C274 1.334 . S
C273 H254 0.929 . S
C273 C270 1.388 . S
C273 N272 1.397 . S
C274 H255 0.929 . S
C274 C271 1.404 . S
C274 N272 1.334 . S
C275 H267 0.930 . S
C275 C270 1.418 . S
C275 C271 1.353 . S
C276 H246 0.930 . S
C276 N277 1.330 . S
C276 C278 1.446 1_554 S
N277 Co236 2.151 . S
N277 C276 1.330 . S
N277 C281 1.418 . S
C278 H257 0.929 . S
C278 C276 1.446 1_556 S
C278 C279 1.332 . S
C279 H259 0.931 . S
C279 C278 1.332 . S
C279 C280 1.267 . S
C280 H248 0.929 1_565 S
C280 C279 1.267 . S
C280 C281 1.251 1_556 S
C281 H251 0.929 . S
C281 N277 1.418 . S
C281 C280 1.251 1_554 S
C282 H249 0.930 1_554 S
C282 C284 1.406 . S
C282 C287 1.261 . S
C283 H250 0.930 . S
C283 N285 1.325 . S
C283 C286 1.357 . S
C284 H252 0.928 1_554 S
C284 C282 1.406 . S
C284 N285 1.261 . S
N285 Co236 2.214 . S
N285 C283 1.325 . S
N285 C284 1.261 . S
C286 H256 0.931 . S
C286 C283 1.357 . S
C286 C287 1.312 . S
C287 H258 0.930 1_565 S
C287 C282 1.261 . S
C287 C286 1.312 . S
C288 O260 1.214 . S
C288 O268 1.234 . S
C289 H261 0.929 . S
C289 C292 1.391 . S
C289 C294 1.391 . S
C290 H262 0.929 . S
C290 C291 1.390 . S
C290 N293 1.391 . S
C291 H263 0.930 . S
C291 C290 1.390 . S
C291 C292 1.392 . S
C292 H264 0.929 . S
C292 C289 1.391 . S
C292 C291 1.392 . S
N293 Co237 2.257 . S
N293 C290 1.391 . S
N293 C294 1.388 . S
C294 H265 0.930 . S
C294 C289 1.391 . S
C294 N293 1.388 . S
Co295 O297 2.143 . S
Co295 O303 2.074 . S
Co295 O306 2.093 . S
Co295 O319 2.097 1_556 S
Co295 N336 2.151 . S
Co295 N344 2.214 . S
Co296 O297 2.160 1_554 S
Co296 O302 2.058 . S
Co296 O312 2.057 . S
Co296 O327 2.037 . S
Co296 N331 2.145 . S
Co296 N352 2.257 . S
O297 Co295 2.143 . S
O297 Co296 2.160 1_556 S
C298 O299 1.278 . S
C298 O306 1.224 . S
O299 C298 1.278 . S
C300 O301 1.245 . S
C300 O312 1.232 1_556 S
O301 C300 1.245 . S
O302 Co296 2.058 . S
O302 C328 1.269 1_554 S
O303 Co295 2.074 . S
O303 C328 1.257 . S
H304 C329 0.930 . S
H305 C335 0.930 . S
O306 Co295 2.093 . S
O306 C298 1.224 . S
H307 C339 0.929 . S
H308 C341 0.930 . S
H309 C342 0.930 . S
H310 C340 0.929 . S
H311 C343 0.928 . S
O312 Co296 2.057 . S
O312 C300 1.232 1_554 S
H313 C332 0.929 . S
H314 C333 0.929 1_565 S
H315 C345 0.931 . S
H316 C337 0.929 . S
H317 C346 0.930 . S
H318 C338 0.931 . S
O319 Co295 2.097 1_554 S
O319 C347 1.214 . S
H320 C348 0.929 1_565 S
H321 C349 0.929 . S
H322 C350 0.930 . S
H323 C351 0.929 1_565 S
H324 C353 0.930 . S
H325 C330 0.930 . S
H326 C334 0.930 1_565 S
O327 Co296 2.037 . S
O327 C347 1.234 . S
C328 O302 1.269 1_556 S
C328 O303 1.257 . S
C329 H304 0.930 . S
C329 C332 1.388 . S
C329 C334 1.418 . S
C330 H325 0.930 . S
C330 C333 1.404 1_565 S
C330 C334 1.353 1_565 S
N331 Co296 2.145 . S
N331 C332 1.397 . S
N331 C333 1.334 . S
C332 H313 0.929 . S
C332 C329 1.388 . S
C332 N331 1.397 . S
C333 H314 0.929 1_545 S
C333 C330 1.404 1_545 S
C333 N331 1.334 . S
C334 H326 0.930 1_545 S
C334 C329 1.418 . S
C334 C330 1.353 1_545 S
C335 H305 0.930 . S
C335 N336 1.330 . S
C335 C337 1.446 . S
N336 Co295 2.151 . S
N336 C335 1.330 . S
N336 C340 1.418 . S
C337 H316 0.929 . S
C337 C335 1.446 . S
C337 C338 1.332 . S
C338 H318 0.931 . S
C338 C337 1.332 . S
C338 C339 1.267 . S
C339 H307 0.929 . S
C339 C338 1.267 . S
C339 C340 1.251 . S
C340 H310 0.929 . S
C340 N336 1.418 . S
C340 C339 1.251 . S
C341 H308 0.930 . S
C341 C343 1.406 . S
C341 C346 1.261 . S
C342 H309 0.930 . S
C342 N344 1.325 1_554 S
C342 C345 1.357 . S
C343 H311 0.928 . S
C343 C341 1.406 . S
C343 N344 1.261 . S
N344 Co295 2.214 . S
N344 C342 1.325 1_556 S
N344 C343 1.261 . S
C345 H315 0.931 . S
C345 C342 1.357 . S
C345 C346 1.312 1_554 S
C346 H317 0.930 . S
C346 C341 1.261 . S
C346 C345 1.312 1_556 S
C347 O319 1.214 . S
C347 O327 1.234 . S
C348 H320 0.929 1_545 S
C348 C351 1.391 . S
C348 C353 1.391 . S
C349 H321 0.929 . S
C349 C350 1.390 . S
C349 N352 1.391 . S
C350 H322 0.930 . S
C350 C349 1.390 . S
C350 C351 1.392 . S
C351 H323 0.929 1_545 S
C351 C348 1.391 . S
C351 C350 1.392 . S
N352 Co296 2.257 . S
N352 C349 1.391 . S
N352 C353 1.388 . S
C353 H324 0.930 . S
C353 C348 1.391 . S
C353 N352 1.388 . S
C354 C355 1.363 1_556 S
C354 C360 1.379 . S
C354 N362 1.356 . S
C355 C354 1.363 1_554 S
C355 C361 1.363 . S
C356 C357 1.363 . S
C356 C361 1.379 . S
C356 N363 1.356 . S
C357 C356 1.363 . S
C357 C360 1.363 1_554 S
N358 C360 1.356 . S
N358 H370 0.984 . S
N358 H371 0.985 . S
N359 C361 1.356 . S
N359 H364 0.984 . S
N359 H365 0.985 . S
C360 C354 1.379 . S
C360 C357 1.363 1_556 S
C360 N358 1.356 . S
C361 C355 1.363 . S
C361 C356 1.379 . S
C361 N359 1.356 . S
N362 C354 1.356 . S
N362 H368 0.984 . S
N362 H369 0.984 . S
N363 C356 1.356 . S
N363 H366 0.984 . S
N363 H367 0.985 . S
H364 N359 0.984 . S
H365 N359 0.985 . S
H366 N363 0.984 . S
H367 N363 0.985 . S
H368 N362 0.984 . S
H369 N362 0.984 . S
H370 N358 0.984 . S
H371 N358 0.985 . S
C372 C373 1.363 . S
C372 C378 1.379 . S
C372 N380 1.356 . S
C373 C372 1.363 . S
C373 C379 1.363 . S
C374 C375 1.363 . S
C374 C379 1.379 . S
C374 N381 1.356 . S
C375 C374 1.363 . S
C375 C378 1.363 . S
N376 C378 1.356 . S
N376 H388 0.984 . S
N376 H389 0.985 . S
N377 C379 1.356 . S
N377 H382 0.984 . S
N377 H383 0.985 . S
C378 C372 1.379 . S
C378 C375 1.363 . S
C378 N376 1.356 . S
C379 C373 1.363 . S
C379 C374 1.379 . S
C379 N377 1.356 . S
N380 C372 1.356 . S
N380 H386 0.984 . S
N380 H387 0.984 . S
N381 C374 1.356 . S
N381 H384 0.984 . S
N381 H385 0.985 . S
H382 N377 0.984 . S
H383 N377 0.985 . S
H384 N381 0.984 . S
H385 N381 0.985 . S
H386 N380 0.984 . S
H387 N380 0.984 . S
H388 N376 0.984 . S
H389 N376 0.985 . S
C390 C391 1.363 . S
C390 C396 1.379 . S
C390 N398 1.356 . S
C391 C390 1.363 . S
C391 C397 1.363 . S
C392 C393 1.363 1_545 S
C392 C397 1.379 . S
C392 N399 1.356 1_545 S
C393 C392 1.363 1_565 S
C393 C396 1.363 1_565 S
N394 C396 1.356 1_565 S
N394 H406 0.984 . S
N394 H407 0.985 . S
N395 C397 1.356 . S
N395 H400 0.984 . S
N395 H401 0.985 . S
C396 C390 1.379 . S
C396 C393 1.363 1_545 S
C396 N394 1.356 1_545 S
C397 C391 1.363 . S
C397 C392 1.379 . S
C397 N395 1.356 . S
N398 C390 1.356 . S
N398 H404 0.984 . S
N398 H405 0.984 . S
N399 C392 1.356 1_565 S
N399 H402 0.984 . S
N399 H403 0.985 . S
H400 N395 0.984 . S
H401 N395 0.985 . S
H402 N399 0.984 . S
H403 N399 0.985 . S
H404 N398 0.984 . S
H405 N398 0.984 . S
H406 N394 0.984 . S
H407 N394 0.985 . S
C408 C409 1.363 . S
C408 C414 1.379 1_554 S
C408 N416 1.356 . S
C409 C408 1.363 . S
C409 C415 1.363 . S
C410 C411 1.363 . S
C410 C415 1.379 1_556 S
C410 N417 1.356 . S
C411 C410 1.363 . S
C411 C414 1.363 . S
N412 C414 1.356 . S
N412 H424 0.984 . S
N412 H425 0.985 . S
N413 C415 1.356 . S
N413 H418 0.984 . S
N413 H419 0.985 . S
C414 C408 1.379 1_556 S
C414 C411 1.363 . S
C414 N412 1.356 . S
C415 C409 1.363 . S
C415 C410 1.379 1_554 S
C415 N413 1.356 . S
N416 C408 1.356 . S
N416 H422 0.984 . S
N416 H423 0.984 . S
N417 C410 1.356 . S
N417 H420 0.984 . S
N417 H421 0.985 . S
H418 N413 0.984 . S
H419 N413 0.985 . S
H420 N417 0.984 . S
H421 N417 0.985 . S
H422 N416 0.984 . S
H423 N416 0.984 . S
H424 N412 0.984 . S
H425 N412 0.985 . S
C426 C427 1.363 . S
C426 C432 1.379 . S
C426 N434 1.356 . S
C427 C426 1.363 . S
C427 C433 1.363 . S
C428 C429 1.363 1_655 S
C428 C433 1.379 . S
C428 N435 1.356 1_655 S
C429 C428 1.363 1_455 S
C429 C432 1.363 1_455 S
N430 C432 1.356 1_455 S
N430 H442 0.984 . S
N430 H443 0.985 . S
N431 C433 1.356 . S
N431 H436 0.984 . S
N431 H437 0.985 . S
C432 C426 1.379 . S
C432 C429 1.363 1_655 S
C432 N430 1.356 1_655 S
C433 C427 1.363 . S
C433 C428 1.379 . S
C433 N431 1.356 . S
N434 C426 1.356 . S
N434 H440 0.984 . S
N434 H441 0.984 . S
N435 C428 1.356 1_455 S
N435 H438 0.984 . S
N435 H439 0.985 . S
H436 N431 0.984 . S
H437 N431 0.985 . S
H438 N435 0.984 . S
H439 N435 0.985 . S
H440 N434 0.984 . S
H441 N434 0.984 . S
H442 N430 0.984 . S
H443 N430 0.985 . S
C444 C445 1.363 . S
C444 C450 1.379 . S
C444 N452 1.356 . S
C445 C444 1.363 . S
C445 C451 1.363 1_565 S
C446 C447 1.363 1_545 S
C446 C451 1.379 . S
C446 N453 1.356 . S
C447 C446 1.363 1_565 S
C447 C450 1.363 . S
N448 C450 1.356 . S
N448 H460 0.984 . S
N448 H461 0.985 . S
N449 C451 1.356 . S
N449 H454 0.984 . S
N449 H455 0.985 . S
C450 C444 1.379 . S
C450 C447 1.363 . S
C450 N448 1.356 . S
C451 C445 1.363 1_545 S
C451 C446 1.379 . S
C451 N449 1.356 . S
N452 C444 1.356 . S
N452 H458 0.984 . S
N452 H459 0.984 . S
N453 C446 1.356 . S
N453 H456 0.984 . S
N453 H457 0.985 . S
H454 N449 0.984 . S
H455 N449 0.985 . S
H456 N453 0.984 . S
H457 N453 0.985 . S
H458 N452 0.984 . S
H459 N452 0.984 . S
H460 N448 0.984 . S
H461 N448 0.985 . S
C462 C463 1.368 . S
C462 C468 1.381 . S
C462 N470 1.350 1_554 S
C463 C462 1.368 . S
C463 C469 1.363 . S
C464 C465 1.363 . S
C464 C469 1.379 . S
C464 N471 1.356 . S
C465 C464 1.363 . S
C465 C468 1.363 . S
N466 C468 1.356 1_556 S
N466 H478 0.984 . S
N466 H479 0.985 1_556 S
N467 C469 1.356 . S
N467 H472 0.984 . S
N467 H473 0.985 . S
C468 C462 1.381 . S
C468 C465 1.363 . S
C468 N466 1.356 1_554 S
C469 C463 1.363 . S
C469 C464 1.379 . S
C469 N467 1.356 . S
N470 C462 1.350 1_556 S
N470 H476 0.984 . S
N470 H477 0.984 . S
N471 C464 1.356 . S
N471 H474 0.984 . S
N471 H475 0.985 . S
H472 N467 0.984 . S
H473 N467 0.985 . S
H474 N471 0.984 . S
H475 N471 0.985 . S
H476 N470 0.984 . S
H477 N470 0.984 . S
H478 N466 0.984 . S
H479 N466 0.985 1_554 S
C480 C481 1.363 . S
C480 C486 1.379 . S
C480 N488 1.356 . S
C481 C480 1.363 . S
C481 C487 1.363 . S
C482 C483 1.363 . S
C482 C487 1.379 . S
C482 N489 1.356 . S
C483 C482 1.363 . S
C483 C486 1.363 . S
N484 C486 1.356 . S
N484 H496 0.984 . S
N484 H497 0.985 . S
N485 C487 1.356 . S
N485 H490 0.984 . S
N485 H491 0.985 . S
C486 C480 1.379 . S
C486 C483 1.363 . S
C486 N484 1.356 . S
C487 C481 1.363 . S
C487 C482 1.379 . S
C487 N485 1.356 . S
N488 C480 1.356 . S
N488 H494 0.984 . S
N488 H495 0.984 . S
N489 C482 1.356 . S
N489 H492 0.984 . S
N489 H493 0.985 1_556 S
H490 N485 0.984 . S
H491 N485 0.985 . S
H492 N489 0.984 . S
H493 N489 0.985 1_554 S
H494 N488 0.984 . S
H495 N488 0.984 . S
H496 N484 0.984 . S
H497 N484 0.985 . S
C498 C499 1.363 . S
C498 C504 1.379 . S
C498 N506 1.356 . S
C499 C498 1.363 . S
C499 C505 1.363 . S
C500 C501 1.363 . S
C500 C505 1.379 . S
C500 N507 1.356 . S
C501 C500 1.363 . S
C501 C504 1.363 . S
N502 C504 1.356 . S
N502 H514 0.984 . S
N502 H515 0.985 . S
N503 C505 1.356 . S
N503 H508 0.984 . S
N503 H509 0.985 . S
C504 C498 1.379 . S
C504 C501 1.363 . S
C504 N502 1.356 . S
C505 C499 1.363 . S
C505 C500 1.379 . S
C505 N503 1.356 . S
N506 C498 1.356 . S
N506 H512 0.984 . S
N506 H513 0.984 . S
N507 C500 1.356 . S
N507 H510 0.984 . S
N507 H511 0.985 . S
H508 N503 0.984 . S
H509 N503 0.985 . S
H510 N507 0.984 . S
H511 N507 0.985 . S
H512 N506 0.984 . S
H513 N506 0.984 . S
H514 N502 0.984 . S
H515 N502 0.985 . S
C516 C517 1.363 . S
C516 C522 1.379 . S
C516 N524 1.356 . S
C517 C516 1.363 . S
C517 C523 1.363 . S
C518 C519 1.363 . S
C518 C523 1.379 . S
C518 N525 1.356 . S
C519 C518 1.363 . S
C519 C522 1.363 . S
N520 C522 1.356 . S
N520 H532 0.984 . S
N520 H533 0.985 . S
N521 C523 1.356 . S
N521 H526 0.984 . S
N521 H527 0.985 . S
C522 C516 1.379 . S
C522 C519 1.363 . S
C522 N520 1.356 . S
C523 C517 1.363 . S
C523 C518 1.379 . S
C523 N521 1.356 . S
N524 C516 1.356 . S
N524 H530 0.984 . S
N524 H531 0.984 . S
N525 C518 1.356 . S
N525 H528 0.984 . S
N525 H529 0.985 . S
H526 N521 0.984 . S
H527 N521 0.985 . S
H528 N525 0.984 . S
H529 N525 0.985 . S
H530 N524 0.984 . S
H531 N524 0.984 . S
H532 N520 0.984 . S
H533 N520 0.985 . S
C534 C535 1.363 . S
C534 C540 1.379 . S
C534 N542 1.356 . S
C535 C534 1.363 . S
C535 C541 1.363 . S
C536 C537 1.363 . S
C536 C541 1.379 . S
C536 N543 1.356 . S
C537 C536 1.363 . S
C537 C540 1.363 . S
N538 C540 1.356 . S
N538 H550 0.984 . S
N538 H551 0.985 . S
N539 C541 1.356 . S
N539 H544 0.984 . S
N539 H545 0.985 . S
C540 C534 1.379 . S
C540 C537 1.363 . S
C540 N538 1.356 . S
C541 C535 1.363 . S
C541 C536 1.379 . S
C541 N539 1.356 . S
N542 C534 1.356 . S
N542 H548 0.984 . S
N542 H549 0.984 . S
N543 C536 1.356 . S
N543 H546 0.984 . S
N543 H547 0.985 . S
H544 N539 0.984 . S
H545 N539 0.985 . S
H546 N543 0.984 . S
H547 N543 0.985 . S
H548 N542 0.984 . S
H549 N542 0.984 . S
H550 N538 0.984 . S
H551 N538 0.985 . S
C552 C553 1.363 . S
C552 C558 1.379 . S
C552 N560 1.356 . S
C553 C552 1.363 . S
C553 C559 1.363 . S
C554 C555 1.363 . S
C554 C559 1.379 . S
C554 N561 1.356 . S
C555 C554 1.363 . S
C555 C558 1.363 . S
N556 C558 1.356 . S
N556 H568 0.984 . S
N556 H569 0.985 . S
N557 C559 1.356 . S
N557 H562 0.984 . S
N557 H563 0.985 . S
C558 C552 1.379 . S
C558 C555 1.363 . S
C558 N556 1.356 . S
C559 C553 1.363 . S
C559 C554 1.379 . S
C559 N557 1.356 . S
N560 C552 1.356 . S
N560 H566 0.984 . S
N560 H567 0.984 . S
N561 C554 1.356 . S
N561 H564 0.984 . S
N561 H565 0.985 . S
H562 N557 0.984 . S
H563 N557 0.985 . S
H564 N561 0.984 . S
H565 N561 0.985 . S
H566 N560 0.984 . S
H567 N560 0.984 . S
H568 N556 0.984 . S
H569 N556 0.985 . S
C355 C5 1.434 . S
C357 C328 1.435 1_554 S
C373 C64 2.288 1_455 S
C375 C33 2.290 . S
C391 C92 1.457 . S
C393 C123 1.458 . S
C409 C182 2.296 . S
C411 C151 2.287 . S
C427 C210 1.464 . S
C429 C241 1.462 . S
C445 C300 2.304 1_565 S
C447 C269 2.279 . S
C463 C239 1.640 . S
C465 C52 1.855 . S
C481 C298 1.748 . S
C483 C111 1.605 . S
C499 C170 1.822 . S
C501 C3 1.624 . S
C517 C229 1.615 . S
C519 C62 1.743 . S
C535 C288 1.826 . S
C537 C121 1.629 . S
C553 C347 1.618 . S
C555 C180 1.753 . S
