# Generated by pormake.
# Topology smk, (6)-cn, num edge types: 1
# Building blocks:
#     Node 0, Type 0, BuildingBlock: UKALOJ_clean_sbu_0, # of connection points: 6
#     Node 1, Type 0, BuildingBlock: UKALOJ_clean_sbu_0, # of connection points: 6
#     Node 2, Type 0, BuildingBlock: UKALOJ_clean_sbu_0, # of connection points: 6
#     Node 3, Type 0, BuildingBlock: UKALOJ_clean_sbu_0, # of connection points: 6
#     Node 4, Type 0, BuildingBlock: UKALOJ_clean_sbu_0, # of connection points: 6
#     Node 5, Type 0, BuildingBlock: UKALOJ_clean_sbu_0, # of connection points: 6
#     Edge 6, Type (0, 0), BuildingBlock: XIVTED_clean_linker_0, # of connection points: 2
#     Edge 7, Type (0, 0), BuildingBlock: XIVTED_clean_linker_0, # of connection points: 2
#     Edge 8, Type (0, 0), BuildingBlock: XIVTED_clean_linker_0, # of connection points: 2
#     Edge 9, Type (0, 0), BuildingBlock: XIVTED_clean_linker_0, # of connection points: 2
#     Edge 10, Type (0, 0), BuildingBlock: XIVTED_clean_linker_0, # of connection points: 2
#     Edge 11, Type (0, 0), BuildingBlock: XIVTED_clean_linker_0, # of connection points: 2
#     Edge 12, Type (0, 0), BuildingBlock: XIVTED_clean_linker_0, # of connection points: 2
#     Edge 13, Type (0, 0), BuildingBlock: XIVTED_clean_linker_0, # of connection points: 2
#     Edge 14, Type (0, 0), BuildingBlock: XIVTED_clean_linker_0, # of connection points: 2
#     Edge 15, Type (0, 0), BuildingBlock: XIVTED_clean_linker_0, # of connection points: 2
#     Edge 16, Type (0, 0), BuildingBlock: XIVTED_clean_linker_0, # of connection points: 2
#     Edge 17, Type (0, 0), BuildingBlock: XIVTED_clean_linker_0, # of connection points: 2
#     Edge 18, Type (0, 0), BuildingBlock: XIVTED_clean_linker_0, # of connection points: 2
#     Edge 19, Type (0, 0), BuildingBlock: XIVTED_clean_linker_0, # of connection points: 2
#     Edge 20, Type (0, 0), BuildingBlock: XIVTED_clean_linker_0, # of connection points: 2
#     Edge 21, Type (0, 0), BuildingBlock: XIVTED_clean_linker_0, # of connection points: 2
#     Edge 22, Type (0, 0), BuildingBlock: XIVTED_clean_linker_0, # of connection points: 2
#     Edge 23, Type (0, 0), BuildingBlock: XIVTED_clean_linker_0, # of connection points: 2
# Relax obj value: 0.276
# Max RMSD: 0.209
# Mean RMSD: 0.209
data_MOF--net-smk--node1-UKALOJ_clean_sbu_0--edge1-XIVTED_clean_linker_0
_symmetry_space_group_name_H-M    P1
_symmetry_Int_Tables_number       1
_symmetry_cell_setting            triclinic
loop_
_symmetry_equiv_pos_as_xyz
'x, y, z'
_cell_length_a     46.569666
_cell_length_b     46.697855
_cell_length_c     15.478959
_cell_angle_alpha  90.295627
_cell_angle_beta   89.091203
_cell_angle_gamma 119.90017
loop_
_atom_site_label
_atom_site_type_symbol
_atom_site_fract_x
_atom_site_fract_y
_atom_site_fract_z
_atom_type_partial_charge
Zn0 Zn 0.43489 0.22461 0.50339 0.0
O1 O 0.40018 0.17353 0.51441 0.0
C2 C 0.45759 0.22441 0.68063 0.0
Zn3 Zn 0.47764 0.21532 0.50389 0.0
C4 C 0.41105 0.15336 0.51394 0.0
O5 O 0.44213 0.16444 0.51086 0.0
C6 C 0.50095 0.28639 0.48593 0.0
O7 O 0.47765 0.2124 0.36789 0.0
O8 O 0.43466 0.21987 0.36807 0.0
N9 N 0.51447 0.20343 0.51148 0.0
C10 C 0.54294 0.21746 0.55606 0.0
C11 C 0.53529 0.17125 0.50891 0.0
N12 N 0.50988 0.17481 0.48196 0.0
N13 N 0.55626 0.19749 0.5564 0.0
C14 C 0.37864 0.2409 0.55353 0.0
C15 C 0.36775 0.2529 0.43033 0.0
N16 N 0.39727 0.23572 0.49465 0.0
N17 N 0.39012 0.24292 0.4181 0.0
N18 N 0.3602 0.25193 0.51491 0.0
H19 H 0.37701 0.21016 0.65808 0.0
H20 H 0.35464 0.23178 0.679 0.0
H21 H 0.39928 0.25416 0.67917 0.0
C22 C 0.37722 0.23376 0.64806 0.0
C23 C 0.55888 0.25187 0.59179 0.0
H24 H 0.56365 0.26936 0.53821 0.0
H25 H 0.58311 0.25963 0.62148 0.0
H26 H 0.54205 0.25403 0.63943 0.0
O27 O 0.51175 0.26637 0.49414 0.0
O28 O 0.46992 0.27555 0.48885 0.0
C29 C 0.45585 0.21535 0.32673 0.0
O30 O 0.43689 0.22916 0.63969 0.0
O31 O 0.47743 0.21812 0.6389 0.0
Zn32 Zn 0.22177 0.42127 0.66828 0.0
O33 O 0.23566 0.38457 0.6774 0.0
C34 C 0.24447 0.44306 0.84636 0.0
Zn35 Zn 0.27478 0.46134 0.66996 0.0
C36 C 0.26626 0.39342 0.67948 0.0
O37 O 0.28777 0.424 0.67834 0.0
C38 C 0.22985 0.48864 0.65224 0.0
O39 O 0.2783 0.46075 0.53359 0.0
O40 O 0.2264 0.42076 0.53321 0.0
N41 N 0.32399 0.49647 0.67993 0.0
C42 C 0.33855 0.52529 0.72351 0.0
C43 C 0.37673 0.51537 0.68348 0.0
N44 N 0.34778 0.49043 0.65489 0.0
N45 N 0.37161 0.53742 0.72761 0.0
C46 C 0.15081 0.36367 0.71595 0.0
C47 C 0.1244 0.36052 0.60196 0.0
N48 N 0.17282 0.38581 0.65912 0.0
N49 N 0.15636 0.38354 0.58803 0.0
N50 N 0.12026 0.34768 0.68188 0.0
H51 H 0.18479 0.36038 0.80247 0.0
H52 H 0.14151 0.33094 0.8235 0.0
H53 H 0.15781 0.37366 0.85066 0.0
C54 C 0.15933 0.35665 0.80314 0.0
C55 C 0.32061 0.54276 0.75432 0.0
H56 H 0.31074 0.54912 0.69743 0.0
H57 H 0.33683 0.56627 0.78759 0.0
H58 H 0.29953 0.52636 0.79736 0.0
O59 O 0.26026 0.49738 0.6595 0.0
O60 O 0.20818 0.45815 0.65519 0.0
C61 C 0.25283 0.44033 0.49211 0.0
O62 O 0.21862 0.42327 0.80527 0.0
O63 O 0.271 0.46162 0.80471 0.0
Zn64 Zn 0.81477 0.20892 0.84736 0.0
O65 O 0.86429 0.21909 0.85551 0.0
C66 C 0.81725 0.23207 0.02635 0.0
Zn67 Zn 0.83036 0.26253 0.85089 0.0
C68 C 0.88717 0.24914 0.85704 0.0
O69 O 0.87969 0.27186 0.85601 0.0
C70 C 0.7579 0.22166 0.83461 0.0
O71 O 0.83392 0.26608 0.71462 0.0
O72 O 0.82017 0.21369 0.71237 0.0
N73 N 0.84786 0.31225 0.86491 0.0
C74 C 0.83365 0.33123 0.85898 0.0
C75 C 0.88032 0.3603 0.91891 0.0
N76 N 0.877 0.33056 0.90136 0.0
N77 N 0.85333 0.36136 0.89369 0.0
C78 C 0.79573 0.13617 0.89128 0.0
C79 C 0.77303 0.11145 0.77458 0.0
N80 N 0.79813 0.15936 0.83544 0.0
N81 N 0.78425 0.14391 0.7627 0.0
N82 N 0.77994 0.10598 0.85486 0.0
H83 H 0.833 0.16737 -0.01829 0.0
H84 H 0.8153 0.12352 0.00066 0.0
H85 H 0.79146 0.14319 0.02582 0.0
C86 C 0.8099 0.14306 -0.02001 0.0
C87 C 0.80161 0.32096 0.81466 0.0
H88 H 0.79874 0.30464 0.75916 0.0
H89 H 0.80064 0.34285 0.79109 0.0
H90 H 0.78076 0.30723 0.8609 0.0
O91 O 0.7805 0.25148 0.8448 0.0
O92 O 0.7654 0.19896 0.83499 0.0
C93 C 0.82786 0.24029 0.6722 0.0
O94 O 0.8095 0.20581 -0.01574 0.0
O95 O 0.8267 0.25885 -0.01437 0.0
Zn96 Zn 0.60967 0.80246 0.02061 0.0
O97 O 0.64706 0.85233 0.03059 0.0
C98 C 0.58708 0.80359 0.19927 0.0
Zn99 Zn 0.57 0.81613 0.02385 0.0
C100 C 0.63882 0.87447 0.03409 0.0
O101 O 0.60831 0.86609 0.03377 0.0
C102 C 0.54168 0.74409 0.00294 0.0
O103 O 0.57149 0.82056 0.88771 0.0
O104 O 0.61092 0.80774 0.88563 0.0
N105 N 0.53562 0.83137 0.03521 0.0
C106 C 0.50661 0.81815 0.07958 0.0
C107 C 0.51772 0.86601 0.03726 0.0
N108 N 0.5424 0.86105 0.00879 0.0
N109 N 0.49509 0.83962 0.08271 0.0
C110 C 0.66598 0.78687 0.06415 0.0
C111 C 0.67036 0.76586 0.94566 0.0
N112 N 0.64459 0.78809 0.00865 0.0
N113 N 0.6476 0.77525 0.93486 0.0
N114 N 0.68226 0.77287 0.02635 0.0
H115 H 0.6695 0.82302 0.15643 0.0
H116 H 0.69721 0.80709 0.17505 0.0
H117 H 0.65365 0.78171 0.19833 0.0
C118 C 0.67207 0.80067 0.15368 0.0
C119 C 0.48839 0.78316 0.112 0.0
H120 H 0.48206 0.76634 0.056 0.0
H121 H 0.46476 0.77668 0.14539 0.0
H122 H 0.50436 0.77855 0.15543 0.0
O123 O 0.53305 0.76586 0.01135 0.0
O124 O 0.57216 0.75264 0.00666 0.0
C125 C 0.5919 0.81509 0.84539 0.0
O126 O 0.607 0.79734 0.1573 0.0
O127 O 0.56882 0.81173 0.15854 0.0
Zn128 Zn 0.76794 0.56767 0.14938 0.0
O129 O 0.7646 0.56998 0.01378 0.0
C130 C 0.80897 0.53608 0.12243 0.0
Zn131 Zn 0.82188 0.60505 0.14498 0.0
C132 C 0.79078 0.58888 -0.02936 0.0
O133 O 0.81779 0.6065 0.00996 0.0
C134 C 0.79838 0.58316 0.32398 0.0
O135 O 0.81116 0.64403 0.15784 0.0
O136 O 0.75819 0.60694 0.16492 0.0
N137 N 0.87161 0.63808 0.13403 0.0
C138 C 0.89375 0.65948 0.19045 0.0
C139 C 0.92075 0.66016 0.07742 0.0
N140 N 0.88845 0.63879 0.0635 0.0
N141 N 0.9247 0.67344 0.15673 0.0
C142 C 0.7022 0.5062 0.20731 0.0
C143 C 0.66573 0.51805 0.16753 0.0
N144 N 0.71809 0.53473 0.1622 0.0
N145 N 0.69537 0.542 0.13736 0.0
N146 N 0.66938 0.49546 0.21245 0.0
H147 H 0.72763 0.47968 0.18179 0.0
H148 H 0.70145 0.4647 0.27442 0.0
H149 H 0.74003 0.50344 0.27933 0.0
C150 C 0.71855 0.48749 0.23857 0.0
C151 C 0.88518 0.66776 0.27707 0.0
H152 H 0.8601 0.66496 0.27693 0.0
H153 H 0.90358 0.69346 0.29524 0.0
H154 H 0.88587 0.65093 0.326 0.0
O155 O 0.8246 0.6022 0.28137 0.0
O156 O 0.77161 0.56584 0.28394 0.0
C157 C 0.7811 0.637 0.16513 0.0
O158 O 0.77909 0.52944 0.13106 0.0
O159 O 0.83214 0.56589 0.12867 0.0
Zn160 Zn 0.22539 0.81349 0.36032 0.0
O161 O 0.17444 0.7987 0.36435 0.0
C162 C 0.22073 0.78765 0.53766 0.0
Zn163 Zn 0.21289 0.76069 0.36112 0.0
C164 C 0.15282 0.7682 0.36617 0.0
O165 O 0.1621 0.74683 0.36776 0.0
C166 C 0.28546 0.80626 0.34706 0.0
O167 O 0.21113 0.76021 0.22485 0.0
O168 O 0.22396 0.81239 0.2253 0.0
N169 N 0.19936 0.71156 0.36513 0.0
C170 C 0.21286 0.69588 0.40667 0.0
C171 C 0.1667 0.65887 0.35656 0.0
N172 N 0.17074 0.68851 0.33389 0.0
N173 N 0.19263 0.66278 0.40303 0.0
C174 C 0.26224 0.88894 0.39602 0.0
C175 C 0.2316 0.90432 0.33408 0.0
N176 N 0.23703 0.86192 0.35994 0.0
N177 N 0.21802 0.87154 0.32153 0.0
N178 N 0.25948 0.9159 0.38029 0.0
H179 H 0.29653 0.9076 0.50171 0.0
H180 H 0.31015 0.89387 0.40882 0.0
H181 H 0.27951 0.86417 0.48106 0.0
C182 C 0.28843 0.88854 0.45047 0.0
C183 C 0.24721 0.71314 0.44245 0.0
H184 H 0.26512 0.72452 0.38809 0.0
H185 H 0.25375 0.69627 0.47532 0.0
H186 H 0.25029 0.73303 0.48727 0.0
O187 O 0.26389 0.77578 0.35204 0.0
O188 O 0.27626 0.82768 0.35105 0.0
C189 C 0.21723 0.78626 0.18387 0.0
O190 O 0.22611 0.8134 0.49678 0.0
O191 O 0.2147 0.76184 0.49602 0.0
H192 H 0.49902 0.20927 0.21593 0.0
H193 H 0.41471 0.23033 0.7929 0.0
H194 H 0.41299 0.22153 0.22059 0.0
H195 H 0.50084 0.21833 0.78582 0.0
H196 H 0.41413 0.22766 0.94997 0.0
H197 H 0.50003 0.21212 0.05818 0.0
C198 C 0.48025 0.21239 0.18381 0.0
C199 C 0.4559 0.21519 0.23147 0.0
C200 C 0.43322 0.22571 0.91409 0.0
C201 C 0.45704 0.21868 0.05133 0.0
C202 C 0.43364 0.22739 0.82422 0.0
C203 C 0.45785 0.2246 0.77594 0.0
C204 C 0.45717 0.22117 -0.04391 0.0
C205 C 0.48165 0.22054 0.8204 0.0
C206 C 0.4809 0.21411 0.0938 0.0
C207 C 0.43224 0.21927 0.1865 0.0
N208 N 0.48068 0.21889 0.908 0.0
N209 N 0.43345 0.22095 0.09898 0.0
H210 H 0.30358 0.48025 0.38094 0.0
H211 H 0.19343 0.4053 -0.0407 0.0
H212 H 0.20199 0.4007 0.38618 0.0
H213 H 0.2962 0.48196 0.95107 0.0
H214 H 0.19581 0.40432 0.11639 0.0
H215 H 0.30145 0.48169 0.22332 0.0
C216 C 0.28092 0.46297 0.34898 0.0
C217 C 0.25293 0.44035 0.39679 0.0
C218 C 0.21784 0.42139 0.0802 0.0
C219 C 0.25022 0.44203 0.21684 0.0
C220 C 0.21644 0.42199 -0.00963 0.0
C221 C 0.24465 0.44355 0.94174 0.0
C222 C 0.24767 0.44256 0.12176 0.0
C223 C 0.27382 0.46479 -0.01414 0.0
C224 C 0.27967 0.46387 0.25905 0.0
C225 C 0.22418 0.41858 0.352 0.0
N226 N 0.2746 0.4637 0.07335 0.0
N227 N 0.22356 0.42003 0.26463 0.0
H228 H 0.80202 0.18063 0.13754 0.0
H229 H 0.84033 0.29142 0.56278 0.0
H230 H 0.83234 0.28434 0.13282 0.0
H231 H 0.81485 0.18891 0.56459 0.0
H232 H 0.83695 0.28934 0.40513 0.0
H233 H 0.80511 0.18289 0.29471 0.0
C234 C 0.80917 0.20381 0.1694 0.0
C235 C 0.81701 0.2323 0.12174 0.0
C236 C 0.83219 0.26735 0.44012 0.0
C237 C 0.82078 0.2352 0.30181 0.0
C238 C 0.83422 0.26856 0.53005 0.0
C239 C 0.82788 0.24032 0.5769 0.0
C240 C 0.82369 0.23767 0.39695 0.0
C241 C 0.81996 0.21131 0.53117 0.0
C242 C 0.81103 0.20515 0.25926 0.0
C243 C 0.82613 0.26173 0.16684 0.0
N244 N 0.81802 0.21073 0.44381 0.0
N245 N 0.82782 0.26243 0.25432 0.0
H246 H 0.54583 0.81391 0.30596 0.0
H247 H 0.63295 0.80498 0.73776 0.0
H248 H 0.6266 0.79353 0.31024 0.0
H249 H 0.55171 0.82477 0.73583 0.0
H250 H 0.63121 0.8013 0.58082 0.0
H251 H 0.5472 0.81756 0.46318 0.0
C252 C 0.56377 0.81002 0.3399 0.0
C253 C 0.58624 0.80345 0.29466 0.0
C254 C 0.61381 0.80654 0.61458 0.0
C255 C 0.58802 0.80783 0.47478 0.0
C256 C 0.61484 0.80875 0.7043 0.0
C257 C 0.59239 0.81517 0.75006 0.0
C258 C 0.59014 0.81072 0.57003 0.0
C259 C 0.56949 0.81981 0.70316 0.0
C260 C 0.56457 0.8122 0.42974 0.0
C261 C 0.60884 0.79859 0.34219 0.0
N262 N 0.5689 0.8174 0.6156 0.0
N263 N 0.60922 0.80098 0.42966 0.0
H264 H 0.85075 0.61608 0.43313 0.0
H265 H 0.73856 0.55269 0.86334 0.0
H266 H 0.74519 0.54885 0.43266 0.0
H267 H 0.84304 0.62457 0.86057 0.0
H268 H 0.74041 0.55029 0.70561 0.0
H269 H 0.8486 0.61804 0.59039 0.0
C270 C 0.82715 0.60171 0.46595 0.0
C271 C 0.79812 0.58257 0.41941 0.0
C272 C 0.76289 0.56667 0.73959 0.0
C273 C 0.79539 0.58462 0.59973 0.0
C274 C 0.76182 0.56813 0.8296 0.0
C275 C 0.79068 0.58885 0.87524 0.0
C276 C 0.79305 0.58598 0.69504 0.0
C277 C 0.82016 0.60824 0.82814 0.0
C278 C 0.8259 0.60284 0.55589 0.0
C279 C 0.76823 0.56408 0.46578 0.0
N280 N 0.82059 0.60624 0.74071 0.0
N281 N 0.76762 0.56566 0.55335 0.0
H282 H 0.2289 0.83758 0.07762 0.0
H283 H 0.20992 0.73654 0.64367 0.0
H284 H 0.20582 0.73578 0.07343 0.0
H285 H 0.23176 0.83795 0.64813 0.0
H286 H 0.20885 0.73596 0.80117 0.0
H287 H 0.23018 0.83818 0.9202 0.0
C288 C 0.22403 0.81531 0.04359 0.0
C289 C 0.21725 0.78657 0.08871 0.0
C290 C 0.21388 0.75835 0.76774 0.0
C291 C 0.21877 0.78715 0.90846 0.0
C292 C 0.21453 0.75872 0.67779 0.0
C293 C 0.22085 0.78733 0.63277 0.0
C294 C 0.2196 0.78679 0.813 0.0
C295 C 0.22672 0.81535 0.68028 0.0
C296 C 0.22481 0.8157 -0.04633 0.0
C297 C 0.21114 0.75847 0.04124 0.0
N298 N 0.22591 0.81435 0.76794 0.0
N299 N 0.21208 0.75948 -0.04643 0.0
H300 H 0.42678 0.10439 0.50347 0.0
H301 H 0.24031 0.9585 0.43805 0.0
H302 H 0.34297 0.12022 0.51047 0.0
H303 H 0.3267 0.95065 0.37702 0.0
H304 H 0.27656 0.01622 0.48086 0.0
H305 H 0.38932 0.04588 0.47727 0.0
C306 C 0.40044 0.09553 0.50038 0.0
C307 C 0.38804 0.11735 0.50856 0.0
C308 C 0.28755 1.00174 0.45885 0.0
C309 C 0.34496 0.05022 0.47779 0.0
C310 C 0.26692 0.96893 0.43434 0.0
C311 C 0.28058 0.94962 0.40618 0.0
C312 C 0.32208 0.01529 0.45469 0.0
C313 C 0.31516 0.96425 0.40151 0.0
C314 C 0.37907 0.06209 0.48497 0.0
C315 C 0.35363 0.10433 0.5042 0.0
N316 N 0.3347 0.99616 0.42578 0.0
N317 N 0.33328 0.0716 0.48864 0.0
H318 H 0.30045 0.24273 0.46975 0.0
H319 H 0.32642 0.40144 0.72245 0.0
H320 H 0.38124 0.29685 0.64338 0.0
H321 H 0.23115 0.3294 0.62361 0.0
H322 H 0.34663 0.36294 0.69533 0.0
H323 H 0.27399 0.27362 0.52473 0.0
C324 C 0.31221 0.26072 0.52057 0.0
C325 C 0.34265 0.26694 0.55331 0.0
C326 C 0.32116 0.35534 0.68063 0.0
C327 C 0.31325 0.30275 0.61498 0.0
C328 C 0.30963 0.37733 0.696 0.0
C329 C 0.27713 0.36865 0.67478 0.0
C330 C 0.30026 0.32468 0.64212 0.0
C331 C 0.25639 0.33705 0.64095 0.0
C332 C 0.29719 0.27826 0.552 0.0
C333 C 0.35735 0.29079 0.61813 0.0
N334 N 0.26847 0.31636 0.62437 0.0
N335 N 0.34268 0.30806 0.64625 0.0
H336 H 0.91352 0.21308 0.78784 0.0
H337 H 0.10002 0.36044 0.83422 0.0
H338 H 0.94063 0.30588 0.91223 0.0
H339 H 0.0686 0.29119 0.6237 0.0
H340 H 0.04369 0.33125 0.89483 0.0
H341 H 0.97245 0.23264 0.75863 0.0
C342 C 0.93191 0.23725 0.81065 0.0
C343 C 0.9223 0.25807 0.85178 0.0
C344 C 0.04927 0.32203 0.83632 0.0
C345 C 0.9893 0.28031 0.81918 0.0
C346 C 0.08144 0.33842 0.80236 0.0
C347 C 0.08887 0.32781 0.72463 0.0
C348 C 0.02442 0.29484 0.79223 0.0
C349 C 0.06366 0.29987 0.68402 0.0
C350 C 0.9654 0.24841 0.79351 0.0
C351 C 0.94703 0.28921 0.87956 0.0
N352 N 0.03242 0.28433 0.71815 0.0
N353 N 0.97941 0.29945 0.86248 0.0
H354 H 0.63303 0.9277 0.08271 0.0
H355 H 0.78381 0.0535 0.79695 0.0
H356 H 0.70215 0.90135 -0.02919 0.0
H357 H 0.74325 0.08598 0.00172 0.0
H358 H 0.7538 0.99717 0.85683 0.0
H359 H 0.67264 0.98587 0.05287 0.0
C360 C 0.65675 0.93423 0.05299 0.0
C361 C 0.66429 0.90972 0.02876 0.0
C362 C 0.75204 0.01678 0.88969 0.0
C363 C 0.70931 0.976 -0.00711 0.0
C364 C 0.76905 0.04873 0.85549 0.0
C365 C 0.76624 0.0742 0.89541 0.0
C366 C 0.73136 1.01026 -0.03728 0.0
C367 C 0.74653 0.06702 -0.02961 0.0
C368 C 0.67935 0.9674 0.03615 0.0
C369 C 0.69539 0.91951 -0.0094 0.0
N370 N 0.72943 0.03558 0.00103 0.0
N371 N 0.71657 0.95189 -0.02766 0.0
H372 H 0.81708 0.69982 0.10034 0.0
H373 H 0.66929 0.73813 0.17473 0.0
H374 H 0.72467 0.63351 0.22967 0.0
H375 H 0.73919 0.7788 -0.03736 0.0
H376 H 0.69866 0.71053 0.22719 0.0
H377 H 0.79755 0.73944 0.08123 0.0
C378 C 0.79301 0.69392 0.12632 0.0
C379 C 0.77227 0.66325 0.16582 0.0
C380 C 0.70798 0.72604 0.17016 0.0
C381 C 0.75003 0.7083 0.14466 0.0
C382 C 0.69147 0.74205 0.14085 0.0
C383 C 0.7022 0.761 0.06496 0.0
C384 C 0.7354 0.72907 0.12322 0.0
C385 C 0.73039 0.76443 0.0216 0.0
C386 C 0.78185 0.71641 0.11496 0.0
C387 C 0.74126 0.65675 0.19799 0.0
N388 N 0.74602 0.74848 0.05114 0.0
N389 N 0.73101 0.67903 0.18635 0.0
H390 H 0.97827 0.72973 0.10232 0.0
H391 H 0.09924 0.70843 0.40848 0.0
H392 H 0.94189 0.65726 0.3064 0.0
H393 H 0.12607 0.80321 0.297 0.0
H394 H 0.04157 0.68839 0.36962 0.0
H395 H 0.03331 0.75677 0.1685 0.0
C396 C 0.98189 0.72 0.16195 0.0
C397 C 0.95569 0.69171 0.2 0.0
C398 C 0.06 0.71374 0.35495 0.0
C399 C 1.01817 0.72159 0.27448 0.0
C400 C 0.09288 0.72516 0.37701 0.0
C401 C 0.11743 0.75747 0.35567 0.0
C402 C 0.0518 0.73453 0.30937 0.0
C403 C 0.10787 0.77813 0.31484 0.0
C404 C 1.01309 0.73534 0.19972 0.0
C405 C 0.96141 0.6795 0.27647 0.0
N406 N 0.07586 0.76613 0.29158 0.0
N407 N 0.99218 0.69425 0.31068 0.0
H408 H 0.48722 0.32714 0.39184 0.0
H409 H 0.67221 0.4783 0.37772 0.0
H410 H 0.567 0.32404 0.52136 0.0
H411 H 0.60754 0.45228 0.15987 0.0
H412 H 0.62966 0.4294 0.4553 0.0
H413 H 0.52721 0.38132 0.33164 0.0
C414 C 0.51304 0.33817 0.40909 0.0
C415 C 0.52392 0.32105 0.46125 0.0
C416 C 0.62485 0.43443 0.3905 0.0
C417 C 0.56948 0.38281 0.39304 0.0
C418 C 0.64914 0.462 0.34602 0.0
C419 C 0.64384 0.46821 0.26084 0.0
C420 C 0.59461 0.41366 0.3506 0.0
C421 C 0.61277 0.4477 0.22462 0.0
C422 C 0.53579 0.36888 0.37415 0.0
C423 C 0.55767 0.33631 0.48084 0.0
N424 N 0.58929 0.42113 0.26953 0.0
N425 N 0.57932 0.36639 0.44666 0.0
H426 H 0.2601 0.55381 0.69831 0.0
H427 H 0.17804 0.60413 0.33327 0.0
H428 H 0.17858 0.47977 0.55196 0.0
H429 H 0.21091 0.66082 0.56769 0.0
H430 H 0.18317 0.55972 0.40292 0.0
H431 H 0.24803 0.59579 0.64294 0.0
C432 C 0.2395 0.54639 0.65524 0.0
C433 C 0.22032 0.51337 0.62953 0.0
C434 C 0.18939 0.58199 0.43884 0.0
C435 C 0.20694 0.56112 0.56473 0.0
C436 C 0.1866 0.60726 0.39912 0.0
C437 C 0.19548 0.63666 0.44361 0.0
C438 C 0.20133 0.58634 0.5234 0.0
C439 C 0.20559 0.63927 0.52966 0.0
C440 C 0.23258 0.57026 0.62393 0.0
C441 C 0.1938 0.50496 0.5738 0.0
N442 N 0.2088 0.61466 0.5664 0.0
N443 N 0.18821 0.5288 0.54202 0.0
H444 H 0.71413 0.16969 0.73818 0.0
H445 H 0.57395 0.21881 0.72139 0.0
H446 H 0.72605 0.25672 0.86894 0.0
H447 H 0.60001 0.17939 0.50062 0.0
H448 H 0.62172 0.22324 0.7981 0.0
H449 H 0.66298 0.16206 0.67479 0.0
C450 C 0.70563 0.18682 0.75503 0.0
C451 C 0.72444 0.21402 0.80856 0.0
C452 C 0.61705 0.21389 0.73261 0.0
C453 C 0.66606 0.20532 0.73632 0.0
C454 C 0.59019 0.21184 0.68836 0.0
C455 C 0.58411 0.20031 0.60287 0.0
C456 C 0.63705 0.203 0.69236 0.0
C457 C 0.60441 0.18917 0.56561 0.0
C458 C 0.67666 0.18259 0.71814 0.0
C459 C 0.71242 0.23562 0.8274 0.0
N460 N 0.63001 0.19078 0.61055 0.0
N461 N 0.6839 0.2308 0.7913 0.0
H462 H 0.55343 0.70094 0.91152 0.0
H463 H 0.36645 0.55597 0.89112 0.0
H464 H 0.47443 0.71047 0.03218 0.0
H465 H 0.43397 0.58055 0.67446 0.0
H466 H 0.40834 0.60494 -0.03263 0.0
H467 H 0.5122 0.64817 0.84959 0.0
C468 C 0.52744 0.69163 0.9264 0.0
C469 C 0.51727 0.71017 -0.02327 0.0
C470 C 0.41384 0.59964 0.90296 0.0
C471 C 0.47024 0.64993 0.9064 0.0
C472 C 0.38989 0.57206 0.85906 0.0
C473 C 0.39626 0.56533 0.77462 0.0
C474 C 0.44482 0.61976 0.8635 0.0
C475 C 0.42789 0.5855 0.73853 0.0
C476 C 0.50401 0.66171 0.89042 0.0
C477 C 0.48327 0.69706 -0.00681 0.0
N478 N 0.45104 0.61192 0.78308 0.0
N479 N 0.46089 0.66765 -0.04187 0.0
H480 H 0.86948 0.54272 0.08093 0.0
H481 H 0.7947 0.35253 -0.04312 0.0
H482 H 0.76546 0.4701 0.10017 0.0
H483 H 0.89522 0.42719 0.89635 0.0
H484 H 0.784 0.39504 0.01395 0.0
H485 H 0.88032 0.5003 0.02175 0.0
C486 C 0.84895 0.5178 0.07376 0.0
C487 C 0.81647 0.50999 0.09589 0.0
C488 C 0.8083 0.40229 -0.01292 0.0
C489 C 0.82871 0.46143 0.02729 0.0
C490 C 0.81425 0.37801 -0.04701 0.0
C491 C 0.84561 0.38649 0.91896 0.0
C492 C 0.83405 0.43528 -0.01126 0.0
C493 C 0.87058 0.41979 0.92078 0.0
C494 C 0.85515 0.49365 0.03937 0.0
C495 C 0.79088 0.47731 0.08456 0.0
N496 N 0.86431 0.443 -0.04481 0.0
N497 N 0.79754 0.45429 0.05095 0.0
H498 H 0.47496 0.81767 0.24692 0.0
H499 H 0.32972 0.86074 0.25608 0.0
H500 H 0.45325 0.85963 0.02743 0.0
H501 H 0.31971 0.77432 0.38417 0.0
H502 H 0.3837 0.87223 0.19771 0.0
H503 H 0.42574 0.81243 0.32206 0.0
C504 C 0.45945 0.8252 0.21404 0.0
C505 C 0.46704 0.83746 0.12914 0.0
C506 C 0.36979 0.851 0.23947 0.0
C507 C 0.41231 0.83367 0.21665 0.0
C508 C 0.33918 0.84457 0.27339 0.0
C509 C 0.32014 0.81635 0.32439 0.0
C510 C 0.38168 0.82946 0.25831 0.0
C511 C 0.33346 0.79609 0.34427 0.0
C512 C 0.43174 0.82265 0.25732 0.0
C513 C 0.44762 0.84921 0.09191 0.0
N514 N 0.36347 0.80303 0.31111 0.0
N515 N 0.42101 0.84692 0.13576 0.0
loop_
_geom_bond_atom_site_label_1
_geom_bond_atom_site_label_2
_geom_bond_distance
_geom_bond_site_symmetry_2
_ccdc_geom_bond_type
Zn0 O1 2.055 . S
Zn0 O8 2.046 . S
Zn0 N16 2.036 . S
Zn0 O28 2.053 . S
Zn0 O30 2.066 . S
O1 Zn0 2.055 . S
O1 C4 1.259 . S
C2 O30 1.256 . S
C2 O31 1.244 . S
Zn3 O5 2.046 . S
Zn3 O7 2.055 . S
Zn3 N9 2.036 . S
Zn3 O27 2.066 . S
Zn3 O31 2.053 . S
C4 O1 1.259 . S
C4 O5 1.254 . S
O5 Zn3 2.046 . S
O5 C4 1.254 . S
C6 O27 1.256 . S
C6 O28 1.244 . S
O7 Zn3 2.055 . S
O7 C29 1.259 . S
O8 Zn0 2.046 . S
O8 C29 1.254 . S
N9 Zn3 2.036 . S
N9 C10 1.298 . S
N9 N12 1.398 . S
C10 N9 1.298 . S
C10 N13 1.367 . S
C10 C23 1.481 . S
C11 N12 1.299 . S
C11 N13 1.379 . S
N12 N9 1.398 . S
N12 C11 1.299 . S
N13 C10 1.367 . S
N13 C11 1.379 . S
C14 N16 1.298 . S
C14 N18 1.367 . S
C14 C22 1.481 . S
C15 N17 1.299 . S
C15 N18 1.379 . S
N16 Zn0 2.036 . S
N16 C14 1.298 . S
N16 N17 1.398 . S
N17 C15 1.299 . S
N17 N16 1.398 . S
N18 C14 1.367 . S
N18 C15 1.379 . S
H19 C22 0.980 . S
H20 C22 0.981 . S
H21 C22 0.981 . S
C22 C14 1.481 . S
C22 H19 0.980 . S
C22 H20 0.981 . S
C22 H21 0.981 . S
C23 C10 1.481 . S
C23 H24 0.980 . S
C23 H25 0.981 . S
C23 H26 0.981 . S
H24 C23 0.980 . S
H25 C23 0.981 . S
H26 C23 0.981 . S
O27 Zn3 2.066 . S
O27 C6 1.256 . S
O28 Zn0 2.053 . S
O28 C6 1.244 . S
C29 O7 1.259 . S
C29 O8 1.254 . S
O30 Zn0 2.066 . S
O30 C2 1.256 . S
O31 C2 1.244 . S
O31 Zn3 2.053 . S
Zn32 O33 2.055 . S
Zn32 O40 2.046 . S
Zn32 N48 2.036 . S
Zn32 O60 2.053 . S
Zn32 O62 2.066 . S
O33 Zn32 2.055 . S
O33 C36 1.259 . S
C34 O62 1.256 . S
C34 O63 1.244 . S
Zn35 O37 2.046 . S
Zn35 O39 2.055 . S
Zn35 N41 2.036 . S
Zn35 O59 2.066 . S
Zn35 O63 2.053 . S
C36 O33 1.259 . S
C36 O37 1.254 . S
O37 Zn35 2.046 . S
O37 C36 1.254 . S
C38 O59 1.256 . S
C38 O60 1.244 . S
O39 Zn35 2.055 . S
O39 C61 1.259 . S
O40 Zn32 2.046 . S
O40 C61 1.254 . S
N41 Zn35 2.036 . S
N41 C42 1.298 . S
N41 N44 1.398 . S
C42 N41 1.298 . S
C42 N45 1.367 . S
C42 C55 1.481 . S
C43 N44 1.299 . S
C43 N45 1.379 . S
N44 N41 1.398 . S
N44 C43 1.299 . S
N45 C42 1.367 . S
N45 C43 1.379 . S
C46 N48 1.298 . S
C46 N50 1.367 . S
C46 C54 1.481 . S
C47 N49 1.299 . S
C47 N50 1.379 . S
N48 Zn32 2.036 . S
N48 C46 1.298 . S
N48 N49 1.398 . S
N49 C47 1.299 . S
N49 N48 1.398 . S
N50 C46 1.367 . S
N50 C47 1.379 . S
H51 C54 0.980 . S
H52 C54 0.981 . S
H53 C54 0.981 . S
C54 C46 1.481 . S
C54 H51 0.980 . S
C54 H52 0.981 . S
C54 H53 0.981 . S
C55 C42 1.481 . S
C55 H56 0.980 . S
C55 H57 0.981 . S
C55 H58 0.981 . S
H56 C55 0.980 . S
H57 C55 0.981 . S
H58 C55 0.981 . S
O59 Zn35 2.066 . S
O59 C38 1.256 . S
O60 Zn32 2.053 . S
O60 C38 1.244 . S
C61 O39 1.259 . S
C61 O40 1.254 . S
O62 Zn32 2.066 . S
O62 C34 1.256 . S
O63 C34 1.244 . S
O63 Zn35 2.053 . S
Zn64 O65 2.055 . S
Zn64 O72 2.046 . S
Zn64 N80 2.036 . S
Zn64 O92 2.053 . S
Zn64 O94 2.066 1_556 S
O65 Zn64 2.055 . S
O65 C68 1.259 . S
C66 O94 1.256 . S
C66 O95 1.244 . S
Zn67 O69 2.046 . S
Zn67 O71 2.055 . S
Zn67 N73 2.036 . S
Zn67 O91 2.066 . S
Zn67 O95 2.053 1_556 S
C68 O65 1.259 . S
C68 O69 1.254 . S
O69 Zn67 2.046 . S
O69 C68 1.254 . S
C70 O91 1.256 . S
C70 O92 1.244 . S
O71 Zn67 2.055 . S
O71 C93 1.259 . S
O72 Zn64 2.046 . S
O72 C93 1.254 . S
N73 Zn67 2.036 . S
N73 C74 1.298 . S
N73 N76 1.398 1_556 S
C74 N73 1.298 . S
C74 N77 1.367 . S
C74 C87 1.481 . S
C75 N76 1.299 . S
C75 N77 1.379 1_554 S
N76 N73 1.398 1_554 S
N76 C75 1.299 . S
N77 C74 1.367 . S
N77 C75 1.379 1_556 S
C78 N80 1.298 . S
C78 N82 1.367 . S
C78 C86 1.481 . S
C79 N81 1.299 . S
C79 N82 1.379 . S
N80 Zn64 2.036 . S
N80 C78 1.298 . S
N80 N81 1.398 . S
N81 C79 1.299 . S
N81 N80 1.398 . S
N82 C78 1.367 . S
N82 C79 1.379 . S
H83 C86 0.980 . S
H84 C86 0.981 . S
H85 C86 0.981 1_554 S
C86 C78 1.481 . S
C86 H83 0.980 . S
C86 H84 0.981 . S
C86 H85 0.981 1_556 S
C87 C74 1.481 . S
C87 H88 0.980 . S
C87 H89 0.981 . S
C87 H90 0.981 . S
H88 C87 0.980 . S
H89 C87 0.981 . S
H90 C87 0.981 . S
O91 Zn67 2.066 . S
O91 C70 1.256 . S
O92 Zn64 2.053 . S
O92 C70 1.244 . S
C93 O71 1.259 . S
C93 O72 1.254 . S
O94 Zn64 2.066 1_554 S
O94 C66 1.256 . S
O95 C66 1.244 . S
O95 Zn67 2.053 1_554 S
Zn96 O97 2.055 . S
Zn96 O104 2.046 1_554 S
Zn96 N112 2.036 . S
Zn96 O124 2.053 . S
Zn96 O126 2.066 . S
O97 Zn96 2.055 . S
O97 C100 1.259 . S
C98 O126 1.256 . S
C98 O127 1.244 . S
Zn99 O101 2.046 . S
Zn99 O103 2.055 1_554 S
Zn99 N105 2.036 . S
Zn99 O123 2.066 . S
Zn99 O127 2.053 . S
C100 O97 1.259 . S
C100 O101 1.254 . S
O101 Zn99 2.046 . S
O101 C100 1.254 . S
C102 O123 1.256 . S
C102 O124 1.244 . S
O103 Zn99 2.055 1_556 S
O103 C125 1.259 . S
O104 Zn96 2.046 1_556 S
O104 C125 1.254 . S
N105 Zn99 2.036 . S
N105 C106 1.298 . S
N105 N108 1.398 . S
C106 N105 1.298 . S
C106 N109 1.367 . S
C106 C119 1.481 1_554 S
C107 N108 1.299 . S
C107 N109 1.379 . S
N108 N105 1.398 . S
N108 C107 1.299 . S
N109 C106 1.367 . S
N109 C107 1.379 . S
C110 N112 1.298 . S
C110 N114 1.367 . S
C110 C118 1.481 . S
C111 N113 1.299 . S
C111 N114 1.379 . S
N112 Zn96 2.036 . S
N112 C110 1.298 . S
N112 N113 1.398 . S
N113 C111 1.299 . S
N113 N112 1.398 . S
N114 C110 1.367 . S
N114 C111 1.379 . S
H115 C118 0.980 . S
H116 C118 0.981 . S
H117 C118 0.981 . S
C118 C110 1.481 . S
C118 H115 0.980 . S
C118 H116 0.981 . S
C118 H117 0.981 . S
C119 C106 1.481 1_556 S
C119 H120 0.980 . S
C119 H121 0.981 . S
C119 H122 0.981 . S
H120 C119 0.980 . S
H121 C119 0.981 . S
H122 C119 0.981 . S
O123 Zn99 2.066 . S
O123 C102 1.256 . S
O124 Zn96 2.053 . S
O124 C102 1.244 . S
C125 O103 1.259 . S
C125 O104 1.254 . S
O126 Zn96 2.066 . S
O126 C98 1.256 . S
O127 C98 1.244 . S
O127 Zn99 2.053 . S
Zn128 O129 2.055 . S
Zn128 O136 2.046 . S
Zn128 N144 2.036 . S
Zn128 O156 2.053 . S
Zn128 O158 2.066 . S
O129 Zn128 2.055 . S
O129 C132 1.259 . S
C130 O158 1.256 . S
C130 O159 1.244 . S
Zn131 O133 2.046 . S
Zn131 O135 2.055 . S
Zn131 N137 2.036 . S
Zn131 O155 2.066 . S
Zn131 O159 2.053 . S
C132 O129 1.259 . S
C132 O133 1.254 . S
O133 Zn131 2.046 . S
O133 C132 1.254 . S
C134 O155 1.256 . S
C134 O156 1.244 . S
O135 Zn131 2.055 . S
O135 C157 1.259 . S
O136 Zn128 2.046 . S
O136 C157 1.254 . S
N137 Zn131 2.036 . S
N137 C138 1.298 . S
N137 N140 1.398 . S
C138 N137 1.298 . S
C138 N141 1.367 . S
C138 C151 1.481 . S
C139 N140 1.299 . S
C139 N141 1.379 . S
N140 N137 1.398 . S
N140 C139 1.299 . S
N141 C138 1.367 . S
N141 C139 1.379 . S
C142 N144 1.298 . S
C142 N146 1.367 . S
C142 C150 1.481 . S
C143 N145 1.299 . S
C143 N146 1.379 . S
N144 Zn128 2.036 . S
N144 C142 1.298 . S
N144 N145 1.398 . S
N145 C143 1.299 . S
N145 N144 1.398 . S
N146 C142 1.367 . S
N146 C143 1.379 . S
H147 C150 0.980 . S
H148 C150 0.981 . S
H149 C150 0.981 . S
C150 C142 1.481 . S
C150 H147 0.980 . S
C150 H148 0.981 . S
C150 H149 0.981 . S
C151 C138 1.481 . S
C151 H152 0.980 . S
C151 H153 0.981 . S
C151 H154 0.981 . S
H152 C151 0.980 . S
H153 C151 0.981 . S
H154 C151 0.981 . S
O155 Zn131 2.066 . S
O155 C134 1.256 . S
O156 Zn128 2.053 . S
O156 C134 1.244 . S
C157 O135 1.259 . S
C157 O136 1.254 . S
O158 Zn128 2.066 . S
O158 C130 1.256 . S
O159 C130 1.244 . S
O159 Zn131 2.053 . S
Zn160 O161 2.055 . S
Zn160 O168 2.046 . S
Zn160 N176 2.036 . S
Zn160 O188 2.053 . S
Zn160 O190 2.066 . S
O161 Zn160 2.055 . S
O161 C164 1.259 . S
C162 O190 1.256 . S
C162 O191 1.244 . S
Zn163 O165 2.046 . S
Zn163 O167 2.055 . S
Zn163 N169 2.036 . S
Zn163 O187 2.066 . S
Zn163 O191 2.053 . S
C164 O161 1.259 . S
C164 O165 1.254 . S
O165 Zn163 2.046 . S
O165 C164 1.254 . S
C166 O187 1.256 . S
C166 O188 1.244 . S
O167 Zn163 2.055 . S
O167 C189 1.259 . S
O168 Zn160 2.046 . S
O168 C189 1.254 . S
N169 Zn163 2.036 . S
N169 C170 1.298 . S
N169 N172 1.398 . S
C170 N169 1.298 . S
C170 N173 1.367 . S
C170 C183 1.481 . S
C171 N172 1.299 . S
C171 N173 1.379 . S
N172 N169 1.398 . S
N172 C171 1.299 . S
N173 C170 1.367 . S
N173 C171 1.379 . S
C174 N176 1.298 . S
C174 N178 1.367 . S
C174 C182 1.481 . S
C175 N177 1.299 . S
C175 N178 1.379 . S
N176 Zn160 2.036 . S
N176 C174 1.298 . S
N176 N177 1.398 . S
N177 C175 1.299 . S
N177 N176 1.398 . S
N178 C174 1.367 . S
N178 C175 1.379 . S
H179 C182 0.980 . S
H180 C182 0.981 . S
H181 C182 0.981 . S
C182 C174 1.481 . S
C182 H179 0.980 . S
C182 H180 0.981 . S
C182 H181 0.981 . S
C183 C170 1.481 . S
C183 H184 0.980 . S
C183 H185 0.981 . S
C183 H186 0.981 . S
H184 C183 0.980 . S
H185 C183 0.981 . S
H186 C183 0.981 . S
O187 Zn163 2.066 . S
O187 C166 1.256 . S
O188 Zn160 2.053 . S
O188 C166 1.244 . S
C189 O167 1.259 . S
C189 O168 1.254 . S
O190 Zn160 2.066 . S
O190 C162 1.256 . S
O191 C162 1.244 . S
O191 Zn163 2.053 . S
H192 C198 0.930 . S
H193 C202 0.930 . S
H194 C207 0.929 . S
H195 C205 0.929 . S
H196 C200 0.929 1_554 S
H197 C206 0.929 . S
C198 H192 0.930 . S
C198 C199 1.367 . S
C198 C206 1.378 . S
C199 C198 1.367 . S
C199 C207 1.433 . S
C200 H196 0.929 1_556 S
C200 C202 1.378 . S
C200 C204 1.350 1_556 S
C201 C204 1.463 . S
C201 C206 1.350 . S
C201 N209 1.427 . S
C202 H193 0.930 . S
C202 C200 1.378 . S
C202 C203 1.367 . S
C203 C202 1.367 . S
C203 C205 1.433 . S
C204 C200 1.350 1_554 S
C204 C201 1.463 . S
C204 N208 1.427 1_554 S
C205 H195 0.929 . S
C205 C203 1.433 . S
C205 N208 1.384 . S
C206 H197 0.929 . S
C206 C198 1.378 . S
C206 C201 1.350 . S
C207 H194 0.929 . S
C207 C199 1.433 . S
C207 N209 1.384 . S
N208 C204 1.427 1_556 S
N208 C205 1.384 . S
N209 C201 1.427 . S
N209 C207 1.384 . S
H210 C216 0.930 . S
H211 C220 0.930 . S
H212 C225 0.929 . S
H213 C223 0.932 . S
H214 C218 0.929 . S
H215 C224 0.929 . S
C216 H210 0.930 . S
C216 C217 1.367 . S
C216 C224 1.378 . S
C217 C216 1.367 . S
C217 C225 1.433 . S
C218 H214 0.929 . S
C218 C220 1.378 . S
C218 C222 1.350 . S
C219 C222 1.463 . S
C219 C224 1.350 . S
C219 N227 1.427 . S
C220 H211 0.930 . S
C220 C218 1.378 . S
C220 C221 1.367 1_554 S
C221 C220 1.367 1_556 S
C221 C223 1.433 1_556 S
C222 C218 1.350 . S
C222 C219 1.463 . S
C222 N226 1.427 . S
C223 H213 0.932 . S
C223 C221 1.433 1_554 S
C223 N226 1.384 . S
C224 H215 0.929 . S
C224 C216 1.378 . S
C224 C219 1.350 . S
C225 H212 0.929 . S
C225 C217 1.433 . S
C225 N227 1.384 . S
N226 C222 1.427 . S
N226 C223 1.384 . S
N227 C219 1.427 . S
N227 C225 1.384 . S
H228 C234 0.930 . S
H229 C238 0.930 . S
H230 C243 0.929 . S
H231 C241 0.929 . S
H232 C236 0.929 . S
H233 C242 0.929 . S
C234 H228 0.930 . S
C234 C235 1.367 . S
C234 C242 1.378 . S
C235 C234 1.367 . S
C235 C243 1.433 . S
C236 H232 0.929 . S
C236 C238 1.378 . S
C236 C240 1.350 . S
C237 C240 1.463 . S
C237 C242 1.350 . S
C237 N245 1.427 . S
C238 H229 0.930 . S
C238 C236 1.378 . S
C238 C239 1.367 . S
C239 C238 1.367 . S
C239 C241 1.433 . S
C240 C236 1.350 . S
C240 C237 1.463 . S
C240 N244 1.427 . S
C241 H231 0.929 . S
C241 C239 1.433 . S
C241 N244 1.384 . S
C242 H233 0.929 . S
C242 C234 1.378 . S
C242 C237 1.350 . S
C243 H230 0.929 . S
C243 C235 1.433 . S
C243 N245 1.384 . S
N244 C240 1.427 . S
N244 C241 1.384 . S
N245 C237 1.427 . S
N245 C243 1.384 . S
H246 C252 0.930 . S
H247 C256 0.930 . S
H248 C261 0.929 . S
H249 C259 0.929 . S
H250 C254 0.929 . S
H251 C260 0.929 . S
C252 H246 0.930 . S
C252 C253 1.367 . S
C252 C260 1.378 . S
C253 C252 1.367 . S
C253 C261 1.433 . S
C254 H250 0.929 . S
C254 C256 1.378 . S
C254 C258 1.350 . S
C255 C258 1.463 . S
C255 C260 1.350 . S
C255 N263 1.427 . S
C256 H247 0.930 . S
C256 C254 1.378 . S
C256 C257 1.367 . S
C257 C256 1.367 . S
C257 C259 1.433 . S
C258 C254 1.350 . S
C258 C255 1.463 . S
C258 N262 1.427 . S
C259 H249 0.929 . S
C259 C257 1.433 . S
C259 N262 1.384 . S
C260 H251 0.929 . S
C260 C252 1.378 . S
C260 C255 1.350 . S
C261 H248 0.929 . S
C261 C253 1.433 . S
C261 N263 1.384 . S
N262 C258 1.427 . S
N262 C259 1.384 . S
N263 C255 1.427 . S
N263 C261 1.384 . S
H264 C270 0.930 . S
H265 C274 0.930 . S
H266 C279 0.929 . S
H267 C277 0.929 . S
H268 C272 0.929 . S
H269 C278 0.929 . S
C270 H264 0.930 . S
C270 C271 1.367 . S
C270 C278 1.378 . S
C271 C270 1.367 . S
C271 C279 1.433 . S
C272 H268 0.929 . S
C272 C274 1.378 . S
C272 C276 1.350 . S
C273 C276 1.463 . S
C273 C278 1.350 . S
C273 N281 1.427 . S
C274 H265 0.930 . S
C274 C272 1.378 . S
C274 C275 1.367 . S
C275 C274 1.367 . S
C275 C277 1.433 . S
C276 C272 1.350 . S
C276 C273 1.463 . S
C276 N280 1.427 . S
C277 H267 0.929 . S
C277 C275 1.433 . S
C277 N280 1.384 . S
C278 H269 0.929 . S
C278 C270 1.378 . S
C278 C273 1.350 . S
C279 H266 0.929 . S
C279 C271 1.433 . S
C279 N281 1.384 . S
N280 C276 1.427 . S
N280 C277 1.384 . S
N281 C273 1.427 . S
N281 C279 1.384 . S
H282 C288 0.930 . S
H283 C292 0.930 . S
H284 C297 0.929 . S
H285 C295 0.929 . S
H286 C290 0.929 . S
H287 C296 0.929 1_556 S
C288 H282 0.930 . S
C288 C289 1.367 . S
C288 C296 1.378 . S
C289 C288 1.367 . S
C289 C297 1.433 . S
C290 H286 0.929 . S
C290 C292 1.378 . S
C290 C294 1.350 . S
C291 C294 1.463 . S
C291 C296 1.350 1_556 S
C291 N299 1.427 . S
C292 H283 0.930 . S
C292 C290 1.378 . S
C292 C293 1.367 . S
C293 C292 1.367 . S
C293 C295 1.433 . S
C294 C290 1.350 . S
C294 C291 1.463 . S
C294 N298 1.427 . S
C295 H285 0.929 . S
C295 C293 1.433 . S
C295 N298 1.384 . S
C296 H287 0.929 1_554 S
C296 C288 1.378 . S
C296 C291 1.350 1_554 S
C297 H284 0.929 . S
C297 C289 1.433 . S
C297 N299 1.384 1_554 S
N298 C294 1.427 . S
N298 C295 1.384 . S
N299 C291 1.427 . S
N299 C297 1.384 1_556 S
H300 C306 0.930 . S
H301 C310 0.930 . S
H302 C315 0.929 . S
H303 C313 0.929 . S
H304 C308 0.929 . S
H305 C314 0.929 . S
C306 H300 0.930 . S
C306 C307 1.367 . S
C306 C314 1.378 . S
C307 C306 1.367 . S
C307 C315 1.433 . S
C308 H304 0.929 . S
C308 C310 1.378 1_545 S
C308 C312 1.350 . S
C309 C312 1.463 . S
C309 C314 1.350 . S
C309 N317 1.427 . S
C310 H301 0.930 . S
C310 C308 1.378 1_565 S
C310 C311 1.367 . S
C311 C310 1.367 . S
C311 C313 1.433 . S
C312 C308 1.350 . S
C312 C309 1.463 . S
C312 N316 1.427 1_545 S
C313 H303 0.929 . S
C313 C311 1.433 . S
C313 N316 1.384 . S
C314 H305 0.929 . S
C314 C306 1.378 . S
C314 C309 1.350 . S
C315 H302 0.929 . S
C315 C307 1.433 . S
C315 N317 1.384 . S
N316 C312 1.427 1_565 S
N316 C313 1.384 . S
N317 C309 1.427 . S
N317 C315 1.384 . S
H318 C324 0.930 . S
H319 C328 0.930 . S
H320 C333 0.929 . S
H321 C331 0.929 . S
H322 C326 0.929 . S
H323 C332 0.929 . S
C324 H318 0.930 . S
C324 C325 1.367 . S
C324 C332 1.378 . S
C325 C324 1.367 . S
C325 C333 1.433 . S
C326 H322 0.929 . S
C326 C328 1.378 . S
C326 C330 1.350 . S
C327 C330 1.463 . S
C327 C332 1.350 . S
C327 N335 1.427 . S
C328 H319 0.930 . S
C328 C326 1.378 . S
C328 C329 1.367 . S
C329 C328 1.367 . S
C329 C331 1.433 . S
C330 C326 1.350 . S
C330 C327 1.463 . S
C330 N334 1.427 . S
C331 H321 0.929 . S
C331 C329 1.433 . S
C331 N334 1.384 . S
C332 H323 0.929 . S
C332 C324 1.378 . S
C332 C327 1.350 . S
C333 H320 0.929 . S
C333 C325 1.433 . S
C333 N335 1.384 . S
N334 C330 1.427 . S
N334 C331 1.384 . S
N335 C327 1.427 . S
N335 C333 1.384 . S
H336 C342 0.930 . S
H337 C346 0.930 . S
H338 C351 0.929 1_554 S
H339 C349 0.929 . S
H340 C344 0.927 1_655 S
H341 C350 0.929 . S
C342 H336 0.930 . S
C342 C343 1.367 . S
C342 C350 1.378 . S
C343 C342 1.367 . S
C343 C351 1.433 . S
C344 H340 0.927 1_455 S
C344 C346 1.378 . S
C344 C348 1.350 1_455 S
C345 C348 1.463 . S
C345 C350 1.350 . S
C345 N353 1.427 . S
C346 H337 0.930 . S
C346 C344 1.378 . S
C346 C347 1.367 . S
C347 C346 1.367 . S
C347 C349 1.433 . S
C348 C344 1.350 1_655 S
C348 C345 1.463 . S
C348 N352 1.427 . S
C349 H339 0.929 . S
C349 C347 1.433 . S
C349 N352 1.384 1_455 S
C350 H341 0.929 . S
C350 C342 1.378 . S
C350 C345 1.350 . S
C351 H338 0.929 1_556 S
C351 C343 1.433 . S
C351 N353 1.384 . S
N352 C348 1.427 . S
N352 C349 1.384 1_655 S
N353 C345 1.427 . S
N353 C351 1.384 . S
H354 C360 0.930 . S
H355 C364 0.930 . S
H356 C369 0.929 . S
H357 C367 0.929 . S
H358 C362 0.929 . S
H359 C368 0.929 . S
C360 H354 0.930 . S
C360 C361 1.367 . S
C360 C368 1.378 . S
C361 C360 1.367 . S
C361 C369 1.433 1_554 S
C362 H358 0.929 . S
C362 C364 1.378 1_565 S
C362 C366 1.350 1_556 S
C363 C366 1.463 . S
C363 C368 1.350 . S
C363 N371 1.427 1_554 S
C364 H355 0.930 . S
C364 C362 1.378 1_545 S
C364 C365 1.367 . S
C365 C364 1.367 . S
C365 C367 1.433 1_556 S
C366 C362 1.350 1_554 S
C366 C363 1.463 . S
C366 N370 1.427 1_565 S
C367 H357 0.929 . S
C367 C365 1.433 1_554 S
C367 N370 1.384 . S
C368 H359 0.929 . S
C368 C360 1.378 . S
C368 C363 1.350 . S
C369 H356 0.929 . S
C369 C361 1.433 1_556 S
C369 N371 1.384 . S
N370 C366 1.427 1_545 S
N370 C367 1.384 . S
N371 C363 1.427 1_556 S
N371 C369 1.384 . S
H372 C378 0.930 . S
H373 C382 0.930 . S
H374 C387 0.929 . S
H375 C385 0.929 1_556 S
H376 C380 0.929 . S
H377 C386 0.929 . S
C378 H372 0.930 . S
C378 C379 1.367 . S
C378 C386 1.378 . S
C379 C378 1.367 . S
C379 C387 1.433 . S
C380 H376 0.929 . S
C380 C382 1.378 . S
C380 C384 1.350 . S
C381 C384 1.463 . S
C381 C386 1.350 . S
C381 N389 1.427 . S
C382 H373 0.930 . S
C382 C380 1.378 . S
C382 C383 1.367 . S
C383 C382 1.367 . S
C383 C385 1.433 . S
C384 C380 1.350 . S
C384 C381 1.463 . S
C384 N388 1.427 . S
C385 H375 0.929 1_554 S
C385 C383 1.433 . S
C385 N388 1.384 . S
C386 H377 0.929 . S
C386 C378 1.378 . S
C386 C381 1.350 . S
C387 H374 0.929 . S
C387 C379 1.433 . S
C387 N389 1.384 . S
N388 C384 1.427 . S
N388 C385 1.384 . S
N389 C381 1.427 . S
N389 C387 1.384 . S
H390 C396 0.930 . S
H391 C400 0.930 . S
H392 C405 0.929 . S
H393 C403 0.929 . S
H394 C398 0.929 . S
H395 C404 0.929 . S
C396 H390 0.930 . S
C396 C397 1.367 . S
C396 C404 1.378 1_655 S
C397 C396 1.367 . S
C397 C405 1.433 . S
C398 H394 0.929 . S
C398 C400 1.378 . S
C398 C402 1.350 . S
C399 C402 1.463 . S
C399 C404 1.350 . S
C399 N407 1.427 1_455 S
C400 H391 0.930 . S
C400 C398 1.378 . S
C400 C401 1.367 . S
C401 C400 1.367 . S
C401 C403 1.433 . S
C402 C398 1.350 . S
C402 C399 1.463 . S
C402 N406 1.427 . S
C403 H393 0.929 . S
C403 C401 1.433 . S
C403 N406 1.384 . S
C404 H395 0.929 . S
C404 C396 1.378 1_455 S
C404 C399 1.350 . S
C405 H392 0.929 . S
C405 C397 1.433 . S
C405 N407 1.384 . S
N406 C402 1.427 . S
N406 C403 1.384 . S
N407 C399 1.427 1_655 S
N407 C405 1.384 . S
H408 C414 0.930 . S
H409 C418 0.930 . S
H410 C423 0.929 . S
H411 C421 0.929 . S
H412 C416 0.929 . S
H413 C422 0.929 . S
C414 H408 0.930 . S
C414 C415 1.367 . S
C414 C422 1.378 . S
C415 C414 1.367 . S
C415 C423 1.433 . S
C416 H412 0.929 . S
C416 C418 1.378 . S
C416 C420 1.350 . S
C417 C420 1.463 . S
C417 C422 1.350 . S
C417 N425 1.427 . S
C418 H409 0.930 . S
C418 C416 1.378 . S
C418 C419 1.367 . S
C419 C418 1.367 . S
C419 C421 1.433 . S
C420 C416 1.350 . S
C420 C417 1.463 . S
C420 N424 1.427 . S
C421 H411 0.929 . S
C421 C419 1.433 . S
C421 N424 1.384 . S
C422 H413 0.929 . S
C422 C414 1.378 . S
C422 C417 1.350 . S
C423 H410 0.929 . S
C423 C415 1.433 . S
C423 N425 1.384 . S
N424 C420 1.427 . S
N424 C421 1.384 . S
N425 C417 1.427 . S
N425 C423 1.384 . S
H426 C432 0.930 . S
H427 C436 0.930 . S
H428 C441 0.929 . S
H429 C439 0.929 . S
H430 C434 0.929 . S
H431 C440 0.929 . S
C432 H426 0.930 . S
C432 C433 1.367 . S
C432 C440 1.378 . S
C433 C432 1.367 . S
C433 C441 1.433 . S
C434 H430 0.929 . S
C434 C436 1.378 . S
C434 C438 1.350 . S
C435 C438 1.463 . S
C435 C440 1.350 . S
C435 N443 1.427 . S
C436 H427 0.930 . S
C436 C434 1.378 . S
C436 C437 1.367 . S
C437 C436 1.367 . S
C437 C439 1.433 . S
C438 C434 1.350 . S
C438 C435 1.463 . S
C438 N442 1.427 . S
C439 H429 0.929 . S
C439 C437 1.433 . S
C439 N442 1.384 . S
C440 H431 0.929 . S
C440 C432 1.378 . S
C440 C435 1.350 . S
C441 H428 0.929 . S
C441 C433 1.433 . S
C441 N443 1.384 . S
N442 C438 1.427 . S
N442 C439 1.384 . S
N443 C435 1.427 . S
N443 C441 1.384 . S
H444 C450 0.930 . S
H445 C454 0.930 . S
H446 C459 0.929 . S
H447 C457 0.929 . S
H448 C452 0.929 . S
H449 C458 0.929 . S
C450 H444 0.930 . S
C450 C451 1.367 . S
C450 C458 1.378 . S
C451 C450 1.367 . S
C451 C459 1.433 . S
C452 H448 0.929 . S
C452 C454 1.378 . S
C452 C456 1.350 . S
C453 C456 1.463 . S
C453 C458 1.350 . S
C453 N461 1.427 . S
C454 H445 0.930 . S
C454 C452 1.378 . S
C454 C455 1.367 . S
C455 C454 1.367 . S
C455 C457 1.433 . S
C456 C452 1.350 . S
C456 C453 1.463 . S
C456 N460 1.427 . S
C457 H447 0.929 . S
C457 C455 1.433 . S
C457 N460 1.384 . S
C458 H449 0.929 . S
C458 C450 1.378 . S
C458 C453 1.350 . S
C459 H446 0.929 . S
C459 C451 1.433 . S
C459 N461 1.384 . S
N460 C456 1.427 . S
N460 C457 1.384 . S
N461 C453 1.427 . S
N461 C459 1.384 . S
H462 C468 0.930 . S
H463 C472 0.930 . S
H464 C477 0.929 . S
H465 C475 0.929 . S
H466 C470 0.929 . S
H467 C476 0.929 . S
C468 H462 0.930 . S
C468 C469 1.367 . S
C468 C476 1.378 1_554 S
C469 C468 1.367 . S
C469 C477 1.433 1_554 S
C470 H466 0.929 . S
C470 C472 1.378 . S
C470 C474 1.350 . S
C471 C474 1.463 . S
C471 C476 1.350 . S
C471 N479 1.427 . S
C472 H463 0.930 . S
C472 C470 1.378 . S
C472 C473 1.367 . S
C473 C472 1.367 . S
C473 C475 1.433 . S
C474 C470 1.350 . S
C474 C471 1.463 . S
C474 N478 1.427 . S
C475 H465 0.929 . S
C475 C473 1.433 . S
C475 N478 1.384 . S
C476 H467 0.929 . S
C476 C468 1.378 1_556 S
C476 C471 1.350 . S
C477 H464 0.929 . S
C477 C469 1.433 1_556 S
C477 N479 1.384 . S
N478 C474 1.427 . S
N478 C475 1.384 . S
N479 C471 1.427 . S
N479 C477 1.384 . S
H480 C486 0.930 . S
H481 C490 0.930 . S
H482 C495 0.929 . S
H483 C493 0.929 . S
H484 C488 0.929 . S
H485 C494 0.929 1_556 S
C486 H480 0.930 . S
C486 C487 1.367 . S
C486 C494 1.378 . S
C487 C486 1.367 . S
C487 C495 1.433 . S
C488 H484 0.929 . S
C488 C490 1.378 . S
C488 C492 1.350 . S
C489 C492 1.463 . S
C489 C494 1.350 . S
C489 N497 1.427 . S
C490 H481 0.930 . S
C490 C488 1.378 . S
C490 C491 1.367 1_554 S
C491 C490 1.367 1_556 S
C491 C493 1.433 . S
C492 C488 1.350 . S
C492 C489 1.463 . S
C492 N496 1.427 1_554 S
C493 H483 0.929 . S
C493 C491 1.433 . S
C493 N496 1.384 . S
C494 H485 0.929 1_554 S
C494 C486 1.378 . S
C494 C489 1.350 . S
C495 H482 0.929 . S
C495 C487 1.433 . S
C495 N497 1.384 . S
N496 C492 1.427 1_556 S
N496 C493 1.384 . S
N497 C489 1.427 . S
N497 C495 1.384 . S
H498 C504 0.930 . S
H499 C508 0.930 . S
H500 C513 0.929 . S
H501 C511 0.929 . S
H502 C506 0.929 . S
H503 C512 0.929 . S
C504 H498 0.930 . S
C504 C505 1.367 . S
C504 C512 1.378 . S
C505 C504 1.367 . S
C505 C513 1.433 . S
C506 H502 0.929 . S
C506 C508 1.378 . S
C506 C510 1.350 . S
C507 C510 1.463 . S
C507 C512 1.350 . S
C507 N515 1.427 . S
C508 H499 0.930 . S
C508 C506 1.378 . S
C508 C509 1.367 . S
C509 C508 1.367 . S
C509 C511 1.433 . S
C510 C506 1.350 . S
C510 C507 1.463 . S
C510 N514 1.427 . S
C511 H501 0.929 . S
C511 C509 1.433 . S
C511 N514 1.384 . S
C512 H503 0.929 . S
C512 C504 1.378 . S
C512 C507 1.350 . S
C513 H500 0.929 . S
C513 C505 1.433 . S
C513 N515 1.384 . S
N514 C510 1.427 . S
N514 C511 1.384 . S
N515 C507 1.427 . S
N515 C513 1.384 . S
C199 C29 1.026 . S
C203 C2 1.028 . S
C217 C61 1.025 . S
C221 C34 1.027 . S
C235 C66 1.028 . S
C239 C93 1.024 . S
C253 C98 1.022 . S
C257 C125 1.015 . S
C271 C134 1.029 . S
C275 C132 1.026 1_556 S
C289 C189 1.019 . S
C293 C162 1.023 . S
C307 C4 1.517 . S
C311 N178 1.488 . S
C325 N18 1.501 . S
C329 C36 1.509 . S
C343 C68 1.502 . S
C347 N50 1.499 . S
C361 C100 1.516 . S
C365 N82 1.492 . S
C379 C157 1.503 . S
C383 N114 1.498 . S
C397 N141 1.497 . S
C401 C164 1.513 . S
C415 C6 1.884 . S
C419 N146 1.781 . S
C433 C38 1.887 . S
C437 N173 1.792 . S
C451 C70 1.882 . S
C455 N13 1.777 . S
C469 C102 1.888 . S
C473 N45 1.790 . S
C487 C130 1.883 . S
C491 N77 1.779 . S
C505 N109 1.779 . S
C509 C166 1.883 . S
