# Generated by pormake.
# Topology wfw, (7)-cn, num edge types: 1
# Building blocks:
#     Node 0, Type 0, BuildingBlock: HICVOG_clean_sbu_0, # of connection points: 7
#     Node 1, Type 0, BuildingBlock: HICVOG_clean_sbu_0, # of connection points: 7
#     Node 2, Type 0, BuildingBlock: HICVOG_clean_sbu_0, # of connection points: 7
#     Node 3, Type 0, BuildingBlock: HICVOG_clean_sbu_0, # of connection points: 7
#     Node 4, Type 0, BuildingBlock: HICVOG_clean_sbu_0, # of connection points: 7
#     Node 5, Type 0, BuildingBlock: HICVOG_clean_sbu_0, # of connection points: 7
#     Node 6, Type 0, BuildingBlock: HICVOG_clean_sbu_0, # of connection points: 7
#     Node 7, Type 0, BuildingBlock: HICVOG_clean_sbu_0, # of connection points: 7
#     Node 8, Type 0, BuildingBlock: HICVOG_clean_sbu_0, # of connection points: 7
#     Node 9, Type 0, BuildingBlock: HICVOG_clean_sbu_0, # of connection points: 7
#     Node 10, Type 0, BuildingBlock: HICVOG_clean_sbu_0, # of connection points: 7
#     Node 11, Type 0, BuildingBlock: HICVOG_clean_sbu_0, # of connection points: 7
#     Node 12, Type 0, BuildingBlock: HICVOG_clean_sbu_0, # of connection points: 7
#     Node 13, Type 0, BuildingBlock: HICVOG_clean_sbu_0, # of connection points: 7
#     Node 14, Type 0, BuildingBlock: HICVOG_clean_sbu_0, # of connection points: 7
#     Node 15, Type 0, BuildingBlock: HICVOG_clean_sbu_0, # of connection points: 7
#     Edge 16, Type (0, 0), BuildingBlock: XUDNAN_clean_linker_2, # of connection points: 2
#     Edge 17, Type (0, 0), BuildingBlock: XUDNAN_clean_linker_2, # of connection points: 2
#     Edge 18, Type (0, 0), BuildingBlock: XUDNAN_clean_linker_2, # of connection points: 2
#     Edge 19, Type (0, 0), BuildingBlock: XUDNAN_clean_linker_2, # of connection points: 2
#     Edge 20, Type (0, 0), BuildingBlock: XUDNAN_clean_linker_2, # of connection points: 2
#     Edge 21, Type (0, 0), BuildingBlock: XUDNAN_clean_linker_2, # of connection points: 2
#     Edge 22, Type (0, 0), BuildingBlock: XUDNAN_clean_linker_2, # of connection points: 2
#     Edge 23, Type (0, 0), BuildingBlock: XUDNAN_clean_linker_2, # of connection points: 2
#     Edge 24, Type (0, 0), BuildingBlock: XUDNAN_clean_linker_2, # of connection points: 2
#     Edge 25, Type (0, 0), BuildingBlock: XUDNAN_clean_linker_2, # of connection points: 2
#     Edge 26, Type (0, 0), BuildingBlock: XUDNAN_clean_linker_2, # of connection points: 2
#     Edge 27, Type (0, 0), BuildingBlock: XUDNAN_clean_linker_2, # of connection points: 2
#     Edge 28, Type (0, 0), BuildingBlock: XUDNAN_clean_linker_2, # of connection points: 2
#     Edge 29, Type (0, 0), BuildingBlock: XUDNAN_clean_linker_2, # of connection points: 2
#     Edge 30, Type (0, 0), BuildingBlock: XUDNAN_clean_linker_2, # of connection points: 2
#     Edge 31, Type (0, 0), BuildingBlock: XUDNAN_clean_linker_2, # of connection points: 2
#     Edge 32, Type (0, 0), BuildingBlock: XUDNAN_clean_linker_2, # of connection points: 2
#     Edge 33, Type (0, 0), BuildingBlock: XUDNAN_clean_linker_2, # of connection points: 2
#     Edge 34, Type (0, 0), BuildingBlock: XUDNAN_clean_linker_2, # of connection points: 2
#     Edge 35, Type (0, 0), BuildingBlock: XUDNAN_clean_linker_2, # of connection points: 2
#     Edge 36, Type (0, 0), BuildingBlock: XUDNAN_clean_linker_2, # of connection points: 2
#     Edge 37, Type (0, 0), BuildingBlock: XUDNAN_clean_linker_2, # of connection points: 2
#     Edge 38, Type (0, 0), BuildingBlock: XUDNAN_clean_linker_2, # of connection points: 2
#     Edge 39, Type (0, 0), BuildingBlock: XUDNAN_clean_linker_2, # of connection points: 2
#     Edge 40, Type (0, 0), BuildingBlock: XUDNAN_clean_linker_2, # of connection points: 2
#     Edge 41, Type (0, 0), BuildingBlock: XUDNAN_clean_linker_2, # of connection points: 2
#     Edge 42, Type (0, 0), BuildingBlock: XUDNAN_clean_linker_2, # of connection points: 2
#     Edge 43, Type (0, 0), BuildingBlock: XUDNAN_clean_linker_2, # of connection points: 2
#     Edge 44, Type (0, 0), BuildingBlock: XUDNAN_clean_linker_2, # of connection points: 2
#     Edge 45, Type (0, 0), BuildingBlock: XUDNAN_clean_linker_2, # of connection points: 2
#     Edge 46, Type (0, 0), BuildingBlock: XUDNAN_clean_linker_2, # of connection points: 2
#     Edge 47, Type (0, 0), BuildingBlock: XUDNAN_clean_linker_2, # of connection points: 2
#     Edge 48, Type (0, 0), BuildingBlock: XUDNAN_clean_linker_2, # of connection points: 2
#     Edge 49, Type (0, 0), BuildingBlock: XUDNAN_clean_linker_2, # of connection points: 2
#     Edge 50, Type (0, 0), BuildingBlock: XUDNAN_clean_linker_2, # of connection points: 2
#     Edge 51, Type (0, 0), BuildingBlock: XUDNAN_clean_linker_2, # of connection points: 2
#     Edge 52, Type (0, 0), BuildingBlock: XUDNAN_clean_linker_2, # of connection points: 2
#     Edge 53, Type (0, 0), BuildingBlock: XUDNAN_clean_linker_2, # of connection points: 2
#     Edge 54, Type (0, 0), BuildingBlock: XUDNAN_clean_linker_2, # of connection points: 2
#     Edge 55, Type (0, 0), BuildingBlock: XUDNAN_clean_linker_2, # of connection points: 2
#     Edge 56, Type (0, 0), BuildingBlock: XUDNAN_clean_linker_2, # of connection points: 2
#     Edge 57, Type (0, 0), BuildingBlock: XUDNAN_clean_linker_2, # of connection points: 2
#     Edge 58, Type (0, 0), BuildingBlock: XUDNAN_clean_linker_2, # of connection points: 2
#     Edge 59, Type (0, 0), BuildingBlock: XUDNAN_clean_linker_2, # of connection points: 2
#     Edge 60, Type (0, 0), BuildingBlock: XUDNAN_clean_linker_2, # of connection points: 2
#     Edge 61, Type (0, 0), BuildingBlock: XUDNAN_clean_linker_2, # of connection points: 2
#     Edge 62, Type (0, 0), BuildingBlock: XUDNAN_clean_linker_2, # of connection points: 2
#     Edge 63, Type (0, 0), BuildingBlock: XUDNAN_clean_linker_2, # of connection points: 2
#     Edge 64, Type (0, 0), BuildingBlock: XUDNAN_clean_linker_2, # of connection points: 2
#     Edge 65, Type (0, 0), BuildingBlock: XUDNAN_clean_linker_2, # of connection points: 2
#     Edge 66, Type (0, 0), BuildingBlock: XUDNAN_clean_linker_2, # of connection points: 2
#     Edge 67, Type (0, 0), BuildingBlock: XUDNAN_clean_linker_2, # of connection points: 2
#     Edge 68, Type (0, 0), BuildingBlock: XUDNAN_clean_linker_2, # of connection points: 2
#     Edge 69, Type (0, 0), BuildingBlock: XUDNAN_clean_linker_2, # of connection points: 2
#     Edge 70, Type (0, 0), BuildingBlock: XUDNAN_clean_linker_2, # of connection points: 2
#     Edge 71, Type (0, 0), BuildingBlock: XUDNAN_clean_linker_2, # of connection points: 2
# Relax obj value: 0.098
# Max RMSD: 0.170
# Mean RMSD: 0.170
data_MOF--net-wfw--node1-HICVOG_clean_sbu_0--edge1-XUDNAN_clean_linker_2
_symmetry_space_group_name_H-M    P1
_symmetry_Int_Tables_number       1
_symmetry_cell_setting            triclinic
loop_
_symmetry_equiv_pos_as_xyz
'x, y, z'
_cell_length_a     44.830046
_cell_length_b     44.995707
_cell_length_c     35.126875
_cell_angle_alpha  90.015181
_cell_angle_beta   89.840459
_cell_angle_gamma 90.039347
loop_
_atom_site_label
_atom_site_type_symbol
_atom_site_fract_x
_atom_site_fract_y
_atom_site_fract_z
_atom_type_partial_charge
Zn0 Zn 0.56609 0.25403 0.41254 0.0
C1 C 0.571 0.17278 0.36081 0.0
N2 N 0.58646 0.16527 0.39183 0.0
C3 C 0.5851 0.18978 0.41352 0.0
N4 N 0.56964 0.21198 0.39625 0.0
N5 N 0.56036 0.20081 0.36323 0.0
C6 C 0.54136 0.22885 0.25822 0.0
O7 O 0.5483 0.25291 0.27741 0.0
O8 O 0.56189 0.25827 0.47037 0.0
Zn9 Zn 0.52568 0.21271 0.33364 0.0
N10 N 0.60163 0.27531 0.39576 0.0
C11 C 0.63265 0.29165 0.34472 0.0
C12 C 0.60815 0.27543 0.35796 0.0
C13 C 0.6187 0.29079 0.4209 0.0
N14 N 0.6499 0.30682 0.36989 0.0
C15 C 0.64376 0.30651 0.40783 0.0
O16 O 0.51304 0.25557 0.3391 0.0
C17 C 0.515 0.27796 0.36097 0.0
O18 O 0.53238 0.27804 0.38954 0.0
H19 H 0.59418 0.26329 0.33827 0.0
H20 H 0.6128 0.29086 0.45081 0.0
C21 C 0.4744 0.16924 0.34095 0.0
C22 C 0.44909 0.15942 0.36164 0.0
C23 C 0.46028 0.19404 0.41055 0.0
C24 C 0.48507 0.20368 0.39024 0.0
N25 N 0.49154 0.19163 0.35569 0.0
N26 N 0.44286 0.17237 0.39575 0.0
H27 H 0.47988 0.15979 0.31348 0.0
C28 C 0.5475 0.23963 0.49048 0.0
O29 O 0.53489 0.21679 0.47365 0.0
O30 O 0.53168 0.20621 0.27634 0.0
H31 H 0.49902 0.22112 0.40169 0.0
H32 H 0.63795 0.29213 0.31466 0.0
H33 H 0.45481 0.20378 0.43785 0.0
Zn34 Zn 0.3269 0.52319 0.34023 0.0
C35 C 0.34423 0.58775 0.41404 0.0
N36 N 0.36891 0.59028 0.39255 0.0
C37 C 0.36262 0.57341 0.36219 0.0
N38 N 0.33528 0.5609 0.36489 0.0
N39 N 0.32336 0.57034 0.39731 0.0
C40 C 0.25814 0.5552 0.49075 0.0
O41 O 0.23409 0.5452 0.4737 0.0
O42 O 0.33313 0.52712 0.28332 0.0
Zn43 Zn 0.28194 0.56522 0.41317 0.0
N44 N 0.35312 0.49481 0.36541 0.0
C45 C 0.36833 0.47981 0.42734 0.0
C46 C 0.35115 0.49766 0.40386 0.0
C47 C 0.37135 0.47395 0.34926 0.0
N48 N 0.38649 0.4592 0.41151 0.0
C49 C 0.38861 0.45535 0.37314 0.0
O50 O 0.25983 0.52917 0.39298 0.0
C51 C 0.26193 0.50898 0.36773 0.0
O52 O 0.28518 0.50639 0.34713 0.0
H53 H 0.33615 0.51379 0.41627 0.0
H54 H 0.37244 0.4721 0.31859 0.0
C55 C 0.23835 0.61213 0.41605 0.0
C56 C 0.22486 0.63868 0.40394 0.0
C57 C 0.25599 0.63868 0.34922 0.0
C58 C 0.26938 0.61239 0.36146 0.0
N59 N 0.26051 0.59981 0.3948 0.0
N60 N 0.23427 0.65135 0.37083 0.0
H61 H 0.23221 0.60199 0.44284 0.0
C62 C 0.31145 0.53992 0.26665 0.0
O63 O 0.28906 0.5497 0.28737 0.0
O64 O 0.28017 0.56398 0.47078 0.0
H65 H 0.28708 0.60238 0.34488 0.0
H66 H 0.36708 0.48208 0.45796 0.0
H67 H 0.26304 0.64912 0.32295 0.0
Zn68 Zn 0.97749 0.27861 0.41432 0.0
C69 C 0.94631 0.34497 0.35001 0.0
N70 N 0.92494 0.34473 0.37688 0.0
C71 C 0.93617 0.32672 0.40344 0.0
N72 N 0.96315 0.31595 0.39338 0.0
N73 N 0.97 0.32777 0.35976 0.0
C74 C 0.99239 0.31598 0.25887 0.0
O75 O 0.97368 0.29737 0.27509 0.0
O76 O 0.97922 0.27687 0.47249 0.0
Zn77 Zn 1.01044 0.32834 0.33759 0.0
N78 N 0.94867 0.24955 0.39812 0.0
C79 C 0.93023 0.21886 0.3483 0.0
C80 C 0.94955 0.241 0.36103 0.0
C81 C 0.92877 0.23743 0.42292 0.0
N82 N 0.91094 0.20606 0.37327 0.0
C83 C 0.90949 0.21491 0.41028 0.0
O84 O 0.03525 0.29056 0.34585 0.0
C85 C 0.03594 0.26785 0.36753 0.0
O86 O 1.01613 0.26362 0.39291 0.0
H87 H 0.96544 0.25107 0.34171 0.0
H88 H 0.92876 0.24449 0.45238 0.0
C89 C 0.05997 0.37113 0.35154 0.0
C90 C 0.07279 0.3961 0.37014 0.0
C91 C 0.02777 0.40209 0.40537 0.0
C92 C 1.01546 0.37765 0.3872 0.0
N93 N 0.03148 0.36257 0.3605 0.0
N94 N 0.05586 0.41062 0.39646 0.0
H95 H 0.07228 0.3584 0.3307 0.0
C96 C 0.99906 0.29001 0.49211 0.0
O97 O 1.01926 0.30621 0.4746 0.0
O98 O 1.00888 0.33227 0.27981 0.0
H99 H 0.99314 0.37089 0.39462 0.0
H100 H 0.93086 0.21158 0.31896 0.0
H101 H 1.01513 0.41422 0.42655 0.0
Zn102 Zn 0.25912 0.96532 0.41441 0.0
C103 C 0.17685 0.96559 0.36891 0.0
N104 N 0.17124 0.94679 0.39769 0.0
C105 C 0.1961 0.94844 0.41873 0.0
N106 N 0.21653 0.96702 0.4033 0.0
N107 N 0.20424 0.97813 0.37203 0.0
C108 C 0.23141 0.98923 0.27685 0.0
O109 O 0.24777 0.97608 0.30287 0.0
O110 O 0.2685 0.96849 0.47085 0.0
Zn111 Zn 0.21653 1.01442 0.34514 0.0
N112 N 0.27267 0.92659 0.39817 0.0
C113 C 0.26745 0.88332 0.3598 0.0
C114 C 0.25835 0.91196 0.36971 0.0
C115 C 0.29597 0.91397 0.41676 0.0
N116 N 0.29052 0.87052 0.3787 0.0
C117 C 0.30532 0.88517 0.40685 0.0
O118 O 0.2601 0.02663 0.35116 0.0
C119 C 0.28435 1.01821 0.3665 0.0
O120 O 0.28541 0.99581 0.3885 0.0
H121 H 0.23982 0.92228 0.35519 0.0
H122 H 0.30644 0.92604 0.43978 0.0
C123 C 0.17756 0.06934 0.35262 0.0
C124 C 0.16269 0.08983 0.37679 0.0
C125 C 0.18118 0.06389 0.43073 0.0
C126 C 0.19577 0.04398 0.40704 0.0
N127 N 0.19352 0.04661 0.3686 0.0
N128 N 0.16506 0.08614 0.41514 0.0
H129 H 0.17618 0.0712 0.32196 0.0
C130 C 0.26742 0.99237 0.49023 0.0
O131 O 0.25789 1.01689 0.47401 0.0
O132 O 0.21228 1.00842 0.28781 0.0
H133 H 0.209 0.02635 0.41927 0.0
H134 H 0.25611 0.87127 0.33746 0.0
H135 H 0.18271 0.0618 0.46135 0.0
Zn136 Zn 0.03057 0.82618 0.18043 0.0
C137 C 0.10416 0.82895 0.11343 0.0
N138 N 0.11411 0.84871 0.13874 0.0
C139 C 0.09333 0.84798 0.16628 0.0
N140 N 0.07091 0.8286 0.15779 0.0
N141 N 0.07843 0.81613 0.12478 0.0
C142 C 0.05755 0.75003 0.03295 0.0
O143 O 0.04094 0.7306 0.05118 0.0
O144 O 0.03497 0.82759 0.23803 0.0
Zn145 Zn 0.07023 0.77554 0.10913 0.0
N146 N 1.00731 0.86037 0.16052 0.0
C147 C 1.00989 0.90309 0.12053 0.0
C148 C 0.02326 0.87856 0.1371 0.0
C149 C 0.97769 0.86588 0.16751 0.0
N150 N 0.98073 0.90851 0.12737 0.0
C151 C 0.96375 0.89079 0.15017 0.0
O152 O 0.03245 0.75807 0.13037 0.0
C153 C 1.01016 0.76287 0.15201 0.0
O154 O 1.00735 0.78729 0.17023 0.0
H155 H 0.04637 0.87421 0.13095 0.0
H156 H 0.96524 0.8508 0.18549 0.0
C157 C 0.11846 0.73345 0.10439 0.0
C158 C 0.14431 0.71893 0.11736 0.0
C159 C 0.13874 0.74289 0.17714 0.0
C160 C 0.1131 0.75719 0.16413 0.0
N161 N 0.10357 0.75236 0.12796 0.0
N162 N 0.15383 0.72429 0.15347 0.0
H163 H 0.1108 0.73052 0.07547 0.0
C164 C 0.04165 0.80328 0.25451 0.0
O165 O 0.04541 0.77928 0.23374 0.0
O166 O 0.07043 0.77068 0.05154 0.0
H167 H 0.1012 0.7725 0.1824 0.0
H168 H 0.02252 0.91767 0.10205 0.0
H169 H 0.14675 0.74677 0.20574 0.0
Zn170 Zn 0.71316 0.02457 0.17897 0.0
C171 C 0.71146 0.09653 0.10906 0.0
N172 N 0.69227 0.10748 0.13457 0.0
C173 C 0.69284 0.08738 0.16277 0.0
N174 N 0.71145 0.06431 0.15451 0.0
N175 N 0.72386 0.07086 0.12105 0.0
C176 C 0.78787 0.04787 0.02823 0.0
O177 O 0.80431 0.02781 0.04535 0.0
O178 O 0.71465 0.03013 0.2368 0.0
Zn179 Zn 0.76428 0.06106 0.10491 0.0
N180 N 0.67779 1.00158 0.1618 0.0
C181 C 0.63339 1.00391 0.12475 0.0
C182 C 0.6585 1.01742 0.13987 0.0
C183 C 0.67289 0.97194 0.16857 0.0
N184 N 0.62859 0.9747 0.1313 0.0
C185 C 0.64748 0.95785 0.15255 0.0
O186 O 0.77994 0.02182 0.12404 0.0
C187 C 0.77443 1.00041 0.1467 0.0
O188 O 0.75078 0.99988 0.16701 0.0
H189 H 0.66246 0.04053 0.13381 0.0
H190 H 0.68887 0.95949 0.18515 0.0
C191 C 0.81053 0.10557 0.10187 0.0
C192 C 0.82846 0.1287 0.11628 0.0
C193 C 0.80427 0.12362 0.17619 0.0
C194 C 0.78629 0.10108 0.16152 0.0
N195 N 0.78993 0.09227 0.12482 0.0
N196 N 0.82488 0.13683 0.15336 0.0
H197 H 0.81307 0.09794 0.07288 0.0
C198 C 0.73998 0.03951 0.24791 0.0
O199 O 0.76053 0.04477 0.22207 0.0
O200 O 0.76926 0.06301 0.04758 0.0
H201 H 0.76943 0.09078 0.17912 0.0
H202 H 0.61791 1.01646 0.10751 0.0
H203 H 0.80174 0.13071 0.20544 0.0
Zn204 Zn 0.51201 0.70842 0.17628 0.0
C205 C 0.4388 0.7117 0.10826 0.0
N206 N 0.42749 0.69203 0.13283 0.0
C207 C 0.44808 0.69078 0.16044 0.0
N208 N 0.47175 0.70892 0.15276 0.0
N209 N 0.46524 0.72255 0.1202 0.0
C210 C 0.4983 0.7637 0.02456 0.0
O211 O 0.52118 0.74742 0.03497 0.0
O212 O 0.50662 0.70735 0.23398 0.0
Zn213 Zn 0.47808 0.76207 0.10513 0.0
N214 N 0.53294 0.67273 0.15622 0.0
C215 C 0.52803 0.6303 0.11609 0.0
C216 C 0.51607 0.6556 0.13264 0.0
C217 C 0.56214 0.66551 0.16315 0.0
N218 N 0.55676 0.62313 0.12299 0.0
C219 C 0.57467 0.63981 0.14582 0.0
O220 O 0.51778 0.77508 0.12488 0.0
C221 C 0.53911 0.76882 0.1472 0.0
O222 O 0.53894 0.74503 0.16695 0.0
H223 H 0.49334 0.66138 0.12637 0.0
H224 H 0.57532 0.6799 0.18111 0.0
C225 C 0.42851 0.80172 0.10137 0.0
C226 C 0.40984 0.82464 0.11435 0.0
C227 C 0.43235 0.8214 0.17526 0.0
C228 C 0.45123 0.79897 0.16202 0.0
N229 N 0.44916 0.78985 0.12526 0.0
N230 N 0.41245 0.83403 0.15103 0.0
H231 H 0.42761 0.79438 0.07206 0.0
C232 C 0.50301 0.73201 0.25122 0.0
O233 O 0.50335 0.75673 0.23136 0.0
O234 O 0.47817 0.77021 0.04864 0.0
H235 H 0.46788 0.78939 0.18054 0.0
H236 H 0.51464 0.61652 0.09755 0.0
H237 H 0.43395 0.82916 0.20433 0.0
Zn238 Zn 0.8279 0.51003 0.16523 0.0
C239 C 0.8362 0.43896 0.09434 0.0
N240 N 0.85885 0.43299 0.118 0.0
C241 C 0.85604 0.45395 0.14481 0.0
N242 N 0.83244 0.47191 0.13839 0.0
N243 N 0.81972 0.46242 0.10639 0.0
C244 C 0.74722 0.48286 0.02199 0.0
O245 O 0.72673 0.48611 0.04849 0.0
O246 O 0.83113 0.50174 0.22254 0.0
Zn247 Zn 0.77915 0.47141 0.08968 0.0
N248 N 0.85944 0.53641 0.14461 0.0
C249 C 0.89089 0.54289 0.09042 0.0
C250 C 0.86895 0.52722 0.10969 0.0
C251 C 0.87075 0.56186 0.16058 0.0
N252 N 0.90227 0.56777 0.10624 0.0
C253 C 0.89301 0.57819 0.14068 0.0
O254 O 0.76087 0.50833 0.11366 0.0
C255 C 0.76437 0.52893 0.13813 0.0
O256 O 0.78802 0.53079 0.15797 0.0
H257 H 0.8594 0.5079 0.09634 0.0
H258 H 0.8627 0.56909 0.18812 0.0
C259 C 0.74536 0.41703 0.08116 0.0
C260 C 0.72534 0.39495 0.0936 0.0
C261 C 0.72591 0.41609 0.15549 0.0
C262 C 0.74544 0.43816 0.14293 0.0
N263 N 0.75448 0.43842 0.10599 0.0
N264 N 0.71602 0.39528 0.13051 0.0
H265 H 0.75264 0.41794 0.05178 0.0
C266 C 0.81933 0.51877 0.2474 0.0
O267 O 0.80767 0.54408 0.23629 0.0
O268 O 0.77362 0.47606 0.03217 0.0
H269 H 0.753 0.45529 0.16225 0.0
H270 H 0.89866 0.53552 0.0628 0.0
H271 H 0.71827 0.41577 0.18473 0.0
Zn272 Zn 0.46935 0.77732 0.60666 0.0
C273 C 0.45788 0.85844 0.65348 0.0
N274 N 0.44571 0.86488 0.61949 0.0
C275 C 0.45039 0.84037 0.59862 0.0
N276 N 0.46515 0.81946 0.61859 0.0
N277 N 0.471 0.83124 0.65242 0.0
C278 C 0.5022 0.80871 0.75147 0.0
O279 O 0.49902 0.78344 0.73325 0.0
O280 O 0.47047 0.76814 0.54998 0.0
Zn281 Zn 0.51053 0.82626 0.67549 0.0
N282 N 0.43476 0.75717 0.62747 0.0
C283 C 0.39533 0.75399 0.67277 0.0
C284 C 0.42205 0.76676 0.66041 0.0
C285 C 0.42218 0.73496 0.60676 0.0
N286 N 0.38233 0.73231 0.65156 0.0
C287 C 0.39515 0.72223 0.61884 0.0
O288 O 0.5306 0.78565 0.66849 0.0
C289 C 0.52747 0.76125 0.65055 0.0
O290 O 0.50577 0.75717 0.62793 0.0
H291 H 0.43222 0.78458 0.67645 0.0
H292 H 0.43247 0.72835 0.58019 0.0
C293 C 0.55971 0.87085 0.66668 0.0
C294 C 0.57744 0.8899 0.64373 0.0
C295 C 0.54868 0.87604 0.58982 0.0
C296 C 0.53183 0.85698 0.61224 0.0
N297 N 0.53708 0.85499 0.65026 0.0
N298 N 0.57095 0.89187 0.60597 0.0
H299 H 0.56374 0.8686 0.69688 0.0
C300 C 0.48278 0.7823 0.52284 0.0
O301 O 0.49645 0.80754 0.52988 0.0
O302 O 0.50704 0.83238 0.73253 0.0
H303 H 0.51483 0.84353 0.59915 0.0
H304 H 0.38474 0.7616 0.69871 0.0
H305 H 0.54443 0.87792 0.55961 0.0
Zn306 Zn 0.76118 0.46595 0.59702 0.0
C307 C 0.67885 0.46246 0.6431 0.0
N308 N 0.67561 0.4419 0.61564 0.0
C309 C 0.7011 0.44432 0.59586 0.0
N310 N 0.71951 0.46479 0.61077 0.0
N311 N 0.70551 0.47665 0.64044 0.0
C312 C 0.72711 0.50067 0.74313 0.0
O313 O 0.75117 0.48987 0.72678 0.0
O314 O 0.76731 0.46589 0.53916 0.0
Zn315 Zn 0.71544 0.51445 0.66523 0.0
N316 N 0.77825 0.4297 0.6165 0.0
C317 C 0.78661 0.39728 0.66889 0.0
C318 C 0.77307 0.42245 0.65348 0.0
C319 C 0.79598 0.41256 0.59402 0.0
N320 N 0.80502 0.38058 0.64677 0.0
C321 C 0.80991 0.38741 0.60953 0.0
O322 O 0.75902 0.52761 0.66031 0.0
C323 C 0.78338 0.52081 0.64368 0.0
O324 O 0.78524 0.49903 0.62069 0.0
H325 H 0.75885 0.43635 0.67091 0.0
H326 H 0.80008 0.4191 0.56482 0.0
C327 C 0.67501 0.56696 0.6555 0.0
C328 C 0.65838 0.58625 0.63175 0.0
C329 C 0.67595 0.55978 0.57756 0.0
C330 C 0.69232 0.54103 0.60092 0.0
N331 N 0.69142 0.5446 0.63932 0.0
N332 N 0.65945 0.58174 0.59343 0.0
H333 H 0.67458 0.56934 0.68614 0.0
C334 C 0.76627 0.48879 0.51788 0.0
O335 O 0.75946 0.51458 0.53313 0.0
O336 O 0.70702 0.51228 0.72223 0.0
H337 H 0.70567 0.52351 0.58852 0.0
H338 H 0.78292 0.39134 0.69837 0.0
H339 H 0.67637 0.55696 0.54698 0.0
Zn340 Zn 0.06807 0.7539 0.60982 0.0
C341 C 0.07075 0.67121 0.65617 0.0
N342 N 0.08551 0.66423 0.62425 0.0
C343 C 0.08402 0.68922 0.60344 0.0
N344 N 0.06912 0.71113 0.62207 0.0
N345 N 0.06026 0.69937 0.65497 0.0
C346 C 0.0534 0.72265 0.75499 0.0
O347 O 0.0663 0.74028 0.73009 0.0
O348 O 0.06375 0.76339 0.55346 0.0
Zn349 Zn 0.02646 0.71181 0.68656 0.0
N350 N 0.10562 0.77134 0.626 0.0
C351 C 0.14555 0.77523 0.67018 0.0
C352 C 0.11871 0.76228 0.65882 0.0
C353 C 0.11846 0.79256 0.60376 0.0
N354 N 0.15842 0.79642 0.64795 0.0
C355 C 0.14578 0.80529 0.61464 0.0
O356 O 1.01571 0.75549 0.68495 0.0
C357 C 1.01891 0.77856 0.66449 0.0
O358 O 0.03634 0.77873 0.63587 0.0
H359 H 0.10838 0.74517 0.67596 0.0
H360 H 0.10735 0.79951 0.57796 0.0
C361 C 0.97347 0.67048 0.67817 0.0
C362 C 0.94724 0.66276 0.65803 0.0
C363 C 0.95796 0.70026 0.61248 0.0
C364 C 0.98369 0.70775 0.63218 0.0
N365 N 0.99083 0.69328 0.66488 0.0
N366 N 0.94037 0.67815 0.62589 0.0
H367 H 0.97955 0.65905 0.70412 0.0
C368 C 0.0533 0.74886 0.52546 0.0
O369 O 0.04276 0.72193 0.53084 0.0
O370 O 0.03392 0.70429 0.74298 0.0
H371 H 0.99788 0.7254 0.62169 0.0
H372 H 0.15615 0.76842 0.69639 0.0
H373 H 0.95197 0.71192 0.58669 0.0
Zn374 Zn 0.8266 0.0211 0.6821 0.0
C375 C 0.84396 0.08435 0.6058 0.0
N376 N 0.8673 0.08973 0.62859 0.0
C377 C 0.86167 0.07278 0.65932 0.0
N378 N 0.83576 0.05765 0.65506 0.0
N379 N 0.82433 0.06551 0.62185 0.0
C380 C 0.76041 0.05063 0.52739 0.0
O381 O 0.73523 0.04385 0.54452 0.0
O382 O 0.83351 0.02706 0.73868 0.0
Zn383 Zn 0.78342 0.06155 0.60506 0.0
N384 N 0.85144 0.9908 0.658 0.0
C385 C 0.86341 0.9719 0.59657 0.0
C386 C 0.84725 0.99104 0.6197 0.0
C387 C 0.87101 0.97139 0.67446 0.0
N388 N 0.88295 0.95278 0.61264 0.0
C389 C 0.88736 0.9516 0.65096 0.0
O390 O 0.75978 0.02781 0.62861 0.0
C391 C 0.76081 1.00911 0.65581 0.0
O392 O 0.78387 1.00647 0.67668 0.0
H393 H 0.83137 1.00622 0.60719 0.0
H394 H 0.874 0.97165 0.705 0.0
C395 C 0.74291 0.11097 0.59681 0.0
C396 C 0.72937 0.13777 0.60806 0.0
C397 C 0.758 0.13725 0.66473 0.0
C398 C 0.77094 0.11041 0.65371 0.0
N399 N 0.76344 0.09798 0.61981 0.0
N400 N 0.73759 0.15033 0.64169 0.0
H401 H 0.73756 0.1008 0.56982 0.0
C402 C 0.81745 0.04812 0.75159 0.0
O403 O 0.80028 0.06265 0.72777 0.0
O404 O 0.78292 0.05809 0.54732 0.0
H405 H 0.78719 0.09975 0.6717 0.0
H406 H 0.86039 0.9721 0.56602 0.0
H407 H 0.76409 0.14758 0.6914 0.0
Zn408 Zn 1.0134 0.21522 0.82407 0.0
C409 C 0.96314 0.18898 0.91461 0.0
N410 N 0.95725 0.16635 0.8908 0.0
C411 C 0.97169 0.17382 0.85872 0.0
N412 N 0.98625 0.19988 0.86303 0.0
N413 N 0.98038 0.20994 0.89784 0.0
C414 C 1.00906 0.26747 0.98596 0.0
O415 O 0.03319 0.26932 0.96485 0.0
O416 O 0.99248 0.23056 0.77594 0.0
Zn417 Zn 0.98375 0.25168 0.91282 0.0
N418 N 0.0382 0.18195 0.80669 0.0
C419 C 0.04604 0.14621 0.75768 0.0
C420 C 0.02952 0.16937 0.77332 0.0
C421 C 0.06282 0.17177 0.82554 0.0
N422 N 0.07064 0.13629 0.77609 0.0
C423 C 0.0797 0.14818 0.80978 0.0
O424 O 0.02051 0.27206 0.89048 0.0
C425 C 0.04099 0.26962 0.86542 0.0
O426 O 0.04101 0.24845 0.84131 0.0
H427 H 1.00986 0.17735 0.75882 0.0
H428 H 0.06935 0.18225 0.85196 0.0
C429 C 0.93248 0.29098 0.91599 0.0
C430 C 0.90778 0.30607 0.90044 0.0
C431 C 0.91686 0.28224 0.84116 0.0
C432 C 0.94122 0.2674 0.85671 0.0
N433 N 0.94873 0.27219 0.89363 0.0
N434 N 0.90088 0.30128 0.8632 0.0
H435 H 0.93921 0.29464 0.94517 0.0
C436 C 0.9917 0.25828 0.7687 0.0
O437 O 0.99975 0.27705 0.7954 0.0
O438 O 0.98495 0.25842 0.97072 0.0
H439 H 0.95424 0.25229 0.83949 0.0
H440 H 0.03937 0.13614 0.73106 0.0
H441 H 0.91078 0.27878 0.81171 0.0
Zn442 Zn 0.31963 1.0164 0.84225 0.0
C443 C 0.34039 0.95016 0.91376 0.0
N444 N 0.36223 0.94468 0.88847 0.0
C445 C 0.3555 0.96299 0.85942 0.0
N446 N 0.33044 0.97888 0.86688 0.0
N447 N 0.3207 0.97024 0.90074 0.0
C448 C 0.25902 0.98222 0.99853 0.0
O449 O 0.23725 0.99621 0.98115 0.0
O450 O 0.32621 1.0121 0.78519 0.0
Zn451 Zn 0.28085 0.97493 0.9209 0.0
N452 N 0.34461 0.04673 0.8667 0.0
C453 C 0.36013 0.06199 0.92847 0.0
C454 C 0.34376 0.04326 0.90514 0.0
C455 C 0.36066 0.06939 0.85051 0.0
N456 N 0.37639 0.08409 0.9126 0.0
C457 C 0.37721 0.08875 0.87432 0.0
O458 O 0.25863 1.01212 0.90491 0.0
C459 C 0.25694 0.03007 0.87695 0.0
O460 O 0.27679 0.03086 0.85087 0.0
H461 H 0.33022 0.026 0.91772 0.0
H462 H 0.36076 0.07208 0.8199 0.0
C463 C 0.24106 0.92455 0.92328 0.0
C464 C 0.22383 0.90174 0.90697 0.0
C465 C 0.24242 0.91501 0.84596 0.0
C466 C 0.25928 0.93772 0.86224 0.0
N467 N 0.25814 0.94213 0.90048 0.0
N468 N 0.22493 0.89777 0.86856 0.0
H469 H 0.24023 0.92894 0.95353 0.0
C470 C 0.31129 0.02714 0.76117 0.0
O471 O 0.29338 0.04813 0.77359 0.0
O472 O 0.28046 0.9717 0.9788 0.0
H473 H 0.27293 0.95199 0.84457 0.0
H474 H 0.35978 0.05916 0.95905 0.0
H475 H 0.24296 0.91134 0.81553 0.0
Zn476 Zn 0.57053 0.27119 0.90136 0.0
C477 C 0.5969 0.34454 0.84563 0.0
N478 N 0.61894 0.34173 0.87122 0.0
C479 C 0.60903 0.32058 0.89455 0.0
N480 N 0.58201 0.31045 0.8843 0.0
N481 N 0.57366 0.32575 0.85356 0.0
C482 C 0.54385 0.29266 0.76348 0.0
O483 O 0.54968 0.27416 0.79133 0.0
O484 O 0.56975 0.26488 0.95883 0.0
Zn485 Zn 0.53296 0.32461 0.83023 0.0
N486 N 0.60146 0.24464 0.88275 0.0
C487 C 0.63046 0.22607 0.83113 0.0
C488 C 0.60825 0.24487 0.84505 0.0
C489 C 0.61672 0.22696 0.90741 0.0
N490 N 0.64537 0.2081 0.8556 0.0
C491 C 0.63938 0.20816 0.89361 0.0
O492 O 0.50685 0.28833 0.84425 0.0
C493 C 0.50848 0.26361 0.86195 0.0
O494 O 0.53122 0.25679 0.88164 0.0
H495 H 0.59663 0.25967 0.82606 0.0
H496 H 0.61097 0.22727 0.93732 0.0
C497 C 0.48128 0.36687 0.84047 0.0
C498 C 0.46845 0.39337 0.8554 0.0
C499 C 0.51599 0.40705 0.87967 0.0
C500 C 0.52821 0.38092 0.86579 0.0
N501 N 0.51109 0.36131 0.84597 0.0
N502 N 0.48669 0.41253 0.87427 0.0
H503 H 0.46779 0.35062 0.82575 0.0
C504 C 0.55685 0.27869 0.98583 0.0
O505 O 0.54204 0.30321 0.97855 0.0
O506 O 0.53677 0.31929 0.77197 0.0
H507 H 0.55134 0.3764 0.87126 0.0
H508 H 0.6359 0.22584 0.80111 0.0
H509 H 0.52962 0.42278 0.89515 0.0
Zn510 Zn 0.2155 0.52499 0.83898 0.0
C511 C 0.21352 0.59789 0.9069 0.0
N512 N 0.19391 0.60775 0.88124 0.0
C513 C 0.19521 0.58736 0.8535 0.0
N514 N 0.21441 0.56501 0.86227 0.0
N515 N 0.22665 0.57233 0.8955 0.0
C516 C 0.25857 0.55649 0.99603 0.0
O517 O 0.22972 0.55274 0.99173 0.0
O518 O 0.21483 0.53056 0.78128 0.0
Zn519 Zn 0.26728 0.56257 0.91028 0.0
N520 N 0.18071 0.50264 0.859 0.0
C521 C 0.13852 0.50506 0.9003 0.0
C522 C 0.16318 0.51833 0.88351 0.0
C523 C 0.17457 0.47342 0.85128 0.0
N524 N 0.13241 0.47626 0.89263 0.0
C525 C 0.14956 0.45958 0.86878 0.0
O526 O 0.28331 0.52406 0.8888 0.0
C527 C 0.27791 0.50211 0.86701 0.0
O528 O 0.25351 0.50035 0.84851 0.0
H529 H 0.16816 0.54111 0.89033 0.0
H530 H 0.18932 0.46121 0.83259 0.0
C531 C 0.31114 0.6098 0.91341 0.0
C532 C 0.32832 0.63316 0.89824 0.0
C533 C 0.30755 0.62377 0.8374 0.0
C534 C 0.28997 0.60117 0.85281 0.0
N535 N 0.29232 0.59434 0.89034 0.0
N536 N 0.32629 0.63922 0.86038 0.0
H537 H 0.31261 0.60402 0.94324 0.0
C538 C 0.23962 0.541 0.76961 0.0
O539 O 0.26068 0.54576 0.79476 0.0
O540 O 0.27507 0.56073 0.96706 0.0
H541 H 0.27441 0.58928 0.83511 0.0
H542 H 0.12442 0.51748 0.91962 0.0
H543 H 0.30608 0.62921 0.80747 0.0
H544 H 0.59708 0.19217 0.29614 0.0
H545 H 0.55958 0.11415 0.34988 0.0
H546 H 0.58636 0.08198 0.30395 0.0
H547 H 0.60294 0.16281 0.19566 0.0
H548 H 0.63827 0.18125 0.18937 0.0
H549 H 0.61048 0.19727 0.22023 0.0
H550 H 0.64934 0.19812 0.27458 0.0
H551 H 0.67679 0.1808 0.24449 0.0
H552 H 0.66674 0.16387 0.28922 0.0
H553 H 0.6239 0.05815 0.25722 0.0
H554 H 0.663 0.04613 0.20952 0.0
H555 H 0.67816 0.14029 0.19203 0.0
C556 C 0.59295 0.16844 0.29654 0.0
C557 C 0.57537 0.15564 0.32551 0.0
C558 C 0.5721 0.12434 0.32691 0.0
C559 C 0.5876 0.10591 0.30128 0.0
C560 C 0.60654 0.11914 0.27468 0.0
C561 C 0.60882 0.1498 0.27176 0.0
C562 C 0.63325 0.1586 0.24423 0.0
C563 C 0.62044 0.176 0.21036 0.0
C564 C 0.65797 0.17639 0.26435 0.0
C565 C 0.64433 0.12829 0.23216 0.0
C566 C 0.62883 0.10566 0.24977 0.0
C567 C 0.63593 0.0758 0.24297 0.0
C568 C 0.6585 0.06908 0.21615 0.0
C569 C 0.67369 0.09216 0.1968 0.0
C570 C 0.66687 0.122 0.20605 0.0
H571 H 0.34351 0.59576 0.29551 0.0
H572 H 0.42199 0.56335 0.35332 0.0
H573 H 0.45418 0.58753 0.30499 0.0
H574 H 0.37402 0.59583 0.195 0.0
H575 H 0.35537 0.63035 0.18466 0.0
H576 H 0.33889 0.60444 0.21763 0.0
H577 H 0.33641 0.64556 0.26874 0.0
H578 H 0.35342 0.67171 0.23668 0.0
H579 H 0.37008 0.66467 0.28244 0.0
H580 H 0.4778 0.62189 0.25452 0.0
H581 H 0.48953 0.65968 0.20539 0.0
H582 H 0.39491 0.67334 0.18748 0.0
C583 C 0.36738 0.59208 0.29641 0.0
C584 C 0.38031 0.57666 0.32707 0.0
C585 C 0.41174 0.57413 0.3291 0.0
C586 C 0.43017 0.5881 0.302 0.0
C587 C 0.41677 0.60483 0.27335 0.0
C588 C 0.38599 0.60651 0.27017 0.0
C589 C 0.37694 0.6291 0.24053 0.0
C590 C 0.36034 0.61401 0.20749 0.0
C591 C 0.35811 0.65423 0.25818 0.0
C592 C 0.40726 0.64029 0.22812 0.0
C593 C 0.4301 0.62592 0.24676 0.0
C594 C 0.45998 0.63324 0.23976 0.0
C595 C 0.46654 0.65524 0.2123 0.0
C596 C 0.44329 0.67015 0.193 0.0
C597 C 0.41339 0.66253 0.20166 0.0
H598 H 0.8383 0.42294 0.20525 0.0
H599 H 0.91229 0.4739 0.16077 0.0
H600 H 0.94571 0.4516 0.20934 0.0
H601 H 0.86106 0.41903 0.30736 0.0
H602 H 0.84825 0.38116 0.31041 0.0
H603 H 0.83017 0.40668 0.27851 0.0
H604 H 0.84003 0.36965 0.22317 0.0
H605 H 0.85943 0.3448 0.25462 0.0
H606 H 0.8778 0.35864 0.2125 0.0
H607 H 0.97185 0.41879 0.26098 0.0
H608 H 0.98592 0.38226 0.31109 0.0
H609 H 0.89517 0.34927 0.31235 0.0
C610 C 0.86114 0.4307 0.20731 0.0
C611 C 0.87252 0.45111 0.18067 0.0
C612 C 0.90298 0.45927 0.18223 0.0
C613 C 0.92215 0.44635 0.20933 0.0
C614 C 0.91053 0.42484 0.23395 0.0
C615 C 0.88055 0.41736 0.2332 0.0
C616 C 0.87389 0.39123 0.25878 0.0
C617 C 0.85205 0.40007 0.29065 0.0
C618 C 0.8621 0.36452 0.23588 0.0
C619 C 0.90463 0.38514 0.27425 0.0
C620 C 0.92566 0.40469 0.26015 0.0
C621 C 0.95547 0.4033 0.27195 0.0
C622 C 0.96347 0.38218 0.29993 0.0
C623 C 0.94179 0.36253 0.31496 0.0
C624 C 0.91235 0.36376 0.30102 0.0
H625 H 0.19642 0.94005 0.30457 0.0
H626 H 0.11802 0.9777 0.35751 0.0
H627 H 0.08604 0.95244 0.30994 0.0
H628 H 0.16873 0.93848 0.20376 0.0
H629 H 0.186 0.90293 0.19505 0.0
H630 H 0.20286 0.9287 0.22766 0.0
H631 H 0.20263 0.88938 0.28064 0.0
H632 H 0.18558 0.86288 0.24918 0.0
H633 H 0.16803 0.87172 0.294 0.0
H634 H 0.06237 0.91673 0.25996 0.0
H635 H 0.051 0.87878 0.21058 0.0
H636 H 0.14565 0.8621 0.19739 0.0
C637 C 0.17276 0.94482 0.30433 0.0
C638 C 0.15981 0.96214 0.33337 0.0
C639 C 0.12841 0.96563 0.33432 0.0
C640 C 0.11008 0.95098 0.30774 0.0
C641 C 0.1235 0.9326 0.28066 0.0
C642 C 0.15427 0.92993 0.27853 0.0
C643 C 0.16336 0.90627 0.25029 0.0
C644 C 0.18125 0.91993 0.2172 0.0
C645 C 0.18092 0.88109 0.26971 0.0
C646 C 0.13307 0.89566 0.2373 0.0
C647 C 0.11017 0.91109 0.25456 0.0
C648 C 0.08027 0.90461 0.24628 0.0
C649 C 0.07389 0.8826 0.21867 0.0
C650 C 0.09733 0.86706 0.20041 0.0
C651 C 0.1271 0.87347 0.2108 0.0
H652 H 0.41327 0.96235 0.83217 0.0
H653 H 0.32174 0.94236 0.80209 0.0
H654 H 0.33942 0.91121 0.74888 0.0
H655 H 0.43991 0.96523 0.7285 0.0
H656 H 0.47587 0.95024 0.7409 0.0
H657 H 0.45588 0.97318 0.77443 0.0
H658 H 0.45986 0.93122 0.82448 0.0
H659 H 0.47908 0.90793 0.79077 0.0
H660 H 0.44537 0.89486 0.81348 0.0
H661 H 0.36636 0.87467 0.70895 0.0
H662 H 0.40058 0.84708 0.6672 0.0
H663 H 0.47584 0.8954 0.71396 0.0
C664 C 0.39704 0.95261 0.8131 0.0
C665 C 0.36606 0.95519 0.82079 0.0
C666 C 0.34545 0.94134 0.79611 0.0
C667 C 0.35533 0.92317 0.76622 0.0
C668 C 0.38594 0.91981 0.76059 0.0
C669 C 0.40657 0.93529 0.78192 0.0
C670 C 0.43821 0.92803 0.76876 0.0
C671 C 0.45336 0.95582 0.75215 0.0
C672 C 0.45671 0.9147 0.80132 0.0
C673 C 0.43208 0.90504 0.73788 0.0
C674 C 0.40169 0.90034 0.73457 0.0
C675 C 0.39011 0.87882 0.7104 0.0
C676 C 0.40981 0.86299 0.68715 0.0
C677 C 0.44083 0.8692 0.68707 0.0
C678 C 0.45229 0.89008 0.71349 0.0
H679 H 0.69675 0.44685 0.7135 0.0
H680 H 0.61858 0.46763 0.647 0.0
H681 H 0.58662 0.44276 0.69494 0.0
H682 H 0.67687 0.37679 0.73148 0.0
H683 H 0.69176 0.3741 0.77896 0.0
H684 H 0.70753 0.40016 0.74582 0.0
H685 H 0.69841 0.44256 0.79298 0.0
H686 H 0.68198 0.4176 0.82701 0.0
H687 H 0.66141 0.44969 0.81114 0.0
H688 H 0.56439 0.40686 0.745 0.0
H689 H 0.55466 0.36882 0.7946 0.0
H690 H 0.64851 0.37035 0.82423 0.0
C691 C 0.67274 0.44815 0.71059 0.0
C692 C 0.65999 0.46037 0.67749 0.0
C693 C 0.62861 0.45946 0.673 0.0
C694 C 0.61033 0.44502 0.69989 0.0
C695 C 0.6238 0.4314 0.73109 0.0
C696 C 0.65434 0.4334 0.73686 0.0
C697 C 0.66408 0.41356 0.76927 0.0
C698 C 0.68636 0.38976 0.75553 0.0
C699 C 0.67719 0.43199 0.80206 0.0
C700 C 0.63453 0.39978 0.78035 0.0
C701 C 0.61138 0.41023 0.75843 0.0
C702 C 0.58241 0.39894 0.76274 0.0
C703 C 0.57705 0.37696 0.79075 0.0
C704 C 0.60057 0.36634 0.81381 0.0
C705 C 0.6296 0.37802 0.80784 0.0
H706 H 0.10309 0.69059 0.71553 0.0
H707 H 0.05818 0.61305 0.67101 0.0
H708 H 0.08569 0.58113 0.71656 0.0
H709 H 0.17192 0.65787 0.72006 0.0
H710 H 0.18419 0.67669 0.76253 0.0
H711 H 0.15699 0.69387 0.73211 0.0
H712 H 0.12103 0.69888 0.78831 0.0
H713 H 0.14718 0.68169 0.82006 0.0
H714 H 0.11001 0.66672 0.81557 0.0
H715 H 0.12323 0.55723 0.76396 0.0
H716 H 0.16222 0.54548 0.81172 0.0
H717 H 0.18421 0.63904 0.81918 0.0
C718 C 0.0976 0.66718 0.71713 0.0
C719 C 0.07738 0.65444 0.69118 0.0
C720 C 0.07262 0.62332 0.6919 0.0
C721 C 0.08851 0.60501 0.71728 0.0
C722 C 0.1095 0.61815 0.74127 0.0
C723 C 0.11372 0.64866 0.74159 0.0
C724 C 0.13947 0.65729 0.76697 0.0
C725 C 0.16461 0.6723 0.74403 0.0
C726 C 0.12875 0.67727 0.79975 0.0
C727 C 0.14899 0.62707 0.78115 0.0
C728 C 0.13167 0.60458 0.76621 0.0
C729 C 0.13681 0.57481 0.77586 0.0
C730 C 0.15933 0.56819 0.80267 0.0
C731 C 0.17647 0.59126 0.81909 0.0
C732 C 0.17155 0.62082 0.80711 0.0
H733 H 0.98222 0.12352 0.81469 0.0
H734 H 0.92789 0.20286 0.82436 0.0
H735 H 0.89147 0.18161 0.77973 0.0
H736 H 0.96718 0.11518 0.70925 0.0
H737 H 0.96812 0.07516 0.71174 0.0
H738 H 0.99048 0.097 0.74387 0.0
H739 H 0.96597 0.06961 0.80074 0.0
H740 H 0.94272 0.04846 0.7689 0.0
H741 H 0.92596 0.07042 0.80616 0.0
H742 H 0.85704 0.14889 0.74488 0.0
H743 H 0.83409 0.11501 0.69863 0.0
H744 H 0.91318 0.05963 0.70003 0.0
C745 C 0.96328 0.1368 0.806 0.0
C746 C 0.95791 0.16498 0.82252 0.0
C747 C 0.93265 0.18156 0.81128 0.0
C748 C 0.91157 0.16944 0.78655 0.0
C749 C 0.91657 0.14105 0.77228 0.0
C750 C 0.94251 0.12554 0.77966 0.0
C751 C 0.94284 0.09631 0.75781 0.0
C752 C 0.96868 0.09589 0.72894 0.0
C753 C 0.94448 0.06963 0.78505 0.0
C754 C 0.91269 0.09764 0.73803 0.0
C755 C 0.89764 0.12322 0.74823 0.0
C756 C 0.86879 0.12907 0.73595 0.0
C757 C 0.85569 0.10935 0.71026 0.0
C758 C 0.87163 0.08451 0.69628 0.0
C759 C 0.9003 0.07814 0.71093 0.0
H760 H 0.54459 0.30649 0.05393 0.0
H761 H 0.56857 0.22102 1.00556 0.0
H762 H 0.56593 0.19828 0.06949 0.0
H763 H 0.58979 0.2974 0.13852 0.0
H764 H 0.5639 0.31672 0.1691 0.0
H765 H 0.56622 0.32617 0.11938 0.0
H766 H 0.50976 0.31647 0.1115 0.0
H767 H 0.50692 0.30715 0.16123 0.0
H768 H 0.49438 0.28112 0.12569 0.0
H769 H 0.55683 0.18414 0.13912 0.0
H770 H 0.54971 0.18173 0.20922 0.0
H771 H 0.53775 0.27731 0.21214 0.0
C772 C 0.54943 0.28303 0.05679 0.0
C773 C 0.55665 0.26556 0.02465 0.0
C774 C 0.56299 0.23493 0.02973 0.0
C775 C 0.56144 0.22174 0.06594 0.0
C776 C 0.55411 0.23957 0.09703 0.0
C777 C 0.54887 0.26969 0.09289 0.0
C778 C 0.54302 0.28426 0.13105 0.0
C779 C 0.56718 0.3075 0.14004 0.0
C780 C 0.51165 0.29805 0.13243 0.0
C781 C 0.54529 0.25759 0.15721 0.0
C782 C 0.5512 0.23187 0.1371 0.0
C783 C 0.55267 0.20424 0.1552 0.0
C784 C 0.54848 0.20302 0.19493 0.0
C785 C 0.54377 0.22933 0.21613 0.0
C786 C 0.54195 0.25684 0.1968 0.0
H787 H 0.23128 0.56189 0.06601 0.0
H788 H 0.31744 0.54774 0.01235 0.0
H789 H 0.34085 0.54334 0.07558 0.0
H790 H 0.2598 0.60638 0.14501 0.0
H791 H 0.23352 0.59116 0.1787 0.0
H792 H 0.22373 0.59385 0.1291 0.0
H793 H 0.21212 0.5374 0.12783 0.0
H794 H 0.22197 0.53454 0.17734 0.0
H795 H 0.24036 0.51136 0.14262 0.0
H796 H 0.3544 0.53712 0.14496 0.0
H797 H 0.35723 0.53276 0.21517 0.0
H798 H 0.26288 0.55344 0.22326 0.0
C799 C 0.25506 0.55791 0.06758 0.0
C800 C 0.27246 0.55493 0.03422 0.0
C801 C 0.30361 0.55009 0.03751 0.0
C802 C 0.31715 0.54752 0.07331 0.0
C803 C 0.29934 0.55027 0.10566 0.0
C804 C 0.26904 0.55571 0.10314 0.0
C805 C 0.25499 0.5579 0.14229 0.0
C806 C 0.24227 0.58918 0.14917 0.0
C807 C 0.23095 0.53386 0.14783 0.0
C808 C 0.28196 0.55211 0.16713 0.0
C809 C 0.30735 0.54773 0.14552 0.0
C810 C 0.3347 0.54077 0.16221 0.0
C811 C 0.33609 0.53821 0.20205 0.0
C812 C 0.31035 0.54288 0.22469 0.0
C813 C 0.28306 0.55007 0.20681 0.0
H814 H 0.95882 0.28669 0.20459 0.0
H815 H 0.03661 0.34328 0.21813 0.0
H816 H 0.04782 0.338 0.14979 0.0
H817 H 0.98988 0.23604 0.13922 0.0
H818 H 0.95695 0.23201 0.11032 0.0
H819 H 0.95344 0.24161 0.15989 0.0
H820 H 0.92315 0.28858 0.14193 0.0
H821 H 0.92641 0.27891 0.09229 0.0
H822 H 0.93868 0.31487 0.10861 0.0
H823 H 0.05365 0.32305 0.0822 0.0
H824 H 0.05138 0.30305 0.01716 0.0
H825 H 0.96861 0.25756 0.04475 0.0
C826 C 0.97797 0.29832 0.19306 0.0
C827 C 0.9969 0.31536 0.21692 0.0
C828 C 0.02172 0.33018 0.20061 0.0
C829 C 0.02833 0.32726 0.16176 0.0
C830 C 1.00969 0.30978 0.1393 0.0
C831 C 0.98472 0.29593 0.15407 0.0
C832 C 0.96867 0.27817 0.12343 0.0
C833 C 0.96716 0.24499 0.13385 0.0
C834 C 0.93737 0.2909 0.11614 0.0
C835 C 0.98914 0.28344 0.08954 0.0
C836 C 1.0126 0.30179 0.09952 0.0
C837 C 0.0352 0.30896 0.0739 0.0
C838 C 0.03378 0.29728 0.03701 0.0
C839 C 1.00982 0.27871 0.02572 0.0
C840 C 0.9871 0.27183 0.05242 0.0
H841 H 0.20449 1.0134 0.2127 0.0
H842 H 0.27142 0.94956 0.24849 0.0
H843 H 0.28406 0.93951 0.18167 0.0
H844 H 0.18094 0.97183 0.12721 0.0
H845 H 0.17565 1.00501 0.09929 0.0
H846 H 0.17026 1.00606 0.15014 0.0
H847 H 0.2086 0.04898 0.15525 0.0
H848 H 0.21423 0.04802 0.1045 0.0
H849 H 0.2456 0.04398 0.13605 0.0
H850 H 0.29207 0.93834 0.1115 0.0
H851 H 0.29392 0.94549 0.04177 0.0
H852 H 0.22158 1.00933 0.05015 0.0
C853 C 0.22156 0.9971 0.20643 0.0
C854 C 0.23697 0.98239 0.23605 0.0
C855 C 0.25928 0.96126 0.22651 0.0
C856 C 0.26664 0.95528 0.18853 0.0
C857 C 0.25147 0.97045 0.16008 0.0
C858 C 0.22924 0.99076 0.16841 0.0
C859 C 0.21706 1.0045 0.13217 0.0
C860 C 0.18402 0.99636 0.12689 0.0
C861 C 0.22166 0.03838 0.132 0.0
C862 C 0.23652 0.98936 0.10247 0.0
C863 C 0.25606 0.96965 0.11924 0.0
C864 C 0.27684 0.95364 0.09792 0.0
C865 C 0.27779 0.95793 0.05836 0.0
C866 C 0.25797 0.978 0.04043 0.0
C867 C 0.23698 0.99374 0.06293 0.0
H868 H 0.039 0.75341 0.29875 0.0
H869 H 0.05118 0.84897 0.30494 0.0
H870 H 0.05684 0.84529 0.37493 0.0
H871 H 0.99501 0.74672 0.38331 0.0
H872 H 1.01091 0.71155 0.39704 0.0
H873 H 1.00916 0.72168 0.34751 0.0
H874 H 0.06623 0.71377 0.34122 0.0
H875 H 0.06816 0.70364 0.39077 0.0
H876 H 0.09108 0.73342 0.37271 0.0
H877 H 0.06208 0.83073 0.44424 0.0
H878 H 0.06271 0.80732 0.50775 0.0
H879 H 0.04458 0.72149 0.45626 0.0
C880 C 0.04301 0.77358 0.31477 0.0
C881 C 0.04477 0.8015 0.29641 0.0
C882 C 0.04967 0.82739 0.31846 0.0
C883 C 0.05303 0.82548 0.35817 0.0
C884 C 0.05114 0.79756 0.37536 0.0
C885 C 0.046 0.77211 0.35437 0.0
C886 C 0.04384 0.74495 0.37976 0.0
C887 C 1.01289 0.73038 0.37672 0.0
C888 C 0.06882 0.72263 0.37056 0.0
C889 C 0.0484 0.75906 0.41845 0.0
C890 C 0.05296 0.78936 0.41525 0.0
C891 C 0.05829 0.80707 0.44705 0.0
C892 C 0.05864 0.79352 0.48303 0.0
C893 C 0.05336 0.76259 0.48707 0.0
C894 C 0.04831 0.74521 0.4542 0.0
H895 H 0.70303 0.03405 0.31141 0.0
H896 H 0.79416 0.05367 0.27714 0.0
H897 H 0.80854 0.05883 0.34415 0.0
H898 H 0.70145 0.08602 0.3916 0.0
H899 H 0.67941 0.06196 0.42153 0.0
H900 H 0.67558 0.06015 0.37052 0.0
H901 H 0.68729 1.00379 0.37222 0.0
H902 H 0.69123 1.00545 0.4232 0.0
H903 H 0.72125 0.99113 0.39431 0.0
H904 H 0.81414 0.06013 0.41395 0.0
H905 H 0.8101 0.06028 0.48397 0.0
H906 H 0.7155 0.04046 0.47512 0.0
C907 C 0.72596 0.03951 0.31807 0.0
C908 C 0.74745 0.04333 0.28881 0.0
C909 C 0.77721 0.05058 0.29881 0.0
C910 C 0.78569 0.05356 0.3369 0.0
C911 C 0.76417 0.04943 0.36498 0.0
C912 C 0.73487 0.04279 0.35625 0.0
C913 C 0.71638 0.0396 0.39239 0.0
C914 C 0.69175 0.06335 0.3941 0.0
C915 C 0.70327 1.00812 0.39572 0.0
C916 C 0.74004 0.04511 0.42253 0.0
C917 C 0.76739 0.05075 0.4059 0.0
C918 C 0.79283 0.05611 0.42748 0.0
C919 C 0.79029 0.05604 0.46725 0.0
C920 C 0.76252 0.0504 0.48518 0.0
C921 C 0.73708 0.04483 0.46235 0.0
H922 H 0.50831 0.78054 0.29759 0.0
H923 H 0.48682 0.68648 0.29919 0.0
H924 H 0.47775 0.68944 0.36869 0.0
H925 H 0.54781 0.78162 0.38602 0.0
H926 H 0.53446 0.81791 0.39955 0.0
H927 H 0.5382 0.80844 0.34996 0.0
H928 H 0.48264 0.82181 0.33909 0.0
H929 H 0.47869 0.83121 0.3887 0.0
H930 H 0.45427 0.80403 0.36757 0.0
H931 H 0.47013 0.7032 0.43803 0.0
H932 H 0.46826 0.72545 0.50222 0.0
H933 H 0.49687 0.81011 0.45538 0.0
C934 C 0.50161 0.76054 0.31249 0.0
C935 C 0.49818 0.73326 0.29295 0.0
C936 C 0.48968 0.70758 0.3136 0.0
C937 C 0.48435 0.70909 0.35303 0.0
C938 C 0.48787 0.73639 0.37138 0.0
C939 C 0.49655 0.76159 0.3518 0.0
C940 C 0.49969 0.78801 0.3783 0.0
C941 C 0.53196 0.79967 0.37846 0.0
C942 C 0.4775 0.81272 0.36778 0.0
C943 C 0.49156 0.77375 0.41596 0.0
C944 C 0.48447 0.74406 0.41131 0.0
C945 C 0.47581 0.72638 0.44197 0.0
C946 C 0.47475 0.73927 0.47835 0.0
C947 C 0.48264 0.7695 0.48392 0.0
C948 C 0.49096 0.78691 0.45214 0.0
H949 H 0.766 0.53344 0.46435 0.0
H950 H 0.78603 0.43971 0.47843 0.0
H951 H 0.80302 0.4373 0.41148 0.0
H952 H 0.73826 0.52771 0.36786 0.0
H953 H 0.75384 0.56292 0.35352 0.0
H954 H 0.74313 0.55696 0.40238 0.0
H955 H 0.79646 0.57125 0.424 0.0
H956 H 0.80742 0.57699 0.37519 0.0
H957 H 0.82803 0.5515 0.40466 0.0
H958 H 0.81947 0.44581 0.3428 0.0
H959 H 0.83046 0.46351 0.27744 0.0
H960 H 0.79852 0.55128 0.30826 0.0
C961 C 0.77383 0.51234 0.45339 0.0
C962 C 0.77479 0.48681 0.4769 0.0
C963 C 0.78512 0.45964 0.46117 0.0
C964 C 0.79489 0.45805 0.42312 0.0
C965 C 0.7941 0.48378 0.40095 0.0
C966 C 0.78353 0.51034 0.41545 0.0
C967 C 0.78461 0.5347 0.38563 0.0
C968 C 0.75309 0.54624 0.37683 0.0
C969 C 0.80537 0.56011 0.39813 0.0
C970 C 0.79759 0.51782 0.3521 0.0
C971 C 0.80308 0.48852 0.36151 0.0
C972 C 0.81523 0.4687 0.33513 0.0
C973 C 0.82151 0.47898 0.29811 0.0
C974 C 0.81541 0.50877 0.28757 0.0
C975 C 0.80351 0.52838 0.31525 0.0
H976 H 0.51806 0.73805 0.9584 0.0
H977 H 0.47376 0.81635 1.00302 0.0
H978 H 0.4716 0.83768 0.9382 0.0
H979 H 0.56189 0.77372 0.88582 0.0
H980 H 0.55653 0.74452 0.85136 0.0
H981 H 0.55574 0.73604 0.90146 0.0
H982 H 0.50328 0.71247 0.89408 0.0
H983 H 0.50398 0.72073 0.84392 0.0
H984 H 0.47365 0.73396 0.87313 0.0
H985 H 0.47625 0.8513 0.86833 0.0
H986 H 0.48176 0.85307 0.79798 0.0
H987 H 0.51903 0.76428 0.79911 0.0
C988 C 0.50807 0.75974 0.95446 0.0
C989 C 0.49637 0.77574 0.9856 0.0
C990 C 0.48288 0.80379 0.9794 0.0
C991 C 0.48168 0.81613 0.94277 0.0
C992 C 0.49357 0.79987 0.91258 0.0
C993 C 0.50602 0.77206 0.91795 0.0
C994 C 0.51561 0.75842 0.8805 0.0
C995 C 0.54945 0.75286 0.87976 0.0
C996 C 0.49808 0.7297 0.87244 0.0
C997 C 0.50692 0.78302 0.85331 0.0
C998 C 0.49462 0.80695 0.87233 0.0
C999 C 0.48565 0.83259 0.85312 0.0
C1000 C 0.48898 0.83354 0.81333 0.0
C1001 C 0.50062 0.80884 0.79338 0.0
C1002 C 0.50978 0.78339 0.81372 0.0
H1003 H 0.76802 0.48028 0.79504 0.0
H1004 H 0.67947 0.51875 0.78671 0.0
H1005 H 0.67498 0.51753 0.85687 0.0
H1006 H 0.75202 0.43112 0.8744 0.0
H1007 H 0.78808 0.43628 0.89603 0.0
H1008 H 0.78407 0.43943 0.84516 0.0
H1009 H 0.80724 0.49215 0.84732 0.0
H1010 H 0.81131 0.48918 0.89816 0.0
H1011 H 0.79101 0.51993 0.87802 0.0
H1012 H 0.6804 0.5128 0.9278 0.0
H1013 H 0.69509 0.5053 0.99457 0.0
H1014 H 0.78063 0.47035 0.95738 0.0
C1015 C 0.74761 0.48841 0.80789 0.0
C1016 C 0.72408 0.4997 0.78525 0.0
C1017 C 0.69783 0.51012 0.80335 0.0
C1018 C 0.69506 0.50944 0.8432 0.0
C1019 C 0.71874 0.49832 0.86461 0.0
C1020 C 0.74451 0.48796 0.84761 0.0
C1021 C 0.76684 0.47755 0.87721 0.0
C1022 C 0.77312 0.44411 0.87294 0.0
C1023 C 0.79581 0.4958 0.87504 0.0
C1024 C 0.74975 0.48402 0.9136 0.0
C1025 C 0.72197 0.4958 0.90559 0.0
C1026 C 0.70206 0.50356 0.93437 0.0
C1027 C 0.71067 0.49918 0.9723 0.0
C1028 C 0.73907 0.48726 0.98138 0.0
C1029 C 0.75884 0.47962 0.95146 0.0
H1030 H 0.0244 0.69864 0.81797 0.0
H1031 H 0.09794 0.7561 0.78488 0.0
H1032 H 0.10842 0.76649 0.85209 0.0
H1033 H 0.99825 0.74416 0.89282 0.0
H1034 H 0.98834 0.7142 0.9245 0.0
H1035 H 0.9881 0.70834 0.8738 0.0
H1036 H 0.02446 0.66401 0.88142 0.0
H1037 H 0.02466 0.66964 0.93223 0.0
H1038 H 0.05929 0.66943 0.90602 0.0
H1039 H 0.10992 0.77314 0.92192 0.0
H1040 H 0.10158 0.77606 0.99108 0.0
H1041 H 0.02593 0.71641 0.98087 0.0
C1042 C 0.04302 0.71295 0.82496 0.0
C1043 C 0.06047 0.72632 0.79599 0.0
C1044 C 0.08423 0.74548 0.80638 0.0
C1045 C 0.0905 0.75149 0.84458 0.0
C1046 C 0.0727 0.73841 0.87237 0.0
C1047 C 0.04945 0.71952 0.86325 0.0
C1048 C 0.03277 0.70998 0.89895 0.0
C1049 C 0.99992 0.71976 0.89741 0.0
C1050 C 0.03546 0.67626 0.90501 0.0
C1051 C 0.04987 0.72704 0.92921 0.0
C1052 C 0.07304 0.74297 0.91313 0.0
C1053 C 0.09179 0.76082 0.93487 0.0
C1054 C 0.08666 0.76266 0.97413 0.0
C1055 C 0.06273 0.74709 0.99137 0.0
C1056 C 0.04434 0.72872 0.96854 0.0
H1057 H 0.83487 1.01359 0.81266 0.0
H1058 H 0.79578 0.09877 0.78332 0.0
H1059 H 0.78678 0.1091 0.85122 0.0
H1060 H 0.78417 0.99538 0.88447 0.0
H1061 H 0.81079 0.97826 0.91595 0.0
H1062 H 0.81759 0.97869 0.86544 0.0
H1063 H 0.86853 1.00455 0.87626 0.0
H1064 H 0.86203 1.00391 0.92692 0.0
H1065 H 0.87003 0.03858 0.90329 0.0
H1066 H 0.77727 0.10832 0.92113 0.0
H1067 H 0.77035 0.09743 0.98938 0.0
H1068 H 0.81561 1.01293 0.97449 0.0
C1069 C 0.82508 0.03469 0.82065 0.0
C1070 C 0.81599 0.05535 0.79268 0.0
C1071 C 0.80281 0.08253 0.80421 0.0
C1072 C 0.79766 0.08867 0.84275 0.0
C1073 C 0.80594 0.06749 0.86956 0.0
C1074 C 0.81967 0.04118 0.85917 0.0
C1075 C 0.82481 0.02156 0.89366 0.0
C1076 C 0.80835 0.99171 0.88962 0.0
C1077 C 0.85835 1.01688 0.90043 0.0
C1078 C 0.81105 0.0406 0.92474 0.0
C1079 C 0.8005 0.06709 0.91019 0.0
C1080 C 0.7857 0.08778 0.93293 0.0
C1081 C 0.78163 0.08126 0.97162 0.0
C1082 C 0.79225 0.05426 0.98724 0.0
C1083 C 0.80736 0.03382 0.96342 0.0
H1084 H 0.97803 0.22604 0.70362 0.0
H1085 H 0.99725 0.31535 0.74369 0.0
H1086 H 0.99876 0.33317 0.6776 0.0
H1087 H 0.02491 0.22677 0.62431 0.0
H1088 H 1.0003 0.20694 0.59273 0.0
H1089 H 0.99777 0.20114 0.64333 0.0
H1090 H 0.94178 0.21522 0.6422 0.0
H1091 H 0.94404 0.22072 0.59144 0.0
H1092 H 0.93053 0.25017 0.62169 0.0
H1093 H 1.00531 0.34024 0.60783 0.0
H1094 H 1.00989 0.3374 0.53784 0.0
H1095 H 0.98263 0.24495 0.54104 0.0
C1096 C 0.98184 0.24947 0.69851 0.0
C1097 C 0.98759 0.26923 0.72908 0.0
C1098 C 0.99274 0.29969 0.72101 0.0
C1099 C 0.99371 0.31009 0.68344 0.0
C1100 C 0.98896 0.28994 0.65401 0.0
C1101 C 0.98245 0.26041 0.66097 0.0
C1102 C 0.97894 0.24343 0.62381 0.0
C1103 C 1.00185 0.21808 0.62089 0.0
C1104 C 0.94691 0.2317 0.61954 0.0
C1105 C 0.9855 0.26784 0.59507 0.0
C1106 C 0.99134 0.29445 0.61325 0.0
C1107 C 1.00022 0.3197 0.59321 0.0
C1108 C 1.00301 0.31782 0.55351 0.0
C1109 C 0.99648 0.29105 0.53411 0.0
C1110 C 0.98735 0.26581 0.55519 0.0
H1111 H 0.25614 0.03455 0.54504 0.0
H1112 H 0.30157 0.95064 0.52635 0.0
H1113 H 0.31992 0.95166 0.59261 0.0
H1114 H 0.31121 0.06806 0.60604 0.0
H1115 H 0.28411 0.08541 0.63683 0.0
H1116 H 0.27523 0.07856 0.58762 0.0
H1117 H 0.22831 0.04881 0.60797 0.0
H1118 H 0.23692 0.05576 0.65721 0.0
H1119 H 0.23218 1.01815 0.6406 0.0
H1120 H 0.33412 0.96238 0.66096 0.0
H1121 H 0.33906 0.97951 0.72744 0.0
H1122 H 0.28252 0.05523 0.7023 0.0
C1123 C 0.27002 1.01643 0.55484 0.0
C1124 C 0.27756 0.9926 0.5304 0.0
C1125 C 0.29547 0.96913 0.54452 0.0
C1126 C 0.30613 0.96957 0.58208 0.0
C1127 C 0.29845 0.9935 0.60535 0.0
C1128 C 0.28051 1.01632 0.59241 0.0
C1129 C 0.27452 0.03882 0.62364 0.0
C1130 C 0.28702 0.06953 0.61288 0.0
C1131 C 0.24099 0.04047 0.6329 0.0
C1132 C 0.29191 0.02513 0.65616 0.0
C1133 C 0.30582 0.99916 0.64494 0.0
C1134 C 0.3232 0.98262 0.67007 0.0
C1135 C 0.32592 0.99256 0.70781 0.0
C1136 C 0.31106 0.01862 0.72029 0.0
C1137 C 0.29417 0.03522 0.69379 0.0
H1138 H 0.55235 0.32224 0.69435 0.0
H1139 H 0.53252 0.23589 0.74355 0.0
H1140 H 0.53116 0.21378 0.6797 0.0
H1141 H 0.50655 0.31404 0.60949 0.0
H1142 H 0.53288 0.3321 0.57826 0.0
H1143 H 0.53145 0.34199 0.62795 0.0
H1144 H 0.58772 0.33013 0.63436 0.0
H1145 H 0.5893 0.32013 0.58472 0.0
H1146 H 0.60131 0.29402 0.62041 0.0
H1147 H 0.53123 0.20042 0.61159 0.0
H1148 H 0.53454 0.19624 0.5418 0.0
H1149 H 0.55677 0.29001 0.53429 0.0
C1150 C 0.54752 0.29877 0.69151 0.0
C1151 C 0.54249 0.28083 0.72405 0.0
C1152 C 0.53661 0.2501 0.71919 0.0
C1153 C 0.53569 0.23727 0.68296 0.0
C1154 C 0.541 0.2553 0.65155 0.0
C1155 C 0.54699 0.28532 0.65522 0.0
C1156 C 0.55278 0.29914 0.61635 0.0
C1157 C 0.52952 0.32325 0.6075 0.0
C1158 C 0.58468 0.31159 0.61382 0.0
C1159 C 0.54891 0.2722 0.59058 0.0
C1160 C 0.54194 0.24726 0.61168 0.0
C1161 C 0.53673 0.21977 0.59468 0.0
C1162 C 0.53859 0.21764 0.55496 0.0
C1163 C 0.54588 0.24274 0.53251 0.0
C1164 C 0.5513 0.27038 0.5507 0.0
H1165 H 0.20401 0.52978 0.70652 0.0
H1166 H 0.28941 0.56688 0.74053 0.0
H1167 H 0.3021 0.57603 0.67358 0.0
H1168 H 0.2304 0.49216 0.62412 0.0
H1169 H 0.19821 0.5 0.5952 0.0
H1170 H 0.19448 0.49781 0.64618 0.0
H1171 H 0.17161 0.55068 0.64756 0.0
H1172 H 0.17518 0.553 0.59652 0.0
H1173 H 0.19179 0.58112 0.62624 0.0
H1174 H 0.30729 0.57908 0.60362 0.0
H1175 H 0.30414 0.57639 0.5338 0.0
H1176 H 0.21552 0.53781 0.54314 0.0
C1177 C 0.22523 0.54007 0.69983 0.0
C1178 C 0.24572 0.54748 0.72892 0.0
C1179 C 0.27332 0.56084 0.71892 0.0
C1180 C 0.28078 0.56624 0.68088 0.0
C1181 C 0.2604 0.55833 0.65292 0.0
C1182 C 0.23312 0.54569 0.66172 0.0
C1183 C 0.21581 0.53866 0.62571 0.0
C1184 C 0.20936 0.50517 0.62263 0.0
C1185 C 0.18688 0.55696 0.62391 0.0
C1186 C 0.23797 0.5487 0.59553 0.0
C1187 C 0.26342 0.56018 0.61201 0.0
C1188 C 0.2874 0.57032 0.59031 0.0
C1189 C 0.28539 0.56864 0.5506 0.0
C1190 C 0.25959 0.55691 0.53286 0.0
C1191 C 0.23553 0.54694 0.55578 0.0
H1192 H 0.59736 0.14299 0.45863 0.0
H1193 H 0.61254 0.23731 0.44851 0.0
H1194 H 0.64723 0.23564 0.50301 0.0
H1195 H 0.60671 0.13541 0.56299 0.0
H1196 H 0.62641 0.10073 0.55764 0.0
H1197 H 0.59823 0.11111 0.52367 0.0
H1198 H 0.63671 0.10473 0.469 0.0
H1199 H 0.66511 0.09484 0.5027 0.0
H1200 H 0.67115 0.12539 0.47043 0.0
H1201 H 0.68479 0.22168 0.55425 0.0
H1202 H 0.72208 0.19728 0.59576 0.0
H1203 H 0.6847 0.1112 0.56725 0.0
C1204 C 0.60726 0.16353 0.46858 0.0
C1205 C 0.60149 0.19078 0.45003 0.0
C1206 C 0.61561 0.21677 0.46326 0.0
C1207 C 0.63562 0.21578 0.49398 0.0
C1208 C 0.64154 0.18829 0.51074 0.0
C1209 C 0.62769 0.16262 0.4984 0.0
C1210 C 0.64036 0.13531 0.51752 0.0
C1211 C 0.61651 0.11973 0.54191 0.0
C1212 C 0.65414 0.11383 0.48817 0.0
C1213 C 0.66405 0.14948 0.542 0.0
C1214 C 0.66413 0.18008 0.53831 0.0
C1215 C 0.68474 0.19776 0.55753 0.0
C1216 C 0.70583 0.18374 0.58096 0.0
C1217 C 0.7065 0.15238 0.58426 0.0
C1218 C 0.68508 0.13519 0.56479 0.0
H1219 H 0.38909 0.5953 0.46344 0.0
H1220 H 0.2963 0.61755 0.44623 0.0
H1221 H 0.29725 0.64929 0.50365 0.0
H1222 H 0.39093 0.59909 0.56904 0.0
H1223 H 0.42719 0.61644 0.56855 0.0
H1224 H 0.41702 0.59077 0.53138 0.0
H1225 H 0.42916 0.63094 0.48069 0.0
H1226 H 0.43908 0.65677 0.51757 0.0
H1227 H 0.41088 0.66656 0.48336 0.0
H1228 H 0.31071 0.68325 0.55918 0.0
H1229 H 0.33549 0.71786 0.604 0.0
H1230 H 0.42044 0.67556 0.58061 0.0
C1231 C 0.36866 0.6061 0.47246 0.0
C1232 C 0.34217 0.603 0.45122 0.0
C1233 C 0.3163 0.61838 0.46304 0.0
C1234 C 0.31683 0.63673 0.49548 0.0
C1235 C 0.34361 0.63971 0.51536 0.0
C1236 C 0.36908 0.62479 0.5041 0.0
C1237 C 0.39605 0.63454 0.52666 0.0
C1238 C 0.40852 0.60866 0.55032 0.0
C1239 C 0.42019 0.648 0.50051 0.0
C1240 C 0.38205 0.65792 0.55181 0.0
C1241 C 0.35169 0.66024 0.54555 0.0
C1242 C 0.3344 0.68138 0.5645 0.0
C1243 C 0.34862 0.70089 0.58991 0.0
C1244 C 0.37987 0.69951 0.59544 0.0
C1245 C 0.39656 0.67733 0.57666 0.0
H1246 H 0.80227 0.36368 0.5384 0.0
H1247 H 0.86632 0.37279 0.62981 0.0
H1248 H 0.90516 0.34973 0.58929 0.0
H1249 H 0.83314 0.2905 0.50134 0.0
H1250 H 0.82518 0.30072 0.45282 0.0
H1251 H 0.80152 0.31384 0.49088 0.0
H1252 H 0.81014 0.36819 0.46884 0.0
H1253 H 0.83373 0.35528 0.43088 0.0
H1254 H 0.84775 0.38205 0.46457 0.0
H1255 H 0.93861 0.33839 0.53448 0.0
H1256 H 0.96282 0.33316 0.47168 0.0
H1257 H 0.877 0.32212 0.41846 0.0
C1258 C 0.82432 0.36008 0.55004 0.0
C1259 C 0.83154 0.37002 0.587 0.0
C1260 C 0.86048 0.36511 0.60156 0.0
C1261 C 0.88261 0.35204 0.57879 0.0
C1262 C 0.87508 0.34315 0.54202 0.0
C1263 C 0.84643 0.34627 0.52805 0.0
C1264 C 0.84463 0.33654 0.48683 0.0
C1265 C 0.82495 0.30875 0.48275 0.0
C1266 C 0.83342 0.36203 0.4613 0.0
C1267 C 0.87709 0.32931 0.4791 0.0
C1268 C 0.89429 0.33316 0.51137 0.0
C1269 C 0.92536 0.33316 0.50965 0.0
C1270 C 0.93911 0.32932 0.4741 0.0
C1271 C 0.92202 0.32407 0.44113 0.0
C1272 C 0.8906 0.32396 0.44379 0.0
H1273 H 0.18377 0.88986 0.42196 0.0
H1274 H 0.21288 0.96402 0.49066 0.0
H1275 H 0.21022 0.93257 0.5484 0.0
H1276 H 0.12815 0.86891 0.48286 0.0
H1277 H 0.13112 0.82945 0.47491 0.0
H1278 H 0.14257 0.85499 0.43834 0.0
H1279 H 0.19515 0.83112 0.43646 0.0
H1280 H 0.18371 0.80509 0.47269 0.0
H1281 H 0.21633 0.82786 0.47981 0.0
H1282 H 0.1979 0.89454 0.59934 0.0
H1283 H 0.17558 0.85472 0.63891 0.0
H1284 H 0.14988 0.80729 0.5366 0.0
C1285 C 0.19081 0.89901 0.44903 0.0
C1286 C 0.20045 0.92879 0.45178 0.0
C1287 C 0.20784 0.94065 0.48774 0.0
C1288 C 0.20573 0.92304 0.52071 0.0
C1289 C 0.19553 0.89382 0.51713 0.0
C1290 C 0.18815 0.88193 0.48208 0.0
C1291 C 0.17385 0.85158 0.48614 0.0
C1292 C 0.14205 0.85124 0.4696 0.0
C1293 C 0.19344 0.82749 0.46769 0.0
C1294 C 0.1734 0.84858 0.52901 0.0
C1295 C 0.18655 0.87283 0.54642 0.0
C1296 C 0.18779 0.87537 0.58596 0.0
C1297 C 0.17505 0.85268 0.60819 0.0
C1298 C 0.16067 0.82816 0.59085 0.0
C1299 C 0.16029 0.826 0.55072 0.0
H1300 H 0.23318 0.87914 0.97877 0.0
H1301 H 0.16821 0.88285 0.88763 0.0
H1302 H 0.13188 0.85602 0.92802 0.0
H1303 H 0.21047 0.80449 0.01557 0.0
H1304 H 0.21696 0.81538 0.06423 0.0
H1305 H 0.23903 0.83139 0.02645 0.0
H1306 H 0.22389 0.88432 0.04849 0.0
H1307 H 0.20209 0.8685 0.08639 0.0
H1308 H 0.18489 0.89347 0.05289 0.0
H1309 H 0.10004 0.83813 0.98221 0.0
H1310 H 0.07652 0.8275 0.04445 0.0
H1311 H 0.16313 0.83051 0.09833 0.0
C1312 C 0.21143 0.87399 0.96717 0.0
C1313 C 0.20335 0.88331 0.93023 0.0
C1314 C 0.17483 0.87583 0.91586 0.0
C1315 C 0.15408 0.86057 0.93856 0.0
C1316 C 0.16247 0.8523 0.97523 0.0
C1317 C 0.19065 0.85833 0.98921 0.0
C1318 C 0.1935 0.84874 0.03032 0.0
C1319 C 0.21635 0.8235 0.03436 0.0
C1320 C 0.20155 0.87533 0.05601 0.0
C1321 C 0.16211 0.83771 0.03785 0.0
C1322 C 0.14454 0.83977 1.00567 0.0
C1323 C 0.11379 0.83508 0.00717 0.0
C1324 C 0.10061 0.82851 0.04252 0.0
C1325 C 0.11824 0.82642 0.07568 0.0
C1326 C 0.1494 0.83046 0.073 0.0
H1327 H 0.70803 0.15463 0.09038 0.0
H1328 H 0.71278 0.06651 0.04145 0.0
H1329 H 0.7021 0.08742 0.97789 0.0
H1330 H 0.64462 0.17316 0.04393 0.0
H1331 H 0.6529 0.21201 0.0372 0.0
H1332 H 0.66928 0.19216 0.07629 0.0
H1333 H 0.72226 0.207 0.05349 0.0
H1334 H 0.70602 0.22747 0.01462 0.0
H1335 H 0.73349 0.19914 1.00521 0.0
H1336 H 0.68386 0.11696 0.92166 0.0
H1337 H 0.65779 0.15167 0.8785 0.0
H1338 H 0.6595 0.2195 0.96625 0.0
C1339 C 0.70834 0.14001 0.06588 0.0
C1340 C 0.71313 0.10918 0.07035 0.0
C1341 C 0.71137 0.0904 0.03817 0.0
C1342 C 0.70474 0.10208 1.00208 0.0
C1343 C 0.69924 0.13251 0.99887 0.0
C1344 C 0.70091 0.15123 0.03002 0.0
C1345 C 0.68926 0.182 0.02064 0.0
C1346 C 0.66243 0.19029 0.04601 0.0
C1347 C 0.71425 0.20528 0.02366 0.0
C1348 C 0.67988 0.17745 0.97971 0.0
C1349 C 0.68645 0.14901 0.96737 0.0
C1350 C 0.67887 0.13935 0.93095 0.0
C1351 C 0.66402 0.15919 0.90667 0.0
C1352 C 0.65628 0.18811 0.91918 0.0
C1353 C 0.6647 0.19738 0.95606 0.0
H1354 H 0.38051 0.71029 0.0897 0.0
H1355 H 0.46909 0.7121 0.0411 0.0
H1356 H 0.44831 0.70087 0.97776 0.0
H1357 H 0.36246 0.64622 0.04769 0.0
H1358 H 0.32343 0.65364 0.03999 0.0
H1359 H 0.34283 0.67206 0.07795 0.0
H1360 H 0.32777 0.72353 0.05118 0.0
H1361 H 0.30754 0.70524 0.01355 0.0
H1362 H 0.33575 0.73242 1.00216 0.0
H1363 H 0.41904 0.68041 0.92266 0.0
H1364 H 0.38477 0.65161 0.88156 0.0
H1365 H 0.31656 0.65603 0.96912 0.0
C1366 C 0.39523 0.71005 0.06518 0.0
C1367 C 0.42624 0.71424 0.06965 0.0
C1368 C 0.44515 0.71167 0.0376 0.0
C1369 C 0.43348 0.70452 1.00167 0.0
C1370 C 0.40291 0.69911 0.9986 0.0
C1371 C 0.38401 0.70179 0.02962 0.0
C1372 C 0.35331 0.68938 0.02099 0.0
C1373 C 0.34506 0.66382 0.04827 0.0
C1374 C 0.32969 0.71412 0.02201 0.0
C1375 C 0.3582 0.67815 0.98087 0.0
C1376 C 0.38664 0.68471 0.96803 0.0
C1377 C 0.39663 0.67546 0.93231 0.0
C1378 C 0.3771 0.65903 0.90925 0.0
C1379 C 0.34826 0.65131 0.92243 0.0
C1380 C 0.33866 0.6613 0.95855 0.0
H1381 H 0.84263 0.37976 0.08854 0.0
H1382 H 0.826 0.45866 0.0217 0.0
H1383 H 0.83483 0.43 0.96266 0.0
H1384 H 0.90435 0.36054 0.04129 0.0
H1385 H 0.89988 0.32077 0.04357 0.0
H1386 H 0.88307 0.34389 0.07936 0.0
H1387 H 0.83101 0.32176 0.065 0.0
H1388 H 0.84768 0.29776 0.02977 0.0
H1389 H 0.81718 0.32179 0.01687 0.0
H1390 H 0.8546 0.39497 0.91216 0.0
H1391 H 0.88283 0.35763 0.87511 0.0
H1392 H 0.89177 0.30328 0.9764 0.0
C1393 C 0.83928 0.39055 0.06132 0.0
C1394 C 0.83198 0.42106 0.05951 0.0
C1395 C 0.82938 0.43492 0.0236 0.0
C1396 C 0.83505 0.41884 0.98995 0.0
C1397 C 0.84378 0.38909 0.9929 0.0
C1398 C 0.84567 0.37504 0.0278 0.0
C1399 C 0.86003 0.34464 0.02423 0.0
C1400 C 0.8885 0.34237 0.04854 0.0
C1401 C 0.83763 0.32003 0.03457 0.0
C1402 C 0.86729 0.34426 0.98215 0.0
C1403 C 0.85707 0.36971 0.96436 0.0
C1404 C 0.86234 0.37484 0.92579 0.0
C1405 C 0.87847 0.35352 0.90499 0.0
C1406 C 0.88982 0.32768 0.9229 0.0
C1407 C 0.88379 0.32296 0.96195 0.0
H1408 H 0.44431 0.88193 0.54429 0.0
H1409 H 0.41895 0.79199 0.57283 0.0
H1410 H 0.38466 0.79074 0.51808 0.0
H1411 H 0.37439 0.90577 0.52935 0.0
H1412 H 0.3825 0.93111 0.49097 0.0
H1413 H 0.41092 0.92224 0.52504 0.0
H1414 H 0.44621 0.9048 0.47089 0.0
H1415 H 0.41802 0.91407 0.43637 0.0
H1416 H 0.43356 0.87713 0.43749 0.0
H1417 H 0.34698 0.80264 0.46716 0.0
H1418 H 0.30892 0.82657 0.42654 0.0
H1419 H 0.35695 0.91006 0.43426 0.0
C1420 C 0.43251 0.86152 0.53787 0.0
C1421 C 0.43526 0.83649 0.56174 0.0
C1422 C 0.41842 0.81071 0.55377 0.0
C1423 C 0.39862 0.81001 0.52286 0.0
C1424 C 0.39568 0.8355 0.50056 0.0
C1425 C 0.41235 0.86078 0.50766 0.0
C1426 C 0.40197 0.88671 0.48369 0.0
C1427 C 0.39184 0.91298 0.50877 0.0
C1428 C 0.42639 0.89623 0.45542 0.0
C1429 C 0.37591 0.87257 0.46336 0.0
C1430 C 0.37304 0.84285 0.47266 0.0
C1431 C 0.34933 0.82576 0.45922 0.0
C1432 C 0.32781 0.83954 0.43622 0.0
C1433 C 0.32981 0.87022 0.42761 0.0
C1434 C 0.3546 0.88665 0.4407 0.0
H1435 H 0.65843 0.36534 0.40727 0.0
H1436 H 0.67173 0.28349 0.4697 0.0
H1437 H 0.70045 0.31074 0.51849 0.0
H1438 H 0.73132 0.40375 0.43664 0.0
H1439 H 0.71272 0.43906 0.44108 0.0
H1440 H 0.70041 0.41255 0.40591 0.0
H1441 H 0.64677 0.41445 0.43384 0.0
H1442 H 0.6589 0.44108 0.46853 0.0
H1443 H 0.64119 0.40711 0.48383 0.0
H1444 H 0.71982 0.34688 0.56502 0.0
H1445 H 0.72222 0.38935 0.60939 0.0
H1446 H 0.69482 0.44876 0.51932 0.0
C1447 C 0.66838 0.35317 0.4306 0.0
C1448 C 0.66333 0.32239 0.43473 0.0
C1449 C 0.6756 0.3071 0.46614 0.0
C1450 C 0.69219 0.32235 0.49369 0.0
C1451 C 0.69623 0.35292 0.48947 0.0
C1452 C 0.68454 0.36825 0.45878 0.0
C1453 C 0.68744 0.40157 0.46438 0.0
C1454 C 0.70927 0.41502 0.43526 0.0
C1455 C 0.65676 0.41693 0.46258 0.0
C1456 C 0.7005 0.40257 0.50413 0.0
C1457 C 0.70665 0.37425 0.51735 0.0
C1458 C 0.71585 0.36917 0.55467 0.0
C1459 C 0.71731 0.39339 0.57965 0.0
C1460 C 0.70948 0.42217 0.56721 0.0
C1461 C 0.702 0.42702 0.5288 0.0
H1462 H 0.17879 0.61255 0.44282 0.0
H1463 H 0.21865 0.69814 0.41752 0.0
H1464 H 0.18233 0.72257 0.46065 0.0
H1465 H 0.10107 0.63934 0.45054 0.0
H1466 H 0.09266 0.61391 0.48873 0.0
H1467 H 0.11983 0.60396 0.45303 0.0
H1468 H 0.15923 0.59484 0.50576 0.0
H1469 H 0.13221 0.60461 0.5415 0.0
H1470 H 0.16732 0.62407 0.53929 0.0
H1471 H 0.14634 0.73613 0.51424 0.0
H1472 H 0.11296 0.73729 0.57019 0.0
H1473 H 0.09411 0.64378 0.5555 0.0
C1474 C 0.17972 0.63647 0.44609 0.0
C1475 C 0.20166 0.65347 0.42722 0.0
C1476 C 0.20191 0.68475 0.43176 0.0
C1477 C 0.1814 0.69879 0.45615 0.0
C1478 C 0.16039 0.68125 0.47503 0.0
C1479 C 0.1592 0.6508 0.46977 0.0
C1480 C 0.13557 0.63666 0.49458 0.0
C1481 C 0.11082 0.62265 0.47025 0.0
C1482 C 0.14941 0.61372 0.52189 0.0
C1483 C 0.12434 0.66372 0.5157 0.0
C1484 C 0.13874 0.68931 0.50407 0.0
C1485 C 0.13422 0.71637 0.52268 0.0
C1486 C 0.11495 0.71702 0.55435 0.0
C1487 C 0.10009 0.69104 0.56662 0.0
C1488 C 0.10455 0.6643 0.54633 0.0
H1489 H 0.90472 0.15538 0.41917 0.0
H1490 H 0.87076 0.23898 0.4624 0.0
H1491 H 0.84049 0.21177 0.51013 0.0
H1492 H 0.8375 0.10839 0.43821 0.0
H1493 H 0.86024 0.07742 0.45304 0.0
H1494 H 0.87395 0.10299 0.41759 0.0
H1495 H 0.92101 0.11267 0.45863 0.0
H1496 H 0.90739 0.08707 0.4938 0.0
H1497 H 0.91654 0.12463 0.5073 0.0
H1498 H 0.81965 0.17634 0.55796 0.0
H1499 H 0.81512 0.13695 0.6065 0.0
H1500 H 0.86369 0.07632 0.53375 0.0
C1501 C 0.89016 0.16781 0.43799 0.0
C1502 C 0.8896 0.19911 0.43695 0.0
C1503 C 0.87125 0.21491 0.46278 0.0
C1504 C 0.85383 0.19962 0.48967 0.0
C1505 C 0.85522 0.16862 0.49041 0.0
C1506 C 0.87321 0.15294 0.46547 0.0
C1507 C 0.8745 0.12031 0.47582 0.0
C1508 C 0.86071 0.10114 0.44428 0.0
C1509 C 0.90676 0.11063 0.48442 0.0
C1510 C 0.85528 0.12016 0.51131 0.0
C1511 C 0.84365 0.1481 0.51863 0.0
C1512 C 0.82787 0.15421 0.55197 0.0
C1513 C 0.82507 0.13163 0.57923 0.0
C1514 C 0.83796 0.10342 0.57292 0.0
C1515 C 0.85251 0.09737 0.53823 0.0
H1516 H 0.82643 0.14047 0.03916 0.0
H1517 H 0.88158 0.15259 0.13932 0.0
H1518 H 0.92027 0.17677 0.09963 0.0
H1519 H 0.88341 0.12074 0.97669 0.0
H1520 H 0.86787 0.13984 0.93625 0.0
H1521 H 0.84372 0.1266 0.97347 0.0
H1522 H 0.82257 0.17981 0.98201 0.0
H1523 H 0.84701 0.19331 0.94502 0.0
H1524 H 0.84767 0.21024 0.99152 0.0
H1525 H 0.95576 0.19378 0.04697 0.0
H1526 H 0.98392 0.20099 0.98668 0.0
H1527 H 0.90423 0.1803 0.92264 0.0
C1528 C 0.84661 0.14811 0.05289 0.0
C1529 C 0.85111 0.14417 0.09237 0.0
C1530 C 0.87762 0.15529 0.10912 0.0
C1531 C 0.89971 0.16913 0.08681 0.0
C1532 C 0.89476 0.1722 0.04784 0.0
C1533 C 0.8687 0.16216 0.03116 0.0
C1534 C 0.86929 0.16657 0.98851 0.0
C1535 C 0.8659 0.13667 0.96752 0.0
C1536 C 0.8452 0.18881 0.97605 0.0
C1537 C 0.90024 0.1795 0.98353 0.0
C1538 C 0.91458 0.18301 0.01802 0.0
C1539 C 0.94446 0.19192 0.01989 0.0
C1540 C 0.96023 0.1964 0.9856 0.0
C1541 C 0.94593 0.19224 0.95021 0.0
C1542 C 0.91543 0.18446 0.94942 0.0
H1543 H 0.40744 0.88396 0.10093 0.0
H1544 H 0.36795 0.80019 0.06712 0.0
H1545 H 0.33726 0.8264 0.01913 0.0
H1546 H 0.34211 0.93284 0.08257 0.0
H1547 H 0.36471 0.96217 0.06277 0.0
H1548 H 0.37959 0.93838 0.09943 0.0
H1549 H 0.42422 0.92387 0.05666 0.0
H1550 H 0.41047 0.94824 0.02024 0.0
H1551 H 0.41737 0.90967 0.00948 0.0
H1552 H 0.31544 0.86073 0.97015 0.0
H1553 H 0.3096 0.89851 0.91943 0.0
H1554 H 0.3654 0.95931 0.98272 0.0
C1555 C 0.3916 0.87136 0.08418 0.0
C1556 C 0.38953 0.84024 0.08802 0.0
C1557 C 0.36952 0.82414 0.06472 0.0
C1558 C 0.3519 0.83888 0.03765 0.0
C1559 C 0.35478 0.86965 0.03404 0.0
C1560 C 0.37441 0.88565 0.05645 0.0
C1561 C 0.37683 0.9176 0.04319 0.0
C1562 C 0.36511 0.93903 0.07381 0.0
C1563 C 0.40912 0.92527 0.03169 0.0
C1564 C 0.35633 0.91689 0.009 0.0
C1565 C 0.3431 0.88928 1.00485 0.0
C1566 C 0.32521 0.88256 0.97353 0.0
C1567 C 0.32185 0.90414 0.94499 0.0
C1568 C 0.33647 0.93185 0.94796 0.0
C1569 C 0.35322 0.93857 0.98069 0.0
H1570 H 0.66685 0.38144 0.08467 0.0
H1571 H 0.75486 0.36014 0.04151 0.0
H1572 H 0.73231 0.32616 0.99411 0.0
H1573 H 0.62902 0.30756 0.06403 0.0
H1574 H 0.59558 0.32672 0.04979 0.0
H1575 H 0.61919 0.34247 0.08596 0.0
H1576 H 0.62235 0.3912 0.04612 0.0
H1577 H 0.59896 0.37485 0.01047 0.0
H1578 H 0.63511 0.38927 0.99745 0.0
H1579 H 0.70039 0.30085 0.94601 0.0
H1580 H 0.66287 0.29377 0.89549 0.0
H1581 H 0.59546 0.33321 0.96759 0.0
C1582 C 0.68135 0.36882 0.06599 0.0
C1583 C 0.71253 0.37298 0.06694 0.0
C1584 C 0.73088 0.35707 0.04124 0.0
C1585 C 0.71827 0.3375 0.01458 0.0
C1586 C 0.68727 0.33422 0.01388 0.0
C1587 C 0.66905 0.34976 0.0387 0.0
C1588 C 0.6365 0.34666 0.02789 0.0
C1589 C 0.61908 0.32982 0.05879 0.0
C1590 C 0.62244 0.3773 0.01998 0.0
C1591 C 0.63926 0.32822 0.99194 0.0
C1592 C 0.66865 0.32028 0.98518 0.0
C1593 C 0.67726 0.30627 0.95147 0.0
C1594 C 0.65577 0.30206 0.92302 0.0
C1595 C 0.62616 0.312 0.92836 0.0
C1596 C 0.61754 0.32393 0.96381 0.0
H1597 H 0.12236 0.67794 0.06706 0.0
H1598 H 0.20501 0.7138 0.11147 0.0
H1599 H 0.23366 0.68171 0.0671 0.0
H1600 H 0.14964 0.60174 0.05254 0.0
H1601 H 0.12811 0.59707 0.00968 0.0
H1602 H 0.11471 0.62109 0.04705 0.0
H1603 H 0.11103 0.66485 0.99912 0.0
H1604 H 0.12412 0.64091 0.96169 0.0
H1605 H 0.14346 0.67516 0.97169 0.0
H1606 H 0.25265 0.64997 0.01098 0.0
H1607 H 0.25912 0.62124 0.95112 0.0
H1608 H 0.16428 0.60389 0.94862 0.0
C1609 C 0.14649 0.67898 0.0676 0.0
C1610 C 0.16149 0.69859 0.09233 0.0
C1611 C 0.1931 0.69889 0.09266 0.0
C1612 C 0.20954 0.68074 0.06761 0.0
C1613 C 0.19399 0.66193 0.04307 0.0
C1614 C 0.16313 0.66075 0.04334 0.0
C1615 C 0.15146 0.6397 0.01342 0.0
C1616 C 0.13502 0.61334 0.03178 0.0
C1617 C 0.13136 0.65614 0.9848 0.0
C1618 C 0.18045 0.62992 0.99532 0.0
C1619 C 0.20489 0.64275 0.01268 0.0
C1620 C 0.23371 0.63913 0.99791 0.0
C1621 C 0.23734 0.62257 0.9641 0.0
C1622 C 0.2124 0.60961 0.94607 0.0
C1623 C 0.18387 0.61289 0.96251 0.0
H1624 H 0.38869 0.16131 0.35785 0.0
H1625 H 0.46403 0.10274 0.33993 0.0
H1626 H 0.42944 0.05987 0.33445 0.0
H1627 H 0.34757 0.11547 0.41535 0.0
H1628 H 0.31145 0.12488 0.39645 0.0
H1629 H 0.34153 0.15126 0.39365 0.0
H1630 H 0.33525 0.15474 0.32052 0.0
H1631 H 0.30472 0.12871 0.32311 0.0
H1632 H 0.33605 0.12129 0.29228 0.0
H1633 H 0.38698 0.02273 0.34279 0.0
H1634 H 0.33993 0.99523 0.35448 0.0
H1635 H 0.29189 0.07857 0.36176 0.0
C1636 C 0.39779 0.13959 0.35136 0.0
C1637 C 0.42897 0.13531 0.34874 0.0
C1638 C 0.44019 0.10654 0.34114 0.0
C1639 C 0.42069 0.08207 0.33833 0.0
C1640 C 0.39004 0.08692 0.34245 0.0
C1641 C 0.37862 0.11514 0.34776 0.0
C1642 C 0.34502 0.11439 0.35298 0.0
C1643 C 0.33588 0.12726 0.39192 0.0
C1644 C 0.32934 0.13075 0.32026 0.0
C1645 C 0.3393 0.08124 0.35115 0.0
C1646 C 0.36556 0.06571 0.34529 0.0
C1647 C 0.36624 0.03472 0.34634 0.0
C1648 C 0.33946 0.01928 0.35324 0.0
C1649 C 0.31226 0.03478 0.3584 0.0
C1650 C 0.31225 0.06615 0.35696 0.0
H1651 H 0.43748 0.43277 0.40857 0.0
H1652 H 0.38368 0.42172 0.30695 0.0
H1653 H 0.41285 0.37696 0.29018 0.0
H1654 H 0.50846 0.40542 0.36853 0.0
H1655 H 0.51846 0.38726 0.41241 0.0
H1656 H 0.49588 0.42037 0.41341 0.0
H1657 H 0.45549 0.39221 0.4521 0.0
H1658 H 0.47774 0.35898 0.45089 0.0
H1659 H 0.44002 0.35827 0.43329 0.0
H1660 H 0.44482 0.33017 0.28839 0.0
H1661 H 0.47748 0.28703 0.30032 0.0
H1662 H 0.50937 0.32882 0.40397 0.0
C1663 C 0.43208 0.42134 0.38234 0.0
C1664 C 0.40835 0.4311 0.35896 0.0
C1665 C 0.40206 0.41524 0.32503 0.0
C1666 C 0.41842 0.38959 0.3154 0.0
C1667 C 0.44107 0.38019 0.33983 0.0
C1668 C 0.44805 0.39583 0.37243 0.0
C1669 C 0.47205 0.38031 0.39528 0.0
C1670 C 0.50039 0.39948 0.39752 0.0
C1671 C 0.46062 0.37195 0.43524 0.0
C1672 C 0.47707 0.353 0.37099 0.0
C1673 C 0.45919 0.35339 0.33897 0.0
C1674 C 0.45911 0.32985 0.31317 0.0
C1675 C 0.47771 0.30536 0.32031 0.0
C1676 C 0.49611 0.30443 0.35312 0.0
C1677 C 0.49579 0.3288 0.37852 0.0
H1678 H 0.21114 0.50314 0.41129 0.0
H1679 H 0.25487 0.46752 0.31077 0.0
H1680 H 0.21221 0.43362 0.30054 0.0
H1681 H 0.17973 0.43365 0.44391 0.0
H1682 H 0.14575 0.45064 0.46069 0.0
H1683 H 0.17994 0.47168 0.46007 0.0
H1684 H 0.15458 0.51228 0.4191 0.0
H1685 H 0.12032 0.49139 0.41959 0.0
H1686 H 0.13703 0.50201 0.37488 0.0
H1687 H 0.16298 0.40431 0.30047 0.0
H1688 H 0.11312 0.3826 0.31098 0.0
H1689 H 0.1033 0.43685 0.41278 0.0
C1690 C 0.21187 0.4882 0.38713 0.0
C1691 C 0.23649 0.48812 0.36186 0.0
C1692 C 0.23638 0.46805 0.33066 0.0
C1693 C 0.21219 0.44867 0.32457 0.0
C1694 C 0.18827 0.44941 0.35001 0.0
C1695 C 0.18806 0.46863 0.38076 0.0
C1696 C 0.15974 0.46528 0.40391 0.0
C1697 C 0.16672 0.45468 0.44454 0.0
C1698 C 0.14187 0.49447 0.40437 0.0
C1699 C 0.14387 0.4414 0.38125 0.0
C1700 C 0.16055 0.43243 0.35027 0.0
C1701 C 0.14986 0.41103 0.3249 0.0
C1702 C 0.12136 0.39863 0.3313 0.0
C1703 C 0.10378 0.40758 0.363 0.0
C1704 C 0.1157 0.42921 0.38818 0.0
H1705 H 0.04334 0.21703 0.40916 0.0
H1706 H 0.07951 0.26409 0.31156 0.0
H1707 H 0.11433 0.22223 0.29979 0.0
H1708 H 0.11196 0.18634 0.44201 0.0
H1709 H 0.09496 0.15192 0.45688 0.0
H1710 H 0.07339 0.18562 0.45667 0.0
H1711 H 0.03419 0.16025 0.41328 0.0
H1712 H 0.05588 0.12658 0.41292 0.0
H1713 H 0.04586 0.14415 0.36867 0.0
H1714 H 0.14572 0.17355 0.29948 0.0
H1715 H 0.17198 0.12625 0.31376 0.0
H1716 H 0.11337 0.11253 0.41059 0.0
C1717 C 0.0586 0.21878 0.38531 0.0
C1718 C 0.0586 0.24404 0.36134 0.0
C1719 C 0.07908 0.24511 0.3305 0.0
C1720 C 0.09885 0.22132 0.32345 0.0
C1721 C 0.09785 0.19656 0.34743 0.0
C1722 C 0.07827 0.19538 0.37788 0.0
C1723 C 0.08156 0.16677 0.40001 0.0
C1724 C 0.09104 0.17305 0.44132 0.0
C1725 C 0.05266 0.14836 0.39862 0.0
C1726 C 0.10628 0.15198 0.37762 0.0
C1727 C 0.11539 0.16919 0.34717 0.0
C1728 C 0.13857 0.15992 0.32318 0.0
C1729 C 0.1532 0.13285 0.33126 0.0
C1730 C 0.14468 0.11552 0.36319 0.0
C1731 C 0.12049 0.12517 0.38594 0.0
H1732 H 0.82273 0.98975 0.10084 0.0
H1733 H 0.77943 0.9584 0.20384 0.0
H1734 H 0.82133 0.92346 0.21456 0.0
H1735 H 0.85396 0.91802 0.07115 0.0
H1736 H 0.88756 0.93508 0.05322 0.0
H1737 H 0.85292 0.95536 0.0526 0.0
H1738 H 0.8776 0.99808 0.0907 0.0
H1739 H 0.91223 0.97795 0.0916 0.0
H1740 H 0.89528 0.99 0.13556 0.0
H1741 H 0.87178 0.89487 0.21641 0.0
H1742 H 0.92327 0.87586 0.20833 0.0
H1743 H 0.93094 0.92567 0.10285 0.0
C1744 C 0.82166 0.97526 0.12538 0.0
C1745 C 0.79761 0.9769 0.15141 0.0
C1746 C 0.79743 0.95749 0.18325 0.0
C1747 C 0.82122 0.93758 0.18962 0.0
C1748 C 0.8449 0.93704 0.16368 0.0
C1749 C 0.84498 0.95525 0.13197 0.0
C1750 C 0.87332 0.95164 0.10901 0.0
C1751 C 0.86652 0.93928 0.06914 0.0
C1752 C 0.89062 0.98116 0.10661 0.0
C1753 C 0.88964 0.92905 0.1331 0.0
C1754 C 0.87306 0.92063 0.16447 0.0
C1755 C 0.8847 0.90105 0.19158 0.0
C1756 C 0.91404 0.89018 0.18663 0.0
C1757 C 0.93152 0.89898 0.1548 0.0
C1758 C 0.91856 0.91831 0.12763 0.0
H1759 H 0.55169 0.81567 0.10047 0.0
H1760 H 0.58014 0.77415 0.20566 0.0
H1761 H 0.61513 0.81602 0.21686 0.0
H1762 H 0.6245 0.84709 0.07319 0.0
H1763 H 0.60754 0.88018 0.05411 0.0
H1764 H 0.58758 0.84542 0.05308 0.0
H1765 H 0.54339 0.86991 0.089 0.0
H1766 H 0.5632 0.90464 0.09031 0.0
H1767 H 0.55006 0.88805 0.13395 0.0
H1768 H 0.64367 0.86655 0.21893 0.0
H1769 H 0.66214 0.9182 0.21109 0.0
H1770 H 0.61474 0.92425 0.10381 0.0
C1771 C 0.56563 0.81498 0.1256 0.0
C1772 C 0.56314 0.79146 0.15212 0.0
C1773 C 0.58179 0.7917 0.18468 0.0
C1774 C 0.60169 0.81549 0.19132 0.0
C1775 C 0.60296 0.83873 0.16493 0.0
C1776 C 0.58554 0.83831 0.1325 0.0
C1777 C 0.58951 0.86636 0.10934 0.0
C1778 C 0.6031 0.85933 0.07011 0.0
C1779 C 0.55979 0.88322 0.10545 0.0
C1780 C 0.61132 0.88313 0.13412 0.0
C1781 C 0.61916 0.86698 0.16598 0.0
C1782 C 0.63794 0.87911 0.19373 0.0
C1783 C 0.64851 0.9085 0.18895 0.0
C1784 C 0.64012 0.92554 0.15672 0.0
C1785 C 0.62171 0.91212 0.12887 0.0
H1786 H 0.71288 0.53533 0.09666 0.0
H1787 H 0.75968 0.57176 0.19409 0.0
H1788 H 0.71754 0.60607 0.20591 0.0
H1789 H 0.68027 0.60475 0.0646 0.0
H1790 H 0.64593 0.58727 0.05015 0.0
H1791 H 0.68031 0.56659 0.04893 0.0
H1792 H 0.65673 0.52605 0.09187 0.0
H1793 H 0.6223 0.54655 0.09326 0.0
H1794 H 0.6406 0.53646 0.13701 0.0
H1795 H 0.66781 0.63503 0.20866 0.0
H1796 H 0.61692 0.65536 0.20144 0.0
H1797 H 0.60475 0.60039 0.10087 0.0
C1798 C 0.71448 0.5506 0.12039 0.0
C1799 C 0.73973 0.55069 0.14443 0.0
C1800 C 0.74069 0.57119 0.17513 0.0
C1801 C 0.7168 0.59081 0.18211 0.0
C1802 C 0.69214 0.58991 0.15799 0.0
C1803 C 0.69101 0.57038 0.1276 0.0
C1804 C 0.66193 0.57322 0.10618 0.0
C1805 C 0.66745 0.58358 0.06503 0.0
C1806 C 0.64436 0.54383 0.10716 0.0
C1807 C 0.64661 0.5971 0.12949 0.0
C1808 C 0.66424 0.60661 0.15923 0.0
C1809 C 0.65399 0.62791 0.18515 0.0
C1810 C 0.62495 0.63952 0.18066 0.0
C1811 C 0.60639 0.62983 0.1504 0.0
C1812 C 0.61792 0.60851 0.12447 0.0
H1813 H 1.01362 0.70618 0.1243 0.0
H1814 H 0.95674 0.7636 0.19216 0.0
H1815 H 0.92124 0.72179 0.20115 0.0
H1816 H 0.95614 0.66738 0.07629 0.0
H1817 H 0.97588 0.6325 0.07659 0.0
H1818 H 0.99635 0.6669 0.07681 0.0
H1819 H 0.0239 0.65023 0.13798 0.0
H1820 H 1.00327 0.61587 0.13818 0.0
H1821 H 1.00256 0.6397 0.17942 0.0
H1822 H 0.89079 0.67223 0.20023 0.0
H1823 H 0.869 0.62246 0.1876 0.0
H1824 H 0.94807 0.59902 0.12273 0.0
C1825 C 0.99372 0.7102 0.14108 0.0
C1826 C 0.98803 0.73839 0.15736 0.0
C1827 C 0.96167 0.74229 0.17926 0.0
C1828 C 0.94139 0.7186 0.18462 0.0
C1829 C 0.94788 0.69104 0.16819 0.0
C1830 C 0.97353 0.68692 0.14689 0.0
C1831 C 0.97558 0.6556 0.13156 0.0
C1832 C 0.976 0.65561 0.08773 0.0
C1833 C 1.00295 0.6394 0.14777 0.0
C1834 C 0.94687 0.64264 0.14701 0.0
C1835 C 0.93107 0.66315 0.16824 0.0
C1836 C 0.90323 0.656 0.18392 0.0
C1837 C 0.89108 0.62751 0.17689 0.0
C1838 C 0.90677 0.60653 0.1543 0.0
C1839 C 0.93531 0.61434 0.14011 0.0
H1840 H 0.70756 1.00802 0.61714 0.0
H1841 H 0.75409 0.96624 0.71121 0.0
H1842 H 0.71056 0.93362 0.7224 0.0
H1843 H 0.63327 1.00603 0.6594 0.0
H1844 H 0.61539 0.99816 0.61461 0.0
H1845 H 0.64956 0.01925 0.61558 0.0
H1846 H 0.67407 0.98171 0.56911 0.0
H1847 H 0.63998 0.96063 0.56783 0.0
H1848 H 0.67439 0.94275 0.58109 0.0
H1849 H 0.66213 0.90335 0.72082 0.0
H1850 H 0.61495 0.87771 0.70496 0.0
H1851 H 0.60049 0.94055 0.61305 0.0
C1852 C 0.70862 0.99221 0.64034 0.0
C1853 C 0.73439 0.98983 0.66329 0.0
C1854 C 0.73468 0.96862 0.69318 0.0
C1855 C 0.70998 0.95 0.69986 0.0
C1856 C 0.68501 0.95289 0.67657 0.0
C1857 C 0.68422 0.97353 0.64743 0.0
C1858 C 0.65534 0.97151 0.62538 0.0
C1859 C 0.63733 1.00046 0.62898 0.0
C1860 C 0.66131 0.96368 0.58338 0.0
C1861 C 0.64017 0.94617 0.64619 0.0
C1862 C 0.6574 0.93579 0.67585 0.0
C1863 C 0.64831 0.91157 0.69792 0.0
C1864 C 0.62125 0.89724 0.68888 0.0
C1865 C 0.60363 0.90714 0.65791 0.0
C1866 C 0.61322 0.93233 0.63699 0.0
H1867 H 0.6074 0.60779 0.6003 0.0
H1868 H 0.66809 0.62277 0.69436 0.0
H1869 H 0.6402 0.66848 0.71132 0.0
H1870 H 0.6011 0.68182 0.57136 0.0
H1871 H 0.56215 0.67949 0.55909 0.0
H1872 H 0.58522 0.64683 0.55672 0.0
H1873 H 0.5491 0.61908 0.6022 0.0
H1874 H 0.52572 0.65159 0.60439 0.0
H1875 H 0.53985 0.63534 0.64763 0.0
H1876 H 0.6075 0.71557 0.71395 0.0
H1877 H 0.5717 0.75685 0.70478 0.0
H1878 H 0.53283 0.70975 0.60914 0.0
C1879 C 0.61466 0.62039 0.62487 0.0
C1880 C 0.63991 0.61147 0.64611 0.0
C1881 C 0.64857 0.62874 0.67799 0.0
C1882 C 0.63296 0.65491 0.68765 0.0
C1883 C 0.60858 0.66338 0.66539 0.0
C1884 C 0.59931 0.6463 0.63495 0.0
C1885 C 0.57308 0.66038 0.61471 0.0
C1886 C 0.58087 0.66755 0.57301 0.0
C1887 C 0.5453 0.64041 0.61741 0.0
C1888 C 0.56926 0.68843 0.63798 0.0
C1889 C 0.58987 0.68988 0.66713 0.0
C1890 C 0.59113 0.71442 0.69142 0.0
C1891 C 0.57076 0.73786 0.68588 0.0
C1892 C 0.54929 0.73665 0.6563 0.0
C1893 C 0.54871 0.71143 0.63222 0.0
H1894 H 0.88673 0.66429 0.66022 0.0
H1895 H 0.96192 0.60548 0.67767 0.0
H1896 H 0.92735 0.56247 0.68069 0.0
H1897 H 0.83286 0.6227 0.72262 0.0
H1898 H 0.80218 0.6307 0.6912 0.0
H1899 H 0.83253 0.65676 0.69561 0.0
H1900 H 0.84041 0.65492 0.62258 0.0
H1901 H 0.8105 0.62851 0.61797 0.0
H1902 H 0.84705 0.61963 0.59975 0.0
H1903 H 0.88533 0.52553 0.67007 0.0
H1904 H 0.83872 0.49809 0.6562 0.0
H1905 H 0.79031 0.58128 0.65046 0.0
C1906 C 0.8958 0.64245 0.66601 0.0
C1907 C 0.92696 0.63819 0.66919 0.0
C1908 C 0.93811 0.60928 0.676 0.0
C1909 C 0.91862 0.58474 0.67741 0.0
C1910 C 0.88805 0.58962 0.67271 0.0
C1911 C 0.87665 0.6179 0.66815 0.0
C1912 C 0.84316 0.61717 0.66196 0.0
C1913 C 0.82671 0.63275 0.69482 0.0
C1914 C 0.83481 0.63086 0.62327 0.0
C1915 C 0.83752 0.58397 0.6624 0.0
C1916 C 0.86373 0.56843 0.66843 0.0
C1917 C 0.86461 0.5375 0.66633 0.0
C1918 C 0.83809 0.52212 0.65818 0.0
C1919 C 0.81092 0.53758 0.65278 0.0
C1920 C 0.81066 0.5689 0.65532 0.0
H1921 H 1.01191 0.8287 0.62066 0.0
H1922 H 0.98371 0.78885 0.72738 0.0
H1923 H 0.95061 0.83173 0.73943 0.0
H1924 H 1.00958 0.90672 0.6525 0.0
H1925 H 0.99546 0.91954 0.60741 0.0
H1926 H 1.01921 0.88728 0.6093 0.0
H1927 H 0.9789 0.85632 0.57441 0.0
H1928 H 0.95511 0.88843 0.57234 0.0
H1929 H 0.94166 0.85459 0.59383 0.0
H1930 H 0.91734 0.87772 0.73726 0.0
H1931 H 0.8859 0.9207 0.71941 0.0
H1932 H 0.93626 0.92988 0.61438 0.0
C1933 C 0.99923 0.82917 0.64693 0.0
C1934 C 1.00062 0.80536 0.67313 0.0
C1935 C 0.98316 0.80679 0.70685 0.0
C1936 C 0.96433 0.83115 0.71404 0.0
C1937 C 0.96319 0.85404 0.68734 0.0
C1938 C 0.98024 0.85322 0.65447 0.0
C1939 C 0.97347 0.87947 0.62898 0.0
C1940 C 1.00108 0.89943 0.62429 0.0
C1941 C 0.96157 0.86907 0.59011 0.0
C1942 C 0.94944 0.89481 0.65213 0.0
C1943 C 0.94403 0.88015 0.68598 0.0
C1944 C 0.92169 0.88959 0.71104 0.0
C1945 C 0.90404 0.91422 0.70079 0.0
C1946 C 0.90867 0.92894 0.6656 0.0
C1947 C 0.93214 0.91928 0.64157 0.0
H1948 H 0.23234 0.0562 0.81329 0.0
H1949 H 0.22198 0.04961 0.93584 0.0
H1950 H 0.17774 0.0822 0.9328 0.0
H1951 H 0.20765 0.13318 0.80307 0.0
H1952 H 0.18789 0.126 0.7594 0.0
H1953 H 0.22013 0.1041 0.77152 0.0
H1954 H 0.18886 0.05595 0.76522 0.0
H1955 H 0.15657 0.07765 0.75301 0.0
H1956 H 0.15493 0.05208 0.79245 0.0
H1957 H 0.13349 0.1149 0.91613 0.0
H1958 H 0.09102 0.14128 0.88668 0.0
H1959 H 0.129 0.12482 0.77489 0.0
C1960 C 0.221 0.06194 0.83955 0.0
C1961 C 0.23084 0.05048 0.87486 0.0
C1962 C 0.21494 0.05807 0.90844 0.0
C1963 C 0.18982 0.07672 0.90703 0.0
C1964 C 0.18058 0.08748 0.87177 0.0
C1965 C 0.19556 0.08016 0.83859 0.0
C1966 C 0.17989 0.09303 0.80411 0.0
C1967 C 0.2001 0.11541 0.7833 0.0
C1968 C 0.16944 0.0682 0.77712 0.0
C1969 C 0.15366 0.10847 0.82302 0.0
C1970 C 0.15467 0.10542 0.86211 0.0
C1971 C 0.13258 0.11754 0.88554 0.0
C1972 C 0.1086 0.13273 0.86855 0.0
C1973 C 0.10667 0.1354 0.82843 0.0
C1974 C 0.12977 0.12325 0.80563 0.0
H1975 H 0.42924 0.10865 0.90397 0.0
H1976 H 0.36532 0.12777 0.81491 0.0
H1977 H 0.39198 0.17497 0.80092 0.0
H1978 H 0.43501 0.18062 0.93988 0.0
H1979 H 0.47434 0.17844 0.95005 0.0
H1980 H 0.45197 0.14522 0.95022 0.0
H1981 H 0.48706 0.121 0.90032 0.0
H1982 H 0.50987 0.15396 0.90051 0.0
H1983 H 0.49478 0.14023 0.85636 0.0
H1984 H 0.42441 0.22288 0.80116 0.0
H1985 H 0.46107 0.26337 0.81158 0.0
H1986 H 0.50236 0.21138 0.90112 0.0
C1987 C 0.42106 0.12246 0.88101 0.0
C1988 C 0.39526 0.11436 0.86039 0.0
C1989 C 0.38532 0.13318 0.83067 0.0
C1990 C 0.40019 0.16019 0.82281 0.0
C1991 C 0.42505 0.16789 0.84471 0.0
C1992 C 0.43558 0.1492 0.87283 0.0
C1993 C 0.46212 0.16248 0.89323 0.0
C1994 C 0.45544 0.16695 0.93585 0.0
C1995 C 0.49011 0.14328 0.88723 0.0
C1996 C 0.46477 0.1919 0.87275 0.0
C1997 C 0.4433 0.19481 0.84482 0.0
C1998 C 0.44138 0.22061 0.82282 0.0
C1999 C 0.46219 0.24362 0.82913 0.0
C2000 C 0.48469 0.24072 0.85722 0.0
C2001 C 0.48559 0.21448 0.87935 0.0
H2002 H 0.32968 0.49567 0.90759 0.0
H2003 H 0.28068 0.45702 0.81345 0.0
H2004 H 0.32251 0.42216 0.80169 0.0
H2005 H 0.40033 0.49414 0.86469 0.0
H2006 H 0.41999 0.48528 0.90792 0.0
H2007 H 0.38531 0.50528 0.91017 0.0
H2008 H 0.36351 0.4653 0.9555 0.0
H2009 H 0.3982 0.44517 0.95347 0.0
H2010 H 0.36379 0.42682 0.94117 0.0
H2011 H 0.37299 0.39344 0.79794 0.0
H2012 H 0.42482 0.37467 0.80327 0.0
H2013 H 0.43841 0.43215 0.90105 0.0
C2014 C 0.32744 0.47968 0.88473 0.0
C2015 C 0.30169 0.4792 0.86152 0.0
C2016 C 0.3 0.45783 0.83185 0.0
C2017 C 0.32374 0.43792 0.82491 0.0
C2018 C 0.34901 0.43939 0.84805 0.0
C2019 C 0.35074 0.45967 0.87756 0.0
C2020 C 0.38044 0.45774 0.89773 0.0
C2021 C 0.39752 0.48736 0.89494 0.0
C2022 C 0.37622 0.44818 0.93944 0.0
C2023 C 0.39552 0.43361 0.87464 0.0
C2024 C 0.37721 0.42304 0.84616 0.0
C2025 C 0.3873 0.40141 0.8205 0.0
C2026 C 0.41685 0.3907 0.82388 0.0
C2027 C 0.43608 0.40167 0.85269 0.0
C2028 C 0.42469 0.42312 0.87852 0.0
H2029 H 0.04941 0.31755 0.91281 0.0
H2030 H 0.08387 0.27665 0.80978 0.0
H2031 H 0.1183 0.31905 0.80098 0.0
H2032 H 0.04903 0.39063 0.87922 0.0
H2033 H 0.06005 0.40717 0.92376 0.0
H2034 H 0.0402 0.37242 0.92356 0.0
H2035 H 0.08254 0.34788 0.96252 0.0
H2036 H 0.10251 0.38265 0.96303 0.0
H2037 H 0.12037 0.34959 0.94509 0.0
H2038 H 0.14624 0.36896 0.80081 0.0
H2039 H 0.16506 0.42007 0.81013 0.0
H2040 H 0.1129 0.42658 0.9143 0.0
C2041 C 0.06451 0.31715 0.8887 0.0
C2042 C 0.06388 0.29356 0.8621 0.0
C2043 C 0.08395 0.29427 0.83077 0.0
C2044 C 0.10362 0.31834 0.82547 0.0
C2045 C 0.10323 0.34148 0.8519 0.0
C2046 C 0.08432 0.34087 0.88308 0.0
C2047 C 0.0872 0.36891 0.90656 0.0
C2048 C 0.05735 0.38577 0.90835 0.0
C2049 C 0.09885 0.36183 0.94667 0.0
C2050 C 0.11019 0.38573 0.88335 0.0
C2051 C 0.11938 0.36964 0.85201 0.0
C2052 C 0.13949 0.38155 0.82563 0.0
C2053 C 0.15024 0.4107 0.8313 0.0
C2054 C 0.14083 0.42772 0.86318 0.0
C2055 C 0.12078 0.41453 0.88955 0.0
loop_
_geom_bond_atom_site_label_1
_geom_bond_atom_site_label_2
_geom_bond_distance
_geom_bond_site_symmetry_2
_ccdc_geom_bond_type
Zn0 N4 2.020 . S
Zn0 O8 2.019 . S
Zn0 N10 2.119 . S
Zn0 O18 1.975 . S
C1 N2 1.334 . S
C1 N5 1.336 . S
N2 C1 1.334 . S
N2 C3 1.334 . S
C3 N2 1.334 . S
C3 N4 1.336 . S
N4 Zn0 2.020 . S
N4 C3 1.336 . S
N4 N5 1.354 . S
N5 C1 1.336 . S
N5 N4 1.354 . S
N5 Zn9 2.020 . S
C6 O7 1.244 . S
C6 O30 1.257 . S
O7 C6 1.244 . S
O8 Zn0 2.019 . S
O8 C28 1.257 . S
Zn9 N5 2.020 . S
Zn9 O16 1.975 . S
Zn9 N25 2.119 . S
Zn9 O30 2.019 . S
N10 Zn0 2.119 . S
N10 C12 1.334 . S
N10 C13 1.328 . S
C11 C12 1.391 . S
C11 N14 1.329 . S
C11 H32 0.930 . S
C12 N10 1.334 . S
C12 C11 1.391 . S
C12 H19 0.930 . S
C13 N10 1.328 . S
C13 C15 1.392 . S
C13 H20 0.930 . S
N14 C11 1.329 . S
N14 C15 1.331 . S
C15 C13 1.392 . S
C15 N14 1.331 . S
O16 Zn9 1.975 . S
O16 C17 1.252 . S
C17 O16 1.252 . S
C17 O18 1.252 . S
O18 Zn0 1.975 . S
O18 C17 1.252 . S
H19 C12 0.930 . S
H20 C13 0.930 . S
C21 C22 1.392 . S
C21 N25 1.328 . S
C21 H27 0.930 . S
C22 C21 1.392 . S
C22 N26 1.331 . S
C23 C24 1.391 . S
C23 N26 1.329 . S
C23 H33 0.930 . S
C24 C23 1.391 . S
C24 N25 1.334 . S
C24 H31 0.930 . S
N25 Zn9 2.119 . S
N25 C21 1.328 . S
N25 C24 1.334 . S
N26 C22 1.331 . S
N26 C23 1.329 . S
H27 C21 0.930 . S
C28 O8 1.257 . S
C28 O29 1.244 . S
O29 C28 1.244 . S
O30 C6 1.257 . S
O30 Zn9 2.019 . S
H31 C24 0.930 . S
H32 C11 0.930 . S
H33 C23 0.930 . S
Zn34 N38 2.020 . S
Zn34 O42 2.019 . S
Zn34 N44 2.119 . S
Zn34 O52 1.975 . S
C35 N36 1.334 . S
C35 N39 1.336 . S
N36 C35 1.334 . S
N36 C37 1.334 . S
C37 N36 1.334 . S
C37 N38 1.336 . S
N38 Zn34 2.020 . S
N38 C37 1.336 . S
N38 N39 1.354 . S
N39 C35 1.336 . S
N39 N38 1.354 . S
N39 Zn43 2.020 . S
C40 O41 1.244 . S
C40 O64 1.257 . S
O41 C40 1.244 . S
O42 Zn34 2.019 . S
O42 C62 1.257 . S
Zn43 N39 2.020 . S
Zn43 O50 1.975 . S
Zn43 N59 2.119 . S
Zn43 O64 2.019 . S
N44 Zn34 2.119 . S
N44 C46 1.334 . S
N44 C47 1.328 . S
C45 C46 1.391 . S
C45 N48 1.329 . S
C45 H66 0.930 . S
C46 N44 1.334 . S
C46 C45 1.391 . S
C46 H53 0.930 . S
C47 N44 1.328 . S
C47 C49 1.392 . S
C47 H54 0.930 . S
N48 C45 1.329 . S
N48 C49 1.331 . S
C49 C47 1.392 . S
C49 N48 1.331 . S
O50 Zn43 1.975 . S
O50 C51 1.252 . S
C51 O50 1.252 . S
C51 O52 1.252 . S
O52 Zn34 1.975 . S
O52 C51 1.252 . S
H53 C46 0.930 . S
H54 C47 0.930 . S
C55 C56 1.392 . S
C55 N59 1.328 . S
C55 H61 0.930 . S
C56 C55 1.392 . S
C56 N60 1.331 . S
C57 C58 1.391 . S
C57 N60 1.329 . S
C57 H67 0.930 . S
C58 C57 1.391 . S
C58 N59 1.334 . S
C58 H65 0.930 . S
N59 Zn43 2.119 . S
N59 C55 1.328 . S
N59 C58 1.334 . S
N60 C56 1.331 . S
N60 C57 1.329 . S
H61 C55 0.930 . S
C62 O42 1.257 . S
C62 O63 1.244 . S
O63 C62 1.244 . S
O64 C40 1.257 . S
O64 Zn43 2.019 . S
H65 C58 0.930 . S
H66 C45 0.930 . S
H67 C57 0.930 . S
Zn68 N72 2.020 . S
Zn68 O76 2.019 . S
Zn68 N78 2.119 . S
Zn68 O86 1.975 1_655 S
C69 N70 1.334 . S
C69 N73 1.336 . S
N70 C69 1.334 . S
N70 C71 1.334 . S
C71 N70 1.334 . S
C71 N72 1.336 . S
N72 Zn68 2.020 . S
N72 C71 1.336 . S
N72 N73 1.354 . S
N73 C69 1.336 . S
N73 N72 1.354 . S
N73 Zn77 2.020 . S
C74 O75 1.244 . S
C74 O98 1.257 1_655 S
O75 C74 1.244 . S
O76 Zn68 2.019 . S
O76 C96 1.257 . S
Zn77 N73 2.020 . S
Zn77 O84 1.975 1_655 S
Zn77 N93 2.119 1_655 S
Zn77 O98 2.019 1_655 S
N78 Zn68 2.119 . S
N78 C80 1.334 . S
N78 C81 1.328 . S
C79 C80 1.391 . S
C79 N82 1.329 . S
C79 H100 0.930 . S
C80 N78 1.334 . S
C80 C79 1.391 . S
C80 H87 0.930 . S
C81 N78 1.328 . S
C81 C83 1.392 . S
C81 H88 0.930 . S
N82 C79 1.329 . S
N82 C83 1.331 . S
C83 C81 1.392 . S
C83 N82 1.331 . S
O84 Zn77 1.975 1_455 S
O84 C85 1.252 . S
C85 O84 1.252 . S
C85 O86 1.252 . S
O86 Zn68 1.975 1_455 S
O86 C85 1.252 . S
H87 C80 0.930 . S
H88 C81 0.930 . S
C89 C90 1.392 . S
C89 N93 1.328 . S
C89 H95 0.930 . S
C90 C89 1.392 . S
C90 N94 1.331 . S
C91 C92 1.391 . S
C91 N94 1.329 . S
C91 H101 0.930 . S
C92 C91 1.391 . S
C92 N93 1.334 . S
C92 H99 0.930 . S
N93 Zn77 2.119 1_455 S
N93 C89 1.328 . S
N93 C92 1.334 . S
N94 C90 1.331 . S
N94 C91 1.329 . S
H95 C89 0.930 . S
C96 O76 1.257 . S
C96 O97 1.244 . S
O97 C96 1.244 . S
O98 C74 1.257 1_455 S
O98 Zn77 2.019 1_455 S
H99 C92 0.930 . S
H100 C79 0.930 . S
H101 C91 0.930 . S
Zn102 N106 2.020 . S
Zn102 O110 2.019 . S
Zn102 N112 2.119 . S
Zn102 O120 1.975 1_565 S
C103 N104 1.334 . S
C103 N107 1.336 . S
N104 C103 1.334 . S
N104 C105 1.334 . S
C105 N104 1.334 . S
C105 N106 1.336 . S
N106 Zn102 2.020 . S
N106 C105 1.336 . S
N106 N107 1.354 . S
N107 C103 1.336 . S
N107 N106 1.354 . S
N107 Zn111 2.020 . S
C108 O109 1.244 . S
C108 O132 1.257 1_565 S
O109 C108 1.244 . S
O110 Zn102 2.019 . S
O110 C130 1.257 . S
Zn111 N107 2.020 . S
Zn111 O118 1.975 1_565 S
Zn111 N127 2.119 1_565 S
Zn111 O132 2.019 1_565 S
N112 Zn102 2.119 . S
N112 C114 1.334 . S
N112 C115 1.328 . S
C113 C114 1.391 . S
C113 N116 1.329 . S
C113 H134 0.930 . S
C114 N112 1.334 . S
C114 C113 1.391 . S
C114 H121 0.930 . S
C115 N112 1.328 . S
C115 C117 1.392 . S
C115 H122 0.930 . S
N116 C113 1.329 . S
N116 C117 1.331 . S
C117 C115 1.392 . S
C117 N116 1.331 . S
O118 Zn111 1.975 1_545 S
O118 C119 1.252 . S
C119 O118 1.252 . S
C119 O120 1.252 . S
O120 Zn102 1.975 1_545 S
O120 C119 1.252 . S
H121 C114 0.930 . S
H122 C115 0.930 . S
C123 C124 1.392 . S
C123 N127 1.328 . S
C123 H129 0.930 . S
C124 C123 1.392 . S
C124 N128 1.331 . S
C125 C126 1.391 . S
C125 N128 1.329 . S
C125 H135 0.930 . S
C126 C125 1.391 . S
C126 N127 1.334 . S
C126 H133 0.930 . S
N127 Zn111 2.119 1_545 S
N127 C123 1.328 . S
N127 C126 1.334 . S
N128 C124 1.331 . S
N128 C125 1.329 . S
H129 C123 0.930 . S
C130 O110 1.257 . S
C130 O131 1.244 . S
O131 C130 1.244 . S
O132 C108 1.257 1_545 S
O132 Zn111 2.019 1_545 S
H133 C126 0.930 . S
H134 C113 0.930 . S
H135 C125 0.930 . S
Zn136 N140 2.020 . S
Zn136 O144 2.019 1_455 S
Zn136 N146 2.119 1_455 S
Zn136 O154 1.975 1_455 S
C137 N138 1.334 . S
C137 N141 1.336 . S
N138 C137 1.334 . S
N138 C139 1.334 . S
C139 N138 1.334 . S
C139 N140 1.336 . S
N140 Zn136 2.020 . S
N140 C139 1.336 . S
N140 N141 1.354 . S
N141 C137 1.336 . S
N141 N140 1.354 . S
N141 Zn145 2.020 . S
C142 O143 1.244 . S
C142 O166 1.257 . S
O143 C142 1.244 . S
O144 Zn136 2.019 1_655 S
O144 C164 1.257 1_655 S
Zn145 N141 2.020 . S
Zn145 O152 1.975 1_455 S
Zn145 N161 2.119 . S
Zn145 O166 2.019 . S
N146 Zn136 2.119 1_655 S
N146 C148 1.334 . S
N146 C149 1.328 . S
C147 C148 1.391 . S
C147 N150 1.329 . S
C147 H168 0.930 . S
C148 N146 1.334 . S
C148 C147 1.391 . S
C148 H155 0.930 . S
C149 N146 1.328 . S
C149 C151 1.392 . S
C149 H156 0.930 . S
N150 C147 1.329 . S
N150 C151 1.331 . S
C151 C149 1.392 . S
C151 N150 1.331 . S
O152 Zn145 1.975 1_655 S
O152 C153 1.252 . S
C153 O152 1.252 . S
C153 O154 1.252 . S
O154 Zn136 1.975 1_655 S
O154 C153 1.252 . S
H155 C148 0.930 . S
H156 C149 0.930 . S
C157 C158 1.392 . S
C157 N161 1.328 . S
C157 H163 0.930 . S
C158 C157 1.392 . S
C158 N162 1.331 . S
C159 C160 1.391 . S
C159 N162 1.329 . S
C159 H169 0.930 . S
C160 C159 1.391 . S
C160 N161 1.334 . S
C160 H167 0.930 . S
N161 Zn145 2.119 . S
N161 C157 1.328 . S
N161 C160 1.334 . S
N162 C158 1.331 . S
N162 C159 1.329 . S
H163 C157 0.930 . S
C164 O144 1.257 1_455 S
C164 O165 1.244 . S
O165 C164 1.244 . S
O166 C142 1.257 . S
O166 Zn145 2.019 . S
H167 C160 0.930 . S
H168 C147 0.930 . S
H169 C159 0.930 . S
Zn170 N174 2.020 . S
Zn170 O178 2.019 1_545 S
Zn170 N180 2.119 1_545 S
Zn170 O188 1.975 1_545 S
C171 N172 1.334 . S
C171 N175 1.336 . S
N172 C171 1.334 . S
N172 C173 1.334 . S
C173 N172 1.334 . S
C173 N174 1.336 . S
N174 Zn170 2.020 . S
N174 C173 1.336 . S
N174 N175 1.354 . S
N175 C171 1.336 . S
N175 N174 1.354 . S
N175 Zn179 2.020 . S
C176 O177 1.244 . S
C176 O200 1.257 . S
O177 C176 1.244 . S
O178 Zn170 2.019 1_565 S
O178 C198 1.257 1_565 S
Zn179 N175 2.020 . S
Zn179 O186 1.975 1_545 S
Zn179 N195 2.119 . S
Zn179 O200 2.019 . S
N180 Zn170 2.119 1_565 S
N180 C182 1.334 . S
N180 C183 1.328 . S
C181 C182 1.391 . S
C181 N184 1.329 . S
C181 H202 0.930 . S
C182 N180 1.334 . S
C182 C181 1.391 . S
C182 H189 0.930 . S
C183 N180 1.328 . S
C183 C185 1.392 . S
C183 H190 0.930 . S
N184 C181 1.329 . S
N184 C185 1.331 . S
C185 C183 1.392 . S
C185 N184 1.331 . S
O186 Zn179 1.975 1_565 S
O186 C187 1.252 . S
C187 O186 1.252 . S
C187 O188 1.252 . S
O188 Zn170 1.975 1_565 S
O188 C187 1.252 . S
H189 C182 0.930 . S
H190 C183 0.930 . S
C191 C192 1.392 . S
C191 N195 1.328 . S
C191 H197 0.930 . S
C192 C191 1.392 . S
C192 N196 1.331 . S
C193 C194 1.391 . S
C193 N196 1.329 . S
C193 H203 0.930 . S
C194 C193 1.391 . S
C194 N195 1.334 . S
C194 H201 0.930 . S
N195 Zn179 2.119 . S
N195 C191 1.328 . S
N195 C194 1.334 . S
N196 C192 1.331 . S
N196 C193 1.329 . S
H197 C191 0.930 . S
C198 O178 1.257 1_545 S
C198 O199 1.244 . S
O199 C198 1.244 . S
O200 C176 1.257 . S
O200 Zn179 2.019 . S
H201 C194 0.930 . S
H202 C181 0.930 . S
H203 C193 0.930 . S
Zn204 N208 2.020 . S
Zn204 O212 2.019 . S
Zn204 N214 2.119 . S
Zn204 O222 1.975 . S
C205 N206 1.334 . S
C205 N209 1.336 . S
N206 C205 1.334 . S
N206 C207 1.334 . S
C207 N206 1.334 . S
C207 N208 1.336 . S
N208 Zn204 2.020 . S
N208 C207 1.336 . S
N208 N209 1.354 . S
N209 C205 1.336 . S
N209 N208 1.354 . S
N209 Zn213 2.020 . S
C210 O211 1.244 . S
C210 O234 1.257 . S
O211 C210 1.244 . S
O212 Zn204 2.019 . S
O212 C232 1.257 . S
Zn213 N209 2.020 . S
Zn213 O220 1.975 . S
Zn213 N229 2.119 . S
Zn213 O234 2.019 . S
N214 Zn204 2.119 . S
N214 C216 1.334 . S
N214 C217 1.328 . S
C215 C216 1.391 . S
C215 N218 1.329 . S
C215 H236 0.930 . S
C216 N214 1.334 . S
C216 C215 1.391 . S
C216 H223 0.930 . S
C217 N214 1.328 . S
C217 C219 1.392 . S
C217 H224 0.930 . S
N218 C215 1.329 . S
N218 C219 1.331 . S
C219 C217 1.392 . S
C219 N218 1.331 . S
O220 Zn213 1.975 . S
O220 C221 1.252 . S
C221 O220 1.252 . S
C221 O222 1.252 . S
O222 Zn204 1.975 . S
O222 C221 1.252 . S
H223 C216 0.930 . S
H224 C217 0.930 . S
C225 C226 1.392 . S
C225 N229 1.328 . S
C225 H231 0.930 . S
C226 C225 1.392 . S
C226 N230 1.331 . S
C227 C228 1.391 . S
C227 N230 1.329 . S
C227 H237 0.930 . S
C228 C227 1.391 . S
C228 N229 1.334 . S
C228 H235 0.930 . S
N229 Zn213 2.119 . S
N229 C225 1.328 . S
N229 C228 1.334 . S
N230 C226 1.331 . S
N230 C227 1.329 . S
H231 C225 0.930 . S
C232 O212 1.257 . S
C232 O233 1.244 . S
O233 C232 1.244 . S
O234 C210 1.257 . S
O234 Zn213 2.019 . S
H235 C228 0.930 . S
H236 C215 0.930 . S
H237 C227 0.930 . S
Zn238 N242 2.020 . S
Zn238 O246 2.019 . S
Zn238 N248 2.119 . S
Zn238 O256 1.975 . S
C239 N240 1.334 . S
C239 N243 1.336 . S
N240 C239 1.334 . S
N240 C241 1.334 . S
C241 N240 1.334 . S
C241 N242 1.336 . S
N242 Zn238 2.020 . S
N242 C241 1.336 . S
N242 N243 1.354 . S
N243 C239 1.336 . S
N243 N242 1.354 . S
N243 Zn247 2.020 . S
C244 O245 1.244 . S
C244 O268 1.257 . S
O245 C244 1.244 . S
O246 Zn238 2.019 . S
O246 C266 1.257 . S
Zn247 N243 2.020 . S
Zn247 O254 1.975 . S
Zn247 N263 2.119 . S
Zn247 O268 2.019 . S
N248 Zn238 2.119 . S
N248 C250 1.334 . S
N248 C251 1.328 . S
C249 C250 1.391 . S
C249 N252 1.329 . S
C249 H270 0.930 . S
C250 N248 1.334 . S
C250 C249 1.391 . S
C250 H257 0.930 . S
C251 N248 1.328 . S
C251 C253 1.392 . S
C251 H258 0.930 . S
N252 C249 1.329 . S
N252 C253 1.331 . S
C253 C251 1.392 . S
C253 N252 1.331 . S
O254 Zn247 1.975 . S
O254 C255 1.252 . S
C255 O254 1.252 . S
C255 O256 1.252 . S
O256 Zn238 1.975 . S
O256 C255 1.252 . S
H257 C250 0.930 . S
H258 C251 0.930 . S
C259 C260 1.392 . S
C259 N263 1.328 . S
C259 H265 0.930 . S
C260 C259 1.392 . S
C260 N264 1.331 . S
C261 C262 1.391 . S
C261 N264 1.329 . S
C261 H271 0.930 . S
C262 C261 1.391 . S
C262 N263 1.334 . S
C262 H269 0.930 . S
N263 Zn247 2.119 . S
N263 C259 1.328 . S
N263 C262 1.334 . S
N264 C260 1.331 . S
N264 C261 1.329 . S
H265 C259 0.930 . S
C266 O246 1.257 . S
C266 O267 1.244 . S
O267 C266 1.244 . S
O268 C244 1.257 . S
O268 Zn247 2.019 . S
H269 C262 0.930 . S
H270 C249 0.930 . S
H271 C261 0.930 . S
Zn272 N276 2.020 . S
Zn272 O280 2.019 . S
Zn272 N282 2.119 . S
Zn272 O290 1.975 . S
C273 N274 1.334 . S
C273 N277 1.336 . S
N274 C273 1.334 . S
N274 C275 1.334 . S
C275 N274 1.334 . S
C275 N276 1.336 . S
N276 Zn272 2.020 . S
N276 C275 1.336 . S
N276 N277 1.354 . S
N277 C273 1.336 . S
N277 N276 1.354 . S
N277 Zn281 2.020 . S
C278 O279 1.244 . S
C278 O302 1.257 . S
O279 C278 1.244 . S
O280 Zn272 2.019 . S
O280 C300 1.257 . S
Zn281 N277 2.020 . S
Zn281 O288 1.975 . S
Zn281 N297 2.119 . S
Zn281 O302 2.019 . S
N282 Zn272 2.119 . S
N282 C284 1.334 . S
N282 C285 1.328 . S
C283 C284 1.391 . S
C283 N286 1.329 . S
C283 H304 0.930 . S
C284 N282 1.334 . S
C284 C283 1.391 . S
C284 H291 0.930 . S
C285 N282 1.328 . S
C285 C287 1.392 . S
C285 H292 0.930 . S
N286 C283 1.329 . S
N286 C287 1.331 . S
C287 C285 1.392 . S
C287 N286 1.331 . S
O288 Zn281 1.975 . S
O288 C289 1.252 . S
C289 O288 1.252 . S
C289 O290 1.252 . S
O290 Zn272 1.975 . S
O290 C289 1.252 . S
H291 C284 0.930 . S
H292 C285 0.930 . S
C293 C294 1.392 . S
C293 N297 1.328 . S
C293 H299 0.930 . S
C294 C293 1.392 . S
C294 N298 1.331 . S
C295 C296 1.391 . S
C295 N298 1.329 . S
C295 H305 0.930 . S
C296 C295 1.391 . S
C296 N297 1.334 . S
C296 H303 0.930 . S
N297 Zn281 2.119 . S
N297 C293 1.328 . S
N297 C296 1.334 . S
N298 C294 1.331 . S
N298 C295 1.329 . S
H299 C293 0.930 . S
C300 O280 1.257 . S
C300 O301 1.244 . S
O301 C300 1.244 . S
O302 C278 1.257 . S
O302 Zn281 2.019 . S
H303 C296 0.930 . S
H304 C283 0.930 . S
H305 C295 0.930 . S
Zn306 N310 2.020 . S
Zn306 O314 2.019 . S
Zn306 N316 2.119 . S
Zn306 O324 1.975 . S
C307 N308 1.334 . S
C307 N311 1.336 . S
N308 C307 1.334 . S
N308 C309 1.334 . S
C309 N308 1.334 . S
C309 N310 1.336 . S
N310 Zn306 2.020 . S
N310 C309 1.336 . S
N310 N311 1.354 . S
N311 C307 1.336 . S
N311 N310 1.354 . S
N311 Zn315 2.020 . S
C312 O313 1.244 . S
C312 O336 1.257 . S
O313 C312 1.244 . S
O314 Zn306 2.019 . S
O314 C334 1.257 . S
Zn315 N311 2.020 . S
Zn315 O322 1.975 . S
Zn315 N331 2.119 . S
Zn315 O336 2.019 . S
N316 Zn306 2.119 . S
N316 C318 1.334 . S
N316 C319 1.328 . S
C317 C318 1.391 . S
C317 N320 1.329 . S
C317 H338 0.930 . S
C318 N316 1.334 . S
C318 C317 1.391 . S
C318 H325 0.930 . S
C319 N316 1.328 . S
C319 C321 1.392 . S
C319 H326 0.930 . S
N320 C317 1.329 . S
N320 C321 1.331 . S
C321 C319 1.392 . S
C321 N320 1.331 . S
O322 Zn315 1.975 . S
O322 C323 1.252 . S
C323 O322 1.252 . S
C323 O324 1.252 . S
O324 Zn306 1.975 . S
O324 C323 1.252 . S
H325 C318 0.930 . S
H326 C319 0.930 . S
C327 C328 1.392 . S
C327 N331 1.328 . S
C327 H333 0.930 . S
C328 C327 1.392 . S
C328 N332 1.331 . S
C329 C330 1.391 . S
C329 N332 1.329 . S
C329 H339 0.930 . S
C330 C329 1.391 . S
C330 N331 1.334 . S
C330 H337 0.930 . S
N331 Zn315 2.119 . S
N331 C327 1.328 . S
N331 C330 1.334 . S
N332 C328 1.331 . S
N332 C329 1.329 . S
H333 C327 0.930 . S
C334 O314 1.257 . S
C334 O335 1.244 . S
O335 C334 1.244 . S
O336 C312 1.257 . S
O336 Zn315 2.019 . S
H337 C330 0.930 . S
H338 C317 0.930 . S
H339 C329 0.930 . S
Zn340 N344 2.020 . S
Zn340 O348 2.019 . S
Zn340 N350 2.119 . S
Zn340 O358 1.975 1_455 S
C341 N342 1.334 . S
C341 N345 1.336 . S
N342 C341 1.334 . S
N342 C343 1.334 . S
C343 N342 1.334 . S
C343 N344 1.336 . S
N344 Zn340 2.020 . S
N344 C343 1.336 . S
N344 N345 1.354 . S
N345 C341 1.336 . S
N345 N344 1.354 . S
N345 Zn349 2.020 . S
C346 O347 1.244 . S
C346 O370 1.257 1_455 S
O347 C346 1.244 . S
O348 Zn340 2.019 . S
O348 C368 1.257 . S
Zn349 N345 2.020 . S
Zn349 O356 1.975 1_455 S
Zn349 N365 2.119 1_455 S
Zn349 O370 2.019 1_455 S
N350 Zn340 2.119 . S
N350 C352 1.334 . S
N350 C353 1.328 . S
C351 C352 1.391 . S
C351 N354 1.329 . S
C351 H372 0.930 . S
C352 N350 1.334 . S
C352 C351 1.391 . S
C352 H359 0.930 . S
C353 N350 1.328 . S
C353 C355 1.392 . S
C353 H360 0.930 . S
N354 C351 1.329 . S
N354 C355 1.331 . S
C355 C353 1.392 . S
C355 N354 1.331 . S
O356 Zn349 1.975 1_655 S
O356 C357 1.252 . S
C357 O356 1.252 . S
C357 O358 1.252 . S
O358 Zn340 1.975 1_655 S
O358 C357 1.252 . S
H359 C352 0.930 . S
H360 C353 0.930 . S
C361 C362 1.392 . S
C361 N365 1.328 . S
C361 H367 0.930 . S
C362 C361 1.392 . S
C362 N366 1.331 . S
C363 C364 1.391 . S
C363 N366 1.329 . S
C363 H373 0.930 . S
C364 C363 1.391 . S
C364 N365 1.334 . S
C364 H371 0.930 . S
N365 Zn349 2.119 1_655 S
N365 C361 1.328 . S
N365 C364 1.334 . S
N366 C362 1.331 . S
N366 C363 1.329 . S
H367 C361 0.930 . S
C368 O348 1.257 . S
C368 O369 1.244 . S
O369 C368 1.244 . S
O370 C346 1.257 1_655 S
O370 Zn349 2.019 1_655 S
H371 C364 0.930 . S
H372 C351 0.930 . S
H373 C363 0.930 . S
Zn374 N378 2.020 . S
Zn374 O382 2.019 1_545 S
Zn374 N384 2.119 1_545 S
Zn374 O392 1.975 1_545 S
C375 N376 1.334 . S
C375 N379 1.336 . S
N376 C375 1.334 . S
N376 C377 1.334 . S
C377 N376 1.334 . S
C377 N378 1.336 . S
N378 Zn374 2.020 . S
N378 C377 1.336 . S
N378 N379 1.354 . S
N379 C375 1.336 . S
N379 N378 1.354 . S
N379 Zn383 2.020 . S
C380 O381 1.244 . S
C380 O404 1.257 . S
O381 C380 1.244 . S
O382 Zn374 2.019 1_565 S
O382 C402 1.257 1_565 S
Zn383 N379 2.020 . S
Zn383 O390 1.975 1_545 S
Zn383 N399 2.119 . S
Zn383 O404 2.019 . S
N384 Zn374 2.119 1_565 S
N384 C386 1.334 . S
N384 C387 1.328 . S
C385 C386 1.391 . S
C385 N388 1.329 . S
C385 H406 0.930 . S
C386 N384 1.334 . S
C386 C385 1.391 . S
C386 H393 0.930 . S
C387 N384 1.328 . S
C387 C389 1.392 . S
C387 H394 0.930 . S
N388 C385 1.329 . S
N388 C389 1.331 . S
C389 C387 1.392 . S
C389 N388 1.331 . S
O390 Zn383 1.975 1_565 S
O390 C391 1.252 . S
C391 O390 1.252 . S
C391 O392 1.252 . S
O392 Zn374 1.975 1_565 S
O392 C391 1.252 . S
H393 C386 0.930 . S
H394 C387 0.930 . S
C395 C396 1.392 . S
C395 N399 1.328 . S
C395 H401 0.930 . S
C396 C395 1.392 . S
C396 N400 1.331 . S
C397 C398 1.391 . S
C397 N400 1.329 . S
C397 H407 0.930 . S
C398 C397 1.391 . S
C398 N399 1.334 . S
C398 H405 0.930 . S
N399 Zn383 2.119 . S
N399 C395 1.328 . S
N399 C398 1.334 . S
N400 C396 1.331 . S
N400 C397 1.329 . S
H401 C395 0.930 . S
C402 O382 1.257 1_545 S
C402 O403 1.244 . S
O403 C402 1.244 . S
O404 C380 1.257 . S
O404 Zn383 2.019 . S
H405 C398 0.930 . S
H406 C385 0.930 . S
H407 C397 0.930 . S
Zn408 N412 2.020 . S
Zn408 O416 2.019 1_655 S
Zn408 N418 2.119 1_655 S
Zn408 O426 1.975 1_655 S
C409 N410 1.334 . S
C409 N413 1.336 . S
N410 C409 1.334 . S
N410 C411 1.334 . S
C411 N410 1.334 . S
C411 N412 1.336 . S
N412 Zn408 2.020 . S
N412 C411 1.336 . S
N412 N413 1.354 . S
N413 C409 1.336 . S
N413 N412 1.354 . S
N413 Zn417 2.020 . S
C414 O415 1.244 . S
C414 O438 1.257 . S
O415 C414 1.244 . S
O416 Zn408 2.019 1_455 S
O416 C436 1.257 1_455 S
Zn417 N413 2.020 . S
Zn417 O424 1.975 1_655 S
Zn417 N433 2.119 . S
Zn417 O438 2.019 . S
N418 Zn408 2.119 1_455 S
N418 C420 1.334 . S
N418 C421 1.328 . S
C419 C420 1.391 . S
C419 N422 1.329 . S
C419 H440 0.930 . S
C420 N418 1.334 . S
C420 C419 1.391 . S
C420 H427 0.930 . S
C421 N418 1.328 . S
C421 C423 1.392 . S
C421 H428 0.930 . S
N422 C419 1.329 . S
N422 C423 1.331 . S
C423 C421 1.392 . S
C423 N422 1.331 . S
O424 Zn417 1.975 1_455 S
O424 C425 1.252 . S
C425 O424 1.252 . S
C425 O426 1.252 . S
O426 Zn408 1.975 1_455 S
O426 C425 1.252 . S
H427 C420 0.930 . S
H428 C421 0.930 . S
C429 C430 1.392 . S
C429 N433 1.328 . S
C429 H435 0.930 . S
C430 C429 1.392 . S
C430 N434 1.331 . S
C431 C432 1.391 . S
C431 N434 1.329 . S
C431 H441 0.930 . S
C432 C431 1.391 . S
C432 N433 1.334 . S
C432 H439 0.930 . S
N433 Zn417 2.119 . S
N433 C429 1.328 . S
N433 C432 1.334 . S
N434 C430 1.331 . S
N434 C431 1.329 . S
H435 C429 0.930 . S
C436 O416 1.257 1_655 S
C436 O437 1.244 . S
O437 C436 1.244 . S
O438 C414 1.257 . S
O438 Zn417 2.019 . S
H439 C432 0.930 . S
H440 C419 0.930 . S
H441 C431 0.930 . S
Zn442 N446 2.020 . S
Zn442 O450 2.019 1_565 S
Zn442 N452 2.119 1_565 S
Zn442 O460 1.975 1_565 S
C443 N444 1.334 . S
C443 N447 1.336 . S
N444 C443 1.334 . S
N444 C445 1.334 . S
C445 N444 1.334 . S
C445 N446 1.336 . S
N446 Zn442 2.020 . S
N446 C445 1.336 . S
N446 N447 1.354 . S
N447 C443 1.336 . S
N447 N446 1.354 . S
N447 Zn451 2.020 . S
C448 O449 1.244 . S
C448 O472 1.257 . S
O449 C448 1.244 . S
O450 Zn442 2.019 1_545 S
O450 C470 1.257 1_545 S
Zn451 N447 2.020 . S
Zn451 O458 1.975 1_565 S
Zn451 N467 2.119 . S
Zn451 O472 2.019 . S
N452 Zn442 2.119 1_545 S
N452 C454 1.334 . S
N452 C455 1.328 . S
C453 C454 1.391 . S
C453 N456 1.329 . S
C453 H474 0.930 . S
C454 N452 1.334 . S
C454 C453 1.391 . S
C454 H461 0.930 . S
C455 N452 1.328 . S
C455 C457 1.392 . S
C455 H462 0.930 . S
N456 C453 1.329 . S
N456 C457 1.331 . S
C457 C455 1.392 . S
C457 N456 1.331 . S
O458 Zn451 1.975 1_545 S
O458 C459 1.252 . S
C459 O458 1.252 . S
C459 O460 1.252 . S
O460 Zn442 1.975 1_545 S
O460 C459 1.252 . S
H461 C454 0.930 . S
H462 C455 0.930 . S
C463 C464 1.392 . S
C463 N467 1.328 . S
C463 H469 0.930 . S
C464 C463 1.392 . S
C464 N468 1.331 . S
C465 C466 1.391 . S
C465 N468 1.329 . S
C465 H475 0.930 . S
C466 C465 1.391 . S
C466 N467 1.334 . S
C466 H473 0.930 . S
N467 Zn451 2.119 . S
N467 C463 1.328 . S
N467 C466 1.334 . S
N468 C464 1.331 . S
N468 C465 1.329 . S
H469 C463 0.930 . S
C470 O450 1.257 1_565 S
C470 O471 1.244 . S
O471 C470 1.244 . S
O472 C448 1.257 . S
O472 Zn451 2.019 . S
H473 C466 0.930 . S
H474 C453 0.930 . S
H475 C465 0.930 . S
Zn476 N480 2.020 . S
Zn476 O484 2.019 . S
Zn476 N486 2.119 . S
Zn476 O494 1.975 . S
C477 N478 1.334 . S
C477 N481 1.336 . S
N478 C477 1.334 . S
N478 C479 1.334 . S
C479 N478 1.334 . S
C479 N480 1.336 . S
N480 Zn476 2.020 . S
N480 C479 1.336 . S
N480 N481 1.354 . S
N481 C477 1.336 . S
N481 N480 1.354 . S
N481 Zn485 2.020 . S
C482 O483 1.244 . S
C482 O506 1.257 . S
O483 C482 1.244 . S
O484 Zn476 2.019 . S
O484 C504 1.257 . S
Zn485 N481 2.020 . S
Zn485 O492 1.975 . S
Zn485 N501 2.119 . S
Zn485 O506 2.019 . S
N486 Zn476 2.119 . S
N486 C488 1.334 . S
N486 C489 1.328 . S
C487 C488 1.391 . S
C487 N490 1.329 . S
C487 H508 0.930 . S
C488 N486 1.334 . S
C488 C487 1.391 . S
C488 H495 0.930 . S
C489 N486 1.328 . S
C489 C491 1.392 . S
C489 H496 0.930 . S
N490 C487 1.329 . S
N490 C491 1.331 . S
C491 C489 1.392 . S
C491 N490 1.331 . S
O492 Zn485 1.975 . S
O492 C493 1.252 . S
C493 O492 1.252 . S
C493 O494 1.252 . S
O494 Zn476 1.975 . S
O494 C493 1.252 . S
H495 C488 0.930 . S
H496 C489 0.930 . S
C497 C498 1.392 . S
C497 N501 1.328 . S
C497 H503 0.930 . S
C498 C497 1.392 . S
C498 N502 1.331 . S
C499 C500 1.391 . S
C499 N502 1.329 . S
C499 H509 0.930 . S
C500 C499 1.391 . S
C500 N501 1.334 . S
C500 H507 0.930 . S
N501 Zn485 2.119 . S
N501 C497 1.328 . S
N501 C500 1.334 . S
N502 C498 1.331 . S
N502 C499 1.329 . S
H503 C497 0.930 . S
C504 O484 1.257 . S
C504 O505 1.244 . S
O505 C504 1.244 . S
O506 C482 1.257 . S
O506 Zn485 2.019 . S
H507 C500 0.930 . S
H508 C487 0.930 . S
H509 C499 0.930 . S
Zn510 N514 2.020 . S
Zn510 O518 2.019 . S
Zn510 N520 2.119 . S
Zn510 O528 1.975 . S
C511 N512 1.334 . S
C511 N515 1.336 . S
N512 C511 1.334 . S
N512 C513 1.334 . S
C513 N512 1.334 . S
C513 N514 1.336 . S
N514 Zn510 2.020 . S
N514 C513 1.336 . S
N514 N515 1.354 . S
N515 C511 1.336 . S
N515 N514 1.354 . S
N515 Zn519 2.020 . S
C516 O517 1.244 . S
C516 O540 1.257 . S
O517 C516 1.244 . S
O518 Zn510 2.019 . S
O518 C538 1.257 . S
Zn519 N515 2.020 . S
Zn519 O526 1.975 . S
Zn519 N535 2.119 . S
Zn519 O540 2.019 . S
N520 Zn510 2.119 . S
N520 C522 1.334 . S
N520 C523 1.328 . S
C521 C522 1.391 . S
C521 N524 1.329 . S
C521 H542 0.930 . S
C522 N520 1.334 . S
C522 C521 1.391 . S
C522 H529 0.930 . S
C523 N520 1.328 . S
C523 C525 1.392 . S
C523 H530 0.930 . S
N524 C521 1.329 . S
N524 C525 1.331 . S
C525 C523 1.392 . S
C525 N524 1.331 . S
O526 Zn519 1.975 . S
O526 C527 1.252 . S
C527 O526 1.252 . S
C527 O528 1.252 . S
O528 Zn510 1.975 . S
O528 C527 1.252 . S
H529 C522 0.930 . S
H530 C523 0.930 . S
C531 C532 1.392 . S
C531 N535 1.328 . S
C531 H537 0.930 . S
C532 C531 1.392 . S
C532 N536 1.331 . S
C533 C534 1.391 . S
C533 N536 1.329 . S
C533 H543 0.930 . S
C534 C533 1.391 . S
C534 N535 1.334 . S
C534 H541 0.930 . S
N535 Zn519 2.119 . S
N535 C531 1.328 . S
N535 C534 1.334 . S
N536 C532 1.331 . S
N536 C533 1.329 . S
H537 C531 0.930 . S
C538 O518 1.257 . S
C538 O539 1.244 . S
O539 C538 1.244 . S
O540 C516 1.257 . S
O540 Zn519 2.019 . S
H541 C534 0.930 . S
H542 C521 0.930 . S
H543 C533 0.930 . S
H544 C556 0.930 . S
H545 C558 0.930 . S
H546 C559 0.930 . S
H547 C563 0.959 . S
H548 C563 0.959 . S
H549 C563 0.961 . S
H550 C564 0.960 . S
H551 C564 0.961 . S
H552 C564 0.959 . S
H553 C567 0.929 . S
H554 C568 0.931 . S
H555 C570 0.930 . S
C556 H544 0.930 . S
C556 C557 1.399 . S
C556 C561 1.399 . S
C557 C556 1.399 . S
C557 C558 1.376 . S
C558 H545 0.930 . S
C558 C557 1.376 . S
C558 C559 1.388 . S
C559 H546 0.930 . S
C559 C558 1.388 . S
C559 C560 1.390 . S
C560 C559 1.390 . S
C560 C561 1.394 . S
C560 C566 1.465 . S
C561 C556 1.399 . S
C561 C560 1.394 . S
C561 C562 1.516 . S
C562 C561 1.516 . S
C562 C563 1.502 . S
C562 C564 1.561 . S
C562 C565 1.526 . S
C563 H547 0.959 . S
C563 H548 0.959 . S
C563 H549 0.961 . S
C563 C562 1.502 . S
C564 H550 0.960 . S
C564 H551 0.961 . S
C564 H552 0.959 . S
C564 C562 1.561 . S
C565 C562 1.526 . S
C565 C566 1.396 . S
C565 C570 1.390 . S
C566 C560 1.465 . S
C566 C565 1.396 . S
C566 C567 1.399 . S
C567 H553 0.929 . S
C567 C566 1.399 . S
C567 C568 1.385 . S
C568 H554 0.931 . S
C568 C567 1.385 . S
C568 C569 1.389 . S
C569 C568 1.389 . S
C569 C570 1.387 . S
C570 H555 0.930 . S
C570 C565 1.390 . S
C570 C569 1.387 . S
H571 C583 0.930 . S
H572 C585 0.930 . S
H573 C586 0.930 . S
H574 C590 0.959 . S
H575 C590 0.959 . S
H576 C590 0.961 . S
H577 C591 0.960 . S
H578 C591 0.961 . S
H579 C591 0.959 . S
H580 C594 0.929 . S
H581 C595 0.931 . S
H582 C597 0.930 . S
C583 H571 0.930 . S
C583 C584 1.399 . S
C583 C588 1.399 . S
C584 C583 1.399 . S
C584 C585 1.376 . S
C585 H572 0.930 . S
C585 C584 1.376 . S
C585 C586 1.388 . S
C586 H573 0.930 . S
C586 C585 1.388 . S
C586 C587 1.390 . S
C587 C586 1.390 . S
C587 C588 1.394 . S
C587 C593 1.465 . S
C588 C583 1.399 . S
C588 C587 1.394 . S
C588 C589 1.516 . S
C589 C588 1.516 . S
C589 C590 1.502 . S
C589 C591 1.561 . S
C589 C592 1.526 . S
C590 H574 0.959 . S
C590 H575 0.959 . S
C590 H576 0.961 . S
C590 C589 1.502 . S
C591 H577 0.960 . S
C591 H578 0.961 . S
C591 H579 0.959 . S
C591 C589 1.561 . S
C592 C589 1.526 . S
C592 C593 1.396 . S
C592 C597 1.390 . S
C593 C587 1.465 . S
C593 C592 1.396 . S
C593 C594 1.399 . S
C594 H580 0.929 . S
C594 C593 1.399 . S
C594 C595 1.385 . S
C595 H581 0.931 . S
C595 C594 1.385 . S
C595 C596 1.389 . S
C596 C595 1.389 . S
C596 C597 1.387 . S
C597 H582 0.930 . S
C597 C592 1.390 . S
C597 C596 1.387 . S
H598 C610 0.930 . S
H599 C612 0.930 . S
H600 C613 0.930 . S
H601 C617 0.959 . S
H602 C617 0.959 . S
H603 C617 0.961 . S
H604 C618 0.960 . S
H605 C618 0.961 . S
H606 C618 0.959 . S
H607 C621 0.929 . S
H608 C622 0.931 . S
H609 C624 0.930 . S
C610 H598 0.930 . S
C610 C611 1.399 . S
C610 C615 1.399 . S
C611 C610 1.399 . S
C611 C612 1.376 . S
C612 H599 0.930 . S
C612 C611 1.376 . S
C612 C613 1.388 . S
C613 H600 0.930 . S
C613 C612 1.388 . S
C613 C614 1.390 . S
C614 C613 1.390 . S
C614 C615 1.394 . S
C614 C620 1.465 . S
C615 C610 1.399 . S
C615 C614 1.394 . S
C615 C616 1.516 . S
C616 C615 1.516 . S
C616 C617 1.502 . S
C616 C618 1.561 . S
C616 C619 1.526 . S
C617 H601 0.959 . S
C617 H602 0.959 . S
C617 H603 0.961 . S
C617 C616 1.502 . S
C618 H604 0.960 . S
C618 H605 0.961 . S
C618 H606 0.959 . S
C618 C616 1.561 . S
C619 C616 1.526 . S
C619 C620 1.396 . S
C619 C624 1.390 . S
C620 C614 1.465 . S
C620 C619 1.396 . S
C620 C621 1.399 . S
C621 H607 0.929 . S
C621 C620 1.399 . S
C621 C622 1.385 . S
C622 H608 0.931 . S
C622 C621 1.385 . S
C622 C623 1.389 . S
C623 C622 1.389 . S
C623 C624 1.387 . S
C624 H609 0.930 . S
C624 C619 1.390 . S
C624 C623 1.387 . S
H625 C637 0.930 . S
H626 C639 0.930 . S
H627 C640 0.930 . S
H628 C644 0.959 . S
H629 C644 0.959 . S
H630 C644 0.961 . S
H631 C645 0.960 . S
H632 C645 0.961 . S
H633 C645 0.959 . S
H634 C648 0.929 . S
H635 C649 0.931 . S
H636 C651 0.930 . S
C637 H625 0.930 . S
C637 C638 1.399 . S
C637 C642 1.399 . S
C638 C637 1.399 . S
C638 C639 1.376 . S
C639 H626 0.930 . S
C639 C638 1.376 . S
C639 C640 1.388 . S
C640 H627 0.930 . S
C640 C639 1.388 . S
C640 C641 1.390 . S
C641 C640 1.390 . S
C641 C642 1.394 . S
C641 C647 1.465 . S
C642 C637 1.399 . S
C642 C641 1.394 . S
C642 C643 1.516 . S
C643 C642 1.516 . S
C643 C644 1.502 . S
C643 C645 1.561 . S
C643 C646 1.526 . S
C644 H628 0.959 . S
C644 H629 0.959 . S
C644 H630 0.961 . S
C644 C643 1.502 . S
C645 H631 0.960 . S
C645 H632 0.961 . S
C645 H633 0.959 . S
C645 C643 1.561 . S
C646 C643 1.526 . S
C646 C647 1.396 . S
C646 C651 1.390 . S
C647 C641 1.465 . S
C647 C646 1.396 . S
C647 C648 1.399 . S
C648 H634 0.929 . S
C648 C647 1.399 . S
C648 C649 1.385 . S
C649 H635 0.931 . S
C649 C648 1.385 . S
C649 C650 1.389 . S
C650 C649 1.389 . S
C650 C651 1.387 . S
C651 H636 0.930 . S
C651 C646 1.390 . S
C651 C650 1.387 . S
H652 C664 0.930 . S
H653 C666 0.930 . S
H654 C667 0.930 . S
H655 C671 0.959 . S
H656 C671 0.959 . S
H657 C671 0.961 . S
H658 C672 0.960 . S
H659 C672 0.961 . S
H660 C672 0.959 . S
H661 C675 0.929 . S
H662 C676 0.931 . S
H663 C678 0.930 . S
C664 H652 0.930 . S
C664 C665 1.399 . S
C664 C669 1.399 . S
C665 C664 1.399 . S
C665 C666 1.376 . S
C666 H653 0.930 . S
C666 C665 1.376 . S
C666 C667 1.388 . S
C667 H654 0.930 . S
C667 C666 1.388 . S
C667 C668 1.390 . S
C668 C667 1.390 . S
C668 C669 1.394 . S
C668 C674 1.465 . S
C669 C664 1.399 . S
C669 C668 1.394 . S
C669 C670 1.516 . S
C670 C669 1.516 . S
C670 C671 1.502 . S
C670 C672 1.561 . S
C670 C673 1.526 . S
C671 H655 0.959 . S
C671 H656 0.959 . S
C671 H657 0.961 . S
C671 C670 1.502 . S
C672 H658 0.960 . S
C672 H659 0.961 . S
C672 H660 0.959 . S
C672 C670 1.561 . S
C673 C670 1.526 . S
C673 C674 1.396 . S
C673 C678 1.390 . S
C674 C668 1.465 . S
C674 C673 1.396 . S
C674 C675 1.399 . S
C675 H661 0.929 . S
C675 C674 1.399 . S
C675 C676 1.385 . S
C676 H662 0.931 . S
C676 C675 1.385 . S
C676 C677 1.389 . S
C677 C676 1.389 . S
C677 C678 1.387 . S
C678 H663 0.930 . S
C678 C673 1.390 . S
C678 C677 1.387 . S
H679 C691 0.930 . S
H680 C693 0.930 . S
H681 C694 0.930 . S
H682 C698 0.959 . S
H683 C698 0.959 . S
H684 C698 0.961 . S
H685 C699 0.960 . S
H686 C699 0.961 . S
H687 C699 0.959 . S
H688 C702 0.929 . S
H689 C703 0.931 . S
H690 C705 0.930 . S
C691 H679 0.930 . S
C691 C692 1.399 . S
C691 C696 1.399 . S
C692 C691 1.399 . S
C692 C693 1.376 . S
C693 H680 0.930 . S
C693 C692 1.376 . S
C693 C694 1.388 . S
C694 H681 0.930 . S
C694 C693 1.388 . S
C694 C695 1.390 . S
C695 C694 1.390 . S
C695 C696 1.394 . S
C695 C701 1.465 . S
C696 C691 1.399 . S
C696 C695 1.394 . S
C696 C697 1.516 . S
C697 C696 1.516 . S
C697 C698 1.502 . S
C697 C699 1.561 . S
C697 C700 1.526 . S
C698 H682 0.959 . S
C698 H683 0.959 . S
C698 H684 0.961 . S
C698 C697 1.502 . S
C699 H685 0.960 . S
C699 H686 0.961 . S
C699 H687 0.959 . S
C699 C697 1.561 . S
C700 C697 1.526 . S
C700 C701 1.396 . S
C700 C705 1.390 . S
C701 C695 1.465 . S
C701 C700 1.396 . S
C701 C702 1.399 . S
C702 H688 0.929 . S
C702 C701 1.399 . S
C702 C703 1.385 . S
C703 H689 0.931 . S
C703 C702 1.385 . S
C703 C704 1.389 . S
C704 C703 1.389 . S
C704 C705 1.387 . S
C705 H690 0.930 . S
C705 C700 1.390 . S
C705 C704 1.387 . S
H706 C718 0.930 . S
H707 C720 0.930 . S
H708 C721 0.930 . S
H709 C725 0.959 . S
H710 C725 0.959 . S
H711 C725 0.961 . S
H712 C726 0.960 . S
H713 C726 0.961 . S
H714 C726 0.959 . S
H715 C729 0.929 . S
H716 C730 0.931 . S
H717 C732 0.930 . S
C718 H706 0.930 . S
C718 C719 1.399 . S
C718 C723 1.399 . S
C719 C718 1.399 . S
C719 C720 1.376 . S
C720 H707 0.930 . S
C720 C719 1.376 . S
C720 C721 1.388 . S
C721 H708 0.930 . S
C721 C720 1.388 . S
C721 C722 1.390 . S
C722 C721 1.390 . S
C722 C723 1.394 . S
C722 C728 1.465 . S
C723 C718 1.399 . S
C723 C722 1.394 . S
C723 C724 1.516 . S
C724 C723 1.516 . S
C724 C725 1.502 . S
C724 C726 1.561 . S
C724 C727 1.526 . S
C725 H709 0.959 . S
C725 H710 0.959 . S
C725 H711 0.961 . S
C725 C724 1.502 . S
C726 H712 0.960 . S
C726 H713 0.961 . S
C726 H714 0.959 . S
C726 C724 1.561 . S
C727 C724 1.526 . S
C727 C728 1.396 . S
C727 C732 1.390 . S
C728 C722 1.465 . S
C728 C727 1.396 . S
C728 C729 1.399 . S
C729 H715 0.929 . S
C729 C728 1.399 . S
C729 C730 1.385 . S
C730 H716 0.931 . S
C730 C729 1.385 . S
C730 C731 1.389 . S
C731 C730 1.389 . S
C731 C732 1.387 . S
C732 H717 0.930 . S
C732 C727 1.390 . S
C732 C731 1.387 . S
H733 C745 0.930 . S
H734 C747 0.930 . S
H735 C748 0.930 . S
H736 C752 0.959 . S
H737 C752 0.959 . S
H738 C752 0.961 . S
H739 C753 0.960 . S
H740 C753 0.961 . S
H741 C753 0.959 . S
H742 C756 0.929 . S
H743 C757 0.931 . S
H744 C759 0.930 . S
C745 H733 0.930 . S
C745 C746 1.399 . S
C745 C750 1.399 . S
C746 C745 1.399 . S
C746 C747 1.376 . S
C747 H734 0.930 . S
C747 C746 1.376 . S
C747 C748 1.388 . S
C748 H735 0.930 . S
C748 C747 1.388 . S
C748 C749 1.390 . S
C749 C748 1.390 . S
C749 C750 1.394 . S
C749 C755 1.465 . S
C750 C745 1.399 . S
C750 C749 1.394 . S
C750 C751 1.516 . S
C751 C750 1.516 . S
C751 C752 1.502 . S
C751 C753 1.561 . S
C751 C754 1.526 . S
C752 H736 0.959 . S
C752 H737 0.959 . S
C752 H738 0.961 . S
C752 C751 1.502 . S
C753 H739 0.960 . S
C753 H740 0.961 . S
C753 H741 0.959 . S
C753 C751 1.561 . S
C754 C751 1.526 . S
C754 C755 1.396 . S
C754 C759 1.390 . S
C755 C749 1.465 . S
C755 C754 1.396 . S
C755 C756 1.399 . S
C756 H742 0.929 . S
C756 C755 1.399 . S
C756 C757 1.385 . S
C757 H743 0.931 . S
C757 C756 1.385 . S
C757 C758 1.389 . S
C758 C757 1.389 . S
C758 C759 1.387 . S
C759 H744 0.930 . S
C759 C754 1.390 . S
C759 C758 1.387 . S
H760 C772 0.930 . S
H761 C774 0.930 . S
H762 C775 0.930 . S
H763 C779 0.959 . S
H764 C779 0.959 . S
H765 C779 0.961 . S
H766 C780 0.960 . S
H767 C780 0.961 . S
H768 C780 0.959 . S
H769 C783 0.929 . S
H770 C784 0.931 . S
H771 C786 0.930 . S
C772 H760 0.930 . S
C772 C773 1.399 . S
C772 C777 1.399 . S
C773 C772 1.399 . S
C773 C774 1.376 . S
C774 H761 0.930 . S
C774 C773 1.376 . S
C774 C775 1.388 . S
C775 H762 0.930 . S
C775 C774 1.388 . S
C775 C776 1.390 . S
C776 C775 1.390 . S
C776 C777 1.394 . S
C776 C782 1.465 . S
C777 C772 1.399 . S
C777 C776 1.394 . S
C777 C778 1.516 . S
C778 C777 1.516 . S
C778 C779 1.502 . S
C778 C780 1.561 . S
C778 C781 1.526 . S
C779 H763 0.959 . S
C779 H764 0.959 . S
C779 H765 0.961 . S
C779 C778 1.502 . S
C780 H766 0.960 . S
C780 H767 0.961 . S
C780 H768 0.959 . S
C780 C778 1.561 . S
C781 C778 1.526 . S
C781 C782 1.396 . S
C781 C786 1.390 . S
C782 C776 1.465 . S
C782 C781 1.396 . S
C782 C783 1.399 . S
C783 H769 0.929 . S
C783 C782 1.399 . S
C783 C784 1.385 . S
C784 H770 0.931 . S
C784 C783 1.385 . S
C784 C785 1.389 . S
C785 C784 1.389 . S
C785 C786 1.387 . S
C786 H771 0.930 . S
C786 C781 1.390 . S
C786 C785 1.387 . S
H787 C799 0.930 . S
H788 C801 0.930 . S
H789 C802 0.930 . S
H790 C806 0.959 . S
H791 C806 0.959 . S
H792 C806 0.961 . S
H793 C807 0.960 . S
H794 C807 0.961 . S
H795 C807 0.959 . S
H796 C810 0.929 . S
H797 C811 0.931 . S
H798 C813 0.930 . S
C799 H787 0.930 . S
C799 C800 1.399 . S
C799 C804 1.399 . S
C800 C799 1.399 . S
C800 C801 1.376 . S
C801 H788 0.930 . S
C801 C800 1.376 . S
C801 C802 1.388 . S
C802 H789 0.930 . S
C802 C801 1.388 . S
C802 C803 1.390 . S
C803 C802 1.390 . S
C803 C804 1.394 . S
C803 C809 1.465 . S
C804 C799 1.399 . S
C804 C803 1.394 . S
C804 C805 1.516 . S
C805 C804 1.516 . S
C805 C806 1.502 . S
C805 C807 1.561 . S
C805 C808 1.526 . S
C806 H790 0.959 . S
C806 H791 0.959 . S
C806 H792 0.961 . S
C806 C805 1.502 . S
C807 H793 0.960 . S
C807 H794 0.961 . S
C807 H795 0.959 . S
C807 C805 1.561 . S
C808 C805 1.526 . S
C808 C809 1.396 . S
C808 C813 1.390 . S
C809 C803 1.465 . S
C809 C808 1.396 . S
C809 C810 1.399 . S
C810 H796 0.929 . S
C810 C809 1.399 . S
C810 C811 1.385 . S
C811 H797 0.931 . S
C811 C810 1.385 . S
C811 C812 1.389 . S
C812 C811 1.389 . S
C812 C813 1.387 . S
C813 H798 0.930 . S
C813 C808 1.390 . S
C813 C812 1.387 . S
H814 C826 0.930 . S
H815 C828 0.934 . S
H816 C829 0.930 . S
H817 C833 0.959 . S
H818 C833 0.959 . S
H819 C833 0.961 . S
H820 C834 0.960 . S
H821 C834 0.961 . S
H822 C834 0.959 . S
H823 C837 0.929 . S
H824 C838 0.931 . S
H825 C840 0.930 . S
C826 H814 0.930 . S
C826 C827 1.399 . S
C826 C831 1.399 . S
C827 C826 1.399 . S
C827 C828 1.376 . S
C828 H815 0.934 . S
C828 C827 1.376 . S
C828 C829 1.388 . S
C829 H816 0.930 . S
C829 C828 1.388 . S
C829 C830 1.390 . S
C830 C829 1.390 . S
C830 C831 1.394 . S
C830 C836 1.465 . S
C831 C826 1.399 . S
C831 C830 1.394 . S
C831 C832 1.516 . S
C832 C831 1.516 . S
C832 C833 1.502 . S
C832 C834 1.561 1_655 S
C832 C835 1.526 . S
C833 H817 0.959 . S
C833 H818 0.959 . S
C833 H819 0.961 . S
C833 C832 1.502 . S
C834 H820 0.960 . S
C834 H821 0.961 . S
C834 H822 0.959 . S
C834 C832 1.561 1_455 S
C835 C832 1.526 . S
C835 C836 1.396 . S
C835 C840 1.390 . S
C836 C830 1.465 . S
C836 C835 1.396 . S
C836 C837 1.399 . S
C837 H823 0.929 . S
C837 C836 1.399 . S
C837 C838 1.385 . S
C838 H824 0.931 . S
C838 C837 1.385 . S
C838 C839 1.389 . S
C839 C838 1.389 . S
C839 C840 1.387 . S
C840 H825 0.930 . S
C840 C835 1.390 . S
C840 C839 1.387 . S
H841 C853 0.930 . S
H842 C855 0.930 . S
H843 C856 0.930 . S
H844 C860 0.959 . S
H845 C860 0.959 . S
H846 C860 0.961 . S
H847 C861 0.960 . S
H848 C861 0.961 . S
H849 C861 0.959 . S
H850 C864 0.929 . S
H851 C865 0.931 . S
H852 C867 0.930 . S
C853 H841 0.930 . S
C853 C854 1.399 1_545 S
C853 C858 1.399 . S
C854 C853 1.399 1_565 S
C854 C855 1.376 . S
C855 H842 0.930 . S
C855 C854 1.376 . S
C855 C856 1.388 . S
C856 H843 0.930 . S
C856 C855 1.388 . S
C856 C857 1.390 . S
C857 C856 1.390 . S
C857 C858 1.394 1_565 S
C857 C863 1.465 . S
C858 C853 1.399 . S
C858 C857 1.394 1_545 S
C858 C859 1.516 . S
C859 C858 1.516 . S
C859 C860 1.502 . S
C859 C861 1.561 . S
C859 C862 1.526 . S
C860 H844 0.959 . S
C860 H845 0.959 . S
C860 H846 0.961 . S
C860 C859 1.502 . S
C861 H847 0.960 . S
C861 H848 0.961 . S
C861 H849 0.959 . S
C861 C859 1.561 . S
C862 C859 1.526 . S
C862 C863 1.396 1_545 S
C862 C867 1.390 . S
C863 C857 1.465 . S
C863 C862 1.396 1_565 S
C863 C864 1.399 . S
C864 H850 0.929 . S
C864 C863 1.399 . S
C864 C865 1.385 . S
C865 H851 0.931 . S
C865 C864 1.385 . S
C865 C866 1.389 . S
C866 C865 1.389 . S
C866 C867 1.387 1_565 S
C867 H852 0.930 . S
C867 C862 1.390 . S
C867 C866 1.387 1_545 S
H868 C880 0.930 1_655 S
H869 C882 0.930 . S
H870 C883 0.930 . S
H871 C887 0.959 . S
H872 C887 0.959 . S
H873 C887 0.961 . S
H874 C888 0.960 . S
H875 C888 0.961 . S
H876 C888 0.959 . S
H877 C891 0.929 . S
H878 C892 0.931 . S
H879 C894 0.930 1_655 S
C880 H868 0.930 1_455 S
C880 C881 1.399 . S
C880 C885 1.399 . S
C881 C880 1.399 . S
C881 C882 1.376 . S
C882 H869 0.930 . S
C882 C881 1.376 . S
C882 C883 1.388 . S
C883 H870 0.930 . S
C883 C882 1.388 . S
C883 C884 1.390 . S
C884 C883 1.390 . S
C884 C885 1.394 . S
C884 C890 1.465 . S
C885 C880 1.399 . S
C885 C884 1.394 . S
C885 C886 1.516 . S
C886 C885 1.516 . S
C886 C887 1.502 1_455 S
C886 C888 1.561 . S
C886 C889 1.526 . S
C887 H871 0.959 . S
C887 H872 0.959 . S
C887 H873 0.961 . S
C887 C886 1.502 1_655 S
C888 H874 0.960 . S
C888 H875 0.961 . S
C888 H876 0.959 . S
C888 C886 1.561 . S
C889 C886 1.526 . S
C889 C890 1.396 . S
C889 C894 1.390 . S
C890 C884 1.465 . S
C890 C889 1.396 . S
C890 C891 1.399 . S
C891 H877 0.929 . S
C891 C890 1.399 . S
C891 C892 1.385 . S
C892 H878 0.931 . S
C892 C891 1.385 . S
C892 C893 1.389 . S
C893 C892 1.389 . S
C893 C894 1.387 . S
C894 H879 0.930 1_455 S
C894 C889 1.390 . S
C894 C893 1.387 . S
H895 C907 0.930 . S
H896 C909 0.930 . S
H897 C910 0.930 . S
H898 C914 0.959 . S
H899 C914 0.959 . S
H900 C914 0.961 . S
H901 C915 0.960 . S
H902 C915 0.961 . S
H903 C915 0.959 . S
H904 C918 0.929 . S
H905 C919 0.931 . S
H906 C921 0.930 . S
C907 H895 0.930 . S
C907 C908 1.399 1_565 S
C907 C912 1.399 . S
C908 C907 1.399 1_545 S
C908 C909 1.376 . S
C909 H896 0.930 . S
C909 C908 1.376 . S
C909 C910 1.388 . S
C910 H897 0.930 . S
C910 C909 1.388 . S
C910 C911 1.390 . S
C911 C910 1.390 . S
C911 C912 1.394 1_545 S
C911 C917 1.465 . S
C912 C907 1.399 . S
C912 C911 1.394 1_565 S
C912 C913 1.516 . S
C913 C912 1.516 . S
C913 C914 1.502 . S
C913 C915 1.561 . S
C913 C916 1.526 . S
C914 H898 0.959 . S
C914 H899 0.959 . S
C914 H900 0.961 . S
C914 C913 1.502 . S
C915 H901 0.960 . S
C915 H902 0.961 . S
C915 H903 0.959 . S
C915 C913 1.561 . S
C916 C913 1.526 . S
C916 C917 1.396 1_565 S
C916 C921 1.390 . S
C917 C911 1.465 . S
C917 C916 1.396 1_545 S
C917 C918 1.399 . S
C918 H904 0.929 . S
C918 C917 1.399 . S
C918 C919 1.385 . S
C919 H905 0.931 . S
C919 C918 1.385 . S
C919 C920 1.389 . S
C920 C919 1.389 . S
C920 C921 1.387 1_545 S
C921 H906 0.930 . S
C921 C916 1.390 . S
C921 C920 1.387 1_565 S
H922 C934 0.930 . S
H923 C936 0.930 . S
H924 C937 0.930 . S
H925 C941 0.959 . S
H926 C941 0.959 . S
H927 C941 0.961 . S
H928 C942 0.960 . S
H929 C942 0.961 . S
H930 C942 0.959 . S
H931 C945 0.929 . S
H932 C946 0.931 . S
H933 C948 0.930 . S
C934 H922 0.930 . S
C934 C935 1.399 . S
C934 C939 1.399 . S
C935 C934 1.399 . S
C935 C936 1.376 . S
C936 H923 0.930 . S
C936 C935 1.376 . S
C936 C937 1.388 . S
C937 H924 0.930 . S
C937 C936 1.388 . S
C937 C938 1.390 . S
C938 C937 1.390 . S
C938 C939 1.394 . S
C938 C944 1.465 . S
C939 C934 1.399 . S
C939 C938 1.394 . S
C939 C940 1.516 . S
C940 C939 1.516 . S
C940 C941 1.502 . S
C940 C942 1.561 . S
C940 C943 1.526 . S
C941 H925 0.959 . S
C941 H926 0.959 . S
C941 H927 0.961 . S
C941 C940 1.502 . S
C942 H928 0.960 . S
C942 H929 0.961 . S
C942 H930 0.959 . S
C942 C940 1.561 . S
C943 C940 1.526 . S
C943 C944 1.396 . S
C943 C948 1.390 . S
C944 C938 1.465 . S
C944 C943 1.396 . S
C944 C945 1.399 . S
C945 H931 0.929 . S
C945 C944 1.399 . S
C945 C946 1.385 . S
C946 H932 0.931 . S
C946 C945 1.385 . S
C946 C947 1.389 . S
C947 C946 1.389 . S
C947 C948 1.387 . S
C948 H933 0.930 . S
C948 C943 1.390 . S
C948 C947 1.387 . S
H949 C961 0.930 . S
H950 C963 0.930 . S
H951 C964 0.930 . S
H952 C968 0.959 . S
H953 C968 0.959 . S
H954 C968 0.961 . S
H955 C969 0.960 . S
H956 C969 0.961 . S
H957 C969 0.959 . S
H958 C972 0.929 . S
H959 C973 0.931 . S
H960 C975 0.930 . S
C961 H949 0.930 . S
C961 C962 1.399 . S
C961 C966 1.399 . S
C962 C961 1.399 . S
C962 C963 1.376 . S
C963 H950 0.930 . S
C963 C962 1.376 . S
C963 C964 1.388 . S
C964 H951 0.930 . S
C964 C963 1.388 . S
C964 C965 1.390 . S
C965 C964 1.390 . S
C965 C966 1.394 . S
C965 C971 1.465 . S
C966 C961 1.399 . S
C966 C965 1.394 . S
C966 C967 1.516 . S
C967 C966 1.516 . S
C967 C968 1.502 . S
C967 C969 1.561 . S
C967 C970 1.526 . S
C968 H952 0.959 . S
C968 H953 0.959 . S
C968 H954 0.961 . S
C968 C967 1.502 . S
C969 H955 0.960 . S
C969 H956 0.961 . S
C969 H957 0.959 . S
C969 C967 1.561 . S
C970 C967 1.526 . S
C970 C971 1.396 . S
C970 C975 1.390 . S
C971 C965 1.465 . S
C971 C970 1.396 . S
C971 C972 1.399 . S
C972 H958 0.929 . S
C972 C971 1.399 . S
C972 C973 1.385 . S
C973 H959 0.931 . S
C973 C972 1.385 . S
C973 C974 1.389 . S
C974 C973 1.389 . S
C974 C975 1.387 . S
C975 H960 0.930 . S
C975 C970 1.390 . S
C975 C974 1.387 . S
H976 C988 0.930 . S
H977 C990 0.930 . S
H978 C991 0.930 . S
H979 C995 0.959 . S
H980 C995 0.959 . S
H981 C995 0.961 . S
H982 C996 0.960 . S
H983 C996 0.961 . S
H984 C996 0.959 . S
H985 C999 0.929 . S
H986 C1000 0.931 . S
H987 C1002 0.930 . S
C988 H976 0.930 . S
C988 C989 1.399 . S
C988 C993 1.399 . S
C989 C988 1.399 . S
C989 C990 1.376 . S
C990 H977 0.930 . S
C990 C989 1.376 . S
C990 C991 1.388 . S
C991 H978 0.930 . S
C991 C990 1.388 . S
C991 C992 1.390 . S
C992 C991 1.390 . S
C992 C993 1.394 . S
C992 C998 1.465 . S
C993 C988 1.399 . S
C993 C992 1.394 . S
C993 C994 1.516 . S
C994 C993 1.516 . S
C994 C995 1.502 . S
C994 C996 1.561 . S
C994 C997 1.526 . S
C995 H979 0.959 . S
C995 H980 0.959 . S
C995 H981 0.961 . S
C995 C994 1.502 . S
C996 H982 0.960 . S
C996 H983 0.961 . S
C996 H984 0.959 . S
C996 C994 1.561 . S
C997 C994 1.526 . S
C997 C998 1.396 . S
C997 C1002 1.390 . S
C998 C992 1.465 . S
C998 C997 1.396 . S
C998 C999 1.399 . S
C999 H985 0.929 . S
C999 C998 1.399 . S
C999 C1000 1.385 . S
C1000 H986 0.931 . S
C1000 C999 1.385 . S
C1000 C1001 1.389 . S
C1001 C1000 1.389 . S
C1001 C1002 1.387 . S
C1002 H987 0.930 . S
C1002 C997 1.390 . S
C1002 C1001 1.387 . S
H1003 C1015 0.930 . S
H1004 C1017 0.930 . S
H1005 C1018 0.930 . S
H1006 C1022 0.959 . S
H1007 C1022 0.959 . S
H1008 C1022 0.961 . S
H1009 C1023 0.960 . S
H1010 C1023 0.961 . S
H1011 C1023 0.959 . S
H1012 C1026 0.929 . S
H1013 C1027 0.931 . S
H1014 C1029 0.930 . S
C1015 H1003 0.930 . S
C1015 C1016 1.399 . S
C1015 C1020 1.399 . S
C1016 C1015 1.399 . S
C1016 C1017 1.376 . S
C1017 H1004 0.930 . S
C1017 C1016 1.376 . S
C1017 C1018 1.388 . S
C1018 H1005 0.930 . S
C1018 C1017 1.388 . S
C1018 C1019 1.390 . S
C1019 C1018 1.390 . S
C1019 C1020 1.394 . S
C1019 C1025 1.465 . S
C1020 C1015 1.399 . S
C1020 C1019 1.394 . S
C1020 C1021 1.516 . S
C1021 C1020 1.516 . S
C1021 C1022 1.502 . S
C1021 C1023 1.561 . S
C1021 C1024 1.526 . S
C1022 H1006 0.959 . S
C1022 H1007 0.959 . S
C1022 H1008 0.961 . S
C1022 C1021 1.502 . S
C1023 H1009 0.960 . S
C1023 H1010 0.961 . S
C1023 H1011 0.959 . S
C1023 C1021 1.561 . S
C1024 C1021 1.526 . S
C1024 C1025 1.396 . S
C1024 C1029 1.390 . S
C1025 C1019 1.465 . S
C1025 C1024 1.396 . S
C1025 C1026 1.399 . S
C1026 H1012 0.929 . S
C1026 C1025 1.399 . S
C1026 C1027 1.385 . S
C1027 H1013 0.931 . S
C1027 C1026 1.385 . S
C1027 C1028 1.389 . S
C1028 C1027 1.389 . S
C1028 C1029 1.387 . S
C1029 H1014 0.930 . S
C1029 C1024 1.390 . S
C1029 C1028 1.387 . S
H1030 C1042 0.930 . S
H1031 C1044 0.930 . S
H1032 C1045 0.930 . S
H1033 C1049 0.959 . S
H1034 C1049 0.959 . S
H1035 C1049 0.961 . S
H1036 C1050 0.960 . S
H1037 C1050 0.961 . S
H1038 C1050 0.959 . S
H1039 C1053 0.929 . S
H1040 C1054 0.931 . S
H1041 C1056 0.930 1_655 S
C1042 H1030 0.930 . S
C1042 C1043 1.399 1_655 S
C1042 C1047 1.399 1_655 S
C1043 C1042 1.399 1_455 S
C1043 C1044 1.376 . S
C1044 H1031 0.930 . S
C1044 C1043 1.376 . S
C1044 C1045 1.388 . S
C1045 H1032 0.930 . S
C1045 C1044 1.388 . S
C1045 C1046 1.390 . S
C1046 C1045 1.390 . S
C1046 C1047 1.394 . S
C1046 C1052 1.465 . S
C1047 C1042 1.399 1_455 S
C1047 C1046 1.394 . S
C1047 C1048 1.516 1_455 S
C1048 C1047 1.516 1_655 S
C1048 C1049 1.502 . S
C1048 C1050 1.561 1_655 S
C1048 C1051 1.526 1_655 S
C1049 H1033 0.959 . S
C1049 H1034 0.959 . S
C1049 H1035 0.961 . S
C1049 C1048 1.502 . S
C1050 H1036 0.960 . S
C1050 H1037 0.961 . S
C1050 H1038 0.959 . S
C1050 C1048 1.561 1_455 S
C1051 C1048 1.526 1_455 S
C1051 C1052 1.396 . S
C1051 C1056 1.390 . S
C1052 C1046 1.465 . S
C1052 C1051 1.396 . S
C1052 C1053 1.399 . S
C1053 H1039 0.929 . S
C1053 C1052 1.399 . S
C1053 C1054 1.385 . S
C1054 H1040 0.931 . S
C1054 C1053 1.385 . S
C1054 C1055 1.389 . S
C1055 C1054 1.389 . S
C1055 C1056 1.387 . S
C1056 H1041 0.930 1_455 S
C1056 C1051 1.390 . S
C1056 C1055 1.387 . S
H1057 C1069 0.930 . S
H1058 C1071 0.930 . S
H1059 C1072 0.930 . S
H1060 C1076 0.959 . S
H1061 C1076 0.959 . S
H1062 C1076 0.961 . S
H1063 C1077 0.960 . S
H1064 C1077 0.961 . S
H1065 C1077 0.959 . S
H1066 C1080 0.929 . S
H1067 C1081 0.931 . S
H1068 C1083 0.930 . S
C1069 H1057 0.930 . S
C1069 C1070 1.399 1_565 S
C1069 C1074 1.399 . S
C1070 C1069 1.399 1_545 S
C1070 C1071 1.376 . S
C1071 H1058 0.930 . S
C1071 C1070 1.376 . S
C1071 C1072 1.388 . S
C1072 H1059 0.930 . S
C1072 C1071 1.388 . S
C1072 C1073 1.390 . S
C1073 C1072 1.390 . S
C1073 C1074 1.394 1_545 S
C1073 C1079 1.465 . S
C1074 C1069 1.399 . S
C1074 C1073 1.394 1_565 S
C1074 C1075 1.516 . S
C1075 C1074 1.516 . S
C1075 C1076 1.502 . S
C1075 C1077 1.561 . S
C1075 C1078 1.526 . S
C1076 H1060 0.959 . S
C1076 H1061 0.959 . S
C1076 H1062 0.961 . S
C1076 C1075 1.502 . S
C1077 H1063 0.960 . S
C1077 H1064 0.961 . S
C1077 H1065 0.959 . S
C1077 C1075 1.561 . S
C1078 C1075 1.526 . S
C1078 C1079 1.396 1_565 S
C1078 C1083 1.390 . S
C1079 C1073 1.465 . S
C1079 C1078 1.396 1_545 S
C1079 C1080 1.399 . S
C1080 H1066 0.929 . S
C1080 C1079 1.399 . S
C1080 C1081 1.385 . S
C1081 H1067 0.931 . S
C1081 C1080 1.385 . S
C1081 C1082 1.389 . S
C1082 C1081 1.389 . S
C1082 C1083 1.387 1_545 S
C1083 H1068 0.930 . S
C1083 C1078 1.390 . S
C1083 C1082 1.387 1_565 S
H1084 C1096 0.914 1_455 S
H1085 C1098 0.930 . S
H1086 C1099 0.930 . S
H1087 C1103 0.959 . S
H1088 C1103 0.959 . S
H1089 C1103 0.961 . S
H1090 C1104 0.960 . S
H1091 C1104 0.961 . S
H1092 C1104 0.959 . S
H1093 C1107 0.929 . S
H1094 C1108 0.931 . S
H1095 C1110 0.930 1_455 S
C1096 H1084 0.914 1_655 S
C1096 C1097 1.410 . S
C1096 C1101 1.405 . S
C1097 C1096 1.410 . S
C1097 C1098 1.376 . S
C1098 H1085 0.930 . S
C1098 C1097 1.376 . S
C1098 C1099 1.388 . S
C1099 H1086 0.930 . S
C1099 C1098 1.388 . S
C1099 C1100 1.390 . S
C1100 C1099 1.390 . S
C1100 C1101 1.394 . S
C1100 C1106 1.465 . S
C1101 C1096 1.405 . S
C1101 C1100 1.394 . S
C1101 C1102 1.516 1_655 S
C1102 C1101 1.516 1_455 S
C1102 C1103 1.502 . S
C1102 C1104 1.561 1_455 S
C1102 C1105 1.526 1_455 S
C1103 H1087 0.959 . S
C1103 H1088 0.959 . S
C1103 H1089 0.961 . S
C1103 C1102 1.502 . S
C1104 H1090 0.960 . S
C1104 H1091 0.961 . S
C1104 H1092 0.959 . S
C1104 C1102 1.561 1_655 S
C1105 C1102 1.526 1_655 S
C1105 C1106 1.396 . S
C1105 C1110 1.390 . S
C1106 C1100 1.465 . S
C1106 C1105 1.396 . S
C1106 C1107 1.399 . S
C1107 H1093 0.929 . S
C1107 C1106 1.399 . S
C1107 C1108 1.385 . S
C1108 H1094 0.931 . S
C1108 C1107 1.385 . S
C1108 C1109 1.389 . S
C1109 C1108 1.389 . S
C1109 C1110 1.387 . S
C1110 H1095 0.930 1_655 S
C1110 C1105 1.390 . S
C1110 C1109 1.387 . S
H1111 C1123 0.930 . S
H1112 C1125 0.930 . S
H1113 C1126 0.930 . S
H1114 C1130 0.959 . S
H1115 C1130 0.959 . S
H1116 C1130 0.961 . S
H1117 C1131 0.960 . S
H1118 C1131 0.961 . S
H1119 C1131 0.959 . S
H1120 C1134 0.929 . S
H1121 C1135 0.931 . S
H1122 C1137 0.930 1_545 S
C1123 H1111 0.930 . S
C1123 C1124 1.399 . S
C1123 C1128 1.399 . S
C1124 C1123 1.399 . S
C1124 C1125 1.376 . S
C1125 H1112 0.930 . S
C1125 C1124 1.376 . S
C1125 C1126 1.388 . S
C1126 H1113 0.930 . S
C1126 C1125 1.388 . S
C1126 C1127 1.390 . S
C1127 C1126 1.390 . S
C1127 C1128 1.394 . S
C1127 C1133 1.465 . S
C1128 C1123 1.399 . S
C1128 C1127 1.394 . S
C1128 C1129 1.516 . S
C1129 C1128 1.516 . S
C1129 C1130 1.502 1_565 S
C1129 C1131 1.561 . S
C1129 C1132 1.526 . S
C1130 H1114 0.959 . S
C1130 H1115 0.959 . S
C1130 H1116 0.961 . S
C1130 C1129 1.502 1_545 S
C1131 H1117 0.960 . S
C1131 H1118 0.961 . S
C1131 H1119 0.959 . S
C1131 C1129 1.561 . S
C1132 C1129 1.526 . S
C1132 C1133 1.396 . S
C1132 C1137 1.390 . S
C1133 C1127 1.465 . S
C1133 C1132 1.396 . S
C1133 C1134 1.399 . S
C1134 H1120 0.929 . S
C1134 C1133 1.399 . S
C1134 C1135 1.385 . S
C1135 H1121 0.931 . S
C1135 C1134 1.385 . S
C1135 C1136 1.389 . S
C1136 C1135 1.389 . S
C1136 C1137 1.387 . S
C1137 H1122 0.930 1_565 S
C1137 C1132 1.390 . S
C1137 C1136 1.387 . S
H1138 C1150 0.930 . S
H1139 C1152 0.930 . S
H1140 C1153 0.930 . S
H1141 C1157 0.959 . S
H1142 C1157 0.959 . S
H1143 C1157 0.961 . S
H1144 C1158 0.960 . S
H1145 C1158 0.961 . S
H1146 C1158 0.959 . S
H1147 C1161 0.929 . S
H1148 C1162 0.931 . S
H1149 C1164 0.930 . S
C1150 H1138 0.930 . S
C1150 C1151 1.399 . S
C1150 C1155 1.399 . S
C1151 C1150 1.399 . S
C1151 C1152 1.376 . S
C1152 H1139 0.930 . S
C1152 C1151 1.376 . S
C1152 C1153 1.388 . S
C1153 H1140 0.930 . S
C1153 C1152 1.388 . S
C1153 C1154 1.390 . S
C1154 C1153 1.390 . S
C1154 C1155 1.394 . S
C1154 C1160 1.465 . S
C1155 C1150 1.399 . S
C1155 C1154 1.394 . S
C1155 C1156 1.516 . S
C1156 C1155 1.516 . S
C1156 C1157 1.502 . S
C1156 C1158 1.561 . S
C1156 C1159 1.526 . S
C1157 H1141 0.959 . S
C1157 H1142 0.959 . S
C1157 H1143 0.961 . S
C1157 C1156 1.502 . S
C1158 H1144 0.960 . S
C1158 H1145 0.961 . S
C1158 H1146 0.959 . S
C1158 C1156 1.561 . S
C1159 C1156 1.526 . S
C1159 C1160 1.396 . S
C1159 C1164 1.390 . S
C1160 C1154 1.465 . S
C1160 C1159 1.396 . S
C1160 C1161 1.399 . S
C1161 H1147 0.929 . S
C1161 C1160 1.399 . S
C1161 C1162 1.385 . S
C1162 H1148 0.931 . S
C1162 C1161 1.385 . S
C1162 C1163 1.389 . S
C1163 C1162 1.389 . S
C1163 C1164 1.387 . S
C1164 H1149 0.930 . S
C1164 C1159 1.390 . S
C1164 C1163 1.387 . S
H1165 C1177 0.930 . S
H1166 C1179 0.930 . S
H1167 C1180 0.930 . S
H1168 C1184 0.959 . S
H1169 C1184 0.959 . S
H1170 C1184 0.961 . S
H1171 C1185 0.960 . S
H1172 C1185 0.961 . S
H1173 C1185 0.959 . S
H1174 C1188 0.929 . S
H1175 C1189 0.931 . S
H1176 C1191 0.930 . S
C1177 H1165 0.930 . S
C1177 C1178 1.399 . S
C1177 C1182 1.399 . S
C1178 C1177 1.399 . S
C1178 C1179 1.376 . S
C1179 H1166 0.930 . S
C1179 C1178 1.376 . S
C1179 C1180 1.388 . S
C1180 H1167 0.930 . S
C1180 C1179 1.388 . S
C1180 C1181 1.390 . S
C1181 C1180 1.390 . S
C1181 C1182 1.394 . S
C1181 C1187 1.465 . S
C1182 C1177 1.399 . S
C1182 C1181 1.394 . S
C1182 C1183 1.516 . S
C1183 C1182 1.516 . S
C1183 C1184 1.502 . S
C1183 C1185 1.561 . S
C1183 C1186 1.526 . S
C1184 H1168 0.959 . S
C1184 H1169 0.959 . S
C1184 H1170 0.961 . S
C1184 C1183 1.502 . S
C1185 H1171 0.960 . S
C1185 H1172 0.961 . S
C1185 H1173 0.959 . S
C1185 C1183 1.561 . S
C1186 C1183 1.526 . S
C1186 C1187 1.396 . S
C1186 C1191 1.390 . S
C1187 C1181 1.465 . S
C1187 C1186 1.396 . S
C1187 C1188 1.399 . S
C1188 H1174 0.929 . S
C1188 C1187 1.399 . S
C1188 C1189 1.385 . S
C1189 H1175 0.931 . S
C1189 C1188 1.385 . S
C1189 C1190 1.389 . S
C1190 C1189 1.389 . S
C1190 C1191 1.387 . S
C1191 H1176 0.930 . S
C1191 C1186 1.390 . S
C1191 C1190 1.387 . S
H1192 C1204 0.930 . S
H1193 C1206 0.930 . S
H1194 C1207 0.930 . S
H1195 C1211 0.959 . S
H1196 C1211 0.959 . S
H1197 C1211 0.961 . S
H1198 C1212 0.960 . S
H1199 C1212 0.961 . S
H1200 C1212 0.959 . S
H1201 C1215 0.929 . S
H1202 C1216 0.931 . S
H1203 C1218 0.930 . S
C1204 H1192 0.930 . S
C1204 C1205 1.399 . S
C1204 C1209 1.399 . S
C1205 C1204 1.399 . S
C1205 C1206 1.376 . S
C1206 H1193 0.930 . S
C1206 C1205 1.376 . S
C1206 C1207 1.388 . S
C1207 H1194 0.930 . S
C1207 C1206 1.388 . S
C1207 C1208 1.390 . S
C1208 C1207 1.390 . S
C1208 C1209 1.394 . S
C1208 C1214 1.465 . S
C1209 C1204 1.399 . S
C1209 C1208 1.394 . S
C1209 C1210 1.516 . S
C1210 C1209 1.516 . S
C1210 C1211 1.502 . S
C1210 C1212 1.561 . S
C1210 C1213 1.526 . S
C1211 H1195 0.959 . S
C1211 H1196 0.959 . S
C1211 H1197 0.961 . S
C1211 C1210 1.502 . S
C1212 H1198 0.960 . S
C1212 H1199 0.961 . S
C1212 H1200 0.959 . S
C1212 C1210 1.561 . S
C1213 C1210 1.526 . S
C1213 C1214 1.396 . S
C1213 C1218 1.390 . S
C1214 C1208 1.465 . S
C1214 C1213 1.396 . S
C1214 C1215 1.399 . S
C1215 H1201 0.929 . S
C1215 C1214 1.399 . S
C1215 C1216 1.385 . S
C1216 H1202 0.931 . S
C1216 C1215 1.385 . S
C1216 C1217 1.389 . S
C1217 C1216 1.389 . S
C1217 C1218 1.387 . S
C1218 H1203 0.930 . S
C1218 C1213 1.390 . S
C1218 C1217 1.387 . S
H1219 C1231 0.930 . S
H1220 C1233 0.930 . S
H1221 C1234 0.930 . S
H1222 C1238 0.959 . S
H1223 C1238 0.959 . S
H1224 C1238 0.961 . S
H1225 C1239 0.960 . S
H1226 C1239 0.961 . S
H1227 C1239 0.959 . S
H1228 C1242 0.929 . S
H1229 C1243 0.931 . S
H1230 C1245 0.930 . S
C1231 H1219 0.930 . S
C1231 C1232 1.399 . S
C1231 C1236 1.399 . S
C1232 C1231 1.399 . S
C1232 C1233 1.376 . S
C1233 H1220 0.930 . S
C1233 C1232 1.376 . S
C1233 C1234 1.388 . S
C1234 H1221 0.930 . S
C1234 C1233 1.388 . S
C1234 C1235 1.390 . S
C1235 C1234 1.390 . S
C1235 C1236 1.394 . S
C1235 C1241 1.465 . S
C1236 C1231 1.399 . S
C1236 C1235 1.394 . S
C1236 C1237 1.516 . S
C1237 C1236 1.516 . S
C1237 C1238 1.502 . S
C1237 C1239 1.561 . S
C1237 C1240 1.526 . S
C1238 H1222 0.959 . S
C1238 H1223 0.959 . S
C1238 H1224 0.961 . S
C1238 C1237 1.502 . S
C1239 H1225 0.960 . S
C1239 H1226 0.961 . S
C1239 H1227 0.959 . S
C1239 C1237 1.561 . S
C1240 C1237 1.526 . S
C1240 C1241 1.396 . S
C1240 C1245 1.390 . S
C1241 C1235 1.465 . S
C1241 C1240 1.396 . S
C1241 C1242 1.399 . S
C1242 H1228 0.929 . S
C1242 C1241 1.399 . S
C1242 C1243 1.385 . S
C1243 H1229 0.931 . S
C1243 C1242 1.385 . S
C1243 C1244 1.389 . S
C1244 C1243 1.389 . S
C1244 C1245 1.387 . S
C1245 H1230 0.930 . S
C1245 C1240 1.390 . S
C1245 C1244 1.387 . S
H1246 C1258 0.930 . S
H1247 C1260 0.930 . S
H1248 C1261 0.930 . S
H1249 C1265 0.959 . S
H1250 C1265 0.959 . S
H1251 C1265 0.961 . S
H1252 C1266 0.960 . S
H1253 C1266 0.961 . S
H1254 C1266 0.959 . S
H1255 C1269 0.929 . S
H1256 C1270 0.931 . S
H1257 C1272 0.930 . S
C1258 H1246 0.930 . S
C1258 C1259 1.399 . S
C1258 C1263 1.399 . S
C1259 C1258 1.399 . S
C1259 C1260 1.376 . S
C1260 H1247 0.930 . S
C1260 C1259 1.376 . S
C1260 C1261 1.388 . S
C1261 H1248 0.930 . S
C1261 C1260 1.388 . S
C1261 C1262 1.390 . S
C1262 C1261 1.390 . S
C1262 C1263 1.394 . S
C1262 C1268 1.465 . S
C1263 C1258 1.399 . S
C1263 C1262 1.394 . S
C1263 C1264 1.516 . S
C1264 C1263 1.516 . S
C1264 C1265 1.502 . S
C1264 C1266 1.561 . S
C1264 C1267 1.526 . S
C1265 H1249 0.959 . S
C1265 H1250 0.959 . S
C1265 H1251 0.961 . S
C1265 C1264 1.502 . S
C1266 H1252 0.960 . S
C1266 H1253 0.961 . S
C1266 H1254 0.959 . S
C1266 C1264 1.561 . S
C1267 C1264 1.526 . S
C1267 C1268 1.396 . S
C1267 C1272 1.390 . S
C1268 C1262 1.465 . S
C1268 C1267 1.396 . S
C1268 C1269 1.399 . S
C1269 H1255 0.929 . S
C1269 C1268 1.399 . S
C1269 C1270 1.385 . S
C1270 H1256 0.931 . S
C1270 C1269 1.385 . S
C1270 C1271 1.389 . S
C1271 C1270 1.389 . S
C1271 C1272 1.387 . S
C1272 H1257 0.930 . S
C1272 C1267 1.390 . S
C1272 C1271 1.387 . S
H1273 C1285 0.930 . S
H1274 C1287 0.930 . S
H1275 C1288 0.930 . S
H1276 C1292 0.959 . S
H1277 C1292 0.959 . S
H1278 C1292 0.961 . S
H1279 C1293 0.960 . S
H1280 C1293 0.961 . S
H1281 C1293 0.959 . S
H1282 C1296 0.929 . S
H1283 C1297 0.931 . S
H1284 C1299 0.930 . S
C1285 H1273 0.930 . S
C1285 C1286 1.399 . S
C1285 C1290 1.399 . S
C1286 C1285 1.399 . S
C1286 C1287 1.376 . S
C1287 H1274 0.930 . S
C1287 C1286 1.376 . S
C1287 C1288 1.388 . S
C1288 H1275 0.930 . S
C1288 C1287 1.388 . S
C1288 C1289 1.390 . S
C1289 C1288 1.390 . S
C1289 C1290 1.394 . S
C1289 C1295 1.465 . S
C1290 C1285 1.399 . S
C1290 C1289 1.394 . S
C1290 C1291 1.516 . S
C1291 C1290 1.516 . S
C1291 C1292 1.502 . S
C1291 C1293 1.561 . S
C1291 C1294 1.526 . S
C1292 H1276 0.959 . S
C1292 H1277 0.959 . S
C1292 H1278 0.961 . S
C1292 C1291 1.502 . S
C1293 H1279 0.960 . S
C1293 H1280 0.961 . S
C1293 H1281 0.959 . S
C1293 C1291 1.561 . S
C1294 C1291 1.526 . S
C1294 C1295 1.396 . S
C1294 C1299 1.390 . S
C1295 C1289 1.465 . S
C1295 C1294 1.396 . S
C1295 C1296 1.399 . S
C1296 H1282 0.929 . S
C1296 C1295 1.399 . S
C1296 C1297 1.385 . S
C1297 H1283 0.931 . S
C1297 C1296 1.385 . S
C1297 C1298 1.389 . S
C1298 C1297 1.389 . S
C1298 C1299 1.387 . S
C1299 H1284 0.930 . S
C1299 C1294 1.390 . S
C1299 C1298 1.387 . S
H1300 C1312 0.930 . S
H1301 C1314 0.930 . S
H1302 C1315 0.930 . S
H1303 C1319 0.959 . S
H1304 C1319 0.959 1_554 S
H1305 C1319 0.961 . S
H1306 C1320 0.960 . S
H1307 C1320 0.961 . S
H1308 C1320 0.959 . S
H1309 C1323 0.929 . S
H1310 C1324 0.931 . S
H1311 C1326 0.930 . S
C1312 H1300 0.930 . S
C1312 C1313 1.399 . S
C1312 C1317 1.399 . S
C1313 C1312 1.399 . S
C1313 C1314 1.376 . S
C1314 H1301 0.930 . S
C1314 C1313 1.376 . S
C1314 C1315 1.388 . S
C1315 H1302 0.930 . S
C1315 C1314 1.388 . S
C1315 C1316 1.390 1_556 S
C1316 C1315 1.390 1_554 S
C1316 C1317 1.394 1_554 S
C1316 C1322 1.465 . S
C1317 C1312 1.399 . S
C1317 C1316 1.394 1_556 S
C1317 C1318 1.516 1_556 S
C1318 C1317 1.516 1_554 S
C1318 C1319 1.502 1_554 S
C1318 C1320 1.561 . S
C1318 C1321 1.526 . S
C1319 H1303 0.959 . S
C1319 H1304 0.959 1_556 S
C1319 H1305 0.961 . S
C1319 C1318 1.502 1_556 S
C1320 H1306 0.960 . S
C1320 H1307 0.961 . S
C1320 H1308 0.959 . S
C1320 C1318 1.561 . S
C1321 C1318 1.526 . S
C1321 C1322 1.396 . S
C1321 C1326 1.390 . S
C1322 C1316 1.465 . S
C1322 C1321 1.396 . S
C1322 C1323 1.399 . S
C1323 H1309 0.929 . S
C1323 C1322 1.399 . S
C1323 C1324 1.385 . S
C1324 H1310 0.931 . S
C1324 C1323 1.385 . S
C1324 C1325 1.389 . S
C1325 C1324 1.389 . S
C1325 C1326 1.387 . S
C1326 H1311 0.930 . S
C1326 C1321 1.390 . S
C1326 C1325 1.387 . S
H1327 C1339 0.930 . S
H1328 C1341 0.930 . S
H1329 C1342 0.930 . S
H1330 C1346 0.959 . S
H1331 C1346 0.959 1_556 S
H1332 C1346 0.961 . S
H1333 C1347 0.960 . S
H1334 C1347 0.961 . S
H1335 C1347 0.959 . S
H1336 C1350 0.929 1_554 S
H1337 C1351 0.931 . S
H1338 C1353 0.930 . S
C1339 H1327 0.930 . S
C1339 C1340 1.399 . S
C1339 C1344 1.399 . S
C1340 C1339 1.399 . S
C1340 C1341 1.376 . S
C1341 H1328 0.930 . S
C1341 C1340 1.376 . S
C1341 C1342 1.388 . S
C1342 H1329 0.930 . S
C1342 C1341 1.388 . S
C1342 C1343 1.390 . S
C1343 C1342 1.390 . S
C1343 C1344 1.394 . S
C1343 C1349 1.465 . S
C1344 C1339 1.399 . S
C1344 C1343 1.394 . S
C1344 C1345 1.516 1_554 S
C1345 C1344 1.516 1_556 S
C1345 C1346 1.502 1_556 S
C1345 C1347 1.561 . S
C1345 C1348 1.526 . S
C1346 H1330 0.959 . S
C1346 H1331 0.959 1_554 S
C1346 H1332 0.961 . S
C1346 C1345 1.502 1_554 S
C1347 H1333 0.960 . S
C1347 H1334 0.961 . S
C1347 H1335 0.959 . S
C1347 C1345 1.561 . S
C1348 C1345 1.526 . S
C1348 C1349 1.396 1_556 S
C1348 C1353 1.390 . S
C1349 C1343 1.465 . S
C1349 C1348 1.396 1_554 S
C1349 C1350 1.399 1_554 S
C1350 H1336 0.929 1_556 S
C1350 C1349 1.399 1_556 S
C1350 C1351 1.385 . S
C1351 H1337 0.931 . S
C1351 C1350 1.385 . S
C1351 C1352 1.389 . S
C1352 C1351 1.389 . S
C1352 C1353 1.387 . S
C1353 H1338 0.930 . S
C1353 C1348 1.390 . S
C1353 C1352 1.387 . S
H1354 C1366 0.930 . S
H1355 C1368 0.930 . S
H1356 C1369 0.930 . S
H1357 C1373 0.959 1_554 S
H1358 C1373 0.959 . S
H1359 C1373 0.966 . S
H1360 C1374 0.960 . S
H1361 C1374 0.961 . S
H1362 C1374 0.959 . S
H1363 C1377 0.929 . S
H1364 C1378 0.931 . S
H1365 C1380 0.930 . S
C1366 H1354 0.930 . S
C1366 C1367 1.399 . S
C1366 C1371 1.399 . S
C1367 C1366 1.399 . S
C1367 C1368 1.376 . S
C1368 H1355 0.930 . S
C1368 C1367 1.376 . S
C1368 C1369 1.388 . S
C1369 H1356 0.930 . S
C1369 C1368 1.388 . S
C1369 C1370 1.390 . S
C1370 C1369 1.390 . S
C1370 C1371 1.394 . S
C1370 C1376 1.465 . S
C1371 C1366 1.399 . S
C1371 C1370 1.394 . S
C1371 C1372 1.516 1_554 S
C1372 C1371 1.516 1_556 S
C1372 C1373 1.502 . S
C1372 C1374 1.561 . S
C1372 C1375 1.526 . S
C1373 H1357 0.959 1_556 S
C1373 H1358 0.959 . S
C1373 H1359 0.966 . S
C1373 C1372 1.502 . S
C1374 H1360 0.960 . S
C1374 H1361 0.961 . S
C1374 H1362 0.959 . S
C1374 C1372 1.561 . S
C1375 C1372 1.526 . S
C1375 C1376 1.396 1_556 S
C1375 C1380 1.390 . S
C1376 C1370 1.465 . S
C1376 C1375 1.396 1_554 S
C1376 C1377 1.399 . S
C1377 H1363 0.929 . S
C1377 C1376 1.399 . S
C1377 C1378 1.385 1_554 S
C1378 H1364 0.931 . S
C1378 C1377 1.385 1_556 S
C1378 C1379 1.389 . S
C1379 C1378 1.389 . S
C1379 C1380 1.387 . S
C1380 H1365 0.930 . S
C1380 C1375 1.390 . S
C1380 C1379 1.387 . S
H1381 C1393 0.930 . S
H1382 C1395 0.930 . S
H1383 C1396 0.930 1_556 S
H1384 C1400 0.959 . S
H1385 C1400 0.959 . S
H1386 C1400 0.961 . S
H1387 C1401 0.960 . S
H1388 C1401 0.961 . S
H1389 C1401 0.959 . S
H1390 C1404 0.929 . S
H1391 C1405 0.931 . S
H1392 C1407 0.934 . S
C1393 H1381 0.930 . S
C1393 C1394 1.399 . S
C1393 C1398 1.399 . S
C1394 C1393 1.399 . S
C1394 C1395 1.376 . S
C1395 H1382 0.930 . S
C1395 C1394 1.376 . S
C1395 C1396 1.388 . S
C1396 H1383 0.930 1_554 S
C1396 C1395 1.388 . S
C1396 C1397 1.390 . S
C1397 C1396 1.390 . S
C1397 C1398 1.394 . S
C1397 C1403 1.465 1_554 S
C1398 C1393 1.399 . S
C1398 C1397 1.394 . S
C1398 C1399 1.516 . S
C1399 C1398 1.516 . S
C1399 C1400 1.502 . S
C1399 C1401 1.561 . S
C1399 C1402 1.526 . S
C1400 H1384 0.959 . S
C1400 H1385 0.959 . S
C1400 H1386 0.961 . S
C1400 C1399 1.502 . S
C1401 H1387 0.960 . S
C1401 H1388 0.961 . S
C1401 H1389 0.959 . S
C1401 C1399 1.561 . S
C1402 C1399 1.526 . S
C1402 C1403 1.396 1_554 S
C1402 C1407 1.390 1_554 S
C1403 C1397 1.465 1_556 S
C1403 C1402 1.396 1_556 S
C1403 C1404 1.399 . S
C1404 H1390 0.929 . S
C1404 C1403 1.399 . S
C1404 C1405 1.385 . S
C1405 H1391 0.931 . S
C1405 C1404 1.385 . S
C1405 C1406 1.389 . S
C1406 C1405 1.389 . S
C1406 C1407 1.387 . S
C1407 H1392 0.934 . S
C1407 C1402 1.390 1_556 S
C1407 C1406 1.387 . S
H1408 C1420 0.930 . S
H1409 C1422 0.930 . S
H1410 C1423 0.930 . S
H1411 C1427 0.959 . S
H1412 C1427 0.959 . S
H1413 C1427 0.961 . S
H1414 C1428 0.960 . S
H1415 C1428 0.961 . S
H1416 C1428 0.959 . S
H1417 C1431 0.929 . S
H1418 C1432 0.931 . S
H1419 C1434 0.930 . S
C1420 H1408 0.930 . S
C1420 C1421 1.399 . S
C1420 C1425 1.399 . S
C1421 C1420 1.399 . S
C1421 C1422 1.376 . S
C1422 H1409 0.930 . S
C1422 C1421 1.376 . S
C1422 C1423 1.388 . S
C1423 H1410 0.930 . S
C1423 C1422 1.388 . S
C1423 C1424 1.390 . S
C1424 C1423 1.390 . S
C1424 C1425 1.394 . S
C1424 C1430 1.465 . S
C1425 C1420 1.399 . S
C1425 C1424 1.394 . S
C1425 C1426 1.516 . S
C1426 C1425 1.516 . S
C1426 C1427 1.502 . S
C1426 C1428 1.561 . S
C1426 C1429 1.526 . S
C1427 H1411 0.959 . S
C1427 H1412 0.959 . S
C1427 H1413 0.961 . S
C1427 C1426 1.502 . S
C1428 H1414 0.960 . S
C1428 H1415 0.961 . S
C1428 H1416 0.959 . S
C1428 C1426 1.561 . S
C1429 C1426 1.526 . S
C1429 C1430 1.396 . S
C1429 C1434 1.390 . S
C1430 C1424 1.465 . S
C1430 C1429 1.396 . S
C1430 C1431 1.399 . S
C1431 H1417 0.929 . S
C1431 C1430 1.399 . S
C1431 C1432 1.385 . S
C1432 H1418 0.931 . S
C1432 C1431 1.385 . S
C1432 C1433 1.389 . S
C1433 C1432 1.389 . S
C1433 C1434 1.387 . S
C1434 H1419 0.930 . S
C1434 C1429 1.390 . S
C1434 C1433 1.387 . S
H1435 C1447 0.930 . S
H1436 C1449 0.930 . S
H1437 C1450 0.930 . S
H1438 C1454 0.959 . S
H1439 C1454 0.959 . S
H1440 C1454 0.961 . S
H1441 C1455 0.960 . S
H1442 C1455 0.961 . S
H1443 C1455 0.959 . S
H1444 C1458 0.929 . S
H1445 C1459 0.931 . S
H1446 C1461 0.930 . S
C1447 H1435 0.930 . S
C1447 C1448 1.399 . S
C1447 C1452 1.399 . S
C1448 C1447 1.399 . S
C1448 C1449 1.376 . S
C1449 H1436 0.930 . S
C1449 C1448 1.376 . S
C1449 C1450 1.388 . S
C1450 H1437 0.930 . S
C1450 C1449 1.388 . S
C1450 C1451 1.390 . S
C1451 C1450 1.390 . S
C1451 C1452 1.394 . S
C1451 C1457 1.465 . S
C1452 C1447 1.399 . S
C1452 C1451 1.394 . S
C1452 C1453 1.516 . S
C1453 C1452 1.516 . S
C1453 C1454 1.502 . S
C1453 C1455 1.561 . S
C1453 C1456 1.526 . S
C1454 H1438 0.959 . S
C1454 H1439 0.959 . S
C1454 H1440 0.961 . S
C1454 C1453 1.502 . S
C1455 H1441 0.960 . S
C1455 H1442 0.961 . S
C1455 H1443 0.959 . S
C1455 C1453 1.561 . S
C1456 C1453 1.526 . S
C1456 C1457 1.396 . S
C1456 C1461 1.390 . S
C1457 C1451 1.465 . S
C1457 C1456 1.396 . S
C1457 C1458 1.399 . S
C1458 H1444 0.929 . S
C1458 C1457 1.399 . S
C1458 C1459 1.385 . S
C1459 H1445 0.931 . S
C1459 C1458 1.385 . S
C1459 C1460 1.389 . S
C1460 C1459 1.389 . S
C1460 C1461 1.387 . S
C1461 H1446 0.930 . S
C1461 C1456 1.390 . S
C1461 C1460 1.387 . S
H1462 C1474 0.930 . S
H1463 C1476 0.930 . S
H1464 C1477 0.930 . S
H1465 C1481 0.959 . S
H1466 C1481 0.959 . S
H1467 C1481 0.961 . S
H1468 C1482 0.960 . S
H1469 C1482 0.961 . S
H1470 C1482 0.959 . S
H1471 C1485 0.929 . S
H1472 C1486 0.931 . S
H1473 C1488 0.930 . S
C1474 H1462 0.930 . S
C1474 C1475 1.399 . S
C1474 C1479 1.399 . S
C1475 C1474 1.399 . S
C1475 C1476 1.376 . S
C1476 H1463 0.930 . S
C1476 C1475 1.376 . S
C1476 C1477 1.388 . S
C1477 H1464 0.930 . S
C1477 C1476 1.388 . S
C1477 C1478 1.390 . S
C1478 C1477 1.390 . S
C1478 C1479 1.394 . S
C1478 C1484 1.465 . S
C1479 C1474 1.399 . S
C1479 C1478 1.394 . S
C1479 C1480 1.516 . S
C1480 C1479 1.516 . S
C1480 C1481 1.502 . S
C1480 C1482 1.561 . S
C1480 C1483 1.526 . S
C1481 H1465 0.959 . S
C1481 H1466 0.959 . S
C1481 H1467 0.961 . S
C1481 C1480 1.502 . S
C1482 H1468 0.960 . S
C1482 H1469 0.961 . S
C1482 H1470 0.959 . S
C1482 C1480 1.561 . S
C1483 C1480 1.526 . S
C1483 C1484 1.396 . S
C1483 C1488 1.390 . S
C1484 C1478 1.465 . S
C1484 C1483 1.396 . S
C1484 C1485 1.399 . S
C1485 H1471 0.929 . S
C1485 C1484 1.399 . S
C1485 C1486 1.385 . S
C1486 H1472 0.931 . S
C1486 C1485 1.385 . S
C1486 C1487 1.389 . S
C1487 C1486 1.389 . S
C1487 C1488 1.387 . S
C1488 H1473 0.930 . S
C1488 C1483 1.390 . S
C1488 C1487 1.387 . S
H1489 C1501 0.930 . S
H1490 C1503 0.930 . S
H1491 C1504 0.930 . S
H1492 C1508 0.959 . S
H1493 C1508 0.959 . S
H1494 C1508 0.961 . S
H1495 C1509 0.960 . S
H1496 C1509 0.961 . S
H1497 C1509 0.959 . S
H1498 C1512 0.929 . S
H1499 C1513 0.931 . S
H1500 C1515 0.930 . S
C1501 H1489 0.930 . S
C1501 C1502 1.399 . S
C1501 C1506 1.399 . S
C1502 C1501 1.399 . S
C1502 C1503 1.376 . S
C1503 H1490 0.930 . S
C1503 C1502 1.376 . S
C1503 C1504 1.388 . S
C1504 H1491 0.930 . S
C1504 C1503 1.388 . S
C1504 C1505 1.390 . S
C1505 C1504 1.390 . S
C1505 C1506 1.394 . S
C1505 C1511 1.465 . S
C1506 C1501 1.399 . S
C1506 C1505 1.394 . S
C1506 C1507 1.516 . S
C1507 C1506 1.516 . S
C1507 C1508 1.502 . S
C1507 C1509 1.561 . S
C1507 C1510 1.526 . S
C1508 H1492 0.959 . S
C1508 H1493 0.959 . S
C1508 H1494 0.961 . S
C1508 C1507 1.502 . S
C1509 H1495 0.960 . S
C1509 H1496 0.961 . S
C1509 H1497 0.959 . S
C1509 C1507 1.561 . S
C1510 C1507 1.526 . S
C1510 C1511 1.396 . S
C1510 C1515 1.390 . S
C1511 C1505 1.465 . S
C1511 C1510 1.396 . S
C1511 C1512 1.399 . S
C1512 H1498 0.929 . S
C1512 C1511 1.399 . S
C1512 C1513 1.385 . S
C1513 H1499 0.931 . S
C1513 C1512 1.385 . S
C1513 C1514 1.389 . S
C1514 C1513 1.389 . S
C1514 C1515 1.387 . S
C1515 H1500 0.930 . S
C1515 C1510 1.390 . S
C1515 C1514 1.387 . S
H1516 C1528 0.930 . S
H1517 C1530 0.930 . S
H1518 C1531 0.930 . S
H1519 C1535 0.959 . S
H1520 C1535 0.959 . S
H1521 C1535 0.961 . S
H1522 C1536 0.960 . S
H1523 C1536 0.961 . S
H1524 C1536 0.959 . S
H1525 C1539 0.929 . S
H1526 C1540 0.931 . S
H1527 C1542 0.930 . S
C1528 H1516 0.930 . S
C1528 C1529 1.399 . S
C1528 C1533 1.399 . S
C1529 C1528 1.399 . S
C1529 C1530 1.376 . S
C1530 H1517 0.930 . S
C1530 C1529 1.376 . S
C1530 C1531 1.388 . S
C1531 H1518 0.930 . S
C1531 C1530 1.388 . S
C1531 C1532 1.390 . S
C1532 C1531 1.390 . S
C1532 C1533 1.394 . S
C1532 C1538 1.465 1_554 S
C1533 C1528 1.399 . S
C1533 C1532 1.394 . S
C1533 C1534 1.516 1_554 S
C1534 C1533 1.516 1_556 S
C1534 C1535 1.502 . S
C1534 C1536 1.561 1_556 S
C1534 C1537 1.526 . S
C1535 H1519 0.959 . S
C1535 H1520 0.959 . S
C1535 H1521 0.961 . S
C1535 C1534 1.502 . S
C1536 H1522 0.960 . S
C1536 H1523 0.961 . S
C1536 H1524 0.959 . S
C1536 C1534 1.561 1_554 S
C1537 C1534 1.526 . S
C1537 C1538 1.396 . S
C1537 C1542 1.390 . S
C1538 C1532 1.465 1_556 S
C1538 C1537 1.396 . S
C1538 C1539 1.399 . S
C1539 H1525 0.929 . S
C1539 C1538 1.399 . S
C1539 C1540 1.385 . S
C1540 H1526 0.931 . S
C1540 C1539 1.385 . S
C1540 C1541 1.389 . S
C1541 C1540 1.389 . S
C1541 C1542 1.387 . S
C1542 H1527 0.930 . S
C1542 C1537 1.390 . S
C1542 C1541 1.387 . S
H1543 C1555 0.930 . S
H1544 C1557 0.930 . S
H1545 C1558 0.930 . S
H1546 C1562 0.959 . S
H1547 C1562 0.959 . S
H1548 C1562 0.961 . S
H1549 C1563 0.960 . S
H1550 C1563 0.961 . S
H1551 C1563 0.956 1_556 S
H1552 C1566 0.929 . S
H1553 C1567 0.931 . S
H1554 C1569 0.930 . S
C1555 H1543 0.930 . S
C1555 C1556 1.399 . S
C1555 C1560 1.399 . S
C1556 C1555 1.399 . S
C1556 C1557 1.376 . S
C1557 H1544 0.930 . S
C1557 C1556 1.376 . S
C1557 C1558 1.388 1_554 S
C1558 H1545 0.930 . S
C1558 C1557 1.388 1_556 S
C1558 C1559 1.390 . S
C1559 C1558 1.390 . S
C1559 C1560 1.394 1_556 S
C1559 C1565 1.465 . S
C1560 C1555 1.399 . S
C1560 C1559 1.394 1_554 S
C1560 C1561 1.516 . S
C1561 C1560 1.516 . S
C1561 C1562 1.502 . S
C1561 C1563 1.561 . S
C1561 C1564 1.526 1_554 S
C1562 H1546 0.959 . S
C1562 H1547 0.959 . S
C1562 H1548 0.961 . S
C1562 C1561 1.502 . S
C1563 H1549 0.960 . S
C1563 H1550 0.961 . S
C1563 H1551 0.956 1_554 S
C1563 C1561 1.561 . S
C1564 C1561 1.526 1_556 S
C1564 C1565 1.396 . S
C1564 C1569 1.390 . S
C1565 C1559 1.465 . S
C1565 C1564 1.396 . S
C1565 C1566 1.399 . S
C1566 H1552 0.929 . S
C1566 C1565 1.399 . S
C1566 C1567 1.385 . S
C1567 H1553 0.931 . S
C1567 C1566 1.385 . S
C1567 C1568 1.389 . S
C1568 C1567 1.389 . S
C1568 C1569 1.387 . S
C1569 H1554 0.930 . S
C1569 C1564 1.390 . S
C1569 C1568 1.387 . S
H1570 C1582 0.930 . S
H1571 C1584 0.930 . S
H1572 C1585 0.930 . S
H1573 C1589 0.959 . S
H1574 C1589 0.959 . S
H1575 C1589 0.961 . S
H1576 C1590 0.959 . S
H1577 C1590 0.961 1_556 S
H1578 C1590 0.960 1_556 S
H1579 C1593 0.929 . S
H1580 C1594 0.931 . S
H1581 C1596 0.930 . S
C1582 H1570 0.930 . S
C1582 C1583 1.399 . S
C1582 C1587 1.399 . S
C1583 C1582 1.399 . S
C1583 C1584 1.376 . S
C1584 H1571 0.930 . S
C1584 C1583 1.376 . S
C1584 C1585 1.388 1_554 S
C1585 H1572 0.930 . S
C1585 C1584 1.388 1_556 S
C1585 C1586 1.390 . S
C1586 C1585 1.390 . S
C1586 C1587 1.394 1_556 S
C1586 C1592 1.465 . S
C1587 C1582 1.399 . S
C1587 C1586 1.394 1_554 S
C1587 C1588 1.516 . S
C1588 C1587 1.516 . S
C1588 C1589 1.502 . S
C1588 C1590 1.561 . S
C1588 C1591 1.526 1_554 S
C1589 H1573 0.959 . S
C1589 H1574 0.959 . S
C1589 H1575 0.961 . S
C1589 C1588 1.502 . S
C1590 H1576 0.959 . S
C1590 H1577 0.961 1_554 S
C1590 H1578 0.960 1_554 S
C1590 C1588 1.561 . S
C1591 C1588 1.526 1_556 S
C1591 C1592 1.396 . S
C1591 C1596 1.390 . S
C1592 C1586 1.465 . S
C1592 C1591 1.396 . S
C1592 C1593 1.399 . S
C1593 H1579 0.929 . S
C1593 C1592 1.399 . S
C1593 C1594 1.385 . S
C1594 H1580 0.931 . S
C1594 C1593 1.385 . S
C1594 C1595 1.389 . S
C1595 C1594 1.389 . S
C1595 C1596 1.387 . S
C1596 H1581 0.930 . S
C1596 C1591 1.390 . S
C1596 C1595 1.387 . S
H1597 C1609 0.928 1_556 S
H1598 C1611 0.930 . S
H1599 C1612 0.930 . S
H1600 C1616 0.959 . S
H1601 C1616 0.959 . S
H1602 C1616 0.961 . S
H1603 C1617 0.960 . S
H1604 C1617 0.961 . S
H1605 C1617 0.959 . S
H1606 C1620 0.929 1_554 S
H1607 C1621 0.931 . S
H1608 C1623 0.930 . S
C1609 H1597 0.928 1_554 S
C1609 C1610 1.399 . S
C1609 C1614 1.399 1_554 S
C1610 C1609 1.399 . S
C1610 C1611 1.376 . S
C1611 H1598 0.930 . S
C1611 C1610 1.376 . S
C1611 C1612 1.388 . S
C1612 H1599 0.930 . S
C1612 C1611 1.388 . S
C1612 C1613 1.390 . S
C1613 C1612 1.390 . S
C1613 C1614 1.394 1_554 S
C1613 C1619 1.465 1_554 S
C1614 C1609 1.399 1_556 S
C1614 C1613 1.394 1_556 S
C1614 C1615 1.516 . S
C1615 C1614 1.516 . S
C1615 C1616 1.502 . S
C1615 C1617 1.561 . S
C1615 C1618 1.526 . S
C1616 H1600 0.959 . S
C1616 H1601 0.959 . S
C1616 H1602 0.961 . S
C1616 C1615 1.502 . S
C1617 H1603 0.960 . S
C1617 H1604 0.961 . S
C1617 H1605 0.959 . S
C1617 C1615 1.561 . S
C1618 C1615 1.526 . S
C1618 C1619 1.396 . S
C1618 C1623 1.390 . S
C1619 C1613 1.465 1_556 S
C1619 C1618 1.396 . S
C1619 C1620 1.399 . S
C1620 H1606 0.929 1_556 S
C1620 C1619 1.399 . S
C1620 C1621 1.385 . S
C1621 H1607 0.931 . S
C1621 C1620 1.385 . S
C1621 C1622 1.389 . S
C1622 C1621 1.389 . S
C1622 C1623 1.387 . S
C1623 H1608 0.930 . S
C1623 C1618 1.390 . S
C1623 C1622 1.387 . S
H1624 C1636 0.930 . S
H1625 C1638 0.930 . S
H1626 C1639 0.930 . S
H1627 C1643 0.959 . S
H1628 C1643 0.959 . S
H1629 C1643 0.961 . S
H1630 C1644 0.960 . S
H1631 C1644 0.961 . S
H1632 C1644 0.959 . S
H1633 C1647 0.929 . S
H1634 C1648 0.931 . S
H1635 C1650 0.930 . S
C1636 H1624 0.930 . S
C1636 C1637 1.399 . S
C1636 C1641 1.399 . S
C1637 C1636 1.399 . S
C1637 C1638 1.376 . S
C1638 H1625 0.930 . S
C1638 C1637 1.376 . S
C1638 C1639 1.388 . S
C1639 H1626 0.930 . S
C1639 C1638 1.388 . S
C1639 C1640 1.390 . S
C1640 C1639 1.390 . S
C1640 C1641 1.394 . S
C1640 C1646 1.465 . S
C1641 C1636 1.399 . S
C1641 C1640 1.394 . S
C1641 C1642 1.516 . S
C1642 C1641 1.516 . S
C1642 C1643 1.502 . S
C1642 C1644 1.561 . S
C1642 C1645 1.526 . S
C1643 H1627 0.959 . S
C1643 H1628 0.959 . S
C1643 H1629 0.961 . S
C1643 C1642 1.502 . S
C1644 H1630 0.960 . S
C1644 H1631 0.961 . S
C1644 H1632 0.959 . S
C1644 C1642 1.561 . S
C1645 C1642 1.526 . S
C1645 C1646 1.396 . S
C1645 C1650 1.390 . S
C1646 C1640 1.465 . S
C1646 C1645 1.396 . S
C1646 C1647 1.399 . S
C1647 H1633 0.929 . S
C1647 C1646 1.399 . S
C1647 C1648 1.385 . S
C1648 H1634 0.931 . S
C1648 C1647 1.385 . S
C1648 C1649 1.389 . S
C1649 C1648 1.389 . S
C1649 C1650 1.387 . S
C1650 H1635 0.930 . S
C1650 C1645 1.390 . S
C1650 C1649 1.387 . S
H1651 C1663 0.930 . S
H1652 C1665 0.930 . S
H1653 C1666 0.930 . S
H1654 C1670 0.959 . S
H1655 C1670 0.959 . S
H1656 C1670 0.961 . S
H1657 C1671 0.960 . S
H1658 C1671 0.961 . S
H1659 C1671 0.959 . S
H1660 C1674 0.929 . S
H1661 C1675 0.931 . S
H1662 C1677 0.930 . S
C1663 H1651 0.930 . S
C1663 C1664 1.399 . S
C1663 C1668 1.399 . S
C1664 C1663 1.399 . S
C1664 C1665 1.376 . S
C1665 H1652 0.930 . S
C1665 C1664 1.376 . S
C1665 C1666 1.388 . S
C1666 H1653 0.930 . S
C1666 C1665 1.388 . S
C1666 C1667 1.390 . S
C1667 C1666 1.390 . S
C1667 C1668 1.394 . S
C1667 C1673 1.465 . S
C1668 C1663 1.399 . S
C1668 C1667 1.394 . S
C1668 C1669 1.516 . S
C1669 C1668 1.516 . S
C1669 C1670 1.502 . S
C1669 C1671 1.561 . S
C1669 C1672 1.526 . S
C1670 H1654 0.959 . S
C1670 H1655 0.959 . S
C1670 H1656 0.961 . S
C1670 C1669 1.502 . S
C1671 H1657 0.960 . S
C1671 H1658 0.961 . S
C1671 H1659 0.959 . S
C1671 C1669 1.561 . S
C1672 C1669 1.526 . S
C1672 C1673 1.396 . S
C1672 C1677 1.390 . S
C1673 C1667 1.465 . S
C1673 C1672 1.396 . S
C1673 C1674 1.399 . S
C1674 H1660 0.929 . S
C1674 C1673 1.399 . S
C1674 C1675 1.385 . S
C1675 H1661 0.931 . S
C1675 C1674 1.385 . S
C1675 C1676 1.389 . S
C1676 C1675 1.389 . S
C1676 C1677 1.387 . S
C1677 H1662 0.930 . S
C1677 C1672 1.390 . S
C1677 C1676 1.387 . S
H1678 C1690 0.930 . S
H1679 C1692 0.930 . S
H1680 C1693 0.930 . S
H1681 C1697 0.959 . S
H1682 C1697 0.959 . S
H1683 C1697 0.961 . S
H1684 C1698 0.960 . S
H1685 C1698 0.961 . S
H1686 C1698 0.959 . S
H1687 C1701 0.929 . S
H1688 C1702 0.931 . S
H1689 C1704 0.930 . S
C1690 H1678 0.930 . S
C1690 C1691 1.399 . S
C1690 C1695 1.399 . S
C1691 C1690 1.399 . S
C1691 C1692 1.376 . S
C1692 H1679 0.930 . S
C1692 C1691 1.376 . S
C1692 C1693 1.388 . S
C1693 H1680 0.930 . S
C1693 C1692 1.388 . S
C1693 C1694 1.390 . S
C1694 C1693 1.390 . S
C1694 C1695 1.394 . S
C1694 C1700 1.465 . S
C1695 C1690 1.399 . S
C1695 C1694 1.394 . S
C1695 C1696 1.516 . S
C1696 C1695 1.516 . S
C1696 C1697 1.502 . S
C1696 C1698 1.561 . S
C1696 C1699 1.526 . S
C1697 H1681 0.959 . S
C1697 H1682 0.959 . S
C1697 H1683 0.961 . S
C1697 C1696 1.502 . S
C1698 H1684 0.960 . S
C1698 H1685 0.961 . S
C1698 H1686 0.959 . S
C1698 C1696 1.561 . S
C1699 C1696 1.526 . S
C1699 C1700 1.396 . S
C1699 C1704 1.390 . S
C1700 C1694 1.465 . S
C1700 C1699 1.396 . S
C1700 C1701 1.399 . S
C1701 H1687 0.929 . S
C1701 C1700 1.399 . S
C1701 C1702 1.385 . S
C1702 H1688 0.931 . S
C1702 C1701 1.385 . S
C1702 C1703 1.389 . S
C1703 C1702 1.389 . S
C1703 C1704 1.387 . S
C1704 H1689 0.930 . S
C1704 C1699 1.390 . S
C1704 C1703 1.387 . S
H1705 C1717 0.930 . S
H1706 C1719 0.930 . S
H1707 C1720 0.930 . S
H1708 C1724 0.959 . S
H1709 C1724 0.959 . S
H1710 C1724 0.961 . S
H1711 C1725 0.960 . S
H1712 C1725 0.961 . S
H1713 C1725 0.959 . S
H1714 C1728 0.929 . S
H1715 C1729 0.931 . S
H1716 C1731 0.930 . S
C1717 H1705 0.930 . S
C1717 C1718 1.399 . S
C1717 C1722 1.399 . S
C1718 C1717 1.399 . S
C1718 C1719 1.376 . S
C1719 H1706 0.930 . S
C1719 C1718 1.376 . S
C1719 C1720 1.388 . S
C1720 H1707 0.930 . S
C1720 C1719 1.388 . S
C1720 C1721 1.390 . S
C1721 C1720 1.390 . S
C1721 C1722 1.394 . S
C1721 C1727 1.465 . S
C1722 C1717 1.399 . S
C1722 C1721 1.394 . S
C1722 C1723 1.516 . S
C1723 C1722 1.516 . S
C1723 C1724 1.502 . S
C1723 C1725 1.561 . S
C1723 C1726 1.526 . S
C1724 H1708 0.959 . S
C1724 H1709 0.959 . S
C1724 H1710 0.961 . S
C1724 C1723 1.502 . S
C1725 H1711 0.960 . S
C1725 H1712 0.961 . S
C1725 H1713 0.959 . S
C1725 C1723 1.561 . S
C1726 C1723 1.526 . S
C1726 C1727 1.396 . S
C1726 C1731 1.390 . S
C1727 C1721 1.465 . S
C1727 C1726 1.396 . S
C1727 C1728 1.399 . S
C1728 H1714 0.929 . S
C1728 C1727 1.399 . S
C1728 C1729 1.385 . S
C1729 H1715 0.931 . S
C1729 C1728 1.385 . S
C1729 C1730 1.389 . S
C1730 C1729 1.389 . S
C1730 C1731 1.387 . S
C1731 H1716 0.930 . S
C1731 C1726 1.390 . S
C1731 C1730 1.387 . S
H1732 C1744 0.930 . S
H1733 C1746 0.930 . S
H1734 C1747 0.930 . S
H1735 C1751 0.959 . S
H1736 C1751 0.959 . S
H1737 C1751 0.961 . S
H1738 C1752 0.960 . S
H1739 C1752 0.961 . S
H1740 C1752 0.959 . S
H1741 C1755 0.929 . S
H1742 C1756 0.931 . S
H1743 C1758 0.930 . S
C1744 H1732 0.930 . S
C1744 C1745 1.399 . S
C1744 C1749 1.399 . S
C1745 C1744 1.399 . S
C1745 C1746 1.376 . S
C1746 H1733 0.930 . S
C1746 C1745 1.376 . S
C1746 C1747 1.388 . S
C1747 H1734 0.930 . S
C1747 C1746 1.388 . S
C1747 C1748 1.390 . S
C1748 C1747 1.390 . S
C1748 C1749 1.394 . S
C1748 C1754 1.465 . S
C1749 C1744 1.399 . S
C1749 C1748 1.394 . S
C1749 C1750 1.516 . S
C1750 C1749 1.516 . S
C1750 C1751 1.502 . S
C1750 C1752 1.561 . S
C1750 C1753 1.526 . S
C1751 H1735 0.959 . S
C1751 H1736 0.959 . S
C1751 H1737 0.961 . S
C1751 C1750 1.502 . S
C1752 H1738 0.960 . S
C1752 H1739 0.961 . S
C1752 H1740 0.959 . S
C1752 C1750 1.561 . S
C1753 C1750 1.526 . S
C1753 C1754 1.396 . S
C1753 C1758 1.390 . S
C1754 C1748 1.465 . S
C1754 C1753 1.396 . S
C1754 C1755 1.399 . S
C1755 H1741 0.929 . S
C1755 C1754 1.399 . S
C1755 C1756 1.385 . S
C1756 H1742 0.931 . S
C1756 C1755 1.385 . S
C1756 C1757 1.389 . S
C1757 C1756 1.389 . S
C1757 C1758 1.387 . S
C1758 H1743 0.930 . S
C1758 C1753 1.390 . S
C1758 C1757 1.387 . S
H1759 C1771 0.930 . S
H1760 C1773 0.930 . S
H1761 C1774 0.930 . S
H1762 C1778 0.959 . S
H1763 C1778 0.959 . S
H1764 C1778 0.961 . S
H1765 C1779 0.960 . S
H1766 C1779 0.961 . S
H1767 C1779 0.959 . S
H1768 C1782 0.929 . S
H1769 C1783 0.931 . S
H1770 C1785 0.930 . S
C1771 H1759 0.930 . S
C1771 C1772 1.399 . S
C1771 C1776 1.399 . S
C1772 C1771 1.399 . S
C1772 C1773 1.376 . S
C1773 H1760 0.930 . S
C1773 C1772 1.376 . S
C1773 C1774 1.388 . S
C1774 H1761 0.930 . S
C1774 C1773 1.388 . S
C1774 C1775 1.390 . S
C1775 C1774 1.390 . S
C1775 C1776 1.394 . S
C1775 C1781 1.465 . S
C1776 C1771 1.399 . S
C1776 C1775 1.394 . S
C1776 C1777 1.516 . S
C1777 C1776 1.516 . S
C1777 C1778 1.502 . S
C1777 C1779 1.561 . S
C1777 C1780 1.526 . S
C1778 H1762 0.959 . S
C1778 H1763 0.959 . S
C1778 H1764 0.961 . S
C1778 C1777 1.502 . S
C1779 H1765 0.960 . S
C1779 H1766 0.961 . S
C1779 H1767 0.959 . S
C1779 C1777 1.561 . S
C1780 C1777 1.526 . S
C1780 C1781 1.396 . S
C1780 C1785 1.390 . S
C1781 C1775 1.465 . S
C1781 C1780 1.396 . S
C1781 C1782 1.399 . S
C1782 H1768 0.929 . S
C1782 C1781 1.399 . S
C1782 C1783 1.385 . S
C1783 H1769 0.931 . S
C1783 C1782 1.385 . S
C1783 C1784 1.389 . S
C1784 C1783 1.389 . S
C1784 C1785 1.387 . S
C1785 H1770 0.930 . S
C1785 C1780 1.390 . S
C1785 C1784 1.387 . S
H1786 C1798 0.930 . S
H1787 C1800 0.930 . S
H1788 C1801 0.930 . S
H1789 C1805 0.959 . S
H1790 C1805 0.959 . S
H1791 C1805 0.961 . S
H1792 C1806 0.960 . S
H1793 C1806 0.961 . S
H1794 C1806 0.959 . S
H1795 C1809 0.929 . S
H1796 C1810 0.931 . S
H1797 C1812 0.930 . S
C1798 H1786 0.930 . S
C1798 C1799 1.399 . S
C1798 C1803 1.399 . S
C1799 C1798 1.399 . S
C1799 C1800 1.376 . S
C1800 H1787 0.930 . S
C1800 C1799 1.376 . S
C1800 C1801 1.388 . S
C1801 H1788 0.930 . S
C1801 C1800 1.388 . S
C1801 C1802 1.390 . S
C1802 C1801 1.390 . S
C1802 C1803 1.394 . S
C1802 C1808 1.465 . S
C1803 C1798 1.399 . S
C1803 C1802 1.394 . S
C1803 C1804 1.516 . S
C1804 C1803 1.516 . S
C1804 C1805 1.502 . S
C1804 C1806 1.561 . S
C1804 C1807 1.526 . S
C1805 H1789 0.959 . S
C1805 H1790 0.959 . S
C1805 H1791 0.961 . S
C1805 C1804 1.502 . S
C1806 H1792 0.960 . S
C1806 H1793 0.961 . S
C1806 H1794 0.959 . S
C1806 C1804 1.561 . S
C1807 C1804 1.526 . S
C1807 C1808 1.396 . S
C1807 C1812 1.390 . S
C1808 C1802 1.465 . S
C1808 C1807 1.396 . S
C1808 C1809 1.399 . S
C1809 H1795 0.929 . S
C1809 C1808 1.399 . S
C1809 C1810 1.385 . S
C1810 H1796 0.931 . S
C1810 C1809 1.385 . S
C1810 C1811 1.389 . S
C1811 C1810 1.389 . S
C1811 C1812 1.387 . S
C1812 H1797 0.930 . S
C1812 C1807 1.390 . S
C1812 C1811 1.387 . S
H1813 C1825 0.930 . S
H1814 C1827 0.930 . S
H1815 C1828 0.930 . S
H1816 C1832 0.959 . S
H1817 C1832 0.959 . S
H1818 C1832 0.961 . S
H1819 C1833 0.960 . S
H1820 C1833 0.961 . S
H1821 C1833 0.959 . S
H1822 C1836 0.929 . S
H1823 C1837 0.931 . S
H1824 C1839 0.930 . S
C1825 H1813 0.930 . S
C1825 C1826 1.399 . S
C1825 C1830 1.399 . S
C1826 C1825 1.399 . S
C1826 C1827 1.376 . S
C1827 H1814 0.930 . S
C1827 C1826 1.376 . S
C1827 C1828 1.388 . S
C1828 H1815 0.930 . S
C1828 C1827 1.388 . S
C1828 C1829 1.390 . S
C1829 C1828 1.390 . S
C1829 C1830 1.394 . S
C1829 C1835 1.465 . S
C1830 C1825 1.399 . S
C1830 C1829 1.394 . S
C1830 C1831 1.516 . S
C1831 C1830 1.516 . S
C1831 C1832 1.502 . S
C1831 C1833 1.561 . S
C1831 C1834 1.526 . S
C1832 H1816 0.959 . S
C1832 H1817 0.959 . S
C1832 H1818 0.961 . S
C1832 C1831 1.502 . S
C1833 H1819 0.960 . S
C1833 H1820 0.961 . S
C1833 H1821 0.959 . S
C1833 C1831 1.561 . S
C1834 C1831 1.526 . S
C1834 C1835 1.396 . S
C1834 C1839 1.390 . S
C1835 C1829 1.465 . S
C1835 C1834 1.396 . S
C1835 C1836 1.399 . S
C1836 H1822 0.929 . S
C1836 C1835 1.399 . S
C1836 C1837 1.385 . S
C1837 H1823 0.931 . S
C1837 C1836 1.385 . S
C1837 C1838 1.389 . S
C1838 C1837 1.389 . S
C1838 C1839 1.387 . S
C1839 H1824 0.930 . S
C1839 C1834 1.390 . S
C1839 C1838 1.387 . S
H1840 C1852 0.930 . S
H1841 C1854 0.930 . S
H1842 C1855 0.930 . S
H1843 C1859 0.959 . S
H1844 C1859 0.959 . S
H1845 C1859 0.961 . S
H1846 C1860 0.960 . S
H1847 C1860 0.961 . S
H1848 C1860 0.959 . S
H1849 C1863 0.929 . S
H1850 C1864 0.931 . S
H1851 C1866 0.930 . S
C1852 H1840 0.930 . S
C1852 C1853 1.399 . S
C1852 C1857 1.399 . S
C1853 C1852 1.399 . S
C1853 C1854 1.376 . S
C1854 H1841 0.930 . S
C1854 C1853 1.376 . S
C1854 C1855 1.388 . S
C1855 H1842 0.930 . S
C1855 C1854 1.388 . S
C1855 C1856 1.390 . S
C1856 C1855 1.390 . S
C1856 C1857 1.394 . S
C1856 C1862 1.465 . S
C1857 C1852 1.399 . S
C1857 C1856 1.394 . S
C1857 C1858 1.516 . S
C1858 C1857 1.516 . S
C1858 C1859 1.502 . S
C1858 C1860 1.561 . S
C1858 C1861 1.526 . S
C1859 H1843 0.959 . S
C1859 H1844 0.959 . S
C1859 H1845 0.961 . S
C1859 C1858 1.502 . S
C1860 H1846 0.960 . S
C1860 H1847 0.961 . S
C1860 H1848 0.959 . S
C1860 C1858 1.561 . S
C1861 C1858 1.526 . S
C1861 C1862 1.396 . S
C1861 C1866 1.390 . S
C1862 C1856 1.465 . S
C1862 C1861 1.396 . S
C1862 C1863 1.399 . S
C1863 H1849 0.929 . S
C1863 C1862 1.399 . S
C1863 C1864 1.385 . S
C1864 H1850 0.931 . S
C1864 C1863 1.385 . S
C1864 C1865 1.389 . S
C1865 C1864 1.389 . S
C1865 C1866 1.387 . S
C1866 H1851 0.930 . S
C1866 C1861 1.390 . S
C1866 C1865 1.387 . S
H1867 C1879 0.930 . S
H1868 C1881 0.930 . S
H1869 C1882 0.930 . S
H1870 C1886 0.959 . S
H1871 C1886 0.959 . S
H1872 C1886 0.961 . S
H1873 C1887 0.960 . S
H1874 C1887 0.961 . S
H1875 C1887 0.959 . S
H1876 C1890 0.929 . S
H1877 C1891 0.931 . S
H1878 C1893 0.930 . S
C1879 H1867 0.930 . S
C1879 C1880 1.399 . S
C1879 C1884 1.399 . S
C1880 C1879 1.399 . S
C1880 C1881 1.376 . S
C1881 H1868 0.930 . S
C1881 C1880 1.376 . S
C1881 C1882 1.388 . S
C1882 H1869 0.930 . S
C1882 C1881 1.388 . S
C1882 C1883 1.390 . S
C1883 C1882 1.390 . S
C1883 C1884 1.394 . S
C1883 C1889 1.465 . S
C1884 C1879 1.399 . S
C1884 C1883 1.394 . S
C1884 C1885 1.516 . S
C1885 C1884 1.516 . S
C1885 C1886 1.502 . S
C1885 C1887 1.561 . S
C1885 C1888 1.526 . S
C1886 H1870 0.959 . S
C1886 H1871 0.959 . S
C1886 H1872 0.961 . S
C1886 C1885 1.502 . S
C1887 H1873 0.960 . S
C1887 H1874 0.961 . S
C1887 H1875 0.959 . S
C1887 C1885 1.561 . S
C1888 C1885 1.526 . S
C1888 C1889 1.396 . S
C1888 C1893 1.390 . S
C1889 C1883 1.465 . S
C1889 C1888 1.396 . S
C1889 C1890 1.399 . S
C1890 H1876 0.929 . S
C1890 C1889 1.399 . S
C1890 C1891 1.385 . S
C1891 H1877 0.931 . S
C1891 C1890 1.385 . S
C1891 C1892 1.389 . S
C1892 C1891 1.389 . S
C1892 C1893 1.387 . S
C1893 H1878 0.930 . S
C1893 C1888 1.390 . S
C1893 C1892 1.387 . S
H1894 C1906 0.930 . S
H1895 C1908 0.930 . S
H1896 C1909 0.930 . S
H1897 C1913 0.959 . S
H1898 C1913 0.959 . S
H1899 C1913 0.961 . S
H1900 C1914 0.960 . S
H1901 C1914 0.961 . S
H1902 C1914 0.959 . S
H1903 C1917 0.929 . S
H1904 C1918 0.931 . S
H1905 C1920 0.930 . S
C1906 H1894 0.930 . S
C1906 C1907 1.399 . S
C1906 C1911 1.399 . S
C1907 C1906 1.399 . S
C1907 C1908 1.376 . S
C1908 H1895 0.930 . S
C1908 C1907 1.376 . S
C1908 C1909 1.388 . S
C1909 H1896 0.930 . S
C1909 C1908 1.388 . S
C1909 C1910 1.390 . S
C1910 C1909 1.390 . S
C1910 C1911 1.394 . S
C1910 C1916 1.465 . S
C1911 C1906 1.399 . S
C1911 C1910 1.394 . S
C1911 C1912 1.516 . S
C1912 C1911 1.516 . S
C1912 C1913 1.502 . S
C1912 C1914 1.561 . S
C1912 C1915 1.526 . S
C1913 H1897 0.959 . S
C1913 H1898 0.959 . S
C1913 H1899 0.961 . S
C1913 C1912 1.502 . S
C1914 H1900 0.960 . S
C1914 H1901 0.961 . S
C1914 H1902 0.959 . S
C1914 C1912 1.561 . S
C1915 C1912 1.526 . S
C1915 C1916 1.396 . S
C1915 C1920 1.390 . S
C1916 C1910 1.465 . S
C1916 C1915 1.396 . S
C1916 C1917 1.399 . S
C1917 H1903 0.929 . S
C1917 C1916 1.399 . S
C1917 C1918 1.385 . S
C1918 H1904 0.931 . S
C1918 C1917 1.385 . S
C1918 C1919 1.389 . S
C1919 C1918 1.389 . S
C1919 C1920 1.387 . S
C1920 H1905 0.930 . S
C1920 C1915 1.390 . S
C1920 C1919 1.387 . S
H1921 C1933 0.930 . S
H1922 C1935 0.930 . S
H1923 C1936 0.930 . S
H1924 C1940 0.959 . S
H1925 C1940 0.959 . S
H1926 C1940 0.961 . S
H1927 C1941 0.960 . S
H1928 C1941 0.961 . S
H1929 C1941 0.959 . S
H1930 C1944 0.929 . S
H1931 C1945 0.931 . S
H1932 C1947 0.930 . S
C1933 H1921 0.930 . S
C1933 C1934 1.399 . S
C1933 C1938 1.399 . S
C1934 C1933 1.399 . S
C1934 C1935 1.376 . S
C1935 H1922 0.930 . S
C1935 C1934 1.376 . S
C1935 C1936 1.388 . S
C1936 H1923 0.930 . S
C1936 C1935 1.388 . S
C1936 C1937 1.390 . S
C1937 C1936 1.390 . S
C1937 C1938 1.394 . S
C1937 C1943 1.465 . S
C1938 C1933 1.399 . S
C1938 C1937 1.394 . S
C1938 C1939 1.516 . S
C1939 C1938 1.516 . S
C1939 C1940 1.502 . S
C1939 C1941 1.561 . S
C1939 C1942 1.526 . S
C1940 H1924 0.959 . S
C1940 H1925 0.959 . S
C1940 H1926 0.961 . S
C1940 C1939 1.502 . S
C1941 H1927 0.960 . S
C1941 H1928 0.961 . S
C1941 H1929 0.959 . S
C1941 C1939 1.561 . S
C1942 C1939 1.526 . S
C1942 C1943 1.396 . S
C1942 C1947 1.390 . S
C1943 C1937 1.465 . S
C1943 C1942 1.396 . S
C1943 C1944 1.399 . S
C1944 H1930 0.929 . S
C1944 C1943 1.399 . S
C1944 C1945 1.385 . S
C1945 H1931 0.931 . S
C1945 C1944 1.385 . S
C1945 C1946 1.389 . S
C1946 C1945 1.389 . S
C1946 C1947 1.387 . S
C1947 H1932 0.930 . S
C1947 C1942 1.390 . S
C1947 C1946 1.387 . S
H1948 C1960 0.930 . S
H1949 C1962 0.930 . S
H1950 C1963 0.930 . S
H1951 C1967 0.959 . S
H1952 C1967 0.959 . S
H1953 C1967 0.961 . S
H1954 C1968 0.960 . S
H1955 C1968 0.961 . S
H1956 C1968 0.959 . S
H1957 C1971 0.929 . S
H1958 C1972 0.931 . S
H1959 C1974 0.930 . S
C1960 H1948 0.930 . S
C1960 C1961 1.399 . S
C1960 C1965 1.399 . S
C1961 C1960 1.399 . S
C1961 C1962 1.376 . S
C1962 H1949 0.930 . S
C1962 C1961 1.376 . S
C1962 C1963 1.388 . S
C1963 H1950 0.930 . S
C1963 C1962 1.388 . S
C1963 C1964 1.390 . S
C1964 C1963 1.390 . S
C1964 C1965 1.394 . S
C1964 C1970 1.465 . S
C1965 C1960 1.399 . S
C1965 C1964 1.394 . S
C1965 C1966 1.516 . S
C1966 C1965 1.516 . S
C1966 C1967 1.502 . S
C1966 C1968 1.561 . S
C1966 C1969 1.526 . S
C1967 H1951 0.959 . S
C1967 H1952 0.959 . S
C1967 H1953 0.961 . S
C1967 C1966 1.502 . S
C1968 H1954 0.960 . S
C1968 H1955 0.961 . S
C1968 H1956 0.959 . S
C1968 C1966 1.561 . S
C1969 C1966 1.526 . S
C1969 C1970 1.396 . S
C1969 C1974 1.390 . S
C1970 C1964 1.465 . S
C1970 C1969 1.396 . S
C1970 C1971 1.399 . S
C1971 H1957 0.929 . S
C1971 C1970 1.399 . S
C1971 C1972 1.385 . S
C1972 H1958 0.931 . S
C1972 C1971 1.385 . S
C1972 C1973 1.389 . S
C1973 C1972 1.389 . S
C1973 C1974 1.387 . S
C1974 H1959 0.930 . S
C1974 C1969 1.390 . S
C1974 C1973 1.387 . S
H1975 C1987 0.930 . S
H1976 C1989 0.930 . S
H1977 C1990 0.930 . S
H1978 C1994 0.959 . S
H1979 C1994 0.959 . S
H1980 C1994 0.961 . S
H1981 C1995 0.960 . S
H1982 C1995 0.961 . S
H1983 C1995 0.959 . S
H1984 C1998 0.929 . S
H1985 C1999 0.931 . S
H1986 C2001 0.930 . S
C1987 H1975 0.930 . S
C1987 C1988 1.399 . S
C1987 C1992 1.399 . S
C1988 C1987 1.399 . S
C1988 C1989 1.376 . S
C1989 H1976 0.930 . S
C1989 C1988 1.376 . S
C1989 C1990 1.388 . S
C1990 H1977 0.930 . S
C1990 C1989 1.388 . S
C1990 C1991 1.390 . S
C1991 C1990 1.390 . S
C1991 C1992 1.394 . S
C1991 C1997 1.465 . S
C1992 C1987 1.399 . S
C1992 C1991 1.394 . S
C1992 C1993 1.516 . S
C1993 C1992 1.516 . S
C1993 C1994 1.502 . S
C1993 C1995 1.561 . S
C1993 C1996 1.526 . S
C1994 H1978 0.959 . S
C1994 H1979 0.959 . S
C1994 H1980 0.961 . S
C1994 C1993 1.502 . S
C1995 H1981 0.960 . S
C1995 H1982 0.961 . S
C1995 H1983 0.959 . S
C1995 C1993 1.561 . S
C1996 C1993 1.526 . S
C1996 C1997 1.396 . S
C1996 C2001 1.390 . S
C1997 C1991 1.465 . S
C1997 C1996 1.396 . S
C1997 C1998 1.399 . S
C1998 H1984 0.929 . S
C1998 C1997 1.399 . S
C1998 C1999 1.385 . S
C1999 H1985 0.931 . S
C1999 C1998 1.385 . S
C1999 C2000 1.389 . S
C2000 C1999 1.389 . S
C2000 C2001 1.387 . S
C2001 H1986 0.930 . S
C2001 C1996 1.390 . S
C2001 C2000 1.387 . S
H2002 C2014 0.930 . S
H2003 C2016 0.930 . S
H2004 C2017 0.930 . S
H2005 C2021 0.959 . S
H2006 C2021 0.959 . S
H2007 C2021 0.961 . S
H2008 C2022 0.960 . S
H2009 C2022 0.961 . S
H2010 C2022 0.959 . S
H2011 C2025 0.929 . S
H2012 C2026 0.931 . S
H2013 C2028 0.930 . S
C2014 H2002 0.930 . S
C2014 C2015 1.399 . S
C2014 C2019 1.399 . S
C2015 C2014 1.399 . S
C2015 C2016 1.376 . S
C2016 H2003 0.930 . S
C2016 C2015 1.376 . S
C2016 C2017 1.388 . S
C2017 H2004 0.930 . S
C2017 C2016 1.388 . S
C2017 C2018 1.390 . S
C2018 C2017 1.390 . S
C2018 C2019 1.394 . S
C2018 C2024 1.465 . S
C2019 C2014 1.399 . S
C2019 C2018 1.394 . S
C2019 C2020 1.516 . S
C2020 C2019 1.516 . S
C2020 C2021 1.502 . S
C2020 C2022 1.561 . S
C2020 C2023 1.526 . S
C2021 H2005 0.959 . S
C2021 H2006 0.959 . S
C2021 H2007 0.961 . S
C2021 C2020 1.502 . S
C2022 H2008 0.960 . S
C2022 H2009 0.961 . S
C2022 H2010 0.959 . S
C2022 C2020 1.561 . S
C2023 C2020 1.526 . S
C2023 C2024 1.396 . S
C2023 C2028 1.390 . S
C2024 C2018 1.465 . S
C2024 C2023 1.396 . S
C2024 C2025 1.399 . S
C2025 H2011 0.929 . S
C2025 C2024 1.399 . S
C2025 C2026 1.385 . S
C2026 H2012 0.931 . S
C2026 C2025 1.385 . S
C2026 C2027 1.389 . S
C2027 C2026 1.389 . S
C2027 C2028 1.387 . S
C2028 H2013 0.930 . S
C2028 C2023 1.390 . S
C2028 C2027 1.387 . S
H2029 C2041 0.930 . S
H2030 C2043 0.930 . S
H2031 C2044 0.930 . S
H2032 C2048 0.959 . S
H2033 C2048 0.959 . S
H2034 C2048 0.961 . S
H2035 C2049 0.960 . S
H2036 C2049 0.961 . S
H2037 C2049 0.959 . S
H2038 C2052 0.929 . S
H2039 C2053 0.931 . S
H2040 C2055 0.930 . S
C2041 H2029 0.930 . S
C2041 C2042 1.399 . S
C2041 C2046 1.399 . S
C2042 C2041 1.399 . S
C2042 C2043 1.376 . S
C2043 H2030 0.930 . S
C2043 C2042 1.376 . S
C2043 C2044 1.388 . S
C2044 H2031 0.930 . S
C2044 C2043 1.388 . S
C2044 C2045 1.390 . S
C2045 C2044 1.390 . S
C2045 C2046 1.394 . S
C2045 C2051 1.465 . S
C2046 C2041 1.399 . S
C2046 C2045 1.394 . S
C2046 C2047 1.516 . S
C2047 C2046 1.516 . S
C2047 C2048 1.502 . S
C2047 C2049 1.561 . S
C2047 C2050 1.526 . S
C2048 H2032 0.959 . S
C2048 H2033 0.959 . S
C2048 H2034 0.961 . S
C2048 C2047 1.502 . S
C2049 H2035 0.960 . S
C2049 H2036 0.961 . S
C2049 H2037 0.959 . S
C2049 C2047 1.561 . S
C2050 C2047 1.526 . S
C2050 C2051 1.396 . S
C2050 C2055 1.390 . S
C2051 C2045 1.465 . S
C2051 C2050 1.396 . S
C2051 C2052 1.399 . S
C2052 H2038 0.929 . S
C2052 C2051 1.399 . S
C2052 C2053 1.385 . S
C2053 H2039 0.931 . S
C2053 C2052 1.385 . S
C2053 C2054 1.389 . S
C2054 C2053 1.389 . S
C2054 C2055 1.387 . S
C2055 H2040 0.930 . S
C2055 C2050 1.390 . S
C2055 C2054 1.387 . S
C557 C1 1.814 . S
C569 C173 1.852 . S
C584 C37 1.827 . S
C596 C207 1.843 . S
C611 C241 1.820 . S
C623 C69 1.848 . S
C638 C103 1.829 . S
C650 C139 1.841 . S
C665 C445 1.789 . S
C677 C273 1.787 . S
C692 C307 1.851 . S
C704 C477 1.792 . S
C719 C341 1.795 . S
C731 C513 1.853 . S
C746 C411 1.816 . S
C758 C377 1.776 . S
C773 C504 1.319 1_554 S
C785 C6 1.340 . S
C800 C516 1.321 1_554 S
C812 C62 1.340 . S
C827 C74 1.326 . S
C839 C414 1.342 1_554 S
C854 C108 1.319 . S
C866 C448 1.327 1_554 S
C881 C164 1.330 . S
C893 C368 1.305 . S
C908 C198 1.319 . S
C920 C380 1.327 . S
C935 C232 1.333 . S
C947 C300 1.305 . S
C962 C334 1.304 . S
C974 C266 1.332 . S
C989 C210 1.307 1_556 S
C1001 C278 1.333 . S
C1016 C312 1.329 . S
C1028 C244 1.336 1_556 S
C1043 C346 1.320 . S
C1055 C142 1.333 1_556 S
C1070 C402 1.327 . S
C1082 C176 1.315 1_556 S
C1097 C436 1.319 . S
C1109 C96 1.335 . S
C1124 C130 1.306 . S
C1136 C470 1.334 . S
C1151 C482 1.319 . S
C1163 C28 1.339 . S
C1178 C538 1.330 . S
C1190 C40 1.311 . S
C1205 C3 1.508 . S
C1217 C396 1.541 . S
C1232 C35 1.506 . S
C1244 C287 1.542 . S
C1259 C321 1.554 . S
C1271 C71 1.428 . S
C1286 C105 1.468 . S
C1298 C355 1.538 . S
C1313 C464 1.545 . S
C1325 C137 1.443 . S
C1340 C171 1.446 . S
C1352 C491 1.544 . S
C1367 C205 1.436 . S
C1379 C532 1.547 . S
C1394 C239 1.515 . S
C1406 C430 1.537 . S
C1421 C275 1.504 . S
C1433 C117 1.549 . S
C1448 C15 1.554 . S
C1460 C309 1.441 . S
C1475 C56 1.539 . S
C1487 C343 1.514 . S
C1502 C83 1.555 . S
C1514 C375 1.456 . S
C1529 C192 1.537 . S
C1541 C409 1.446 . S
C1556 C226 1.555 . S
C1568 C443 1.446 . S
C1583 C260 1.555 . S
C1595 C479 1.460 . S
C1610 C158 1.539 . S
C1622 C511 1.514 . S
C1637 C22 1.703 . S
C1649 C119 1.988 . S
C1664 C49 1.777 . S
C1676 C17 1.968 . S
C1691 C51 1.980 . S
C1703 C90 1.733 . S
C1718 C85 1.963 . S
C1730 C124 1.790 . S
C1745 C187 1.990 . S
C1757 C151 1.702 . S
C1772 C221 1.982 . S
C1784 C185 1.724 . S
C1799 C255 1.980 . S
C1811 C219 1.736 . S
C1826 C153 1.966 . S
C1838 C253 1.781 . S
C1853 C391 1.967 . S
C1865 C294 1.790 . S
C1880 C328 1.687 . S
C1892 C289 1.995 . S
C1907 C362 1.681 . S
C1919 C323 1.990 . S
C1934 C357 1.985 . S
C1946 C389 1.753 . S
C1961 C459 1.992 . S
C1973 C423 1.682 . S
C1988 C457 1.719 . S
C2000 C493 1.974 . S
C2015 C527 1.969 . S
C2027 C498 1.789 . S
C2042 C425 1.975 . S
C2054 C525 1.779 . S
