# Generated by pormake.
# Topology uoq, (4)-cn, num edge types: 1
# Building blocks:
#     Node 0, Type 0, BuildingBlock: GALJAG_clean_sbu_0, # of connection points: 4
#     Node 1, Type 0, BuildingBlock: GALJAG_clean_sbu_0, # of connection points: 4
#     Node 2, Type 0, BuildingBlock: GALJAG_clean_sbu_0, # of connection points: 4
#     Node 3, Type 0, BuildingBlock: GALJAG_clean_sbu_0, # of connection points: 4
#     Node 4, Type 0, BuildingBlock: GALJAG_clean_sbu_0, # of connection points: 4
#     Node 5, Type 0, BuildingBlock: GALJAG_clean_sbu_0, # of connection points: 4
#     Node 6, Type 0, BuildingBlock: GALJAG_clean_sbu_0, # of connection points: 4
#     Node 7, Type 0, BuildingBlock: GALJAG_clean_sbu_0, # of connection points: 4
#     Node 8, Type 0, BuildingBlock: GALJAG_clean_sbu_0, # of connection points: 4
#     Node 9, Type 0, BuildingBlock: GALJAG_clean_sbu_0, # of connection points: 4
#     Node 10, Type 0, BuildingBlock: GALJAG_clean_sbu_0, # of connection points: 4
#     Node 11, Type 0, BuildingBlock: GALJAG_clean_sbu_0, # of connection points: 4
#     Edge 12, Type (0, 0), BuildingBlock: OJICUG_clean_linker_0, # of connection points: 2
#     Edge 13, Type (0, 0), BuildingBlock: OJICUG_clean_linker_0, # of connection points: 2
#     Edge 14, Type (0, 0), BuildingBlock: OJICUG_clean_linker_0, # of connection points: 2
#     Edge 15, Type (0, 0), BuildingBlock: OJICUG_clean_linker_0, # of connection points: 2
#     Edge 16, Type (0, 0), BuildingBlock: OJICUG_clean_linker_0, # of connection points: 2
#     Edge 17, Type (0, 0), BuildingBlock: OJICUG_clean_linker_0, # of connection points: 2
#     Edge 18, Type (0, 0), BuildingBlock: OJICUG_clean_linker_0, # of connection points: 2
#     Edge 19, Type (0, 0), BuildingBlock: OJICUG_clean_linker_0, # of connection points: 2
#     Edge 20, Type (0, 0), BuildingBlock: OJICUG_clean_linker_0, # of connection points: 2
#     Edge 21, Type (0, 0), BuildingBlock: OJICUG_clean_linker_0, # of connection points: 2
#     Edge 22, Type (0, 0), BuildingBlock: OJICUG_clean_linker_0, # of connection points: 2
#     Edge 23, Type (0, 0), BuildingBlock: OJICUG_clean_linker_0, # of connection points: 2
#     Edge 24, Type (0, 0), BuildingBlock: OJICUG_clean_linker_0, # of connection points: 2
#     Edge 25, Type (0, 0), BuildingBlock: OJICUG_clean_linker_0, # of connection points: 2
#     Edge 26, Type (0, 0), BuildingBlock: OJICUG_clean_linker_0, # of connection points: 2
#     Edge 27, Type (0, 0), BuildingBlock: OJICUG_clean_linker_0, # of connection points: 2
#     Edge 28, Type (0, 0), BuildingBlock: OJICUG_clean_linker_0, # of connection points: 2
#     Edge 29, Type (0, 0), BuildingBlock: OJICUG_clean_linker_0, # of connection points: 2
#     Edge 30, Type (0, 0), BuildingBlock: OJICUG_clean_linker_0, # of connection points: 2
#     Edge 31, Type (0, 0), BuildingBlock: OJICUG_clean_linker_0, # of connection points: 2
#     Edge 32, Type (0, 0), BuildingBlock: OJICUG_clean_linker_0, # of connection points: 2
#     Edge 33, Type (0, 0), BuildingBlock: OJICUG_clean_linker_0, # of connection points: 2
#     Edge 34, Type (0, 0), BuildingBlock: OJICUG_clean_linker_0, # of connection points: 2
#     Edge 35, Type (0, 0), BuildingBlock: OJICUG_clean_linker_0, # of connection points: 2
# Relax obj value: 0.135
# Max RMSD: 0.151
# Mean RMSD: 0.151
data_MOF--net-uoq--node1-GALJAG_clean_sbu_0--edge1-OJICUG_clean_linker_0
_symmetry_space_group_name_H-M    P1
_symmetry_Int_Tables_number       1
_symmetry_cell_setting            triclinic
loop_
_symmetry_equiv_pos_as_xyz
'x, y, z'
_cell_length_a     45.813341
_cell_length_b     45.732173
_cell_length_c     14.928051
_cell_angle_alpha  90.013308
_cell_angle_beta   89.898012
_cell_angle_gamma 120.17297
loop_
_atom_site_label
_atom_site_type_symbol
_atom_site_fract_x
_atom_site_fract_y
_atom_site_fract_z
_atom_type_partial_charge
In0 In 0.31512 0.45308 0.23483 0.0
O1 O 0.26898 0.42413 0.32301 0.0
O2 O 0.29523 0.47805 0.32631 0.0
C3 C 0.33309 0.40587 0.26075 0.0
C4 C 0.27664 0.4513 0.09407 0.0
C5 C 0.37533 0.50805 0.27304 0.0
O6 O 0.31838 0.4138 0.3189 0.0
O7 O 0.33774 0.42084 0.1862 0.0
O8 O 0.3667 0.49815 0.19311 0.0
O9 O 0.3538 0.49031 0.33146 0.0
C10 C 0.27095 0.45062 0.35484 0.0
O11 O 0.30021 0.47845 0.12612 0.0
O12 O 0.27464 0.42492 0.12692 0.0
In13 In 0.86235 0.31335 0.59156 0.0
O14 O 0.84387 0.26733 0.68108 0.0
O15 O 0.81723 0.29444 0.68227 0.0
C16 C 0.9277 0.33171 0.61734 0.0
C17 C 0.82488 0.27456 0.45187 0.0
C18 C 0.86902 0.37447 0.62372 0.0
O19 O 0.90544 0.31874 0.67736 0.0
O20 O 0.91681 0.33408 0.54135 0.0
O21 O 0.87121 0.36515 0.54528 0.0
O22 O 0.86328 0.35298 0.68408 0.0
C23 C 0.81943 0.26975 0.71135 0.0
O24 O 0.82372 0.30006 0.4792 0.0
O25 O 0.84742 0.2706 0.48886 0.0
In26 In 0.55076 0.86426 0.92818 0.0
O27 O 0.58282 0.85057 0.0158 0.0
O28 O 0.53078 0.83 0.04733 0.0
C29 C 0.59302 0.93173 0.94279 0.0
C30 C 0.55089 0.82402 0.79327 0.0
C31 C 0.49256 0.86325 0.96165 0.0
O32 O 0.59929 0.91043 0.97767 0.0
O33 O 0.5669 0.91916 0.89456 0.0
O34 O 0.51126 0.86242 0.02233 0.0
O35 O 0.50324 0.8647 0.88233 0.0
C36 C 0.55836 0.83174 0.06625 0.0
O37 O 0.57524 0.85361 0.80575 0.0
O38 O 0.52586 0.81623 0.84304 0.0
In39 In 0.68483 0.54907 0.24412 0.0
O40 O 0.73088 0.57801 0.33162 0.0
O41 O 0.7044 0.52409 0.33664 0.0
C42 C 0.66634 0.59545 0.27801 0.0
C43 C 0.72391 0.55182 0.1035 0.0
C44 C 0.62424 0.49341 0.27324 0.0
O45 O 0.67988 0.58578 0.33501 0.0
O46 O 0.66314 0.58269 0.20077 0.0
O47 O 0.63334 0.50605 0.19566 0.0
O48 O 0.64561 0.50872 0.33397 0.0
C49 C 0.72876 0.55158 0.3644 0.0
O50 O 0.70078 0.52446 0.136 0.0
O51 O 0.72523 0.57795 0.13597 0.0
In52 In 0.13514 0.69054 0.58655 0.0
O53 O 0.15277 0.70685 0.44069 0.0
O54 O 0.16303 0.74507 0.53694 0.0
C55 C 0.12954 0.62924 0.61099 0.0
C56 C 0.18284 0.72176 0.70894 0.0
C57 C 0.07115 0.67744 0.60824 0.0
O58 O 0.13765 0.64404 0.53582 0.0
O59 O 0.12392 0.64504 0.67097 0.0
O60 O 0.0944 0.69457 0.66311 0.0
O61 O 0.08061 0.66894 0.53828 0.0
C62 C 0.16705 0.73818 0.45779 0.0
O63 O 0.15271 0.71456 0.72188 0.0
O64 O 0.18899 0.71305 0.63422 0.0
In65 In 0.4434 0.13079 0.8884 0.0
O66 O 0.46841 0.1753 0.98145 0.0
O67 O 0.41484 0.14495 0.98757 0.0
C68 C 0.3987 0.06403 0.9047 0.0
C69 C 0.44192 0.1675 0.74641 0.0
C70 C 0.49869 0.12764 0.93356 0.0
O71 O 0.39456 0.08635 0.94229 0.0
O72 O 0.42399 0.07536 0.85318 0.0
O73 O 0.49027 0.12732 0.85254 0.0
O74 O 0.47912 0.12925 0.99042 0.0
C75 C 0.44128 0.17039 0.01637 0.0
O76 O 0.4688 0.1717 0.78086 0.0
O77 O 0.41562 0.14237 0.77711 0.0
In78 In 0.55405 0.68808 0.4194 0.0
O79 O 0.58381 0.73405 0.33116 0.0
O80 O 0.53085 0.71442 0.34761 0.0
C81 C 0.59878 0.66773 0.38267 0.0
C82 C 0.55728 0.72397 0.56765 0.0
C83 C 0.49738 0.62991 0.37648 0.0
O84 O 0.58836 0.68053 0.32549 0.0
O85 O 0.58771 0.6663 0.46134 0.0
O86 O 0.50996 0.63524 0.45436 0.0
O87 O 0.51302 0.65395 0.32216 0.0
C88 C 0.55832 0.73674 0.31354 0.0
O89 O 0.53081 0.69722 0.5448 0.0
O90 O 0.58301 0.73041 0.52182 0.0
In91 In 0.86633 0.5543 0.73834 0.0
O92 O 0.84781 0.5814 0.64845 0.0
O93 O 0.82055 0.52746 0.65034 0.0
C94 C 0.93083 0.60273 0.70582 0.0
C95 C 0.82951 0.55566 0.8796 0.0
C96 C 0.87246 0.49953 0.70663 0.0
O97 O 0.90793 0.59138 0.6476 0.0
O98 O 0.92118 0.5904 0.78348 0.0
O99 O 0.87618 0.51196 0.78449 0.0
O100 O 0.86592 0.51478 0.6468 0.0
C101 C 0.82315 0.55432 0.61948 0.0
O102 O 0.82827 0.52896 0.85236 0.0
O103 O 0.85179 0.58223 0.84154 0.0
In104 In 0.31143 0.86322 0.0771 0.0
O105 O 0.29745 0.84606 0.22449 0.0
O106 O 0.25896 0.84186 0.13727 0.0
C107 C 0.36863 0.86153 0.04697 0.0
C108 C 0.27685 0.81545 0.95661 0.0
C109 C 0.33189 0.92919 0.05038 0.0
O110 O 0.35727 0.85961 0.1256 0.0
O111 O 0.35111 0.86402 0.98591 0.0
O112 O 0.30425 0.90583 0.02031 0.0
O113 O 0.34751 0.91938 0.10007 0.0
C114 C 0.26635 0.83571 0.21347 0.0
O115 O 0.2883 0.84643 0.93995 0.0
O116 O 0.28305 0.80863 0.03366 0.0
In117 In 0.44379 0.31012 0.3842 0.0
O118 O 0.46777 0.29685 0.49976 0.0
O119 O 0.41461 0.26746 0.48647 0.0
C120 C 0.50013 0.36996 0.35317 0.0
C121 C 0.44155 0.26515 0.26727 0.0
C122 C 0.39899 0.33078 0.35251 0.0
O123 O 0.48733 0.36151 0.43078 0.0
O124 O 0.4847 0.34822 0.29312 0.0
O125 O 0.40901 0.31818 0.29352 0.0
O126 O 0.41035 0.33164 0.43035 0.0
C127 C 0.44072 0.27137 0.52575 0.0
O128 O 0.41504 0.26402 0.29573 0.0
O129 O 0.46886 0.28921 0.29681 0.0
In130 In 0.13506 0.45096 0.73051 0.0
O131 O 0.17249 0.47565 0.84619 0.0
O132 O 0.14992 0.42263 0.83119 0.0
C133 C 0.13094 0.50667 0.69574 0.0
C134 C 0.17706 0.44937 0.61025 0.0
C135 C 0.06955 0.40428 0.70253 0.0
O136 O 0.12465 0.49326 0.77286 0.0
O137 O 0.1393 0.4921 0.63819 0.0
O138 O 0.09188 0.41434 0.64257 0.0
O139 O 0.08035 0.41686 0.77927 0.0
C140 C 0.17168 0.4489 0.87117 0.0
O141 O 0.15148 0.42265 0.63774 0.0
O142 O 0.18105 0.47652 0.64317 0.0
In143 In 0.68056 0.13563 0.08796 0.0
O144 O 0.69618 0.17622 0.19658 0.0
O145 O 0.71959 0.14656 0.19969 0.0
C146 C 0.6217 0.13147 0.04206 0.0
C147 C 0.72291 0.1756 0.96105 0.0
C148 C 0.65859 0.06896 0.07152 0.0
O149 O 0.62961 0.13087 0.1231 0.0
O150 O 0.64346 0.13426 0.98545 0.0
O151 O 0.6854 0.0914 0.03522 0.0
O152 O 0.64418 0.08009 0.12187 0.0
C153 C 0.71865 0.17168 0.23099 0.0
O154 O 0.72264 0.14923 0.98709 0.0
O155 O 0.70146 0.18123 -0.00215 0.0
C156 C 0.34862 0.37543 0.37278 0.0
C157 C 0.34664 0.38345 0.28272 0.0
H158 H 0.36695 0.35265 0.46579 0.0
C159 C 0.35975 0.37178 0.21575 0.0
H160 H 0.33878 0.38416 0.42603 0.0
C161 C 0.37538 0.35327 0.23861 0.0
C162 C 0.37872 0.34659 0.32898 0.0
H163 H 0.35855 0.37753 0.14593 0.0
H164 H 0.38599 0.3453 0.18554 0.0
C165 C 0.36476 0.35744 0.39575 0.0
C166 C 0.97465 0.35095 0.72818 0.0
C167 C 0.96396 0.34651 0.63829 0.0
H168 H 0.01647 0.37293 0.81924 0.0
C169 C 0.98833 0.35887 0.57005 0.0
H170 H 0.95643 0.34176 0.78238 0.0
C171 C 0.02271 0.37632 0.59133 0.0
C172 C 0.03337 0.38221 0.68127 0.0
H173 H 0.98086 0.35582 0.50032 0.0
H174 H 0.04092 0.38633 0.53716 0.0
C175 C 0.00902 0.36886 0.74947 0.0
C176 C 0.59173 0.98308 0.99047 0.0
C177 C 0.61065 0.96741 0.97128 0.0
H178 H 0.59208 0.02706 0.04131 0.0
C179 C 0.64549 0.98488 0.98862 0.0
H180 H 0.56471 0.96986 0.97926 0.0
C181 C 0.66131 0.01796 0.02232 0.0
C182 C 0.64218 0.03331 0.04311 0.0
H183 H 0.66047 0.97307 0.97535 0.0
H184 H 0.68836 0.03144 0.03286 0.0
C185 C 0.60726 0.01551 0.02741 0.0
C186 C 0.64979 0.62356 0.39479 0.0
C187 C 0.6524 0.61723 0.30362 0.0
H188 H 0.63059 0.64436 0.49159 0.0
C189 C 0.63949 0.62986 0.23886 0.0
H190 H 0.65949 0.61409 0.44639 0.0
C191 C 0.62337 0.6476 0.2649 0.0
C192 C 0.6194 0.65258 0.35623 0.0
H193 H 0.64117 0.62541 0.16826 0.0
H194 H 0.61291 0.65632 0.21339 0.0
C195 C 0.63322 0.64085 0.42088 0.0
C196 C 0.99141 0.64205 0.74685 0.0
C197 C 0.96648 0.62591 0.68119 0.0
H198 H 0.0443 0.67205 0.77458 0.0
C199 C 0.97612 0.63011 0.59038 0.0
H200 H 0.98469 0.63934 0.81719 0.0
C201 C 0.01017 0.64833 0.56599 0.0
C202 C 0.03521 0.66332 0.63179 0.0
H203 H 0.95745 0.61799 0.53811 0.0
H204 H 0.01695 0.64973 0.49591 0.0
C205 C 0.02548 0.66091 0.72226 0.0
C206 C 0.32984 0.98028 -0.00267 0.0
C207 C 0.3482 0.96386 0.01432 0.0
H208 H 0.33181 0.02571 0.95018 0.0
C209 C 0.38241 0.97975 0.98983 0.0
H210 H 0.30332 0.96825 0.01473 0.0
C211 C 0.39808 0.01151 0.94902 0.0
C212 C 0.38016 0.02851 0.9346 0.0
H213 H 0.39693 0.96731 0.00074 0.0
H214 H 0.42462 0.02332 0.93187 0.0
C215 C 0.34597 0.01282 0.95968 0.0
C216 C 0.19713 0.419 0.95323 0.0
C217 C 0.19753 0.44916 0.93181 0.0
H218 H 0.22198 0.39599 0.02017 0.0
C219 C 0.22473 0.47999 0.96185 0.0
H220 H 0.17675 0.39485 0.93031 0.0
C221 C 0.25091 0.48068 0.01188 0.0
C222 C 0.25052 0.45055 0.03354 0.0
H223 H 0.22607 0.50372 0.9457 0.0
H224 H 0.27129 0.50488 0.03458 0.0
C225 C 0.22326 0.41968 0.00382 0.0
C226 C 0.77148 0.25242 0.36306 0.0
C227 C 0.79866 0.24877 0.39201 0.0
H228 H 0.72469 0.23076 0.2916 0.0
C229 C 0.79867 0.21883 0.37029 0.0
H230 H 0.77042 0.27495 0.37944 0.0
C231 C 0.77219 0.19325 0.32041 0.0
C232 C 0.745 0.19696 0.29156 0.0
H233 H 0.81902 0.21503 0.39244 0.0
H234 H 0.77319 0.17072 0.30366 0.0
C235 C 0.745 0.22686 0.31359 0.0
C236 C 0.52468 0.76597 0.72631 0.0
C237 C 0.55267 0.79884 0.73393 0.0
H238 H 0.50436 0.71646 0.66956 0.0
C239 C 0.58285 0.80631 0.69018 0.0
H240 H 0.50114 0.75921 0.75992 0.0
C241 C 0.58484 0.78155 0.6393 0.0
C242 C 0.55668 0.74878 0.63091 0.0
H243 H 0.605 0.83124 0.69559 0.0
H244 H 0.60825 0.78831 0.60501 0.0
C245 C 0.52663 0.7413 0.67532 0.0
C246 C 0.77755 0.58412 0.014 0.0
C247 C 0.75026 0.55305 0.04278 0.0
H248 H 0.82427 0.60942 0.94098 0.0
C249 C 0.74999 0.52308 0.01993 0.0
H250 H 0.77872 0.60769 0.03131 0.0
C251 C 0.7763 0.52411 0.96963 0.0
C252 C 0.80355 0.55512 0.94055 0.0
H253 H 0.72958 0.49874 0.04182 0.0
H254 H 0.77504 0.50047 0.95255 0.0
C255 C 0.80385 0.58513 0.96319 0.0
C256 C 0.18554 0.76145 0.30256 0.0
C257 C 0.19086 0.76467 0.39535 0.0
H258 H 0.20492 0.78229 0.17273 0.0
C259 C 0.2206 0.79255 0.42866 0.0
H260 H 0.16298 0.74015 0.27519 0.0
C261 C 0.24517 0.81606 0.37007 0.0
C262 C 0.23983 0.81283 0.27725 0.0
H263 H 0.22551 0.79542 0.50004 0.0
H264 H 0.26836 0.83659 0.3972 0.0
C265 C 0.2095 0.78565 0.2442 0.0
C266 C 0.41065 0.18955 0.65597 0.0
C267 C 0.44132 0.19312 0.68636 0.0
H268 H 0.38627 0.21166 0.58251 0.0
C269 C 0.47149 0.22315 0.66625 0.0
H270 H 0.38693 0.16691 0.67127 0.0
C271 C 0.47107 0.24897 0.61697 0.0
C272 C 0.44047 0.24542 0.58617 0.0
H273 H 0.49554 0.22696 0.68953 0.0
H274 H 0.49486 0.27157 0.602 0.0
C275 C 0.41024 0.21538 0.60614 0.0
C276 C 0.22822 0.48004 0.51606 0.0
C277 C 0.20077 0.44925 0.54477 0.0
H278 H 0.27201 0.5045 0.43316 0.0
C279 C 0.19643 0.4187 0.51085 0.0
H280 H 0.23212 0.50396 0.54129 0.0
C281 C 0.21937 0.41902 0.44886 0.0
C282 C 0.24679 0.44988 0.42023 0.0
H283 H 0.17541 0.39465 0.53222 0.0
H284 H 0.21561 0.39519 0.42336 0.0
C285 C 0.25104 0.48035 0.45423 0.0
C286 C 0.76874 0.25011 0.8072 0.0
C287 C 0.79479 0.24535 0.77464 0.0
H288 H 0.7254 0.2315 0.89164 0.0
C289 C 0.79671 0.21702 0.80209 0.0
H290 H 0.76665 0.27172 0.78676 0.0
C291 C 0.77295 0.19386 0.86195 0.0
C292 C 0.74711 0.19887 0.89509 0.0
H293 H 0.81654 0.21278 0.77747 0.0
H294 H 0.775 0.17229 0.8829 0.0
C295 C 0.74512 0.22708 0.86703 0.0
C296 C 0.53201 0.79103 0.19044 0.0
C297 C 0.56048 0.8108 0.137 0.0
H298 H 0.50913 0.75198 0.28838 0.0
C299 C 0.58944 0.80802 0.14681 0.0
H300 H 0.50944 0.79293 0.18465 0.0
C301 C 0.58925 0.78447 0.20652 0.0
C302 C 0.56006 0.76352 0.25644 0.0
H303 H 0.6117 0.82309 0.10622 0.0
H304 H 0.61145 0.78191 0.21141 0.0
C305 C 0.53177 0.76752 0.24954 0.0
C306 C 0.74925 0.52222 0.46331 0.0
C307 C 0.7529 0.55255 0.42992 0.0
H308 H 0.76884 0.49912 0.54986 0.0
C309 C 0.77979 0.58359 0.45926 0.0
H310 H 0.7287 0.49795 0.44162 0.0
C311 C 0.80279 0.58426 0.52126 0.0
C312 C 0.79912 0.55389 0.55446 0.0
H313 H 0.78308 0.6073 0.4343 0.0
H314 H 0.82339 0.60848 0.54305 0.0
C315 C 0.7722 0.52289 0.52514 0.0
C316 C 0.23915 0.7706 0.7407 0.0
C317 C 0.2094 0.74254 0.77206 0.0
H318 H 0.28395 0.81668 0.77634 0.0
C319 C 0.20352 0.73692 0.8642 0.0
H320 H 0.24376 0.77537 0.6695 0.0
C321 C 0.22684 0.75982 0.92485 0.0
C322 C 0.25547 0.78909 0.89345 0.0
H323 H 0.18053 0.71535 0.88904 0.0
H324 H 0.22153 0.75571 -0.00404 0.0
C325 C 0.26186 0.79417 0.80131 0.0
C326 C 0.47145 0.2202 0.11527 0.0
C327 C 0.44083 0.1935 0.08337 0.0
H328 H 0.49557 0.26385 0.19867 0.0
C329 C 0.4102 0.18997 0.11356 0.0
H330 H 0.49543 0.2234 0.09315 0.0
C331 C 0.41028 0.21328 0.17392 0.0
C332 C 0.44099 0.24025 0.20472 0.0
H333 H 0.38626 0.16955 0.08966 0.0
H334 H 0.3864 0.21033 0.19596 0.0
C335 C 0.47154 0.24336 0.17551 0.0
C336 C 0.42791 0.5623 0.23338 0.0
C337 C 0.40748 0.53848 0.29805 0.0
H338 H 0.47227 0.61011 0.20783 0.0
C339 C 0.41731 0.54452 0.38857 0.0
H340 H 0.42094 0.55836 0.16327 0.0
C341 C 0.44676 0.57396 0.41411 0.0
C342 C 0.4668 0.59815 0.34977 0.0
H343 H 0.4021 0.52655 0.44001 0.0
H344 H 0.45355 0.57799 0.48435 0.0
C345 C 0.4572 0.59196 0.25908 0.0
C346 C 0.87432 0.44797 0.75474 0.0
C347 C 0.87401 0.46872 0.68603 0.0
H348 H 0.87281 0.40175 0.78866 0.0
C349 C 0.87359 0.45898 0.59634 0.0
H350 H 0.87462 0.4548 0.82436 0.0
C351 C 0.87277 0.42875 0.57576 0.0
C352 C 0.87203 0.40749 0.64448 0.0
H353 H 0.87347 0.47455 0.54182 0.0
H354 H 0.87198 0.4217 0.50614 0.0
C355 C 0.87317 0.41756 0.73416 0.0
C356 C 0.45018 0.86013 0.07299 0.0
C357 C 0.4607 0.86251 0.98325 0.0
H358 H 0.41273 0.85786 0.1638 0.0
C359 C 0.44059 0.86421 0.91516 0.0
H360 H 0.46517 0.85872 0.12703 0.0
C361 C 0.41062 0.86371 0.93635 0.0
C362 C 0.40014 0.86146 0.02606 0.0
H363 H 0.44803 0.86605 0.84553 0.0
H364 H 0.39571 0.86519 0.8822 0.0
C365 C 0.42016 0.85959 0.0942 0.0
C366 C 0.57094 0.44193 0.22361 0.0
C367 C 0.59159 0.4627 0.29288 0.0
H368 H 0.52584 0.39613 0.18867 0.0
C369 C 0.58135 0.45335 0.38232 0.0
H370 H 0.57819 0.4485 0.15419 0.0
C371 C 0.55128 0.42357 0.40218 0.0
C372 C 0.53105 0.40236 0.33299 0.0
H373 H 0.59672 0.46897 0.43721 0.0
H374 H 0.54421 0.41686 0.47165 0.0
C375 C 0.54104 0.41194 0.24351 0.0
C376 C 0.11969 0.58292 0.71714 0.0
C377 C 0.12825 0.59691 0.63046 0.0
H378 H 0.11383 0.54347 0.8059 0.0
C379 C 0.13676 0.58048 0.56499 0.0
H380 H 0.11298 0.59501 0.76918 0.0
C381 C 0.13725 0.55093 0.58625 0.0
C382 C 0.12927 0.5373 0.67339 0.0
H383 H 0.14348 0.59066 0.49778 0.0
H384 H 0.14426 0.53898 0.53452 0.0
C385 C 0.1202 0.55342 0.73839 0.0
C386 C 0.58216 0.12926 0.92316 0.0
C387 C 0.58971 0.12942 0.01458 0.0
H388 H 0.5474 0.12838 0.82571 0.0
C389 C 0.56665 0.12804 0.07883 0.0
H390 H 0.59941 0.13021 0.87198 0.0
C391 C 0.5369 0.12703 0.05223 0.0
C392 C 0.52955 0.1273 0.96083 0.0
H393 H 0.57173 0.12806 0.14968 0.0
H394 H 0.51978 0.12633 0.10344 0.0
C395 C 0.55236 0.12816 0.89655 0.0
loop_
_geom_bond_atom_site_label_1
_geom_bond_atom_site_label_2
_geom_bond_distance
_geom_bond_site_symmetry_2
_ccdc_geom_bond_type
In0 O1 2.294 . S
In0 O2 2.326 . S
In0 O6 2.266 . S
In0 O7 2.326 . S
In0 O8 2.266 . S
In0 O9 2.326 . S
In0 O11 2.294 . S
In0 O12 2.326 . S
O1 In0 2.294 . S
O1 C10 1.240 . S
O2 In0 2.326 . S
O2 C10 1.252 . S
C3 O6 1.252 . S
C3 O7 1.260 . S
C4 O11 1.240 . S
C4 O12 1.252 . S
C5 O8 1.252 . S
C5 O9 1.260 . S
O6 In0 2.266 . S
O6 C3 1.252 . S
O7 In0 2.326 . S
O7 C3 1.260 . S
O8 In0 2.266 . S
O8 C5 1.252 . S
O9 In0 2.326 . S
O9 C5 1.260 . S
C10 O1 1.240 . S
C10 O2 1.252 . S
O11 In0 2.294 . S
O11 C4 1.240 . S
O12 In0 2.326 . S
O12 C4 1.252 . S
In13 O14 2.294 . S
In13 O15 2.326 . S
In13 O19 2.266 . S
In13 O20 2.326 . S
In13 O21 2.266 . S
In13 O22 2.326 . S
In13 O24 2.294 . S
In13 O25 2.326 . S
O14 In13 2.294 . S
O14 C23 1.240 . S
O15 In13 2.326 . S
O15 C23 1.252 . S
C16 O19 1.252 . S
C16 O20 1.260 . S
C17 O24 1.240 . S
C17 O25 1.252 . S
C18 O21 1.252 . S
C18 O22 1.260 . S
O19 In13 2.266 . S
O19 C16 1.252 . S
O20 In13 2.326 . S
O20 C16 1.260 . S
O21 In13 2.266 . S
O21 C18 1.252 . S
O22 In13 2.326 . S
O22 C18 1.260 . S
C23 O14 1.240 . S
C23 O15 1.252 . S
O24 In13 2.294 . S
O24 C17 1.240 . S
O25 In13 2.326 . S
O25 C17 1.252 . S
In26 O27 2.294 1_556 S
In26 O28 2.326 . S
In26 O32 2.266 . S
In26 O33 2.326 . S
In26 O34 2.266 . S
In26 O35 2.326 1_556 S
In26 O37 2.294 . S
In26 O38 2.326 . S
O27 In26 2.294 1_554 S
O27 C36 1.240 . S
O28 In26 2.326 . S
O28 C36 1.252 1_556 S
C29 O32 1.252 . S
C29 O33 1.260 . S
C30 O37 1.240 . S
C30 O38 1.252 . S
C31 O34 1.252 . S
C31 O35 1.260 1_556 S
O32 In26 2.266 . S
O32 C29 1.252 . S
O33 In26 2.326 . S
O33 C29 1.260 . S
O34 In26 2.266 . S
O34 C31 1.252 . S
O35 In26 2.326 1_554 S
O35 C31 1.260 1_554 S
C36 O27 1.240 . S
C36 O28 1.252 1_554 S
O37 In26 2.294 . S
O37 C30 1.240 . S
O38 In26 2.326 . S
O38 C30 1.252 . S
In39 O40 2.294 . S
In39 O41 2.326 . S
In39 O45 2.266 . S
In39 O46 2.326 . S
In39 O47 2.266 . S
In39 O48 2.326 . S
In39 O50 2.294 . S
In39 O51 2.326 . S
O40 In39 2.294 . S
O40 C49 1.240 . S
O41 In39 2.326 . S
O41 C49 1.252 . S
C42 O45 1.252 . S
C42 O46 1.260 . S
C43 O50 1.240 . S
C43 O51 1.252 . S
C44 O47 1.252 . S
C44 O48 1.260 . S
O45 In39 2.266 . S
O45 C42 1.252 . S
O46 In39 2.326 . S
O46 C42 1.260 . S
O47 In39 2.266 . S
O47 C44 1.252 . S
O48 In39 2.326 . S
O48 C44 1.260 . S
C49 O40 1.240 . S
C49 O41 1.252 . S
O50 In39 2.294 . S
O50 C43 1.240 . S
O51 In39 2.326 . S
O51 C43 1.252 . S
In52 O53 2.294 . S
In52 O54 2.326 . S
In52 O58 2.266 . S
In52 O59 2.326 . S
In52 O60 2.266 . S
In52 O61 2.326 . S
In52 O63 2.294 . S
In52 O64 2.326 . S
O53 In52 2.294 . S
O53 C62 1.240 . S
O54 In52 2.326 . S
O54 C62 1.252 . S
C55 O58 1.252 . S
C55 O59 1.260 . S
C56 O63 1.240 . S
C56 O64 1.252 . S
C57 O60 1.252 . S
C57 O61 1.260 . S
O58 In52 2.266 . S
O58 C55 1.252 . S
O59 In52 2.326 . S
O59 C55 1.260 . S
O60 In52 2.266 . S
O60 C57 1.252 . S
O61 In52 2.326 . S
O61 C57 1.260 . S
C62 O53 1.240 . S
C62 O54 1.252 . S
O63 In52 2.294 . S
O63 C56 1.240 . S
O64 In52 2.326 . S
O64 C56 1.252 . S
In65 O66 2.294 1_556 S
In65 O67 2.326 . S
In65 O71 2.266 . S
In65 O72 2.326 . S
In65 O73 2.266 . S
In65 O74 2.326 1_556 S
In65 O76 2.294 . S
In65 O77 2.326 . S
O66 In65 2.294 1_554 S
O66 C75 1.240 . S
O67 In65 2.326 . S
O67 C75 1.252 1_556 S
C68 O71 1.252 . S
C68 O72 1.260 . S
C69 O76 1.240 . S
C69 O77 1.252 . S
C70 O73 1.252 . S
C70 O74 1.260 1_556 S
O71 In65 2.266 . S
O71 C68 1.252 . S
O72 In65 2.326 . S
O72 C68 1.260 . S
O73 In65 2.266 . S
O73 C70 1.252 . S
O74 In65 2.326 1_554 S
O74 C70 1.260 1_554 S
C75 O66 1.240 . S
C75 O67 1.252 1_554 S
O76 In65 2.294 . S
O76 C69 1.240 . S
O77 In65 2.326 . S
O77 C69 1.252 . S
In78 O79 2.294 . S
In78 O80 2.326 . S
In78 O84 2.266 . S
In78 O85 2.326 . S
In78 O86 2.266 . S
In78 O87 2.326 . S
In78 O89 2.294 . S
In78 O90 2.326 . S
O79 In78 2.294 . S
O79 C88 1.240 . S
O80 In78 2.326 . S
O80 C88 1.252 . S
C81 O84 1.252 . S
C81 O85 1.260 . S
C82 O89 1.240 . S
C82 O90 1.252 . S
C83 O86 1.252 . S
C83 O87 1.260 . S
O84 In78 2.266 . S
O84 C81 1.252 . S
O85 In78 2.326 . S
O85 C81 1.260 . S
O86 In78 2.266 . S
O86 C83 1.252 . S
O87 In78 2.326 . S
O87 C83 1.260 . S
C88 O79 1.240 . S
C88 O80 1.252 . S
O89 In78 2.294 . S
O89 C82 1.240 . S
O90 In78 2.326 . S
O90 C82 1.252 . S
In91 O92 2.294 . S
In91 O93 2.326 . S
In91 O97 2.266 . S
In91 O98 2.326 . S
In91 O99 2.266 . S
In91 O100 2.326 . S
In91 O102 2.294 . S
In91 O103 2.326 . S
O92 In91 2.294 . S
O92 C101 1.240 . S
O93 In91 2.326 . S
O93 C101 1.252 . S
C94 O97 1.252 . S
C94 O98 1.260 . S
C95 O102 1.240 . S
C95 O103 1.252 . S
C96 O99 1.252 . S
C96 O100 1.260 . S
O97 In91 2.266 . S
O97 C94 1.252 . S
O98 In91 2.326 . S
O98 C94 1.260 . S
O99 In91 2.266 . S
O99 C96 1.252 . S
O100 In91 2.326 . S
O100 C96 1.260 . S
C101 O92 1.240 . S
C101 O93 1.252 . S
O102 In91 2.294 . S
O102 C95 1.240 . S
O103 In91 2.326 . S
O103 C95 1.252 . S
In104 O105 2.294 . S
In104 O106 2.326 . S
In104 O110 2.266 . S
In104 O111 2.326 1_554 S
In104 O112 2.266 . S
In104 O113 2.326 . S
In104 O115 2.294 1_554 S
In104 O116 2.326 . S
O105 In104 2.294 . S
O105 C114 1.240 . S
O106 In104 2.326 . S
O106 C114 1.252 . S
C107 O110 1.252 . S
C107 O111 1.260 1_554 S
C108 O115 1.240 . S
C108 O116 1.252 1_556 S
C109 O112 1.252 . S
C109 O113 1.260 . S
O110 In104 2.266 . S
O110 C107 1.252 . S
O111 In104 2.326 1_556 S
O111 C107 1.260 1_556 S
O112 In104 2.266 . S
O112 C109 1.252 . S
O113 In104 2.326 . S
O113 C109 1.260 . S
C114 O105 1.240 . S
C114 O106 1.252 . S
O115 In104 2.294 1_556 S
O115 C108 1.240 . S
O116 In104 2.326 . S
O116 C108 1.252 1_554 S
In117 O118 2.294 . S
In117 O119 2.326 . S
In117 O123 2.266 . S
In117 O124 2.326 . S
In117 O125 2.266 . S
In117 O126 2.326 . S
In117 O128 2.294 . S
In117 O129 2.326 . S
O118 In117 2.294 . S
O118 C127 1.240 . S
O119 In117 2.326 . S
O119 C127 1.252 . S
C120 O123 1.252 . S
C120 O124 1.260 . S
C121 O128 1.240 . S
C121 O129 1.252 . S
C122 O125 1.252 . S
C122 O126 1.260 . S
O123 In117 2.266 . S
O123 C120 1.252 . S
O124 In117 2.326 . S
O124 C120 1.260 . S
O125 In117 2.266 . S
O125 C122 1.252 . S
O126 In117 2.326 . S
O126 C122 1.260 . S
C127 O118 1.240 . S
C127 O119 1.252 . S
O128 In117 2.294 . S
O128 C121 1.240 . S
O129 In117 2.326 . S
O129 C121 1.252 . S
In130 O131 2.294 . S
In130 O132 2.326 . S
In130 O136 2.266 . S
In130 O137 2.326 . S
In130 O138 2.266 . S
In130 O139 2.326 . S
In130 O141 2.294 . S
In130 O142 2.326 . S
O131 In130 2.294 . S
O131 C140 1.240 . S
O132 In130 2.326 . S
O132 C140 1.252 . S
C133 O136 1.252 . S
C133 O137 1.260 . S
C134 O141 1.240 . S
C134 O142 1.252 . S
C135 O138 1.252 . S
C135 O139 1.260 . S
O136 In130 2.266 . S
O136 C133 1.252 . S
O137 In130 2.326 . S
O137 C133 1.260 . S
O138 In130 2.266 . S
O138 C135 1.252 . S
O139 In130 2.326 . S
O139 C135 1.260 . S
C140 O131 1.240 . S
C140 O132 1.252 . S
O141 In130 2.294 . S
O141 C134 1.240 . S
O142 In130 2.326 . S
O142 C134 1.252 . S
In143 O144 2.294 . S
In143 O145 2.326 . S
In143 O149 2.266 . S
In143 O150 2.326 1_554 S
In143 O151 2.266 . S
In143 O152 2.326 . S
In143 O154 2.294 1_554 S
In143 O155 2.326 . S
O144 In143 2.294 . S
O144 C153 1.240 . S
O145 In143 2.326 . S
O145 C153 1.252 . S
C146 O149 1.252 . S
C146 O150 1.260 1_554 S
C147 O154 1.240 . S
C147 O155 1.252 1_556 S
C148 O151 1.252 . S
C148 O152 1.260 . S
O149 In143 2.266 . S
O149 C146 1.252 . S
O150 In143 2.326 1_556 S
O150 C146 1.260 1_556 S
O151 In143 2.266 . S
O151 C148 1.252 . S
O152 In143 2.326 . S
O152 C148 1.260 . S
C153 O144 1.240 . S
C153 O145 1.252 . S
O154 In143 2.294 1_556 S
O154 C147 1.240 . S
O155 In143 2.326 . S
O155 C147 1.252 1_554 S
C156 C157 1.387 . S
C156 H160 0.950 . S
C156 C165 1.390 . S
C157 C156 1.387 . S
C157 C159 1.387 . S
H158 C165 0.950 . S
C159 C157 1.387 . S
C159 C161 1.390 . S
C159 H163 0.950 . S
H160 C156 0.950 . S
C161 C159 1.390 . S
C161 C162 1.387 . S
C161 H164 0.950 . S
C162 C161 1.387 . S
C162 C165 1.387 . S
H163 C159 0.950 . S
H164 C161 0.950 . S
C165 C156 1.390 . S
C165 H158 0.950 . S
C165 C162 1.387 . S
C166 C167 1.387 . S
C166 H170 0.950 . S
C166 C175 1.390 1_655 S
C167 C166 1.387 . S
C167 C169 1.387 . S
H168 C175 0.950 . S
C169 C167 1.387 . S
C169 C171 1.390 1_655 S
C169 H173 0.950 . S
H170 C166 0.950 . S
C171 C169 1.390 1_455 S
C171 C172 1.387 . S
C171 H174 0.950 . S
C172 C171 1.387 . S
C172 C175 1.387 . S
H173 C169 0.950 . S
H174 C171 0.950 . S
C175 C166 1.390 1_455 S
C175 H168 0.950 . S
C175 C172 1.387 . S
C176 C177 1.387 . S
C176 H180 0.950 . S
C176 C185 1.390 1_566 S
C177 C176 1.387 . S
C177 C179 1.387 . S
H178 C185 0.950 . S
C179 C177 1.387 . S
C179 C181 1.390 1_566 S
C179 H183 0.950 . S
H180 C176 0.950 . S
C181 C179 1.390 1_544 S
C181 C182 1.387 . S
C181 H184 0.950 . S
C182 C181 1.387 . S
C182 C185 1.387 . S
H183 C179 0.950 . S
H184 C181 0.950 . S
C185 C176 1.390 1_544 S
C185 H178 0.950 . S
C185 C182 1.387 . S
C186 C187 1.387 . S
C186 H190 0.950 . S
C186 C195 1.390 . S
C187 C186 1.387 . S
C187 C189 1.387 . S
H188 C195 0.950 . S
C189 C187 1.387 . S
C189 C191 1.390 . S
C189 H193 0.950 . S
H190 C186 0.950 . S
C191 C189 1.390 . S
C191 C192 1.387 . S
C191 H194 0.950 . S
C192 C191 1.387 . S
C192 C195 1.387 . S
H193 C189 0.950 . S
H194 C191 0.950 . S
C195 C186 1.390 . S
C195 H188 0.950 . S
C195 C192 1.387 . S
C196 C197 1.409 . S
C196 H200 0.951 . S
C196 C205 1.368 1_655 S
C197 C196 1.409 . S
C197 C199 1.387 . S
H198 C205 0.950 . S
C199 C197 1.387 . S
C199 C201 1.368 1_655 S
C199 H203 0.950 . S
H200 C196 0.951 . S
C201 C199 1.368 1_455 S
C201 C202 1.409 . S
C201 H204 0.951 . S
C202 C201 1.409 . S
C202 C205 1.387 . S
H203 C199 0.950 . S
H204 C201 0.951 . S
C205 C196 1.368 1_455 S
C205 H198 0.950 . S
C205 C202 1.387 . S
C206 C207 1.387 . S
C206 H210 0.950 . S
C206 C215 1.390 1_564 S
C207 C206 1.387 . S
C207 C209 1.387 . S
H208 C215 0.950 . S
C209 C207 1.387 . S
C209 C211 1.390 1_564 S
C209 H213 0.950 . S
H210 C206 0.950 . S
C211 C209 1.390 1_546 S
C211 C212 1.387 . S
C211 H214 0.950 . S
C212 C211 1.387 . S
C212 C215 1.387 . S
H213 C209 0.950 . S
H214 C211 0.950 . S
C215 C206 1.390 1_546 S
C215 H208 0.950 . S
C215 C212 1.387 . S
C216 C217 1.387 . S
C216 H220 0.950 . S
C216 C225 1.390 1_556 S
C217 C216 1.387 . S
C217 C219 1.387 . S
H218 C225 0.950 . S
C219 C217 1.387 . S
C219 C221 1.390 1_556 S
C219 H223 0.950 . S
H220 C216 0.950 . S
C221 C219 1.390 1_554 S
C221 C222 1.387 . S
C221 H224 0.950 . S
C222 C221 1.387 . S
C222 C225 1.387 . S
H223 C219 0.950 . S
H224 C221 0.950 . S
C225 C216 1.390 1_554 S
C225 H218 0.950 . S
C225 C222 1.387 . S
C226 C227 1.387 . S
C226 H230 0.950 . S
C226 C235 1.390 . S
C227 C226 1.387 . S
C227 C229 1.387 . S
H228 C235 0.950 . S
C229 C227 1.387 . S
C229 C231 1.390 . S
C229 H233 0.950 . S
H230 C226 0.950 . S
C231 C229 1.390 . S
C231 C232 1.387 . S
C231 H234 0.950 . S
C232 C231 1.387 . S
C232 C235 1.387 . S
H233 C229 0.950 . S
H234 C231 0.950 . S
C235 C226 1.390 . S
C235 H228 0.950 . S
C235 C232 1.387 . S
C236 C237 1.387 . S
C236 H240 0.950 . S
C236 C245 1.390 . S
C237 C236 1.387 . S
C237 C239 1.387 . S
H238 C245 0.950 . S
C239 C237 1.387 . S
C239 C241 1.390 . S
C239 H243 0.950 . S
H240 C236 0.950 . S
C241 C239 1.390 . S
C241 C242 1.387 . S
C241 H244 0.950 . S
C242 C241 1.387 . S
C242 C245 1.387 . S
H243 C239 0.950 . S
H244 C241 0.950 . S
C245 C236 1.390 . S
C245 H238 0.950 . S
C245 C242 1.387 . S
C246 C247 1.387 . S
C246 H250 0.950 . S
C246 C255 1.390 1_554 S
C247 C246 1.387 . S
C247 C249 1.387 . S
H248 C255 0.950 . S
C249 C247 1.387 . S
C249 C251 1.390 1_554 S
C249 H253 0.950 . S
H250 C246 0.950 . S
C251 C249 1.390 1_556 S
C251 C252 1.387 . S
C251 H254 0.950 . S
C252 C251 1.387 . S
C252 C255 1.387 . S
H253 C249 0.950 . S
H254 C251 0.950 . S
C255 C246 1.390 1_556 S
C255 H248 0.950 . S
C255 C252 1.387 . S
C256 C257 1.387 . S
C256 H260 0.950 . S
C256 C265 1.390 . S
C257 C256 1.387 . S
C257 C259 1.387 . S
H258 C265 0.950 . S
C259 C257 1.387 . S
C259 C261 1.390 . S
C259 H263 0.950 . S
H260 C256 0.950 . S
C261 C259 1.390 . S
C261 C262 1.387 . S
C261 H264 0.950 . S
C262 C261 1.387 . S
C262 C265 1.387 . S
H263 C259 0.950 . S
H264 C261 0.950 . S
C265 C256 1.390 . S
C265 H258 0.950 . S
C265 C262 1.387 . S
C266 C267 1.387 . S
C266 H270 0.950 . S
C266 C275 1.390 . S
C267 C266 1.387 . S
C267 C269 1.387 . S
H268 C275 0.950 . S
C269 C267 1.387 . S
C269 C271 1.390 . S
C269 H273 0.950 . S
H270 C266 0.950 . S
C271 C269 1.390 . S
C271 C272 1.387 . S
C271 H274 0.950 . S
C272 C271 1.387 . S
C272 C275 1.387 . S
H273 C269 0.950 . S
H274 C271 0.950 . S
C275 C266 1.390 . S
C275 H268 0.950 . S
C275 C272 1.387 . S
C276 C277 1.387 . S
C276 H280 0.950 . S
C276 C285 1.390 . S
C277 C276 1.387 . S
C277 C279 1.387 . S
H278 C285 0.950 . S
C279 C277 1.387 . S
C279 C281 1.390 . S
C279 H283 0.950 . S
H280 C276 0.950 . S
C281 C279 1.390 . S
C281 C282 1.387 . S
C281 H284 0.950 . S
C282 C281 1.387 . S
C282 C285 1.387 . S
H283 C279 0.950 . S
H284 C281 0.950 . S
C285 C276 1.390 . S
C285 H278 0.950 . S
C285 C282 1.387 . S
C286 C287 1.387 . S
C286 H290 0.950 . S
C286 C295 1.390 . S
C287 C286 1.387 . S
C287 C289 1.387 . S
H288 C295 0.950 . S
C289 C287 1.387 . S
C289 C291 1.390 . S
C289 H293 0.950 . S
H290 C286 0.950 . S
C291 C289 1.390 . S
C291 C292 1.387 . S
C291 H294 0.950 . S
C292 C291 1.387 . S
C292 C295 1.387 . S
H293 C289 0.950 . S
H294 C291 0.950 . S
C295 C286 1.390 . S
C295 H288 0.950 . S
C295 C292 1.387 . S
C296 C297 1.387 . S
C296 H300 0.950 . S
C296 C305 1.390 . S
C297 C296 1.387 . S
C297 C299 1.387 . S
H298 C305 0.950 . S
C299 C297 1.387 . S
C299 C301 1.390 . S
C299 H303 0.950 . S
H300 C296 0.950 . S
C301 C299 1.390 . S
C301 C302 1.387 . S
C301 H304 0.950 . S
C302 C301 1.387 . S
C302 C305 1.387 . S
H303 C299 0.950 . S
H304 C301 0.950 . S
C305 C296 1.390 . S
C305 H298 0.950 . S
C305 C302 1.387 . S
C306 C307 1.387 . S
C306 H310 0.950 . S
C306 C315 1.390 . S
C307 C306 1.387 . S
C307 C309 1.387 . S
H308 C315 0.950 . S
C309 C307 1.387 . S
C309 C311 1.390 . S
C309 H313 0.950 . S
H310 C306 0.950 . S
C311 C309 1.390 . S
C311 C312 1.387 . S
C311 H314 0.950 . S
C312 C311 1.387 . S
C312 C315 1.387 . S
H313 C309 0.950 . S
H314 C311 0.950 . S
C315 C306 1.390 . S
C315 H308 0.950 . S
C315 C312 1.387 . S
C316 C317 1.387 . S
C316 H320 0.950 . S
C316 C325 1.390 . S
C317 C316 1.387 . S
C317 C319 1.387 . S
H318 C325 0.950 . S
C319 C317 1.387 . S
C319 C321 1.390 . S
C319 H323 0.950 . S
H320 C316 0.950 . S
C321 C319 1.390 . S
C321 C322 1.387 . S
C321 H324 0.950 . S
C322 C321 1.387 . S
C322 C325 1.387 . S
H323 C319 0.950 . S
H324 C321 0.950 . S
C325 C316 1.390 . S
C325 H318 0.950 . S
C325 C322 1.387 . S
C326 C327 1.387 . S
C326 H330 0.950 . S
C326 C335 1.390 . S
C327 C326 1.387 . S
C327 C329 1.387 . S
H328 C335 0.950 . S
C329 C327 1.387 . S
C329 C331 1.390 . S
C329 H333 0.950 . S
H330 C326 0.950 . S
C331 C329 1.390 . S
C331 C332 1.387 . S
C331 H334 0.950 . S
C332 C331 1.387 . S
C332 C335 1.387 . S
H333 C329 0.950 . S
H334 C331 0.950 . S
C335 C326 1.390 . S
C335 H328 0.950 . S
C335 C332 1.387 . S
C336 C337 1.387 . S
C336 H340 0.950 . S
C336 C345 1.390 . S
C337 C336 1.387 . S
C337 C339 1.387 . S
H338 C345 0.950 . S
C339 C337 1.387 . S
C339 C341 1.390 . S
C339 H343 0.950 . S
H340 C336 0.950 . S
C341 C339 1.390 . S
C341 C342 1.387 . S
C341 H344 0.950 . S
C342 C341 1.387 . S
C342 C345 1.387 . S
H343 C339 0.950 . S
H344 C341 0.950 . S
C345 C336 1.390 . S
C345 H338 0.950 . S
C345 C342 1.387 . S
C346 C347 1.387 . S
C346 H350 0.950 . S
C346 C355 1.390 . S
C347 C346 1.387 . S
C347 C349 1.387 . S
H348 C355 0.950 . S
C349 C347 1.387 . S
C349 C351 1.390 . S
C349 H353 0.950 . S
H350 C346 0.950 . S
C351 C349 1.390 . S
C351 C352 1.387 . S
C351 H354 0.950 . S
C352 C351 1.387 . S
C352 C355 1.387 . S
H353 C349 0.950 . S
H354 C351 0.950 . S
C355 C346 1.390 . S
C355 H348 0.950 . S
C355 C352 1.387 . S
C356 C357 1.387 . S
C356 H360 0.950 . S
C356 C365 1.390 1_556 S
C357 C356 1.387 . S
C357 C359 1.387 . S
H358 C365 0.950 . S
C359 C357 1.387 . S
C359 C361 1.390 1_556 S
C359 H363 0.950 . S
H360 C356 0.950 . S
C361 C359 1.390 1_554 S
C361 C362 1.387 . S
C361 H364 0.950 . S
C362 C361 1.387 . S
C362 C365 1.387 . S
H363 C359 0.950 . S
H364 C361 0.950 . S
C365 C356 1.390 1_554 S
C365 H358 0.950 . S
C365 C362 1.387 . S
C366 C367 1.387 . S
C366 H370 0.950 . S
C366 C375 1.390 . S
C367 C366 1.387 . S
C367 C369 1.387 . S
H368 C375 0.950 . S
C369 C367 1.387 . S
C369 C371 1.390 . S
C369 H373 0.950 . S
H370 C366 0.950 . S
C371 C369 1.390 . S
C371 C372 1.387 . S
C371 H374 0.950 . S
C372 C371 1.387 . S
C372 C375 1.387 . S
H373 C369 0.950 . S
H374 C371 0.950 . S
C375 C366 1.390 . S
C375 H368 0.950 . S
C375 C372 1.387 . S
C376 C377 1.387 . S
C376 H380 0.950 . S
C376 C385 1.390 . S
C377 C376 1.387 . S
C377 C379 1.387 . S
H378 C385 0.950 . S
C379 C377 1.387 . S
C379 C381 1.390 . S
C379 H383 0.950 . S
H380 C376 0.950 . S
C381 C379 1.390 . S
C381 C382 1.387 . S
C381 H384 0.950 . S
C382 C381 1.387 . S
C382 C385 1.387 . S
H383 C379 0.950 . S
H384 C381 0.950 . S
C385 C376 1.390 . S
C385 H378 0.950 . S
C385 C382 1.387 . S
C386 C387 1.388 . S
C386 H390 0.950 . S
C386 C395 1.390 1_554 S
C387 C386 1.388 . S
C387 C389 1.388 . S
H388 C395 0.950 . S
C389 C387 1.388 . S
C389 C391 1.390 1_554 S
C389 H393 0.950 . S
H390 C386 0.950 . S
C391 C389 1.390 1_556 S
C391 C392 1.388 . S
C391 H394 0.950 . S
C392 C391 1.388 . S
C392 C395 1.388 . S
H393 C389 0.950 . S
H394 C391 0.950 . S
C395 C386 1.390 1_556 S
C395 H388 0.950 . S
C395 C392 1.388 . S
C157 C3 1.491 . S
C162 C122 1.492 . S
C167 C16 1.491 . S
C172 C135 1.492 . S
C177 C29 1.492 . S
C182 C148 1.492 . S
C187 C42 1.491 . S
C192 C81 1.491 . S
C197 C94 1.491 . S
C202 C57 1.490 . S
C207 C109 1.489 . S
C212 C68 1.489 . S
C217 C140 1.794 . S
C222 C4 1.794 . S
C227 C17 1.792 . S
C232 C153 1.792 . S
C237 C30 1.794 . S
C242 C82 1.792 . S
C247 C43 1.794 . S
C252 C95 1.794 . S
C257 C62 1.792 . S
C262 C114 1.793 . S
C267 C69 1.793 . S
C272 C127 1.794 . S
C277 C134 1.133 . S
C282 C10 1.133 . S
C287 C23 1.133 . S
C292 C147 1.133 . S
C297 C36 1.133 . S
C302 C88 1.133 . S
C307 C49 1.133 . S
C312 C101 1.133 . S
C317 C56 1.133 . S
C322 C108 1.133 . S
C327 C75 1.133 . S
C332 C121 1.133 . S
C337 C5 1.681 . S
C342 C83 1.680 . S
C347 C96 1.681 . S
C352 C18 1.680 . S
C357 C31 1.680 . S
C362 C107 1.680 . S
C367 C44 1.681 . S
C372 C120 1.680 . S
C377 C55 1.680 . S
C382 C133 1.681 . S
C387 C146 1.681 . S
C392 C70 1.681 . S
