# Generated by pormake.
# Topology vmm, (7)-cn, num edge types: 1
# Building blocks:
#     Node 0, Type 0, BuildingBlock: HICVOG_clean_sbu_0, # of connection points: 7
#     Node 1, Type 0, BuildingBlock: HICVOG_clean_sbu_0, # of connection points: 7
#     Node 2, Type 0, BuildingBlock: HICVOG_clean_sbu_0, # of connection points: 7
#     Node 3, Type 0, BuildingBlock: HICVOG_clean_sbu_0, # of connection points: 7
#     Edge 4, Type (0, 0), BuildingBlock: UVAHIK_clean_linker_0, # of connection points: 2
#     Edge 5, Type (0, 0), BuildingBlock: UVAHIK_clean_linker_0, # of connection points: 2
#     Edge 6, Type (0, 0), BuildingBlock: UVAHIK_clean_linker_0, # of connection points: 2
#     Edge 7, Type (0, 0), BuildingBlock: UVAHIK_clean_linker_0, # of connection points: 2
#     Edge 8, Type (0, 0), BuildingBlock: UVAHIK_clean_linker_0, # of connection points: 2
#     Edge 9, Type (0, 0), BuildingBlock: UVAHIK_clean_linker_0, # of connection points: 2
#     Edge 10, Type (0, 0), BuildingBlock: UVAHIK_clean_linker_0, # of connection points: 2
#     Edge 11, Type (0, 0), BuildingBlock: UVAHIK_clean_linker_0, # of connection points: 2
#     Edge 12, Type (0, 0), BuildingBlock: UVAHIK_clean_linker_0, # of connection points: 2
#     Edge 13, Type (0, 0), BuildingBlock: UVAHIK_clean_linker_0, # of connection points: 2
#     Edge 14, Type (0, 0), BuildingBlock: UVAHIK_clean_linker_0, # of connection points: 2
#     Edge 15, Type (0, 0), BuildingBlock: UVAHIK_clean_linker_0, # of connection points: 2
#     Edge 16, Type (0, 0), BuildingBlock: UVAHIK_clean_linker_0, # of connection points: 2
#     Edge 17, Type (0, 0), BuildingBlock: UVAHIK_clean_linker_0, # of connection points: 2
# Relax obj value: 0.084
# Max RMSD: 0.162
# Mean RMSD: 0.162
data_MOF--net-vmm--node1-HICVOG_clean_sbu_0--edge1-UVAHIK_clean_linker_0
_symmetry_space_group_name_H-M    P1
_symmetry_Int_Tables_number       1
_symmetry_cell_setting            triclinic
loop_
_symmetry_equiv_pos_as_xyz
'x, y, z'
_cell_length_a     22.271252
_cell_length_b     56.790473
_cell_length_c     27.640298
_cell_angle_alpha  89.98749
_cell_angle_beta   81.273576
_cell_angle_gamma 89.905568
loop_
_atom_site_label
_atom_site_type_symbol
_atom_site_fract_x
_atom_site_fract_y
_atom_site_fract_z
_atom_type_partial_charge
Zn0 Zn 0.27201 0.10114 0.24054 0.0
C1 C 0.15994 0.07385 0.15765 0.0
N2 N 0.19766 0.05535 0.15684 0.0
C3 C 0.24404 0.06403 0.17705 0.0
N4 N 0.23442 0.08676 0.19005 0.0
N5 N 0.18251 0.09326 0.17649 0.0
C6 C 0.03648 0.118 0.19601 0.0
O7 O 0.0581 0.10873 0.23341 0.0
O8 O 0.362 0.10023 0.2245 0.0
Zn9 Zn 0.16134 0.12564 0.16506 0.0
N10 N 0.24915 0.08231 0.29853 0.0
C11 C 0.17065 0.06373 0.35302 0.0
C12 C 0.1893 0.07726 0.31146 0.0
C13 C 0.29144 0.07434 0.32537 0.0
N14 N 0.2127 0.05574 0.37987 0.0
C15 C 0.273 0.06052 0.36733 0.0
O16 O 0.17697 0.14918 0.21698 0.0
C17 C 0.21081 0.15093 0.25003 0.0
O18 O 0.24598 0.13429 0.25865 0.0
H19 H 0.15644 0.08377 0.28959 0.0
H20 H 0.33849 0.07912 0.31438 0.0
C21 C 0.19209 0.15617 0.0817 0.0
C22 C 0.22126 0.16204 0.03444 0.0
C23 C 0.27568 0.12595 0.03104 0.0
C24 C 0.24663 0.1202 0.07774 0.0
N25 N 0.20504 0.13526 0.10203 0.0
N26 N 0.26212 0.14658 1.01042 0.0
H27 H 0.1583 0.16771 0.1016 0.0
C28 C 0.39272 0.11551 0.19796 0.0
O29 O 0.3645 0.13248 0.17814 0.0
O30 O 0.07298 0.12687 0.16111 0.0
H31 H 0.25651 0.10364 0.09402 0.0
H32 H 0.12313 0.05958 0.36392 0.0
H33 H 0.30843 0.11402 1.01114 0.0
Zn34 Zn 0.802 0.62564 0.37765 0.0
C35 C 0.71745 0.56499 0.36166 0.0
N36 N 0.76426 0.55541 0.38006 0.0
C37 C 0.80284 0.57354 0.38015 0.0
N38 N 0.78038 0.59357 0.36362 0.0
N39 N 0.72779 0.58785 0.35034 0.0
C40 C 0.57197 0.61852 0.34168 0.0
O41 O 0.60128 0.63514 0.36148 0.0
O42 O 0.89007 0.62629 0.38425 0.0
Zn43 Zn 0.69223 0.60271 0.29913 0.0
N44 N 0.75621 0.63471 0.44045 0.0
C45 C 0.68346 0.62463 0.50959 0.0
C46 C 0.71393 0.61946 0.46302 0.0
C47 C 0.76861 0.65523 0.46249 0.0
N48 N 0.69654 0.64484 0.53193 0.0
C49 C 0.73818 0.66046 0.50972 0.0
O50 O 0.72268 0.63529 0.28082 0.0
C51 C 0.75754 0.65166 0.29115 0.0
O52 O 0.7885 0.64977 0.32613 0.0
H53 H 0.70468 0.60316 0.44556 0.0
H54 H 0.80306 0.66691 0.44404 0.0
C55 C 0.67212 0.5755 0.21478 0.0
C56 C 0.69055 0.56141 0.17317 0.0
C57 C 0.79281 0.56435 0.18781 0.0
C58 C 0.77418 0.57815 0.22898 0.0
N59 N 0.7144 0.58347 0.24159 0.0
N60 N 0.7508 0.55637 0.16099 0.0
H61 H 0.62513 0.58048 0.22552 0.0
C62 C 0.92869 0.61698 0.35129 0.0
O63 O 0.91003 0.60742 0.31292 0.0
O64 O 0.60177 0.6031 0.31471 0.0
H65 H 0.80702 0.58467 0.25081 0.0
H66 H 0.65012 0.61255 0.5281 0.0
H67 H 0.84028 0.56 0.17718 0.0
Zn68 Zn 0.68999 0.92163 0.79774 0.0
C69 C 0.79702 0.95096 0.88219 0.0
N70 N 0.7586 0.96912 0.88127 0.0
C71 C 0.7136 0.95976 0.86027 0.0
N72 N 0.72471 0.93698 0.84858 0.0
N73 N 0.77609 0.93114 0.86381 0.0
C74 C 0.92234 0.90094 0.83981 0.0
O75 O 0.89824 0.90123 0.79926 0.0
O76 O 0.59999 0.91924 0.81489 0.0
Zn77 Zn 0.79896 0.89942 0.87804 0.0
N78 N 0.71004 0.94098 0.73998 0.0
C79 C 0.78817 0.95917 0.68442 0.0
C80 C 0.76996 0.94556 0.72592 0.0
C81 C 0.66719 0.94959 0.71435 0.0
N82 N 0.74564 0.96763 0.65859 0.0
C83 C 0.68525 0.96335 0.67221 0.0
O84 O 0.78507 0.87468 0.82786 0.0
C85 C 0.75636 0.87278 0.79158 0.0
O86 O 0.72278 0.88926 0.77967 0.0
H87 H 0.80325 0.93857 0.74685 0.0
H88 H 0.62004 0.94534 0.72627 0.0
C89 C 0.77002 0.86991 0.96316 0.0
C90 C 0.74121 0.86444 1.01073 0.0
C91 C 0.68615 0.90034 1.01276 0.0
C92 C 0.71461 0.90564 0.96563 0.0
N93 N 0.75647 0.89051 0.94194 0.0
N94 N 0.70024 0.88 0.03423 0.0
H95 H 0.80381 0.85827 0.94358 0.0
C96 C 0.57192 0.90698 0.78718 0.0
O97 O 0.60295 0.89653 0.74887 0.0
O98 O 0.88772 0.89995 0.88066 0.0
H99 H 0.70395 0.92189 0.94846 0.0
H100 H 0.83575 0.96293 0.67266 0.0
H101 H 0.65325 0.91235 0.03224 0.0
Zn102 Zn 0.27529 0.42264 0.74239 0.0
C103 C 0.16565 0.45103 0.65819 0.0
N104 N 0.20301 0.46948 0.65919 0.0
C105 C 0.2488 0.46045 0.67974 0.0
N106 N 0.23896 0.43758 0.69146 0.0
N107 N 0.18777 0.43132 0.67632 0.0
C108 C 0.03955 0.40753 0.68648 0.0
O109 O 0.0574 0.41703 0.72524 0.0
O110 O 0.36596 0.42147 0.72624 0.0
Zn111 Zn 0.16626 0.39903 0.66355 0.0
N112 N 0.25477 0.4423 0.7995 0.0
C113 C 0.17735 0.46206 0.85308 0.0
C114 C 0.19524 0.448 0.81218 0.0
C115 C 0.29755 0.45014 0.82597 0.0
N116 N 0.21982 0.46989 0.87959 0.0
C117 C 0.27984 0.46446 0.86735 0.0
O118 O 0.17657 0.37587 0.71758 0.0
C119 C 0.20706 0.37423 0.75288 0.0
O120 O 0.24296 0.39043 0.76228 0.0
H121 H 0.16201 0.44157 0.79063 0.0
H122 H 0.34433 0.44487 0.8152 0.0
C123 C 0.20176 0.36907 0.57903 0.0
C124 C 0.23939 0.36214 0.53553 0.0
C125 C 0.30322 0.39502 0.54362 0.0
C126 C 0.266 0.40168 0.58639 0.0
N127 N 0.21616 0.38865 0.60342 0.0
N128 N 0.28912 0.37554 0.51939 0.0
H129 H 0.16112 0.35942 0.59325 0.0
C130 C 0.39529 0.40578 0.69967 0.0
O131 O 0.36546 0.38916 0.68039 0.0
O132 O 0.07883 0.39822 0.65396 0.0
H133 H 0.27672 0.41721 0.60569 0.0
H134 H 0.13008 0.46672 0.86375 0.0
H135 H 0.34305 0.40524 0.52968 0.0
C136 C 0.49521 0.13061 0.16111 0.0
C137 C 0.4596 0.11452 0.19163 0.0
C138 C 0.55845 0.13042 0.15807 0.0
C139 C 0.67563 0.11481 0.23082 0.0
H140 H 0.78687 0.11658 0.10853 0.0
C141 C 0.93221 0.10308 0.22602 0.0
C142 C 0.97093 0.11729 0.19355 0.0
C143 C 0.87015 0.10237 0.22364 0.0
C144 C 0.75637 0.11639 0.14299 0.0
H145 H 0.46235 0.08509 0.24152 0.0
H146 H 0.57228 0.08497 0.23641 0.0
H147 H 0.67732 0.11627 0.10728 0.0
H148 H 0.97539 0.14178 0.13285 0.0
H149 H 0.86673 0.14107 0.1296 0.0
H150 H 0.75388 0.11542 0.2668 0.0
C151 C 0.55134 0.0978 0.21518 0.0
C152 C 0.69379 0.11615 0.1422 0.0
C153 C 0.48842 0.09784 0.2179 0.0
C154 C 0.94656 0.13065 0.15838 0.0
C155 C 0.88438 0.13011 0.15628 0.0
C156 C 0.73798 0.11527 0.23166 0.0
C157 C 0.58682 0.11429 0.18586 0.0
C158 C 0.653 0.11515 0.18613 0.0
C159 C 0.84543 0.11603 0.18904 0.0
C160 C 0.77912 0.11587 0.18778 0.0
H161 H 0.47425 0.14358 0.14027 0.0
H162 H 0.58499 0.14335 0.13528 0.0
H163 H 0.64498 0.11445 0.26523 0.0
H164 H 0.94987 0.09234 0.25307 0.0
H165 H 0.84159 0.09097 0.24876 0.0
C166 C 0.47454 0.60038 0.32669 0.0
C167 C 0.50499 0.61734 0.35085 0.0
C168 C 0.41129 0.59954 0.33378 0.0
C169 C 0.27675 0.63656 0.37214 0.0
H170 H 0.192 0.57699 0.37078 0.0
C171 C 0.01525 0.63005 0.39265 0.0
C172 C -0.00661 0.61613 0.35708 0.0
C173 C 0.07671 0.62953 0.39759 0.0
C174 C 0.21516 0.59374 0.37111 0.0
H175 H 0.49303 0.64631 0.40254 0.0
H176 H 0.38217 0.64462 0.41556 0.0
H177 H 0.30154 0.57723 0.37086 0.0
H178 H 0.0182 0.59024 0.29983 0.0
H179 H 0.12557 0.58928 0.30864 0.0
H180 H 0.19017 0.65301 0.37221 0.0
C181 C 0.40735 0.63224 0.39041 0.0
C182 C 0.27783 0.5939 0.37105 0.0
C183 C 0.47083 0.63315 0.38311 0.0
C184 C 0.03385 0.60131 0.32727 0.0
C185 C 0.09515 0.6006 0.3326 0.0
C186 C 0.21398 0.63638 0.37261 0.0
C187 C 0.37688 0.61554 0.36547 0.0
C188 C 0.30955 0.61532 0.37057 0.0
C189 C 0.11724 0.61486 0.3675 0.0
C190 C 0.18281 0.61497 0.37119 0.0
H191 H 0.4995 0.58793 0.30154 0.0
H192 H 0.38939 0.58671 0.31333 0.0
H193 H 0.29982 0.65337 0.37113 0.0
H194 H -0.01495 0.64158 0.41629 0.0
H195 H 0.09253 0.64056 0.42503 0.0
C196 C 0.0268 0.89564 0.79419 0.0
C197 C -0.01129 0.90145 0.83779 0.0
C198 C 0.08968 0.89556 0.79236 0.0
C199 C 0.21229 0.92075 0.84841 0.0
H200 H 0.30457 0.86711 0.79054 0.0
C201 C 0.47232 0.91421 0.84028 0.0
C202 C 0.50516 0.90529 0.79669 0.0
C203 C 0.40899 0.91292 0.84875 0.0
C204 C 0.27955 0.88233 0.80633 0.0
H205 H -0.01381 0.9123 0.91333 0.0
H206 H 0.09668 0.91246 0.90981 0.0
H207 H 0.19409 0.86681 0.79839 0.0
H208 H 0.49763 0.88818 0.72772 0.0
H209 H 0.38736 0.88647 0.74187 0.0
H210 H 0.29764 0.93663 0.85501 0.0
C211 C 0.07764 0.90779 0.8773 0.0
C212 C 0.21636 0.8821 0.81096 0.0
C213 C 0.0146 0.90757 0.87935 0.0
C214 C 0.4736 0.89505 0.76182 0.0
C215 C 0.41036 0.89394 0.7701 0.0
C216 C 0.27562 0.92109 0.84333 0.0
C217 C 0.11562 0.90158 0.83389 0.0
C218 C 0.18226 0.9014 0.83155 0.0
C219 C 0.3773 0.90285 0.81364 0.0
C220 C 0.30998 0.90198 0.82172 0.0
H221 H 0.00804 0.89087 0.76161 0.0
H222 H 0.11812 0.89098 0.75829 0.0
H223 H 0.18689 0.93591 0.86409 0.0
H224 H 0.49548 0.92214 0.86794 0.0
H225 H 0.38494 0.91968 0.88293 0.0
C226 C 0.95318 0.39414 0.64495 0.0
C227 C 0.97496 0.40835 0.68011 0.0
C228 C 0.89164 0.3945 0.64002 0.0
C229 C 0.75269 0.43025 0.66605 0.0
H230 H 0.6681 0.37052 0.66873 0.0
C231 C 0.49343 0.42385 0.7134 0.0
C232 C 0.46237 0.40673 0.69015 0.0
C233 C 0.55673 0.42458 0.70575 0.0
C234 C 0.69111 0.38735 0.66698 0.0
H235 H 0.94993 0.43464 0.73651 0.0
H236 H 0.84264 0.43536 0.72767 0.0
H237 H 0.77801 0.37103 0.66633 0.0
H238 H 0.47339 0.3773 0.6396 0.0
H239 H 0.58429 0.37877 0.62562 0.0
H240 H 0.66606 0.44664 0.66689 0.0
C241 C 0.87308 0.42391 0.70404 0.0
C242 C 0.75407 0.38762 0.66573 0.0
C243 C 0.93439 0.42334 0.70938 0.0
C244 C 0.49603 0.39059 0.65833 0.0
C245 C 0.55956 0.39138 0.65048 0.0
C246 C 0.68986 0.42999 0.66689 0.0
C247 C 0.85098 0.40934 0.66966 0.0
C248 C 0.78526 0.40907 0.66623 0.0
C249 C 0.59065 0.4083 0.67439 0.0
C250 C 0.65811 0.40854 0.66842 0.0
H251 H -0.01654 0.38246 0.62175 0.0
H252 H 0.87583 0.38322 0.61299 0.0
H253 H 0.7758 0.44704 0.66567 0.0
H254 H 0.4689 0.43656 0.73819 0.0
H255 H 0.57906 0.43758 0.72546 0.0
C256 C 0.37776 0.04655 0.37927 0.0
C257 C 0.31669 0.05125 0.39849 0.0
C258 C 0.41744 0.0372 0.40905 0.0
C259 C 0.43736 0.02967 0.53885 0.0
H260 H 0.55007 0.98048 0.4873 0.0
C261 C 0.58029 0.97766 0.66129 0.0
C262 C 0.64118 0.97287 0.64163 0.0
C263 C 0.54025 0.98704 0.63182 0.0
C264 C 0.51932 0.99437 0.50213 0.0
H265 H 0.24984 0.0496 0.46426 0.0
H266 H 0.31874 0.03309 0.51577 0.0
H267 H 0.48212 0.99755 0.43541 0.0
H268 H 0.70732 0.97445 0.57538 0.0
H269 H 0.63792 0.99103 0.52453 0.0
H270 H 0.47463 0.0265 0.60556 0.0
C271 C 0.33618 0.03698 0.47788 0.0
C272 C 0.4804 1.00419 0.47233 0.0
C273 C 0.29651 0.04627 0.44816 0.0
C274 C 0.66083 0.97784 0.59188 0.0
C275 C 0.62084 0.98718 0.56249 0.0
C276 C 0.47632 0.01986 0.56865 0.0
C277 C 0.39711 0.03227 0.45871 0.0
C278 C 0.43895 0.02197 0.4903 0.0
C279 C 0.56006 0.99191 0.58205 0.0
C280 C 0.51785 1.00211 0.55064 0.0
H281 H 0.39495 0.04959 0.34104 0.0
H282 H 0.46421 0.03392 0.39316 0.0
H283 H 0.40659 0.04357 0.55365 0.0
H284 H 0.56349 0.97462 0.69959 0.0
H285 H 0.49361 0.99035 0.64801 0.0
C286 C 0.30349 0.47917 0.9477 0.0
C287 C 0.32383 0.47359 0.89833 0.0
C288 C 0.34322 0.48852 0.97721 0.0
C289 C 0.50626 0.49484 0.98689 0.0
H290 H 0.44889 0.54513 0.07722 0.0
C291 C 0.66768 0.54665 0.09257 0.0
C292 C 0.64701 0.55212 0.14195 0.0
C293 C 0.62826 0.53726 0.06282 0.0
C294 C 0.46544 0.53092 0.0526 0.0
H295 H 0.40249 0.47417 0.8412 0.0
H296 H 0.47168 0.49034 0.89281 0.0
H297 H 0.38082 0.5283 0.02524 0.0
H298 H 0.56811 0.55121 0.19886 0.0
H299 H 0.4995 0.53503 0.14685 0.0
H300 H 0.59091 0.49747 1.01426 0.0
C301 C 0.42503 0.48702 0.90888 0.0
C302 C 0.4264 0.52126 0.02277 0.0
C303 C 0.38523 0.47763 0.87926 0.0
C304 C 0.58563 0.54788 0.1608 0.0
C305 C 0.54615 0.53847 0.13095 0.0
C306 C 0.54532 0.5045 1.01672 0.0
C307 C 0.40443 0.49268 0.95816 0.0
C308 C 0.44628 0.50307 0.98958 0.0
C309 C 0.56705 0.53298 0.08163 0.0
C310 C 0.52539 0.52266 0.04997 0.0
H311 H 0.25668 0.4762 0.96379 0.0
H312 H 0.32599 0.49232 1.01519 0.0
H313 H 0.5228 0.48062 0.96229 0.0
H314 H 0.7145 0.54975 0.07665 0.0
H315 H 0.64571 0.53355 0.02484 0.0
C316 C 0.90198 0.96311 0.88628 0.0
C317 C 0.84814 0.95279 0.90955 0.0
C318 C 0.9397 0.97531 0.91369 0.0
C319 C 0.96609 0.99028 0.03981 0.0
H320 H -0.00076 0.05257 0.9844 0.0
C321 C 0.05505 0.06158 0.15457 0.0
C322 C 0.10781 0.07267 0.13131 0.0
C323 C 0.01717 0.04959 0.12704 0.0
C324 C -0.00944 0.03524 1.00029 0.0
H325 H 0.79349 0.94541 0.97937 0.0
H326 H 0.85967 0.96615 0.02746 0.0
H327 H 0.95638 0.02239 0.93704 0.0
H328 H 0.16027 0.08158 0.06143 0.0
H329 H 0.0943 0.06086 1.0131 0.0
H330 H 0.00043 1.00305 0.10296 0.0
C331 C 0.87339 0.96481 0.98826 0.0
C332 C 0.96654 0.01786 0.97299 0.0
C333 C 0.83571 0.95267 0.9608 0.0
C334 C 0.11884 0.07371 0.08006 0.0
C335 C 0.08127 0.06157 0.05244 0.0
C336 C -0.00977 1.00764 0.06706 0.0
C337 C 0.92377 0.97746 0.96473 0.0
C338 C 0.954 0.99517 0.99243 0.0
C339 C 0.03219 0.04816 0.07581 0.0
C340 C 0.00258 0.03037 0.04773 0.0
H341 H 0.91171 0.96377 0.84668 0.0
H342 H 0.97895 0.98447 0.89462 0.0
H343 H 0.95723 0.97297 0.05572 0.0
H344 H 0.04642 0.06016 0.19412 0.0
H345 H 0.97878 0.03995 0.14609 0.0
C346 C 0.12281 0.44951 0.58116 0.0
C347 C 0.11351 0.4528 0.63199 0.0
C348 C 0.08596 0.46125 0.55215 0.0
C349 C 0.94904 0.4995 0.55534 0.0
H350 H 0.04964 0.53222 0.44942 0.0
C351 C 0.84844 0.57439 0.45592 0.0
C352 C 0.85598 0.57124 0.40509 0.0
C353 C 0.88561 0.56221 0.48394 0.0
C354 C 0.02093 0.52319 0.47876 0.0
H355 H 0.05629 0.46908 0.693 0.0
H356 H -0.00902 0.48907 0.64294 0.0
H357 H 0.09445 0.5019 0.49532 0.0
H358 H 0.91066 0.55473 0.34301 0.0
H359 H 0.97671 0.53397 0.39145 0.0
H360 H 0.8756 0.52088 0.53892 0.0
C361 C 0.02623 0.47751 0.62505 0.0
C362 C 0.04638 0.50561 0.50475 0.0
C363 C 0.06328 0.4659 0.65389 0.0
C364 C 0.90502 0.5578 0.38214 0.0
C365 C 0.94246 0.54575 0.41001 0.0
C366 C 0.92363 0.51711 0.52943 0.0
C367 C 0.0395 0.47647 0.57371 0.0
C368 C 0.01076 0.49356 0.54341 0.0
C369 C 0.9307 0.54668 0.4614 0.0
C370 C 0.95931 0.52922 0.49094 0.0
H371 H 0.1622 0.43989 0.56354 0.0
H372 H 0.09653 0.45971 0.51272 0.0
H373 H 0.92026 0.49048 0.58465 0.0
H374 H 0.80999 0.58423 0.47443 0.0
H375 H 0.87625 0.56363 0.52345 0.0
C376 C 0.20599 0.18418 0.95927 0.0
C377 C 0.20849 0.18425 1.00977 0.0
C378 C 0.19829 0.20517 0.93454 0.0
C379 C 0.23274 0.26725 0.93681 0.0
H380 H 0.1151 0.27435 0.84778 0.0
C381 C 0.21439 0.35416 0.83235 0.0
C382 C 0.20068 0.35302 0.78444 0.0
C383 C 0.20992 0.33415 0.8621 0.0
C384 C 0.14887 0.2726 0.8719 0.0
H385 H 0.2051 0.2064 0.074 0.0
H386 H 0.19299 0.2433 0.03034 0.0
H387 H 0.11658 0.23828 0.89566 0.0
H388 H 0.17143 0.32996 0.73013 0.0
H389 H 0.16625 0.29476 0.78107 0.0
H390 H 0.26739 0.30082 0.91174 0.0
C391 C 0.19608 0.22687 1.01021 0.0
C392 C 0.14928 0.25198 0.89961 0.0
C393 C 0.20256 0.20577 0.0352 0.0
C394 C 0.18196 0.33143 0.76701 0.0
C395 C 0.17862 0.31126 0.79647 0.0
C396 C 0.23311 0.28767 0.9085 0.0
C397 C 0.19424 0.22676 0.95958 0.0
C398 C 0.19131 0.2491 0.93223 0.0
C399 C 0.19282 0.31229 0.84444 0.0
C400 C 0.19127 0.29066 0.87549 0.0
H401 H 0.21045 0.16786 0.93876 0.0
H402 H 0.19752 0.20461 0.89546 0.0
H403 H 0.26623 0.26532 0.96117 0.0
H404 H 0.22817 0.37062 0.84711 0.0
H405 H 0.21973 0.33593 0.8991 0.0
C406 C 0.75675 0.7041 0.51326 0.0
C407 C 0.75073 0.68206 0.53651 0.0
C408 C 0.76278 0.72459 0.54035 0.0
C409 C 0.73652 0.74657 0.66947 0.0
H410 H 0.82482 0.80108 0.61223 0.0
C411 C 0.78004 0.82959 0.78141 0.0
C412 C 0.76193 0.85088 0.762 0.0
C413 C 0.78285 0.80883 0.75376 0.0
C414 C 0.79999 0.78596 0.6286 0.0
H415 H 0.74892 0.66402 0.60572 0.0
H416 H 0.76255 0.69935 0.65243 0.0
H417 H 0.82394 0.76503 0.56421 0.0
H418 H 0.73431 0.8672 0.69783 0.0
H419 H 0.74065 0.83109 0.64937 0.0
H420 H 0.71394 0.7675 0.73423 0.0
C421 C 0.76017 0.70117 0.61379 0.0
C422 C 0.79906 0.76532 0.60102 0.0
C423 C 0.75291 0.68082 0.58693 0.0
C424 C 0.74813 0.85107 0.71398 0.0
C425 C 0.7521 0.83044 0.68607 0.0
C426 C 0.73842 0.76705 0.69725 0.0
C427 C 0.76391 0.72346 0.5912 0.0
C428 C 0.7669 0.74534 0.62091 0.0
C429 C 0.76887 0.80908 0.70584 0.0
C430 C 0.76971 0.78701 0.67699 0.0
H431 H 0.75436 0.70562 0.47453 0.0
H432 H 0.76457 0.74136 0.52158 0.0
H433 H 0.70997 0.7319 0.68593 0.0
H434 H 0.79085 0.82885 0.81829 0.0
H435 H 0.79612 0.79258 0.76978 0.0
C436 C 0.756 0.84275 0.08664 0.0
C437 C 0.75397 0.8424 0.03607 0.0
C438 C 0.76337 0.82189 0.11196 0.0
C439 C 0.72873 0.75975 0.11047 0.0
H440 H 0.8454 0.75278 0.20034 0.0
C441 C 0.74898 0.67245 0.21274 0.0
C442 C 0.76262 0.67325 0.2607 0.0
C443 C 0.75266 0.69271 0.1838 0.0
C444 C 0.81187 0.7545 0.17601 0.0
H445 H 0.75789 0.81987 0.97233 0.0
H446 H 0.76951 0.78325 1.01697 0.0
H447 H 0.84402 0.78888 0.15252 0.0
H448 H 0.79085 0.69599 0.31597 0.0
H449 H 0.79464 0.73166 0.26639 0.0
H450 H 0.69428 0.72611 0.13515 0.0
C451 C 0.76627 0.79979 0.03672 0.0
C452 C 0.81151 0.77514 0.14833 0.0
C453 C 0.76011 0.82074 1.01117 0.0
C454 C 0.78036 0.6948 0.27904 0.0
C455 C 0.7829 0.71523 0.25037 0.0
C456 C 0.7283 0.73932 0.13871 0.0
C457 C 0.76754 0.80017 0.08743 0.0
C458 C 0.76996 0.77794 0.11528 0.0
C459 C 0.76886 0.7145 0.20233 0.0
C460 C 0.7699 0.73634 0.17192 0.0
H461 H 0.75135 0.85918 0.10676 0.0
H462 H 0.76373 0.82266 0.15108 0.0
H463 H 0.69555 0.76163 0.08582 0.0
H464 H 0.73599 0.65604 0.19726 0.0
H465 H 0.74305 0.69116 0.1467 0.0
C466 C 0.25522 0.33929 0.45723 0.0
C467 C 0.22748 0.34096 0.50641 0.0
C468 C 0.24906 0.31906 0.42977 0.0
C469 C 0.15706 0.26599 0.42078 0.0
H470 H 0.30601 0.24145 0.34685 0.0
C471 C 0.16489 0.1902 0.27768 0.0
C472 C 0.20944 0.17277 0.27976 0.0
C473 C 0.16399 0.21064 0.3062 0.0
C474 C 0.26404 0.24801 0.36741 0.0
H475 H 0.17054 0.32213 0.56474 0.0
H476 H 0.15902 0.28702 0.51622 0.0
H477 H 0.30897 0.27717 0.39526 0.0
H478 H 0.28787 0.16328 0.31372 0.0
H479 H 0.28645 0.19887 0.36282 0.0
H480 H 0.11226 0.23666 0.39273 0.0
C481 C 0.18534 0.30164 0.49912 0.0
C482 C 0.26564 0.26859 0.39482 0.0
C483 C 0.19185 0.3219 0.5269 0.0
C484 C 0.25292 0.1763 0.31104 0.0
C485 C 0.25233 0.19677 0.33909 0.0
C486 C 0.15534 0.24547 0.39283 0.0
C487 C 0.21478 0.29987 0.45052 0.0
C488 C 0.21224 0.27784 0.42183 0.0
C489 C 0.20801 0.21421 0.33695 0.0
C490 C 0.20892 0.23622 0.366 0.0
H491 H 0.28247 0.35358 0.43976 0.0
H492 H 0.27153 0.31839 0.39218 0.0
H493 H 0.11515 0.27277 0.44104 0.0
H494 H 0.1306 0.18804 0.25413 0.0
H495 H 0.12953 0.22386 0.30352 0.0
C496 C 0.34986 0.06734 0.13533 0.0
C497 C 0.30476 0.05368 0.16314 0.0
C498 C 0.39726 0.0566 0.10424 0.0
C499 C 0.41849 1.00304 0.03061 0.0
H500 H 0.58263 0.02621 0.99414 0.0
C501 C 0.6062 0.95591 0.89818 0.0
C502 C 0.65217 0.96978 0.87192 0.0
C503 C 0.55798 0.96649 0.92874 0.0
C504 C 0.53651 0.01982 1.00329 0.0
H505 H 0.27613 0.01816 0.18315 0.0
H506 H 0.35983 0.99924 0.12956 0.0
H507 H 0.51853 0.04273 0.06534 0.0
H508 H 0.68063 1.00541 0.85279 0.0
H509 H 0.59533 0.02399 0.90497 0.0
H510 H 0.43651 0.98013 0.96851 0.0
C511 C 0.35824 0.01829 0.13141 0.0
C512 C 0.50005 0.02914 0.04442 0.0
C513 C 0.31097 0.02908 0.16271 0.0
C514 C 0.6454 0.99435 0.87232 0.0
C515 C 0.59718 1.00495 0.90286 0.0
C516 C 0.45498 0.99372 0.98943 0.0
C517 C 0.39992 0.03195 0.09992 0.0
C518 C 0.44062 0.02086 0.05859 0.0
C519 C 0.55516 0.99113 0.93368 0.0
C520 C 0.51437 1.00205 0.9752 0.0
H521 H 0.34466 0.08623 0.13295 0.0
H522 H 0.42823 0.06766 0.08024 0.0
H523 H 0.37238 0.99666 0.03984 0.0
H524 H 0.61124 0.93698 0.90003 0.0
H525 H 0.52651 0.95531 0.95201 0.0
C526 C 0.35633 0.4571 0.64174 0.0
C527 C 0.30968 0.47088 0.66744 0.0
C528 C 0.40438 0.46766 0.61121 0.0
C529 C 0.47639 0.52439 0.56902 0.0
H530 H 0.49266 0.49439 0.44148 0.0
C531 C 0.61176 0.56947 0.40355 0.0
C532 C 0.65627 0.55521 0.3765 0.0
C533 C 0.56371 0.55939 0.43496 0.0
C534 C 0.4889 0.50291 0.47686 0.0
H535 H 0.27937 0.50652 0.68475 0.0
H536 H 0.36341 0.5251 0.63145 0.0
H537 H 0.43003 0.47613 0.51135 0.0
H538 H 0.68316 0.5193 0.35826 0.0
H539 H 0.59944 0.50155 0.4132 0.0
H540 H 0.5355 0.55112 0.53461 0.0
C541 C 0.36328 0.50612 0.63516 0.0
C542 C 0.45343 0.49237 0.51704 0.0
C543 C 0.31532 0.4955 0.66598 0.0
C544 C 0.64877 0.53068 0.37803 0.0
C545 C 0.60094 0.52054 0.40978 0.0
C546 C 0.51202 0.53491 0.52886 0.0
C547 C 0.4062 0.49222 0.60526 0.0
C548 C 0.44694 0.50295 0.56361 0.0
C549 C 0.55989 0.53482 0.44057 0.0
C550 C 0.51866 0.5243 0.48227 0.0
H551 H 0.35214 0.43819 0.64031 0.0
H552 H 0.43744 0.45649 0.58931 0.0
H553 H 0.47241 0.53292 0.60442 0.0
H554 H 0.61765 0.58834 0.40493 0.0
H555 H 0.53215 0.57088 0.45748 0.0
loop_
_geom_bond_atom_site_label_1
_geom_bond_atom_site_label_2
_geom_bond_distance
_geom_bond_site_symmetry_2
_ccdc_geom_bond_type
Zn0 N4 2.020 . S
Zn0 O8 2.019 . S
Zn0 N10 2.119 . S
Zn0 O18 1.975 . S
C1 N2 1.334 . S
C1 N5 1.336 . S
N2 C1 1.334 . S
N2 C3 1.334 . S
C3 N2 1.334 . S
C3 N4 1.336 . S
N4 Zn0 2.020 . S
N4 C3 1.336 . S
N4 N5 1.354 . S
N5 C1 1.336 . S
N5 N4 1.354 . S
N5 Zn9 2.020 . S
C6 O7 1.244 . S
C6 O30 1.257 . S
O7 C6 1.244 . S
O8 Zn0 2.019 . S
O8 C28 1.257 . S
Zn9 N5 2.020 . S
Zn9 O16 1.975 . S
Zn9 N25 2.119 . S
Zn9 O30 2.019 . S
N10 Zn0 2.119 . S
N10 C12 1.334 . S
N10 C13 1.328 . S
C11 C12 1.391 . S
C11 N14 1.329 . S
C11 H32 0.930 . S
C12 N10 1.334 . S
C12 C11 1.391 . S
C12 H19 0.930 . S
C13 N10 1.328 . S
C13 C15 1.392 . S
C13 H20 0.930 . S
N14 C11 1.329 . S
N14 C15 1.331 . S
C15 C13 1.392 . S
C15 N14 1.331 . S
O16 Zn9 1.975 . S
O16 C17 1.252 . S
C17 O16 1.252 . S
C17 O18 1.252 . S
O18 Zn0 1.975 . S
O18 C17 1.252 . S
H19 C12 0.930 . S
H20 C13 0.930 . S
C21 C22 1.392 . S
C21 N25 1.328 . S
C21 H27 0.930 . S
C22 C21 1.392 . S
C22 N26 1.331 . S
C23 C24 1.391 . S
C23 N26 1.329 . S
C23 H33 0.930 . S
C24 C23 1.391 . S
C24 N25 1.334 . S
C24 H31 0.930 . S
N25 Zn9 2.119 . S
N25 C21 1.328 . S
N25 C24 1.334 . S
N26 C22 1.331 . S
N26 C23 1.329 . S
H27 C21 0.930 . S
C28 O8 1.257 . S
C28 O29 1.244 . S
O29 C28 1.244 . S
O30 C6 1.257 . S
O30 Zn9 2.019 . S
H31 C24 0.930 . S
H32 C11 0.930 . S
H33 C23 0.930 . S
Zn34 N38 2.020 . S
Zn34 O42 2.019 . S
Zn34 N44 2.119 . S
Zn34 O52 1.975 . S
C35 N36 1.334 . S
C35 N39 1.336 . S
N36 C35 1.334 . S
N36 C37 1.334 . S
C37 N36 1.334 . S
C37 N38 1.336 . S
N38 Zn34 2.020 . S
N38 C37 1.336 . S
N38 N39 1.354 . S
N39 C35 1.336 . S
N39 N38 1.354 . S
N39 Zn43 2.020 . S
C40 O41 1.244 . S
C40 O64 1.257 . S
O41 C40 1.244 . S
O42 Zn34 2.019 . S
O42 C62 1.257 . S
Zn43 N39 2.020 . S
Zn43 O50 1.975 . S
Zn43 N59 2.119 . S
Zn43 O64 2.019 . S
N44 Zn34 2.119 . S
N44 C46 1.334 . S
N44 C47 1.328 . S
C45 C46 1.391 . S
C45 N48 1.329 . S
C45 H66 0.930 . S
C46 N44 1.334 . S
C46 C45 1.391 . S
C46 H53 0.930 . S
C47 N44 1.328 . S
C47 C49 1.392 . S
C47 H54 0.930 . S
N48 C45 1.329 . S
N48 C49 1.331 . S
C49 C47 1.392 . S
C49 N48 1.331 . S
O50 Zn43 1.975 . S
O50 C51 1.252 . S
C51 O50 1.252 . S
C51 O52 1.252 . S
O52 Zn34 1.975 . S
O52 C51 1.252 . S
H53 C46 0.930 . S
H54 C47 0.930 . S
C55 C56 1.392 . S
C55 N59 1.328 . S
C55 H61 0.930 . S
C56 C55 1.392 . S
C56 N60 1.331 . S
C57 C58 1.391 . S
C57 N60 1.329 . S
C57 H67 0.930 . S
C58 C57 1.391 . S
C58 N59 1.334 . S
C58 H65 0.930 . S
N59 Zn43 2.119 . S
N59 C55 1.328 . S
N59 C58 1.334 . S
N60 C56 1.331 . S
N60 C57 1.329 . S
H61 C55 0.930 . S
C62 O42 1.257 . S
C62 O63 1.244 . S
O63 C62 1.244 . S
O64 C40 1.257 . S
O64 Zn43 2.019 . S
H65 C58 0.930 . S
H66 C45 0.930 . S
H67 C57 0.930 . S
Zn68 N72 2.020 . S
Zn68 O76 2.019 . S
Zn68 N78 2.119 . S
Zn68 O86 1.975 . S
C69 N70 1.334 . S
C69 N73 1.336 . S
N70 C69 1.334 . S
N70 C71 1.334 . S
C71 N70 1.334 . S
C71 N72 1.336 . S
N72 Zn68 2.020 . S
N72 C71 1.336 . S
N72 N73 1.354 . S
N73 C69 1.336 . S
N73 N72 1.354 . S
N73 Zn77 2.020 . S
C74 O75 1.244 . S
C74 O98 1.257 . S
O75 C74 1.244 . S
O76 Zn68 2.019 . S
O76 C96 1.257 . S
Zn77 N73 2.020 . S
Zn77 O84 1.975 . S
Zn77 N93 2.119 . S
Zn77 O98 2.019 . S
N78 Zn68 2.119 . S
N78 C80 1.334 . S
N78 C81 1.328 . S
C79 C80 1.391 . S
C79 N82 1.329 . S
C79 H100 0.930 . S
C80 N78 1.334 . S
C80 C79 1.391 . S
C80 H87 0.930 . S
C81 N78 1.328 . S
C81 C83 1.392 . S
C81 H88 0.930 . S
N82 C79 1.329 . S
N82 C83 1.331 . S
C83 C81 1.392 . S
C83 N82 1.331 . S
O84 Zn77 1.975 . S
O84 C85 1.252 . S
C85 O84 1.252 . S
C85 O86 1.252 . S
O86 Zn68 1.975 . S
O86 C85 1.252 . S
H87 C80 0.930 . S
H88 C81 0.930 . S
C89 C90 1.392 . S
C89 N93 1.328 . S
C89 H95 0.930 . S
C90 C89 1.392 . S
C90 N94 1.331 . S
C91 C92 1.391 . S
C91 N94 1.329 . S
C91 H101 0.930 . S
C92 C91 1.391 . S
C92 N93 1.334 . S
C92 H99 0.930 . S
N93 Zn77 2.119 . S
N93 C89 1.328 . S
N93 C92 1.334 . S
N94 C90 1.331 . S
N94 C91 1.329 . S
H95 C89 0.930 . S
C96 O76 1.257 . S
C96 O97 1.244 . S
O97 C96 1.244 . S
O98 C74 1.257 . S
O98 Zn77 2.019 . S
H99 C92 0.930 . S
H100 C79 0.930 . S
H101 C91 0.930 . S
Zn102 N106 2.020 . S
Zn102 O110 2.019 . S
Zn102 N112 2.119 . S
Zn102 O120 1.975 . S
C103 N104 1.334 . S
C103 N107 1.336 . S
N104 C103 1.334 . S
N104 C105 1.334 . S
C105 N104 1.334 . S
C105 N106 1.336 . S
N106 Zn102 2.020 . S
N106 C105 1.336 . S
N106 N107 1.354 . S
N107 C103 1.336 . S
N107 N106 1.354 . S
N107 Zn111 2.020 . S
C108 O109 1.244 . S
C108 O132 1.257 . S
O109 C108 1.244 . S
O110 Zn102 2.019 . S
O110 C130 1.257 . S
Zn111 N107 2.020 . S
Zn111 O118 1.975 . S
Zn111 N127 2.119 . S
Zn111 O132 2.019 . S
N112 Zn102 2.119 . S
N112 C114 1.334 . S
N112 C115 1.328 . S
C113 C114 1.391 . S
C113 N116 1.329 . S
C113 H134 0.930 . S
C114 N112 1.334 . S
C114 C113 1.391 . S
C114 H121 0.930 . S
C115 N112 1.328 . S
C115 C117 1.392 . S
C115 H122 0.930 . S
N116 C113 1.329 . S
N116 C117 1.331 . S
C117 C115 1.392 . S
C117 N116 1.331 . S
O118 Zn111 1.975 . S
O118 C119 1.252 . S
C119 O118 1.252 . S
C119 O120 1.252 . S
O120 Zn102 1.975 . S
O120 C119 1.252 . S
H121 C114 0.930 . S
H122 C115 0.930 . S
C123 C124 1.392 . S
C123 N127 1.328 . S
C123 H129 0.930 . S
C124 C123 1.392 . S
C124 N128 1.331 . S
C125 C126 1.391 . S
C125 N128 1.329 . S
C125 H135 0.930 . S
C126 C125 1.391 . S
C126 N127 1.334 . S
C126 H133 0.930 . S
N127 Zn111 2.119 . S
N127 C123 1.328 . S
N127 C126 1.334 . S
N128 C124 1.331 . S
N128 C125 1.329 . S
H129 C123 0.930 . S
C130 O110 1.257 . S
C130 O131 1.244 . S
O131 C130 1.244 . S
O132 C108 1.257 . S
O132 Zn111 2.019 . S
H133 C126 0.930 . S
H134 C113 0.930 . S
H135 C125 0.930 . S
C136 C137 1.349 . S
C136 C138 1.327 . S
C136 H161 0.950 . S
C137 C136 1.349 . S
C137 C153 1.349 . S
C138 C136 1.327 . S
C138 C157 1.429 . S
C138 H162 0.950 . S
C139 C156 1.574 . S
C139 C158 1.368 . S
C139 H163 0.949 . S
H140 C144 0.949 . S
C141 C142 1.349 . S
C141 C143 1.327 . S
C141 H164 0.950 . S
C142 C141 1.349 . S
C142 C154 1.349 . S
C143 C141 1.327 . S
C143 C159 1.429 . S
C143 H165 0.950 . S
C144 H140 0.949 . S
C144 C152 1.574 . S
C144 C160 1.368 . S
H145 C153 0.950 . S
H146 C151 0.950 . S
H147 C152 0.949 . S
H148 C154 0.950 1_455 S
H149 C155 0.950 . S
H150 C156 0.949 . S
C151 H146 0.950 . S
C151 C153 1.327 . S
C151 C157 1.429 . S
C152 C144 1.574 . S
C152 H147 0.949 . S
C152 C158 1.368 . S
C153 C137 1.349 . S
C153 H145 0.950 . S
C153 C151 1.327 . S
C154 C142 1.349 . S
C154 H148 0.950 1_655 S
C154 C155 1.327 . S
C155 H149 0.950 . S
C155 C154 1.327 . S
C155 C159 1.429 . S
C156 C139 1.574 . S
C156 H150 0.949 . S
C156 C160 1.368 . S
C157 C138 1.429 . S
C157 C151 1.429 . S
C157 C158 1.523 . S
C158 C139 1.368 . S
C158 C152 1.368 . S
C158 C157 1.523 . S
C159 C143 1.429 . S
C159 C155 1.429 . S
C159 C160 1.523 . S
C160 C144 1.368 . S
C160 C156 1.368 . S
C160 C159 1.523 . S
H161 C136 0.950 . S
H162 C138 0.950 . S
H163 C139 0.949 . S
H164 C141 0.950 . S
H165 C143 0.950 . S
C166 C167 1.349 . S
C166 C168 1.327 . S
C166 H191 0.950 . S
C167 C166 1.349 . S
C167 C183 1.349 . S
C168 C166 1.327 . S
C168 C187 1.429 . S
C168 H192 0.950 . S
C169 C186 1.574 . S
C169 C188 1.368 . S
C169 H193 0.949 . S
H170 C174 0.949 . S
C171 C172 1.349 . S
C171 C173 1.327 . S
C171 H194 0.950 . S
C172 C171 1.349 . S
C172 C184 1.349 . S
C173 C171 1.327 . S
C173 C189 1.429 . S
C173 H195 0.950 . S
C174 H170 0.949 . S
C174 C182 1.574 . S
C174 C190 1.368 . S
H175 C183 0.950 . S
H176 C181 0.950 . S
H177 C182 0.949 . S
H178 C184 0.950 . S
H179 C185 0.950 . S
H180 C186 0.949 . S
C181 H176 0.950 . S
C181 C183 1.327 . S
C181 C187 1.429 . S
C182 C174 1.574 . S
C182 H177 0.949 . S
C182 C188 1.368 . S
C183 C167 1.349 . S
C183 H175 0.950 . S
C183 C181 1.327 . S
C184 C172 1.349 . S
C184 H178 0.950 . S
C184 C185 1.327 . S
C185 H179 0.950 . S
C185 C184 1.327 . S
C185 C189 1.429 . S
C186 C169 1.574 . S
C186 H180 0.949 . S
C186 C190 1.368 . S
C187 C168 1.429 . S
C187 C181 1.429 . S
C187 C188 1.523 . S
C188 C169 1.368 . S
C188 C182 1.368 . S
C188 C187 1.523 . S
C189 C173 1.429 . S
C189 C185 1.429 . S
C189 C190 1.523 . S
C190 C174 1.368 . S
C190 C186 1.368 . S
C190 C189 1.523 . S
H191 C166 0.950 . S
H192 C168 0.950 . S
H193 C169 0.949 . S
H194 C171 0.950 . S
H195 C173 0.950 . S
C196 C197 1.349 . S
C196 C198 1.327 . S
C196 H221 0.950 . S
C197 C196 1.349 . S
C197 C213 1.349 . S
C198 C196 1.327 . S
C198 C217 1.429 . S
C198 H222 0.950 . S
C199 C216 1.574 . S
C199 C218 1.368 . S
C199 H223 0.949 . S
H200 C204 0.949 . S
C201 C202 1.349 . S
C201 C203 1.327 . S
C201 H224 0.950 . S
C202 C201 1.349 . S
C202 C214 1.349 . S
C203 C201 1.327 . S
C203 C219 1.429 . S
C203 H225 0.950 . S
C204 H200 0.949 . S
C204 C212 1.574 . S
C204 C220 1.368 . S
H205 C213 0.950 1_655 S
H206 C211 0.950 . S
H207 C212 0.949 . S
H208 C214 0.950 . S
H209 C215 0.950 . S
H210 C216 0.949 . S
C211 H206 0.950 . S
C211 C213 1.327 . S
C211 C217 1.429 . S
C212 C204 1.574 . S
C212 H207 0.949 . S
C212 C218 1.368 . S
C213 C197 1.349 . S
C213 H205 0.950 1_455 S
C213 C211 1.327 . S
C214 C202 1.349 . S
C214 H208 0.950 . S
C214 C215 1.327 . S
C215 H209 0.950 . S
C215 C214 1.327 . S
C215 C219 1.429 . S
C216 C199 1.574 . S
C216 H210 0.949 . S
C216 C220 1.368 . S
C217 C198 1.429 . S
C217 C211 1.429 . S
C217 C218 1.523 . S
C218 C199 1.368 . S
C218 C212 1.368 . S
C218 C217 1.523 . S
C219 C203 1.429 . S
C219 C215 1.429 . S
C219 C220 1.523 . S
C220 C204 1.368 . S
C220 C216 1.368 . S
C220 C219 1.523 . S
H221 C196 0.950 . S
H222 C198 0.950 . S
H223 C199 0.949 . S
H224 C201 0.950 . S
H225 C203 0.950 . S
C226 C227 1.349 . S
C226 C228 1.327 . S
C226 H251 0.950 . S
C227 C226 1.349 . S
C227 C243 1.349 . S
C228 C226 1.327 . S
C228 C247 1.429 . S
C228 H252 0.950 . S
C229 C246 1.574 . S
C229 C248 1.368 . S
C229 H253 0.949 . S
H230 C234 0.949 . S
C231 C232 1.349 . S
C231 C233 1.327 . S
C231 H254 0.950 . S
C232 C231 1.349 . S
C232 C244 1.349 . S
C233 C231 1.327 . S
C233 C249 1.429 . S
C233 H255 0.950 . S
C234 H230 0.949 . S
C234 C242 1.574 . S
C234 C250 1.368 . S
H235 C243 0.950 . S
H236 C241 0.950 . S
H237 C242 0.949 . S
H238 C244 0.950 . S
H239 C245 0.950 . S
H240 C246 0.949 . S
C241 H236 0.950 . S
C241 C243 1.327 . S
C241 C247 1.429 . S
C242 C234 1.574 . S
C242 H237 0.949 . S
C242 C248 1.368 . S
C243 C227 1.349 . S
C243 H235 0.950 . S
C243 C241 1.327 . S
C244 C232 1.349 . S
C244 H238 0.950 . S
C244 C245 1.327 . S
C245 H239 0.950 . S
C245 C244 1.327 . S
C245 C249 1.429 . S
C246 C229 1.574 . S
C246 H240 0.949 . S
C246 C250 1.368 . S
C247 C228 1.429 . S
C247 C241 1.429 . S
C247 C248 1.523 . S
C248 C229 1.368 . S
C248 C242 1.368 . S
C248 C247 1.523 . S
C249 C233 1.429 . S
C249 C245 1.429 . S
C249 C250 1.523 . S
C250 C234 1.368 . S
C250 C246 1.368 . S
C250 C249 1.523 . S
H251 C226 0.950 . S
H252 C228 0.950 . S
H253 C229 0.949 . S
H254 C231 0.950 . S
H255 C233 0.950 . S
C256 C257 1.349 . S
C256 C258 1.327 . S
C256 H281 0.950 . S
C257 C256 1.349 . S
C257 C273 1.349 . S
C258 C256 1.327 . S
C258 C277 1.429 . S
C258 H282 0.950 . S
C259 C276 1.574 . S
C259 C278 1.368 . S
C259 H283 0.949 . S
H260 C264 0.949 . S
C261 C262 1.349 . S
C261 C263 1.327 . S
C261 H284 0.950 . S
C262 C261 1.349 . S
C262 C274 1.349 . S
C263 C261 1.327 . S
C263 C279 1.429 . S
C263 H285 0.950 . S
C264 H260 0.949 . S
C264 C272 1.574 . S
C264 C280 1.368 . S
H265 C273 0.950 . S
H266 C271 0.950 . S
H267 C272 0.949 . S
H268 C274 0.950 . S
H269 C275 0.950 . S
H270 C276 0.949 . S
C271 H266 0.950 . S
C271 C273 1.327 . S
C271 C277 1.429 . S
C272 C264 1.574 . S
C272 H267 0.949 . S
C272 C278 1.368 1_565 S
C273 C257 1.349 . S
C273 H265 0.950 . S
C273 C271 1.327 . S
C274 C262 1.349 . S
C274 H268 0.950 . S
C274 C275 1.327 . S
C275 H269 0.950 . S
C275 C274 1.327 . S
C275 C279 1.429 . S
C276 C259 1.574 . S
C276 H270 0.949 . S
C276 C280 1.368 1_545 S
C277 C258 1.429 . S
C277 C271 1.429 . S
C277 C278 1.523 . S
C278 C259 1.368 . S
C278 C272 1.368 1_545 S
C278 C277 1.523 . S
C279 C263 1.429 . S
C279 C275 1.429 . S
C279 C280 1.523 . S
C280 C264 1.368 . S
C280 C276 1.368 1_565 S
C280 C279 1.523 . S
H281 C256 0.950 . S
H282 C258 0.950 . S
H283 C259 0.949 . S
H284 C261 0.950 . S
H285 C263 0.950 . S
C286 C287 1.349 . S
C286 C288 1.327 . S
C286 H311 0.950 . S
C287 C286 1.349 . S
C287 C303 1.349 . S
C288 C286 1.327 . S
C288 C307 1.429 . S
C288 H312 0.950 . S
C289 C306 1.574 1_556 S
C289 C308 1.368 . S
C289 H313 0.949 . S
H290 C294 0.949 . S
C291 C292 1.349 . S
C291 C293 1.327 . S
C291 H314 0.950 . S
C292 C291 1.349 . S
C292 C304 1.349 . S
C293 C291 1.327 . S
C293 C309 1.429 . S
C293 H315 0.950 . S
C294 H290 0.949 . S
C294 C302 1.574 1_554 S
C294 C310 1.368 . S
H295 C303 0.950 . S
H296 C301 0.950 . S
H297 C302 0.949 . S
H298 C304 0.950 . S
H299 C305 0.950 . S
H300 C306 0.949 . S
C301 H296 0.950 . S
C301 C303 1.327 . S
C301 C307 1.429 . S
C302 C294 1.574 1_556 S
C302 H297 0.949 . S
C302 C308 1.368 . S
C303 C287 1.349 . S
C303 H295 0.950 . S
C303 C301 1.327 . S
C304 C292 1.349 . S
C304 H298 0.950 . S
C304 C305 1.327 . S
C305 H299 0.950 . S
C305 C304 1.327 . S
C305 C309 1.429 . S
C306 C289 1.574 1_554 S
C306 H300 0.949 . S
C306 C310 1.368 . S
C307 C288 1.429 . S
C307 C301 1.429 . S
C307 C308 1.523 . S
C308 C289 1.368 . S
C308 C302 1.368 . S
C308 C307 1.523 . S
C309 C293 1.429 . S
C309 C305 1.429 . S
C309 C310 1.523 . S
C310 C294 1.368 . S
C310 C306 1.368 . S
C310 C309 1.523 . S
H311 C286 0.950 . S
H312 C288 0.950 . S
H313 C289 0.949 . S
H314 C291 0.950 . S
H315 C293 0.950 . S
C316 C317 1.349 . S
C316 C318 1.327 . S
C316 H341 0.950 . S
C317 C316 1.349 . S
C317 C333 1.349 . S
C318 C316 1.327 . S
C318 C337 1.429 . S
C318 H342 0.950 . S
C319 C336 1.574 . S
C319 C338 1.368 1_454 S
C319 H343 0.949 . S
H320 C324 0.949 . S
C321 C322 1.349 . S
C321 C323 1.327 . S
C321 H344 0.950 . S
C322 C321 1.349 . S
C322 C334 1.349 . S
C323 C321 1.327 . S
C323 C339 1.429 . S
C323 H345 0.950 . S
C324 H320 0.949 . S
C324 C332 1.574 . S
C324 C340 1.368 1_656 S
H325 C333 0.950 . S
H326 C331 0.950 . S
H327 C332 0.949 . S
H328 C334 0.950 . S
H329 C335 0.950 . S
H330 C336 0.949 . S
C331 H326 0.950 . S
C331 C333 1.327 . S
C331 C337 1.429 . S
C332 C324 1.574 . S
C332 H327 0.949 . S
C332 C338 1.368 1_545 S
C333 C317 1.349 . S
C333 H325 0.950 . S
C333 C331 1.327 . S
C334 C322 1.349 . S
C334 H328 0.950 . S
C334 C335 1.327 . S
C335 H329 0.950 . S
C335 C334 1.327 . S
C335 C339 1.429 . S
C336 C319 1.574 . S
C336 H330 0.949 . S
C336 C340 1.368 1_565 S
C337 C318 1.429 . S
C337 C331 1.429 . S
C337 C338 1.523 . S
C338 C319 1.368 1_656 S
C338 C332 1.368 1_565 S
C338 C337 1.523 . S
C339 C323 1.429 . S
C339 C335 1.429 . S
C339 C340 1.523 . S
C340 C324 1.368 1_454 S
C340 C336 1.368 1_545 S
C340 C339 1.523 . S
H341 C316 0.950 . S
H342 C318 0.950 . S
H343 C319 0.949 . S
H344 C321 0.950 . S
H345 C323 0.950 . S
C346 C347 1.349 . S
C346 C348 1.327 . S
C346 H371 0.950 . S
C347 C346 1.349 . S
C347 C363 1.349 . S
C348 C346 1.327 . S
C348 C367 1.429 . S
C348 H372 0.950 . S
C349 C366 1.574 . S
C349 C368 1.368 . S
C349 H373 0.949 . S
H350 C354 0.949 . S
C351 C352 1.349 . S
C351 C353 1.327 . S
C351 H374 0.950 . S
C352 C351 1.349 . S
C352 C364 1.349 . S
C353 C351 1.327 . S
C353 C369 1.429 . S
C353 H375 0.950 . S
C354 H350 0.949 . S
C354 C362 1.574 . S
C354 C370 1.368 . S
H355 C363 0.950 . S
H356 C361 0.950 . S
H357 C362 0.949 . S
H358 C364 0.950 . S
H359 C365 0.950 . S
H360 C366 0.949 . S
C361 H356 0.950 . S
C361 C363 1.327 . S
C361 C367 1.429 . S
C362 C354 1.574 . S
C362 H357 0.949 . S
C362 C368 1.368 1_655 S
C363 C347 1.349 . S
C363 H355 0.950 . S
C363 C361 1.327 . S
C364 C352 1.349 . S
C364 H358 0.950 . S
C364 C365 1.327 . S
C365 H359 0.950 . S
C365 C364 1.327 . S
C365 C369 1.429 . S
C366 C349 1.574 . S
C366 H360 0.949 . S
C366 C370 1.368 1_455 S
C367 C348 1.429 . S
C367 C361 1.429 . S
C367 C368 1.523 . S
C368 C349 1.368 . S
C368 C362 1.368 1_455 S
C368 C367 1.523 . S
C369 C353 1.429 . S
C369 C365 1.429 . S
C369 C370 1.523 . S
C370 C354 1.368 . S
C370 C366 1.368 1_655 S
C370 C369 1.523 . S
H371 C346 0.950 . S
H372 C348 0.950 . S
H373 C349 0.949 . S
H374 C351 0.950 . S
H375 C353 0.950 . S
C376 C377 1.349 . S
C376 C378 1.327 1_554 S
C376 H401 0.951 . S
C377 C376 1.349 . S
C377 C393 1.349 . S
C378 C376 1.327 1_556 S
C378 C397 1.429 . S
C378 H402 0.950 . S
C379 C396 1.574 . S
C379 C398 1.368 . S
C379 H403 0.949 . S
H380 C384 0.949 . S
C381 C382 1.349 . S
C381 C383 1.327 . S
C381 H404 0.950 . S
C382 C381 1.349 . S
C382 C394 1.349 . S
C383 C381 1.327 . S
C383 C399 1.429 . S
C383 H405 0.950 . S
C384 H380 0.949 . S
C384 C392 1.574 . S
C384 C400 1.368 . S
H385 C393 0.950 . S
H386 C391 0.950 . S
H387 C392 0.949 . S
H388 C394 0.950 . S
H389 C395 0.950 . S
H390 C396 0.949 . S
C391 H386 0.950 . S
C391 C393 1.327 . S
C391 C397 1.429 1_554 S
C392 C384 1.574 . S
C392 H387 0.949 . S
C392 C398 1.368 . S
C393 C377 1.349 . S
C393 H385 0.950 . S
C393 C391 1.327 . S
C394 C382 1.349 . S
C394 H388 0.950 . S
C394 C395 1.327 . S
C395 H389 0.950 . S
C395 C394 1.327 . S
C395 C399 1.429 . S
C396 C379 1.574 . S
C396 H390 0.949 . S
C396 C400 1.368 . S
C397 C378 1.429 . S
C397 C391 1.429 1_556 S
C397 C398 1.523 . S
C398 C379 1.368 . S
C398 C392 1.368 . S
C398 C397 1.523 . S
C399 C383 1.429 . S
C399 C395 1.429 . S
C399 C400 1.523 . S
C400 C384 1.368 . S
C400 C396 1.368 . S
C400 C399 1.523 . S
H401 C376 0.951 . S
H402 C378 0.950 . S
H403 C379 0.949 . S
H404 C381 0.950 . S
H405 C383 0.950 . S
C406 C407 1.349 . S
C406 C408 1.327 . S
C406 H431 0.950 . S
C407 C406 1.349 . S
C407 C423 1.349 . S
C408 C406 1.327 . S
C408 C427 1.429 . S
C408 H432 0.950 . S
C409 C426 1.574 . S
C409 C428 1.368 . S
C409 H433 0.949 . S
H410 C414 0.949 . S
C411 C412 1.349 . S
C411 C413 1.327 . S
C411 H434 0.950 . S
C412 C411 1.349 . S
C412 C424 1.349 . S
C413 C411 1.327 . S
C413 C429 1.429 . S
C413 H435 0.950 . S
C414 H410 0.949 . S
C414 C422 1.574 . S
C414 C430 1.368 . S
H415 C423 0.950 . S
H416 C421 0.950 . S
H417 C422 0.949 . S
H418 C424 0.950 . S
H419 C425 0.950 . S
H420 C426 0.949 . S
C421 H416 0.950 . S
C421 C423 1.327 . S
C421 C427 1.429 . S
C422 C414 1.574 . S
C422 H417 0.949 . S
C422 C428 1.368 . S
C423 C407 1.349 . S
C423 H415 0.950 . S
C423 C421 1.327 . S
C424 C412 1.349 . S
C424 H418 0.950 . S
C424 C425 1.327 . S
C425 H419 0.950 . S
C425 C424 1.327 . S
C425 C429 1.429 . S
C426 C409 1.574 . S
C426 H420 0.949 . S
C426 C430 1.368 . S
C427 C408 1.429 . S
C427 C421 1.429 . S
C427 C428 1.523 . S
C428 C409 1.368 . S
C428 C422 1.368 . S
C428 C427 1.523 . S
C429 C413 1.429 . S
C429 C425 1.429 . S
C429 C430 1.523 . S
C430 C414 1.368 . S
C430 C426 1.368 . S
C430 C429 1.523 . S
H431 C406 0.950 . S
H432 C408 0.950 . S
H433 C409 0.949 . S
H434 C411 0.950 . S
H435 C413 0.950 . S
C436 C437 1.349 . S
C436 C438 1.327 1_556 S
C436 H461 0.950 1_556 S
C437 C436 1.349 . S
C437 C453 1.349 . S
C438 C436 1.327 1_554 S
C438 C457 1.429 . S
C438 H462 0.950 . S
C439 C456 1.574 . S
C439 C458 1.368 . S
C439 H463 0.949 . S
H440 C444 0.949 . S
C441 C442 1.349 . S
C441 C443 1.327 . S
C441 H464 0.950 . S
C442 C441 1.349 . S
C442 C454 1.349 . S
C443 C441 1.327 . S
C443 C459 1.429 . S
C443 H465 0.950 . S
C444 H440 0.949 . S
C444 C452 1.574 . S
C444 C460 1.368 . S
H445 C453 0.950 . S
H446 C451 0.950 . S
H447 C452 0.949 . S
H448 C454 0.950 . S
H449 C455 0.950 . S
H450 C456 0.949 . S
C451 H446 0.950 . S
C451 C453 1.327 . S
C451 C457 1.429 1_556 S
C452 C444 1.574 . S
C452 H447 0.949 . S
C452 C458 1.368 . S
C453 C437 1.349 . S
C453 H445 0.950 . S
C453 C451 1.327 . S
C454 C442 1.349 . S
C454 H448 0.950 . S
C454 C455 1.327 . S
C455 H449 0.950 . S
C455 C454 1.327 . S
C455 C459 1.429 . S
C456 C439 1.574 . S
C456 H450 0.949 . S
C456 C460 1.368 . S
C457 C438 1.429 . S
C457 C451 1.429 1_554 S
C457 C458 1.523 . S
C458 C439 1.368 . S
C458 C452 1.368 . S
C458 C457 1.523 . S
C459 C443 1.429 . S
C459 C455 1.429 . S
C459 C460 1.523 . S
C460 C444 1.368 . S
C460 C456 1.368 . S
C460 C459 1.523 . S
H461 C436 0.950 1_554 S
H462 C438 0.950 . S
H463 C439 0.949 . S
H464 C441 0.950 . S
H465 C443 0.950 . S
C466 C467 1.349 . S
C466 C468 1.327 . S
C466 H491 0.950 . S
C467 C466 1.349 . S
C467 C483 1.349 . S
C468 C466 1.327 . S
C468 C487 1.429 . S
C468 H492 0.950 . S
C469 C486 1.574 . S
C469 C488 1.368 . S
C469 H493 0.949 . S
H470 C474 0.949 . S
C471 C472 1.349 . S
C471 C473 1.327 . S
C471 H494 0.950 . S
C472 C471 1.349 . S
C472 C484 1.349 . S
C473 C471 1.327 . S
C473 C489 1.429 . S
C473 H495 0.950 . S
C474 H470 0.949 . S
C474 C482 1.574 . S
C474 C490 1.368 . S
H475 C483 0.950 . S
H476 C481 0.950 . S
H477 C482 0.949 . S
H478 C484 0.950 . S
H479 C485 0.950 . S
H480 C486 0.949 . S
C481 H476 0.950 . S
C481 C483 1.327 . S
C481 C487 1.429 . S
C482 C474 1.574 . S
C482 H477 0.949 . S
C482 C488 1.368 . S
C483 C467 1.349 . S
C483 H475 0.950 . S
C483 C481 1.327 . S
C484 C472 1.349 . S
C484 H478 0.950 . S
C484 C485 1.327 . S
C485 H479 0.950 . S
C485 C484 1.327 . S
C485 C489 1.429 . S
C486 C469 1.574 . S
C486 H480 0.949 . S
C486 C490 1.368 . S
C487 C468 1.429 . S
C487 C481 1.429 . S
C487 C488 1.523 . S
C488 C469 1.368 . S
C488 C482 1.368 . S
C488 C487 1.523 . S
C489 C473 1.429 . S
C489 C485 1.429 . S
C489 C490 1.523 . S
C490 C474 1.368 . S
C490 C486 1.368 . S
C490 C489 1.523 . S
H491 C466 0.950 . S
H492 C468 0.950 . S
H493 C469 0.949 . S
H494 C471 0.950 . S
H495 C473 0.950 . S
C496 C497 1.349 . S
C496 C498 1.327 . S
C496 H521 0.950 . S
C497 C496 1.349 . S
C497 C513 1.349 . S
C498 C496 1.327 . S
C498 C517 1.429 . S
C498 H522 0.950 . S
C499 C516 1.574 1_554 S
C499 C518 1.368 1_565 S
C499 H523 0.949 . S
H500 C504 0.949 . S
C501 C502 1.349 . S
C501 C503 1.327 . S
C501 H524 0.950 . S
C502 C501 1.349 . S
C502 C514 1.349 . S
C503 C501 1.327 . S
C503 C519 1.429 . S
C503 H525 0.950 . S
C504 H500 0.949 . S
C504 C512 1.574 1_556 S
C504 C520 1.368 1_545 S
H505 C513 0.950 . S
H506 C511 0.950 . S
H507 C512 0.949 . S
H508 C514 0.950 . S
H509 C515 0.950 . S
H510 C516 0.949 . S
C511 H506 0.950 . S
C511 C513 1.327 . S
C511 C517 1.429 . S
C512 C504 1.574 1_554 S
C512 H507 0.949 . S
C512 C518 1.368 . S
C513 C497 1.349 . S
C513 H505 0.950 . S
C513 C511 1.327 . S
C514 C502 1.349 . S
C514 H508 0.950 . S
C514 C515 1.327 . S
C515 H509 0.950 . S
C515 C514 1.327 . S
C515 C519 1.429 . S
C516 C499 1.574 1_556 S
C516 H510 0.949 . S
C516 C520 1.368 . S
C517 C498 1.429 . S
C517 C511 1.429 . S
C517 C518 1.523 . S
C518 C499 1.368 1_545 S
C518 C512 1.368 . S
C518 C517 1.523 . S
C519 C503 1.429 . S
C519 C515 1.429 . S
C519 C520 1.523 . S
C520 C504 1.368 1_565 S
C520 C516 1.368 . S
C520 C519 1.523 . S
H521 C496 0.950 . S
H522 C498 0.950 . S
H523 C499 0.949 . S
H524 C501 0.950 . S
H525 C503 0.950 . S
C526 C527 1.349 . S
C526 C528 1.327 . S
C526 H551 0.950 . S
C527 C526 1.349 . S
C527 C543 1.349 . S
C528 C526 1.327 . S
C528 C547 1.429 . S
C528 H552 0.950 . S
C529 C546 1.574 . S
C529 C548 1.368 . S
C529 H553 0.949 . S
H530 C534 0.949 . S
C531 C532 1.349 . S
C531 C533 1.327 . S
C531 H554 0.950 . S
C532 C531 1.349 . S
C532 C544 1.349 . S
C533 C531 1.327 . S
C533 C549 1.429 . S
C533 H555 0.950 . S
C534 H530 0.949 . S
C534 C542 1.574 . S
C534 C550 1.368 . S
H535 C543 0.950 . S
H536 C541 0.950 . S
H537 C542 0.949 . S
H538 C544 0.950 . S
H539 C545 0.950 . S
H540 C546 0.949 . S
C541 H536 0.950 . S
C541 C543 1.327 . S
C541 C547 1.429 . S
C542 C534 1.574 . S
C542 H537 0.949 . S
C542 C548 1.368 . S
C543 C527 1.349 . S
C543 H535 0.950 . S
C543 C541 1.327 . S
C544 C532 1.349 . S
C544 H538 0.950 . S
C544 C545 1.327 . S
C545 H539 0.950 . S
C545 C544 1.327 . S
C545 C549 1.429 . S
C546 C529 1.574 . S
C546 H540 0.949 . S
C546 C550 1.368 . S
C547 C528 1.429 . S
C547 C541 1.429 . S
C547 C548 1.523 . S
C548 C529 1.368 . S
C548 C542 1.368 . S
C548 C547 1.523 . S
C549 C533 1.429 . S
C549 C545 1.429 . S
C549 C550 1.523 . S
C550 C534 1.368 . S
C550 C546 1.368 . S
C550 C549 1.523 . S
H551 C526 0.950 . S
H552 C528 0.950 . S
H553 C529 0.949 . S
H554 C531 0.950 . S
H555 C533 0.950 . S
C137 C28 1.008 . S
C142 C6 1.004 1_655 S
C167 C40 1.008 . S
C172 C62 1.004 1_455 S
C197 C74 1.004 1_455 S
C202 C96 1.008 . S
C227 C108 1.004 1_655 S
C232 C130 1.008 . S
C257 C15 1.914 . S
C262 C83 1.914 . S
C287 C117 1.914 . S
C292 C56 1.914 . S
C317 C69 1.967 . S
C322 C1 1.967 . S
C347 C103 1.966 . S
C352 C37 1.966 . S
C377 C22 1.576 . S
C382 C119 1.742 . S
C407 C49 1.576 . S
C412 C85 1.742 . S
C437 C90 1.576 . S
C442 C51 1.742 . S
C467 C124 1.576 . S
C472 C17 1.742 . S
C497 C3 1.362 . S
C502 C71 1.362 . S
C527 C105 1.361 . S
C532 C35 1.361 . S
