# Generated by pormake.
# Topology unu, (4)-cn, num edge types: 1
# Building blocks:
#     Node 0, Type 0, BuildingBlock: CEKHIL_clean_sbu_0, # of connection points: 4
#     Node 1, Type 0, BuildingBlock: CEKHIL_clean_sbu_0, # of connection points: 4
#     Node 2, Type 0, BuildingBlock: CEKHIL_clean_sbu_0, # of connection points: 4
#     Node 3, Type 0, BuildingBlock: CEKHIL_clean_sbu_0, # of connection points: 4
#     Node 4, Type 0, BuildingBlock: CEKHIL_clean_sbu_0, # of connection points: 4
#     Node 5, Type 0, BuildingBlock: CEKHIL_clean_sbu_0, # of connection points: 4
#     Node 6, Type 0, BuildingBlock: CEKHIL_clean_sbu_0, # of connection points: 4
#     Node 7, Type 0, BuildingBlock: CEKHIL_clean_sbu_0, # of connection points: 4
#     Node 8, Type 0, BuildingBlock: CEKHIL_clean_sbu_0, # of connection points: 4
#     Node 9, Type 0, BuildingBlock: CEKHIL_clean_sbu_0, # of connection points: 4
#     Node 10, Type 0, BuildingBlock: CEKHIL_clean_sbu_0, # of connection points: 4
#     Node 11, Type 0, BuildingBlock: CEKHIL_clean_sbu_0, # of connection points: 4
#     Node 12, Type 0, BuildingBlock: CEKHIL_clean_sbu_0, # of connection points: 4
#     Node 13, Type 0, BuildingBlock: CEKHIL_clean_sbu_0, # of connection points: 4
#     Node 14, Type 0, BuildingBlock: CEKHIL_clean_sbu_0, # of connection points: 4
#     Node 15, Type 0, BuildingBlock: CEKHIL_clean_sbu_0, # of connection points: 4
#     Node 16, Type 0, BuildingBlock: CEKHIL_clean_sbu_0, # of connection points: 4
#     Node 17, Type 0, BuildingBlock: CEKHIL_clean_sbu_0, # of connection points: 4
#     Node 18, Type 0, BuildingBlock: CEKHIL_clean_sbu_0, # of connection points: 4
#     Node 19, Type 0, BuildingBlock: CEKHIL_clean_sbu_0, # of connection points: 4
#     Node 20, Type 0, BuildingBlock: CEKHIL_clean_sbu_0, # of connection points: 4
#     Node 21, Type 0, BuildingBlock: CEKHIL_clean_sbu_0, # of connection points: 4
#     Node 22, Type 0, BuildingBlock: CEKHIL_clean_sbu_0, # of connection points: 4
#     Node 23, Type 0, BuildingBlock: CEKHIL_clean_sbu_0, # of connection points: 4
#     Node 24, Type 0, BuildingBlock: CEKHIL_clean_sbu_0, # of connection points: 4
#     Node 25, Type 0, BuildingBlock: CEKHIL_clean_sbu_0, # of connection points: 4
#     Node 26, Type 0, BuildingBlock: CEKHIL_clean_sbu_0, # of connection points: 4
#     Node 27, Type 0, BuildingBlock: CEKHIL_clean_sbu_0, # of connection points: 4
#     Node 28, Type 0, BuildingBlock: CEKHIL_clean_sbu_0, # of connection points: 4
#     Node 29, Type 0, BuildingBlock: CEKHIL_clean_sbu_0, # of connection points: 4
#     Node 30, Type 0, BuildingBlock: CEKHIL_clean_sbu_0, # of connection points: 4
#     Node 31, Type 0, BuildingBlock: CEKHIL_clean_sbu_0, # of connection points: 4
#     Node 32, Type 0, BuildingBlock: CEKHIL_clean_sbu_0, # of connection points: 4
#     Node 33, Type 0, BuildingBlock: CEKHIL_clean_sbu_0, # of connection points: 4
#     Node 34, Type 0, BuildingBlock: CEKHIL_clean_sbu_0, # of connection points: 4
#     Node 35, Type 0, BuildingBlock: CEKHIL_clean_sbu_0, # of connection points: 4
#     Edge 36, Type (0, 0), BuildingBlock: UVAHIK_clean_linker_0, # of connection points: 2
#     Edge 37, Type (0, 0), BuildingBlock: UVAHIK_clean_linker_0, # of connection points: 2
#     Edge 38, Type (0, 0), BuildingBlock: UVAHIK_clean_linker_0, # of connection points: 2
#     Edge 39, Type (0, 0), BuildingBlock: UVAHIK_clean_linker_0, # of connection points: 2
#     Edge 40, Type (0, 0), BuildingBlock: UVAHIK_clean_linker_0, # of connection points: 2
#     Edge 41, Type (0, 0), BuildingBlock: UVAHIK_clean_linker_0, # of connection points: 2
#     Edge 42, Type (0, 0), BuildingBlock: UVAHIK_clean_linker_0, # of connection points: 2
#     Edge 43, Type (0, 0), BuildingBlock: UVAHIK_clean_linker_0, # of connection points: 2
#     Edge 44, Type (0, 0), BuildingBlock: UVAHIK_clean_linker_0, # of connection points: 2
#     Edge 45, Type (0, 0), BuildingBlock: UVAHIK_clean_linker_0, # of connection points: 2
#     Edge 46, Type (0, 0), BuildingBlock: UVAHIK_clean_linker_0, # of connection points: 2
#     Edge 47, Type (0, 0), BuildingBlock: UVAHIK_clean_linker_0, # of connection points: 2
#     Edge 48, Type (0, 0), BuildingBlock: UVAHIK_clean_linker_0, # of connection points: 2
#     Edge 49, Type (0, 0), BuildingBlock: UVAHIK_clean_linker_0, # of connection points: 2
#     Edge 50, Type (0, 0), BuildingBlock: UVAHIK_clean_linker_0, # of connection points: 2
#     Edge 51, Type (0, 0), BuildingBlock: UVAHIK_clean_linker_0, # of connection points: 2
#     Edge 52, Type (0, 0), BuildingBlock: UVAHIK_clean_linker_0, # of connection points: 2
#     Edge 53, Type (0, 0), BuildingBlock: UVAHIK_clean_linker_0, # of connection points: 2
#     Edge 54, Type (0, 0), BuildingBlock: UVAHIK_clean_linker_0, # of connection points: 2
#     Edge 55, Type (0, 0), BuildingBlock: UVAHIK_clean_linker_0, # of connection points: 2
#     Edge 56, Type (0, 0), BuildingBlock: UVAHIK_clean_linker_0, # of connection points: 2
#     Edge 57, Type (0, 0), BuildingBlock: UVAHIK_clean_linker_0, # of connection points: 2
#     Edge 58, Type (0, 0), BuildingBlock: UVAHIK_clean_linker_0, # of connection points: 2
#     Edge 59, Type (0, 0), BuildingBlock: UVAHIK_clean_linker_0, # of connection points: 2
#     Edge 60, Type (0, 0), BuildingBlock: UVAHIK_clean_linker_0, # of connection points: 2
#     Edge 61, Type (0, 0), BuildingBlock: UVAHIK_clean_linker_0, # of connection points: 2
#     Edge 62, Type (0, 0), BuildingBlock: UVAHIK_clean_linker_0, # of connection points: 2
#     Edge 63, Type (0, 0), BuildingBlock: UVAHIK_clean_linker_0, # of connection points: 2
#     Edge 64, Type (0, 0), BuildingBlock: UVAHIK_clean_linker_0, # of connection points: 2
#     Edge 65, Type (0, 0), BuildingBlock: UVAHIK_clean_linker_0, # of connection points: 2
#     Edge 66, Type (0, 0), BuildingBlock: UVAHIK_clean_linker_0, # of connection points: 2
#     Edge 67, Type (0, 0), BuildingBlock: UVAHIK_clean_linker_0, # of connection points: 2
#     Edge 68, Type (0, 0), BuildingBlock: UVAHIK_clean_linker_0, # of connection points: 2
#     Edge 69, Type (0, 0), BuildingBlock: UVAHIK_clean_linker_0, # of connection points: 2
#     Edge 70, Type (0, 0), BuildingBlock: UVAHIK_clean_linker_0, # of connection points: 2
#     Edge 71, Type (0, 0), BuildingBlock: UVAHIK_clean_linker_0, # of connection points: 2
#     Edge 72, Type (0, 0), BuildingBlock: UVAHIK_clean_linker_0, # of connection points: 2
#     Edge 73, Type (0, 0), BuildingBlock: UVAHIK_clean_linker_0, # of connection points: 2
#     Edge 74, Type (0, 0), BuildingBlock: UVAHIK_clean_linker_0, # of connection points: 2
#     Edge 75, Type (0, 0), BuildingBlock: UVAHIK_clean_linker_0, # of connection points: 2
#     Edge 76, Type (0, 0), BuildingBlock: UVAHIK_clean_linker_0, # of connection points: 2
#     Edge 77, Type (0, 0), BuildingBlock: UVAHIK_clean_linker_0, # of connection points: 2
#     Edge 78, Type (0, 0), BuildingBlock: UVAHIK_clean_linker_0, # of connection points: 2
#     Edge 79, Type (0, 0), BuildingBlock: UVAHIK_clean_linker_0, # of connection points: 2
#     Edge 80, Type (0, 0), BuildingBlock: UVAHIK_clean_linker_0, # of connection points: 2
#     Edge 81, Type (0, 0), BuildingBlock: UVAHIK_clean_linker_0, # of connection points: 2
#     Edge 82, Type (0, 0), BuildingBlock: UVAHIK_clean_linker_0, # of connection points: 2
#     Edge 83, Type (0, 0), BuildingBlock: UVAHIK_clean_linker_0, # of connection points: 2
#     Edge 84, Type (0, 0), BuildingBlock: UVAHIK_clean_linker_0, # of connection points: 2
#     Edge 85, Type (0, 0), BuildingBlock: UVAHIK_clean_linker_0, # of connection points: 2
#     Edge 86, Type (0, 0), BuildingBlock: UVAHIK_clean_linker_0, # of connection points: 2
#     Edge 87, Type (0, 0), BuildingBlock: UVAHIK_clean_linker_0, # of connection points: 2
#     Edge 88, Type (0, 0), BuildingBlock: UVAHIK_clean_linker_0, # of connection points: 2
#     Edge 89, Type (0, 0), BuildingBlock: UVAHIK_clean_linker_0, # of connection points: 2
#     Edge 90, Type (0, 0), BuildingBlock: UVAHIK_clean_linker_0, # of connection points: 2
#     Edge 91, Type (0, 0), BuildingBlock: UVAHIK_clean_linker_0, # of connection points: 2
#     Edge 92, Type (0, 0), BuildingBlock: UVAHIK_clean_linker_0, # of connection points: 2
#     Edge 93, Type (0, 0), BuildingBlock: UVAHIK_clean_linker_0, # of connection points: 2
#     Edge 94, Type (0, 0), BuildingBlock: UVAHIK_clean_linker_0, # of connection points: 2
#     Edge 95, Type (0, 0), BuildingBlock: UVAHIK_clean_linker_0, # of connection points: 2
#     Edge 96, Type (0, 0), BuildingBlock: UVAHIK_clean_linker_0, # of connection points: 2
#     Edge 97, Type (0, 0), BuildingBlock: UVAHIK_clean_linker_0, # of connection points: 2
#     Edge 98, Type (0, 0), BuildingBlock: UVAHIK_clean_linker_0, # of connection points: 2
#     Edge 99, Type (0, 0), BuildingBlock: UVAHIK_clean_linker_0, # of connection points: 2
#     Edge 100, Type (0, 0), BuildingBlock: UVAHIK_clean_linker_0, # of connection points: 2
#     Edge 101, Type (0, 0), BuildingBlock: UVAHIK_clean_linker_0, # of connection points: 2
#     Edge 102, Type (0, 0), BuildingBlock: UVAHIK_clean_linker_0, # of connection points: 2
#     Edge 103, Type (0, 0), BuildingBlock: UVAHIK_clean_linker_0, # of connection points: 2
#     Edge 104, Type (0, 0), BuildingBlock: UVAHIK_clean_linker_0, # of connection points: 2
#     Edge 105, Type (0, 0), BuildingBlock: UVAHIK_clean_linker_0, # of connection points: 2
#     Edge 106, Type (0, 0), BuildingBlock: UVAHIK_clean_linker_0, # of connection points: 2
#     Edge 107, Type (0, 0), BuildingBlock: UVAHIK_clean_linker_0, # of connection points: 2
# Relax obj value: 0.188
# Max RMSD: 0.232
# Mean RMSD: 0.232
data_MOF--net-unu--node1-CEKHIL_clean_sbu_0--edge1-UVAHIK_clean_linker_0
_symmetry_space_group_name_H-M    P1
_symmetry_Int_Tables_number       1
_symmetry_cell_setting            triclinic
loop_
_symmetry_equiv_pos_as_xyz
'x, y, z'
_cell_length_a     55.937032
_cell_length_b     55.919133
_cell_length_c     128.33853
_cell_angle_alpha  90.006593
_cell_angle_beta   89.998279
_cell_angle_gamma 120.00565
loop_
_atom_site_label
_atom_site_type_symbol
_atom_site_fract_x
_atom_site_fract_y
_atom_site_fract_z
_atom_type_partial_charge
Co0 Co 0.21292 0.03291 0.11428 0.0
O1 O 0.23835 0.01943 0.11435 0.0
O2 O 0.24312 0.05459 0.1048 0.0
C3 C 0.17384 0.99175 0.113 0.0
O4 O 0.19007 0.05176 0.11216 0.0
Co5 Co 0.17146 0.01712 0.13266 0.0
O6 O 0.15342 0.03077 0.12291 0.0
C7 C 0.22942 0.06009 0.13576 0.0
C8 C 0.25279 0.0387 0.10765 0.0
C9 C 0.16625 0.04703 0.11536 0.0
O10 O 0.23394 0.05891 0.126 0.0
O11 O 0.20631 0.04377 0.14014 0.0
O12 O 0.18834 0.00363 0.10473 0.0
O13 O 0.18522 0.00338 0.12174 0.0
Co14 Co 0.96644 0.17608 0.11286 0.0
O15 O 0.98112 0.21498 0.11125 0.0
O16 O 0.94253 0.18278 0.10384 0.0
C17 C 0.00597 0.1756 0.11012 0.0
O18 O 0.94576 0.1339 0.11277 0.0
Co19 Co 0.9877 0.15687 0.13171 0.0
O20 O 0.96435 0.12003 0.12537 0.0
C21 C 0.94683 0.17423 0.13534 0.0
C22 C 0.96001 0.20888 0.10535 0.0
C23 C 0.94751 0.11496 0.11787 0.0
O24 O 0.94492 0.17624 0.12543 0.0
O25 O 0.96436 0.16882 0.13953 0.0
O26 O 0.99147 0.17608 0.10231 0.0
O27 O 0.99804 0.17909 0.11918 0.0
Co28 Co 0.8215 0.78325 0.1105 0.0
O29 O 0.78368 0.75794 0.10726 0.0
O30 O 0.81934 0.75539 0.10093 0.0
C31 C 0.82019 0.82262 0.10858 0.0
O32 O 0.86333 0.80658 0.11207 0.0
Co33 Co 0.83372 0.81908 0.1305 0.0
O34 O 0.87201 0.83691 0.12511 0.0
C35 C 0.81818 0.76087 0.1326 0.0
C36 C 0.79274 0.74511 0.10152 0.0
C37 C 0.88005 0.82727 0.11775 0.0
O38 O 0.81925 0.75929 0.12263 0.0
O39 O 0.82125 0.78241 0.13731 0.0
O40 O 0.82275 0.81016 0.10047 0.0
O41 O 0.81487 0.809 0.11721 0.0
Co42 Co 0.035 0.21308 0.38524 0.0
O43 O 0.01915 0.23622 0.38669 0.0
O44 O 0.05762 0.2437 0.3945 0.0
C45 C 0.99579 0.17236 0.38738 0.0
O46 O 0.05663 0.19261 0.3855 0.0
Co47 Co 0.01603 0.17364 0.36602 0.0
O48 O 0.03989 0.16103 0.37254 0.0
C49 C 0.05641 0.23231 0.36304 0.0
C50 C 0.03971 0.25167 0.39274 0.0
C51 C 0.05597 0.17263 0.38026 0.0
O52 O 0.0573 0.23569 0.37297 0.0
O53 O 0.03955 0.20952 0.35858 0.0
O54 O 0.00925 0.18694 0.39545 0.0
O55 O 0.00451 0.18447 0.37849 0.0
Co56 Co 0.78785 0.82164 0.38721 0.0
O57 O 0.76179 0.7833 0.38914 0.0
O58 O 0.75899 0.81766 0.39664 0.0
C59 C 0.82657 0.81927 0.38924 0.0
O60 O 0.81154 0.86364 0.38696 0.0
Co61 Co 0.82625 0.83811 0.3678 0.0
O62 O 0.84317 0.8753 0.3742 0.0
C63 C 0.76836 0.82312 0.36504 0.0
C64 C 0.74842 0.79125 0.39513 0.0
C65 C 0.83265 0.88164 0.38178 0.0
O66 O 0.76566 0.82236 0.375 0.0
O67 O 0.79039 0.82697 0.36051 0.0
O68 O 0.81314 0.82023 0.39734 0.0
O69 O 0.81428 0.81619 0.3804 0.0
Co70 Co 0.17599 0.96266 0.38481 0.0
O71 O 0.21464 0.97561 0.38614 0.0
O72 O 0.18157 0.93886 0.39428 0.0
C73 C 0.17813 0.00373 0.38673 0.0
O74 O 0.13398 0.94378 0.38528 0.0
Co75 Co 0.15652 0.98325 0.3658 0.0
O76 O 0.12007 0.96234 0.37272 0.0
C77 C 0.17181 0.94056 0.36268 0.0
C78 C 0.20775 0.955 0.39241 0.0
C79 C 0.11505 0.94598 0.38039 0.0
O80 O 0.17404 0.93907 0.3726 0.0
O81 O 0.16729 0.95853 0.35833 0.0
O82 O 0.17815 0.98994 0.39487 0.0
O83 O 0.18026 0.99393 0.37788 0.0
Co84 Co 0.79001 0.97144 0.88538 0.0
O85 O 0.76446 0.9848 0.88592 0.0
O86 O 0.75913 0.94772 0.89427 0.0
C87 C 0.82883 0.01211 0.88798 0.0
O88 O 0.81269 0.9522 0.88678 0.0
Co89 Co 0.83297 0.99096 0.86746 0.0
O90 O 0.85033 0.97542 0.87667 0.0
C91 C 0.7755 0.94838 0.8632 0.0
C92 C 0.74969 0.96422 0.89209 0.0
C93 C 0.83679 0.95756 0.88369 0.0
O94 O 0.7701 0.94813 0.87294 0.0
O95 O 0.79906 0.96521 0.85924 0.0
O96 O 0.81341 0.99823 0.89581 0.0
O97 O 0.81851 0.00272 0.87886 0.0
Co98 Co 0.03097 0.82238 0.88316 0.0
O99 O 0.01674 0.78342 0.88193 0.0
O100 O 0.05221 0.81156 0.8919 0.0
C101 C 0.99044 0.82114 0.88529 0.0
O102 O 0.0507 0.86365 0.88639 0.0
Co103 Co 0.01611 0.85195 0.86603 0.0
O104 O 0.0303 0.88184 0.87661 0.0
C105 C 0.05839 0.83675 0.86166 0.0
C106 C 0.03595 0.78671 0.88841 0.0
C107 C 0.04651 0.88361 0.88393 0.0
O108 O 0.05664 0.82893 0.87118 0.0
O109 O 0.0427 0.84505 0.85778 0.0
O110 O 0.00233 0.81662 0.89313 0.0
O111 O 0.00154 0.82261 0.87629 0.0
Co112 Co 0.17849 0.20891 0.88421 0.0
O113 O 0.21741 0.23458 0.88399 0.0
O114 O 0.18667 0.24081 0.89267 0.0
C115 C 0.18082 0.17046 0.8872 0.0
O116 O 0.13683 0.1864 0.8864 0.0
Co117 Co 0.15284 0.16365 0.86713 0.0
O118 O 0.121 0.14759 0.87687 0.0
C119 C 0.16661 0.22044 0.86204 0.0
C120 C 0.21233 0.25001 0.89009 0.0
C121 C 0.11763 0.16203 0.88378 0.0
O122 O 0.17327 0.22722 0.87162 0.0
O123 O 0.15955 0.19642 0.85845 0.0
O124 O 0.18329 0.18679 0.89483 0.0
O125 O 0.18052 0.17966 0.87797 0.0
Co126 Co 0.96332 0.79121 0.61221 0.0
O127 O 0.97776 0.76658 0.61177 0.0
O128 O 0.94074 0.76025 0.60312 0.0
C129 C 0.00355 0.8308 0.60996 0.0
O130 O 0.94333 0.81325 0.61074 0.0
Co131 Co 0.98142 0.83308 0.63052 0.0
O132 O 0.96584 0.85024 0.62124 0.0
C133 C 0.93974 0.77507 0.6343 0.0
C134 C 0.95768 0.75146 0.60547 0.0
C135 C 0.94845 0.83716 0.61403 0.0
O136 O 0.93964 0.77034 0.62449 0.0
O137 O 0.95626 0.79847 0.63845 0.0
O138 O 0.99035 0.81555 0.602 0.0
O139 O 0.9939 0.81986 0.61897 0.0
Co140 Co 0.21022 0.18105 0.61482 0.0
O141 O 0.237 0.21964 0.61422 0.0
O142 O 0.23923 0.18705 0.60515 0.0
C143 C 0.17219 0.18501 0.61356 0.0
O144 O 0.18584 0.1393 0.6133 0.0
Co145 Co 0.16927 0.15822 0.63345 0.0
O146 O 0.14977 0.12558 0.6242 0.0
C147 C 0.22682 0.17152 0.63645 0.0
C148 C 0.25011 0.21308 0.6075 0.0
C149 C 0.16193 0.12099 0.61672 0.0
O150 O 0.23116 0.17624 0.62662 0.0
O151 O 0.20404 0.16588 0.64085 0.0
O152 O 0.18592 0.18604 0.60524 0.0
O153 O 0.18375 0.18504 0.62229 0.0
Co154 Co 0.81972 0.03712 0.61257 0.0
O155 O 0.78178 0.02564 0.6101 0.0
O156 O 0.8172 0.06362 0.60354 0.0
C157 C 0.81698 0.99604 0.60973 0.0
O158 O 0.8616 0.05478 0.6135 0.0
Co159 Co 0.8329 0.01139 0.63168 0.0
O160 O 0.87091 0.03235 0.62604 0.0
C161 C 0.82012 0.05567 0.63512 0.0
C162 C 0.79061 0.04775 0.60451 0.0
C163 C 0.87859 0.05049 0.61886 0.0
O164 O 0.81957 0.05849 0.62519 0.0
O165 O 0.82306 0.03658 0.63936 0.0
O166 O 0.81924 0.01189 0.60194 0.0
O167 O 0.81284 0.00387 0.6187 0.0
Co168 Co 0.87555 0.36306 0.44764 0.0
O169 O 0.89877 0.34703 0.4477 0.0
O170 O 0.90791 0.38502 0.43909 0.0
C171 C 0.83531 0.32385 0.44494 0.0
O172 O 0.85537 0.38471 0.44567 0.0
Co173 Co 0.83219 0.34685 0.46526 0.0
O174 O 0.81686 0.36322 0.45546 0.0
C175 C 0.89027 0.38669 0.46978 0.0
C176 C 0.91537 0.36717 0.44169 0.0
C177 C 0.83142 0.38052 0.44843 0.0
O178 O 0.89574 0.38608 0.46009 0.0
O179 O 0.86625 0.37127 0.47367 0.0
O180 O 0.8516 0.33677 0.43717 0.0
O181 O 0.84542 0.33312 0.45409 0.0
Co182 Co 0.63588 0.51248 0.44699 0.0
O183 O 0.65007 0.55151 0.44679 0.0
O184 O 0.61303 0.5209 0.43811 0.0
C185 C 0.67622 0.51352 0.44459 0.0
O186 O 0.61592 0.47059 0.44528 0.0
Co187 Co 0.65353 0.48758 0.46497 0.0
O188 O 0.63798 0.4551 0.45553 0.0
C189 C 0.61174 0.50359 0.46901 0.0
C190 C 0.62974 0.54657 0.44062 0.0
C191 C 0.62063 0.45141 0.44838 0.0
O192 O 0.61213 0.50899 0.45927 0.0
O193 O 0.62798 0.49627 0.4731 0.0
O194 O 0.66294 0.51581 0.4367 0.0
O195 O 0.66648 0.51417 0.45367 0.0
Co196 Co 0.4856 0.12248 0.44845 0.0
O197 O 0.4466 0.09717 0.44855 0.0
O198 O 0.47704 0.09147 0.43943 0.0
C199 C 0.48393 0.16155 0.44633 0.0
O200 O 0.52731 0.14493 0.4463 0.0
Co201 Co 0.5115 0.16526 0.46633 0.0
O202 O 0.54307 0.18261 0.4565 0.0
C203 C 0.49668 0.10768 0.47023 0.0
C204 C 0.45144 0.08222 0.44211 0.0
C205 C 0.54643 0.16906 0.44921 0.0
O206 O 0.49033 0.10242 0.46055 0.0
O207 O 0.5041 0.13126 0.47433 0.0
O208 O 0.48117 0.14597 0.43838 0.0
O209 O 0.48399 0.15123 0.45535 0.0
Co210 Co 0.70196 0.54467 0.71891 0.0
O211 O 0.6874 0.5691 0.71918 0.0
O212 O 0.72426 0.57584 0.72802 0.0
C213 C 0.66142 0.50525 0.72097 0.0
O214 O 0.72189 0.52257 0.72051 0.0
Co215 Co 0.68418 0.50277 0.7006 0.0
O216 O 0.69952 0.4856 0.70998 0.0
C217 C 0.72618 0.56075 0.69691 0.0
C218 C 0.70725 0.58446 0.72551 0.0
C219 C 0.71683 0.49867 0.71723 0.0
O220 O 0.72603 0.56553 0.7067 0.0
O221 O 0.7097 0.53737 0.69274 0.0
O222 O 0.67446 0.52021 0.72902 0.0
O223 O 0.67162 0.51623 0.71203 0.0
Co224 Co 0.45653 0.15365 0.71864 0.0
O225 O 0.43098 0.11477 0.71882 0.0
O226 O 0.42679 0.14562 0.7283 0.0
C227 C 0.49562 0.15151 0.71975 0.0
O228 O 0.47971 0.19547 0.72052 0.0
Co229 Co 0.49704 0.1781 0.69991 0.0
O230 O 0.51572 0.21006 0.7095 0.0
C231 C 0.43903 0.16309 0.69714 0.0
C232 C 0.41691 0.11994 0.72557 0.0
C233 C 0.50352 0.21411 0.71712 0.0
O234 O 0.43503 0.15818 0.70697 0.0
O235 O 0.46186 0.16943 0.69263 0.0
O236 O 0.48148 0.14924 0.7281 0.0
O237 O 0.4838 0.15135 0.71108 0.0
Co238 Co 0.848 0.30059 0.72041 0.0
O239 O 0.88556 0.31155 0.72353 0.0
O240 O 0.84905 0.27371 0.72965 0.0
C241 C 0.85119 0.342 0.7229 0.0
O242 O 0.80629 0.28357 0.71901 0.0
Co243 Co 0.83631 0.3263 0.70094 0.0
O244 O 0.79819 0.30703 0.70655 0.0
C245 C 0.84878 0.28159 0.69803 0.0
C246 C 0.87575 0.28937 0.72915 0.0
C247 C 0.78985 0.28873 0.71369 0.0
O248 O 0.84884 0.27896 0.70798 0.0
O249 O 0.84615 0.30067 0.69361 0.0
O250 O 0.84808 0.32615 0.73079 0.0
O251 O 0.85582 0.33391 0.71407 0.0
Co252 Co 0.45482 0.29958 0.21993 0.0
O253 O 0.42867 0.31174 0.2218 0.0
O254 O 0.4247 0.27345 0.22866 0.0
C255 C 0.49335 0.34018 0.22306 0.0
O256 O 0.47855 0.28124 0.21957 0.0
Co257 Co 0.49509 0.32452 0.20114 0.0
O258 O 0.51124 0.30328 0.20728 0.0
C259 C 0.43791 0.28137 0.19727 0.0
C260 C 0.41448 0.28965 0.22732 0.0
C261 C 0.50013 0.28526 0.21448 0.0
O262 O 0.43415 0.27847 0.20717 0.0
O263 O 0.46034 0.30013 0.19314 0.0
O264 O 0.47876 0.32456 0.23074 0.0
O265 O 0.48219 0.33252 0.21395 0.0
Co266 Co 0.70014 0.15309 0.21878 0.0
O267 O 0.68767 0.11434 0.21873 0.0
O268 O 0.72223 0.14546 0.22837 0.0
C269 C 0.65852 0.15002 0.22003 0.0
O270 O 0.71811 0.19473 0.22089 0.0
Co271 Co 0.68357 0.17809 0.20041 0.0
O272 O 0.69676 0.20988 0.2101 0.0
C273 C 0.72727 0.1641 0.19728 0.0
C274 C 0.70695 0.11983 0.2255 0.0
C275 C 0.71304 0.21357 0.21766 0.0
O276 O 0.72639 0.15865 0.20706 0.0
O277 O 0.71053 0.17035 0.19292 0.0
O278 O 0.67059 0.14771 0.22831 0.0
O279 O 0.67027 0.1505 0.2113 0.0
Co280 Co 0.84169 0.54115 0.21698 0.0
O281 O 0.88073 0.56586 0.21619 0.0
O282 O 0.85176 0.57368 0.22536 0.0
C283 C 0.84303 0.50213 0.21983 0.0
O284 O 0.8002 0.51963 0.21975 0.0
Co285 Co 0.8136 0.49556 0.20011 0.0
O286 O 0.78296 0.48038 0.21039 0.0
C287 C 0.82854 0.55264 0.195 0.0
C288 C 0.87698 0.58204 0.22237 0.0
C289 C 0.78055 0.49524 0.21738 0.0
O290 O 0.83596 0.5595 0.20452 0.0
O291 O 0.82063 0.52842 0.19143 0.0
O292 O 0.84671 0.51886 0.22747 0.0
O293 O 0.84218 0.51122 0.21064 0.0
Co294 Co 0.63193 0.12348 0.94834 0.0
O295 O 0.64413 0.097 0.94873 0.0
O296 O 0.60987 0.09339 0.93887 0.0
C297 C 0.67381 0.16165 0.947 0.0
O298 O 0.61427 0.14729 0.94589 0.0
Co299 Co 0.64862 0.16597 0.96641 0.0
O300 O 0.63554 0.1842 0.9565 0.0
C301 C 0.60426 0.1086 0.96975 0.0
C302 C 0.62502 0.08306 0.94192 0.0
C303 C 0.61928 0.17131 0.94897 0.0
O304 O 0.60543 0.10348 0.96006 0.0
O305 O 0.62103 0.13176 0.97402 0.0
O306 O 0.66165 0.14699 0.93879 0.0
O307 O 0.66187 0.15096 0.95577 0.0
Co308 Co 0.87854 0.51221 0.94564 0.0
O309 O 0.90336 0.55064 0.94321 0.0
O310 O 0.90684 0.51664 0.93582 0.0
C311 C 0.83886 0.51304 0.94404 0.0
O312 O 0.85603 0.47013 0.9463 0.0
Co313 Co 0.84135 0.49576 0.96543 0.0
O314 O 0.82489 0.45833 0.95926 0.0
C315 C 0.89995 0.5125 0.96761 0.0
C316 C 0.91662 0.54305 0.937 0.0
C317 C 0.83543 0.45201 0.95168 0.0
O318 O 0.90222 0.51308 0.95763 0.0
O319 O 0.87794 0.50821 0.97229 0.0
O320 O 0.85175 0.51196 0.93579 0.0
O321 O 0.85209 0.51708 0.95271 0.0
Co322 Co 0.4859 0.36611 0.94692 0.0
O323 O 0.4474 0.35323 0.94505 0.0
O324 O 0.48127 0.39174 0.93813 0.0
C325 C 0.48485 0.32599 0.94377 0.0
O326 O 0.52795 0.38518 0.94719 0.0
Co327 Co 0.50236 0.34185 0.96562 0.0
O328 O 0.53975 0.36437 0.9596 0.0
C329 C 0.4876 0.38449 0.96958 0.0
C330 C 0.45492 0.3751 0.93943 0.0
C331 C 0.546 0.38204 0.95232 0.0
O332 O 0.48612 0.38714 0.95969 0.0
O333 O 0.49177 0.36598 0.97365 0.0
O334 O 0.48534 0.34138 0.9361 0.0
O335 O 0.48111 0.33341 0.95289 0.0
Co336 Co 0.54434 0.69998 0.78145 0.0
O337 O 0.56816 0.68463 0.78172 0.0
O338 O 0.57505 0.72015 0.77195 0.0
C339 C 0.50426 0.65968 0.78034 0.0
O340 O 0.52305 0.72039 0.77908 0.0
Co341 Co 0.50338 0.6868 0.79983 0.0
O342 O 0.4861 0.70047 0.78973 0.0
C343 C 0.562 0.72806 0.80277 0.0
C344 C 0.58334 0.70322 0.77493 0.0
C345 C 0.49933 0.71629 0.78214 0.0
O346 O 0.56623 0.72602 0.79305 0.0
O347 O 0.53868 0.71285 0.80721 0.0
O348 O 0.51893 0.67088 0.77203 0.0
O349 O 0.51583 0.67143 0.78903 0.0
Co350 Co 0.29575 0.84034 0.77867 0.0
O351 O 0.31016 0.87911 0.77689 0.0
O352 O 0.27148 0.84639 0.76963 0.0
C353 C 0.33535 0.83994 0.77604 0.0
O354 O 0.27523 0.79818 0.77884 0.0
Co355 Co 0.31704 0.82219 0.79778 0.0
O356 O 0.29348 0.78495 0.79178 0.0
C357 C 0.27649 0.83998 0.80108 0.0
C358 C 0.2887 0.87254 0.77115 0.0
C359 C 0.2768 0.77951 0.78419 0.0
O360 O 0.27438 0.84105 0.79115 0.0
O361 O 0.29398 0.83481 0.80545 0.0
O362 O 0.32075 0.84004 0.76818 0.0
O363 O 0.32746 0.84375 0.78506 0.0
Co364 Co 0.15362 0.44801 0.7776 0.0
O365 O 0.11582 0.42283 0.77423 0.0
O366 O 0.15156 0.42039 0.76793 0.0
C367 C 0.15224 0.48736 0.77579 0.0
O368 O 0.19544 0.47119 0.77921 0.0
Co369 Co 0.16638 0.48388 0.79759 0.0
O370 O 0.20465 0.50187 0.79215 0.0
C371 C 0.15063 0.42551 0.79963 0.0
C372 C 0.12497 0.41021 0.76841 0.0
C373 C 0.21242 0.49198 0.78479 0.0
O374 O 0.15127 0.42382 0.78965 0.0
O375 O 0.15405 0.44717 0.80436 0.0
O376 O 0.15496 0.47511 0.76765 0.0
O377 O 0.147 0.47368 0.78441 0.0
Co378 Co 0.36626 0.87891 0.05358 0.0
O379 O 0.35423 0.90488 0.0562 0.0
O380 O 0.3925 0.90789 0.06267 0.0
C381 C 0.32555 0.84009 0.05622 0.0
O382 O 0.38453 0.85524 0.05251 0.0
Co383 Co 0.34153 0.84069 0.03425 0.0
O384 O 0.36303 0.82403 0.03971 0.0
C385 C 0.38411 0.8985 0.03113 0.0
C386 C 0.37643 0.91838 0.06174 0.0
C387 C 0.38081 0.83435 0.04702 0.0
O388 O 0.38734 0.90113 0.04106 0.0
O389 O 0.36533 0.87648 0.02677 0.0
O390 O 0.34114 0.85355 0.06408 0.0
O391 O 0.33338 0.85242 0.04732 0.0
Co392 Co 0.12216 0.48909 0.05119 0.0
O393 O 0.09618 0.45032 0.05076 0.0
O394 O 0.09097 0.48074 0.06014 0.0
C395 C 0.16052 0.48618 0.05339 0.0
O396 O 0.14551 0.53076 0.05351 0.0
Co397 Co 0.16566 0.51402 0.03341 0.0
O398 O 0.18299 0.54555 0.04326 0.0
C399 C 0.10866 0.50079 0.0293 0.0
C400 C 0.0813 0.45525 0.05719 0.0
C401 C 0.1698 0.54946 0.05055 0.0
O402 O 0.10302 0.49495 0.039 0.0
O403 O 0.13204 0.50705 0.0253 0.0
O404 O 0.14496 0.48361 0.06131 0.0
O405 O 0.15046 0.48671 0.04438 0.0
Co406 Co 0.5112 0.63195 0.05329 0.0
O407 O 0.54965 0.64465 0.0554 0.0
O408 O 0.51526 0.60801 0.06314 0.0
C409 C 0.5136 0.67328 0.05463 0.0
O410 O 0.46923 0.61353 0.05325 0.0
Co411 Co 0.49244 0.65155 0.03387 0.0
O412 O 0.45747 0.63652 0.04187 0.0
C413 C 0.50728 0.60819 0.03147 0.0
C414 C 0.54166 0.62408 0.06179 0.0
C415 C 0.45145 0.61898 0.04918 0.0
O416 O 0.51005 0.60783 0.04141 0.0
O417 O 0.50217 0.62545 0.02685 0.0
O418 O 0.51285 0.65972 0.06297 0.0
O419 O 0.51626 0.66306 0.04597 0.0
Co420 Co 0.12044 0.63198 0.55195 0.0
O421 O 0.09471 0.64511 0.55195 0.0
O422 O 0.0899 0.60939 0.56119 0.0
C423 C 0.15916 0.67317 0.55388 0.0
O424 O 0.14345 0.6132 0.55386 0.0
Co425 Co 0.16258 0.64944 0.5338 0.0
O426 O 0.18047 0.63519 0.54334 0.0
C427 C 0.10502 0.60608 0.53021 0.0
C428 C 0.08021 0.62533 0.55845 0.0
C429 C 0.16738 0.61822 0.55067 0.0
O430 O 0.10014 0.60694 0.53994 0.0
O431 O 0.12832 0.62257 0.52598 0.0
O432 O 0.14405 0.66022 0.5619 0.0
O433 O 0.14859 0.66251 0.54492 0.0
Co434 Co 0.36555 0.4878 0.55083 0.0
O435 O 0.35283 0.44901 0.55052 0.0
O436 O 0.3881 0.4797 0.56 0.0
C437 C 0.32429 0.48508 0.55271 0.0
O438 O 0.3838 0.52941 0.55311 0.0
Co439 Co 0.34852 0.51313 0.53279 0.0
O440 O 0.36186 0.54459 0.54265 0.0
C441 C 0.392 0.49923 0.52916 0.0
C442 C 0.37251 0.45418 0.55706 0.0
C443 C 0.37845 0.54822 0.55009 0.0
O444 O 0.39106 0.49342 0.53888 0.0
O445 O 0.37544 0.50592 0.52492 0.0
O446 O 0.33694 0.48238 0.56072 0.0
O447 O 0.33517 0.48558 0.54375 0.0
Co448 Co 0.50941 0.87766 0.55287 0.0
O449 O 0.54862 0.90142 0.55317 0.0
O450 O 0.5188 0.90933 0.56169 0.0
C451 C 0.50879 0.83754 0.55539 0.0
O452 O 0.46744 0.85686 0.55443 0.0
Co453 Co 0.48395 0.83509 0.53488 0.0
O454 O 0.45146 0.81899 0.5443 0.0
C455 C 0.50184 0.89333 0.53073 0.0
C456 C 0.54433 0.91739 0.55926 0.0
C457 C 0.44802 0.83303 0.55137 0.0
O458 O 0.50707 0.89837 0.54048 0.0
O459 O 0.49394 0.86957 0.5267 0.0
O460 O 0.51145 0.85334 0.56325 0.0
O461 O 0.51013 0.84812 0.5463 0.0
Co462 Co 0.30177 0.45504 0.28021 0.0
O463 O 0.31698 0.43123 0.27891 0.0
O464 O 0.27809 0.42376 0.27143 0.0
C465 C 0.34081 0.49533 0.27731 0.0
O466 O 0.28051 0.47589 0.27983 0.0
Co467 Co 0.32247 0.49636 0.29881 0.0
O468 O 0.29845 0.50879 0.29229 0.0
C469 C 0.282 0.43822 0.30273 0.0
C470 C 0.29579 0.41552 0.27315 0.0
C471 C 0.28176 0.49652 0.28479 0.0
O472 O 0.28041 0.43385 0.29285 0.0
O473 O 0.29921 0.46141 0.30684 0.0
O474 O 0.32659 0.47985 0.26954 0.0
O475 O 0.33304 0.48422 0.28642 0.0
Co476 Co 0.54291 0.84519 0.28256 0.0
O477 O 0.5695 0.88388 0.28241 0.0
O478 O 0.57291 0.85209 0.27325 0.0
C479 C 0.50484 0.84888 0.28083 0.0
O480 O 0.51898 0.80356 0.28061 0.0
Co481 Co 0.50058 0.82106 0.3007 0.0
O482 O 0.48209 0.78894 0.29115 0.0
C483 C 0.55781 0.83408 0.30427 0.0
C484 C 0.58335 0.87793 0.27582 0.0
C485 C 0.49491 0.78491 0.28376 0.0
O486 O 0.56289 0.83973 0.29453 0.0
O487 O 0.53467 0.82797 0.30847 0.0
O488 O 0.51948 0.8506 0.27271 0.0
O489 O 0.51552 0.84844 0.28972 0.0
Co490 Co 0.1543 0.69989 0.27732 0.0
O491 O 0.11601 0.68704 0.27493 0.0
O492 O 0.15051 0.7247 0.26778 0.0
C493 C 0.15272 0.65908 0.27535 0.0
O494 O 0.19631 0.71886 0.27806 0.0
Co495 Co 0.16996 0.67738 0.29683 0.0
O496 O 0.2076 0.69872 0.29088 0.0
C497 C 0.15421 0.71987 0.29952 0.0
C498 C 0.12406 0.70838 0.26894 0.0
C499 C 0.2142 0.716 0.28343 0.0
O500 O 0.1538 0.72223 0.28956 0.0
O501 O 0.15793 0.70151 0.30398 0.0
O502 O 0.15421 0.67362 0.26722 0.0
O503 O 0.14878 0.66798 0.2841 0.0
C504 C 0.24754 0.08509 0.15272 0.0
C505 C 0.25168 0.08214 0.1421 0.0
C506 C 0.26803 0.10678 0.15854 0.0
C507 C 0.32879 0.17619 0.15564 0.0
H508 H 0.34462 0.16401 0.18393 0.0
C509 C 0.42047 0.25908 0.1798 0.0
C510 C 0.41577 0.26082 0.19046 0.0
C511 C 0.40033 0.2379 0.17366 0.0
C512 C 0.34021 0.16782 0.17608 0.0
H513 H 0.28101 0.09948 0.12934 0.0
H514 H 0.31674 0.1371 0.13953 0.0
H515 H 0.31017 0.12526 0.17376 0.0
H516 H 0.38562 0.24236 0.20291 0.0
H517 H 0.35057 0.20581 0.1922 0.0
H518 H 0.35883 0.2188 0.15799 0.0
C519 C 0.29746 0.12284 0.14331 0.0
C520 C 0.3205 0.1456 0.17025 0.0
C521 C 0.27701 0.10114 0.13749 0.0
C522 C 0.39011 0.24151 0.19475 0.0
C523 C 0.37003 0.22042 0.18863 0.0
C524 C 0.34851 0.19844 0.16148 0.0
C525 C 0.29312 0.12602 0.15387 0.0
C526 C 0.31449 0.14955 0.15998 0.0
C527 C 0.37508 0.21807 0.17806 0.0
C528 C 0.35433 0.19452 0.17178 0.0
H529 H 0.2283 0.0709 0.15654 0.0
H530 H 0.26395 0.10882 0.16665 0.0
H531 H 0.32434 0.17995 0.14779 0.0
H532 H 0.44001 0.27356 0.17624 0.0
H533 H 0.4049 0.23655 0.16556 0.0
C534 C 0.75192 0.17097 0.18023 0.0
C535 C 0.74938 0.16417 0.19088 0.0
C536 C 0.77358 0.17236 0.17434 0.0
C537 C 0.8255 0.1499 0.17394 0.0
H538 H 0.86337 0.21057 0.15449 0.0
C539 C 0.92514 0.17072 0.15283 0.0
C540 C 0.92653 0.17644 0.1421 0.0
C541 C 0.90437 0.17036 0.159 0.0
C542 C 0.85286 0.19339 0.15983 0.0
H543 H 0.7675 0.15301 0.20361 0.0
H544 H 0.80533 0.15569 0.19334 0.0
H545 H 0.82478 0.2067 0.16467 0.0
H546 H 0.90754 0.18713 0.12954 0.0
H547 H 0.87136 0.18637 0.14029 0.0
H548 H 0.85356 0.13656 0.16908 0.0
C549 C 0.79041 0.15971 0.18953 0.0
C550 C 0.83072 0.19113 0.16565 0.0
C551 C 0.76876 0.15831 0.19543 0.0
C552 C 0.90714 0.18262 0.13777 0.0
C553 C 0.88643 0.18232 0.14394 0.0
C554 C 0.84767 0.15217 0.16813 0.0
C555 C 0.79321 0.16697 0.17894 0.0
C556 C 0.81673 0.16932 0.17275 0.0
C557 C 0.88457 0.17581 0.15459 0.0
C558 C 0.86156 0.17391 0.16099 0.0
H559 H 0.73733 0.17549 0.17644 0.0
H560 H 0.77489 0.17757 0.16615 0.0
H561 H 0.81493 0.13264 0.17925 0.0
H562 H 0.93973 0.16591 0.15645 0.0
H563 H 0.90372 0.16568 0.16722 0.0
C564 C 0.83412 0.59944 0.19202 0.0
C565 C 0.82779 0.57346 0.18806 0.0
C566 C 0.83164 0.61848 0.18576 0.0
C567 C 0.82942 0.63775 0.1586 0.0
H568 H 0.79427 0.67622 0.17047 0.0
C569 C 0.80903 0.71226 0.13413 0.0
C570 C 0.81501 0.73727 0.13892 0.0
C571 C 0.80834 0.69083 0.13997 0.0
C572 C 0.80435 0.66585 0.16707 0.0
H573 H 0.8145 0.5475 0.17426 0.0
H574 H 0.81033 0.58096 0.16331 0.0
H575 H 0.79849 0.64203 0.18086 0.0
H576 H 0.82428 0.75903 0.1537 0.0
H577 H 0.82348 0.72191 0.16382 0.0
H578 H 0.83579 0.66192 0.14487 0.0
C579 C 0.81723 0.58647 0.17129 0.0
C580 C 0.80675 0.64626 0.17302 0.0
C581 C 0.81956 0.56729 0.17758 0.0
C582 C 0.8195 0.74003 0.14974 0.0
C583 C 0.81893 0.71866 0.15557 0.0
C584 C 0.82715 0.65747 0.15266 0.0
C585 C 0.82291 0.61211 0.17537 0.0
C586 C 0.81952 0.63217 0.16888 0.0
C587 C 0.81369 0.69393 0.15073 0.0
C588 C 0.81478 0.67192 0.15685 0.0
H589 H 0.84062 0.60502 0.20003 0.0
H590 H 0.83661 0.63827 0.18907 0.0
H591 H 0.83959 0.6274 0.15524 0.0
H592 H 0.80525 0.70932 0.12582 0.0
H593 H 0.80374 0.67187 0.13603 0.0
C594 C 0.09686 0.28022 0.36126 0.0
C595 C 0.07753 0.2551 0.3566 0.0
C596 C 0.11883 0.30046 0.35548 0.0
C597 C 0.16061 0.30773 0.33235 0.0
H598 H 0.18662 0.38592 0.3355 0.0
C599 C 0.24195 0.39042 0.30517 0.0
C600 C 0.26134 0.41601 0.3095 0.0
C601 C 0.22047 0.37054 0.31123 0.0
C602 C 0.17985 0.36418 0.33465 0.0
H603 H 0.06554 0.23219 0.34206 0.0
H604 H 0.10371 0.26767 0.33198 0.0
H605 H 0.146 0.35238 0.34514 0.0
H606 H 0.2739 0.44021 0.32374 0.0
H607 H 0.23656 0.40528 0.33433 0.0
H608 H 0.19443 0.31948 0.32188 0.0
C609 C 0.10209 0.27144 0.34015 0.0
C610 C 0.15652 0.34497 0.34014 0.0
C611 C 0.08007 0.25121 0.34592 0.0
C612 C 0.25931 0.42079 0.32014 0.0
C613 C 0.23778 0.40087 0.32619 0.0
C614 C 0.18394 0.32692 0.32688 0.0
C615 C 0.122 0.29604 0.34492 0.0
C616 C 0.14657 0.31653 0.33902 0.0
C617 C 0.21785 0.37572 0.32175 0.0
C618 C 0.19377 0.35536 0.32793 0.0
H619 H 0.09555 0.28399 0.36946 0.0
H620 H 0.13391 0.31913 0.3594 0.0
H621 H 0.15378 0.28598 0.33148 0.0
H622 H 0.24284 0.38595 0.29702 0.0
H623 H 0.20534 0.35149 0.30754 0.0
C624 C 0.72005 0.81445 0.36328 0.0
C625 C 0.74533 0.82091 0.35861 0.0
C626 C 0.69902 0.81444 0.35742 0.0
C627 C 0.67481 0.81236 0.33044 0.0
H628 H 0.63641 0.84708 0.34276 0.0
C629 C 0.60483 0.8395 0.30633 0.0
C630 C 0.57944 0.83354 0.31077 0.0
C631 C 0.62471 0.83757 0.31227 0.0
C632 C 0.64673 0.83705 0.33926 0.0
H633 H 0.76797 0.83169 0.34401 0.0
H634 H 0.73136 0.83192 0.33382 0.0
H635 H 0.67136 0.84337 0.35283 0.0
H636 H 0.55533 0.82131 0.32504 0.0
H637 H 0.59008 0.81791 0.33537 0.0
H638 H 0.6503 0.80624 0.31683 0.0
C639 C 0.72772 0.8266 0.34201 0.0
C640 C 0.66672 0.83488 0.34503 0.0
C641 C 0.74877 0.82656 0.34787 0.0
C642 C 0.57465 0.8261 0.32136 0.0
C643 C 0.59459 0.82423 0.3273 0.0
C644 C 0.65484 0.81457 0.32466 0.0
C645 C 0.70277 0.82092 0.34676 0.0
C646 C 0.68104 0.82257 0.34068 0.0
C647 C 0.61973 0.8297 0.32279 0.0
C648 C 0.64066 0.82703 0.32899 0.0
H649 H 0.71655 0.80971 0.37152 0.0
H650 H 0.67985 0.80946 0.36127 0.0
H651 H 0.68518 0.80241 0.32692 0.0
H652 H 0.60935 0.84542 0.29822 0.0
H653 H 0.64406 0.84237 0.30861 0.0
C654 C 0.17516 0.89774 0.3605 0.0
C655 C 0.1726 0.91931 0.35602 0.0
C656 C 0.17337 0.87633 0.35433 0.0
C657 C 0.14524 0.84137 0.32926 0.0
H658 H 0.19222 0.80989 0.33416 0.0
C659 C 0.14992 0.7622 0.30157 0.0
C660 C 0.15242 0.74066 0.30612 0.0
C661 C 0.15118 0.78342 0.30772 0.0
C662 C 0.17871 0.81823 0.33279 0.0
H663 H 0.16718 0.9357 0.34142 0.0
H664 H 0.16447 0.89856 0.33068 0.0
H665 H 0.19839 0.84897 0.34461 0.0
H666 H 0.15697 0.72401 0.3208 0.0
H667 H 0.15883 0.76084 0.33149 0.0
H668 H 0.12562 0.81065 0.31741 0.0
C669 C 0.16732 0.89797 0.339 0.0
C670 C 0.18229 0.84065 0.33876 0.0
C671 C 0.16909 0.91937 0.34517 0.0
C672 C 0.15514 0.74032 0.31701 0.0
C673 C 0.15643 0.76155 0.32314 0.0
C674 C 0.14169 0.81896 0.32328 0.0
C675 C 0.16903 0.87601 0.34354 0.0
C676 C 0.16559 0.85247 0.33707 0.0
C677 C 0.15496 0.78358 0.31855 0.0
C678 C 0.15836 0.80712 0.32499 0.0
H679 H 0.17786 0.89697 0.36883 0.0
H680 H 0.17455 0.8596 0.35808 0.0
H681 H 0.13172 0.84971 0.32789 0.0
H682 H 0.14776 0.76314 0.29322 0.0
H683 H 0.15014 0.80019 0.30394 0.0
C684 C 0.58111 0.7541 0.81948 0.0
C685 C 0.58498 0.74976 0.80897 0.0
C686 C 0.60242 0.77544 0.82516 0.0
C687 C 0.66651 0.84219 0.82177 0.0
H688 H 0.67944 0.83089 0.85056 0.0
C689 C 0.75911 0.92385 0.846 0.0
C690 C 0.75367 0.92721 0.85644 0.0
C691 C 0.73891 0.90251 0.83993 0.0
C692 C 0.67591 0.83446 0.84256 0.0
H693 H 0.61464 0.76426 0.79627 0.0
H694 H 0.65177 0.80124 0.80622 0.0
H695 H 0.64378 0.79253 0.8406 0.0
H696 H 0.72229 0.91124 0.86854 0.0
H697 H 0.68722 0.87442 0.85795 0.0
H698 H 0.69864 0.88419 0.82376 0.0
C699 C 0.63211 0.78837 0.81001 0.0
C700 C 0.65548 0.81247 0.83685 0.0
C701 C 0.61083 0.76703 0.80433 0.0
C702 C 0.72736 0.90919 0.86056 0.0
C703 C 0.70724 0.88792 0.85451 0.0
C704 C 0.68698 0.86421 0.82749 0.0
C705 C 0.62809 0.79294 0.82046 0.0
C706 C 0.65041 0.81612 0.82642 0.0
C707 C 0.71289 0.88409 0.84418 0.0
C708 C 0.69174 0.86063 0.83797 0.0
H709 H 0.56149 0.74129 0.82331 0.0
H710 H 0.59856 0.77861 0.83317 0.0
H711 H 0.66288 0.84576 0.81378 0.0
H712 H 0.77915 0.93731 0.84257 0.0
H713 H 0.74392 0.89999 0.83201 0.0
C714 C 0.09785 0.82808 0.85925 0.0
C715 C 0.08038 0.83707 0.8551 0.0
C716 C 0.11951 0.82959 0.85335 0.0
C717 C 0.14426 0.83428 0.82648 0.0
H718 H 0.21529 0.86044 0.83984 0.0
C719 C 0.23988 0.85289 0.80317 0.0
C720 C 0.25661 0.84343 0.80763 0.0
C721 C 0.2194 0.85391 0.80903 0.0
C722 C 0.19553 0.85285 0.83602 0.0
H723 H 0.07186 0.85429 0.84139 0.0
H724 H 0.1098 0.85691 0.83109 0.0
H725 H 0.17702 0.8581 0.84978 0.0
H726 H 0.26538 0.82837 0.82188 0.0
H727 H 0.22939 0.82986 0.83209 0.0
H728 H 0.16261 0.8287 0.81276 0.0
C729 C 0.10654 0.84858 0.83891 0.0
C730 C 0.17361 0.85152 0.84171 0.0
C731 C 0.08485 0.84714 0.84483 0.0
C732 C 0.25294 0.83584 0.81821 0.0
C733 C 0.23234 0.83677 0.82407 0.0
C734 C 0.16616 0.83554 0.8208 0.0
C735 C 0.12425 0.84005 0.84315 0.0
C736 C 0.14769 0.8421 0.83702 0.0
C737 C 0.21506 0.84542 0.8195 0.0
C738 C 0.19203 0.84476 0.82551 0.0
H739 H 0.09499 0.82004 0.86711 0.0
H740 H 0.13248 0.8224 0.85678 0.0
H741 H 0.12445 0.82658 0.82269 0.0
H742 H 0.24232 0.8592 0.79508 0.0
H743 H 0.20684 0.86122 0.80534 0.0
C744 C 0.15756 0.23471 0.84455 0.0
C745 C 0.16553 0.241 0.85505 0.0
C746 C 0.15464 0.25349 0.83824 0.0
C747 C 0.14181 0.3118 0.83995 0.0
H748 H 0.17073 0.3282 0.8118 0.0
C749 C 0.15212 0.4047 0.81676 0.0
C750 C 0.1477 0.40197 0.80594 0.0
C751 C 0.152 0.38352 0.82256 0.0
C752 C 0.16211 0.32353 0.81958 0.0
H753 H 0.1774 0.27245 0.86702 0.0
H754 H 0.1724 0.30503 0.85601 0.0
H755 H 0.17581 0.29442 0.82215 0.0
H756 H 0.13849 0.3742 0.79281 0.0
H757 H 0.13781 0.33708 0.80298 0.0
H758 H 0.12809 0.34083 0.83742 0.0
C759 C 0.16805 0.28542 0.85271 0.0
C760 C 0.16512 0.30423 0.82552 0.0
C761 C 0.1711 0.26677 0.85899 0.0
C762 C 0.1422 0.37713 0.80112 0.0
C763 C 0.14198 0.35589 0.80693 0.0
C764 C 0.13868 0.33098 0.834 0.0
C765 C 0.15947 0.27887 0.8423 0.0
C766 C 0.15529 0.29842 0.83581 0.0
C767 C 0.14732 0.35901 0.8177 0.0
C768 C 0.14908 0.33732 0.82379 0.0
H769 H 0.15308 0.21508 0.84124 0.0
H770 H 0.14789 0.24785 0.83025 0.0
H771 H 0.13356 0.30737 0.84779 0.0
H772 H 0.15653 0.42356 0.82074 0.0
H773 H 0.15652 0.38678 0.83082 0.0
C774 C 0.75076 0.5781 0.67981 0.0
C775 C 0.74719 0.5831 0.69028 0.0
C776 C 0.77154 0.59886 0.67375 0.0
C777 C 0.83798 0.66402 0.67606 0.0
H778 H 0.8244 0.67419 0.64722 0.0
C779 C 0.9155 0.75755 0.65145 0.0
C780 C 0.919 0.75261 0.64097 0.0
C781 C 0.8949 0.73668 0.65754 0.0
C782 C 0.82862 0.6714 0.65523 0.0
H783 H 0.76236 0.6142 0.70248 0.0
H784 H 0.79826 0.65037 0.69187 0.0
H785 H 0.7873 0.63834 0.65761 0.0
H786 H 0.90396 0.7215 0.62877 0.0
H787 H 0.86836 0.68516 0.63942 0.0
H788 H 0.8793 0.69711 0.67368 0.0
C789 C 0.78532 0.63024 0.68841 0.0
C790 C 0.80735 0.65087 0.66118 0.0
C791 C 0.76459 0.60951 0.69447 0.0
C792 C 0.90176 0.72615 0.63679 0.0
C793 C 0.88121 0.70532 0.64288 0.0
C794 C 0.85926 0.68456 0.67011 0.0
C795 C 0.78919 0.6251 0.67801 0.0
C796 C 0.81178 0.64695 0.67167 0.0
C797 C 0.87736 0.7104 0.65329 0.0
C798 C 0.85482 0.68849 0.65962 0.0
H799 H 0.73784 0.558 0.67633 0.0
H800 H 0.77417 0.59415 0.66579 0.0
H801 H 0.8422 0.66124 0.68407 0.0
H802 H 0.92832 0.77768 0.65493 0.0
H803 H 0.89229 0.74134 0.66551 0.0
C804 C 0.39096 0.15532 0.69546 0.0
C805 C 0.41645 0.16231 0.69084 0.0
C806 C 0.3701 0.15575 0.68962 0.0
C807 C 0.34669 0.15444 0.66263 0.0
H808 H 0.30625 0.18703 0.67491 0.0
C809 C 0.27441 0.17824 0.6384 0.0
C810 C 0.24889 0.17166 0.64288 0.0
C811 C 0.29478 0.17719 0.64434 0.0
C812 C 0.31715 0.1776 0.67141 0.0
H813 H 0.43976 0.1749 0.67639 0.0
H814 H 0.40346 0.17583 0.66627 0.0
H815 H 0.34157 0.1842 0.68509 0.0
H816 H 0.22501 0.15914 0.6572 0.0
H817 H 0.26051 0.15715 0.66751 0.0
H818 H 0.32231 0.14788 0.64895 0.0
C819 C 0.39953 0.16974 0.67438 0.0
C820 C 0.33736 0.17595 0.67724 0.0
C821 C 0.4204 0.16933 0.68021 0.0
C822 C 0.24442 0.16442 0.65349 0.0
C823 C 0.26482 0.16338 0.65942 0.0
C824 C 0.32648 0.15609 0.6568 0.0
C825 C 0.37423 0.16315 0.67904 0.0
C826 C 0.3524 0.16442 0.67291 0.0
C827 C 0.29014 0.16956 0.65489 0.0
C828 C 0.31154 0.16775 0.66111 0.0
H829 H 0.38711 0.14968 0.70361 0.0
H830 H 0.35068 0.15018 0.69339 0.0
H831 H 0.35763 0.14506 0.65912 0.0
H832 H 0.27866 0.18405 0.63027 0.0
H833 H 0.31425 0.1825 0.64066 0.0
C834 C 0.84515 0.25958 0.6806 0.0
C835 C 0.84951 0.26019 0.69142 0.0
C836 C 0.8427 0.23768 0.67456 0.0
C837 C 0.82434 0.16474 0.67689 0.0
H838 H 0.85466 0.17568 0.64899 0.0
C839 C 0.82443 0.07741 0.65267 0.0
C840 C 0.81963 0.07693 0.64189 0.0
C841 C 0.82713 0.09925 0.65883 0.0
C842 C 0.84577 0.17225 0.65672 0.0
H843 H 0.85605 0.23877 0.70425 0.0
H844 H 0.85216 0.20085 0.69367 0.0
H845 H 0.86319 0.21557 0.65945 0.0
H846 H 0.81255 0.09851 0.62925 0.0
H847 H 0.81696 0.13633 0.64002 0.0
H848 H 0.80693 0.12139 0.67415 0.0
C849 C 0.85004 0.21703 0.68991 0.0
C850 C 0.85071 0.19513 0.66272 0.0
C851 C 0.85246 0.23891 0.69596 0.0
C852 C 0.81649 0.09827 0.63751 0.0
C853 C 0.81921 0.12009 0.64366 0.0
C854 C 0.81941 0.14185 0.67089 0.0
C855 C 0.84462 0.2159 0.67917 0.0
C856 C 0.84003 0.19165 0.67287 0.0
C857 C 0.82509 0.12111 0.65435 0.0
C858 C 0.83001 0.14534 0.66072 0.0
H859 H 0.84271 0.27556 0.67683 0.0
H860 H 0.83833 0.23735 0.66632 0.0
H861 H 0.81539 0.1613 0.68461 0.0
H862 H 0.827 0.06137 0.65632 0.0
H863 H 0.83182 0.0995 0.66703 0.0
C864 C 0.0878 0.57934 0.51348 0.0
C865 C 0.08278 0.58425 0.52378 0.0
C866 C 0.06704 0.55773 0.50769 0.0
C867 C 0.00162 0.49167 0.51088 0.0
H868 H 0.9915 0.50151 0.48163 0.0
C869 C 0.90756 0.41203 0.48679 0.0
C870 C 0.91274 0.40724 0.4765 0.0
C871 C 0.92852 0.43297 0.49276 0.0
C872 C 0.99426 0.49833 0.48977 0.0
H873 H 0.05164 0.57062 0.53594 0.0
H874 H 0.01556 0.53336 0.52581 0.0
H875 H 0.0276 0.5398 0.49149 0.0
H876 H 0.94445 0.42012 0.46458 0.0
H877 H 0.98078 0.45625 0.47499 0.0
H878 H 0.96816 0.4502 0.50915 0.0
C879 C 0.03567 0.54584 0.52228 0.0
C880 C 0.01496 0.52028 0.49541 0.0
C881 C 0.05638 0.56736 0.52807 0.0
C882 C 0.93955 0.42334 0.47244 0.0
C883 C 0.96042 0.44421 0.47838 0.0
C884 C 0.98088 0.46972 0.50523 0.0
C885 C 0.04081 0.5406 0.51206 0.0
C886 C 0.01889 0.51722 0.50604 0.0
C887 C 0.95507 0.44955 0.48855 0.0
C888 C 0.97701 0.4728 0.49461 0.0
H889 H 0.1079 0.59185 0.50995 0.0
H890 H 0.07174 0.55408 0.49987 0.0
H891 H 0.00438 0.48849 0.51901 0.0
H892 H 0.88717 0.40007 0.49016 0.0
H893 H 0.92372 0.4367 0.50056 0.0
C894 C 0.43134 0.49021 0.52717 0.0
C895 C 0.41388 0.49885 0.52275 0.0
C896 C 0.45275 0.49084 0.52138 0.0
C897 C 0.47698 0.49298 0.4945 0.0
H898 H 0.54807 0.51933 0.50785 0.0
C899 C 0.57352 0.51415 0.47128 0.0
C900 C 0.59065 0.50494 0.47559 0.0
C901 C 0.55245 0.51393 0.47716 0.0
C902 C 0.52827 0.51165 0.50404 0.0
H903 H 0.40514 0.51458 0.50867 0.0
H904 H 0.44272 0.51582 0.49857 0.0
H905 H 0.50998 0.51766 0.5177 0.0
H906 H 0.59929 0.48886 0.48959 0.0
H907 H 0.56229 0.48839 0.49986 0.0
H908 H 0.49527 0.48698 0.48084 0.0
C909 C 0.43961 0.50835 0.50652 0.0
C910 C 0.50644 0.51068 0.50969 0.0
C911 C 0.41813 0.50772 0.51232 0.0
C912 C 0.58654 0.49612 0.48603 0.0
C913 C 0.56539 0.49593 0.49193 0.0
C914 C 0.49881 0.49396 0.48886 0.0
C915 C 0.4573 0.50011 0.51102 0.0
C916 C 0.48054 0.50132 0.50498 0.0
C917 C 0.54791 0.50452 0.4875 0.0
C918 C 0.52472 0.50333 0.49356 0.0
H919 H 0.42862 0.48303 0.53516 0.0
H920 H 0.46567 0.48388 0.52502 0.0
H921 H 0.45719 0.48526 0.49069 0.0
H922 H 0.57616 0.52132 0.4633 0.0
H923 H 0.53969 0.52117 0.47358 0.0
C924 C 0.48738 0.05926 0.47241 0.0
C925 C 0.49633 0.08555 0.47671 0.0
C926 C 0.48826 0.03867 0.47825 0.0
C927 C 0.52279 0.02848 0.50083 0.0
H928 H 0.46277 0.95272 0.49909 0.0
C929 C 0.51358 0.94246 0.52824 0.0
C930 C 0.50391 0.91592 0.52404 0.0
C931 C 0.51376 0.96338 0.52225 0.0
C932 C 0.47988 0.9737 0.49955 0.0
H933 H 0.51286 0.11057 0.49064 0.0
H934 H 0.51412 0.0744 0.50087 0.0
H935 H 0.45995 0.9887 0.48941 0.0
H936 H 0.4876 0.89093 0.5101 0.0
H937 H 0.48818 0.92762 0.49962 0.0
H938 H 0.54268 0.01345 0.511 0.0
C939 C 0.50674 0.06993 0.49291 0.0
C940 C 0.47823 0.99434 0.49402 0.0
C941 C 0.50582 0.09059 0.48707 0.0
C942 C 0.4951 0.91106 0.5136 0.0
C943 C 0.49524 0.93203 0.50761 0.0
C944 C 0.52444 0.00782 0.50636 0.0
C945 C 0.49811 0.04379 0.48854 0.0
C946 C 0.49966 0.02197 0.4946 0.0
C947 C 0.50428 0.95833 0.51191 0.0
C948 C 0.50299 0.9802 0.50579 0.0
H949 H 0.47995 0.05457 0.46446 0.0
H950 H 0.48178 0.01889 0.4746 0.0
H951 H 0.53986 0.04948 0.5013 0.0
H952 H 0.5206 0.94704 0.53624 0.0
H953 H 0.52059 0.9833 0.52584 0.0
C954 C 0.4059 0.91777 0.01375 0.0
C955 C 0.4042 0.9215 0.02451 0.0
C956 C 0.42664 0.93871 0.00774 0.0
C957 C 0.49601 -0.0002 0.01042 0.0
H958 H 0.48341 0.01552 0.98218 0.0
C959 C 0.57892 0.09174 0.98673 0.0
C960 C 0.58179 0.08698 0.97616 0.0
C961 C 0.55703 0.07176 0.99263 0.0
C962 C 0.48729 0.01117 0.99002 0.0
H963 H 0.42216 0.95076 0.03726 0.0
H964 H 0.45795 0.98729 0.02674 0.0
H965 H 0.44483 0.98079 0.9924 0.0
H966 H 0.56397 0.05714 0.96358 0.0
H967 H 0.526 0.02232 0.97391 0.0
H968 H 0.53845 0.03011 0.00805 0.0
C969 C 0.44368 0.96795 0.023 0.0
C970 C 0.46519 0.99129 0.99587 0.0
C971 C 0.42304 0.94702 0.02902 0.0
C972 C 0.5624 0.06161 0.97168 0.0
C973 C 0.5405 0.04168 0.97758 0.0
C974 C 0.51807 0.01968 0.00458 0.0
C975 C 0.44605 0.96386 0.01234 0.0
C976 C 0.46931 0.98536 0.00614 0.0
C977 C 0.53748 0.04659 0.9881 0.0
C978 C 0.51397 0.02555 0.99431 0.0
H979 H 0.39177 0.89836 0.01003 0.0
H980 H 0.42802 0.93482 -0.00045 0.0
H981 H 0.5 0.99536 0.01824 0.0
H982 H 0.59339 0.11104 0.99044 0.0
H983 H 0.55512 0.07626 0.0007 0.0
C984 C 0.94797 0.51999 0.96922 0.0
C985 C 0.9232 0.51496 0.97397 0.0
C986 C 0.96884 0.51968 0.97509 0.0
C987 C 0.97851 0.49014 0.99915 0.0
H988 H 0.05612 0.54362 0.9954 0.0
C989 C 0.06196 0.49586 0.02688 0.0
C990 C 0.08734 0.50131 0.02259 0.0
C991 C 0.04227 0.49752 0.02073 0.0
C992 C 0.03455 0.52831 0.99644 0.0
H993 H 0.90152 0.50671 0.98875 0.0
H994 H 0.93798 0.50633 0.99896 0.0
H995 H 0.02152 0.54776 0.98518 0.0
H996 H 0.11165 0.51238 0.00839 0.0
H997 H 0.07702 0.51484 0.99763 0.0
H998 H 0.99138 0.47053 0.01032 0.0
C999 C 0.94104 0.51013 0.99065 0.0
C1000 C 0.01476 0.53075 0.99061 0.0
C1001 C 0.92022 0.51055 0.9848 0.0
C1002 C 0.09237 0.50811 0.01196 0.0
C1003 C 0.0726 0.50971 0.0058 0.0
C1004 C 0.99826 0.48764 0.00494 0.0
C1005 C 0.96536 0.51423 0.98584 0.0
C1006 C 0.98652 0.51178 0.99196 0.0
C1007 C 0.04738 0.50457 0.01014 0.0
C1008 C 0.0265 0.50679 0.0037 0.0
H1009 H 0.95102 0.52355 0.9609 0.0
H1010 H 0.98732 0.52279 0.97116 0.0
H1011 H 0.95693 0.47488 0.00021 0.0
H1012 H 0.05735 0.49066 0.03504 0.0
H1013 H 0.02322 0.49381 0.02436 0.0
C1014 C 0.48189 0.42575 0.97224 0.0
C1015 C 0.48644 0.40516 0.97648 0.0
C1016 C 0.48347 0.44689 0.97851 0.0
C1017 C 0.51442 0.48399 0.00296 0.0
H1018 H 0.46441 0.51234 0.99899 0.0
C1019 C 0.51227 0.56611 0.0299 0.0
C1020 C 0.50816 0.58645 0.02514 0.0
C1021 C 0.51042 0.54411 0.02408 0.0
C1022 C 0.47874 0.50486 0.00011 0.0
H1023 H 0.49531 0.39025 0.99076 0.0
H1024 H 0.49767 0.42702 0.00172 0.0
H1025 H 0.4579 0.4726 0.98891 0.0
H1026 H 0.50008 0.60011 0.01039 0.0
H1027 H 0.49717 0.56195 0.00027 0.0
H1028 H 0.53526 0.51634 0.01416 0.0
C1029 C 0.49334 0.42698 0.99349 0.0
C1030 C 0.47497 0.48205 0.99435 0.0
C1031 C 0.49174 0.40578 0.98722 0.0
C1032 C 0.50317 0.58476 0.01435 0.0
C1033 C 0.50129 0.56276 0.00855 0.0
C1034 C 0.51817 0.50681 0.00874 0.0
C1035 C 0.48959 0.44798 0.98917 0.0
C1036 C 0.49286 0.47144 0.99566 0.0
C1037 C 0.5044 0.54194 0.01338 0.0
C1038 C 0.50048 0.51761 0.00732 0.0
H1039 H 0.47775 0.42598 0.96401 0.0
H1040 H 0.48075 0.46288 0.9749 0.0
H1041 H 0.52882 0.47658 0.00403 0.0
H1042 H 0.51622 0.56675 0.03819 0.0
H1043 H 0.5128 0.52833 0.02804 0.0
C1044 C 0.29089 0.02806 0.10845 0.0
C1045 C 0.27859 0.04149 0.10342 0.0
C1046 C 0.31314 0.02731 0.10393 0.0
C1047 C 0.33722 0.02458 0.07815 0.0
H1048 H 0.39318 0.01774 0.09354 0.0
C1049 C 0.38395 0.96554 0.05982 0.0
C1050 C 0.38287 0.94492 0.06634 0.0
C1051 C 0.38283 0.98795 0.06404 0.0
C1052 C 0.37777 0.01968 0.08911 0.0
H1053 H 0.28106 0.06631 0.09006 0.0
H1054 H 0.31998 0.06466 0.08201 0.0
H1055 H 0.36921 0.03923 0.10179 0.0
H1056 H 0.38165 0.93202 0.08229 0.0
H1057 H 0.37848 0.97055 0.08974 0.0
H1058 H 0.34408 0.00345 0.06576 0.0
C1059 C 0.31228 0.05468 0.08947 0.0
C1060 C 0.36412 0.03208 0.09382 0.0
C1061 C 0.29006 0.05566 0.09407 0.0
C1062 C 0.38278 0.94794 0.07716 0.0
C1063 C 0.38105 0.9701 0.0814 0.0
C1064 C 0.35072 0.01211 0.07347 0.0
C1065 C 0.32352 0.0398 0.09422 0.0
C1066 C 0.34286 0.03355 0.08853 0.0
C1067 C 0.37969 0.98963 0.07484 0.0
C1068 C 0.37035 0.00844 0.07903 0.0
H1069 H 0.28269 0.01722 0.11573 0.0
H1070 H 0.32102 0.01539 0.10775 0.0
H1071 H 0.32076 0.02509 0.07389 0.0
H1072 H 0.38414 0.96352 0.05143 0.0
H1073 H 0.38261 0.00297 0.05878 0.0
C1074 C 0.0386 0.41034 0.05443 0.0
C1075 C 0.05525 0.43222 0.06114 0.0
C1076 C 0.01702 0.38574 0.05838 0.0
C1077 C 0.97972 0.35025 0.08301 0.0
H1078 H 0.98208 0.28843 0.07039 0.0
C1079 C 0.96951 0.25723 0.10523 0.0
C1080 C 0.95709 0.23114 0.10047 0.0
C1081 C 0.97105 0.27984 0.10004 0.0
C1082 C 0.98052 0.30525 0.07388 0.0
H1083 H 0.06158 0.44651 0.07709 0.0
H1084 H 0.02482 0.40305 0.08415 0.0
H1085 H 0.00463 0.33285 0.0618 0.0
H1086 H 0.93498 0.20771 0.08684 0.0
H1087 H 0.93833 0.24769 0.07754 0.0
H1088 H 0.95735 0.32261 0.09553 0.0
C1089 C 0.02767 0.40495 0.07579 0.0
C1090 C 0.99348 0.33089 0.06894 0.0
C1091 C 0.04886 0.42989 0.07178 0.0
C1092 C 0.94467 0.22764 0.09066 0.0
C1093 C 0.94665 0.25048 0.08536 0.0
C1094 C 0.96702 0.32458 0.08803 0.0
C1095 C 0.01221 0.38215 0.06918 0.0
C1096 C 0.99406 0.35401 0.07359 0.0
C1097 C 0.96058 0.27695 0.08989 0.0
C1098 C 0.9681 0.30207 0.08366 0.0
H1099 H 0.043 0.41187 0.04616 0.0
H1100 H 0.00502 0.36906 0.05299 0.0
H1101 H 0.97918 0.36736 0.08672 0.0
H1102 H 0.97904 0.26041 0.11284 0.0
H1103 H 0.98215 0.29996 0.1037 0.0
C1104 C 0.57366 0.60554 0.0631 0.0
C1105 C 0.56217 0.62042 0.06753 0.0
C1106 C 0.59743 0.6072 0.06742 0.0
C1107 C 0.6589 0.63645 0.07218 0.0
H1108 H 0.67801 0.65267 0.10134 0.0
C1109 C 0.76441 0.72037 0.08617 0.0
C1110 C 0.77294 0.71946 0.09633 0.0
C1111 C 0.7398 0.69842 0.08233 0.0
C1112 C 0.67311 0.64759 0.09319 0.0
H1113 H 0.56535 0.64784 0.07999 0.0
H1114 H 0.60682 0.65108 0.08753 0.0
H1115 H 0.62992 0.6302 0.09612 0.0
H1116 H 0.76412 0.69468 0.11025 0.0
H1117 H 0.72159 0.65576 0.10345 0.0
H1118 H 0.7022 0.65448 0.06923 0.0
C1119 C 0.59742 0.63755 0.08091 0.0
C1120 C 0.64545 0.63499 0.09019 0.0
C1121 C 0.57372 0.63583 0.07659 0.0
C1122 C 0.75793 0.69553 0.10232 0.0
C1123 C 0.73346 0.67345 0.09847 0.0
C1124 C 0.68659 0.6489 0.07519 0.0
C1125 C 0.6101 0.62399 0.07618 0.0
C1126 C 0.63815 0.63056 0.0796 0.0
C1127 C 0.72334 0.67526 0.08863 0.0
C1128 C 0.69413 0.65586 0.08568 0.0
H1129 H 0.5651 0.5938 0.05601 0.0
H1130 H 0.60653 0.59632 0.06366 0.0
H1131 H 0.65407 0.63336 0.06394 0.0
H1132 H 0.7755 0.73894 0.08152 0.0
H1133 H 0.73261 0.70077 0.07477 0.0
C1134 C 0.94751 0.34867 0.44114 0.0
C1135 C 0.94124 0.36895 0.438 0.0
C1136 C 0.97052 0.34839 0.43718 0.0
C1137 C 0.0134 0.36917 0.41376 0.0
H1138 H 0.04283 0.32854 0.42817 0.0
C1139 C 0.06058 0.29164 0.40535 0.0
C1140 C 0.04191 0.27696 0.3973 0.0
C1141 C 0.06004 0.31391 0.41016 0.0
C1142 C 0.03562 0.34059 0.42402 0.0
H1143 H 0.95514 0.40593 0.42871 0.0
H1144 H 0.99587 0.40567 0.42179 0.0
H1145 H 0.02118 0.34956 0.43808 0.0
H1146 H 0.0094 0.27517 0.38752 0.0
H1147 H 0.00793 0.31287 0.39594 0.0
H1148 H 0.02777 0.36012 0.39969 0.0
C1149 C 0.98261 0.38967 0.42722 0.0
C1150 C 0.02276 0.35231 0.42971 0.0
C1151 C 0.95932 0.38986 0.43118 0.0
C1152 C 0.02389 0.28585 0.39378 0.0
C1153 C 0.02336 0.3079 0.39853 0.0
C1154 C 0.0268 0.35797 0.40809 0.0
C1155 C 0.98814 0.36853 0.43001 0.0
C1156 C 0.00961 0.36484 0.42456 0.0
C1157 C 0.04092 0.32188 0.40695 0.0
C1158 C 0.03611 0.3417 0.41308 0.0
H1159 H 0.93412 0.3323 0.44642 0.0
H1160 H 0.97353 0.33138 0.43937 0.0
H1161 H 0.00391 0.37896 0.4095 0.0
H1162 H 0.07486 0.28535 0.40815 0.0
H1163 H 0.074 0.32435 0.41657 0.0
C1164 C 0.61172 0.56682 0.42744 0.0
C1165 C 0.62663 0.56956 0.43659 0.0
C1166 C 0.61247 0.59003 0.42296 0.0
C1167 C 0.63563 0.66454 0.42732 0.0
H1168 H 0.66357 0.67293 0.39916 0.0
C1169 C 0.71902 0.76758 0.41055 0.0
C1170 C 0.72213 0.77058 0.39972 0.0
C1171 C 0.69704 0.74357 0.4148 0.0
C1172 C 0.65508 0.67098 0.40689 0.0
H1173 H 0.65195 0.59799 0.44872 0.0
H1174 H 0.65331 0.6382 0.44095 0.0
H1175 H 0.64194 0.62799 0.40729 0.0
H1176 H 0.70375 0.75294 0.38482 0.0
H1177 H 0.66453 0.71183 0.39217 0.0
H1178 H 0.65001 0.70795 0.42705 0.0
C1179 C 0.64103 0.61835 0.4372 0.0
C1180 C 0.64262 0.64502 0.41158 0.0
C1181 C 0.64054 0.59533 0.44159 0.0
C1182 C 0.70173 0.75078 0.39321 0.0
C1183 C 0.67944 0.72718 0.39744 0.0
C1184 C 0.64795 0.69057 0.4226 0.0
C1185 C 0.62782 0.61619 0.42765 0.0
C1186 C 0.63392 0.64175 0.42199 0.0
C1187 C 0.6777 0.72248 0.40825 0.0
C1188 C 0.65896 0.69434 0.41248 0.0
H1189 H 0.6007 0.54713 0.42347 0.0
H1190 H 0.60197 0.58775 0.41562 0.0
H1191 H 0.62872 0.66252 0.43532 0.0
H1192 H 0.73474 0.7826 0.41568 0.0
H1193 H 0.69658 0.7407 0.42315 0.0
C1194 C 0.43149 0.04535 0.4284 0.0
C1195 C 0.42841 0.05665 0.43774 0.0
C1196 C 0.40839 0.02381 0.4235 0.0
C1197 C 0.3336 0.97267 0.42666 0.0
H1198 H 0.32795 0.99597 0.39879 0.0
C1199 C 0.23075 0.94936 0.40808 0.0
C1200 C 0.22933 0.9511 0.39723 0.0
C1201 C 0.25489 0.95277 0.41274 0.0
C1202 C 0.32915 0.98841 0.40643 0.0
H1203 H 0.39937 0.05279 0.44973 0.0
H1204 H 0.35927 0.01536 0.44122 0.0
H1205 H 0.37184 0.01875 0.4077 0.0
H1206 H 0.25021 0.95464 0.38265 0.0
H1207 H 0.29154 0.95869 0.39067 0.0
H1208 H 0.29054 0.94284 0.42548 0.0
C1209 C 0.37935 0.02301 0.43765 0.0
C1210 C 0.3545 0.00163 0.41156 0.0
C1211 C 0.4023 0.04468 0.44247 0.0
C1212 C 0.25109 0.95353 0.39106 0.0
C1213 C 0.27484 0.95613 0.39568 0.0
C1214 C 0.30819 0.95916 0.42147 0.0
C1215 C 0.38196 0.01301 0.42793 0.0
C1216 C 0.35678 0.99464 0.42186 0.0
C1217 C 0.27773 0.95742 0.40659 0.0
C1218 C 0.30541 0.96757 0.41142 0.0
H1219 H 0.45142 0.05411 0.42461 0.0
H1220 H 0.411 0.01635 0.41604 0.0
H1221 H 0.33486 0.96668 0.43457 0.0
H1222 H 0.21418 0.94768 0.41297 0.0
H1223 H 0.25627 0.95379 0.42116 0.0
C1224 C 0.7143 0.94742 0.90632 0.0
C1225 C 0.72421 0.96108 0.89677 0.0
C1226 C 0.69315 0.94895 0.91157 0.0
C1227 C 0.64061 0.9709 0.90923 0.0
H1228 H 0.66878 0.00485 0.93611 0.0
C1229 C 0.61829 0.05204 0.92688 0.0
C1230 C 0.62205 0.05737 0.9376 0.0
C1231 C 0.62167 0.03095 0.92253 0.0
C1232 C 0.65987 0.9947 0.92878 0.0
H1233 H 0.71823 0.98481 0.88474 0.0
H1234 H 0.68133 0.98728 0.89381 0.0
H1235 H 0.69042 0.98272 0.9271 0.0
H1236 H 0.62919 0.04334 0.95237 0.0
H1237 H 0.6333 0.00548 0.94494 0.0
H1238 H 0.61047 0.9836 0.91079 0.0
C1239 C 0.68982 0.9755 0.8973 0.0
C1240 C 0.67244 0.98199 0.92359 0.0
C1241 C 0.71116 0.97432 0.89216 0.0
C1242 C 0.62662 0.0398 0.94404 0.0
C1243 C 0.62921 0.01827 0.93975 0.0
C1244 C 0.62772 0.98332 0.91449 0.0
C1245 C 0.68133 0.96376 0.90724 0.0
C1246 C 0.66367 0.97094 0.91359 0.0
C1247 C 0.62828 0.01449 0.92889 0.0
C1248 C 0.63791 0.99638 0.92417 0.0
H1249 H 0.72397 0.937 0.91003 0.0
H1250 H 0.68688 0.93962 0.91921 0.0
H1251 H 0.63327 0.96228 0.90155 0.0
H1252 H 0.61485 0.06545 0.92177 0.0
H1253 H 0.62097 0.02893 0.91414 0.0
C1254 C 0.94764 0.55933 0.92137 0.0
C1255 C 0.94129 0.56406 0.93147 0.0
C1256 C 0.96797 0.58127 0.91553 0.0
C1257 C 0.0241 0.65474 0.91682 0.0
H1258 H 0.98866 0.66318 0.89229 0.0
C1259 C 0.04468 0.76016 0.90207 0.0
C1260 C 0.03818 0.76273 0.89174 0.0
C1261 C 0.0415 0.73505 0.90561 0.0
C1262 C -0.0005 0.66114 0.89891 0.0
H1263 H 0.95272 0.59439 0.94378 0.0
H1264 H 0.98827 0.63236 0.93371 0.0
H1265 H 0.96833 0.61896 0.90098 0.0
H1266 H 0.02623 0.74253 0.87671 0.0
H1267 H 0.02219 0.69935 0.88268 0.0
H1268 H 0.05483 0.69729 0.91493 0.0
C1269 C 0.97763 0.61199 0.93023 0.0
C1270 C 0.98772 0.63561 0.90391 0.0
C1271 C 0.95707 0.59031 0.93596 0.0
C1272 C 0.03087 0.7408 0.88478 0.0
C1273 C 0.0284 0.71601 0.88823 0.0
C1274 C 0.03614 0.68028 0.91173 0.0
C1275 C 0.98254 0.60799 0.91982 0.0
C1276 C 0.99919 0.63247 0.91316 0.0
C1277 C 0.03232 0.7123 0.89881 0.0
C1278 C 0.02331 0.68414 0.90296 0.0
H1279 H 0.93572 0.53922 0.91776 0.0
H1280 H 0.97141 0.57765 0.90753 0.0
H1281 H 0.03351 0.65277 0.9239 0.0
H1282 H 0.05032 0.77684 0.90757 0.0
H1283 H 0.04452 0.73305 0.91383 0.0
C1284 C 0.41231 0.37785 0.94092 0.0
C1285 C 0.43383 0.37991 0.9347 0.0
C1286 C 0.38871 0.37576 0.93635 0.0
C1287 C 0.35539 0.37334 0.9106 0.0
H1288 H 0.29141 0.31418 0.92437 0.0
C1289 C 0.26135 0.2878 0.88963 0.0
C1290 C 0.23521 0.27591 0.89433 0.0
C1291 C 0.28426 0.3096 0.89443 0.0
C1292 C 0.30885 0.33119 0.92051 0.0
H1293 H 0.44871 0.38309 0.91893 0.0
H1294 H 0.40691 0.37793 0.91083 0.0
H1295 H 0.33528 0.33663 0.93329 0.0
H1296 H 0.21207 0.27872 0.90735 0.0
H1297 H 0.2524 0.31671 0.91589 0.0
H1298 H 0.32882 0.36598 0.89747 0.0
C1299 C 0.40837 0.37889 0.91925 0.0
C1300 C 0.3342 0.34423 0.92565 0.0
C1301 C 0.43236 0.38177 0.92386 0.0
C1302 C 0.23203 0.28744 0.90358 0.0
C1303 C 0.25508 0.30911 0.90847 0.0
C1304 C 0.32999 0.36 0.9054 0.0
C1305 C 0.38572 0.37461 0.92544 0.0
C1306 C 0.35806 0.36486 0.92065 0.0
C1307 C 0.28155 0.3198 0.90409 0.0
C1308 C 0.30669 0.33816 0.91019 0.0
H1309 H 0.41321 0.37657 0.94932 0.0
H1310 H 0.37216 0.37345 0.94139 0.0
H1311 H 0.37313 0.38952 0.90657 0.0
H1312 H 0.26436 0.27948 0.88244 0.0
H1313 H 0.30437 0.31717 0.8909 0.0
C1314 C 0.94254 0.71571 0.59136 0.0
C1315 C 0.95546 0.72612 0.601 0.0
C1316 C 0.94487 0.6946 0.58644 0.0
C1317 C 0.9677 0.64293 0.59002 0.0
H1318 H 0.00176 0.66884 0.563 0.0
C1319 C 0.04932 0.61963 0.57341 0.0
C1320 C 0.05441 0.62228 0.56267 0.0
C1321 C 0.02823 0.62332 0.57756 0.0
C1322 C 0.9916 0.66057 0.57038 0.0
H1323 H 0.97878 0.72115 0.61347 0.0
H1324 H 0.98266 0.68442 0.60496 0.0
H1325 H 0.97922 0.69096 0.57138 0.0
H1326 H 0.04004 0.62776 0.5477 0.0
H1327 H 0.00216 0.63235 0.5548 0.0
H1328 H 0.98085 0.613 0.58914 0.0
C1329 C 0.97083 0.69243 0.60116 0.0
C1330 C 0.97865 0.67341 0.5752 0.0
C1331 C 0.96884 0.71369 0.60599 0.0
C1332 C 0.03663 0.62601 0.55604 0.0
C1333 C 0.01512 0.6289 0.56014 0.0
C1334 C 0.9804 0.6298 0.58512 0.0
C1335 C 0.95976 0.68334 0.59117 0.0
C1336 C 0.96748 0.66544 0.58523 0.0
C1337 C 0.01156 0.62914 0.57099 0.0
C1338 C 0.99344 0.63914 0.5754 0.0
H1339 H 0.93205 0.72491 0.58737 0.0
H1340 H 0.93603 0.68786 0.57875 0.0
H1341 H 0.959 0.6362 0.59772 0.0
H1342 H 0.06295 0.6169 0.57866 0.0
H1343 H 0.02637 0.62352 0.58595 0.0
C1344 C 0.28978 0.26113 0.60696 0.0
C1345 C 0.27537 0.23476 0.60244 0.0
C1346 C 0.311 0.28309 0.60154 0.0
C1347 C 0.3259 0.30594 0.57504 0.0
H1348 H 0.38987 0.36912 0.5871 0.0
C1349 C 0.37066 0.40932 0.55459 0.0
C1350 C 0.37583 0.43146 0.56114 0.0
C1351 C 0.36847 0.38522 0.5587 0.0
C1352 C 0.37208 0.35168 0.58361 0.0
H1353 H 0.27309 0.21011 0.58905 0.0
H1354 H 0.30999 0.24883 0.57941 0.0
H1355 H 0.36736 0.32517 0.59647 0.0
H1356 H 0.38461 0.44681 0.57695 0.0
H1357 H 0.3792 0.40416 0.58431 0.0
H1358 H 0.32882 0.33245 0.56263 0.0
C1359 C 0.30486 0.2524 0.58718 0.0
C1360 C 0.35934 0.32648 0.58894 0.0
C1361 C 0.2838 0.23028 0.59269 0.0
C1362 C 0.38066 0.42994 0.57176 0.0
C1363 C 0.3777 0.40548 0.57595 0.0
C1364 C 0.33836 0.33112 0.56978 0.0
C1365 C 0.31803 0.27919 0.59142 0.0
C1366 C 0.33553 0.30365 0.58487 0.0
C1367 C 0.37043 0.38238 0.56951 0.0
C1368 C 0.36102 0.35463 0.57416 0.0
H1369 H 0.28389 0.2651 0.61453 0.0
H1370 H 0.32054 0.30349 0.60498 0.0
H1371 H 0.30737 0.28886 0.57176 0.0
H1372 H 0.3673 0.41028 0.54632 0.0
H1373 H 0.36383 0.3683 0.55344 0.0
C1374 C 0.75092 0.05536 0.6059 0.0
C1375 C 0.77058 0.05381 0.59961 0.0
C1376 C 0.72712 0.05319 0.60148 0.0
C1377 C 0.6707 0.01918 0.59232 0.0
H1378 H 0.66126 0.0331 0.56347 0.0
C1379 C 0.59359 0.95417 0.55823 0.0
C1380 C 0.56787 0.94326 0.56321 0.0
C1381 C 0.61694 0.9767 0.56245 0.0
C1382 C 0.66355 0.02929 0.57158 0.0
H1383 H 0.78208 0.05057 0.58383 0.0
H1384 H 0.73999 0.04561 0.57606 0.0
H1385 H 0.70688 0.05866 0.57152 0.0
H1386 H 0.546 0.94832 0.57618 0.0
H1387 H 0.58721 0.98771 0.58373 0.0
H1388 H 0.62777 0.98899 0.59227 0.0
C1389 C 0.74311 0.04938 0.58435 0.0
C1390 C 0.68969 0.04383 0.57618 0.0
C1391 C 0.76725 0.05218 0.58878 0.0
C1392 C 0.56563 0.95626 0.57222 0.0
C1393 C 0.58918 0.97874 0.57653 0.0
C1394 C 0.64462 0.00482 0.58776 0.0
C1395 C 0.72212 0.04847 0.59073 0.0
C1396 C 0.69381 0.0381 0.58648 0.0
C1397 C 0.61519 0.98875 0.57181 0.0
C1398 C 0.64099 0.00883 0.57721 0.0
H1399 H 0.75322 0.05663 0.6143 0.0
H1400 H 0.71181 0.05337 0.6066 0.0
H1401 H 0.67295 0.01379 0.60022 0.0
H1402 H 0.59591 0.94474 0.55122 0.0
H1403 H 0.63666 0.98361 0.55869 0.0
C1404 C 0.69107 0.61844 0.72593 0.0
C1405 C 0.70917 0.60996 0.72974 0.0
C1406 C 0.68979 0.64029 0.73053 0.0
C1407 C 0.70119 0.67381 0.75598 0.0
H1408 H 0.66749 0.70994 0.74123 0.0
C1409 C 0.61496 0.68412 0.77404 0.0
C1410 C 0.6084 0.70408 0.77075 0.0
C1411 C 0.63714 0.68293 0.76971 0.0
C1412 C 0.67749 0.70074 0.74554 0.0
H1413 H 0.74167 0.61907 0.74091 0.0
H1414 H 0.73977 0.65788 0.74895 0.0
H1415 H 0.69148 0.6911 0.73152 0.0
H1416 H 0.62092 0.73951 0.76069 0.0
H1417 H 0.6603 0.73779 0.75315 0.0
H1418 H 0.68747 0.68371 0.77001 0.0
C1419 C 0.72613 0.64715 0.74249 0.0
C1420 C 0.69094 0.6895 0.73993 0.0
C1421 C 0.72732 0.625 0.73787 0.0
C1422 C 0.62535 0.72373 0.76331 0.0
C1423 C 0.64786 0.72267 0.75899 0.0
C1424 C 0.68833 0.68564 0.7616 0.0
C1425 C 0.70675 0.65456 0.73905 0.0
C1426 C 0.70112 0.6741 0.74503 0.0
C1427 C 0.6537 0.70188 0.762 0.0
C1428 C 0.67454 0.69744 0.75641 0.0
H1429 H 0.67694 0.60749 0.71961 0.0
H1430 H 0.67421 0.64479 0.72773 0.0
H1431 H 0.70903 0.66246 0.76023 0.0
H1432 H 0.60239 0.66867 0.77977 0.0
H1433 H 0.64035 0.66618 0.77209 0.0
C1434 C 0.38091 0.09983 0.73962 0.0
C1435 C 0.39129 0.09713 0.73001 0.0
C1436 C 0.35903 0.07668 0.74439 0.0
C1437 C 0.30578 0.00271 0.74022 0.0
H1438 H 0.32879 0.99283 0.76757 0.0
C1439 C 0.28319 0.89762 0.75613 0.0
C1440 C 0.28438 0.89443 0.76691 0.0
C1441 C 0.28633 0.92232 0.75212 0.0
C1442 C 0.32134 0.99523 0.76008 0.0
H1443 H 0.38555 0.06886 0.71742 0.0
H1444 H 0.34768 0.02877 0.72567 0.0
H1445 H 0.35219 0.03789 0.75951 0.0
H1446 H 0.28682 0.91267 0.78201 0.0
H1447 H 0.29067 0.95506 0.77509 0.0
H1448 H 0.27563 0.95961 0.74064 0.0
C1449 C 0.35622 0.04854 0.72958 0.0
C1450 C 0.33489 0.02125 0.75544 0.0
C1451 C 0.37818 0.07149 0.7249 0.0
C1452 C 0.28608 0.91494 0.77365 0.0
C1453 C 0.28853 0.93927 0.76967 0.0
C1454 C 0.29203 0.97662 0.74491 0.0
C1455 C 0.347 0.05063 0.73953 0.0
C1456 C 0.32806 0.02503 0.74529 0.0
C1457 C 0.29029 0.94395 0.75885 0.0
C1458 C 0.30042 0.97232 0.75472 0.0
H1459 H 0.39057 0.11942 0.7437 0.0
H1460 H 0.35221 0.07892 0.75204 0.0
H1461 H 0.29983 0.00513 0.73243 0.0
H1462 H 0.28211 0.88205 0.75082 0.0
H1463 H 0.28775 0.92515 0.74375 0.0
C1464 C 0.905 0.29521 0.74441 0.0
C1465 C 0.89477 0.28305 0.73469 0.0
C1466 C 0.92875 0.29642 0.74845 0.0
C1467 C 0.99224 0.30199 0.73823 0.0
H1468 H 0.01171 0.31256 0.7675 0.0
C1469 C 0.09549 0.38757 0.7531 0.0
C1470 C 0.10534 0.38519 0.76284 0.0
C1471 C 0.07132 0.36552 0.74905 0.0
C1472 C 0.00674 0.3091 0.75928 0.0
H1473 H 0.8999 0.26127 0.72175 0.0
H1474 H 0.94116 0.26261 0.72892 0.0
H1475 H 0.96339 0.28837 0.76245 0.0
H1476 H 0.09911 0.35797 0.77579 0.0
H1477 H 0.05713 0.31895 0.76861 0.0
H1478 H 0.0356 0.32331 0.73506 0.0
C1479 C 0.9311 0.27146 0.73341 0.0
C1480 C 0.97894 0.2955 0.75639 0.0
C1481 C 0.90736 0.27039 0.72936 0.0
C1482 C 0.09193 0.35996 0.76817 0.0
C1483 C 0.06779 0.33781 0.76411 0.0
C1484 C 0.02004 0.31539 0.74112 0.0
C1485 C 0.94279 0.28561 0.74278 0.0
C1486 C 0.97138 0.29307 0.74583 0.0
C1487 C 0.0565 0.34077 0.75473 0.0
C1488 C 0.02765 0.32039 0.75167 0.0
H1489 H 0.89583 0.30559 0.74851 0.0
H1490 H 0.93728 0.30784 0.7556 0.0
H1491 H 0.9873 0.30057 0.73001 0.0
H1492 H 0.1053 0.40712 0.74899 0.0
H1493 H 0.06313 0.3688 0.74189 0.0
C1494 C 0.36828 0.28438 0.225 0.0
C1495 C 0.38785 0.28382 0.23165 0.0
C1496 C 0.34603 0.28603 0.22908 0.0
C1497 C 0.32194 0.31805 0.23865 0.0
H1498 H 0.29335 0.29827 0.26674 0.0
C1499 C 0.30636 0.37742 0.2737 0.0
C1500 C 0.29265 0.38966 0.26884 0.0
C1501 C 0.30688 0.35513 0.2691 0.0
C1502 C 0.30087 0.30368 0.25882 0.0
H1503 H 0.39899 0.28274 0.24769 0.0
H1504 H 0.36088 0.28695 0.25492 0.0
H1505 H 0.31443 0.27402 0.2584 0.0
H1506 H 0.26724 0.38721 0.2557 0.0
H1507 H 0.2687 0.34833 0.24743 0.0
H1508 H 0.30951 0.34845 0.23921 0.0
C1509 C 0.36195 0.28521 0.24656 0.0
C1510 C 0.31309 0.28992 0.25407 0.0
C1511 C 0.38388 0.28287 0.24245 0.0
C1512 C 0.27804 0.37817 0.25957 0.0
C1513 C 0.27891 0.356 0.25486 0.0
C1514 C 0.30954 0.33158 0.24336 0.0
C1515 C 0.3435 0.28815 0.2399 0.0
C1516 C 0.32491 0.29781 0.24409 0.0
C1517 C 0.29396 0.34475 0.25945 0.0
C1518 C 0.30002 0.32543 0.25366 0.0
H1519 H 0.371 0.28499 0.21662 0.0
H1520 H 0.33181 0.28739 0.22371 0.0
H1521 H 0.33106 0.32509 0.23102 0.0
H1522 H 0.31756 0.38569 0.28092 0.0
H1523 H 0.31894 0.34722 0.27278 0.0
C1524 C 0.62236 0.92639 0.27571 0.0
C1525 C 0.6089 0.90009 0.27109 0.0
C1526 C 0.6438 0.94873 0.27052 0.0
C1527 C 0.66089 0.9721 0.24413 0.0
H1528 H 0.72278 0.03602 0.25682 0.0
C1529 C 0.70599 0.07527 0.2235 0.0
C1530 C 0.71019 0.09736 0.22989 0.0
C1531 C 0.70378 0.05138 0.22783 0.0
C1532 C 0.70557 0.01838 0.25315 0.0
H1533 H 0.6086 0.87601 0.25781 0.0
H1534 H 0.64591 0.91538 0.2486 0.0
H1535 H 0.70015 0.99201 0.26615 0.0
H1536 H 0.71721 0.11285 0.24569 0.0
H1537 H 0.71172 0.07053 0.25342 0.0
H1538 H 0.66445 0.99839 0.23154 0.0
C1539 C 0.63984 0.91861 0.25625 0.0
C1540 C 0.69277 0.99315 0.25847 0.0
C1541 C 0.61855 0.89612 0.26151 0.0
C1542 C 0.71402 0.09601 0.24062 0.0
C1543 C 0.71101 0.07175 0.24501 0.0
C1544 C 0.6734 0.99729 0.23888 0.0
C1545 C 0.65202 0.9453 0.26055 0.0
C1546 C 0.6697 0.97001 0.25415 0.0
C1547 C 0.70473 0.04868 0.2387 0.0
C1548 C 0.69531 0.02105 0.24346 0.0
H1549 H 0.61554 0.92999 0.28314 0.0
H1550 H 0.65257 0.96904 0.274 0.0
H1551 H 0.64292 0.95479 0.24065 0.0
H1552 H 0.70341 0.07611 0.21516 0.0
H1553 H 0.69994 0.0345 0.22267 0.0
C1554 C 0.89913 0.62098 0.23523 0.0
C1555 C 0.90084 0.60793 0.22614 0.0
C1556 C 0.92304 0.64285 0.23959 0.0
C1557 C 0.99815 0.69128 0.23503 0.0
H1558 H 0.00534 0.67324 0.26356 0.0
C1559 C 0.10083 0.71235 0.25303 0.0
C1560 C 0.10341 0.71332 0.2639 0.0
C1561 C 0.07685 0.70952 0.24842 0.0
C1562 C 0.00375 0.67933 0.2557 0.0
H1563 H 0.92833 0.60896 0.214 0.0
H1564 H 0.96978 0.64682 0.22158 0.0
H1565 H 0.96055 0.65026 0.25529 0.0
H1566 H 0.08486 0.71492 0.27847 0.0
H1567 H 0.04382 0.71171 0.27046 0.0
H1568 H 0.04172 0.71965 0.23534 0.0
C1569 C 0.95018 0.64037 0.22537 0.0
C1570 C 0.97788 0.66602 0.25094 0.0
C1571 C 0.92642 0.61843 0.22108 0.0
C1572 C 0.0831 0.71405 0.27005 0.0
C1573 C 0.05951 0.71192 0.26546 0.0
C1574 C 0.0241 0.70482 0.23982 0.0
C1575 C 0.94894 0.65218 0.23487 0.0
C1576 C 0.97495 0.67103 0.24044 0.0
C1577 C 0.05533 0.70801 0.25463 0.0
C1578 C 0.0274 0.69823 0.25011 0.0
H1579 H 0.87964 0.61337 0.23926 0.0
H1580 H 0.92145 0.65172 0.24688 0.0
H1581 H 0.99643 0.69582 0.22695 0.0
H1582 H 0.11622 0.71147 0.24818 0.0
H1583 H 0.07439 0.70638 0.24008 0.0
C1584 C 0.04203 0.16615 0.11735 0.0
C1585 C 0.0278 0.16837 0.10874 0.0
C1586 C 0.06117 0.15724 0.11604 0.0
C1587 C 0.07568 0.11434 0.09865 0.0
H1588 H 0.14309 0.14289 0.1148 0.0
C1589 C 0.1699 0.09001 0.10776 0.0
C1590 C 0.15362 0.06228 0.11078 0.0
C1591 C 0.15744 0.10565 0.10524 0.0
C1592 C 0.12459 0.13499 0.11009 0.0
H1593 H 0.02316 0.164 0.09194 0.0
H1594 H 0.0565 0.14842 0.08967 0.0
H1595 H 0.11662 0.16689 0.11515 0.0
H1596 H 0.11172 0.02856 0.11283 0.0
H1597 H 0.09005 0.05556 0.10826 0.0
H1598 H 0.08314 0.08195 0.09387 0.0
C1599 C 0.05272 0.15334 0.09744 0.0
C1600 C 0.10929 0.14854 0.11039 0.0
C1601 C 0.03369 0.16235 0.09875 0.0
C1602 C 0.12475 0.04996 0.11057 0.0
C1603 C 0.11234 0.06538 0.1079 0.0
C1604 C 0.09085 0.1007 0.09842 0.0
C1605 C 0.06635 0.15028 0.10609 0.0
C1606 C 0.08435 0.13799 0.10486 0.0
C1607 C 0.12854 0.09358 0.10551 0.0
C1608 C 0.1151 0.11051 0.10433 0.0
H1609 H 0.03792 0.17067 0.12514 0.0
H1610 H 0.07112 0.1548 0.12287 0.0
H1611 H 0.05647 0.10559 0.09435 0.0
H1612 H 0.19222 0.10001 0.10791 0.0
H1613 H 0.17038 0.12733 0.10337 0.0
C1614 C 0.92363 0.0753 0.10531 0.0
C1615 C 0.92845 0.08561 0.11554 0.0
C1616 C 0.90886 0.04667 0.10355 0.0
C1617 C 0.89241 0.98263 0.11763 0.0
H1618 H 0.84058 0.9444 0.09525 0.0
C1619 C 0.82716 0.86528 0.1175 0.0
C1620 C 0.82746 0.85191 0.10829 0.0
C1621 C 0.83703 0.89365 0.11755 0.0
C1622 C 0.85514 0.95491 0.10149 0.0
H1623 H 0.91983 0.07466 0.13184 0.0
H1624 H 0.89335 0.02525 0.12881 0.0
H1625 H 0.86225 0.99482 0.09677 0.0
H1626 H 0.83695 0.85747 0.09177 0.0
H1627 H 0.85422 0.90728 0.09188 0.0
H1628 H 0.88533 0.94306 0.12243 0.0
C1629 C 0.90178 0.03884 0.12214 0.0
C1630 C 0.86757 0.98372 0.10235 0.0
C1631 C 0.91679 0.06716 0.12389 0.0
C1632 C 0.83655 0.86725 0.099 0.0
C1633 C 0.84633 0.89571 0.09905 0.0
C1634 C 0.87992 0.95405 0.11682 0.0
C1635 C 0.89854 0.02814 0.11201 0.0
C1636 C 0.88602 0.99781 0.11055 0.0
C1637 C 0.84732 0.90927 0.10839 0.0
C1638 C 0.86087 0.93981 0.10885 0.0
H1639 H 0.9325 0.08922 0.09876 0.0
H1640 H 0.90666 0.03906 0.09565 0.0
H1641 H 0.9072 0.99286 0.12384 0.0
H1642 H 0.82006 0.854 0.12476 0.0
H1643 H 0.83714 0.90351 0.12483 0.0
C1644 C 0.92144 0.84059 0.10626 0.0
C1645 C 0.91016 0.84045 0.11606 0.0
C1646 C 0.95016 0.85526 0.10478 0.0
C1647 C 0.01264 0.91264 0.11686 0.0
H1648 H 0.05343 0.88614 0.10078 0.0
C1649 C 0.1287 0.9606 0.12153 0.0
C1650 C 0.14446 0.97013 0.11238 0.0
C1651 C 0.10023 0.94301 0.121 0.0
C1652 C 0.04218 0.8938 0.10522 0.0
H1653 H 0.92004 0.85384 0.13214 0.0
H1654 H 0.96955 0.87844 0.12966 0.0
H1655 H 0.0028 0.85856 0.10156 0.0
H1656 H 0.14303 0.96744 0.09551 0.0
H1657 H 0.09295 0.93622 0.09461 0.0
H1658 H 0.05179 0.94738 0.12076 0.0
C1659 C 0.95648 0.86831 0.12299 0.0
C1660 C 0.01328 0.87812 0.10564 0.0
C1661 C 0.92804 0.85406 0.12443 0.0
C1662 C 0.13137 0.96048 0.10269 0.0
C1663 C 0.10279 0.9426 0.10216 0.0
C1664 C 0.04133 0.92803 0.11653 0.0
C1665 C 0.96793 0.86975 0.11312 0.0
C1666 C 0.99827 0.88712 0.11168 0.0
C1667 C 0.08692 0.93438 0.11131 0.0
C1668 C 0.05641 0.91852 0.1109 0.0
H1669 H 0.90809 0.83021 0.09968 0.0
H1670 H 0.95837 0.85596 0.09707 0.0
H1671 H 0.00171 0.92063 0.12132 0.0
H1672 H 0.13819 0.96744 0.12911 0.0
H1673 H 0.08846 0.93662 0.12817 0.0
C1674 C 0.08911 0.15868 0.3743 0.0
C1675 C 0.07561 0.16316 0.38263 0.0
C1676 C 0.10417 0.14539 0.3759 0.0
C1677 C 0.13538 0.12021 0.39514 0.0
H1678 H 0.11674 0.06375 0.37409 0.0
C1679 C 0.16391 0.03289 0.39689 0.0
C1680 C 0.17182 0.02634 0.38739 0.0
C1681 C 0.15499 0.05223 0.3972 0.0
C1682 C 0.12246 0.07962 0.37996 0.0
H1683 H 0.06854 0.15896 0.39927 0.0
H1684 H 0.09465 0.13477 0.40211 0.0
H1685 H 0.09638 0.0931 0.37325 0.0
H1686 H 0.17823 0.03605 0.37091 0.0
H1687 H 0.16299 0.06986 0.37147 0.0
H1688 H 0.16137 0.10616 0.40188 0.0
C1689 C 0.09376 0.14191 0.39435 0.0
C1690 C 0.11078 0.09646 0.37949 0.0
C1691 C 0.07886 0.15569 0.39275 0.0
C1692 C 0.17196 0.04042 0.37833 0.0
C1693 C 0.16313 0.05971 0.37864 0.0
C1694 C 0.14713 0.10317 0.39563 0.0
C1695 C 0.10567 0.13575 0.38584 0.0
C1696 C 0.11746 0.11728 0.38694 0.0
C1697 C 0.15383 0.06528 0.38801 0.0
C1698 C 0.14109 0.08302 0.38792 0.0
H1699 H 0.08723 0.16467 0.36644 0.0
H1700 H 0.11378 0.14167 0.36924 0.0
H1701 H 0.14082 0.13604 0.401 0.0
H1702 H 0.16366 0.02237 0.40401 0.0
H1703 H 0.14787 0.05605 0.40452 0.0
C1704 C 0.96509 0.13068 0.3981 0.0
C1705 C 0.97382 0.1432 0.38828 0.0
C1706 C 0.94522 0.10268 0.39891 0.0
C1707 C 0.89211 0.0436 0.38344 0.0
H1708 H 0.90634 0.99881 0.40277 0.0
C1709 C 0.85809 0.93073 0.37615 0.0
C1710 C 0.84457 0.91133 0.38412 0.0
C1711 C 0.86945 0.95884 0.37806 0.0
C1712 C 0.90181 0.01113 0.39749 0.0
H1713 H 0.96838 0.13637 0.37161 0.0
H1714 H 0.93431 0.08759 0.37297 0.0
H1715 H 0.93485 0.04913 0.40342 0.0
H1716 H 0.83242 0.90618 0.40037 0.0
H1717 H 0.85336 0.95603 0.40381 0.0
H1718 H 0.86017 0.00548 0.37713 0.0
C1719 C 0.94228 0.09939 0.38009 0.0
C1720 C 0.91809 0.03994 0.39785 0.0
C1721 C 0.962 0.12734 0.37929 0.0
C1722 C 0.84269 0.92071 0.39409 0.0
C1723 C 0.85466 0.9491 0.39606 0.0
C1724 C 0.87608 0.01488 0.38303 0.0
C1725 C 0.93374 0.08664 0.3899 0.0
C1726 C 0.91398 0.05646 0.3906 0.0
C1727 C 0.86796 0.96832 0.38801 0.0
C1728 C 0.88133 0.9984 0.38983 0.0
H1729 H 0.97379 0.14244 0.40518 0.0
H1730 H 0.93893 0.09358 0.40658 0.0
H1731 H 0.88791 0.0557 0.37793 0.0
H1732 H 0.85973 0.9242 0.36837 0.0
H1733 H 0.8799 0.97326 0.37176 0.0
C1734 C 0.06548 0.91996 0.37544 0.0
C1735 C 0.08578 0.92762 0.38319 0.0
C1736 C 0.03772 0.90269 0.37779 0.0
C1737 C 0.98747 0.88459 0.39788 0.0
H1738 H 0.94157 0.82341 0.37953 0.0
C1739 C 0.86834 0.82938 0.39973 0.0
C1740 C 0.85526 0.82487 0.39 0.0
C1741 C 0.89617 0.83679 0.40037 0.0
C1742 C 0.95405 0.84045 0.38472 0.0
H1743 H 0.09292 0.92316 0.39949 0.0
H1744 H 0.04365 0.8934 0.40371 0.0
H1745 H 0.99172 0.84619 0.37811 0.0
H1746 H 0.86079 0.8238 0.37332 0.0
H1747 H 0.90929 0.83722 0.37438 0.0
H1748 H 0.94992 0.88012 0.40405 0.0
C1749 C 0.04961 0.90061 0.39579 0.0
C1750 C 0.98273 0.85332 0.38395 0.0
C1751 C 0.07768 0.91754 0.39338 0.0
C1752 C 0.87028 0.8271 0.38094 0.0
C1753 C 0.89807 0.83459 0.38157 0.0
C1754 C 0.95871 0.87189 0.39859 0.0
C1755 C 0.02947 0.89298 0.38797 0.0
C1756 C -0.00034 0.87604 0.39029 0.0
C1757 C 0.91148 0.83986 0.39128 0.0
C1758 C 0.94168 0.85027 0.39176 0.0
H1759 H 0.07106 0.92717 0.3675 0.0
H1760 H 0.02257 0.8974 0.37166 0.0
H1761 H 0.00013 0.90222 0.4028 0.0
H1762 H 0.85722 0.82768 0.40686 0.0
H1763 H 0.90575 0.84038 0.40798 0.0
C1764 C 0.83197 0.91307 0.89018 0.0
C1765 C 0.84882 0.94114 0.88769 0.0
C1766 C 0.84379 0.89659 0.8922 0.0
C1767 C 0.87559 0.86679 0.88636 0.0
H1768 H 0.94238 0.8917 0.90262 0.0
C1769 C 0.95648 0.83382 0.87828 0.0
C1770 C 0.96894 0.82877 0.88685 0.0
C1771 C 0.93799 0.84345 0.8798 0.0
C1772 C 0.92353 0.88424 0.89816 0.0
H1773 H 0.89111 0.97444 0.8861 0.0
H1774 H 0.91167 0.94591 0.88983 0.0
H1775 H 0.91705 0.91673 0.90367 0.0
H1776 H 0.9712 0.82902 0.90373 0.0
H1777 H 0.9391 0.84607 0.90636 0.0
H1778 H 0.88268 0.83492 0.88054 0.0
C1779 C 0.88941 0.93651 0.89013 0.0
C1780 C 0.90914 0.89865 0.89872 0.0
C1781 C 0.87764 0.95281 0.88794 0.0
C1782 C 0.96195 0.83276 0.89697 0.0
C1783 C 0.94367 0.84262 0.89848 0.0
C1784 C 0.89016 0.85255 0.88571 0.0
C1785 C 0.87261 0.90809 0.89198 0.0
C1786 C 0.88535 0.89041 0.89266 0.0
C1787 C 0.9318 0.84843 0.88991 0.0
C1788 C 0.91457 0.86147 0.89144 0.0
H1789 H 0.80969 0.90354 0.88999 0.0
H1790 H 0.83041 0.87474 0.89366 0.0
H1791 H 0.85746 0.86014 0.88153 0.0
H1792 H 0.96149 0.83095 0.8704 0.0
H1793 H 0.92937 0.84802 0.87304 0.0
C1794 C 0.0906 0.92107 0.89162 0.0
C1795 C 0.06276 0.91078 0.88899 0.0
C1796 C 0.10735 0.94892 0.89431 0.0
C1797 C 0.13826 0.0109 0.88939 0.0
H1798 H 0.11313 0.05271 0.90556 0.0
C1799 C 0.17016 0.12394 0.88071 0.0
C1800 C 0.17414 0.14171 0.88908 0.0
C1801 C 0.16126 0.09607 0.88249 0.0
C1802 C 0.12073 0.04137 0.90115 0.0
H1803 H 0.03 0.92068 0.88796 0.0
H1804 H 0.05896 0.96893 0.89282 0.0
H1805 H 0.08817 0.00238 0.9066 0.0
H1806 H 0.17296 0.14449 0.90592 0.0
H1807 H 0.15731 0.09578 0.90901 0.0
H1808 H 0.1702 0.04985 0.88362 0.0
C1809 C 0.06802 0.95575 0.89274 0.0
C1810 C 0.10633 0.01256 0.9017 0.0
C1811 C 0.05145 0.92815 0.8899 0.0
C1812 C 0.16998 0.13128 0.8993 0.0
C1813 C 0.16092 0.10338 0.90107 0.0
C1814 C 0.15255 0.03972 0.88877 0.0
C1815 C 0.09634 0.96668 0.89461 0.0
C1816 C 0.11449 0.997 0.89561 0.0
C1817 C 0.15604 0.08538 0.89268 0.0
C1818 C 0.14348 0.05521 0.89443 0.0
H1819 H 0.09983 0.90811 0.89093 0.0
H1820 H 0.1291 0.9568 0.89578 0.0
H1821 H 0.14491 0.99946 0.88453 0.0
H1822 H 0.1732 0.13139 0.87276 0.0
H1823 H 0.15737 0.08265 0.87585 0.0
C1824 C 0.0794 0.16831 0.89091 0.0
C1825 C 0.08967 0.15079 0.88819 0.0
C1826 C 0.05142 0.15725 0.89335 0.0
C1827 C 0.98934 0.12687 0.88843 0.0
H1828 H 0.94755 0.05988 0.90459 0.0
C1829 C 0.87487 0.04741 0.88091 0.0
C1830 C 0.85784 0.03396 0.8895 0.0
C1831 C 0.90301 0.06598 0.88234 0.0
C1832 C 0.9589 0.07883 0.90017 0.0
H1833 H 0.07936 0.10807 0.88662 0.0
H1834 H 0.03084 0.08884 0.89103 0.0
H1835 H 0.99789 0.08439 0.90518 0.0
H1836 H 0.85661 0.03029 0.90635 0.0
H1837 H 0.90572 0.06264 0.90882 0.0
H1838 H 0.95031 0.12073 0.88313 0.0
C1839 C 0.04421 0.11105 0.89122 0.0
C1840 C 0.98771 0.09274 0.90047 0.0
C1841 C 0.07196 0.12207 0.88863 0.0
C1842 C 0.86924 0.04024 0.89957 0.0
C1843 C 0.89738 0.05868 0.90099 0.0
C1844 C 0.96049 0.11282 0.88807 0.0
C1845 C 0.03346 0.12851 0.8933 0.0
C1846 C 0.00322 0.11651 0.8944 0.0
C1847 C 0.91466 0.07135 0.89238 0.0
C1848 C 0.945 0.08829 0.89375 0.0
H1849 H 0.09259 0.19054 0.8906 0.0
H1850 H 0.04366 0.17114 0.89499 0.0
H1851 H 0.00076 0.14503 0.88361 0.0
H1852 H 0.86666 0.04299 0.87307 0.0
H1853 H 0.91586 0.07521 0.87555 0.0
C1854 C 0.81845 0.95534 0.61699 0.0
C1855 C 0.82278 0.97314 0.6086 0.0
C1856 C 0.82661 0.93551 0.6163 0.0
C1857 C 0.85187 0.90061 0.59824 0.0
H1858 H 0.89316 0.90127 0.62261 0.0
C1859 C 0.94379 0.87851 0.61101 0.0
C1860 C 0.93256 0.84984 0.61 0.0
C1861 C 0.92755 0.89051 0.6093 0.0
C1862 C 0.88156 0.90076 0.61576 0.0
H1863 H 0.83789 0.98338 0.59274 0.0
H1864 H 0.85282 0.94926 0.59163 0.0
H1865 H 0.86826 0.92647 0.62295 0.0
H1866 H 0.89614 0.81157 0.60551 0.0
H1867 H 0.86748 0.83292 0.60244 0.0
H1868 H 0.86627 0.87534 0.59103 0.0
C1869 C 0.84267 0.95022 0.59868 0.0
C1870 C 0.86704 0.91496 0.61598 0.0
C1871 C 0.83428 0.96992 0.59934 0.0
C1872 C 0.9053 0.83371 0.60637 0.0
C1873 C 0.88893 0.84586 0.60463 0.0
C1874 C 0.86634 0.88611 0.59806 0.0
C1875 C 0.83957 0.93326 0.60725 0.0
C1876 C 0.85238 0.9155 0.60718 0.0
C1877 C 0.89971 0.87419 0.60651 0.0
C1878 C 0.88181 0.88666 0.60676 0.0
H1879 H 0.80934 0.95714 0.62418 0.0
H1880 H 0.82345 0.92241 0.62298 0.0
H1881 H 0.84061 0.90048 0.59136 0.0
H1882 H 0.96488 0.89159 0.6136 0.0
H1883 H 0.93644 0.91249 0.61061 0.0
C1884 C 0.16418 0.08128 0.60868 0.0
C1885 C 0.14845 0.09272 0.61241 0.0
C1886 C 0.15135 0.0532 0.60612 0.0
C1887 C 0.11952 0.99092 0.61079 0.0
H1888 H 0.0497 0.95229 0.59608 0.0
C1889 C 0.03894 0.87621 0.61744 0.0
C1890 C 0.02487 0.86012 0.60873 0.0
C1891 C 0.05735 0.90451 0.61636 0.0
C1892 C 0.06936 0.96278 0.60009 0.0
H1893 H 0.10695 0.08435 0.61573 0.0
H1894 H 0.08461 0.03562 0.61111 0.0
H1895 H 0.07562 0.00274 0.59613 0.0
H1896 H 0.01956 0.86085 0.592 0.0
H1897 H 0.05153 0.91034 0.59015 0.0
H1898 H 0.11275 0.95094 0.61507 0.0
C1899 C 0.10679 0.04817 0.61023 0.0
C1900 C 0.0841 0.99163 0.60016 0.0
C1901 C 0.11961 0.07603 0.61294 0.0
C1902 C 0.03011 0.87272 0.59887 0.0
C1903 C 0.0483 0.90105 0.59781 0.0
C1904 C 0.10463 0.96205 0.61081 0.0
C1905 C 0.12258 0.0363 0.60707 0.0
C1906 C 0.10905 0.00597 0.60568 0.0
C1907 C 0.06184 0.91729 0.60656 0.0
C1908 C 0.07915 0.94772 0.60563 0.0
H1909 H 0.18646 0.09367 0.60822 0.0
H1910 H 0.16396 0.04454 0.60364 0.0
H1911 H 0.13858 0.00145 0.61518 0.0
H1912 H 0.03529 0.86706 0.62513 0.0
H1913 H 0.06728 0.91657 0.62326 0.0
C1914 C 0.12949 0.17385 0.60344 0.0
C1915 C 0.14305 0.17809 0.61307 0.0
C1916 C 0.10092 0.16333 0.60308 0.0
C1917 C 0.04078 0.11686 0.61783 0.0
H1918 H 6e-05 0.1454 0.60289 0.0
C1919 C 0.92658 0.07253 0.62555 0.0
C1920 C 0.90863 0.06803 0.61718 0.0
C1921 C 0.95501 0.08781 0.62419 0.0
C1922 C 0.01115 0.13698 0.60697 0.0
H1923 H 0.13772 0.17648 0.62985 0.0
H1924 H 0.08798 0.15778 0.62919 0.0
H1925 H 0.05075 0.17 0.602 0.0
H1926 H 0.90638 0.07687 0.60089 0.0
H1927 H 0.95669 0.10317 0.59839 0.0
H1928 H 0.0018 0.08367 0.62266 0.0
C1929 C 0.09938 0.16243 0.62194 0.0
C1930 C 0.04008 0.15111 0.60649 0.0
C1931 C 0.12785 0.17315 0.62231 0.0
C1932 C 0.91979 0.07994 0.60746 0.0
C1933 C 0.94853 0.09505 0.60605 0.0
C1934 C 0.01209 0.10264 0.6182 0.0
C1935 C 0.08557 0.15671 0.61234 0.0
C1936 C 0.05507 0.14144 0.61213 0.0
C1937 C 0.96643 0.09866 0.61438 0.0
C1938 C 0.99688 0.11285 0.61301 0.0
H1939 H 0.14072 0.17758 0.59619 0.0
H1940 H 0.09067 0.15904 0.59559 0.0
H1941 H 0.05188 0.10864 0.62204 0.0
H1942 H 0.91864 0.06422 0.63321 0.0
H1943 H 0.9681 0.09097 0.63087 0.0
C1944 C 0.71126 0.50247 0.45174 0.0
C1945 C 0.6984 0.50679 0.44313 0.0
C1946 C 0.73055 0.4938 0.45029 0.0
C1947 C 0.74743 0.45482 0.4318 0.0
H1948 H 0.81169 0.47841 0.44944 0.0
C1949 C 0.83791 0.42556 0.44178 0.0
C1950 C 0.82049 0.39736 0.4439 0.0
C1951 C 0.82664 0.44232 0.43936 0.0
C1952 C 0.79413 0.47195 0.44431 0.0
H1953 H 0.69642 0.50647 0.42624 0.0
H1954 H 0.73002 0.49131 0.42373 0.0
H1955 H 0.78588 0.50304 0.45014 0.0
H1956 H 0.77795 0.36413 0.4444 0.0
H1957 H 0.75838 0.39311 0.43999 0.0
H1958 H 0.75508 0.42314 0.42626 0.0
C1959 C 0.72505 0.49441 0.4316 0.0
C1960 C 0.77918 0.48584 0.4448 0.0
C1961 C 0.70588 0.50318 0.43304 0.0
C1962 C 0.79183 0.38586 0.44285 0.0
C1963 C 0.78064 0.40243 0.44026 0.0
C1964 C 0.76225 0.44084 0.43137 0.0
C1965 C 0.73727 0.48919 0.44021 0.0
C1966 C 0.75527 0.47697 0.43875 0.0
C1967 C 0.79784 0.43097 0.43881 0.0
C1968 C 0.78531 0.44879 0.43782 0.0
H1969 H 0.70591 0.50508 0.4596 0.0
H1970 H 0.73936 0.48965 0.45709 0.0
H1971 H 0.72902 0.44737 0.42708 0.0
H1972 H 0.86008 0.43492 0.44259 0.0
H1973 H 0.84035 0.46426 0.43822 0.0
C1974 C 0.49617 0.20796 0.45354 0.0
C1975 C 0.49121 0.19065 0.44491 0.0
C1976 C 0.50567 0.23611 0.45211 0.0
C1977 C 0.54604 0.29152 0.43369 0.0
H1978 H 0.52304 0.33372 0.45073 0.0
C1979 C 0.57585 0.41212 0.44195 0.0
C1980 C 0.60399 0.42314 0.44425 0.0
C1981 C 0.55914 0.38384 0.43993 0.0
C1982 C 0.52937 0.32218 0.44578 0.0
H1983 H 0.49123 0.18897 0.42802 0.0
H1984 H 0.50791 0.23805 0.42555 0.0
H1985 H 0.49772 0.28327 0.45173 0.0
H1986 H 0.63716 0.41389 0.44549 0.0
H1987 H 0.60824 0.36484 0.44175 0.0
H1988 H 0.57829 0.33042 0.42803 0.0
C1989 C 0.50463 0.22993 0.43341 0.0
C1990 C 0.51508 0.29335 0.44644 0.0
C1991 C 0.49498 0.2018 0.43483 0.0
C1992 C 0.61549 0.40587 0.44379 0.0
C1993 C 0.59896 0.37783 0.44159 0.0
C1994 C 0.56048 0.32032 0.4331 0.0
C1995 C 0.51053 0.24747 0.44203 0.0
C1996 C 0.52362 0.27777 0.44055 0.0
C1997 C 0.57048 0.36635 0.43996 0.0
C1998 C 0.55265 0.33595 0.43931 0.0
H1999 H 0.49345 0.19994 0.4614 0.0
H2000 H 0.51029 0.24918 0.45891 0.0
H2001 H 0.55324 0.2801 0.4291 0.0
H2002 H 0.56647 0.42499 0.44231 0.0
H2003 H 0.53725 0.37549 0.43864 0.0
C2004 C 0.79479 0.2971 0.43321 0.0
C2005 C 0.80609 0.30269 0.4433 0.0
C2006 C 0.76665 0.27874 0.43169 0.0
C2007 C 0.7041 0.22283 0.4442 0.0
H2008 H 0.66523 0.25072 0.42767 0.0
C2009 C 0.59128 0.21006 0.44433 0.0
C2010 C 0.57427 0.18122 0.4446 0.0
C2011 C 0.61903 0.22197 0.44159 0.0
C2012 C 0.67583 0.24252 0.43221 0.0
H2013 H 0.79706 0.29278 0.45967 0.0
H2014 H 0.7479 0.26061 0.45702 0.0
H2015 H 0.7156 0.27648 0.42832 0.0
H2016 H 0.57252 0.1422 0.4417 0.0
H2017 H 0.62149 0.16316 0.43705 0.0
H2018 H 0.66424 0.18947 0.44844 0.0
C2019 C 0.76082 0.27033 0.45028 0.0
C2020 C 0.70466 0.25717 0.43254 0.0
C2021 C 0.78892 0.28887 0.45181 0.0
C2022 C 0.58519 0.1645 0.44153 0.0
C2023 C 0.61318 0.17646 0.43894 0.0
C2024 C 0.67526 0.20805 0.44379 0.0
C2025 C 0.74931 0.2654 0.44023 0.0
C2026 C 0.71905 0.24789 0.43878 0.0
C2027 C 0.63049 0.20531 0.43918 0.0
C2028 C 0.66083 0.21818 0.43804 0.0
H2029 H 0.80753 0.30742 0.42649 0.0
H2030 H 0.75839 0.27519 0.42385 0.0
H2031 H 0.71468 0.21505 0.44898 0.0
H2032 H 0.58335 0.22345 0.4466 0.0
H2033 H 0.63187 0.24424 0.44194 0.0
C2034 C 0.72154 0.45735 0.72026 0.0
C2035 C 0.73277 0.48603 0.72123 0.0
C2036 C 0.73782 0.44536 0.72192 0.0
C2037 C 0.78253 0.4332 0.71582 0.0
H2038 H 0.8285 0.4398 0.73949 0.0
C2039 C 0.84804 0.38111 0.71492 0.0
C2040 C 0.84526 0.36489 0.72368 0.0
C2041 C 0.83931 0.40054 0.71529 0.0
C2042 C 0.81581 0.43788 0.73281 0.0
H2043 H 0.7693 0.52435 0.72558 0.0
H2044 H 0.79804 0.50308 0.72855 0.0
H2045 H 0.80214 0.46421 0.73959 0.0
H2046 H 0.83258 0.35733 0.73988 0.0
H2047 H 0.81687 0.39091 0.74047 0.0
H2048 H 0.79527 0.4065 0.70909 0.0
C2049 C 0.77655 0.49008 0.72644 0.0
C2050 C 0.8009 0.45195 0.73286 0.0
C2051 C 0.76012 0.5022 0.72476 0.0
C2052 C 0.83492 0.3695 0.73298 0.0
C2053 C 0.82609 0.38888 0.73335 0.0
C2054 C 0.79748 0.41941 0.71573 0.0
C2055 C 0.76576 0.46171 0.7246 0.0
C2056 C 0.78366 0.44918 0.72444 0.0
C2057 C 0.82747 0.40407 0.72442 0.0
C2058 C 0.81398 0.4212 0.72428 0.0
H2059 H 0.70038 0.44423 0.71775 0.0
H2060 H 0.72883 0.42334 0.72068 0.0
H2061 H 0.76966 0.431 0.70917 0.0
H2062 H 0.8562 0.37823 0.70767 0.0
H2063 H 0.8411 0.41227 0.70833 0.0
C2064 C 0.54592 0.25841 0.72111 0.0
C2065 C 0.51702 0.24229 0.72148 0.0
C2066 C 0.55905 0.2867 0.72294 0.0
C2067 C 0.57543 0.3443 0.7165 0.0
H2068 H 0.56332 0.38562 0.73807 0.0
C2069 C 0.62505 0.46114 0.71312 0.0
C2070 C 0.63927 0.4762 0.72199 0.0
C2071 C 0.60634 0.43288 0.71383 0.0
C2072 C 0.56685 0.37429 0.732 0.0
H2073 H 0.47928 0.24263 0.72495 0.0
H2074 H 0.50245 0.29266 0.72809 0.0
H2075 H 0.53885 0.33489 0.73886 0.0
H2076 H 0.64406 0.47389 0.73866 0.0
H2077 H 0.61173 0.42429 0.73987 0.0
H2078 H 0.60359 0.38315 0.70969 0.0
C2079 C 0.51483 0.2832 0.7264 0.0
C2080 C 0.55278 0.34534 0.73243 0.0
C2081 C 0.5016 0.25463 0.72462 0.0
C2082 C 0.63341 0.46276 0.73169 0.0
C2083 C 0.61477 0.43439 0.73239 0.0
C2084 C 0.58925 0.37299 0.71603 0.0
C2085 C 0.54357 0.2996 0.7251 0.0
C2086 C 0.55732 0.33015 0.72475 0.0
C2087 C 0.60162 0.41901 0.72341 0.0
C2088 C 0.58531 0.38839 0.72379 0.0
H2089 H 0.55835 0.24933 0.7189 0.0
H2090 H 0.58129 0.29875 0.72215 0.0
H2091 H 0.57898 0.33313 0.71036 0.0
H2092 H 0.62892 0.47102 0.70556 0.0
H2093 H 0.59612 0.4217 0.70681 0.0
C2094 C 0.74874 0.25837 0.72497 0.0
C2095 C 0.75973 0.27235 0.71553 0.0
C2096 C 0.72009 0.24386 0.7266 0.0
C2097 C 0.65619 0.23983 0.71617 0.0
H2098 H 0.61812 0.1686 0.72995 0.0
C2099 C 0.54084 0.1671 0.71102 0.0
C2100 C 0.52519 0.15994 0.72022 0.0
C2101 C 0.56946 0.17903 0.71145 0.0
C2102 C 0.62862 0.18858 0.72616 0.0
H2103 H 0.74926 0.28088 0.70022 0.0
H2104 H 0.6999 0.25519 0.7029 0.0
H2105 H 0.66874 0.19365 0.72889 0.0
H2106 H 0.52701 0.15795 0.73706 0.0
H2107 H 0.57735 0.17838 0.73777 0.0
H2108 H 0.61617 0.23432 0.71308 0.0
C2109 C 0.71315 0.25618 0.70923 0.0
C2110 C 0.65753 0.20298 0.72559 0.0
C2111 C 0.74156 0.27084 0.70767 0.0
C2112 C 0.53857 0.16335 0.72984 0.0
C2113 C 0.56729 0.17497 0.73026 0.0
C2114 C 0.62748 0.22533 0.7166 0.0
C2115 C 0.702 0.24292 0.71877 0.0
C2116 C 0.6716 0.22852 0.72037 0.0
C2117 C 0.58297 0.18363 0.72107 0.0
C2118 C 0.61343 0.1994 0.72142 0.0
H2119 H 0.76226 0.25914 0.73117 0.0
H2120 H 0.71218 0.23392 0.73405 0.0
H2121 H 0.66632 0.25982 0.71238 0.0
H2122 H 0.53115 0.16452 0.70348 0.0
H2123 H 0.58116 0.18531 0.70426 0.0
C2124 C 0.62738 0.16135 0.23039 0.0
C2125 C 0.63686 0.15775 0.22068 0.0
C2126 C 0.60981 0.17241 0.23095 0.0
C2127 C 0.59709 0.22062 0.21678 0.0
H2128 H 0.52711 0.19095 0.2313 0.0
C2129 C 0.52593 0.26267 0.20824 0.0
C2130 C 0.51237 0.26758 0.21645 0.0
C2131 C 0.53936 0.24777 0.20987 0.0
C2132 C 0.54683 0.19968 0.22736 0.0
H2133 H 0.634 0.16126 0.20395 0.0
H2134 H 0.60376 0.18086 0.20496 0.0
H2135 H 0.55343 0.16654 0.23215 0.0
H2136 H 0.50122 0.25968 0.23277 0.0
H2137 H 0.5256 0.23383 0.23574 0.0
H2138 H 0.59111 0.25379 0.21206 0.0
C2139 C 0.61004 0.1753 0.21212 0.0
C2140 C 0.56177 0.18567 0.22781 0.0
C2141 C 0.6273 0.16403 0.21155 0.0
C2142 C 0.51164 0.25628 0.22631 0.0
C2143 C 0.52551 0.24148 0.22799 0.0
C2144 C 0.58245 0.23468 0.21643 0.0
C2145 C 0.60172 0.18026 0.22182 0.0
C2146 C 0.58665 0.1957 0.22227 0.0
C2147 C 0.54005 0.23764 0.21981 0.0
C2148 C 0.55673 0.22399 0.22143 0.0
H2149 H 0.63435 0.1566 0.23756 0.0
H2150 H 0.60367 0.17609 0.23852 0.0
H2151 H 0.61657 0.22914 0.21266 0.0
H2152 H 0.5263 0.2705 0.20048 0.0
H2153 H 0.54949 0.2444 0.2033 0.0
C2154 C 0.716 0.25825 0.22215 0.0
C2155 C 0.72817 0.24155 0.22218 0.0
C2156 C 0.73149 0.28617 0.22472 0.0
C2157 C 0.8012 0.34282 0.22227 0.0
H2158 H 0.77279 0.38345 0.23735 0.0
C2159 C 0.83219 0.4556 0.21332 0.0
C2160 C 0.8358 0.47323 0.2217 0.0
C2161 C 0.82309 0.42767 0.21507 0.0
C2162 C 0.78123 0.37242 0.23324 0.0
H2163 H 0.76567 0.24052 0.22541 0.0
H2164 H 0.79308 0.28978 0.22973 0.0
H2165 H 0.74858 0.33308 0.23838 0.0
H2166 H 0.83346 0.47567 0.23851 0.0
H2167 H 0.81729 0.4268 0.24154 0.0
H2168 H 0.83321 0.3821 0.21678 0.0
C2169 C 0.77147 0.2811 0.22777 0.0
C2170 C 0.7673 0.34362 0.23379 0.0
C2171 C 0.75577 0.25294 0.22537 0.0
C2172 C 0.83085 0.46257 0.23189 0.0
C2173 C 0.8215 0.4346 0.23363 0.0
C2174 C 0.81498 0.37162 0.22163 0.0
C2175 C 0.7596 0.29808 0.22722 0.0
C2176 C 0.77678 0.3285 0.22811 0.0
C2177 C 0.81719 0.4168 0.22523 0.0
C2178 C 0.80476 0.38666 0.22692 0.0
H2179 H 0.6947 0.24993 0.21977 0.0
H2180 H 0.72184 0.29877 0.22415 0.0
H2181 H 0.80884 0.33169 0.21774 0.0
H2182 H 0.83583 0.46324 0.20539 0.0
H2183 H 0.81965 0.41437 0.20843 0.0
C2184 C 0.7359 0.45561 0.22324 0.0
C2185 C 0.75314 0.48428 0.22225 0.0
C2186 C 0.70835 0.4445 0.22614 0.0
C2187 C 0.65217 0.4259 0.23557 0.0
H2188 H 0.61292 0.45139 0.21804 0.0
C2189 C 0.53356 0.36891 0.23465 0.0
C2190 C 0.52207 0.36269 0.22459 0.0
C2191 C 0.56146 0.38826 0.23608 0.0
C2192 C 0.6236 0.44414 0.22303 0.0
H2193 H 0.75554 0.52396 0.22402 0.0
H2194 H 0.7069 0.50439 0.22898 0.0
H2195 H 0.66335 0.47684 0.21832 0.0
H2196 H 0.53046 0.37269 0.2082 0.0
H2197 H 0.57927 0.40628 0.21068 0.0
H2198 H 0.61259 0.39242 0.23988 0.0
C2199 C 0.71487 0.49059 0.22752 0.0
C2200 C 0.65246 0.4589 0.22329 0.0
C2201 C 0.74269 0.50178 0.22477 0.0
C2202 C 0.53874 0.37704 0.21604 0.0
C2203 C 0.56667 0.39642 0.21747 0.0
C2204 C 0.62335 0.41123 0.23535 0.0
C2205 C 0.6973 0.4618 0.22799 0.0
C2206 C 0.66704 0.44941 0.22931 0.0
C2207 C 0.57846 0.40182 0.22749 0.0
C2208 C 0.60876 0.41972 0.22884 0.0
H2209 H 0.74348 0.44166 0.2214 0.0
H2210 H 0.69532 0.42224 0.22634 0.0
H2211 H 0.66287 0.41823 0.24034 0.0
H2212 H 0.52117 0.35833 0.24141 0.0
H2213 H 0.56984 0.39222 0.24391 0.0
C2214 C 0.61563 0.21269 0.94451 0.0
C2215 C 0.60399 0.18387 0.94433 0.0
C2216 C 0.5999 0.22473 0.9418 0.0
C2217 C 0.56438 0.24586 0.9322 0.0
H2218 H 0.49595 0.21623 0.94778 0.0
C2219 C 0.49964 0.29973 0.93226 0.0
C2220 C 0.49236 0.30438 0.94223 0.0
C2221 C 0.50946 0.28138 0.93088 0.0
C2222 C 0.51493 0.22464 0.94334 0.0
H2223 H 0.56718 0.14507 0.94069 0.0
H2224 H 0.53936 0.16625 0.93605 0.0
H2225 H 0.52137 0.19118 0.94748 0.0
H2226 H 0.48852 0.29261 0.95849 0.0
H2227 H 0.50574 0.26053 0.9561 0.0
H2228 H 0.55862 0.27988 0.9284 0.0
C2229 C 0.56074 0.17943 0.93828 0.0
C2230 C 0.52931 0.21016 0.94307 0.0
C2231 C 0.57668 0.16736 0.94085 0.0
C2232 C 0.49399 0.28946 0.95072 0.0
C2233 C 0.5037 0.27098 0.94934 0.0
C2234 C 0.5499 0.26021 0.93239 0.0
C2235 C 0.57206 0.2082 0.93896 0.0
C2236 C 0.55456 0.22102 0.93773 0.0
C2237 C 0.51207 0.26717 0.93943 0.0
C2238 C 0.5254 0.25011 0.93819 0.0
H2239 H 0.63668 0.22591 0.94712 0.0
H2240 H 0.60913 0.24693 0.94247 0.0
H2241 H 0.58372 0.25463 0.92798 0.0
H2242 H 0.49848 0.31084 0.92554 0.0
H2243 H 0.51546 0.27864 0.92314 0.0
C2244 C 0.82674 0.4126 0.93974 0.0
C2245 C 0.82413 0.42227 0.94955 0.0
C2246 C 0.81543 0.38418 0.93798 0.0
C2247 C 0.79386 0.319 0.95172 0.0
H2248 H 0.73798 0.28338 0.93036 0.0
C2249 C 0.70758 0.20655 0.95519 0.0
C2250 C 0.69691 0.19036 0.9462 0.0
C2251 C 0.7277 0.23439 0.95442 0.0
C2252 C 0.75397 0.29296 0.93622 0.0
H2253 H 0.80827 0.4098 0.96526 0.0
H2254 H 0.78916 0.36076 0.96223 0.0
H2255 H 0.76576 0.33376 0.93086 0.0
H2256 H 0.69961 0.19033 0.92934 0.0
H2257 H 0.73509 0.23899 0.92799 0.0
H2258 H 0.78185 0.27848 0.95726 0.0
C2259 C 0.79974 0.37497 0.95589 0.0
C2260 C 0.76984 0.32181 0.93649 0.0
C2261 C 0.8105 0.40309 0.95758 0.0
C2262 C 0.7074 0.20234 0.93642 0.0
C2263 C 0.7276 0.23024 0.93564 0.0
C2264 C 0.77822 0.29024 0.9514 0.0
C2265 C 0.802 0.36519 0.94609 0.0
C2266 C 0.78922 0.33505 0.94447 0.0
C2267 C 0.73773 0.24669 0.94463 0.0
C2268 C 0.75738 0.27689 0.94388 0.0
H2269 H 0.83711 0.42691 0.93341 0.0
H2270 H 0.81732 0.37706 0.93034 0.0
H2271 H 0.80896 0.32876 0.95787 0.0
H2272 H 0.69988 0.19793 0.96284 0.0
H2273 H 0.73465 0.2465 0.9615 0.0
C2274 C 0.79552 0.50348 0.95308 0.0
C2275 C 0.80953 0.50551 0.94376 0.0
C2276 C 0.76709 0.49315 0.95304 0.0
C2277 C 0.70652 0.47813 0.93733 0.0
H2278 H 0.66847 0.41878 0.95727 0.0
C2279 C 0.58618 0.40841 0.94017 0.0
C2280 C 0.57565 0.40046 0.9503 0.0
C2281 C 0.61484 0.42332 0.93851 0.0
C2282 C 0.67872 0.43556 0.95174 0.0
H2283 H 0.80511 0.49992 0.927 0.0
H2284 H 0.75516 0.48191 0.92695 0.0
H2285 H 0.71839 0.44202 0.95605 0.0
H2286 H 0.58639 0.40366 0.96666 0.0
H2287 H 0.6358 0.4303 0.96387 0.0
H2288 H 0.66656 0.47182 0.93317 0.0
C2289 C 0.76628 0.48826 0.93427 0.0
C2290 C 0.70734 0.44881 0.95104 0.0
C2291 C 0.7948 0.49844 0.93431 0.0
C2292 C 0.59399 0.409 0.95875 0.0
C2293 C 0.62233 0.42415 0.95713 0.0
C2294 C 0.67767 0.46497 0.93811 0.0
C2295 C 0.7521 0.48481 0.94368 0.0
C2296 C 0.72158 0.47048 0.94395 0.0
C2297 C 0.63319 0.43069 0.947 0.0
C2298 C 0.66353 0.44385 0.94548 0.0
H2299 H 0.80632 0.509 0.96047 0.0
H2300 H 0.75666 0.49104 0.96039 0.0
H2301 H 0.7171 0.49474 0.93176 0.0
H2302 H 0.57237 0.40207 0.93353 0.0
H2303 H 0.62258 0.4281 0.93061 0.0
C2304 C 0.36419 0.82801 0.76472 0.0
C2305 C 0.35766 0.83336 0.77471 0.0
C2306 C 0.38387 0.81985 0.76343 0.0
C2307 C 0.44087 0.81614 0.77664 0.0
H2308 H 0.41741 0.75104 0.75947 0.0
C2309 C 0.45823 0.71889 0.77655 0.0
C2310 C 0.48707 0.73153 0.77726 0.0
C2311 C 0.44581 0.73417 0.7737 0.0
C2312 C 0.4244 0.76941 0.7642 0.0
H2313 H 0.36726 0.83526 0.79115 0.0
H2314 H 0.40154 0.82076 0.78892 0.0
H2315 H 0.38971 0.77357 0.75993 0.0
H2316 H 0.52568 0.76972 0.7751 0.0
H2317 H 0.5038 0.79684 0.77025 0.0
H2318 H 0.4749 0.81111 0.78126 0.0
C2319 C 0.39162 0.82315 0.78207 0.0
C2320 C 0.40863 0.78242 0.76442 0.0
C2321 C 0.37186 0.83126 0.78336 0.0
C2322 C 0.5034 0.75949 0.77454 0.0
C2323 C 0.4909 0.775 0.77185 0.0
C2324 C 0.45675 0.8032 0.77636 0.0
C2325 C 0.39751 0.81691 0.7721 0.0
C2326 C 0.41626 0.80546 0.77087 0.0
C2327 C 0.46195 0.76257 0.77164 0.0
C2328 C 0.44821 0.77922 0.77037 0.0
H2329 H 0.35372 0.82961 0.75788 0.0
H2330 H 0.38817 0.8155 0.75565 0.0
H2331 H 0.44745 0.83407 0.78157 0.0
H2332 H 0.44519 0.69732 0.77857 0.0
H2333 H 0.42348 0.72405 0.7737 0.0
C2334 C 0.24575 0.73206 0.7905 0.0
C2335 C 0.25769 0.75007 0.78205 0.0
C2336 C 0.23061 0.70366 0.78895 0.0
C2337 C 0.19698 0.64769 0.76939 0.0
H2338 H 0.21409 0.60778 0.79004 0.0
C2339 C 0.16803 0.53197 0.76628 0.0
C2340 C 0.15895 0.51648 0.77554 0.0
C2341 C 0.17716 0.56029 0.76635 0.0
C2342 C 0.20882 0.61855 0.78427 0.0
H2343 H 0.26212 0.75283 0.76527 0.0
H2344 H 0.23612 0.70256 0.76251 0.0
H2345 H 0.23545 0.65754 0.79129 0.0
H2346 H 0.15087 0.51813 0.79197 0.0
H2347 H 0.16676 0.5674 0.79208 0.0
H2348 H 0.17071 0.60821 0.76228 0.0
C2349 C 0.23815 0.71055 0.77035 0.0
C2350 C 0.22103 0.64712 0.78499 0.0
C2351 C 0.25304 0.73926 0.7719 0.0
C2352 C 0.15799 0.52954 0.78474 0.0
C2353 C 0.16717 0.55778 0.78481 0.0
C2354 C 0.18483 0.6189 0.76863 0.0
C2355 C 0.22753 0.69245 0.77892 0.0
C2356 C 0.21496 0.66206 0.77768 0.0
C2357 C 0.17748 0.57358 0.77568 0.0
C2358 C 0.19038 0.60406 0.77617 0.0
H2359 H 0.24866 0.73997 0.79839 0.0
H2360 H 0.22195 0.69041 0.7957 0.0
H2361 H 0.19188 0.65859 0.76364 0.0
H2362 H 0.16892 0.52241 0.75906 0.0
H2363 H 0.18508 0.57198 0.75921 0.0
C2364 C 0.46275 0.62609 0.77012 0.0
C2365 C 0.47515 0.63738 0.77977 0.0
C2366 C 0.43473 0.60611 0.76956 0.0
C2367 C 0.37551 0.55702 0.78597 0.0
H2368 H 0.33095 0.56535 0.76468 0.0
C2369 C 0.26084 0.51924 0.79118 0.0
C2370 C 0.24248 0.50457 0.78304 0.0
C2371 C 0.28923 0.53143 0.78976 0.0
C2372 C 0.34321 0.56247 0.77055 0.0
H2373 H 0.46809 0.63633 0.79641 0.0
H2374 H 0.41931 0.60202 0.79546 0.0
H2375 H 0.3812 0.59441 0.76416 0.0
H2376 H 0.23957 0.49127 0.76699 0.0
H2377 H 0.28978 0.51344 0.76442 0.0
H2378 H 0.3374 0.52607 0.79264 0.0
C2379 C 0.4312 0.60811 0.78831 0.0
C2380 C 0.37198 0.57907 0.77026 0.0
C2381 C 0.45916 0.62796 0.78886 0.0
C2382 C 0.25323 0.50238 0.77341 0.0
C2383 C 0.28186 0.51509 0.77193 0.0
C2384 C 0.34682 0.54066 0.7863 0.0
C2385 C 0.41857 0.59704 0.77866 0.0
C2386 C 0.38841 0.57706 0.77814 0.0
C2387 C 0.30006 0.52959 0.78013 0.0
C2388 C 0.33038 0.54374 0.77876 0.0
H2389 H 0.47459 0.63292 0.76297 0.0
H2390 H 0.42574 0.59782 0.76202 0.0
H2391 H 0.38755 0.55443 0.792 0.0
H2392 H 0.25328 0.52121 0.79872 0.0
H2393 H 0.3028 0.5428 0.79617 0.0
C2394 C 0.40871 0.82124 0.05868 0.0
C2395 C 0.39843 0.82198 0.04877 0.0
C2396 C 0.42352 0.80734 0.06018 0.0
C2397 C 0.4332 0.75317 0.04744 0.0
H2398 H 0.49611 0.77794 0.06589 0.0
C2399 C 0.50282 0.70608 0.04546 0.0
C2400 C 0.50609 0.69513 0.05485 0.0
C2401 C 0.49205 0.72382 0.04547 0.0
C2402 C 0.47847 0.7708 0.06076 0.0
H2403 H 0.39727 0.81062 0.03254 0.0
H2404 H 0.42369 0.78755 0.03503 0.0
H2405 H 0.47248 0.80485 0.06453 0.0
H2406 H 0.50232 0.69556 0.07166 0.0
H2407 H 0.48375 0.72706 0.07165 0.0
H2408 H 0.43949 0.71961 0.04347 0.0
C2409 C 0.41941 0.79646 0.04177 0.0
C2410 C 0.46488 0.78609 0.06 0.0
C2411 C 0.40436 0.80985 0.04033 0.0
C2412 C 0.49992 0.7036 0.0643 0.0
C2413 C 0.48938 0.72165 0.06431 0.0
C2414 C 0.44692 0.73822 0.04809 0.0
C2415 C 0.42854 0.7943 0.05174 0.0
C2416 C 0.44232 0.77764 0.05319 0.0
C2417 C 0.48462 0.73124 0.05487 0.0
C2418 C 0.46989 0.74705 0.05463 0.0
H2419 H 0.40446 0.83051 0.06532 0.0
H2420 H 0.43024 0.80606 0.06796 0.0
H2421 H 0.41538 0.7455 0.04237 0.0
H2422 H 0.50762 0.70017 0.03806 0.0
H2423 H 0.48889 0.73124 0.03809 0.0
C2424 C 0.16656 0.58896 0.05845 0.0
C2425 C 0.18263 0.57768 0.05492 0.0
C2426 C 0.17889 0.61744 0.06035 0.0
C2427 C 0.2172 0.6798 0.06695 0.0
H2428 H 0.2624 0.71931 0.04309 0.0
C2429 C 0.29887 0.79663 0.06655 0.0
C2430 C 0.30301 0.81117 0.05717 0.0
C2431 C 0.27976 0.76836 0.06708 0.0
C2432 C 0.24957 0.70869 0.04975 0.0
H2433 H 0.22441 0.58668 0.05171 0.0
H2434 H 0.24569 0.63594 0.05502 0.0
H2435 H 0.23822 0.66921 0.04331 0.0
H2436 H 0.2891 0.80803 0.04121 0.0
H2437 H 0.25554 0.7588 0.04215 0.0
H2438 H 0.2291 0.71963 0.07345 0.0
C2439 C 0.2236 0.62305 0.0561 0.0
C2440 C 0.23599 0.67997 0.04993 0.0
C2441 C 0.2114 0.59484 0.05422 0.0
C2442 C 0.2866 0.79729 0.04851 0.0
C2443 C 0.26743 0.76909 0.04904 0.0
C2444 C 0.2311 0.70876 0.06682 0.0
C2445 C 0.20737 0.63481 0.05873 0.0
C2446 C 0.22005 0.66524 0.05858 0.0
C2447 C 0.2644 0.75413 0.05824 0.0
C2448 C 0.24763 0.72349 0.05824 0.0
H2449 H 0.14434 0.5762 0.05907 0.0
H2450 H 0.16598 0.62607 0.06241 0.0
H2451 H 0.20495 0.66884 0.07369 0.0
H2452 H 0.3112 0.80681 0.07337 0.0
H2453 H 0.27808 0.7574 0.07425 0.0
C2454 C 0.41084 0.57623 0.05635 0.0
C2455 C 0.42239 0.60342 0.05261 0.0
C2456 C 0.38251 0.56062 0.05842 0.0
C2457 C 0.3204 0.52966 0.05312 0.0
H2458 H 0.28099 0.56038 0.0676 0.0
C2459 C 0.20585 0.49561 0.04607 0.0
C2460 C 0.18958 0.49341 0.05475 0.0
C2461 C 0.23406 0.50525 0.04725 0.0
C2462 C 0.2917 0.55134 0.06365 0.0
H2463 H 0.41379 0.63609 0.04868 0.0
H2464 H 0.36459 0.60907 0.05249 0.0
H2465 H 0.33143 0.58533 0.06766 0.0
H2466 H 0.18982 0.4987 0.0715 0.0
H2467 H 0.2392 0.51586 0.07352 0.0
H2468 H 0.28063 0.4962 0.04876 0.0
C2469 C 0.3773 0.59973 0.05373 0.0
C2470 C 0.32053 0.56569 0.06364 0.0
C2471 C 0.40541 0.61513 0.05148 0.0
C2472 C 0.20184 0.50017 0.06467 0.0
C2473 C 0.2301 0.5101 0.06583 0.0
C2474 C 0.29154 0.51546 0.05302 0.0
C2475 C 0.36546 0.57217 0.05701 0.0
C2476 C 0.33514 0.55524 0.05822 0.0
C2477 C 0.24656 0.51313 0.05711 0.0
C2478 C 0.27694 0.52642 0.05813 0.0
H2479 H 0.42345 0.56668 0.05725 0.0
H2480 H 0.37385 0.53943 0.06099 0.0
H2481 H 0.33118 0.52127 0.0488 0.0
H2482 H 0.19694 0.49056 0.03834 0.0
H2483 H 0.24631 0.50764 0.04038 0.0
C2484 C 0.16304 0.57398 0.55717 0.0
C2485 C 0.17963 0.60217 0.55483 0.0
C2486 C 0.17517 0.55773 0.55909 0.0
C2487 C 0.20792 0.52897 0.55301 0.0
H2488 H 0.2742 0.55385 0.56958 0.0
C2489 C 0.28995 0.49691 0.54536 0.0
C2490 C 0.30223 0.49206 0.55403 0.0
C2491 C 0.27113 0.50623 0.54672 0.0
C2492 C 0.2555 0.54639 0.56502 0.0
H2493 H 0.22173 0.63591 0.5534 0.0
H2494 H 0.24285 0.60781 0.55699 0.0
H2495 H 0.24835 0.57832 0.57068 0.0
H2496 H 0.30362 0.49207 0.57093 0.0
H2497 H 0.27096 0.50845 0.57327 0.0
H2498 H 0.21567 0.49764 0.54706 0.0
C2499 C 0.22056 0.59813 0.55725 0.0
C2500 C 0.24081 0.56049 0.56562 0.0
C2501 C 0.20848 0.6142 0.55516 0.0
C2502 C 0.2946 0.49574 0.56408 0.0
C2503 C 0.27598 0.50522 0.56544 0.0
C2504 C 0.2228 0.51503 0.55233 0.0
C2505 C 0.20405 0.56959 0.55892 0.0
C2506 C 0.21717 0.55224 0.55948 0.0
C2507 C 0.26441 0.51102 0.55677 0.0
C2508 C 0.24701 0.52391 0.55819 0.0
H2509 H 0.14074 0.56418 0.5569 0.0
H2510 H 0.16201 0.53578 0.56042 0.0
H2511 H 0.18991 0.52234 0.54812 0.0
H2512 H 0.29544 0.49426 0.53752 0.0
H2513 H 0.26271 0.51076 0.53989 0.0
C2514 C 0.42095 0.58758 0.55798 0.0
C2515 C 0.39337 0.57606 0.55475 0.0
C2516 C 0.43634 0.61563 0.56059 0.0
C2517 C 0.46584 0.67773 0.5558 0.0
H2518 H 0.43583 0.71671 0.57102 0.0
C2519 C 0.49803 0.79155 0.54827 0.0
C2520 C 0.50074 0.80826 0.55686 0.0
C2521 C 0.48848 0.76338 0.54962 0.0
C2522 C 0.44471 0.70614 0.56687 0.0
H2523 H 0.35963 0.5841 0.55247 0.0
H2524 H 0.38623 0.63272 0.55716 0.0
H2525 H 0.41195 0.66631 0.5715 0.0
H2526 H 0.49622 0.80877 0.57364 0.0
H2527 H 0.47936 0.75955 0.57597 0.0
H2528 H 0.49808 0.71754 0.55087 0.0
C2529 C 0.39611 0.62032 0.55762 0.0
C2530 C 0.43096 0.67731 0.5671 0.0
C2531 C 0.38092 0.59252 0.55487 0.0
C2532 C 0.49433 0.79641 0.56686 0.0
C2533 C 0.48457 0.76822 0.56819 0.0
C2534 C 0.47947 0.70657 0.55549 0.0
C2535 C 0.4242 0.63239 0.56019 0.0
C2536 C 0.44104 0.66279 0.56138 0.0
C2537 C 0.48126 0.75135 0.55958 0.0
C2538 C 0.46871 0.72104 0.56084 0.0
H2539 H 0.43105 0.57535 0.55792 0.0
H2540 H 0.45793 0.62441 0.56261 0.0
H2541 H 0.47396 0.66709 0.55124 0.0
H2542 H 0.50278 0.8001 0.54047 0.0
H2543 H 0.48583 0.75083 0.54281 0.0
C2544 C 0.40833 0.83866 0.55716 0.0
C2545 C 0.41985 0.82168 0.55554 0.0
C2546 C 0.38001 0.82688 0.55917 0.0
C2547 C 0.31751 0.76235 0.56713 0.0
H2548 H 0.27889 0.78323 0.54727 0.0
C2549 C 0.19894 0.70473 0.56517 0.0
C2550 C 0.18791 0.6959 0.55514 0.0
C2551 C 0.22679 0.72432 0.56649 0.0
C2552 C 0.2894 0.77729 0.5529 0.0
H2553 H 0.41152 0.77945 0.55545 0.0
H2554 H 0.36247 0.759 0.55918 0.0
H2555 H 0.32932 0.80986 0.54823 0.0
H2556 H 0.19713 0.70151 0.53862 0.0
H2557 H 0.24592 0.73572 0.54093 0.0
H2558 H 0.27782 0.72913 0.57152 0.0
C2559 C 0.37504 0.78129 0.55883 0.0
C2560 C 0.31821 0.79271 0.55354 0.0
C2561 C 0.40309 0.79297 0.55664 0.0
C2562 C 0.20505 0.7079 0.54644 0.0
C2563 C 0.23295 0.7276 0.54777 0.0
C2564 C 0.28874 0.7471 0.56657 0.0
C2565 C 0.36303 0.79803 0.5598 0.0
C2566 C 0.33257 0.78491 0.56046 0.0
C2567 C 0.24423 0.7356 0.55782 0.0
C2568 C 0.27441 0.75396 0.55926 0.0
H2569 H 0.42082 0.86085 0.55627 0.0
H2570 H 0.37124 0.84023 0.55993 0.0
H2571 H 0.32806 0.75595 0.57257 0.0
H2572 H 0.18621 0.69599 0.57203 0.0
H2573 H 0.2348 0.73031 0.57433 0.0
C2574 C 0.24956 0.51188 0.29061 0.0
C2575 C 0.26217 0.50601 0.28234 0.0
C2576 C 0.23406 0.52463 0.28879 0.0
C2577 C 0.20039 0.54568 0.26885 0.0
H2578 H 0.21688 0.60343 0.28911 0.0
C2579 C 0.16893 0.63089 0.26561 0.0
C2580 C 0.15968 0.63688 0.27491 0.0
C2581 C 0.17863 0.61214 0.2656 0.0
C2582 C 0.21182 0.5872 0.28345 0.0
H2583 H 0.26741 0.50739 0.2656 0.0
H2584 H 0.2407 0.53075 0.26235 0.0
H2585 H 0.23901 0.57579 0.2906 0.0
H2586 H 0.15168 0.62673 0.29132 0.0
H2587 H 0.16851 0.59414 0.29129 0.0
H2588 H 0.17344 0.55788 0.26163 0.0
C2589 C 0.24252 0.52505 0.27025 0.0
C2590 C 0.22446 0.57129 0.2843 0.0
C2591 C 0.25779 0.51175 0.27209 0.0
C2592 C 0.15897 0.62279 0.28406 0.0
C2593 C 0.16867 0.60418 0.28405 0.0
C2594 C 0.18777 0.56187 0.26796 0.0
C2595 C 0.23129 0.53243 0.27865 0.0
C2596 C 0.21853 0.54997 0.27716 0.0
C2597 C 0.17931 0.59923 0.2749 0.0
C2598 C 0.19304 0.58245 0.27538 0.0
H2599 H 0.25228 0.50721 0.29857 0.0
H2600 H 0.22495 0.52919 0.29539 0.0
H2601 H 0.19546 0.52945 0.26322 0.0
H2602 H 0.16964 0.64141 0.25844 0.0
H2603 H 0.18678 0.60874 0.25845 0.0
C2604 C 0.45327 0.73966 0.2797 0.0
C2605 C 0.48206 0.75686 0.27928 0.0
C2606 C 0.44105 0.71194 0.27686 0.0
C2607 C 0.4194 0.65573 0.26676 0.0
H2608 H 0.44964 0.61614 0.28143 0.0
C2609 C 0.36603 0.53694 0.26596 0.0
C2610 C 0.36177 0.52468 0.27586 0.0
C2611 C 0.38408 0.56524 0.2647 0.0
C2612 C 0.44107 0.62694 0.27723 0.0
H2613 H 0.52059 0.75889 0.2751 0.0
H2614 H 0.49912 0.71001 0.27027 0.0
H2615 H 0.4747 0.66663 0.2815 0.0
H2616 H 0.37376 0.53217 0.29211 0.0
H2617 H 0.40534 0.58163 0.28992 0.0
H2618 H 0.38524 0.61612 0.26285 0.0
C2619 C 0.4861 0.71815 0.27279 0.0
C2620 C 0.45554 0.65581 0.27718 0.0
C2621 C 0.49833 0.7461 0.27549 0.0
C2622 C 0.37663 0.54106 0.2844 0.0
C2623 C 0.39484 0.56933 0.28313 0.0
C2624 C 0.40506 0.62689 0.26674 0.0
C2625 C 0.45738 0.70071 0.27365 0.0
C2626 C 0.44446 0.67046 0.27218 0.0
C2627 C 0.39838 0.58179 0.2733 0.0
C2628 C 0.41539 0.61221 0.27221 0.0
H2629 H 0.44019 0.74744 0.28253 0.0
H2630 H 0.4189 0.69897 0.27769 0.0
H2631 H 0.41048 0.66653 0.2628 0.0
H2632 H 0.3549 0.52482 0.25922 0.0
H2633 H 0.38658 0.57425 0.25703 0.0
C2634 C 0.46446 0.8414 0.26999 0.0
C2635 C 0.47613 0.84311 0.27985 0.0
C2636 C 0.43653 0.83338 0.26903 0.0
C2637 C 0.37538 0.82266 0.28438 0.0
H2638 H 0.33373 0.76681 0.26354 0.0
C2639 C 0.26283 0.74001 0.28966 0.0
C2640 C 0.244 0.73466 0.28151 0.0
C2641 C 0.29096 0.75782 0.28819 0.0
C2642 C 0.34516 0.78279 0.26925 0.0
H2643 H 0.46797 0.83865 0.29646 0.0
H2644 H 0.41931 0.82419 0.29481 0.0
H2645 H 0.38414 0.79029 0.26341 0.0
H2646 H 0.23998 0.74378 0.2654 0.0
H2647 H 0.28988 0.77458 0.26273 0.0
H2648 H 0.33627 0.81388 0.29058 0.0
C2649 C 0.43169 0.82945 0.28779 0.0
C2650 C 0.37402 0.79629 0.26919 0.0
C2651 C 0.45959 0.83755 0.28875 0.0
C2652 C 0.25402 0.74754 0.27181 0.0
C2653 C 0.28246 0.76507 0.27028 0.0
C2654 C 0.3466 0.809 0.28449 0.0
C2655 C 0.4197 0.82689 0.27791 0.0
C2656 C 0.38944 0.81575 0.27696 0.0
C2657 C 0.30109 0.77048 0.27851 0.0
C2658 C 0.33123 0.78837 0.27713 0.0
H2659 H 0.47674 0.84568 0.26298 0.0
H2660 H 0.42805 0.83196 0.26132 0.0
H2661 H 0.38661 0.83803 0.29031 0.0
H2662 H 0.25583 0.73063 0.29725 0.0
H2663 H 0.30491 0.76134 0.29462 0.0
loop_
_geom_bond_atom_site_label_1
_geom_bond_atom_site_label_2
_geom_bond_distance
_geom_bond_site_symmetry_2
_ccdc_geom_bond_type
Co0 O1 2.216 . S
Co0 O2 2.091 . S
Co0 O4 2.004 . S
Co0 O10 2.021 . S
Co0 O12 2.137 . S
Co0 O13 2.244 . S
O1 Co0 2.216 . S
O1 C8 1.247 . S
O2 Co0 2.091 . S
O2 C8 1.261 . S
C3 O12 1.247 . S
C3 O13 1.272 . S
O4 Co0 2.004 . S
O4 C9 1.259 . S
Co5 O6 2.061 . S
Co5 O11 2.052 . S
Co5 O13 2.135 . S
O6 Co5 2.061 . S
O6 C9 1.235 . S
C7 O10 1.238 . S
C7 O11 1.241 . S
C8 O1 1.247 . S
C8 O2 1.261 . S
C9 O4 1.259 . S
C9 O6 1.235 . S
O10 Co0 2.021 . S
O10 C7 1.238 . S
O11 Co5 2.052 . S
O11 C7 1.241 . S
O12 Co0 2.137 . S
O12 C3 1.247 . S
O13 Co0 2.244 . S
O13 C3 1.272 . S
O13 Co5 2.135 . S
Co14 O15 2.216 . S
Co14 O16 2.091 . S
Co14 O18 2.004 . S
Co14 O24 2.021 . S
Co14 O26 2.137 . S
Co14 O27 2.244 . S
O15 Co14 2.216 . S
O15 C22 1.247 . S
O16 Co14 2.091 . S
O16 C22 1.261 . S
C17 O26 1.247 . S
C17 O27 1.272 . S
O18 Co14 2.004 . S
O18 C23 1.259 . S
Co19 O20 2.061 . S
Co19 O25 2.052 . S
Co19 O27 2.135 . S
O20 Co19 2.061 . S
O20 C23 1.235 . S
C21 O24 1.238 . S
C21 O25 1.241 . S
C22 O15 1.247 . S
C22 O16 1.261 . S
C23 O18 1.259 . S
C23 O20 1.235 . S
O24 Co14 2.021 . S
O24 C21 1.238 . S
O25 Co19 2.052 . S
O25 C21 1.241 . S
O26 Co14 2.137 . S
O26 C17 1.247 . S
O27 Co14 2.244 . S
O27 C17 1.272 . S
O27 Co19 2.135 . S
Co28 O29 2.216 . S
Co28 O30 2.091 . S
Co28 O32 2.004 . S
Co28 O38 2.021 . S
Co28 O40 2.137 . S
Co28 O41 2.244 . S
O29 Co28 2.216 . S
O29 C36 1.247 . S
O30 Co28 2.091 . S
O30 C36 1.261 . S
C31 O40 1.247 . S
C31 O41 1.272 . S
O32 Co28 2.004 . S
O32 C37 1.259 . S
Co33 O34 2.061 . S
Co33 O39 2.052 . S
Co33 O41 2.135 . S
O34 Co33 2.061 . S
O34 C37 1.235 . S
C35 O38 1.238 . S
C35 O39 1.241 . S
C36 O29 1.247 . S
C36 O30 1.261 . S
C37 O32 1.259 . S
C37 O34 1.235 . S
O38 Co28 2.021 . S
O38 C35 1.238 . S
O39 Co33 2.052 . S
O39 C35 1.241 . S
O40 Co28 2.137 . S
O40 C31 1.247 . S
O41 Co28 2.244 . S
O41 C31 1.272 . S
O41 Co33 2.135 . S
Co42 O43 2.216 . S
Co42 O44 2.091 . S
Co42 O46 2.004 . S
Co42 O52 2.021 . S
Co42 O54 2.137 . S
Co42 O55 2.244 . S
O43 Co42 2.216 . S
O43 C50 1.247 . S
O44 Co42 2.091 . S
O44 C50 1.261 . S
C45 O54 1.247 . S
C45 O55 1.272 . S
O46 Co42 2.004 . S
O46 C51 1.259 . S
Co47 O48 2.061 . S
Co47 O53 2.052 . S
Co47 O55 2.135 . S
O48 Co47 2.061 . S
O48 C51 1.235 . S
C49 O52 1.238 . S
C49 O53 1.241 . S
C50 O43 1.247 . S
C50 O44 1.261 . S
C51 O46 1.259 . S
C51 O48 1.235 . S
O52 Co42 2.021 . S
O52 C49 1.238 . S
O53 Co47 2.052 . S
O53 C49 1.241 . S
O54 Co42 2.137 . S
O54 C45 1.247 . S
O55 Co42 2.244 . S
O55 C45 1.272 . S
O55 Co47 2.135 . S
Co56 O57 2.216 . S
Co56 O58 2.091 . S
Co56 O60 2.004 . S
Co56 O66 2.021 . S
Co56 O68 2.137 . S
Co56 O69 2.244 . S
O57 Co56 2.216 . S
O57 C64 1.247 . S
O58 Co56 2.091 . S
O58 C64 1.261 . S
C59 O68 1.247 . S
C59 O69 1.272 . S
O60 Co56 2.004 . S
O60 C65 1.259 . S
Co61 O62 2.061 . S
Co61 O67 2.052 . S
Co61 O69 2.135 . S
O62 Co61 2.061 . S
O62 C65 1.235 . S
C63 O66 1.238 . S
C63 O67 1.241 . S
C64 O57 1.247 . S
C64 O58 1.261 . S
C65 O60 1.259 . S
C65 O62 1.235 . S
O66 Co56 2.021 . S
O66 C63 1.238 . S
O67 Co61 2.052 . S
O67 C63 1.241 . S
O68 Co56 2.137 . S
O68 C59 1.247 . S
O69 Co56 2.244 . S
O69 C59 1.272 . S
O69 Co61 2.135 . S
Co70 O71 2.216 . S
Co70 O72 2.091 . S
Co70 O74 2.004 . S
Co70 O80 2.021 . S
Co70 O82 2.137 . S
Co70 O83 2.244 . S
O71 Co70 2.216 . S
O71 C78 1.247 . S
O72 Co70 2.091 . S
O72 C78 1.261 . S
C73 O82 1.247 . S
C73 O83 1.272 . S
O74 Co70 2.004 . S
O74 C79 1.259 . S
Co75 O76 2.061 . S
Co75 O81 2.052 . S
Co75 O83 2.135 . S
O76 Co75 2.061 . S
O76 C79 1.235 . S
C77 O80 1.238 . S
C77 O81 1.241 . S
C78 O71 1.247 . S
C78 O72 1.261 . S
C79 O74 1.259 . S
C79 O76 1.235 . S
O80 Co70 2.021 . S
O80 C77 1.238 . S
O81 Co75 2.052 . S
O81 C77 1.241 . S
O82 Co70 2.137 . S
O82 C73 1.247 . S
O83 Co70 2.244 . S
O83 C73 1.272 . S
O83 Co75 2.135 . S
Co84 O85 2.216 . S
Co84 O86 2.091 . S
Co84 O88 2.004 . S
Co84 O94 2.021 . S
Co84 O96 2.137 . S
Co84 O97 2.244 . S
O85 Co84 2.216 . S
O85 C92 1.247 . S
O86 Co84 2.091 . S
O86 C92 1.261 . S
C87 O96 1.247 . S
C87 O97 1.272 . S
O88 Co84 2.004 . S
O88 C93 1.259 . S
Co89 O90 2.061 . S
Co89 O95 2.052 . S
Co89 O97 2.135 . S
O90 Co89 2.061 . S
O90 C93 1.235 . S
C91 O94 1.238 . S
C91 O95 1.241 . S
C92 O85 1.247 . S
C92 O86 1.261 . S
C93 O88 1.259 . S
C93 O90 1.235 . S
O94 Co84 2.021 . S
O94 C91 1.238 . S
O95 Co89 2.052 . S
O95 C91 1.241 . S
O96 Co84 2.137 . S
O96 C87 1.247 . S
O97 Co84 2.244 . S
O97 C87 1.272 . S
O97 Co89 2.135 . S
Co98 O99 2.216 . S
Co98 O100 2.091 . S
Co98 O102 2.004 . S
Co98 O108 2.021 . S
Co98 O110 2.137 . S
Co98 O111 2.244 . S
O99 Co98 2.216 . S
O99 C106 1.247 . S
O100 Co98 2.091 . S
O100 C106 1.261 . S
C101 O110 1.247 . S
C101 O111 1.272 . S
O102 Co98 2.004 . S
O102 C107 1.259 . S
Co103 O104 2.061 . S
Co103 O109 2.052 . S
Co103 O111 2.135 . S
O104 Co103 2.061 . S
O104 C107 1.235 . S
C105 O108 1.238 . S
C105 O109 1.241 . S
C106 O99 1.247 . S
C106 O100 1.261 . S
C107 O102 1.259 . S
C107 O104 1.235 . S
O108 Co98 2.021 . S
O108 C105 1.238 . S
O109 Co103 2.052 . S
O109 C105 1.241 . S
O110 Co98 2.137 . S
O110 C101 1.247 . S
O111 Co98 2.244 . S
O111 C101 1.272 . S
O111 Co103 2.135 . S
Co112 O113 2.216 . S
Co112 O114 2.091 . S
Co112 O116 2.004 . S
Co112 O122 2.021 . S
Co112 O124 2.137 . S
Co112 O125 2.244 . S
O113 Co112 2.216 . S
O113 C120 1.247 . S
O114 Co112 2.091 . S
O114 C120 1.261 . S
C115 O124 1.247 . S
C115 O125 1.272 . S
O116 Co112 2.004 . S
O116 C121 1.259 . S
Co117 O118 2.061 . S
Co117 O123 2.052 . S
Co117 O125 2.135 . S
O118 Co117 2.061 . S
O118 C121 1.235 . S
C119 O122 1.238 . S
C119 O123 1.241 . S
C120 O113 1.247 . S
C120 O114 1.261 . S
C121 O116 1.259 . S
C121 O118 1.235 . S
O122 Co112 2.021 . S
O122 C119 1.238 . S
O123 Co117 2.052 . S
O123 C119 1.241 . S
O124 Co112 2.137 . S
O124 C115 1.247 . S
O125 Co112 2.244 . S
O125 C115 1.272 . S
O125 Co117 2.135 . S
Co126 O127 2.216 . S
Co126 O128 2.091 . S
Co126 O130 2.004 . S
Co126 O136 2.021 . S
Co126 O138 2.137 . S
Co126 O139 2.244 . S
O127 Co126 2.216 . S
O127 C134 1.247 . S
O128 Co126 2.091 . S
O128 C134 1.261 . S
C129 O138 1.247 . S
C129 O139 1.272 . S
O130 Co126 2.004 . S
O130 C135 1.259 . S
Co131 O132 2.061 . S
Co131 O137 2.052 . S
Co131 O139 2.135 . S
O132 Co131 2.061 . S
O132 C135 1.235 . S
C133 O136 1.238 . S
C133 O137 1.241 . S
C134 O127 1.247 . S
C134 O128 1.261 . S
C135 O130 1.259 . S
C135 O132 1.235 . S
O136 Co126 2.021 . S
O136 C133 1.238 . S
O137 Co131 2.052 . S
O137 C133 1.241 . S
O138 Co126 2.137 . S
O138 C129 1.247 . S
O139 Co126 2.244 . S
O139 C129 1.272 . S
O139 Co131 2.135 . S
Co140 O141 2.216 . S
Co140 O142 2.091 . S
Co140 O144 2.004 . S
Co140 O150 2.021 . S
Co140 O152 2.137 . S
Co140 O153 2.244 . S
O141 Co140 2.216 . S
O141 C148 1.247 . S
O142 Co140 2.091 . S
O142 C148 1.261 . S
C143 O152 1.247 . S
C143 O153 1.272 . S
O144 Co140 2.004 . S
O144 C149 1.259 . S
Co145 O146 2.061 . S
Co145 O151 2.052 . S
Co145 O153 2.135 . S
O146 Co145 2.061 . S
O146 C149 1.235 . S
C147 O150 1.238 . S
C147 O151 1.241 . S
C148 O141 1.247 . S
C148 O142 1.261 . S
C149 O144 1.259 . S
C149 O146 1.235 . S
O150 Co140 2.021 . S
O150 C147 1.238 . S
O151 Co145 2.052 . S
O151 C147 1.241 . S
O152 Co140 2.137 . S
O152 C143 1.247 . S
O153 Co140 2.244 . S
O153 C143 1.272 . S
O153 Co145 2.135 . S
Co154 O155 2.216 . S
Co154 O156 2.091 . S
Co154 O158 2.004 . S
Co154 O164 2.021 . S
Co154 O166 2.137 . S
Co154 O167 2.244 . S
O155 Co154 2.216 . S
O155 C162 1.247 . S
O156 Co154 2.091 . S
O156 C162 1.261 . S
C157 O166 1.247 . S
C157 O167 1.272 . S
O158 Co154 2.004 . S
O158 C163 1.259 . S
Co159 O160 2.061 . S
Co159 O165 2.052 . S
Co159 O167 2.135 . S
O160 Co159 2.061 . S
O160 C163 1.235 . S
C161 O164 1.238 . S
C161 O165 1.241 . S
C162 O155 1.247 . S
C162 O156 1.261 . S
C163 O158 1.259 . S
C163 O160 1.235 . S
O164 Co154 2.021 . S
O164 C161 1.238 . S
O165 Co159 2.052 . S
O165 C161 1.241 . S
O166 Co154 2.137 . S
O166 C157 1.247 . S
O167 Co154 2.244 . S
O167 C157 1.272 . S
O167 Co159 2.135 . S
Co168 O169 2.216 . S
Co168 O170 2.091 . S
Co168 O172 2.004 . S
Co168 O178 2.021 . S
Co168 O180 2.137 . S
Co168 O181 2.244 . S
O169 Co168 2.216 . S
O169 C176 1.247 . S
O170 Co168 2.091 . S
O170 C176 1.261 . S
C171 O180 1.247 . S
C171 O181 1.272 . S
O172 Co168 2.004 . S
O172 C177 1.259 . S
Co173 O174 2.061 . S
Co173 O179 2.052 . S
Co173 O181 2.135 . S
O174 Co173 2.061 . S
O174 C177 1.235 . S
C175 O178 1.238 . S
C175 O179 1.241 . S
C176 O169 1.247 . S
C176 O170 1.261 . S
C177 O172 1.259 . S
C177 O174 1.235 . S
O178 Co168 2.021 . S
O178 C175 1.238 . S
O179 Co173 2.052 . S
O179 C175 1.241 . S
O180 Co168 2.137 . S
O180 C171 1.247 . S
O181 Co168 2.244 . S
O181 C171 1.272 . S
O181 Co173 2.135 . S
Co182 O183 2.216 . S
Co182 O184 2.091 . S
Co182 O186 2.004 . S
Co182 O192 2.021 . S
Co182 O194 2.137 . S
Co182 O195 2.244 . S
O183 Co182 2.216 . S
O183 C190 1.247 . S
O184 Co182 2.091 . S
O184 C190 1.261 . S
C185 O194 1.247 . S
C185 O195 1.272 . S
O186 Co182 2.004 . S
O186 C191 1.259 . S
Co187 O188 2.061 . S
Co187 O193 2.052 . S
Co187 O195 2.135 . S
O188 Co187 2.061 . S
O188 C191 1.235 . S
C189 O192 1.238 . S
C189 O193 1.241 . S
C190 O183 1.247 . S
C190 O184 1.261 . S
C191 O186 1.259 . S
C191 O188 1.235 . S
O192 Co182 2.021 . S
O192 C189 1.238 . S
O193 Co187 2.052 . S
O193 C189 1.241 . S
O194 Co182 2.137 . S
O194 C185 1.247 . S
O195 Co182 2.244 . S
O195 C185 1.272 . S
O195 Co187 2.135 . S
Co196 O197 2.216 . S
Co196 O198 2.091 . S
Co196 O200 2.004 . S
Co196 O206 2.021 . S
Co196 O208 2.137 . S
Co196 O209 2.244 . S
O197 Co196 2.216 . S
O197 C204 1.247 . S
O198 Co196 2.091 . S
O198 C204 1.261 . S
C199 O208 1.247 . S
C199 O209 1.272 . S
O200 Co196 2.004 . S
O200 C205 1.259 . S
Co201 O202 2.061 . S
Co201 O207 2.052 . S
Co201 O209 2.135 . S
O202 Co201 2.061 . S
O202 C205 1.235 . S
C203 O206 1.238 . S
C203 O207 1.241 . S
C204 O197 1.247 . S
C204 O198 1.261 . S
C205 O200 1.259 . S
C205 O202 1.235 . S
O206 Co196 2.021 . S
O206 C203 1.238 . S
O207 Co201 2.052 . S
O207 C203 1.241 . S
O208 Co196 2.137 . S
O208 C199 1.247 . S
O209 Co196 2.244 . S
O209 C199 1.272 . S
O209 Co201 2.135 . S
Co210 O211 2.216 . S
Co210 O212 2.091 . S
Co210 O214 2.004 . S
Co210 O220 2.021 . S
Co210 O222 2.137 . S
Co210 O223 2.244 . S
O211 Co210 2.216 . S
O211 C218 1.247 . S
O212 Co210 2.091 . S
O212 C218 1.261 . S
C213 O222 1.247 . S
C213 O223 1.272 . S
O214 Co210 2.004 . S
O214 C219 1.259 . S
Co215 O216 2.061 . S
Co215 O221 2.052 . S
Co215 O223 2.135 . S
O216 Co215 2.061 . S
O216 C219 1.235 . S
C217 O220 1.238 . S
C217 O221 1.241 . S
C218 O211 1.247 . S
C218 O212 1.261 . S
C219 O214 1.259 . S
C219 O216 1.235 . S
O220 Co210 2.021 . S
O220 C217 1.238 . S
O221 Co215 2.052 . S
O221 C217 1.241 . S
O222 Co210 2.137 . S
O222 C213 1.247 . S
O223 Co210 2.244 . S
O223 C213 1.272 . S
O223 Co215 2.135 . S
Co224 O225 2.216 . S
Co224 O226 2.091 . S
Co224 O228 2.004 . S
Co224 O234 2.021 . S
Co224 O236 2.137 . S
Co224 O237 2.244 . S
O225 Co224 2.216 . S
O225 C232 1.247 . S
O226 Co224 2.091 . S
O226 C232 1.261 . S
C227 O236 1.247 . S
C227 O237 1.272 . S
O228 Co224 2.004 . S
O228 C233 1.259 . S
Co229 O230 2.061 . S
Co229 O235 2.052 . S
Co229 O237 2.135 . S
O230 Co229 2.061 . S
O230 C233 1.235 . S
C231 O234 1.238 . S
C231 O235 1.241 . S
C232 O225 1.247 . S
C232 O226 1.261 . S
C233 O228 1.259 . S
C233 O230 1.235 . S
O234 Co224 2.021 . S
O234 C231 1.238 . S
O235 Co229 2.052 . S
O235 C231 1.241 . S
O236 Co224 2.137 . S
O236 C227 1.247 . S
O237 Co224 2.244 . S
O237 C227 1.272 . S
O237 Co229 2.135 . S
Co238 O239 2.216 . S
Co238 O240 2.091 . S
Co238 O242 2.004 . S
Co238 O248 2.021 . S
Co238 O250 2.137 . S
Co238 O251 2.244 . S
O239 Co238 2.216 . S
O239 C246 1.247 . S
O240 Co238 2.091 . S
O240 C246 1.261 . S
C241 O250 1.247 . S
C241 O251 1.272 . S
O242 Co238 2.004 . S
O242 C247 1.259 . S
Co243 O244 2.061 . S
Co243 O249 2.052 . S
Co243 O251 2.135 . S
O244 Co243 2.061 . S
O244 C247 1.235 . S
C245 O248 1.238 . S
C245 O249 1.241 . S
C246 O239 1.247 . S
C246 O240 1.261 . S
C247 O242 1.259 . S
C247 O244 1.235 . S
O248 Co238 2.021 . S
O248 C245 1.238 . S
O249 Co243 2.052 . S
O249 C245 1.241 . S
O250 Co238 2.137 . S
O250 C241 1.247 . S
O251 Co238 2.244 . S
O251 C241 1.272 . S
O251 Co243 2.135 . S
Co252 O253 2.216 . S
Co252 O254 2.091 . S
Co252 O256 2.004 . S
Co252 O262 2.021 . S
Co252 O264 2.137 . S
Co252 O265 2.244 . S
O253 Co252 2.216 . S
O253 C260 1.247 . S
O254 Co252 2.091 . S
O254 C260 1.261 . S
C255 O264 1.247 . S
C255 O265 1.272 . S
O256 Co252 2.004 . S
O256 C261 1.259 . S
Co257 O258 2.061 . S
Co257 O263 2.052 . S
Co257 O265 2.135 . S
O258 Co257 2.061 . S
O258 C261 1.235 . S
C259 O262 1.238 . S
C259 O263 1.241 . S
C260 O253 1.247 . S
C260 O254 1.261 . S
C261 O256 1.259 . S
C261 O258 1.235 . S
O262 Co252 2.021 . S
O262 C259 1.238 . S
O263 Co257 2.052 . S
O263 C259 1.241 . S
O264 Co252 2.137 . S
O264 C255 1.247 . S
O265 Co252 2.244 . S
O265 C255 1.272 . S
O265 Co257 2.135 . S
Co266 O267 2.216 . S
Co266 O268 2.091 . S
Co266 O270 2.004 . S
Co266 O276 2.021 . S
Co266 O278 2.137 . S
Co266 O279 2.244 . S
O267 Co266 2.216 . S
O267 C274 1.247 . S
O268 Co266 2.091 . S
O268 C274 1.261 . S
C269 O278 1.247 . S
C269 O279 1.272 . S
O270 Co266 2.004 . S
O270 C275 1.259 . S
Co271 O272 2.061 . S
Co271 O277 2.052 . S
Co271 O279 2.135 . S
O272 Co271 2.061 . S
O272 C275 1.235 . S
C273 O276 1.238 . S
C273 O277 1.241 . S
C274 O267 1.247 . S
C274 O268 1.261 . S
C275 O270 1.259 . S
C275 O272 1.235 . S
O276 Co266 2.021 . S
O276 C273 1.238 . S
O277 Co271 2.052 . S
O277 C273 1.241 . S
O278 Co266 2.137 . S
O278 C269 1.247 . S
O279 Co266 2.244 . S
O279 C269 1.272 . S
O279 Co271 2.135 . S
Co280 O281 2.216 . S
Co280 O282 2.091 . S
Co280 O284 2.004 . S
Co280 O290 2.021 . S
Co280 O292 2.137 . S
Co280 O293 2.244 . S
O281 Co280 2.216 . S
O281 C288 1.247 . S
O282 Co280 2.091 . S
O282 C288 1.261 . S
C283 O292 1.247 . S
C283 O293 1.272 . S
O284 Co280 2.004 . S
O284 C289 1.259 . S
Co285 O286 2.061 . S
Co285 O291 2.052 . S
Co285 O293 2.135 . S
O286 Co285 2.061 . S
O286 C289 1.235 . S
C287 O290 1.238 . S
C287 O291 1.241 . S
C288 O281 1.247 . S
C288 O282 1.261 . S
C289 O284 1.259 . S
C289 O286 1.235 . S
O290 Co280 2.021 . S
O290 C287 1.238 . S
O291 Co285 2.052 . S
O291 C287 1.241 . S
O292 Co280 2.137 . S
O292 C283 1.247 . S
O293 Co280 2.244 . S
O293 C283 1.272 . S
O293 Co285 2.135 . S
Co294 O295 2.216 . S
Co294 O296 2.091 . S
Co294 O298 2.004 . S
Co294 O304 2.021 . S
Co294 O306 2.137 . S
Co294 O307 2.244 . S
O295 Co294 2.216 . S
O295 C302 1.247 . S
O296 Co294 2.091 . S
O296 C302 1.261 . S
C297 O306 1.247 . S
C297 O307 1.272 . S
O298 Co294 2.004 . S
O298 C303 1.259 . S
Co299 O300 2.061 . S
Co299 O305 2.052 . S
Co299 O307 2.135 . S
O300 Co299 2.061 . S
O300 C303 1.235 . S
C301 O304 1.238 . S
C301 O305 1.241 . S
C302 O295 1.247 . S
C302 O296 1.261 . S
C303 O298 1.259 . S
C303 O300 1.235 . S
O304 Co294 2.021 . S
O304 C301 1.238 . S
O305 Co299 2.052 . S
O305 C301 1.241 . S
O306 Co294 2.137 . S
O306 C297 1.247 . S
O307 Co294 2.244 . S
O307 C297 1.272 . S
O307 Co299 2.135 . S
Co308 O309 2.216 . S
Co308 O310 2.091 . S
Co308 O312 2.004 . S
Co308 O318 2.021 . S
Co308 O320 2.137 . S
Co308 O321 2.244 . S
O309 Co308 2.216 . S
O309 C316 1.247 . S
O310 Co308 2.091 . S
O310 C316 1.261 . S
C311 O320 1.247 . S
C311 O321 1.272 . S
O312 Co308 2.004 . S
O312 C317 1.259 . S
Co313 O314 2.061 . S
Co313 O319 2.052 . S
Co313 O321 2.135 . S
O314 Co313 2.061 . S
O314 C317 1.235 . S
C315 O318 1.238 . S
C315 O319 1.241 . S
C316 O309 1.247 . S
C316 O310 1.261 . S
C317 O312 1.259 . S
C317 O314 1.235 . S
O318 Co308 2.021 . S
O318 C315 1.238 . S
O319 Co313 2.052 . S
O319 C315 1.241 . S
O320 Co308 2.137 . S
O320 C311 1.247 . S
O321 Co308 2.244 . S
O321 C311 1.272 . S
O321 Co313 2.135 . S
Co322 O323 2.216 . S
Co322 O324 2.091 . S
Co322 O326 2.004 . S
Co322 O332 2.021 . S
Co322 O334 2.137 . S
Co322 O335 2.244 . S
O323 Co322 2.216 . S
O323 C330 1.247 . S
O324 Co322 2.091 . S
O324 C330 1.261 . S
C325 O334 1.247 . S
C325 O335 1.272 . S
O326 Co322 2.004 . S
O326 C331 1.259 . S
Co327 O328 2.061 . S
Co327 O333 2.052 . S
Co327 O335 2.135 . S
O328 Co327 2.061 . S
O328 C331 1.235 . S
C329 O332 1.238 . S
C329 O333 1.241 . S
C330 O323 1.247 . S
C330 O324 1.261 . S
C331 O326 1.259 . S
C331 O328 1.235 . S
O332 Co322 2.021 . S
O332 C329 1.238 . S
O333 Co327 2.052 . S
O333 C329 1.241 . S
O334 Co322 2.137 . S
O334 C325 1.247 . S
O335 Co322 2.244 . S
O335 C325 1.272 . S
O335 Co327 2.135 . S
Co336 O337 2.216 . S
Co336 O338 2.091 . S
Co336 O340 2.004 . S
Co336 O346 2.021 . S
Co336 O348 2.137 . S
Co336 O349 2.244 . S
O337 Co336 2.216 . S
O337 C344 1.247 . S
O338 Co336 2.091 . S
O338 C344 1.261 . S
C339 O348 1.247 . S
C339 O349 1.272 . S
O340 Co336 2.004 . S
O340 C345 1.259 . S
Co341 O342 2.061 . S
Co341 O347 2.052 . S
Co341 O349 2.135 . S
O342 Co341 2.061 . S
O342 C345 1.235 . S
C343 O346 1.238 . S
C343 O347 1.241 . S
C344 O337 1.247 . S
C344 O338 1.261 . S
C345 O340 1.259 . S
C345 O342 1.235 . S
O346 Co336 2.021 . S
O346 C343 1.238 . S
O347 Co341 2.052 . S
O347 C343 1.241 . S
O348 Co336 2.137 . S
O348 C339 1.247 . S
O349 Co336 2.244 . S
O349 C339 1.272 . S
O349 Co341 2.135 . S
Co350 O351 2.216 . S
Co350 O352 2.091 . S
Co350 O354 2.004 . S
Co350 O360 2.021 . S
Co350 O362 2.137 . S
Co350 O363 2.244 . S
O351 Co350 2.216 . S
O351 C358 1.247 . S
O352 Co350 2.091 . S
O352 C358 1.261 . S
C353 O362 1.247 . S
C353 O363 1.272 . S
O354 Co350 2.004 . S
O354 C359 1.259 . S
Co355 O356 2.061 . S
Co355 O361 2.052 . S
Co355 O363 2.135 . S
O356 Co355 2.061 . S
O356 C359 1.235 . S
C357 O360 1.238 . S
C357 O361 1.241 . S
C358 O351 1.247 . S
C358 O352 1.261 . S
C359 O354 1.259 . S
C359 O356 1.235 . S
O360 Co350 2.021 . S
O360 C357 1.238 . S
O361 Co355 2.052 . S
O361 C357 1.241 . S
O362 Co350 2.137 . S
O362 C353 1.247 . S
O363 Co350 2.244 . S
O363 C353 1.272 . S
O363 Co355 2.135 . S
Co364 O365 2.216 . S
Co364 O366 2.091 . S
Co364 O368 2.004 . S
Co364 O374 2.021 . S
Co364 O376 2.137 . S
Co364 O377 2.244 . S
O365 Co364 2.216 . S
O365 C372 1.247 . S
O366 Co364 2.091 . S
O366 C372 1.261 . S
C367 O376 1.247 . S
C367 O377 1.272 . S
O368 Co364 2.004 . S
O368 C373 1.259 . S
Co369 O370 2.061 . S
Co369 O375 2.052 . S
Co369 O377 2.135 . S
O370 Co369 2.061 . S
O370 C373 1.235 . S
C371 O374 1.238 . S
C371 O375 1.241 . S
C372 O365 1.247 . S
C372 O366 1.261 . S
C373 O368 1.259 . S
C373 O370 1.235 . S
O374 Co364 2.021 . S
O374 C371 1.238 . S
O375 Co369 2.052 . S
O375 C371 1.241 . S
O376 Co364 2.137 . S
O376 C367 1.247 . S
O377 Co364 2.244 . S
O377 C367 1.272 . S
O377 Co369 2.135 . S
Co378 O379 2.216 . S
Co378 O380 2.091 . S
Co378 O382 2.004 . S
Co378 O388 2.021 . S
Co378 O390 2.137 . S
Co378 O391 2.244 . S
O379 Co378 2.216 . S
O379 C386 1.247 . S
O380 Co378 2.091 . S
O380 C386 1.261 . S
C381 O390 1.247 . S
C381 O391 1.272 . S
O382 Co378 2.004 . S
O382 C387 1.259 . S
Co383 O384 2.061 . S
Co383 O389 2.052 . S
Co383 O391 2.135 . S
O384 Co383 2.061 . S
O384 C387 1.235 . S
C385 O388 1.238 . S
C385 O389 1.241 . S
C386 O379 1.247 . S
C386 O380 1.261 . S
C387 O382 1.259 . S
C387 O384 1.235 . S
O388 Co378 2.021 . S
O388 C385 1.238 . S
O389 Co383 2.052 . S
O389 C385 1.241 . S
O390 Co378 2.137 . S
O390 C381 1.247 . S
O391 Co378 2.244 . S
O391 C381 1.272 . S
O391 Co383 2.135 . S
Co392 O393 2.216 . S
Co392 O394 2.091 . S
Co392 O396 2.004 . S
Co392 O402 2.021 . S
Co392 O404 2.137 . S
Co392 O405 2.244 . S
O393 Co392 2.216 . S
O393 C400 1.247 . S
O394 Co392 2.091 . S
O394 C400 1.261 . S
C395 O404 1.247 . S
C395 O405 1.272 . S
O396 Co392 2.004 . S
O396 C401 1.259 . S
Co397 O398 2.061 . S
Co397 O403 2.052 . S
Co397 O405 2.135 . S
O398 Co397 2.061 . S
O398 C401 1.235 . S
C399 O402 1.238 . S
C399 O403 1.241 . S
C400 O393 1.247 . S
C400 O394 1.261 . S
C401 O396 1.259 . S
C401 O398 1.235 . S
O402 Co392 2.021 . S
O402 C399 1.238 . S
O403 Co397 2.052 . S
O403 C399 1.241 . S
O404 Co392 2.137 . S
O404 C395 1.247 . S
O405 Co392 2.244 . S
O405 C395 1.272 . S
O405 Co397 2.135 . S
Co406 O407 2.216 . S
Co406 O408 2.091 . S
Co406 O410 2.004 . S
Co406 O416 2.021 . S
Co406 O418 2.137 . S
Co406 O419 2.244 . S
O407 Co406 2.216 . S
O407 C414 1.247 . S
O408 Co406 2.091 . S
O408 C414 1.261 . S
C409 O418 1.247 . S
C409 O419 1.272 . S
O410 Co406 2.004 . S
O410 C415 1.259 . S
Co411 O412 2.061 . S
Co411 O417 2.052 . S
Co411 O419 2.135 . S
O412 Co411 2.061 . S
O412 C415 1.235 . S
C413 O416 1.238 . S
C413 O417 1.241 . S
C414 O407 1.247 . S
C414 O408 1.261 . S
C415 O410 1.259 . S
C415 O412 1.235 . S
O416 Co406 2.021 . S
O416 C413 1.238 . S
O417 Co411 2.052 . S
O417 C413 1.241 . S
O418 Co406 2.137 . S
O418 C409 1.247 . S
O419 Co406 2.244 . S
O419 C409 1.272 . S
O419 Co411 2.135 . S
Co420 O421 2.216 . S
Co420 O422 2.091 . S
Co420 O424 2.004 . S
Co420 O430 2.021 . S
Co420 O432 2.137 . S
Co420 O433 2.244 . S
O421 Co420 2.216 . S
O421 C428 1.247 . S
O422 Co420 2.091 . S
O422 C428 1.261 . S
C423 O432 1.247 . S
C423 O433 1.272 . S
O424 Co420 2.004 . S
O424 C429 1.259 . S
Co425 O426 2.061 . S
Co425 O431 2.052 . S
Co425 O433 2.135 . S
O426 Co425 2.061 . S
O426 C429 1.235 . S
C427 O430 1.238 . S
C427 O431 1.241 . S
C428 O421 1.247 . S
C428 O422 1.261 . S
C429 O424 1.259 . S
C429 O426 1.235 . S
O430 Co420 2.021 . S
O430 C427 1.238 . S
O431 Co425 2.052 . S
O431 C427 1.241 . S
O432 Co420 2.137 . S
O432 C423 1.247 . S
O433 Co420 2.244 . S
O433 C423 1.272 . S
O433 Co425 2.135 . S
Co434 O435 2.216 . S
Co434 O436 2.091 . S
Co434 O438 2.004 . S
Co434 O444 2.021 . S
Co434 O446 2.137 . S
Co434 O447 2.244 . S
O435 Co434 2.216 . S
O435 C442 1.247 . S
O436 Co434 2.091 . S
O436 C442 1.261 . S
C437 O446 1.247 . S
C437 O447 1.272 . S
O438 Co434 2.004 . S
O438 C443 1.259 . S
Co439 O440 2.061 . S
Co439 O445 2.052 . S
Co439 O447 2.135 . S
O440 Co439 2.061 . S
O440 C443 1.235 . S
C441 O444 1.238 . S
C441 O445 1.241 . S
C442 O435 1.247 . S
C442 O436 1.261 . S
C443 O438 1.259 . S
C443 O440 1.235 . S
O444 Co434 2.021 . S
O444 C441 1.238 . S
O445 Co439 2.052 . S
O445 C441 1.241 . S
O446 Co434 2.137 . S
O446 C437 1.247 . S
O447 Co434 2.244 . S
O447 C437 1.272 . S
O447 Co439 2.135 . S
Co448 O449 2.216 . S
Co448 O450 2.091 . S
Co448 O452 2.004 . S
Co448 O458 2.021 . S
Co448 O460 2.137 . S
Co448 O461 2.244 . S
O449 Co448 2.216 . S
O449 C456 1.247 . S
O450 Co448 2.091 . S
O450 C456 1.261 . S
C451 O460 1.247 . S
C451 O461 1.272 . S
O452 Co448 2.004 . S
O452 C457 1.259 . S
Co453 O454 2.061 . S
Co453 O459 2.052 . S
Co453 O461 2.135 . S
O454 Co453 2.061 . S
O454 C457 1.235 . S
C455 O458 1.238 . S
C455 O459 1.241 . S
C456 O449 1.247 . S
C456 O450 1.261 . S
C457 O452 1.259 . S
C457 O454 1.235 . S
O458 Co448 2.021 . S
O458 C455 1.238 . S
O459 Co453 2.052 . S
O459 C455 1.241 . S
O460 Co448 2.137 . S
O460 C451 1.247 . S
O461 Co448 2.244 . S
O461 C451 1.272 . S
O461 Co453 2.135 . S
Co462 O463 2.216 . S
Co462 O464 2.091 . S
Co462 O466 2.004 . S
Co462 O472 2.021 . S
Co462 O474 2.137 . S
Co462 O475 2.244 . S
O463 Co462 2.216 . S
O463 C470 1.247 . S
O464 Co462 2.091 . S
O464 C470 1.261 . S
C465 O474 1.247 . S
C465 O475 1.272 . S
O466 Co462 2.004 . S
O466 C471 1.259 . S
Co467 O468 2.061 . S
Co467 O473 2.052 . S
Co467 O475 2.135 . S
O468 Co467 2.061 . S
O468 C471 1.235 . S
C469 O472 1.238 . S
C469 O473 1.241 . S
C470 O463 1.247 . S
C470 O464 1.261 . S
C471 O466 1.259 . S
C471 O468 1.235 . S
O472 Co462 2.021 . S
O472 C469 1.238 . S
O473 Co467 2.052 . S
O473 C469 1.241 . S
O474 Co462 2.137 . S
O474 C465 1.247 . S
O475 Co462 2.244 . S
O475 C465 1.272 . S
O475 Co467 2.135 . S
Co476 O477 2.216 . S
Co476 O478 2.091 . S
Co476 O480 2.004 . S
Co476 O486 2.021 . S
Co476 O488 2.137 . S
Co476 O489 2.244 . S
O477 Co476 2.216 . S
O477 C484 1.247 . S
O478 Co476 2.091 . S
O478 C484 1.261 . S
C479 O488 1.247 . S
C479 O489 1.272 . S
O480 Co476 2.004 . S
O480 C485 1.259 . S
Co481 O482 2.061 . S
Co481 O487 2.052 . S
Co481 O489 2.135 . S
O482 Co481 2.061 . S
O482 C485 1.235 . S
C483 O486 1.238 . S
C483 O487 1.241 . S
C484 O477 1.247 . S
C484 O478 1.261 . S
C485 O480 1.259 . S
C485 O482 1.235 . S
O486 Co476 2.021 . S
O486 C483 1.238 . S
O487 Co481 2.052 . S
O487 C483 1.241 . S
O488 Co476 2.137 . S
O488 C479 1.247 . S
O489 Co476 2.244 . S
O489 C479 1.272 . S
O489 Co481 2.135 . S
Co490 O491 2.216 . S
Co490 O492 2.091 . S
Co490 O494 2.004 . S
Co490 O500 2.021 . S
Co490 O502 2.137 . S
Co490 O503 2.244 . S
O491 Co490 2.216 . S
O491 C498 1.247 . S
O492 Co490 2.091 . S
O492 C498 1.261 . S
C493 O502 1.247 . S
C493 O503 1.272 . S
O494 Co490 2.004 . S
O494 C499 1.259 . S
Co495 O496 2.061 . S
Co495 O501 2.052 . S
Co495 O503 2.135 . S
O496 Co495 2.061 . S
O496 C499 1.235 . S
C497 O500 1.238 . S
C497 O501 1.241 . S
C498 O491 1.247 . S
C498 O492 1.261 . S
C499 O494 1.259 . S
C499 O496 1.235 . S
O500 Co490 2.021 . S
O500 C497 1.238 . S
O501 Co495 2.052 . S
O501 C497 1.241 . S
O502 Co490 2.137 . S
O502 C493 1.247 . S
O503 Co490 2.244 . S
O503 C493 1.272 . S
O503 Co495 2.135 . S
C504 C505 1.349 . S
C504 C506 1.327 . S
C504 H529 0.950 . S
C505 C504 1.349 . S
C505 C521 1.349 . S
C506 C504 1.327 . S
C506 C525 1.429 . S
C506 H530 0.950 . S
C507 C524 1.574 . S
C507 C526 1.368 . S
C507 H531 0.949 . S
H508 C512 0.949 . S
C509 C510 1.349 . S
C509 C511 1.327 . S
C509 H532 0.950 . S
C510 C509 1.349 . S
C510 C522 1.349 . S
C511 C509 1.327 . S
C511 C527 1.429 . S
C511 H533 0.950 . S
C512 H508 0.949 . S
C512 C520 1.574 . S
C512 C528 1.368 . S
H513 C521 0.950 . S
H514 C519 0.950 . S
H515 C520 0.949 . S
H516 C522 0.950 . S
H517 C523 0.950 . S
H518 C524 0.949 . S
C519 H514 0.950 . S
C519 C521 1.327 . S
C519 C525 1.429 . S
C520 C512 1.574 . S
C520 H515 0.949 . S
C520 C526 1.368 . S
C521 C505 1.349 . S
C521 H513 0.950 . S
C521 C519 1.327 . S
C522 C510 1.349 . S
C522 H516 0.950 . S
C522 C523 1.327 . S
C523 H517 0.950 . S
C523 C522 1.327 . S
C523 C527 1.429 . S
C524 C507 1.574 . S
C524 H518 0.949 . S
C524 C528 1.368 . S
C525 C506 1.429 . S
C525 C519 1.429 . S
C525 C526 1.523 . S
C526 C507 1.368 . S
C526 C520 1.368 . S
C526 C525 1.523 . S
C527 C511 1.429 . S
C527 C523 1.429 . S
C527 C528 1.523 . S
C528 C512 1.368 . S
C528 C524 1.368 . S
C528 C527 1.523 . S
H529 C504 0.950 . S
H530 C506 0.950 . S
H531 C507 0.949 . S
H532 C509 0.950 . S
H533 C511 0.950 . S
C534 C535 1.349 . S
C534 C536 1.327 . S
C534 H559 0.950 . S
C535 C534 1.349 . S
C535 C551 1.349 . S
C536 C534 1.327 . S
C536 C555 1.429 . S
C536 H560 0.950 . S
C537 C554 1.574 . S
C537 C556 1.368 . S
C537 H561 0.949 . S
H538 C542 0.949 . S
C539 C540 1.349 . S
C539 C541 1.327 . S
C539 H562 0.950 . S
C540 C539 1.349 . S
C540 C552 1.349 . S
C541 C539 1.327 . S
C541 C557 1.429 . S
C541 H563 0.950 . S
C542 H538 0.949 . S
C542 C550 1.574 . S
C542 C558 1.368 . S
H543 C551 0.950 . S
H544 C549 0.950 . S
H545 C550 0.949 . S
H546 C552 0.950 . S
H547 C553 0.950 . S
H548 C554 0.949 . S
C549 H544 0.950 . S
C549 C551 1.327 . S
C549 C555 1.429 . S
C550 C542 1.574 . S
C550 H545 0.949 . S
C550 C556 1.368 . S
C551 C535 1.349 . S
C551 H543 0.950 . S
C551 C549 1.327 . S
C552 C540 1.349 . S
C552 H546 0.950 . S
C552 C553 1.327 . S
C553 H547 0.950 . S
C553 C552 1.327 . S
C553 C557 1.429 . S
C554 C537 1.574 . S
C554 H548 0.949 . S
C554 C558 1.368 . S
C555 C536 1.429 . S
C555 C549 1.429 . S
C555 C556 1.523 . S
C556 C537 1.368 . S
C556 C550 1.368 . S
C556 C555 1.523 . S
C557 C541 1.429 . S
C557 C553 1.429 . S
C557 C558 1.523 . S
C558 C542 1.368 . S
C558 C554 1.368 . S
C558 C557 1.523 . S
H559 C534 0.950 . S
H560 C536 0.950 . S
H561 C537 0.949 . S
H562 C539 0.950 . S
H563 C541 0.950 . S
C564 C565 1.349 . S
C564 C566 1.327 . S
C564 H589 0.950 . S
C565 C564 1.349 . S
C565 C581 1.349 . S
C566 C564 1.327 . S
C566 C585 1.429 . S
C566 H590 0.950 . S
C567 C584 1.574 . S
C567 C586 1.368 . S
C567 H591 0.949 . S
H568 C572 0.949 . S
C569 C570 1.349 . S
C569 C571 1.327 . S
C569 H592 0.950 . S
C570 C569 1.349 . S
C570 C582 1.349 . S
C571 C569 1.327 . S
C571 C587 1.429 . S
C571 H593 0.950 . S
C572 H568 0.949 . S
C572 C580 1.574 . S
C572 C588 1.368 . S
H573 C581 0.950 . S
H574 C579 0.950 . S
H575 C580 0.949 . S
H576 C582 0.950 . S
H577 C583 0.950 . S
H578 C584 0.949 . S
C579 H574 0.950 . S
C579 C581 1.327 . S
C579 C585 1.429 . S
C580 C572 1.574 . S
C580 H575 0.949 . S
C580 C586 1.368 . S
C581 C565 1.349 . S
C581 H573 0.950 . S
C581 C579 1.327 . S
C582 C570 1.349 . S
C582 H576 0.950 . S
C582 C583 1.327 . S
C583 H577 0.950 . S
C583 C582 1.327 . S
C583 C587 1.429 . S
C584 C567 1.574 . S
C584 H578 0.949 . S
C584 C588 1.368 . S
C585 C566 1.429 . S
C585 C579 1.429 . S
C585 C586 1.523 . S
C586 C567 1.368 . S
C586 C580 1.368 . S
C586 C585 1.523 . S
C587 C571 1.429 . S
C587 C583 1.429 . S
C587 C588 1.523 . S
C588 C572 1.368 . S
C588 C584 1.368 . S
C588 C587 1.523 . S
H589 C564 0.950 . S
H590 C566 0.950 . S
H591 C567 0.949 . S
H592 C569 0.950 . S
H593 C571 0.950 . S
C594 C595 1.349 . S
C594 C596 1.327 . S
C594 H619 0.950 . S
C595 C594 1.349 . S
C595 C611 1.349 . S
C596 C594 1.327 . S
C596 C615 1.429 . S
C596 H620 0.950 . S
C597 C614 1.574 . S
C597 C616 1.368 . S
C597 H621 0.949 . S
H598 C602 0.949 . S
C599 C600 1.349 . S
C599 C601 1.327 . S
C599 H622 0.950 . S
C600 C599 1.349 . S
C600 C612 1.349 . S
C601 C599 1.327 . S
C601 C617 1.429 . S
C601 H623 0.950 . S
C602 H598 0.949 . S
C602 C610 1.574 . S
C602 C618 1.368 . S
H603 C611 0.950 . S
H604 C609 0.950 . S
H605 C610 0.949 . S
H606 C612 0.950 . S
H607 C613 0.950 . S
H608 C614 0.949 . S
C609 H604 0.950 . S
C609 C611 1.327 . S
C609 C615 1.429 . S
C610 C602 1.574 . S
C610 H605 0.949 . S
C610 C616 1.368 . S
C611 C595 1.349 . S
C611 H603 0.950 . S
C611 C609 1.327 . S
C612 C600 1.349 . S
C612 H606 0.950 . S
C612 C613 1.327 . S
C613 H607 0.950 . S
C613 C612 1.327 . S
C613 C617 1.429 . S
C614 C597 1.574 . S
C614 H608 0.949 . S
C614 C618 1.368 . S
C615 C596 1.429 . S
C615 C609 1.429 . S
C615 C616 1.523 . S
C616 C597 1.368 . S
C616 C610 1.368 . S
C616 C615 1.523 . S
C617 C601 1.429 . S
C617 C613 1.429 . S
C617 C618 1.523 . S
C618 C602 1.368 . S
C618 C614 1.368 . S
C618 C617 1.523 . S
H619 C594 0.950 . S
H620 C596 0.950 . S
H621 C597 0.949 . S
H622 C599 0.950 . S
H623 C601 0.950 . S
C624 C625 1.349 . S
C624 C626 1.327 . S
C624 H649 0.950 . S
C625 C624 1.349 . S
C625 C641 1.349 . S
C626 C624 1.327 . S
C626 C645 1.429 . S
C626 H650 0.950 . S
C627 C644 1.574 . S
C627 C646 1.368 . S
C627 H651 0.949 . S
H628 C632 0.949 . S
C629 C630 1.349 . S
C629 C631 1.327 . S
C629 H652 0.950 . S
C630 C629 1.349 . S
C630 C642 1.349 . S
C631 C629 1.327 . S
C631 C647 1.429 . S
C631 H653 0.950 . S
C632 H628 0.949 . S
C632 C640 1.574 . S
C632 C648 1.368 . S
H633 C641 0.950 . S
H634 C639 0.950 . S
H635 C640 0.949 . S
H636 C642 0.950 . S
H637 C643 0.950 . S
H638 C644 0.949 . S
C639 H634 0.950 . S
C639 C641 1.327 . S
C639 C645 1.429 . S
C640 C632 1.574 . S
C640 H635 0.949 . S
C640 C646 1.368 . S
C641 C625 1.349 . S
C641 H633 0.950 . S
C641 C639 1.327 . S
C642 C630 1.349 . S
C642 H636 0.950 . S
C642 C643 1.327 . S
C643 H637 0.950 . S
C643 C642 1.327 . S
C643 C647 1.429 . S
C644 C627 1.574 . S
C644 H638 0.949 . S
C644 C648 1.368 . S
C645 C626 1.429 . S
C645 C639 1.429 . S
C645 C646 1.523 . S
C646 C627 1.368 . S
C646 C640 1.368 . S
C646 C645 1.523 . S
C647 C631 1.429 . S
C647 C643 1.429 . S
C647 C648 1.523 . S
C648 C632 1.368 . S
C648 C644 1.368 . S
C648 C647 1.523 . S
H649 C624 0.950 . S
H650 C626 0.950 . S
H651 C627 0.949 . S
H652 C629 0.950 . S
H653 C631 0.950 . S
C654 C655 1.349 . S
C654 C656 1.327 . S
C654 H679 0.950 . S
C655 C654 1.349 . S
C655 C671 1.349 . S
C656 C654 1.327 . S
C656 C675 1.429 . S
C656 H680 0.950 . S
C657 C674 1.574 . S
C657 C676 1.368 . S
C657 H681 0.949 . S
H658 C662 0.949 . S
C659 C660 1.349 . S
C659 C661 1.327 . S
C659 H682 0.950 . S
C660 C659 1.349 . S
C660 C672 1.349 . S
C661 C659 1.327 . S
C661 C677 1.429 . S
C661 H683 0.950 . S
C662 H658 0.949 . S
C662 C670 1.574 . S
C662 C678 1.368 . S
H663 C671 0.950 . S
H664 C669 0.950 . S
H665 C670 0.949 . S
H666 C672 0.950 . S
H667 C673 0.950 . S
H668 C674 0.949 . S
C669 H664 0.950 . S
C669 C671 1.327 . S
C669 C675 1.429 . S
C670 C662 1.574 . S
C670 H665 0.949 . S
C670 C676 1.368 . S
C671 C655 1.349 . S
C671 H663 0.950 . S
C671 C669 1.327 . S
C672 C660 1.349 . S
C672 H666 0.950 . S
C672 C673 1.327 . S
C673 H667 0.950 . S
C673 C672 1.327 . S
C673 C677 1.429 . S
C674 C657 1.574 . S
C674 H668 0.949 . S
C674 C678 1.368 . S
C675 C656 1.429 . S
C675 C669 1.429 . S
C675 C676 1.523 . S
C676 C657 1.368 . S
C676 C670 1.368 . S
C676 C675 1.523 . S
C677 C661 1.429 . S
C677 C673 1.429 . S
C677 C678 1.523 . S
C678 C662 1.368 . S
C678 C674 1.368 . S
C678 C677 1.523 . S
H679 C654 0.950 . S
H680 C656 0.950 . S
H681 C657 0.949 . S
H682 C659 0.950 . S
H683 C661 0.950 . S
C684 C685 1.349 . S
C684 C686 1.327 . S
C684 H709 0.950 . S
C685 C684 1.349 . S
C685 C701 1.349 . S
C686 C684 1.327 . S
C686 C705 1.429 . S
C686 H710 0.950 . S
C687 C704 1.574 . S
C687 C706 1.368 . S
C687 H711 0.949 . S
H688 C692 0.949 . S
C689 C690 1.349 . S
C689 C691 1.327 . S
C689 H712 0.950 . S
C690 C689 1.349 . S
C690 C702 1.349 . S
C691 C689 1.327 . S
C691 C707 1.429 . S
C691 H713 0.950 . S
C692 H688 0.949 . S
C692 C700 1.574 . S
C692 C708 1.368 . S
H693 C701 0.950 . S
H694 C699 0.950 . S
H695 C700 0.949 . S
H696 C702 0.950 . S
H697 C703 0.950 . S
H698 C704 0.949 . S
C699 H694 0.950 . S
C699 C701 1.327 . S
C699 C705 1.429 . S
C700 C692 1.574 . S
C700 H695 0.949 . S
C700 C706 1.368 . S
C701 C685 1.349 . S
C701 H693 0.950 . S
C701 C699 1.327 . S
C702 C690 1.349 . S
C702 H696 0.950 . S
C702 C703 1.327 . S
C703 H697 0.950 . S
C703 C702 1.327 . S
C703 C707 1.429 . S
C704 C687 1.574 . S
C704 H698 0.949 . S
C704 C708 1.368 . S
C705 C686 1.429 . S
C705 C699 1.429 . S
C705 C706 1.523 . S
C706 C687 1.368 . S
C706 C700 1.368 . S
C706 C705 1.523 . S
C707 C691 1.429 . S
C707 C703 1.429 . S
C707 C708 1.523 . S
C708 C692 1.368 . S
C708 C704 1.368 . S
C708 C707 1.523 . S
H709 C684 0.950 . S
H710 C686 0.950 . S
H711 C687 0.949 . S
H712 C689 0.950 . S
H713 C691 0.950 . S
C714 C715 1.349 . S
C714 C716 1.327 . S
C714 H739 0.950 . S
C715 C714 1.349 . S
C715 C731 1.349 . S
C716 C714 1.327 . S
C716 C735 1.429 . S
C716 H740 0.950 . S
C717 C734 1.574 . S
C717 C736 1.368 . S
C717 H741 0.949 . S
H718 C722 0.949 . S
C719 C720 1.349 . S
C719 C721 1.327 . S
C719 H742 0.950 . S
C720 C719 1.349 . S
C720 C732 1.349 . S
C721 C719 1.327 . S
C721 C737 1.429 . S
C721 H743 0.950 . S
C722 H718 0.949 . S
C722 C730 1.574 . S
C722 C738 1.368 . S
H723 C731 0.950 . S
H724 C729 0.950 . S
H725 C730 0.949 . S
H726 C732 0.950 . S
H727 C733 0.950 . S
H728 C734 0.949 . S
C729 H724 0.950 . S
C729 C731 1.327 . S
C729 C735 1.429 . S
C730 C722 1.574 . S
C730 H725 0.949 . S
C730 C736 1.368 . S
C731 C715 1.349 . S
C731 H723 0.950 . S
C731 C729 1.327 . S
C732 C720 1.349 . S
C732 H726 0.950 . S
C732 C733 1.327 . S
C733 H727 0.950 . S
C733 C732 1.327 . S
C733 C737 1.429 . S
C734 C717 1.574 . S
C734 H728 0.949 . S
C734 C738 1.368 . S
C735 C716 1.429 . S
C735 C729 1.429 . S
C735 C736 1.523 . S
C736 C717 1.368 . S
C736 C730 1.368 . S
C736 C735 1.523 . S
C737 C721 1.429 . S
C737 C733 1.429 . S
C737 C738 1.523 . S
C738 C722 1.368 . S
C738 C734 1.368 . S
C738 C737 1.523 . S
H739 C714 0.950 . S
H740 C716 0.950 . S
H741 C717 0.949 . S
H742 C719 0.950 . S
H743 C721 0.950 . S
C744 C745 1.349 . S
C744 C746 1.327 . S
C744 H769 0.950 . S
C745 C744 1.349 . S
C745 C761 1.349 . S
C746 C744 1.327 . S
C746 C765 1.429 . S
C746 H770 0.950 . S
C747 C764 1.574 . S
C747 C766 1.368 . S
C747 H771 0.949 . S
H748 C752 0.949 . S
C749 C750 1.349 . S
C749 C751 1.327 . S
C749 H772 0.950 . S
C750 C749 1.349 . S
C750 C762 1.349 . S
C751 C749 1.327 . S
C751 C767 1.429 . S
C751 H773 0.950 . S
C752 H748 0.949 . S
C752 C760 1.574 . S
C752 C768 1.368 . S
H753 C761 0.950 . S
H754 C759 0.950 . S
H755 C760 0.949 . S
H756 C762 0.950 . S
H757 C763 0.950 . S
H758 C764 0.949 . S
C759 H754 0.950 . S
C759 C761 1.327 . S
C759 C765 1.429 . S
C760 C752 1.574 . S
C760 H755 0.949 . S
C760 C766 1.368 . S
C761 C745 1.349 . S
C761 H753 0.950 . S
C761 C759 1.327 . S
C762 C750 1.349 . S
C762 H756 0.950 . S
C762 C763 1.327 . S
C763 H757 0.950 . S
C763 C762 1.327 . S
C763 C767 1.429 . S
C764 C747 1.574 . S
C764 H758 0.949 . S
C764 C768 1.368 . S
C765 C746 1.429 . S
C765 C759 1.429 . S
C765 C766 1.523 . S
C766 C747 1.368 . S
C766 C760 1.368 . S
C766 C765 1.523 . S
C767 C751 1.429 . S
C767 C763 1.429 . S
C767 C768 1.523 . S
C768 C752 1.368 . S
C768 C764 1.368 . S
C768 C767 1.523 . S
H769 C744 0.950 . S
H770 C746 0.950 . S
H771 C747 0.949 . S
H772 C749 0.950 . S
H773 C751 0.950 . S
C774 C775 1.349 . S
C774 C776 1.327 . S
C774 H799 0.950 . S
C775 C774 1.349 . S
C775 C791 1.349 . S
C776 C774 1.327 . S
C776 C795 1.429 . S
C776 H800 0.950 . S
C777 C794 1.574 . S
C777 C796 1.368 . S
C777 H801 0.949 . S
H778 C782 0.949 . S
C779 C780 1.349 . S
C779 C781 1.327 . S
C779 H802 0.950 . S
C780 C779 1.349 . S
C780 C792 1.349 . S
C781 C779 1.327 . S
C781 C797 1.429 . S
C781 H803 0.950 . S
C782 H778 0.949 . S
C782 C790 1.574 . S
C782 C798 1.368 . S
H783 C791 0.950 . S
H784 C789 0.950 . S
H785 C790 0.949 . S
H786 C792 0.950 . S
H787 C793 0.950 . S
H788 C794 0.949 . S
C789 H784 0.950 . S
C789 C791 1.327 . S
C789 C795 1.429 . S
C790 C782 1.574 . S
C790 H785 0.949 . S
C790 C796 1.368 . S
C791 C775 1.349 . S
C791 H783 0.950 . S
C791 C789 1.327 . S
C792 C780 1.349 . S
C792 H786 0.950 . S
C792 C793 1.327 . S
C793 H787 0.950 . S
C793 C792 1.327 . S
C793 C797 1.429 . S
C794 C777 1.574 . S
C794 H788 0.949 . S
C794 C798 1.368 . S
C795 C776 1.429 . S
C795 C789 1.429 . S
C795 C796 1.523 . S
C796 C777 1.368 . S
C796 C790 1.368 . S
C796 C795 1.523 . S
C797 C781 1.429 . S
C797 C793 1.429 . S
C797 C798 1.523 . S
C798 C782 1.368 . S
C798 C794 1.368 . S
C798 C797 1.523 . S
H799 C774 0.950 . S
H800 C776 0.950 . S
H801 C777 0.949 . S
H802 C779 0.950 . S
H803 C781 0.950 . S
C804 C805 1.349 . S
C804 C806 1.327 . S
C804 H829 0.950 . S
C805 C804 1.349 . S
C805 C821 1.349 . S
C806 C804 1.327 . S
C806 C825 1.429 . S
C806 H830 0.950 . S
C807 C824 1.574 . S
C807 C826 1.368 . S
C807 H831 0.949 . S
H808 C812 0.949 . S
C809 C810 1.349 . S
C809 C811 1.327 . S
C809 H832 0.950 . S
C810 C809 1.349 . S
C810 C822 1.349 . S
C811 C809 1.327 . S
C811 C827 1.429 . S
C811 H833 0.950 . S
C812 H808 0.949 . S
C812 C820 1.574 . S
C812 C828 1.368 . S
H813 C821 0.950 . S
H814 C819 0.950 . S
H815 C820 0.949 . S
H816 C822 0.950 . S
H817 C823 0.950 . S
H818 C824 0.949 . S
C819 H814 0.950 . S
C819 C821 1.327 . S
C819 C825 1.429 . S
C820 C812 1.574 . S
C820 H815 0.949 . S
C820 C826 1.368 . S
C821 C805 1.349 . S
C821 H813 0.950 . S
C821 C819 1.327 . S
C822 C810 1.349 . S
C822 H816 0.950 . S
C822 C823 1.327 . S
C823 H817 0.950 . S
C823 C822 1.327 . S
C823 C827 1.429 . S
C824 C807 1.574 . S
C824 H818 0.949 . S
C824 C828 1.368 . S
C825 C806 1.429 . S
C825 C819 1.429 . S
C825 C826 1.523 . S
C826 C807 1.368 . S
C826 C820 1.368 . S
C826 C825 1.523 . S
C827 C811 1.429 . S
C827 C823 1.429 . S
C827 C828 1.523 . S
C828 C812 1.368 . S
C828 C824 1.368 . S
C828 C827 1.523 . S
H829 C804 0.950 . S
H830 C806 0.950 . S
H831 C807 0.949 . S
H832 C809 0.950 . S
H833 C811 0.950 . S
C834 C835 1.349 . S
C834 C836 1.327 . S
C834 H859 0.950 . S
C835 C834 1.349 . S
C835 C851 1.349 . S
C836 C834 1.327 . S
C836 C855 1.429 . S
C836 H860 0.950 . S
C837 C854 1.574 . S
C837 C856 1.368 . S
C837 H861 0.949 . S
H838 C842 0.949 . S
C839 C840 1.349 . S
C839 C841 1.327 . S
C839 H862 0.950 . S
C840 C839 1.349 . S
C840 C852 1.349 . S
C841 C839 1.327 . S
C841 C857 1.429 . S
C841 H863 0.950 . S
C842 H838 0.949 . S
C842 C850 1.574 . S
C842 C858 1.368 . S
H843 C851 0.950 . S
H844 C849 0.950 . S
H845 C850 0.949 . S
H846 C852 0.950 . S
H847 C853 0.950 . S
H848 C854 0.949 . S
C849 H844 0.950 . S
C849 C851 1.327 . S
C849 C855 1.429 . S
C850 C842 1.574 . S
C850 H845 0.949 . S
C850 C856 1.368 . S
C851 C835 1.349 . S
C851 H843 0.950 . S
C851 C849 1.327 . S
C852 C840 1.349 . S
C852 H846 0.950 . S
C852 C853 1.327 . S
C853 H847 0.950 . S
C853 C852 1.327 . S
C853 C857 1.429 . S
C854 C837 1.574 . S
C854 H848 0.949 . S
C854 C858 1.368 . S
C855 C836 1.429 . S
C855 C849 1.429 . S
C855 C856 1.523 . S
C856 C837 1.368 . S
C856 C850 1.368 . S
C856 C855 1.523 . S
C857 C841 1.429 . S
C857 C853 1.429 . S
C857 C858 1.523 . S
C858 C842 1.368 . S
C858 C854 1.368 . S
C858 C857 1.523 . S
H859 C834 0.950 . S
H860 C836 0.950 . S
H861 C837 0.949 . S
H862 C839 0.950 . S
H863 C841 0.950 . S
C864 C865 1.349 . S
C864 C866 1.327 . S
C864 H889 0.950 . S
C865 C864 1.349 . S
C865 C881 1.349 . S
C866 C864 1.327 . S
C866 C885 1.429 . S
C866 H890 0.950 . S
C867 C884 1.574 . S
C867 C886 1.368 1_655 S
C867 H891 0.949 . S
H868 C872 0.949 . S
C869 C870 1.349 . S
C869 C871 1.327 . S
C869 H892 0.950 . S
C870 C869 1.349 . S
C870 C882 1.349 . S
C871 C869 1.327 . S
C871 C887 1.429 . S
C871 H893 0.950 . S
C872 H868 0.949 . S
C872 C880 1.574 . S
C872 C888 1.368 1_455 S
H873 C881 0.950 . S
H874 C879 0.950 . S
H875 C880 0.949 . S
H876 C882 0.950 . S
H877 C883 0.950 . S
H878 C884 0.949 . S
C879 H874 0.950 . S
C879 C881 1.327 . S
C879 C885 1.429 . S
C880 C872 1.574 . S
C880 H875 0.949 . S
C880 C886 1.368 . S
C881 C865 1.349 . S
C881 H873 0.950 . S
C881 C879 1.327 . S
C882 C870 1.349 . S
C882 H876 0.950 . S
C882 C883 1.327 . S
C883 H877 0.950 . S
C883 C882 1.327 . S
C883 C887 1.429 . S
C884 C867 1.574 . S
C884 H878 0.949 . S
C884 C888 1.368 . S
C885 C866 1.429 . S
C885 C879 1.429 . S
C885 C886 1.523 . S
C886 C867 1.368 1_455 S
C886 C880 1.368 . S
C886 C885 1.523 . S
C887 C871 1.429 . S
C887 C883 1.429 . S
C887 C888 1.523 . S
C888 C872 1.368 1_655 S
C888 C884 1.368 . S
C888 C887 1.523 . S
H889 C864 0.950 . S
H890 C866 0.950 . S
H891 C867 0.949 . S
H892 C869 0.950 . S
H893 C871 0.950 . S
C894 C895 1.349 . S
C894 C896 1.327 . S
C894 H919 0.950 . S
C895 C894 1.349 . S
C895 C911 1.349 . S
C896 C894 1.327 . S
C896 C915 1.429 . S
C896 H920 0.950 . S
C897 C914 1.574 . S
C897 C916 1.368 . S
C897 H921 0.949 . S
H898 C902 0.949 . S
C899 C900 1.349 . S
C899 C901 1.327 . S
C899 H922 0.950 . S
C900 C899 1.349 . S
C900 C912 1.349 . S
C901 C899 1.327 . S
C901 C917 1.429 . S
C901 H923 0.950 . S
C902 H898 0.949 . S
C902 C910 1.574 . S
C902 C918 1.368 . S
H903 C911 0.950 . S
H904 C909 0.950 . S
H905 C910 0.949 . S
H906 C912 0.950 . S
H907 C913 0.950 . S
H908 C914 0.949 . S
C909 H904 0.950 . S
C909 C911 1.327 . S
C909 C915 1.429 . S
C910 C902 1.574 . S
C910 H905 0.949 . S
C910 C916 1.368 . S
C911 C895 1.349 . S
C911 H903 0.950 . S
C911 C909 1.327 . S
C912 C900 1.349 . S
C912 H906 0.950 . S
C912 C913 1.327 . S
C913 H907 0.950 . S
C913 C912 1.327 . S
C913 C917 1.429 . S
C914 C897 1.574 . S
C914 H908 0.949 . S
C914 C918 1.368 . S
C915 C896 1.429 . S
C915 C909 1.429 . S
C915 C916 1.523 . S
C916 C897 1.368 . S
C916 C910 1.368 . S
C916 C915 1.523 . S
C917 C901 1.429 . S
C917 C913 1.429 . S
C917 C918 1.523 . S
C918 C902 1.368 . S
C918 C914 1.368 . S
C918 C917 1.523 . S
H919 C894 0.950 . S
H920 C896 0.950 . S
H921 C897 0.949 . S
H922 C899 0.950 . S
H923 C901 0.950 . S
C924 C925 1.349 . S
C924 C926 1.327 . S
C924 H949 0.950 . S
C925 C924 1.349 . S
C925 C941 1.349 . S
C926 C924 1.327 . S
C926 C945 1.429 . S
C926 H950 0.950 . S
C927 C944 1.574 . S
C927 C946 1.368 . S
C927 H951 0.949 . S
H928 C932 0.949 . S
C929 C930 1.349 . S
C929 C931 1.327 . S
C929 H952 0.950 . S
C930 C929 1.349 . S
C930 C942 1.349 . S
C931 C929 1.327 . S
C931 C947 1.429 . S
C931 H953 0.950 . S
C932 H928 0.949 . S
C932 C940 1.574 . S
C932 C948 1.368 . S
H933 C941 0.950 . S
H934 C939 0.950 . S
H935 C940 0.949 . S
H936 C942 0.950 . S
H937 C943 0.950 . S
H938 C944 0.949 . S
C939 H934 0.950 . S
C939 C941 1.327 . S
C939 C945 1.429 . S
C940 C932 1.574 . S
C940 H935 0.949 . S
C940 C946 1.368 1_565 S
C941 C925 1.349 . S
C941 H933 0.950 . S
C941 C939 1.327 . S
C942 C930 1.349 . S
C942 H936 0.950 . S
C942 C943 1.327 . S
C943 H937 0.950 . S
C943 C942 1.327 . S
C943 C947 1.429 . S
C944 C927 1.574 . S
C944 H938 0.949 . S
C944 C948 1.368 1_545 S
C945 C926 1.429 . S
C945 C939 1.429 . S
C945 C946 1.523 . S
C946 C927 1.368 . S
C946 C940 1.368 1_545 S
C946 C945 1.523 . S
C947 C931 1.429 . S
C947 C943 1.429 . S
C947 C948 1.523 . S
C948 C932 1.368 . S
C948 C944 1.368 1_565 S
C948 C947 1.523 . S
H949 C924 0.950 . S
H950 C926 0.950 . S
H951 C927 0.949 . S
H952 C929 0.950 . S
H953 C931 0.950 . S
C954 C955 1.349 . S
C954 C956 1.327 . S
C954 H979 0.950 . S
C955 C954 1.349 . S
C955 C971 1.349 . S
C956 C954 1.327 . S
C956 C975 1.429 . S
C956 H980 0.950 . S
C957 C974 1.574 . S
C957 C976 1.368 1_545 S
C957 H981 0.949 . S
H958 C962 0.949 . S
C959 C960 1.349 . S
C959 C961 1.327 . S
C959 H982 0.950 . S
C960 C959 1.349 . S
C960 C972 1.349 . S
C961 C959 1.327 . S
C961 C977 1.429 . S
C961 H983 0.950 . S
C962 H958 0.949 . S
C962 C970 1.574 . S
C962 C978 1.368 1_565 S
H963 C971 0.950 . S
H964 C969 0.950 . S
H965 C970 0.949 . S
H966 C972 0.950 . S
H967 C973 0.950 . S
H968 C974 0.949 . S
C969 H964 0.950 . S
C969 C971 1.327 . S
C969 C975 1.429 . S
C970 C962 1.574 . S
C970 H965 0.949 . S
C970 C976 1.368 1_556 S
C971 C955 1.349 . S
C971 H963 0.950 . S
C971 C969 1.327 . S
C972 C960 1.349 . S
C972 H966 0.950 . S
C972 C973 1.327 . S
C973 H967 0.950 . S
C973 C972 1.327 . S
C973 C977 1.429 . S
C974 C957 1.574 . S
C974 H968 0.949 . S
C974 C978 1.368 1_554 S
C975 C956 1.429 . S
C975 C969 1.429 . S
C975 C976 1.523 . S
C976 C957 1.368 1_565 S
C976 C970 1.368 1_554 S
C976 C975 1.523 . S
C977 C961 1.429 . S
C977 C973 1.429 . S
C977 C978 1.523 . S
C978 C962 1.368 1_545 S
C978 C974 1.368 1_556 S
C978 C977 1.523 . S
H979 C954 0.950 . S
H980 C956 0.950 . S
H981 C957 0.949 . S
H982 C959 0.950 . S
H983 C961 0.950 . S
C984 C985 1.349 . S
C984 C986 1.327 . S
C984 H1009 0.950 . S
C985 C984 1.349 . S
C985 C1001 1.349 . S
C986 C984 1.327 . S
C986 C1005 1.429 . S
C986 H1010 0.950 . S
C987 C1004 1.546 1_656 S
C987 C1006 1.394 . S
C987 H1011 0.948 . S
H988 C992 0.948 . S
C989 C990 1.349 . S
C989 C991 1.327 . S
C989 H1012 0.950 . S
C990 C989 1.349 . S
C990 C1002 1.349 . S
C991 C989 1.327 . S
C991 C1007 1.429 . S
C991 H1013 0.950 . S
C992 H988 0.948 . S
C992 C1000 1.546 1_454 S
C992 C1008 1.394 . S
H993 C1001 0.950 . S
H994 C999 0.950 . S
H995 C1000 0.949 . S
H996 C1002 0.950 . S
H997 C1003 0.950 . S
H998 C1004 0.949 . S
C999 H994 0.950 . S
C999 C1001 1.327 . S
C999 C1005 1.429 . S
C1000 C992 1.546 1_656 S
C1000 H995 0.949 . S
C1000 C1006 1.368 . S
C1001 C985 1.349 . S
C1001 H993 0.950 . S
C1001 C999 1.327 . S
C1002 C990 1.349 . S
C1002 H996 0.950 . S
C1002 C1003 1.327 . S
C1003 H997 0.950 . S
C1003 C1002 1.327 . S
C1003 C1007 1.429 . S
C1004 C987 1.546 1_454 S
C1004 H998 0.949 . S
C1004 C1008 1.368 . S
C1005 C986 1.429 . S
C1005 C999 1.429 . S
C1005 C1006 1.523 . S
C1006 C987 1.394 . S
C1006 C1000 1.368 . S
C1006 C1005 1.523 . S
C1007 C991 1.429 . S
C1007 C1003 1.429 . S
C1007 C1008 1.523 . S
C1008 C992 1.394 . S
C1008 C1004 1.368 . S
C1008 C1007 1.523 . S
H1009 C984 0.950 . S
H1010 C986 0.950 . S
H1011 C987 0.948 . S
H1012 C989 0.950 . S
H1013 C991 0.950 . S
C1014 C1015 1.349 . S
C1014 C1016 1.327 . S
C1014 H1039 0.950 . S
C1015 C1014 1.349 . S
C1015 C1031 1.349 . S
C1016 C1014 1.327 . S
C1016 C1035 1.429 . S
C1016 H1040 0.950 . S
C1017 C1034 1.562 1_556 S
C1017 C1036 1.379 . S
C1017 H1041 0.948 . S
H1018 C1022 0.948 . S
C1019 C1020 1.349 . S
C1019 C1021 1.327 . S
C1019 H1042 0.950 . S
C1020 C1019 1.349 . S
C1020 C1032 1.349 . S
C1021 C1019 1.327 . S
C1021 C1037 1.429 . S
C1021 H1043 0.950 . S
C1022 H1018 0.948 . S
C1022 C1030 1.562 1_554 S
C1022 C1038 1.379 . S
H1023 C1031 0.950 . S
H1024 C1029 0.950 . S
H1025 C1030 0.949 . S
H1026 C1032 0.950 . S
H1027 C1033 0.950 . S
H1028 C1034 0.949 . S
C1029 H1024 0.950 . S
C1029 C1031 1.327 . S
C1029 C1035 1.429 . S
C1030 C1022 1.562 1_556 S
C1030 H1025 0.949 . S
C1030 C1036 1.368 . S
C1031 C1015 1.349 . S
C1031 H1023 0.950 . S
C1031 C1029 1.327 . S
C1032 C1020 1.349 . S
C1032 H1026 0.950 . S
C1032 C1033 1.327 . S
C1033 H1027 0.950 . S
C1033 C1032 1.327 . S
C1033 C1037 1.429 . S
C1034 C1017 1.562 1_554 S
C1034 H1028 0.949 . S
C1034 C1038 1.368 . S
C1035 C1016 1.429 . S
C1035 C1029 1.429 . S
C1035 C1036 1.523 . S
C1036 C1017 1.379 . S
C1036 C1030 1.368 . S
C1036 C1035 1.523 . S
C1037 C1021 1.429 . S
C1037 C1033 1.429 . S
C1037 C1038 1.523 . S
C1038 C1022 1.379 . S
C1038 C1034 1.368 . S
C1038 C1037 1.523 . S
H1039 C1014 0.950 . S
H1040 C1016 0.950 . S
H1041 C1017 0.948 . S
H1042 C1019 0.950 . S
H1043 C1021 0.950 . S
C1044 C1045 1.349 1_565 S
C1044 C1046 1.327 . S
C1044 H1069 0.950 . S
C1045 C1044 1.349 1_545 S
C1045 C1061 1.349 . S
C1046 C1044 1.327 . S
C1046 C1065 1.429 . S
C1046 H1070 0.950 . S
C1047 C1064 1.579 . S
C1047 C1066 1.370 . S
C1047 H1071 0.943 1_565 S
H1048 C1052 0.949 . S
C1049 C1050 1.349 . S
C1049 C1051 1.327 . S
C1049 H1072 0.950 . S
C1050 C1049 1.349 . S
C1050 C1062 1.349 . S
C1051 C1049 1.327 . S
C1051 C1067 1.429 . S
C1051 H1073 0.950 . S
C1052 H1048 0.949 . S
C1052 C1060 1.574 . S
C1052 C1068 1.368 . S
H1053 C1061 0.950 . S
H1054 C1059 0.950 . S
H1055 C1060 0.949 . S
H1056 C1062 0.950 . S
H1057 C1063 0.950 . S
H1058 C1064 0.949 . S
C1059 H1054 0.950 . S
C1059 C1061 1.327 . S
C1059 C1065 1.429 1_545 S
C1060 C1052 1.574 . S
C1060 H1055 0.949 . S
C1060 C1066 1.368 . S
C1061 C1045 1.349 . S
C1061 H1053 0.950 . S
C1061 C1059 1.327 . S
C1062 C1050 1.349 . S
C1062 H1056 0.950 . S
C1062 C1063 1.327 . S
C1063 H1057 0.950 . S
C1063 C1062 1.327 . S
C1063 C1067 1.429 . S
C1064 C1047 1.579 . S
C1064 H1058 0.949 . S
C1064 C1068 1.368 . S
C1065 C1046 1.429 . S
C1065 C1059 1.429 1_565 S
C1065 C1066 1.523 . S
C1066 C1047 1.370 . S
C1066 C1060 1.368 . S
C1066 C1065 1.523 . S
C1067 C1051 1.429 . S
C1067 C1063 1.429 . S
C1067 C1068 1.523 . S
C1068 C1052 1.368 . S
C1068 C1064 1.368 . S
C1068 C1067 1.523 . S
H1069 C1044 0.950 . S
H1070 C1046 0.950 . S
H1071 C1047 0.943 1_545 S
H1072 C1049 0.950 . S
H1073 C1051 0.950 . S
C1074 C1075 1.349 . S
C1074 C1076 1.327 . S
C1074 H1099 0.950 . S
C1075 C1074 1.349 . S
C1075 C1091 1.349 . S
C1076 C1074 1.327 . S
C1076 C1095 1.429 . S
C1076 H1100 0.950 . S
C1077 C1094 1.574 . S
C1077 C1096 1.368 . S
C1077 H1101 0.949 . S
H1078 C1082 0.949 . S
C1079 C1080 1.349 . S
C1079 C1081 1.327 . S
C1079 H1102 0.950 . S
C1080 C1079 1.349 . S
C1080 C1092 1.349 . S
C1081 C1079 1.327 . S
C1081 C1097 1.429 1_655 S
C1081 H1103 0.950 . S
C1082 H1078 0.949 . S
C1082 C1090 1.574 . S
C1082 C1098 1.368 . S
H1083 C1091 0.950 . S
H1084 C1089 0.950 . S
H1085 C1090 0.949 . S
H1086 C1092 0.950 . S
H1087 C1093 0.967 . S
H1088 C1094 0.949 . S
C1089 H1084 0.950 . S
C1089 C1091 1.327 . S
C1089 C1095 1.429 . S
C1090 C1082 1.574 . S
C1090 H1085 0.949 . S
C1090 C1096 1.368 . S
C1091 C1075 1.349 . S
C1091 H1083 0.950 . S
C1091 C1089 1.327 . S
C1092 C1080 1.349 . S
C1092 H1086 0.950 . S
C1092 C1093 1.327 1_655 S
C1093 H1087 0.967 . S
C1093 C1092 1.327 1_455 S
C1093 C1097 1.413 . S
C1094 C1077 1.574 . S
C1094 H1088 0.949 . S
C1094 C1098 1.368 . S
C1095 C1076 1.429 . S
C1095 C1089 1.429 . S
C1095 C1096 1.523 . S
C1096 C1077 1.368 . S
C1096 C1090 1.368 . S
C1096 C1095 1.523 . S
C1097 C1081 1.429 1_455 S
C1097 C1093 1.413 . S
C1097 C1098 1.523 . S
C1098 C1082 1.368 . S
C1098 C1094 1.368 . S
C1098 C1097 1.523 . S
H1099 C1074 0.950 . S
H1100 C1076 0.950 . S
H1101 C1077 0.949 . S
H1102 C1079 0.950 . S
H1103 C1081 0.950 . S
C1104 C1105 1.349 . S
C1104 C1106 1.327 . S
C1104 H1129 0.950 . S
C1105 C1104 1.349 . S
C1105 C1121 1.349 . S
C1106 C1104 1.327 . S
C1106 C1125 1.429 . S
C1106 H1130 0.950 . S
C1107 C1124 1.574 . S
C1107 C1126 1.368 . S
C1107 H1131 0.949 . S
H1108 C1112 0.949 . S
C1109 C1110 1.349 . S
C1109 C1111 1.327 . S
C1109 H1132 0.950 . S
C1110 C1109 1.349 . S
C1110 C1122 1.349 . S
C1111 C1109 1.327 . S
C1111 C1127 1.429 . S
C1111 H1133 0.950 . S
C1112 H1108 0.949 . S
C1112 C1120 1.574 . S
C1112 C1128 1.368 . S
H1113 C1121 0.950 . S
H1114 C1119 0.950 . S
H1115 C1120 0.949 . S
H1116 C1122 0.950 . S
H1117 C1123 0.950 . S
H1118 C1124 0.949 . S
C1119 H1114 0.950 . S
C1119 C1121 1.327 . S
C1119 C1125 1.429 . S
C1120 C1112 1.574 . S
C1120 H1115 0.949 . S
C1120 C1126 1.368 . S
C1121 C1105 1.349 . S
C1121 H1113 0.950 . S
C1121 C1119 1.327 . S
C1122 C1110 1.349 . S
C1122 H1116 0.950 . S
C1122 C1123 1.327 . S
C1123 H1117 0.950 . S
C1123 C1122 1.327 . S
C1123 C1127 1.429 . S
C1124 C1107 1.574 . S
C1124 H1118 0.949 . S
C1124 C1128 1.368 . S
C1125 C1106 1.429 . S
C1125 C1119 1.429 . S
C1125 C1126 1.523 . S
C1126 C1107 1.368 . S
C1126 C1120 1.368 . S
C1126 C1125 1.523 . S
C1127 C1111 1.429 . S
C1127 C1123 1.429 . S
C1127 C1128 1.523 . S
C1128 C1112 1.368 . S
C1128 C1124 1.368 . S
C1128 C1127 1.523 . S
H1129 C1104 0.950 . S
H1130 C1106 0.950 . S
H1131 C1107 0.949 . S
H1132 C1109 0.950 . S
H1133 C1111 0.950 . S
C1134 C1135 1.349 . S
C1134 C1136 1.327 . S
C1134 H1159 0.950 . S
C1135 C1134 1.349 . S
C1135 C1151 1.349 . S
C1136 C1134 1.327 . S
C1136 C1155 1.429 . S
C1136 H1160 0.950 . S
C1137 C1154 1.574 . S
C1137 C1156 1.368 . S
C1137 H1161 0.949 . S
H1138 C1142 0.949 . S
C1139 C1140 1.349 . S
C1139 C1141 1.327 . S
C1139 H1162 0.950 . S
C1140 C1139 1.349 . S
C1140 C1152 1.349 1_455 S
C1141 C1139 1.327 . S
C1141 C1157 1.429 1_455 S
C1141 H1163 0.950 . S
C1142 H1138 0.949 . S
C1142 C1150 1.574 . S
C1142 C1158 1.368 . S
H1143 C1151 0.950 . S
H1144 C1149 0.950 . S
H1145 C1150 0.949 . S
H1146 C1152 0.950 . S
H1147 C1153 0.950 . S
H1148 C1154 0.949 1_455 S
C1149 H1144 0.950 . S
C1149 C1151 1.327 . S
C1149 C1155 1.429 . S
C1150 C1142 1.574 . S
C1150 H1145 0.949 . S
C1150 C1156 1.368 . S
C1151 C1135 1.349 . S
C1151 H1143 0.950 . S
C1151 C1149 1.327 . S
C1152 C1140 1.349 1_655 S
C1152 H1146 0.950 . S
C1152 C1153 1.327 . S
C1153 H1147 0.950 . S
C1153 C1152 1.327 . S
C1153 C1157 1.429 . S
C1154 C1137 1.574 . S
C1154 H1148 0.949 1_655 S
C1154 C1158 1.368 . S
C1155 C1136 1.429 . S
C1155 C1149 1.429 . S
C1155 C1156 1.523 . S
C1156 C1137 1.368 . S
C1156 C1150 1.368 . S
C1156 C1155 1.523 . S
C1157 C1141 1.429 1_655 S
C1157 C1153 1.429 . S
C1157 C1158 1.523 . S
C1158 C1142 1.368 . S
C1158 C1154 1.368 . S
C1158 C1157 1.523 . S
H1159 C1134 0.950 . S
H1160 C1136 0.950 . S
H1161 C1137 0.949 . S
H1162 C1139 0.950 . S
H1163 C1141 0.950 . S
C1164 C1165 1.349 . S
C1164 C1166 1.327 . S
C1164 H1189 0.950 . S
C1165 C1164 1.349 . S
C1165 C1181 1.349 . S
C1166 C1164 1.327 . S
C1166 C1185 1.429 . S
C1166 H1190 0.950 . S
C1167 C1184 1.574 . S
C1167 C1186 1.368 . S
C1167 H1191 0.949 . S
H1168 C1172 0.949 . S
C1169 C1170 1.349 . S
C1169 C1171 1.327 . S
C1169 H1192 0.950 . S
C1170 C1169 1.349 . S
C1170 C1182 1.349 . S
C1171 C1169 1.327 . S
C1171 C1187 1.429 . S
C1171 H1193 0.950 . S
C1172 H1168 0.949 . S
C1172 C1180 1.574 . S
C1172 C1188 1.368 . S
H1173 C1181 0.950 . S
H1174 C1179 0.950 . S
H1175 C1180 0.949 . S
H1176 C1182 0.950 . S
H1177 C1183 0.950 . S
H1178 C1184 0.949 . S
C1179 H1174 0.950 . S
C1179 C1181 1.327 . S
C1179 C1185 1.429 . S
C1180 C1172 1.574 . S
C1180 H1175 0.949 . S
C1180 C1186 1.368 . S
C1181 C1165 1.349 . S
C1181 H1173 0.950 . S
C1181 C1179 1.327 . S
C1182 C1170 1.349 . S
C1182 H1176 0.950 . S
C1182 C1183 1.327 . S
C1183 H1177 0.950 . S
C1183 C1182 1.327 . S
C1183 C1187 1.429 . S
C1184 C1167 1.574 . S
C1184 H1178 0.949 . S
C1184 C1188 1.368 . S
C1185 C1166 1.429 . S
C1185 C1179 1.429 . S
C1185 C1186 1.523 . S
C1186 C1167 1.368 . S
C1186 C1180 1.368 . S
C1186 C1185 1.523 . S
C1187 C1171 1.429 . S
C1187 C1183 1.429 . S
C1187 C1188 1.523 . S
C1188 C1172 1.368 . S
C1188 C1184 1.368 . S
C1188 C1187 1.523 . S
H1189 C1164 0.950 . S
H1190 C1166 0.950 . S
H1191 C1167 0.949 . S
H1192 C1169 0.950 . S
H1193 C1171 0.950 . S
C1194 C1195 1.349 . S
C1194 C1196 1.327 . S
C1194 H1219 0.950 . S
C1195 C1194 1.349 . S
C1195 C1211 1.349 . S
C1196 C1194 1.327 . S
C1196 C1215 1.429 . S
C1196 H1220 0.950 . S
C1197 C1214 1.574 . S
C1197 C1216 1.368 . S
C1197 H1221 0.949 . S
H1198 C1202 0.949 . S
C1199 C1200 1.349 . S
C1199 C1201 1.327 . S
C1199 H1222 0.950 . S
C1200 C1199 1.349 . S
C1200 C1212 1.349 . S
C1201 C1199 1.327 . S
C1201 C1217 1.429 1_565 S
C1201 H1223 0.950 . S
C1202 H1198 0.949 . S
C1202 C1210 1.574 . S
C1202 C1218 1.368 . S
H1203 C1211 0.950 . S
H1204 C1209 0.950 . S
H1205 C1210 0.949 . S
H1206 C1212 0.950 . S
H1207 C1213 0.951 1_545 S
H1208 C1214 0.949 . S
C1209 H1204 0.950 . S
C1209 C1211 1.327 . S
C1209 C1215 1.429 . S
C1210 C1202 1.574 . S
C1210 H1205 0.949 . S
C1210 C1216 1.368 . S
C1211 C1195 1.349 . S
C1211 H1203 0.950 . S
C1211 C1209 1.327 . S
C1212 C1200 1.349 . S
C1212 H1206 0.950 . S
C1212 C1213 1.328 . S
C1213 H1207 0.951 1_565 S
C1213 C1212 1.328 . S
C1213 C1217 1.429 1_565 S
C1214 C1197 1.574 . S
C1214 H1208 0.949 . S
C1214 C1218 1.368 . S
C1215 C1196 1.429 . S
C1215 C1209 1.429 . S
C1215 C1216 1.523 . S
C1216 C1197 1.368 . S
C1216 C1210 1.368 . S
C1216 C1215 1.523 . S
C1217 C1201 1.429 1_545 S
C1217 C1213 1.429 1_545 S
C1217 C1218 1.523 . S
C1218 C1202 1.368 . S
C1218 C1214 1.368 . S
C1218 C1217 1.523 . S
H1219 C1194 0.950 . S
H1220 C1196 0.950 . S
H1221 C1197 0.949 . S
H1222 C1199 0.950 . S
H1223 C1201 0.950 . S
C1224 C1225 1.349 . S
C1224 C1226 1.355 . S
C1224 H1249 0.950 . S
C1225 C1224 1.349 . S
C1225 C1241 1.349 . S
C1226 C1224 1.355 . S
C1226 C1245 1.411 1_565 S
C1226 H1250 0.940 1_565 S
C1227 C1244 1.574 . S
C1227 C1246 1.368 . S
C1227 H1251 0.949 . S
H1228 C1232 0.949 . S
C1229 C1230 1.349 . S
C1229 C1231 1.327 . S
C1229 H1252 0.950 . S
C1230 C1229 1.349 . S
C1230 C1242 1.349 . S
C1231 C1229 1.327 . S
C1231 C1247 1.429 . S
C1231 H1253 0.950 . S
C1232 H1228 0.949 . S
C1232 C1240 1.574 . S
C1232 C1248 1.368 . S
H1233 C1241 0.950 . S
H1234 C1239 0.950 . S
H1235 C1240 0.949 . S
H1236 C1242 0.950 . S
H1237 C1243 0.950 . S
H1238 C1244 0.949 . S
C1239 H1234 0.950 . S
C1239 C1241 1.327 . S
C1239 C1245 1.429 1_565 S
C1240 C1232 1.574 . S
C1240 H1235 0.949 . S
C1240 C1246 1.368 . S
C1241 C1225 1.349 . S
C1241 H1233 0.950 . S
C1241 C1239 1.327 . S
C1242 C1230 1.349 . S
C1242 H1236 0.950 . S
C1242 C1243 1.327 . S
C1243 H1237 0.950 . S
C1243 C1242 1.327 . S
C1243 C1247 1.429 . S
C1244 C1227 1.574 . S
C1244 H1238 0.949 . S
C1244 C1248 1.368 . S
C1245 C1226 1.411 1_545 S
C1245 C1239 1.429 1_545 S
C1245 C1246 1.523 . S
C1246 C1227 1.368 . S
C1246 C1240 1.368 . S
C1246 C1245 1.523 . S
C1247 C1231 1.429 . S
C1247 C1243 1.429 . S
C1247 C1248 1.523 . S
C1248 C1232 1.368 . S
C1248 C1244 1.368 . S
C1248 C1247 1.523 . S
H1249 C1224 0.950 . S
H1250 C1226 0.940 1_545 S
H1251 C1227 0.949 . S
H1252 C1229 0.950 . S
H1253 C1231 0.950 . S
C1254 C1255 1.349 . S
C1254 C1256 1.327 . S
C1254 H1279 0.950 . S
C1255 C1254 1.349 . S
C1255 C1271 1.349 . S
C1256 C1254 1.327 . S
C1256 C1275 1.429 . S
C1256 H1280 0.950 . S
C1257 C1274 1.574 . S
C1257 C1276 1.368 . S
C1257 H1281 0.949 . S
H1258 C1262 0.949 . S
C1259 C1260 1.349 . S
C1259 C1261 1.327 . S
C1259 H1282 0.950 . S
C1260 C1259 1.349 . S
C1260 C1272 1.349 . S
C1261 C1259 1.327 . S
C1261 C1277 1.429 1_455 S
C1261 H1283 0.950 . S
C1262 H1258 0.949 . S
C1262 C1270 1.574 . S
C1262 C1278 1.368 . S
H1263 C1271 0.950 . S
H1264 C1269 0.950 . S
H1265 C1270 0.949 . S
H1266 C1272 0.950 1_655 S
H1267 C1273 0.950 . S
H1268 C1274 0.949 1_455 S
C1269 H1264 0.950 . S
C1269 C1271 1.327 . S
C1269 C1275 1.429 . S
C1270 C1262 1.574 . S
C1270 H1265 0.949 . S
C1270 C1276 1.368 . S
C1271 C1255 1.349 . S
C1271 H1263 0.950 . S
C1271 C1269 1.327 . S
C1272 C1260 1.349 . S
C1272 H1266 0.950 1_455 S
C1272 C1273 1.327 1_455 S
C1273 H1267 0.950 . S
C1273 C1272 1.327 1_655 S
C1273 C1277 1.429 . S
C1274 C1257 1.574 . S
C1274 H1268 0.949 1_655 S
C1274 C1278 1.368 . S
C1275 C1256 1.429 . S
C1275 C1269 1.429 . S
C1275 C1276 1.523 . S
C1276 C1257 1.368 . S
C1276 C1270 1.368 . S
C1276 C1275 1.523 . S
C1277 C1261 1.429 1_655 S
C1277 C1273 1.429 . S
C1277 C1278 1.523 . S
C1278 C1262 1.368 . S
C1278 C1274 1.368 . S
C1278 C1277 1.523 . S
H1279 C1254 0.950 . S
H1280 C1256 0.950 . S
H1281 C1257 0.949 . S
H1282 C1259 0.950 . S
H1283 C1261 0.950 . S
C1284 C1285 1.349 . S
C1284 C1286 1.327 . S
C1284 H1309 0.950 . S
C1285 C1284 1.349 . S
C1285 C1301 1.349 . S
C1286 C1284 1.327 . S
C1286 C1305 1.429 . S
C1286 H1310 0.950 . S
C1287 C1304 1.574 . S
C1287 C1306 1.368 . S
C1287 H1311 0.949 . S
H1288 C1292 0.949 . S
C1289 C1290 1.349 . S
C1289 C1291 1.327 . S
C1289 H1312 0.950 . S
C1290 C1289 1.349 . S
C1290 C1302 1.349 . S
C1291 C1289 1.327 . S
C1291 C1307 1.429 . S
C1291 H1313 0.950 . S
C1292 H1288 0.949 . S
C1292 C1300 1.574 . S
C1292 C1308 1.368 . S
H1293 C1301 0.950 . S
H1294 C1299 0.950 . S
H1295 C1300 0.949 . S
H1296 C1302 0.950 . S
H1297 C1303 0.950 . S
H1298 C1304 0.949 . S
C1299 H1294 0.950 . S
C1299 C1301 1.327 . S
C1299 C1305 1.429 . S
C1300 C1292 1.574 . S
C1300 H1295 0.949 . S
C1300 C1306 1.368 . S
C1301 C1285 1.349 . S
C1301 H1293 0.950 . S
C1301 C1299 1.327 . S
C1302 C1290 1.349 . S
C1302 H1296 0.950 . S
C1302 C1303 1.327 . S
C1303 H1297 0.950 . S
C1303 C1302 1.327 . S
C1303 C1307 1.429 . S
C1304 C1287 1.574 . S
C1304 H1298 0.949 . S
C1304 C1308 1.368 . S
C1305 C1286 1.429 . S
C1305 C1299 1.429 . S
C1305 C1306 1.523 . S
C1306 C1287 1.368 . S
C1306 C1300 1.368 . S
C1306 C1305 1.523 . S
C1307 C1291 1.429 . S
C1307 C1303 1.429 . S
C1307 C1308 1.523 . S
C1308 C1292 1.368 . S
C1308 C1304 1.368 . S
C1308 C1307 1.523 . S
H1309 C1284 0.950 . S
H1310 C1286 0.950 . S
H1311 C1287 0.949 . S
H1312 C1289 0.950 . S
H1313 C1291 0.950 . S
C1314 C1315 1.349 . S
C1314 C1316 1.327 . S
C1314 H1339 0.950 . S
C1315 C1314 1.349 . S
C1315 C1331 1.349 . S
C1316 C1314 1.327 . S
C1316 C1335 1.429 1_655 S
C1316 H1340 0.950 . S
C1317 C1334 1.574 . S
C1317 C1336 1.368 . S
C1317 H1341 0.949 . S
H1318 C1322 0.949 . S
C1319 C1320 1.349 . S
C1319 C1321 1.327 . S
C1319 H1342 0.950 . S
C1320 C1319 1.349 . S
C1320 C1332 1.349 . S
C1321 C1319 1.327 . S
C1321 C1337 1.429 . S
C1321 H1343 0.950 . S
C1322 H1318 0.949 . S
C1322 C1330 1.574 . S
C1322 C1338 1.368 . S
H1323 C1331 0.950 1_455 S
H1324 C1329 0.950 . S
H1325 C1330 0.949 1_655 S
H1326 C1332 0.950 . S
H1327 C1333 0.950 . S
H1328 C1334 0.949 . S
C1329 H1324 0.950 . S
C1329 C1331 1.327 1_455 S
C1329 C1335 1.429 . S
C1330 C1322 1.574 . S
C1330 H1325 0.949 1_455 S
C1330 C1336 1.368 . S
C1331 C1315 1.349 . S
C1331 H1323 0.950 1_655 S
C1331 C1329 1.327 1_655 S
C1332 C1320 1.349 . S
C1332 H1326 0.950 . S
C1332 C1333 1.327 . S
C1333 H1327 0.950 . S
C1333 C1332 1.327 . S
C1333 C1337 1.429 . S
C1334 C1317 1.574 . S
C1334 H1328 0.949 . S
C1334 C1338 1.368 . S
C1335 C1316 1.429 1_455 S
C1335 C1329 1.429 . S
C1335 C1336 1.523 . S
C1336 C1317 1.368 . S
C1336 C1330 1.368 . S
C1336 C1335 1.523 . S
C1337 C1321 1.429 . S
C1337 C1333 1.429 . S
C1337 C1338 1.523 . S
C1338 C1322 1.368 . S
C1338 C1334 1.368 . S
C1338 C1337 1.523 . S
H1339 C1314 0.950 . S
H1340 C1316 0.950 . S
H1341 C1317 0.949 . S
H1342 C1319 0.950 . S
H1343 C1321 0.950 . S
C1344 C1345 1.349 . S
C1344 C1346 1.327 . S
C1344 H1369 0.950 . S
C1345 C1344 1.349 . S
C1345 C1361 1.349 . S
C1346 C1344 1.327 . S
C1346 C1365 1.429 . S
C1346 H1370 0.950 . S
C1347 C1364 1.574 . S
C1347 C1366 1.368 . S
C1347 H1371 0.949 . S
H1348 C1352 0.949 . S
C1349 C1350 1.349 . S
C1349 C1351 1.327 . S
C1349 H1372 0.950 . S
C1350 C1349 1.349 . S
C1350 C1362 1.349 . S
C1351 C1349 1.327 . S
C1351 C1367 1.429 . S
C1351 H1373 0.950 . S
C1352 H1348 0.949 . S
C1352 C1360 1.574 . S
C1352 C1368 1.368 . S
H1353 C1361 0.950 . S
H1354 C1359 0.950 . S
H1355 C1360 0.949 . S
H1356 C1362 0.950 . S
H1357 C1363 0.950 . S
H1358 C1364 0.949 . S
C1359 H1354 0.950 . S
C1359 C1361 1.327 . S
C1359 C1365 1.429 . S
C1360 C1352 1.574 . S
C1360 H1355 0.949 . S
C1360 C1366 1.368 . S
C1361 C1345 1.349 . S
C1361 H1353 0.950 . S
C1361 C1359 1.327 . S
C1362 C1350 1.349 . S
C1362 H1356 0.950 . S
C1362 C1363 1.327 . S
C1363 H1357 0.950 . S
C1363 C1362 1.327 . S
C1363 C1367 1.429 . S
C1364 C1347 1.574 . S
C1364 H1358 0.949 . S
C1364 C1368 1.368 . S
C1365 C1346 1.429 . S
C1365 C1359 1.429 . S
C1365 C1366 1.523 . S
C1366 C1347 1.368 . S
C1366 C1360 1.368 . S
C1366 C1365 1.523 . S
C1367 C1351 1.429 . S
C1367 C1363 1.429 . S
C1367 C1368 1.523 . S
C1368 C1352 1.368 . S
C1368 C1364 1.368 . S
C1368 C1367 1.523 . S
H1369 C1344 0.950 . S
H1370 C1346 0.950 . S
H1371 C1347 0.949 . S
H1372 C1349 0.950 . S
H1373 C1351 0.950 . S
C1374 C1375 1.349 . S
C1374 C1376 1.327 . S
C1374 H1399 0.950 . S
C1375 C1374 1.349 . S
C1375 C1391 1.349 1_545 S
C1376 C1374 1.327 . S
C1376 C1395 1.429 1_545 S
C1376 H1400 0.950 . S
C1377 C1394 1.574 . S
C1377 C1396 1.368 . S
C1377 H1401 0.949 . S
H1378 C1382 0.949 . S
C1379 C1380 1.349 . S
C1379 C1381 1.327 . S
C1379 H1402 0.950 . S
C1380 C1379 1.349 . S
C1380 C1392 1.349 . S
C1381 C1379 1.327 . S
C1381 C1397 1.429 . S
C1381 H1403 0.950 . S
C1382 H1378 0.949 . S
C1382 C1390 1.574 1_565 S
C1382 C1398 1.368 . S
H1383 C1391 0.950 . S
H1384 C1389 0.950 . S
H1385 C1390 0.951 . S
H1386 C1392 0.950 . S
H1387 C1393 0.950 . S
H1388 C1394 0.949 . S
C1389 H1384 0.950 . S
C1389 C1391 1.327 . S
C1389 C1395 1.429 . S
C1390 C1382 1.574 1_545 S
C1390 H1385 0.951 . S
C1390 C1396 1.366 1_545 S
C1391 C1375 1.349 1_565 S
C1391 H1383 0.950 . S
C1391 C1389 1.327 . S
C1392 C1380 1.349 . S
C1392 H1386 0.950 . S
C1392 C1393 1.327 . S
C1393 H1387 0.950 . S
C1393 C1392 1.327 . S
C1393 C1397 1.429 . S
C1394 C1377 1.574 . S
C1394 H1388 0.949 . S
C1394 C1398 1.368 . S
C1395 C1376 1.429 1_565 S
C1395 C1389 1.429 . S
C1395 C1396 1.523 . S
C1396 C1377 1.368 . S
C1396 C1390 1.366 1_565 S
C1396 C1395 1.523 . S
C1397 C1381 1.429 . S
C1397 C1393 1.429 . S
C1397 C1398 1.523 . S
C1398 C1382 1.368 . S
C1398 C1394 1.368 . S
C1398 C1397 1.523 . S
H1399 C1374 0.950 . S
H1400 C1376 0.950 . S
H1401 C1377 0.949 . S
H1402 C1379 0.950 . S
H1403 C1381 0.950 . S
C1404 C1405 1.349 . S
C1404 C1406 1.327 . S
C1404 H1429 0.950 . S
C1405 C1404 1.349 . S
C1405 C1421 1.349 . S
C1406 C1404 1.327 . S
C1406 C1425 1.429 . S
C1406 H1430 0.950 . S
C1407 C1424 1.574 . S
C1407 C1426 1.368 . S
C1407 H1431 0.949 . S
H1408 C1412 0.949 . S
C1409 C1410 1.349 . S
C1409 C1411 1.327 . S
C1409 H1432 0.950 . S
C1410 C1409 1.349 . S
C1410 C1422 1.349 . S
C1411 C1409 1.327 . S
C1411 C1427 1.429 . S
C1411 H1433 0.950 . S
C1412 H1408 0.949 . S
C1412 C1420 1.574 . S
C1412 C1428 1.368 . S
H1413 C1421 0.950 . S
H1414 C1419 0.950 . S
H1415 C1420 0.949 . S
H1416 C1422 0.950 . S
H1417 C1423 0.950 . S
H1418 C1424 0.949 . S
C1419 H1414 0.950 . S
C1419 C1421 1.327 . S
C1419 C1425 1.429 . S
C1420 C1412 1.574 . S
C1420 H1415 0.949 . S
C1420 C1426 1.368 . S
C1421 C1405 1.349 . S
C1421 H1413 0.950 . S
C1421 C1419 1.327 . S
C1422 C1410 1.349 . S
C1422 H1416 0.950 . S
C1422 C1423 1.327 . S
C1423 H1417 0.950 . S
C1423 C1422 1.327 . S
C1423 C1427 1.429 . S
C1424 C1407 1.574 . S
C1424 H1418 0.949 . S
C1424 C1428 1.368 . S
C1425 C1406 1.429 . S
C1425 C1419 1.429 . S
C1425 C1426 1.523 . S
C1426 C1407 1.368 . S
C1426 C1420 1.368 . S
C1426 C1425 1.523 . S
C1427 C1411 1.429 . S
C1427 C1423 1.429 . S
C1427 C1428 1.523 . S
C1428 C1412 1.368 . S
C1428 C1424 1.368 . S
C1428 C1427 1.523 . S
H1429 C1404 0.950 . S
H1430 C1406 0.950 . S
H1431 C1407 0.949 . S
H1432 C1409 0.950 . S
H1433 C1411 0.950 . S
C1434 C1435 1.349 . S
C1434 C1436 1.327 . S
C1434 H1459 0.950 . S
C1435 C1434 1.349 . S
C1435 C1451 1.349 . S
C1436 C1434 1.327 . S
C1436 C1455 1.429 . S
C1436 H1460 0.950 . S
C1437 C1454 1.574 1_545 S
C1437 C1456 1.368 . S
C1437 H1461 0.949 . S
H1438 C1442 0.949 . S
C1439 C1440 1.349 . S
C1439 C1441 1.327 . S
C1439 H1462 0.950 . S
C1440 C1439 1.349 . S
C1440 C1452 1.349 . S
C1441 C1439 1.327 . S
C1441 C1457 1.429 . S
C1441 H1463 0.950 . S
C1442 H1438 0.949 . S
C1442 C1450 1.574 1_565 S
C1442 C1458 1.368 . S
H1443 C1451 0.950 . S
H1444 C1449 0.950 . S
H1445 C1450 0.949 . S
H1446 C1452 0.950 . S
H1447 C1453 0.950 . S
H1448 C1454 0.949 . S
C1449 H1444 0.950 . S
C1449 C1451 1.327 . S
C1449 C1455 1.429 . S
C1450 C1442 1.574 1_545 S
C1450 H1445 0.949 . S
C1450 C1456 1.368 . S
C1451 C1435 1.349 . S
C1451 H1443 0.950 . S
C1451 C1449 1.327 . S
C1452 C1440 1.349 . S
C1452 H1446 0.950 . S
C1452 C1453 1.327 . S
C1453 H1447 0.950 . S
C1453 C1452 1.327 . S
C1453 C1457 1.429 . S
C1454 C1437 1.574 1_565 S
C1454 H1448 0.949 . S
C1454 C1458 1.368 . S
C1455 C1436 1.429 . S
C1455 C1449 1.429 . S
C1455 C1456 1.523 . S
C1456 C1437 1.368 . S
C1456 C1450 1.368 . S
C1456 C1455 1.523 . S
C1457 C1441 1.429 . S
C1457 C1453 1.429 . S
C1457 C1458 1.523 . S
C1458 C1442 1.368 . S
C1458 C1454 1.368 . S
C1458 C1457 1.523 . S
H1459 C1434 0.950 . S
H1460 C1436 0.950 . S
H1461 C1437 0.949 . S
H1462 C1439 0.950 . S
H1463 C1441 0.950 . S
C1464 C1465 1.349 . S
C1464 C1466 1.327 . S
C1464 H1489 0.950 . S
C1465 C1464 1.349 . S
C1465 C1481 1.349 . S
C1466 C1464 1.327 . S
C1466 C1485 1.429 . S
C1466 H1490 0.950 . S
C1467 C1484 1.574 1_655 S
C1467 C1486 1.368 . S
C1467 H1491 0.949 . S
H1468 C1472 0.949 . S
C1469 C1470 1.349 . S
C1469 C1471 1.327 . S
C1469 H1492 0.950 . S
C1470 C1469 1.349 . S
C1470 C1482 1.349 . S
C1471 C1469 1.327 . S
C1471 C1487 1.429 . S
C1471 H1493 0.950 . S
C1472 H1468 0.949 . S
C1472 C1480 1.574 1_455 S
C1472 C1488 1.368 . S
H1473 C1481 0.950 . S
H1474 C1479 0.950 . S
H1475 C1480 0.949 . S
H1476 C1482 0.950 . S
H1477 C1483 0.950 . S
H1478 C1484 0.949 . S
C1479 H1474 0.950 . S
C1479 C1481 1.327 . S
C1479 C1485 1.429 . S
C1480 C1472 1.574 1_655 S
C1480 H1475 0.949 . S
C1480 C1486 1.368 . S
C1481 C1465 1.349 . S
C1481 H1473 0.950 . S
C1481 C1479 1.327 . S
C1482 C1470 1.349 . S
C1482 H1476 0.950 . S
C1482 C1483 1.327 . S
C1483 H1477 0.950 . S
C1483 C1482 1.327 . S
C1483 C1487 1.429 . S
C1484 C1467 1.574 1_455 S
C1484 H1478 0.949 . S
C1484 C1488 1.368 . S
C1485 C1466 1.429 . S
C1485 C1479 1.429 . S
C1485 C1486 1.523 . S
C1486 C1467 1.368 . S
C1486 C1480 1.368 . S
C1486 C1485 1.523 . S
C1487 C1471 1.429 . S
C1487 C1483 1.429 . S
C1487 C1488 1.523 . S
C1488 C1472 1.368 . S
C1488 C1484 1.368 . S
C1488 C1487 1.523 . S
H1489 C1464 0.950 . S
H1490 C1466 0.950 . S
H1491 C1467 0.949 . S
H1492 C1469 0.950 . S
H1493 C1471 0.950 . S
C1494 C1495 1.349 . S
C1494 C1496 1.327 . S
C1494 H1519 0.950 . S
C1495 C1494 1.349 . S
C1495 C1511 1.349 . S
C1496 C1494 1.327 . S
C1496 C1515 1.429 . S
C1496 H1520 0.950 . S
C1497 C1514 1.574 . S
C1497 C1516 1.368 . S
C1497 H1521 0.949 . S
H1498 C1502 0.949 . S
C1499 C1500 1.349 . S
C1499 C1501 1.327 . S
C1499 H1522 0.950 . S
C1500 C1499 1.349 . S
C1500 C1512 1.349 . S
C1501 C1499 1.327 . S
C1501 C1517 1.429 . S
C1501 H1523 0.950 . S
C1502 H1498 0.949 . S
C1502 C1510 1.574 . S
C1502 C1518 1.368 . S
H1503 C1511 0.950 . S
H1504 C1509 0.950 . S
H1505 C1510 0.949 . S
H1506 C1512 0.950 . S
H1507 C1513 0.950 . S
H1508 C1514 0.949 . S
C1509 H1504 0.950 . S
C1509 C1511 1.327 . S
C1509 C1515 1.429 . S
C1510 C1502 1.574 . S
C1510 H1505 0.949 . S
C1510 C1516 1.368 . S
C1511 C1495 1.349 . S
C1511 H1503 0.950 . S
C1511 C1509 1.327 . S
C1512 C1500 1.349 . S
C1512 H1506 0.950 . S
C1512 C1513 1.327 . S
C1513 H1507 0.950 . S
C1513 C1512 1.327 . S
C1513 C1517 1.429 . S
C1514 C1497 1.574 . S
C1514 H1508 0.949 . S
C1514 C1518 1.368 . S
C1515 C1496 1.429 . S
C1515 C1509 1.429 . S
C1515 C1516 1.523 . S
C1516 C1497 1.368 . S
C1516 C1510 1.368 . S
C1516 C1515 1.523 . S
C1517 C1501 1.429 . S
C1517 C1513 1.429 . S
C1517 C1518 1.523 . S
C1518 C1502 1.368 . S
C1518 C1514 1.368 . S
C1518 C1517 1.523 . S
H1519 C1494 0.950 . S
H1520 C1496 0.950 . S
H1521 C1497 0.949 . S
H1522 C1499 0.950 . S
H1523 C1501 0.950 . S
C1524 C1525 1.349 . S
C1524 C1526 1.327 . S
C1524 H1549 0.950 . S
C1525 C1524 1.349 . S
C1525 C1541 1.349 . S
C1526 C1524 1.327 . S
C1526 C1545 1.429 . S
C1526 H1550 0.950 . S
C1527 C1544 1.574 1_565 S
C1527 C1546 1.368 . S
C1527 H1551 0.949 . S
H1528 C1532 0.949 . S
C1529 C1530 1.349 . S
C1529 C1531 1.327 . S
C1529 H1552 0.950 . S
C1530 C1529 1.349 . S
C1530 C1542 1.349 . S
C1531 C1529 1.327 . S
C1531 C1547 1.429 . S
C1531 H1553 0.950 . S
C1532 H1528 0.949 . S
C1532 C1540 1.574 1_545 S
C1532 C1548 1.368 . S
H1533 C1541 0.950 . S
H1534 C1539 0.950 . S
H1535 C1540 0.949 . S
H1536 C1542 0.950 . S
H1537 C1543 0.950 . S
H1538 C1544 0.949 . S
C1539 H1534 0.950 . S
C1539 C1541 1.327 . S
C1539 C1545 1.429 . S
C1540 C1532 1.574 1_565 S
C1540 H1535 0.949 . S
C1540 C1546 1.368 . S
C1541 C1525 1.349 . S
C1541 H1533 0.950 . S
C1541 C1539 1.327 . S
C1542 C1530 1.349 . S
C1542 H1536 0.950 . S
C1542 C1543 1.327 . S
C1543 H1537 0.950 . S
C1543 C1542 1.327 . S
C1543 C1547 1.429 . S
C1544 C1527 1.574 1_545 S
C1544 H1538 0.949 . S
C1544 C1548 1.368 . S
C1545 C1526 1.429 . S
C1545 C1539 1.429 . S
C1545 C1546 1.523 . S
C1546 C1527 1.368 . S
C1546 C1540 1.368 . S
C1546 C1545 1.523 . S
C1547 C1531 1.429 . S
C1547 C1543 1.429 . S
C1547 C1548 1.523 . S
C1548 C1532 1.368 . S
C1548 C1544 1.368 . S
C1548 C1547 1.523 . S
H1549 C1524 0.950 . S
H1550 C1526 0.950 . S
H1551 C1527 0.949 . S
H1552 C1529 0.950 . S
H1553 C1531 0.950 . S
C1554 C1555 1.349 . S
C1554 C1556 1.327 . S
C1554 H1579 0.950 . S
C1555 C1554 1.349 . S
C1555 C1571 1.349 . S
C1556 C1554 1.327 . S
C1556 C1575 1.429 . S
C1556 H1580 0.950 . S
C1557 C1574 1.574 1_655 S
C1557 C1576 1.368 . S
C1557 H1581 0.949 . S
H1558 C1562 0.949 . S
C1559 C1560 1.349 . S
C1559 C1561 1.327 . S
C1559 H1582 0.950 . S
C1560 C1559 1.349 . S
C1560 C1572 1.349 . S
C1561 C1559 1.327 . S
C1561 C1577 1.429 . S
C1561 H1583 0.950 . S
C1562 H1558 0.949 . S
C1562 C1570 1.574 1_455 S
C1562 C1578 1.368 . S
H1563 C1571 0.950 . S
H1564 C1569 0.950 . S
H1565 C1570 0.949 . S
H1566 C1572 0.950 . S
H1567 C1573 0.950 . S
H1568 C1574 0.949 . S
C1569 H1564 0.950 . S
C1569 C1571 1.327 . S
C1569 C1575 1.429 . S
C1570 C1562 1.574 1_655 S
C1570 H1565 0.949 . S
C1570 C1576 1.368 . S
C1571 C1555 1.349 . S
C1571 H1563 0.950 . S
C1571 C1569 1.327 . S
C1572 C1560 1.349 . S
C1572 H1566 0.950 . S
C1572 C1573 1.327 . S
C1573 H1567 0.950 . S
C1573 C1572 1.327 . S
C1573 C1577 1.429 . S
C1574 C1557 1.574 1_455 S
C1574 H1568 0.949 . S
C1574 C1578 1.368 . S
C1575 C1556 1.429 . S
C1575 C1569 1.429 . S
C1575 C1576 1.523 . S
C1576 C1557 1.368 . S
C1576 C1570 1.368 . S
C1576 C1575 1.523 . S
C1577 C1561 1.429 . S
C1577 C1573 1.429 . S
C1577 C1578 1.523 . S
C1578 C1562 1.368 . S
C1578 C1574 1.368 . S
C1578 C1577 1.523 . S
H1579 C1554 0.950 . S
H1580 C1556 0.950 . S
H1581 C1557 0.949 . S
H1582 C1559 0.950 . S
H1583 C1561 0.950 . S
C1584 C1585 1.349 . S
C1584 C1586 1.327 . S
C1584 H1609 0.950 1_455 S
C1585 C1584 1.349 . S
C1585 C1601 1.349 . S
C1586 C1584 1.327 . S
C1586 C1605 1.429 . S
C1586 H1610 0.950 . S
C1587 C1604 1.574 . S
C1587 C1606 1.368 . S
C1587 H1611 0.949 . S
H1588 C1592 0.949 . S
C1589 C1590 1.349 . S
C1589 C1591 1.327 . S
C1589 H1612 0.950 . S
C1590 C1589 1.349 . S
C1590 C1602 1.349 . S
C1591 C1589 1.327 . S
C1591 C1607 1.429 . S
C1591 H1613 0.950 . S
C1592 H1588 0.949 . S
C1592 C1600 1.574 . S
C1592 C1608 1.368 . S
H1593 C1601 0.950 . S
H1594 C1599 0.950 . S
H1595 C1600 0.949 . S
H1596 C1602 0.950 . S
H1597 C1603 0.950 . S
H1598 C1604 0.949 . S
C1599 H1594 0.950 . S
C1599 C1601 1.327 . S
C1599 C1605 1.429 . S
C1600 C1592 1.574 . S
C1600 H1595 0.949 . S
C1600 C1606 1.368 . S
C1601 C1585 1.349 . S
C1601 H1593 0.950 . S
C1601 C1599 1.327 . S
C1602 C1590 1.349 . S
C1602 H1596 0.950 . S
C1602 C1603 1.327 . S
C1603 H1597 0.950 . S
C1603 C1602 1.327 . S
C1603 C1607 1.429 . S
C1604 C1587 1.574 . S
C1604 H1598 0.949 . S
C1604 C1608 1.368 . S
C1605 C1586 1.429 . S
C1605 C1599 1.429 . S
C1605 C1606 1.523 . S
C1606 C1587 1.368 . S
C1606 C1600 1.368 . S
C1606 C1605 1.523 . S
C1607 C1591 1.429 . S
C1607 C1603 1.429 . S
C1607 C1608 1.523 . S
C1608 C1592 1.368 . S
C1608 C1604 1.368 . S
C1608 C1607 1.523 . S
H1609 C1584 0.950 1_655 S
H1610 C1586 0.950 . S
H1611 C1587 0.949 . S
H1612 C1589 0.950 . S
H1613 C1591 0.950 . S
C1614 C1615 1.349 . S
C1614 C1616 1.327 . S
C1614 H1639 0.950 . S
C1615 C1614 1.349 . S
C1615 C1631 1.349 . S
C1616 C1614 1.327 . S
C1616 C1635 1.429 . S
C1616 H1640 0.950 . S
C1617 C1634 1.574 . S
C1617 C1636 1.368 . S
C1617 H1641 0.949 . S
H1618 C1622 0.949 . S
C1619 C1620 1.349 . S
C1619 C1621 1.327 . S
C1619 H1642 0.950 . S
C1620 C1619 1.349 . S
C1620 C1632 1.349 . S
C1621 C1619 1.327 . S
C1621 C1637 1.429 . S
C1621 H1643 0.950 . S
C1622 H1618 0.949 . S
C1622 C1630 1.574 . S
C1622 C1638 1.368 . S
H1623 C1631 0.950 . S
H1624 C1629 0.950 . S
H1625 C1630 0.949 . S
H1626 C1632 0.950 . S
H1627 C1633 0.950 . S
H1628 C1634 0.949 . S
C1629 H1624 0.950 . S
C1629 C1631 1.327 . S
C1629 C1635 1.429 . S
C1630 C1622 1.574 . S
C1630 H1625 0.949 . S
C1630 C1636 1.368 . S
C1631 C1615 1.349 . S
C1631 H1623 0.950 . S
C1631 C1629 1.327 . S
C1632 C1620 1.349 . S
C1632 H1626 0.950 . S
C1632 C1633 1.327 . S
C1633 H1627 0.950 . S
C1633 C1632 1.327 . S
C1633 C1637 1.429 . S
C1634 C1617 1.574 . S
C1634 H1628 0.949 . S
C1634 C1638 1.368 . S
C1635 C1616 1.429 . S
C1635 C1629 1.429 . S
C1635 C1636 1.523 1_545 S
C1636 C1617 1.368 . S
C1636 C1630 1.368 . S
C1636 C1635 1.523 1_565 S
C1637 C1621 1.429 . S
C1637 C1633 1.429 . S
C1637 C1638 1.523 . S
C1638 C1622 1.368 . S
C1638 C1634 1.368 . S
C1638 C1637 1.523 . S
H1639 C1614 0.950 . S
H1640 C1616 0.950 . S
H1641 C1617 0.949 . S
H1642 C1619 0.950 . S
H1643 C1621 0.950 . S
C1644 C1645 1.349 . S
C1644 C1646 1.327 . S
C1644 H1669 0.950 . S
C1645 C1644 1.349 . S
C1645 C1661 1.349 . S
C1646 C1644 1.327 . S
C1646 C1665 1.429 . S
C1646 H1670 0.950 . S
C1647 C1664 1.574 . S
C1647 C1666 1.368 . S
C1647 H1671 0.949 . S
H1648 C1652 0.949 . S
C1649 C1650 1.349 . S
C1649 C1651 1.327 . S
C1649 H1672 0.950 . S
C1650 C1649 1.349 . S
C1650 C1662 1.349 . S
C1651 C1649 1.327 . S
C1651 C1667 1.429 . S
C1651 H1673 0.950 . S
C1652 H1648 0.949 . S
C1652 C1660 1.574 . S
C1652 C1668 1.368 . S
H1653 C1661 0.950 . S
H1654 C1659 0.950 . S
H1655 C1660 0.949 . S
H1656 C1662 0.950 1_545 S
H1657 C1663 0.950 . S
H1658 C1664 0.949 . S
C1659 H1654 0.950 . S
C1659 C1661 1.327 . S
C1659 C1665 1.429 . S
C1660 C1652 1.574 . S
C1660 H1655 0.949 . S
C1660 C1666 1.368 . S
C1661 C1645 1.349 . S
C1661 H1653 0.950 . S
C1661 C1659 1.327 . S
C1662 C1650 1.349 . S
C1662 H1656 0.950 1_565 S
C1662 C1663 1.327 . S
C1663 H1657 0.950 . S
C1663 C1662 1.327 . S
C1663 C1667 1.429 . S
C1664 C1647 1.574 . S
C1664 H1658 0.949 . S
C1664 C1668 1.368 . S
C1665 C1646 1.429 . S
C1665 C1659 1.429 . S
C1665 C1666 1.523 1_655 S
C1666 C1647 1.368 . S
C1666 C1660 1.368 . S
C1666 C1665 1.523 1_455 S
C1667 C1651 1.429 . S
C1667 C1663 1.429 . S
C1667 C1668 1.523 . S
C1668 C1652 1.368 . S
C1668 C1664 1.368 . S
C1668 C1667 1.523 . S
H1669 C1644 0.950 . S
H1670 C1646 0.950 . S
H1671 C1647 0.949 . S
H1672 C1649 0.950 . S
H1673 C1651 0.950 . S
C1674 C1675 1.349 . S
C1674 C1676 1.327 . S
C1674 H1699 0.950 . S
C1675 C1674 1.349 . S
C1675 C1691 1.349 . S
C1676 C1674 1.327 . S
C1676 C1695 1.429 . S
C1676 H1700 0.950 . S
C1677 C1694 1.574 . S
C1677 C1696 1.368 . S
C1677 H1701 0.949 . S
H1678 C1682 0.949 . S
C1679 C1680 1.349 . S
C1679 C1681 1.327 . S
C1679 H1702 0.950 1_545 S
C1680 C1679 1.349 . S
C1680 C1692 1.349 . S
C1681 C1679 1.327 . S
C1681 C1697 1.429 . S
C1681 H1703 0.950 . S
C1682 H1678 0.949 . S
C1682 C1690 1.574 . S
C1682 C1698 1.368 . S
H1683 C1691 0.950 . S
H1684 C1689 0.950 . S
H1685 C1690 0.949 . S
H1686 C1692 0.950 . S
H1687 C1693 0.950 . S
H1688 C1694 0.949 . S
C1689 H1684 0.950 . S
C1689 C1691 1.327 . S
C1689 C1695 1.429 . S
C1690 C1682 1.574 . S
C1690 H1685 0.949 . S
C1690 C1696 1.368 . S
C1691 C1675 1.349 . S
C1691 H1683 0.950 . S
C1691 C1689 1.327 . S
C1692 C1680 1.349 . S
C1692 H1686 0.950 . S
C1692 C1693 1.327 . S
C1693 H1687 0.950 . S
C1693 C1692 1.327 . S
C1693 C1697 1.429 . S
C1694 C1677 1.574 . S
C1694 H1688 0.949 . S
C1694 C1698 1.368 . S
C1695 C1676 1.429 . S
C1695 C1689 1.429 . S
C1695 C1696 1.523 . S
C1696 C1677 1.368 . S
C1696 C1690 1.368 . S
C1696 C1695 1.523 . S
C1697 C1681 1.429 . S
C1697 C1693 1.429 . S
C1697 C1698 1.523 . S
C1698 C1682 1.368 . S
C1698 C1694 1.368 . S
C1698 C1697 1.523 . S
H1699 C1674 0.950 . S
H1700 C1676 0.950 . S
H1701 C1677 0.949 . S
H1702 C1679 0.950 1_565 S
H1703 C1681 0.950 . S
C1704 C1705 1.349 . S
C1704 C1706 1.327 . S
C1704 H1729 0.950 . S
C1705 C1704 1.349 . S
C1705 C1721 1.349 . S
C1706 C1704 1.327 . S
C1706 C1725 1.429 . S
C1706 H1730 0.950 . S
C1707 C1724 1.574 . S
C1707 C1726 1.368 . S
C1707 H1731 0.949 . S
H1708 C1712 0.949 . S
C1709 C1710 1.349 . S
C1709 C1711 1.327 . S
C1709 H1732 0.950 . S
C1710 C1709 1.349 . S
C1710 C1722 1.349 . S
C1711 C1709 1.327 . S
C1711 C1727 1.429 . S
C1711 H1733 0.950 . S
C1712 H1708 0.949 . S
C1712 C1720 1.574 . S
C1712 C1728 1.368 . S
H1713 C1721 0.950 1_455 S
H1714 C1719 0.950 . S
H1715 C1720 0.949 . S
H1716 C1722 0.950 . S
H1717 C1723 0.950 . S
H1718 C1724 0.949 1_565 S
C1719 H1714 0.950 . S
C1719 C1721 1.327 . S
C1719 C1725 1.429 . S
C1720 C1712 1.574 . S
C1720 H1715 0.949 . S
C1720 C1726 1.368 . S
C1721 C1705 1.349 . S
C1721 H1713 0.950 1_655 S
C1721 C1719 1.327 . S
C1722 C1710 1.349 . S
C1722 H1716 0.950 . S
C1722 C1723 1.327 . S
C1723 H1717 0.950 . S
C1723 C1722 1.327 . S
C1723 C1727 1.429 . S
C1724 C1707 1.574 . S
C1724 H1718 0.949 1_545 S
C1724 C1728 1.368 . S
C1725 C1706 1.429 . S
C1725 C1719 1.429 . S
C1725 C1726 1.523 . S
C1726 C1707 1.368 . S
C1726 C1720 1.368 . S
C1726 C1725 1.523 . S
C1727 C1711 1.429 . S
C1727 C1723 1.429 . S
C1727 C1728 1.523 1_565 S
C1728 C1712 1.368 . S
C1728 C1724 1.368 . S
C1728 C1727 1.523 1_545 S
H1729 C1704 0.950 . S
H1730 C1706 0.950 . S
H1731 C1707 0.949 . S
H1732 C1709 0.950 . S
H1733 C1711 0.950 . S
C1734 C1735 1.349 . S
C1734 C1736 1.327 . S
C1734 H1759 0.950 . S
C1735 C1734 1.349 . S
C1735 C1751 1.349 . S
C1736 C1734 1.327 . S
C1736 C1755 1.429 . S
C1736 H1760 0.950 . S
C1737 C1754 1.574 . S
C1737 C1756 1.368 . S
C1737 H1761 0.949 1_655 S
H1738 C1742 0.949 . S
C1739 C1740 1.349 . S
C1739 C1741 1.327 . S
C1739 H1762 0.950 . S
C1740 C1739 1.349 . S
C1740 C1752 1.349 . S
C1741 C1739 1.327 . S
C1741 C1757 1.429 . S
C1741 H1763 0.950 . S
C1742 H1738 0.949 . S
C1742 C1750 1.574 . S
C1742 C1758 1.368 . S
H1743 C1751 0.950 . S
H1744 C1749 0.950 . S
H1745 C1750 0.949 . S
H1746 C1752 0.950 . S
H1747 C1753 0.950 . S
H1748 C1754 0.949 . S
C1749 H1744 0.950 . S
C1749 C1751 1.327 . S
C1749 C1755 1.429 . S
C1750 C1742 1.574 . S
C1750 H1745 0.949 . S
C1750 C1756 1.368 . S
C1751 C1735 1.349 . S
C1751 H1743 0.950 . S
C1751 C1749 1.327 . S
C1752 C1740 1.349 . S
C1752 H1746 0.950 . S
C1752 C1753 1.327 . S
C1753 H1747 0.950 . S
C1753 C1752 1.327 . S
C1753 C1757 1.429 . S
C1754 C1737 1.574 . S
C1754 H1748 0.949 . S
C1754 C1758 1.368 . S
C1755 C1736 1.429 . S
C1755 C1749 1.429 . S
C1755 C1756 1.523 1_455 S
C1756 C1737 1.368 . S
C1756 C1750 1.368 . S
C1756 C1755 1.523 1_655 S
C1757 C1741 1.429 . S
C1757 C1753 1.429 . S
C1757 C1758 1.523 . S
C1758 C1742 1.368 . S
C1758 C1754 1.368 . S
C1758 C1757 1.523 . S
H1759 C1734 0.950 . S
H1760 C1736 0.950 . S
H1761 C1737 0.949 1_455 S
H1762 C1739 0.950 . S
H1763 C1741 0.950 . S
C1764 C1765 1.349 . S
C1764 C1766 1.327 . S
C1764 H1789 0.950 . S
C1765 C1764 1.349 . S
C1765 C1781 1.349 . S
C1766 C1764 1.327 . S
C1766 C1785 1.429 . S
C1766 H1790 0.950 . S
C1767 C1784 1.574 . S
C1767 C1786 1.368 . S
C1767 H1791 0.949 . S
H1768 C1772 0.949 . S
C1769 C1770 1.349 . S
C1769 C1771 1.327 . S
C1769 H1792 0.950 1_655 S
C1770 C1769 1.349 . S
C1770 C1782 1.349 . S
C1771 C1769 1.327 . S
C1771 C1787 1.429 . S
C1771 H1793 0.950 . S
C1772 H1768 0.949 . S
C1772 C1780 1.574 . S
C1772 C1788 1.368 . S
H1773 C1781 0.950 . S
H1774 C1779 0.950 . S
H1775 C1780 0.949 . S
H1776 C1782 0.950 . S
H1777 C1783 0.950 . S
H1778 C1784 0.949 . S
C1779 H1774 0.950 . S
C1779 C1781 1.327 . S
C1779 C1785 1.429 . S
C1780 C1772 1.574 . S
C1780 H1775 0.949 . S
C1780 C1786 1.368 . S
C1781 C1765 1.349 . S
C1781 H1773 0.950 . S
C1781 C1779 1.327 . S
C1782 C1770 1.349 . S
C1782 H1776 0.950 . S
C1782 C1783 1.327 . S
C1783 H1777 0.950 . S
C1783 C1782 1.327 . S
C1783 C1787 1.429 . S
C1784 C1767 1.574 . S
C1784 H1778 0.949 . S
C1784 C1788 1.368 . S
C1785 C1766 1.429 . S
C1785 C1779 1.429 . S
C1785 C1786 1.523 . S
C1786 C1767 1.368 . S
C1786 C1780 1.368 . S
C1786 C1785 1.523 . S
C1787 C1771 1.429 . S
C1787 C1783 1.429 . S
C1787 C1788 1.523 . S
C1788 C1772 1.368 . S
C1788 C1784 1.368 . S
C1788 C1787 1.523 . S
H1789 C1764 0.950 . S
H1790 C1766 0.950 . S
H1791 C1767 0.949 . S
H1792 C1769 0.950 1_455 S
H1793 C1771 0.950 . S
C1794 C1795 1.349 . S
C1794 C1796 1.327 . S
C1794 H1819 0.950 . S
C1795 C1794 1.349 . S
C1795 C1811 1.349 . S
C1796 C1794 1.327 . S
C1796 C1815 1.429 . S
C1796 H1820 0.950 . S
C1797 C1814 1.574 . S
C1797 C1816 1.368 . S
C1797 H1821 0.949 1_545 S
H1798 C1802 0.949 . S
C1799 C1800 1.349 . S
C1799 C1801 1.327 . S
C1799 H1822 0.950 . S
C1800 C1799 1.349 . S
C1800 C1812 1.349 . S
C1801 C1799 1.327 . S
C1801 C1817 1.429 . S
C1801 H1823 0.950 . S
C1802 H1798 0.949 . S
C1802 C1810 1.574 . S
C1802 C1818 1.368 . S
H1803 C1811 0.950 . S
H1804 C1809 0.950 . S
H1805 C1810 0.949 . S
H1806 C1812 0.950 . S
H1807 C1813 0.950 . S
H1808 C1814 0.949 . S
C1809 H1804 0.950 . S
C1809 C1811 1.327 . S
C1809 C1815 1.429 . S
C1810 C1802 1.574 . S
C1810 H1805 0.949 . S
C1810 C1816 1.368 . S
C1811 C1795 1.349 . S
C1811 H1803 0.950 . S
C1811 C1809 1.327 . S
C1812 C1800 1.349 . S
C1812 H1806 0.950 . S
C1812 C1813 1.327 . S
C1813 H1807 0.950 . S
C1813 C1812 1.327 . S
C1813 C1817 1.429 . S
C1814 C1797 1.574 . S
C1814 H1808 0.949 . S
C1814 C1818 1.368 . S
C1815 C1796 1.429 . S
C1815 C1809 1.429 . S
C1815 C1816 1.523 1_565 S
C1816 C1797 1.368 . S
C1816 C1810 1.368 . S
C1816 C1815 1.523 1_545 S
C1817 C1801 1.429 . S
C1817 C1813 1.429 . S
C1817 C1818 1.523 . S
C1818 C1802 1.368 . S
C1818 C1814 1.368 . S
C1818 C1817 1.523 . S
H1819 C1794 0.950 . S
H1820 C1796 0.950 . S
H1821 C1797 0.949 1_565 S
H1822 C1799 0.950 . S
H1823 C1801 0.950 . S
C1824 C1825 1.349 . S
C1824 C1826 1.327 . S
C1824 H1849 0.950 . S
C1825 C1824 1.349 . S
C1825 C1841 1.349 . S
C1826 C1824 1.327 . S
C1826 C1845 1.429 . S
C1826 H1850 0.950 . S
C1827 C1844 1.574 . S
C1827 C1846 1.368 . S
C1827 H1851 0.949 1_655 S
H1828 C1832 0.949 . S
C1829 C1830 1.349 . S
C1829 C1831 1.327 . S
C1829 H1852 0.950 1_545 S
C1830 C1829 1.349 . S
C1830 C1842 1.349 . S
C1831 C1829 1.327 . S
C1831 C1847 1.429 . S
C1831 H1853 0.950 . S
C1832 H1828 0.949 . S
C1832 C1840 1.574 . S
C1832 C1848 1.368 . S
H1833 C1841 0.950 . S
H1834 C1839 0.950 . S
H1835 C1840 0.949 . S
H1836 C1842 0.950 . S
H1837 C1843 0.950 . S
H1838 C1844 0.949 . S
C1839 H1834 0.950 . S
C1839 C1841 1.327 . S
C1839 C1845 1.429 . S
C1840 C1832 1.574 . S
C1840 H1835 0.949 . S
C1840 C1846 1.368 . S
C1841 C1825 1.349 . S
C1841 H1833 0.950 . S
C1841 C1839 1.327 . S
C1842 C1830 1.349 . S
C1842 H1836 0.950 . S
C1842 C1843 1.327 . S
C1843 H1837 0.950 . S
C1843 C1842 1.327 . S
C1843 C1847 1.429 . S
C1844 C1827 1.574 . S
C1844 H1838 0.949 . S
C1844 C1848 1.368 . S
C1845 C1826 1.429 . S
C1845 C1839 1.429 . S
C1845 C1846 1.523 1_455 S
C1846 C1827 1.368 . S
C1846 C1840 1.368 . S
C1846 C1845 1.523 1_655 S
C1847 C1831 1.429 . S
C1847 C1843 1.429 . S
C1847 C1848 1.523 . S
C1848 C1832 1.368 . S
C1848 C1844 1.368 . S
C1848 C1847 1.523 . S
H1849 C1824 0.950 . S
H1850 C1826 0.950 . S
H1851 C1827 0.949 1_455 S
H1852 C1829 0.950 1_565 S
H1853 C1831 0.950 . S
C1854 C1855 1.349 . S
C1854 C1856 1.327 . S
C1854 H1879 0.950 . S
C1855 C1854 1.349 . S
C1855 C1871 1.349 . S
C1856 C1854 1.327 . S
C1856 C1875 1.429 . S
C1856 H1880 0.950 . S
C1857 C1874 1.574 . S
C1857 C1876 1.368 . S
C1857 H1881 0.949 . S
H1858 C1862 0.949 . S
C1859 C1860 1.349 . S
C1859 C1861 1.327 . S
C1859 H1882 0.950 . S
C1860 C1859 1.349 . S
C1860 C1872 1.349 . S
C1861 C1859 1.327 . S
C1861 C1877 1.429 . S
C1861 H1883 0.950 . S
C1862 H1858 0.949 . S
C1862 C1870 1.574 . S
C1862 C1878 1.368 . S
H1863 C1871 0.950 1_545 S
H1864 C1869 0.950 . S
H1865 C1870 0.949 . S
H1866 C1872 0.950 . S
H1867 C1873 0.950 . S
H1868 C1874 0.949 . S
C1869 H1864 0.950 . S
C1869 C1871 1.327 . S
C1869 C1875 1.429 . S
C1870 C1862 1.574 . S
C1870 H1865 0.949 . S
C1870 C1876 1.368 . S
C1871 C1855 1.349 . S
C1871 H1863 0.950 1_565 S
C1871 C1869 1.327 . S
C1872 C1860 1.349 . S
C1872 H1866 0.950 . S
C1872 C1873 1.327 . S
C1873 H1867 0.950 . S
C1873 C1872 1.327 . S
C1873 C1877 1.429 . S
C1874 C1857 1.574 . S
C1874 H1868 0.949 . S
C1874 C1878 1.368 . S
C1875 C1856 1.429 . S
C1875 C1869 1.429 . S
C1875 C1876 1.523 . S
C1876 C1857 1.368 . S
C1876 C1870 1.368 . S
C1876 C1875 1.523 . S
C1877 C1861 1.429 . S
C1877 C1873 1.429 . S
C1877 C1878 1.523 . S
C1878 C1862 1.368 . S
C1878 C1874 1.368 . S
C1878 C1877 1.523 . S
H1879 C1854 0.950 . S
H1880 C1856 0.950 . S
H1881 C1857 0.949 . S
H1882 C1859 0.950 . S
H1883 C1861 0.950 . S
C1884 C1885 1.349 . S
C1884 C1886 1.327 . S
C1884 H1909 0.950 . S
C1885 C1884 1.349 . S
C1885 C1901 1.349 . S
C1886 C1884 1.327 . S
C1886 C1905 1.429 . S
C1886 H1910 0.950 . S
C1887 C1904 1.574 . S
C1887 C1906 1.368 . S
C1887 H1911 0.949 1_565 S
H1888 C1892 0.949 . S
C1889 C1890 1.349 . S
C1889 C1891 1.327 . S
C1889 H1912 0.950 1_455 S
C1890 C1889 1.349 . S
C1890 C1902 1.349 . S
C1891 C1889 1.327 . S
C1891 C1907 1.429 . S
C1891 H1913 0.950 . S
C1892 H1888 0.949 . S
C1892 C1900 1.574 . S
C1892 C1908 1.368 . S
H1893 C1901 0.950 . S
H1894 C1899 0.950 . S
H1895 C1900 0.949 . S
H1896 C1902 0.950 . S
H1897 C1903 0.950 . S
H1898 C1904 0.949 . S
C1899 H1894 0.950 . S
C1899 C1901 1.327 . S
C1899 C1905 1.429 . S
C1900 C1892 1.574 . S
C1900 H1895 0.949 . S
C1900 C1906 1.368 . S
C1901 C1885 1.349 . S
C1901 H1893 0.950 . S
C1901 C1899 1.327 . S
C1902 C1890 1.349 . S
C1902 H1896 0.950 . S
C1902 C1903 1.327 . S
C1903 H1897 0.950 . S
C1903 C1902 1.327 . S
C1903 C1907 1.429 . S
C1904 C1887 1.574 . S
C1904 H1898 0.949 . S
C1904 C1908 1.368 . S
C1905 C1886 1.429 . S
C1905 C1899 1.429 . S
C1905 C1906 1.523 1_545 S
C1906 C1887 1.368 . S
C1906 C1900 1.368 . S
C1906 C1905 1.523 1_565 S
C1907 C1891 1.429 . S
C1907 C1903 1.429 . S
C1907 C1908 1.523 . S
C1908 C1892 1.368 . S
C1908 C1904 1.368 . S
C1908 C1907 1.523 . S
H1909 C1884 0.950 . S
H1910 C1886 0.950 . S
H1911 C1887 0.949 1_545 S
H1912 C1889 0.950 1_655 S
H1913 C1891 0.950 . S
C1914 C1915 1.349 . S
C1914 C1916 1.327 . S
C1914 H1939 0.950 . S
C1915 C1914 1.349 . S
C1915 C1931 1.349 . S
C1916 C1914 1.327 . S
C1916 C1935 1.429 . S
C1916 H1940 0.950 . S
C1917 C1934 1.574 . S
C1917 C1936 1.368 . S
C1917 H1941 0.949 . S
H1918 C1922 0.949 . S
C1919 C1920 1.349 . S
C1919 C1921 1.327 . S
C1919 H1942 0.950 . S
C1920 C1919 1.349 . S
C1920 C1932 1.349 . S
C1921 C1919 1.327 . S
C1921 C1937 1.429 . S
C1921 H1943 0.950 . S
C1922 H1918 0.949 . S
C1922 C1930 1.574 . S
C1922 C1938 1.368 . S
H1923 C1931 0.950 . S
H1924 C1929 0.950 . S
H1925 C1930 0.949 . S
H1926 C1932 0.950 . S
H1927 C1933 0.950 . S
H1928 C1934 0.949 . S
C1929 H1924 0.950 . S
C1929 C1931 1.327 . S
C1929 C1935 1.429 . S
C1930 C1922 1.574 . S
C1930 H1925 0.949 . S
C1930 C1936 1.368 . S
C1931 C1915 1.349 . S
C1931 H1923 0.950 . S
C1931 C1929 1.327 . S
C1932 C1920 1.349 . S
C1932 H1926 0.950 . S
C1932 C1933 1.327 . S
C1933 H1927 0.950 . S
C1933 C1932 1.327 . S
C1933 C1937 1.429 . S
C1934 C1917 1.574 . S
C1934 H1928 0.949 . S
C1934 C1938 1.368 . S
C1935 C1916 1.429 . S
C1935 C1929 1.429 . S
C1935 C1936 1.523 . S
C1936 C1917 1.368 . S
C1936 C1930 1.368 . S
C1936 C1935 1.523 . S
C1937 C1921 1.429 . S
C1937 C1933 1.429 . S
C1937 C1938 1.523 1_655 S
C1938 C1922 1.368 . S
C1938 C1934 1.368 . S
C1938 C1937 1.523 1_455 S
H1939 C1914 0.950 . S
H1940 C1916 0.950 . S
H1941 C1917 0.949 . S
H1942 C1919 0.950 . S
H1943 C1921 0.950 . S
C1944 C1945 1.349 . S
C1944 C1946 1.327 . S
C1944 H1969 0.950 . S
C1945 C1944 1.349 . S
C1945 C1961 1.349 . S
C1946 C1944 1.327 . S
C1946 C1965 1.429 . S
C1946 H1970 0.950 . S
C1947 C1964 1.574 . S
C1947 C1966 1.368 . S
C1947 H1971 0.949 . S
H1948 C1952 0.949 . S
C1949 C1950 1.349 . S
C1949 C1951 1.327 . S
C1949 H1972 0.950 . S
C1950 C1949 1.349 . S
C1950 C1962 1.349 . S
C1951 C1949 1.327 . S
C1951 C1967 1.429 . S
C1951 H1973 0.950 . S
C1952 H1948 0.949 . S
C1952 C1960 1.574 . S
C1952 C1968 1.368 . S
H1953 C1961 0.950 . S
H1954 C1959 0.950 . S
H1955 C1960 0.949 . S
H1956 C1962 0.950 . S
H1957 C1963 0.950 . S
H1958 C1964 0.949 . S
C1959 H1954 0.950 . S
C1959 C1961 1.327 . S
C1959 C1965 1.429 . S
C1960 C1952 1.574 . S
C1960 H1955 0.949 . S
C1960 C1966 1.368 . S
C1961 C1945 1.349 . S
C1961 H1953 0.950 . S
C1961 C1959 1.327 . S
C1962 C1950 1.349 . S
C1962 H1956 0.950 . S
C1962 C1963 1.327 . S
C1963 H1957 0.950 . S
C1963 C1962 1.327 . S
C1963 C1967 1.429 . S
C1964 C1947 1.574 . S
C1964 H1958 0.949 . S
C1964 C1968 1.368 . S
C1965 C1946 1.429 . S
C1965 C1959 1.429 . S
C1965 C1966 1.523 . S
C1966 C1947 1.368 . S
C1966 C1960 1.368 . S
C1966 C1965 1.523 . S
C1967 C1951 1.429 . S
C1967 C1963 1.429 . S
C1967 C1968 1.523 . S
C1968 C1952 1.368 . S
C1968 C1964 1.368 . S
C1968 C1967 1.523 . S
H1969 C1944 0.950 . S
H1970 C1946 0.950 . S
H1971 C1947 0.949 . S
H1972 C1949 0.950 . S
H1973 C1951 0.950 . S
C1974 C1975 1.349 . S
C1974 C1976 1.327 . S
C1974 H1999 0.950 . S
C1975 C1974 1.349 . S
C1975 C1991 1.349 . S
C1976 C1974 1.327 . S
C1976 C1995 1.429 . S
C1976 H2000 0.950 . S
C1977 C1994 1.574 . S
C1977 C1996 1.368 . S
C1977 H2001 0.949 . S
H1978 C1982 0.949 . S
C1979 C1980 1.349 . S
C1979 C1981 1.327 . S
C1979 H2002 0.950 . S
C1980 C1979 1.349 . S
C1980 C1992 1.349 . S
C1981 C1979 1.327 . S
C1981 C1997 1.429 . S
C1981 H2003 0.950 . S
C1982 H1978 0.949 . S
C1982 C1990 1.574 . S
C1982 C1998 1.368 . S
H1983 C1991 0.950 . S
H1984 C1989 0.950 . S
H1985 C1990 0.949 . S
H1986 C1992 0.950 . S
H1987 C1993 0.950 . S
H1988 C1994 0.949 . S
C1989 H1984 0.950 . S
C1989 C1991 1.327 . S
C1989 C1995 1.429 . S
C1990 C1982 1.574 . S
C1990 H1985 0.949 . S
C1990 C1996 1.368 . S
C1991 C1975 1.349 . S
C1991 H1983 0.950 . S
C1991 C1989 1.327 . S
C1992 C1980 1.349 . S
C1992 H1986 0.950 . S
C1992 C1993 1.327 . S
C1993 H1987 0.950 . S
C1993 C1992 1.327 . S
C1993 C1997 1.429 . S
C1994 C1977 1.574 . S
C1994 H1988 0.949 . S
C1994 C1998 1.368 . S
C1995 C1976 1.429 . S
C1995 C1989 1.429 . S
C1995 C1996 1.523 . S
C1996 C1977 1.368 . S
C1996 C1990 1.368 . S
C1996 C1995 1.523 . S
C1997 C1981 1.429 . S
C1997 C1993 1.429 . S
C1997 C1998 1.523 . S
C1998 C1982 1.368 . S
C1998 C1994 1.368 . S
C1998 C1997 1.523 . S
H1999 C1974 0.950 . S
H2000 C1976 0.950 . S
H2001 C1977 0.949 . S
H2002 C1979 0.950 . S
H2003 C1981 0.950 . S
C2004 C2005 1.349 . S
C2004 C2006 1.327 . S
C2004 H2029 0.950 . S
C2005 C2004 1.349 . S
C2005 C2021 1.349 . S
C2006 C2004 1.327 . S
C2006 C2025 1.429 . S
C2006 H2030 0.950 . S
C2007 C2024 1.574 . S
C2007 C2026 1.368 . S
C2007 H2031 0.949 . S
H2008 C2012 0.949 . S
C2009 C2010 1.349 . S
C2009 C2011 1.327 . S
C2009 H2032 0.950 . S
C2010 C2009 1.349 . S
C2010 C2022 1.349 . S
C2011 C2009 1.327 . S
C2011 C2027 1.429 . S
C2011 H2033 0.950 . S
C2012 H2008 0.949 . S
C2012 C2020 1.574 . S
C2012 C2028 1.368 . S
H2013 C2021 0.950 . S
H2014 C2019 0.950 . S
H2015 C2020 0.949 . S
H2016 C2022 0.950 . S
H2017 C2023 0.950 . S
H2018 C2024 0.949 . S
C2019 H2014 0.950 . S
C2019 C2021 1.327 . S
C2019 C2025 1.429 . S
C2020 C2012 1.574 . S
C2020 H2015 0.949 . S
C2020 C2026 1.368 . S
C2021 C2005 1.349 . S
C2021 H2013 0.950 . S
C2021 C2019 1.327 . S
C2022 C2010 1.349 . S
C2022 H2016 0.950 . S
C2022 C2023 1.327 . S
C2023 H2017 0.950 . S
C2023 C2022 1.327 . S
C2023 C2027 1.429 . S
C2024 C2007 1.574 . S
C2024 H2018 0.949 . S
C2024 C2028 1.368 . S
C2025 C2006 1.429 . S
C2025 C2019 1.429 . S
C2025 C2026 1.523 . S
C2026 C2007 1.368 . S
C2026 C2020 1.368 . S
C2026 C2025 1.523 . S
C2027 C2011 1.429 . S
C2027 C2023 1.429 . S
C2027 C2028 1.523 . S
C2028 C2012 1.368 . S
C2028 C2024 1.368 . S
C2028 C2027 1.523 . S
H2029 C2004 0.950 . S
H2030 C2006 0.950 . S
H2031 C2007 0.949 . S
H2032 C2009 0.950 . S
H2033 C2011 0.950 . S
C2034 C2035 1.349 . S
C2034 C2036 1.327 . S
C2034 H2059 0.950 . S
C2035 C2034 1.349 . S
C2035 C2051 1.349 . S
C2036 C2034 1.327 . S
C2036 C2055 1.429 . S
C2036 H2060 0.950 . S
C2037 C2054 1.574 . S
C2037 C2056 1.368 . S
C2037 H2061 0.949 . S
H2038 C2042 0.949 . S
C2039 C2040 1.349 . S
C2039 C2041 1.327 . S
C2039 H2062 0.950 . S
C2040 C2039 1.349 . S
C2040 C2052 1.349 . S
C2041 C2039 1.327 . S
C2041 C2057 1.429 . S
C2041 H2063 0.950 . S
C2042 H2038 0.949 . S
C2042 C2050 1.574 . S
C2042 C2058 1.368 . S
H2043 C2051 0.950 . S
H2044 C2049 0.950 . S
H2045 C2050 0.949 . S
H2046 C2052 0.950 . S
H2047 C2053 0.950 . S
H2048 C2054 0.949 . S
C2049 H2044 0.950 . S
C2049 C2051 1.327 . S
C2049 C2055 1.429 . S
C2050 C2042 1.574 . S
C2050 H2045 0.949 . S
C2050 C2056 1.368 . S
C2051 C2035 1.349 . S
C2051 H2043 0.950 . S
C2051 C2049 1.327 . S
C2052 C2040 1.349 . S
C2052 H2046 0.950 . S
C2052 C2053 1.327 . S
C2053 H2047 0.950 . S
C2053 C2052 1.327 . S
C2053 C2057 1.429 . S
C2054 C2037 1.574 . S
C2054 H2048 0.949 . S
C2054 C2058 1.368 . S
C2055 C2036 1.429 . S
C2055 C2049 1.429 . S
C2055 C2056 1.523 . S
C2056 C2037 1.368 . S
C2056 C2050 1.368 . S
C2056 C2055 1.523 . S
C2057 C2041 1.429 . S
C2057 C2053 1.429 . S
C2057 C2058 1.523 . S
C2058 C2042 1.368 . S
C2058 C2054 1.368 . S
C2058 C2057 1.523 . S
H2059 C2034 0.950 . S
H2060 C2036 0.950 . S
H2061 C2037 0.949 . S
H2062 C2039 0.950 . S
H2063 C2041 0.950 . S
C2064 C2065 1.349 . S
C2064 C2066 1.327 . S
C2064 H2089 0.950 . S
C2065 C2064 1.349 . S
C2065 C2081 1.349 . S
C2066 C2064 1.327 . S
C2066 C2085 1.429 . S
C2066 H2090 0.950 . S
C2067 C2084 1.574 . S
C2067 C2086 1.368 . S
C2067 H2091 0.949 . S
H2068 C2072 0.949 . S
C2069 C2070 1.349 . S
C2069 C2071 1.327 . S
C2069 H2092 0.950 . S
C2070 C2069 1.349 . S
C2070 C2082 1.349 . S
C2071 C2069 1.327 . S
C2071 C2087 1.429 . S
C2071 H2093 0.950 . S
C2072 H2068 0.949 . S
C2072 C2080 1.574 . S
C2072 C2088 1.368 . S
H2073 C2081 0.950 . S
H2074 C2079 0.950 . S
H2075 C2080 0.949 . S
H2076 C2082 0.950 . S
H2077 C2083 0.950 . S
H2078 C2084 0.949 . S
C2079 H2074 0.950 . S
C2079 C2081 1.327 . S
C2079 C2085 1.429 . S
C2080 C2072 1.574 . S
C2080 H2075 0.949 . S
C2080 C2086 1.368 . S
C2081 C2065 1.349 . S
C2081 H2073 0.950 . S
C2081 C2079 1.327 . S
C2082 C2070 1.349 . S
C2082 H2076 0.950 . S
C2082 C2083 1.327 . S
C2083 H2077 0.950 . S
C2083 C2082 1.327 . S
C2083 C2087 1.429 . S
C2084 C2067 1.574 . S
C2084 H2078 0.949 . S
C2084 C2088 1.368 . S
C2085 C2066 1.429 . S
C2085 C2079 1.429 . S
C2085 C2086 1.523 . S
C2086 C2067 1.368 . S
C2086 C2080 1.368 . S
C2086 C2085 1.523 . S
C2087 C2071 1.429 . S
C2087 C2083 1.429 . S
C2087 C2088 1.523 . S
C2088 C2072 1.368 . S
C2088 C2084 1.368 . S
C2088 C2087 1.523 . S
H2089 C2064 0.950 . S
H2090 C2066 0.950 . S
H2091 C2067 0.949 . S
H2092 C2069 0.950 . S
H2093 C2071 0.950 . S
C2094 C2095 1.349 . S
C2094 C2096 1.327 . S
C2094 H2119 0.950 . S
C2095 C2094 1.349 . S
C2095 C2111 1.349 . S
C2096 C2094 1.327 . S
C2096 C2115 1.429 . S
C2096 H2120 0.950 . S
C2097 C2114 1.574 . S
C2097 C2116 1.368 . S
C2097 H2121 0.949 . S
H2098 C2102 0.949 . S
C2099 C2100 1.349 . S
C2099 C2101 1.327 . S
C2099 H2122 0.950 . S
C2100 C2099 1.349 . S
C2100 C2112 1.349 . S
C2101 C2099 1.327 . S
C2101 C2117 1.429 . S
C2101 H2123 0.950 . S
C2102 H2098 0.949 . S
C2102 C2110 1.574 . S
C2102 C2118 1.368 . S
H2103 C2111 0.950 . S
H2104 C2109 0.950 . S
H2105 C2110 0.949 . S
H2106 C2112 0.950 . S
H2107 C2113 0.950 . S
H2108 C2114 0.949 . S
C2109 H2104 0.950 . S
C2109 C2111 1.327 . S
C2109 C2115 1.429 . S
C2110 C2102 1.574 . S
C2110 H2105 0.949 . S
C2110 C2116 1.368 . S
C2111 C2095 1.349 . S
C2111 H2103 0.950 . S
C2111 C2109 1.327 . S
C2112 C2100 1.349 . S
C2112 H2106 0.950 . S
C2112 C2113 1.327 . S
C2113 H2107 0.950 . S
C2113 C2112 1.327 . S
C2113 C2117 1.429 . S
C2114 C2097 1.574 . S
C2114 H2108 0.949 . S
C2114 C2118 1.368 . S
C2115 C2096 1.429 . S
C2115 C2109 1.429 . S
C2115 C2116 1.523 . S
C2116 C2097 1.368 . S
C2116 C2110 1.368 . S
C2116 C2115 1.523 . S
C2117 C2101 1.429 . S
C2117 C2113 1.429 . S
C2117 C2118 1.523 . S
C2118 C2102 1.368 . S
C2118 C2114 1.368 . S
C2118 C2117 1.523 . S
H2119 C2094 0.950 . S
H2120 C2096 0.950 . S
H2121 C2097 0.949 . S
H2122 C2099 0.950 . S
H2123 C2101 0.950 . S
C2124 C2125 1.349 . S
C2124 C2126 1.327 . S
C2124 H2149 0.950 . S
C2125 C2124 1.349 . S
C2125 C2141 1.349 . S
C2126 C2124 1.327 . S
C2126 C2145 1.429 . S
C2126 H2150 0.950 . S
C2127 C2144 1.574 . S
C2127 C2146 1.368 . S
C2127 H2151 0.949 . S
H2128 C2132 0.949 . S
C2129 C2130 1.349 . S
C2129 C2131 1.327 . S
C2129 H2152 0.950 . S
C2130 C2129 1.349 . S
C2130 C2142 1.349 . S
C2131 C2129 1.327 . S
C2131 C2147 1.429 . S
C2131 H2153 0.950 . S
C2132 H2128 0.949 . S
C2132 C2140 1.574 . S
C2132 C2148 1.368 . S
H2133 C2141 0.950 . S
H2134 C2139 0.950 . S
H2135 C2140 0.949 . S
H2136 C2142 0.950 . S
H2137 C2143 0.950 . S
H2138 C2144 0.949 . S
C2139 H2134 0.950 . S
C2139 C2141 1.327 . S
C2139 C2145 1.429 . S
C2140 C2132 1.574 . S
C2140 H2135 0.949 . S
C2140 C2146 1.368 . S
C2141 C2125 1.349 . S
C2141 H2133 0.950 . S
C2141 C2139 1.327 . S
C2142 C2130 1.349 . S
C2142 H2136 0.950 . S
C2142 C2143 1.327 . S
C2143 H2137 0.950 . S
C2143 C2142 1.327 . S
C2143 C2147 1.429 . S
C2144 C2127 1.574 . S
C2144 H2138 0.949 . S
C2144 C2148 1.368 . S
C2145 C2126 1.429 . S
C2145 C2139 1.429 . S
C2145 C2146 1.523 . S
C2146 C2127 1.368 . S
C2146 C2140 1.368 . S
C2146 C2145 1.523 . S
C2147 C2131 1.429 . S
C2147 C2143 1.429 . S
C2147 C2148 1.523 . S
C2148 C2132 1.368 . S
C2148 C2144 1.368 . S
C2148 C2147 1.523 . S
H2149 C2124 0.950 . S
H2150 C2126 0.950 . S
H2151 C2127 0.949 . S
H2152 C2129 0.950 . S
H2153 C2131 0.950 . S
C2154 C2155 1.349 . S
C2154 C2156 1.327 . S
C2154 H2179 0.950 . S
C2155 C2154 1.349 . S
C2155 C2171 1.349 . S
C2156 C2154 1.327 . S
C2156 C2175 1.429 . S
C2156 H2180 0.950 . S
C2157 C2174 1.574 . S
C2157 C2176 1.368 . S
C2157 H2181 0.949 . S
H2158 C2162 0.949 . S
C2159 C2160 1.349 . S
C2159 C2161 1.327 . S
C2159 H2182 0.950 . S
C2160 C2159 1.349 . S
C2160 C2172 1.349 . S
C2161 C2159 1.327 . S
C2161 C2177 1.429 . S
C2161 H2183 0.950 . S
C2162 H2158 0.949 . S
C2162 C2170 1.574 . S
C2162 C2178 1.368 . S
H2163 C2171 0.950 . S
H2164 C2169 0.950 . S
H2165 C2170 0.949 . S
H2166 C2172 0.950 . S
H2167 C2173 0.950 . S
H2168 C2174 0.949 . S
C2169 H2164 0.950 . S
C2169 C2171 1.327 . S
C2169 C2175 1.429 . S
C2170 C2162 1.574 . S
C2170 H2165 0.949 . S
C2170 C2176 1.368 . S
C2171 C2155 1.349 . S
C2171 H2163 0.950 . S
C2171 C2169 1.327 . S
C2172 C2160 1.349 . S
C2172 H2166 0.950 . S
C2172 C2173 1.327 . S
C2173 H2167 0.950 . S
C2173 C2172 1.327 . S
C2173 C2177 1.429 . S
C2174 C2157 1.574 . S
C2174 H2168 0.949 . S
C2174 C2178 1.368 . S
C2175 C2156 1.429 . S
C2175 C2169 1.429 . S
C2175 C2176 1.523 . S
C2176 C2157 1.368 . S
C2176 C2170 1.368 . S
C2176 C2175 1.523 . S
C2177 C2161 1.429 . S
C2177 C2173 1.429 . S
C2177 C2178 1.523 . S
C2178 C2162 1.368 . S
C2178 C2174 1.368 . S
C2178 C2177 1.523 . S
H2179 C2154 0.950 . S
H2180 C2156 0.950 . S
H2181 C2157 0.949 . S
H2182 C2159 0.950 . S
H2183 C2161 0.950 . S
C2184 C2185 1.349 . S
C2184 C2186 1.327 . S
C2184 H2209 0.950 . S
C2185 C2184 1.349 . S
C2185 C2201 1.349 . S
C2186 C2184 1.327 . S
C2186 C2205 1.429 . S
C2186 H2210 0.950 . S
C2187 C2204 1.574 . S
C2187 C2206 1.368 . S
C2187 H2211 0.949 . S
H2188 C2192 0.949 . S
C2189 C2190 1.349 . S
C2189 C2191 1.327 . S
C2189 H2212 0.950 . S
C2190 C2189 1.349 . S
C2190 C2202 1.349 . S
C2191 C2189 1.327 . S
C2191 C2207 1.429 . S
C2191 H2213 0.950 . S
C2192 H2188 0.949 . S
C2192 C2200 1.574 . S
C2192 C2208 1.368 . S
H2193 C2201 0.950 . S
H2194 C2199 0.950 . S
H2195 C2200 0.949 . S
H2196 C2202 0.950 . S
H2197 C2203 0.950 . S
H2198 C2204 0.949 . S
C2199 H2194 0.950 . S
C2199 C2201 1.327 . S
C2199 C2205 1.429 . S
C2200 C2192 1.574 . S
C2200 H2195 0.949 . S
C2200 C2206 1.368 . S
C2201 C2185 1.349 . S
C2201 H2193 0.950 . S
C2201 C2199 1.327 . S
C2202 C2190 1.349 . S
C2202 H2196 0.950 . S
C2202 C2203 1.327 . S
C2203 H2197 0.950 . S
C2203 C2202 1.327 . S
C2203 C2207 1.429 . S
C2204 C2187 1.574 . S
C2204 H2198 0.949 . S
C2204 C2208 1.368 . S
C2205 C2186 1.429 . S
C2205 C2199 1.429 . S
C2205 C2206 1.523 . S
C2206 C2187 1.368 . S
C2206 C2200 1.368 . S
C2206 C2205 1.523 . S
C2207 C2191 1.429 . S
C2207 C2203 1.429 . S
C2207 C2208 1.523 . S
C2208 C2192 1.368 . S
C2208 C2204 1.368 . S
C2208 C2207 1.523 . S
H2209 C2184 0.950 . S
H2210 C2186 0.950 . S
H2211 C2187 0.949 . S
H2212 C2189 0.950 . S
H2213 C2191 0.950 . S
C2214 C2215 1.349 . S
C2214 C2216 1.327 . S
C2214 H2239 0.950 . S
C2215 C2214 1.349 . S
C2215 C2231 1.349 . S
C2216 C2214 1.327 . S
C2216 C2235 1.429 . S
C2216 H2240 0.950 . S
C2217 C2234 1.574 . S
C2217 C2236 1.368 . S
C2217 H2241 0.949 . S
H2218 C2222 0.949 . S
C2219 C2220 1.349 . S
C2219 C2221 1.327 . S
C2219 H2242 0.950 . S
C2220 C2219 1.349 . S
C2220 C2232 1.349 . S
C2221 C2219 1.327 . S
C2221 C2237 1.429 . S
C2221 H2243 0.950 . S
C2222 H2218 0.949 . S
C2222 C2230 1.574 . S
C2222 C2238 1.368 . S
H2223 C2231 0.950 . S
H2224 C2229 0.950 . S
H2225 C2230 0.949 . S
H2226 C2232 0.950 . S
H2227 C2233 0.950 . S
H2228 C2234 0.949 . S
C2229 H2224 0.950 . S
C2229 C2231 1.327 . S
C2229 C2235 1.429 . S
C2230 C2222 1.574 . S
C2230 H2225 0.949 . S
C2230 C2236 1.368 . S
C2231 C2215 1.349 . S
C2231 H2223 0.950 . S
C2231 C2229 1.327 . S
C2232 C2220 1.349 . S
C2232 H2226 0.950 . S
C2232 C2233 1.327 . S
C2233 H2227 0.950 . S
C2233 C2232 1.327 . S
C2233 C2237 1.429 . S
C2234 C2217 1.574 . S
C2234 H2228 0.949 . S
C2234 C2238 1.368 . S
C2235 C2216 1.429 . S
C2235 C2229 1.429 . S
C2235 C2236 1.523 . S
C2236 C2217 1.368 . S
C2236 C2230 1.368 . S
C2236 C2235 1.523 . S
C2237 C2221 1.429 . S
C2237 C2233 1.429 . S
C2237 C2238 1.523 . S
C2238 C2222 1.368 . S
C2238 C2234 1.368 . S
C2238 C2237 1.523 . S
H2239 C2214 0.950 . S
H2240 C2216 0.950 . S
H2241 C2217 0.949 . S
H2242 C2219 0.950 . S
H2243 C2221 0.950 . S
C2244 C2245 1.349 . S
C2244 C2246 1.327 . S
C2244 H2269 0.950 . S
C2245 C2244 1.349 . S
C2245 C2261 1.349 . S
C2246 C2244 1.327 . S
C2246 C2265 1.429 . S
C2246 H2270 0.950 . S
C2247 C2264 1.574 . S
C2247 C2266 1.368 . S
C2247 H2271 0.949 . S
H2248 C2252 0.949 . S
C2249 C2250 1.349 . S
C2249 C2251 1.327 . S
C2249 H2272 0.950 . S
C2250 C2249 1.349 . S
C2250 C2262 1.349 . S
C2251 C2249 1.327 . S
C2251 C2267 1.429 . S
C2251 H2273 0.950 . S
C2252 H2248 0.949 . S
C2252 C2260 1.574 . S
C2252 C2268 1.368 . S
H2253 C2261 0.950 . S
H2254 C2259 0.950 . S
H2255 C2260 0.949 . S
H2256 C2262 0.950 . S
H2257 C2263 0.950 . S
H2258 C2264 0.949 . S
C2259 H2254 0.950 . S
C2259 C2261 1.327 . S
C2259 C2265 1.429 . S
C2260 C2252 1.574 . S
C2260 H2255 0.949 . S
C2260 C2266 1.368 . S
C2261 C2245 1.349 . S
C2261 H2253 0.950 . S
C2261 C2259 1.327 . S
C2262 C2250 1.349 . S
C2262 H2256 0.950 . S
C2262 C2263 1.327 . S
C2263 H2257 0.950 . S
C2263 C2262 1.327 . S
C2263 C2267 1.429 . S
C2264 C2247 1.574 . S
C2264 H2258 0.949 . S
C2264 C2268 1.368 . S
C2265 C2246 1.429 . S
C2265 C2259 1.429 . S
C2265 C2266 1.523 . S
C2266 C2247 1.368 . S
C2266 C2260 1.368 . S
C2266 C2265 1.523 . S
C2267 C2251 1.429 . S
C2267 C2263 1.429 . S
C2267 C2268 1.523 . S
C2268 C2252 1.368 . S
C2268 C2264 1.368 . S
C2268 C2267 1.523 . S
H2269 C2244 0.950 . S
H2270 C2246 0.950 . S
H2271 C2247 0.949 . S
H2272 C2249 0.950 . S
H2273 C2251 0.950 . S
C2274 C2275 1.349 . S
C2274 C2276 1.327 . S
C2274 H2299 0.950 . S
C2275 C2274 1.349 . S
C2275 C2291 1.349 . S
C2276 C2274 1.327 . S
C2276 C2295 1.429 . S
C2276 H2300 0.950 . S
C2277 C2294 1.574 . S
C2277 C2296 1.368 . S
C2277 H2301 0.949 . S
H2278 C2282 0.949 . S
C2279 C2280 1.349 . S
C2279 C2281 1.327 . S
C2279 H2302 0.950 . S
C2280 C2279 1.349 . S
C2280 C2292 1.349 . S
C2281 C2279 1.327 . S
C2281 C2297 1.429 . S
C2281 H2303 0.950 . S
C2282 H2278 0.949 . S
C2282 C2290 1.574 . S
C2282 C2298 1.368 . S
H2283 C2291 0.950 . S
H2284 C2289 0.950 . S
H2285 C2290 0.949 . S
H2286 C2292 0.950 . S
H2287 C2293 0.950 . S
H2288 C2294 0.949 . S
C2289 H2284 0.950 . S
C2289 C2291 1.327 . S
C2289 C2295 1.429 . S
C2290 C2282 1.574 . S
C2290 H2285 0.949 . S
C2290 C2296 1.368 . S
C2291 C2275 1.349 . S
C2291 H2283 0.950 . S
C2291 C2289 1.327 . S
C2292 C2280 1.349 . S
C2292 H2286 0.950 . S
C2292 C2293 1.327 . S
C2293 H2287 0.950 . S
C2293 C2292 1.327 . S
C2293 C2297 1.429 . S
C2294 C2277 1.574 . S
C2294 H2288 0.949 . S
C2294 C2298 1.368 . S
C2295 C2276 1.429 . S
C2295 C2289 1.429 . S
C2295 C2296 1.523 . S
C2296 C2277 1.368 . S
C2296 C2290 1.368 . S
C2296 C2295 1.523 . S
C2297 C2281 1.429 . S
C2297 C2293 1.429 . S
C2297 C2298 1.523 . S
C2298 C2282 1.368 . S
C2298 C2294 1.368 . S
C2298 C2297 1.523 . S
H2299 C2274 0.950 . S
H2300 C2276 0.950 . S
H2301 C2277 0.949 . S
H2302 C2279 0.950 . S
H2303 C2281 0.950 . S
C2304 C2305 1.349 . S
C2304 C2306 1.327 . S
C2304 H2329 0.950 . S
C2305 C2304 1.349 . S
C2305 C2321 1.349 . S
C2306 C2304 1.327 . S
C2306 C2325 1.429 . S
C2306 H2330 0.950 . S
C2307 C2324 1.574 . S
C2307 C2326 1.368 . S
C2307 H2331 0.949 . S
H2308 C2312 0.949 . S
C2309 C2310 1.349 . S
C2309 C2311 1.327 . S
C2309 H2332 0.950 . S
C2310 C2309 1.349 . S
C2310 C2322 1.349 . S
C2311 C2309 1.327 . S
C2311 C2327 1.429 . S
C2311 H2333 0.950 . S
C2312 H2308 0.949 . S
C2312 C2320 1.574 . S
C2312 C2328 1.368 . S
H2313 C2321 0.950 . S
H2314 C2319 0.950 . S
H2315 C2320 0.949 . S
H2316 C2322 0.950 . S
H2317 C2323 0.950 . S
H2318 C2324 0.949 . S
C2319 H2314 0.950 . S
C2319 C2321 1.327 . S
C2319 C2325 1.429 . S
C2320 C2312 1.574 . S
C2320 H2315 0.949 . S
C2320 C2326 1.368 . S
C2321 C2305 1.349 . S
C2321 H2313 0.950 . S
C2321 C2319 1.327 . S
C2322 C2310 1.349 . S
C2322 H2316 0.950 . S
C2322 C2323 1.327 . S
C2323 H2317 0.950 . S
C2323 C2322 1.327 . S
C2323 C2327 1.429 . S
C2324 C2307 1.574 . S
C2324 H2318 0.949 . S
C2324 C2328 1.368 . S
C2325 C2306 1.429 . S
C2325 C2319 1.429 . S
C2325 C2326 1.523 . S
C2326 C2307 1.368 . S
C2326 C2320 1.368 . S
C2326 C2325 1.523 . S
C2327 C2311 1.429 . S
C2327 C2323 1.429 . S
C2327 C2328 1.523 . S
C2328 C2312 1.368 . S
C2328 C2324 1.368 . S
C2328 C2327 1.523 . S
H2329 C2304 0.950 . S
H2330 C2306 0.950 . S
H2331 C2307 0.949 . S
H2332 C2309 0.950 . S
H2333 C2311 0.950 . S
C2334 C2335 1.349 . S
C2334 C2336 1.327 . S
C2334 H2359 0.950 . S
C2335 C2334 1.349 . S
C2335 C2351 1.349 . S
C2336 C2334 1.327 . S
C2336 C2355 1.429 . S
C2336 H2360 0.950 . S
C2337 C2354 1.574 . S
C2337 C2356 1.368 . S
C2337 H2361 0.949 . S
H2338 C2342 0.949 . S
C2339 C2340 1.349 . S
C2339 C2341 1.327 . S
C2339 H2362 0.950 . S
C2340 C2339 1.349 . S
C2340 C2352 1.349 . S
C2341 C2339 1.327 . S
C2341 C2357 1.429 . S
C2341 H2363 0.950 . S
C2342 H2338 0.949 . S
C2342 C2350 1.574 . S
C2342 C2358 1.368 . S
H2343 C2351 0.950 . S
H2344 C2349 0.950 . S
H2345 C2350 0.949 . S
H2346 C2352 0.950 . S
H2347 C2353 0.950 . S
H2348 C2354 0.949 . S
C2349 H2344 0.950 . S
C2349 C2351 1.327 . S
C2349 C2355 1.429 . S
C2350 C2342 1.574 . S
C2350 H2345 0.949 . S
C2350 C2356 1.368 . S
C2351 C2335 1.349 . S
C2351 H2343 0.950 . S
C2351 C2349 1.327 . S
C2352 C2340 1.349 . S
C2352 H2346 0.950 . S
C2352 C2353 1.327 . S
C2353 H2347 0.950 . S
C2353 C2352 1.327 . S
C2353 C2357 1.429 . S
C2354 C2337 1.574 . S
C2354 H2348 0.949 . S
C2354 C2358 1.368 . S
C2355 C2336 1.429 . S
C2355 C2349 1.429 . S
C2355 C2356 1.523 . S
C2356 C2337 1.368 . S
C2356 C2350 1.368 . S
C2356 C2355 1.523 . S
C2357 C2341 1.429 . S
C2357 C2353 1.429 . S
C2357 C2358 1.523 . S
C2358 C2342 1.368 . S
C2358 C2354 1.368 . S
C2358 C2357 1.523 . S
H2359 C2334 0.950 . S
H2360 C2336 0.950 . S
H2361 C2337 0.949 . S
H2362 C2339 0.950 . S
H2363 C2341 0.950 . S
C2364 C2365 1.349 . S
C2364 C2366 1.327 . S
C2364 H2389 0.950 . S
C2365 C2364 1.349 . S
C2365 C2381 1.349 . S
C2366 C2364 1.327 . S
C2366 C2385 1.429 . S
C2366 H2390 0.950 . S
C2367 C2384 1.574 . S
C2367 C2386 1.368 . S
C2367 H2391 0.949 . S
H2368 C2372 0.949 . S
C2369 C2370 1.349 . S
C2369 C2371 1.327 . S
C2369 H2392 0.950 . S
C2370 C2369 1.349 . S
C2370 C2382 1.349 . S
C2371 C2369 1.327 . S
C2371 C2387 1.429 . S
C2371 H2393 0.950 . S
C2372 H2368 0.949 . S
C2372 C2380 1.574 . S
C2372 C2388 1.368 . S
H2373 C2381 0.950 . S
H2374 C2379 0.950 . S
H2375 C2380 0.949 . S
H2376 C2382 0.950 . S
H2377 C2383 0.950 . S
H2378 C2384 0.949 . S
C2379 H2374 0.950 . S
C2379 C2381 1.327 . S
C2379 C2385 1.429 . S
C2380 C2372 1.574 . S
C2380 H2375 0.949 . S
C2380 C2386 1.368 . S
C2381 C2365 1.349 . S
C2381 H2373 0.950 . S
C2381 C2379 1.327 . S
C2382 C2370 1.349 . S
C2382 H2376 0.950 . S
C2382 C2383 1.327 . S
C2383 H2377 0.950 . S
C2383 C2382 1.327 . S
C2383 C2387 1.429 . S
C2384 C2367 1.574 . S
C2384 H2378 0.949 . S
C2384 C2388 1.368 . S
C2385 C2366 1.429 . S
C2385 C2379 1.429 . S
C2385 C2386 1.523 . S
C2386 C2367 1.368 . S
C2386 C2380 1.368 . S
C2386 C2385 1.523 . S
C2387 C2371 1.429 . S
C2387 C2383 1.429 . S
C2387 C2388 1.523 . S
C2388 C2372 1.368 . S
C2388 C2384 1.368 . S
C2388 C2387 1.523 . S
H2389 C2364 0.950 . S
H2390 C2366 0.950 . S
H2391 C2367 0.949 . S
H2392 C2369 0.950 . S
H2393 C2371 0.950 . S
C2394 C2395 1.349 . S
C2394 C2396 1.327 . S
C2394 H2419 0.950 . S
C2395 C2394 1.349 . S
C2395 C2411 1.349 . S
C2396 C2394 1.327 . S
C2396 C2415 1.429 . S
C2396 H2420 0.950 . S
C2397 C2414 1.574 . S
C2397 C2416 1.368 . S
C2397 H2421 0.949 . S
H2398 C2402 0.949 . S
C2399 C2400 1.349 . S
C2399 C2401 1.327 . S
C2399 H2422 0.950 . S
C2400 C2399 1.349 . S
C2400 C2412 1.349 . S
C2401 C2399 1.327 . S
C2401 C2417 1.429 . S
C2401 H2423 0.950 . S
C2402 H2398 0.949 . S
C2402 C2410 1.574 . S
C2402 C2418 1.368 . S
H2403 C2411 0.950 . S
H2404 C2409 0.950 . S
H2405 C2410 0.949 . S
H2406 C2412 0.950 . S
H2407 C2413 0.950 . S
H2408 C2414 0.949 . S
C2409 H2404 0.950 . S
C2409 C2411 1.327 . S
C2409 C2415 1.429 . S
C2410 C2402 1.574 . S
C2410 H2405 0.949 . S
C2410 C2416 1.368 . S
C2411 C2395 1.349 . S
C2411 H2403 0.950 . S
C2411 C2409 1.327 . S
C2412 C2400 1.349 . S
C2412 H2406 0.950 . S
C2412 C2413 1.327 . S
C2413 H2407 0.950 . S
C2413 C2412 1.327 . S
C2413 C2417 1.429 . S
C2414 C2397 1.574 . S
C2414 H2408 0.949 . S
C2414 C2418 1.368 . S
C2415 C2396 1.429 . S
C2415 C2409 1.429 . S
C2415 C2416 1.523 . S
C2416 C2397 1.368 . S
C2416 C2410 1.368 . S
C2416 C2415 1.523 . S
C2417 C2401 1.429 . S
C2417 C2413 1.429 . S
C2417 C2418 1.523 . S
C2418 C2402 1.368 . S
C2418 C2414 1.368 . S
C2418 C2417 1.523 . S
H2419 C2394 0.950 . S
H2420 C2396 0.950 . S
H2421 C2397 0.949 . S
H2422 C2399 0.950 . S
H2423 C2401 0.950 . S
C2424 C2425 1.349 . S
C2424 C2426 1.327 . S
C2424 H2449 0.950 . S
C2425 C2424 1.349 . S
C2425 C2441 1.349 . S
C2426 C2424 1.327 . S
C2426 C2445 1.429 . S
C2426 H2450 0.950 . S
C2427 C2444 1.574 . S
C2427 C2446 1.368 . S
C2427 H2451 0.949 . S
H2428 C2432 0.949 . S
C2429 C2430 1.349 . S
C2429 C2431 1.327 . S
C2429 H2452 0.950 . S
C2430 C2429 1.349 . S
C2430 C2442 1.349 . S
C2431 C2429 1.327 . S
C2431 C2447 1.429 . S
C2431 H2453 0.950 . S
C2432 H2428 0.949 . S
C2432 C2440 1.574 . S
C2432 C2448 1.368 . S
H2433 C2441 0.950 . S
H2434 C2439 0.950 . S
H2435 C2440 0.949 . S
H2436 C2442 0.950 . S
H2437 C2443 0.950 . S
H2438 C2444 0.949 . S
C2439 H2434 0.950 . S
C2439 C2441 1.327 . S
C2439 C2445 1.429 . S
C2440 C2432 1.574 . S
C2440 H2435 0.949 . S
C2440 C2446 1.368 . S
C2441 C2425 1.349 . S
C2441 H2433 0.950 . S
C2441 C2439 1.327 . S
C2442 C2430 1.349 . S
C2442 H2436 0.950 . S
C2442 C2443 1.327 . S
C2443 H2437 0.950 . S
C2443 C2442 1.327 . S
C2443 C2447 1.429 . S
C2444 C2427 1.574 . S
C2444 H2438 0.949 . S
C2444 C2448 1.368 . S
C2445 C2426 1.429 . S
C2445 C2439 1.429 . S
C2445 C2446 1.523 . S
C2446 C2427 1.368 . S
C2446 C2440 1.368 . S
C2446 C2445 1.523 . S
C2447 C2431 1.429 . S
C2447 C2443 1.429 . S
C2447 C2448 1.523 . S
C2448 C2432 1.368 . S
C2448 C2444 1.368 . S
C2448 C2447 1.523 . S
H2449 C2424 0.950 . S
H2450 C2426 0.950 . S
H2451 C2427 0.949 . S
H2452 C2429 0.950 . S
H2453 C2431 0.950 . S
C2454 C2455 1.349 . S
C2454 C2456 1.327 . S
C2454 H2479 0.950 . S
C2455 C2454 1.349 . S
C2455 C2471 1.349 . S
C2456 C2454 1.327 . S
C2456 C2475 1.429 . S
C2456 H2480 0.950 . S
C2457 C2474 1.574 . S
C2457 C2476 1.368 . S
C2457 H2481 0.949 . S
H2458 C2462 0.949 . S
C2459 C2460 1.349 . S
C2459 C2461 1.327 . S
C2459 H2482 0.950 . S
C2460 C2459 1.349 . S
C2460 C2472 1.349 . S
C2461 C2459 1.327 . S
C2461 C2477 1.429 . S
C2461 H2483 0.950 . S
C2462 H2458 0.949 . S
C2462 C2470 1.574 . S
C2462 C2478 1.368 . S
H2463 C2471 0.950 . S
H2464 C2469 0.950 . S
H2465 C2470 0.949 . S
H2466 C2472 0.950 . S
H2467 C2473 0.950 . S
H2468 C2474 0.949 . S
C2469 H2464 0.950 . S
C2469 C2471 1.327 . S
C2469 C2475 1.429 . S
C2470 C2462 1.574 . S
C2470 H2465 0.949 . S
C2470 C2476 1.368 . S
C2471 C2455 1.349 . S
C2471 H2463 0.950 . S
C2471 C2469 1.327 . S
C2472 C2460 1.349 . S
C2472 H2466 0.950 . S
C2472 C2473 1.327 . S
C2473 H2467 0.950 . S
C2473 C2472 1.327 . S
C2473 C2477 1.429 . S
C2474 C2457 1.574 . S
C2474 H2468 0.949 . S
C2474 C2478 1.368 . S
C2475 C2456 1.429 . S
C2475 C2469 1.429 . S
C2475 C2476 1.523 . S
C2476 C2457 1.368 . S
C2476 C2470 1.368 . S
C2476 C2475 1.523 . S
C2477 C2461 1.429 . S
C2477 C2473 1.429 . S
C2477 C2478 1.523 . S
C2478 C2462 1.368 . S
C2478 C2474 1.368 . S
C2478 C2477 1.523 . S
H2479 C2454 0.950 . S
H2480 C2456 0.950 . S
H2481 C2457 0.949 . S
H2482 C2459 0.950 . S
H2483 C2461 0.950 . S
C2484 C2485 1.349 . S
C2484 C2486 1.327 . S
C2484 H2509 0.950 . S
C2485 C2484 1.349 . S
C2485 C2501 1.349 . S
C2486 C2484 1.327 . S
C2486 C2505 1.429 . S
C2486 H2510 0.950 . S
C2487 C2504 1.574 . S
C2487 C2506 1.368 . S
C2487 H2511 0.949 . S
H2488 C2492 0.949 . S
C2489 C2490 1.349 . S
C2489 C2491 1.327 . S
C2489 H2512 0.950 . S
C2490 C2489 1.349 . S
C2490 C2502 1.349 . S
C2491 C2489 1.327 . S
C2491 C2507 1.429 . S
C2491 H2513 0.950 . S
C2492 H2488 0.949 . S
C2492 C2500 1.574 . S
C2492 C2508 1.368 . S
H2493 C2501 0.950 . S
H2494 C2499 0.950 . S
H2495 C2500 0.949 . S
H2496 C2502 0.950 . S
H2497 C2503 0.950 . S
H2498 C2504 0.949 . S
C2499 H2494 0.950 . S
C2499 C2501 1.327 . S
C2499 C2505 1.429 . S
C2500 C2492 1.574 . S
C2500 H2495 0.949 . S
C2500 C2506 1.368 . S
C2501 C2485 1.349 . S
C2501 H2493 0.950 . S
C2501 C2499 1.327 . S
C2502 C2490 1.349 . S
C2502 H2496 0.950 . S
C2502 C2503 1.327 . S
C2503 H2497 0.950 . S
C2503 C2502 1.327 . S
C2503 C2507 1.429 . S
C2504 C2487 1.574 . S
C2504 H2498 0.949 . S
C2504 C2508 1.368 . S
C2505 C2486 1.429 . S
C2505 C2499 1.429 . S
C2505 C2506 1.523 . S
C2506 C2487 1.368 . S
C2506 C2500 1.368 . S
C2506 C2505 1.523 . S
C2507 C2491 1.429 . S
C2507 C2503 1.429 . S
C2507 C2508 1.523 . S
C2508 C2492 1.368 . S
C2508 C2504 1.368 . S
C2508 C2507 1.523 . S
H2509 C2484 0.950 . S
H2510 C2486 0.950 . S
H2511 C2487 0.949 . S
H2512 C2489 0.950 . S
H2513 C2491 0.950 . S
C2514 C2515 1.349 . S
C2514 C2516 1.327 . S
C2514 H2539 0.950 . S
C2515 C2514 1.349 . S
C2515 C2531 1.349 . S
C2516 C2514 1.327 . S
C2516 C2535 1.429 . S
C2516 H2540 0.950 . S
C2517 C2534 1.574 . S
C2517 C2536 1.368 . S
C2517 H2541 0.949 . S
H2518 C2522 0.949 . S
C2519 C2520 1.349 . S
C2519 C2521 1.327 . S
C2519 H2542 0.950 . S
C2520 C2519 1.349 . S
C2520 C2532 1.349 . S
C2521 C2519 1.327 . S
C2521 C2537 1.429 . S
C2521 H2543 0.950 . S
C2522 H2518 0.949 . S
C2522 C2530 1.574 . S
C2522 C2538 1.368 . S
H2523 C2531 0.950 . S
H2524 C2529 0.950 . S
H2525 C2530 0.949 . S
H2526 C2532 0.950 . S
H2527 C2533 0.950 . S
H2528 C2534 0.949 . S
C2529 H2524 0.950 . S
C2529 C2531 1.327 . S
C2529 C2535 1.429 . S
C2530 C2522 1.574 . S
C2530 H2525 0.949 . S
C2530 C2536 1.368 . S
C2531 C2515 1.349 . S
C2531 H2523 0.950 . S
C2531 C2529 1.327 . S
C2532 C2520 1.349 . S
C2532 H2526 0.950 . S
C2532 C2533 1.327 . S
C2533 H2527 0.950 . S
C2533 C2532 1.327 . S
C2533 C2537 1.429 . S
C2534 C2517 1.574 . S
C2534 H2528 0.949 . S
C2534 C2538 1.368 . S
C2535 C2516 1.429 . S
C2535 C2529 1.429 . S
C2535 C2536 1.523 . S
C2536 C2517 1.368 . S
C2536 C2530 1.368 . S
C2536 C2535 1.523 . S
C2537 C2521 1.429 . S
C2537 C2533 1.429 . S
C2537 C2538 1.523 . S
C2538 C2522 1.368 . S
C2538 C2534 1.368 . S
C2538 C2537 1.523 . S
H2539 C2514 0.950 . S
H2540 C2516 0.950 . S
H2541 C2517 0.949 . S
H2542 C2519 0.950 . S
H2543 C2521 0.950 . S
C2544 C2545 1.349 . S
C2544 C2546 1.327 . S
C2544 H2569 0.950 . S
C2545 C2544 1.349 . S
C2545 C2561 1.349 . S
C2546 C2544 1.327 . S
C2546 C2565 1.429 . S
C2546 H2570 0.950 . S
C2547 C2564 1.574 . S
C2547 C2566 1.368 . S
C2547 H2571 0.949 . S
H2548 C2552 0.949 . S
C2549 C2550 1.349 . S
C2549 C2551 1.327 . S
C2549 H2572 0.950 . S
C2550 C2549 1.349 . S
C2550 C2562 1.349 . S
C2551 C2549 1.327 . S
C2551 C2567 1.429 . S
C2551 H2573 0.950 . S
C2552 H2548 0.949 . S
C2552 C2560 1.574 . S
C2552 C2568 1.368 . S
H2553 C2561 0.950 . S
H2554 C2559 0.950 . S
H2555 C2560 0.949 . S
H2556 C2562 0.950 . S
H2557 C2563 0.950 . S
H2558 C2564 0.949 . S
C2559 H2554 0.950 . S
C2559 C2561 1.327 . S
C2559 C2565 1.429 . S
C2560 C2552 1.574 . S
C2560 H2555 0.949 . S
C2560 C2566 1.368 . S
C2561 C2545 1.349 . S
C2561 H2553 0.950 . S
C2561 C2559 1.327 . S
C2562 C2550 1.349 . S
C2562 H2556 0.950 . S
C2562 C2563 1.327 . S
C2563 H2557 0.950 . S
C2563 C2562 1.327 . S
C2563 C2567 1.429 . S
C2564 C2547 1.574 . S
C2564 H2558 0.949 . S
C2564 C2568 1.368 . S
C2565 C2546 1.429 . S
C2565 C2559 1.429 . S
C2565 C2566 1.523 . S
C2566 C2547 1.368 . S
C2566 C2560 1.368 . S
C2566 C2565 1.523 . S
C2567 C2551 1.429 . S
C2567 C2563 1.429 . S
C2567 C2568 1.523 . S
C2568 C2552 1.368 . S
C2568 C2564 1.368 . S
C2568 C2567 1.523 . S
H2569 C2544 0.950 . S
H2570 C2546 0.950 . S
H2571 C2547 0.949 . S
H2572 C2549 0.950 . S
H2573 C2551 0.950 . S
C2574 C2575 1.349 . S
C2574 C2576 1.327 . S
C2574 H2599 0.950 . S
C2575 C2574 1.349 . S
C2575 C2591 1.349 . S
C2576 C2574 1.327 . S
C2576 C2595 1.429 . S
C2576 H2600 0.950 . S
C2577 C2594 1.574 . S
C2577 C2596 1.368 . S
C2577 H2601 0.949 . S
H2578 C2582 0.949 . S
C2579 C2580 1.349 . S
C2579 C2581 1.327 . S
C2579 H2602 0.950 . S
C2580 C2579 1.349 . S
C2580 C2592 1.349 . S
C2581 C2579 1.327 . S
C2581 C2597 1.429 . S
C2581 H2603 0.950 . S
C2582 H2578 0.949 . S
C2582 C2590 1.574 . S
C2582 C2598 1.368 . S
H2583 C2591 0.950 . S
H2584 C2589 0.950 . S
H2585 C2590 0.949 . S
H2586 C2592 0.950 . S
H2587 C2593 0.950 . S
H2588 C2594 0.949 . S
C2589 H2584 0.950 . S
C2589 C2591 1.327 . S
C2589 C2595 1.429 . S
C2590 C2582 1.574 . S
C2590 H2585 0.949 . S
C2590 C2596 1.368 . S
C2591 C2575 1.349 . S
C2591 H2583 0.950 . S
C2591 C2589 1.327 . S
C2592 C2580 1.349 . S
C2592 H2586 0.950 . S
C2592 C2593 1.327 . S
C2593 H2587 0.950 . S
C2593 C2592 1.327 . S
C2593 C2597 1.429 . S
C2594 C2577 1.574 . S
C2594 H2588 0.949 . S
C2594 C2598 1.368 . S
C2595 C2576 1.429 . S
C2595 C2589 1.429 . S
C2595 C2596 1.523 . S
C2596 C2577 1.368 . S
C2596 C2590 1.368 . S
C2596 C2595 1.523 . S
C2597 C2581 1.429 . S
C2597 C2593 1.429 . S
C2597 C2598 1.523 . S
C2598 C2582 1.368 . S
C2598 C2594 1.368 . S
C2598 C2597 1.523 . S
H2599 C2574 0.950 . S
H2600 C2576 0.950 . S
H2601 C2577 0.949 . S
H2602 C2579 0.950 . S
H2603 C2581 0.950 . S
C2604 C2605 1.349 . S
C2604 C2606 1.327 . S
C2604 H2629 0.950 . S
C2605 C2604 1.349 . S
C2605 C2621 1.349 . S
C2606 C2604 1.327 . S
C2606 C2625 1.429 . S
C2606 H2630 0.950 . S
C2607 C2624 1.574 . S
C2607 C2626 1.368 . S
C2607 H2631 0.949 . S
H2608 C2612 0.949 . S
C2609 C2610 1.349 . S
C2609 C2611 1.327 . S
C2609 H2632 0.950 . S
C2610 C2609 1.349 . S
C2610 C2622 1.349 . S
C2611 C2609 1.327 . S
C2611 C2627 1.429 . S
C2611 H2633 0.950 . S
C2612 H2608 0.949 . S
C2612 C2620 1.574 . S
C2612 C2628 1.368 . S
H2613 C2621 0.950 . S
H2614 C2619 0.950 . S
H2615 C2620 0.949 . S
H2616 C2622 0.950 . S
H2617 C2623 0.950 . S
H2618 C2624 0.949 . S
C2619 H2614 0.950 . S
C2619 C2621 1.327 . S
C2619 C2625 1.429 . S
C2620 C2612 1.574 . S
C2620 H2615 0.949 . S
C2620 C2626 1.368 . S
C2621 C2605 1.349 . S
C2621 H2613 0.950 . S
C2621 C2619 1.327 . S
C2622 C2610 1.349 . S
C2622 H2616 0.950 . S
C2622 C2623 1.327 . S
C2623 H2617 0.950 . S
C2623 C2622 1.327 . S
C2623 C2627 1.429 . S
C2624 C2607 1.574 . S
C2624 H2618 0.949 . S
C2624 C2628 1.368 . S
C2625 C2606 1.429 . S
C2625 C2619 1.429 . S
C2625 C2626 1.523 . S
C2626 C2607 1.368 . S
C2626 C2620 1.368 . S
C2626 C2625 1.523 . S
C2627 C2611 1.429 . S
C2627 C2623 1.429 . S
C2627 C2628 1.523 . S
C2628 C2612 1.368 . S
C2628 C2624 1.368 . S
C2628 C2627 1.523 . S
H2629 C2604 0.950 . S
H2630 C2606 0.950 . S
H2631 C2607 0.949 . S
H2632 C2609 0.950 . S
H2633 C2611 0.950 . S
C2634 C2635 1.349 . S
C2634 C2636 1.327 . S
C2634 H2659 0.950 . S
C2635 C2634 1.349 . S
C2635 C2651 1.349 . S
C2636 C2634 1.327 . S
C2636 C2655 1.429 . S
C2636 H2660 0.950 . S
C2637 C2654 1.574 . S
C2637 C2656 1.368 . S
C2637 H2661 0.949 . S
H2638 C2642 0.949 . S
C2639 C2640 1.349 . S
C2639 C2641 1.327 . S
C2639 H2662 0.950 . S
C2640 C2639 1.349 . S
C2640 C2652 1.349 . S
C2641 C2639 1.327 . S
C2641 C2657 1.429 . S
C2641 H2663 0.950 . S
C2642 H2638 0.949 . S
C2642 C2650 1.574 . S
C2642 C2658 1.368 . S
H2643 C2651 0.950 . S
H2644 C2649 0.950 . S
H2645 C2650 0.949 . S
H2646 C2652 0.950 . S
H2647 C2653 0.950 . S
H2648 C2654 0.949 . S
C2649 H2644 0.950 . S
C2649 C2651 1.327 . S
C2649 C2655 1.429 . S
C2650 C2642 1.574 . S
C2650 H2645 0.949 . S
C2650 C2656 1.368 . S
C2651 C2635 1.349 . S
C2651 H2643 0.950 . S
C2651 C2649 1.327 . S
C2652 C2640 1.349 . S
C2652 H2646 0.950 . S
C2652 C2653 1.327 . S
C2653 H2647 0.950 . S
C2653 C2652 1.327 . S
C2653 C2657 1.429 . S
C2654 C2637 1.574 . S
C2654 H2648 0.949 . S
C2654 C2658 1.368 . S
C2655 C2636 1.429 . S
C2655 C2649 1.429 . S
C2655 C2656 1.523 . S
C2656 C2637 1.368 . S
C2656 C2650 1.368 . S
C2656 C2655 1.523 . S
C2657 C2641 1.429 . S
C2657 C2653 1.429 . S
C2657 C2658 1.523 . S
C2658 C2642 1.368 . S
C2658 C2654 1.368 . S
C2658 C2657 1.523 . S
H2659 C2634 0.950 . S
H2660 C2636 0.950 . S
H2661 C2637 0.949 . S
H2662 C2639 0.950 . S
H2663 C2641 0.950 . S
C505 C7 1.387 . S
C510 C259 1.387 . S
C535 C273 1.387 . S
C540 C21 1.387 . S
C565 C287 1.387 . S
C570 C35 1.387 . S
C595 C49 1.387 . S
C600 C469 1.387 . S
C625 C63 1.386 . S
C630 C483 1.386 . S
C655 C77 1.387 . S
C660 C497 1.387 . S
C685 C343 1.387 . S
C690 C91 1.387 . S
C715 C105 1.387 . S
C720 C357 1.387 . S
C745 C119 1.387 . S
C750 C371 1.387 . S
C775 C217 1.387 . S
C780 C133 1.387 . S
C805 C231 1.386 . S
C810 C147 1.386 . S
C835 C245 1.387 . S
C840 C161 1.387 . S
C865 C427 1.387 . S
C870 C175 1.387 . S
C895 C441 1.387 . S
C900 C189 1.387 . S
C925 C203 1.387 . S
C930 C455 1.387 . S
C955 C385 1.387 . S
C960 C301 1.387 . S
C985 C315 1.386 . S
C990 C399 1.386 . S
C1015 C329 1.387 . S
C1020 C413 1.387 . S
C1045 C8 1.358 . S
C1050 C386 1.358 . S
C1075 C400 1.359 . S
C1080 C22 1.359 . S
C1105 C414 1.358 . S
C1110 C36 1.358 . S
C1135 C176 1.358 . S
C1140 C50 1.358 . S
C1165 C190 1.359 . S
C1170 C64 1.359 . S
C1195 C204 1.358 . S
C1200 C78 1.358 . S
C1225 C92 1.358 . S
C1230 C302 1.358 . S
C1255 C316 1.359 . S
C1260 C106 1.359 . S
C1285 C330 1.358 . S
C1290 C120 1.358 . S
C1315 C134 1.358 . S
C1320 C428 1.358 . S
C1345 C148 1.359 . S
C1350 C442 1.359 . S
C1375 C162 1.358 . S
C1380 C456 1.358 . S
C1405 C218 1.358 . S
C1410 C344 1.358 . S
C1435 C232 1.359 . S
C1440 C358 1.359 . S
C1465 C246 1.358 . S
C1470 C372 1.358 . S
C1495 C260 1.358 . S
C1500 C470 1.358 . S
C1525 C484 1.359 . S
C1530 C274 1.359 . S
C1555 C288 1.358 . S
C1560 C498 1.358 . S
C1585 C17 0.876 1_455 S
C1590 C9 0.852 . S
C1615 C23 0.851 . S
C1620 C31 0.876 . S
C1645 C37 0.852 . S
C1650 C3 0.876 1_565 S
C1675 C51 0.852 . S
C1680 C73 0.876 1_545 S
C1705 C45 0.876 1_655 S
C1710 C65 0.851 . S
C1735 C79 0.852 . S
C1740 C59 0.876 . S
C1765 C93 0.852 . S
C1770 C101 0.876 1_655 S
C1795 C107 0.851 . S
C1800 C115 0.876 . S
C1825 C121 0.852 . S
C1830 C87 0.876 1_545 S
C1855 C157 0.876 1_565 S
C1860 C135 0.852 . S
C1885 C149 0.851 . S
C1890 C129 0.876 1_455 S
C1915 C143 0.876 . S
C1920 C163 0.852 . S
C1945 C185 0.876 . S
C1950 C177 0.852 . S
C1975 C199 0.876 . S
C1980 C191 0.851 . S
C2005 C171 0.876 . S
C2010 C205 0.851 . S
C2035 C219 0.852 . S
C2040 C241 0.876 . S
C2065 C233 0.851 . S
C2070 C213 0.876 . S
C2095 C247 0.852 . S
C2100 C227 0.876 . S
C2125 C269 0.876 . S
C2130 C261 0.852 . S
C2155 C275 0.851 . S
C2160 C283 0.876 . S
C2185 C289 0.852 . S
C2190 C255 0.876 . S
C2215 C303 0.852 . S
C2220 C325 0.876 . S
C2245 C317 0.851 . S
C2250 C297 0.876 . S
C2275 C311 0.876 . S
C2280 C331 0.852 . S
C2305 C353 0.876 . S
C2310 C345 0.852 . S
C2335 C359 0.851 . S
C2340 C367 0.876 . S
C2365 C339 0.876 . S
C2370 C373 0.852 . S
C2395 C387 0.852 . S
C2400 C409 0.876 . S
C2425 C401 0.851 . S
C2430 C381 0.876 . S
C2455 C415 0.852 . S
C2460 C395 0.876 . S
C2485 C429 0.852 . S
C2490 C437 0.876 . S
C2515 C443 0.851 . S
C2520 C451 0.876 . S
C2545 C457 0.851 . S
C2550 C423 0.876 . S
C2575 C471 0.852 . S
C2580 C493 0.876 . S
C2605 C485 0.851 . S
C2610 C465 0.876 . S
C2635 C479 0.876 . S
C2640 C499 0.852 . S
