# Generated by pormake.
# Topology uku, (4)-cn, num edge types: 1
# Building blocks:
#     Node 0, Type 0, BuildingBlock: QUQFOY_clean_sbu_1, # of connection points: 4
#     Node 1, Type 0, BuildingBlock: QUQFOY_clean_sbu_1, # of connection points: 4
#     Node 2, Type 0, BuildingBlock: QUQFOY_clean_sbu_1, # of connection points: 4
#     Node 3, Type 0, BuildingBlock: QUQFOY_clean_sbu_1, # of connection points: 4
#     Node 4, Type 0, BuildingBlock: QUQFOY_clean_sbu_1, # of connection points: 4
#     Node 5, Type 0, BuildingBlock: QUQFOY_clean_sbu_1, # of connection points: 4
#     Node 6, Type 0, BuildingBlock: QUQFOY_clean_sbu_1, # of connection points: 4
#     Node 7, Type 0, BuildingBlock: QUQFOY_clean_sbu_1, # of connection points: 4
#     Node 8, Type 0, BuildingBlock: QUQFOY_clean_sbu_1, # of connection points: 4
#     Node 9, Type 0, BuildingBlock: QUQFOY_clean_sbu_1, # of connection points: 4
#     Node 10, Type 0, BuildingBlock: QUQFOY_clean_sbu_1, # of connection points: 4
#     Node 11, Type 0, BuildingBlock: QUQFOY_clean_sbu_1, # of connection points: 4
#     Edge 12, Type (0, 0), BuildingBlock: XUDNAN_clean_linker_2, # of connection points: 2
#     Edge 13, Type (0, 0), BuildingBlock: XUDNAN_clean_linker_2, # of connection points: 2
#     Edge 14, Type (0, 0), BuildingBlock: XUDNAN_clean_linker_2, # of connection points: 2
#     Edge 15, Type (0, 0), BuildingBlock: XUDNAN_clean_linker_2, # of connection points: 2
#     Edge 16, Type (0, 0), BuildingBlock: XUDNAN_clean_linker_2, # of connection points: 2
#     Edge 17, Type (0, 0), BuildingBlock: XUDNAN_clean_linker_2, # of connection points: 2
#     Edge 18, Type (0, 0), BuildingBlock: XUDNAN_clean_linker_2, # of connection points: 2
#     Edge 19, Type (0, 0), BuildingBlock: XUDNAN_clean_linker_2, # of connection points: 2
#     Edge 20, Type (0, 0), BuildingBlock: XUDNAN_clean_linker_2, # of connection points: 2
#     Edge 21, Type (0, 0), BuildingBlock: XUDNAN_clean_linker_2, # of connection points: 2
#     Edge 22, Type (0, 0), BuildingBlock: XUDNAN_clean_linker_2, # of connection points: 2
#     Edge 23, Type (0, 0), BuildingBlock: XUDNAN_clean_linker_2, # of connection points: 2
#     Edge 24, Type (0, 0), BuildingBlock: XUDNAN_clean_linker_2, # of connection points: 2
#     Edge 25, Type (0, 0), BuildingBlock: XUDNAN_clean_linker_2, # of connection points: 2
#     Edge 26, Type (0, 0), BuildingBlock: XUDNAN_clean_linker_2, # of connection points: 2
#     Edge 27, Type (0, 0), BuildingBlock: XUDNAN_clean_linker_2, # of connection points: 2
#     Edge 28, Type (0, 0), BuildingBlock: XUDNAN_clean_linker_2, # of connection points: 2
#     Edge 29, Type (0, 0), BuildingBlock: XUDNAN_clean_linker_2, # of connection points: 2
#     Edge 30, Type (0, 0), BuildingBlock: XUDNAN_clean_linker_2, # of connection points: 2
#     Edge 31, Type (0, 0), BuildingBlock: XUDNAN_clean_linker_2, # of connection points: 2
#     Edge 32, Type (0, 0), BuildingBlock: XUDNAN_clean_linker_2, # of connection points: 2
#     Edge 33, Type (0, 0), BuildingBlock: XUDNAN_clean_linker_2, # of connection points: 2
#     Edge 34, Type (0, 0), BuildingBlock: XUDNAN_clean_linker_2, # of connection points: 2
#     Edge 35, Type (0, 0), BuildingBlock: XUDNAN_clean_linker_2, # of connection points: 2
# Relax obj value: 0.261
# Max RMSD: 0.220
# Mean RMSD: 0.220
data_MOF--net-uku--node1-QUQFOY_clean_sbu_1--edge1-XUDNAN_clean_linker_2
_symmetry_space_group_name_H-M    P1
_symmetry_Int_Tables_number       1
_symmetry_cell_setting            triclinic
loop_
_symmetry_equiv_pos_as_xyz
'x, y, z'
_cell_length_a     43.505242
_cell_length_b     43.554958
_cell_length_c     43.54181
_cell_angle_alpha  89.979705
_cell_angle_beta   90.039024
_cell_angle_gamma 89.970647
loop_
_atom_site_label
_atom_site_type_symbol
_atom_site_fract_x
_atom_site_fract_y
_atom_site_fract_z
_atom_type_partial_charge
O0 O 0.07274 0.09498 0.623 0.0
Cd1 Cd 0.09785 0.13254 0.60873 0.0
Cd2 Cd 0.08766 0.14971 0.66463 0.0
O3 O 0.05297 0.11778 0.66373 0.0
O4 O 0.08727 0.14084 0.56497 0.0
O5 O 0.07185 0.16997 0.60389 0.0
C6 C 0.07034 0.16311 0.57501 0.0
C7 C 0.08501 0.19523 0.69307 0.0
C8 C 0.05407 0.09503 0.64547 0.0
C9 C 0.1509 0.12673 0.64762 0.0
O10 O 0.13034 0.13047 0.66791 0.0
O11 O 0.14461 0.13144 0.61947 0.0
O12 O 0.08466 0.16864 0.70596 0.0
O13 O 0.08443 0.19621 0.66346 0.0
O14 O 0.92145 0.9024 0.62714 0.0
Cd15 Cd 0.89444 0.8668 0.61183 0.0
Cd16 Cd 0.90702 0.84666 0.66623 0.0
O17 O 0.94292 0.8773 0.66544 0.0
O18 O 0.90078 0.86858 0.56688 0.0
O19 O 0.91758 0.83019 0.59603 0.0
C20 C 0.91726 0.84406 0.56974 0.0
C21 C 0.91152 0.79898 0.69051 0.0
C22 C 0.94155 0.90077 0.64822 0.0
C23 C 0.84354 0.872 0.65348 0.0
O24 O 0.86482 0.86663 0.67273 0.0
O25 O 0.84852 0.86877 0.62487 0.0
O26 O 0.91326 0.8244 0.70548 0.0
O27 O 0.90867 0.80042 0.66103 0.0
O28 O 0.07319 0.90551 0.36257 0.0
Cd29 Cd 0.10272 0.87135 0.37616 0.0
Cd30 Cd 0.08713 0.84926 0.32347 0.0
O31 O 0.05086 0.87966 0.32523 0.0
O32 O 0.09919 0.87256 0.42149 0.0
O33 O 0.08222 0.83377 0.39304 0.0
C34 C 0.08354 0.84743 0.41938 0.0
C35 C 0.08247 0.79903 0.30519 0.0
C36 C 0.05223 0.90318 0.34243 0.0
C37 C 0.15061 0.8766 0.33044 0.0
O38 O 0.1285 0.8692 0.31287 0.0
O39 O 0.14731 0.87513 0.35946 0.0
O40 O 0.0787 0.82247 0.28752 0.0
O41 O 0.08728 0.80401 0.33402 0.0
O42 O 0.91667 0.09387 0.37252 0.0
Cd43 Cd 0.88901 0.1299 0.38557 0.0
Cd44 Cd 0.9058 0.15267 0.33295 0.0
O45 O 0.93974 0.11977 0.3355 0.0
O46 O 0.89196 0.13613 0.43096 0.0
O47 O 0.91362 0.16688 0.39645 0.0
C48 C 0.90986 0.15902 0.42481 0.0
C49 C 0.91387 0.20221 0.31348 0.0
C50 C 0.93733 0.09576 0.35197 0.0
C51 C 0.84145 0.12801 0.33848 0.0
O52 O 0.86392 0.13494 0.32124 0.0
O53 O 0.84458 0.12884 0.36755 0.0
O54 O 0.9168 0.17815 0.29654 0.0
O55 O 0.90796 0.19822 0.34222 0.0
O56 O 0.61566 0.09774 0.09203 0.0
Cd57 Cd 0.60907 0.11525 0.13515 0.0
Cd58 Cd 0.66016 0.08791 0.14478 0.0
O59 O 0.64515 0.06016 0.10902 0.0
O60 O 0.5646 0.11277 0.14712 0.0
O61 O 0.60085 0.08153 0.16485 0.0
C62 C 0.57211 0.08857 0.16269 0.0
C63 C 0.68403 0.07348 0.19061 0.0
C64 C 0.62937 0.07236 0.08756 0.0
C65 C 0.66108 0.15594 0.13559 0.0
O66 O 0.67489 0.13058 0.13157 0.0
O67 O 0.63281 0.15595 0.1432 0.0
O68 O 0.69755 0.07005 0.16445 0.0
O69 O 0.65568 0.08217 0.19048 0.0
O70 O 0.38294 0.91044 0.0882 0.0
Cd71 Cd 0.39239 0.89244 0.1307 0.0
Cd72 Cd 0.33869 0.91696 0.14192 0.0
O73 O 0.35027 0.94523 0.10538 0.0
O74 O 0.4362 0.90136 0.14273 0.0
O75 O 0.39561 0.92462 0.16278 0.0
C76 C 0.4251 0.92281 0.16009 0.0
C77 C 0.31143 0.93104 0.18609 0.0
C78 C 0.36666 0.93426 0.08377 0.0
C79 C 0.34369 0.84824 0.13167 0.0
O80 O 0.32805 0.87279 0.12966 0.0
O81 O 0.37233 0.84967 0.13769 0.0
O82 O 0.29878 0.93152 0.1593 0.0
O83 O 0.34048 0.92539 0.18753 0.0
O84 O 0.6223 0.92246 0.90442 0.0
Cd85 Cd 0.61247 0.89564 0.86702 0.0
Cd86 Cd 0.66318 0.91747 0.84702 0.0
O87 O 0.64955 0.95343 0.87512 0.0
O88 O 0.56736 0.89747 0.85797 0.0
O89 O 0.60297 0.92222 0.83104 0.0
C90 C 0.57431 0.91732 0.83697 0.0
C91 C 0.68492 0.92399 0.79836 0.0
C92 C 0.63547 0.94812 0.90019 0.0
C93 C 0.66301 0.85318 0.87146 0.0
O94 O 0.67813 0.87796 0.86841 0.0
O95 O 0.63418 0.85318 0.86641 0.0
O96 O 0.69956 0.9314 0.82304 0.0
O97 O 0.65693 0.91464 0.80114 0.0
O98 O 0.37299 0.07781 0.89733 0.0
Cd99 Cd 0.38631 0.1039 0.86056 0.0
Cd100 Cd 0.33468 0.0848 0.83857 0.0
O101 O 0.3446 0.0483 0.86762 0.0
O102 O 0.43127 0.09689 0.8532 0.0
O103 O 0.39416 0.07797 0.82382 0.0
C104 C 0.42291 0.07861 0.83128 0.0
C105 C 0.31226 0.07869 0.79001 0.0
C106 C 0.35807 0.05313 0.89313 0.0
C107 C 0.33875 0.14926 0.86391 0.0
O108 O 0.32237 0.12551 0.85936 0.0
O109 O 0.36777 0.14778 0.86023 0.0
O110 O 0.29728 0.07298 0.8149 0.0
O111 O 0.34082 0.08623 0.79251 0.0
O112 O 0.10659 0.60358 0.08214 0.0
Cd113 Cd 0.14617 0.60078 0.10788 0.0
Cd114 Cd 0.15084 0.6576 0.08882 0.0
O115 O 0.11933 0.64493 0.0556 0.0
O116 O 0.162 0.55778 0.10324 0.0
O117 O 0.18342 0.5985 0.08157 0.0
C118 C 0.18178 0.56902 0.08411 0.0
C119 C 0.19601 0.686 0.08229 0.0
C120 C 0.10149 0.62222 0.06021 0.0
C121 C 0.13365 0.64645 0.15473 0.0
O122 O 0.13205 0.66371 0.13129 0.0
O123 O 0.14403 0.6192 0.15217 0.0
O124 O 0.16931 0.69853 0.07904 0.0
O125 O 0.19707 0.65675 0.08674 0.0
O126 O 0.10546 0.39112 0.92218 0.0
Cd127 Cd 0.14638 0.3918 0.89867 0.0
Cd128 Cd 0.15054 0.33623 0.92163 0.0
O129 O 0.11696 0.35142 0.95177 0.0
O130 O 0.1635 0.43445 0.90033 0.0
O131 O 0.18131 0.39544 0.92792 0.0
C132 C 0.18126 0.42447 0.92198 0.0
C133 C 0.1948 0.30767 0.93179 0.0
C134 C 0.09941 0.37387 0.94498 0.0
C135 C 0.1386 0.34255 0.85404 0.0
O136 O 0.1355 0.32681 0.87836 0.0
O137 O 0.14708 0.37047 0.85573 0.0
O138 O 0.1678 0.29572 0.93464 0.0
O139 O 0.19653 0.33677 0.92654 0.0
O140 O 0.8986 0.61178 0.92602 0.0
Cd141 Cd 0.85692 0.61188 0.90366 0.0
Cd142 Cd 0.85734 0.66819 0.92303 0.0
O143 O 0.88982 0.65302 0.95424 0.0
O144 O 0.84029 0.56906 0.90563 0.0
O145 O 0.82244 0.60774 0.93355 0.0
C146 C 0.82275 0.57872 0.92755 0.0
C147 C 0.81259 0.69646 0.93153 0.0
C148 C 0.90608 0.6295 0.94801 0.0
C149 C 0.86832 0.65765 0.85628 0.0
O150 O 0.87374 0.67426 0.8796 0.0
O151 O 0.8561 0.6313 0.85977 0.0
O152 O 0.83938 0.70899 0.93416 0.0
O153 O 0.8114 0.66721 0.9269 0.0
O154 O 0.90238 0.39659 0.08505 0.0
Cd155 Cd 0.86281 0.39917 0.11087 0.0
Cd156 Cd 0.85927 0.34189 0.09272 0.0
O157 O 0.8903 0.35464 0.05918 0.0
O158 O 0.84714 0.4423 0.10656 0.0
O159 O 0.82541 0.40189 0.08466 0.0
C160 C 0.82714 0.43134 0.08749 0.0
C161 C 0.81374 0.31404 0.08688 0.0
C162 C 0.9077 0.37777 0.06336 0.0
C163 C 0.87557 0.35393 0.15847 0.0
O164 O 0.87807 0.33645 0.13528 0.0
O165 O 0.86471 0.38093 0.15531 0.0
O166 O 0.84023 0.30106 0.08358 0.0
O167 O 0.81314 0.34336 0.09094 0.0
H168 H 0.97158 0.16253 0.42333 0.0
H169 H 0.89301 0.18118 0.48128 0.0
H170 H 0.92804 0.19495 0.52413 0.0
H171 H 0.01014 0.1222 0.47829 0.0
H172 H 0.04826 0.13386 0.46707 0.0
H173 H 0.01782 0.13351 0.43921 0.0
H174 H 0.02807 0.19084 0.42697 0.0
H175 H 0.05867 0.19137 0.45493 0.0
H176 H 0.02763 0.21867 0.45761 0.0
H177 H 0.97144 0.20113 0.56192 0.0
H178 H 0.01753 0.1914 0.59347 0.0
H179 H 0.06728 0.1628 0.51209 0.0
C180 C 0.96188 0.17085 0.44468 0.0
C181 C 0.92976 0.17196 0.44889 0.0
C182 C 0.91763 0.18105 0.47756 0.0
C183 C 0.93736 0.18897 0.50189 0.0
C184 C 0.96909 0.18698 0.49726 0.0
C185 C 0.98124 0.17773 0.46941 0.0
C186 C 0.01551 0.17191 0.47181 0.0
C187 C 0.02337 0.13839 0.46363 0.0
C188 C 0.03353 0.19456 0.45163 0.0
C189 C 0.02067 0.17835 0.50559 0.0
C190 C 0.99386 0.18808 0.51963 0.0
C191 C 0.9926 0.19386 0.55109 0.0
C192 C 0.019 0.1884 0.56882 0.0
C193 C 0.04606 0.17644 0.55521 0.0
C194 C 0.04706 0.17227 0.52306 0.0
H195 H 0.05205 0.88617 0.45575 0.0
H196 H 0.06511 0.78938 0.43696 0.0
H197 H 0.02366 0.77677 0.47423 0.0
H198 H 0.03135 0.88148 0.53647 0.0
H199 H 0.00263 0.91109 0.53285 0.0
H200 H 0.03578 0.91133 0.50813 0.0
H201 H 0.99987 0.91218 0.46057 0.0
H202 H 0.96661 0.91133 0.48511 0.0
H203 H 0.9715 0.88238 0.45595 0.0
H204 H 0.98037 0.77584 0.51518 0.0
H205 H 0.93775 0.78677 0.55172 0.0
H206 H 0.94977 0.88424 0.53597 0.0
C207 C 0.04687 0.86224 0.46018 0.0
C208 C 0.06237 0.83864 0.44433 0.0
C209 C 0.0539 0.8077 0.44951 0.0
C210 C 0.03035 0.8004 0.4705 0.0
C211 C 0.01503 0.82442 0.4853 0.0
C212 C 0.02287 0.85473 0.48002 0.0
C213 C 0.00134 0.87659 0.49622 0.0
C214 C 0.01882 0.89627 0.51982 0.0
C215 C 0.9838 0.89679 0.47308 0.0
C216 C 0.98017 0.85394 0.51176 0.0
C217 C 0.98859 0.82392 0.50578 0.0
C218 C 0.97331 0.79926 0.51954 0.0
C219 C 0.94911 0.8056 0.54011 0.0
C220 C 0.93996 0.83625 0.54583 0.0
C221 C 0.95556 0.86053 0.53116 0.0
H222 H 0.48814 0.92828 0.15659 0.0
H223 H 0.40648 0.97423 0.19072 0.0
H224 H 0.43707 0.02048 0.20163 0.0
H225 H 0.54357 0.96595 0.21221 0.0
H226 H 0.57312 0.96808 0.18329 0.0
H227 H 0.54586 0.93691 0.18281 0.0
H228 H 0.53132 0.95064 0.12676 0.0
H229 H 0.55822 0.98193 0.12714 0.0
H230 H 0.51844 0.989 0.11794 0.0
H231 H 0.47369 0.06485 0.19839 0.0
H232 H 0.51554 0.10183 0.18717 0.0
H233 H 0.57455 0.02652 0.15984 0.0
C234 C 0.47692 0.94766 0.1674 0.0
C235 C 0.44488 0.94751 0.17282 0.0
C236 C 0.431 0.97361 0.18649 0.0
C237 C 0.4482 1.0001 0.19276 0.0
C238 C 0.47946 1.00001 0.18591 0.0
C239 C 0.49389 0.97421 0.17423 0.0
C240 C 0.5273 0.98085 0.16691 0.0
C241 C 0.54873 0.96181 0.18755 0.0
C242 C 0.5342 0.97528 0.13266 0.0
C243 C 0.52895 0.01469 0.17489 0.0
C244 C 0.50112 0.02536 0.18584 0.0
C245 C 0.49592 0.05661 0.1909 0.0
C246 C 0.51971 0.07747 0.18441 0.0
C247 C 0.54843 0.06688 0.17356 0.0
C248 C 0.55318 0.03507 0.16933 0.0
H249 H 0.57482 0.979 0.8404 0.0
H250 H 0.51971 0.90247 0.80905 0.0
H251 H 0.47771 0.9385 0.79505 0.0
H252 H 0.51534 0.01412 0.87876 0.0
H253 H 0.52753 0.05299 0.87148 0.0
H254 H 0.55539 0.02253 0.87221 0.0
H255 H 0.57341 0.03748 0.81753 0.0
H256 H 0.54549 0.06808 0.81659 0.0
H257 H 0.54579 0.03945 0.7867 0.0
H258 H 0.44046 0.98233 0.78871 0.0
H259 H 0.408 0.02773 0.79789 0.0
H260 H 0.48569 0.0749 0.83889 0.0
C261 C 0.55432 0.97007 0.82945 0.0
C262 C 0.55069 0.93822 0.8247 0.0
C263 C 0.52303 0.92693 0.81205 0.0
C264 C 0.4992 0.94724 0.80399 0.0
C265 C 0.50327 0.97862 0.80941 0.0
C266 C 0.53003 0.9899 0.82229 0.0
C267 C 0.52687 0.02357 0.83059 0.0
C268 C 0.53154 0.02857 0.86531 0.0
C269 C 0.54922 0.04331 0.81172 0.0
C270 C 0.49386 0.02939 0.82112 0.0
C271 C 0.481 0.00345 0.80805 0.0
C272 C 0.45038 0.00281 0.7987 0.0
C273 C 0.43213 0.02885 0.80391 0.0
C274 C 0.44427 0.055 0.81907 0.0
C275 C 0.4758 0.05546 0.82695 0.0
H276 H 0.18284 0.42008 0.9837 0.0
H277 H 0.20971 0.47901 0.90831 0.0
H278 H 0.22477 0.51942 0.94542 0.0
H279 H 0.14414 0.47531 0.02102 0.0
H280 H 0.15269 0.4627 0.05953 0.0
H281 H 0.15305 0.43557 0.02853 0.0
H282 H 0.209 0.42032 0.0422 0.0
H283 H 0.20879 0.44751 0.07343 0.0
H284 H 0.23826 0.44954 0.04442 0.0
H285 H 0.22919 0.55577 0.98961 0.0
H286 H 0.21607 0.58711 0.03475 0.0
H287 H 0.18127 0.50603 0.08099 0.0
C288 C 0.19339 0.44093 0.97516 0.0
C289 C 0.19616 0.44617 0.94328 0.0
C290 C 0.2082 0.47438 0.9327 0.0
C291 C 0.21687 0.49735 0.95365 0.0
C292 C 0.21283 0.4919 0.98502 0.0
C293 C 0.2011 0.46438 0.9957 0.0
C294 C 0.19309 0.4663 0.02954 0.0
C295 C 0.15872 0.4596 0.03494 0.0
C296 C 0.21351 0.44463 0.04852 0.0
C297 C 0.2008 0.49958 0.03598 0.0
C298 C 0.21324 0.51361 0.01033 0.0
C299 C 0.21991 0.5449 0.00994 0.0
C300 C 0.21239 0.56254 0.03582 0.0
C301 C 0.19761 0.54904 0.0615 0.0
C302 C 0.19294 0.51694 0.06194 0.0
H303 H 0.82296 0.5821 0.98938 0.0
H304 H 0.79403 0.52442 0.9138 0.0
H305 H 0.78033 0.48325 0.9506 0.0
H306 H 0.86302 0.52641 0.02465 0.0
H307 H 0.85554 0.53822 0.06362 0.0
H308 H 0.85412 0.56594 0.03316 0.0
H309 H 0.79852 0.58061 0.04863 0.0
H310 H 0.7998 0.55285 0.07936 0.0
H311 H 0.7695 0.55118 0.05115 0.0
H312 H 0.77752 0.44604 0.9942 0.0
H313 H 0.79193 0.41397 0.03848 0.0
H314 H 0.82764 0.49438 0.08518 0.0
C315 C 0.81223 0.56136 0.9808 0.0
C316 C 0.80849 0.55668 0.94894 0.0
C317 C 0.79626 0.52861 0.93822 0.0
C318 C 0.78837 0.50521 0.95899 0.0
C319 C 0.79338 0.51009 0.99032 0.0
C320 C 0.80528 0.53747 0.00115 0.0
C321 C 0.81429 0.53497 0.03471 0.0
C322 C 0.84877 0.54176 0.03927 0.0
C323 C 0.79432 0.55616 0.05464 0.0
C324 C 0.80695 0.50152 0.04077 0.0
C325 C 0.79385 0.48789 0.01522 0.0
C326 C 0.78732 0.45659 0.01446 0.0
C327 C 0.79557 0.43853 0.03985 0.0
C328 C 0.81093 0.45164 0.0654 0.0
C329 C 0.81555 0.48375 0.06623 0.0
H330 H 0.16021 0.08785 0.69447 0.0
H331 H 0.20915 0.13987 0.62523 0.0
H332 H 0.25869 0.12594 0.65031 0.0
H333 H 0.20135 0.11209 0.75553 0.0
H334 H 0.20037 0.0763 0.77632 0.0
H335 H 0.17033 0.08531 0.74953 0.0
H336 H 0.1809 0.03466 0.72009 0.0
H337 H 0.21101 0.02534 0.74699 0.0
H338 H 0.21915 0.02652 0.70642 0.0
H339 H 0.30174 0.11276 0.68868 0.0
H340 H 0.33298 0.10227 0.7351 0.0
H341 H 0.25416 0.05912 0.77801 0.0
C342 C 0.18141 0.09571 0.68406 0.0
C343 C 0.181 0.11495 0.658 0.0
C344 C 0.2091 0.12485 0.64505 0.0
C345 C 0.23724 0.11704 0.65919 0.0
C346 C 0.23666 0.09891 0.68576 0.0
C347 C 0.20931 0.08807 0.69769 0.0
C348 C 0.21392 0.07176 0.72796 0.0
C349 C 0.19542 0.08731 0.75383 0.0
C350 C 0.20577 0.03753 0.72518 0.0
C351 C 0.24803 0.07623 0.73218 0.0
C352 C 0.26103 0.09142 0.70747 0.0
C353 C 0.29185 0.10032 0.70778 0.0
C354 C 0.30945 0.09423 0.73425 0.0
C355 C 0.29602 0.07975 0.76013 0.0
C356 C 0.2652 0.06992 0.75852 0.0
H357 H 0.7441 0.94048 0.78702 0.0
H358 H 0.66307 0.90298 0.74281 0.0
H359 H 0.69381 0.89187 0.69629 0.0
H360 H 0.78176 0.97234 0.71641 0.0
H361 H 0.81921 0.96145 0.7304 0.0
H362 H 0.78941 0.97209 0.7571 0.0
H363 H 0.79651 0.92017 0.78541 0.0
H364 H 0.82599 0.90925 0.75874 0.0
H365 H 0.79298 0.88485 0.76411 0.0
H366 H 0.73592 0.87799 0.65735 0.0
H367 H 0.78453 0.86256 0.63145 0.0
H368 H 0.83656 0.90807 0.70306 0.0
C369 C 0.7325 0.93088 0.76723 0.0
C370 C 0.70116 0.92278 0.7685 0.0
C371 C 0.68703 0.90968 0.74225 0.0
C372 C 0.70432 0.90328 0.71571 0.0
C373 C 0.73561 0.91038 0.71573 0.0
C374 C 0.74939 0.92421 0.74082 0.0
C375 C 0.7838 0.92637 0.73696 0.0
C376 C 0.79414 0.96007 0.7351 0.0
C377 C 0.80079 0.90912 0.76282 0.0
C378 C 0.7875 0.91041 0.70643 0.0
C379 C 0.75955 0.90185 0.69401 0.0
C380 C 0.75787 0.88503 0.66668 0.0
C381 C 0.78549 0.87636 0.65211 0.0
C382 C 0.81415 0.88401 0.6654 0.0
C383 C 0.81492 0.90181 0.69244 0.0
H384 H 0.24903 0.93354 0.18912 0.0
H385 H 0.3305 0.92821 0.24633 0.0
H386 H 0.29776 0.91835 0.29175 0.0
H387 H 0.19617 0.9673 0.24744 0.0
H388 H 0.16457 0.94436 0.23368 0.0
H389 H 0.19413 0.95669 0.20747 0.0
H390 H 0.20332 0.90004 0.19165 0.0
H391 H 0.17428 0.88746 0.21813 0.0
H392 H 0.21266 0.87209 0.22076 0.0
H393 H 0.25555 0.90252 0.32989 0.0
H394 H 0.20856 0.88345 0.35616 0.0
H395 H 0.1567 0.89749 0.27216 0.0
C396 C 0.26002 0.9314 0.21134 0.0
C397 C 0.29231 0.93194 0.21419 0.0
C398 C 0.30575 0.92824 0.24364 0.0
C399 C 0.28733 0.92255 0.26957 0.0
C400 C 0.25555 0.92074 0.26565 0.0
C401 C 0.24208 0.9254 0.23722 0.0
C402 C 0.20795 0.91922 0.23807 0.0
C403 C 0.18963 0.94865 0.23127 0.0
C404 C 0.19906 0.89316 0.21585 0.0
C405 C 0.20435 0.90946 0.27114 0.0
C406 C 0.23182 0.91086 0.287 0.0
C407 C 0.23388 0.90167 0.31771 0.0
C408 C 0.20716 0.89079 0.33244 0.0
C409 C 0.17903 0.88874 0.31618 0.0
C410 C 0.17784 0.89851 0.28527 0.0
H411 H 0.74603 0.06806 0.19638 0.0
H412 H 0.66278 0.07972 0.24983 0.0
H413 H 0.69418 0.09024 0.29608 0.0
H414 H 0.79539 0.03522 0.25843 0.0
H415 H 0.82832 0.05628 0.24478 0.0
H416 H 0.79928 0.0437 0.21808 0.0
H417 H 0.79288 0.09976 0.19908 0.0
H418 H 0.82136 0.11263 0.22604 0.0
H419 H 0.78351 0.12947 0.22634 0.0
H420 H 0.73564 0.10598 0.33522 0.0
H421 H 0.78242 0.12452 0.36237 0.0
H422 H 0.83655 0.10477 0.2811 0.0
C423 C 0.73431 0.07166 0.21801 0.0
C424 C 0.70195 0.07273 0.21953 0.0
C425 C 0.68758 0.07842 0.24819 0.0
C426 C 0.70524 0.0845 0.27458 0.0
C427 C 0.7372 0.08476 0.2719 0.0
C428 C 0.75151 0.07817 0.24429 0.0
C429 C 0.7858 0.08316 0.24618 0.0
C430 C 0.80322 0.05278 0.24161 0.0
C431 C 0.79648 0.10771 0.22305 0.0
C432 C 0.78855 0.09445 0.27884 0.0
C433 C 0.76052 0.09481 0.29367 0.0
C434 C 0.75774 0.10549 0.32384 0.0
C435 C 0.78433 0.11607 0.33906 0.0
C436 C 0.81304 0.1164 0.32377 0.0
C437 C 0.81493 0.10516 0.29341 0.0
H438 H 0.72176 0.16109 0.12155 0.0
H439 H 0.63941 0.21579 0.13499 0.0
H440 H 0.6688 0.26263 0.12104 0.0
H441 H 0.7752 0.21506 0.15234 0.0
H442 H 0.80472 0.20541 0.12497 0.0
H443 H 0.77687 0.17701 0.13615 0.0
H444 H 0.76237 0.16895 0.07893 0.0
H445 H 0.7899 0.19766 0.0676 0.0
H446 H 0.75023 0.20137 0.0562 0.0
H447 H 0.70838 0.30353 0.1056 0.0
H448 H 0.75432 0.33459 0.09308 0.0
H449 H 0.80925 0.25152 0.08886 0.0
C450 C 0.70971 0.18286 0.12169 0.0
C451 C 0.67819 0.18473 0.12937 0.0
C452 C 0.66355 0.21379 0.12929 0.0
C453 C 0.68003 0.24045 0.12125 0.0
C454 C 0.71103 0.23755 0.1133 0.0
C455 C 0.72565 0.20942 0.11367 0.0
C456 C 0.75909 0.21209 0.10464 0.0
C457 C 0.7802 0.20179 0.1311 0.0
C458 C 0.76577 0.19394 0.07508 0.0
C459 C 0.76126 0.24625 0.09919 0.0
C460 C 0.73336 0.26065 0.10419 0.0
C461 C 0.73024 0.2924 0.10149 0.0
C462 C 0.75645 0.30985 0.09424 0.0
C463 C 0.78536 0.29548 0.08974 0.0
C464 C 0.78746 0.26321 0.09172 0.0
H465 H 0.19937 0.74851 0.08265 0.0
H466 H 0.25586 0.66666 0.08926 0.0
H467 H 0.30111 0.69892 0.10147 0.0
H468 H 0.2579 0.79932 0.0498 0.0
H469 H 0.24447 0.83176 0.0717 0.0
H470 H 0.21793 0.80214 0.06033 0.0
H471 H 0.2021 0.79487 0.11729 0.0
H472 H 0.22892 0.82407 0.12889 0.0
H473 H 0.23118 0.78624 0.14553 0.0
H474 H 0.33979 0.74122 0.11672 0.0
H475 H 0.36752 0.78899 0.13116 0.0
H476 H 0.28376 0.84105 0.1158 0.0
C477 C 0.22137 0.73732 0.08591 0.0
C478 C 0.2241 0.70508 0.08475 0.0
C479 C 0.25326 0.69139 0.08978 0.0
C480 C 0.27909 0.70952 0.09684 0.0
C481 C 0.27533 0.74126 0.09879 0.0
C482 C 0.24717 0.75496 0.0932 0.0
C483 C 0.24844 0.78921 0.09826 0.0
C484 C 0.24181 0.80663 0.06823 0.0
C485 C 0.22636 0.79916 0.12402 0.0
C486 C 0.28159 0.79272 0.10793 0.0
C487 C 0.29699 0.76501 0.108 0.0
C488 C 0.32792 0.76306 0.11657 0.0
C489 C 0.34347 0.79024 0.12488 0.0
C490 C 0.32791 0.81882 0.12473 0.0
C491 C 0.29653 0.8197 0.11628 0.0
H492 H 0.80922 0.75895 0.92748 0.0
H493 H 0.75258 0.67702 0.92889 0.0
H494 H 0.70691 0.70843 0.91618 0.0
H495 H 0.75114 0.81283 0.95814 0.0
H496 H 0.76386 0.84328 0.93316 0.0
H497 H 0.79082 0.81477 0.94637 0.0
H498 H 0.80525 0.80266 0.8899 0.0
H499 H 0.77802 0.83073 0.8765 0.0
H500 H 0.77551 0.7916 0.86326 0.0
H501 H 0.66811 0.74884 0.89848 0.0
H502 H 0.63994 0.79457 0.87941 0.0
H503 H 0.72321 0.84871 0.88845 0.0
C504 C 0.78709 0.74767 0.92604 0.0
C505 C 0.78445 0.71555 0.9295 0.0
C506 C 0.75513 0.70165 0.92663 0.0
C507 C 0.72906 0.7193 0.91933 0.0
C508 C 0.73269 0.75081 0.91497 0.0
C509 C 0.76098 0.76486 0.91851 0.0
C510 C 0.75941 0.79862 0.91051 0.0
C511 C 0.76673 0.81855 0.93873 0.0
C512 C 0.78081 0.80633 0.88344 0.0
C513 C 0.72598 0.80133 0.90141 0.0
C514 C 0.71076 0.77366 0.90431 0.0
C515 C 0.67979 0.77068 0.89638 0.0
C516 C 0.66399 0.79672 0.88545 0.0
C517 C 0.6793 0.82526 0.88234 0.0
C518 C 0.71071 0.82731 0.89048 0.0
H519 H 0.2785 0.1557 0.8795 0.0
H520 H 0.36429 0.2064 0.87536 0.0
H521 H 0.33777 0.25211 0.89678 0.0
H522 H 0.22926 0.21678 0.85748 0.0
H523 H 0.19867 0.20501 0.88275 0.0
H524 H 0.22497 0.17691 0.86773 0.0
H525 H 0.23781 0.15946 0.92326 0.0
H526 H 0.21185 0.18787 0.93847 0.0
H527 H 0.25143 0.18727 0.95073 0.0
H528 H 0.30018 0.29309 0.91659 0.0
H529 H 0.25553 0.32526 0.93111 0.0
H530 H 0.1961 0.24563 0.92417 0.0
C531 C 0.29191 0.17635 0.883 0.0
C532 C 0.32354 0.17744 0.87562 0.0
C533 C 0.34003 0.20501 0.88075 0.0
C534 C 0.32518 0.23102 0.89303 0.0
C535 C 0.29396 0.22892 0.90029 0.0
C536 C 0.27762 0.20219 0.89539 0.0
C537 C 0.24424 0.20565 0.90436 0.0
C538 C 0.22305 0.20081 0.87642 0.0
C539 C 0.23586 0.18376 0.93078 0.0
C540 C 0.24406 0.23869 0.91485 0.0
C541 C 0.27288 0.25186 0.91241 0.0
C542 C 0.27765 0.28285 0.91895 0.0
C543 C 0.25217 0.30092 0.92732 0.0
C544 C 0.22238 0.28789 0.92923 0.0
C545 C 0.21863 0.25619 0.92366 0.0
H546 H 0.06162 0.78116 0.24931 0.0
H547 H 0.10933 0.74738 0.32992 0.0
H548 H 0.12185 0.69927 0.30223 0.0
H549 H 0.03248 0.70479 0.22126 0.0
H550 H 0.03849 0.71611 0.18189 0.0
H551 H 0.02831 0.74448 0.21025 0.0
H552 H 0.07659 0.77615 0.1956 0.0
H553 H 0.08707 0.74787 0.16754 0.0
H554 H 0.11392 0.75823 0.19732 0.0
H555 H 0.13665 0.65868 0.26185 0.0
H556 H 0.15061 0.63052 0.21414 0.0
H557 H 0.09236 0.692 0.16168 0.0
C558 C 0.07382 0.76323 0.26153 0.0
C559 C 0.0844 0.76791 0.29175 0.0
C560 C 0.10066 0.74408 0.30684 0.0
C561 C 0.10793 0.7167 0.29125 0.0
C562 C 0.09828 0.71339 0.26083 0.0
C563 C 0.08108 0.73594 0.24641 0.0
C564 C 0.07604 0.72874 0.21289 0.0
C565 C 0.04179 0.72319 0.20619 0.0
C566 C 0.08921 0.75425 0.19215 0.0
C567 C 0.09432 0.69942 0.21019 0.0
C568 C 0.10666 0.69041 0.23801 0.0
C569 C 0.12655 0.66522 0.24009 0.0
C570 C 0.13438 0.64934 0.21295 0.0
C571 C 0.12264 0.65915 0.18426 0.0
C572 C 0.10175 0.68393 0.18327 0.0
H573 H 0.09913 0.19707 0.75361 0.0
H574 H 0.08252 0.25618 0.67514 0.0
H575 H 0.09534 0.30169 0.7071 0.0
H576 H 0.06932 0.24626 0.8121 0.0
H577 H 0.09867 0.2355 0.83931 0.0
H578 H 0.08673 0.20873 0.8102 0.0
H579 H 0.14333 0.20354 0.7921 0.0
H580 H 0.15536 0.23062 0.82092 0.0
H581 H 0.16435 0.23746 0.7811 0.0
H582 H 0.1115 0.34094 0.74936 0.0
H583 H 0.12715 0.36866 0.79686 0.0
H584 H 0.13442 0.28144 0.84449 0.0
C585 C 0.09767 0.21956 0.74309 0.0
C586 C 0.08947 0.22311 0.71197 0.0
C587 C 0.0885 0.25298 0.69907 0.0
C588 C 0.09587 0.27891 0.71701 0.0
C589 C 0.10447 0.27441 0.7476 0.0
C590 C 0.10534 0.24534 0.76037 0.0
C591 C 0.11611 0.24594 0.79326 0.0
C592 C 0.09121 0.23338 0.81499 0.0
C593 C 0.14659 0.22836 0.79705 0.0
C594 C 0.12067 0.27998 0.79743 0.0
C595 C 0.11409 0.29628 0.77102 0.0
C596 C 0.1167 0.32828 0.77012 0.0
C597 C 0.12572 0.34384 0.7971 0.0
C598 C 0.13183 0.32727 0.82442 0.0
C599 C 0.12967 0.29494 0.82413 0.0
H600 H 0.90397 0.70723 0.84498 0.0
H601 H 0.85134 0.63655 0.79851 0.0
H602 H 0.8628 0.66153 0.74845 0.0
H603 H 0.87732 0.76809 0.80259 0.0
H604 H 0.91316 0.78884 0.80289 0.0
H605 H 0.90429 0.76279 0.8336 0.0
H606 H 0.95509 0.73328 0.82344 0.0
H607 H 0.96411 0.75927 0.79252 0.0
H608 H 0.96288 0.71849 0.78557 0.0
H609 H 0.8761 0.69852 0.70399 0.0
H610 H 0.88747 0.74373 0.6712 0.0
H611 H 0.93061 0.78874 0.7488 0.0
C612 C 0.89513 0.69656 0.82432 0.0
C613 C 0.87667 0.66994 0.82567 0.0
C614 C 0.86564 0.65688 0.798 0.0
C615 C 0.87211 0.67089 0.76951 0.0
C616 C 0.88992 0.69762 0.76922 0.0
C617 C 0.90133 0.7101 0.79607 0.0
C618 C 0.91761 0.74018 0.79054 0.0
C619 C 0.90216 0.7665 0.80845 0.0
C620 C 0.95196 0.73763 0.79848 0.0
C621 C 0.91281 0.74346 0.75641 0.0
C622 C 0.89728 0.71857 0.74421 0.0
C623 C 0.88865 0.71784 0.71331 0.0
C624 C 0.89531 0.74354 0.69481 0.0
C625 C 0.91 0.76965 0.70749 0.0
C626 C 0.91954 0.76904 0.73841 0.0
H627 H 0.93772 0.21786 0.25809 0.0
H628 H 0.88884 0.25556 0.33613 0.0
H629 H 0.87987 0.30371 0.30714 0.0
H630 H 0.97187 0.29241 0.23018 0.0
H631 H 0.96696 0.28077 0.19076 0.0
H632 H 0.97458 0.25239 0.21995 0.0
H633 H 0.92547 0.22282 0.20369 0.0
H634 H 0.91756 0.25111 0.17478 0.0
H635 H 0.88901 0.24254 0.20351 0.0
H636 H 0.86842 0.34397 0.26557 0.0
H637 H 0.85738 0.37173 0.21688 0.0
H638 H 0.91494 0.30696 0.16781 0.0
C639 C 0.92602 0.23663 0.26948 0.0
C640 C 0.91407 0.23307 0.29933 0.0
C641 C 0.89853 0.25798 0.31335 0.0
C642 C 0.89329 0.28539 0.29703 0.0
C643 C 0.90427 0.28766 0.26699 0.0
C644 C 0.92084 0.26402 0.25365 0.0
C645 C 0.92759 0.27042 0.22027 0.0
C646 C 0.96232 0.27423 0.21499 0.0
C647 C 0.91408 0.24524 0.19936 0.0
C648 C 0.91088 0.30055 0.21634 0.0
C649 C 0.89793 0.3106 0.24349 0.0
C650 C 0.87906 0.33663 0.24435 0.0
C651 C 0.8729 0.35228 0.21665 0.0
C652 C 0.88525 0.34147 0.1886 0.0
C653 C 0.90515 0.31586 0.18887 0.0
H654 H 0.03029 0.0543 0.60409 0.0
H655 H 0.03762 0.07306 0.70166 0.0
H656 H 0.01208 0.02365 0.71311 0.0
H657 H 0.95421 0.02038 0.60846 0.0
H658 H 0.96194 0.99272 0.57866 0.0
H659 H 0.98137 0.02921 0.57848 0.0
H660 H 0.03385 0.00099 0.5773 0.0
H661 H 0.01455 0.96442 0.57797 0.0
H662 H 0.04283 0.97342 0.60687 0.0
H663 H 0.98893 0.97068 0.71379 0.0
H664 H 0.96149 0.92191 0.70368 0.0
H665 H 0.96543 0.94004 0.60581 0.0
C666 C 0.02632 0.04802 0.62784 0.0
C667 C 0.03595 0.06728 0.65203 0.0
C668 C 0.03018 0.05861 0.68283 0.0
C669 C 0.01597 0.03052 0.68954 0.0
C670 C 0.00723 0.01175 0.66516 0.0
C671 C 0.01153 0.02044 0.63492 0.0
C672 C 0.99858 0.99681 0.61298 0.0
C673 C 0.97247 0.0106 0.59351 0.0
C674 C 0.02397 0.98311 0.59259 0.0
C675 C 0.98655 0.97337 0.63561 0.0
C676 C 0.99229 0.98211 0.66558 0.0
C677 C 0.98404 0.96371 0.69044 0.0
C678 C 0.96873 0.93601 0.6845 0.0
C679 C 0.96137 0.92746 0.65403 0.0
C680 C 0.9707 0.94622 0.62934 0.0
H681 H 0.96035 0.0532 0.3921 0.0
H682 H 0.95553 0.07675 0.29542 0.0
H683 H 0.98131 0.02791 0.28221 0.0
H684 H 0.03674 0.01966 0.38776 0.0
H685 H 0.0285 0.99059 0.41605 0.0
H686 H 0.0089 0.02697 0.41753 0.0
H687 H 0.95657 0.99853 0.41627 0.0
H688 H 0.97608 0.9621 0.41424 0.0
H689 H 0.94835 0.9724 0.38523 0.0
H690 H 0.00436 0.97501 0.27944 0.0
H691 H 0.03232 0.92614 0.28774 0.0
H692 H 0.02646 0.93953 0.38624 0.0
C693 C 0.96497 0.04808 0.3682 0.0
C694 C 0.95597 0.06853 0.34472 0.0
C695 C 0.96253 0.06138 0.3137 0.0
C696 C 0.97685 0.03362 0.30598 0.0
C697 C 0.98494 0.01362 0.32961 0.0
C698 C 0.97997 0.02085 0.36014 0.0
C699 C 0.99259 0.99621 0.38118 0.0
C700 C 0.01821 0.00913 0.40184 0.0
C701 C 0.96686 0.98144 0.40035 0.0
C702 C 0.00521 0.97393 0.3577 0.0
C703 C 0.99997 0.98406 0.32808 0.0
C704 C 0.00886 0.96694 0.30252 0.0
C705 C 0.02444 0.93916 0.30741 0.0
C706 C 0.03145 0.92932 0.33756 0.0
C707 C 0.02136 0.94671 0.36296 0.0
H708 H 0.63531 0.93889 0.96208 0.0
H709 H 0.63308 0.01019 0.89253 0.0
H710 H 0.62981 0.04971 0.93325 0.0
H711 H 0.58384 0.97411 0.01623 0.0
H712 H 0.60547 0.9621 0.04946 0.0
H713 H 0.6064 0.9394 0.0149 0.0
H714 H 0.66585 0.94307 0.01384 0.0
H715 H 0.66512 0.96569 0.04844 0.0
H716 H 0.68394 0.98029 0.01459 0.0
H717 H 0.62478 0.0809 0.98117 0.0
H718 H 0.62382 0.10271 0.03343 0.0
H719 H 0.63368 0.01135 0.07204 0.0
C720 C 0.63399 0.96284 0.9555 0.0
C721 C 0.63421 0.97167 0.92431 0.0
C722 C 0.633 0.00313 0.91639 0.0
C723 C 0.631 0.02564 0.9393 0.0
C724 C 0.6308 0.01619 0.96989 0.0
C725 C 0.63272 0.9856 0.97806 0.0
C726 C 0.63356 0.98169 0.01263 0.0
C727 C 0.60565 0.96323 0.02396 0.0
C728 C 0.66393 0.96681 0.02297 0.0
C729 C 0.63165 0.0149 0.02264 0.0
C730 C 0.62962 0.03434 0.9976 0.0
C731 C 0.62661 0.06596 0.00095 0.0
C732 C 0.62595 0.07808 0.0307 0.0
C733 C 0.62883 0.05867 0.05665 0.0
C734 C 0.63174 0.02668 0.05254 0.0
H735 H 0.36184 0.9948 0.06674 0.0
H736 H 0.36709 0.90216 0.03059 0.0
H737 H 0.36272 0.92233 0.97777 0.0
H738 H 0.30889 0.02602 0.01067 0.0
H739 H 0.32831 0.06247 0.00806 0.0
H740 H 0.32985 0.04072 0.04322 0.0
H741 H 0.3894 0.04192 0.04165 0.0
H742 H 0.38803 0.06377 0.00657 0.0
H743 H 0.40913 0.02817 0.00795 0.0
H744 H 0.3564 0.95229 0.92909 0.0
H745 H 0.35498 0.99079 0.88723 0.0
H746 H 0.35856 0.06396 0.95471 0.0
C747 C 0.36186 0.97886 0.04764 0.0
C748 C 0.36458 0.94699 0.05255 0.0
C749 C 0.3651 0.92671 0.02714 0.0
C750 C 0.36244 0.9379 0.99713 0.0
C751 C 0.35983 0.96946 0.99295 0.0
C752 C 0.36003 0.98972 0.01742 0.0
C753 C 0.35902 0.02266 0.00641 0.0
C754 C 0.32977 0.03892 0.01776 0.0
C755 C 0.38813 0.04015 0.01623 0.0
C756 C 0.35816 0.01768 0.97201 0.0
C757 C 0.35808 0.98683 0.96474 0.0
C758 C 0.35665 0.97655 0.93444 0.0
C759 C 0.35573 0.99849 0.91088 0.0
C760 C 0.35689 0.03017 0.91787 0.0
C761 C 0.35797 0.03981 0.9488 0.0
H762 H 0.94622 0.67037 0.97453 0.0
H763 H 0.92982 0.57317 0.96017 0.0
H764 H 0.97861 0.56096 0.98646 0.0
H765 H 0.02733 0.66719 0.95984 0.0
H766 H 0.03727 0.69544 0.98841 0.0
H767 H 1.0002 0.69679 0.96999 0.0
H768 H 0.97333 0.69489 0.02305 0.0
H769 H 0.01032 0.69387 0.04164 0.0
H770 H 0.98246 0.66425 0.04937 0.0
H771 H 0.0282 0.5591 0.01487 0.0
H772 H 0.07679 0.56774 0.04293 0.0
H773 H 0.06351 0.6662 0.03568 0.0
C774 C 0.95278 0.64654 0.97733 0.0
C775 C 0.93423 0.62265 0.9656 0.0
C776 C 0.94376 0.59176 0.96906 0.0
C777 C 0.97139 0.58461 0.98393 0.0
C778 C 0.98944 0.60866 0.99479 0.0
C779 C 0.98067 0.63901 0.9916 0.0
C780 C 0.00495 0.66042 0.00446 0.0
C781 C 0.01822 0.68118 0.97916 0.0
C782 C 0.99199 0.67948 0.03122 0.0
C783 C 0.02857 0.63734 0.01555 0.0
C784 C 0.01899 0.60761 0.00991 0.0
C785 C 0.03612 0.58225 0.0192 0.0
C786 C 0.06364 0.58737 0.03507 0.0
C787 C 0.07396 0.61759 0.04105 0.0
C788 C 0.0564 0.64288 0.0308 0.0
H789 H 0.06095 0.33233 0.97279 0.0
H790 H 0.07485 0.42975 0.95737 0.0
H791 H 0.02688 0.44114 0.98542 0.0
H792 H 0.97913 0.33409 0.961 0.0
H793 H 0.97085 0.30566 0.98992 0.0
H794 H 0.00718 0.30498 0.97009 0.0
H795 H 0.03606 0.30732 0.02211 0.0
H796 H 0.99983 0.30774 0.0421 0.0
H797 H 0.02748 0.33783 0.04874 0.0
H798 H 0.97852 0.44216 0.01592 0.0
H799 H 0.93112 0.43267 0.04561 0.0
H800 H 0.94586 0.33445 0.03795 0.0
C801 C 0.054 0.35604 0.9757 0.0
C802 C 0.07162 0.38024 0.96323 0.0
C803 C 0.0616 0.41095 0.96684 0.0
C804 C 0.03445 0.41762 0.98272 0.0
C805 C 0.01733 0.39328 0.99438 0.0
C806 C 0.02652 0.36309 0.99093 0.0
C807 C 0.00315 0.34125 0.00473 0.0
C808 C 0.98926 0.32026 0.97995 0.0
C809 C 0.01749 0.32243 0.03098 0.0
C810 C 0.97958 0.36393 0.0167 0.0
C811 C 0.98841 0.39381 0.01066 0.0
C812 C 0.97119 0.41888 0.02056 0.0
C813 C 0.94436 0.41328 0.03737 0.0
C814 C 0.93477 0.38288 0.04369 0.0
C815 C 0.95242 0.3579 0.03289 0.0
loop_
_geom_bond_atom_site_label_1
_geom_bond_atom_site_label_2
_geom_bond_distance
_geom_bond_site_symmetry_2
_ccdc_geom_bond_type
O0 Cd1 2.223 . S
O0 C8 1.315 . S
Cd1 O0 2.223 . S
Cd1 O4 2.297 . S
Cd1 O5 2.439 . S
Cd1 O11 2.240 . S
Cd2 O3 2.240 . S
Cd2 O10 2.223 . S
Cd2 O12 2.297 . S
Cd2 O13 2.439 . S
O3 Cd2 2.240 . S
O3 C8 1.279 . S
O4 Cd1 2.297 . S
O4 C6 1.247 . S
O5 Cd1 2.439 . S
O5 C6 1.208 . S
C6 O4 1.247 . S
C6 O5 1.208 . S
C7 O12 1.247 . S
C7 O13 1.208 . S
C8 O0 1.315 . S
C8 O3 1.279 . S
C9 O10 1.315 . S
C9 O11 1.279 . S
O10 Cd2 2.223 . S
O10 C9 1.315 . S
O11 Cd1 2.240 . S
O11 C9 1.279 . S
O12 Cd2 2.297 . S
O12 C7 1.247 . S
O13 Cd2 2.439 . S
O13 C7 1.208 . S
O14 Cd15 2.223 . S
O14 C22 1.315 . S
Cd15 O14 2.223 . S
Cd15 O18 2.297 . S
Cd15 O19 2.439 . S
Cd15 O25 2.240 . S
Cd16 O17 2.240 . S
Cd16 O24 2.223 . S
Cd16 O26 2.297 . S
Cd16 O27 2.439 . S
O17 Cd16 2.240 . S
O17 C22 1.279 . S
O18 Cd15 2.297 . S
O18 C20 1.247 . S
O19 Cd15 2.439 . S
O19 C20 1.208 . S
C20 O18 1.247 . S
C20 O19 1.208 . S
C21 O26 1.247 . S
C21 O27 1.208 . S
C22 O14 1.315 . S
C22 O17 1.279 . S
C23 O24 1.315 . S
C23 O25 1.279 . S
O24 Cd16 2.223 . S
O24 C23 1.315 . S
O25 Cd15 2.240 . S
O25 C23 1.279 . S
O26 Cd16 2.297 . S
O26 C21 1.247 . S
O27 Cd16 2.439 . S
O27 C21 1.208 . S
O28 Cd29 2.223 . S
O28 C36 1.315 . S
Cd29 O28 2.223 . S
Cd29 O32 2.297 . S
Cd29 O33 2.439 . S
Cd29 O39 2.240 . S
Cd30 O31 2.240 . S
Cd30 O38 2.223 . S
Cd30 O40 2.297 . S
Cd30 O41 2.439 . S
O31 Cd30 2.240 . S
O31 C36 1.279 . S
O32 Cd29 2.297 . S
O32 C34 1.247 . S
O33 Cd29 2.439 . S
O33 C34 1.208 . S
C34 O32 1.247 . S
C34 O33 1.208 . S
C35 O40 1.247 . S
C35 O41 1.208 . S
C36 O28 1.315 . S
C36 O31 1.279 . S
C37 O38 1.315 . S
C37 O39 1.279 . S
O38 Cd30 2.223 . S
O38 C37 1.315 . S
O39 Cd29 2.240 . S
O39 C37 1.279 . S
O40 Cd30 2.297 . S
O40 C35 1.247 . S
O41 Cd30 2.439 . S
O41 C35 1.208 . S
O42 Cd43 2.223 . S
O42 C50 1.315 . S
Cd43 O42 2.223 . S
Cd43 O46 2.297 . S
Cd43 O47 2.439 . S
Cd43 O53 2.240 . S
Cd44 O45 2.240 . S
Cd44 O52 2.223 . S
Cd44 O54 2.297 . S
Cd44 O55 2.439 . S
O45 Cd44 2.240 . S
O45 C50 1.279 . S
O46 Cd43 2.297 . S
O46 C48 1.247 . S
O47 Cd43 2.439 . S
O47 C48 1.208 . S
C48 O46 1.247 . S
C48 O47 1.208 . S
C49 O54 1.247 . S
C49 O55 1.208 . S
C50 O42 1.315 . S
C50 O45 1.279 . S
C51 O52 1.315 . S
C51 O53 1.279 . S
O52 Cd44 2.223 . S
O52 C51 1.315 . S
O53 Cd43 2.240 . S
O53 C51 1.279 . S
O54 Cd44 2.297 . S
O54 C49 1.247 . S
O55 Cd44 2.439 . S
O55 C49 1.208 . S
O56 Cd57 2.223 . S
O56 C64 1.315 . S
Cd57 O56 2.223 . S
Cd57 O60 2.297 . S
Cd57 O61 2.439 . S
Cd57 O67 2.240 . S
Cd58 O59 2.240 . S
Cd58 O66 2.223 . S
Cd58 O68 2.297 . S
Cd58 O69 2.439 . S
O59 Cd58 2.240 . S
O59 C64 1.279 . S
O60 Cd57 2.297 . S
O60 C62 1.247 . S
O61 Cd57 2.439 . S
O61 C62 1.208 . S
C62 O60 1.247 . S
C62 O61 1.208 . S
C63 O68 1.247 . S
C63 O69 1.208 . S
C64 O56 1.315 . S
C64 O59 1.279 . S
C65 O66 1.315 . S
C65 O67 1.279 . S
O66 Cd58 2.223 . S
O66 C65 1.315 . S
O67 Cd57 2.240 . S
O67 C65 1.279 . S
O68 Cd58 2.297 . S
O68 C63 1.247 . S
O69 Cd58 2.439 . S
O69 C63 1.208 . S
O70 Cd71 2.223 . S
O70 C78 1.315 . S
Cd71 O70 2.223 . S
Cd71 O74 2.297 . S
Cd71 O75 2.439 . S
Cd71 O81 2.240 . S
Cd72 O73 2.240 . S
Cd72 O80 2.223 . S
Cd72 O82 2.297 . S
Cd72 O83 2.439 . S
O73 Cd72 2.240 . S
O73 C78 1.279 . S
O74 Cd71 2.297 . S
O74 C76 1.247 . S
O75 Cd71 2.439 . S
O75 C76 1.208 . S
C76 O74 1.247 . S
C76 O75 1.208 . S
C77 O82 1.247 . S
C77 O83 1.208 . S
C78 O70 1.315 . S
C78 O73 1.279 . S
C79 O80 1.315 . S
C79 O81 1.279 . S
O80 Cd72 2.223 . S
O80 C79 1.315 . S
O81 Cd71 2.240 . S
O81 C79 1.279 . S
O82 Cd72 2.297 . S
O82 C77 1.247 . S
O83 Cd72 2.439 . S
O83 C77 1.208 . S
O84 Cd85 2.223 . S
O84 C92 1.315 . S
Cd85 O84 2.223 . S
Cd85 O88 2.297 . S
Cd85 O89 2.439 . S
Cd85 O95 2.240 . S
Cd86 O87 2.240 . S
Cd86 O94 2.223 . S
Cd86 O96 2.297 . S
Cd86 O97 2.439 . S
O87 Cd86 2.240 . S
O87 C92 1.279 . S
O88 Cd85 2.297 . S
O88 C90 1.247 . S
O89 Cd85 2.439 . S
O89 C90 1.208 . S
C90 O88 1.247 . S
C90 O89 1.208 . S
C91 O96 1.247 . S
C91 O97 1.208 . S
C92 O84 1.315 . S
C92 O87 1.279 . S
C93 O94 1.315 . S
C93 O95 1.279 . S
O94 Cd86 2.223 . S
O94 C93 1.315 . S
O95 Cd85 2.240 . S
O95 C93 1.279 . S
O96 Cd86 2.297 . S
O96 C91 1.247 . S
O97 Cd86 2.439 . S
O97 C91 1.208 . S
O98 Cd99 2.223 . S
O98 C106 1.315 . S
Cd99 O98 2.223 . S
Cd99 O102 2.297 . S
Cd99 O103 2.439 . S
Cd99 O109 2.240 . S
Cd100 O101 2.240 . S
Cd100 O108 2.223 . S
Cd100 O110 2.297 . S
Cd100 O111 2.439 . S
O101 Cd100 2.240 . S
O101 C106 1.279 . S
O102 Cd99 2.297 . S
O102 C104 1.247 . S
O103 Cd99 2.439 . S
O103 C104 1.208 . S
C104 O102 1.247 . S
C104 O103 1.208 . S
C105 O110 1.247 . S
C105 O111 1.208 . S
C106 O98 1.315 . S
C106 O101 1.279 . S
C107 O108 1.315 . S
C107 O109 1.279 . S
O108 Cd100 2.223 . S
O108 C107 1.315 . S
O109 Cd99 2.240 . S
O109 C107 1.279 . S
O110 Cd100 2.297 . S
O110 C105 1.247 . S
O111 Cd100 2.439 . S
O111 C105 1.208 . S
O112 Cd113 2.223 . S
O112 C120 1.315 . S
Cd113 O112 2.223 . S
Cd113 O116 2.297 . S
Cd113 O117 2.439 . S
Cd113 O123 2.240 . S
Cd114 O115 2.240 . S
Cd114 O122 2.223 . S
Cd114 O124 2.297 . S
Cd114 O125 2.439 . S
O115 Cd114 2.240 . S
O115 C120 1.279 . S
O116 Cd113 2.297 . S
O116 C118 1.247 . S
O117 Cd113 2.439 . S
O117 C118 1.208 . S
C118 O116 1.247 . S
C118 O117 1.208 . S
C119 O124 1.247 . S
C119 O125 1.208 . S
C120 O112 1.315 . S
C120 O115 1.279 . S
C121 O122 1.315 . S
C121 O123 1.279 . S
O122 Cd114 2.223 . S
O122 C121 1.315 . S
O123 Cd113 2.240 . S
O123 C121 1.279 . S
O124 Cd114 2.297 . S
O124 C119 1.247 . S
O125 Cd114 2.439 . S
O125 C119 1.208 . S
O126 Cd127 2.223 . S
O126 C134 1.315 . S
Cd127 O126 2.223 . S
Cd127 O130 2.297 . S
Cd127 O131 2.439 . S
Cd127 O137 2.240 . S
Cd128 O129 2.240 . S
Cd128 O136 2.223 . S
Cd128 O138 2.297 . S
Cd128 O139 2.439 . S
O129 Cd128 2.240 . S
O129 C134 1.279 . S
O130 Cd127 2.297 . S
O130 C132 1.247 . S
O131 Cd127 2.439 . S
O131 C132 1.208 . S
C132 O130 1.247 . S
C132 O131 1.208 . S
C133 O138 1.247 . S
C133 O139 1.208 . S
C134 O126 1.315 . S
C134 O129 1.279 . S
C135 O136 1.315 . S
C135 O137 1.279 . S
O136 Cd128 2.223 . S
O136 C135 1.315 . S
O137 Cd127 2.240 . S
O137 C135 1.279 . S
O138 Cd128 2.297 . S
O138 C133 1.247 . S
O139 Cd128 2.439 . S
O139 C133 1.208 . S
O140 Cd141 2.223 . S
O140 C148 1.315 . S
Cd141 O140 2.223 . S
Cd141 O144 2.297 . S
Cd141 O145 2.439 . S
Cd141 O151 2.240 . S
Cd142 O143 2.240 . S
Cd142 O150 2.223 . S
Cd142 O152 2.297 . S
Cd142 O153 2.439 . S
O143 Cd142 2.240 . S
O143 C148 1.279 . S
O144 Cd141 2.297 . S
O144 C146 1.247 . S
O145 Cd141 2.439 . S
O145 C146 1.208 . S
C146 O144 1.247 . S
C146 O145 1.208 . S
C147 O152 1.247 . S
C147 O153 1.208 . S
C148 O140 1.315 . S
C148 O143 1.279 . S
C149 O150 1.315 . S
C149 O151 1.279 . S
O150 Cd142 2.223 . S
O150 C149 1.315 . S
O151 Cd141 2.240 . S
O151 C149 1.279 . S
O152 Cd142 2.297 . S
O152 C147 1.247 . S
O153 Cd142 2.439 . S
O153 C147 1.208 . S
O154 Cd155 2.223 . S
O154 C162 1.315 . S
Cd155 O154 2.223 . S
Cd155 O158 2.297 . S
Cd155 O159 2.439 . S
Cd155 O165 2.240 . S
Cd156 O157 2.240 . S
Cd156 O164 2.223 . S
Cd156 O166 2.297 . S
Cd156 O167 2.439 . S
O157 Cd156 2.240 . S
O157 C162 1.279 . S
O158 Cd155 2.297 . S
O158 C160 1.247 . S
O159 Cd155 2.439 . S
O159 C160 1.208 . S
C160 O158 1.247 . S
C160 O159 1.208 . S
C161 O166 1.247 . S
C161 O167 1.208 . S
C162 O154 1.315 . S
C162 O157 1.279 . S
C163 O164 1.315 . S
C163 O165 1.279 . S
O164 Cd156 2.223 . S
O164 C163 1.315 . S
O165 Cd155 2.240 . S
O165 C163 1.279 . S
O166 Cd156 2.297 . S
O166 C161 1.247 . S
O167 Cd156 2.439 . S
O167 C161 1.208 . S
H168 C180 0.930 . S
H169 C182 0.930 . S
H170 C183 0.930 . S
H171 C187 0.959 . S
H172 C187 0.959 . S
H173 C187 0.961 . S
H174 C188 0.960 . S
H175 C188 0.961 . S
H176 C188 0.959 . S
H177 C191 0.929 1_655 S
H178 C192 0.931 . S
H179 C194 0.930 . S
C180 H168 0.930 . S
C180 C181 1.399 . S
C180 C185 1.399 . S
C181 C180 1.399 . S
C181 C182 1.376 . S
C182 H169 0.930 . S
C182 C181 1.376 . S
C182 C183 1.388 . S
C183 H170 0.930 . S
C183 C182 1.388 . S
C183 C184 1.390 . S
C184 C183 1.390 . S
C184 C185 1.394 . S
C184 C190 1.471 . S
C185 C180 1.399 . S
C185 C184 1.394 . S
C185 C186 1.516 1_655 S
C186 C185 1.516 1_455 S
C186 C187 1.502 . S
C186 C188 1.561 1_455 S
C186 C189 1.526 . S
C187 H171 0.959 . S
C187 H172 0.959 . S
C187 H173 0.961 . S
C187 C186 1.502 . S
C188 H174 0.960 . S
C188 H175 0.961 . S
C188 H176 0.959 . S
C188 C186 1.561 1_655 S
C189 C186 1.526 . S
C189 C190 1.391 1_455 S
C189 C194 1.390 . S
C190 C184 1.471 . S
C190 C189 1.391 1_655 S
C190 C191 1.398 1_655 S
C191 H177 0.929 1_455 S
C191 C190 1.398 1_455 S
C191 C192 1.385 . S
C192 H178 0.931 . S
C192 C191 1.385 . S
C192 C193 1.389 . S
C193 C192 1.389 . S
C193 C194 1.387 . S
C194 H179 0.930 . S
C194 C189 1.390 . S
C194 C193 1.387 . S
H195 C207 0.930 . S
H196 C209 0.930 . S
H197 C210 0.930 . S
H198 C214 0.959 . S
H199 C214 0.959 . S
H200 C214 0.961 . S
H201 C215 0.960 . S
H202 C215 0.961 . S
H203 C215 0.959 . S
H204 C218 0.929 . S
H205 C219 0.931 . S
H206 C221 0.930 . S
C207 H195 0.930 . S
C207 C208 1.399 . S
C207 C212 1.399 . S
C208 C207 1.399 . S
C208 C209 1.376 . S
C209 H196 0.930 . S
C209 C208 1.376 . S
C209 C210 1.388 1_455 S
C210 H197 0.930 . S
C210 C209 1.388 1_655 S
C210 C211 1.390 . S
C211 C210 1.390 . S
C211 C212 1.394 1_655 S
C211 C217 1.465 . S
C212 C207 1.399 . S
C212 C211 1.394 1_455 S
C212 C213 1.516 . S
C213 C212 1.516 . S
C213 C214 1.502 . S
C213 C215 1.561 1_455 S
C213 C216 1.526 1_455 S
C214 H198 0.959 . S
C214 H199 0.959 . S
C214 H200 0.961 . S
C214 C213 1.502 . S
C215 H201 0.960 . S
C215 H202 0.961 . S
C215 H203 0.959 . S
C215 C213 1.561 1_655 S
C216 C213 1.526 1_655 S
C216 C217 1.396 . S
C216 C221 1.390 . S
C217 C211 1.465 . S
C217 C216 1.396 . S
C217 C218 1.399 . S
C218 H204 0.929 . S
C218 C217 1.399 . S
C218 C219 1.385 . S
C219 H205 0.931 . S
C219 C218 1.385 . S
C219 C220 1.389 . S
C220 C219 1.389 . S
C220 C221 1.387 . S
C221 H206 0.930 . S
C221 C216 1.390 . S
C221 C220 1.387 . S
H222 C234 0.930 . S
H223 C236 0.930 . S
H224 C237 0.930 . S
H225 C241 0.959 . S
H226 C241 0.959 . S
H227 C241 0.961 . S
H228 C242 0.960 . S
H229 C242 0.961 . S
H230 C242 0.959 1_545 S
H231 C245 0.929 . S
H232 C246 0.931 . S
H233 C248 0.930 1_565 S
C234 H222 0.930 . S
C234 C235 1.399 . S
C234 C239 1.399 . S
C235 C234 1.399 . S
C235 C236 1.376 1_565 S
C236 H223 0.930 . S
C236 C235 1.376 1_545 S
C236 C237 1.388 . S
C237 H224 0.930 . S
C237 C236 1.388 . S
C237 C238 1.390 . S
C238 C237 1.390 . S
C238 C239 1.394 1_545 S
C238 C244 1.465 . S
C239 C234 1.399 . S
C239 C238 1.394 1_565 S
C239 C240 1.516 . S
C240 C239 1.516 . S
C240 C241 1.502 . S
C240 C242 1.561 . S
C240 C243 1.519 1_565 S
C241 H225 0.959 . S
C241 H226 0.959 . S
C241 H227 0.961 . S
C241 C240 1.502 . S
C242 H228 0.960 . S
C242 H229 0.961 . S
C242 H230 0.959 1_565 S
C242 C240 1.561 . S
C243 C240 1.519 1_545 S
C243 C244 1.402 . S
C243 C248 1.391 . S
C244 C238 1.465 . S
C244 C243 1.402 . S
C244 C245 1.399 . S
C245 H231 0.929 . S
C245 C244 1.399 . S
C245 C246 1.385 . S
C246 H232 0.931 . S
C246 C245 1.385 . S
C246 C247 1.389 . S
C247 C246 1.389 . S
C247 C248 1.387 . S
C248 H233 0.930 1_545 S
C248 C243 1.391 . S
C248 C247 1.387 . S
H249 C261 0.930 1_545 S
H250 C263 0.930 . S
H251 C264 0.930 . S
H252 C268 0.959 . S
H253 C268 0.959 . S
H254 C268 0.961 . S
H255 C269 0.960 . S
H256 C269 0.961 . S
H257 C269 0.959 1_565 S
H258 C272 0.929 . S
H259 C273 0.931 1_565 S
H260 C275 0.930 . S
C261 H249 0.930 1_565 S
C261 C262 1.399 . S
C261 C266 1.399 . S
C262 C261 1.399 . S
C262 C263 1.376 . S
C263 H250 0.930 . S
C263 C262 1.376 . S
C263 C264 1.388 . S
C264 H251 0.930 . S
C264 C263 1.388 . S
C264 C265 1.390 . S
C265 C264 1.390 . S
C265 C266 1.394 . S
C265 C271 1.465 . S
C266 C261 1.399 . S
C266 C265 1.394 . S
C266 C267 1.516 1_565 S
C267 C266 1.516 1_545 S
C267 C268 1.502 . S
C267 C269 1.561 . S
C267 C270 1.526 . S
C268 H252 0.959 . S
C268 H253 0.959 . S
C268 H254 0.961 . S
C268 C267 1.502 . S
C269 H255 0.960 . S
C269 H256 0.961 . S
C269 H257 0.959 1_545 S
C269 C267 1.561 . S
C270 C267 1.526 . S
C270 C271 1.396 1_545 S
C270 C275 1.390 . S
C271 C265 1.465 . S
C271 C270 1.396 1_565 S
C271 C272 1.399 . S
C272 H258 0.929 . S
C272 C271 1.399 . S
C272 C273 1.385 1_565 S
C273 H259 0.931 1_545 S
C273 C272 1.385 1_545 S
C273 C274 1.389 . S
C274 C273 1.389 . S
C274 C275 1.387 . S
C275 H260 0.930 . S
C275 C270 1.390 . S
C275 C274 1.387 . S
H276 C288 0.930 . S
H277 C290 0.930 . S
H278 C291 0.930 . S
H279 C295 0.959 1_556 S
H280 C295 0.959 . S
H281 C295 0.961 . S
H282 C296 0.960 . S
H283 C296 0.961 . S
H284 C296 0.959 . S
H285 C299 0.929 . S
H286 C300 0.931 . S
H287 C302 0.930 . S
C288 H276 0.930 . S
C288 C289 1.399 . S
C288 C293 1.398 1_556 S
C289 C288 1.399 . S
C289 C290 1.376 . S
C290 H277 0.930 . S
C290 C289 1.376 . S
C290 C291 1.388 . S
C291 H278 0.930 . S
C291 C290 1.388 . S
C291 C292 1.390 . S
C292 C291 1.390 . S
C292 C293 1.392 1_556 S
C292 C298 1.463 1_556 S
C293 C288 1.398 1_554 S
C293 C292 1.392 1_554 S
C293 C294 1.519 . S
C294 C293 1.519 . S
C294 C295 1.502 . S
C294 C296 1.561 . S
C294 C297 1.526 . S
C295 H279 0.959 1_554 S
C295 H280 0.959 . S
C295 H281 0.961 . S
C295 C294 1.502 . S
C296 H282 0.960 . S
C296 H283 0.961 . S
C296 H284 0.959 . S
C296 C294 1.561 . S
C297 C294 1.526 . S
C297 C298 1.399 . S
C297 C302 1.390 . S
C298 C292 1.463 1_554 S
C298 C297 1.399 . S
C298 C299 1.398 1_554 S
C299 H285 0.929 . S
C299 C298 1.398 1_556 S
C299 C300 1.385 1_556 S
C300 H286 0.931 . S
C300 C299 1.385 1_554 S
C300 C301 1.389 . S
C301 C300 1.389 . S
C301 C302 1.387 . S
C302 H287 0.930 . S
C302 C297 1.390 . S
C302 C301 1.387 . S
H303 C315 0.929 1_554 S
H304 C317 0.930 . S
H305 C318 0.930 . S
H306 C322 0.959 . S
H307 C322 0.959 . S
H308 C322 0.961 . S
H309 C323 0.960 . S
H310 C323 0.961 . S
H311 C323 0.959 . S
H312 C326 0.929 . S
H313 C327 0.931 . S
H314 C329 0.930 . S
C315 H303 0.929 1_556 S
C315 C316 1.400 . S
C315 C320 1.399 1_556 S
C316 C315 1.400 . S
C316 C317 1.376 . S
C317 H304 0.930 . S
C317 C316 1.376 . S
C317 C318 1.388 . S
C318 H305 0.930 . S
C318 C317 1.388 . S
C318 C319 1.390 . S
C319 C318 1.390 . S
C319 C320 1.394 1_556 S
C319 C325 1.465 . S
C320 C315 1.399 1_554 S
C320 C319 1.394 1_554 S
C320 C321 1.516 . S
C321 C320 1.516 . S
C321 C322 1.502 . S
C321 C323 1.561 . S
C321 C324 1.526 . S
C322 H306 0.959 . S
C322 H307 0.959 . S
C322 H308 0.961 . S
C322 C321 1.502 . S
C323 H309 0.960 . S
C323 H310 0.961 . S
C323 H311 0.959 . S
C323 C321 1.561 . S
C324 C321 1.526 . S
C324 C325 1.396 1_554 S
C324 C329 1.390 . S
C325 C319 1.465 . S
C325 C324 1.396 1_556 S
C325 C326 1.399 . S
C326 H312 0.929 . S
C326 C325 1.399 . S
C326 C327 1.385 . S
C327 H313 0.931 . S
C327 C326 1.385 . S
C327 C328 1.389 1_556 S
C328 C327 1.389 1_554 S
C328 C329 1.387 . S
C329 H314 0.930 . S
C329 C324 1.390 . S
C329 C328 1.387 . S
H330 C342 0.930 . S
H331 C344 0.930 . S
H332 C345 0.930 . S
H333 C349 0.959 . S
H334 C349 0.959 . S
H335 C349 0.961 . S
H336 C350 0.960 . S
H337 C350 0.961 . S
H338 C350 0.959 . S
H339 C353 0.929 . S
H340 C354 0.931 . S
H341 C356 0.930 . S
C342 H330 0.930 . S
C342 C343 1.399 . S
C342 C347 1.399 . S
C343 C342 1.399 . S
C343 C344 1.376 . S
C344 H331 0.930 . S
C344 C343 1.376 . S
C344 C345 1.388 . S
C345 H332 0.930 . S
C345 C344 1.388 . S
C345 C346 1.390 . S
C346 C345 1.390 . S
C346 C347 1.394 . S
C346 C352 1.465 . S
C347 C342 1.399 . S
C347 C346 1.394 . S
C347 C348 1.516 . S
C348 C347 1.516 . S
C348 C349 1.502 . S
C348 C350 1.561 . S
C348 C351 1.526 . S
C349 H333 0.959 . S
C349 H334 0.959 . S
C349 H335 0.961 . S
C349 C348 1.502 . S
C350 H336 0.960 . S
C350 H337 0.961 . S
C350 H338 0.959 . S
C350 C348 1.561 . S
C351 C348 1.526 . S
C351 C352 1.396 . S
C351 C356 1.390 . S
C352 C346 1.465 . S
C352 C351 1.396 . S
C352 C353 1.399 . S
C353 H339 0.929 . S
C353 C352 1.399 . S
C353 C354 1.385 . S
C354 H340 0.931 . S
C354 C353 1.385 . S
C354 C355 1.389 . S
C355 C354 1.389 . S
C355 C356 1.387 . S
C356 H341 0.930 . S
C356 C351 1.390 . S
C356 C355 1.387 . S
H357 C369 0.930 . S
H358 C371 0.930 . S
H359 C372 0.930 . S
H360 C376 0.959 . S
H361 C376 0.959 . S
H362 C376 0.961 . S
H363 C377 0.960 . S
H364 C377 0.961 . S
H365 C377 0.959 . S
H366 C380 0.929 . S
H367 C381 0.931 . S
H368 C383 0.930 . S
C369 H357 0.930 . S
C369 C370 1.399 . S
C369 C374 1.399 . S
C370 C369 1.399 . S
C370 C371 1.376 . S
C371 H358 0.930 . S
C371 C370 1.376 . S
C371 C372 1.388 . S
C372 H359 0.930 . S
C372 C371 1.388 . S
C372 C373 1.390 . S
C373 C372 1.390 . S
C373 C374 1.394 . S
C373 C379 1.465 . S
C374 C369 1.399 . S
C374 C373 1.394 . S
C374 C375 1.516 . S
C375 C374 1.516 . S
C375 C376 1.502 . S
C375 C377 1.561 . S
C375 C378 1.526 . S
C376 H360 0.959 . S
C376 H361 0.959 . S
C376 H362 0.961 . S
C376 C375 1.502 . S
C377 H363 0.960 . S
C377 H364 0.961 . S
C377 H365 0.959 . S
C377 C375 1.561 . S
C378 C375 1.526 . S
C378 C379 1.396 . S
C378 C383 1.390 . S
C379 C373 1.465 . S
C379 C378 1.396 . S
C379 C380 1.399 . S
C380 H366 0.929 . S
C380 C379 1.399 . S
C380 C381 1.385 . S
C381 H367 0.931 . S
C381 C380 1.385 . S
C381 C382 1.389 . S
C382 C381 1.389 . S
C382 C383 1.387 . S
C383 H368 0.930 . S
C383 C378 1.390 . S
C383 C382 1.387 . S
H384 C396 0.930 . S
H385 C398 0.930 . S
H386 C399 0.930 . S
H387 C403 0.959 . S
H388 C403 0.959 . S
H389 C403 0.961 . S
H390 C404 0.960 . S
H391 C404 0.961 . S
H392 C404 0.959 . S
H393 C407 0.929 . S
H394 C408 0.931 . S
H395 C410 0.930 . S
C396 H384 0.930 . S
C396 C397 1.399 . S
C396 C401 1.399 . S
C397 C396 1.399 . S
C397 C398 1.376 . S
C398 H385 0.930 . S
C398 C397 1.376 . S
C398 C399 1.388 . S
C399 H386 0.930 . S
C399 C398 1.388 . S
C399 C400 1.390 . S
C400 C399 1.390 . S
C400 C401 1.394 . S
C400 C406 1.465 . S
C401 C396 1.399 . S
C401 C400 1.394 . S
C401 C402 1.516 . S
C402 C401 1.516 . S
C402 C403 1.502 . S
C402 C404 1.561 . S
C402 C405 1.526 . S
C403 H387 0.959 . S
C403 H388 0.959 . S
C403 H389 0.961 . S
C403 C402 1.502 . S
C404 H390 0.960 . S
C404 H391 0.961 . S
C404 H392 0.959 . S
C404 C402 1.561 . S
C405 C402 1.526 . S
C405 C406 1.396 . S
C405 C410 1.390 . S
C406 C400 1.465 . S
C406 C405 1.396 . S
C406 C407 1.399 . S
C407 H393 0.929 . S
C407 C406 1.399 . S
C407 C408 1.385 . S
C408 H394 0.931 . S
C408 C407 1.385 . S
C408 C409 1.389 . S
C409 C408 1.389 . S
C409 C410 1.387 . S
C410 H395 0.930 . S
C410 C405 1.390 . S
C410 C409 1.387 . S
H411 C423 0.930 . S
H412 C425 0.930 . S
H413 C426 0.930 . S
H414 C430 0.959 . S
H415 C430 0.959 . S
H416 C430 0.961 . S
H417 C431 0.960 . S
H418 C431 0.961 . S
H419 C431 0.959 . S
H420 C434 0.929 . S
H421 C435 0.931 . S
H422 C437 0.930 . S
C423 H411 0.930 . S
C423 C424 1.399 . S
C423 C428 1.399 . S
C424 C423 1.399 . S
C424 C425 1.376 . S
C425 H412 0.930 . S
C425 C424 1.376 . S
C425 C426 1.388 . S
C426 H413 0.930 . S
C426 C425 1.388 . S
C426 C427 1.390 . S
C427 C426 1.390 . S
C427 C428 1.394 . S
C427 C433 1.465 . S
C428 C423 1.399 . S
C428 C427 1.394 . S
C428 C429 1.516 . S
C429 C428 1.516 . S
C429 C430 1.502 . S
C429 C431 1.561 . S
C429 C432 1.526 . S
C430 H414 0.959 . S
C430 H415 0.959 . S
C430 H416 0.961 . S
C430 C429 1.502 . S
C431 H417 0.960 . S
C431 H418 0.961 . S
C431 H419 0.959 . S
C431 C429 1.561 . S
C432 C429 1.526 . S
C432 C433 1.396 . S
C432 C437 1.390 . S
C433 C427 1.465 . S
C433 C432 1.396 . S
C433 C434 1.399 . S
C434 H420 0.929 . S
C434 C433 1.399 . S
C434 C435 1.385 . S
C435 H421 0.931 . S
C435 C434 1.385 . S
C435 C436 1.389 . S
C436 C435 1.389 . S
C436 C437 1.387 . S
C437 H422 0.930 . S
C437 C432 1.390 . S
C437 C436 1.387 . S
H438 C450 0.930 . S
H439 C452 0.930 . S
H440 C453 0.930 . S
H441 C457 0.959 . S
H442 C457 0.959 . S
H443 C457 0.961 . S
H444 C458 0.960 . S
H445 C458 0.961 . S
H446 C458 0.959 . S
H447 C461 0.929 . S
H448 C462 0.931 . S
H449 C464 0.930 . S
C450 H438 0.930 . S
C450 C451 1.399 . S
C450 C455 1.399 . S
C451 C450 1.399 . S
C451 C452 1.376 . S
C452 H439 0.930 . S
C452 C451 1.376 . S
C452 C453 1.388 . S
C453 H440 0.930 . S
C453 C452 1.388 . S
C453 C454 1.390 . S
C454 C453 1.390 . S
C454 C455 1.394 . S
C454 C460 1.465 . S
C455 C450 1.399 . S
C455 C454 1.394 . S
C455 C456 1.516 . S
C456 C455 1.516 . S
C456 C457 1.502 . S
C456 C458 1.561 . S
C456 C459 1.526 . S
C457 H441 0.959 . S
C457 H442 0.959 . S
C457 H443 0.961 . S
C457 C456 1.502 . S
C458 H444 0.960 . S
C458 H445 0.961 . S
C458 H446 0.959 . S
C458 C456 1.561 . S
C459 C456 1.526 . S
C459 C460 1.396 . S
C459 C464 1.390 . S
C460 C454 1.465 . S
C460 C459 1.396 . S
C460 C461 1.399 . S
C461 H447 0.929 . S
C461 C460 1.399 . S
C461 C462 1.385 . S
C462 H448 0.931 . S
C462 C461 1.385 . S
C462 C463 1.389 . S
C463 C462 1.389 . S
C463 C464 1.387 . S
C464 H449 0.930 . S
C464 C459 1.390 . S
C464 C463 1.387 . S
H465 C477 0.930 . S
H466 C479 0.930 . S
H467 C480 0.930 . S
H468 C484 0.959 . S
H469 C484 0.959 . S
H470 C484 0.961 . S
H471 C485 0.960 . S
H472 C485 0.961 . S
H473 C485 0.959 . S
H474 C488 0.929 . S
H475 C489 0.931 . S
H476 C491 0.930 . S
C477 H465 0.930 . S
C477 C478 1.399 . S
C477 C482 1.399 . S
C478 C477 1.399 . S
C478 C479 1.376 . S
C479 H466 0.930 . S
C479 C478 1.376 . S
C479 C480 1.388 . S
C480 H467 0.930 . S
C480 C479 1.388 . S
C480 C481 1.390 . S
C481 C480 1.390 . S
C481 C482 1.394 . S
C481 C487 1.465 . S
C482 C477 1.399 . S
C482 C481 1.394 . S
C482 C483 1.516 . S
C483 C482 1.516 . S
C483 C484 1.502 . S
C483 C485 1.561 . S
C483 C486 1.526 . S
C484 H468 0.959 . S
C484 H469 0.959 . S
C484 H470 0.961 . S
C484 C483 1.502 . S
C485 H471 0.960 . S
C485 H472 0.961 . S
C485 H473 0.959 . S
C485 C483 1.561 . S
C486 C483 1.526 . S
C486 C487 1.396 . S
C486 C491 1.390 . S
C487 C481 1.465 . S
C487 C486 1.396 . S
C487 C488 1.399 . S
C488 H474 0.929 . S
C488 C487 1.399 . S
C488 C489 1.385 . S
C489 H475 0.931 . S
C489 C488 1.385 . S
C489 C490 1.389 . S
C490 C489 1.389 . S
C490 C491 1.387 . S
C491 H476 0.930 . S
C491 C486 1.390 . S
C491 C490 1.387 . S
H492 C504 0.930 . S
H493 C506 0.930 . S
H494 C507 0.930 . S
H495 C511 0.959 . S
H496 C511 0.959 . S
H497 C511 0.961 . S
H498 C512 0.960 . S
H499 C512 0.961 . S
H500 C512 0.959 . S
H501 C515 0.929 . S
H502 C516 0.931 . S
H503 C518 0.930 . S
C504 H492 0.930 . S
C504 C505 1.399 . S
C504 C509 1.399 . S
C505 C504 1.399 . S
C505 C506 1.376 . S
C506 H493 0.930 . S
C506 C505 1.376 . S
C506 C507 1.388 . S
C507 H494 0.930 . S
C507 C506 1.388 . S
C507 C508 1.390 . S
C508 C507 1.390 . S
C508 C509 1.394 . S
C508 C514 1.465 . S
C509 C504 1.399 . S
C509 C508 1.394 . S
C509 C510 1.516 . S
C510 C509 1.516 . S
C510 C511 1.502 . S
C510 C512 1.561 . S
C510 C513 1.526 . S
C511 H495 0.959 . S
C511 H496 0.959 . S
C511 H497 0.961 . S
C511 C510 1.502 . S
C512 H498 0.960 . S
C512 H499 0.961 . S
C512 H500 0.959 . S
C512 C510 1.561 . S
C513 C510 1.526 . S
C513 C514 1.396 . S
C513 C518 1.390 . S
C514 C508 1.465 . S
C514 C513 1.396 . S
C514 C515 1.399 . S
C515 H501 0.929 . S
C515 C514 1.399 . S
C515 C516 1.385 . S
C516 H502 0.931 . S
C516 C515 1.385 . S
C516 C517 1.389 . S
C517 C516 1.389 . S
C517 C518 1.387 . S
C518 H503 0.930 . S
C518 C513 1.390 . S
C518 C517 1.387 . S
H519 C531 0.930 . S
H520 C533 0.930 . S
H521 C534 0.930 . S
H522 C538 0.959 . S
H523 C538 0.959 . S
H524 C538 0.961 . S
H525 C539 0.960 . S
H526 C539 0.961 . S
H527 C539 0.959 . S
H528 C542 0.929 . S
H529 C543 0.931 . S
H530 C545 0.930 . S
C531 H519 0.930 . S
C531 C532 1.399 . S
C531 C536 1.399 . S
C532 C531 1.399 . S
C532 C533 1.376 . S
C533 H520 0.930 . S
C533 C532 1.376 . S
C533 C534 1.388 . S
C534 H521 0.930 . S
C534 C533 1.388 . S
C534 C535 1.390 . S
C535 C534 1.390 . S
C535 C536 1.394 . S
C535 C541 1.465 . S
C536 C531 1.399 . S
C536 C535 1.394 . S
C536 C537 1.516 . S
C537 C536 1.516 . S
C537 C538 1.502 . S
C537 C539 1.561 . S
C537 C540 1.526 . S
C538 H522 0.959 . S
C538 H523 0.959 . S
C538 H524 0.961 . S
C538 C537 1.502 . S
C539 H525 0.960 . S
C539 H526 0.961 . S
C539 H527 0.959 . S
C539 C537 1.561 . S
C540 C537 1.526 . S
C540 C541 1.396 . S
C540 C545 1.390 . S
C541 C535 1.465 . S
C541 C540 1.396 . S
C541 C542 1.399 . S
C542 H528 0.929 . S
C542 C541 1.399 . S
C542 C543 1.385 . S
C543 H529 0.931 . S
C543 C542 1.385 . S
C543 C544 1.389 . S
C544 C543 1.389 . S
C544 C545 1.387 . S
C545 H530 0.930 . S
C545 C540 1.390 . S
C545 C544 1.387 . S
H546 C558 0.930 . S
H547 C560 0.930 . S
H548 C561 0.930 . S
H549 C565 0.959 . S
H550 C565 0.959 . S
H551 C565 0.961 . S
H552 C566 0.960 . S
H553 C566 0.961 . S
H554 C566 0.959 . S
H555 C569 0.929 . S
H556 C570 0.931 . S
H557 C572 0.930 . S
C558 H546 0.930 . S
C558 C559 1.399 . S
C558 C563 1.399 . S
C559 C558 1.399 . S
C559 C560 1.376 . S
C560 H547 0.930 . S
C560 C559 1.376 . S
C560 C561 1.388 . S
C561 H548 0.930 . S
C561 C560 1.388 . S
C561 C562 1.390 . S
C562 C561 1.390 . S
C562 C563 1.394 . S
C562 C568 1.465 . S
C563 C558 1.399 . S
C563 C562 1.394 . S
C563 C564 1.516 . S
C564 C563 1.516 . S
C564 C565 1.502 . S
C564 C566 1.561 . S
C564 C567 1.526 . S
C565 H549 0.959 . S
C565 H550 0.959 . S
C565 H551 0.961 . S
C565 C564 1.502 . S
C566 H552 0.960 . S
C566 H553 0.961 . S
C566 H554 0.959 . S
C566 C564 1.561 . S
C567 C564 1.526 . S
C567 C568 1.396 . S
C567 C572 1.390 . S
C568 C562 1.465 . S
C568 C567 1.396 . S
C568 C569 1.399 . S
C569 H555 0.929 . S
C569 C568 1.399 . S
C569 C570 1.385 . S
C570 H556 0.931 . S
C570 C569 1.385 . S
C570 C571 1.389 . S
C571 C570 1.389 . S
C571 C572 1.387 . S
C572 H557 0.930 . S
C572 C567 1.390 . S
C572 C571 1.387 . S
H573 C585 0.930 . S
H574 C587 0.930 . S
H575 C588 0.930 . S
H576 C592 0.959 . S
H577 C592 0.959 . S
H578 C592 0.961 . S
H579 C593 0.960 . S
H580 C593 0.961 . S
H581 C593 0.959 . S
H582 C596 0.929 . S
H583 C597 0.931 . S
H584 C599 0.930 . S
C585 H573 0.930 . S
C585 C586 1.399 . S
C585 C590 1.399 . S
C586 C585 1.399 . S
C586 C587 1.376 . S
C587 H574 0.930 . S
C587 C586 1.376 . S
C587 C588 1.388 . S
C588 H575 0.930 . S
C588 C587 1.388 . S
C588 C589 1.390 . S
C589 C588 1.390 . S
C589 C590 1.394 . S
C589 C595 1.465 . S
C590 C585 1.399 . S
C590 C589 1.394 . S
C590 C591 1.516 . S
C591 C590 1.516 . S
C591 C592 1.502 . S
C591 C593 1.561 . S
C591 C594 1.526 . S
C592 H576 0.959 . S
C592 H577 0.959 . S
C592 H578 0.961 . S
C592 C591 1.502 . S
C593 H579 0.960 . S
C593 H580 0.961 . S
C593 H581 0.959 . S
C593 C591 1.561 . S
C594 C591 1.526 . S
C594 C595 1.396 . S
C594 C599 1.390 . S
C595 C589 1.465 . S
C595 C594 1.396 . S
C595 C596 1.399 . S
C596 H582 0.929 . S
C596 C595 1.399 . S
C596 C597 1.385 . S
C597 H583 0.931 . S
C597 C596 1.385 . S
C597 C598 1.389 . S
C598 C597 1.389 . S
C598 C599 1.387 . S
C599 H584 0.930 . S
C599 C594 1.390 . S
C599 C598 1.387 . S
H600 C612 0.930 . S
H601 C614 0.930 . S
H602 C615 0.930 . S
H603 C619 0.959 . S
H604 C619 0.959 . S
H605 C619 0.961 . S
H606 C620 0.960 . S
H607 C620 0.961 . S
H608 C620 0.959 . S
H609 C623 0.929 . S
H610 C624 0.931 . S
H611 C626 0.930 . S
C612 H600 0.930 . S
C612 C613 1.399 . S
C612 C617 1.399 . S
C613 C612 1.399 . S
C613 C614 1.376 . S
C614 H601 0.930 . S
C614 C613 1.376 . S
C614 C615 1.388 . S
C615 H602 0.930 . S
C615 C614 1.388 . S
C615 C616 1.390 . S
C616 C615 1.390 . S
C616 C617 1.394 . S
C616 C622 1.465 . S
C617 C612 1.399 . S
C617 C616 1.394 . S
C617 C618 1.516 . S
C618 C617 1.516 . S
C618 C619 1.502 . S
C618 C620 1.561 . S
C618 C621 1.526 . S
C619 H603 0.959 . S
C619 H604 0.959 . S
C619 H605 0.961 . S
C619 C618 1.502 . S
C620 H606 0.960 . S
C620 H607 0.961 . S
C620 H608 0.959 . S
C620 C618 1.561 . S
C621 C618 1.526 . S
C621 C622 1.396 . S
C621 C626 1.390 . S
C622 C616 1.465 . S
C622 C621 1.396 . S
C622 C623 1.399 . S
C623 H609 0.929 . S
C623 C622 1.399 . S
C623 C624 1.385 . S
C624 H610 0.931 . S
C624 C623 1.385 . S
C624 C625 1.389 . S
C625 C624 1.389 . S
C625 C626 1.387 . S
C626 H611 0.930 . S
C626 C621 1.390 . S
C626 C625 1.387 . S
H627 C639 0.930 . S
H628 C641 0.930 . S
H629 C642 0.930 . S
H630 C646 0.959 . S
H631 C646 0.959 . S
H632 C646 0.961 . S
H633 C647 0.960 . S
H634 C647 0.961 . S
H635 C647 0.959 . S
H636 C650 0.929 . S
H637 C651 0.931 . S
H638 C653 0.930 . S
C639 H627 0.930 . S
C639 C640 1.399 . S
C639 C644 1.399 . S
C640 C639 1.399 . S
C640 C641 1.376 . S
C641 H628 0.930 . S
C641 C640 1.376 . S
C641 C642 1.388 . S
C642 H629 0.930 . S
C642 C641 1.388 . S
C642 C643 1.390 . S
C643 C642 1.390 . S
C643 C644 1.394 . S
C643 C649 1.465 . S
C644 C639 1.399 . S
C644 C643 1.394 . S
C644 C645 1.516 . S
C645 C644 1.516 . S
C645 C646 1.502 . S
C645 C647 1.561 . S
C645 C648 1.526 . S
C646 H630 0.959 . S
C646 H631 0.959 . S
C646 H632 0.961 . S
C646 C645 1.502 . S
C647 H633 0.960 . S
C647 H634 0.961 . S
C647 H635 0.959 . S
C647 C645 1.561 . S
C648 C645 1.526 . S
C648 C649 1.396 . S
C648 C653 1.390 . S
C649 C643 1.465 . S
C649 C648 1.396 . S
C649 C650 1.399 . S
C650 H636 0.929 . S
C650 C649 1.399 . S
C650 C651 1.385 . S
C651 H637 0.931 . S
C651 C650 1.385 . S
C651 C652 1.389 . S
C652 C651 1.389 . S
C652 C653 1.387 . S
C653 H638 0.930 . S
C653 C648 1.390 . S
C653 C652 1.387 . S
H654 C666 0.930 . S
H655 C668 0.930 . S
H656 C669 0.930 . S
H657 C673 0.959 . S
H658 C673 0.961 1_565 S
H659 C673 0.961 . S
H660 C674 0.960 1_545 S
H661 C674 0.972 . S
H662 C674 0.959 . S
H663 C677 0.929 . S
H664 C678 0.931 . S
H665 C680 0.930 . S
C666 H654 0.930 . S
C666 C667 1.399 . S
C666 C671 1.399 . S
C667 C666 1.399 . S
C667 C668 1.376 . S
C668 H655 0.930 . S
C668 C667 1.376 . S
C668 C669 1.388 . S
C669 H656 0.930 . S
C669 C668 1.388 . S
C669 C670 1.390 . S
C670 C669 1.390 . S
C670 C671 1.394 . S
C670 C676 1.465 1_545 S
C671 C666 1.399 . S
C671 C670 1.394 . S
C671 C672 1.516 1_455 S
C672 C671 1.516 1_655 S
C672 C673 1.502 . S
C672 C674 1.561 1_645 S
C672 C675 1.526 1_545 S
C673 H657 0.959 . S
C673 H658 0.961 1_545 S
C673 H659 0.961 . S
C673 C672 1.502 . S
C674 H660 0.960 1_565 S
C674 H661 0.972 . S
C674 H662 0.959 . S
C674 C672 1.561 1_465 S
C675 C672 1.526 1_565 S
C675 C676 1.396 1_655 S
C675 C680 1.390 . S
C676 C670 1.465 1_565 S
C676 C675 1.396 1_455 S
C676 C677 1.399 . S
C677 H663 0.929 . S
C677 C676 1.399 . S
C677 C678 1.385 1_455 S
C678 H664 0.931 . S
C678 C677 1.385 1_655 S
C678 C679 1.389 . S
C679 C678 1.389 . S
C679 C680 1.387 . S
C680 H665 0.930 . S
C680 C675 1.390 . S
C680 C679 1.387 . S
H681 C693 0.930 . S
H682 C695 0.930 . S
H683 C696 0.930 . S
H684 C700 0.959 . S
H685 C700 0.959 . S
H686 C700 0.961 . S
H687 C701 0.934 1_545 S
H688 C701 0.980 1_455 S
H689 C701 0.973 . S
H690 C704 0.929 . S
H691 C705 0.931 . S
H692 C707 0.930 . S
C693 H681 0.930 . S
C693 C694 1.399 . S
C693 C698 1.399 . S
C694 C693 1.399 . S
C694 C695 1.376 . S
C695 H682 0.930 . S
C695 C694 1.376 . S
C695 C696 1.388 . S
C696 H683 0.930 . S
C696 C695 1.388 . S
C696 C697 1.390 . S
C697 C696 1.390 . S
C697 C698 1.394 . S
C697 C703 1.465 1_545 S
C698 C693 1.399 . S
C698 C697 1.394 . S
C698 C699 1.516 1_655 S
C699 C698 1.516 1_455 S
C699 C700 1.502 . S
C699 C701 1.556 1_445 S
C699 C702 1.526 1_545 S
C700 H684 0.959 . S
C700 H685 0.959 . S
C700 H686 0.961 . S
C700 C699 1.502 . S
C701 H687 0.934 1_565 S
C701 H688 0.980 1_655 S
C701 H689 0.973 . S
C701 C699 1.556 1_665 S
C702 C699 1.526 1_565 S
C702 C703 1.396 1_455 S
C702 C707 1.390 . S
C703 C697 1.465 1_565 S
C703 C702 1.396 1_655 S
C703 C704 1.399 . S
C704 H690 0.929 . S
C704 C703 1.399 . S
C704 C705 1.385 1_655 S
C705 H691 0.931 . S
C705 C704 1.385 1_455 S
C705 C706 1.389 . S
C706 C705 1.389 . S
C706 C707 1.387 . S
C707 H692 0.930 . S
C707 C702 1.390 . S
C707 C706 1.387 . S
H708 C720 0.930 . S
H709 C722 0.930 . S
H710 C723 0.930 . S
H711 C727 0.959 . S
H712 C727 0.959 . S
H713 C727 0.961 . S
H714 C728 0.960 . S
H715 C728 0.961 . S
H716 C728 0.959 . S
H717 C731 0.929 . S
H718 C732 0.931 . S
H719 C734 0.930 1_565 S
C720 H708 0.930 . S
C720 C721 1.399 . S
C720 C725 1.399 . S
C721 C720 1.399 . S
C721 C722 1.376 1_565 S
C722 H709 0.930 . S
C722 C721 1.376 1_545 S
C722 C723 1.388 . S
C723 H710 0.930 . S
C723 C722 1.388 . S
C723 C724 1.390 . S
C724 C723 1.390 . S
C724 C725 1.394 1_545 S
C724 C730 1.465 1_556 S
C725 C720 1.399 . S
C725 C724 1.394 1_565 S
C725 C726 1.516 1_556 S
C726 C725 1.516 1_554 S
C726 C727 1.502 . S
C726 C728 1.561 . S
C726 C729 1.526 . S
C727 H711 0.959 . S
C727 H712 0.959 . S
C727 H713 0.961 . S
C727 C726 1.502 . S
C728 H714 0.960 . S
C728 H715 0.961 . S
C728 H716 0.959 . S
C728 C726 1.561 . S
C729 C726 1.526 . S
C729 C730 1.396 1_565 S
C729 C734 1.390 1_565 S
C730 C724 1.465 1_554 S
C730 C729 1.396 1_545 S
C730 C731 1.399 . S
C731 H717 0.929 . S
C731 C730 1.399 . S
C731 C732 1.385 . S
C732 H718 0.931 . S
C732 C731 1.385 . S
C732 C733 1.389 . S
C733 C732 1.389 . S
C733 C734 1.387 . S
C734 H719 0.930 1_545 S
C734 C729 1.390 1_545 S
C734 C733 1.387 . S
H735 C747 0.930 1_545 S
H736 C749 0.930 . S
H737 C750 0.930 . S
H738 C754 0.959 . S
H739 C754 0.959 . S
H740 C754 0.961 . S
H741 C755 0.960 . S
H742 C755 0.961 . S
H743 C755 0.959 . S
H744 C758 0.929 . S
H745 C759 0.931 . S
H746 C761 0.930 . S
C747 H735 0.930 1_565 S
C747 C748 1.399 . S
C747 C752 1.399 1_565 S
C748 C747 1.399 . S
C748 C749 1.376 . S
C749 H736 0.930 . S
C749 C748 1.376 . S
C749 C750 1.388 . S
C750 H737 0.930 . S
C750 C749 1.388 . S
C750 C751 1.390 . S
C751 C750 1.390 . S
C751 C752 1.394 1_565 S
C751 C757 1.465 1_554 S
C752 C747 1.399 1_545 S
C752 C751 1.394 1_545 S
C752 C753 1.516 . S
C753 C752 1.516 . S
C753 C754 1.502 . S
C753 C755 1.561 . S
C753 C756 1.526 1_554 S
C754 H738 0.959 . S
C754 H739 0.959 . S
C754 H740 0.961 . S
C754 C753 1.502 . S
C755 H741 0.960 . S
C755 H742 0.961 . S
C755 H743 0.959 . S
C755 C753 1.561 . S
C756 C753 1.526 1_556 S
C756 C757 1.396 1_545 S
C756 C761 1.390 . S
C757 C751 1.465 1_556 S
C757 C756 1.396 1_565 S
C757 C758 1.399 . S
C758 H744 0.929 . S
C758 C757 1.399 . S
C758 C759 1.385 . S
C759 H745 0.931 . S
C759 C758 1.385 . S
C759 C760 1.389 1_565 S
C760 C759 1.389 1_545 S
C760 C761 1.387 . S
C761 H746 0.930 . S
C761 C756 1.390 . S
C761 C760 1.387 . S
H762 C774 0.930 . S
H763 C776 0.930 . S
H764 C777 0.930 . S
H765 C781 0.959 . S
H766 C781 0.959 . S
H767 C781 0.961 1_655 S
H768 C782 0.960 . S
H769 C782 0.967 . S
H770 C782 0.959 . S
H771 C785 0.929 . S
H772 C786 0.931 . S
H773 C788 0.930 . S
C774 H762 0.930 . S
C774 C775 1.399 . S
C774 C779 1.399 . S
C775 C774 1.399 . S
C775 C776 1.376 . S
C776 H763 0.930 . S
C776 C775 1.376 . S
C776 C777 1.388 . S
C777 H764 0.930 . S
C777 C776 1.388 . S
C777 C778 1.390 . S
C778 C777 1.390 . S
C778 C779 1.394 . S
C778 C784 1.465 1_656 S
C779 C774 1.399 . S
C779 C778 1.394 . S
C779 C780 1.516 1_556 S
C780 C779 1.516 1_554 S
C780 C781 1.502 1_654 S
C780 C782 1.561 . S
C780 C783 1.526 1_655 S
C781 H765 0.959 . S
C781 H766 0.959 . S
C781 H767 0.961 1_455 S
C781 C780 1.502 1_456 S
C782 H768 0.960 . S
C782 H769 0.967 . S
C782 H770 0.959 . S
C782 C780 1.561 . S
C783 C780 1.526 1_455 S
C783 C784 1.396 . S
C783 C788 1.390 . S
C784 C778 1.465 1_454 S
C784 C783 1.396 . S
C784 C785 1.399 . S
C785 H771 0.929 . S
C785 C784 1.399 . S
C785 C786 1.385 . S
C786 H772 0.931 . S
C786 C785 1.385 . S
C786 C787 1.389 . S
C787 C786 1.389 . S
C787 C788 1.387 . S
C788 H773 0.930 . S
C788 C783 1.390 . S
C788 C787 1.387 . S
H789 C801 0.930 . S
H790 C803 0.930 . S
H791 C804 0.919 1_554 S
H792 C808 0.959 . S
H793 C808 0.959 . S
H794 C808 0.961 1_455 S
H795 C809 0.960 . S
H796 C809 0.961 1_655 S
H797 C809 0.959 . S
H798 C812 0.929 . S
H799 C813 0.931 . S
H800 C815 0.930 . S
C801 H789 0.930 . S
C801 C802 1.399 . S
C801 C806 1.399 . S
C802 C801 1.399 . S
C802 C803 1.376 . S
C803 H790 0.930 . S
C803 C802 1.376 . S
C803 C804 1.402 . S
C804 H791 0.919 1_556 S
C804 C803 1.402 . S
C804 C805 1.388 1_556 S
C805 C804 1.388 1_554 S
C805 C806 1.383 1_554 S
C805 C811 1.475 1_455 S
C806 C801 1.399 . S
C806 C805 1.383 1_556 S
C806 C807 1.516 1_455 S
C807 C806 1.516 1_655 S
C807 C808 1.502 . S
C807 C809 1.561 1_656 S
C807 C810 1.526 1_556 S
C808 H792 0.959 . S
C808 H793 0.959 . S
C808 H794 0.961 1_655 S
C808 C807 1.502 . S
C809 H795 0.960 . S
C809 H796 0.961 1_455 S
C809 H797 0.959 . S
C809 C807 1.561 1_454 S
C810 C807 1.526 1_554 S
C810 C811 1.396 . S
C810 C815 1.390 . S
C811 C805 1.475 1_655 S
C811 C810 1.396 . S
C811 C812 1.399 . S
C812 H798 0.929 . S
C812 C811 1.399 . S
C812 C813 1.385 . S
C813 H799 0.931 . S
C813 C812 1.385 . S
C813 C814 1.389 . S
C814 C813 1.389 . S
C814 C815 1.387 . S
C815 H800 0.930 . S
C815 C810 1.390 . S
C815 C814 1.387 . S
C181 C48 1.006 . S
C193 C6 1.031 . S
C208 C34 1.115 . S
C220 C20 1.087 . S
C235 C76 1.102 . S
C247 C62 1.061 . S
C262 C90 1.016 . S
C274 C104 1.057 . S
C289 C132 1.103 . S
C301 C118 1.114 . S
C316 C146 1.057 . S
C328 C160 1.099 . S
C343 C9 1.071 . S
C355 C105 0.958 . S
C370 C91 1.051 . S
C382 C23 1.116 . S
C397 C77 0.953 . S
C409 C37 1.070 . S
C424 C63 1.016 . S
C436 C51 1.100 . S
C451 C65 1.139 . S
C463 C161 1.103 . S
C478 C119 0.963 . S
C490 C79 1.075 . S
C505 C147 1.101 . S
C517 C93 1.134 . S
C532 C107 1.096 . S
C544 C133 1.023 . S
C559 C35 1.069 . S
C571 C121 1.118 . S
C586 C7 0.953 . S
C598 C135 1.069 . S
C613 C149 1.082 . S
C625 C21 0.992 . S
C640 C49 0.953 . S
C652 C163 1.069 . S
C667 C8 1.458 . S
C679 C22 1.477 . S
C694 C50 1.453 . S
C706 C36 1.476 . S
C721 C92 1.476 . S
C733 C64 1.451 . S
C748 C78 1.422 . S
C760 C106 1.449 . S
C775 C148 1.428 . S
C787 C120 1.424 . S
C802 C134 1.437 . S
C814 C162 1.421 . S
