# Generated by pormake.
# Topology qtz-e, (6)-cn, num edge types: 1
# Building blocks:
#     Node 0, Type 0, BuildingBlock: BETFAJ_clean_sbu_0, # of connection points: 6
#     Node 1, Type 0, BuildingBlock: BETFAJ_clean_sbu_0, # of connection points: 6
#     Node 2, Type 0, BuildingBlock: BETFAJ_clean_sbu_0, # of connection points: 6
#     Node 3, Type 0, BuildingBlock: BETFAJ_clean_sbu_0, # of connection points: 6
#     Node 4, Type 0, BuildingBlock: BETFAJ_clean_sbu_0, # of connection points: 6
#     Node 5, Type 0, BuildingBlock: BETFAJ_clean_sbu_0, # of connection points: 6
#     Edge 6, Type (0, 0), BuildingBlock: TEMPAE_clean_linker_10, # of connection points: 2
#     Edge 7, Type (0, 0), BuildingBlock: TEMPAE_clean_linker_10, # of connection points: 2
#     Edge 8, Type (0, 0), BuildingBlock: TEMPAE_clean_linker_10, # of connection points: 2
#     Edge 9, Type (0, 0), BuildingBlock: TEMPAE_clean_linker_10, # of connection points: 2
#     Edge 10, Type (0, 0), BuildingBlock: TEMPAE_clean_linker_10, # of connection points: 2
#     Edge 11, Type (0, 0), BuildingBlock: TEMPAE_clean_linker_10, # of connection points: 2
#     Edge 12, Type (0, 0), BuildingBlock: TEMPAE_clean_linker_10, # of connection points: 2
#     Edge 13, Type (0, 0), BuildingBlock: TEMPAE_clean_linker_10, # of connection points: 2
#     Edge 14, Type (0, 0), BuildingBlock: TEMPAE_clean_linker_10, # of connection points: 2
#     Edge 15, Type (0, 0), BuildingBlock: TEMPAE_clean_linker_10, # of connection points: 2
#     Edge 16, Type (0, 0), BuildingBlock: TEMPAE_clean_linker_10, # of connection points: 2
#     Edge 17, Type (0, 0), BuildingBlock: TEMPAE_clean_linker_10, # of connection points: 2
#     Edge 18, Type (0, 0), BuildingBlock: TEMPAE_clean_linker_10, # of connection points: 2
#     Edge 19, Type (0, 0), BuildingBlock: TEMPAE_clean_linker_10, # of connection points: 2
#     Edge 20, Type (0, 0), BuildingBlock: TEMPAE_clean_linker_10, # of connection points: 2
#     Edge 21, Type (0, 0), BuildingBlock: TEMPAE_clean_linker_10, # of connection points: 2
#     Edge 22, Type (0, 0), BuildingBlock: TEMPAE_clean_linker_10, # of connection points: 2
#     Edge 23, Type (0, 0), BuildingBlock: TEMPAE_clean_linker_10, # of connection points: 2
# Relax obj value: 0.104
# Max RMSD: 0.183
# Mean RMSD: 0.183
data_MOF--net-qtz-e--node1-BETFAJ_clean_sbu_0--edge1-TEMPAE_clean_linker_10
_symmetry_space_group_name_H-M    P1
_symmetry_Int_Tables_number       1
_symmetry_cell_setting            triclinic
loop_
_symmetry_equiv_pos_as_xyz
'x, y, z'
_cell_length_a     26.102217
_cell_length_b     26.063364
_cell_length_c     52.351787
_cell_angle_alpha  90.292033
_cell_angle_beta   89.638579
_cell_angle_gamma 120.00657
loop_
_atom_site_label
_atom_site_type_symbol
_atom_site_fract_x
_atom_site_fract_y
_atom_site_fract_z
_atom_type_partial_charge
Sm0 Sm 0.1921 0.46585 0.06219 0.0
Sm1 Sm 0.17804 0.34547 0.04599 0.0
C2 C 0.18028 0.5565 0.07573 0.0
C3 C 0.16936 0.57216 0.10165 0.0
C4 C 0.12261 0.52985 0.11679 0.0
C5 C 0.11769 0.54113 0.14254 0.0
C6 C 0.15939 0.59493 0.15384 0.0
C7 C 0.20472 0.63821 0.13843 0.0
C8 C 0.20964 0.62688 0.11261 0.0
C9 C 0.27152 0.44034 0.08494 0.0
C10 C 0.12675 0.35301 0.10057 0.0
C11 C 0.18461 0.25698 0.02387 0.0
C12 C 0.20889 0.25038 0.99922 0.0
C13 C 0.25813 0.29881 0.9879 0.0
C14 C 0.27547 0.29473 0.96294 0.0
C15 C 0.24444 0.24187 0.94888 0.0
C16 C 0.19665 0.19262 0.96064 0.0
C17 C 0.1788 0.19701 0.9855 0.0
C18 C 0.08678 0.36589 0.03531 0.0
C19 C 0.2521 0.46323 1.0082 0.0
O20 O 0.13687 0.50803 0.06572 0.0
O21 O 0.23239 0.56143 0.07206 0.0
O22 O 0.25463 0.42934 0.06206 0.0
O23 O 0.24686 0.46664 0.0964 0.0
O24 O 0.12358 0.39738 0.09007 0.0
O25 O 0.15471 0.32887 0.08884 0.0
O26 O 0.22223 0.29156 0.04122 0.0
O27 O 0.13889 0.26437 1.02192 0.0
O28 O 0.14072 0.40012 0.03204 0.0
O29 O 0.0776 0.31743 0.04631 0.0
O30 O 0.23633 0.40762 1.01354 0.0
O31 O 0.23827 0.4955 0.02321 0.0
H32 H 0.09068 0.48712 0.109 0.0
H33 H 0.08168 0.50729 0.15371 0.0
H34 H 0.23788 0.67996 0.14657 0.0
H35 H 0.2463 0.66 0.10145 0.0
H36 H 0.28237 0.34018 0.99817 0.0
H37 H 0.31303 0.33299 0.95455 0.0
H38 H 0.17173 0.15135 0.95028 0.0
H39 H 0.1404 0.15919 0.99375 0.0
Sm40 Sm 0.70545 0.20156 0.39321 0.0
Sm41 Sm 0.82096 0.206 0.38205 0.0
C42 C 0.59791 0.16752 0.41021 0.0
C43 C 0.57375 0.15854 0.43656 0.0
C44 C 0.5643 0.10925 0.45112 0.0
C45 C 0.5484 0.10492 0.47691 0.0
C46 C 0.54186 0.14984 0.48877 0.0
C47 C 0.5491 0.1979 0.47392 0.0
C48 C 0.56449 0.20199 0.4481 0.0
C49 C 0.80014 0.30603 0.40774 0.0
C50 C 0.76452 0.1527 0.43621 0.0
C51 C 0.92543 0.23228 0.36295 0.0
C52 C 0.94964 0.24376 0.33642 0.0
C53 C 0.97918 0.30167 0.32647 0.0
C54 C -0.00151 0.31203 0.301 0.0
C55 C -0.0112 0.26479 0.2848 0.0
C56 C 0.96041 0.20708 0.2949 0.0
C57 C 0.94127 0.19672 0.32037 0.0
C58 C 0.71988 0.1049 0.36694 0.0
C59 C 0.76382 0.25731 0.33948 0.0
O60 O 0.61429 0.13027 0.40209 0.0
O61 O 0.63512 0.2223 0.40365 0.0
O62 O 0.79708 0.25641 0.4106 0.0
O63 O 0.75193 0.30105 0.39854 0.0
O64 O 0.71628 0.1482 0.42595 0.0
O65 O 0.81623 0.18199 0.42446 0.0
O66 O 0.91465 0.27198 0.37306 0.0
O67 O 0.88414 0.17806 0.36831 0.0
O68 O 0.7321 0.15724 0.36393 0.0
O69 O 0.76169 0.10299 0.37941 0.0
O70 O 0.8121 0.26196 0.34979 0.0
O71 O 0.71203 0.22721 0.35107 0.0
H72 H 0.57052 0.0746 0.44282 0.0
H73 H 0.54184 0.06667 0.48763 0.0
H74 H 0.54498 0.23363 0.48243 0.0
H75 H 0.57122 0.24034 0.43739 0.0
H76 H -0.01343 0.33903 0.33825 0.0
H77 H 0.01978 0.35698 0.29382 0.0
H78 H 0.95312 0.16977 0.28311 0.0
H79 H 0.91921 0.15161 0.32738 0.0
Sm80 Sm 0.4937 0.70829 0.7277 0.0
Sm81 Sm 0.60389 0.82245 0.71331 0.0
C82 C 0.41987 0.60189 0.74577 0.0
C83 C 0.40442 0.57926 0.77221 0.0
C84 C 0.4478 0.58281 0.7891 0.0
C85 C 0.43469 0.56955 0.81499 0.0
C86 C 0.37779 0.55197 0.82451 0.0
C87 C 0.33371 0.54562 0.80735 0.0
C88 C 0.34692 0.55912 0.78147 0.0
C89 C 0.48811 0.80542 0.74255 0.0
C90 C 0.608 0.77077 0.76764 0.0
C91 C 0.68191 0.92593 0.69324 0.0
C92 C 0.69246 0.94891 0.6669 0.0
C93 C 0.73038 0.00934 0.66217 0.0
C94 C 0.73959 0.03126 0.63715 0.0
C95 C 0.71095 -0.00695 0.6164 0.0
C96 C 0.67271 0.93244 0.62133 0.0
C97 C 0.66362 0.91063 0.64631 0.0
C98 C 0.59936 0.71881 0.69823 0.0
C99 C 0.48972 0.76287 0.67381 0.0
O100 O 0.47339 0.61752 0.73778 0.0
O101 O 0.40278 0.63918 0.7389 0.0
O102 O 0.53449 0.80175 0.74394 0.0
O103 O 0.44296 0.75658 0.73477 0.0
O104 O 0.56237 0.72144 0.75885 0.0
O105 O 0.62877 0.82119 0.75508 0.0
O106 O 0.63213 0.91595 0.70369 0.0
O107 O 0.69347 0.88338 0.69761 0.0
O108 O 0.55969 0.73184 0.69646 0.0
O109 O 0.64548 0.76131 0.70934 0.0
O110 O 0.53451 0.81214 0.68308 0.0
O111 O 0.47005 0.712 0.68591 0.0
H112 H 0.49234 0.59736 0.7825 0.0
H113 H 0.46933 0.5738 0.82762 0.0
H114 H 0.28952 0.53249 0.81408 0.0
H115 H 0.31268 0.55591 0.76886 0.0
H116 H 0.75292 0.03959 0.67781 0.0
H117 H 0.76974 0.07803 0.63404 0.0
H118 H 0.64919 0.90191 0.6059 0.0
H119 H 0.63385 0.86382 0.64958 0.0
Sm120 Sm 0.75999 0.51108 0.05786 0.0
Sm121 Sm 0.79965 0.638 0.04185 0.0
C122 C 0.75929 0.4174 0.07733 0.0
C123 C 0.75989 0.39986 0.10391 0.0
C124 C 0.78034 0.36085 0.10981 0.0
C125 C 0.78391 0.34693 0.1353 0.0
C126 C 0.76713 0.37198 0.15528 0.0
C127 C 0.7464 0.4109 0.14914 0.0
C128 C 0.74304 0.42485 0.12373 0.0
C129 C 0.67654 0.54258 0.06648 0.0
C130 C 0.83459 0.62438 0.09871 0.0
C131 C 0.80582 0.73214 1.01994 0.0
C132 C 0.7853 0.74132 0.99492 0.0
C133 C 0.72558 0.70756 0.98767 0.0
C134 C 0.70767 0.71334 0.96325 0.0
C135 C 0.74903 0.75259 0.94539 0.0
C136 C 0.80855 0.78708 0.95283 0.0
C137 C 0.82642 0.78161 0.97734 0.0
C138 C 0.87694 0.59728 0.03266 0.0
C139 C 0.72266 0.52675 1.0018 0.0
O140 O 0.80773 0.46464 0.06978 0.0
O141 O 0.71116 0.41709 0.07013 0.0
O142 O 0.73113 0.57627 0.07053 0.0
O143 O 0.6648 0.49004 0.05939 0.0
O144 O 0.81512 0.56834 0.09235 0.0
O145 O 0.82986 0.66151 0.08317 0.0
O146 O 0.76504 0.69967 0.03674 0.0
O147 O 0.84922 0.72068 1.01912 0.0
O148 O 0.82264 0.57098 0.02866 0.0
O149 O 0.8945 0.64963 0.04221 0.0
O150 O 0.73417 0.57941 1.01021 0.0
O151 O 0.73681 0.49318 1.01545 0.0
H152 H 0.7941 0.34166 0.09475 0.0
H153 H 0.80073 0.31738 0.13939 0.0
H154 H 0.7323 0.43029 0.16398 0.0
H155 H 0.72756 0.4555 0.11955 0.0
H156 H 0.69276 0.67557 1.00063 0.0
H157 H 0.66163 0.68558 0.95807 0.0
H158 H 0.84141 0.81833 0.93967 0.0
H159 H 0.87268 0.80814 0.98243 0.0
Sm160 Sm 0.24397 0.76293 0.3937 0.0
Sm161 Sm 0.16157 0.80654 0.37265 0.0
C162 C 0.32856 0.745 0.41032 0.0
C163 C 0.35121 0.75109 0.43658 0.0
C164 C 0.35513 0.79646 0.45255 0.0
C165 C 0.37104 0.79948 0.47812 0.0
C166 C 0.38309 0.75699 0.48843 0.0
C167 C 0.38039 0.71226 0.4723 0.0
C168 C 0.36443 0.70928 0.44658 0.0
C169 C 0.13091 0.70613 0.41346 0.0
C170 C 0.21875 0.85228 0.42803 0.0
C171 C 0.08049 0.82167 0.34915 0.0
C172 C 0.04555 0.79688 0.32571 0.0
C173 C 0.03321 0.7412 0.31649 0.0
C174 C 0.00825 0.72183 0.29232 0.0
C175 C -0.00542 0.75751 0.27704 0.0
C176 C 0.00464 0.81216 0.28677 0.0
C177 C 0.03032 0.83184 0.31085 0.0
C178 C 0.28098 0.87715 0.36435 0.0
C179 C 0.18284 0.71136 0.33823 0.0
O180 O 0.33913 0.79458 0.3994 0.0
O181 O 0.27438 0.70135 0.40663 0.0
O182 O 0.14493 0.72116 0.39055 0.0
O183 O 0.17775 0.7202 0.42682 0.0
O184 O 0.26042 0.84148 0.41972 0.0
O185 O 0.1695 0.83458 0.41489 0.0
O186 O 0.06821 0.78569 0.36857 0.0
O187 O 0.1373 0.8555 0.34534 0.0
O188 O 0.25095 0.8223 0.36204 0.0
O189 O 0.24811 0.89871 0.37204 0.0
O190 O 0.15249 0.73902 0.3418 0.0
O191 O 0.22321 0.71552 0.35462 0.0
H192 H 0.34486 0.82917 0.44542 0.0
H193 H 0.37356 0.83502 0.48987 0.0
H194 H 0.38891 0.67854 0.47972 0.0
H195 H 0.36106 0.6736 0.43469 0.0
H196 H 0.04423 0.71334 0.32771 0.0
H197 H 7e-05 0.67917 0.28546 0.0
H198 H -0.00525 0.84066 0.27536 0.0
H199 H 0.04 0.87519 0.31753 0.0
Sm200 Sm 0.47184 0.24964 0.72799 0.0
Sm201 Sm 0.34362 0.16044 0.70965 0.0
C202 C 0.57246 0.34336 0.741 0.0
C203 C 0.59398 0.37327 0.76601 0.0
C204 C 0.56855 0.40431 0.7775 0.0
C205 C 0.58349 0.42601 0.80239 0.0
C206 C 0.62424 0.41733 0.81641 0.0
C207 C 0.6516 0.38861 0.80454 0.0
C208 C 0.63669 0.36691 0.77959 0.0
C209 C 0.42318 0.13897 0.74931 0.0
C210 C 0.3582 0.21626 0.76554 0.0
C211 C 0.25265 0.07697 0.68416 0.0
C212 C 0.25075 0.05428 0.65799 0.0
C213 C 0.21033 -0.00465 0.65149 0.0
C214 C 0.20962 0.9744 0.62665 0.0
C215 C 0.24965 0.01195 0.60784 0.0
C216 C 0.29036 0.0708 0.61466 0.0
C217 C 0.29069 0.09171 0.6393 0.0
C218 C 0.38769 0.27869 0.7 0.0
C219 C 0.45918 0.18357 0.67361 0.0
O220 O 0.52833 0.34681 0.731 0.0
O221 O 0.56676 0.29051 0.73857 0.0
O222 O 0.41737 0.15026 0.7265 0.0
O223 O 0.45829 0.18745 0.76147 0.0
O224 O 0.40948 0.25941 0.75673 0.0
O225 O 0.32552 0.16721 0.7522 0.0
O226 O 0.28155 0.06479 0.7012 0.0
O227 O 0.26425 0.13186 0.68557 0.0
O228 O 0.41369 0.24988 0.6974 0.0
O229 O 0.3345 0.24514 0.70885 0.0
O230 O 0.40161 0.15397 0.67798 0.0
O231 O 0.49688 0.22482 0.68942 0.0
H232 H 0.53573 0.41051 0.7676 0.0
H233 H 0.56246 0.44892 0.8108 0.0
H234 H 0.68291 0.38087 0.81488 0.0
H235 H 0.6571 0.34335 0.77122 0.0
H236 H 0.17915 0.96565 0.66557 0.0
H237 H 0.17704 0.92903 0.62209 0.0
H238 H 0.32256 0.10088 0.60103 0.0
H239 H 0.32244 0.13744 0.64371 0.0
C240 C 0.11933 0.65332 0.30151 0.0
C241 C 0.17448 0.67973 0.3137 0.0
C242 C 0.11268 0.63167 0.27642 0.0
C243 C 0.1627 0.63803 0.26296 0.0
C244 C 0.21766 0.66134 0.27571 0.0
C245 C 0.22282 0.68156 0.30104 0.0
C246 C 0.05262 0.60382 0.26397 0.0
C247 C 0.27168 0.66762 0.26216 0.0
C248 C 0.145 0.55942 0.19929 0.0
C249 C 0.15713 0.60485 0.18178 0.0
C250 C 0.1452 0.56885 0.22576 0.0
C251 C 0.15879 0.62542 0.235 0.0
C252 C 0.16967 0.671 0.21741 0.0
C253 C 0.16868 0.66016 0.19107 0.0
C254 C 0.13254 0.51846 0.24359 0.0
C255 C 0.18301 0.73156 0.22644 0.0
H256 H 0.08153 0.65061 0.31145 0.0
H257 H 0.26551 0.70193 0.31039 0.0
H258 H 0.05311 0.63308 0.24856 0.0
H259 H 0.04183 0.56091 0.25501 0.0
H260 H 0.01703 0.59593 0.27783 0.0
H261 H 0.31012 0.68303 0.27516 0.0
H262 H 0.26177 0.62454 0.25366 0.0
H263 H 0.28412 0.69985 0.24629 0.0
H264 H 0.13668 0.51667 0.19236 0.0
H265 H 0.17696 0.69511 0.17769 0.0
H266 H 0.1109 0.52058 0.26155 0.0
H267 H 0.17487 0.52077 0.24864 0.0
H268 H 0.10372 0.47489 0.23436 0.0
H269 H 0.14629 0.72757 0.23865 0.0
H270 H 0.18945 0.76184 0.21034 0.0
H271 H 0.22365 0.75188 0.23827 0.0
C272 C 0.44419 0.11859 0.636 0.0
C273 C 0.47965 0.1723 0.64888 0.0
C274 C 0.45651 0.11027 0.6107 0.0
C275 C 0.50532 0.15694 0.59789 0.0
C276 C 0.54332 0.20996 0.61126 0.0
C277 C 0.53018 0.21692 0.63671 0.0
C278 C 0.41582 0.05248 0.59734 0.0
C279 C 0.59572 0.26074 0.59819 0.0
C280 C 0.55819 0.12952 0.53403 0.0
C281 C 0.52986 0.14807 0.5167 0.0
C282 C 0.54974 0.13081 0.56051 0.0
C283 C 0.51313 0.15247 0.56992 0.0
C284 C 0.48371 0.17034 0.55252 0.0
C285 C 0.49197 0.16736 0.52618 0.0
C286 C 0.58112 0.1103 0.57834 0.0
C287 C 0.44377 0.19314 0.56171 0.0
H288 H 0.40549 0.08352 0.64545 0.0
H289 H 0.55757 0.25853 0.64653 0.0
H290 H 0.39279 0.06039 0.58141 0.0
H291 H 0.44184 0.0335 0.58891 0.0
H292 H 0.38191 0.01932 0.61045 0.0
H293 H 0.62338 0.29712 0.61169 0.0
H294 H 0.62375 0.24504 0.58895 0.0
H295 H 0.57993 0.27881 0.58294 0.0
H296 H 0.58822 0.11534 0.52695 0.0
H297 H 0.46887 0.18053 0.51296 0.0
H298 H 0.55106 0.08231 0.59383 0.0
H299 H 0.61882 0.14939 0.58741 0.0
H300 H 0.59853 0.08468 0.56813 0.0
H301 H 0.40586 0.15788 0.57244 0.0
H302 H 0.4262 0.20766 0.54574 0.0
H303 H 0.46816 0.23104 0.57496 0.0
C304 C 0.31733 0.46694 0.97237 0.0
C305 C 0.28188 0.48749 0.98345 0.0
C306 C 0.33888 0.48246 0.94732 0.0
C307 C 0.32399 0.51889 0.93291 0.0
C308 C 0.29103 0.54255 0.9445 0.0
C309 C 0.27058 0.52678 0.96974 0.0
C310 C 0.37502 0.45739 0.93589 0.0
C311 C 0.27472 0.58199 0.92982 0.0
C312 C 0.40526 0.58262 0.87019 0.0
C313 C 0.36494 0.5426 0.85235 0.0
C314 C 0.39258 0.57576 0.89648 0.0
C315 C 0.33833 0.52769 0.90514 0.0
C316 C 0.29771 0.48689 0.88725 0.0
C317 C 0.3115 0.49484 0.8611 0.0
C318 C 0.43697 0.62015 0.91497 0.0
C319 C 0.23947 0.4349 0.89574 0.0
H320 H 0.32739 0.43776 0.98314 0.0
H321 H 0.24314 0.54273 0.97823 0.0
H322 H 0.3477 0.42233 0.92186 0.0
H323 H 0.41407 0.49209 0.92548 0.0
H324 H 0.39066 0.43798 0.95064 0.0
H325 H 0.25435 0.60162 0.94229 0.0
H326 H 0.31439 0.61834 0.9204 0.0
H327 H 0.2428 0.55585 0.91457 0.0
H328 H 0.44632 0.62011 0.86355 0.0
H329 H 0.2805 0.46337 0.84746 0.0
H330 H 0.45031 0.59728 0.92899 0.0
H331 H 0.41661 0.64201 0.92591 0.0
H332 H 0.47728 0.65478 0.90517 0.0
H333 H 0.24734 0.40751 0.90958 0.0
H334 H 0.21346 0.40631 0.8795 0.0
H335 H 0.21257 0.4511 0.90566 0.0
C336 C 0.71825 0.27915 0.30212 0.0
C337 C 0.76744 0.28018 0.31327 0.0
C338 C 0.71993 0.29641 0.27661 0.0
C339 C 0.77185 0.3146 0.26184 0.0
C340 C 0.82204 0.31676 0.27311 0.0
C341 C 0.81932 0.29981 0.29871 0.0
C342 C 0.66571 0.29409 0.26532 0.0
C343 C 0.87805 0.33532 0.25794 0.0
C344 C 0.75315 0.29934 0.18976 0.0
C345 C 0.77084 0.35759 0.18244 0.0
C346 C 0.75421 0.28495 0.2155 0.0
C347 C 0.77299 0.32979 0.2344 0.0
C348 C 0.79181 0.38882 0.2271 0.0
C349 C 0.7908 0.40201 0.20122 0.0
C350 C 0.73436 0.22156 0.22251 0.0
C351 C 0.81242 0.43797 0.24664 0.0
H352 H 0.67808 0.26415 0.31322 0.0
H353 H 0.85753 0.30046 0.30706 0.0
H354 H 0.67731 0.33794 0.25731 0.0
H355 H 0.64874 0.26167 0.24936 0.0
H356 H 0.62972 0.28123 0.27962 0.0
H357 H 0.91424 0.33787 0.26992 0.0
H358 H 0.86907 0.30309 0.24228 0.0
H359 H 0.89355 0.37917 0.24899 0.0
H360 H 0.7372 0.26465 0.17543 0.0
H361 H 0.80582 0.44728 0.19566 0.0
H362 H 0.69506 0.204 0.23524 0.0
H363 H 0.7698 0.2194 0.2332 0.0
H364 H 0.72288 0.19233 0.20546 0.0
H365 H 0.7765 0.42768 0.26066 0.0
H366 H 0.82582 0.48159 0.2378 0.0
H367 H 0.85053 0.44154 0.25741 0.0
C368 C 0.42418 0.71149 0.63638 0.0
C369 C 0.4679 0.76387 0.64783 0.0
C370 C 0.40803 0.71073 0.61078 0.0
C371 C 0.43646 0.76354 0.59624 0.0
C372 C 0.47933 0.81693 0.6079 0.0
C373 C 0.49429 0.8165 0.63356 0.0
C374 C 0.36185 0.65298 0.59906 0.0
C375 C 0.51089 0.87417 0.59304 0.0
C376 C 0.44212 0.74845 0.52416 0.0
C377 C 0.39696 0.75876 0.51605 0.0
C378 C 0.4556 0.75019 0.55019 0.0
C379 C 0.42301 0.76237 0.56858 0.0
C380 C 0.37748 0.77298 0.56053 0.0
C381 C 0.36497 0.77098 0.53439 0.0
C382 C 0.50484 0.73914 0.55802 0.0
C383 C 0.34178 0.78617 0.57953 0.0
H384 H 0.40352 0.67063 0.64722 0.0
H385 H 0.52802 0.8573 0.64221 0.0
H386 H 0.32624 0.65842 0.59033 0.0
H387 H 0.38218 0.63977 0.58358 0.0
H388 H 0.34168 0.61657 0.61328 0.0
H389 H 0.54055 0.91249 0.60529 0.0
H390 H 0.53785 0.86997 0.57758 0.0
H391 H 0.47834 0.88364 0.58385 0.0
H392 H 0.46752 0.73978 0.51009 0.0
H393 H 0.32946 0.77823 0.52831 0.0
H394 H 0.48737 0.70062 0.57111 0.0
H395 H 0.53924 0.77808 0.56858 0.0
H396 H 0.52599 0.73038 0.54137 0.0
H397 H 0.31852 0.74849 0.59293 0.0
H398 H 0.30848 0.79432 0.57011 0.0
H399 H 0.37157 0.82572 0.59108 0.0
C400 C 0.69732 0.54944 0.95883 0.0
C401 C 0.69999 0.5087 0.97546 0.0
C402 C 0.68209 0.53535 0.93305 0.0
C403 C 0.66873 0.47898 0.9237 0.0
C404 C 0.66906 0.43684 0.94058 0.0
C405 C 0.68493 0.45229 0.96623 0.0
C406 C 0.6825 0.58156 0.9156 0.0
C407 C 0.6544 0.37602 0.93135 0.0
C408 C 0.58932 0.42508 0.86023 0.0
C409 C 0.6361 0.43568 0.84366 0.0
C410 C 0.59921 0.43924 0.8863 0.0
C411 C 0.6574 0.4651 0.89601 0.0
C412 C 0.705 0.4771 0.8793 0.0
C413 C 0.69374 0.46206 0.85335 0.0
C414 C 0.54727 0.42558 0.90351 0.0
C415 C 0.76781 0.5054 0.88888 0.0
H416 H 0.70904 0.59322 0.96571 0.0
H417 H 0.68663 0.42047 0.97893 0.0
H418 H 0.71801 0.59491 0.90106 0.0
H419 H 0.63996 0.56312 0.90522 0.0
H420 H 0.68999 0.62174 0.92615 0.0
H421 H 0.6529 0.34712 0.9472 0.0
H422 H 0.61098 0.35412 0.92155 0.0
H423 H 0.6881 0.38007 0.91724 0.0
H424 H 0.54462 0.4044 0.85292 0.0
H425 H 0.73018 0.4712 0.84059 0.0
H426 H 0.55467 0.46642 0.91343 0.0
H427 H 0.54294 0.39356 0.91844 0.0
H428 H 0.50496 0.40661 0.89285 0.0
H429 H 0.78049 0.54851 0.89814 0.0
H430 H 0.79996 0.513 0.87332 0.0
H431 H 0.77129 0.47671 0.90354 0.0
C432 C 0.35672 0.42505 0.07842 0.0
C433 C 0.3306 0.45206 0.09222 0.0
C434 C 0.41737 0.4459 0.08031 0.0
C435 C 0.4525 0.49535 0.0962 0.0
C436 C 0.42551 0.51968 0.11176 0.0
C437 C 0.36444 0.49734 0.10971 0.0
C438 C 0.44439 0.41767 0.06387 0.0
C439 C 0.46144 0.57222 0.12894 0.0
C440 C 0.60457 0.51554 0.10132 0.0
C441 C 0.63075 0.54931 0.07941 0.0
C442 C 0.54803 0.50278 0.10904 0.0
C443 C 0.51762 0.52421 0.09426 0.0
C444 C 0.54715 0.56437 0.07397 0.0
C445 C 0.60371 0.5762 0.06661 0.0
C446 C 0.51842 0.46055 0.13097 0.0
C447 C 0.51646 0.58916 0.05813 0.0
H448 H 0.33029 0.38977 0.06505 0.0
H449 H 0.3442 0.5183 0.12045 0.0
H450 H 0.47236 0.44921 0.04878 0.0
H451 H 0.47326 0.40708 0.07551 0.0
H452 H 0.41028 0.37635 0.0545 0.0
H453 H 0.43337 0.5773 0.14363 0.0
H454 H 0.49701 0.56836 0.13865 0.0
H455 H 0.48288 0.61312 0.11723 0.0
H456 H 0.62603 0.4947 0.11102 0.0
H457 H 0.62432 0.60195 0.04954 0.0
H458 H 0.48902 0.41539 0.12328 0.0
H459 H 0.49068 0.47337 0.14243 0.0
H460 H 0.55132 0.45869 0.14372 0.0
H461 H 0.48396 0.55395 0.04534 0.0
H462 H 0.54824 0.62692 0.04613 0.0
H463 H 0.49185 0.60414 0.07054 0.0
C464 C 0.06424 0.62857 0.44426 0.0
C465 C 0.07312 0.65557 0.42031 0.0
C466 C 0.01568 0.57193 0.44854 0.0
C467 C 0.97639 0.54198 0.42821 0.0
C468 C -0.01767 0.57149 0.40479 0.0
C469 C 0.03031 0.62847 0.40128 0.0
C470 C 0.00909 0.54273 0.47411 0.0
C471 C 0.94111 0.54111 0.38262 0.0
C472 C 0.90539 0.37802 0.41652 0.0
C473 C 0.84588 0.36159 0.41887 0.0
C474 C 0.9495 0.43647 0.42158 0.0
C475 C 0.93298 0.47806 0.42992 0.0
C476 C 0.8731 0.4594 0.43525 0.0
C477 C 0.82995 0.4014 0.42915 0.0
C478 C 0.01305 0.45496 0.41551 0.0
C479 C 0.85411 0.50178 0.44525 0.0
H480 H 0.09698 0.65006 0.45914 0.0
H481 H 0.03673 0.64983 0.38288 0.0
H482 H 0.96184 0.51606 0.47975 0.0
H483 H 0.02723 0.51233 0.47285 0.0
H484 H 0.03346 0.5759 0.48931 0.0
H485 H 0.95053 0.57133 0.36615 0.0
H486 H 0.94555 0.50291 0.37611 0.0
H487 H 0.89449 0.52362 0.38861 0.0
H488 H 0.91725 0.34671 0.4088 0.0
H489 H 0.78357 0.3879 0.43145 0.0
H490 H 0.0423 0.481 0.43151 0.0
H491 H 0.02761 0.48379 0.39836 0.0
H492 H 0.01905 0.41631 0.41168 0.0
H493 H 0.88572 0.53223 0.45972 0.0
H494 H 0.80917 0.47786 0.4539 0.0
H495 H 0.85326 0.52919 0.42929 0.0
C496 C 0.39901 0.03721 0.7381 0.0
C497 C 0.41764 0.0821 0.75647 0.0
C498 C 0.40852 -0.01042 0.74158 0.0
C499 C 0.43576 0.98622 0.76433 0.0
C500 C 0.44857 0.02791 0.78415 0.0
C501 C 0.43978 0.076 0.77988 0.0
C502 C 0.3939 0.94572 0.71998 0.0
C503 C 0.47536 0.02426 0.80905 0.0
C504 C 0.42774 0.83886 0.76598 0.0
C505 C 0.48125 0.85287 0.75397 0.0
C506 C 0.41495 0.88333 0.77247 0.0
C507 C 0.45581 0.94247 0.76578 0.0
C508 C 0.51213 0.95726 0.75572 0.0
C509 C 0.52457 0.91194 0.75029 0.0
C510 C 0.3557 0.86632 0.78432 0.0
C511 C 0.55676 0.01999 0.74823 0.0
H512 H 0.38109 0.04155 0.72013 0.0
H513 H 0.45339 0.11041 0.79427 0.0
H514 H 0.43524 0.94896 0.71242 0.0
H515 H 0.3654 0.89983 0.72697 0.0
H516 H 0.37084 0.95355 0.704 0.0
H517 H 0.46887 0.05019 0.82435 0.0
H518 H 0.45601 0.97764 0.81543 0.0
H519 H 0.52361 0.04256 0.8064 0.0
H520 H 0.39478 0.79286 0.76933 0.0
H521 H 0.5661 0.92233 0.74126 0.0
H522 H 0.32508 0.86444 0.76927 0.0
H523 H 0.35994 0.89967 0.79868 0.0
H524 H 0.33554 0.82218 0.79362 0.0
H525 H 0.54022 0.03298 0.73138 0.0
H526 H 0.60046 0.02494 0.74327 0.0
H527 H 0.56281 0.05118 0.76394 0.0
C528 C 0.59784 0.62878 0.71504 0.0
C529 C 0.5845 0.657 0.6957 0.0
C530 C 0.56849 0.56656 0.71615 0.0
C531 C 0.52538 0.53286 0.69745 0.0
C532 C 0.5147 0.56166 0.6771 0.0
C533 C 0.5445 0.62342 0.6765 0.0
C534 C 0.58105 0.53705 0.73804 0.0
C535 C 0.46931 0.52737 0.65674 0.0
C536 C 0.4742 0.37157 0.68546 0.0
C537 C 0.4199 0.34348 0.69851 0.0
C538 C 0.51 0.43315 0.68578 0.0
C539 C 0.49036 0.46745 0.69904 0.0
C540 C 0.43503 0.4393 0.71196 0.0
C541 C 0.40028 0.3773 0.71156 0.0
C542 C 0.56873 0.46143 0.6719 0.0
C543 C 0.41263 0.47457 0.7262 0.0
H544 H 0.62776 0.65501 0.73021 0.0
H545 H 0.53394 0.6457 0.66173 0.0
H546 H 0.54227 0.51667 0.75109 0.0
H547 H 0.58829 0.50099 0.73091 0.0
H548 H 0.62038 0.56895 0.74918 0.0
H549 H 0.46808 0.55668 0.64171 0.0
H550 H 0.4789 0.49465 0.64753 0.0
H551 H 0.42473 0.50232 0.66559 0.0
H552 H 0.48935 0.34514 0.67536 0.0
H553 H 0.35855 0.35533 0.72184 0.0
H554 H 0.60486 0.49033 0.68516 0.0
H555 H 0.56864 0.4899 0.65624 0.0
H556 H 0.57876 0.42807 0.66362 0.0
H557 H 0.44434 0.50084 0.74147 0.0
H558 H 0.36851 0.44604 0.73505 0.0
H559 H 0.40945 0.50595 0.71295 0.0
C560 C 0.00422 0.37767 0.05308 0.0
C561 C 0.0458 0.3886 0.03383 0.0
C562 C 0.97556 0.41115 0.05435 0.0
C563 C -0.01066 0.45604 0.03594 0.0
C564 C 0.02982 0.46541 1.01601 0.0
C565 C 0.05735 0.43139 1.01519 0.0
C566 C 0.93231 0.40006 0.07577 0.0
C567 C 0.04539 0.51251 0.99593 0.0
C568 C 0.88397 0.51002 1.02004 0.0
C569 C 0.90927 0.56465 0.03281 0.0
C570 C 0.90816 0.47311 1.02194 0.0
C571 C 0.95991 0.49196 0.03648 0.0
C572 C -0.01368 0.54747 0.04925 0.0
C573 C 0.96046 0.5834 0.04729 0.0
C574 C 0.87853 0.41414 1.0082 0.0
C575 C 0.04202 0.56897 0.0647 0.0
H576 H -0.00343 0.34548 0.06782 0.0
H577 H 0.09013 0.43998 1.00046 0.0
H578 H 0.95094 0.43889 0.08881 0.0
H579 H 0.89036 0.39461 0.06808 0.0
H580 H 0.92232 0.3601 0.08705 0.0
H581 H 0.07838 0.51437 0.98189 0.0
H582 H 0.00506 0.50392 0.98544 0.0
H583 H 0.06364 0.5566 1.00517 0.0
H584 H 0.84428 0.49545 1.00881 0.0
H585 H 0.97953 0.62534 0.05738 0.0
H586 H 0.86941 0.3779 1.02174 0.0
H587 H 0.90845 0.41379 0.99314 0.0
H588 H 0.83623 0.40447 0.99914 0.0
H589 H 0.03633 0.5348 0.07875 0.0
H590 H 0.05436 0.61085 0.07507 0.0
H591 H 0.07913 0.57655 0.05186 0.0
C592 C 0.37926 0.96455 0.37424 0.0
C593 C 0.34572 0.90817 0.36368 0.0
C594 C 0.44106 -0.00825 0.37503 0.0
C595 C 0.46942 0.96142 0.36521 0.0
C596 C 0.43541 0.90439 0.35446 0.0
C597 C 0.37394 0.87867 0.35362 0.0
C598 C 0.47577 0.0525 0.38669 0.0
C599 C 0.46391 0.87072 0.34372 0.0
C600 C 0.62698 0.05896 0.34328 0.0
C601 C 0.65879 0.05683 0.36425 0.0
C602 C 0.56528 0.02626 0.343 0.0
C603 C 0.53481 -0.00896 0.36439 0.0
C604 C 0.56686 0.98598 0.38506 0.0
C605 C 0.62901 0.01897 0.38469 0.0
C606 C 0.53274 0.03255 0.32055 0.0
C607 C 0.53555 0.94882 0.40817 0.0
H608 H 0.35721 0.98694 0.3822 0.0
H609 H 0.34776 0.83485 0.34536 0.0
H610 H 0.49705 0.04924 0.40436 0.0
H611 H 0.51102 0.08292 0.37336 0.0
H612 H 0.44754 0.07187 0.39167 0.0
H613 H 0.43075 0.82561 0.33706 0.0
H614 H 0.49308 0.8954 0.3274 0.0
H615 H 0.49207 0.86661 0.35842 0.0
H616 H 0.65046 0.08907 0.32768 0.0
H617 H 0.65387 0.01872 0.40116 0.0
H618 H 0.50808 0.05489 0.32683 0.0
H619 H 0.49991 -0.0117 0.31303 0.0
H620 H 0.56316 0.05874 0.30476 0.0
H621 H 0.51242 0.96866 0.41852 0.0
H622 H 0.56667 0.94561 0.42157 0.0
H623 H 0.50147 0.90349 0.40227 0.0
C624 C 0.28029 0.19259 0.79925 0.0
C625 C 0.33997 0.22204 0.79186 0.0
C626 C 0.26353 0.19687 0.82448 0.0
C627 C 0.3076 0.22964 0.84298 0.0
C628 C 0.36797 0.25889 0.8356 0.0
C629 C 0.38327 0.25568 0.81009 0.0
C630 C 0.19866 0.16627 0.83135 0.0
C631 C 0.41673 0.29336 0.85462 0.0
C632 C 0.2691 0.28298 0.90435 0.0
C633 C 0.26078 0.23872 0.92179 0.0
C634 C 0.28366 0.28032 0.87863 0.0
C635 C 0.29077 0.23253 0.87013 0.0
C636 C 0.28302 0.18802 0.88776 0.0
C637 C 0.26754 0.19133 0.91327 0.0
C638 C 0.29079 0.32832 0.86049 0.0
C639 C 0.29228 0.1375 0.87977 0.0
H640 H 0.24663 0.16671 0.78524 0.0
H641 H 0.42959 0.2782 0.80461 0.0
H642 H 0.18853 0.1318 0.84598 0.0
H643 H 0.18756 0.19868 0.83979 0.0
H644 H 0.16982 0.14503 0.81454 0.0
H645 H 0.46068 0.30355 0.84707 0.0
H646 H 0.41838 0.33577 0.85918 0.0
H647 H 0.40839 0.26841 0.87273 0.0
H648 H 0.26311 0.31924 0.91075 0.0
H649 H 0.26173 0.15733 0.92672 0.0
H650 H 0.25788 0.30859 0.8449 0.0
H651 H 0.33531 0.34972 0.85152 0.0
H652 H 0.28495 0.36302 0.87019 0.0
H653 H 0.26154 0.11188 0.86409 0.0
H654 H 0.28522 0.10685 0.8958 0.0
H655 H 0.33797 0.15527 0.87232 0.0
C656 C 0.06277 0.32355 0.25038 0.0
C657 C 0.00766 0.27544 0.25743 0.0
C658 C 0.08107 0.33379 0.22466 0.0
C659 C 0.04332 0.29518 0.20542 0.0
C660 C -0.01244 0.24671 0.21239 0.0
C661 C 0.97047 0.23742 0.23825 0.0
C662 C 0.14097 0.38583 0.21808 0.0
C663 C 0.94563 0.20501 0.19247 0.0
C664 C 0.06806 0.3567 0.13787 0.0
C665 C 0.1012 0.33348 0.1266 0.0
C666 C 0.04818 0.3438 0.16328 0.0
C667 C 0.06156 0.30658 0.17796 0.0
C668 C 0.09358 0.28162 0.16654 0.0
C669 C 0.11298 0.29532 0.14101 0.0
C670 C 0.01427 0.37148 0.17461 0.0
C671 C 0.10859 0.24158 0.18151 0.0
H672 H 0.09207 0.35284 0.26504 0.0
H673 H 0.92741 0.20075 0.24343 0.0
H674 H 0.16868 0.36989 0.2087 0.0
H675 H 0.13605 0.41526 0.20429 0.0
H676 H 0.16468 0.41229 0.23518 0.0
H677 H 0.90452 0.16855 0.20105 0.0
H678 H 0.93337 0.22985 0.17904 0.0
H679 H 0.96762 0.18539 0.18111 0.0
H680 H 0.05829 0.38597 0.12697 0.0
H681 H 0.13868 0.27732 0.13257 0.0
H682 H 0.04132 0.40385 0.18961 0.0
H683 H 0.9729 0.33721 0.18384 0.0
H684 H 0.0027 0.39482 0.16004 0.0
H685 H 0.13737 0.26635 0.19786 0.0
H686 H 0.13171 0.22388 0.16964 0.0
H687 H 0.06771 0.20382 0.18951 0.0
C688 C 0.72833 0.98446 0.56964 0.0
C689 C 0.72102 0.01619 0.58972 0.0
C690 C 0.73754 0.00548 0.54439 0.0
C691 C 0.73947 0.05961 0.53898 0.0
C692 C 0.7323 0.09198 0.55916 0.0
C693 C 0.72322 0.06994 0.58424 0.0
C694 C 0.74477 0.96951 0.52345 0.0
C695 C 0.73366 0.14967 0.55419 0.0
C696 C 0.80938 0.14145 0.47678 0.0
C697 C 0.75929 0.12627 0.46187 0.0
C698 C 0.80372 0.11959 0.50182 0.0
C699 C 0.74669 0.08134 0.51211 0.0
C700 C 0.69612 0.06467 0.49688 0.0
C701 C 0.70302 0.08739 0.47206 0.0
C702 C 0.85871 0.13836 0.51745 0.0
C703 C 0.63455 0.02338 0.50693 0.0
H704 H 0.72743 0.94328 0.57371 0.0
H705 H 0.7168 0.09438 0.59953 0.0
H706 H 0.70908 0.95609 0.50915 0.0
H707 H 0.78745 -0.00325 0.51334 0.0
H708 H 0.74344 0.929 0.53087 0.0
H709 H 0.72777 0.1697 0.57195 0.0
H710 H 0.77641 0.18181 0.5452 0.0
H711 H 0.69816 0.14235 0.54061 0.0
H712 H 0.85296 0.17153 0.46913 0.0
H713 H 0.66396 0.07482 0.46066 0.0
H714 H 0.85989 0.09879 0.52436 0.0
H715 H 0.85803 0.16337 0.53454 0.0
H716 H 0.89985 0.16663 0.50642 0.0
H717 H 0.63093 0.98111 0.51322 0.0
H718 H 0.59993 0.01329 0.4924 0.0
H719 H 0.62554 0.04342 0.52387 0.0
C720 C 0.61745 0.71449 0.80421 0.0
C721 C 0.63334 0.7691 0.79276 0.0
C722 C 0.6375 0.71155 0.8287 0.0
C723 C 0.6746 0.76457 0.84215 0.0
C724 C 0.69197 0.81991 0.83049 0.0
C725 C 0.67125 0.82153 0.80592 0.0
C726 C 0.61799 0.65157 0.84033 0.0
C727 C 0.73147 0.87744 0.84421 0.0
C728 C 0.67742 0.75671 0.91471 0.0
C729 C 0.73033 0.75644 0.91894 0.0
C730 C 0.65892 0.75954 0.88986 0.0
C731 C 0.69407 0.76206 0.86864 0.0
C732 C 0.7474 0.76159 0.87276 0.0
C733 C 0.76489 0.75884 0.89783 0.0
C734 C 0.6017 0.75983 0.8863 0.0
C735 C 0.78573 0.76341 0.85067 0.0
H736 H 0.58895 0.67375 0.79409 0.0
H737 H 0.68375 0.86392 0.79728 0.0
H738 H 0.65698 0.64881 0.84673 0.0
H739 H 0.59013 0.64525 0.85743 0.0
H740 H 0.59217 0.6147 0.82675 0.0
H741 H 0.74227 0.91675 0.83229 0.0
H742 H 0.70943 0.87987 0.862 0.0
H743 H 0.77333 0.87944 0.84984 0.0
H744 H 0.65068 0.75534 0.9309 0.0
H745 H 0.80525 0.75752 0.90088 0.0
H746 H 0.57064 0.72104 0.87466 0.0
H747 H 0.61015 0.80017 0.87576 0.0
H748 H 0.5799 0.75853 0.90477 0.0
H749 H 0.76028 0.72443 0.83809 0.0
H750 H 0.82629 0.76356 0.85709 0.0
H751 H 0.79902 0.80356 0.83897 0.0
C752 C 0.00018 0.71849 0.23393 0.0
C753 C 0.97186 0.73862 0.2507 0.0
C754 C 0.9796 0.7007 0.20891 0.0
C755 C 0.92919 0.70277 0.20048 0.0
C756 C 0.90038 0.72301 0.21738 0.0
C757 C 0.92233 0.74111 0.24222 0.0
C758 C 0.01183 0.67974 0.19152 0.0
C759 C 0.84563 0.72439 0.20936 0.0
C760 C 0.90022 0.70454 0.12933 0.0
C761 C 0.85974 0.64466 0.12454 0.0
C762 C 0.92409 0.7239 0.15385 0.0
C763 C 0.90574 0.68266 0.17419 0.0
C764 C 0.86423 0.62228 0.16948 0.0
C765 C 0.8426 0.60388 0.14464 0.0
C766 C 0.96904 0.78844 0.15798 0.0
C767 C 0.84246 0.57682 0.19059 0.0
H768 H 0.03912 0.71758 0.24032 0.0
H769 H 0.90012 0.75625 0.25521 0.0
H770 H -0.01813 0.63283 0.18608 0.0
H771 H 0.02536 0.70612 0.17366 0.0
H772 H 0.05181 0.68325 0.20063 0.0
H773 H 0.8285 0.74144 0.22472 0.0
H774 H 0.85529 0.75273 0.19224 0.0
H775 H 0.81035 0.67908 0.20405 0.0
H776 H 0.91392 0.73616 0.11382 0.0
H777 H 0.81108 0.55756 0.14111 0.0
H778 H 0.01027 0.79269 0.16598 0.0
H779 H 0.95187 0.80811 0.17208 0.0
H780 H 0.98011 0.81449 0.14003 0.0
H781 H 0.87701 0.56526 0.19495 0.0
H782 H 0.80141 0.53566 0.18509 0.0
H783 H 0.83345 0.59441 0.20835 0.0
C784 C 0.25925 0.02819 0.5602 0.0
C785 C 0.24859 -0.00948 0.58115 0.0
C786 C 0.25778 0.00872 0.53499 0.0
C787 C 0.24442 0.94974 0.53038 0.0
C788 C 0.23449 0.91168 0.55137 0.0
C789 C 0.23693 0.93255 0.57644 0.0
C790 C 0.26969 0.05113 0.51323 0.0
C791 C 0.22062 0.8486 0.54733 0.0
C792 C 0.1779 0.87922 0.46609 0.0
C793 C 0.22634 0.88115 0.45341 0.0
C794 C 0.18334 0.90165 0.49104 0.0
C795 C 0.23871 0.92724 0.50362 0.0
C796 C 0.28818 0.93073 0.49068 0.0
C797 C 0.28133 0.90744 0.46582 0.0
C798 C 0.12942 0.89678 0.50418 0.0
C799 C 0.34819 0.9583 0.50321 0.0
H800 H 0.26766 0.07283 0.56343 0.0
H801 H 0.22995 0.90338 0.59239 0.0
H802 H 0.30546 0.0537 0.50078 0.0
H803 H 0.2295 0.03469 0.50129 0.0
H804 H 0.28278 0.09648 0.52004 0.0
H805 H 0.21454 0.82478 0.56563 0.0
H806 H 0.17966 0.82405 0.53589 0.0
H807 H 0.25685 0.848 0.53639 0.0
H808 H 0.13517 0.8587 0.45679 0.0
H809 H 0.31918 0.9095 0.45618 0.0
H810 H 0.13811 0.94134 0.51013 0.0
H811 H 0.11948 0.86966 0.52173 0.0
H812 H 0.08976 0.87633 0.49172 0.0
H813 H 0.36178 0.00382 0.50986 0.0
H814 H 0.38284 0.96044 0.49009 0.0
H815 H 0.34597 0.93217 0.52026 0.0
loop_
_geom_bond_atom_site_label_1
_geom_bond_atom_site_label_2
_geom_bond_distance
_geom_bond_site_symmetry_2
_ccdc_geom_bond_type
Sm0 C2 2.846 . S
Sm0 O20 2.543 . S
Sm0 O21 2.450 . S
Sm0 O22 2.681 . S
Sm0 O23 2.464 . S
Sm0 O24 2.396 . S
Sm0 O28 2.386 . S
Sm0 O31 2.408 . S
Sm1 C11 2.846 1_554 S
Sm1 O22 2.386 . S
Sm1 O25 2.408 . S
Sm1 O26 2.543 1_554 S
Sm1 O27 2.450 1_554 S
Sm1 O28 2.681 . S
Sm1 O29 2.464 . S
Sm1 O30 2.396 1_554 S
C2 Sm0 2.846 . S
C2 C3 1.506 . S
C2 O20 1.261 . S
C2 O21 1.242 . S
C3 C2 1.506 . S
C3 C4 1.358 . S
C3 C8 1.382 . S
C4 C3 1.358 . S
C4 C5 1.385 . S
C4 H32 0.930 . S
C5 C4 1.385 . S
C5 C6 1.395 . S
C5 H33 0.929 . S
C6 C5 1.395 . S
C6 C7 1.335 . S
C7 C6 1.335 . S
C7 C8 1.398 . S
C7 H34 0.930 . S
C8 C3 1.382 . S
C8 C7 1.398 . S
C8 H35 0.929 . S
C9 O22 1.271 . S
C9 O23 1.251 . S
C10 O24 1.252 . S
C10 O25 1.272 . S
C11 Sm1 2.846 1_556 S
C11 C12 1.506 . S
C11 O26 1.261 . S
C11 O27 1.242 . S
C12 C11 1.506 . S
C12 C13 1.358 . S
C12 C17 1.382 . S
C13 C12 1.358 . S
C13 C14 1.385 . S
C13 H36 0.930 . S
C14 C13 1.385 . S
C14 C15 1.395 . S
C14 H37 0.929 . S
C15 C14 1.395 . S
C15 C16 1.335 . S
C16 C15 1.335 . S
C16 C17 1.398 . S
C16 H38 0.930 . S
C17 C12 1.382 . S
C17 C16 1.398 . S
C17 H39 0.929 . S
C18 O28 1.271 . S
C18 O29 1.251 . S
C19 O30 1.252 . S
C19 O31 1.272 1_556 S
O20 Sm0 2.543 . S
O20 C2 1.261 . S
O21 Sm0 2.450 . S
O21 C2 1.242 . S
O22 Sm0 2.681 . S
O22 Sm1 2.386 . S
O22 C9 1.271 . S
O23 Sm0 2.464 . S
O23 C9 1.251 . S
O24 Sm0 2.396 . S
O24 C10 1.252 . S
O25 Sm1 2.408 . S
O25 C10 1.272 . S
O26 Sm1 2.543 1_556 S
O26 C11 1.261 . S
O27 Sm1 2.450 1_556 S
O27 C11 1.242 . S
O28 Sm0 2.386 . S
O28 Sm1 2.681 . S
O28 C18 1.271 . S
O29 Sm1 2.464 . S
O29 C18 1.251 . S
O30 Sm1 2.396 1_556 S
O30 C19 1.252 . S
O31 Sm0 2.408 . S
O31 C19 1.272 1_554 S
H32 C4 0.930 . S
H33 C5 0.929 . S
H34 C7 0.930 . S
H35 C8 0.929 . S
H36 C13 0.930 . S
H37 C14 0.929 . S
H38 C16 0.930 . S
H39 C17 0.929 . S
Sm40 C42 2.846 . S
Sm40 O60 2.543 . S
Sm40 O61 2.450 . S
Sm40 O62 2.681 . S
Sm40 O63 2.464 . S
Sm40 O64 2.396 . S
Sm40 O68 2.386 . S
Sm40 O71 2.408 . S
Sm41 C51 2.846 . S
Sm41 O62 2.386 . S
Sm41 O65 2.408 . S
Sm41 O66 2.543 . S
Sm41 O67 2.450 . S
Sm41 O68 2.681 . S
Sm41 O69 2.464 . S
Sm41 O70 2.396 . S
C42 Sm40 2.846 . S
C42 C43 1.506 . S
C42 O60 1.261 . S
C42 O61 1.242 . S
C43 C42 1.506 . S
C43 C44 1.358 . S
C43 C48 1.382 . S
C44 C43 1.358 . S
C44 C45 1.385 . S
C44 H72 0.930 . S
C45 C44 1.385 . S
C45 C46 1.395 . S
C45 H73 0.929 . S
C46 C45 1.395 . S
C46 C47 1.335 . S
C47 C46 1.335 . S
C47 C48 1.398 . S
C47 H74 0.930 . S
C48 C43 1.382 . S
C48 C47 1.398 . S
C48 H75 0.929 . S
C49 O62 1.271 . S
C49 O63 1.251 . S
C50 O64 1.252 . S
C50 O65 1.272 . S
C51 Sm41 2.846 . S
C51 C52 1.506 . S
C51 O66 1.261 . S
C51 O67 1.242 . S
C52 C51 1.506 . S
C52 C53 1.358 . S
C52 C57 1.382 . S
C53 C52 1.358 . S
C53 C54 1.385 . S
C53 H76 0.930 . S
C54 C53 1.385 . S
C54 C55 1.395 . S
C54 H77 0.929 1_655 S
C55 C54 1.395 . S
C55 C56 1.335 . S
C56 C55 1.335 . S
C56 C57 1.398 . S
C56 H78 0.930 . S
C57 C52 1.382 . S
C57 C56 1.398 . S
C57 H79 0.929 . S
C58 O68 1.271 . S
C58 O69 1.251 . S
C59 O70 1.252 . S
C59 O71 1.272 . S
O60 Sm40 2.543 . S
O60 C42 1.261 . S
O61 Sm40 2.450 . S
O61 C42 1.242 . S
O62 Sm40 2.681 . S
O62 Sm41 2.386 . S
O62 C49 1.271 . S
O63 Sm40 2.464 . S
O63 C49 1.251 . S
O64 Sm40 2.396 . S
O64 C50 1.252 . S
O65 Sm41 2.408 . S
O65 C50 1.272 . S
O66 Sm41 2.543 . S
O66 C51 1.261 . S
O67 Sm41 2.450 . S
O67 C51 1.242 . S
O68 Sm40 2.386 . S
O68 Sm41 2.681 . S
O68 C58 1.271 . S
O69 Sm41 2.464 . S
O69 C58 1.251 . S
O70 Sm41 2.396 . S
O70 C59 1.252 . S
O71 Sm40 2.408 . S
O71 C59 1.272 . S
H72 C44 0.930 . S
H73 C45 0.929 . S
H74 C47 0.930 . S
H75 C48 0.929 . S
H76 C53 0.930 . S
H77 C54 0.929 1_455 S
H78 C56 0.930 . S
H79 C57 0.929 . S
Sm80 C82 2.846 . S
Sm80 O100 2.543 . S
Sm80 O101 2.450 . S
Sm80 O102 2.681 . S
Sm80 O103 2.464 . S
Sm80 O104 2.396 . S
Sm80 O108 2.386 . S
Sm80 O111 2.408 . S
Sm81 C91 2.846 . S
Sm81 O102 2.386 . S
Sm81 O105 2.408 . S
Sm81 O106 2.543 . S
Sm81 O107 2.450 . S
Sm81 O108 2.681 . S
Sm81 O109 2.464 . S
Sm81 O110 2.396 . S
C82 Sm80 2.846 . S
C82 C83 1.506 . S
C82 O100 1.261 . S
C82 O101 1.242 . S
C83 C82 1.506 . S
C83 C84 1.358 . S
C83 C88 1.382 . S
C84 C83 1.358 . S
C84 C85 1.385 . S
C84 H112 0.930 . S
C85 C84 1.385 . S
C85 C86 1.395 . S
C85 H113 0.929 . S
C86 C85 1.395 . S
C86 C87 1.335 . S
C87 C86 1.335 . S
C87 C88 1.398 . S
C87 H114 0.930 . S
C88 C83 1.382 . S
C88 C87 1.398 . S
C88 H115 0.929 . S
C89 O102 1.271 . S
C89 O103 1.251 . S
C90 O104 1.252 . S
C90 O105 1.272 . S
C91 Sm81 2.846 . S
C91 C92 1.506 . S
C91 O106 1.261 . S
C91 O107 1.242 . S
C92 C91 1.506 . S
C92 C93 1.358 . S
C92 C97 1.382 . S
C93 C92 1.358 . S
C93 C94 1.385 . S
C93 H116 0.930 . S
C94 C93 1.385 . S
C94 C95 1.395 . S
C94 H117 0.929 1_565 S
C95 C94 1.395 . S
C95 C96 1.335 . S
C96 C95 1.335 . S
C96 C97 1.398 . S
C96 H118 0.930 . S
C97 C92 1.382 . S
C97 C96 1.398 . S
C97 H119 0.929 . S
C98 O108 1.271 . S
C98 O109 1.251 . S
C99 O110 1.252 . S
C99 O111 1.272 . S
O100 Sm80 2.543 . S
O100 C82 1.261 . S
O101 Sm80 2.450 . S
O101 C82 1.242 . S
O102 Sm80 2.681 . S
O102 Sm81 2.386 . S
O102 C89 1.271 . S
O103 Sm80 2.464 . S
O103 C89 1.251 . S
O104 Sm80 2.396 . S
O104 C90 1.252 . S
O105 Sm81 2.408 . S
O105 C90 1.272 . S
O106 Sm81 2.543 . S
O106 C91 1.261 . S
O107 Sm81 2.450 . S
O107 C91 1.242 . S
O108 Sm80 2.386 . S
O108 Sm81 2.681 . S
O108 C98 1.271 . S
O109 Sm81 2.464 . S
O109 C98 1.251 . S
O110 Sm81 2.396 . S
O110 C99 1.252 . S
O111 Sm80 2.408 . S
O111 C99 1.272 . S
H112 C84 0.930 . S
H113 C85 0.929 . S
H114 C87 0.930 . S
H115 C88 0.929 . S
H116 C93 0.930 . S
H117 C94 0.929 1_545 S
H118 C96 0.930 . S
H119 C97 0.929 . S
Sm120 C122 2.846 . S
Sm120 O140 2.543 . S
Sm120 O141 2.450 . S
Sm120 O142 2.681 . S
Sm120 O143 2.464 . S
Sm120 O144 2.396 . S
Sm120 O148 2.386 . S
Sm120 O151 2.408 . S
Sm121 C131 2.846 1_554 S
Sm121 O142 2.386 . S
Sm121 O145 2.408 . S
Sm121 O146 2.543 1_554 S
Sm121 O147 2.450 1_554 S
Sm121 O148 2.681 . S
Sm121 O149 2.464 . S
Sm121 O150 2.396 1_554 S
C122 Sm120 2.846 . S
C122 C123 1.506 . S
C122 O140 1.261 . S
C122 O141 1.242 . S
C123 C122 1.506 . S
C123 C124 1.358 . S
C123 C128 1.382 . S
C124 C123 1.358 . S
C124 C125 1.385 . S
C124 H152 0.930 . S
C125 C124 1.385 . S
C125 C126 1.395 . S
C125 H153 0.929 . S
C126 C125 1.395 . S
C126 C127 1.335 . S
C127 C126 1.335 . S
C127 C128 1.398 . S
C127 H154 0.930 . S
C128 C123 1.382 . S
C128 C127 1.398 . S
C128 H155 0.929 . S
C129 O142 1.271 . S
C129 O143 1.251 . S
C130 O144 1.252 . S
C130 O145 1.272 . S
C131 Sm121 2.846 1_556 S
C131 C132 1.506 . S
C131 O146 1.261 . S
C131 O147 1.242 . S
C132 C131 1.506 . S
C132 C133 1.358 . S
C132 C137 1.382 . S
C133 C132 1.358 . S
C133 C134 1.385 . S
C133 H156 0.930 . S
C134 C133 1.385 . S
C134 C135 1.395 . S
C134 H157 0.929 . S
C135 C134 1.395 . S
C135 C136 1.335 . S
C136 C135 1.335 . S
C136 C137 1.398 . S
C136 H158 0.930 . S
C137 C132 1.382 . S
C137 C136 1.398 . S
C137 H159 0.929 . S
C138 O148 1.271 . S
C138 O149 1.251 . S
C139 O150 1.252 . S
C139 O151 1.272 1_556 S
O140 Sm120 2.543 . S
O140 C122 1.261 . S
O141 Sm120 2.450 . S
O141 C122 1.242 . S
O142 Sm120 2.681 . S
O142 Sm121 2.386 . S
O142 C129 1.271 . S
O143 Sm120 2.464 . S
O143 C129 1.251 . S
O144 Sm120 2.396 . S
O144 C130 1.252 . S
O145 Sm121 2.408 . S
O145 C130 1.272 . S
O146 Sm121 2.543 1_556 S
O146 C131 1.261 . S
O147 Sm121 2.450 1_556 S
O147 C131 1.242 . S
O148 Sm120 2.386 . S
O148 Sm121 2.681 . S
O148 C138 1.271 . S
O149 Sm121 2.464 . S
O149 C138 1.251 . S
O150 Sm121 2.396 1_556 S
O150 C139 1.252 . S
O151 Sm120 2.408 . S
O151 C139 1.272 1_554 S
H152 C124 0.930 . S
H153 C125 0.929 . S
H154 C127 0.930 . S
H155 C128 0.929 . S
H156 C133 0.930 . S
H157 C134 0.929 . S
H158 C136 0.930 . S
H159 C137 0.929 . S
Sm160 C162 2.846 . S
Sm160 O180 2.543 . S
Sm160 O181 2.450 . S
Sm160 O182 2.681 . S
Sm160 O183 2.464 . S
Sm160 O184 2.396 . S
Sm160 O188 2.386 . S
Sm160 O191 2.408 . S
Sm161 C171 2.846 . S
Sm161 O182 2.386 . S
Sm161 O185 2.408 . S
Sm161 O186 2.543 . S
Sm161 O187 2.450 . S
Sm161 O188 2.681 . S
Sm161 O189 2.464 . S
Sm161 O190 2.396 . S
C162 Sm160 2.846 . S
C162 C163 1.506 . S
C162 O180 1.261 . S
C162 O181 1.242 . S
C163 C162 1.506 . S
C163 C164 1.358 . S
C163 C168 1.382 . S
C164 C163 1.358 . S
C164 C165 1.385 . S
C164 H192 0.930 . S
C165 C164 1.385 . S
C165 C166 1.395 . S
C165 H193 0.929 . S
C166 C165 1.395 . S
C166 C167 1.335 . S
C167 C166 1.335 . S
C167 C168 1.398 . S
C167 H194 0.930 . S
C168 C163 1.382 . S
C168 C167 1.398 . S
C168 H195 0.929 . S
C169 O182 1.271 . S
C169 O183 1.251 . S
C170 O184 1.252 . S
C170 O185 1.272 . S
C171 Sm161 2.846 . S
C171 C172 1.506 . S
C171 O186 1.261 . S
C171 O187 1.242 . S
C172 C171 1.506 . S
C172 C173 1.358 . S
C172 C177 1.382 . S
C173 C172 1.358 . S
C173 C174 1.385 . S
C173 H196 0.930 . S
C174 C173 1.385 . S
C174 C175 1.395 . S
C174 H197 0.929 1_455 S
C175 C174 1.395 . S
C175 C176 1.335 . S
C176 C175 1.335 . S
C176 C177 1.398 . S
C176 H198 0.930 . S
C177 C172 1.382 . S
C177 C176 1.398 . S
C177 H199 0.929 . S
C178 O188 1.271 . S
C178 O189 1.251 . S
C179 O190 1.252 . S
C179 O191 1.272 . S
O180 Sm160 2.543 . S
O180 C162 1.261 . S
O181 Sm160 2.450 . S
O181 C162 1.242 . S
O182 Sm160 2.681 . S
O182 Sm161 2.386 . S
O182 C169 1.271 . S
O183 Sm160 2.464 . S
O183 C169 1.251 . S
O184 Sm160 2.396 . S
O184 C170 1.252 . S
O185 Sm161 2.408 . S
O185 C170 1.272 . S
O186 Sm161 2.543 . S
O186 C171 1.261 . S
O187 Sm161 2.450 . S
O187 C171 1.242 . S
O188 Sm160 2.386 . S
O188 Sm161 2.681 . S
O188 C178 1.271 . S
O189 Sm161 2.464 . S
O189 C178 1.251 . S
O190 Sm161 2.396 . S
O190 C179 1.252 . S
O191 Sm160 2.408 . S
O191 C179 1.272 . S
H192 C164 0.930 . S
H193 C165 0.929 . S
H194 C167 0.930 . S
H195 C168 0.929 . S
H196 C173 0.930 . S
H197 C174 0.929 1_655 S
H198 C176 0.930 . S
H199 C177 0.929 . S
Sm200 C202 2.846 . S
Sm200 O220 2.543 . S
Sm200 O221 2.450 . S
Sm200 O222 2.681 . S
Sm200 O223 2.464 . S
Sm200 O224 2.396 . S
Sm200 O228 2.386 . S
Sm200 O231 2.408 . S
Sm201 C211 2.846 . S
Sm201 O222 2.386 . S
Sm201 O225 2.408 . S
Sm201 O226 2.543 . S
Sm201 O227 2.450 . S
Sm201 O228 2.681 . S
Sm201 O229 2.464 . S
Sm201 O230 2.396 . S
C202 Sm200 2.846 . S
C202 C203 1.506 . S
C202 O220 1.261 . S
C202 O221 1.242 . S
C203 C202 1.506 . S
C203 C204 1.358 . S
C203 C208 1.382 . S
C204 C203 1.358 . S
C204 C205 1.385 . S
C204 H232 0.930 . S
C205 C204 1.385 . S
C205 C206 1.395 . S
C205 H233 0.929 . S
C206 C205 1.395 . S
C206 C207 1.335 . S
C207 C206 1.335 . S
C207 C208 1.398 . S
C207 H234 0.930 . S
C208 C203 1.382 . S
C208 C207 1.398 . S
C208 H235 0.929 . S
C209 O222 1.271 . S
C209 O223 1.251 . S
C210 O224 1.252 . S
C210 O225 1.272 . S
C211 Sm201 2.846 . S
C211 C212 1.506 . S
C211 O226 1.261 . S
C211 O227 1.242 . S
C212 C211 1.506 . S
C212 C213 1.358 . S
C212 C217 1.382 . S
C213 C212 1.358 . S
C213 C214 1.385 . S
C213 H236 0.930 . S
C214 C213 1.385 . S
C214 C215 1.395 . S
C214 H237 0.929 1_545 S
C215 C214 1.395 . S
C215 C216 1.335 . S
C216 C215 1.335 . S
C216 C217 1.398 . S
C216 H238 0.930 . S
C217 C212 1.382 . S
C217 C216 1.398 . S
C217 H239 0.929 . S
C218 O228 1.271 . S
C218 O229 1.251 . S
C219 O230 1.252 . S
C219 O231 1.272 . S
O220 Sm200 2.543 . S
O220 C202 1.261 . S
O221 Sm200 2.450 . S
O221 C202 1.242 . S
O222 Sm200 2.681 . S
O222 Sm201 2.386 . S
O222 C209 1.271 . S
O223 Sm200 2.464 . S
O223 C209 1.251 . S
O224 Sm200 2.396 . S
O224 C210 1.252 . S
O225 Sm201 2.408 . S
O225 C210 1.272 . S
O226 Sm201 2.543 . S
O226 C211 1.261 . S
O227 Sm201 2.450 . S
O227 C211 1.242 . S
O228 Sm200 2.386 . S
O228 Sm201 2.681 . S
O228 C218 1.271 . S
O229 Sm201 2.464 . S
O229 C218 1.251 . S
O230 Sm201 2.396 . S
O230 C219 1.252 . S
O231 Sm200 2.408 . S
O231 C219 1.272 . S
H232 C204 0.930 . S
H233 C205 0.929 . S
H234 C207 0.930 . S
H235 C208 0.929 . S
H236 C213 0.930 . S
H237 C214 0.929 1_565 S
H238 C216 0.930 . S
H239 C217 0.929 . S
C240 C241 1.391 . S
C240 C242 1.394 . S
C240 H256 0.931 . S
C241 C240 1.391 . S
C241 C245 1.376 . S
C242 C240 1.394 . S
C242 C243 1.369 . S
C242 C246 1.531 . S
C243 C242 1.369 . S
C243 C244 1.410 . S
C243 C251 1.503 . S
C244 C243 1.410 . S
C244 C245 1.392 . S
C244 C247 1.511 . S
C245 C241 1.376 . S
C245 C244 1.392 . S
C245 H257 0.929 . S
C246 C242 1.531 . S
C246 H258 0.960 . S
C246 H259 0.962 . S
C246 H260 0.960 . S
C247 C244 1.511 . S
C247 H261 0.961 . S
C247 H262 0.961 . S
C247 H263 0.961 . S
C248 C249 1.370 . S
C248 C250 1.363 . S
C248 H264 0.931 . S
C249 C248 1.370 . S
C249 C253 1.408 . S
C250 C248 1.363 . S
C250 C251 1.370 . S
C250 C254 1.524 . S
C251 C243 1.503 . S
C251 C250 1.370 . S
C251 C252 1.403 . S
C252 C251 1.403 . S
C252 C253 1.404 . S
C252 C255 1.539 . S
C253 C249 1.408 . S
C253 C252 1.404 . S
C253 H265 0.930 . S
C254 C250 1.524 . S
C254 H266 0.956 . S
C254 H267 0.961 . S
C254 H268 0.961 . S
C255 C252 1.539 . S
C255 H269 0.958 . S
C255 H270 0.961 . S
C255 H271 0.960 . S
H256 C240 0.931 . S
H257 C245 0.929 . S
H258 C246 0.960 . S
H259 C246 0.962 . S
H260 C246 0.960 . S
H261 C247 0.961 . S
H262 C247 0.961 . S
H263 C247 0.961 . S
H264 C248 0.931 . S
H265 C253 0.930 . S
H266 C254 0.956 . S
H267 C254 0.961 . S
H268 C254 0.961 . S
H269 C255 0.958 . S
H270 C255 0.961 . S
H271 C255 0.960 . S
C272 C273 1.391 . S
C272 C274 1.394 . S
C272 H288 0.931 . S
C273 C272 1.391 . S
C273 C277 1.376 . S
C274 C272 1.394 . S
C274 C275 1.369 . S
C274 C278 1.531 . S
C275 C274 1.369 . S
C275 C276 1.410 . S
C275 C283 1.503 . S
C276 C275 1.410 . S
C276 C277 1.392 . S
C276 C279 1.511 . S
C277 C273 1.376 . S
C277 C276 1.392 . S
C277 H289 0.929 . S
C278 C274 1.531 . S
C278 H290 0.960 . S
C278 H291 0.962 . S
C278 H292 0.960 . S
C279 C276 1.511 . S
C279 H293 0.961 . S
C279 H294 0.961 . S
C279 H295 0.961 . S
C280 C281 1.370 . S
C280 C282 1.363 . S
C280 H296 0.931 . S
C281 C280 1.370 . S
C281 C285 1.408 . S
C282 C280 1.363 . S
C282 C283 1.370 . S
C282 C286 1.524 . S
C283 C275 1.503 . S
C283 C282 1.370 . S
C283 C284 1.403 . S
C284 C283 1.403 . S
C284 C285 1.404 . S
C284 C287 1.539 . S
C285 C281 1.408 . S
C285 C284 1.404 . S
C285 H297 0.930 . S
C286 C282 1.524 . S
C286 H298 0.956 . S
C286 H299 0.961 . S
C286 H300 0.961 . S
C287 C284 1.539 . S
C287 H301 0.958 . S
C287 H302 0.961 . S
C287 H303 0.960 . S
H288 C272 0.931 . S
H289 C277 0.929 . S
H290 C278 0.960 . S
H291 C278 0.962 . S
H292 C278 0.960 . S
H293 C279 0.961 . S
H294 C279 0.961 . S
H295 C279 0.961 . S
H296 C280 0.931 . S
H297 C285 0.930 . S
H298 C286 0.956 . S
H299 C286 0.961 . S
H300 C286 0.961 . S
H301 C287 0.958 . S
H302 C287 0.961 . S
H303 C287 0.960 . S
C304 C305 1.391 . S
C304 C306 1.394 . S
C304 H320 0.931 . S
C305 C304 1.391 . S
C305 C309 1.376 . S
C306 C304 1.394 . S
C306 C307 1.369 . S
C306 C310 1.531 . S
C307 C306 1.369 . S
C307 C308 1.410 . S
C307 C315 1.503 . S
C308 C307 1.410 . S
C308 C309 1.392 . S
C308 C311 1.511 . S
C309 C305 1.376 . S
C309 C308 1.392 . S
C309 H321 0.929 . S
C310 C306 1.531 . S
C310 H322 0.960 . S
C310 H323 0.962 . S
C310 H324 0.960 . S
C311 C308 1.511 . S
C311 H325 0.961 . S
C311 H326 0.961 . S
C311 H327 0.961 . S
C312 C313 1.370 . S
C312 C314 1.363 . S
C312 H328 0.931 . S
C313 C312 1.370 . S
C313 C317 1.408 . S
C314 C312 1.363 . S
C314 C315 1.370 . S
C314 C318 1.524 . S
C315 C307 1.503 . S
C315 C314 1.370 . S
C315 C316 1.403 . S
C316 C315 1.403 . S
C316 C317 1.404 . S
C316 C319 1.539 . S
C317 C313 1.408 . S
C317 C316 1.404 . S
C317 H329 0.930 . S
C318 C314 1.524 . S
C318 H330 0.956 . S
C318 H331 0.961 . S
C318 H332 0.961 . S
C319 C316 1.539 . S
C319 H333 0.958 . S
C319 H334 0.961 . S
C319 H335 0.960 . S
H320 C304 0.931 . S
H321 C309 0.929 . S
H322 C310 0.960 . S
H323 C310 0.962 . S
H324 C310 0.960 . S
H325 C311 0.961 . S
H326 C311 0.961 . S
H327 C311 0.961 . S
H328 C312 0.931 . S
H329 C317 0.930 . S
H330 C318 0.956 . S
H331 C318 0.961 . S
H332 C318 0.961 . S
H333 C319 0.958 . S
H334 C319 0.961 . S
H335 C319 0.960 . S
C336 C337 1.391 . S
C336 C338 1.394 . S
C336 H352 0.931 . S
C337 C336 1.391 . S
C337 C341 1.376 . S
C338 C336 1.394 . S
C338 C339 1.369 . S
C338 C342 1.531 . S
C339 C338 1.369 . S
C339 C340 1.410 . S
C339 C347 1.503 . S
C340 C339 1.410 . S
C340 C341 1.392 . S
C340 C343 1.511 . S
C341 C337 1.376 . S
C341 C340 1.392 . S
C341 H353 0.929 . S
C342 C338 1.531 . S
C342 H354 0.960 . S
C342 H355 0.962 . S
C342 H356 0.960 . S
C343 C340 1.511 . S
C343 H357 0.961 . S
C343 H358 0.961 . S
C343 H359 0.961 . S
C344 C345 1.370 . S
C344 C346 1.363 . S
C344 H360 0.931 . S
C345 C344 1.370 . S
C345 C349 1.408 . S
C346 C344 1.363 . S
C346 C347 1.370 . S
C346 C350 1.524 . S
C347 C339 1.503 . S
C347 C346 1.370 . S
C347 C348 1.403 . S
C348 C347 1.403 . S
C348 C349 1.404 . S
C348 C351 1.539 . S
C349 C345 1.408 . S
C349 C348 1.404 . S
C349 H361 0.930 . S
C350 C346 1.524 . S
C350 H362 0.956 . S
C350 H363 0.961 . S
C350 H364 0.961 . S
C351 C348 1.539 . S
C351 H365 0.958 . S
C351 H366 0.961 . S
C351 H367 0.960 . S
H352 C336 0.931 . S
H353 C341 0.929 . S
H354 C342 0.960 . S
H355 C342 0.962 . S
H356 C342 0.960 . S
H357 C343 0.961 . S
H358 C343 0.961 . S
H359 C343 0.961 . S
H360 C344 0.931 . S
H361 C349 0.930 . S
H362 C350 0.956 . S
H363 C350 0.961 . S
H364 C350 0.961 . S
H365 C351 0.958 . S
H366 C351 0.961 . S
H367 C351 0.960 . S
C368 C369 1.391 . S
C368 C370 1.394 . S
C368 H384 0.931 . S
C369 C368 1.391 . S
C369 C373 1.376 . S
C370 C368 1.394 . S
C370 C371 1.369 . S
C370 C374 1.531 . S
C371 C370 1.369 . S
C371 C372 1.410 . S
C371 C379 1.503 . S
C372 C371 1.410 . S
C372 C373 1.392 . S
C372 C375 1.511 . S
C373 C369 1.376 . S
C373 C372 1.392 . S
C373 H385 0.929 . S
C374 C370 1.531 . S
C374 H386 0.960 . S
C374 H387 0.962 . S
C374 H388 0.960 . S
C375 C372 1.511 . S
C375 H389 0.961 . S
C375 H390 0.961 . S
C375 H391 0.961 . S
C376 C377 1.370 . S
C376 C378 1.363 . S
C376 H392 0.931 . S
C377 C376 1.370 . S
C377 C381 1.408 . S
C378 C376 1.363 . S
C378 C379 1.370 . S
C378 C382 1.524 . S
C379 C371 1.503 . S
C379 C378 1.370 . S
C379 C380 1.403 . S
C380 C379 1.403 . S
C380 C381 1.404 . S
C380 C383 1.539 . S
C381 C377 1.408 . S
C381 C380 1.404 . S
C381 H393 0.930 . S
C382 C378 1.524 . S
C382 H394 0.956 . S
C382 H395 0.961 . S
C382 H396 0.961 . S
C383 C380 1.539 . S
C383 H397 0.958 . S
C383 H398 0.961 . S
C383 H399 0.960 . S
H384 C368 0.931 . S
H385 C373 0.929 . S
H386 C374 0.960 . S
H387 C374 0.962 . S
H388 C374 0.960 . S
H389 C375 0.961 . S
H390 C375 0.961 . S
H391 C375 0.961 . S
H392 C376 0.931 . S
H393 C381 0.930 . S
H394 C382 0.956 . S
H395 C382 0.961 . S
H396 C382 0.961 . S
H397 C383 0.958 . S
H398 C383 0.961 . S
H399 C383 0.960 . S
C400 C401 1.391 . S
C400 C402 1.394 . S
C400 H416 0.931 . S
C401 C400 1.391 . S
C401 C405 1.376 . S
C402 C400 1.394 . S
C402 C403 1.369 . S
C402 C406 1.531 . S
C403 C402 1.369 . S
C403 C404 1.410 . S
C403 C411 1.503 . S
C404 C403 1.410 . S
C404 C405 1.392 . S
C404 C407 1.511 . S
C405 C401 1.376 . S
C405 C404 1.392 . S
C405 H417 0.929 . S
C406 C402 1.531 . S
C406 H418 0.960 . S
C406 H419 0.962 . S
C406 H420 0.960 . S
C407 C404 1.511 . S
C407 H421 0.961 . S
C407 H422 0.961 . S
C407 H423 0.961 . S
C408 C409 1.370 . S
C408 C410 1.363 . S
C408 H424 0.931 . S
C409 C408 1.370 . S
C409 C413 1.408 . S
C410 C408 1.363 . S
C410 C411 1.370 . S
C410 C414 1.524 . S
C411 C403 1.503 . S
C411 C410 1.370 . S
C411 C412 1.403 . S
C412 C411 1.403 . S
C412 C413 1.404 . S
C412 C415 1.539 . S
C413 C409 1.408 . S
C413 C412 1.404 . S
C413 H425 0.930 . S
C414 C410 1.524 . S
C414 H426 0.956 . S
C414 H427 0.961 . S
C414 H428 0.961 . S
C415 C412 1.539 . S
C415 H429 0.958 . S
C415 H430 0.961 . S
C415 H431 0.960 . S
H416 C400 0.931 . S
H417 C405 0.929 . S
H418 C406 0.960 . S
H419 C406 0.962 . S
H420 C406 0.960 . S
H421 C407 0.961 . S
H422 C407 0.961 . S
H423 C407 0.961 . S
H424 C408 0.931 . S
H425 C413 0.930 . S
H426 C414 0.956 . S
H427 C414 0.961 . S
H428 C414 0.961 . S
H429 C415 0.958 . S
H430 C415 0.961 . S
H431 C415 0.960 . S
C432 C433 1.391 . S
C432 C434 1.394 . S
C432 H448 0.931 . S
C433 C432 1.391 . S
C433 C437 1.376 . S
C434 C432 1.394 . S
C434 C435 1.369 . S
C434 C438 1.531 . S
C435 C434 1.369 . S
C435 C436 1.410 . S
C435 C443 1.503 . S
C436 C435 1.410 . S
C436 C437 1.392 . S
C436 C439 1.511 . S
C437 C433 1.376 . S
C437 C436 1.392 . S
C437 H449 0.929 . S
C438 C434 1.531 . S
C438 H450 0.960 . S
C438 H451 0.962 . S
C438 H452 0.960 . S
C439 C436 1.511 . S
C439 H453 0.961 . S
C439 H454 0.961 . S
C439 H455 0.961 . S
C440 C441 1.370 . S
C440 C442 1.363 . S
C440 H456 0.931 . S
C441 C440 1.370 . S
C441 C445 1.408 . S
C442 C440 1.363 . S
C442 C443 1.370 . S
C442 C446 1.524 . S
C443 C435 1.503 . S
C443 C442 1.370 . S
C443 C444 1.403 . S
C444 C443 1.403 . S
C444 C445 1.404 . S
C444 C447 1.539 1_554 S
C445 C441 1.408 . S
C445 C444 1.404 . S
C445 H457 0.930 . S
C446 C442 1.524 . S
C446 H458 0.956 . S
C446 H459 0.961 . S
C446 H460 0.961 . S
C447 C444 1.539 1_556 S
C447 H461 0.958 . S
C447 H462 0.961 . S
C447 H463 0.960 . S
H448 C432 0.931 . S
H449 C437 0.929 . S
H450 C438 0.960 . S
H451 C438 0.962 . S
H452 C438 0.960 . S
H453 C439 0.961 . S
H454 C439 0.961 . S
H455 C439 0.961 . S
H456 C440 0.931 . S
H457 C445 0.930 . S
H458 C446 0.956 . S
H459 C446 0.961 . S
H460 C446 0.961 . S
H461 C447 0.958 . S
H462 C447 0.961 . S
H463 C447 0.960 . S
C464 C465 1.391 . S
C464 C466 1.394 . S
C464 H480 0.931 . S
C465 C464 1.391 . S
C465 C469 1.376 . S
C466 C464 1.394 . S
C466 C467 1.369 . S
C466 C470 1.531 . S
C467 C466 1.369 . S
C467 C468 1.410 1_455 S
C467 C475 1.503 1_455 S
C468 C467 1.410 1_655 S
C468 C469 1.392 1_655 S
C468 C471 1.511 . S
C469 C465 1.376 . S
C469 C468 1.392 1_455 S
C469 H481 0.929 1_455 S
C470 C466 1.531 . S
C470 H482 0.960 . S
C470 H483 0.962 . S
C470 H484 0.960 . S
C471 C468 1.511 . S
C471 H485 0.961 . S
C471 H486 0.961 . S
C471 H487 0.961 . S
C472 C473 1.370 . S
C472 C474 1.363 . S
C472 H488 0.931 . S
C473 C472 1.370 . S
C473 C477 1.408 . S
C474 C472 1.363 . S
C474 C475 1.370 . S
C474 C478 1.524 . S
C475 C467 1.503 1_655 S
C475 C474 1.370 . S
C475 C476 1.403 . S
C476 C475 1.403 . S
C476 C477 1.404 . S
C476 C479 1.539 . S
C477 C473 1.408 . S
C477 C476 1.404 . S
C477 H489 0.930 . S
C478 C474 1.524 . S
C478 H490 0.956 1_655 S
C478 H491 0.961 . S
C478 H492 0.961 . S
C479 C476 1.539 . S
C479 H493 0.958 1_655 S
C479 H494 0.961 . S
C479 H495 0.960 . S
H480 C464 0.931 . S
H481 C469 0.929 1_655 S
H482 C470 0.960 . S
H483 C470 0.962 . S
H484 C470 0.960 . S
H485 C471 0.961 . S
H486 C471 0.961 . S
H487 C471 0.961 . S
H488 C472 0.931 . S
H489 C477 0.930 . S
H490 C478 0.956 1_455 S
H491 C478 0.961 . S
H492 C478 0.961 . S
H493 C479 0.958 1_455 S
H494 C479 0.961 . S
H495 C479 0.960 . S
C496 C497 1.391 . S
C496 C498 1.394 1_545 S
C496 H512 0.931 1_545 S
C497 C496 1.391 . S
C497 C501 1.376 . S
C498 C496 1.394 1_565 S
C498 C499 1.369 1_565 S
C498 C502 1.531 . S
C499 C498 1.369 1_545 S
C499 C500 1.410 . S
C499 C507 1.503 1_545 S
C500 C499 1.410 . S
C500 C501 1.392 . S
C500 C503 1.511 . S
C501 C497 1.376 . S
C501 C500 1.392 . S
C501 H513 0.929 . S
C502 C498 1.531 . S
C502 H514 0.960 . S
C502 H515 0.962 . S
C502 H516 0.960 . S
C503 C500 1.511 . S
C503 H517 0.961 . S
C503 H518 0.961 . S
C503 H519 0.961 . S
C504 C505 1.370 . S
C504 C506 1.363 . S
C504 H520 0.931 . S
C505 C504 1.370 . S
C505 C509 1.408 . S
C506 C504 1.363 . S
C506 C507 1.370 . S
C506 C510 1.524 . S
C507 C499 1.503 1_565 S
C507 C506 1.370 . S
C507 C508 1.403 . S
C508 C507 1.403 . S
C508 C509 1.404 . S
C508 C511 1.539 1_565 S
C509 C505 1.408 . S
C509 C508 1.404 . S
C509 H521 0.930 . S
C510 C506 1.524 . S
C510 H522 0.956 . S
C510 H523 0.961 . S
C510 H524 0.961 . S
C511 C508 1.539 1_545 S
C511 H525 0.958 . S
C511 H526 0.961 . S
C511 H527 0.960 . S
H512 C496 0.931 1_565 S
H513 C501 0.929 . S
H514 C502 0.960 . S
H515 C502 0.962 . S
H516 C502 0.960 . S
H517 C503 0.961 . S
H518 C503 0.961 . S
H519 C503 0.961 . S
H520 C504 0.931 . S
H521 C509 0.930 . S
H522 C510 0.956 . S
H523 C510 0.961 . S
H524 C510 0.961 . S
H525 C511 0.958 . S
H526 C511 0.961 . S
H527 C511 0.960 . S
C528 C529 1.391 . S
C528 C530 1.394 . S
C528 H544 0.931 . S
C529 C528 1.391 . S
C529 C533 1.376 . S
C530 C528 1.394 . S
C530 C531 1.369 . S
C530 C534 1.531 . S
C531 C530 1.369 . S
C531 C532 1.410 . S
C531 C539 1.503 . S
C532 C531 1.410 . S
C532 C533 1.392 . S
C532 C535 1.511 . S
C533 C529 1.376 . S
C533 C532 1.392 . S
C533 H545 0.929 . S
C534 C530 1.531 . S
C534 H546 0.960 . S
C534 H547 0.962 . S
C534 H548 0.960 . S
C535 C532 1.511 . S
C535 H549 0.961 . S
C535 H550 0.961 . S
C535 H551 0.961 . S
C536 C537 1.370 . S
C536 C538 1.363 . S
C536 H552 0.931 . S
C537 C536 1.370 . S
C537 C541 1.408 . S
C538 C536 1.363 . S
C538 C539 1.370 . S
C538 C542 1.524 . S
C539 C531 1.503 . S
C539 C538 1.370 . S
C539 C540 1.403 . S
C540 C539 1.403 . S
C540 C541 1.404 . S
C540 C543 1.539 . S
C541 C537 1.408 . S
C541 C540 1.404 . S
C541 H553 0.930 . S
C542 C538 1.524 . S
C542 H554 0.956 . S
C542 H555 0.961 . S
C542 H556 0.961 . S
C543 C540 1.539 . S
C543 H557 0.958 . S
C543 H558 0.961 . S
C543 H559 0.960 . S
H544 C528 0.931 . S
H545 C533 0.929 . S
H546 C534 0.960 . S
H547 C534 0.962 . S
H548 C534 0.960 . S
H549 C535 0.961 . S
H550 C535 0.961 . S
H551 C535 0.961 . S
H552 C536 0.931 . S
H553 C541 0.930 . S
H554 C542 0.956 . S
H555 C542 0.961 . S
H556 C542 0.961 . S
H557 C543 0.958 . S
H558 C543 0.961 . S
H559 C543 0.960 . S
C560 C561 1.391 . S
C560 C562 1.394 . S
C560 H576 0.931 . S
C561 C560 1.391 . S
C561 C565 1.376 . S
C562 C560 1.394 . S
C562 C563 1.369 . S
C562 C566 1.531 . S
C563 C562 1.369 . S
C563 C564 1.427 . S
C563 C571 1.503 1_455 S
C564 C563 1.427 . S
C564 C565 1.393 . S
C564 C567 1.494 1_554 S
C565 C561 1.376 . S
C565 C564 1.393 . S
C565 H577 0.929 1_554 S
C566 C562 1.531 . S
C566 H578 0.960 . S
C566 H579 0.954 1_455 S
C566 H580 0.960 . S
C567 C564 1.494 1_556 S
C567 H581 0.961 . S
C567 H582 0.961 1_455 S
C567 H583 0.961 . S
C568 C569 1.370 . S
C568 C570 1.363 . S
C568 H584 0.931 . S
C569 C568 1.370 . S
C569 C573 1.408 . S
C570 C568 1.363 . S
C570 C571 1.370 . S
C570 C574 1.524 . S
C571 C563 1.503 1_655 S
C571 C570 1.370 . S
C571 C572 1.403 1_655 S
C572 C571 1.403 1_455 S
C572 C573 1.404 1_455 S
C572 C575 1.539 . S
C573 C569 1.408 . S
C573 C572 1.404 1_655 S
C573 H585 0.930 1_655 S
C574 C570 1.524 . S
C574 H586 0.956 . S
C574 H587 0.961 . S
C574 H588 0.961 . S
C575 C572 1.539 . S
C575 H589 0.958 . S
C575 H590 0.961 . S
C575 H591 0.960 . S
H576 C560 0.931 . S
H577 C565 0.929 1_556 S
H578 C566 0.960 . S
H579 C566 0.954 1_655 S
H580 C566 0.960 . S
H581 C567 0.961 . S
H582 C567 0.961 1_655 S
H583 C567 0.961 . S
H584 C568 0.931 . S
H585 C573 0.930 1_455 S
H586 C574 0.956 . S
H587 C574 0.961 . S
H588 C574 0.961 . S
H589 C575 0.958 . S
H590 C575 0.961 . S
H591 C575 0.960 . S
C592 C593 1.391 . S
C592 C594 1.394 1_565 S
C592 H608 0.931 1_565 S
C593 C592 1.391 . S
C593 C597 1.376 . S
C594 C592 1.394 1_545 S
C594 C595 1.369 1_545 S
C594 C598 1.531 . S
C595 C594 1.369 1_565 S
C595 C596 1.410 . S
C595 C603 1.503 1_565 S
C596 C595 1.410 . S
C596 C597 1.392 . S
C596 C599 1.511 . S
C597 C593 1.376 . S
C597 C596 1.392 . S
C597 H609 0.929 . S
C598 C594 1.531 . S
C598 H610 0.960 . S
C598 H611 0.962 . S
C598 H612 0.960 . S
C599 C596 1.511 . S
C599 H613 0.961 . S
C599 H614 0.961 . S
C599 H615 0.961 . S
C600 C601 1.370 . S
C600 C602 1.363 . S
C600 H616 0.931 . S
C601 C600 1.370 . S
C601 C605 1.408 . S
C602 C600 1.363 . S
C602 C603 1.370 . S
C602 C606 1.524 . S
C603 C595 1.503 1_545 S
C603 C602 1.370 . S
C603 C604 1.403 . S
C604 C603 1.403 . S
C604 C605 1.404 . S
C604 C607 1.539 1_545 S
C605 C601 1.408 . S
C605 C604 1.404 . S
C605 H617 0.930 . S
C606 C602 1.524 . S
C606 H618 0.956 . S
C606 H619 0.961 . S
C606 H620 0.961 . S
C607 C604 1.539 1_565 S
C607 H621 0.958 1_565 S
C607 H622 0.961 . S
C607 H623 0.960 . S
H608 C592 0.931 1_545 S
H609 C597 0.929 . S
H610 C598 0.960 . S
H611 C598 0.962 . S
H612 C598 0.960 . S
H613 C599 0.961 . S
H614 C599 0.961 . S
H615 C599 0.961 . S
H616 C600 0.931 . S
H617 C605 0.930 . S
H618 C606 0.956 . S
H619 C606 0.961 . S
H620 C606 0.961 . S
H621 C607 0.958 1_545 S
H622 C607 0.961 . S
H623 C607 0.960 . S
C624 C625 1.391 . S
C624 C626 1.394 . S
C624 H640 0.931 . S
C625 C624 1.391 . S
C625 C629 1.376 . S
C626 C624 1.394 . S
C626 C627 1.369 . S
C626 C630 1.531 . S
C627 C626 1.369 . S
C627 C628 1.410 . S
C627 C635 1.503 . S
C628 C627 1.410 . S
C628 C629 1.392 . S
C628 C631 1.511 . S
C629 C625 1.376 . S
C629 C628 1.392 . S
C629 H641 0.929 . S
C630 C626 1.531 . S
C630 H642 0.960 . S
C630 H643 0.962 . S
C630 H644 0.960 . S
C631 C628 1.511 . S
C631 H645 0.961 . S
C631 H646 0.961 . S
C631 H647 0.961 . S
C632 C633 1.370 . S
C632 C634 1.363 . S
C632 H648 0.931 . S
C633 C632 1.370 . S
C633 C637 1.408 . S
C634 C632 1.363 . S
C634 C635 1.370 . S
C634 C638 1.524 . S
C635 C627 1.503 . S
C635 C634 1.370 . S
C635 C636 1.403 . S
C636 C635 1.403 . S
C636 C637 1.404 . S
C636 C639 1.539 . S
C637 C633 1.408 . S
C637 C636 1.404 . S
C637 H649 0.930 . S
C638 C634 1.524 . S
C638 H650 0.956 . S
C638 H651 0.961 . S
C638 H652 0.961 . S
C639 C636 1.539 . S
C639 H653 0.958 . S
C639 H654 0.961 . S
C639 H655 0.960 . S
H640 C624 0.931 . S
H641 C629 0.929 . S
H642 C630 0.960 . S
H643 C630 0.962 . S
H644 C630 0.960 . S
H645 C631 0.961 . S
H646 C631 0.961 . S
H647 C631 0.961 . S
H648 C632 0.931 . S
H649 C637 0.930 . S
H650 C638 0.956 . S
H651 C638 0.961 . S
H652 C638 0.961 . S
H653 C639 0.958 . S
H654 C639 0.961 . S
H655 C639 0.960 . S
C656 C657 1.391 1_455 S
C656 C658 1.394 . S
C656 H672 0.931 . S
C657 C656 1.391 1_655 S
C657 C661 1.376 . S
C658 C656 1.394 . S
C658 C659 1.369 . S
C658 C662 1.531 . S
C659 C658 1.369 . S
C659 C660 1.410 1_455 S
C659 C667 1.503 . S
C660 C659 1.410 1_655 S
C660 C661 1.392 . S
C660 C663 1.511 . S
C661 C657 1.376 . S
C661 C660 1.392 . S
C661 H673 0.929 . S
C662 C658 1.531 . S
C662 H674 0.960 . S
C662 H675 0.962 . S
C662 H676 0.960 . S
C663 C660 1.511 . S
C663 H677 0.961 . S
C663 H678 0.961 . S
C663 H679 0.961 . S
C664 C665 1.370 . S
C664 C666 1.363 . S
C664 H680 0.931 . S
C665 C664 1.370 . S
C665 C669 1.408 . S
C666 C664 1.363 . S
C666 C667 1.370 . S
C666 C670 1.524 . S
C667 C659 1.503 . S
C667 C666 1.370 . S
C667 C668 1.403 . S
C668 C667 1.403 . S
C668 C669 1.404 . S
C668 C671 1.539 . S
C669 C665 1.408 . S
C669 C668 1.404 . S
C669 H681 0.930 . S
C670 C666 1.524 . S
C670 H682 0.956 . S
C670 H683 0.961 1_455 S
C670 H684 0.961 . S
C671 C668 1.539 . S
C671 H685 0.958 . S
C671 H686 0.961 . S
C671 H687 0.960 . S
H672 C656 0.931 . S
H673 C661 0.929 . S
H674 C662 0.960 . S
H675 C662 0.962 . S
H676 C662 0.960 . S
H677 C663 0.961 . S
H678 C663 0.961 . S
H679 C663 0.961 . S
H680 C664 0.931 . S
H681 C669 0.930 . S
H682 C670 0.956 . S
H683 C670 0.961 1_655 S
H684 C670 0.961 . S
H685 C671 0.958 . S
H686 C671 0.961 . S
H687 C671 0.960 . S
C688 C689 1.391 . S
C688 C690 1.394 . S
C688 H704 0.931 . S
C689 C688 1.391 . S
C689 C693 1.376 1_565 S
C690 C688 1.394 . S
C690 C691 1.369 1_565 S
C690 C694 1.531 . S
C691 C690 1.369 1_545 S
C691 C692 1.410 . S
C691 C699 1.503 . S
C692 C691 1.410 . S
C692 C693 1.392 . S
C692 C695 1.511 . S
C693 C689 1.376 1_545 S
C693 C692 1.392 . S
C693 H705 0.929 . S
C694 C690 1.531 . S
C694 H706 0.960 . S
C694 H707 0.962 1_565 S
C694 H708 0.960 . S
C695 C692 1.511 . S
C695 H709 0.961 . S
C695 H710 0.961 . S
C695 H711 0.961 . S
C696 C697 1.370 . S
C696 C698 1.363 . S
C696 H712 0.931 . S
C697 C696 1.370 . S
C697 C701 1.408 . S
C698 C696 1.363 . S
C698 C699 1.370 . S
C698 C702 1.524 . S
C699 C691 1.503 . S
C699 C698 1.370 . S
C699 C700 1.403 . S
C700 C699 1.403 . S
C700 C701 1.404 . S
C700 C703 1.539 1_545 S
C701 C697 1.408 . S
C701 C700 1.404 . S
C701 H713 0.930 . S
C702 C698 1.524 . S
C702 H714 0.956 . S
C702 H715 0.961 . S
C702 H716 0.961 . S
C703 C700 1.539 1_565 S
C703 H717 0.958 . S
C703 H718 0.961 . S
C703 H719 0.960 . S
H704 C688 0.931 . S
H705 C693 0.929 . S
H706 C694 0.960 . S
H707 C694 0.962 1_545 S
H708 C694 0.960 . S
H709 C695 0.961 . S
H710 C695 0.961 . S
H711 C695 0.961 . S
H712 C696 0.931 . S
H713 C701 0.930 . S
H714 C702 0.956 . S
H715 C702 0.961 . S
H716 C702 0.961 . S
H717 C703 0.958 . S
H718 C703 0.961 . S
H719 C703 0.960 . S
C720 C721 1.391 . S
C720 C722 1.394 . S
C720 H736 0.931 . S
C721 C720 1.391 . S
C721 C725 1.376 . S
C722 C720 1.394 . S
C722 C723 1.369 . S
C722 C726 1.531 . S
C723 C722 1.369 . S
C723 C724 1.410 . S
C723 C731 1.503 . S
C724 C723 1.410 . S
C724 C725 1.392 . S
C724 C727 1.511 . S
C725 C721 1.376 . S
C725 C724 1.392 . S
C725 H737 0.929 . S
C726 C722 1.531 . S
C726 H738 0.960 . S
C726 H739 0.962 . S
C726 H740 0.960 . S
C727 C724 1.511 . S
C727 H741 0.961 . S
C727 H742 0.961 . S
C727 H743 0.961 . S
C728 C729 1.370 . S
C728 C730 1.363 . S
C728 H744 0.931 . S
C729 C728 1.370 . S
C729 C733 1.408 . S
C730 C728 1.363 . S
C730 C731 1.370 . S
C730 C734 1.524 . S
C731 C723 1.503 . S
C731 C730 1.370 . S
C731 C732 1.403 . S
C732 C731 1.403 . S
C732 C733 1.404 . S
C732 C735 1.539 . S
C733 C729 1.408 . S
C733 C732 1.404 . S
C733 H745 0.930 . S
C734 C730 1.524 . S
C734 H746 0.956 . S
C734 H747 0.961 . S
C734 H748 0.961 . S
C735 C732 1.539 . S
C735 H749 0.958 . S
C735 H750 0.961 . S
C735 H751 0.960 . S
H736 C720 0.931 . S
H737 C725 0.929 . S
H738 C726 0.960 . S
H739 C726 0.962 . S
H740 C726 0.960 . S
H741 C727 0.961 . S
H742 C727 0.961 . S
H743 C727 0.961 . S
H744 C728 0.931 . S
H745 C733 0.930 . S
H746 C734 0.956 . S
H747 C734 0.961 . S
H748 C734 0.961 . S
H749 C735 0.958 . S
H750 C735 0.961 . S
H751 C735 0.960 . S
C752 C753 1.391 1_655 S
C752 C754 1.394 . S
C752 H768 0.931 . S
C753 C752 1.391 1_455 S
C753 C757 1.376 1_455 S
C754 C752 1.394 . S
C754 C755 1.369 . S
C754 C758 1.531 . S
C755 C754 1.369 . S
C755 C756 1.410 . S
C755 C763 1.503 . S
C756 C755 1.410 . S
C756 C757 1.392 . S
C756 C759 1.511 . S
C757 C753 1.376 1_655 S
C757 C756 1.392 . S
C757 H769 0.929 1_655 S
C758 C754 1.531 . S
C758 H770 0.960 . S
C758 H771 0.962 . S
C758 H772 0.960 . S
C759 C756 1.511 . S
C759 H773 0.961 . S
C759 H774 0.961 . S
C759 H775 0.961 . S
C760 C761 1.370 . S
C760 C762 1.363 . S
C760 H776 0.931 . S
C761 C760 1.370 . S
C761 C765 1.408 . S
C762 C760 1.363 . S
C762 C763 1.370 . S
C762 C766 1.524 1_655 S
C763 C755 1.503 . S
C763 C762 1.370 . S
C763 C764 1.403 . S
C764 C763 1.403 . S
C764 C765 1.404 . S
C764 C767 1.539 . S
C765 C761 1.408 . S
C765 C764 1.404 . S
C765 H777 0.930 . S
C766 C762 1.524 1_455 S
C766 H778 0.956 . S
C766 H779 0.961 . S
C766 H780 0.961 . S
C767 C764 1.539 . S
C767 H781 0.958 . S
C767 H782 0.961 . S
C767 H783 0.960 . S
H768 C752 0.931 . S
H769 C757 0.929 1_455 S
H770 C758 0.960 . S
H771 C758 0.962 . S
H772 C758 0.960 . S
H773 C759 0.961 . S
H774 C759 0.961 . S
H775 C759 0.961 . S
H776 C760 0.931 . S
H777 C765 0.930 . S
H778 C766 0.956 . S
H779 C766 0.961 . S
H780 C766 0.961 . S
H781 C767 0.958 . S
H782 C767 0.961 . S
H783 C767 0.960 . S
C784 C785 1.391 . S
C784 C786 1.394 1_545 S
C784 H800 0.931 . S
C785 C784 1.391 . S
C785 C789 1.376 . S
C786 C784 1.394 1_565 S
C786 C787 1.369 . S
C786 C790 1.531 . S
C787 C786 1.369 . S
C787 C788 1.410 . S
C787 C795 1.503 . S
C788 C787 1.410 . S
C788 C789 1.392 1_565 S
C788 C791 1.511 . S
C789 C785 1.376 . S
C789 C788 1.392 1_545 S
C789 H801 0.929 . S
C790 C786 1.531 . S
C790 H802 0.960 . S
C790 H803 0.962 . S
C790 H804 0.960 1_565 S
C791 C788 1.511 . S
C791 H805 0.961 . S
C791 H806 0.961 . S
C791 H807 0.961 1_565 S
C792 C793 1.370 . S
C792 C794 1.363 . S
C792 H808 0.931 . S
C793 C792 1.370 . S
C793 C797 1.408 . S
C794 C792 1.363 . S
C794 C795 1.370 . S
C794 C798 1.524 . S
C795 C787 1.503 . S
C795 C794 1.370 . S
C795 C796 1.403 . S
C796 C795 1.403 . S
C796 C797 1.404 . S
C796 C799 1.539 1_565 S
C797 C793 1.408 . S
C797 C796 1.404 . S
C797 H809 0.930 . S
C798 C794 1.524 . S
C798 H810 0.956 . S
C798 H811 0.961 . S
C798 H812 0.961 . S
C799 C796 1.539 1_545 S
C799 H813 0.958 . S
C799 H814 0.961 . S
C799 H815 0.960 . S
H800 C784 0.931 . S
H801 C789 0.929 . S
H802 C790 0.960 . S
H803 C790 0.962 . S
H804 C790 0.960 1_545 S
H805 C791 0.961 . S
H806 C791 0.961 . S
H807 C791 0.961 1_545 S
H808 C792 0.931 . S
H809 C797 0.930 . S
H810 C798 0.956 . S
H811 C798 0.961 . S
H812 C798 0.961 . S
H813 C799 0.958 . S
H814 C799 0.961 . S
H815 C799 0.960 . S
C241 C179 1.156 . S
C249 C6 1.182 . S
C273 C219 1.156 . S
C281 C46 1.182 . S
C305 C19 1.160 . S
C313 C86 1.183 . S
C337 C59 1.163 . S
C345 C126 1.181 . S
C369 C99 1.187 . S
C377 C166 1.183 . S
C401 C139 1.158 . S
C409 C206 1.183 . S
C433 C9 0.905 . S
C441 C129 0.909 . S
C465 C169 0.896 . S
C473 C49 0.885 . S
C497 C209 0.864 . S
C505 C89 0.921 . S
C529 C98 0.990 . S
C537 C218 1.004 . S
C561 C18 0.987 . S
C569 C138 1.004 . S
C593 C178 1.002 . S
C601 C58 1.005 . S
C625 C210 1.289 . S
C633 C15 1.282 . S
C657 C55 1.300 . S
C665 C10 1.298 . S
C689 C95 1.261 . S
C697 C50 1.305 . S
C721 C90 1.301 . S
C729 C135 1.285 . S
C753 C175 1.280 . S
C761 C130 1.298 . S
C785 C215 1.271 . S
C793 C170 1.304 . S
