# Generated by pormake.
# Topology smc, (6)-cn, num edge types: 1
# Building blocks:
#     Node 0, Type 0, BuildingBlock: OJICUG_clean_sbu_0, # of connection points: 6
#     Node 1, Type 0, BuildingBlock: OJICUG_clean_sbu_0, # of connection points: 6
#     Node 2, Type 0, BuildingBlock: OJICUG_clean_sbu_0, # of connection points: 6
#     Node 3, Type 0, BuildingBlock: OJICUG_clean_sbu_0, # of connection points: 6
#     Node 4, Type 0, BuildingBlock: OJICUG_clean_sbu_0, # of connection points: 6
#     Node 5, Type 0, BuildingBlock: OJICUG_clean_sbu_0, # of connection points: 6
#     Node 6, Type 0, BuildingBlock: OJICUG_clean_sbu_0, # of connection points: 6
#     Node 7, Type 0, BuildingBlock: OJICUG_clean_sbu_0, # of connection points: 6
#     Node 8, Type 0, BuildingBlock: OJICUG_clean_sbu_0, # of connection points: 6
#     Edge 9, Type (0, 0), BuildingBlock: KIFKEQ_clean_linker_1, # of connection points: 2
#     Edge 10, Type (0, 0), BuildingBlock: KIFKEQ_clean_linker_1, # of connection points: 2
#     Edge 11, Type (0, 0), BuildingBlock: KIFKEQ_clean_linker_1, # of connection points: 2
#     Edge 12, Type (0, 0), BuildingBlock: KIFKEQ_clean_linker_1, # of connection points: 2
#     Edge 13, Type (0, 0), BuildingBlock: KIFKEQ_clean_linker_1, # of connection points: 2
#     Edge 14, Type (0, 0), BuildingBlock: KIFKEQ_clean_linker_1, # of connection points: 2
#     Edge 15, Type (0, 0), BuildingBlock: KIFKEQ_clean_linker_1, # of connection points: 2
#     Edge 16, Type (0, 0), BuildingBlock: KIFKEQ_clean_linker_1, # of connection points: 2
#     Edge 17, Type (0, 0), BuildingBlock: KIFKEQ_clean_linker_1, # of connection points: 2
#     Edge 18, Type (0, 0), BuildingBlock: KIFKEQ_clean_linker_1, # of connection points: 2
#     Edge 19, Type (0, 0), BuildingBlock: KIFKEQ_clean_linker_1, # of connection points: 2
#     Edge 20, Type (0, 0), BuildingBlock: KIFKEQ_clean_linker_1, # of connection points: 2
#     Edge 21, Type (0, 0), BuildingBlock: KIFKEQ_clean_linker_1, # of connection points: 2
#     Edge 22, Type (0, 0), BuildingBlock: KIFKEQ_clean_linker_1, # of connection points: 2
#     Edge 23, Type (0, 0), BuildingBlock: KIFKEQ_clean_linker_1, # of connection points: 2
#     Edge 24, Type (0, 0), BuildingBlock: KIFKEQ_clean_linker_1, # of connection points: 2
#     Edge 25, Type (0, 0), BuildingBlock: KIFKEQ_clean_linker_1, # of connection points: 2
#     Edge 26, Type (0, 0), BuildingBlock: KIFKEQ_clean_linker_1, # of connection points: 2
#     Edge 27, Type (0, 0), BuildingBlock: KIFKEQ_clean_linker_1, # of connection points: 2
#     Edge 28, Type (0, 0), BuildingBlock: KIFKEQ_clean_linker_1, # of connection points: 2
#     Edge 29, Type (0, 0), BuildingBlock: KIFKEQ_clean_linker_1, # of connection points: 2
#     Edge 30, Type (0, 0), BuildingBlock: KIFKEQ_clean_linker_1, # of connection points: 2
#     Edge 31, Type (0, 0), BuildingBlock: KIFKEQ_clean_linker_1, # of connection points: 2
#     Edge 32, Type (0, 0), BuildingBlock: KIFKEQ_clean_linker_1, # of connection points: 2
#     Edge 33, Type (0, 0), BuildingBlock: KIFKEQ_clean_linker_1, # of connection points: 2
#     Edge 34, Type (0, 0), BuildingBlock: KIFKEQ_clean_linker_1, # of connection points: 2
#     Edge 35, Type (0, 0), BuildingBlock: KIFKEQ_clean_linker_1, # of connection points: 2
# Relax obj value: 0.196
# Max RMSD: 0.270
# Mean RMSD: 0.270
data_MOF--net-smc--node1-OJICUG_clean_sbu_0--edge1-KIFKEQ_clean_linker_1
_symmetry_space_group_name_H-M    P1
_symmetry_Int_Tables_number       1
_symmetry_cell_setting            triclinic
loop_
_symmetry_equiv_pos_as_xyz
'x, y, z'
_cell_length_a     31.176076
_cell_length_b     31.153207
_cell_length_c     46.657704
_cell_angle_alpha  90.098657
_cell_angle_beta   89.89795
_cell_angle_gamma 120.09957
loop_
_atom_site_label
_atom_site_type_symbol
_atom_site_fract_x
_atom_site_fract_y
_atom_site_fract_z
_atom_type_partial_charge
Sc0 Sc 0.04964 0.5055 0.97103 0.0
Sc1 Sc 0.00069 0.39078 0.00503 0.0
Sc2 Sc 0.97657 0.48184 0.03104 0.0
O3 O 0.00909 0.45887 0.00243 0.0
C4 C 0.08064 0.57504 0.02525 0.0
C5 C 0.11671 0.46214 -0.00626 0.0
C6 C 0.00054 0.41364 0.07039 0.0
C7 C 0.0017 0.40261 0.93801 0.0
C8 C 0.96192 0.52548 0.97405 0.0
C9 C 0.89151 0.37405 0.01374 0.0
O10 O 0.07642 0.56927 -0.00172 0.0
O11 O 0.07875 0.42001 -0.001 0.0
O12 O 0.98089 0.44014 0.06625 0.0
O13 O 0.02858 0.44932 0.9393 0.0
O14 O 0.9674 0.52865 0.00099 0.0
O15 O 0.92218 0.35841 0.01176 0.0
O16 O 0.9855 0.51128 0.95796 0.0
O17 O 0.98531 0.3754 0.96008 0.0
O18 O 0.90441 0.41949 0.01851 0.0
O19 O 0.11363 0.49895 0.98399 0.0
O20 O 0.04916 0.5436 0.04282 0.0
O21 O 0.01527 0.39723 0.05007 0.0
Sc22 Sc 0.50066 0.53139 0.96347 0.0
Sc23 Sc 0.61427 0.62211 -0.00825 0.0
Sc24 Sc 0.5501 0.50422 0.02177 0.0
O25 O 0.55606 0.55327 -0.00793 0.0
C26 C 0.44337 0.48549 0.01953 0.0
C27 C 0.5183 0.63415 0.98848 0.0
C28 C 0.60691 0.60258 0.05834 0.0
C29 C 0.59126 0.60799 0.92555 0.0
C30 C 0.51508 0.44102 0.96567 0.0
C31 C 0.66013 0.55039 -0.00274 0.0
O32 O 0.44604 0.47999 -0.00715 0.0
O33 O 0.56493 0.65139 0.9909 0.0
O34 O 0.58655 0.5561 0.05551 0.0
O35 O 0.5457 0.57716 0.92911 0.0
O36 O 0.51181 0.44317 -0.00732 0.0
O37 O 0.66374 0.59263 -0.00697 0.0
O38 O 0.51521 0.47343 0.94896 0.0
O39 O 0.62179 0.62464 0.9461 0.0
O40 O 0.62077 0.51275 0.00717 0.0
O41 O 0.48798 0.59045 0.97907 0.0
O42 O 0.48075 0.49909 0.03584 0.0
O43 O 0.6161 0.63143 0.03729 0.0
Sc44 Sc 0.48248 0.9731 0.96018 0.0
Sc45 Sc 0.40002 0.00552 0.98899 0.0
Sc46 Sc 0.51202 0.03826 0.0227 0.0
O47 O 0.46421 0.00649 0.99041 0.0
C48 C 0.51252 0.94181 0.01339 0.0
C49 C 0.37322 0.8937 0.97787 0.0
C50 C 0.41027 0.00101 0.05572 0.0
C51 C 0.42005 0.00683 0.92328 0.0
C52 C 0.58007 0.07005 0.96818 0.0
C53 C 0.48192 0.11748 0.00435 0.0
O54 O 0.52869 0.96242 0.98951 0.0
O55 O 0.361 0.92716 0.9793 0.0
O56 O 0.45716 0.0242 0.0545 0.0
O57 O 0.44058 0.98094 0.92652 0.0
O58 O 0.57482 0.0587 -0.00533 0.0
O59 O 0.43751 0.08357 -0.00121 0.0
O60 O 0.54611 0.04522 0.9498 0.0
O61 O 0.40902 0.02538 0.94429 0.0
O62 O 0.51623 0.10848 0.01188 0.0
O63 O 0.41765 0.90321 0.973 0.0
O64 O 0.50298 0.96497 0.03257 0.0
O65 O 0.38314 0.98584 0.03354 0.0
Sc66 Sc 0.70515 0.83368 0.29631 0.0
Sc67 Sc 0.6732 0.7178 0.3247 0.0
Sc68 Sc 0.63274 0.7921 0.35652 0.0
O69 O 0.67071 0.78071 0.32591 0.0
C70 C 0.72564 0.89554 0.35307 0.0
C71 C 0.78485 0.80447 0.31381 0.0
C72 C 0.67144 0.73049 0.3909 0.0
C73 C 0.67239 0.73688 0.25903 0.0
C74 C 0.60565 0.83093 0.30251 0.0
C75 C 0.55919 0.68253 0.33561 0.0
O76 O 0.71994 0.89239 0.32606 0.0
O77 O 0.7518 0.75878 0.31624 0.0
O78 O 0.64495 0.75058 0.38864 0.0
O79 O 0.6959 0.78356 0.26225 0.0
O80 O 0.6152 0.83618 0.32907 0.0
O81 O 0.59442 0.67316 0.33289 0.0
O82 O 0.63399 0.82635 0.28458 0.0
O83 O 0.6558 0.70696 0.27994 0.0
O84 O 0.56612 0.72545 0.34222 0.0
O85 O 0.77494 0.83894 0.30869 0.0
O86 O 0.70039 0.85884 0.36974 0.0
O87 O 0.69092 0.72174 0.36945 0.0
Sc88 Sc 0.17168 0.88133 0.29331 0.0
Sc89 Sc 0.28939 0.96169 0.32117 0.0
Sc90 Sc 0.21163 0.84686 0.35322 0.0
O91 O 0.22464 0.89731 0.32266 0.0
C92 C 0.10992 0.84068 0.35063 0.0
C93 C 0.20654 0.99231 0.31208 0.0
C94 C 0.27676 0.9469 0.38793 0.0
C95 C 0.26803 0.94157 0.25504 0.0
C96 C 0.16696 0.77984 0.29876 0.0
C97 C 0.31995 0.87914 0.33086 0.0
O98 O 0.11269 0.84094 0.32349 0.0
O99 O 0.2514 0.00272 0.31523 0.0
O100 O 0.25235 0.90012 0.38571 0.0
O101 O 0.22144 0.91845 0.25838 0.0
O102 O 0.16756 0.7849 0.32573 0.0
O103 O 0.33045 0.92383 0.32682 0.0
O104 O 0.17324 0.81423 0.28151 0.0
O105 O 0.29798 0.95618 0.27594 0.0
O106 O 0.27731 0.84489 0.33935 0.0
O107 O 0.17122 0.94887 0.3055 0.0
O108 O 0.14605 0.84886 0.36686 0.0
O109 O 0.28985 0.97548 0.36638 0.0
Sc110 Sc 0.12334 0.30288 0.30364 0.0
Sc111 Sc 0.05385 0.34741 0.33786 0.0
Sc112 Sc 0.17237 0.38096 0.36205 0.0
O113 O 0.11614 0.34392 0.33447 0.0
C114 C 0.16954 0.28031 0.35704 0.0
C115 C 0.01567 0.23182 0.32886 0.0
C116 C 0.08027 0.35139 0.40297 0.0
C117 C 0.05962 0.3412 0.27105 0.0
C118 C 0.22852 0.39526 0.30333 0.0
C119 C 0.14122 0.46002 0.34458 0.0
O120 O 0.16712 0.28361 0.3301 0.0
O121 O 0.00863 0.26828 0.33308 0.0
O122 O 0.1265 0.37357 0.3982 0.0
O123 O 0.08113 0.31595 0.27245 0.0
O124 O 0.22785 0.39411 0.3305 0.0
O125 O 0.09555 0.42667 0.34333 0.0
O126 O 0.19023 0.3683 0.28815 0.0
O127 O 0.05153 0.36038 0.29288 0.0
O128 O 0.17603 0.45037 0.34925 0.0
O129 O 0.05657 0.23718 0.3192 0.0
O130 O 0.16765 0.31108 0.37436 0.0
O131 O 0.04839 0.33475 0.38307 0.0
Sc132 Sc 0.37662 0.17203 0.62923 0.0
Sc133 Sc 0.34914 0.05503 0.65523 0.0
Sc134 Sc 0.29944 0.12141 0.68857 0.0
O135 O 0.34173 0.11588 0.65761 0.0
C136 C 0.38948 0.23031 0.68732 0.0
C137 C 0.45934 0.14496 0.64683 0.0
C138 C 0.34428 0.06476 0.72251 0.0
C139 C 0.34987 0.079 0.58933 0.0
C140 C 0.27339 0.16568 0.63456 0.0
C141 C 0.2329 0.01073 0.66489 0.0
O142 O 0.39212 0.22832 0.66032 0.0
O143 O 0.4278 0.09937 0.65067 0.0
O144 O 0.3195 0.08665 0.72081 0.0
O145 O 0.36613 0.12476 0.59349 0.0
O146 O 0.27222 0.15675 0.66109 0.0
O147 O 0.2706 0.00662 0.65908 0.0
O148 O 0.30699 0.16847 0.61773 0.0
O149 O 0.33914 0.04824 0.60963 0.0
O150 O 0.23635 0.05043 0.67525 0.0
O151 O 0.4476 0.17766 0.64027 0.0
O152 O 0.36127 0.19265 0.70266 0.0
O153 O 0.36081 0.05344 0.70066 0.0
Sc154 Sc 0.84913 0.22467 0.63785 0.0
Sc155 Sc 0.96385 0.2969 0.67139 0.0
Sc156 Sc 0.87996 0.17724 0.69627 0.0
O157 O 0.89802 0.23331 0.66857 0.0
C158 C 0.77869 0.17335 0.69104 0.0
C159 C 0.88514 0.33294 0.6622 0.0
C160 C 0.94042 0.27063 0.73689 0.0
C161 C 0.95082 0.28972 0.60458 0.0
C162 C 0.83989 0.12033 0.6373 0.0
C163 C 0.99144 0.21168 0.67852 0.0
O164 O 0.7859 0.18116 0.66437 0.0
O165 O 0.92903 0.34134 0.66666 0.0
O166 O 0.91482 0.22438 0.73238 0.0
O167 O 0.90398 0.26667 0.60624 0.0
O168 O 0.84169 0.12114 0.66445 0.0
O169 O 0.00298 0.25695 0.67614 0.0
O170 O 0.84787 0.15786 0.6223 0.0
O171 O 0.97855 0.29947 0.62628 0.0
O172 O 0.94757 0.17682 0.68451 0.0
O173 O 0.8498 0.29116 0.65335 0.0
O174 O 0.81185 0.17631 0.70817 0.0
O175 O 0.95801 0.30231 0.71685 0.0
Sc176 Sc 0.79036 0.63047 0.63386 0.0
Sc177 Sc 0.7135 0.67515 0.65921 0.0
Sc178 Sc 0.82977 0.71454 0.69123 0.0
O179 O 0.77782 0.67344 0.66143 0.0
C180 C 0.83406 0.61509 0.69207 0.0
C181 C 0.67732 0.5599 0.65309 0.0
C182 C 0.7303 0.68094 0.7264 0.0
C183 C 0.7343 0.66816 0.5933 0.0
C184 C 0.89639 0.72689 0.63662 0.0
C185 C 0.79523 0.78911 0.66755 0.0
O186 O 0.82251 0.60721 0.66585 0.0
O187 O 0.6693 0.59569 0.65693 0.0
O188 O 0.77675 0.69907 0.72438 0.0
O189 O 0.75954 0.64723 0.5977 0.0
O190 O 0.88957 0.73555 0.66222 0.0
O191 O 0.75173 0.75454 0.66148 0.0
O192 O 0.86304 0.69201 0.62146 0.0
O193 O 0.71679 0.68227 0.6134 0.0
O194 O 0.82872 0.78128 0.67776 0.0
O195 O 0.71936 0.56594 0.64543 0.0
O196 O 0.83533 0.65084 0.70619 0.0
O197 O 0.70197 0.66874 0.70476 0.0
H198 H 0.35418 0.4022 0.01919 0.0
H199 H 0.42688 0.55854 0.03807 0.0
H200 H 0.27493 0.39914 0.01607 0.0
H201 H 0.34701 0.55589 0.03532 0.0
H202 H 0.2114 0.54018 0.9823 0.0
H203 H 0.29041 0.54679 -0.00382 0.0
H204 H 0.21073 0.40536 0.03926 0.0
H205 H 0.13304 0.3979 0.02479 0.0
C206 C 0.35261 0.43536 0.02423 0.0
C207 C 0.39632 0.4802 0.02968 0.0
C208 C 0.30723 0.43389 0.02214 0.0
C209 C 0.30446 0.47743 0.02516 0.0
C210 C 0.34785 0.5218 0.03254 0.0
C211 C 0.39339 0.52312 0.03484 0.0
C212 C 0.2109 0.51048 -0.00541 0.0
C213 C 0.16566 0.46803 0.00175 0.0
C214 C 0.25616 0.51449 0.00288 0.0
C215 C 0.25702 0.47635 0.0187 0.0
C216 C 0.21171 0.43495 0.0266 0.0
C217 C 0.1669 0.43073 0.01817 0.0
H218 H 0.48959 0.87831 0.96923 0.0
H219 H 0.50097 0.88433 0.06163 0.0
H220 H 0.4731 0.79431 0.96933 0.0
H221 H 0.48493 0.79827 0.06164 0.0
H222 H 0.55688 0.70085 0.03159 0.0
H223 H 0.5389 0.76587 0.04381 0.0
H224 H 0.41937 0.70669 0.98227 0.0
H225 H 0.43802 0.64115 0.96966 0.0
C226 C 0.48795 0.86143 0.98979 0.0
C227 C 0.49748 0.88855 0.01548 0.0
C228 C 0.47766 0.81262 0.98979 0.0
C229 C 0.47749 0.78931 0.01544 0.0
C230 C 0.48481 0.81536 0.04147 0.0
C231 C 0.49414 0.86454 0.04152 0.0
C232 C 0.52621 0.70117 0.0209 0.0
C233 C 0.49993 0.66697 -0.00111 0.0
C234 C 0.51539 0.73807 0.02831 0.0
C235 C 0.47819 0.74196 0.01378 0.0
C236 C 0.44876 0.70496 -0.0064 0.0
C237 C 0.45938 0.66752 0.98632 0.0
H238 H 0.38224 0.82226 0.00729 0.0
H239 H 0.27494 0.85159 0.96717 0.0
H240 H 0.31474 0.74622 0.02836 0.0
H241 H 0.20796 0.7758 0.9874 0.0
H242 H 0.09192 0.66442 0.0402 0.0
H243 H 0.16825 0.74321 0.03216 0.0
H244 H 0.24747 0.66423 0.01786 0.0
H245 H 0.17161 0.58615 0.02718 0.0
C246 C 0.34431 0.81177 0.00233 0.0
C247 C 0.3339 0.84282 0.98549 0.0
C248 C 0.30558 0.76851 0.01467 0.0
C249 C 0.25574 0.7555 0.01033 0.0
C250 C 0.24572 0.78545 -0.00778 0.0
C251 C 0.28418 0.82854 0.98013 0.0
C252 C 0.12635 0.66435 0.03713 0.0
C253 C 0.12613 0.61943 0.03475 0.0
C254 C 0.1699 0.70931 0.03175 0.0
C255 C 0.21374 0.70999 0.02334 0.0
C256 C 0.2146 0.66534 0.02419 0.0
C257 C 0.17117 0.62051 0.02987 0.0
H258 H 0.57081 0.19745 0.98763 0.0
H259 H 0.41882 0.15346 0.00683 0.0
H260 H 0.58344 0.27538 0.96751 0.0
H261 H 0.4318 0.23178 0.9887 0.0
H262 H 0.44343 0.35524 0.94143 0.0
H263 H 0.44014 0.27565 0.94683 0.0
H264 H 0.5914 0.3522 0.9776 0.0
H265 H 0.59507 0.431 0.97018 0.0
C266 C 0.54041 0.20479 0.98798 0.0
C267 C 0.49366 0.16893 -0.00166 0.0
C268 C 0.5475 0.24945 0.9764 0.0
C269 C 0.50818 0.25956 0.97554 0.0
C270 C 0.46242 0.22472 0.98765 0.0
C271 C 0.45518 0.18002 -0.00135 0.0
C272 C 0.47675 0.35489 0.94758 0.0
C273 C 0.51955 0.39903 0.95521 0.0
C274 C 0.47463 0.30931 0.9515 0.0
C275 C 0.51486 0.30719 0.96387 0.0
C276 C 0.55954 0.3519 0.96819 0.0
C277 C 0.56186 0.39733 0.96372 0.0
H278 H 0.59275 0.15873 0.95052 0.0
H279 H 0.67205 0.08298 0.97179 0.0
H280 H 0.66689 0.23871 0.96133 0.0
H281 H 0.74668 0.16218 0.98088 0.0
H282 H 0.83803 0.28581 0.0399 0.0
H283 H 0.76295 0.21426 0.02204 0.0
H284 H 0.75466 0.3039 0.95409 0.0
H285 H 0.82966 0.37642 0.97293 0.0
C286 C 0.62686 0.15951 0.95602 0.0
C287 C 0.62682 0.1149 0.96046 0.0
C288 C 0.66921 0.20522 0.96246 0.0
C289 C 0.7122 0.20673 0.97309 0.0
C290 C 0.71365 0.16229 0.97383 0.0
C291 C 0.67129 0.11689 0.96793 0.0
C292 C 0.81923 0.29057 0.02172 0.0
C293 C 0.83934 0.33662 0.00794 0.0
C294 C 0.77675 0.24937 0.01106 0.0
C295 C 0.75372 0.2528 0.98594 0.0
C296 C 0.77171 0.29982 0.97331 0.0
C297 C 0.81428 0.34147 0.98426 0.0
H298 H 0.95793 0.6095 0.97869 0.0
H299 H 0.87552 0.45856 0.94863 0.0
H300 H 0.88234 0.61398 0.97998 0.0
H301 H 0.79884 0.46252 0.94994 0.0
H302 H 0.67519 0.47067 0.00458 0.0
H303 H 0.74814 0.4654 0.99036 0.0
H304 H 0.8148 0.61295 0.95472 0.0
H305 H 0.74342 0.61882 0.96928 0.0
C306 C 0.92384 0.57809 0.97093 0.0
C307 C 0.92263 0.53403 0.96308 0.0
C308 C 0.88028 0.58036 0.97194 0.0
C309 C 0.83425 0.53833 0.96545 0.0
C310 C 0.83357 0.49531 0.95545 0.0
C311 C 0.87753 0.49332 0.95411 0.0
C312 C 0.70542 0.50194 -0.00628 0.0
C313 C 0.70353 0.54546 0.98863 0.0
C314 C 0.74702 0.49872 0.98526 0.0
C315 C 0.78751 0.5389 0.97147 0.0
C316 C 0.78475 0.58162 0.96566 0.0
C317 C 0.74358 0.58492 0.97414 0.0
H318 H 0.82991 0.75402 0.29661 0.0
H319 H 0.85398 0.88078 0.34653 0.0
H320 H 0.90741 0.76328 0.3139 0.0
H321 H 0.93084 0.88878 0.36551 0.0
H322 H 0.09272 0.91444 0.36433 0.0
H323 H 0.01295 0.90937 0.35681 0.0
H324 H 0.94217 0.74928 0.35404 0.0
H325 H 0.02292 0.75552 0.35892 0.0
C326 C 0.8522 0.78419 0.31121 0.0
C327 C 0.83616 0.81683 0.32012 0.0
C328 C 0.89622 0.78895 0.32168 0.0
C329 C 0.92494 0.82578 0.34198 0.0
C330 C 0.90981 0.85984 0.35002 0.0
C331 C 0.86597 0.85559 0.33901 0.0
C332 C 0.05964 0.87824 0.36324 0.0
C333 C 0.06374 0.83546 0.36204 0.0
C334 C 0.01381 0.87519 0.35875 0.0
C335 C 0.9711 0.82895 0.3536 0.0
C336 C 0.97452 0.78572 0.35663 0.0
C337 C 0.02056 0.78901 0.36029 0.0
H338 H 0.09214 0.18801 0.35713 0.0
H339 H 0.2487 0.27238 0.37463 0.0
H340 H 0.09813 0.11468 0.348 0.0
H341 H 0.25479 0.19787 0.36779 0.0
H342 H 0.26891 0.09182 0.30803 0.0
H343 H 0.25754 0.15767 0.32721 0.0
H344 H 0.11008 0.04895 0.35556 0.0
H345 H 0.12064 0.98335 0.33416 0.0
C346 C 0.12737 0.18991 0.36083 0.0
C347 C 0.1699 0.23571 0.36676 0.0
C348 C 0.13101 0.14776 0.35533 0.0
C349 C 0.17734 0.15028 0.3561 0.0
C350 C 0.21877 0.19479 0.36578 0.0
C351 C 0.21522 0.23733 0.37061 0.0
C352 C 0.23375 0.08203 0.318 0.0
C353 C 0.19576 0.03221 0.3197 0.0
C354 C 0.22751 0.11985 0.32961 0.0
C355 C 0.18339 0.10906 0.3439 0.0
C356 C 0.14468 0.05916 0.34481 0.0
C357 C 0.15061 0.0213 0.33252 0.0
H358 H 0.93241 0.21101 0.35882 0.0
H359 H 0.00624 0.1395 0.31973 0.0
H360 H 0.86465 0.13125 0.37343 0.0
H361 H 0.93665 0.05852 0.33387 0.0
H362 H 0.81518 0.91891 0.37542 0.0
H363 H 0.88938 0.00176 0.37366 0.0
H364 H 0.79798 0.06351 0.34883 0.0
H365 H 0.7249 0.98132 0.35066 0.0
C366 C 0.93417 0.17822 0.35306 0.0
C367 C 0.97465 0.1819 0.33747 0.0
C368 C 0.89507 0.13228 0.36158 0.0
C369 C 0.89478 0.0883 0.35465 0.0
C370 C 0.93585 0.09173 0.33981 0.0
C371 C 0.97548 0.13809 0.33138 0.0
C372 C 0.81102 0.95074 0.37097 0.0
C373 C 0.76435 0.94407 0.36375 0.0
C374 C 0.85352 0.99798 0.36937 0.0
C375 C 0.84984 0.03931 0.36074 0.0
C376 C 0.8024 0.03283 0.35583 0.0
C377 C 0.76026 0.98575 0.35717 0.0
H378 H 0.08462 0.6901 0.29044 0.0
H379 H 0.24404 0.76578 0.28948 0.0
H380 H 0.08173 0.61134 0.29831 0.0
H381 H 0.24202 0.6881 0.29969 0.0
H382 H 0.21951 0.53153 0.31344 0.0
H383 H 0.22584 0.60675 0.29284 0.0
H384 H 0.09451 0.57866 0.33978 0.0
H385 H 0.08707 0.50285 0.3587 0.0
C386 C 0.11904 0.68943 0.29063 0.0
C387 C 0.16453 0.7338 0.28905 0.0
C388 C 0.11761 0.64454 0.29604 0.0
C389 C 0.16168 0.64336 0.30097 0.0
C390 C 0.20722 0.68714 0.29624 0.0
C391 C 0.2085 0.73179 0.29011 0.0
C392 C 0.19251 0.54197 0.31953 0.0
C393 C 0.15261 0.51107 0.33749 0.0
C394 C 0.19588 0.585 0.30762 0.0
C395 C 0.15976 0.59834 0.3138 0.0
C396 C 0.12185 0.56882 0.33334 0.0
C397 C 0.11807 0.52569 0.34474 0.0
H398 H 0.25004 0.48702 0.288 0.0
H399 H 0.31284 0.39208 0.29471 0.0
H400 H 0.33189 0.55979 0.29367 0.0
H401 H 0.39568 0.46454 0.29793 0.0
H402 H 0.51578 0.58604 0.35174 0.0
H403 H 0.43732 0.51706 0.33542 0.0
H404 H 0.41334 0.61793 0.28333 0.0
H405 H 0.49098 0.68705 0.30105 0.0
C406 C 0.28195 0.48202 0.28888 0.0
C407 C 0.27523 0.43411 0.29084 0.0
C408 C 0.3291 0.52379 0.29239 0.0
C409 C 0.37072 0.51837 0.29737 0.0
C410 C 0.36446 0.47036 0.29539 0.0
C411 C 0.31712 0.42867 0.29263 0.0
C412 C 0.4932 0.5934 0.33717 0.0
C413 C 0.50886 0.64202 0.32823 0.0
C414 C 0.44853 0.55371 0.32729 0.0
C415 C 0.4188 0.5613 0.30752 0.0
C416 C 0.43457 0.61031 0.29874 0.0
C417 C 0.47894 0.65018 0.30911 0.0
H418 H 0.31031 0.78694 0.32395 0.0
H419 H 0.41714 0.94368 0.31857 0.0
H420 H 0.37275 0.76813 0.30633 0.0
H421 H 0.47981 0.925 0.30251 0.0
H422 H 0.58722 0.88877 0.26548 0.0
H423 H 0.51166 0.89503 0.266 0.0
H424 H 0.44378 0.7714 0.32492 0.0
H425 H 0.51761 0.76531 0.32384 0.0
C426 C 0.34708 0.81736 0.3192 0.0
C427 C 0.35855 0.86677 0.32277 0.0
C428 C 0.38296 0.80663 0.30902 0.0
C429 C 0.43143 0.84507 0.3027 0.0
C430 C 0.44271 0.8944 0.30634 0.0
C431 C 0.4068 0.90509 0.31611 0.0
C432 C 0.5551 0.86169 0.27735 0.0
C433 C 0.55791 0.82618 0.29436 0.0
C434 C 0.51213 0.86562 0.27808 0.0
C435 C 0.47174 0.83418 0.29591 0.0
C436 C 0.47346 0.79592 0.31067 0.0
C437 C 0.51602 0.79223 0.30998 0.0
H438 H 0.69057 0.08773 0.69125 0.0
H439 H 0.75957 0.24393 0.70932 0.0
H440 H 0.61168 0.08423 0.68302 0.0
H441 H 0.68188 0.24191 0.69917 0.0
H442 H 0.52273 0.21398 0.6851 0.0
H443 H 0.59749 0.21861 0.7051 0.0
H444 H 0.58593 0.11027 0.64284 0.0
H445 H 0.51035 0.10428 0.62421 0.0
C446 C 0.68816 0.12085 0.69482 0.0
C447 C 0.7309 0.16602 0.70114 0.0
C448 C 0.64337 0.11933 0.68925 0.0
C449 C 0.6408 0.16326 0.68913 0.0
C450 C 0.68227 0.20736 0.69878 0.0
C451 C 0.7268 0.20853 0.70494 0.0
C452 C 0.53717 0.19235 0.67531 0.0
C453 C 0.51116 0.15916 0.65298 0.0
C454 C 0.5797 0.19449 0.68694 0.0
C455 C 0.59713 0.16366 0.67624 0.0
C456 C 0.57271 0.13312 0.65251 0.0
C457 C 0.53001 0.13048 0.64129 0.0
H458 H 0.80463 0.32544 0.69019 0.0
H459 H 0.94467 0.43162 0.6528 0.0
H460 H 0.79454 0.3927 0.70912 0.0
H461 H 0.93322 0.49912 0.6692 0.0
H462 H 0.92169 0.62066 0.70596 0.0
H463 H 0.93428 0.54945 0.7044 0.0
H464 H 0.77524 0.45156 0.70016 0.0
H465 H 0.76376 0.52238 0.70451 0.0
C466 C 0.83265 0.36329 0.68544 0.0
C467 C 0.8752 0.37327 0.66988 0.0
C468 C 0.82704 0.40219 0.69631 0.0
C469 C 0.8632 0.45221 0.69111 0.0
C470 C 0.90514 0.46168 0.67474 0.0
C471 C 0.91138 0.42284 0.66472 0.0
C472 C 0.88964 0.58362 0.70662 0.0
C473 C 0.84174 0.5769 0.7056 0.0
C474 C 0.89666 0.5426 0.70472 0.0
C475 C 0.85592 0.4942 0.70076 0.0
C476 C 0.80791 0.4876 0.70307 0.0
C477 C 0.80107 0.52842 0.70582 0.0
H478 H 0.58005 0.51947 0.63946 0.0
H479 H 0.68189 0.48886 0.68487 0.0
H480 H 0.51087 0.4417 0.65611 0.0
H481 H 0.61268 0.41276 0.70393 0.0
H482 H 0.48049 0.25223 0.70358 0.0
H483 H 0.55306 0.3334 0.69708 0.0
H484 H 0.45822 0.39767 0.69168 0.0
H485 H 0.38578 0.31491 0.69513 0.0
C486 C 0.58748 0.49585 0.65311 0.0
C487 C 0.63634 0.5098 0.66053 0.0
C488 C 0.54765 0.45153 0.66329 0.0
C489 C 0.5553 0.42054 0.68209 0.0
C490 C 0.60464 0.43472 0.68931 0.0
C491 C 0.64462 0.47844 0.67835 0.0
C492 C 0.47553 0.28414 0.70222 0.0
C493 C 0.42767 0.27732 0.6999 0.0
C494 C 0.5173 0.33107 0.69822 0.0
C495 C 0.51212 0.3727 0.69261 0.0
C496 C 0.4641 0.36653 0.69447 0.0
C497 C 0.42232 0.31921 0.69748 0.0
H498 H 0.73918 0.83019 0.68038 0.0
H499 H 0.875 0.86154 0.63829 0.0
H500 H 0.75028 0.9092 0.66456 0.0
H501 H 0.885 0.93988 0.62041 0.0
H502 H 0.91256 0.10127 0.62443 0.0
H503 H 0.90425 0.01984 0.62983 0.0
H504 H 0.7446 0.9532 0.62739 0.0
H505 H 0.75398 0.03561 0.62495 0.0
C506 C 0.7716 0.85433 0.66769 0.0
C507 C 0.80654 0.84012 0.66088 0.0
C508 C 0.77757 0.89938 0.658 0.0
C509 C 0.81798 0.9311 0.64041 0.0
C510 C 0.85351 0.917 0.63398 0.0
C511 C 0.84805 0.87218 0.64434 0.0
C512 C 0.87583 0.06887 0.62393 0.0
C513 C 0.83401 0.07465 0.62434 0.0
C514 C 0.87086 0.0219 0.62722 0.0
C515 C 0.82362 0.97944 0.63029 0.0
C516 C 0.7817 0.98497 0.62652 0.0
C517 C 0.78686 0.03216 0.62415 0.0
H518 H 0.92585 0.8154 0.61167 0.0
H519 H 0.97803 0.71853 0.64078 0.0
H520 H 0.01004 0.88636 0.61476 0.0
H521 H 0.06184 0.78899 0.64462 0.0
H522 H 0.21371 0.9233 0.64024 0.0
H523 H 0.13507 0.85501 0.62442 0.0
H524 H 0.06069 0.9315 0.6554 0.0
H525 H 0.14031 0.00137 0.67049 0.0
C526 C 0.95593 0.80898 0.6172 0.0
C527 C 0.94582 0.76139 0.62526 0.0
C528 C 0.00392 0.84976 0.61973 0.0
C529 C 0.04266 0.8437 0.63055 0.0
C530 C 0.03318 0.79524 0.63603 0.0
C531 C 0.98521 0.75455 0.63346 0.0
C532 C 0.18073 0.92586 0.64383 0.0
C533 C 0.18359 0.968 0.65699 0.0
C534 C 0.13543 0.8864 0.63468 0.0
C535 C 0.09136 0.88753 0.63853 0.0
C536 C 0.09399 0.92965 0.65162 0.0
C537 C 0.13959 0.96948 0.66068 0.0
H538 H 0.26942 0.24724 0.61701 0.0
H539 H 0.1801 0.09035 0.63288 0.0
H540 H 0.19633 0.25604 0.62306 0.0
H541 H 0.10817 0.09892 0.64116 0.0
H542 H 0.98023 0.12569 0.65518 0.0
H543 H 0.04461 0.11373 0.63341 0.0
H544 H 0.15582 0.25906 0.66346 0.0
H545 H 0.09118 0.27198 0.68299 0.0
C546 C 0.23366 0.21433 0.62047 0.0
C547 C 0.2302 0.16813 0.62425 0.0
C548 C 0.19189 0.21939 0.62484 0.0
C549 C 0.14637 0.17856 0.63387 0.0
C550 C 0.14209 0.13142 0.63434 0.0
C551 C 0.18344 0.1263 0.62933 0.0
C552 C 0.01846 0.1549 0.6571 0.0
C553 C 0.03046 0.19991 0.67054 0.0
C554 C 0.05562 0.14817 0.64459 0.0
C555 C 0.10589 0.18585 0.64594 0.0
C556 C 0.11772 0.22985 0.66075 0.0
C557 C 0.08059 0.23695 0.67257 0.0
H558 H 0.04189 0.28397 0.22379 0.0
H559 H 0.04427 0.41639 0.25407 0.0
H560 H 0.02397 0.29981 0.17562 0.0
H561 H 0.02787 0.43323 0.20543 0.0
H562 H 0.95652 0.42383 0.11851 0.0
H563 H 0.96648 0.40407 0.16763 0.0
H564 H 0.06941 0.35855 0.13853 0.0
H565 H 0.05836 0.37682 0.08938 0.0
C566 C 0.03862 0.31654 0.2201 0.0
C567 C 0.04489 0.34923 0.24257 0.0
C568 C 0.02862 0.32574 0.19249 0.0
C569 C 0.02525 0.36812 0.18668 0.0
C570 C 0.02992 0.40005 0.20932 0.0
C571 C 0.03943 0.39052 0.23711 0.0
C572 C 0.98123 0.40953 0.12261 0.0
C573 C 0.00656 0.40171 0.10009 0.0
C574 C 0.98706 0.39844 0.15075 0.0
C575 C 0.01856 0.37963 0.1569 0.0
C576 C 0.0441 0.3721 0.13438 0.0
C577 C 0.03796 0.38278 0.10624 0.0
H578 H 0.60706 0.64251 0.2414 0.0
H579 H 0.71893 0.78658 0.21032 0.0
H580 H 0.59208 0.61076 0.19252 0.0
H581 H 0.70496 0.75443 0.16167 0.0
H582 H 0.6265 0.69425 0.07602 0.0
H583 H 0.64251 0.72659 0.1248 0.0
H584 H 0.63207 0.59048 0.15492 0.0
H585 H 0.61464 0.55761 0.10642 0.0
C586 C 0.62875 0.66723 0.22418 0.0
C587 C 0.66407 0.71702 0.22967 0.0
C588 C 0.62032 0.64902 0.19622 0.0
C589 C 0.64737 0.68016 0.1733 0.0
C590 C 0.683 0.72979 0.17885 0.0
C591 C 0.69114 0.7481 0.20674 0.0
C592 C 0.62793 0.67141 0.09306 0.0
C593 C 0.61919 0.62339 0.08746 0.0
C594 C 0.63721 0.68995 0.12095 0.0
C595 C 0.63836 0.66095 0.14366 0.0
C596 C 0.6305 0.6133 0.13794 0.0
C597 C 0.6208 0.59462 0.11013 0.0
H598 H 0.45308 0.05192 0.10448 0.0
H599 H 0.31562 0.93139 0.07155 0.0
H600 H 0.41741 0.038 0.15206 0.0
H601 H 0.28015 0.91617 0.11979 0.0
H602 H 0.21942 0.93644 0.20534 0.0
H603 H 0.25234 0.95084 0.15671 0.0
H604 H 0.39375 0.97905 0.18961 0.0
H605 H 0.36145 0.96643 0.23818 0.0
C606 C 0.41526 0.02209 0.10747 0.0
C607 C 0.38723 0.99247 0.08431 0.0
C608 C 0.3949 0.01396 0.13482 0.0
C609 C 0.34616 0.9756 0.13981 0.0
C610 C 0.31771 0.94632 0.11658 0.0
C611 C 0.33801 0.95486 0.089 0.0
C612 C 0.25759 0.94585 0.20216 0.0
C613 C 0.28798 0.95067 0.2256 0.0
C614 C 0.27632 0.95376 0.17428 0.0
C615 C 0.32568 0.96623 0.16928 0.0
C616 C 0.35583 0.97048 0.19275 0.0
C617 C 0.33729 0.9631 0.22061 0.0
H618 H 0.39253 0.07305 0.90506 0.0
H619 H 0.42261 0.95942 0.87478 0.0
H620 H 0.37558 0.087 0.85601 0.0
H621 H 0.40438 0.97242 0.82609 0.0
H622 H 0.41728 0.04538 0.73887 0.0
H623 H 0.43691 0.03248 0.78766 0.0
H624 H 0.31326 0.04461 0.81981 0.0
H625 H 0.29458 0.05874 0.77151 0.0
C626 C 0.39518 0.05085 0.88801 0.0
C627 C 0.40886 0.01515 0.89382 0.0
C628 C 0.38535 0.0587 0.85994 0.0
C629 C 0.38863 0.03073 0.83721 0.0
C630 C 0.40229 0.99507 0.84306 0.0
C631 C 0.41242 0.98745 0.87103 0.0
C632 C 0.39421 0.04494 0.75638 0.0
C633 C 0.35463 0.05333 0.75141 0.0
C634 C 0.40537 0.03754 0.78428 0.0
C635 C 0.37685 0.038 0.80757 0.0
C636 C 0.33661 0.04521 0.80241 0.0
C637 C 0.32573 0.05296 0.77468 0.0
H638 H 0.99817 0.44681 0.88897 0.0
H639 H 0.97613 0.30784 0.92241 0.0
H640 H 0.982 0.41287 0.84089 0.0
H641 H 0.96149 0.27406 0.87371 0.0
H642 H 0.89122 0.21877 0.78468 0.0
H643 H 0.90398 0.24861 0.83393 0.0
H644 H 0.02373 0.39091 0.80596 0.0
H645 H 0.00989 0.36173 0.75666 0.0
C646 C 0.99016 0.409 0.88597 0.0
C647 C 0.98896 0.38007 0.90934 0.0
C648 C 0.98117 0.38966 0.85839 0.0
C649 C 0.97138 0.34114 0.85345 0.0
C650 C 0.96878 0.31157 0.8769 0.0
C651 C 0.97724 0.33085 0.90471 0.0
C652 C 0.92037 0.2564 0.78908 0.0
C653 C 0.94937 0.28809 0.7668 0.0
C654 C 0.9278 0.27335 0.81731 0.0
C655 C 0.9646 0.32215 0.82378 0.0
C656 C 0.99433 0.3534 0.80156 0.0
C657 C 0.98658 0.33665 0.77333 0.0
H658 H 0.63673 0.6601 0.74125 0.0
H659 H 0.7753 0.68487 0.77701 0.0
H660 H 0.60195 0.64779 0.78944 0.0
H661 H 0.7402 0.67116 0.82474 0.0
H662 H 0.68079 0.68545 0.90899 0.0
H663 H 0.71287 0.7077 0.86039 0.0
H664 H 0.57587 0.58684 0.82719 0.0
H665 H 0.54315 0.56561 0.8756 0.0
C666 C 0.65967 0.66276 0.75934 0.0
C667 C 0.70873 0.67348 0.75533 0.0
C668 C 0.63974 0.65562 0.7869 0.0
C669 C 0.66845 0.65875 0.81086 0.0
C670 C 0.71748 0.66956 0.80678 0.0
C671 C 0.73747 0.67705 0.77935 0.0
C672 C 0.6574 0.6639 0.89129 0.0
C673 C 0.60963 0.62355 0.89613 0.0
C674 C 0.67582 0.67653 0.86348 0.0
C675 C 0.64704 0.64872 0.84001 0.0
C676 C 0.59872 0.60933 0.8448 0.0
C677 C 0.58011 0.59699 0.87258 0.0
H678 H 0.7468 0.7162 0.40911 0.0
H679 H 0.61484 0.71598 0.43803 0.0
H680 H 0.76299 0.70112 0.45823 0.0
H681 H 0.63007 0.69949 0.48661 0.0
H682 H 0.70168 0.72938 0.57389 0.0
H683 H 0.68765 0.74357 0.52441 0.0
H684 H 0.73148 0.63908 0.49574 0.0
H685 H 0.74701 0.626 0.54513 0.0
C686 C 0.72099 0.71229 0.42588 0.0
C687 C 0.67986 0.7177 0.41985 0.0
C688 C 0.73016 0.70357 0.45394 0.0
C689 C 0.69805 0.69969 0.47629 0.0
C690 C 0.65613 0.70354 0.46998 0.0
C691 C 0.64728 0.7127 0.44211 0.0
C692 C 0.70823 0.70938 0.55704 0.0
C693 C 0.72527 0.67648 0.5634 0.0
C694 C 0.70004 0.71736 0.52871 0.0
C695 C 0.70822 0.69219 0.50622 0.0
C696 C 0.72545 0.65945 0.51258 0.0
C697 C 0.73405 0.65178 0.54089 0.0
H698 H 0.34572 0.04185 0.40363 0.0
H699 H 0.23619 0.89958 0.43804 0.0
H700 H 0.36729 0.07493 0.4523 0.0
H701 H 0.2565 0.93283 0.48618 0.0
H702 H 0.34832 0.12779 0.5412 0.0
H703 H 0.33298 0.09714 0.4922 0.0
H704 H 0.32137 0.95976 0.5208 0.0
H705 H 0.33505 0.98974 0.57001 0.0
C706 C 0.3261 0.0178 0.42152 0.0
C707 C 0.28952 0.96809 0.41702 0.0
C708 C 0.33832 0.03672 0.44935 0.0
C709 C 0.31385 0.00633 0.47307 0.0
C710 C 0.27688 0.95687 0.46843 0.0
C711 C 0.26502 0.93792 0.44077 0.0
C712 C 0.34269 0.0911 0.53703 0.0
C713 C 0.34252 0.06099 0.55951 0.0
C714 C 0.33423 0.0737 0.5089 0.0
C715 C 0.32579 0.026 0.50264 0.0
C716 C 0.32684 0.99637 0.52503 0.0
C717 C 0.33484 0.01358 0.55321 0.0
H718 H 0.90915 0.30372 0.55718 0.0
H719 H 0.04272 0.30893 0.58735 0.0
H720 H 0.94258 0.322 0.50888 0.0
H721 H 0.07571 0.32572 0.53856 0.0
H722 H 0.1347 0.39733 0.45078 0.0
H723 H 0.10551 0.3864 0.50017 0.0
H724 H 0.95813 0.27771 0.47211 0.0
H725 H 0.98679 0.28965 0.42279 0.0
C726 C 0.94568 0.3087 0.55344 0.0
C727 C 0.97319 0.30446 0.57593 0.0
C728 C 0.96471 0.31892 0.52575 0.0
C729 C 0.01142 0.32453 0.51986 0.0
C730 C 0.03971 0.32188 0.5425 0.0
C731 C 0.02082 0.31215 0.57038 0.0
C732 C 0.09605 0.37114 0.45519 0.0
C733 C 0.06295 0.34454 0.43289 0.0
C734 C 0.07943 0.36475 0.48348 0.0
C735 C 0.02951 0.33144 0.48998 0.0
C736 C 0.99661 0.30446 0.4677 0.0
C737 C 0.01309 0.31112 0.43944 0.0
loop_
_geom_bond_atom_site_label_1
_geom_bond_atom_site_label_2
_geom_bond_distance
_geom_bond_site_symmetry_2
_ccdc_geom_bond_type
Sc0 O3 2.025 1_556 S
Sc0 O10 2.115 . S
Sc0 O13 2.105 . S
Sc0 O16 2.105 1_455 S
Sc0 O19 2.105 . S
Sc1 O3 2.025 . S
Sc1 O11 2.105 1_554 S
Sc1 O15 2.105 1_455 S
Sc1 O17 2.105 1_454 S
Sc1 O21 2.105 . S
Sc2 O3 2.025 1_655 S
Sc2 O12 2.105 1_655 S
Sc2 O14 2.105 . S
Sc2 O18 2.105 . S
Sc2 O20 2.105 1_655 S
O3 Sc0 2.025 1_554 S
O3 Sc1 2.025 . S
O3 Sc2 2.025 1_455 S
C4 O10 1.252 1_554 S
C4 O20 1.268 . S
C5 O11 1.268 . S
C5 O19 1.268 . S
C6 O12 1.268 . S
C6 O21 1.268 . S
C7 O13 1.268 1_655 S
C7 O17 1.268 . S
C8 O14 1.268 1_556 S
C8 O16 1.268 . S
C9 O15 1.268 . S
C9 O18 1.268 . S
O10 Sc0 2.115 . S
O10 C4 1.252 1_556 S
O11 Sc1 2.105 1_556 S
O11 C5 1.268 . S
O12 Sc2 2.105 1_455 S
O12 C6 1.268 . S
O13 Sc0 2.105 . S
O13 C7 1.268 1_455 S
O14 Sc2 2.105 . S
O14 C8 1.268 1_554 S
O15 Sc1 2.105 1_655 S
O15 C9 1.268 . S
O16 Sc0 2.105 1_655 S
O16 C8 1.268 . S
O17 Sc1 2.105 1_656 S
O17 C7 1.268 . S
O18 Sc2 2.105 . S
O18 C9 1.268 . S
O19 Sc0 2.105 . S
O19 C5 1.268 . S
O20 Sc2 2.105 1_455 S
O20 C4 1.268 . S
O21 Sc1 2.105 . S
O21 C6 1.268 . S
Sc22 O25 2.025 1_556 S
Sc22 O32 2.115 . S
Sc22 O35 2.105 . S
Sc22 O38 2.105 . S
Sc22 O41 2.105 . S
Sc23 O25 2.025 . S
Sc23 O33 2.105 1_554 S
Sc23 O37 2.105 . S
Sc23 O39 2.105 1_554 S
Sc23 O43 2.105 . S
Sc24 O25 2.025 . S
Sc24 O34 2.105 . S
Sc24 O36 2.105 . S
Sc24 O40 2.105 . S
Sc24 O42 2.105 . S
O25 Sc22 2.025 1_554 S
O25 Sc23 2.025 . S
O25 Sc24 2.025 . S
C26 O32 1.252 1_554 S
C26 O42 1.268 . S
C27 O33 1.268 . S
C27 O41 1.268 . S
C28 O34 1.268 . S
C28 O43 1.268 . S
C29 O35 1.268 . S
C29 O39 1.268 . S
C30 O36 1.268 1_556 S
C30 O38 1.268 . S
C31 O37 1.268 . S
C31 O40 1.268 . S
O32 Sc22 2.115 . S
O32 C26 1.252 1_556 S
O33 Sc23 2.105 1_556 S
O33 C27 1.268 . S
O34 Sc24 2.105 . S
O34 C28 1.268 . S
O35 Sc22 2.105 . S
O35 C29 1.268 . S
O36 Sc24 2.105 . S
O36 C30 1.268 1_554 S
O37 Sc23 2.105 . S
O37 C31 1.268 . S
O38 Sc22 2.105 . S
O38 C30 1.268 . S
O39 Sc23 2.105 1_556 S
O39 C29 1.268 . S
O40 Sc24 2.105 . S
O40 C31 1.268 . S
O41 Sc22 2.105 . S
O41 C27 1.268 . S
O42 Sc24 2.105 . S
O42 C26 1.268 . S
O43 Sc23 2.105 . S
O43 C28 1.268 . S
Sc44 O47 2.025 1_566 S
Sc44 O54 2.115 . S
Sc44 O57 2.105 1_565 S
Sc44 O60 2.105 1_565 S
Sc44 O63 2.105 . S
Sc45 O47 2.025 . S
Sc45 O55 2.105 1_544 S
Sc45 O59 2.105 . S
Sc45 O61 2.105 1_554 S
Sc45 O65 2.105 1_545 S
Sc46 O47 2.025 . S
Sc46 O56 2.105 . S
Sc46 O58 2.105 . S
Sc46 O62 2.105 . S
Sc46 O64 2.105 1_545 S
O47 Sc44 2.025 1_544 S
O47 Sc45 2.025 . S
O47 Sc46 2.025 . S
C48 O54 1.252 1_554 S
C48 O64 1.268 . S
C49 O55 1.268 . S
C49 O63 1.268 . S
C50 O56 1.268 1_565 S
C50 O65 1.268 . S
C51 O57 1.268 . S
C51 O61 1.268 . S
C52 O58 1.268 1_556 S
C52 O60 1.268 . S
C53 O59 1.268 . S
C53 O62 1.268 . S
O54 Sc44 2.115 . S
O54 C48 1.252 1_556 S
O55 Sc45 2.105 1_566 S
O55 C49 1.268 . S
O56 Sc46 2.105 . S
O56 C50 1.268 1_545 S
O57 Sc44 2.105 1_545 S
O57 C51 1.268 . S
O58 Sc46 2.105 . S
O58 C52 1.268 1_554 S
O59 Sc45 2.105 . S
O59 C53 1.268 . S
O60 Sc44 2.105 1_545 S
O60 C52 1.268 . S
O61 Sc45 2.105 1_556 S
O61 C51 1.268 . S
O62 Sc46 2.105 . S
O62 C53 1.268 . S
O63 Sc44 2.105 . S
O63 C49 1.268 . S
O64 Sc46 2.105 1_565 S
O64 C48 1.268 . S
O65 Sc45 2.105 1_565 S
O65 C50 1.268 . S
Sc66 O69 2.025 . S
Sc66 O76 2.105 . S
Sc66 O79 2.105 . S
Sc66 O82 2.105 . S
Sc66 O85 2.105 . S
Sc67 O69 2.025 . S
Sc67 O77 2.105 . S
Sc67 O81 2.105 . S
Sc67 O83 2.105 . S
Sc67 O87 2.105 . S
Sc68 O69 2.025 . S
Sc68 O78 2.105 . S
Sc68 O80 2.105 . S
Sc68 O84 2.105 . S
Sc68 O86 2.105 . S
O69 Sc66 2.025 . S
O69 Sc67 2.025 . S
O69 Sc68 2.025 . S
C70 O76 1.268 . S
C70 O86 1.268 . S
C71 O77 1.268 . S
C71 O85 1.268 . S
C72 O78 1.268 . S
C72 O87 1.268 . S
C73 O79 1.268 . S
C73 O83 1.268 . S
C74 O80 1.268 . S
C74 O82 1.268 . S
C75 O81 1.268 . S
C75 O84 1.268 . S
O76 Sc66 2.105 . S
O76 C70 1.268 . S
O77 Sc67 2.105 . S
O77 C71 1.268 . S
O78 Sc68 2.105 . S
O78 C72 1.268 . S
O79 Sc66 2.105 . S
O79 C73 1.268 . S
O80 Sc68 2.105 . S
O80 C74 1.268 . S
O81 Sc67 2.105 . S
O81 C75 1.268 . S
O82 Sc66 2.105 . S
O82 C74 1.268 . S
O83 Sc67 2.105 . S
O83 C73 1.268 . S
O84 Sc68 2.105 . S
O84 C75 1.268 . S
O85 Sc66 2.105 . S
O85 C71 1.268 . S
O86 Sc68 2.105 . S
O86 C70 1.268 . S
O87 Sc67 2.105 . S
O87 C72 1.268 . S
Sc88 O91 2.025 . S
Sc88 O98 2.105 . S
Sc88 O101 2.105 . S
Sc88 O104 2.105 . S
Sc88 O107 2.105 . S
Sc89 O91 2.025 . S
Sc89 O99 2.099 1_565 S
Sc89 O103 2.105 . S
Sc89 O105 2.105 . S
Sc89 O109 2.105 . S
Sc90 O91 2.025 . S
Sc90 O100 2.105 . S
Sc90 O102 2.105 . S
Sc90 O106 2.105 . S
Sc90 O108 2.105 . S
O91 Sc88 2.025 . S
O91 Sc89 2.025 . S
O91 Sc90 2.025 . S
C92 O98 1.268 . S
C92 O108 1.268 . S
C93 O99 1.270 1_565 S
C93 O107 1.268 . S
C94 O100 1.268 . S
C94 O109 1.268 . S
C95 O101 1.268 . S
C95 O105 1.268 . S
C96 O102 1.268 . S
C96 O104 1.268 . S
C97 O103 1.268 . S
C97 O106 1.268 . S
O98 Sc88 2.105 . S
O98 C92 1.268 . S
O99 Sc89 2.099 1_545 S
O99 C93 1.270 1_545 S
O100 Sc90 2.105 . S
O100 C94 1.268 . S
O101 Sc88 2.105 . S
O101 C95 1.268 . S
O102 Sc90 2.105 . S
O102 C96 1.268 . S
O103 Sc89 2.105 . S
O103 C97 1.268 . S
O104 Sc88 2.105 . S
O104 C96 1.268 . S
O105 Sc89 2.105 . S
O105 C95 1.268 . S
O106 Sc90 2.105 . S
O106 C97 1.268 . S
O107 Sc88 2.105 . S
O107 C93 1.268 . S
O108 Sc90 2.105 . S
O108 C92 1.268 . S
O109 Sc89 2.105 . S
O109 C94 1.268 . S
Sc110 O113 2.025 . S
Sc110 O120 2.105 . S
Sc110 O123 2.105 . S
Sc110 O126 2.105 . S
Sc110 O129 2.105 . S
Sc111 O113 2.025 . S
Sc111 O121 2.105 . S
Sc111 O125 2.105 . S
Sc111 O127 2.105 . S
Sc111 O131 2.105 . S
Sc112 O113 2.025 . S
Sc112 O122 2.105 . S
Sc112 O124 2.105 . S
Sc112 O128 2.105 . S
Sc112 O130 2.105 . S
O113 Sc110 2.025 . S
O113 Sc111 2.025 . S
O113 Sc112 2.025 . S
C114 O120 1.268 . S
C114 O130 1.268 . S
C115 O121 1.268 . S
C115 O129 1.268 . S
C116 O122 1.268 . S
C116 O131 1.268 . S
C117 O123 1.268 . S
C117 O127 1.268 . S
C118 O124 1.268 . S
C118 O126 1.268 . S
C119 O125 1.268 . S
C119 O128 1.268 . S
O120 Sc110 2.105 . S
O120 C114 1.268 . S
O121 Sc111 2.105 . S
O121 C115 1.268 . S
O122 Sc112 2.105 . S
O122 C116 1.268 . S
O123 Sc110 2.105 . S
O123 C117 1.268 . S
O124 Sc112 2.105 . S
O124 C118 1.268 . S
O125 Sc111 2.105 . S
O125 C119 1.268 . S
O126 Sc110 2.105 . S
O126 C118 1.268 . S
O127 Sc111 2.105 . S
O127 C117 1.268 . S
O128 Sc112 2.105 . S
O128 C119 1.268 . S
O129 Sc110 2.105 . S
O129 C115 1.268 . S
O130 Sc112 2.105 . S
O130 C114 1.268 . S
O131 Sc111 2.105 . S
O131 C116 1.268 . S
Sc132 O135 2.025 . S
Sc132 O142 2.105 . S
Sc132 O145 2.105 . S
Sc132 O148 2.105 . S
Sc132 O151 2.105 . S
Sc133 O135 2.025 . S
Sc133 O143 2.105 . S
Sc133 O147 2.105 . S
Sc133 O149 2.105 . S
Sc133 O153 2.105 . S
Sc134 O135 2.025 . S
Sc134 O144 2.105 . S
Sc134 O146 2.105 . S
Sc134 O150 2.105 . S
Sc134 O152 2.105 . S
O135 Sc132 2.025 . S
O135 Sc133 2.025 . S
O135 Sc134 2.025 . S
C136 O142 1.268 . S
C136 O152 1.268 . S
C137 O143 1.268 . S
C137 O151 1.268 . S
C138 O144 1.268 . S
C138 O153 1.268 . S
C139 O145 1.268 . S
C139 O149 1.268 . S
C140 O146 1.268 . S
C140 O148 1.268 . S
C141 O147 1.268 . S
C141 O150 1.268 . S
O142 Sc132 2.105 . S
O142 C136 1.268 . S
O143 Sc133 2.105 . S
O143 C137 1.268 . S
O144 Sc134 2.105 . S
O144 C138 1.268 . S
O145 Sc132 2.105 . S
O145 C139 1.268 . S
O146 Sc134 2.105 . S
O146 C140 1.268 . S
O147 Sc133 2.105 . S
O147 C141 1.268 . S
O148 Sc132 2.105 . S
O148 C140 1.268 . S
O149 Sc133 2.105 . S
O149 C139 1.268 . S
O150 Sc134 2.105 . S
O150 C141 1.268 . S
O151 Sc132 2.105 . S
O151 C137 1.268 . S
O152 Sc134 2.105 . S
O152 C136 1.268 . S
O153 Sc133 2.105 . S
O153 C138 1.268 . S
Sc154 O157 2.025 . S
Sc154 O164 2.105 . S
Sc154 O167 2.105 . S
Sc154 O170 2.105 . S
Sc154 O173 2.105 . S
Sc155 O157 2.025 . S
Sc155 O165 2.105 . S
Sc155 O169 2.107 1_655 S
Sc155 O171 2.105 . S
Sc155 O175 2.105 . S
Sc156 O157 2.025 . S
Sc156 O166 2.105 . S
Sc156 O168 2.105 . S
Sc156 O172 2.105 . S
Sc156 O174 2.105 . S
O157 Sc154 2.025 . S
O157 Sc155 2.025 . S
O157 Sc156 2.025 . S
C158 O164 1.268 . S
C158 O174 1.268 . S
C159 O165 1.268 . S
C159 O173 1.268 . S
C160 O166 1.268 . S
C160 O175 1.268 . S
C161 O167 1.268 . S
C161 O171 1.268 . S
C162 O168 1.268 . S
C162 O170 1.268 . S
C163 O169 1.268 1_655 S
C163 O172 1.268 . S
O164 Sc154 2.105 . S
O164 C158 1.268 . S
O165 Sc155 2.105 . S
O165 C159 1.268 . S
O166 Sc156 2.105 . S
O166 C160 1.268 . S
O167 Sc154 2.105 . S
O167 C161 1.268 . S
O168 Sc156 2.105 . S
O168 C162 1.268 . S
O169 Sc155 2.107 1_455 S
O169 C163 1.268 1_455 S
O170 Sc154 2.105 . S
O170 C162 1.268 . S
O171 Sc155 2.105 . S
O171 C161 1.268 . S
O172 Sc156 2.105 . S
O172 C163 1.268 . S
O173 Sc154 2.105 . S
O173 C159 1.268 . S
O174 Sc156 2.105 . S
O174 C158 1.268 . S
O175 Sc155 2.105 . S
O175 C160 1.268 . S
Sc176 O179 2.025 . S
Sc176 O186 2.105 . S
Sc176 O189 2.105 . S
Sc176 O192 2.105 . S
Sc176 O195 2.105 . S
Sc177 O179 2.025 . S
Sc177 O187 2.105 . S
Sc177 O191 2.105 . S
Sc177 O193 2.105 . S
Sc177 O197 2.105 . S
Sc178 O179 2.025 . S
Sc178 O188 2.105 . S
Sc178 O190 2.105 . S
Sc178 O194 2.105 . S
Sc178 O196 2.105 . S
O179 Sc176 2.025 . S
O179 Sc177 2.025 . S
O179 Sc178 2.025 . S
C180 O186 1.268 . S
C180 O196 1.268 . S
C181 O187 1.268 . S
C181 O195 1.268 . S
C182 O188 1.268 . S
C182 O197 1.268 . S
C183 O189 1.268 . S
C183 O193 1.268 . S
C184 O190 1.268 . S
C184 O192 1.268 . S
C185 O191 1.268 . S
C185 O194 1.268 . S
O186 Sc176 2.105 . S
O186 C180 1.268 . S
O187 Sc177 2.105 . S
O187 C181 1.268 . S
O188 Sc178 2.105 . S
O188 C182 1.268 . S
O189 Sc176 2.105 . S
O189 C183 1.268 . S
O190 Sc178 2.105 . S
O190 C184 1.268 . S
O191 Sc177 2.105 . S
O191 C185 1.268 . S
O192 Sc176 2.105 . S
O192 C184 1.268 . S
O193 Sc177 2.105 . S
O193 C183 1.268 . S
O194 Sc178 2.105 . S
O194 C185 1.268 . S
O195 Sc176 2.105 . S
O195 C181 1.268 . S
O196 Sc178 2.105 . S
O196 C180 1.268 . S
O197 Sc177 2.105 . S
O197 C182 1.268 . S
H198 C206 0.950 . S
H199 C211 0.950 1_556 S
H200 C208 0.950 . S
H201 C210 0.950 . S
H202 C212 0.950 . S
H203 C214 0.950 . S
H204 C216 0.950 . S
H205 C217 0.950 . S
C206 H198 0.950 . S
C206 C207 1.386 . S
C206 C208 1.391 . S
C207 C206 1.386 . S
C207 C211 1.393 . S
C208 H200 0.950 . S
C208 C206 1.391 . S
C208 C209 1.400 . S
C209 C208 1.400 . S
C209 C210 1.398 1_554 S
C209 C215 1.491 . S
C210 H201 0.950 . S
C210 C209 1.398 1_556 S
C210 C211 1.391 1_556 S
C211 H199 0.950 1_554 S
C211 C207 1.393 . S
C211 C210 1.391 1_554 S
C212 H202 0.950 . S
C212 C213 1.386 . S
C212 C214 1.391 . S
C213 C212 1.386 . S
C213 C217 1.393 1_556 S
C214 H203 0.950 . S
C214 C212 1.391 . S
C214 C215 1.400 1_556 S
C215 C209 1.491 . S
C215 C214 1.400 1_554 S
C215 C216 1.398 . S
C216 H204 0.950 . S
C216 C215 1.398 . S
C216 C217 1.391 . S
C217 H205 0.950 . S
C217 C213 1.393 1_554 S
C217 C216 1.391 . S
H218 C226 0.936 1_556 S
H219 C231 0.950 . S
H220 C228 0.950 . S
H221 C230 0.950 . S
H222 C232 0.950 . S
H223 C234 0.950 . S
H224 C236 0.950 . S
H225 C237 0.950 . S
C226 H218 0.936 1_554 S
C226 C227 1.404 . S
C226 C228 1.386 1_554 S
C227 C226 1.404 . S
C227 C231 1.393 . S
C228 H220 0.950 . S
C228 C226 1.386 1_556 S
C228 C229 1.400 1_556 S
C229 C228 1.400 1_554 S
C229 C230 1.398 . S
C229 C235 1.491 . S
C230 H221 0.950 . S
C230 C229 1.398 . S
C230 C231 1.391 . S
C231 H219 0.950 . S
C231 C227 1.393 . S
C231 C230 1.391 . S
C232 H222 0.950 . S
C232 C233 1.386 1_554 S
C232 C234 1.391 . S
C233 C232 1.386 1_556 S
C233 C237 1.393 . S
C234 H223 0.950 . S
C234 C232 1.391 . S
C234 C235 1.400 . S
C235 C229 1.491 . S
C235 C234 1.400 . S
C235 C236 1.398 1_554 S
C236 H224 0.950 . S
C236 C235 1.398 1_556 S
C236 C237 1.391 . S
C237 H225 0.950 . S
C237 C233 1.393 . S
C237 C236 1.391 . S
H238 C246 0.950 . S
H239 C251 0.950 . S
H240 C248 0.950 . S
H241 C250 0.950 . S
H242 C252 0.950 . S
H243 C254 0.950 1_556 S
H244 C256 0.950 . S
H245 C257 0.950 . S
C246 H238 0.950 . S
C246 C247 1.386 1_554 S
C246 C248 1.391 . S
C247 C246 1.386 1_556 S
C247 C251 1.393 . S
C248 H240 0.950 . S
C248 C246 1.391 . S
C248 C249 1.400 . S
C249 C248 1.400 . S
C249 C250 1.398 1_554 S
C249 C255 1.491 . S
C250 H241 0.950 . S
C250 C249 1.398 1_556 S
C250 C251 1.391 . S
C251 H239 0.950 . S
C251 C247 1.393 . S
C251 C250 1.391 . S
C252 H242 0.950 . S
C252 C253 1.386 . S
C252 C254 1.391 . S
C253 C252 1.386 . S
C253 C257 1.393 . S
C254 H243 0.950 1_554 S
C254 C252 1.391 . S
C254 C255 1.400 . S
C255 C249 1.491 . S
C255 C254 1.400 . S
C255 C256 1.398 . S
C256 H244 0.950 . S
C256 C255 1.398 . S
C256 C257 1.391 . S
C257 H245 0.950 . S
C257 C253 1.393 . S
C257 C256 1.391 . S
H258 C266 0.950 . S
H259 C271 0.950 . S
H260 C268 0.950 . S
H261 C270 0.950 . S
H262 C272 0.950 . S
H263 C274 0.950 . S
H264 C276 0.950 . S
H265 C277 0.950 . S
C266 H258 0.950 . S
C266 C267 1.386 1_556 S
C266 C268 1.391 . S
C267 C266 1.386 1_554 S
C267 C271 1.393 . S
C268 H260 0.950 . S
C268 C266 1.391 . S
C268 C269 1.400 1_556 S
C269 C268 1.400 1_554 S
C269 C270 1.398 . S
C269 C275 1.491 1_554 S
C270 H261 0.950 . S
C270 C269 1.398 . S
C270 C271 1.391 . S
C271 H259 0.950 . S
C271 C267 1.393 . S
C271 C270 1.391 . S
C272 H262 0.950 . S
C272 C273 1.386 1_554 S
C272 C274 1.391 . S
C273 C272 1.386 1_556 S
C273 C277 1.393 . S
C274 H263 0.950 . S
C274 C272 1.391 . S
C274 C275 1.400 1_554 S
C275 C269 1.491 1_556 S
C275 C274 1.400 1_556 S
C275 C276 1.398 . S
C276 H264 0.950 . S
C276 C275 1.398 . S
C276 C277 1.391 . S
C277 H265 0.950 . S
C277 C273 1.393 . S
C277 C276 1.391 . S
H278 C286 0.950 . S
H279 C291 0.950 . S
H280 C288 0.950 . S
H281 C290 0.950 . S
H282 C292 0.950 . S
H283 C294 0.950 . S
H284 C296 0.950 . S
H285 C297 0.950 . S
C286 H278 0.950 . S
C286 C287 1.386 . S
C286 C288 1.391 . S
C287 C286 1.386 . S
C287 C291 1.393 1_556 S
C288 H280 0.950 . S
C288 C286 1.391 . S
C288 C289 1.400 . S
C289 C288 1.400 . S
C289 C290 1.398 1_556 S
C289 C295 1.491 1_556 S
C290 H281 0.950 . S
C290 C289 1.398 1_554 S
C290 C291 1.391 . S
C291 H279 0.950 . S
C291 C287 1.393 1_554 S
C291 C290 1.391 . S
C292 H282 0.950 . S
C292 C293 1.386 . S
C292 C294 1.391 . S
C293 C292 1.386 . S
C293 C297 1.393 1_554 S
C294 H283 0.950 . S
C294 C292 1.391 . S
C294 C295 1.400 . S
C295 C289 1.491 1_554 S
C295 C294 1.400 . S
C295 C296 1.398 1_554 S
C296 H284 0.950 . S
C296 C295 1.398 1_556 S
C296 C297 1.391 . S
C297 H285 0.950 . S
C297 C293 1.393 1_556 S
C297 C296 1.391 . S
H298 C306 0.950 . S
H299 C311 0.950 . S
H300 C308 0.950 . S
H301 C310 0.950 . S
H302 C312 0.950 . S
H303 C314 0.950 . S
H304 C316 0.950 . S
H305 C317 0.950 . S
C306 H298 0.950 . S
C306 C307 1.386 . S
C306 C308 1.391 . S
C307 C306 1.386 . S
C307 C311 1.393 1_556 S
C308 H300 0.950 . S
C308 C306 1.391 . S
C308 C309 1.400 . S
C309 C308 1.400 . S
C309 C310 1.398 1_556 S
C309 C315 1.491 1_556 S
C310 H301 0.950 . S
C310 C309 1.398 1_554 S
C310 C311 1.391 . S
C311 H299 0.950 . S
C311 C307 1.393 1_554 S
C311 C310 1.391 . S
C312 H302 0.950 . S
C312 C313 1.386 . S
C312 C314 1.391 . S
C313 C312 1.386 . S
C313 C317 1.393 1_554 S
C314 H303 0.950 . S
C314 C312 1.391 . S
C314 C315 1.400 . S
C315 C309 1.491 1_554 S
C315 C314 1.400 . S
C315 C316 1.398 1_554 S
C316 H304 0.950 . S
C316 C315 1.398 1_556 S
C316 C317 1.391 . S
C317 H305 0.950 . S
C317 C313 1.393 1_556 S
C317 C316 1.391 . S
H318 C326 0.950 . S
H319 C331 0.950 . S
H320 C328 0.950 . S
H321 C330 0.950 . S
H322 C332 0.950 . S
H323 C334 0.950 . S
H324 C336 0.950 1_655 S
H325 C337 0.950 . S
C326 H318 0.950 . S
C326 C327 1.386 . S
C326 C328 1.391 . S
C327 C326 1.386 . S
C327 C331 1.393 . S
C328 H320 0.950 . S
C328 C326 1.391 . S
C328 C329 1.400 . S
C329 C328 1.400 . S
C329 C330 1.398 . S
C329 C335 1.491 . S
C330 H321 0.950 . S
C330 C329 1.398 . S
C330 C331 1.391 . S
C331 H319 0.950 . S
C331 C327 1.393 . S
C331 C330 1.391 . S
C332 H322 0.950 . S
C332 C333 1.386 . S
C332 C334 1.391 1_455 S
C333 C332 1.386 . S
C333 C337 1.393 . S
C334 H323 0.950 . S
C334 C332 1.391 1_655 S
C334 C335 1.400 . S
C335 C329 1.491 . S
C335 C334 1.400 . S
C335 C336 1.398 1_655 S
C336 H324 0.950 1_455 S
C336 C335 1.398 1_455 S
C336 C337 1.391 . S
C337 H325 0.950 . S
C337 C333 1.393 . S
C337 C336 1.391 . S
H338 C346 0.950 . S
H339 C351 0.950 . S
H340 C348 0.950 . S
H341 C350 0.950 . S
H342 C352 0.950 . S
H343 C354 0.950 . S
H344 C356 0.950 . S
H345 C357 0.950 1_565 S
C346 H338 0.950 . S
C346 C347 1.386 . S
C346 C348 1.391 . S
C347 C346 1.386 . S
C347 C351 1.393 . S
C348 H340 0.950 . S
C348 C346 1.391 . S
C348 C349 1.400 . S
C349 C348 1.400 . S
C349 C350 1.398 . S
C349 C355 1.491 . S
C350 H341 0.950 . S
C350 C349 1.398 . S
C350 C351 1.391 . S
C351 H339 0.950 . S
C351 C347 1.393 . S
C351 C350 1.391 . S
C352 H342 0.950 . S
C352 C353 1.386 . S
C352 C354 1.391 . S
C353 C352 1.386 . S
C353 C357 1.393 . S
C354 H343 0.950 . S
C354 C352 1.391 . S
C354 C355 1.400 . S
C355 C349 1.491 . S
C355 C354 1.400 . S
C355 C356 1.398 . S
C356 H344 0.950 . S
C356 C355 1.398 . S
C356 C357 1.391 . S
C357 H345 0.950 1_545 S
C357 C353 1.393 . S
C357 C356 1.391 . S
H358 C366 0.950 . S
H359 C371 0.950 . S
H360 C368 0.950 . S
H361 C370 0.950 . S
H362 C372 0.950 . S
H363 C374 0.951 1_545 S
H364 C376 0.950 . S
H365 C377 0.950 . S
C366 H358 0.950 . S
C366 C367 1.386 . S
C366 C368 1.391 . S
C367 C366 1.386 . S
C367 C371 1.393 . S
C368 H360 0.950 . S
C368 C366 1.391 . S
C368 C369 1.400 . S
C369 C368 1.400 . S
C369 C370 1.398 . S
C369 C375 1.491 . S
C370 H361 0.950 . S
C370 C369 1.398 . S
C370 C371 1.391 . S
C371 H359 0.950 . S
C371 C367 1.393 . S
C371 C370 1.391 . S
C372 H362 0.950 . S
C372 C373 1.386 . S
C372 C374 1.399 . S
C373 C372 1.386 . S
C373 C377 1.393 . S
C374 H363 0.951 1_565 S
C374 C372 1.399 . S
C374 C375 1.391 1_565 S
C375 C369 1.491 . S
C375 C374 1.391 1_545 S
C375 C376 1.398 . S
C376 H364 0.950 . S
C376 C375 1.398 . S
C376 C377 1.391 1_545 S
C377 H365 0.950 . S
C377 C373 1.393 . S
C377 C376 1.391 1_565 S
H378 C386 0.950 . S
H379 C391 0.950 . S
H380 C388 0.950 . S
H381 C390 0.950 . S
H382 C392 0.950 . S
H383 C394 0.950 . S
H384 C396 0.950 . S
H385 C397 0.950 . S
C386 H378 0.950 . S
C386 C387 1.386 . S
C386 C388 1.391 . S
C387 C386 1.386 . S
C387 C391 1.393 . S
C388 H380 0.950 . S
C388 C386 1.391 . S
C388 C389 1.400 . S
C389 C388 1.400 . S
C389 C390 1.398 . S
C389 C395 1.491 . S
C390 H381 0.950 . S
C390 C389 1.398 . S
C390 C391 1.391 . S
C391 H379 0.950 . S
C391 C387 1.393 . S
C391 C390 1.391 . S
C392 H382 0.950 . S
C392 C393 1.386 . S
C392 C394 1.391 . S
C393 C392 1.386 . S
C393 C397 1.393 . S
C394 H383 0.950 . S
C394 C392 1.391 . S
C394 C395 1.400 . S
C395 C389 1.491 . S
C395 C394 1.400 . S
C395 C396 1.398 . S
C396 H384 0.950 . S
C396 C395 1.398 . S
C396 C397 1.391 . S
C397 H385 0.950 . S
C397 C393 1.393 . S
C397 C396 1.391 . S
H398 C406 0.950 . S
H399 C411 0.950 . S
H400 C408 0.950 . S
H401 C410 0.950 . S
H402 C412 0.950 . S
H403 C414 0.950 . S
H404 C416 0.950 . S
H405 C417 0.950 . S
C406 H398 0.950 . S
C406 C407 1.386 . S
C406 C408 1.391 . S
C407 C406 1.386 . S
C407 C411 1.393 . S
C408 H400 0.950 . S
C408 C406 1.391 . S
C408 C409 1.400 . S
C409 C408 1.400 . S
C409 C410 1.398 . S
C409 C415 1.491 . S
C410 H401 0.950 . S
C410 C409 1.398 . S
C410 C411 1.391 . S
C411 H399 0.950 . S
C411 C407 1.393 . S
C411 C410 1.391 . S
C412 H402 0.950 . S
C412 C413 1.386 . S
C412 C414 1.391 . S
C413 C412 1.386 . S
C413 C417 1.393 . S
C414 H403 0.950 . S
C414 C412 1.391 . S
C414 C415 1.400 . S
C415 C409 1.491 . S
C415 C414 1.400 . S
C415 C416 1.398 . S
C416 H404 0.950 . S
C416 C415 1.398 . S
C416 C417 1.391 . S
C417 H405 0.950 . S
C417 C413 1.393 . S
C417 C416 1.391 . S
H418 C426 0.950 . S
H419 C431 0.950 . S
H420 C428 0.950 . S
H421 C430 0.950 . S
H422 C432 0.950 . S
H423 C434 0.950 . S
H424 C436 0.950 . S
H425 C437 0.950 . S
C426 H418 0.950 . S
C426 C427 1.386 . S
C426 C428 1.391 . S
C427 C426 1.386 . S
C427 C431 1.393 . S
C428 H420 0.950 . S
C428 C426 1.391 . S
C428 C429 1.400 . S
C429 C428 1.400 . S
C429 C430 1.398 . S
C429 C435 1.491 . S
C430 H421 0.950 . S
C430 C429 1.398 . S
C430 C431 1.391 . S
C431 H419 0.950 . S
C431 C427 1.393 . S
C431 C430 1.391 . S
C432 H422 0.950 . S
C432 C433 1.386 . S
C432 C434 1.391 . S
C433 C432 1.386 . S
C433 C437 1.393 . S
C434 H423 0.950 . S
C434 C432 1.391 . S
C434 C435 1.400 . S
C435 C429 1.491 . S
C435 C434 1.400 . S
C435 C436 1.398 . S
C436 H424 0.950 . S
C436 C435 1.398 . S
C436 C437 1.391 . S
C437 H425 0.950 . S
C437 C433 1.393 . S
C437 C436 1.391 . S
H438 C446 0.950 . S
H439 C451 0.950 . S
H440 C448 0.950 . S
H441 C450 0.950 . S
H442 C452 0.950 . S
H443 C454 0.950 . S
H444 C456 0.950 . S
H445 C457 0.950 . S
C446 H438 0.950 . S
C446 C447 1.386 . S
C446 C448 1.391 . S
C447 C446 1.386 . S
C447 C451 1.393 . S
C448 H440 0.950 . S
C448 C446 1.391 . S
C448 C449 1.400 . S
C449 C448 1.400 . S
C449 C450 1.398 . S
C449 C455 1.491 . S
C450 H441 0.950 . S
C450 C449 1.398 . S
C450 C451 1.391 . S
C451 H439 0.950 . S
C451 C447 1.393 . S
C451 C450 1.391 . S
C452 H442 0.950 . S
C452 C453 1.386 . S
C452 C454 1.391 . S
C453 C452 1.386 . S
C453 C457 1.393 . S
C454 H443 0.950 . S
C454 C452 1.391 . S
C454 C455 1.400 . S
C455 C449 1.491 . S
C455 C454 1.400 . S
C455 C456 1.398 . S
C456 H444 0.950 . S
C456 C455 1.398 . S
C456 C457 1.391 . S
C457 H445 0.950 . S
C457 C453 1.393 . S
C457 C456 1.391 . S
H458 C466 0.950 . S
H459 C471 0.950 . S
H460 C468 0.950 . S
H461 C470 0.950 . S
H462 C472 0.950 . S
H463 C474 0.950 . S
H464 C476 0.950 . S
H465 C477 0.950 . S
C466 H458 0.950 . S
C466 C467 1.386 . S
C466 C468 1.391 . S
C467 C466 1.386 . S
C467 C471 1.393 . S
C468 H460 0.950 . S
C468 C466 1.391 . S
C468 C469 1.400 . S
C469 C468 1.400 . S
C469 C470 1.398 . S
C469 C475 1.491 . S
C470 H461 0.950 . S
C470 C469 1.398 . S
C470 C471 1.391 . S
C471 H459 0.950 . S
C471 C467 1.393 . S
C471 C470 1.391 . S
C472 H462 0.950 . S
C472 C473 1.386 . S
C472 C474 1.391 . S
C473 C472 1.386 . S
C473 C477 1.393 . S
C474 H463 0.950 . S
C474 C472 1.391 . S
C474 C475 1.400 . S
C475 C469 1.491 . S
C475 C474 1.400 . S
C475 C476 1.398 . S
C476 H464 0.950 . S
C476 C475 1.398 . S
C476 C477 1.391 . S
C477 H465 0.950 . S
C477 C473 1.393 . S
C477 C476 1.391 . S
H478 C486 0.950 . S
H479 C491 0.950 . S
H480 C488 0.950 . S
H481 C490 0.950 . S
H482 C492 0.950 . S
H483 C494 0.950 . S
H484 C496 0.950 . S
H485 C497 0.950 . S
C486 H478 0.950 . S
C486 C487 1.386 . S
C486 C488 1.391 . S
C487 C486 1.386 . S
C487 C491 1.393 . S
C488 H480 0.950 . S
C488 C486 1.391 . S
C488 C489 1.400 . S
C489 C488 1.400 . S
C489 C490 1.398 . S
C489 C495 1.491 . S
C490 H481 0.950 . S
C490 C489 1.398 . S
C490 C491 1.391 . S
C491 H479 0.950 . S
C491 C487 1.393 . S
C491 C490 1.391 . S
C492 H482 0.950 . S
C492 C493 1.386 . S
C492 C494 1.391 . S
C493 C492 1.386 . S
C493 C497 1.393 . S
C494 H483 0.950 . S
C494 C492 1.391 . S
C494 C495 1.400 . S
C495 C489 1.491 . S
C495 C494 1.400 . S
C495 C496 1.398 . S
C496 H484 0.950 . S
C496 C495 1.398 . S
C496 C497 1.391 . S
C497 H485 0.950 . S
C497 C493 1.393 . S
C497 C496 1.391 . S
H498 C506 0.950 . S
H499 C511 0.950 . S
H500 C508 0.950 . S
H501 C510 0.950 . S
H502 C512 0.950 . S
H503 C514 0.950 1_565 S
H504 C516 0.950 . S
H505 C517 0.950 . S
C506 H498 0.950 . S
C506 C507 1.386 . S
C506 C508 1.391 . S
C507 C506 1.386 . S
C507 C511 1.393 . S
C508 H500 0.950 . S
C508 C506 1.391 . S
C508 C509 1.400 . S
C509 C508 1.400 . S
C509 C510 1.398 . S
C509 C515 1.491 . S
C510 H501 0.950 . S
C510 C509 1.398 . S
C510 C511 1.391 . S
C511 H499 0.950 . S
C511 C507 1.393 . S
C511 C510 1.391 . S
C512 H502 0.950 . S
C512 C513 1.386 . S
C512 C514 1.391 . S
C513 C512 1.386 . S
C513 C517 1.393 . S
C514 H503 0.950 1_545 S
C514 C512 1.391 . S
C514 C515 1.400 1_545 S
C515 C509 1.491 . S
C515 C514 1.400 1_565 S
C515 C516 1.398 . S
C516 H504 0.950 . S
C516 C515 1.398 . S
C516 C517 1.391 1_565 S
C517 H505 0.950 . S
C517 C513 1.393 . S
C517 C516 1.391 1_545 S
H518 C526 0.950 . S
H519 C531 0.950 . S
H520 C528 0.950 . S
H521 C530 0.950 . S
H522 C532 0.950 . S
H523 C534 0.950 . S
H524 C536 0.950 . S
H525 C537 0.950 . S
C526 H518 0.950 . S
C526 C527 1.386 . S
C526 C528 1.391 . S
C527 C526 1.386 . S
C527 C531 1.393 . S
C528 H520 0.950 . S
C528 C526 1.391 . S
C528 C529 1.400 1_655 S
C529 C528 1.400 1_455 S
C529 C530 1.398 . S
C529 C535 1.491 . S
C530 H521 0.950 . S
C530 C529 1.398 . S
C530 C531 1.391 1_455 S
C531 H519 0.950 . S
C531 C527 1.393 . S
C531 C530 1.391 1_655 S
C532 H522 0.950 . S
C532 C533 1.386 . S
C532 C534 1.391 . S
C533 C532 1.386 . S
C533 C537 1.393 . S
C534 H523 0.950 . S
C534 C532 1.391 . S
C534 C535 1.400 . S
C535 C529 1.491 . S
C535 C534 1.400 . S
C535 C536 1.398 . S
C536 H524 0.950 . S
C536 C535 1.398 . S
C536 C537 1.391 . S
C537 H525 0.950 . S
C537 C533 1.393 . S
C537 C536 1.391 . S
H538 C546 0.950 . S
H539 C551 0.950 . S
H540 C548 0.950 . S
H541 C550 0.950 . S
H542 C552 0.950 1_655 S
H543 C554 0.950 . S
H544 C556 0.950 . S
H545 C557 0.950 . S
C546 H538 0.950 . S
C546 C547 1.386 . S
C546 C548 1.391 . S
C547 C546 1.386 . S
C547 C551 1.393 . S
C548 H540 0.950 . S
C548 C546 1.391 . S
C548 C549 1.400 . S
C549 C548 1.400 . S
C549 C550 1.398 . S
C549 C555 1.491 . S
C550 H541 0.950 . S
C550 C549 1.398 . S
C550 C551 1.391 . S
C551 H539 0.950 . S
C551 C547 1.393 . S
C551 C550 1.391 . S
C552 H542 0.950 1_455 S
C552 C553 1.386 . S
C552 C554 1.391 . S
C553 C552 1.386 . S
C553 C557 1.393 . S
C554 H543 0.950 . S
C554 C552 1.391 . S
C554 C555 1.400 . S
C555 C549 1.491 . S
C555 C554 1.400 . S
C555 C556 1.398 . S
C556 H544 0.950 . S
C556 C555 1.398 . S
C556 C557 1.391 . S
C557 H545 0.950 . S
C557 C553 1.393 . S
C557 C556 1.391 . S
H558 C566 0.950 . S
H559 C571 0.950 . S
H560 C568 0.950 . S
H561 C570 0.950 . S
H562 C572 0.950 . S
H563 C574 0.950 . S
H564 C576 0.950 . S
H565 C577 0.950 . S
C566 H558 0.950 . S
C566 C567 1.386 . S
C566 C568 1.391 . S
C567 C566 1.386 . S
C567 C571 1.393 . S
C568 H560 0.950 . S
C568 C566 1.391 . S
C568 C569 1.400 . S
C569 C568 1.400 . S
C569 C570 1.398 . S
C569 C575 1.491 . S
C570 H561 0.950 . S
C570 C569 1.398 . S
C570 C571 1.391 . S
C571 H559 0.950 . S
C571 C567 1.393 . S
C571 C570 1.391 . S
C572 H562 0.950 . S
C572 C573 1.386 . S
C572 C574 1.391 . S
C573 C572 1.386 . S
C573 C577 1.393 . S
C574 H563 0.950 . S
C574 C572 1.391 . S
C574 C575 1.400 . S
C575 C569 1.491 . S
C575 C574 1.400 . S
C575 C576 1.398 . S
C576 H564 0.950 . S
C576 C575 1.398 . S
C576 C577 1.391 . S
C577 H565 0.950 . S
C577 C573 1.393 . S
C577 C576 1.391 . S
H578 C586 0.950 . S
H579 C591 0.950 . S
H580 C588 0.950 . S
H581 C590 0.950 . S
H582 C592 0.950 . S
H583 C594 0.950 . S
H584 C596 0.950 . S
H585 C597 0.950 . S
C586 H578 0.950 . S
C586 C587 1.386 . S
C586 C588 1.391 . S
C587 C586 1.386 . S
C587 C591 1.393 . S
C588 H580 0.950 . S
C588 C586 1.391 . S
C588 C589 1.400 . S
C589 C588 1.400 . S
C589 C590 1.398 . S
C589 C595 1.491 . S
C590 H581 0.950 . S
C590 C589 1.398 . S
C590 C591 1.391 . S
C591 H579 0.950 . S
C591 C587 1.393 . S
C591 C590 1.391 . S
C592 H582 0.950 . S
C592 C593 1.386 . S
C592 C594 1.391 . S
C593 C592 1.386 . S
C593 C597 1.393 . S
C594 H583 0.950 . S
C594 C592 1.391 . S
C594 C595 1.400 . S
C595 C589 1.491 . S
C595 C594 1.400 . S
C595 C596 1.398 . S
C596 H584 0.950 . S
C596 C595 1.398 . S
C596 C597 1.391 . S
C597 H585 0.950 . S
C597 C593 1.393 . S
C597 C596 1.391 . S
H598 C606 0.950 . S
H599 C611 0.950 . S
H600 C608 0.934 1_545 S
H601 C610 0.950 . S
H602 C612 0.950 . S
H603 C614 0.950 . S
H604 C616 0.950 1_545 S
H605 C617 0.950 1_545 S
C606 H598 0.950 . S
C606 C607 1.386 1_545 S
C606 C608 1.391 1_545 S
C607 C606 1.386 1_565 S
C607 C611 1.393 . S
C608 H600 0.934 1_565 S
C608 C606 1.391 1_565 S
C608 C609 1.416 . S
C609 C608 1.416 . S
C609 C610 1.398 . S
C609 C615 1.491 . S
C610 H601 0.950 . S
C610 C609 1.398 . S
C610 C611 1.391 . S
C611 H599 0.950 . S
C611 C607 1.393 . S
C611 C610 1.391 . S
C612 H602 0.950 . S
C612 C613 1.386 . S
C612 C614 1.391 . S
C613 C612 1.386 . S
C613 C617 1.393 . S
C614 H603 0.950 . S
C614 C612 1.391 . S
C614 C615 1.400 . S
C615 C609 1.491 . S
C615 C614 1.400 . S
C615 C616 1.398 . S
C616 H604 0.950 1_565 S
C616 C615 1.398 . S
C616 C617 1.391 . S
C617 H605 0.950 1_565 S
C617 C613 1.393 . S
C617 C616 1.391 . S
H618 C626 0.950 . S
H619 C631 0.950 1_565 S
H620 C628 0.950 . S
H621 C630 0.950 1_565 S
H622 C632 0.950 . S
H623 C634 0.950 1_565 S
H624 C636 0.950 . S
H625 C637 0.950 . S
C626 H618 0.950 . S
C626 C627 1.386 . S
C626 C628 1.391 . S
C627 C626 1.386 . S
C627 C631 1.393 . S
C628 H620 0.950 . S
C628 C626 1.391 . S
C628 C629 1.400 . S
C629 C628 1.400 . S
C629 C630 1.398 . S
C629 C635 1.491 . S
C630 H621 0.950 1_545 S
C630 C629 1.398 . S
C630 C631 1.391 . S
C631 H619 0.950 1_545 S
C631 C627 1.393 . S
C631 C630 1.391 . S
C632 H622 0.950 . S
C632 C633 1.386 . S
C632 C634 1.391 . S
C633 C632 1.386 . S
C633 C637 1.393 . S
C634 H623 0.950 1_545 S
C634 C632 1.391 . S
C634 C635 1.400 . S
C635 C629 1.491 . S
C635 C634 1.400 . S
C635 C636 1.398 . S
C636 H624 0.950 . S
C636 C635 1.398 . S
C636 C637 1.391 . S
C637 H625 0.950 . S
C637 C633 1.393 . S
C637 C636 1.391 . S
H638 C646 0.950 . S
H639 C651 0.950 . S
H640 C648 0.950 . S
H641 C650 0.950 . S
H642 C652 0.950 . S
H643 C654 0.950 . S
H644 C656 0.950 . S
H645 C657 0.950 . S
C646 H638 0.950 . S
C646 C647 1.386 . S
C646 C648 1.391 . S
C647 C646 1.386 . S
C647 C651 1.393 . S
C648 H640 0.950 . S
C648 C646 1.391 . S
C648 C649 1.400 . S
C649 C648 1.400 . S
C649 C650 1.398 . S
C649 C655 1.491 . S
C650 H641 0.950 . S
C650 C649 1.398 . S
C650 C651 1.391 . S
C651 H639 0.950 . S
C651 C647 1.393 . S
C651 C650 1.391 . S
C652 H642 0.950 . S
C652 C653 1.386 . S
C652 C654 1.391 . S
C653 C652 1.386 . S
C653 C657 1.393 . S
C654 H643 0.950 . S
C654 C652 1.391 . S
C654 C655 1.400 . S
C655 C649 1.491 . S
C655 C654 1.400 . S
C655 C656 1.398 . S
C656 H644 0.950 . S
C656 C655 1.398 . S
C656 C657 1.391 . S
C657 H645 0.950 . S
C657 C653 1.393 . S
C657 C656 1.391 . S
H658 C666 0.950 . S
H659 C671 0.950 . S
H660 C668 0.950 . S
H661 C670 0.950 . S
H662 C672 0.950 . S
H663 C674 0.950 . S
H664 C676 0.950 . S
H665 C677 0.950 . S
C666 H658 0.950 . S
C666 C667 1.386 . S
C666 C668 1.391 . S
C667 C666 1.386 . S
C667 C671 1.393 . S
C668 H660 0.950 . S
C668 C666 1.391 . S
C668 C669 1.400 . S
C669 C668 1.400 . S
C669 C670 1.398 . S
C669 C675 1.491 . S
C670 H661 0.950 . S
C670 C669 1.398 . S
C670 C671 1.391 . S
C671 H659 0.950 . S
C671 C667 1.393 . S
C671 C670 1.391 . S
C672 H662 0.950 . S
C672 C673 1.386 . S
C672 C674 1.391 . S
C673 C672 1.386 . S
C673 C677 1.393 . S
C674 H663 0.950 . S
C674 C672 1.391 . S
C674 C675 1.400 . S
C675 C669 1.491 . S
C675 C674 1.400 . S
C675 C676 1.398 . S
C676 H664 0.950 . S
C676 C675 1.398 . S
C676 C677 1.391 . S
C677 H665 0.950 . S
C677 C673 1.393 . S
C677 C676 1.391 . S
H678 C686 0.950 . S
H679 C691 0.950 . S
H680 C688 0.950 . S
H681 C690 0.950 . S
H682 C692 0.950 . S
H683 C694 0.950 . S
H684 C696 0.950 . S
H685 C697 0.950 . S
C686 H678 0.950 . S
C686 C687 1.386 . S
C686 C688 1.391 . S
C687 C686 1.386 . S
C687 C691 1.393 . S
C688 H680 0.950 . S
C688 C686 1.391 . S
C688 C689 1.400 . S
C689 C688 1.400 . S
C689 C690 1.398 . S
C689 C695 1.491 . S
C690 H681 0.950 . S
C690 C689 1.398 . S
C690 C691 1.391 . S
C691 H679 0.950 . S
C691 C687 1.393 . S
C691 C690 1.391 . S
C692 H682 0.950 . S
C692 C693 1.386 . S
C692 C694 1.391 . S
C693 C692 1.386 . S
C693 C697 1.393 . S
C694 H683 0.950 . S
C694 C692 1.391 . S
C694 C695 1.400 . S
C695 C689 1.491 . S
C695 C694 1.400 . S
C695 C696 1.398 . S
C696 H684 0.950 . S
C696 C695 1.398 . S
C696 C697 1.391 . S
C697 H685 0.950 . S
C697 C693 1.393 . S
C697 C696 1.391 . S
H698 C706 0.950 . S
H699 C711 0.950 . S
H700 C708 0.950 . S
H701 C710 0.950 1_545 S
H702 C712 0.950 . S
H703 C714 0.950 . S
H704 C716 0.950 . S
H705 C717 0.950 . S
C706 H698 0.950 . S
C706 C707 1.386 . S
C706 C708 1.391 . S
C707 C706 1.386 . S
C707 C711 1.393 . S
C708 H700 0.950 . S
C708 C706 1.391 . S
C708 C709 1.400 . S
C709 C708 1.400 . S
C709 C710 1.398 . S
C709 C715 1.491 1_565 S
C710 H701 0.950 1_565 S
C710 C709 1.398 . S
C710 C711 1.391 . S
C711 H699 0.950 . S
C711 C707 1.393 . S
C711 C710 1.391 . S
C712 H702 0.950 . S
C712 C713 1.386 . S
C712 C714 1.391 . S
C713 C712 1.386 . S
C713 C717 1.393 . S
C714 H703 0.950 . S
C714 C712 1.391 . S
C714 C715 1.400 . S
C715 C709 1.491 1_545 S
C715 C714 1.400 . S
C715 C716 1.398 . S
C716 H704 0.950 . S
C716 C715 1.398 . S
C716 C717 1.391 . S
C717 H705 0.950 . S
C717 C713 1.393 . S
C717 C716 1.391 . S
H718 C726 0.950 . S
H719 C731 0.950 . S
H720 C728 0.950 . S
H721 C730 0.950 . S
H722 C732 0.950 . S
H723 C734 0.950 . S
H724 C736 0.950 . S
H725 C737 0.950 1_655 S
C726 H718 0.950 . S
C726 C727 1.386 . S
C726 C728 1.391 . S
C727 C726 1.386 . S
C727 C731 1.393 1_655 S
C728 H720 0.950 . S
C728 C726 1.391 . S
C728 C729 1.400 . S
C729 C728 1.400 . S
C729 C730 1.398 1_655 S
C729 C735 1.491 1_655 S
C730 H721 0.950 . S
C730 C729 1.398 1_455 S
C730 C731 1.391 . S
C731 H719 0.950 . S
C731 C727 1.393 1_455 S
C731 C730 1.391 . S
C732 H722 0.950 . S
C732 C733 1.386 . S
C732 C734 1.391 . S
C733 C732 1.386 . S
C733 C737 1.393 . S
C734 H723 0.950 . S
C734 C732 1.391 . S
C734 C735 1.400 . S
C735 C729 1.491 1_455 S
C735 C734 1.400 . S
C735 C736 1.398 1_455 S
C736 H724 0.950 . S
C736 C735 1.398 1_655 S
C736 C737 1.391 1_655 S
C737 H725 0.950 1_455 S
C737 C733 1.393 . S
C737 C736 1.391 1_455 S
C207 C26 1.376 . S
C213 C5 1.455 . S
C227 C48 1.370 . S
C233 C27 1.461 . S
C247 C49 1.452 . S
C253 C4 1.357 . S
C267 C53 1.453 . S
C273 C30 1.371 . S
C287 C52 1.367 . S
C293 C9 1.452 . S
C307 C8 1.378 . S
C313 C31 1.455 . S
C327 C71 1.462 . S
C333 C92 1.372 . S
C347 C114 1.355 . S
C353 C93 1.455 1_545 S
C367 C115 1.456 1_655 S
C373 C70 1.381 . S
C387 C96 1.390 . S
C393 C119 1.462 . S
C407 C118 1.358 . S
C413 C75 1.452 . S
C427 C97 1.460 . S
C433 C74 1.365 . S
C447 C158 1.389 . S
C453 C137 1.463 . S
C467 C159 1.452 . S
C473 C180 1.356 . S
C487 C181 1.463 . S
C493 C136 1.389 . S
C507 C185 1.464 . S
C513 C162 1.385 . S
C527 C184 1.361 . S
C533 C141 1.459 1_565 S
C547 C140 1.388 . S
C553 C163 1.463 1_455 S
C567 C117 1.380 . S
C573 C6 1.389 . S
C587 C73 1.390 . S
C593 C28 1.374 . S
C607 C50 1.381 . S
C613 C95 1.389 . S
C627 C51 1.377 . S
C633 C138 1.371 . S
C647 C7 1.370 . S
C653 C160 1.386 . S
C667 C182 1.387 . S
C673 C29 1.370 . S
C687 C72 1.382 . S
C693 C183 1.369 . S
C707 C94 1.386 . S
C713 C139 1.385 . S
C727 C161 1.378 . S
C733 C116 1.390 . S
