# Generated by pormake.
# Topology lcv-e, (6)-cn, num edge types: 1
# Building blocks:
#     Node 0, Type 0, BuildingBlock: OJICUG_clean_sbu_0, # of connection points: 6
#     Node 1, Type 0, BuildingBlock: OJICUG_clean_sbu_0, # of connection points: 6
#     Node 2, Type 0, BuildingBlock: OJICUG_clean_sbu_0, # of connection points: 6
#     Node 3, Type 0, BuildingBlock: OJICUG_clean_sbu_0, # of connection points: 6
#     Node 4, Type 0, BuildingBlock: OJICUG_clean_sbu_0, # of connection points: 6
#     Node 5, Type 0, BuildingBlock: OJICUG_clean_sbu_0, # of connection points: 6
#     Node 6, Type 0, BuildingBlock: OJICUG_clean_sbu_0, # of connection points: 6
#     Node 7, Type 0, BuildingBlock: OJICUG_clean_sbu_0, # of connection points: 6
#     Node 8, Type 0, BuildingBlock: OJICUG_clean_sbu_0, # of connection points: 6
#     Node 9, Type 0, BuildingBlock: OJICUG_clean_sbu_0, # of connection points: 6
#     Node 10, Type 0, BuildingBlock: OJICUG_clean_sbu_0, # of connection points: 6
#     Node 11, Type 0, BuildingBlock: OJICUG_clean_sbu_0, # of connection points: 6
#     Node 12, Type 0, BuildingBlock: OJICUG_clean_sbu_0, # of connection points: 6
#     Node 13, Type 0, BuildingBlock: OJICUG_clean_sbu_0, # of connection points: 6
#     Node 14, Type 0, BuildingBlock: OJICUG_clean_sbu_0, # of connection points: 6
#     Node 15, Type 0, BuildingBlock: OJICUG_clean_sbu_0, # of connection points: 6
#     Node 16, Type 0, BuildingBlock: OJICUG_clean_sbu_0, # of connection points: 6
#     Node 17, Type 0, BuildingBlock: OJICUG_clean_sbu_0, # of connection points: 6
#     Node 18, Type 0, BuildingBlock: OJICUG_clean_sbu_0, # of connection points: 6
#     Node 19, Type 0, BuildingBlock: OJICUG_clean_sbu_0, # of connection points: 6
#     Node 20, Type 0, BuildingBlock: OJICUG_clean_sbu_0, # of connection points: 6
#     Node 21, Type 0, BuildingBlock: OJICUG_clean_sbu_0, # of connection points: 6
#     Node 22, Type 0, BuildingBlock: OJICUG_clean_sbu_0, # of connection points: 6
#     Node 23, Type 0, BuildingBlock: OJICUG_clean_sbu_0, # of connection points: 6
#     Edge 24, Type (0, 0), BuildingBlock: OJICUG_clean_linker_0, # of connection points: 2
#     Edge 25, Type (0, 0), BuildingBlock: OJICUG_clean_linker_0, # of connection points: 2
#     Edge 26, Type (0, 0), BuildingBlock: OJICUG_clean_linker_0, # of connection points: 2
#     Edge 27, Type (0, 0), BuildingBlock: OJICUG_clean_linker_0, # of connection points: 2
#     Edge 28, Type (0, 0), BuildingBlock: OJICUG_clean_linker_0, # of connection points: 2
#     Edge 29, Type (0, 0), BuildingBlock: OJICUG_clean_linker_0, # of connection points: 2
#     Edge 30, Type (0, 0), BuildingBlock: OJICUG_clean_linker_0, # of connection points: 2
#     Edge 31, Type (0, 0), BuildingBlock: OJICUG_clean_linker_0, # of connection points: 2
#     Edge 32, Type (0, 0), BuildingBlock: OJICUG_clean_linker_0, # of connection points: 2
#     Edge 33, Type (0, 0), BuildingBlock: OJICUG_clean_linker_0, # of connection points: 2
#     Edge 34, Type (0, 0), BuildingBlock: OJICUG_clean_linker_0, # of connection points: 2
#     Edge 35, Type (0, 0), BuildingBlock: OJICUG_clean_linker_0, # of connection points: 2
#     Edge 36, Type (0, 0), BuildingBlock: OJICUG_clean_linker_0, # of connection points: 2
#     Edge 37, Type (0, 0), BuildingBlock: OJICUG_clean_linker_0, # of connection points: 2
#     Edge 38, Type (0, 0), BuildingBlock: OJICUG_clean_linker_0, # of connection points: 2
#     Edge 39, Type (0, 0), BuildingBlock: OJICUG_clean_linker_0, # of connection points: 2
#     Edge 40, Type (0, 0), BuildingBlock: OJICUG_clean_linker_0, # of connection points: 2
#     Edge 41, Type (0, 0), BuildingBlock: OJICUG_clean_linker_0, # of connection points: 2
#     Edge 42, Type (0, 0), BuildingBlock: OJICUG_clean_linker_0, # of connection points: 2
#     Edge 43, Type (0, 0), BuildingBlock: OJICUG_clean_linker_0, # of connection points: 2
#     Edge 44, Type (0, 0), BuildingBlock: OJICUG_clean_linker_0, # of connection points: 2
#     Edge 45, Type (0, 0), BuildingBlock: OJICUG_clean_linker_0, # of connection points: 2
#     Edge 46, Type (0, 0), BuildingBlock: OJICUG_clean_linker_0, # of connection points: 2
#     Edge 47, Type (0, 0), BuildingBlock: OJICUG_clean_linker_0, # of connection points: 2
#     Edge 48, Type (0, 0), BuildingBlock: OJICUG_clean_linker_0, # of connection points: 2
#     Edge 49, Type (0, 0), BuildingBlock: OJICUG_clean_linker_0, # of connection points: 2
#     Edge 50, Type (0, 0), BuildingBlock: OJICUG_clean_linker_0, # of connection points: 2
#     Edge 51, Type (0, 0), BuildingBlock: OJICUG_clean_linker_0, # of connection points: 2
#     Edge 52, Type (0, 0), BuildingBlock: OJICUG_clean_linker_0, # of connection points: 2
#     Edge 53, Type (0, 0), BuildingBlock: OJICUG_clean_linker_0, # of connection points: 2
#     Edge 54, Type (0, 0), BuildingBlock: OJICUG_clean_linker_0, # of connection points: 2
#     Edge 55, Type (0, 0), BuildingBlock: OJICUG_clean_linker_0, # of connection points: 2
#     Edge 56, Type (0, 0), BuildingBlock: OJICUG_clean_linker_0, # of connection points: 2
#     Edge 57, Type (0, 0), BuildingBlock: OJICUG_clean_linker_0, # of connection points: 2
#     Edge 58, Type (0, 0), BuildingBlock: OJICUG_clean_linker_0, # of connection points: 2
#     Edge 59, Type (0, 0), BuildingBlock: OJICUG_clean_linker_0, # of connection points: 2
#     Edge 60, Type (0, 0), BuildingBlock: OJICUG_clean_linker_0, # of connection points: 2
#     Edge 61, Type (0, 0), BuildingBlock: OJICUG_clean_linker_0, # of connection points: 2
#     Edge 62, Type (0, 0), BuildingBlock: OJICUG_clean_linker_0, # of connection points: 2
#     Edge 63, Type (0, 0), BuildingBlock: OJICUG_clean_linker_0, # of connection points: 2
#     Edge 64, Type (0, 0), BuildingBlock: OJICUG_clean_linker_0, # of connection points: 2
#     Edge 65, Type (0, 0), BuildingBlock: OJICUG_clean_linker_0, # of connection points: 2
#     Edge 66, Type (0, 0), BuildingBlock: OJICUG_clean_linker_0, # of connection points: 2
#     Edge 67, Type (0, 0), BuildingBlock: OJICUG_clean_linker_0, # of connection points: 2
#     Edge 68, Type (0, 0), BuildingBlock: OJICUG_clean_linker_0, # of connection points: 2
#     Edge 69, Type (0, 0), BuildingBlock: OJICUG_clean_linker_0, # of connection points: 2
#     Edge 70, Type (0, 0), BuildingBlock: OJICUG_clean_linker_0, # of connection points: 2
#     Edge 71, Type (0, 0), BuildingBlock: OJICUG_clean_linker_0, # of connection points: 2
#     Edge 72, Type (0, 0), BuildingBlock: OJICUG_clean_linker_0, # of connection points: 2
#     Edge 73, Type (0, 0), BuildingBlock: OJICUG_clean_linker_0, # of connection points: 2
#     Edge 74, Type (0, 0), BuildingBlock: OJICUG_clean_linker_0, # of connection points: 2
#     Edge 75, Type (0, 0), BuildingBlock: OJICUG_clean_linker_0, # of connection points: 2
#     Edge 76, Type (0, 0), BuildingBlock: OJICUG_clean_linker_0, # of connection points: 2
#     Edge 77, Type (0, 0), BuildingBlock: OJICUG_clean_linker_0, # of connection points: 2
#     Edge 78, Type (0, 0), BuildingBlock: OJICUG_clean_linker_0, # of connection points: 2
#     Edge 79, Type (0, 0), BuildingBlock: OJICUG_clean_linker_0, # of connection points: 2
#     Edge 80, Type (0, 0), BuildingBlock: OJICUG_clean_linker_0, # of connection points: 2
#     Edge 81, Type (0, 0), BuildingBlock: OJICUG_clean_linker_0, # of connection points: 2
#     Edge 82, Type (0, 0), BuildingBlock: OJICUG_clean_linker_0, # of connection points: 2
#     Edge 83, Type (0, 0), BuildingBlock: OJICUG_clean_linker_0, # of connection points: 2
#     Edge 84, Type (0, 0), BuildingBlock: OJICUG_clean_linker_0, # of connection points: 2
#     Edge 85, Type (0, 0), BuildingBlock: OJICUG_clean_linker_0, # of connection points: 2
#     Edge 86, Type (0, 0), BuildingBlock: OJICUG_clean_linker_0, # of connection points: 2
#     Edge 87, Type (0, 0), BuildingBlock: OJICUG_clean_linker_0, # of connection points: 2
#     Edge 88, Type (0, 0), BuildingBlock: OJICUG_clean_linker_0, # of connection points: 2
#     Edge 89, Type (0, 0), BuildingBlock: OJICUG_clean_linker_0, # of connection points: 2
#     Edge 90, Type (0, 0), BuildingBlock: OJICUG_clean_linker_0, # of connection points: 2
#     Edge 91, Type (0, 0), BuildingBlock: OJICUG_clean_linker_0, # of connection points: 2
#     Edge 92, Type (0, 0), BuildingBlock: OJICUG_clean_linker_0, # of connection points: 2
#     Edge 93, Type (0, 0), BuildingBlock: OJICUG_clean_linker_0, # of connection points: 2
#     Edge 94, Type (0, 0), BuildingBlock: OJICUG_clean_linker_0, # of connection points: 2
#     Edge 95, Type (0, 0), BuildingBlock: OJICUG_clean_linker_0, # of connection points: 2
# Relax obj value: 0.527
# Max RMSD: 0.261
# Mean RMSD: 0.261
data_MOF--net-lcv-e--node1-OJICUG_clean_sbu_0--edge1-OJICUG_clean_linker_0
_symmetry_space_group_name_H-M    P1
_symmetry_Int_Tables_number       1
_symmetry_cell_setting            triclinic
loop_
_symmetry_equiv_pos_as_xyz
'x, y, z'
_cell_length_a     38.262568
_cell_length_b     38.484244
_cell_length_c     38.445546
_cell_angle_alpha  90.00358
_cell_angle_beta   90.423127
_cell_angle_gamma 90.174421
loop_
_atom_site_label
_atom_site_type_symbol
_atom_site_fract_x
_atom_site_fract_y
_atom_site_fract_z
_atom_type_partial_charge
Sc0 Sc 0.1438 0.20702 0.33094 0.0
Sc1 Sc 0.12146 0.15348 0.26163 0.0
Sc2 Sc 0.0734 0.14975 0.33562 0.0
O3 O 0.11194 0.17037 0.30895 0.0
C4 C 0.15165 0.14014 0.3749 0.0
C5 C 0.19617 0.16937 0.28869 0.0
C6 C 0.10443 0.08334 0.30111 0.0
C7 C 0.11561 0.23673 0.26364 0.0
C8 C 0.07633 0.22597 0.36657 0.0
C9 C 0.03708 0.15778 0.25823 0.0
O10 O 0.16559 0.16752 0.3626 0.0
O11 O 0.17502 0.1476 0.27599 0.0
O12 O 0.08229 0.09797 0.32033 0.0
O13 O 0.12018 0.24245 0.29597 0.0
O14 O 0.05835 0.20192 0.35259 0.0
O15 O 0.06719 0.15538 0.24438 0.0
O16 O 0.10865 0.22187 0.37127 0.0
O17 O 0.1239 0.20837 0.24793 0.0
O18 O 0.03365 0.15725 0.29183 0.0
O19 O 0.18634 0.1997 0.29587 0.0
O20 O 0.11776 0.13498 0.37373 0.0
O21 O 0.12022 0.09922 0.27676 0.0
Sc22 Sc 0.13138 0.76988 0.41839 0.0
Sc23 Sc 0.18532 0.69981 0.39332 0.0
Sc24 Sc 0.14991 0.70474 0.47688 0.0
O25 O 0.15752 0.7265 0.43 0.0
C26 C 0.16152 0.78617 0.49682 0.0
C27 C 0.20104 0.77773 0.3758 0.0
C28 C 0.23159 0.68892 0.46017 0.0
C29 C 0.11881 0.72208 0.35106 0.0
C30 C 0.0749 0.73158 0.46391 0.0
C31 C 0.13238 0.64958 0.41633 0.0
O32 O 0.14793 0.79512 0.46752 0.0
O33 O 0.207 0.7456 0.37296 0.0
O34 O 0.20432 0.68537 0.479 0.0
O35 O 0.11275 0.74838 0.37016 0.0
O36 O 0.09737 0.71964 0.4847 0.0
O37 O 0.16458 0.65106 0.40932 0.0
O38 O 0.083 0.75028 0.43815 0.0
O39 O 0.14459 0.7021 0.35566 0.0
O40 O 0.12311 0.66272 0.44551 0.0
O41 O 0.17644 0.79077 0.39364 0.0
O42 O 0.16682 0.75372 0.50457 0.0
O43 O 0.22945 0.69686 0.42816 0.0
Sc44 Sc 0.43071 0.89485 0.75739 0.0
Sc45 Sc 0.41374 0.85209 0.83471 0.0
Sc46 Sc 0.48382 0.90981 0.82691 0.0
O47 O 0.44438 0.88425 0.80564 0.0
C48 C 0.51559 0.89264 0.75011 0.0
C49 C 0.43059 0.81056 0.77101 0.0
C50 C 0.48257 0.83951 0.87057 0.0
C51 C 0.35886 0.88197 0.79095 0.0
C52 C 0.44872 0.96836 0.78749 0.0
C53 C 0.40729 0.92561 0.86829 0.0
O54 O 0.48445 0.8932 0.73762 0.0
O55 O 0.4328 0.8107 0.80415 0.0
O56 O 0.49961 0.86169 0.85304 0.0
O57 O 0.3781 0.90195 0.77363 0.0
O58 O 0.47685 0.95665 0.7997 0.0
O59 O 0.39384 0.89623 0.86095 0.0
O60 O 0.42965 0.95038 0.76716 0.0
O61 O 0.36995 0.85307 0.80091 0.0
O62 O 0.44069 0.93187 0.86332 0.0
O63 O 0.42688 0.83809 0.752 0.0
O64 O 0.52103 0.89508 0.78348 0.0
O65 O 0.45049 0.84364 0.87547 0.0
Sc66 Sc 0.40298 0.31286 0.96299 0.0
Sc67 Sc 0.36438 0.34677 0.88761 0.0
Sc68 Sc 0.38472 0.25808 0.89585 0.0
O69 O 0.38138 0.30558 0.91617 0.0
C70 C 0.45561 0.26708 0.92966 0.0
C71 C 0.4373 0.36784 0.90891 0.0
C72 C 0.40175 0.30678 0.83018 0.0
C73 C 0.33524 0.36167 0.96168 0.0
C74 C 0.36974 0.24042 0.97924 0.0
C75 C 0.31058 0.28628 0.8752 0.0
O76 O 0.43692 0.26992 0.95612 0.0
O77 O 0.40693 0.37992 0.90338 0.0
O78 O 0.39429 0.27729 0.84339 0.0
O79 O 0.36405 0.35293 0.97661 0.0
O80 O 0.37644 0.23154 0.94757 0.0
O81 O 0.32159 0.31657 0.86795 0.0
O82 O 0.37066 0.27273 0.98839 0.0
O83 O 0.33125 0.36047 0.92902 0.0
O84 O 0.32932 0.26185 0.88813 0.0
O85 O 0.44148 0.34583 0.93373 0.0
O86 O 0.44128 0.25957 0.90088 0.0
O87 O 0.39568 0.33525 0.84476 0.0
Sc88 Sc 0.11738 0.85975 0.21535 0.0
Sc89 Sc 0.11759 0.86441 0.30718 0.0
Sc90 Sc 0.06361 0.91844 0.25901 0.0
O91 O 0.09937 0.88079 0.26105 0.0
C92 C 0.12716 0.93933 0.20273 0.0
C93 C 0.18441 0.86273 0.2592 0.0
C94 C 0.11595 0.94615 0.31594 0.0
C95 C 0.09733 0.79685 0.26017 0.0
C96 C 0.03975 0.86485 0.20276 0.0
C97 C 0.03825 0.87732 0.3308 0.0
O98 O 0.13841 0.90849 0.20028 0.0
O99 O 0.16917 0.86977 0.28735 0.0
O100 O 0.09309 0.95004 0.29235 0.0
O101 O 0.09763 0.81069 0.23032 0.0
O102 O 0.03072 0.88448 0.22759 0.0
O103 O 0.06755 0.86183 0.33365 0.0
O104 O 0.0691 0.86991 0.18871 0.0
O105 O 0.10808 0.81176 0.28825 0.0
O106 O 0.03214 0.89808 0.30491 0.0
O107 O 0.16866 0.84715 0.23475 0.0
O108 O 0.09727 0.94586 0.21751 0.0
O109 O 0.12715 0.91681 0.32654 0.0
Sc110 Sc 0.42543 0.74861 0.55219 0.0
Sc111 Sc 0.37299 0.80684 0.59589 0.0
Sc112 Sc 0.3589 0.71686 0.60448 0.0
O113 O 0.3854 0.75807 0.58354 0.0
C114 C 0.36775 0.69509 0.52992 0.0
C115 C 0.39497 0.82149 0.51751 0.0
C116 C 0.29977 0.7649 0.58169 0.0
C117 C 0.45521 0.80646 0.60168 0.0
C118 C 0.43722 0.69977 0.62241 0.0
C119 C 0.36153 0.76634 0.66559 0.0
O120 O 0.38906 0.71832 0.51968 0.0
O121 O 0.37549 0.82779 0.54354 0.0
O122 O 0.31167 0.73408 0.58024 0.0
O123 O 0.45868 0.77998 0.58249 0.0
O124 O 0.40547 0.70146 0.63168 0.0
O125 O 0.37399 0.79165 0.6488 0.0
O126 O 0.44611 0.70801 0.59083 0.0
O127 O 0.42655 0.82247 0.60614 0.0
O128 O 0.34361 0.74297 0.65099 0.0
O129 O 0.4139 0.79374 0.51624 0.0
O130 O 0.37033 0.68419 0.56085 0.0
O131 O 0.31879 0.79163 0.58879 0.0
Sc132 Sc 0.4397 0.17987 0.70219 0.0
Sc133 Sc 0.43843 0.18088 0.79441 0.0
Sc134 Sc 0.49098 0.12275 0.7511 0.0
O135 O 0.4564 0.16134 0.7498 0.0
C136 C 0.4275 0.09918 0.69511 0.0
C137 C 0.37239 0.18265 0.74449 0.0
C138 C 0.43691 0.10016 0.80801 0.0
C139 C 0.45838 0.24575 0.74381 0.0
C140 C 0.51707 0.17356 0.69309 0.0
C141 C 0.51645 0.16603 0.8216 0.0
O142 O 0.41712 0.13011 0.68987 0.0
O143 O 0.38715 0.17632 0.77331 0.0
O144 O 0.45945 0.09387 0.78486 0.0
O145 O 0.45939 0.23033 0.71461 0.0
O146 O 0.52523 0.1557 0.71972 0.0
O147 O 0.48827 0.18364 0.82218 0.0
O148 O 0.48833 0.16702 0.67803 0.0
O149 O 0.44835 0.23141 0.77222 0.0
O150 O 0.52189 0.14359 0.79719 0.0
O151 O 0.38881 0.19517 0.71905 0.0
O152 O 0.45749 0.09344 0.71039 0.0
O153 O 0.42731 0.13048 0.81695 0.0
Sc154 Sc 0.16988 0.30393 0.092 0.0
Sc155 Sc 0.10489 0.2479 0.06575 0.0
Sc156 Sc 0.12113 0.32333 1.01968 0.0
O157 O 0.13141 0.29233 0.05845 0.0
C158 C 0.11626 0.36232 0.09855 0.0
C159 C 0.11117 0.27791 0.13729 0.0
C160 C 0.04579 0.29369 0.03061 0.0
C161 C 0.18337 0.23048 0.08031 0.0
C162 C 0.20284 0.34342 0.02951 0.0
C163 C 0.12845 0.24333 0.98734 0.0
O164 O 0.14369 0.34835 0.11095 0.0
O165 O 0.08903 0.26728 0.11515 0.0
O166 O 0.0662 0.31666 1.01948 0.0
O167 O 0.19209 0.25975 0.06862 0.0
O168 O 0.1756 0.33927 1.0108 0.0
O169 O 0.11942 0.23024 1.01622 0.0
O170 O 0.20333 0.33458 0.06092 0.0
O171 O 0.15147 0.2235 0.0868 0.0
O172 O 0.12985 0.27704 0.98222 0.0
O173 O 0.14351 0.27507 0.13122 0.0
O174 O 0.10735 0.35931 0.06565 0.0
O175 O 0.05628 0.26669 0.04627 0.0
Sc176 Sc 0.34703 0.13969 0.17351 0.0
Sc177 Sc 0.25822 0.12254 0.17731 0.0
Sc178 Sc 0.30813 0.06978 0.12772 0.0
O179 O 0.30471 0.11005 0.15914 0.0
C180 C 0.35651 0.13364 0.09266 0.0
C181 C 0.29055 0.19237 0.1728 0.0
C182 C 0.24959 0.11767 0.09594 0.0
C183 C 0.30389 0.11997 0.24291 0.0
C184 C 0.36966 0.0638 0.18583 0.0
C185 C 0.23788 0.04325 0.16594 0.0
O186 O 0.36576 0.14603 0.12185 0.0
O187 O 0.27991 0.17074 0.19433 0.0
O188 O 0.26651 0.08917 0.09619 0.0
O189 O 0.32852 0.13648 0.22731 0.0
O190 O 0.34753 0.04938 0.16502 0.0
O191 O 0.22942 0.07481 0.16941 0.0
O192 O 0.37856 0.09534 0.1828 0.0
O193 O 0.27824 0.10549 0.22659 0.0
O194 O 0.26901 0.03543 0.15577 0.0
O195 O 0.32072 0.18753 0.16136 0.0
O196 O 0.3399 0.10425 0.09079 0.0
O197 O 0.24511 0.13688 0.12309 0.0
Sc198 Sc 0.27233 0.94789 0.38021 0.0
Sc199 Sc 0.34896 0.93609 0.33541 0.0
Sc200 Sc 0.34085 1.00188 0.39733 0.0
O201 O 0.31974 0.96363 0.37 0.0
C202 C 0.26054 0.03048 0.38582 0.0
C203 C 0.28289 0.95023 0.29541 0.0
C204 C 0.37837 1.00695 0.32525 0.0
C205 C 0.29934 0.87895 0.35684 0.0
C206 C 0.30216 0.96123 0.45624 0.0
C207 C 0.38575 0.92886 0.40715 0.0
O208 O 0.24952 0.99949 0.38102 0.0
O209 O 0.31599 0.95535 0.29472 0.0
O210 O 0.36004 0.02273 0.3477 0.0
O211 O 0.29261 0.89662 0.38341 0.0
O212 O 0.32288 0.98484 0.44641 0.0
O213 O 0.3759 0.91457 0.37887 0.0
O214 O 0.28029 0.94661 0.43586 0.0
O215 O 0.31637 0.89167 0.33231 0.0
O216 O 0.38313 0.96239 0.41188 0.0
O217 O 0.26551 0.94562 0.32368 0.0
O218 O 0.29356 0.03689 0.39065 0.0
O219 O 0.38724 0.97604 0.33095 0.0
Sc220 Sc 0.20758 0.90063 0.68231 0.0
Sc221 Sc 0.29873 0.91085 0.67352 0.0
Sc222 Sc 0.24231 0.96346 0.62718 0.0
O223 O 0.25001 0.92564 0.66142 0.0
C224 C 0.19085 0.89688 0.60271 0.0
C225 C 0.25701 0.841 0.66768 0.0
C226 C 0.30338 0.92368 0.59221 0.0
C227 C 0.2537 0.91342 0.74533 0.0
C228 C 0.18533 0.97639 0.68426 0.0
C229 C 0.31474 0.99185 0.66882 0.0
O230 O 0.19157 0.88304 0.63257 0.0
O231 O 0.28324 0.85938 0.6598 0.0
O232 O 0.27527 0.94068 0.59102 0.0
O233 O 0.22327 0.91605 0.73268 0.0
O234 O 0.20972 0.98887 0.66572 0.0
O235 O 0.31922 0.96263 0.68391 0.0
O236 O 0.17468 0.94562 0.67924 0.0
O237 O 0.28123 0.90729 0.7273 0.0
O238 O 0.28822 0.99657 0.64791 0.0
O239 O 0.23429 0.85201 0.68861 0.0
O240 O 0.20213 0.9286 0.5982 0.0
O241 O 0.31819 0.91381 0.62031 0.0
Sc242 Sc 0.21249 0.05756 0.89164 0.0
Sc243 Sc 0.27864 0.11466 0.87535 0.0
Sc244 Sc 0.20342 0.11736 0.8247 0.0
O245 O 0.23231 0.09542 0.86366 0.0
C246 C 0.17757 0.04406 0.81836 0.0
C247 C 0.29486 0.03276 0.88324 0.0
C248 C 0.27154 0.10584 0.79055 0.0
C249 C 0.24805 0.10231 0.95163 0.0
C250 C 0.16142 0.12791 0.8914 0.0
C251 C 0.23938 0.18034 0.85099 0.0
O252 O 0.19624 0.03168 0.84284 0.0
O253 O 0.30447 0.06418 0.87811 0.0
O254 O 0.23951 0.09689 0.78879 0.0
O255 O 0.22751 0.07872 0.94085 0.0
O256 O 0.17131 0.13976 0.86238 0.0
O257 O 0.25525 0.16515 0.87563 0.0
O258 O 0.16759 0.09582 0.90091 0.0
O259 O 0.27023 0.11689 0.93167 0.0
O260 O 0.23209 0.16453 0.8233 0.0
O261 O 0.26212 0.02506 0.88807 0.0
O262 O 0.16771 0.07507 0.82004 0.0
O263 O 0.28703 0.11545 0.8189 0.0
Sc264 Sc 0.67498 0.30398 0.9491 0.0
Sc265 Sc 0.69661 0.21543 0.94854 0.0
Sc266 Sc 0.63298 0.2476 1.00409 0.0
O267 O 0.66863 0.25643 0.96807 0.0
C268 C 0.66189 0.32443 0.02918 0.0
C269 C 0.75218 0.26983 0.96299 0.0
C270 C 0.69348 0.19644 0.02412 0.0
C271 C 0.68627 0.25714 0.88383 0.0
C272 C 0.59343 0.29996 0.95526 0.0
C273 C 0.61839 0.19408 0.93713 0.0
O274 O 0.67501 0.33079 0.99932 0.0
O275 O 0.74365 0.23821 0.96837 0.0
O276 O 0.67354 0.22081 0.0338 0.0
O277 O 0.67026 0.28175 0.89842 0.0
O278 O 0.59447 0.27639 0.97814 0.0
O279 O 0.64945 0.1956 0.92564 0.0
O280 O 0.62016 0.31416 0.94205 0.0
O281 O 0.70847 0.23924 0.89996 0.0
O282 O 0.61101 0.20482 0.96842 0.0
O283 O 0.73042 0.29359 0.95371 0.0
O284 O 0.64733 0.29483 0.03591 0.0
O285 O 0.68941 0.18394 0.99407 0.0
Sc286 Sc 0.95381 0.35644 0.23783 0.0
Sc287 Sc 0.93724 0.35503 0.32787 0.0
Sc288 Sc 0.99493 0.41306 0.29251 0.0
O289 O 0.9636 0.37334 0.28639 0.0
C290 C 0.02997 0.36875 0.22541 0.0
C291 C 0.95268 0.28939 0.28861 0.0
C292 C 1.01291 0.36161 0.35251 0.0
C293 C 0.88226 0.3657 0.27263 0.0
C294 C 0.96669 0.43559 0.22579 0.0
C295 C 0.92782 0.43438 0.3415 0.0
O296 O 1.00741 0.3444 0.22769 0.0
O297 O 0.95732 0.30469 0.31743 0.0
O298 O 0.02549 0.38035 0.32804 0.0
O299 O 0.90119 0.37222 0.2464 0.0
O300 O 0.96073 0.43871 0.25773 0.0
O301 O 0.91435 0.40434 0.33943 0.0
O302 O 0.96531 0.40578 0.21177 0.0
O303 O 0.89227 0.34433 0.29574 0.0
O304 O 0.96004 0.43952 0.33244 0.0
O305 O 0.94552 0.30567 0.26027 0.0
O306 O 0.02913 0.39471 0.24697 0.0
O307 O 0.98127 0.36544 0.36163 0.0
Sc308 Sc 0.91885 0.80795 0.51956 0.0
Sc309 Sc 0.85687 0.82469 0.45513 0.0
Sc310 Sc 0.85633 0.74589 0.50271 0.0
O311 O 0.87797 0.79199 0.49109 0.0
C312 C 0.93875 0.73553 0.49298 0.0
C313 C 0.93529 0.84427 0.44318 0.0
C314 C 0.85388 0.75059 0.42081 0.0
C315 C 0.86051 0.86474 0.52348 0.0
C316 C 0.88828 0.74787 0.57223 0.0
C317 C 0.7916 0.78712 0.48138 0.0
O318 O 0.94697 0.76758 0.49624 0.0
O319 O 0.90611 0.8348 0.43066 0.0
O320 O 0.85244 0.73443 0.44938 0.0
O321 O 0.88122 0.84551 0.54165 0.0
O322 O 0.85922 0.75199 0.55743 0.0
O323 O 0.80437 0.81674 0.47442 0.0
O324 O 0.91348 0.76776 0.56281 0.0
O325 O 0.86464 0.86725 0.49078 0.0
O326 O 0.80558 0.77021 0.50613 0.0
O327 O 0.94083 0.84279 0.47648 0.0
O328 O 0.90847 0.72251 0.49921 0.0
O329 O 0.85251 0.78347 0.41807 0.0
Sc330 Sc 0.92086 0.6755 0.22567 0.0
Sc331 Sc 0.95279 0.6098 0.28127 0.0
Sc332 Sc 1.00492 0.64262 0.21622 0.0
O333 O 0.96024 0.64451 0.24326 0.0
C334 C 0.93773 0.63144 0.1655 0.0
C335 C 0.8796 0.60608 0.24092 0.0
C336 C 0.99928 0.56492 0.23066 0.0
C337 C 0.91253 0.6768 0.30714 0.0
C338 C 0.98388 0.72425 0.21081 0.0
C339 C 0.03176 0.64003 0.29641 0.0
O340 O 0.92997 0.66259 0.17248 0.0
O341 O 0.90144 0.5937 0.26276 0.0
O342 O 1.01846 0.58999 0.22264 0.0
O343 O 0.90752 0.68918 0.27699 0.0
O344 O 1.00293 0.69835 0.20257 0.0
O345 O 1.00394 0.62306 0.30403 0.0
O346 O 0.954 0.72019 0.22417 0.0
O347 O 0.92954 0.649 0.31331 0.0
O348 O 0.03659 0.65289 0.26539 0.0
O349 O 0.88405 0.63492 0.22595 0.0
O350 O 0.96839 0.62103 0.17479 0.0
O351 O 0.973 0.56784 0.25034 0.0
Sc352 Sc 0.64491 0.33002 0.70701 0.0
Sc353 Sc 0.62893 0.36656 0.78908 0.0
Sc354 Sc 0.57691 0.38895 0.72013 0.0
O355 O 0.61609 0.36132 0.73934 0.0
C356 C 0.6477 0.40342 0.67243 0.0
C357 C 0.70082 0.3635 0.75138 0.0
C358 C 0.61026 0.44428 0.76903 0.0
C359 C 0.63438 0.28413 0.76987 0.0
C360 C 0.57037 0.31575 0.68233 0.0
C361 C 0.54656 0.36956 0.79845 0.0
O362 O 0.66203 0.3746 0.67928 0.0
O363 O 0.68015 0.37864 0.77189 0.0
O364 O 0.59418 0.43606 0.74148 0.0
O365 O 0.63171 0.28567 0.73699 0.0
O366 O 0.55622 0.33941 0.70051 0.0
O367 O 0.57653 0.35897 0.80869 0.0
O368 O 0.60153 0.31956 0.67216 0.0
O369 O 0.63738 0.31079 0.78978 0.0
O370 O 0.54179 0.38073 0.76695 0.0
O371 O 0.6927 0.33564 0.73598 0.0
O372 O 0.61447 0.40804 0.67796 0.0
O373 O 0.62181 0.42243 0.79106 0.0
Sc374 Sc 0.61721 0.66599 0.76663 0.0
Sc375 Sc 0.623 0.67544 0.85614 0.0
Sc376 Sc 0.54954 0.6375 0.8162 0.0
O377 O 0.59539 0.66148 0.81272 0.0
C378 C 0.53489 0.67354 0.74282 0.0
C379 C 0.63574 0.7352 0.80159 0.0
C380 C 0.54851 0.70512 0.86786 0.0
C381 C 0.68113 0.64491 0.8156 0.0
C382 C 0.59128 0.58966 0.7669 0.0
C383 C 0.60214 0.60326 0.87364 0.0
O384 O 0.56775 0.67188 0.73685 0.0
O385 O 0.64548 0.71932 0.82905 0.0
O386 O 0.5331 0.67847 0.85414 0.0
O387 O 0.66926 0.66041 0.78867 0.0
O388 O 0.56161 0.60003 0.77711 0.0
O389 O 0.60503 0.63305 0.88725 0.0
O390 O 0.61649 0.61044 0.76118 0.0
O391 O 0.66484 0.64289 0.84365 0.0
O392 O 0.57881 0.59923 0.84986 0.0
O393 O 0.61905 0.72047 0.7767 0.0
O394 O 0.52314 0.66756 0.77369 0.0
O395 O 0.58144 0.70768 0.87016 0.0
Sc396 Sc 0.89848 0.23582 0.09512 0.0
Sc397 Sc 0.86085 0.29896 0.14336 0.0
Sc398 Sc 0.84035 0.21098 0.15794 0.0
O399 O 0.86415 0.24862 0.13008 0.0
C400 C 0.83399 0.18769 0.08136 0.0
C401 C 0.86131 0.30964 0.0643 0.0
C402 C 0.78447 0.26505 0.15244 0.0
C403 C 0.9374 0.29548 0.11743 0.0
C404 C 0.91813 0.18352 0.1597 0.0
C405 C 0.86914 0.2594 0.21267 0.0
O406 O 0.85702 0.20777 0.06827 0.0
O407 O 0.84365 0.31491 0.09201 0.0
O408 O 0.79147 0.23387 0.14437 0.0
O409 O 0.93437 0.26428 0.12586 0.0
O410 O 0.88936 0.18884 0.17508 0.0
O411 O 0.8817 0.28251 0.19255 0.0
O412 O 0.92179 0.19222 0.1274 0.0
O413 O 0.91235 0.31561 0.12452 0.0
O414 O 0.84215 0.24202 0.20444 0.0
O415 O 0.88243 0.28325 0.06215 0.0
O416 O 0.83672 0.17738 0.11272 0.0
O417 O 0.80774 0.28817 0.1594 0.0
Sc418 Sc 0.65185 0.83391 0.57096 0.0
Sc419 Sc 0.70803 0.84674 0.64118 0.0
Sc420 Sc 0.66886 0.76728 0.62551 0.0
O421 O 0.67697 0.81549 0.61165 0.0
C422 C 0.5943 0.79239 0.60566 0.0
C423 C 0.63168 0.87483 0.64663 0.0
C424 C 0.68626 0.79871 0.69774 0.0
C425 C 0.71924 0.88142 0.573 0.0
C426 C 0.67406 0.7581 0.54163 0.0
C427 C 0.75006 0.78579 0.61478 0.0
O428 O 0.60672 0.80333 0.5775 0.0
O429 O 0.66113 0.86896 0.6615 0.0
O430 O 0.66477 0.78277 0.67853 0.0
O431 O 0.69898 0.8621 0.5554 0.0
O432 O 0.67046 0.7463 0.5725 0.0
O433 O 0.74951 0.81879 0.61813 0.0
O434 O 0.67109 0.79113 0.53544 0.0
O435 O 0.71154 0.88765 0.60406 0.0
O436 O 0.72562 0.76487 0.62481 0.0
O437 O 0.62711 0.86985 0.61298 0.0
O438 O 0.61268 0.77498 0.62706 0.0
O439 O 0.71259 0.81352 0.68539 0.0
Sc440 Sc 0.8342 0.54698 0.64613 0.0
Sc441 Sc 0.83097 0.62559 0.6896 0.0
Sc442 Sc 0.76071 0.59848 0.63898 0.0
O443 O 0.80787 0.58908 0.65917 0.0
C444 C 0.80576 0.57601 0.57507 0.0
C445 C 0.88885 0.61106 0.64338 0.0
C446 C 0.80238 0.66945 0.63106 0.0
C447 C 0.84453 0.55799 0.73067 0.0
C448 C 0.75475 0.51534 0.65044 0.0
C449 C 0.75801 0.62051 0.71417 0.0
O450 O 0.82043 0.55113 0.59148 0.0
O451 O 0.8831 0.61334 0.67548 0.0
O452 O 0.77308 0.65356 0.63362 0.0
O453 O 0.85057 0.54088 0.70234 0.0
O454 O 0.74284 0.54477 0.64089 0.0
O455 O 0.78102 0.64232 0.70561 0.0
O456 O 0.78794 0.51111 0.65636 0.0
O457 O 0.83332 0.58906 0.73045 0.0
O458 O 0.7428 0.60195 0.69138 0.0
O459 O 0.87578 0.58449 0.62791 0.0
O460 O 0.78183 0.59465 0.58812 0.0
O461 O 0.82907 0.66092 0.64836 0.0
Sc462 Sc 0.7431 0.42437 0.87671 0.0
Sc463 Sc 0.83489 0.41941 0.87054 0.0
Sc464 Sc 0.79533 0.4786 0.92623 0.0
O465 O 0.79061 0.44154 0.89045 0.0
C466 C 0.72255 0.50389 0.88542 0.0
C467 C 0.78959 0.42913 0.80582 0.0
C468 C 0.85039 0.49673 0.86925 0.0
C469 C 0.78853 0.35643 0.88186 0.0
C470 C 0.73658 0.4328 0.95783 0.0
C471 C 0.84864 0.41585 0.95127 0.0
O472 O 0.72021 0.47567 0.86789 0.0
O473 O 0.81961 0.43358 0.8193 0.0
O474 O 0.82616 0.50758 0.88892 0.0
O475 O 0.76129 0.37334 0.88954 0.0
O476 O 0.76387 0.45118 0.96039 0.0
O477 O 0.84995 0.40171 0.92147 0.0
O478 O 0.72229 0.42416 0.92913 0.0
O479 O 0.81174 0.36922 0.86253 0.0
O480 O 0.83713 0.44735 0.95474 0.0
O481 O 0.7619 0.42261 0.82341 0.0
O482 O 0.74809 0.50879 0.90717 0.0
O483 O 0.86386 0.46717 0.87478 0.0
Sc484 Sc 0.73494 0.50854 0.143 0.0
Sc485 Sc 0.72321 0.44297 0.20449 0.0
Sc486 Sc 0.79931 0.44922 0.15779 0.0
O487 O 0.75346 0.46842 0.16939 0.0
C488 C 0.7665 0.46524 0.08447 0.0
C489 C 0.68488 0.43663 0.13336 0.0
C490 C 0.7599 0.38174 0.17707 0.0
C491 C 0.695 0.51507 0.21441 0.0
C492 C 0.81642 0.53223 0.15448 0.0
C493 C 0.79092 0.45588 0.24235 0.0
O494 O 0.75604 0.49461 0.09441 0.0
O495 O 0.69331 0.42336 0.16249 0.0
O496 O 0.77707 0.39817 0.15459 0.0
O497 O 0.71451 0.52978 0.1922 0.0
O498 O 0.82495 0.50012 0.15602 0.0
O499 O 0.75802 0.46146 0.24371 0.0
O500 O 0.7838 0.54135 0.15211 0.0
O501 O 0.68637 0.48391 0.20999 0.0
O502 O 0.80746 0.44831 0.21414 0.0
O503 O 0.69173 0.4693 0.1261 0.0
O504 O 0.78658 0.44658 0.10307 0.0
O505 O 0.75227 0.39596 0.20536 0.0
Sc506 Sc 0.75492 0.58196 0.40979 0.0
Sc507 Sc 0.81667 0.62644 0.3616 0.0
Sc508 Sc 0.72707 0.64538 0.35244 0.0
O509 O 0.76671 0.61807 0.37534 0.0
C510 C 0.69647 0.57328 0.35299 0.0
C511 C 0.82269 0.54574 0.36827 0.0
C512 C 0.77214 0.61801 0.29377 0.0
C513 C 0.82244 0.61211 0.44307 0.0
C514 C 0.70896 0.6537 0.43083 0.0
C515 C 0.7837 0.69918 0.36578 0.0
O516 O 0.71985 0.55868 0.37146 0.0
O517 O 0.82854 0.57326 0.35096 0.0
O518 O 0.74147 0.62081 0.30525 0.0
O519 O 0.79103 0.60209 0.44553 0.0
O520 O 0.71251 0.66766 0.40104 0.0
O521 O 0.80867 0.67932 0.37401 0.0
O522 O 0.71734 0.62114 0.43596 0.0
O523 O 0.83738 0.61946 0.4144 0.0
O524 O 0.76096 0.6893 0.34372 0.0
O525 O 0.79731 0.54431 0.39061 0.0
O526 O 0.68908 0.60478 0.35869 0.0
O527 O 0.79855 0.63262 0.30834 0.0
C528 C 0.0726 0.25594 0.22151 0.0
C529 C 0.10198 0.26425 0.24194 0.0
H530 H 0.05237 0.25413 0.16968 0.0
C531 C 0.12554 0.28955 0.23076 0.0
H532 H 0.05368 0.23702 0.23053 0.0
C533 C 0.12488 0.29934 0.19601 0.0
C534 C 0.1008 0.28343 0.17324 0.0
H535 H 0.14791 0.29672 0.2467 0.0
H536 H 0.14632 0.31482 0.18609 0.0
C537 C 0.07205 0.26546 0.18667 0.0
C538 C 0.11865 0.71466 0.28788 0.0
C539 C 0.0993 0.7193 0.31841 0.0
H540 H 0.13088 0.73843 0.23937 0.0
C541 C 0.0664 0.73515 0.31629 0.0
H542 H 0.14326 0.70079 0.28836 0.0
C543 C 0.05893 0.75585 0.28758 0.0
C544 C 0.08533 0.76113 0.26308 0.0
H545 H 0.05006 0.73728 0.3391 0.0
H546 H 0.0373 0.77389 0.28929 0.0
C547 C 0.11135 0.73597 0.25951 0.0
C548 C 0.43658 0.76835 0.72468 0.0
C549 C 0.41928 0.77841 0.75478 0.0
H550 H 0.42997 0.7561 0.67119 0.0
C551 C 0.38364 0.77021 0.75881 0.0
H552 H 0.46406 0.77428 0.72133 0.0
C553 C 0.36374 0.76083 0.72972 0.0
C554 C 0.38025 0.75818 0.6976 0.0
H555 H 0.37002 0.77764 0.78228 0.0
H556 H 0.33548 0.76064 0.73138 0.0
C557 C 0.41694 0.75825 0.69597 0.0
C558 C 0.45955 0.3047 0.80304 0.0
C559 C 0.42322 0.30792 0.79935 0.0
H560 H 0.50617 0.28766 0.77855 0.0
C561 C 0.40806 0.30845 0.7661 0.0
H562 H 0.47192 0.30585 0.82847 0.0
C563 C 0.42837 0.29855 0.73772 0.0
C564 C 0.46109 0.28356 0.74467 0.0
H565 H 0.3803 0.31286 0.76263 0.0
H566 H 0.41518 0.29351 0.71319 0.0
C567 C 0.47929 0.29539 0.77419 0.0
C568 C 0.23871 0.12292 0.30225 0.0
C569 C 0.23218 0.15821 0.29525 0.0
H570 H 0.27454 0.08123 0.29569 0.0
C571 C 0.26045 0.1807 0.28983 0.0
H572 H 0.21756 0.10532 0.30875 0.0
C573 C 0.29334 0.16654 0.28323 0.0
C574 C 0.2961 0.13031 0.27882 0.0
H575 H 0.25638 0.20832 0.28621 0.0
H576 H 0.31333 0.18374 0.27316 0.0
C577 C 0.27171 0.10924 0.29594 0.0
C578 C 0.28657 0.81699 0.35417 0.0
C579 C 0.2758 0.85115 0.34911 0.0
H580 H 0.2699 0.76564 0.36647 0.0
C581 C 0.24047 0.8595 0.34484 0.0
H582 H 0.31399 0.8107 0.35745 0.0
C583 C 0.21544 0.83438 0.35074 0.0
C584 C 0.22602 0.80101 0.36029 0.0
H585 H 0.23222 0.88609 0.34059 0.0
H586 H 0.1881 0.84165 0.35063 0.0
C587 C 0.26146 0.79159 0.35946 0.0
C588 C 0.2815 0.9391 0.79394 0.0
C589 C 0.25776 0.9136 0.783 0.0
H590 H 0.33637 0.94822 0.80018 0.0
C591 C 0.26233 0.87986 0.79602 0.0
H592 H 0.27657 0.96621 0.78813 0.0
C593 C 0.29646 0.86874 0.80236 0.0
C594 C 0.32367 0.89306 0.79951 0.0
H595 H 0.24231 0.86033 0.7917 0.0
H596 H 0.30174 0.84118 0.80449 0.0
C597 C 0.31585 0.92874 0.7997 0.0
C598 C 0.25379 0.26408 0.89095 0.0
C599 C 0.27543 0.27718 0.86486 0.0
H600 H 0.22312 0.22037 0.90607 0.0
C601 C 0.27067 0.26663 0.83031 0.0
H602 H 0.25678 0.27281 0.91763 0.0
C603 C 0.25175 0.23646 0.82369 0.0
C604 C 0.23808 0.21794 0.85189 0.0
H605 H 0.28691 0.27722 0.80987 0.0
H606 H 0.25353 0.22468 0.79815 0.0
C607 C 0.23485 0.23402 0.88439 0.0
C608 C 0.20575 0.9223 0.25127 0.0
C609 C 0.21318 0.88654 0.25081 0.0
H610 H 0.22498 0.97327 0.26243 0.0
C611 C 0.24802 0.87568 0.25135 0.0
H612 H 0.179 0.93117 0.25183 0.0
C613 C 0.27455 0.90018 0.25752 0.0
C614 C 0.26592 0.93506 0.26473 0.0
H615 H 0.25433 0.84826 0.25127 0.0
H616 H 0.30068 0.89072 0.26287 0.0
C617 C 0.23213 0.94655 0.25727 0.0
C618 C 0.24724 0.77952 0.64901 0.0
C619 C 0.24697 0.8151 0.64154 0.0
H620 H 0.25965 0.72945 0.62873 0.0
C621 C 0.24552 0.82594 0.6066 0.0
H622 H 0.24762 0.77044 0.67568 0.0
C623 C 0.24978 0.80199 0.57988 0.0
C624 C 0.26245 0.76916 0.58891 0.0
H625 H 0.24604 0.85326 0.60007 0.0
H626 H 0.25389 0.81196 0.55386 0.0
C627 C 0.25322 0.75599 0.62184 0.0
C628 C 0.34674 0.12491 0.73952 0.0
C629 C 0.34183 0.16105 0.73743 0.0
H630 H 0.32517 0.0766 0.75645 0.0
C631 C 0.30821 0.17477 0.73981 0.0
H632 H 0.37271 0.11403 0.73885 0.0
C633 C 0.28084 0.153 0.74987 0.0
C634 C 0.28779 0.1182 0.75886 0.0
H635 H 0.30403 0.20258 0.73854 0.0
H636 H 0.25608 0.16475 0.75656 0.0
C637 C 0.31958 0.10339 0.74983 0.0
C638 C 0.2448 0.21651 0.09063 0.0
C639 C 0.21004 0.2151 0.10188 0.0
H640 H 0.2985 0.21204 0.10497 0.0
C641 C 0.20246 0.20965 0.13698 0.0
H642 H 0.25091 0.2221 0.0637 0.0
C643 C 0.22939 0.20615 0.16074 0.0
C644 C 0.26421 0.20629 0.14944 0.0
H645 H 0.17585 0.21007 0.14645 0.0
H646 H 0.22292 0.20178 0.1878 0.0
C647 C 0.27188 0.21213 0.11433 0.0
C648 C 0.7983 0.2685 0.9219 0.0
C649 C 0.78869 0.27821 0.95585 0.0
H650 H 0.80206 0.28728 0.86923 0.0
C651 C 0.79785 0.31161 0.96702 0.0
H652 H 0.7944 0.24195 0.91328 0.0
C653 C 0.79948 0.33773 0.94205 0.0
C654 C 0.79864 0.32924 0.90649 0.0
H655 H 0.79313 0.31919 0.99373 0.0
H656 H 0.79708 0.36443 0.95043 0.0
C657 C 0.80159 0.29442 0.89647 0.0
C658 C 0.86853 0.42795 0.27833 0.0
C659 C 0.85779 0.39319 0.28215 0.0
H660 H 0.85258 0.47985 0.2679 0.0
C661 C 0.82289 0.38589 0.28987 0.0
H662 H 0.89559 0.43434 0.2735 0.0
C663 C 0.79816 0.41244 0.28678 0.0
C664 C 0.80867 0.44522 0.27422 0.0
H665 H 0.81425 0.35937 0.29389 0.0
H666 H 0.77074 0.40528 0.28682 0.0
C667 C 0.84397 0.45431 0.27615 0.0
C668 C 0.77343 0.78069 0.41844 0.0
C669 C 0.77745 0.76643 0.45209 0.0
H670 H 0.77214 0.76986 0.36343 0.0
C671 C 0.77377 0.73049 0.45652 0.0
H672 H 0.77525 0.80847 0.41436 0.0
C673 C 0.77321 0.70893 0.42776 0.0
C674 C 0.77369 0.72273 0.39396 0.0
H675 H 0.77545 0.71864 0.48205 0.0
H676 H 0.77537 0.68119 0.43206 0.0
C677 C 0.7716 0.75874 0.3893 0.0
C678 C 0.79913 0.56614 0.27277 0.0
C679 C 0.77861 0.5952 0.26431 0.0
H680 H 0.85196 0.54791 0.27313 0.0
C681 C 0.78513 0.61237 0.23316 0.0
H682 H 0.79243 0.5502 0.29498 0.0
C683 C 0.81865 0.61061 0.21973 0.0
C684 C 0.84434 0.59098 0.23749 0.0
H685 H 0.76815 0.6332 0.22454 0.0
H686 H 0.82568 0.62967 0.20027 0.0
C687 C 0.83333 0.56496 0.26048 0.0
C688 C 0.79361 0.38587 0.76176 0.0
C689 C 0.78755 0.42121 0.76882 0.0
H690 H 0.76732 0.33727 0.75278 0.0
C691 C 0.76024 0.43782 0.75122 0.0
H692 H 0.81603 0.37294 0.77323 0.0
C693 C 0.73223 0.41766 0.73982 0.0
C694 C 0.73351 0.38136 0.74379 0.0
H695 H 0.7563 0.46551 0.75439 0.0
H696 H 0.70787 0.43053 0.73334 0.0
C697 C 0.76554 0.36528 0.75062 0.0
C698 C 0.63194 0.79203 0.77483 0.0
C699 C 0.65245 0.76796 0.79293 0.0
H700 H 0.62746 0.82034 0.72756 0.0
C701 C 0.68868 0.76696 0.78739 0.0
H702 H 0.60403 0.79344 0.77929 0.0
C703 C 0.7023 0.78266 0.75772 0.0
C704 C 0.67946 0.79955 0.73478 0.0
H705 H 0.70497 0.74876 0.80161 0.0
H706 H 0.72885 0.7768 0.75008 0.0
C707 C 0.64533 0.80731 0.74513 0.0
C708 C 0.63588 0.24133 0.84726 0.0
C709 C 0.67229 0.24455 0.85087 0.0
H710 H 0.59265 0.24661 0.81252 0.0
C711 C 0.69356 0.24201 0.82158 0.0
H712 H 0.61912 0.24195 0.86984 0.0
C713 C 0.67806 0.24403 0.78866 0.0
C714 C 0.64207 0.25096 0.78612 0.0
H715 H 0.72176 0.24333 0.82406 0.0
H716 H 0.69486 0.24844 0.7665 0.0
C717 C 0.6207 0.24304 0.81439 0.0
C718 C 0.92677 0.23791 0.23134 0.0
C719 C 0.89207 0.24599 0.23991 0.0
H720 H 0.97925 0.23552 0.24964 0.0
C721 C 0.88236 0.24686 0.27499 0.0
H722 H 0.93502 0.23721 0.20452 0.0
C723 C 0.90888 0.24774 0.30036 0.0
C724 C 0.94347 0.25241 0.28901 0.0
H725 H 0.8555 0.25143 0.28236 0.0
H726 H 0.90183 0.25472 0.32669 0.0
C727 C 0.95214 0.23663 0.25751 0.0
C728 C 0.87942 0.72715 0.33013 0.0
C729 C 0.89628 0.69518 0.33598 0.0
H730 H 0.85177 0.76967 0.35258 0.0
C731 C 0.89642 0.6805 0.36924 0.0
H732 H 0.87868 0.73899 0.30458 0.0
C733 C 0.88077 0.6979 0.39643 0.0
C734 C 0.86466 0.7303 0.39081 0.0
H735 H 0.90882 0.65574 0.37441 0.0
H736 H 0.88229 0.68629 0.42207 0.0
C737 C 0.86379 0.74466 0.35743 0.0
C738 C 0.726 0.59145 0.76194 0.0
C739 C 0.74819 0.61812 0.75055 0.0
H740 H 0.68827 0.5773 0.79991 0.0
C741 C 0.75947 0.6438 0.7741 0.0
H742 H 0.71881 0.57001 0.74506 0.0
C743 C 0.74237 0.64737 0.80554 0.0
C744 C 0.71341 0.62624 0.81192 0.0
H745 H 0.77835 0.66346 0.76676 0.0
H746 H 0.74665 0.67086 0.82057 0.0
C747 C 0.70954 0.5949 0.79382 0.0
C748 C 0.7392 0.28722 0.1876 0.0
C749 C 0.74841 0.27694 0.15385 0.0
H750 H 0.74065 0.33051 0.22284 0.0
C751 C 0.74163 0.30041 0.12683 0.0
H752 H 0.74024 0.26859 0.20871 0.0
C753 C 0.74428 0.33578 0.13432 0.0
C754 C 0.74739 0.34662 0.16916 0.0
H755 H 0.74444 0.29227 0.10001 0.0
H756 H 0.74668 0.35412 0.11307 0.0
C757 C 0.7407 0.3226 0.1958 0.0
C758 C 0.77392 0.7433 0.57665 0.0
C759 C 0.78103 0.76943 0.60116 0.0
H760 H 0.77197 0.68829 0.56987 0.0
C761 C 0.80812 0.76485 0.62521 0.0
H762 H 0.75409 0.74727 0.55677 0.0
C763 C 0.81907 0.73122 0.63241 0.0
C764 C 0.80339 0.7033 0.61455 0.0
H765 H 0.81501 0.78539 0.64333 0.0
H766 H 0.83557 0.7269 0.65502 0.0
C767 C 0.78351 0.70948 0.58455 0.0
C768 C 0.15098 0.99673 0.30509 0.0
C769 C 0.12982 0.97879 0.3289 0.0
H770 H 0.15787 0.04335 0.27531 0.0
C771 C 0.10618 0.99764 0.3489 0.0
H772 H 0.16962 0.98267 0.28952 0.0
C773 C 0.09774 0.03146 0.33937 0.0
C774 C 0.11467 0.04777 0.31123 0.0
H775 H 0.08977 0.98445 0.36764 0.0
H776 H 0.07686 0.0442 0.35328 0.0
C777 C 0.14306 0.03093 0.29577 0.0
C778 C 0.30554 0.67248 0.52592 0.0
C779 C 0.33451 0.68849 0.50982 0.0
H780 H 0.25065 0.66041 0.52352 0.0
C781 C 0.32967 0.70192 0.47609 0.0
H782 H 0.30795 0.66193 0.55192 0.0
C783 C 0.29676 0.70058 0.45957 0.0
C784 C 0.26736 0.68627 0.47643 0.0
H785 H 0.3511 0.71456 0.46279 0.0
H786 H 0.29409 0.71217 0.43403 0.0
C787 C 0.27245 0.67174 0.50966 0.0
C788 C 0.40613 1.01807 0.78972 0.0
C789 C 0.43685 1.00194 0.80142 0.0
H790 H 0.3779 0.06588 0.78789 0.0
C791 C 0.45562 1.01715 0.82927 0.0
H792 H 0.38966 1.00593 0.77019 0.0
C793 C 0.44667 0.04985 0.84158 0.0
C794 C 0.42184 0.06924 0.82331 0.0
H795 H 0.47804 1.00445 0.84093 0.0
H796 H 0.46418 0.06248 0.85998 0.0
C797 C 0.39831 0.05164 0.8012 0.0
C798 C 0.30074 0.35624 1.01709 0.0
C799 C 0.30249 0.36635 0.98209 0.0
H800 H 0.2681 0.3414 0.05947 0.0
C801 C 0.27081 0.37383 0.96442 0.0
H802 H 0.32431 0.35006 0.03154 0.0
C803 C 0.23836 0.368 0.9801 0.0
C804 C 0.23662 0.35523 1.01418 0.0
H805 H 0.2709 0.38195 0.93744 0.0
H806 H 0.21473 0.37206 0.96499 0.0
C807 C 0.26825 0.35095 0.03297 0.0
C808 C 0.26662 0.13792 1.00429 0.0
C809 C 0.24397 0.11369 0.98855 0.0
H810 H 0.28447 0.16052 0.05231 0.0
C811 C 0.21637 0.10007 1.00861 0.0
H812 H 0.28745 0.14976 0.98949 0.0
C813 C 0.2138 0.10745 0.04409 0.0
C814 C 0.23894 0.12826 0.06069 0.0
H815 H 0.19761 0.08208 0.9974 0.0
H816 H 0.1946 0.09348 0.05931 0.0
C817 C 0.26419 0.145 0.04008 0.0
C818 C 0.37583 1.0117 0.22614 0.0
C819 C 0.37803 0.04761 0.22027 0.0
H820 H 0.37621 0.97058 0.26383 0.0
C821 C 0.38365 0.06961 0.24934 0.0
H822 H 0.37133 0.99402 0.20464 0.0
C823 C 0.38449 0.0565 0.28328 0.0
C824 C 0.38143 1.0208 0.28922 0.0
H825 H 0.38541 0.09751 0.24624 0.0
H826 H 0.38694 0.07439 0.30492 0.0
C827 C 0.37841 0.99839 0.26017 0.0
C828 C 0.33059 0.96436 0.51477 0.0
C829 C 0.30805 0.94699 0.49141 0.0
H830 H 0.35143 0.96661 0.56637 0.0
C831 C 0.29485 0.91418 0.50064 0.0
H832 H 0.34236 0.98908 0.50808 0.0
C833 C 0.30105 0.90092 0.53392 0.0
C834 C 0.31976 0.92068 0.55854 0.0
H835 H 0.27868 0.89937 0.48273 0.0
H836 H 0.28706 0.87774 0.54189 0.0
C837 C 0.33718 0.95076 0.54771 0.0
C838 C 0.1697 0.99047 0.78083 0.0
C839 C 0.17486 0.02643 0.78398 0.0
H840 H 0.16576 0.94684 0.74636 0.0
C841 C 0.17898 0.04622 0.75339 0.0
H842 H 0.16603 0.97461 0.8038 0.0
C843 C 0.18065 0.03025 0.72074 0.0
C844 C 0.1766 0.99417 0.71753 0.0
H845 H 0.18264 0.0741 0.75477 0.0
H846 H 0.18608 0.04605 0.69808 0.0
C847 C 0.16954 0.97467 0.74784 0.0
C848 C 0.97613 0.33243 0.08028 0.0
C849 C 0.95709 0.3018 0.08536 0.0
H850 H 1.0201 0.35493 0.05457 0.0
C851 C 0.96001 0.2746 0.06095 0.0
H852 H 0.97369 0.35404 0.09815 0.0
C853 C 0.9854 0.27552 0.03564 0.0
C854 C 1.00928 0.30284 0.03557 0.0
H855 H 0.94514 0.25087 0.06319 0.0
H856 H 0.9901 0.2523 1.02042 0.0
C857 C 1.00214 0.33311 0.05488 0.0
C858 C 0.50005 0.30123 0.9615 0.0
C859 C 0.49093 0.28179 0.93172 0.0
H860 H 0.54055 0.32628 0.9903 0.0
C861 C 0.51533 0.27774 0.90501 0.0
H862 H 0.48162 0.30583 0.98224 0.0
C863 C 0.5496 0.28955 0.91006 0.0
C864 C 0.55898 0.30627 0.94129 0.0
H865 H 0.50859 0.26381 0.88143 0.0
H866 H 0.56935 0.28259 0.89127 0.0
C867 C 0.53352 0.31405 0.9658 0.0
C868 C 0.02661 0.26714 0.37837 0.0
C869 C 0.06161 0.26169 0.36937 0.0
H870 H 0.98454 0.30333 0.3825 0.0
C871 C 0.08184 0.29062 0.35917 0.0
H872 H 1.01038 0.2455 0.38635 0.0
C873 C 0.06671 0.32363 0.35543 0.0
C874 C 0.03124 0.32887 0.363 0.0
H875 H 0.10893 0.28734 0.35195 0.0
H876 H 0.08246 0.34472 0.34534 0.0
C877 C 1.01189 0.30045 0.3761 0.0
C878 C 0.0271 0.70957 0.50171 0.0
C879 C 0.03825 0.72193 0.46922 0.0
H880 H 0.98313 0.70071 0.5345 0.0
C881 C 1.0141 0.72441 0.44169 0.0
H882 H 0.04541 0.7061 0.52304 0.0
C883 C 0.97866 0.71958 0.44799 0.0
C884 C 0.96727 0.71372 0.48206 0.0
H885 H 1.02227 0.73215 0.41589 0.0
H886 H 0.96007 0.72609 0.4276 0.0
C887 C 0.99159 0.70522 0.50802 0.0
C888 C 0.53849 0.78716 0.6393 0.0
C889 C 0.55839 0.80308 0.6134 0.0
H890 H 0.48683 0.77868 0.65811 0.0
C891 C 0.54365 0.83047 0.59385 0.0
H892 H 0.5495 0.7669 0.65554 0.0
C893 C 0.50852 0.83853 0.59678 0.0
C894 C 0.48738 0.81814 0.61791 0.0
H895 H 0.55881 0.84469 0.57485 0.0
H896 H 0.49705 0.85665 0.57839 0.0
C897 C 0.50293 0.79483 0.64163 0.0
C898 C 0.0379 0.80259 0.18105 0.0
C899 C 1.02232 0.83005 0.19964 0.0
H900 H 0.03891 0.74766 0.17068 0.0
C901 C 0.99258 0.82249 0.21959 0.0
H902 H 0.06085 0.80727 0.16539 0.0
C903 C 0.97991 0.78844 0.22236 0.0
C904 C 0.99668 0.76064 0.20553 0.0
H905 H 0.97974 0.84273 0.23428 0.0
H906 H 0.9575 0.78382 0.23881 0.0
C907 C 0.02554 0.76826 0.18433 0.0
C908 C 0.53478 0.22589 0.6566 0.0
C909 C 0.53286 0.20911 0.68917 0.0
H910 H 0.54895 0.27246 0.62853 0.0
C911 C 0.54272 0.2282 0.71896 0.0
H912 H 0.52703 0.21217 0.63318 0.0
C913 C 0.55329 0.26306 0.71642 0.0
C914 C 0.55576 0.27969 0.68396 0.0
H915 H 0.54094 0.21662 0.74457 0.0
H916 H 0.5601 0.27697 0.74002 0.0
C917 C 0.54694 0.26052 0.65394 0.0
C918 C 0.63611 0.50241 0.76211 0.0
C919 C 0.61029 0.48103 0.77657 0.0
H920 H 0.65015 0.55417 0.74694 0.0
C921 C 0.57864 0.49519 0.78731 0.0
H922 H 0.6601 0.49134 0.75225 0.0
C923 C 0.57214 0.53025 0.78262 0.0
C924 C 0.59761 0.55204 0.76781 0.0
H925 H 0.55798 0.47866 0.79723 0.0
H926 H 0.5471 0.54018 0.79093 0.0
C927 C 0.62998 0.53796 0.75814 0.0
C928 C 0.7797 0.15831 0.05704 0.0
C929 C 0.79838 0.18863 0.06577 0.0
H930 H 0.73176 0.13693 0.03617 0.0
C931 C 0.7816 0.22092 0.06239 0.0
H932 H 0.79189 0.13309 0.05982 0.0
C933 C 0.74693 0.22297 0.05082 0.0
C934 C 0.72837 0.19287 0.04111 0.0
H935 H 0.79519 0.2447 0.06937 0.0
H936 H 0.73504 0.24837 0.04822 0.0
C937 C 0.74525 0.16049 0.04395 0.0
C938 C 0.9784 0.4841 0.18588 0.0
C939 C 0.99038 0.4618 0.21196 0.0
H940 H 0.97649 0.53704 0.16911 0.0
C941 C 1.01763 0.4729 0.23435 0.0
H942 H 0.9582 0.47589 0.16775 0.0
C943 C 0.02531 0.50789 0.23718 0.0
C944 C 1.00723 0.53116 0.21625 0.0
H945 H 0.02772 0.45635 0.2547 0.0
H946 H 0.04111 0.51693 0.25891 0.0
C947 C 0.98785 0.51908 0.18752 0.0
C948 C 0.78432 0.88131 0.58523 0.0
C949 C 0.75628 0.88541 0.56146 0.0
H950 H 0.83911 0.87024 0.59222 0.0
C951 C 0.76408 0.88813 0.52602 0.0
H952 H 0.7794 0.87965 0.61287 0.0
C953 C 0.79856 0.88484 0.51445 0.0
C954 C 0.82615 0.8767 0.53772 0.0
H955 H 0.7433 0.89156 0.50704 0.0
H956 H 0.80302 0.88624 0.4867 0.0
C957 C 0.8187 0.87605 0.57346 0.0
C958 C 0.83951 0.56561 0.52003 0.0
C959 C 0.82065 0.58785 0.5418 0.0
H960 H 0.85984 0.55841 0.46882 0.0
C961 C 0.81772 0.62315 0.53263 0.0
H962 H 0.84364 0.53868 0.52711 0.0
C963 C 0.82917 0.6349 0.50043 0.0
C964 C 0.84125 0.61096 0.47598 0.0
H965 H 0.80545 0.64155 0.54987 0.0
H966 H 0.8226 0.66116 0.49256 0.0
C967 C 0.85016 0.57732 0.48727 0.0
C968 C 0.866 0.51009 0.77179 0.0
C969 C 0.84969 0.54234 0.76611 0.0
H970 H 0.88053 0.47087 0.80904 0.0
C971 C 0.83736 0.56062 0.79544 0.0
H972 H 0.87605 0.49535 0.75008 0.0
C973 C 0.83982 0.54674 0.82891 0.0
C974 C 0.85483 0.51402 0.83465 0.0
H975 H 0.82466 0.58559 0.79266 0.0
H976 H 0.82869 0.56128 0.85024 0.0
C977 C 0.86884 0.49625 0.80573 0.0
C978 C 0.75489 0.4159 0.04314 0.0
C979 C 0.7496 0.45059 0.05314 0.0
H980 H 0.74857 0.37869 1.0022 0.0
C981 C 0.72419 0.47023 0.03521 0.0
H982 H 0.77189 0.39905 0.05804 0.0
C983 C 0.70788 0.45691 1.0056 0.0
C984 C 0.72049 0.42615 0.991 0.0
H985 H 0.71732 0.49622 0.04347 0.0
H986 H 0.69142 0.47412 0.99034 0.0
C987 C 0.7399 0.40349 1.01226 0.0
C988 C 0.69359 0.52205 0.31271 0.0
C989 C 0.68809 0.55765 0.3183 0.0
H990 H 0.69892 0.48093 0.27588 0.0
C991 C 0.6806 0.57879 0.28912 0.0
H992 H 0.69917 0.5049 0.33439 0.0
C993 C 0.68264 0.56541 0.25511 0.0
C994 C 0.68988 0.53011 0.2497 0.0
H995 H 0.67569 0.60629 0.29237 0.0
H996 H 0.67901 0.58267 0.23314 0.0
C997 C 0.69378 0.5084 0.279 0.0
C998 C 0.49305 0.74127 0.87097 0.0
C999 C 0.52919 0.73779 0.87639 0.0
H1000 H 0.44976 0.77628 0.86611 0.0
C1001 C 0.54867 0.76808 0.88489 0.0
H1002 H 0.47719 0.71885 0.86429 0.0
C1003 C 0.53333 0.80097 0.8846 0.0
C1004 C 0.49774 0.80462 0.87726 0.0
H1005 H 0.57658 0.7669 0.88959 0.0
H1006 H 0.54959 0.82368 0.88894 0.0
C1007 C 0.47742 0.7743 0.87193 0.0
C1008 C 0.16985 0.07628 0.38392 0.0
C1009 C 0.17807 0.11192 0.385 0.0
H1010 H 0.18828 0.02359 0.38256 0.0
C1011 C 0.2142 0.12034 0.38855 0.0
H1012 H 0.1429 0.06826 0.38122 0.0
C1013 C 0.24074 0.09462 0.38936 0.0
C1014 C 0.23259 0.05904 0.38645 0.0
H1015 H 0.22236 0.1473 0.38926 0.0
H1016 H 0.26778 0.10281 0.39127 0.0
C1017 C 0.19638 0.05051 0.38441 0.0
C1018 C 0.16083 0.81124 0.55848 0.0
C1019 C 0.16917 0.81525 0.52318 0.0
H1020 H 0.15851 0.83336 0.60939 0.0
C1021 C 0.18206 0.84851 0.51319 0.0
H1022 H 0.15021 0.78678 0.56755 0.0
C1023 C 0.18785 0.87589 0.53782 0.0
C1024 C 0.1797 0.87162 0.57339 0.0
H1025 H 0.18852 0.85317 0.48621 0.0
H1026 H 0.19952 0.89998 0.52909 0.0
C1027 C 0.16531 0.83871 0.58263 0.0
C1028 C 0.38726 0.98924 0.88099 0.0
C1029 C 0.38 0.95345 0.87821 0.0
H1030 H 0.36738 0.04153 0.8841 0.0
C1031 C 0.34392 0.94417 0.88023 0.0
H1032 H 0.41407 0.99793 0.88113 0.0
C1033 C 0.31673 0.96912 0.8826 0.0
C1034 C 0.3239 1.005 0.88316 0.0
H1035 H 0.33614 0.91715 0.87865 0.0
H1036 H 0.28989 0.96014 0.88294 0.0
C1037 C 0.35998 1.01439 0.88299 0.0
C1038 C 0.35733 0.15024 0.02608 0.0
C1039 C 0.36083 0.15894 0.06173 0.0
H1040 H 0.35754 0.16804 0.97249 0.0
C1041 C 0.36616 0.19481 0.06896 0.0
H1042 H 0.35269 0.12346 1.01872 0.0
C1043 C 0.36779 0.22045 0.04269 0.0
C1044 C 0.36488 0.21205 1.00715 0.0
H1045 H 0.36849 0.20373 0.09559 0.0
H1046 H 0.37196 0.24718 0.05052 0.0
C1047 C 0.35982 0.17618 0.99937 0.0
C1048 C 0.18402 0.95744 0.17247 0.0
C1049 C 0.15309 0.96736 0.1904 0.0
H1050 H 0.23433 0.97183 0.15145 0.0
C1051 C 0.15091 1.00263 0.19988 0.0
H1052 H 0.18765 0.93065 0.16475 0.0
C1053 C 0.17824 0.0265 0.19196 0.0
C1054 C 0.20937 1.01636 0.17452 0.0
H1055 H 0.1285 1.01173 0.21426 0.0
H1056 H 0.17503 0.05321 0.20016 0.0
C1057 C 0.21146 0.98117 0.16493 0.0
C1058 C 0.39097 0.91133 0.47161 0.0
C1059 C 0.39555 0.90338 0.4362 0.0
H1060 H 0.38637 0.89241 0.52414 0.0
C1061 C 0.40279 0.86802 0.42827 0.0
H1062 H 0.38575 0.93782 0.47919 0.0
C1063 C 0.40383 0.84176 0.45419 0.0
C1064 C 0.39677 0.84941 0.48924 0.0
H1065 H 0.40647 0.86021 0.40149 0.0
H1066 H 0.40872 0.81517 0.44646 0.0
C1067 C 0.39107 0.88492 0.49744 0.0
C1068 C 0.3423 0.05352 0.6608 0.0
C1069 C 0.3437 1.01964 0.67479 0.0
H1070 H 0.36655 0.1038 0.6554 0.0
C1071 C 0.37483 1.01161 0.69379 0.0
H1072 H 0.3196 0.0614 0.64582 0.0
C1073 C 0.40257 0.03607 0.69896 0.0
C1074 C 0.40085 0.07017 0.68555 0.0
H1075 H 0.37795 0.98599 0.705 0.0
H1076 H 0.42506 0.0284 0.71436 0.0
C1077 C 0.36992 0.07802 0.66616 0.0
C1078 C 0.13262 0.2181 0.92497 0.0
C1079 C 0.13786 0.2153 0.96104 0.0
H1080 H 0.13429 0.19271 0.87519 0.0
C1081 C 0.14843 0.18213 0.97382 0.0
H1082 H 0.12406 0.2425 0.91383 0.0
C1083 C 0.15323 0.15316 0.95194 0.0
C1084 C 0.14822 0.15582 0.91595 0.0
H1085 H 0.15316 0.17831 1.00138 0.0
H1086 H 0.16224 0.129 0.96319 0.0
C1087 C 0.1378 0.18898 0.90291 0.0
C1088 C 0.05931 0.35279 0.13032 0.0
C1089 C 0.09038 0.37218 0.12685 0.0
H1090 H 1.01732 0.33565 0.16293 0.0
C1091 C 0.1013 0.39123 0.15668 0.0
H1092 H 0.05097 0.33589 0.10937 0.0
C1093 C 0.08199 0.39094 0.18827 0.0
C1094 C 0.05167 0.37028 0.192 0.0
H1095 H 0.12583 0.40533 0.15605 0.0
H1096 H 0.0916 0.40593 0.21019 0.0
C1097 C 0.04055 0.35175 0.16196 0.0
C1098 C 0.57688 0.15853 0.85158 0.0
C1099 C 0.54234 0.17117 0.85207 0.0
H1100 H 0.62691 0.15501 0.87728 0.0
C1101 C 0.53219 0.18862 0.88301 0.0
H1102 H 0.58619 0.14483 0.82889 0.0
C1103 C 0.55561 0.19407 0.9115 0.0
C1104 C 0.59051 0.18243 0.91051 0.0
H1105 H 0.50583 0.19845 0.88527 0.0
H1106 H 0.54665 0.2087 0.93376 0.0
C1107 C 0.60035 0.16422 0.8799 0.0
C1108 C 0.97572 0.87839 0.35683 0.0
C1109 C 1.0117 0.87117 0.36024 0.0
H1110 H 0.92434 0.87593 0.37938 0.0
C1111 C 1.02255 0.85725 0.39291 0.0
H1112 H 0.96574 0.88902 0.33266 0.0
C1113 C 0.99871 0.85043 0.42043 0.0
C1114 C 0.96258 0.85663 0.41658 0.0
H1115 H 0.04986 0.85127 0.39731 0.0
H1116 H 1.00852 0.83896 0.44428 0.0
C1117 C 0.9518 0.87089 0.38408 0.0
C1118 C 0.98402 0.17835 0.1738 0.0
C1119 C 0.94898 0.17142 0.18262 0.0
H1120 H 0.03798 0.18004 0.18982 0.0
C1121 C 0.9434 0.1585 0.21686 0.0
H1122 H 0.99002 0.18892 0.14843 0.0
C1123 C 0.97117 0.15417 0.2414 0.0
C1124 C 1.00608 0.16207 0.23281 0.0
H1125 H 0.91704 0.1531 0.22541 0.0
H1126 H 0.96513 0.14493 0.26727 0.0
C1127 C 1.01177 0.17361 0.19814 0.0
C1128 C 0.5227 0.69099 0.67857 0.0
C1129 C 0.5101 0.68055 0.71175 0.0
H1130 H 0.51109 0.70506 0.62506 0.0
C1131 C 0.47376 0.67487 0.71385 0.0
H1132 H 0.55038 0.69568 0.67518 0.0
C1133 C 0.4513 0.67941 0.68463 0.0
C1134 C 0.46361 0.69033 0.65152 0.0
H1135 H 0.46246 0.66656 0.73822 0.0
H1136 H 0.42364 0.67493 0.68844 0.0
C1137 C 0.50004 0.696 0.64928 0.0
C1138 C 0.11645 0.63286 0.35288 0.0
C1139 C 0.10581 0.64433 0.38635 0.0
H1140 H 0.1031 0.62409 0.29867 0.0
C1141 C 0.07047 0.65456 0.38908 0.0
H1142 H 0.14321 0.62475 0.34902 0.0
C1143 C 0.04732 0.65391 0.35992 0.0
C1144 C 0.05838 0.64392 0.32623 0.0
H1145 H 0.06067 0.66372 0.41376 0.0
H1146 H 1.02044 0.66169 0.36375 0.0
C1147 C 0.09346 0.63305 0.3235 0.0
C1148 C 0.4583 0.38454 0.84704 0.0
C1149 C 0.46581 0.37278 0.88135 0.0
H1150 H 0.47636 0.39231 0.79425 0.0
C1151 C 0.50041 0.36235 0.88768 0.0
H1152 H 0.43231 0.39361 0.84061 0.0
C1153 C 0.52562 0.36113 0.86096 0.0
C1154 C 0.51784 0.37085 0.82618 0.0
H1155 H 0.50812 0.35502 0.91363 0.0
H1156 H 0.55165 0.35252 0.8679 0.0
C1157 C 0.48371 0.38359 0.82005 0.0
C1158 C 0.69066 0.56099 0.9021 0.0
C1159 C 0.69231 0.53015 0.88215 0.0
H1160 H 0.66194 0.60721 0.91573 0.0
C1161 C 0.66283 0.52315 0.86061 0.0
H1162 H 0.7121 0.56768 0.91936 0.0
C1163 C 0.6335 0.54571 0.85896 0.0
C1164 C 0.63192 0.57671 0.87854 0.0
H1165 H 0.66211 0.49977 0.84491 0.0
H1166 H 0.61199 0.53886 0.84203 0.0
C1167 C 0.6613 0.58368 0.90027 0.0
C1168 C 0.66933 0.37401 0.11658 0.0
C1169 C 0.67167 0.40965 0.10669 0.0
H1170 H 0.66502 0.32018 0.10129 0.0
C1171 C 0.66604 0.41661 0.07116 0.0
H1172 H 0.67235 0.36658 0.14359 0.0
C1173 C 0.66212 0.38918 0.04646 0.0
C1174 C 0.66302 0.35359 0.05627 0.0
H1175 H 0.66535 0.44324 0.06237 0.0
H1176 H 0.65859 0.39589 1.01933 0.0
C1177 C 0.66513 0.34678 0.0921 0.0
C1178 C 0.8817 0.5238 0.34609 0.0
C1179 C 0.84953 0.51654 0.36311 0.0
H1180 H 0.93118 0.50526 0.32685 0.0
C1181 C 0.84505 0.48221 0.37505 0.0
H1182 H 0.88702 0.54971 0.33648 0.0
C1183 C 0.87097 0.45638 0.36927 0.0
C1184 C 0.90297 0.46373 0.35201 0.0
H1185 H 0.82122 0.47503 0.38829 0.0
H1186 H 0.86556 0.43017 0.37798 0.0
C1187 C 0.90775 0.4982 0.34085 0.0
C1188 C 0.88597 0.64867 0.58821 0.0
C1189 C 0.89621 0.64482 0.62328 0.0
H1190 H 0.87445 0.6832 0.54568 0.0
C1191 C 0.9078 0.67556 0.64045 0.0
H1192 H 0.8772 0.6262 0.57372 0.0
C1193 C 0.90744 0.70867 0.62379 0.0
C1194 C 0.89471 0.7126 0.58949 0.0
H1195 H 0.91574 0.6743 0.6675 0.0
H1196 H 0.91527 0.73144 0.63848 0.0
C1197 C 0.88454 0.68173 0.57201 0.0
C1198 C 0.73545 0.4507 0.65271 0.0
C1199 C 0.72737 0.48627 0.65499 0.0
H1200 H 0.71744 0.39784 0.65439 0.0
C1201 C 0.69147 0.49434 0.66037 0.0
H1202 H 0.76221 0.4428 0.64837 0.0
C1203 C 0.66522 0.46826 0.66418 0.0
C1204 C 0.67335 0.4326 0.6621 0.0
H1205 H 0.68355 0.52125 0.66245 0.0
H1206 H 0.63872 0.47614 0.66984 0.0
C1207 C 0.70916 0.42468 0.65579 0.0
C1208 C 0.84238 0.36974 0.04103 0.0
C1209 C 0.85973 0.3376 0.03564 0.0
H1210 H 0.82631 0.41961 1.02036 0.0
C1211 C 0.87685 0.33394 1.00345 0.0
H1212 H 0.82955 0.37456 0.06555 0.0
C1213 C 0.87517 0.36024 0.97747 0.0
C1214 C 0.85672 0.39188 0.98236 0.0
H1215 H 0.89106 0.31032 0.99791 0.0
H1216 H 0.88755 0.35513 0.95277 0.0
C1217 C 0.84097 0.39621 1.01513 0.0
C1218 C 0.87933 0.54871 0.17111 0.0
C1219 C 0.84698 0.5585 0.15582 0.0
H1220 H 0.93067 0.56373 0.18822 0.0
C1221 C 0.84588 0.5923 0.14129 0.0
H1222 H 0.8819 0.52343 0.18321 0.0
C1223 C 0.87544 0.61521 0.14287 0.0
C1224 C 0.90763 0.60536 0.15872 0.0
H1225 H 0.82204 0.60129 0.12898 0.0
H1226 H 0.87278 0.64112 0.13224 0.0
C1227 C 0.90842 0.5716 0.17295 0.0
C1228 C 0.67985 0.73886 0.47728 0.0
C1229 C 0.68223 0.73123 0.51303 0.0
H1230 H 0.68491 0.72126 0.42459 0.0
C1231 C 0.69217 0.69656 0.52156 0.0
H1232 H 0.67241 0.7647 0.46898 0.0
C1233 C 0.69966 0.67105 0.49574 0.0
C1234 C 0.69726 0.67873 0.45992 0.0
H1235 H 0.69473 0.68905 0.54859 0.0
H1236 H 0.70807 0.64548 0.50397 0.0
C1237 C 0.6869 0.71333 0.45154 0.0
C1238 C 0.58124 0.88948 0.73339 0.0
C1239 C 0.54568 0.88982 0.72357 0.0
H1240 H 0.63494 0.88592 0.718 0.0
C1241 C 0.53893 0.88834 0.68706 0.0
H1242 H 0.58834 0.89096 0.76067 0.0
C1243 C 0.56613 0.88569 0.66197 0.0
C1244 C 0.60164 0.88389 0.67188 0.0
H1245 H 0.51225 0.88906 0.67756 0.0
H1246 H 0.5592 0.88475 0.63472 0.0
C1247 C 0.60833 0.88677 0.70833 0.0
loop_
_geom_bond_atom_site_label_1
_geom_bond_atom_site_label_2
_geom_bond_distance
_geom_bond_site_symmetry_2
_ccdc_geom_bond_type
Sc0 O3 2.025 . S
Sc0 O10 2.105 . S
Sc0 O13 2.105 . S
Sc0 O16 2.105 . S
Sc0 O19 2.105 . S
Sc1 O3 2.025 . S
Sc1 O11 2.105 . S
Sc1 O15 2.105 1_455 S
Sc1 O17 2.105 . S
Sc1 O21 2.105 1_455 S
Sc2 O3 2.025 1_655 S
Sc2 O12 2.105 . S
Sc2 O14 2.105 . S
Sc2 O18 2.105 . S
Sc2 O20 2.105 1_655 S
O3 Sc0 2.025 . S
O3 Sc1 2.025 . S
O3 Sc2 2.025 1_455 S
C4 O10 1.268 . S
C4 O20 1.268 . S
C5 O11 1.268 . S
C5 O19 1.268 . S
C6 O12 1.268 . S
C6 O21 1.268 . S
C7 O13 1.268 . S
C7 O17 1.268 . S
C8 O14 1.268 1_455 S
C8 O16 1.268 . S
C9 O15 1.268 . S
C9 O18 1.268 . S
O10 Sc0 2.105 . S
O10 C4 1.268 . S
O11 Sc1 2.105 . S
O11 C5 1.268 . S
O12 Sc2 2.105 . S
O12 C6 1.268 . S
O13 Sc0 2.105 . S
O13 C7 1.268 . S
O14 Sc2 2.105 . S
O14 C8 1.268 1_655 S
O15 Sc1 2.105 1_655 S
O15 C9 1.268 . S
O16 Sc0 2.105 . S
O16 C8 1.268 . S
O17 Sc1 2.105 . S
O17 C7 1.268 . S
O18 Sc2 2.105 . S
O18 C9 1.268 . S
O19 Sc0 2.105 . S
O19 C5 1.268 . S
O20 Sc2 2.105 1_455 S
O20 C4 1.268 . S
O21 Sc1 2.105 1_655 S
O21 C6 1.268 . S
Sc22 O25 2.025 . S
Sc22 O32 2.105 . S
Sc22 O35 2.105 . S
Sc22 O38 2.105 . S
Sc22 O41 2.105 . S
Sc23 O25 2.025 . S
Sc23 O33 2.105 . S
Sc23 O37 2.105 . S
Sc23 O39 2.105 . S
Sc23 O43 2.105 . S
Sc24 O25 2.025 . S
Sc24 O34 2.105 . S
Sc24 O36 2.105 . S
Sc24 O40 2.105 . S
Sc24 O42 2.105 . S
O25 Sc22 2.025 . S
O25 Sc23 2.025 . S
O25 Sc24 2.025 . S
C26 O32 1.268 . S
C26 O42 1.268 . S
C27 O33 1.268 . S
C27 O41 1.268 . S
C28 O34 1.268 . S
C28 O43 1.268 . S
C29 O35 1.268 . S
C29 O39 1.268 . S
C30 O36 1.268 . S
C30 O38 1.268 . S
C31 O37 1.268 . S
C31 O40 1.268 . S
O32 Sc22 2.105 . S
O32 C26 1.268 . S
O33 Sc23 2.105 . S
O33 C27 1.268 . S
O34 Sc24 2.105 . S
O34 C28 1.268 . S
O35 Sc22 2.105 . S
O35 C29 1.268 . S
O36 Sc24 2.105 . S
O36 C30 1.268 . S
O37 Sc23 2.105 . S
O37 C31 1.268 . S
O38 Sc22 2.105 . S
O38 C30 1.268 . S
O39 Sc23 2.105 . S
O39 C29 1.268 . S
O40 Sc24 2.105 . S
O40 C31 1.268 . S
O41 Sc22 2.105 . S
O41 C27 1.268 . S
O42 Sc24 2.105 . S
O42 C26 1.268 . S
O43 Sc23 2.105 . S
O43 C28 1.268 . S
Sc44 O47 2.025 . S
Sc44 O54 2.105 . S
Sc44 O57 2.105 . S
Sc44 O60 2.105 . S
Sc44 O63 2.105 . S
Sc45 O47 2.025 . S
Sc45 O55 2.105 . S
Sc45 O59 2.105 . S
Sc45 O61 2.105 . S
Sc45 O65 2.105 . S
Sc46 O47 2.025 . S
Sc46 O56 2.105 . S
Sc46 O58 2.105 . S
Sc46 O62 2.105 . S
Sc46 O64 2.105 . S
O47 Sc44 2.025 . S
O47 Sc45 2.025 . S
O47 Sc46 2.025 . S
C48 O54 1.268 . S
C48 O64 1.268 . S
C49 O55 1.268 . S
C49 O63 1.268 . S
C50 O56 1.268 . S
C50 O65 1.268 . S
C51 O57 1.268 . S
C51 O61 1.268 . S
C52 O58 1.268 . S
C52 O60 1.268 . S
C53 O59 1.268 . S
C53 O62 1.268 . S
O54 Sc44 2.105 . S
O54 C48 1.268 . S
O55 Sc45 2.105 . S
O55 C49 1.268 . S
O56 Sc46 2.105 . S
O56 C50 1.268 . S
O57 Sc44 2.105 . S
O57 C51 1.268 . S
O58 Sc46 2.105 . S
O58 C52 1.268 . S
O59 Sc45 2.105 . S
O59 C53 1.268 . S
O60 Sc44 2.105 . S
O60 C52 1.268 . S
O61 Sc45 2.105 . S
O61 C51 1.268 . S
O62 Sc46 2.105 . S
O62 C53 1.268 . S
O63 Sc44 2.105 . S
O63 C49 1.268 . S
O64 Sc46 2.105 . S
O64 C48 1.268 . S
O65 Sc45 2.105 . S
O65 C50 1.268 . S
Sc66 O69 2.025 1_554 S
Sc66 O76 2.105 . S
Sc66 O79 2.105 . S
Sc66 O82 2.105 . S
Sc66 O85 2.105 1_554 S
Sc67 O69 2.025 . S
Sc67 O77 2.105 . S
Sc67 O81 2.105 . S
Sc67 O83 2.105 . S
Sc67 O87 2.105 . S
Sc68 O69 2.025 . S
Sc68 O78 2.105 . S
Sc68 O80 2.105 1_556 S
Sc68 O84 2.105 . S
Sc68 O86 2.105 1_556 S
O69 Sc66 2.025 1_556 S
O69 Sc67 2.025 . S
O69 Sc68 2.025 . S
C70 O76 1.268 . S
C70 O86 1.268 . S
C71 O77 1.268 . S
C71 O85 1.268 . S
C72 O78 1.268 . S
C72 O87 1.268 . S
C73 O79 1.268 1_556 S
C73 O83 1.268 . S
C74 O80 1.268 . S
C74 O82 1.268 . S
C75 O81 1.268 . S
C75 O84 1.268 . S
O76 Sc66 2.105 . S
O76 C70 1.268 . S
O77 Sc67 2.105 . S
O77 C71 1.268 . S
O78 Sc68 2.105 . S
O78 C72 1.268 . S
O79 Sc66 2.105 . S
O79 C73 1.268 1_554 S
O80 Sc68 2.105 1_554 S
O80 C74 1.268 . S
O81 Sc67 2.105 . S
O81 C75 1.268 . S
O82 Sc66 2.105 . S
O82 C74 1.268 . S
O83 Sc67 2.105 . S
O83 C73 1.268 . S
O84 Sc68 2.105 . S
O84 C75 1.268 . S
O85 Sc66 2.105 1_556 S
O85 C71 1.268 . S
O86 Sc68 2.105 1_554 S
O86 C70 1.268 . S
O87 Sc67 2.105 . S
O87 C72 1.268 . S
Sc88 O91 2.025 . S
Sc88 O98 2.105 . S
Sc88 O101 2.105 . S
Sc88 O104 2.105 . S
Sc88 O107 2.105 . S
Sc89 O91 2.025 . S
Sc89 O99 2.105 . S
Sc89 O103 2.105 1_455 S
Sc89 O105 2.105 . S
Sc89 O109 2.105 1_455 S
Sc90 O91 2.025 1_655 S
Sc90 O100 2.105 . S
Sc90 O102 2.105 . S
Sc90 O106 2.105 . S
Sc90 O108 2.105 1_655 S
O91 Sc88 2.025 . S
O91 Sc89 2.025 . S
O91 Sc90 2.025 1_455 S
C92 O98 1.268 . S
C92 O108 1.268 . S
C93 O99 1.268 . S
C93 O107 1.268 . S
C94 O100 1.268 . S
C94 O109 1.268 . S
C95 O101 1.268 . S
C95 O105 1.268 . S
C96 O102 1.268 1_455 S
C96 O104 1.268 . S
C97 O103 1.268 . S
C97 O106 1.268 . S
O98 Sc88 2.105 . S
O98 C92 1.268 . S
O99 Sc89 2.105 . S
O99 C93 1.268 . S
O100 Sc90 2.105 . S
O100 C94 1.268 . S
O101 Sc88 2.105 . S
O101 C95 1.268 . S
O102 Sc90 2.105 . S
O102 C96 1.268 1_655 S
O103 Sc89 2.105 1_655 S
O103 C97 1.268 . S
O104 Sc88 2.105 . S
O104 C96 1.268 . S
O105 Sc89 2.105 . S
O105 C95 1.268 . S
O106 Sc90 2.105 . S
O106 C97 1.268 . S
O107 Sc88 2.105 . S
O107 C93 1.268 . S
O108 Sc90 2.105 1_455 S
O108 C92 1.268 . S
O109 Sc89 2.105 1_655 S
O109 C94 1.268 . S
Sc110 O113 2.025 . S
Sc110 O120 2.105 . S
Sc110 O123 2.105 . S
Sc110 O126 2.105 . S
Sc110 O129 2.105 . S
Sc111 O113 2.025 . S
Sc111 O121 2.105 . S
Sc111 O125 2.105 . S
Sc111 O127 2.105 . S
Sc111 O131 2.105 . S
Sc112 O113 2.025 . S
Sc112 O122 2.105 . S
Sc112 O124 2.105 . S
Sc112 O128 2.105 . S
Sc112 O130 2.105 . S
O113 Sc110 2.025 . S
O113 Sc111 2.025 . S
O113 Sc112 2.025 . S
C114 O120 1.268 . S
C114 O130 1.268 . S
C115 O121 1.268 . S
C115 O129 1.268 . S
C116 O122 1.268 . S
C116 O131 1.268 . S
C117 O123 1.268 . S
C117 O127 1.268 . S
C118 O124 1.268 . S
C118 O126 1.268 . S
C119 O125 1.268 . S
C119 O128 1.268 . S
O120 Sc110 2.105 . S
O120 C114 1.268 . S
O121 Sc111 2.105 . S
O121 C115 1.268 . S
O122 Sc112 2.105 . S
O122 C116 1.268 . S
O123 Sc110 2.105 . S
O123 C117 1.268 . S
O124 Sc112 2.105 . S
O124 C118 1.268 . S
O125 Sc111 2.105 . S
O125 C119 1.268 . S
O126 Sc110 2.105 . S
O126 C118 1.268 . S
O127 Sc111 2.105 . S
O127 C117 1.268 . S
O128 Sc112 2.105 . S
O128 C119 1.268 . S
O129 Sc110 2.105 . S
O129 C115 1.268 . S
O130 Sc112 2.105 . S
O130 C114 1.268 . S
O131 Sc111 2.105 . S
O131 C116 1.268 . S
Sc132 O135 2.025 . S
Sc132 O142 2.105 . S
Sc132 O145 2.105 . S
Sc132 O148 2.105 . S
Sc132 O151 2.105 . S
Sc133 O135 2.025 . S
Sc133 O143 2.105 . S
Sc133 O147 2.105 . S
Sc133 O149 2.105 . S
Sc133 O153 2.105 . S
Sc134 O135 2.025 . S
Sc134 O144 2.105 . S
Sc134 O146 2.105 . S
Sc134 O150 2.105 . S
Sc134 O152 2.105 . S
O135 Sc132 2.025 . S
O135 Sc133 2.025 . S
O135 Sc134 2.025 . S
C136 O142 1.268 . S
C136 O152 1.268 . S
C137 O143 1.268 . S
C137 O151 1.268 . S
C138 O144 1.268 . S
C138 O153 1.268 . S
C139 O145 1.268 . S
C139 O149 1.268 . S
C140 O146 1.268 . S
C140 O148 1.268 . S
C141 O147 1.268 . S
C141 O150 1.268 . S
O142 Sc132 2.105 . S
O142 C136 1.268 . S
O143 Sc133 2.105 . S
O143 C137 1.268 . S
O144 Sc134 2.105 . S
O144 C138 1.268 . S
O145 Sc132 2.105 . S
O145 C139 1.268 . S
O146 Sc134 2.105 . S
O146 C140 1.268 . S
O147 Sc133 2.105 . S
O147 C141 1.268 . S
O148 Sc132 2.105 . S
O148 C140 1.268 . S
O149 Sc133 2.105 . S
O149 C139 1.268 . S
O150 Sc134 2.105 . S
O150 C141 1.268 . S
O151 Sc132 2.105 . S
O151 C137 1.268 . S
O152 Sc134 2.105 . S
O152 C136 1.268 . S
O153 Sc133 2.105 . S
O153 C138 1.268 . S
Sc154 O157 2.025 . S
Sc154 O164 2.105 . S
Sc154 O167 2.105 . S
Sc154 O170 2.105 . S
Sc154 O173 2.105 . S
Sc155 O157 2.025 . S
Sc155 O165 2.105 . S
Sc155 O169 2.105 1_554 S
Sc155 O171 2.105 . S
Sc155 O175 2.105 1_554 S
Sc156 O157 2.025 1_556 S
Sc156 O166 2.105 . S
Sc156 O168 2.105 . S
Sc156 O172 2.105 . S
Sc156 O174 2.105 1_556 S
O157 Sc154 2.025 . S
O157 Sc155 2.025 . S
O157 Sc156 2.025 1_554 S
C158 O164 1.268 . S
C158 O174 1.268 . S
C159 O165 1.268 . S
C159 O173 1.268 . S
C160 O166 1.268 . S
C160 O175 1.268 . S
C161 O167 1.268 . S
C161 O171 1.268 . S
C162 O168 1.268 1_554 S
C162 O170 1.268 . S
C163 O169 1.268 . S
C163 O172 1.268 . S
O164 Sc154 2.105 . S
O164 C158 1.268 . S
O165 Sc155 2.105 . S
O165 C159 1.268 . S
O166 Sc156 2.105 . S
O166 C160 1.268 . S
O167 Sc154 2.105 . S
O167 C161 1.268 . S
O168 Sc156 2.105 . S
O168 C162 1.268 1_556 S
O169 Sc155 2.105 1_556 S
O169 C163 1.268 . S
O170 Sc154 2.105 . S
O170 C162 1.268 . S
O171 Sc155 2.105 . S
O171 C161 1.268 . S
O172 Sc156 2.105 . S
O172 C163 1.268 . S
O173 Sc154 2.105 . S
O173 C159 1.268 . S
O174 Sc156 2.105 1_554 S
O174 C158 1.268 . S
O175 Sc155 2.105 1_556 S
O175 C160 1.268 . S
Sc176 O179 2.025 . S
Sc176 O186 2.105 . S
Sc176 O189 2.105 . S
Sc176 O192 2.105 . S
Sc176 O195 2.105 . S
Sc177 O179 2.025 . S
Sc177 O187 2.105 . S
Sc177 O191 2.105 1_545 S
Sc177 O193 2.105 . S
Sc177 O197 2.105 1_545 S
Sc178 O179 2.025 1_565 S
Sc178 O188 2.105 . S
Sc178 O190 2.105 . S
Sc178 O194 2.105 . S
Sc178 O196 2.105 1_565 S
O179 Sc176 2.025 . S
O179 Sc177 2.025 . S
O179 Sc178 2.025 1_545 S
C180 O186 1.268 . S
C180 O196 1.268 . S
C181 O187 1.268 . S
C181 O195 1.268 . S
C182 O188 1.268 . S
C182 O197 1.268 . S
C183 O189 1.268 . S
C183 O193 1.268 . S
C184 O190 1.268 1_545 S
C184 O192 1.268 . S
C185 O191 1.268 . S
C185 O194 1.268 . S
O186 Sc176 2.105 . S
O186 C180 1.268 . S
O187 Sc177 2.105 . S
O187 C181 1.268 . S
O188 Sc178 2.105 . S
O188 C182 1.268 . S
O189 Sc176 2.105 . S
O189 C183 1.268 . S
O190 Sc178 2.105 . S
O190 C184 1.268 1_565 S
O191 Sc177 2.105 1_565 S
O191 C185 1.268 . S
O192 Sc176 2.105 . S
O192 C184 1.268 . S
O193 Sc177 2.105 . S
O193 C183 1.268 . S
O194 Sc178 2.105 . S
O194 C185 1.268 . S
O195 Sc176 2.105 . S
O195 C181 1.268 . S
O196 Sc178 2.105 1_545 S
O196 C180 1.268 . S
O197 Sc177 2.105 1_565 S
O197 C182 1.268 . S
Sc198 O201 2.025 . S
Sc198 O208 2.105 1_565 S
Sc198 O211 2.105 . S
Sc198 O214 2.105 1_565 S
Sc198 O217 2.105 . S
Sc199 O201 2.025 . S
Sc199 O209 2.105 . S
Sc199 O213 2.105 . S
Sc199 O215 2.105 . S
Sc199 O219 2.105 . S
Sc200 O201 2.025 1_545 S
Sc200 O210 2.105 . S
Sc200 O212 2.105 . S
Sc200 O216 2.105 1_545 S
Sc200 O218 2.105 . S
O201 Sc198 2.025 . S
O201 Sc199 2.025 . S
O201 Sc200 2.025 1_565 S
C202 O208 1.268 . S
C202 O218 1.268 . S
C203 O209 1.268 . S
C203 O217 1.268 . S
C204 O210 1.268 1_565 S
C204 O219 1.268 . S
C205 O211 1.268 . S
C205 O215 1.268 . S
C206 O212 1.268 . S
C206 O214 1.268 . S
C207 O213 1.268 . S
C207 O216 1.268 . S
O208 Sc198 2.105 1_545 S
O208 C202 1.268 . S
O209 Sc199 2.105 . S
O209 C203 1.268 . S
O210 Sc200 2.105 . S
O210 C204 1.268 1_545 S
O211 Sc198 2.105 . S
O211 C205 1.268 . S
O212 Sc200 2.105 . S
O212 C206 1.268 . S
O213 Sc199 2.105 . S
O213 C207 1.268 . S
O214 Sc198 2.105 1_545 S
O214 C206 1.268 . S
O215 Sc199 2.105 . S
O215 C205 1.268 . S
O216 Sc200 2.105 1_565 S
O216 C207 1.268 . S
O217 Sc198 2.105 . S
O217 C203 1.268 . S
O218 Sc200 2.105 . S
O218 C202 1.268 . S
O219 Sc199 2.105 . S
O219 C204 1.268 . S
Sc220 O223 2.025 . S
Sc220 O230 2.105 . S
Sc220 O233 2.105 . S
Sc220 O236 2.105 . S
Sc220 O239 2.105 . S
Sc221 O223 2.025 . S
Sc221 O231 2.105 . S
Sc221 O235 2.105 1_565 S
Sc221 O237 2.105 . S
Sc221 O241 2.105 1_565 S
Sc222 O223 2.025 1_545 S
Sc222 O232 2.105 . S
Sc222 O234 2.105 . S
Sc222 O238 2.105 . S
Sc222 O240 2.105 1_545 S
O223 Sc220 2.025 . S
O223 Sc221 2.025 . S
O223 Sc222 2.025 1_565 S
C224 O230 1.268 . S
C224 O240 1.268 . S
C225 O231 1.268 . S
C225 O239 1.268 . S
C226 O232 1.268 . S
C226 O241 1.268 . S
C227 O233 1.268 . S
C227 O237 1.268 . S
C228 O234 1.268 1_565 S
C228 O236 1.268 . S
C229 O235 1.268 . S
C229 O238 1.268 . S
O230 Sc220 2.105 . S
O230 C224 1.268 . S
O231 Sc221 2.105 . S
O231 C225 1.268 . S
O232 Sc222 2.105 . S
O232 C226 1.268 . S
O233 Sc220 2.105 . S
O233 C227 1.268 . S
O234 Sc222 2.105 . S
O234 C228 1.268 1_545 S
O235 Sc221 2.105 1_545 S
O235 C229 1.268 . S
O236 Sc220 2.105 . S
O236 C228 1.268 . S
O237 Sc221 2.105 . S
O237 C227 1.268 . S
O238 Sc222 2.105 . S
O238 C229 1.268 . S
O239 Sc220 2.105 . S
O239 C225 1.268 . S
O240 Sc222 2.105 1_565 S
O240 C224 1.268 . S
O241 Sc221 2.105 1_545 S
O241 C226 1.268 . S
Sc242 O245 2.025 1_565 S
Sc242 O252 2.105 . S
Sc242 O255 2.105 . S
Sc242 O258 2.105 1_565 S
Sc242 O261 2.105 . S
Sc243 O245 2.025 . S
Sc243 O253 2.105 1_545 S
Sc243 O257 2.105 . S
Sc243 O259 2.105 1_545 S
Sc243 O263 2.105 . S
Sc244 O245 2.025 . S
Sc244 O254 2.105 . S
Sc244 O256 2.105 . S
Sc244 O260 2.105 . S
Sc244 O262 2.105 . S
O245 Sc242 2.025 1_545 S
O245 Sc243 2.025 . S
O245 Sc244 2.025 . S
C246 O252 1.268 1_545 S
C246 O262 1.268 . S
C247 O253 1.268 . S
C247 O261 1.268 . S
C248 O254 1.268 . S
C248 O263 1.268 . S
C249 O255 1.268 . S
C249 O259 1.268 . S
C250 O256 1.268 . S
C250 O258 1.268 . S
C251 O257 1.268 . S
C251 O260 1.268 . S
O252 Sc242 2.105 . S
O252 C246 1.268 1_565 S
O253 Sc243 2.105 1_565 S
O253 C247 1.268 . S
O254 Sc244 2.105 . S
O254 C248 1.268 . S
O255 Sc242 2.105 . S
O255 C249 1.268 . S
O256 Sc244 2.105 . S
O256 C250 1.268 . S
O257 Sc243 2.105 . S
O257 C251 1.268 . S
O258 Sc242 2.105 1_545 S
O258 C250 1.268 . S
O259 Sc243 2.105 1_565 S
O259 C249 1.268 . S
O260 Sc244 2.105 . S
O260 C251 1.268 . S
O261 Sc242 2.105 . S
O261 C247 1.268 . S
O262 Sc244 2.105 . S
O262 C246 1.268 . S
O263 Sc243 2.105 . S
O263 C248 1.268 . S
Sc264 O267 2.025 . S
Sc264 O274 2.105 1_556 S
Sc264 O277 2.105 . S
Sc264 O280 2.105 1_556 S
Sc264 O283 2.105 . S
Sc265 O267 2.025 . S
Sc265 O275 2.105 . S
Sc265 O279 2.105 . S
Sc265 O281 2.105 . S
Sc265 O285 2.105 . S
Sc266 O267 2.025 1_554 S
Sc266 O276 2.105 . S
Sc266 O278 2.105 . S
Sc266 O282 2.105 1_554 S
Sc266 O284 2.105 . S
O267 Sc264 2.025 . S
O267 Sc265 2.025 . S
O267 Sc266 2.025 1_556 S
C268 O274 1.268 . S
C268 O284 1.268 . S
C269 O275 1.268 . S
C269 O283 1.268 . S
C270 O276 1.268 1_556 S
C270 O285 1.268 . S
C271 O277 1.268 . S
C271 O281 1.268 . S
C272 O278 1.268 . S
C272 O280 1.268 . S
C273 O279 1.268 . S
C273 O282 1.268 . S
O274 Sc264 2.105 1_554 S
O274 C268 1.268 . S
O275 Sc265 2.105 . S
O275 C269 1.268 . S
O276 Sc266 2.105 . S
O276 C270 1.268 1_554 S
O277 Sc264 2.105 . S
O277 C271 1.268 . S
O278 Sc266 2.105 . S
O278 C272 1.268 . S
O279 Sc265 2.105 . S
O279 C273 1.268 . S
O280 Sc264 2.105 1_554 S
O280 C272 1.268 . S
O281 Sc265 2.105 . S
O281 C271 1.268 . S
O282 Sc266 2.105 1_556 S
O282 C273 1.268 . S
O283 Sc264 2.105 . S
O283 C269 1.268 . S
O284 Sc266 2.105 . S
O284 C268 1.268 . S
O285 Sc265 2.105 . S
O285 C270 1.268 . S
Sc286 O289 2.025 . S
Sc286 O296 2.105 1_655 S
Sc286 O299 2.105 . S
Sc286 O302 2.105 1_655 S
Sc286 O305 2.105 . S
Sc287 O289 2.025 . S
Sc287 O297 2.105 . S
Sc287 O301 2.105 . S
Sc287 O303 2.105 . S
Sc287 O307 2.105 . S
Sc288 O289 2.025 1_455 S
Sc288 O298 2.105 . S
Sc288 O300 2.105 . S
Sc288 O304 2.105 1_455 S
Sc288 O306 2.105 . S
O289 Sc286 2.025 . S
O289 Sc287 2.025 . S
O289 Sc288 2.025 1_655 S
C290 O296 1.268 . S
C290 O306 1.268 . S
C291 O297 1.268 . S
C291 O305 1.268 . S
C292 O298 1.268 1_655 S
C292 O307 1.268 . S
C293 O299 1.268 . S
C293 O303 1.268 . S
C294 O300 1.268 . S
C294 O302 1.268 . S
C295 O301 1.268 . S
C295 O304 1.268 . S
O296 Sc286 2.105 1_455 S
O296 C290 1.268 . S
O297 Sc287 2.105 . S
O297 C291 1.268 . S
O298 Sc288 2.105 . S
O298 C292 1.268 1_455 S
O299 Sc286 2.105 . S
O299 C293 1.268 . S
O300 Sc288 2.105 . S
O300 C294 1.268 . S
O301 Sc287 2.105 . S
O301 C295 1.268 . S
O302 Sc286 2.105 1_455 S
O302 C294 1.268 . S
O303 Sc287 2.105 . S
O303 C293 1.268 . S
O304 Sc288 2.105 1_655 S
O304 C295 1.268 . S
O305 Sc286 2.105 . S
O305 C291 1.268 . S
O306 Sc288 2.105 . S
O306 C290 1.268 . S
O307 Sc287 2.105 . S
O307 C292 1.268 . S
Sc308 O311 2.025 . S
Sc308 O318 2.105 . S
Sc308 O321 2.105 . S
Sc308 O324 2.105 . S
Sc308 O327 2.105 . S
Sc309 O311 2.025 . S
Sc309 O319 2.105 . S
Sc309 O323 2.105 . S
Sc309 O325 2.105 . S
Sc309 O329 2.105 . S
Sc310 O311 2.025 . S
Sc310 O320 2.105 . S
Sc310 O322 2.105 . S
Sc310 O326 2.105 . S
Sc310 O328 2.105 . S
O311 Sc308 2.025 . S
O311 Sc309 2.025 . S
O311 Sc310 2.025 . S
C312 O318 1.268 . S
C312 O328 1.268 . S
C313 O319 1.268 . S
C313 O327 1.268 . S
C314 O320 1.268 . S
C314 O329 1.268 . S
C315 O321 1.268 . S
C315 O325 1.268 . S
C316 O322 1.268 . S
C316 O324 1.268 . S
C317 O323 1.268 . S
C317 O326 1.268 . S
O318 Sc308 2.105 . S
O318 C312 1.268 . S
O319 Sc309 2.105 . S
O319 C313 1.268 . S
O320 Sc310 2.105 . S
O320 C314 1.268 . S
O321 Sc308 2.105 . S
O321 C315 1.268 . S
O322 Sc310 2.105 . S
O322 C316 1.268 . S
O323 Sc309 2.105 . S
O323 C317 1.268 . S
O324 Sc308 2.105 . S
O324 C316 1.268 . S
O325 Sc309 2.105 . S
O325 C315 1.268 . S
O326 Sc310 2.105 . S
O326 C317 1.268 . S
O327 Sc308 2.105 . S
O327 C313 1.268 . S
O328 Sc310 2.105 . S
O328 C312 1.268 . S
O329 Sc309 2.105 . S
O329 C314 1.268 . S
Sc330 O333 2.025 . S
Sc330 O340 2.105 . S
Sc330 O343 2.105 . S
Sc330 O346 2.105 . S
Sc330 O349 2.105 . S
Sc331 O333 2.025 . S
Sc331 O341 2.105 . S
Sc331 O345 2.105 1_655 S
Sc331 O347 2.105 . S
Sc331 O351 2.105 1_655 S
Sc332 O333 2.025 1_455 S
Sc332 O342 2.105 . S
Sc332 O344 2.105 . S
Sc332 O348 2.105 . S
Sc332 O350 2.105 1_455 S
O333 Sc330 2.025 . S
O333 Sc331 2.025 . S
O333 Sc332 2.025 1_655 S
C334 O340 1.268 . S
C334 O350 1.268 . S
C335 O341 1.268 . S
C335 O349 1.268 . S
C336 O342 1.268 . S
C336 O351 1.268 . S
C337 O343 1.268 . S
C337 O347 1.268 . S
C338 O344 1.268 1_655 S
C338 O346 1.268 . S
C339 O345 1.268 . S
C339 O348 1.268 . S
O340 Sc330 2.105 . S
O340 C334 1.268 . S
O341 Sc331 2.105 . S
O341 C335 1.268 . S
O342 Sc332 2.105 . S
O342 C336 1.268 . S
O343 Sc330 2.105 . S
O343 C337 1.268 . S
O344 Sc332 2.105 . S
O344 C338 1.268 1_455 S
O345 Sc331 2.105 1_455 S
O345 C339 1.268 . S
O346 Sc330 2.105 . S
O346 C338 1.268 . S
O347 Sc331 2.105 . S
O347 C337 1.268 . S
O348 Sc332 2.105 . S
O348 C339 1.268 . S
O349 Sc330 2.105 . S
O349 C335 1.268 . S
O350 Sc332 2.105 1_655 S
O350 C334 1.268 . S
O351 Sc331 2.105 1_455 S
O351 C336 1.268 . S
Sc352 O355 2.025 . S
Sc352 O362 2.105 . S
Sc352 O365 2.105 . S
Sc352 O368 2.105 . S
Sc352 O371 2.105 . S
Sc353 O355 2.025 . S
Sc353 O363 2.105 . S
Sc353 O367 2.105 . S
Sc353 O369 2.105 . S
Sc353 O373 2.105 . S
Sc354 O355 2.025 . S
Sc354 O364 2.105 . S
Sc354 O366 2.105 . S
Sc354 O370 2.105 . S
Sc354 O372 2.105 . S
O355 Sc352 2.025 . S
O355 Sc353 2.025 . S
O355 Sc354 2.025 . S
C356 O362 1.268 . S
C356 O372 1.268 . S
C357 O363 1.268 . S
C357 O371 1.268 . S
C358 O364 1.268 . S
C358 O373 1.268 . S
C359 O365 1.268 . S
C359 O369 1.268 . S
C360 O366 1.268 . S
C360 O368 1.268 . S
C361 O367 1.268 . S
C361 O370 1.268 . S
O362 Sc352 2.105 . S
O362 C356 1.268 . S
O363 Sc353 2.105 . S
O363 C357 1.268 . S
O364 Sc354 2.105 . S
O364 C358 1.268 . S
O365 Sc352 2.105 . S
O365 C359 1.268 . S
O366 Sc354 2.105 . S
O366 C360 1.268 . S
O367 Sc353 2.105 . S
O367 C361 1.268 . S
O368 Sc352 2.105 . S
O368 C360 1.268 . S
O369 Sc353 2.105 . S
O369 C359 1.268 . S
O370 Sc354 2.105 . S
O370 C361 1.268 . S
O371 Sc352 2.105 . S
O371 C357 1.268 . S
O372 Sc354 2.105 . S
O372 C356 1.268 . S
O373 Sc353 2.105 . S
O373 C358 1.268 . S
Sc374 O377 2.025 . S
Sc374 O384 2.105 . S
Sc374 O387 2.105 . S
Sc374 O390 2.105 . S
Sc374 O393 2.105 . S
Sc375 O377 2.025 . S
Sc375 O385 2.105 . S
Sc375 O389 2.105 . S
Sc375 O391 2.105 . S
Sc375 O395 2.105 . S
Sc376 O377 2.025 . S
Sc376 O386 2.105 . S
Sc376 O388 2.105 . S
Sc376 O392 2.105 . S
Sc376 O394 2.105 . S
O377 Sc374 2.025 . S
O377 Sc375 2.025 . S
O377 Sc376 2.025 . S
C378 O384 1.268 . S
C378 O394 1.268 . S
C379 O385 1.268 . S
C379 O393 1.268 . S
C380 O386 1.268 . S
C380 O395 1.268 . S
C381 O387 1.268 . S
C381 O391 1.268 . S
C382 O388 1.268 . S
C382 O390 1.268 . S
C383 O389 1.268 . S
C383 O392 1.268 . S
O384 Sc374 2.105 . S
O384 C378 1.268 . S
O385 Sc375 2.105 . S
O385 C379 1.268 . S
O386 Sc376 2.105 . S
O386 C380 1.268 . S
O387 Sc374 2.105 . S
O387 C381 1.268 . S
O388 Sc376 2.105 . S
O388 C382 1.268 . S
O389 Sc375 2.105 . S
O389 C383 1.268 . S
O390 Sc374 2.105 . S
O390 C382 1.268 . S
O391 Sc375 2.105 . S
O391 C381 1.268 . S
O392 Sc376 2.105 . S
O392 C383 1.268 . S
O393 Sc374 2.105 . S
O393 C379 1.268 . S
O394 Sc376 2.105 . S
O394 C378 1.268 . S
O395 Sc375 2.105 . S
O395 C380 1.268 . S
Sc396 O399 2.025 1_556 S
Sc396 O406 2.105 . S
Sc396 O409 2.105 . S
Sc396 O412 2.105 1_556 S
Sc396 O415 2.105 . S
Sc397 O399 2.025 . S
Sc397 O407 2.105 1_554 S
Sc397 O411 2.105 . S
Sc397 O413 2.105 1_554 S
Sc397 O417 2.105 . S
Sc398 O399 2.025 . S
Sc398 O408 2.105 . S
Sc398 O410 2.105 . S
Sc398 O414 2.105 . S
Sc398 O416 2.105 . S
O399 Sc396 2.025 1_554 S
O399 Sc397 2.025 . S
O399 Sc398 2.025 . S
C400 O406 1.268 1_554 S
C400 O416 1.268 . S
C401 O407 1.268 . S
C401 O415 1.268 . S
C402 O408 1.268 . S
C402 O417 1.268 . S
C403 O409 1.268 . S
C403 O413 1.268 . S
C404 O410 1.268 . S
C404 O412 1.268 . S
C405 O411 1.268 . S
C405 O414 1.268 . S
O406 Sc396 2.105 . S
O406 C400 1.268 1_556 S
O407 Sc397 2.105 1_556 S
O407 C401 1.268 . S
O408 Sc398 2.105 . S
O408 C402 1.268 . S
O409 Sc396 2.105 . S
O409 C403 1.268 . S
O410 Sc398 2.105 . S
O410 C404 1.268 . S
O411 Sc397 2.105 . S
O411 C405 1.268 . S
O412 Sc396 2.105 1_554 S
O412 C404 1.268 . S
O413 Sc397 2.105 1_556 S
O413 C403 1.268 . S
O414 Sc398 2.105 . S
O414 C405 1.268 . S
O415 Sc396 2.105 . S
O415 C401 1.268 . S
O416 Sc398 2.105 . S
O416 C400 1.268 . S
O417 Sc397 2.105 . S
O417 C402 1.268 . S
Sc418 O421 2.025 . S
Sc418 O428 2.105 . S
Sc418 O431 2.105 . S
Sc418 O434 2.105 . S
Sc418 O437 2.105 . S
Sc419 O421 2.025 . S
Sc419 O429 2.105 . S
Sc419 O433 2.105 . S
Sc419 O435 2.105 . S
Sc419 O439 2.105 . S
Sc420 O421 2.025 . S
Sc420 O430 2.105 . S
Sc420 O432 2.105 . S
Sc420 O436 2.105 . S
Sc420 O438 2.105 . S
O421 Sc418 2.025 . S
O421 Sc419 2.025 . S
O421 Sc420 2.025 . S
C422 O428 1.268 . S
C422 O438 1.268 . S
C423 O429 1.268 . S
C423 O437 1.268 . S
C424 O430 1.268 . S
C424 O439 1.268 . S
C425 O431 1.268 . S
C425 O435 1.268 . S
C426 O432 1.268 . S
C426 O434 1.268 . S
C427 O433 1.268 . S
C427 O436 1.268 . S
O428 Sc418 2.105 . S
O428 C422 1.268 . S
O429 Sc419 2.105 . S
O429 C423 1.268 . S
O430 Sc420 2.105 . S
O430 C424 1.268 . S
O431 Sc418 2.105 . S
O431 C425 1.268 . S
O432 Sc420 2.105 . S
O432 C426 1.268 . S
O433 Sc419 2.105 . S
O433 C427 1.268 . S
O434 Sc418 2.105 . S
O434 C426 1.268 . S
O435 Sc419 2.105 . S
O435 C425 1.268 . S
O436 Sc420 2.105 . S
O436 C427 1.268 . S
O437 Sc418 2.105 . S
O437 C423 1.268 . S
O438 Sc420 2.105 . S
O438 C422 1.268 . S
O439 Sc419 2.105 . S
O439 C424 1.268 . S
Sc440 O443 2.025 . S
Sc440 O450 2.105 . S
Sc440 O453 2.105 . S
Sc440 O456 2.105 . S
Sc440 O459 2.105 . S
Sc441 O443 2.025 . S
Sc441 O451 2.105 . S
Sc441 O455 2.105 . S
Sc441 O457 2.105 . S
Sc441 O461 2.105 . S
Sc442 O443 2.025 . S
Sc442 O452 2.105 . S
Sc442 O454 2.105 . S
Sc442 O458 2.105 . S
Sc442 O460 2.105 . S
O443 Sc440 2.025 . S
O443 Sc441 2.025 . S
O443 Sc442 2.025 . S
C444 O450 1.268 . S
C444 O460 1.268 . S
C445 O451 1.268 . S
C445 O459 1.268 . S
C446 O452 1.268 . S
C446 O461 1.268 . S
C447 O453 1.268 . S
C447 O457 1.268 . S
C448 O454 1.268 . S
C448 O456 1.268 . S
C449 O455 1.268 . S
C449 O458 1.268 . S
O450 Sc440 2.105 . S
O450 C444 1.268 . S
O451 Sc441 2.105 . S
O451 C445 1.268 . S
O452 Sc442 2.105 . S
O452 C446 1.268 . S
O453 Sc440 2.105 . S
O453 C447 1.268 . S
O454 Sc442 2.105 . S
O454 C448 1.268 . S
O455 Sc441 2.105 . S
O455 C449 1.268 . S
O456 Sc440 2.105 . S
O456 C448 1.268 . S
O457 Sc441 2.105 . S
O457 C447 1.268 . S
O458 Sc442 2.105 . S
O458 C449 1.268 . S
O459 Sc440 2.105 . S
O459 C445 1.268 . S
O460 Sc442 2.105 . S
O460 C444 1.268 . S
O461 Sc441 2.105 . S
O461 C446 1.268 . S
Sc462 O465 2.025 . S
Sc462 O472 2.105 . S
Sc462 O475 2.105 . S
Sc462 O478 2.105 . S
Sc462 O481 2.105 . S
Sc463 O465 2.025 . S
Sc463 O473 2.105 . S
Sc463 O477 2.105 . S
Sc463 O479 2.105 . S
Sc463 O483 2.105 . S
Sc464 O465 2.025 . S
Sc464 O474 2.105 . S
Sc464 O476 2.105 . S
Sc464 O480 2.105 . S
Sc464 O482 2.105 . S
O465 Sc462 2.025 . S
O465 Sc463 2.025 . S
O465 Sc464 2.025 . S
C466 O472 1.268 . S
C466 O482 1.268 . S
C467 O473 1.268 . S
C467 O481 1.268 . S
C468 O474 1.268 . S
C468 O483 1.268 . S
C469 O475 1.268 . S
C469 O479 1.268 . S
C470 O476 1.268 . S
C470 O478 1.268 . S
C471 O477 1.268 . S
C471 O480 1.268 . S
O472 Sc462 2.105 . S
O472 C466 1.268 . S
O473 Sc463 2.105 . S
O473 C467 1.268 . S
O474 Sc464 2.105 . S
O474 C468 1.268 . S
O475 Sc462 2.105 . S
O475 C469 1.268 . S
O476 Sc464 2.105 . S
O476 C470 1.268 . S
O477 Sc463 2.105 . S
O477 C471 1.268 . S
O478 Sc462 2.105 . S
O478 C470 1.268 . S
O479 Sc463 2.105 . S
O479 C469 1.268 . S
O480 Sc464 2.105 . S
O480 C471 1.268 . S
O481 Sc462 2.105 . S
O481 C467 1.268 . S
O482 Sc464 2.105 . S
O482 C466 1.268 . S
O483 Sc463 2.105 . S
O483 C468 1.268 . S
Sc484 O487 2.025 . S
Sc484 O494 2.105 . S
Sc484 O497 2.105 . S
Sc484 O500 2.105 . S
Sc484 O503 2.105 . S
Sc485 O487 2.025 . S
Sc485 O495 2.105 . S
Sc485 O499 2.105 . S
Sc485 O501 2.105 . S
Sc485 O505 2.105 . S
Sc486 O487 2.025 . S
Sc486 O496 2.105 . S
Sc486 O498 2.105 . S
Sc486 O502 2.105 . S
Sc486 O504 2.105 . S
O487 Sc484 2.025 . S
O487 Sc485 2.025 . S
O487 Sc486 2.025 . S
C488 O494 1.268 . S
C488 O504 1.268 . S
C489 O495 1.268 . S
C489 O503 1.268 . S
C490 O496 1.268 . S
C490 O505 1.268 . S
C491 O497 1.268 . S
C491 O501 1.268 . S
C492 O498 1.268 . S
C492 O500 1.268 . S
C493 O499 1.268 . S
C493 O502 1.268 . S
O494 Sc484 2.105 . S
O494 C488 1.268 . S
O495 Sc485 2.105 . S
O495 C489 1.268 . S
O496 Sc486 2.105 . S
O496 C490 1.268 . S
O497 Sc484 2.105 . S
O497 C491 1.268 . S
O498 Sc486 2.105 . S
O498 C492 1.268 . S
O499 Sc485 2.105 . S
O499 C493 1.268 . S
O500 Sc484 2.105 . S
O500 C492 1.268 . S
O501 Sc485 2.105 . S
O501 C491 1.268 . S
O502 Sc486 2.105 . S
O502 C493 1.268 . S
O503 Sc484 2.105 . S
O503 C489 1.268 . S
O504 Sc486 2.105 . S
O504 C488 1.268 . S
O505 Sc485 2.105 . S
O505 C490 1.268 . S
Sc506 O509 2.025 . S
Sc506 O516 2.105 . S
Sc506 O519 2.105 . S
Sc506 O522 2.105 . S
Sc506 O525 2.105 . S
Sc507 O509 2.025 . S
Sc507 O517 2.105 . S
Sc507 O521 2.105 . S
Sc507 O523 2.105 . S
Sc507 O527 2.105 . S
Sc508 O509 2.025 . S
Sc508 O518 2.105 . S
Sc508 O520 2.105 . S
Sc508 O524 2.105 . S
Sc508 O526 2.105 . S
O509 Sc506 2.025 . S
O509 Sc507 2.025 . S
O509 Sc508 2.025 . S
C510 O516 1.268 . S
C510 O526 1.268 . S
C511 O517 1.268 . S
C511 O525 1.268 . S
C512 O518 1.268 . S
C512 O527 1.268 . S
C513 O519 1.268 . S
C513 O523 1.268 . S
C514 O520 1.268 . S
C514 O522 1.268 . S
C515 O521 1.268 . S
C515 O524 1.268 . S
O516 Sc506 2.105 . S
O516 C510 1.268 . S
O517 Sc507 2.105 . S
O517 C511 1.268 . S
O518 Sc508 2.105 . S
O518 C512 1.268 . S
O519 Sc506 2.105 . S
O519 C513 1.268 . S
O520 Sc508 2.105 . S
O520 C514 1.268 . S
O521 Sc507 2.105 . S
O521 C515 1.268 . S
O522 Sc506 2.105 . S
O522 C514 1.268 . S
O523 Sc507 2.105 . S
O523 C513 1.268 . S
O524 Sc508 2.105 . S
O524 C515 1.268 . S
O525 Sc506 2.105 . S
O525 C511 1.268 . S
O526 Sc508 2.105 . S
O526 C510 1.268 . S
O527 Sc507 2.105 . S
O527 C512 1.268 . S
C528 C529 1.387 . S
C528 H532 0.950 . S
C528 C537 1.390 . S
C529 C528 1.387 . S
C529 C531 1.387 . S
H530 C537 0.950 . S
C531 C529 1.387 . S
C531 C533 1.390 . S
C531 H535 0.950 . S
H532 C528 0.950 . S
C533 C531 1.390 . S
C533 C534 1.387 . S
C533 H536 0.950 . S
C534 C533 1.387 . S
C534 C537 1.387 . S
H535 C531 0.950 . S
H536 C533 0.950 . S
C537 C528 1.390 . S
C537 H530 0.950 . S
C537 C534 1.387 . S
C538 C539 1.387 . S
C538 H542 0.950 . S
C538 C547 1.390 . S
C539 C538 1.387 . S
C539 C541 1.387 . S
H540 C547 0.950 . S
C541 C539 1.387 . S
C541 C543 1.390 . S
C541 H545 0.950 . S
H542 C538 0.950 . S
C543 C541 1.390 . S
C543 C544 1.387 . S
C543 H546 0.950 . S
C544 C543 1.387 . S
C544 C547 1.387 . S
H545 C541 0.950 . S
H546 C543 0.950 . S
C547 C538 1.390 . S
C547 H540 0.950 . S
C547 C544 1.387 . S
C548 C549 1.387 . S
C548 H552 0.950 . S
C548 C557 1.390 . S
C549 C548 1.387 . S
C549 C551 1.387 . S
H550 C557 0.950 . S
C551 C549 1.387 . S
C551 C553 1.390 . S
C551 H555 0.950 . S
H552 C548 0.950 . S
C553 C551 1.390 . S
C553 C554 1.387 . S
C553 H556 0.950 . S
C554 C553 1.387 . S
C554 C557 1.387 . S
H555 C551 0.950 . S
H556 C553 0.950 . S
C557 C548 1.390 . S
C557 H550 0.950 . S
C557 C554 1.387 . S
C558 C559 1.387 . S
C558 H562 0.950 . S
C558 C567 1.390 . S
C559 C558 1.387 . S
C559 C561 1.387 . S
H560 C567 0.950 . S
C561 C559 1.387 . S
C561 C563 1.390 . S
C561 H565 0.950 . S
H562 C558 0.950 . S
C563 C561 1.390 . S
C563 C564 1.387 . S
C563 H566 0.950 . S
C564 C563 1.387 . S
C564 C567 1.387 . S
H565 C561 0.950 . S
H566 C563 0.950 . S
C567 C558 1.390 . S
C567 H560 0.950 . S
C567 C564 1.387 . S
C568 C569 1.387 . S
C568 H572 0.950 . S
C568 C577 1.390 . S
C569 C568 1.387 . S
C569 C571 1.387 . S
H570 C577 0.950 . S
C571 C569 1.387 . S
C571 C573 1.390 . S
C571 H575 0.950 . S
H572 C568 0.950 . S
C573 C571 1.390 . S
C573 C574 1.387 . S
C573 H576 0.950 . S
C574 C573 1.387 . S
C574 C577 1.387 . S
H575 C571 0.950 . S
H576 C573 0.950 . S
C577 C568 1.390 . S
C577 H570 0.950 . S
C577 C574 1.387 . S
C578 C579 1.387 . S
C578 H582 0.950 . S
C578 C587 1.390 . S
C579 C578 1.387 . S
C579 C581 1.387 . S
H580 C587 0.950 . S
C581 C579 1.387 . S
C581 C583 1.390 . S
C581 H585 0.950 . S
H582 C578 0.950 . S
C583 C581 1.390 . S
C583 C584 1.387 . S
C583 H586 0.950 . S
C584 C583 1.387 . S
C584 C587 1.387 . S
H585 C581 0.950 . S
H586 C583 0.950 . S
C587 C578 1.390 . S
C587 H580 0.950 . S
C587 C584 1.387 . S
C588 C589 1.387 . S
C588 H592 0.950 . S
C588 C597 1.390 . S
C589 C588 1.387 . S
C589 C591 1.387 . S
H590 C597 0.950 . S
C591 C589 1.387 . S
C591 C593 1.390 . S
C591 H595 0.950 . S
H592 C588 0.950 . S
C593 C591 1.390 . S
C593 C594 1.387 . S
C593 H596 0.950 . S
C594 C593 1.387 . S
C594 C597 1.387 . S
H595 C591 0.950 . S
H596 C593 0.950 . S
C597 C588 1.390 . S
C597 H590 0.950 . S
C597 C594 1.387 . S
C598 C599 1.387 . S
C598 H602 0.950 1_556 S
C598 C607 1.390 . S
C599 C598 1.387 . S
C599 C601 1.387 . S
H600 C607 0.950 . S
C601 C599 1.387 . S
C601 C603 1.390 . S
C601 H605 0.950 . S
H602 C598 0.950 1_554 S
C603 C601 1.390 . S
C603 C604 1.387 . S
C603 H606 0.950 . S
C604 C603 1.387 . S
C604 C607 1.387 . S
H605 C601 0.950 . S
H606 C603 0.950 . S
C607 C598 1.390 . S
C607 H600 0.950 . S
C607 C604 1.387 . S
C608 C609 1.387 . S
C608 H612 0.950 . S
C608 C617 1.390 . S
C609 C608 1.387 . S
C609 C611 1.387 . S
H610 C617 0.947 1_545 S
C611 C609 1.387 . S
C611 C613 1.390 . S
C611 H615 0.950 . S
H612 C608 0.950 . S
C613 C611 1.390 . S
C613 C614 1.387 . S
C613 H616 0.950 . S
C614 C613 1.387 . S
C614 C617 1.387 . S
H615 C611 0.950 . S
H616 C613 0.950 . S
C617 C608 1.390 . S
C617 H610 0.947 1_565 S
C617 C614 1.387 . S
C618 C619 1.387 . S
C618 H622 0.950 . S
C618 C627 1.390 . S
C619 C618 1.387 . S
C619 C621 1.387 . S
H620 C627 0.950 . S
C621 C619 1.387 . S
C621 C623 1.390 . S
C621 H625 0.950 . S
H622 C618 0.950 . S
C623 C621 1.390 . S
C623 C624 1.387 . S
C623 H626 0.950 . S
C624 C623 1.387 . S
C624 C627 1.387 . S
H625 C621 0.950 . S
H626 C623 0.950 . S
C627 C618 1.390 . S
C627 H620 0.950 . S
C627 C624 1.387 . S
C628 C629 1.387 . S
C628 H632 0.950 . S
C628 C637 1.390 . S
C629 C628 1.387 . S
C629 C631 1.387 . S
H630 C637 0.944 1_565 S
C631 C629 1.387 . S
C631 C633 1.390 . S
C631 H635 0.950 . S
H632 C628 0.950 . S
C633 C631 1.390 . S
C633 C634 1.387 . S
C633 H636 0.950 . S
C634 C633 1.387 . S
C634 C637 1.387 . S
H635 C631 0.950 . S
H636 C633 0.950 . S
C637 C628 1.390 . S
C637 H630 0.944 1_545 S
C637 C634 1.387 . S
C638 C639 1.387 . S
C638 H642 0.950 . S
C638 C647 1.390 . S
C639 C638 1.387 . S
C639 C641 1.387 . S
H640 C647 0.950 . S
C641 C639 1.387 . S
C641 C643 1.390 . S
C641 H645 0.950 1_554 S
H642 C638 0.950 . S
C643 C641 1.390 . S
C643 C644 1.387 . S
C643 H646 0.950 . S
C644 C643 1.387 . S
C644 C647 1.387 . S
H645 C641 0.950 1_556 S
H646 C643 0.950 . S
C647 C638 1.390 . S
C647 H640 0.950 . S
C647 C644 1.387 . S
C648 C649 1.387 . S
C648 H652 0.950 . S
C648 C657 1.390 . S
C649 C648 1.387 . S
C649 C651 1.387 . S
H650 C657 0.950 . S
C651 C649 1.387 . S
C651 C653 1.390 . S
C651 H655 0.950 1_556 S
H652 C648 0.950 . S
C653 C651 1.390 . S
C653 C654 1.387 . S
C653 H656 0.950 . S
C654 C653 1.387 . S
C654 C657 1.387 . S
H655 C651 0.950 1_554 S
H656 C653 0.950 . S
C657 C648 1.390 . S
C657 H650 0.950 . S
C657 C654 1.387 . S
C658 C659 1.387 . S
C658 H662 0.950 . S
C658 C667 1.390 . S
C659 C658 1.387 . S
C659 C661 1.387 . S
H660 C667 0.950 . S
C661 C659 1.387 . S
C661 C663 1.390 . S
C661 H665 0.950 . S
H662 C658 0.950 . S
C663 C661 1.390 . S
C663 C664 1.387 . S
C663 H666 0.950 . S
C664 C663 1.387 . S
C664 C667 1.387 . S
H665 C661 0.950 . S
H666 C663 0.950 . S
C667 C658 1.390 . S
C667 H660 0.950 . S
C667 C664 1.387 . S
C668 C669 1.387 . S
C668 H672 0.950 . S
C668 C677 1.390 . S
C669 C668 1.387 . S
C669 C671 1.387 . S
H670 C677 0.950 . S
C671 C669 1.387 . S
C671 C673 1.390 . S
C671 H675 0.950 . S
H672 C668 0.950 . S
C673 C671 1.390 . S
C673 C674 1.387 . S
C673 H676 0.950 . S
C674 C673 1.387 . S
C674 C677 1.387 . S
H675 C671 0.950 . S
H676 C673 0.950 . S
C677 C668 1.390 . S
C677 H670 0.950 . S
C677 C674 1.387 . S
C678 C679 1.387 . S
C678 H682 0.950 . S
C678 C687 1.390 . S
C679 C678 1.387 . S
C679 C681 1.387 . S
H680 C687 0.950 . S
C681 C679 1.387 . S
C681 C683 1.390 . S
C681 H685 0.950 . S
H682 C678 0.950 . S
C683 C681 1.390 . S
C683 C684 1.387 . S
C683 H686 0.950 . S
C684 C683 1.387 . S
C684 C687 1.387 . S
H685 C681 0.950 . S
H686 C683 0.950 . S
C687 C678 1.390 . S
C687 H680 0.950 . S
C687 C684 1.387 . S
C688 C689 1.387 . S
C688 H692 0.950 . S
C688 C697 1.390 . S
C689 C688 1.387 . S
C689 C691 1.387 . S
H690 C697 0.950 . S
C691 C689 1.387 . S
C691 C693 1.390 . S
C691 H695 0.950 . S
H692 C688 0.950 . S
C693 C691 1.390 . S
C693 C694 1.387 . S
C693 H696 0.950 . S
C694 C693 1.387 . S
C694 C697 1.387 . S
H695 C691 0.950 . S
H696 C693 0.950 . S
C697 C688 1.390 . S
C697 H690 0.950 . S
C697 C694 1.387 . S
C698 C699 1.387 . S
C698 H702 0.950 . S
C698 C707 1.390 . S
C699 C698 1.387 . S
C699 C701 1.387 . S
H700 C707 0.950 . S
C701 C699 1.387 . S
C701 C703 1.390 . S
C701 H705 0.950 . S
H702 C698 0.950 . S
C703 C701 1.390 . S
C703 C704 1.387 . S
C703 H706 0.950 . S
C704 C703 1.387 . S
C704 C707 1.387 . S
H705 C701 0.950 . S
H706 C703 0.950 . S
C707 C698 1.390 . S
C707 H700 0.950 . S
C707 C704 1.387 . S
C708 C709 1.387 . S
C708 H712 0.950 . S
C708 C717 1.390 . S
C709 C708 1.387 . S
C709 C711 1.387 . S
H710 C717 0.950 . S
C711 C709 1.387 . S
C711 C713 1.390 . S
C711 H715 0.950 . S
H712 C708 0.950 . S
C713 C711 1.390 . S
C713 C714 1.387 . S
C713 H716 0.950 . S
C714 C713 1.387 . S
C714 C717 1.387 . S
H715 C711 0.950 . S
H716 C713 0.950 . S
C717 C708 1.390 . S
C717 H710 0.950 . S
C717 C714 1.387 . S
C718 C719 1.387 . S
C718 H722 0.950 . S
C718 C727 1.390 . S
C719 C718 1.387 . S
C719 C721 1.387 . S
H720 C727 0.950 . S
C721 C719 1.387 . S
C721 C723 1.390 . S
C721 H725 0.950 . S
H722 C718 0.950 . S
C723 C721 1.390 . S
C723 C724 1.387 . S
C723 H726 0.950 . S
C724 C723 1.387 . S
C724 C727 1.387 . S
H725 C721 0.950 . S
H726 C723 0.950 . S
C727 C718 1.390 . S
C727 H720 0.950 . S
C727 C724 1.387 . S
C728 C729 1.387 . S
C728 H732 0.950 . S
C728 C737 1.390 . S
C729 C728 1.387 . S
C729 C731 1.387 . S
H730 C737 0.950 . S
C731 C729 1.387 . S
C731 C733 1.390 . S
C731 H735 0.950 . S
H732 C728 0.950 . S
C733 C731 1.390 . S
C733 C734 1.387 . S
C733 H736 0.950 . S
C734 C733 1.387 . S
C734 C737 1.387 . S
H735 C731 0.950 . S
H736 C733 0.950 . S
C737 C728 1.390 . S
C737 H730 0.950 . S
C737 C734 1.387 . S
C738 C739 1.387 . S
C738 H742 0.950 . S
C738 C747 1.390 . S
C739 C738 1.387 . S
C739 C741 1.387 . S
H740 C747 0.950 . S
C741 C739 1.387 . S
C741 C743 1.390 . S
C741 H745 0.950 . S
H742 C738 0.950 . S
C743 C741 1.390 . S
C743 C744 1.387 . S
C743 H746 0.950 . S
C744 C743 1.387 . S
C744 C747 1.387 . S
H745 C741 0.950 . S
H746 C743 0.950 . S
C747 C738 1.390 . S
C747 H740 0.950 . S
C747 C744 1.387 . S
C748 C749 1.387 . S
C748 H752 0.950 . S
C748 C757 1.390 . S
C749 C748 1.387 . S
C749 C751 1.387 . S
H750 C757 0.950 . S
C751 C749 1.387 . S
C751 C753 1.390 . S
C751 H755 0.950 1_554 S
H752 C748 0.950 . S
C753 C751 1.390 . S
C753 C754 1.387 . S
C753 H756 0.950 . S
C754 C753 1.387 . S
C754 C757 1.387 . S
H755 C751 0.950 1_556 S
H756 C753 0.950 . S
C757 C748 1.390 . S
C757 H750 0.950 . S
C757 C754 1.387 . S
C758 C759 1.387 . S
C758 H762 0.950 . S
C758 C767 1.390 . S
C759 C758 1.387 . S
C759 C761 1.387 . S
H760 C767 0.950 . S
C761 C759 1.387 . S
C761 C763 1.390 . S
C761 H765 0.950 . S
H762 C758 0.950 . S
C763 C761 1.390 . S
C763 C764 1.387 . S
C763 H766 0.950 . S
C764 C763 1.387 . S
C764 C767 1.387 . S
H765 C761 0.950 . S
H766 C763 0.950 . S
C767 C758 1.390 . S
C767 H760 0.950 . S
C767 C764 1.387 . S
C768 C769 1.387 1_455 S
C768 H772 0.950 . S
C768 C777 1.390 1_565 S
C769 C768 1.387 1_655 S
C769 C771 1.387 . S
H770 C777 0.950 . S
C771 C769 1.387 . S
C771 C773 1.390 1_565 S
C771 H775 0.950 . S
H772 C768 0.950 . S
C773 C771 1.390 1_545 S
C773 C774 1.387 . S
C773 H776 0.950 . S
C774 C773 1.387 . S
C774 C777 1.387 1_655 S
H775 C771 0.950 . S
H776 C773 0.950 . S
C777 C768 1.390 1_545 S
C777 H770 0.950 . S
C777 C774 1.387 1_455 S
C778 C779 1.387 . S
C778 H782 0.950 . S
C778 C787 1.390 . S
C779 C778 1.387 . S
C779 C781 1.387 . S
H780 C787 0.950 . S
C781 C779 1.387 . S
C781 C783 1.390 . S
C781 H785 0.950 . S
H782 C778 0.950 . S
C783 C781 1.390 . S
C783 C784 1.387 . S
C783 H786 0.950 . S
C784 C783 1.387 . S
C784 C787 1.387 . S
H785 C781 0.950 . S
H786 C783 0.950 . S
C787 C778 1.390 . S
C787 H780 0.950 . S
C787 C784 1.387 . S
C788 C789 1.387 . S
C788 H792 0.950 . S
C788 C797 1.390 1_565 S
C789 C788 1.387 . S
C789 C791 1.387 . S
H790 C797 0.950 . S
C791 C789 1.387 . S
C791 C793 1.390 1_565 S
C791 H795 0.950 . S
H792 C788 0.950 . S
C793 C791 1.390 1_545 S
C793 C794 1.387 . S
C793 H796 0.950 . S
C794 C793 1.387 . S
C794 C797 1.387 . S
H795 C791 0.950 . S
H796 C793 0.950 . S
C797 C788 1.390 1_545 S
C797 H790 0.950 . S
C797 C794 1.387 . S
C798 C799 1.388 . S
C798 H802 0.950 . S
C798 C807 1.389 1_554 S
C799 C798 1.388 . S
C799 C801 1.388 . S
H800 C807 0.950 . S
C801 C799 1.388 . S
C801 C803 1.389 1_554 S
C801 H805 0.950 . S
H802 C798 0.950 . S
C803 C801 1.389 1_556 S
C803 C804 1.388 . S
C803 H806 0.950 . S
C804 C803 1.388 . S
C804 C807 1.388 . S
H805 C801 0.950 . S
H806 C803 0.950 . S
C807 C798 1.389 1_556 S
C807 H800 0.950 . S
C807 C804 1.388 . S
C808 C809 1.387 1_545 S
C808 H812 0.950 . S
C808 C817 1.390 1_556 S
C809 C808 1.387 1_565 S
C809 C811 1.387 . S
H810 C817 0.950 . S
C811 C809 1.387 . S
C811 C813 1.390 1_556 S
C811 H815 0.950 . S
H812 C808 0.950 . S
C813 C811 1.390 1_554 S
C813 C814 1.387 . S
C813 H816 0.950 . S
C814 C813 1.387 . S
C814 C817 1.387 1_565 S
H815 C811 0.950 . S
H816 C813 0.950 . S
C817 C808 1.390 1_554 S
C817 H810 0.950 . S
C817 C814 1.387 1_545 S
C818 C819 1.388 . S
C818 H822 0.950 . S
C818 C827 1.389 1_565 S
C819 C818 1.388 . S
C819 C821 1.388 . S
H820 C827 0.950 . S
C821 C819 1.388 . S
C821 C823 1.389 1_565 S
C821 H825 0.950 . S
H822 C818 0.950 . S
C823 C821 1.389 1_545 S
C823 C824 1.388 . S
C823 H826 0.950 . S
C824 C823 1.388 . S
C824 C827 1.388 . S
H825 C821 0.950 . S
H826 C823 0.950 . S
C827 C818 1.389 1_545 S
C827 H820 0.950 . S
C827 C824 1.388 . S
C828 C829 1.387 . S
C828 H832 0.950 . S
C828 C837 1.390 . S
C829 C828 1.387 . S
C829 C831 1.387 1_545 S
H830 C837 0.950 . S
C831 C829 1.387 1_565 S
C831 C833 1.390 . S
C831 H835 0.950 . S
H832 C828 0.950 . S
C833 C831 1.390 . S
C833 C834 1.387 1_565 S
C833 H836 0.950 . S
C834 C833 1.387 1_545 S
C834 C837 1.387 . S
H835 C831 0.950 . S
H836 C833 0.950 . S
C837 C828 1.390 . S
C837 H830 0.950 . S
C837 C834 1.387 . S
C838 C839 1.387 1_545 S
C838 H842 0.950 . S
C838 C847 1.390 . S
C839 C838 1.387 1_565 S
C839 C841 1.387 . S
H840 C847 0.950 . S
C841 C839 1.387 . S
C841 C843 1.390 . S
C841 H845 0.950 . S
H842 C838 0.950 . S
C843 C841 1.390 . S
C843 C844 1.387 1_565 S
C843 H846 0.950 . S
C844 C843 1.387 1_545 S
C844 C847 1.387 . S
H845 C841 0.950 . S
H846 C843 0.950 . S
C847 C838 1.390 . S
C847 H840 0.950 . S
C847 C844 1.387 . S
C848 C849 1.387 1_554 S
C848 H852 0.950 . S
C848 C857 1.390 1_655 S
C849 C848 1.387 1_556 S
C849 C851 1.387 . S
H850 C857 0.950 . S
C851 C849 1.387 . S
C851 C853 1.390 1_655 S
C851 H855 0.950 . S
H852 C848 0.950 . S
C853 C851 1.390 1_455 S
C853 C854 1.387 . S
C853 H856 0.950 . S
C854 C853 1.387 . S
C854 C857 1.387 1_556 S
H855 C851 0.950 . S
H856 C853 0.950 . S
C857 C848 1.390 1_455 S
C857 H850 0.950 . S
C857 C854 1.387 1_554 S
C858 C859 1.387 . S
C858 H862 0.950 . S
C858 C867 1.390 . S
C859 C858 1.387 . S
C859 C861 1.387 1_554 S
H860 C867 0.950 . S
C861 C859 1.387 1_556 S
C861 C863 1.390 . S
C861 H865 0.950 . S
H862 C858 0.950 . S
C863 C861 1.390 . S
C863 C864 1.387 1_556 S
C863 H866 0.950 . S
C864 C863 1.387 1_554 S
C864 C867 1.387 . S
H865 C861 0.950 . S
H866 C863 0.950 . S
C867 C858 1.390 . S
C867 H860 0.950 . S
C867 C864 1.387 . S
C868 C869 1.388 . S
C868 H872 0.951 . S
C868 C877 1.389 1_655 S
C869 C868 1.388 . S
C869 C871 1.388 . S
H870 C877 0.951 . S
C871 C869 1.388 . S
C871 C873 1.389 1_655 S
C871 H875 0.951 . S
H872 C868 0.951 . S
C873 C871 1.389 1_455 S
C873 C874 1.388 . S
C873 H876 0.951 . S
C874 C873 1.388 . S
C874 C877 1.388 . S
H875 C871 0.951 . S
H876 C873 0.951 . S
C877 C868 1.389 1_455 S
C877 H870 0.951 . S
C877 C874 1.388 . S
C878 C879 1.387 . S
C878 H882 0.950 . S
C878 C887 1.390 1_455 S
C879 C878 1.387 . S
C879 C881 1.387 . S
H880 C887 0.950 . S
C881 C879 1.387 . S
C881 C883 1.390 1_455 S
C881 H885 0.950 . S
H882 C878 0.950 . S
C883 C881 1.390 1_655 S
C883 C884 1.387 . S
C883 H886 0.950 . S
C884 C883 1.387 . S
C884 C887 1.387 . S
H885 C881 0.950 . S
H886 C883 0.950 . S
C887 C878 1.390 1_655 S
C887 H880 0.950 . S
C887 C884 1.387 . S
C888 C889 1.387 . S
C888 H892 0.950 . S
C888 C897 1.390 . S
C889 C888 1.387 . S
C889 C891 1.387 . S
H890 C897 0.950 . S
C891 C889 1.387 . S
C891 C893 1.390 . S
C891 H895 0.950 . S
H892 C888 0.950 . S
C893 C891 1.390 . S
C893 C894 1.387 . S
C893 H896 0.950 . S
C894 C893 1.387 . S
C894 C897 1.387 . S
H895 C891 0.950 . S
H896 C893 0.950 . S
C897 C888 1.390 . S
C897 H890 0.950 . S
C897 C894 1.387 . S
C898 C899 1.388 . S
C898 H902 0.951 . S
C898 C907 1.389 1_655 S
C899 C898 1.388 . S
C899 C901 1.388 . S
H900 C907 0.951 . S
C901 C899 1.388 . S
C901 C903 1.389 1_655 S
C901 H905 0.951 . S
H902 C898 0.951 . S
C903 C901 1.389 1_455 S
C903 C904 1.388 . S
C903 H906 0.951 . S
C904 C903 1.388 . S
C904 C907 1.388 . S
H905 C901 0.951 . S
H906 C903 0.951 . S
C907 C898 1.389 1_455 S
C907 H900 0.951 . S
C907 C904 1.388 . S
C908 C909 1.387 . S
C908 H912 0.950 . S
C908 C917 1.390 . S
C909 C908 1.387 . S
C909 C911 1.387 . S
H910 C917 0.950 . S
C911 C909 1.387 . S
C911 C913 1.390 . S
C911 H915 0.950 . S
H912 C908 0.950 . S
C913 C911 1.390 . S
C913 C914 1.387 . S
C913 H916 0.950 . S
C914 C913 1.387 . S
C914 C917 1.387 . S
H915 C911 0.950 . S
H916 C913 0.950 . S
C917 C908 1.390 . S
C917 H910 0.950 . S
C917 C914 1.387 . S
C918 C919 1.387 . S
C918 H922 0.950 . S
C918 C927 1.390 . S
C919 C918 1.387 . S
C919 C921 1.387 . S
H920 C927 0.950 . S
C921 C919 1.387 . S
C921 C923 1.390 . S
C921 H925 0.950 . S
H922 C918 0.950 . S
C923 C921 1.390 . S
C923 C924 1.387 . S
C923 H926 0.950 . S
C924 C923 1.387 . S
C924 C927 1.387 . S
H925 C921 0.950 . S
H926 C923 0.950 . S
C927 C918 1.390 . S
C927 H920 0.950 . S
C927 C924 1.387 . S
C928 C929 1.388 . S
C928 H932 0.950 . S
C928 C937 1.389 1_556 S
C929 C928 1.388 . S
C929 C931 1.387 . S
H930 C937 0.950 . S
C931 C929 1.387 . S
C931 C933 1.389 1_556 S
C931 H935 0.950 . S
H932 C928 0.950 . S
C933 C931 1.389 1_554 S
C933 C934 1.388 . S
C933 H936 0.950 . S
C934 C933 1.388 . S
C934 C937 1.387 . S
H935 C931 0.950 . S
H936 C933 0.950 . S
C937 C928 1.389 1_554 S
C937 H930 0.950 . S
C937 C934 1.387 . S
C938 C939 1.387 1_655 S
C938 H942 0.950 . S
C938 C947 1.390 . S
C939 C938 1.387 1_455 S
C939 C941 1.387 . S
H940 C947 0.950 . S
C941 C939 1.387 . S
C941 C943 1.390 . S
C941 H945 0.950 . S
H942 C938 0.950 . S
C943 C941 1.390 . S
C943 C944 1.387 . S
C943 H946 0.950 . S
C944 C943 1.387 . S
C944 C947 1.387 1_455 S
H945 C941 0.950 . S
H946 C943 0.950 . S
C947 C938 1.390 . S
C947 H940 0.950 . S
C947 C944 1.387 1_655 S
C948 C949 1.387 . S
C948 H952 0.950 . S
C948 C957 1.390 . S
C949 C948 1.387 . S
C949 C951 1.387 . S
H950 C957 0.950 . S
C951 C949 1.387 . S
C951 C953 1.390 . S
C951 H955 0.950 . S
H952 C948 0.950 . S
C953 C951 1.390 . S
C953 C954 1.387 . S
C953 H956 0.950 . S
C954 C953 1.387 . S
C954 C957 1.387 . S
H955 C951 0.950 . S
H956 C953 0.950 . S
C957 C948 1.390 . S
C957 H950 0.950 . S
C957 C954 1.387 . S
C958 C959 1.387 . S
C958 H962 0.950 . S
C958 C967 1.390 . S
C959 C958 1.387 . S
C959 C961 1.387 . S
H960 C967 0.950 . S
C961 C959 1.387 . S
C961 C963 1.390 . S
C961 H965 0.950 . S
H962 C958 0.950 . S
C963 C961 1.390 . S
C963 C964 1.387 . S
C963 H966 0.950 . S
C964 C963 1.387 . S
C964 C967 1.387 . S
H965 C961 0.950 . S
H966 C963 0.950 . S
C967 C958 1.390 . S
C967 H960 0.950 . S
C967 C964 1.387 . S
C968 C969 1.387 . S
C968 H972 0.950 . S
C968 C977 1.390 . S
C969 C968 1.387 . S
C969 C971 1.387 . S
H970 C977 0.950 . S
C971 C969 1.387 . S
C971 C973 1.390 . S
C971 H975 0.950 . S
H972 C968 0.950 . S
C973 C971 1.390 . S
C973 C974 1.387 . S
C973 H976 0.950 . S
C974 C973 1.387 . S
C974 C977 1.387 . S
H975 C971 0.950 . S
H976 C973 0.950 . S
C977 C968 1.390 . S
C977 H970 0.950 . S
C977 C974 1.387 . S
C978 C979 1.387 . S
C978 H982 0.950 . S
C978 C987 1.390 1_554 S
C979 C978 1.387 . S
C979 C981 1.387 . S
H980 C987 0.950 . S
C981 C979 1.387 . S
C981 C983 1.390 1_554 S
C981 H985 0.950 . S
H982 C978 0.950 . S
C983 C981 1.390 1_556 S
C983 C984 1.387 . S
C983 H986 0.950 . S
C984 C983 1.387 . S
C984 C987 1.387 . S
H985 C981 0.950 . S
H986 C983 0.950 . S
C987 C978 1.390 1_556 S
C987 H980 0.950 . S
C987 C984 1.387 . S
C988 C989 1.387 . S
C988 H992 0.950 . S
C988 C997 1.390 . S
C989 C988 1.387 . S
C989 C991 1.387 . S
H990 C997 0.950 . S
C991 C989 1.387 . S
C991 C993 1.390 . S
C991 H995 0.950 . S
H992 C988 0.950 . S
C993 C991 1.390 . S
C993 C994 1.387 . S
C993 H996 0.950 . S
C994 C993 1.387 . S
C994 C997 1.387 . S
H995 C991 0.950 . S
H996 C993 0.950 . S
C997 C988 1.390 . S
C997 H990 0.950 . S
C997 C994 1.387 . S
C998 C999 1.387 . S
C998 H1002 0.950 . S
C998 C1007 1.390 . S
C999 C998 1.387 . S
C999 C1001 1.387 . S
H1000 C1007 0.950 . S
C1001 C999 1.387 . S
C1001 C1003 1.390 . S
C1001 H1005 0.950 . S
H1002 C998 0.950 . S
C1003 C1001 1.390 . S
C1003 C1004 1.387 . S
C1003 H1006 0.950 . S
C1004 C1003 1.387 . S
C1004 C1007 1.387 . S
H1005 C1001 0.950 . S
H1006 C1003 0.950 . S
C1007 C998 1.390 . S
C1007 H1000 0.950 . S
C1007 C1004 1.387 . S
C1008 C1009 1.387 . S
C1008 H1012 0.950 . S
C1008 C1017 1.390 . S
C1009 C1008 1.387 . S
C1009 C1011 1.387 . S
H1010 C1017 0.950 . S
C1011 C1009 1.387 . S
C1011 C1013 1.390 . S
C1011 H1015 0.950 . S
H1012 C1008 0.950 . S
C1013 C1011 1.390 . S
C1013 C1014 1.387 . S
C1013 H1016 0.950 . S
C1014 C1013 1.387 . S
C1014 C1017 1.387 . S
H1015 C1011 0.950 . S
H1016 C1013 0.950 . S
C1017 C1008 1.390 . S
C1017 H1010 0.950 . S
C1017 C1014 1.387 . S
C1018 C1019 1.387 . S
C1018 H1022 0.950 . S
C1018 C1027 1.390 . S
C1019 C1018 1.387 . S
C1019 C1021 1.387 . S
H1020 C1027 0.950 . S
C1021 C1019 1.387 . S
C1021 C1023 1.390 . S
C1021 H1025 0.950 . S
H1022 C1018 0.950 . S
C1023 C1021 1.390 . S
C1023 C1024 1.387 . S
C1023 H1026 0.950 . S
C1024 C1023 1.387 . S
C1024 C1027 1.387 . S
H1025 C1021 0.950 . S
H1026 C1023 0.950 . S
C1027 C1018 1.390 . S
C1027 H1020 0.950 . S
C1027 C1024 1.387 . S
C1028 C1029 1.387 . S
C1028 H1032 0.950 . S
C1028 C1037 1.390 . S
C1029 C1028 1.387 . S
C1029 C1031 1.387 . S
H1030 C1037 0.950 . S
C1031 C1029 1.387 . S
C1031 C1033 1.390 . S
C1031 H1035 0.950 . S
H1032 C1028 0.950 . S
C1033 C1031 1.390 . S
C1033 C1034 1.387 . S
C1033 H1036 0.950 . S
C1034 C1033 1.387 . S
C1034 C1037 1.387 . S
H1035 C1031 0.950 . S
H1036 C1033 0.950 . S
C1037 C1028 1.390 . S
C1037 H1030 0.950 . S
C1037 C1034 1.387 . S
C1038 C1039 1.387 . S
C1038 H1042 0.950 . S
C1038 C1047 1.390 . S
C1039 C1038 1.387 . S
C1039 C1041 1.387 . S
H1040 C1047 0.950 . S
C1041 C1039 1.387 . S
C1041 C1043 1.390 . S
C1041 H1045 0.950 . S
H1042 C1038 0.950 . S
C1043 C1041 1.390 . S
C1043 C1044 1.387 . S
C1043 H1046 0.950 . S
C1044 C1043 1.387 . S
C1044 C1047 1.387 . S
H1045 C1041 0.950 . S
H1046 C1043 0.950 . S
C1047 C1038 1.390 . S
C1047 H1040 0.950 . S
C1047 C1044 1.387 . S
C1048 C1049 1.387 . S
C1048 H1052 0.950 . S
C1048 C1057 1.390 . S
C1049 C1048 1.387 . S
C1049 C1051 1.387 . S
H1050 C1057 0.950 . S
C1051 C1049 1.387 . S
C1051 C1053 1.390 . S
C1051 H1055 0.950 . S
H1052 C1048 0.950 . S
C1053 C1051 1.390 . S
C1053 C1054 1.387 . S
C1053 H1056 0.950 . S
C1054 C1053 1.387 . S
C1054 C1057 1.387 . S
H1055 C1051 0.950 . S
H1056 C1053 0.950 . S
C1057 C1048 1.390 . S
C1057 H1050 0.950 . S
C1057 C1054 1.387 . S
C1058 C1059 1.387 . S
C1058 H1062 0.950 . S
C1058 C1067 1.390 . S
C1059 C1058 1.387 . S
C1059 C1061 1.387 . S
H1060 C1067 0.950 . S
C1061 C1059 1.387 . S
C1061 C1063 1.390 . S
C1061 H1065 0.950 . S
H1062 C1058 0.950 . S
C1063 C1061 1.390 . S
C1063 C1064 1.387 . S
C1063 H1066 0.950 . S
C1064 C1063 1.387 . S
C1064 C1067 1.387 . S
H1065 C1061 0.950 . S
H1066 C1063 0.950 . S
C1067 C1058 1.390 . S
C1067 H1060 0.950 . S
C1067 C1064 1.387 . S
C1068 C1069 1.387 . S
C1068 H1072 0.950 . S
C1068 C1077 1.390 . S
C1069 C1068 1.387 . S
C1069 C1071 1.387 . S
H1070 C1077 0.950 . S
C1071 C1069 1.387 . S
C1071 C1073 1.390 . S
C1071 H1075 0.950 . S
H1072 C1068 0.950 . S
C1073 C1071 1.390 . S
C1073 C1074 1.387 . S
C1073 H1076 0.950 . S
C1074 C1073 1.387 . S
C1074 C1077 1.387 . S
H1075 C1071 0.950 . S
H1076 C1073 0.950 . S
C1077 C1068 1.390 . S
C1077 H1070 0.950 . S
C1077 C1074 1.387 . S
C1078 C1079 1.387 . S
C1078 H1082 0.950 . S
C1078 C1087 1.390 . S
C1079 C1078 1.387 . S
C1079 C1081 1.387 . S
H1080 C1087 0.950 . S
C1081 C1079 1.387 . S
C1081 C1083 1.390 . S
C1081 H1085 0.950 . S
H1082 C1078 0.950 . S
C1083 C1081 1.390 . S
C1083 C1084 1.387 . S
C1083 H1086 0.950 . S
C1084 C1083 1.387 . S
C1084 C1087 1.387 . S
H1085 C1081 0.950 . S
H1086 C1083 0.950 . S
C1087 C1078 1.390 . S
C1087 H1080 0.950 . S
C1087 C1084 1.387 . S
C1088 C1089 1.387 . S
C1088 H1092 0.950 . S
C1088 C1097 1.390 . S
C1089 C1088 1.387 . S
C1089 C1091 1.387 . S
H1090 C1097 0.950 . S
C1091 C1089 1.387 . S
C1091 C1093 1.390 . S
C1091 H1095 0.950 . S
H1092 C1088 0.950 . S
C1093 C1091 1.390 . S
C1093 C1094 1.387 . S
C1093 H1096 0.950 . S
C1094 C1093 1.387 . S
C1094 C1097 1.387 . S
H1095 C1091 0.950 . S
H1096 C1093 0.950 . S
C1097 C1088 1.390 . S
C1097 H1090 0.950 . S
C1097 C1094 1.387 . S
C1098 C1099 1.387 . S
C1098 H1102 0.950 . S
C1098 C1107 1.390 . S
C1099 C1098 1.387 . S
C1099 C1101 1.387 . S
H1100 C1107 0.950 . S
C1101 C1099 1.387 . S
C1101 C1103 1.390 . S
C1101 H1105 0.950 . S
H1102 C1098 0.950 . S
C1103 C1101 1.390 . S
C1103 C1104 1.387 . S
C1103 H1106 0.950 . S
C1104 C1103 1.387 . S
C1104 C1107 1.387 . S
H1105 C1101 0.950 . S
H1106 C1103 0.950 . S
C1107 C1098 1.390 . S
C1107 H1100 0.950 . S
C1107 C1104 1.387 . S
C1108 C1109 1.387 . S
C1108 H1112 0.950 . S
C1108 C1117 1.390 . S
C1109 C1108 1.387 . S
C1109 C1111 1.387 . S
H1110 C1117 0.950 . S
C1111 C1109 1.387 . S
C1111 C1113 1.390 . S
C1111 H1115 0.950 . S
H1112 C1108 0.950 . S
C1113 C1111 1.390 . S
C1113 C1114 1.387 . S
C1113 H1116 0.950 . S
C1114 C1113 1.387 . S
C1114 C1117 1.387 . S
H1115 C1111 0.950 . S
H1116 C1113 0.950 . S
C1117 C1108 1.390 . S
C1117 H1110 0.950 . S
C1117 C1114 1.387 . S
C1118 C1119 1.387 . S
C1118 H1122 0.950 . S
C1118 C1127 1.390 . S
C1119 C1118 1.387 . S
C1119 C1121 1.387 . S
H1120 C1127 0.950 . S
C1121 C1119 1.387 . S
C1121 C1123 1.390 . S
C1121 H1125 0.950 . S
H1122 C1118 0.950 . S
C1123 C1121 1.390 . S
C1123 C1124 1.387 . S
C1123 H1126 0.950 . S
C1124 C1123 1.387 . S
C1124 C1127 1.387 . S
H1125 C1121 0.950 . S
H1126 C1123 0.950 . S
C1127 C1118 1.390 . S
C1127 H1120 0.950 . S
C1127 C1124 1.387 . S
C1128 C1129 1.387 . S
C1128 H1132 0.950 . S
C1128 C1137 1.390 . S
C1129 C1128 1.387 . S
C1129 C1131 1.387 . S
H1130 C1137 0.950 . S
C1131 C1129 1.387 . S
C1131 C1133 1.390 . S
C1131 H1135 0.950 . S
H1132 C1128 0.950 . S
C1133 C1131 1.390 . S
C1133 C1134 1.387 . S
C1133 H1136 0.950 . S
C1134 C1133 1.387 . S
C1134 C1137 1.387 . S
H1135 C1131 0.950 . S
H1136 C1133 0.950 . S
C1137 C1128 1.390 . S
C1137 H1130 0.950 . S
C1137 C1134 1.387 . S
C1138 C1139 1.387 . S
C1138 H1142 0.950 . S
C1138 C1147 1.390 . S
C1139 C1138 1.387 . S
C1139 C1141 1.387 . S
H1140 C1147 0.950 . S
C1141 C1139 1.387 . S
C1141 C1143 1.390 . S
C1141 H1145 0.950 . S
H1142 C1138 0.950 . S
C1143 C1141 1.390 . S
C1143 C1144 1.387 . S
C1143 H1146 0.950 . S
C1144 C1143 1.387 . S
C1144 C1147 1.387 . S
H1145 C1141 0.950 . S
H1146 C1143 0.950 . S
C1147 C1138 1.390 . S
C1147 H1140 0.950 . S
C1147 C1144 1.387 . S
C1148 C1149 1.387 . S
C1148 H1152 0.950 . S
C1148 C1157 1.390 . S
C1149 C1148 1.387 . S
C1149 C1151 1.387 . S
H1150 C1157 0.950 . S
C1151 C1149 1.387 . S
C1151 C1153 1.390 . S
C1151 H1155 0.950 . S
H1152 C1148 0.950 . S
C1153 C1151 1.390 . S
C1153 C1154 1.387 . S
C1153 H1156 0.950 . S
C1154 C1153 1.387 . S
C1154 C1157 1.387 . S
H1155 C1151 0.950 . S
H1156 C1153 0.950 . S
C1157 C1148 1.390 . S
C1157 H1150 0.950 . S
C1157 C1154 1.387 . S
C1158 C1159 1.387 . S
C1158 H1162 0.950 . S
C1158 C1167 1.390 . S
C1159 C1158 1.387 . S
C1159 C1161 1.387 . S
H1160 C1167 0.950 . S
C1161 C1159 1.387 . S
C1161 C1163 1.390 . S
C1161 H1165 0.950 . S
H1162 C1158 0.950 . S
C1163 C1161 1.390 . S
C1163 C1164 1.387 . S
C1163 H1166 0.950 . S
C1164 C1163 1.387 . S
C1164 C1167 1.387 . S
H1165 C1161 0.950 . S
H1166 C1163 0.950 . S
C1167 C1158 1.390 . S
C1167 H1160 0.950 . S
C1167 C1164 1.387 . S
C1168 C1169 1.387 . S
C1168 H1172 0.950 . S
C1168 C1177 1.390 . S
C1169 C1168 1.387 . S
C1169 C1171 1.387 . S
H1170 C1177 0.950 . S
C1171 C1169 1.387 . S
C1171 C1173 1.390 . S
C1171 H1175 0.950 . S
H1172 C1168 0.950 . S
C1173 C1171 1.390 . S
C1173 C1174 1.387 . S
C1173 H1176 0.950 . S
C1174 C1173 1.387 . S
C1174 C1177 1.387 . S
H1175 C1171 0.950 . S
H1176 C1173 0.950 . S
C1177 C1168 1.390 . S
C1177 H1170 0.950 . S
C1177 C1174 1.387 . S
C1178 C1179 1.387 . S
C1178 H1182 0.950 . S
C1178 C1187 1.390 . S
C1179 C1178 1.387 . S
C1179 C1181 1.387 . S
H1180 C1187 0.950 . S
C1181 C1179 1.387 . S
C1181 C1183 1.390 . S
C1181 H1185 0.950 . S
H1182 C1178 0.950 . S
C1183 C1181 1.390 . S
C1183 C1184 1.387 . S
C1183 H1186 0.950 . S
C1184 C1183 1.387 . S
C1184 C1187 1.387 . S
H1185 C1181 0.950 . S
H1186 C1183 0.950 . S
C1187 C1178 1.390 . S
C1187 H1180 0.950 . S
C1187 C1184 1.387 . S
C1188 C1189 1.387 . S
C1188 H1192 0.950 . S
C1188 C1197 1.390 . S
C1189 C1188 1.387 . S
C1189 C1191 1.387 . S
H1190 C1197 0.950 . S
C1191 C1189 1.387 . S
C1191 C1193 1.390 . S
C1191 H1195 0.950 . S
H1192 C1188 0.950 . S
C1193 C1191 1.390 . S
C1193 C1194 1.387 . S
C1193 H1196 0.950 . S
C1194 C1193 1.387 . S
C1194 C1197 1.387 . S
H1195 C1191 0.950 . S
H1196 C1193 0.950 . S
C1197 C1188 1.390 . S
C1197 H1190 0.950 . S
C1197 C1194 1.387 . S
C1198 C1199 1.387 . S
C1198 H1202 0.950 . S
C1198 C1207 1.390 . S
C1199 C1198 1.387 . S
C1199 C1201 1.387 . S
H1200 C1207 0.950 . S
C1201 C1199 1.387 . S
C1201 C1203 1.390 . S
C1201 H1205 0.950 . S
H1202 C1198 0.950 . S
C1203 C1201 1.390 . S
C1203 C1204 1.387 . S
C1203 H1206 0.950 . S
C1204 C1203 1.387 . S
C1204 C1207 1.387 . S
H1205 C1201 0.950 . S
H1206 C1203 0.950 . S
C1207 C1198 1.390 . S
C1207 H1200 0.950 . S
C1207 C1204 1.387 . S
C1208 C1209 1.387 . S
C1208 H1212 0.950 . S
C1208 C1217 1.390 . S
C1209 C1208 1.387 . S
C1209 C1211 1.387 . S
H1210 C1217 0.950 . S
C1211 C1209 1.387 . S
C1211 C1213 1.390 . S
C1211 H1215 0.950 . S
H1212 C1208 0.950 . S
C1213 C1211 1.390 . S
C1213 C1214 1.387 . S
C1213 H1216 0.950 . S
C1214 C1213 1.387 . S
C1214 C1217 1.387 . S
H1215 C1211 0.950 . S
H1216 C1213 0.950 . S
C1217 C1208 1.390 . S
C1217 H1210 0.950 . S
C1217 C1214 1.387 . S
C1218 C1219 1.387 . S
C1218 H1222 0.950 . S
C1218 C1227 1.390 . S
C1219 C1218 1.387 . S
C1219 C1221 1.387 . S
H1220 C1227 0.950 . S
C1221 C1219 1.387 . S
C1221 C1223 1.390 . S
C1221 H1225 0.950 . S
H1222 C1218 0.950 . S
C1223 C1221 1.390 . S
C1223 C1224 1.387 . S
C1223 H1226 0.950 . S
C1224 C1223 1.387 . S
C1224 C1227 1.387 . S
H1225 C1221 0.950 . S
H1226 C1223 0.950 . S
C1227 C1218 1.390 . S
C1227 H1220 0.950 . S
C1227 C1224 1.387 . S
C1228 C1229 1.387 . S
C1228 H1232 0.950 . S
C1228 C1237 1.390 . S
C1229 C1228 1.387 . S
C1229 C1231 1.387 . S
H1230 C1237 0.950 . S
C1231 C1229 1.387 . S
C1231 C1233 1.390 . S
C1231 H1235 0.950 . S
H1232 C1228 0.950 . S
C1233 C1231 1.390 . S
C1233 C1234 1.387 . S
C1233 H1236 0.950 . S
C1234 C1233 1.387 . S
C1234 C1237 1.387 . S
H1235 C1231 0.950 . S
H1236 C1233 0.950 . S
C1237 C1228 1.390 . S
C1237 H1230 0.950 . S
C1237 C1234 1.387 . S
C1238 C1239 1.387 . S
C1238 H1242 0.950 . S
C1238 C1247 1.390 . S
C1239 C1238 1.387 . S
C1239 C1241 1.387 . S
H1240 C1247 0.950 . S
C1241 C1239 1.387 . S
C1241 C1243 1.390 . S
C1241 H1245 0.950 . S
H1242 C1238 0.950 . S
C1243 C1241 1.390 . S
C1243 C1244 1.387 . S
C1243 H1246 0.950 . S
C1244 C1243 1.387 . S
C1244 C1247 1.387 . S
H1245 C1241 0.950 . S
H1246 C1243 0.950 . S
C1247 C1238 1.390 . S
C1247 H1240 0.950 . S
C1247 C1244 1.387 . S
C529 C7 0.958 . S
C534 C159 0.963 . S
C539 C29 0.958 . S
C544 C95 0.963 . S
C549 C49 0.959 . S
C554 C119 0.962 . S
C559 C72 0.963 . S
C564 C139 0.958 . S
C569 C5 0.960 . S
C574 C183 0.960 . S
C579 C205 0.958 . S
C584 C27 0.963 . S
C589 C227 0.961 . S
C594 C51 0.959 . S
C599 C75 0.958 . S
C604 C251 0.962 . S
C609 C93 0.961 . S
C614 C203 0.959 . S
C619 C225 0.959 . S
C624 C116 0.962 . S
C629 C137 0.961 . S
C634 C248 0.959 . S
C639 C161 0.963 . S
C644 C181 0.959 . S
C649 C269 0.962 . S
C654 C469 0.959 . S
C659 C293 0.960 . S
C664 C493 0.960 . S
C669 C317 0.962 . S
C674 C515 0.959 . S
C679 C512 0.959 . S
C684 C335 0.961 . S
C689 C467 0.961 . S
C694 C357 0.960 . S
C699 C379 0.959 . S
C704 C424 0.962 . S
C709 C271 0.963 . S
C714 C359 0.959 . S
C719 C405 0.963 . S
C724 C291 0.958 . S
C729 C337 0.962 . S
C734 C314 0.958 . S
C739 C449 0.959 . S
C744 C381 0.962 . S
C749 C402 0.962 . S
C754 C490 0.959 . S
C759 C427 0.959 . S
C764 C446 0.962 . S
C769 C94 0.731 . S
C774 C6 0.731 . S
C779 C114 0.734 . S
C784 C28 0.734 . S
C789 C52 0.731 . S
C794 C138 0.731 . S
C799 C73 0.731 1_554 S
C804 C162 0.731 1_556 S
C809 C249 0.731 . S
C814 C182 0.731 . S
C819 C184 0.731 1_565 S
C824 C204 0.731 1_545 S
C829 C206 0.734 . S
C834 C226 0.734 . S
C839 C246 0.734 1_565 S
C844 C228 0.734 1_545 S
C849 C403 0.731 . S
C854 C160 0.731 . S
C859 C70 0.734 . S
C864 C272 0.734 . S
C869 C8 0.734 1_655 S
C874 C292 0.734 1_455 S
C879 C30 0.734 . S
C884 C312 0.734 . S
C889 C422 0.731 . S
C894 C117 0.731 . S
C899 C96 0.734 1_655 S
C904 C338 0.734 1_455 S
C909 C140 0.734 . S
C914 C360 0.734 . S
C919 C358 0.734 . S
C924 C382 0.734 . S
C929 C400 0.734 1_556 S
C934 C270 0.734 1_554 S
C939 C294 0.731 . S
C944 C336 0.731 . S
C949 C425 0.731 . S
C954 C315 0.731 . S
C959 C444 0.734 . S
C964 C513 0.734 . S
C969 C447 0.734 . S
C974 C468 0.734 . S
C979 C488 0.731 . S
C984 C470 0.731 . S
C989 C510 0.734 . S
C994 C491 0.734 . S
C999 C380 0.731 . S
C1004 C50 0.731 . S
C1009 C4 2.274 . S
C1014 C202 2.274 . S
C1019 C26 2.270 . S
C1024 C224 2.270 . S
C1029 C53 2.271 . S
C1034 C247 2.271 . S
C1039 C180 2.271 . S
C1044 C74 2.271 . S
C1049 C92 2.271 . S
C1054 C185 2.271 . S
C1059 C207 2.273 . S
C1064 C115 2.272 . S
C1069 C229 2.270 . S
C1074 C136 2.270 . S
C1079 C163 2.272 . S
C1084 C250 2.271 . S
C1089 C158 2.272 . S
C1094 C290 2.272 . S
C1099 C141 2.270 . S
C1104 C273 2.270 . S
C1109 C97 2.273 . S
C1114 C313 2.273 . S
C1119 C404 2.271 . S
C1124 C9 2.271 . S
C1129 C378 2.274 . S
C1134 C118 2.274 . S
C1139 C31 2.271 . S
C1144 C339 2.270 . S
C1149 C71 2.271 . S
C1154 C361 2.271 . S
C1159 C466 2.273 . S
C1164 C383 2.273 . S
C1169 C489 2.271 . S
C1174 C268 2.271 . S
C1179 C511 2.271 . S
C1184 C295 2.271 . S
C1189 C445 2.272 . S
C1194 C316 2.272 . S
C1199 C448 2.271 . S
C1204 C356 2.271 . S
C1209 C401 2.272 . S
C1214 C471 2.273 . S
C1219 C492 2.273 . S
C1224 C334 2.273 . S
C1229 C426 2.271 . S
C1234 C514 2.271 . S
C1239 C48 2.274 . S
C1244 C423 2.273 . S
