# Generated by pormake.
# Topology pcl, (4)-cn, num edge types: 1
# Building blocks:
#     Node 0, Type 0, BuildingBlock: QUQFOY_clean_sbu_1, # of connection points: 4
#     Node 1, Type 0, BuildingBlock: QUQFOY_clean_sbu_1, # of connection points: 4
#     Node 2, Type 0, BuildingBlock: QUQFOY_clean_sbu_1, # of connection points: 4
#     Node 3, Type 0, BuildingBlock: QUQFOY_clean_sbu_1, # of connection points: 4
#     Node 4, Type 0, BuildingBlock: QUQFOY_clean_sbu_1, # of connection points: 4
#     Node 5, Type 0, BuildingBlock: QUQFOY_clean_sbu_1, # of connection points: 4
#     Node 6, Type 0, BuildingBlock: QUQFOY_clean_sbu_1, # of connection points: 4
#     Node 7, Type 0, BuildingBlock: QUQFOY_clean_sbu_1, # of connection points: 4
#     Node 8, Type 0, BuildingBlock: QUQFOY_clean_sbu_1, # of connection points: 4
#     Node 9, Type 0, BuildingBlock: QUQFOY_clean_sbu_1, # of connection points: 4
#     Node 10, Type 0, BuildingBlock: QUQFOY_clean_sbu_1, # of connection points: 4
#     Node 11, Type 0, BuildingBlock: QUQFOY_clean_sbu_1, # of connection points: 4
#     Node 12, Type 0, BuildingBlock: QUQFOY_clean_sbu_1, # of connection points: 4
#     Node 13, Type 0, BuildingBlock: QUQFOY_clean_sbu_1, # of connection points: 4
#     Node 14, Type 0, BuildingBlock: QUQFOY_clean_sbu_1, # of connection points: 4
#     Node 15, Type 0, BuildingBlock: QUQFOY_clean_sbu_1, # of connection points: 4
#     Edge 16, Type (0, 0), BuildingBlock: ZUJKAS_clean_linker_0, # of connection points: 2
#     Edge 17, Type (0, 0), BuildingBlock: ZUJKAS_clean_linker_0, # of connection points: 2
#     Edge 18, Type (0, 0), BuildingBlock: ZUJKAS_clean_linker_0, # of connection points: 2
#     Edge 19, Type (0, 0), BuildingBlock: ZUJKAS_clean_linker_0, # of connection points: 2
#     Edge 20, Type (0, 0), BuildingBlock: ZUJKAS_clean_linker_0, # of connection points: 2
#     Edge 21, Type (0, 0), BuildingBlock: ZUJKAS_clean_linker_0, # of connection points: 2
#     Edge 22, Type (0, 0), BuildingBlock: ZUJKAS_clean_linker_0, # of connection points: 2
#     Edge 23, Type (0, 0), BuildingBlock: ZUJKAS_clean_linker_0, # of connection points: 2
#     Edge 24, Type (0, 0), BuildingBlock: ZUJKAS_clean_linker_0, # of connection points: 2
#     Edge 25, Type (0, 0), BuildingBlock: ZUJKAS_clean_linker_0, # of connection points: 2
#     Edge 26, Type (0, 0), BuildingBlock: ZUJKAS_clean_linker_0, # of connection points: 2
#     Edge 27, Type (0, 0), BuildingBlock: ZUJKAS_clean_linker_0, # of connection points: 2
#     Edge 28, Type (0, 0), BuildingBlock: ZUJKAS_clean_linker_0, # of connection points: 2
#     Edge 29, Type (0, 0), BuildingBlock: ZUJKAS_clean_linker_0, # of connection points: 2
#     Edge 30, Type (0, 0), BuildingBlock: ZUJKAS_clean_linker_0, # of connection points: 2
#     Edge 31, Type (0, 0), BuildingBlock: ZUJKAS_clean_linker_0, # of connection points: 2
#     Edge 32, Type (0, 0), BuildingBlock: ZUJKAS_clean_linker_0, # of connection points: 2
#     Edge 33, Type (0, 0), BuildingBlock: ZUJKAS_clean_linker_0, # of connection points: 2
#     Edge 34, Type (0, 0), BuildingBlock: ZUJKAS_clean_linker_0, # of connection points: 2
#     Edge 35, Type (0, 0), BuildingBlock: ZUJKAS_clean_linker_0, # of connection points: 2
#     Edge 36, Type (0, 0), BuildingBlock: ZUJKAS_clean_linker_0, # of connection points: 2
#     Edge 37, Type (0, 0), BuildingBlock: ZUJKAS_clean_linker_0, # of connection points: 2
#     Edge 38, Type (0, 0), BuildingBlock: ZUJKAS_clean_linker_0, # of connection points: 2
#     Edge 39, Type (0, 0), BuildingBlock: ZUJKAS_clean_linker_0, # of connection points: 2
#     Edge 40, Type (0, 0), BuildingBlock: ZUJKAS_clean_linker_0, # of connection points: 2
#     Edge 41, Type (0, 0), BuildingBlock: ZUJKAS_clean_linker_0, # of connection points: 2
#     Edge 42, Type (0, 0), BuildingBlock: ZUJKAS_clean_linker_0, # of connection points: 2
#     Edge 43, Type (0, 0), BuildingBlock: ZUJKAS_clean_linker_0, # of connection points: 2
#     Edge 44, Type (0, 0), BuildingBlock: ZUJKAS_clean_linker_0, # of connection points: 2
#     Edge 45, Type (0, 0), BuildingBlock: ZUJKAS_clean_linker_0, # of connection points: 2
#     Edge 46, Type (0, 0), BuildingBlock: ZUJKAS_clean_linker_0, # of connection points: 2
#     Edge 47, Type (0, 0), BuildingBlock: ZUJKAS_clean_linker_0, # of connection points: 2
# Relax obj value: 0.089
# Max RMSD: 0.137
# Mean RMSD: 0.119
data_MOF--net-pcl--node1-QUQFOY_clean_sbu_1--edge1-ZUJKAS_clean_linker_0
_symmetry_space_group_name_H-M    P1
_symmetry_Int_Tables_number       1
_symmetry_cell_setting            triclinic
loop_
_symmetry_equiv_pos_as_xyz
'x, y, z'
_cell_length_a     68.77271
_cell_length_b     57.057939
_cell_length_c     59.371079
_cell_angle_alpha  89.915567
_cell_angle_beta   89.978483
_cell_angle_gamma 90.01413
loop_
_atom_site_label
_atom_site_type_symbol
_atom_site_fract_x
_atom_site_fract_y
_atom_site_fract_z
_atom_type_partial_charge
O0 O 0.15037 0.32196 0.12135 0.0
Cd1 Cd 0.14364 0.31737 0.08776 0.0
Cd2 Cd 0.13623 0.36424 0.08844 0.0
O3 O 0.14473 0.36002 0.12168 0.0
O4 O 0.15765 0.28919 0.07649 0.0
O5 O 0.16389 0.32524 0.06456 0.0
C6 C 0.16772 0.30306 0.06384 0.0
C7 C 0.14645 0.39825 0.06967 0.0
C8 C 0.14975 0.34134 0.13187 0.0
C9 C 0.10304 0.33134 0.07663 0.0
O10 O 0.10906 0.35224 0.07909 0.0
O11 O 0.11457 0.31418 0.07942 0.0
O12 O 0.13325 0.39879 0.08502 0.0
O13 O 0.15432 0.37826 0.06514 0.0
O14 O 0.85997 0.6828 0.62273 0.0
Cd15 Cd 0.86602 0.68568 0.58873 0.0
Cd16 Cd 0.87123 0.63879 0.59139 0.0
O17 O 0.85922 0.64412 0.62299 0.0
O18 O 0.85284 0.71412 0.57662 0.0
O19 O 0.84496 0.67799 0.56648 0.0
C20 C 0.84198 0.70031 0.56488 0.0
C21 C 0.86173 0.60548 0.57116 0.0
C22 C 0.85691 0.6636 0.63303 0.0
C23 C 0.90631 0.66922 0.58044 0.0
O24 O 0.89975 0.64909 0.5857 0.0
O25 O 0.89491 0.68672 0.57946 0.0
O26 O 0.87265 0.60402 0.58872 0.0
O27 O 0.85566 0.62601 0.56527 0.0
O28 O 0.15093 0.67997 0.88509 0.0
Cd29 Cd 0.14412 0.68602 0.91843 0.0
Cd30 Cd 0.13573 0.63942 0.91908 0.0
O31 O 0.14393 0.64225 0.8856 0.0
O32 O 0.15901 0.71405 0.92846 0.0
O33 O 0.16369 0.6785 0.94249 0.0
C34 C 0.16835 0.70045 0.94208 0.0
C35 C 0.14556 0.60568 0.93857 0.0
C36 C 0.14961 0.6604 0.875 0.0
C37 C 0.1033 0.67376 0.93011 0.0
O38 O 0.10896 0.65262 0.9285 0.0
O39 O 0.11508 0.69051 0.92647 0.0
O40 O 0.13206 0.60509 0.92358 0.0
O41 O 0.1539 0.62557 0.94238 0.0
O42 O 0.85821 0.32388 0.38288 0.0
Cd43 Cd 0.86532 0.32068 0.41658 0.0
Cd44 Cd 0.87292 0.36723 0.41299 0.0
O45 O 0.86201 0.36219 0.38089 0.0
O46 O 0.85139 0.29253 0.4282 0.0
O47 O 0.84534 0.32854 0.44013 0.0
C48 C 0.84144 0.30638 0.44093 0.0
C49 C 0.86347 0.40094 0.4326 0.0
C50 C 0.85744 0.34286 0.37166 0.0
C51 C 0.90647 0.3348 0.42459 0.0
O52 O 0.90071 0.35543 0.41995 0.0
O53 O 0.89445 0.31786 0.42482 0.0
O54 O 0.8752 0.40193 0.41571 0.0
O55 O 0.85667 0.38066 0.43824 0.0
O56 O 0.85254 0.63473 0.96345 0.0
Cd57 Cd 0.85674 0.66916 0.9543 0.0
Cd58 Cd 0.86416 0.64791 0.91211 0.0
O59 O 0.85675 0.61808 0.93026 0.0
O60 O 0.84427 0.68764 0.97878 0.0
O61 O 0.8339 0.6883 0.94353 0.0
C62 C 0.83185 0.69508 0.96416 0.0
C63 C 0.85617 0.64904 0.8737 0.0
C64 C 0.85294 0.6165 0.95119 0.0
C65 C 0.89638 0.67619 0.93539 0.0
O66 O 0.89046 0.66399 0.91887 0.0
O67 O 0.88513 0.68071 0.9518 0.0
O68 O 0.86973 0.63571 0.88136 0.0
O69 O 0.84641 0.66133 0.88801 0.0
O70 O 0.15786 0.36874 0.46259 0.0
Cd71 Cd 0.15288 0.33494 0.45165 0.0
Cd72 Cd 0.14719 0.35779 0.41056 0.0
O73 O 0.1575 0.38574 0.4292 0.0
O74 O 0.16386 0.31412 0.47542 0.0
O75 O 0.17593 0.31618 0.44092 0.0
C76 C 0.17688 0.30766 0.46108 0.0
C77 C 0.15587 0.35591 0.37237 0.0
C78 C 0.15994 0.3869 0.4504 0.0
C79 C 0.11291 0.33245 0.43208 0.0
O80 O 0.11928 0.34612 0.41685 0.0
O81 O 0.12425 0.32473 0.44728 0.0
O82 O 0.1444 0.37184 0.37999 0.0
O83 O 0.16303 0.34113 0.38662 0.0
O84 O 0.85147 0.37136 0.04269 0.0
Cd85 Cd 0.85607 0.33706 0.05209 0.0
Cd86 Cd 0.86269 0.35793 0.0942 0.0
O87 O 0.85461 0.38758 0.07621 0.0
O88 O 0.84375 0.318 0.02793 0.0
O89 O 0.8335 0.31771 0.06325 0.0
C90 C 0.83146 0.31058 0.04273 0.0
C91 C 0.85375 0.35588 0.13233 0.0
C92 C 0.85121 0.38939 0.05522 0.0
C93 C 0.89575 0.33109 0.0713 0.0
O94 O 0.88958 0.34317 0.08779 0.0
O95 O 0.88461 0.32617 0.0549 0.0
O96 O 0.86671 0.37036 0.1252 0.0
O97 O 0.84523 0.34279 0.11761 0.0
O98 O 0.159 0.63017 0.54478 0.0
Cd99 Cd 0.15355 0.66399 0.55532 0.0
Cd100 Cd 0.147 0.64079 0.59628 0.0
O101 O 0.15703 0.61257 0.57781 0.0
O102 O 0.16505 0.68415 0.53132 0.0
O103 O 0.17592 0.68376 0.56637 0.0
C104 C 0.17748 0.69149 0.54596 0.0
C105 C 0.1554 0.64266 0.63453 0.0
C106 C 0.16027 0.61175 0.55674 0.0
C107 C 0.11321 0.66648 0.57396 0.0
O108 O 0.11937 0.65305 0.58949 0.0
O109 O 0.12473 0.67389 0.55877 0.0
O110 O 0.14371 0.62697 0.62688 0.0
O111 O 0.16291 0.6572 0.62028 0.0
O112 O 0.65123 0.82297 0.1254 0.0
Cd113 Cd 0.64391 0.81906 0.0918 0.0
Cd114 Cd 0.6355 0.86539 0.09474 0.0
O115 O 0.64604 0.86106 0.12705 0.0
O116 O 0.6582 0.79109 0.0805 0.0
O117 O 0.6636 0.82708 0.06796 0.0
C118 C 0.66783 0.80501 0.06746 0.0
C119 C 0.64476 0.89877 0.07441 0.0
C120 C 0.65127 0.84204 0.13646 0.0
C121 C 0.60252 0.83212 0.0835 0.0
O122 O 0.60797 0.85294 0.08777 0.0
O123 O 0.61478 0.81544 0.08367 0.0
O124 O 0.63288 0.89997 0.09115 0.0
O125 O 0.65185 0.87847 0.0694 0.0
O126 O 0.35891 0.18087 0.62328 0.0
Cd127 Cd 0.3658 0.18473 0.58952 0.0
Cd128 Cd 0.37363 0.13809 0.59221 0.0
O129 O 0.3637 0.14267 0.62477 0.0
O130 O 0.35185 0.21285 0.57786 0.0
O131 O 0.34542 0.17671 0.56652 0.0
C132 C 0.34166 0.19889 0.56549 0.0
C133 C 0.36415 0.10435 0.57269 0.0
C134 C 0.3588 0.16173 0.6343 0.0
C135 C 0.40685 0.17092 0.58026 0.0
O136 O 0.40112 0.15018 0.58443 0.0
O137 O 0.39486 0.18787 0.58085 0.0
O138 O 0.37669 0.10357 0.58878 0.0
O139 O 0.35646 0.12439 0.56792 0.0
O140 O 0.65122 0.17935 0.88399 0.0
Cd141 Cd 0.64403 0.18317 0.9176 0.0
Cd142 Cd 0.63613 0.13663 0.91507 0.0
O143 O 0.64642 0.14118 0.88265 0.0
O144 O 0.65806 0.21137 0.9288 0.0
O145 O 0.66386 0.17548 0.94136 0.0
C146 C 0.66787 0.19762 0.94181 0.0
C147 C 0.64555 0.10289 0.93476 0.0
C148 C 0.65137 0.16021 0.87306 0.0
C149 C 0.60283 0.16946 0.92622 0.0
O150 O 0.60851 0.14866 0.92229 0.0
O151 O 0.61487 0.18637 0.9257 0.0
O152 O 0.63363 0.10198 0.91807 0.0
O153 O 0.65256 0.12312 0.94016 0.0
O154 O 0.35846 0.82119 0.38554 0.0
Cd155 Cd 0.3649 0.817 0.41929 0.0
Cd156 Cd 0.37089 0.86401 0.4177 0.0
O157 O 0.35926 0.85987 0.38576 0.0
O158 O 0.35065 0.78896 0.43064 0.0
O159 O 0.34478 0.82504 0.44256 0.0
C160 C 0.34073 0.80292 0.44331 0.0
C161 C 0.36207 0.89755 0.43801 0.0
C162 C 0.35617 0.84068 0.3755 0.0
C163 C 0.4054 0.83197 0.42794 0.0
O164 O 0.39901 0.85245 0.42381 0.0
O165 O 0.39388 0.81456 0.4279 0.0
O166 O 0.37381 0.89856 0.42115 0.0
O167 O 0.35479 0.87737 0.44317 0.0
O168 O 0.35238 0.13354 0.9626 0.0
Cd169 Cd 0.35674 0.16714 0.9507 0.0
Cd170 Cd 0.36282 0.14354 0.91072 0.0
O171 O 0.35335 0.11541 0.92983 0.0
O172 O 0.34568 0.18817 0.97418 0.0
O173 O 0.33337 0.1853 0.93987 0.0
C174 C 0.3325 0.19418 0.95987 0.0
C175 C 0.35255 0.14658 0.8732 0.0
C176 C 0.35085 0.11489 0.95106 0.0
C177 C 0.39672 0.17008 0.93114 0.0
O178 O 0.39065 0.1558 0.91631 0.0
O179 O 0.38518 0.17794 0.94606 0.0
O180 O 0.36448 0.13054 0.87965 0.0
O181 O 0.34586 0.16073 0.88829 0.0
O182 O 0.65696 0.87055 0.46446 0.0
Cd183 Cd 0.65225 0.83685 0.45309 0.0
Cd184 Cd 0.64666 0.85982 0.41261 0.0
O185 O 0.65635 0.88804 0.43132 0.0
O186 O 0.66349 0.81594 0.47664 0.0
O187 O 0.67548 0.81856 0.44214 0.0
C188 C 0.67659 0.8099 0.46223 0.0
C189 C 0.65711 0.85665 0.37516 0.0
C190 C 0.65879 0.88893 0.45252 0.0
C191 C 0.61234 0.83413 0.43332 0.0
O192 O 0.61868 0.84799 0.41822 0.0
O193 O 0.62369 0.8264 0.44851 0.0
O194 O 0.64522 0.87278 0.38148 0.0
O195 O 0.66356 0.84238 0.39032 0.0
O196 O 0.35269 0.87195 0.04646 0.0
Cd197 Cd 0.35678 0.83741 0.05572 0.0
Cd198 Cd 0.36392 0.85866 0.0977 0.0
O199 O 0.35574 0.88828 0.07995 0.0
O200 O 0.3445 0.81889 0.03114 0.0
O201 O 0.33378 0.81837 0.06625 0.0
C202 C 0.33193 0.81151 0.04562 0.0
C203 C 0.35569 0.85696 0.13603 0.0
C204 C 0.3524 0.89002 0.05895 0.0
C205 C 0.3966 0.83125 0.07454 0.0
O206 O 0.3907 0.84405 0.09065 0.0
O207 O 0.3851 0.82562 0.05868 0.0
O208 O 0.369 0.87079 0.12859 0.0
O209 O 0.34642 0.84432 0.12156 0.0
O210 O 0.65837 0.13318 0.54329 0.0
Cd211 Cd 0.65349 0.1674 0.55304 0.0
Cd212 Cd 0.64747 0.14603 0.59471 0.0
O213 O 0.65736 0.11718 0.5771 0.0
O214 O 0.66538 0.18685 0.5288 0.0
O215 O 0.67609 0.18684 0.56392 0.0
C216 C 0.67784 0.19417 0.54341 0.0
C217 C 0.65604 0.14855 0.63289 0.0
C218 C 0.66002 0.11534 0.55599 0.0
C219 C 0.61347 0.17109 0.57206 0.0
O220 O 0.61976 0.15806 0.58785 0.0
O221 O 0.62487 0.178 0.55654 0.0
O222 O 0.64422 0.13285 0.62556 0.0
O223 O 0.66352 0.16282 0.61838 0.0
H224 H 0.07703 0.36201 0.05843 0.0
H225 H 0.04187 0.35718 0.05509 0.0
H226 H 0.04639 0.2871 0.08192 0.0
H227 H 0.08178 0.29152 0.08456 0.0
H228 H 0.01894 0.28976 0.04876 0.0
H229 H 0.00804 0.36133 0.11038 0.0
H230 H 0.02158 0.37074 0.08619 0.0
H231 H 0.03164 0.34889 0.10475 0.0
C232 C 0.07058 0.34546 0.06339 0.0
C233 C 0.08215 0.32725 0.07205 0.0
C234 C 0.05046 0.34277 0.06157 0.0
C235 C 0.04143 0.32204 0.06887 0.0
C236 C 0.05303 0.30333 0.07637 0.0
H237 H 0.91985 0.3246 0.10709 0.0
H238 H 0.95496 0.3184 0.10643 0.0
C239 C 0.07325 0.30588 0.07787 0.0
C240 C 0.01989 0.32046 0.06979 0.0
H241 H 0.97992 0.34807 0.09103 0.0
C242 C 0.01037 0.3024 0.0581 0.0
C243 C 0.00873 0.33664 0.08241 0.0
C244 C 0.01802 0.35533 0.09683 0.0
C245 C 0.98997 0.30046 0.05823 0.0
C246 C 0.9788 0.3174 0.06991 0.0
C247 C 0.98841 0.33515 0.08193 0.0
C248 C 0.95716 0.31742 0.07005 0.0
C249 C 0.98066 0.28007 0.04621 0.0
C250 C 0.94653 0.31831 0.04984 0.0
C251 C 0.92633 0.32139 0.05022 0.0
C252 C 0.91649 0.32423 0.07079 0.0
C253 C 0.92705 0.32259 0.09098 0.0
C254 C 0.94714 0.31907 0.09061 0.0
H255 H 0.99088 0.26507 0.04472 0.0
H256 H 0.96735 0.27403 0.05507 0.0
H257 H 0.97658 0.28558 0.02892 0.0
H258 H 0.95392 0.31771 0.03375 0.0
H259 H 0.91859 0.32283 0.03439 0.0
H260 H 0.9262 0.71008 0.57219 0.0
H261 H 0.96132 0.71496 0.56693 0.0
H262 H 0.9693 0.64039 0.57426 0.0
H263 H 0.93435 0.63529 0.57931 0.0
H264 H 0.99047 0.70312 0.59736 0.0
H265 H 1.00034 0.65515 0.5172 0.0
H266 H 0.97681 0.66486 0.52698 0.0
H267 H 0.98739 0.63833 0.5379 0.0
C268 C 0.9354 0.69468 0.57243 0.0
C269 C 0.92742 0.67227 0.57614 0.0
C270 C 0.95547 0.69752 0.56945 0.0
C271 C 0.96789 0.67801 0.56987 0.0
C272 C 0.95995 0.65564 0.57338 0.0
H273 H 0.08568 0.6571 0.60584 0.0
H274 H 0.05076 0.66379 0.60356 0.0
C275 C 0.93995 0.65278 0.57642 0.0
C276 C 0.98927 0.68098 0.56803 0.0
H277 H 0.0291 0.66123 0.53943 0.0
C278 C 0.99891 0.69426 0.58449 0.0
C279 C 1.00025 0.66974 0.55104 0.0
C280 C 0.99066 0.65642 0.53214 0.0
C281 C 0.0193 0.6955 0.58514 0.0
C282 C 0.0303 0.68289 0.56909 0.0
C283 C 0.02065 0.6707 0.55188 0.0
C284 C 0.05174 0.68057 0.57087 0.0
C285 C 0.02887 0.71003 0.60321 0.0
C286 C 0.06394 0.68755 0.55312 0.0
C287 C 0.08403 0.68368 0.55432 0.0
C288 C 0.09222 0.67247 0.5732 0.0
C289 C 0.07992 0.66581 0.59105 0.0
C290 C 0.05992 0.66977 0.58987 0.0
H291 H 0.01902 0.72406 0.60938 0.0
H292 H 0.03253 0.69859 0.61773 0.0
H293 H 0.04251 0.71821 0.59697 0.0
H294 H 0.05788 0.69575 0.53822 0.0
H295 H 0.09306 0.68894 0.54024 0.0
H296 H 0.91904 0.68506 0.97234 0.0
H297 H 0.95437 0.69033 0.97303 0.0
H298 H 0.95558 0.68924 0.90037 0.0
H299 H 0.92048 0.683 0.89965 0.0
H300 H 0.98017 0.65907 0.91634 0.0
H301 H 0.99182 0.74268 0.96147 0.0
H302 H 0.97719 0.72255 0.97736 0.0
H303 H 0.96827 0.73393 0.95102 0.0
C304 C 0.92681 0.68648 0.95653 0.0
C305 C 0.91702 0.68347 0.93595 0.0
C306 C 0.94701 0.68964 0.95693 0.0
C307 C 0.95769 0.69039 0.93674 0.0
C308 C 0.9477 0.68868 0.91617 0.0
H309 H 0.08259 0.71375 0.92098 0.0
H310 H 0.04727 0.719 0.92374 0.0
C311 C 0.92763 0.68512 0.91577 0.0
C312 C 0.97932 0.69014 0.93691 0.0
H313 H 0.0197 0.7177 0.95756 0.0
C314 C 0.98877 0.67205 0.92521 0.0
C315 C 0.99062 0.70715 0.94831 0.0
C316 C 0.98146 0.72781 0.96005 0.0
C317 C 0.00908 0.67029 0.92478 0.0
C318 C 0.02037 0.68659 0.93708 0.0
C319 C 0.01102 0.70499 0.94845 0.0
C320 C 0.04189 0.6847 0.93804 0.0
C321 C 0.01822 0.65114 0.91078 0.0
C322 C 0.05065 0.66408 0.946 0.0
C323 C 0.07072 0.66091 0.94415 0.0
C324 C 0.08251 0.67852 0.93475 0.0
C325 C 0.07389 0.69984 0.92825 0.0
C326 C 0.05372 0.70287 0.92982 0.0
H327 H 0.00817 0.64486 0.89743 0.0
H328 H 0.03185 0.65727 0.90266 0.0
H329 H 0.02172 0.636 0.92179 0.0
H330 H 0.04188 0.65008 0.953 0.0
H331 H 0.07694 0.64442 0.94964 0.0
H332 H 0.09258 0.30869 0.46482 0.0
H333 H 0.05738 0.302 0.46652 0.0
H334 H 0.05053 0.33677 0.40249 0.0
H335 H 0.08549 0.34332 0.40051 0.0
H336 H 0.02896 0.33643 0.46696 0.0
H337 H 0.01814 0.27756 0.39411 0.0
H338 H 0.04174 0.28258 0.40655 0.0
H339 H 0.03177 0.30327 0.38677 0.0
C340 C 0.08361 0.31459 0.45094 0.0
C341 C 0.09189 0.32654 0.43253 0.0
C342 C 0.0635 0.31078 0.45196 0.0
C343 C 0.05137 0.31859 0.43448 0.0
C344 C 0.05964 0.33013 0.41594 0.0
H345 H 0.9354 0.36741 0.42793 0.0
H346 H 0.9701 0.36066 0.43312 0.0
C347 C 0.07967 0.33401 0.41492 0.0
C348 C 0.02991 0.31645 0.43623 0.0
H349 H 0.98984 0.29858 0.40698 0.0
C350 C 0.0204 0.3278 0.45406 0.0
C351 C 0.01875 0.3049 0.41958 0.0
C352 C 0.02813 0.29118 0.4008 0.0
C353 C 1.00003 0.32911 0.45496 0.0
C354 C 0.98891 0.31909 0.43739 0.0
C355 C 0.99838 0.30651 0.42029 0.0
C356 C 0.96763 0.32293 0.43553 0.0
C357 C 0.9906 0.34156 0.47452 0.0
C358 C 0.95468 0.30392 0.43478 0.0
C359 C 0.93473 0.30771 0.43171 0.0
C360 C 0.92742 0.33059 0.42907 0.0
C361 C 0.94047 0.34956 0.42996 0.0
C362 C 0.96034 0.34575 0.4331 0.0
H363 H 1.00021 0.34157 0.48957 0.0
H364 H 0.9878 0.36007 0.46978 0.0
H365 H 0.97653 0.33328 0.4791 0.0
H366 H 0.96004 0.28614 0.43644 0.0
H367 H 0.92511 0.2927 0.43102 0.0
H368 H 0.42436 0.83959 0.10631 0.0
H369 H 0.45916 0.83233 0.10367 0.0
H370 H 0.45111 0.79976 0.03884 0.0
H371 H 0.41605 0.80738 0.04111 0.0
H372 H 0.48119 0.79198 0.09849 0.0
H373 H 0.48993 0.8524 0.02544 0.0
H374 H 0.46786 0.8512 0.04182 0.0
H375 H 0.47319 0.82852 0.0218 0.0
C376 C 0.42988 0.83072 0.09151 0.0
C377 C 0.41739 0.82432 0.07379 0.0
C378 C 0.44982 0.82652 0.09008 0.0
C379 C 0.45778 0.81584 0.07092 0.0
C380 C 0.44531 0.80842 0.05361 0.0
H381 H 0.58478 0.78988 0.07458 0.0
H382 H 0.54997 0.78261 0.06885 0.0
C383 C 0.42527 0.81267 0.05499 0.0
C384 C 0.47923 0.81377 0.06897 0.0
H385 H 0.51834 0.83645 0.04096 0.0
C386 C 0.48936 0.80139 0.08572 0.0
C387 C 0.4898 0.82624 0.05237 0.0
C388 C 0.47973 0.8405 0.0344 0.0
C389 C 0.50976 0.80192 0.08688 0.0
C390 C 0.5203 0.81488 0.07062 0.0
C391 C 0.5102 0.82644 0.05333 0.0
C392 C 0.54154 0.81892 0.07273 0.0
C393 C 0.51978 0.78972 0.10623 0.0
C394 C 0.54839 0.84179 0.07616 0.0
C395 C 0.56819 0.84602 0.07928 0.0
C396 C 0.58165 0.82745 0.07901 0.0
C397 C 0.57481 0.80457 0.07503 0.0
C398 C 0.55492 0.80035 0.07185 0.0
H399 H 0.50936 0.7841 0.11949 0.0
H400 H 0.52737 0.7739 0.09987 0.0
H401 H 0.53082 0.80139 0.114 0.0
H402 H 0.53834 0.85639 0.07686 0.0
H403 H 0.57289 0.86388 0.08222 0.0
H404 H 0.58563 0.15959 0.60292 0.0
H405 H 0.55071 0.1662 0.60049 0.0
H406 H 0.55847 0.20289 0.53758 0.0
H407 H 0.59364 0.196 0.53965 0.0
H408 H 0.52857 0.20697 0.59749 0.0
H409 H 0.51971 0.15083 0.52157 0.0
H410 H 0.54177 0.15103 0.53801 0.0
H411 H 0.53657 0.17478 0.51908 0.0
C412 C 0.58001 0.16919 0.58858 0.0
C413 C 0.59247 0.17706 0.57135 0.0
C414 C 0.56 0.173 0.58727 0.0
C415 C 0.55195 0.18473 0.56872 0.0
C416 C 0.56436 0.19342 0.55186 0.0
H417 H 0.4254 0.213 0.57286 0.0
H418 H 0.46037 0.21954 0.56754 0.0
C419 C 0.58446 0.18958 0.55314 0.0
C420 C 0.5305 0.18688 0.56693 0.0
H421 H 0.49132 0.16645 0.53755 0.0
C422 C 0.52039 0.19841 0.58422 0.0
C423 C 0.5199 0.1755 0.54968 0.0
C424 C 0.52995 0.16217 0.53108 0.0
C425 C 0.49998 0.19818 0.58519 0.0
C426 C 0.4894 0.18639 0.5682 0.0
C427 C 0.49949 0.17559 0.55047 0.0
C428 C 0.46806 0.18283 0.56983 0.0
C429 C 0.48996 0.20945 0.60503 0.0
C430 C 0.46074 0.16002 0.57216 0.0
C431 C 0.44085 0.15622 0.57505 0.0
C432 C 0.42777 0.17517 0.57564 0.0
C433 C 0.43507 0.19802 0.57262 0.0
C434 C 0.45505 0.20181 0.5697 0.0
H435 H 0.50034 0.21402 0.61868 0.0
H436 H 0.4827 0.22581 0.59941 0.0
H437 H 0.47865 0.19762 0.61205 0.0
H438 H 0.4705 0.14512 0.57227 0.0
H439 H 0.43579 0.13837 0.57721 0.0
H440 H 0.58422 0.21181 0.93105 0.0
H441 H 0.54925 0.21858 0.936 0.0
H442 H 0.5392 0.14399 0.93559 0.0
H443 H 0.57391 0.13704 0.93089 0.0
H444 H 0.51975 0.20505 0.90679 0.0
H445 H 0.50853 0.16517 0.99076 0.0
H446 H 0.53233 0.17301 0.98029 0.0
H447 H 0.52113 0.14587 0.97191 0.0
C448 C 0.57459 0.19684 0.9323 0.0
C449 C 0.5819 0.17387 0.9306 0.0
C450 C 0.55462 0.20076 0.9351 0.0
C451 C 0.54167 0.18178 0.93651 0.0
C452 C 0.54896 0.15888 0.93506 0.0
H453 H 0.42461 0.1588 0.90026 0.0
H454 H 0.45947 0.1661 0.90253 0.0
C455 C 0.56884 0.15495 0.9322 0.0
C456 C 0.52038 0.18566 0.93795 0.0
H457 H 0.48003 0.16901 0.96742 0.0
C458 C 0.51108 0.19753 0.92025 0.0
C459 C 0.50908 0.17619 0.95568 0.0
C460 C 0.51829 0.16456 0.97586 0.0
C461 C 0.49071 0.19891 0.91912 0.0
C462 C 0.47939 0.18784 0.93595 0.0
C463 C 0.48871 0.17726 0.95437 0.0
C464 C 0.45799 0.18533 0.93387 0.0
C465 C 0.4815 0.21186 0.89969 0.0
C466 C 0.44555 0.19351 0.95088 0.0
C467 C 0.42551 0.18926 0.9497 0.0
C468 C 0.41762 0.1765 0.9316 0.0
C469 C 0.43014 0.16871 0.91442 0.0
C470 C 0.4501 0.17303 0.91559 0.0
H471 H 0.49148 0.22538 0.89274 0.0
H472 H 0.4782 0.19924 0.88601 0.0
H473 H 0.46773 0.22046 0.90486 0.0
H474 H 0.45137 0.20288 0.96523 0.0
H475 H 0.41631 0.19543 0.96325 0.0
H476 H 0.42519 0.79054 0.43369 0.0
H477 H 0.46033 0.78522 0.43838 0.0
H478 H 0.46848 0.86009 0.43545 0.0
H479 H 0.43355 0.86561 0.43101 0.0
H480 H 0.4894 0.79887 0.40852 0.0
H481 H 0.49979 0.84175 0.4912 0.0
H482 H 0.47617 0.83278 0.48105 0.0
H483 H 0.48678 0.85992 0.47164 0.0
C484 C 0.43443 0.80589 0.43431 0.0
C485 C 0.4265 0.82851 0.43202 0.0
C486 C 0.45451 0.8028 0.43696 0.0
C487 C 0.46699 0.82227 0.4376 0.0
C488 C 0.4591 0.84484 0.43551 0.0
H489 H 0.58483 0.84511 0.40186 0.0
H490 H 0.54988 0.8383 0.40385 0.0
C491 C 0.43909 0.84794 0.43281 0.0
C492 C 0.48838 0.81916 0.43907 0.0
H493 H 0.52839 0.83725 0.46831 0.0
C494 C 0.49792 0.80695 0.42178 0.0
C495 C 0.49948 0.82938 0.45655 0.0
C496 C 0.49002 0.84149 0.47629 0.0
C497 C 0.51831 0.80581 0.42085 0.0
C498 C 0.52942 0.81746 0.43747 0.0
C499 C 0.51987 0.82854 0.45543 0.0
C500 C 0.55086 0.81983 0.43569 0.0
C501 C 0.52776 0.79241 0.4019 0.0
C502 C 0.56306 0.81193 0.45306 0.0
C503 C 0.58315 0.81588 0.45203 0.0
C504 C 0.59135 0.82806 0.43371 0.0
C505 C 0.57906 0.83562 0.4162 0.0
C506 C 0.55905 0.8316 0.41722 0.0
H507 H 0.51787 0.77875 0.39508 0.0
H508 H 0.5313 0.80471 0.38799 0.0
H509 H 0.54145 0.78391 0.40754 0.0
H510 H 0.55701 0.80296 0.46755 0.0
H511 H 0.59216 0.8099 0.46584 0.0
H512 H 0.14619 0.37872 0.16034 0.0
H513 H 0.15074 0.37925 0.20114 0.0
H514 H 0.16717 0.30637 0.19996 0.0
H515 H 0.16263 0.30557 0.15903 0.0
H516 H 0.12946 0.34715 0.23135 0.0
H517 H 0.20997 0.34046 0.23918 0.0
H518 H 0.19831 0.35118 0.21391 0.0
H519 H 0.19794 0.32047 0.22032 0.0
C520 C 0.15099 0.36284 0.16865 0.0
C521 C 0.15399 0.34208 0.15637 0.0
C522 C 0.15358 0.3632 0.19198 0.0
C523 C 0.15943 0.34292 0.20349 0.0
C524 C 0.16289 0.32229 0.19131 0.0
H525 H 0.172 0.31921 0.34894 0.0
H526 H 0.17386 0.3149 0.30781 0.0
C527 C 0.1602 0.32186 0.16794 0.0
C528 C 0.16045 0.34306 0.22841 0.0
H529 H 0.19185 0.34137 0.27297 0.0
C530 C 0.14309 0.34585 0.24047 0.0
C531 C 0.17823 0.34105 0.24019 0.0
C532 C 0.19725 0.33824 0.22785 0.0
C533 C 0.14301 0.34692 0.26406 0.0
C534 C 0.16086 0.34579 0.27589 0.0
C535 C 0.17821 0.34238 0.26385 0.0
C536 C 0.16166 0.34906 0.30065 0.0
C537 C 0.12375 0.34908 0.2761 0.0
C538 C 0.15489 0.36999 0.31019 0.0
C539 C 0.15371 0.37244 0.33353 0.0
C540 C 0.15952 0.3541 0.34786 0.0
C541 C 0.16737 0.33362 0.33833 0.0
C542 C 0.16842 0.33112 0.31486 0.0
H543 H 0.11153 0.34278 0.26547 0.0
H544 H 0.12377 0.339 0.29212 0.0
H545 H 0.12102 0.36778 0.2801 0.0
H546 H 0.15005 0.38428 0.29954 0.0
H547 H 0.14782 0.38855 0.34031 0.0
H548 H 0.86762 0.6958 0.66452 0.0
H549 H 0.86319 0.69327 0.70532 0.0
H550 H 0.82969 0.62991 0.69694 0.0
H551 H 0.83523 0.63157 0.65624 0.0
H552 H 0.83481 0.69365 0.73378 0.0
H553 H 0.86939 0.6061 0.73904 0.0
H554 H 0.86895 0.62281 0.71332 0.0
H555 H 0.84801 0.60596 0.72182 0.0
C556 C 0.85922 0.68141 0.6714 0.0
C557 C 0.852 0.6637 0.65727 0.0
C558 C 0.85667 0.67997 0.69473 0.0
C559 C 0.84656 0.66102 0.70437 0.0
C560 C 0.83819 0.6442 0.69007 0.0
H561 H 0.82319 0.66321 0.85126 0.0
H562 H 0.81853 0.66563 0.8103 0.0
C563 C 0.8412 0.64527 0.66679 0.0
C564 C 0.84556 0.65851 0.72933 0.0
H565 H 0.85588 0.621 0.77256 0.0
C566 C 0.83944 0.67777 0.74228 0.0
C567 C 0.85181 0.63788 0.7405 0.0
C568 C 0.8601 0.61712 0.72798 0.0
C569 C 0.83981 0.67718 0.76597 0.0
C570 C 0.84569 0.65636 0.77709 0.0
C571 C 0.85126 0.63692 0.76411 0.0
C572 C 0.84788 0.65478 0.80202 0.0
C573 C 0.83477 0.69923 0.7787 0.0
C574 C 0.86561 0.64706 0.81109 0.0
C575 C 0.86805 0.64494 0.83431 0.0
C576 C 0.85292 0.65087 0.84913 0.0
C577 C 0.83514 0.65869 0.8402 0.0
C578 C 0.83254 0.66029 0.8168 0.0
H579 H 0.8359 0.71504 0.76783 0.0
H580 H 0.81955 0.69804 0.78479 0.0
H581 H 0.84446 0.70163 0.79347 0.0
H582 H 0.87771 0.64274 0.80016 0.0
H583 H 0.88197 0.63902 0.84066 0.0
H584 H 0.14459 0.62265 0.84725 0.0
H585 H 0.14907 0.62105 0.80645 0.0
H586 H 0.1682 0.69299 0.80625 0.0
H587 H 0.16376 0.69485 0.84715 0.0
H588 H 0.12903 0.65307 0.77563 0.0
H589 H 0.20965 0.65655 0.76762 0.0
H590 H 0.19769 0.64719 0.79321 0.0
H591 H 0.19831 0.67769 0.78588 0.0
C592 C 0.14998 0.63809 0.83863 0.0
C593 C 0.15377 0.65891 0.85051 0.0
C594 C 0.15252 0.63712 0.8153 0.0
C595 C 0.15911 0.65683 0.8034 0.0
C596 C 0.16335 0.67749 0.81519 0.0
H597 H 0.17228 0.67891 0.6579 0.0
H598 H 0.17415 0.68331 0.69902 0.0
C599 C 0.16071 0.67854 0.83855 0.0
C600 C 0.16011 0.65616 0.77849 0.0
H601 H 0.19148 0.6564 0.73383 0.0
C602 C 0.14268 0.6538 0.76648 0.0
C603 C 0.17792 0.65744 0.76665 0.0
C604 C 0.19703 0.65972 0.7789 0.0
C605 C 0.14255 0.65251 0.7429 0.0
C606 C 0.1604 0.65298 0.73102 0.0
C607 C 0.17784 0.6559 0.74299 0.0
C608 C 0.1611 0.64961 0.70626 0.0
C609 C 0.12323 0.65089 0.73092 0.0
C610 C 0.15382 0.6289 0.69678 0.0
C611 C 0.15263 0.62641 0.67345 0.0
C612 C 0.15894 0.64448 0.65907 0.0
C613 C 0.16726 0.66471 0.66855 0.0
C614 C 0.16832 0.66726 0.69201 0.0
H615 H 0.11117 0.65763 0.74154 0.0
H616 H 0.12345 0.66088 0.71486 0.0
H617 H 0.12009 0.63226 0.72703 0.0
H618 H 0.14862 0.61483 0.70746 0.0
H619 H 0.14637 0.61048 0.6667 0.0
H620 H 0.87083 0.38032 0.16632 0.0
H621 H 0.86669 0.37482 0.20679 0.0
H622 H 0.82385 0.32119 0.19466 0.0
H623 H 0.82797 0.32643 0.15379 0.0
H624 H 0.81684 0.362 0.2314 0.0
H625 H 0.88431 0.30861 0.23812 0.0
H626 H 0.88552 0.33461 0.22093 0.0
H627 H 0.87036 0.31063 0.21239 0.0
C628 C 0.86038 0.36746 0.17215 0.0
C629 C 0.84978 0.35372 0.15679 0.0
C630 C 0.85806 0.36436 0.19531 0.0
C631 C 0.84508 0.34754 0.20362 0.0
C632 C 0.83397 0.33425 0.18847 0.0
H633 H 0.8509 0.30443 0.34504 0.0
H634 H 0.84495 0.30374 0.3044 0.0
C635 C 0.83634 0.33727 0.16518 0.0
C636 C 0.84392 0.34342 0.22818 0.0
H637 H 0.87043 0.32212 0.27224 0.0
C638 C 0.82838 0.35301 0.24037 0.0
C639 C 0.85895 0.33157 0.23972 0.0
C640 C 0.87572 0.32058 0.2272 0.0
C641 C 0.82791 0.35183 0.26403 0.0
C642 C 0.84347 0.34098 0.27565 0.0
C643 C 0.85855 0.33051 0.26332 0.0
C644 C 0.84507 0.34145 0.30056 0.0
C645 C 0.81089 0.3624 0.2764 0.0
C646 C 0.84707 0.36288 0.31189 0.0
C647 C 0.85055 0.36335 0.33508 0.0
C648 C 0.85217 0.34237 0.34743 0.0
C649 C 0.8497 0.32092 0.33609 0.0
C650 C 0.8463 0.32048 0.31286 0.0
H651 H 0.79789 0.36385 0.26537 0.0
H652 H 0.80704 0.35182 0.29147 0.0
H653 H 0.81482 0.3803 0.28209 0.0
H654 H 0.84657 0.37926 0.30267 0.0
H655 H 0.85241 0.38018 0.34323 0.0
H656 H 0.6742 0.81916 0.35402 0.0
H657 H 0.67922 0.81404 0.31333 0.0
H658 H 0.65618 0.88322 0.30136 0.0
H659 H 0.65108 0.88843 0.3417 0.0
H660 H 0.64806 0.81711 0.28079 0.0
H661 H 0.70658 0.88135 0.26306 0.0
H662 H 0.70196 0.86985 0.29094 0.0
H663 H 0.68699 0.89289 0.27971 0.0
C664 C 0.67053 0.83341 0.34272 0.0
C665 C 0.66223 0.85419 0.35106 0.0
C666 C 0.67337 0.83044 0.31952 0.0
C667 C 0.66828 0.84836 0.30439 0.0
C668 C 0.66053 0.86933 0.31277 0.0
H669 H 0.64888 0.8785 0.16617 0.0
H670 H 0.65512 0.87779 0.20661 0.0
C671 C 0.65751 0.87222 0.33584 0.0
C672 C 0.66938 0.84468 0.27971 0.0
H673 H 0.68788 0.86838 0.23143 0.0
C674 C 0.65702 0.82798 0.26995 0.0
C675 C 0.681 0.85901 0.2657 0.0
C676 C 0.69503 0.87665 0.27536 0.0
C677 C 0.65516 0.82611 0.24646 0.0
C678 C 0.66635 0.84097 0.23238 0.0
C679 C 0.67929 0.85703 0.24221 0.0
C680 C 0.66378 0.84135 0.20755 0.0
C681 C 0.64044 0.80914 0.23698 0.0
C682 C 0.66698 0.82121 0.19449 0.0
C683 C 0.66327 0.82149 0.17131 0.0
C684 C 0.6565 0.84201 0.16071 0.0
C685 C 0.65402 0.86237 0.17374 0.0
C686 C 0.65761 0.86202 0.19689 0.0
H687 H 0.63 0.80304 0.25001 0.0
H688 H 0.63212 0.81728 0.22299 0.0
H689 H 0.64812 0.79355 0.23026 0.0
H690 H 0.67217 0.80521 0.20226 0.0
H691 H 0.6655 0.80556 0.16175 0.0
H692 H 0.36021 0.1157 0.83945 0.0
H693 H 0.35563 0.12142 0.79904 0.0
H694 H 0.32984 0.18904 0.81144 0.0
H695 H 0.33435 0.18345 0.85215 0.0
H696 H 0.32002 0.13276 0.7731 0.0
H697 H 0.37798 0.20093 0.76885 0.0
H698 H 0.37594 0.18094 0.79234 0.0
H699 H 0.35897 0.2046 0.7894 0.0
C700 C 0.35337 0.13172 0.83366 0.0
C701 C 0.34775 0.14921 0.84901 0.0
C702 C 0.35074 0.13492 0.81055 0.0
C703 C 0.3426 0.15573 0.80228 0.0
C704 C 0.33632 0.17293 0.81753 0.0
H705 H 0.34634 0.19862 0.66023 0.0
H706 H 0.33939 0.19851 0.70069 0.0
C707 C 0.33883 0.16967 0.84076 0.0
C708 C 0.34166 0.15959 0.77762 0.0
H709 H 0.3642 0.18878 0.7347 0.0
C710 C 0.32949 0.14519 0.76467 0.0
C711 C 0.35398 0.17589 0.76674 0.0
C712 C 0.36758 0.19145 0.77992 0.0
C713 C 0.32962 0.14632 0.74104 0.0
C714 C 0.34265 0.16182 0.73008 0.0
C715 C 0.35426 0.17686 0.74309 0.0
C716 C 0.34548 0.16161 0.70527 0.0
C717 C 0.31585 0.13082 0.72806 0.0
C718 C 0.35131 0.14094 0.69439 0.0
C719 C 0.35521 0.14091 0.6713 0.0
C720 C 0.35361 0.16164 0.65857 0.0
C721 C 0.34769 0.18233 0.66948 0.0
C722 C 0.34371 0.18231 0.69262 0.0
H723 H 0.30279 0.12637 0.73824 0.0
H724 H 0.31105 0.13931 0.71217 0.0
H725 H 0.32332 0.11417 0.7238 0.0
H726 H 0.35332 0.12489 0.70388 0.0
H727 H 0.35987 0.12469 0.66354 0.0
H728 H 0.64949 0.12332 0.84382 0.0
H729 H 0.65416 0.12405 0.80305 0.0
H730 H 0.6684 0.19753 0.80597 0.0
H731 H 0.66367 0.19711 0.84692 0.0
H732 H 0.63131 0.15858 0.77424 0.0
H733 H 0.71186 0.16376 0.76509 0.0
H734 H 0.70054 0.15092 0.78967 0.0
H735 H 0.69999 0.18204 0.78568 0.0
C736 C 0.65387 0.13961 0.83591 0.0
C737 C 0.65612 0.1602 0.84868 0.0
C738 C 0.65654 0.13996 0.8126 0.0
C739 C 0.66172 0.16079 0.80159 0.0
C740 C 0.66459 0.18123 0.81425 0.0
H741 H 0.67313 0.185 0.6558 0.0
H742 H 0.67554 0.18958 0.69688 0.0
C743 C 0.66181 0.18095 0.83762 0.0
C744 C 0.66243 0.1614 0.7767 0.0
H745 H 0.69334 0.16246 0.73166 0.0
C746 C 0.64485 0.15954 0.76491 0.0
C747 C 0.68011 0.16298 0.76467 0.0
C748 C 0.69929 0.16496 0.77679 0.0
C749 C 0.64448 0.15879 0.74132 0.0
C750 C 0.66222 0.15928 0.72922 0.0
C751 C 0.67979 0.16192 0.74099 0.0
C752 C 0.66264 0.15588 0.70446 0.0
C753 C 0.62504 0.1575 0.72957 0.0
C754 C 0.65527 0.13512 0.69519 0.0
C755 C 0.65377 0.13254 0.67191 0.0
C756 C 0.65986 0.15055 0.65735 0.0
C757 C 0.66827 0.17085 0.6666 0.0
C758 C 0.66965 0.17349 0.69003 0.0
H759 H 0.61314 0.16432 0.74041 0.0
H760 H 0.62518 0.16761 0.71358 0.0
H761 H 0.62169 0.13894 0.7256 0.0
H762 H 0.65022 0.12108 0.70602 0.0
H763 H 0.64745 0.11655 0.66533 0.0
H764 H 0.32281 0.84118 0.15765 0.0
H765 H 0.31714 0.83946 0.19852 0.0
H766 H 0.3752 0.86548 0.2101 0.0
H767 H 0.38047 0.86842 0.16969 0.0
H768 H 0.33275 0.81593 0.23117 0.0
H769 H 0.34632 0.90904 0.24933 0.0
H770 H 0.34387 0.89834 0.22092 0.0
H771 H 0.36703 0.89707 0.23518 0.0
C772 C 0.33424 0.84674 0.169 0.0
C773 C 0.35196 0.85528 0.16051 0.0
C774 C 0.33101 0.84573 0.19232 0.0
C775 C 0.34554 0.853 0.20747 0.0
C776 C 0.36345 0.86071 0.19887 0.0
H777 H 0.36592 0.80879 0.34338 0.0
H778 H 0.36038 0.81156 0.30288 0.0
C779 C 0.36651 0.8622 0.1757 0.0
C780 C 0.34249 0.85182 0.23228 0.0
H781 H 0.35082 0.88237 0.28065 0.0
C782 C 0.33637 0.83059 0.24199 0.0
C783 C 0.3466 0.87109 0.24651 0.0
C784 C 0.35108 0.89521 0.23738 0.0
C785 C 0.33534 0.82775 0.26549 0.0
C786 C 0.34142 0.8463 0.27971 0.0
C787 C 0.34649 0.8679 0.26993 0.0
C788 C 0.34349 0.84361 0.30459 0.0
C789 C 0.32759 0.80491 0.27467 0.0
C790 C 0.33646 0.86103 0.31922 0.0
C791 C 0.34031 0.85992 0.34233 0.0
C792 C 0.35091 0.8411 0.35137 0.0
C793 C 0.35745 0.82331 0.33691 0.0
C794 C 0.35409 0.82478 0.31372 0.0
H795 H 0.31678 0.7971 0.26297 0.0
H796 H 0.33973 0.79223 0.27636 0.0
H797 H 0.32059 0.80725 0.29137 0.0
H798 H 0.32829 0.87579 0.31271 0.0
H799 H 0.33509 0.87386 0.35313 0.0
H800 H 0.29701 0.19991 0.93958 0.0
H801 H 0.26895 0.2214 0.95435 0.0
H802 H 0.30345 0.24496 0.01062 0.0
H803 H 0.33124 0.22289 0.9964 0.0
H804 H 0.27072 0.22674 0.02481 0.0
H805 H 0.25369 0.28926 0.95617 0.0
H806 H 0.25434 0.25942 0.94671 0.0
H807 H 0.27618 0.27299 0.95714 0.0
C808 C 0.29869 0.21004 0.95487 0.0
C809 C 0.31631 0.20965 0.96687 0.0
C810 C 0.28266 0.22243 0.96325 0.0
C811 C 0.2841 0.23504 0.98351 0.0
C812 C 0.30195 0.23538 0.99498 0.0
H813 H 0.19696 0.32749 0.04296 0.0
H814 H 0.22494 0.3113 0.02265 0.0
C815 C 0.31785 0.22276 0.98681 0.0
C816 C 0.26669 0.24607 0.99396 0.0
H817 H 0.22947 0.28463 0.98477 0.0
C818 C 0.2618 0.23952 0.01606 0.0
C819 C 0.25511 0.26292 0.98268 0.0
C820 C 0.26019 0.27175 0.95945 0.0
C821 C 0.24564 0.2491 0.02711 0.0
C822 C 0.23357 0.26519 0.01552 0.0
C823 C 0.23857 0.27206 0.99353 0.0
C824 C 0.21584 0.27516 0.02615 0.0
C825 C 0.24193 0.24222 0.05131 0.0
C826 C 0.20113 0.26031 0.03425 0.0
C827 C 0.18531 0.26946 0.04609 0.0
C828 C 0.18366 0.29373 0.04968 0.0
C829 C 0.19786 0.30871 0.04053 0.0
C830 C 0.21384 0.29949 0.0289 0.0
H831 H 0.25535 0.23559 0.05957 0.0
H832 H 0.23631 0.25725 0.06122 0.0
H833 H 0.23096 0.22796 0.0518 0.0
H834 H 0.20207 0.24154 0.03178 0.0
H835 H 0.17448 0.25747 0.05265 0.0
H836 H 0.81141 0.67674 0.54581 0.0
H837 H 0.78397 0.69351 0.52506 0.0
H838 H 0.80965 0.76226 0.53063 0.0
H839 H 0.8367 0.74575 0.552 0.0
H840 H 0.77301 0.76351 0.54263 0.0
H841 H 0.77795 0.71626 0.46145 0.0
H842 H 0.7765 0.69677 0.48513 0.0
H843 H 0.79726 0.71572 0.48202 0.0
C844 C 0.81132 0.69538 0.54235 0.0
C845 C 0.8262 0.70992 0.5506 0.0
C846 C 0.79568 0.70494 0.53033 0.0
C847 C 0.79483 0.72914 0.52596 0.0
C848 C 0.80996 0.74354 0.53373 0.0
H849 H 0.71141 0.80316 0.44064 0.0
H850 H 0.74009 0.78262 0.45529 0.0
C851 C 0.82544 0.73407 0.54596 0.0
C852 C 0.77754 0.73982 0.51491 0.0
H853 H 0.74848 0.7374 0.46823 0.0
C854 C 0.76775 0.75786 0.52629 0.0
C855 C 0.77075 0.7327 0.49345 0.0
C856 C 0.78128 0.71447 0.47969 0.0
C857 C 0.7513 0.76874 0.51705 0.0
C858 C 0.74397 0.76089 0.49609 0.0
C859 C 0.75392 0.74316 0.48445 0.0
C860 C 0.72608 0.77115 0.48605 0.0
C861 C 0.74218 0.78889 0.52969 0.0
C862 C 0.70849 0.77077 0.49804 0.0
C863 C 0.69221 0.78266 0.48985 0.0
C864 C 0.69306 0.79483 0.46927 0.0
C865 C 0.71031 0.79397 0.45657 0.0
C866 C 0.72671 0.78225 0.46493 0.0
H867 H 0.75262 0.79707 0.5416 0.0
H868 H 0.73683 0.80262 0.51795 0.0
H869 H 0.72966 0.7823 0.53965 0.0
H870 H 0.7075 0.76176 0.51408 0.0
H871 H 0.67907 0.78274 0.49991 0.0
H872 H 0.32366 0.79693 1.00302 0.0
H873 H 0.29537 0.77497 0.99018 0.0
H874 H 0.27464 0.76982 0.05858 0.0
H875 H 0.30284 0.7924 0.0716 0.0
H876 H 0.28202 0.73117 0.99995 0.0
H877 H 0.22824 0.7985 0.02634 0.0
H878 H 0.25405 0.80413 0.02588 0.0
H879 H 0.24349 0.78742 0.04848 0.0
C880 C 0.31315 0.79108 0.01541 0.0
C881 C 0.31545 0.79659 0.03833 0.0
C882 C 0.29698 0.77847 0.00802 0.0
C883 C 0.28271 0.77105 0.02335 0.0
C884 C 0.28525 0.7758 0.04638 0.0
H885 H 0.18968 0.67736 0.9743 0.0
H886 H 0.21677 0.69294 0.99657 0.0
C887 C 0.30144 0.78857 0.05381 0.0
C888 C 0.2651 0.75884 0.01484 0.0
H889 H 0.2159 0.76453 0.00904 0.0
C890 C 0.26753 0.73833 1.00209 0.0
C891 C 0.24623 0.76836 0.01747 0.0
C892 C 0.24276 0.79091 0.03011 0.0
C893 C 0.25171 0.72741 0.99143 0.0
C894 C 0.23285 0.73697 0.994 0.0
C895 C 0.23035 0.75714 0.00722 0.0
C896 C 0.21579 0.72754 0.9816 0.0
C897 C 0.25549 0.7064 0.97665 0.0
C898 C 0.20582 0.742 0.96636 0.0
C899 C 0.19024 0.73326 0.95384 0.0
C900 C 0.18429 0.70981 0.95627 0.0
C901 C 0.19401 0.69545 0.97191 0.0
C902 C 0.20956 0.70429 0.98456 0.0
H903 H 0.27116 0.70457 0.9724 0.0
H904 H 0.25089 0.69027 0.98565 0.0
H905 H 0.24708 0.70759 0.96073 0.0
H906 H 0.21033 0.76001 0.96382 0.0
H907 H 0.18308 0.74483 0.94198 0.0
H908 H 0.68649 0.20887 0.50089 0.0
H909 H 0.71472 0.2312 0.48842 0.0
H910 H 0.73438 0.23702 0.55717 0.0
H911 H 0.70627 0.21399 0.5698 0.0
H912 H 0.72753 0.27493 0.49762 0.0
H913 H 0.78162 0.20909 0.52656 0.0
H914 H 0.75589 0.20304 0.5258 0.0
H915 H 0.76598 0.22035 0.54822 0.0
C916 C 0.69674 0.21495 0.51343 0.0
C917 C 0.69419 0.20947 0.53635 0.0
C918 C 0.71289 0.22777 0.50625 0.0
C919 C 0.72687 0.23547 0.52179 0.0
C920 C 0.72403 0.2308 0.54481 0.0
H921 H 0.81929 0.32998 0.47201 0.0
H922 H 0.79219 0.31446 0.49435 0.0
C923 C 0.70788 0.21778 0.55202 0.0
C924 C 0.7445 0.24787 0.5135 0.0
H925 H 0.79387 0.24303 0.50903 0.0
C926 C 0.74206 0.26809 0.50026 0.0
C927 C 0.76344 0.23877 0.51678 0.0
C928 C 0.76697 0.21652 0.52994 0.0
C929 C 0.75793 0.27907 0.48971 0.0
C930 C 0.77687 0.26993 0.49295 0.0
C931 C 0.77937 0.2501 0.50669 0.0
C932 C 0.79403 0.27937 0.48067 0.0
C933 C 0.75412 0.29965 0.47433 0.0
C934 C 0.80455 0.26464 0.4662 0.0
C935 C 0.82016 0.27336 0.45369 0.0
C936 C 0.8256 0.29706 0.45532 0.0
C937 C 0.81537 0.3117 0.47024 0.0
C938 C 0.79979 0.30288 0.48291 0.0
H939 H 0.73853 0.30099 0.4696 0.0
H940 H 0.75825 0.31608 0.48308 0.0
H941 H 0.7629 0.29831 0.45868 0.0
H942 H 0.80042 0.24643 0.46422 0.0
H943 H 0.82773 0.26158 0.4424 0.0
H944 H 0.68205 0.76043 0.06624 0.0
H945 H 0.70932 0.74561 0.04422 0.0
H946 H 0.71653 0.81357 0.01341 0.0
H947 H 0.68945 0.82878 0.03593 0.0
H948 H 0.71546 0.74219 0.99917 0.0
H949 H 0.77053 0.80098 0.03787 0.0
H950 H 0.74629 0.7979 0.04909 0.0
H951 H 0.75053 0.81572 0.02458 0.0
C952 C 0.68938 0.77227 0.05476 0.0
C953 C 0.68367 0.79586 0.05299 0.0
C954 C 0.70497 0.76373 0.04213 0.0
C955 C 0.71519 0.77854 0.02741 0.0
C956 C 0.70915 0.80194 0.02503 0.0
H957 H 0.80319 0.71463 0.93786 0.0
H958 H 0.77488 0.73717 0.95061 0.0
C959 C 0.6936 0.81057 0.03782 0.0
C960 C 0.73233 0.76932 0.01502 0.0
H961 H 0.7816 0.77493 0.00997 0.0
C962 C 0.72992 0.74945 1.00137 0.0
C963 C 0.75121 0.77871 0.01807 0.0
C964 C 0.75492 0.79937 0.03334 0.0
C965 C 0.74588 0.73833 0.99118 0.0
C966 C 0.76476 0.74766 0.99431 0.0
C967 C 0.76711 0.76791 0.00746 0.0
C968 C 0.78243 0.73546 0.98598 0.0
C969 C 0.74247 0.71604 0.9781 0.0
C970 C 0.79645 0.72778 1.00148 0.0
C971 C 0.8127 0.71521 0.99424 0.0
C972 C 0.81531 0.70998 0.9713 0.0
C973 C 0.80154 0.71824 0.95566 0.0
C974 C 0.78529 0.73098 0.96294 0.0
H975 H 0.72786 0.70848 0.98149 0.0
H976 H 0.74346 0.71986 0.95981 0.0
H977 H 0.75363 0.70267 0.98229 0.0
H978 H 0.7946 0.73106 0.01932 0.0
H979 H 0.823 0.70917 0.00676 0.0
H980 H 0.33487 0.24442 0.55392 0.0
H981 H 0.30722 0.26025 0.53308 0.0
H982 H 0.28429 0.19045 0.52465 0.0
H983 H 0.31233 0.17436 0.54496 0.0
H984 H 0.27965 0.21688 0.48656 0.0
H985 H 0.25402 0.26643 0.56104 0.0
H986 H 0.27839 0.27398 0.55311 0.0
H987 H 0.27304 0.24477 0.5628 0.0
C988 C 0.32402 0.2324 0.54752 0.0
C989 C 0.32568 0.20815 0.55132 0.0
C990 C 0.30816 0.24149 0.5357 0.0
C991 C 0.29341 0.22661 0.5278 0.0
C992 C 0.29542 0.20229 0.53075 0.0
H993 H 0.17808 0.27935 0.498 0.0
H994 H 0.20579 0.25721 0.51238 0.0
C995 C 0.31143 0.19313 0.54237 0.0
C996 C 0.27566 0.23653 0.51716 0.0
H997 H 0.2386 0.27514 0.52625 0.0
C998 C 0.27059 0.22953 0.49525 0.0
C999 C 0.26364 0.25271 0.52865 0.0
C1000 C 0.26741 0.25974 0.55277 0.0
C1001 C 0.25404 0.23864 0.48438 0.0
C1002 C 0.24252 0.2556 0.49555 0.0
C1003 C 0.24747 0.26228 0.51757 0.0
C1004 C 0.22513 0.26667 0.48505 0.0
C1005 C 0.2489 0.22966 0.46126 0.0
C1006 C 0.22657 0.27903 0.46461 0.0
C1007 C 0.21057 0.29145 0.45614 0.0
C1008 C 0.19299 0.29211 0.46821 0.0
C1009 C 0.19145 0.27925 0.48834 0.0
C1010 C 0.2073 0.2666 0.4966 0.0
H1011 H 0.25529 0.21207 0.45815 0.0
H1012 H 0.2329 0.22854 0.45898 0.0
H1013 H 0.25482 0.24182 0.44838 0.0
H1014 H 0.24025 0.27987 0.45563 0.0
H1015 H 0.21226 0.30138 0.4407 0.0
H1016 H 0.82243 0.29599 1.00034 0.0
H1017 H 0.79418 0.27352 0.98828 0.0
H1018 H 0.77513 0.26758 0.05728 0.0
H1019 H 0.80328 0.29071 0.06952 0.0
H1020 H 0.78171 0.22958 0.99797 0.0
H1021 H 0.72752 0.29525 0.02696 0.0
H1022 H 0.75322 0.30147 0.02582 0.0
H1023 H 0.74342 0.28419 0.04848 0.0
C1024 C 0.81231 0.28986 0.01303 0.0
C1025 C 0.81505 0.29532 0.0359 0.0
C1026 C 0.79615 0.27696 0.00608 0.0
C1027 C 0.78235 0.26917 0.02181 0.0
C1028 C 0.78536 0.27385 0.04478 0.0
H1029 H 0.68993 0.17422 0.97316 0.0
H1030 H 0.71701 0.18988 0.9954 0.0
C1031 C 0.80152 0.28694 0.05176 0.0
C1032 C 0.76472 0.25663 0.01377 0.0
H1033 H 0.71533 0.26127 0.00956 0.0
C1034 C 0.76717 0.23637 1.00067 0.0
C1035 C 0.74577 0.26566 0.01713 0.0
C1036 C 0.74224 0.28794 0.03019 0.0
C1037 C 0.75129 0.22528 0.99029 0.0
C1038 C 0.73235 0.23437 0.99356 0.0
C1039 C 0.72984 0.25424 0.0072 0.0
C1040 C 0.7152 0.22487 0.98139 0.0
C1041 C 0.75509 0.20464 0.97503 0.0
C1042 C 0.70472 0.23951 0.96677 0.0
C1043 C 0.68913 0.23071 0.9543 0.0
C1044 C 0.68368 0.20703 0.95614 0.0
C1045 C 0.69387 0.19249 0.97123 0.0
C1046 C 0.70942 0.20138 0.98385 0.0
H1047 H 0.77068 0.20325 0.97031 0.0
H1048 H 0.75093 0.18824 0.98387 0.0
H1049 H 0.74632 0.20594 0.95938 0.0
H1050 H 0.70886 0.25769 0.96462 0.0
H1051 H 0.6816 0.24242 0.94289 0.0
H1052 H 0.20642 0.71026 0.57228 0.0
H1053 H 0.23419 0.73395 0.55979 0.0
H1054 H 0.21312 0.73093 0.49144 0.0
H1055 H 0.18527 0.70789 0.50378 0.0
H1056 H 0.26261 0.72184 0.53113 0.0
H1057 H 0.22503 0.7996 0.4969 0.0
H1058 H 0.21286 0.77841 0.51456 0.0
H1059 H 0.21559 0.77318 0.4848 0.0
C1060 C 0.20756 0.71498 0.55466 0.0
C1061 C 0.19357 0.70726 0.53906 0.0
C1062 C 0.22345 0.72849 0.54753 0.0
C1063 C 0.22559 0.7346 0.52472 0.0
C1064 C 0.21154 0.72704 0.50921 0.0
H1065 H 0.32712 0.75806 0.44546 0.0
H1066 H 0.3001 0.74308 0.46785 0.0
C1067 C 0.19565 0.71369 0.5163 0.0
C1068 C 0.24315 0.74734 0.51668 0.0
H1069 H 0.2576 0.79281 0.48313 0.0
C1070 C 0.26153 0.73757 0.52093 0.0
C1071 C 0.24185 0.76813 0.50371 0.0
C1072 C 0.22277 0.78057 0.49994 0.0
C1073 C 0.27849 0.74728 0.51158 0.0
C1074 C 0.277 0.76696 0.49713 0.0
C1075 C 0.25875 0.7775 0.4939 0.0
C1076 C 0.29394 0.77611 0.48425 0.0
C1077 C 0.29782 0.73622 0.51719 0.0
C1078 C 0.2992 0.79987 0.4855 0.0
C1079 C 0.31456 0.80861 0.47243 0.0
C1080 C 0.32489 0.79374 0.45782 0.0
C1081 C 0.3196 0.76996 0.45667 0.0
C1082 C 0.30422 0.7613 0.46962 0.0
H1083 H 0.29732 0.72719 0.53378 0.0
H1084 H 0.30139 0.72289 0.50425 0.0
H1085 H 0.30965 0.74946 0.51754 0.0
H1086 H 0.29138 0.81168 0.49652 0.0
H1087 H 0.31823 0.82702 0.47366 0.0
H1088 H 0.17631 0.59875 0.96742 0.0
H1089 H 0.18388 0.56311 0.98892 0.0
H1090 H 0.13339 0.5292 0.96071 0.0
H1091 H 0.1262 0.56415 0.93877 0.0
H1092 H 0.16412 0.54195 0.02081 0.0
H1093 H 0.1726 0.47887 0.9514 0.0
H1094 H 0.17187 0.51009 0.94658 0.0
H1095 H 0.14965 0.49345 0.94889 0.0
C1096 C 0.16699 0.58356 0.96562 0.0
C1097 C 0.15074 0.58422 0.95127 0.0
C1098 C 0.17133 0.56321 0.97789 0.0
C1099 C 0.15948 0.54322 0.97604 0.0
C1100 C 0.14317 0.54403 0.96186 0.0
H1101 H 0.12794 0.44031 0.07115 0.0
H1102 H 0.13488 0.47537 0.04927 0.0
C1103 C 0.13897 0.56417 0.94945 0.0
C1104 C 0.16313 0.52203 0.99001 0.0
H1105 H 0.16316 0.46225 0.98756 0.0
C1106 C 0.1643 0.52454 0.0135 0.0
C1107 C 0.16392 0.49927 0.98056 0.0
C1108 C 0.16467 0.4953 0.95545 0.0
C1109 C 0.16482 0.50492 0.02779 0.0
C1110 C 0.1635 0.48217 0.01839 0.0
C1111 C 0.16377 0.47965 0.99487 0.0
C1112 C 0.16018 0.46099 0.03251 0.0
C1113 C 0.16656 0.50887 0.05283 0.0
C1114 C 0.17167 0.4408 0.02991 0.0
C1115 C 0.16746 0.42039 0.04215 0.0
C1116 C 0.15169 0.41987 0.05723 0.0
C1117 C 0.14034 0.44016 0.05989 0.0
C1118 C 0.14441 0.46037 0.04751 0.0
H1119 H 0.17481 0.52518 0.05646 0.0
H1120 H 0.15181 0.51097 0.06014 0.0
H1121 H 0.17391 0.49397 0.06134 0.0
H1122 H 0.1838 0.44076 0.01826 0.0
H1123 H 0.17644 0.40501 0.0397 0.0
H1124 H 0.8709 0.56024 0.58133 0.0
H1125 H 0.86725 0.52575 0.55744 0.0
H1126 H 0.83957 0.56794 0.50641 0.0
H1127 H 0.84303 0.60274 0.53037 0.0
H1128 H 0.82221 0.52143 0.51432 0.0
H1129 H 0.90208 0.51918 0.50041 0.0
H1130 H 0.89478 0.51983 0.52947 0.0
H1131 H 0.88974 0.54454 0.5116 0.0
C1132 C 0.86384 0.56222 0.56513 0.0
C1133 C 0.85743 0.58431 0.55764 0.0
C1134 C 0.8618 0.54246 0.5515 0.0
C1135 C 0.85342 0.54439 0.53006 0.0
C1136 C 0.84614 0.56615 0.52291 0.0
H1137 H 0.87321 0.4459 0.42205 0.0
H1138 H 0.86854 0.48097 0.44485 0.0
C1139 C 0.84815 0.58599 0.53659 0.0
C1140 C 0.85343 0.52396 0.51469 0.0
H1141 H 0.884 0.48688 0.48685 0.0
C1142 C 0.83568 0.51388 0.50821 0.0
C1143 C 0.87104 0.51436 0.50657 0.0
C1144 C 0.89051 0.52511 0.51217 0.0
C1145 C 0.83511 0.49408 0.49411 0.0
C1146 C 0.85278 0.48409 0.48655 0.0
C1147 C 0.87048 0.49446 0.49277 0.0
C1148 C 0.85346 0.46309 0.47185 0.0
C1149 C 0.81567 0.48424 0.48718 0.0
C1150 C 0.84631 0.44136 0.47932 0.0
C1151 C 0.8489 0.42118 0.46624 0.0
C1152 C 0.85887 0.42239 0.44558 0.0
C1153 C 0.86553 0.44431 0.43792 0.0
C1154 C 0.86287 0.4644 0.45092 0.0
H1155 H 0.80377 0.49716 0.48963 0.0
H1156 H 0.81586 0.47874 0.46924 0.0
H1157 H 0.81237 0.4686 0.49763 0.0
H1158 H 0.83933 0.43984 0.49562 0.0
H1159 H 0.84369 0.40454 0.47265 0.0
H1160 H 0.84918 0.43193 0.07654 0.0
H1161 H 0.84606 0.47066 0.05917 0.0
H1162 H 0.84341 0.43869 0.99347 0.0
H1163 H 0.84613 0.39996 0.01064 0.0
H1164 H 0.87148 0.49038 0.02944 0.0
H1165 H 0.7985 0.4845 0.99028 0.0
H1166 H 0.80681 0.46391 0.0113 0.0
H1167 H 0.81431 0.46088 0.98241 0.0
C1168 C 0.84766 0.4331 0.05841 0.0
C1169 C 0.8479 0.4128 0.045 0.0
C1170 C 0.84589 0.45526 0.04852 0.0
C1171 C 0.84423 0.45757 0.02504 0.0
C1172 C 0.84419 0.43733 0.01165 0.0
H1173 H 0.85254 0.57337 0.93068 0.0
H1174 H 0.84955 0.53493 0.94884 0.0
C1175 C 0.84589 0.41518 0.02151 0.0
C1176 C 0.84402 0.48115 0.01446 0.0
H1177 H 0.81853 0.51648 0.9785 0.0
C1178 C 0.85981 0.49617 0.01848 0.0
C1179 C 0.82882 0.48863 1.00006 0.0
C1180 C 0.81106 0.47373 0.9959 0.0
C1181 C 0.86102 0.51825 0.00816 0.0
C1182 C 0.84593 0.52562 0.99361 0.0
C1183 C 0.83009 0.5107 0.98962 0.0
C1184 C 0.84643 0.54886 0.9825 0.0
C1185 C 0.87865 0.53335 0.01248 0.0
C1186 C 0.84522 0.56937 0.99539 0.0
C1187 C 0.84689 0.59132 0.98512 0.0
C1188 C 0.84979 0.5932 0.96171 0.0
C1189 C 0.8504 0.57258 0.94875 0.0
C1190 C 0.84867 0.5506 0.95907 0.0
H1191 H 0.89076 0.5232 0.02013 0.0
H1192 H 0.88389 0.5415 0.9966 0.0
H1193 H 0.87467 0.54764 0.02426 0.0
H1194 H 0.84324 0.56838 0.01347 0.0
H1195 H 0.84624 0.60679 0.99563 0.0
H1196 H 0.16535 0.42926 0.4296 0.0
H1197 H 0.16962 0.46753 0.44735 0.0
H1198 H 0.16778 0.43502 0.51293 0.0
H1199 H 0.16378 0.39662 0.49537 0.0
H1200 H 0.14319 0.48805 0.47599 0.0
H1201 H 0.21455 0.47857 0.51854 0.0
H1202 H 0.20647 0.45879 0.49675 0.0
H1203 H 0.19763 0.45559 0.52509 0.0
C1204 C 0.16613 0.43016 0.44779 0.0
C1205 C 0.16419 0.40983 0.46105 0.0
C1206 C 0.16857 0.45207 0.4579 0.0
C1207 C 0.16924 0.4541 0.48144 0.0
C1208 C 0.16772 0.43382 0.49472 0.0
H1209 H 0.16201 0.56832 0.57647 0.0
H1210 H 0.16553 0.53042 0.55768 0.0
C1211 C 0.16531 0.41188 0.48464 0.0
C1212 C 0.16988 0.47759 0.49208 0.0
H1213 H 0.19537 0.51168 0.529 0.0
C1214 C 0.15471 0.49331 0.48741 0.0
C1215 C 0.18485 0.48434 0.50707 0.0
C1216 C 0.2019 0.46854 0.51204 0.0
C1217 C 0.15384 0.51539 0.49769 0.0
C1218 C 0.16874 0.5221 0.51278 0.0
C1219 C 0.18399 0.50647 0.5174 0.0
C1220 C 0.16841 0.54514 0.52425 0.0
C1221 C 0.13668 0.53109 0.49283 0.0
C1222 C 0.16942 0.56597 0.51173 0.0
C1223 C 0.16737 0.58766 0.52238 0.0
C1224 C 0.16436 0.58892 0.54579 0.0
C1225 C 0.16422 0.56801 0.5584 0.0
C1226 C 0.16625 0.54632 0.54771 0.0
H1227 H 0.12442 0.52128 0.48511 0.0
H1228 H 0.13141 0.53965 0.50847 0.0
H1229 H 0.14118 0.54504 0.48087 0.0
H1230 H 0.17142 0.56543 0.49364 0.0
H1231 H 0.16772 0.60339 0.51216 0.0
H1232 H 0.66453 0.09936 0.9753 0.0
H1233 H 0.66851 0.06405 0.99844 0.0
H1234 H 0.64082 0.02279 0.94678 0.0
H1235 H 0.63647 0.05789 0.92384 0.0
H1236 H 0.62426 0.01647 0.98772 0.0
H1237 H 0.70436 0.00718 0.99451 0.0
H1238 H 0.69537 0.0356 1.00229 0.0
H1239 H 0.69291 0.02572 0.9737 0.0
C1240 C 0.65959 0.08269 0.96874 0.0
C1241 C 0.6501 0.08144 0.94779 0.0
C1242 C 0.66198 0.0625 0.98192 0.0
C1243 C 0.65512 0.04073 0.97425 0.0
C1244 C 0.64625 0.03938 0.95302 0.0
H1245 H 0.66536 0.90172 0.03486 0.0
H1246 H 0.66923 0.93637 0.01069 0.0
C1247 C 0.64377 0.0595 0.93993 0.0
C1248 C 0.65544 0.01973 0.98904 0.0
H1249 H 0.68522 0.98298 0.01871 0.0
C1250 C 0.63761 0.00911 0.9944 0.0
C1251 C 0.67288 0.01001 0.99759 0.0
C1252 C 0.69249 0.02005 0.99159 0.0
C1253 C 0.63669 0.98926 0.00828 0.0
C1254 C 0.65404 0.97999 0.01744 0.0
C1255 C 0.67194 0.99029 0.01182 0.0
C1256 C 0.65364 0.95968 0.03302 0.0
C1257 C 0.61712 0.97822 0.01283 0.0
C1258 C 0.64412 0.96152 0.05382 0.0
C1259 C 0.64182 0.94185 0.06756 0.0
C1260 C 0.64913 0.91992 0.06083 0.0
C1261 C 0.65951 0.91834 0.04048 0.0
C1262 C 0.66176 0.9381 0.02667 0.0
H1263 H 0.60607 0.98372 1.00024 0.0
H1264 H 0.61815 0.95879 0.0127 0.0
H1265 H 0.61194 0.98372 0.02972 0.0
H1266 H 0.63802 0.97811 0.05918 0.0
H1267 H 0.63391 0.94374 0.08323 0.0
H1268 H 0.38199 0.93864 0.43737 0.0
H1269 H 0.37677 0.97313 0.46067 0.0
H1270 H 0.32711 0.93984 0.49159 0.0
H1271 H 0.33286 0.9046 0.46889 0.0
H1272 H 0.34828 0.00327 0.46418 0.0
H1273 H 0.35704 0.95795 0.54643 0.0
H1274 H 0.36227 0.94376 0.52002 0.0
H1275 H 0.33753 0.94682 0.52947 0.0
C1276 C 0.36993 0.9386 0.44912 0.0
C1277 C 0.35792 0.91881 0.45142 0.0
C1278 C 0.36693 0.9584 0.46242 0.0
C1279 C 0.35173 0.95903 0.47819 0.0
C1280 C 0.33926 0.93958 0.48 0.0
H1281 H 0.33357 0.09673 0.54382 0.0
H1282 H 0.32712 0.06137 0.52155 0.0
C1283 C 0.34247 0.91951 0.46692 0.0
C1284 C 0.34943 0.98005 0.49276 0.0
H1285 H 0.35036 0.99833 0.5475 0.0
C1286 C 0.34862 0.0022 0.48242 0.0
C1287 C 0.35 0.97865 0.51657 0.0
C1288 C 0.35193 0.95556 0.52882 0.0
C1289 C 0.3492 0.02296 0.49509 0.0
C1290 C 0.34983 0.02156 0.5189 0.0
C1291 C 0.3498 0.9994 0.52927 0.0
C1292 C 0.35258 0.04263 0.5333 0.0
C1293 C 0.35025 0.04607 0.48274 0.0
C1294 C 0.36851 0.04354 0.54805 0.0
C1295 C 0.37192 0.0634 0.56114 0.0
C1296 C 0.35959 0.08298 0.55962 0.0
C1297 C 0.34342 0.08199 0.54517 0.0
C1298 C 0.33981 0.06186 0.53232 0.0
H1299 H 0.35452 0.04377 0.46483 0.0
H1300 H 0.33574 0.05455 0.48304 0.0
H1301 H 0.36085 0.05807 0.49084 0.0
H1302 H 0.37859 0.02898 0.54915 0.0
H1303 H 0.38453 0.06359 0.57206 0.0
H1304 H 0.34791 0.90074 0.01428 0.0
H1305 H 0.34477 0.93958 0.99728 0.0
H1306 H 0.3457 0.97109 0.06323 0.0
H1307 H 0.34921 0.93235 0.08044 0.0
H1308 H 0.31717 0.97492 1.00238 0.0
H1309 H 0.39009 0.00452 0.03084 0.0
H1310 H 0.38258 0.97424 0.0321 0.0
H1311 H 0.37441 0.99466 0.0531 0.0
C1312 C 0.34738 0.91589 0.02522 0.0
C1313 C 0.34903 0.91341 0.04874 0.0
C1314 C 0.34555 0.93809 0.01545 0.0
C1315 C 0.34535 0.95823 0.02896 0.0
C1316 C 0.34625 0.9558 0.05247 0.0
H1317 H 0.34663 0.10691 0.99628 0.0
H1318 H 0.34328 0.06917 0.01542 0.0
C1319 C 0.34816 0.93361 0.06227 0.0
C1320 C 0.34469 0.98178 0.01836 0.0
H1321 H 0.37041 0.03262 0.01255 0.0
C1322 C 0.32879 0.98756 0.00459 0.0
C1323 C 0.35991 0.9982 0.02124 0.0
C1324 C 0.37781 0.99259 0.03494 0.0
C1325 C 0.32763 0.00944 0.99377 0.0
C1326 C 0.34289 0.02578 0.9966 0.0
C1327 C 0.35869 0.02008 0.01052 0.0
C1328 C 0.34316 0.04869 0.98479 0.0
C1329 C 0.31001 0.01498 0.97962 0.0
C1330 C 0.34412 0.04969 0.9612 0.0
C1331 C 0.34607 0.07125 0.95018 0.0
C1332 C 0.34719 0.09221 0.96257 0.0
C1333 C 0.3458 0.09114 0.9862 0.0
C1334 C 0.34389 0.06958 0.99719 0.0
H1335 H 0.29753 0.00343 0.98389 0.0
H1336 H 0.3055 0.03353 0.98182 0.0
H1337 H 0.31362 0.01226 0.9616 0.0
H1338 H 0.34395 0.03375 0.95133 0.0
H1339 H 0.34715 0.07139 0.93198 0.0
H1340 H 0.6634 0.10409 0.51131 0.0
H1341 H 0.66657 0.065 0.49487 0.0
H1342 H 0.66877 0.03468 0.56138 0.0
H1343 H 0.66531 0.07362 0.57802 0.0
H1344 H 0.69488 0.02948 0.49961 0.0
H1345 H 0.62274 1.00104 0.5318 0.0
H1346 H 0.63031 0.03131 0.53175 0.0
H1347 H 0.63915 0.01156 0.55302 0.0
C1348 C 0.6647 0.08914 0.52248 0.0
C1349 C 0.66387 0.09199 0.546 0.0
C1350 C 0.66653 0.06682 0.51303 0.0
C1351 C 0.66754 0.04693 0.52691 0.0
C1352 C 0.6676 0.04977 0.55038 0.0
H1353 H 0.66375 0.89767 0.49751 0.0
H1354 H 0.66801 0.9357 0.51577 0.0
C1355 C 0.66571 0.07207 0.55985 0.0
C1356 C 0.6678 0.0232 0.51679 0.0
H1357 H 0.64163 0.9725 0.51317 0.0
C1358 C 0.68327 0.01698 0.50256 0.0
C1359 C 0.65259 0.00698 0.52066 0.0
C1360 C 0.63515 0.01305 0.53497 0.0
C1361 C 0.68401 0.99485 0.49225 0.0
C1362 C 0.66873 0.97871 0.49602 0.0
C1363 C 0.65337 0.98487 0.5104 0.0
C1364 C 0.66795 0.95558 0.48472 0.0
C1365 C 0.70123 0.98882 0.47762 0.0
C1366 C 0.66657 0.95414 0.46119 0.0
C1367 C 0.66412 0.93243 0.45066 0.0
C1368 C 0.66288 0.91174 0.46351 0.0
C1369 C 0.66465 0.91323 0.48708 0.0
C1370 C 0.66708 0.93495 0.49757 0.0
H1371 H 0.71394 1.00018 0.48136 0.0
H1372 H 0.70556 0.97022 0.4799 0.0
H1373 H 0.69725 0.99146 0.45968 0.0
H1374 H 0.66679 0.96989 0.45097 0.0
H1375 H 0.66275 0.93196 0.4325 0.0
loop_
_geom_bond_atom_site_label_1
_geom_bond_atom_site_label_2
_geom_bond_distance
_geom_bond_site_symmetry_2
_ccdc_geom_bond_type
O0 Cd1 2.223 . S
O0 C8 1.315 . S
Cd1 O0 2.223 . S
Cd1 O4 2.297 . S
Cd1 O5 2.439 . S
Cd1 O11 2.240 . S
Cd2 O3 2.240 . S
Cd2 O10 2.223 . S
Cd2 O12 2.297 . S
Cd2 O13 2.439 . S
O3 Cd2 2.240 . S
O3 C8 1.279 . S
O4 Cd1 2.297 . S
O4 C6 1.247 . S
O5 Cd1 2.439 . S
O5 C6 1.208 . S
C6 O4 1.247 . S
C6 O5 1.208 . S
C7 O12 1.247 . S
C7 O13 1.208 . S
C8 O0 1.315 . S
C8 O3 1.279 . S
C9 O10 1.315 . S
C9 O11 1.279 . S
O10 Cd2 2.223 . S
O10 C9 1.315 . S
O11 Cd1 2.240 . S
O11 C9 1.279 . S
O12 Cd2 2.297 . S
O12 C7 1.247 . S
O13 Cd2 2.439 . S
O13 C7 1.208 . S
O14 Cd15 2.223 . S
O14 C22 1.315 . S
Cd15 O14 2.223 . S
Cd15 O18 2.297 . S
Cd15 O19 2.439 . S
Cd15 O25 2.240 . S
Cd16 O17 2.240 . S
Cd16 O24 2.223 . S
Cd16 O26 2.297 . S
Cd16 O27 2.439 . S
O17 Cd16 2.240 . S
O17 C22 1.279 . S
O18 Cd15 2.297 . S
O18 C20 1.247 . S
O19 Cd15 2.439 . S
O19 C20 1.208 . S
C20 O18 1.247 . S
C20 O19 1.208 . S
C21 O26 1.247 . S
C21 O27 1.208 . S
C22 O14 1.315 . S
C22 O17 1.279 . S
C23 O24 1.315 . S
C23 O25 1.279 . S
O24 Cd16 2.223 . S
O24 C23 1.315 . S
O25 Cd15 2.240 . S
O25 C23 1.279 . S
O26 Cd16 2.297 . S
O26 C21 1.247 . S
O27 Cd16 2.439 . S
O27 C21 1.208 . S
O28 Cd29 2.223 . S
O28 C36 1.315 . S
Cd29 O28 2.223 . S
Cd29 O32 2.297 . S
Cd29 O33 2.439 . S
Cd29 O39 2.240 . S
Cd30 O31 2.240 . S
Cd30 O38 2.223 . S
Cd30 O40 2.297 . S
Cd30 O41 2.439 . S
O31 Cd30 2.240 . S
O31 C36 1.279 . S
O32 Cd29 2.297 . S
O32 C34 1.247 . S
O33 Cd29 2.439 . S
O33 C34 1.208 . S
C34 O32 1.247 . S
C34 O33 1.208 . S
C35 O40 1.247 . S
C35 O41 1.208 . S
C36 O28 1.315 . S
C36 O31 1.279 . S
C37 O38 1.315 . S
C37 O39 1.279 . S
O38 Cd30 2.223 . S
O38 C37 1.315 . S
O39 Cd29 2.240 . S
O39 C37 1.279 . S
O40 Cd30 2.297 . S
O40 C35 1.247 . S
O41 Cd30 2.439 . S
O41 C35 1.208 . S
O42 Cd43 2.223 . S
O42 C50 1.315 . S
Cd43 O42 2.223 . S
Cd43 O46 2.297 . S
Cd43 O47 2.439 . S
Cd43 O53 2.240 . S
Cd44 O45 2.240 . S
Cd44 O52 2.223 . S
Cd44 O54 2.297 . S
Cd44 O55 2.439 . S
O45 Cd44 2.240 . S
O45 C50 1.279 . S
O46 Cd43 2.297 . S
O46 C48 1.247 . S
O47 Cd43 2.439 . S
O47 C48 1.208 . S
C48 O46 1.247 . S
C48 O47 1.208 . S
C49 O54 1.247 . S
C49 O55 1.208 . S
C50 O42 1.315 . S
C50 O45 1.279 . S
C51 O52 1.315 . S
C51 O53 1.279 . S
O52 Cd44 2.223 . S
O52 C51 1.315 . S
O53 Cd43 2.240 . S
O53 C51 1.279 . S
O54 Cd44 2.297 . S
O54 C49 1.247 . S
O55 Cd44 2.439 . S
O55 C49 1.208 . S
O56 Cd57 2.223 . S
O56 C64 1.315 . S
Cd57 O56 2.223 . S
Cd57 O60 2.297 . S
Cd57 O61 2.439 . S
Cd57 O67 2.240 . S
Cd58 O59 2.240 . S
Cd58 O66 2.223 . S
Cd58 O68 2.297 . S
Cd58 O69 2.439 . S
O59 Cd58 2.240 . S
O59 C64 1.279 . S
O60 Cd57 2.297 . S
O60 C62 1.247 . S
O61 Cd57 2.439 . S
O61 C62 1.208 . S
C62 O60 1.247 . S
C62 O61 1.208 . S
C63 O68 1.247 . S
C63 O69 1.208 . S
C64 O56 1.315 . S
C64 O59 1.279 . S
C65 O66 1.315 . S
C65 O67 1.279 . S
O66 Cd58 2.223 . S
O66 C65 1.315 . S
O67 Cd57 2.240 . S
O67 C65 1.279 . S
O68 Cd58 2.297 . S
O68 C63 1.247 . S
O69 Cd58 2.439 . S
O69 C63 1.208 . S
O70 Cd71 2.223 . S
O70 C78 1.315 . S
Cd71 O70 2.223 . S
Cd71 O74 2.297 . S
Cd71 O75 2.439 . S
Cd71 O81 2.240 . S
Cd72 O73 2.240 . S
Cd72 O80 2.223 . S
Cd72 O82 2.297 . S
Cd72 O83 2.439 . S
O73 Cd72 2.240 . S
O73 C78 1.279 . S
O74 Cd71 2.297 . S
O74 C76 1.247 . S
O75 Cd71 2.439 . S
O75 C76 1.208 . S
C76 O74 1.247 . S
C76 O75 1.208 . S
C77 O82 1.247 . S
C77 O83 1.208 . S
C78 O70 1.315 . S
C78 O73 1.279 . S
C79 O80 1.315 . S
C79 O81 1.279 . S
O80 Cd72 2.223 . S
O80 C79 1.315 . S
O81 Cd71 2.240 . S
O81 C79 1.279 . S
O82 Cd72 2.297 . S
O82 C77 1.247 . S
O83 Cd72 2.439 . S
O83 C77 1.208 . S
O84 Cd85 2.223 . S
O84 C92 1.315 . S
Cd85 O84 2.223 . S
Cd85 O88 2.297 . S
Cd85 O89 2.439 . S
Cd85 O95 2.240 . S
Cd86 O87 2.240 . S
Cd86 O94 2.223 . S
Cd86 O96 2.297 . S
Cd86 O97 2.439 . S
O87 Cd86 2.240 . S
O87 C92 1.279 . S
O88 Cd85 2.297 . S
O88 C90 1.247 . S
O89 Cd85 2.439 . S
O89 C90 1.208 . S
C90 O88 1.247 . S
C90 O89 1.208 . S
C91 O96 1.247 . S
C91 O97 1.208 . S
C92 O84 1.315 . S
C92 O87 1.279 . S
C93 O94 1.315 . S
C93 O95 1.279 . S
O94 Cd86 2.223 . S
O94 C93 1.315 . S
O95 Cd85 2.240 . S
O95 C93 1.279 . S
O96 Cd86 2.297 . S
O96 C91 1.247 . S
O97 Cd86 2.439 . S
O97 C91 1.208 . S
O98 Cd99 2.223 . S
O98 C106 1.315 . S
Cd99 O98 2.223 . S
Cd99 O102 2.297 . S
Cd99 O103 2.439 . S
Cd99 O109 2.240 . S
Cd100 O101 2.240 . S
Cd100 O108 2.223 . S
Cd100 O110 2.297 . S
Cd100 O111 2.439 . S
O101 Cd100 2.240 . S
O101 C106 1.279 . S
O102 Cd99 2.297 . S
O102 C104 1.247 . S
O103 Cd99 2.439 . S
O103 C104 1.208 . S
C104 O102 1.247 . S
C104 O103 1.208 . S
C105 O110 1.247 . S
C105 O111 1.208 . S
C106 O98 1.315 . S
C106 O101 1.279 . S
C107 O108 1.315 . S
C107 O109 1.279 . S
O108 Cd100 2.223 . S
O108 C107 1.315 . S
O109 Cd99 2.240 . S
O109 C107 1.279 . S
O110 Cd100 2.297 . S
O110 C105 1.247 . S
O111 Cd100 2.439 . S
O111 C105 1.208 . S
O112 Cd113 2.223 . S
O112 C120 1.315 . S
Cd113 O112 2.223 . S
Cd113 O116 2.297 . S
Cd113 O117 2.439 . S
Cd113 O123 2.240 . S
Cd114 O115 2.240 . S
Cd114 O122 2.223 . S
Cd114 O124 2.297 . S
Cd114 O125 2.439 . S
O115 Cd114 2.240 . S
O115 C120 1.279 . S
O116 Cd113 2.297 . S
O116 C118 1.247 . S
O117 Cd113 2.439 . S
O117 C118 1.208 . S
C118 O116 1.247 . S
C118 O117 1.208 . S
C119 O124 1.247 . S
C119 O125 1.208 . S
C120 O112 1.315 . S
C120 O115 1.279 . S
C121 O122 1.315 . S
C121 O123 1.279 . S
O122 Cd114 2.223 . S
O122 C121 1.315 . S
O123 Cd113 2.240 . S
O123 C121 1.279 . S
O124 Cd114 2.297 . S
O124 C119 1.247 . S
O125 Cd114 2.439 . S
O125 C119 1.208 . S
O126 Cd127 2.223 . S
O126 C134 1.315 . S
Cd127 O126 2.223 . S
Cd127 O130 2.297 . S
Cd127 O131 2.439 . S
Cd127 O137 2.240 . S
Cd128 O129 2.240 . S
Cd128 O136 2.223 . S
Cd128 O138 2.297 . S
Cd128 O139 2.439 . S
O129 Cd128 2.240 . S
O129 C134 1.279 . S
O130 Cd127 2.297 . S
O130 C132 1.247 . S
O131 Cd127 2.439 . S
O131 C132 1.208 . S
C132 O130 1.247 . S
C132 O131 1.208 . S
C133 O138 1.247 . S
C133 O139 1.208 . S
C134 O126 1.315 . S
C134 O129 1.279 . S
C135 O136 1.315 . S
C135 O137 1.279 . S
O136 Cd128 2.223 . S
O136 C135 1.315 . S
O137 Cd127 2.240 . S
O137 C135 1.279 . S
O138 Cd128 2.297 . S
O138 C133 1.247 . S
O139 Cd128 2.439 . S
O139 C133 1.208 . S
O140 Cd141 2.223 . S
O140 C148 1.315 . S
Cd141 O140 2.223 . S
Cd141 O144 2.297 . S
Cd141 O145 2.439 . S
Cd141 O151 2.240 . S
Cd142 O143 2.240 . S
Cd142 O150 2.223 . S
Cd142 O152 2.297 . S
Cd142 O153 2.439 . S
O143 Cd142 2.240 . S
O143 C148 1.279 . S
O144 Cd141 2.297 . S
O144 C146 1.247 . S
O145 Cd141 2.439 . S
O145 C146 1.208 . S
C146 O144 1.247 . S
C146 O145 1.208 . S
C147 O152 1.247 . S
C147 O153 1.208 . S
C148 O140 1.315 . S
C148 O143 1.279 . S
C149 O150 1.315 . S
C149 O151 1.279 . S
O150 Cd142 2.223 . S
O150 C149 1.315 . S
O151 Cd141 2.240 . S
O151 C149 1.279 . S
O152 Cd142 2.297 . S
O152 C147 1.247 . S
O153 Cd142 2.439 . S
O153 C147 1.208 . S
O154 Cd155 2.223 . S
O154 C162 1.315 . S
Cd155 O154 2.223 . S
Cd155 O158 2.297 . S
Cd155 O159 2.439 . S
Cd155 O165 2.240 . S
Cd156 O157 2.240 . S
Cd156 O164 2.223 . S
Cd156 O166 2.297 . S
Cd156 O167 2.439 . S
O157 Cd156 2.240 . S
O157 C162 1.279 . S
O158 Cd155 2.297 . S
O158 C160 1.247 . S
O159 Cd155 2.439 . S
O159 C160 1.208 . S
C160 O158 1.247 . S
C160 O159 1.208 . S
C161 O166 1.247 . S
C161 O167 1.208 . S
C162 O154 1.315 . S
C162 O157 1.279 . S
C163 O164 1.315 . S
C163 O165 1.279 . S
O164 Cd156 2.223 . S
O164 C163 1.315 . S
O165 Cd155 2.240 . S
O165 C163 1.279 . S
O166 Cd156 2.297 . S
O166 C161 1.247 . S
O167 Cd156 2.439 . S
O167 C161 1.208 . S
O168 Cd169 2.223 . S
O168 C176 1.315 . S
Cd169 O168 2.223 . S
Cd169 O172 2.297 . S
Cd169 O173 2.439 . S
Cd169 O179 2.240 . S
Cd170 O171 2.240 . S
Cd170 O178 2.223 . S
Cd170 O180 2.297 . S
Cd170 O181 2.439 . S
O171 Cd170 2.240 . S
O171 C176 1.279 . S
O172 Cd169 2.297 . S
O172 C174 1.247 . S
O173 Cd169 2.439 . S
O173 C174 1.208 . S
C174 O172 1.247 . S
C174 O173 1.208 . S
C175 O180 1.247 . S
C175 O181 1.208 . S
C176 O168 1.315 . S
C176 O171 1.279 . S
C177 O178 1.315 . S
C177 O179 1.279 . S
O178 Cd170 2.223 . S
O178 C177 1.315 . S
O179 Cd169 2.240 . S
O179 C177 1.279 . S
O180 Cd170 2.297 . S
O180 C175 1.247 . S
O181 Cd170 2.439 . S
O181 C175 1.208 . S
O182 Cd183 2.223 . S
O182 C190 1.315 . S
Cd183 O182 2.223 . S
Cd183 O186 2.297 . S
Cd183 O187 2.439 . S
Cd183 O193 2.240 . S
Cd184 O185 2.240 . S
Cd184 O192 2.223 . S
Cd184 O194 2.297 . S
Cd184 O195 2.439 . S
O185 Cd184 2.240 . S
O185 C190 1.279 . S
O186 Cd183 2.297 . S
O186 C188 1.247 . S
O187 Cd183 2.439 . S
O187 C188 1.208 . S
C188 O186 1.247 . S
C188 O187 1.208 . S
C189 O194 1.247 . S
C189 O195 1.208 . S
C190 O182 1.315 . S
C190 O185 1.279 . S
C191 O192 1.315 . S
C191 O193 1.279 . S
O192 Cd184 2.223 . S
O192 C191 1.315 . S
O193 Cd183 2.240 . S
O193 C191 1.279 . S
O194 Cd184 2.297 . S
O194 C189 1.247 . S
O195 Cd184 2.439 . S
O195 C189 1.208 . S
O196 Cd197 2.223 . S
O196 C204 1.315 . S
Cd197 O196 2.223 . S
Cd197 O200 2.297 . S
Cd197 O201 2.439 . S
Cd197 O207 2.240 . S
Cd198 O199 2.240 . S
Cd198 O206 2.223 . S
Cd198 O208 2.297 . S
Cd198 O209 2.439 . S
O199 Cd198 2.240 . S
O199 C204 1.279 . S
O200 Cd197 2.297 . S
O200 C202 1.247 . S
O201 Cd197 2.439 . S
O201 C202 1.208 . S
C202 O200 1.247 . S
C202 O201 1.208 . S
C203 O208 1.247 . S
C203 O209 1.208 . S
C204 O196 1.315 . S
C204 O199 1.279 . S
C205 O206 1.315 . S
C205 O207 1.279 . S
O206 Cd198 2.223 . S
O206 C205 1.315 . S
O207 Cd197 2.240 . S
O207 C205 1.279 . S
O208 Cd198 2.297 . S
O208 C203 1.247 . S
O209 Cd198 2.439 . S
O209 C203 1.208 . S
O210 Cd211 2.223 . S
O210 C218 1.315 . S
Cd211 O210 2.223 . S
Cd211 O214 2.297 . S
Cd211 O215 2.439 . S
Cd211 O221 2.240 . S
Cd212 O213 2.240 . S
Cd212 O220 2.223 . S
Cd212 O222 2.297 . S
Cd212 O223 2.439 . S
O213 Cd212 2.240 . S
O213 C218 1.279 . S
O214 Cd211 2.297 . S
O214 C216 1.247 . S
O215 Cd211 2.439 . S
O215 C216 1.208 . S
C216 O214 1.247 . S
C216 O215 1.208 . S
C217 O222 1.247 . S
C217 O223 1.208 . S
C218 O210 1.315 . S
C218 O213 1.279 . S
C219 O220 1.315 . S
C219 O221 1.279 . S
O220 Cd212 2.223 . S
O220 C219 1.315 . S
O221 Cd211 2.240 . S
O221 C219 1.279 . S
O222 Cd212 2.297 . S
O222 C217 1.247 . S
O223 Cd212 2.439 . S
O223 C217 1.208 . S
H224 C232 0.929 . S
H225 C234 0.930 . S
H226 C236 0.930 . S
H227 C239 0.929 . S
H228 C242 0.936 . S
H229 C244 0.925 1_655 S
H230 C244 0.960 . S
H231 C244 0.960 . S
C232 H224 0.929 . S
C232 C233 1.377 . S
C232 C234 1.384 . S
C233 C232 1.377 . S
C233 C239 1.390 . S
C234 H225 0.930 . S
C234 C232 1.384 . S
C234 C235 1.372 . S
C235 C234 1.372 . S
C235 C236 1.400 . S
C235 C240 1.490 . S
C236 H226 0.930 . S
C236 C235 1.400 . S
C236 C239 1.386 . S
H237 C253 0.930 . S
H238 C254 0.931 . S
C239 H227 0.929 . S
C239 C233 1.390 . S
C239 C236 1.386 . S
C240 C235 1.490 . S
C240 C242 1.400 . S
C240 C243 1.389 1_455 S
H241 C247 0.930 . S
C242 H228 0.936 . S
C242 C240 1.400 . S
C242 C245 1.391 1_455 S
C243 C240 1.389 1_655 S
C243 C244 1.512 1_655 S
C243 C247 1.427 . S
C244 H229 0.925 1_455 S
C244 H230 0.960 . S
C244 H231 0.960 . S
C244 C243 1.512 1_455 S
C245 C242 1.391 1_655 S
C245 C246 1.392 . S
C245 C249 1.495 . S
C246 C245 1.392 . S
C246 C247 1.385 . S
C246 C248 1.478 . S
C247 H241 0.930 . S
C247 C243 1.427 . S
C247 C246 1.385 . S
C248 C246 1.478 . S
C248 C250 1.381 . S
C248 C254 1.383 . S
C249 C245 1.495 . S
C249 H255 0.959 . S
C249 H256 0.961 . S
C249 H257 0.960 . S
C250 C248 1.381 . S
C250 C251 1.394 . S
C250 H258 0.930 . S
C251 C250 1.394 . S
C251 C252 1.383 . S
C251 H259 0.929 . S
C252 C251 1.383 . S
C252 C253 1.377 . S
C253 H237 0.930 . S
C253 C252 1.377 . S
C253 C254 1.379 . S
C254 H238 0.931 . S
C254 C248 1.383 . S
C254 C253 1.379 . S
H255 C249 0.959 . S
H256 C249 0.961 . S
H257 C249 0.960 . S
H258 C250 0.930 . S
H259 C251 0.929 . S
H260 C268 0.929 . S
H261 C270 0.930 . S
H262 C272 0.930 . S
H263 C275 0.929 . S
H264 C278 0.933 1_655 S
H265 C280 0.940 1_455 S
H266 C280 0.960 . S
H267 C280 0.960 . S
C268 H260 0.929 . S
C268 C269 1.377 . S
C268 C270 1.384 . S
C269 C268 1.377 . S
C269 C275 1.390 . S
C270 H261 0.930 . S
C270 C268 1.384 . S
C270 C271 1.372 . S
C271 C270 1.372 . S
C271 C272 1.400 . S
C271 C276 1.490 . S
C272 H262 0.930 . S
C272 C271 1.400 . S
C272 C275 1.386 . S
H273 C289 0.930 . S
H274 C290 0.931 . S
C275 H263 0.929 . S
C275 C269 1.390 . S
C275 C272 1.386 . S
C276 C271 1.490 . S
C276 C278 1.398 1_655 S
C276 C279 1.392 1_655 S
H277 C283 0.930 . S
C278 H264 0.933 1_455 S
C278 C276 1.398 1_455 S
C278 C281 1.397 . S
C279 C276 1.392 1_455 S
C279 C280 1.514 1_455 S
C279 C283 1.422 . S
C280 H265 0.940 1_655 S
C280 H266 0.960 . S
C280 H267 0.960 . S
C280 C279 1.514 1_655 S
C281 C278 1.397 . S
C281 C282 1.392 . S
C281 C285 1.495 . S
C282 C281 1.392 . S
C282 C283 1.385 . S
C282 C284 1.478 . S
C283 H277 0.930 . S
C283 C279 1.422 . S
C283 C282 1.385 . S
C284 C282 1.478 . S
C284 C286 1.381 . S
C284 C290 1.383 . S
C285 C281 1.495 . S
C285 H291 0.959 . S
C285 H292 0.961 . S
C285 H293 0.960 . S
C286 C284 1.381 . S
C286 C287 1.394 . S
C286 H294 0.930 . S
C287 C286 1.394 . S
C287 C288 1.383 . S
C287 H295 0.929 . S
C288 C287 1.383 . S
C288 C289 1.377 . S
C289 H273 0.930 . S
C289 C288 1.377 . S
C289 C290 1.379 . S
C290 H274 0.931 . S
C290 C284 1.383 . S
C290 C289 1.379 . S
H291 C285 0.959 . S
H292 C285 0.961 . S
H293 C285 0.960 . S
H294 C286 0.930 . S
H295 C287 0.929 . S
H296 C304 0.929 . S
H297 C306 0.930 . S
H298 C308 0.930 . S
H299 C311 0.929 . S
H300 C314 0.930 . S
H301 C316 0.960 . S
H302 C316 0.960 . S
H303 C316 0.960 . S
C304 H296 0.929 . S
C304 C305 1.377 . S
C304 C306 1.384 . S
C305 C304 1.377 . S
C305 C311 1.390 . S
C306 H297 0.930 . S
C306 C304 1.384 . S
C306 C307 1.372 . S
C307 C306 1.372 . S
C307 C308 1.400 . S
C307 C312 1.490 . S
C308 H298 0.930 . S
C308 C307 1.400 . S
C308 C311 1.386 . S
H309 C325 0.930 . S
H310 C326 0.931 . S
C311 H299 0.929 . S
C311 C305 1.390 . S
C311 C308 1.386 . S
C312 C307 1.490 . S
C312 C314 1.395 . S
C312 C315 1.403 . S
H313 C319 0.947 . S
C314 H300 0.930 . S
C314 C312 1.395 . S
C314 C317 1.373 1_655 S
C315 C312 1.403 . S
C315 C316 1.524 . S
C315 C319 1.368 1_655 S
C316 H301 0.960 . S
C316 H302 0.960 . S
C316 H303 0.960 . S
C316 C315 1.524 . S
C317 C314 1.373 1_455 S
C317 C318 1.408 . S
C317 C321 1.510 . S
C318 C317 1.408 . S
C318 C319 1.401 . S
C318 C320 1.478 . S
C319 H313 0.947 . S
C319 C315 1.368 1_455 S
C319 C318 1.401 . S
C320 C318 1.478 . S
C320 C322 1.381 . S
C320 C326 1.383 . S
C321 C317 1.510 . S
C321 H327 0.959 . S
C321 H328 0.961 . S
C321 H329 0.960 . S
C322 C320 1.381 . S
C322 C323 1.394 . S
C322 H330 0.930 . S
C323 C322 1.394 . S
C323 C324 1.383 . S
C323 H331 0.929 . S
C324 C323 1.383 . S
C324 C325 1.377 . S
C325 H309 0.930 . S
C325 C324 1.377 . S
C325 C326 1.379 . S
C326 H310 0.931 . S
C326 C320 1.383 . S
C326 C325 1.379 . S
H327 C321 0.959 . S
H328 C321 0.961 . S
H329 C321 0.960 . S
H330 C322 0.930 . S
H331 C323 0.929 . S
H332 C340 0.929 . S
H333 C342 0.930 . S
H334 C344 0.930 . S
H335 C347 0.929 . S
H336 C350 0.930 . S
H337 C352 0.960 . S
H338 C352 0.960 . S
H339 C352 0.960 . S
C340 H332 0.929 . S
C340 C341 1.377 . S
C340 C342 1.384 . S
C341 C340 1.377 . S
C341 C347 1.390 . S
C342 H333 0.930 . S
C342 C340 1.384 . S
C342 C343 1.372 . S
C343 C342 1.372 . S
C343 C344 1.400 . S
C343 C348 1.490 . S
C344 H334 0.930 . S
C344 C343 1.400 . S
C344 C347 1.386 . S
H345 C361 0.930 . S
H346 C362 0.931 . S
C347 H335 0.929 . S
C347 C341 1.390 . S
C347 C344 1.386 . S
C348 C343 1.490 . S
C348 C350 1.395 . S
C348 C351 1.403 . S
H349 C355 0.950 . S
C350 H336 0.930 . S
C350 C348 1.395 . S
C350 C353 1.383 1_455 S
C351 C348 1.403 . S
C351 C352 1.524 . S
C351 C355 1.362 1_455 S
C352 H337 0.960 . S
C352 H338 0.960 . S
C352 H339 0.960 . S
C352 C351 1.524 . S
C353 C350 1.383 1_655 S
C353 C354 1.403 . S
C353 C357 1.505 . S
C354 C353 1.403 . S
C354 C355 1.404 . S
C354 C356 1.478 . S
C355 H349 0.950 . S
C355 C351 1.362 1_655 S
C355 C354 1.404 . S
C356 C354 1.478 . S
C356 C358 1.381 . S
C356 C362 1.383 . S
C357 C353 1.505 . S
C357 H363 0.990 . S
C357 H364 0.961 . S
C357 H365 0.960 . S
C358 C356 1.381 . S
C358 C359 1.394 . S
C358 H366 0.930 . S
C359 C358 1.394 . S
C359 C360 1.383 . S
C359 H367 0.929 . S
C360 C359 1.383 . S
C360 C361 1.377 . S
C361 H345 0.930 . S
C361 C360 1.377 . S
C361 C362 1.379 . S
C362 H346 0.931 . S
C362 C356 1.383 . S
C362 C361 1.379 . S
H363 C357 0.990 . S
H364 C357 0.961 . S
H365 C357 0.960 . S
H366 C358 0.930 . S
H367 C359 0.929 . S
H368 C376 0.929 . S
H369 C378 0.930 . S
H370 C380 0.930 . S
H371 C383 0.929 . S
H372 C386 0.930 . S
H373 C388 0.960 . S
H374 C388 0.960 . S
H375 C388 0.960 . S
C376 H368 0.929 . S
C376 C377 1.377 . S
C376 C378 1.384 . S
C377 C376 1.377 . S
C377 C383 1.390 . S
C378 H369 0.930 . S
C378 C376 1.384 . S
C378 C379 1.372 . S
C379 C378 1.372 . S
C379 C380 1.400 . S
C379 C384 1.490 . S
C380 H370 0.930 . S
C380 C379 1.400 . S
C380 C383 1.386 . S
H381 C397 0.930 . S
H382 C398 0.931 . S
C383 H371 0.929 . S
C383 C377 1.390 . S
C383 C380 1.386 . S
C384 C379 1.490 . S
C384 C386 1.395 . S
C384 C387 1.403 . S
H385 C391 0.930 . S
C386 H372 0.930 . S
C386 C384 1.395 . S
C386 C389 1.403 . S
C387 C384 1.403 . S
C387 C388 1.524 . S
C387 C391 1.400 . S
C388 H373 0.960 . S
C388 H374 0.960 . S
C388 H375 0.960 . S
C388 C387 1.524 . S
C389 C386 1.403 . S
C389 C390 1.392 . S
C389 C393 1.495 . S
C390 C389 1.392 . S
C390 C391 1.385 . S
C390 C392 1.478 . S
C391 H385 0.930 . S
C391 C387 1.400 . S
C391 C390 1.385 . S
C392 C390 1.478 . S
C392 C394 1.381 . S
C392 C398 1.383 . S
C393 C389 1.495 . S
C393 H399 0.959 . S
C393 H400 0.961 . S
C393 H401 0.960 . S
C394 C392 1.381 . S
C394 C395 1.394 . S
C394 H402 0.930 . S
C395 C394 1.394 . S
C395 C396 1.383 . S
C395 H403 0.929 . S
C396 C395 1.383 . S
C396 C397 1.377 . S
C397 H381 0.930 . S
C397 C396 1.377 . S
C397 C398 1.379 . S
C398 H382 0.931 . S
C398 C392 1.383 . S
C398 C397 1.379 . S
H399 C393 0.959 . S
H400 C393 0.961 . S
H401 C393 0.960 . S
H402 C394 0.930 . S
H403 C395 0.929 . S
H404 C412 0.929 . S
H405 C414 0.930 . S
H406 C416 0.930 . S
H407 C419 0.929 . S
H408 C422 0.930 . S
H409 C424 0.960 . S
H410 C424 0.960 . S
H411 C424 0.960 . S
C412 H404 0.929 . S
C412 C413 1.377 . S
C412 C414 1.384 . S
C413 C412 1.377 . S
C413 C419 1.390 . S
C414 H405 0.930 . S
C414 C412 1.384 . S
C414 C415 1.372 . S
C415 C414 1.372 . S
C415 C416 1.400 . S
C415 C420 1.490 . S
C416 H406 0.930 . S
C416 C415 1.400 . S
C416 C419 1.386 . S
H417 C433 0.930 . S
H418 C434 0.931 . S
C419 H407 0.929 . S
C419 C413 1.390 . S
C419 C416 1.386 . S
C420 C415 1.490 . S
C420 C422 1.395 . S
C420 C423 1.403 . S
H421 C427 0.930 . S
C422 H408 0.930 . S
C422 C420 1.395 . S
C422 C425 1.403 . S
C423 C420 1.403 . S
C423 C424 1.524 . S
C423 C427 1.400 . S
C424 H409 0.960 . S
C424 H410 0.960 . S
C424 H411 0.960 . S
C424 C423 1.524 . S
C425 C422 1.403 . S
C425 C426 1.392 . S
C425 C429 1.495 . S
C426 C425 1.392 . S
C426 C427 1.385 . S
C426 C428 1.478 . S
C427 H421 0.930 . S
C427 C423 1.400 . S
C427 C426 1.385 . S
C428 C426 1.478 . S
C428 C430 1.381 . S
C428 C434 1.383 . S
C429 C425 1.495 . S
C429 H435 0.959 . S
C429 H436 0.961 . S
C429 H437 0.960 . S
C430 C428 1.381 . S
C430 C431 1.394 . S
C430 H438 0.930 . S
C431 C430 1.394 . S
C431 C432 1.383 . S
C431 H439 0.929 . S
C432 C431 1.383 . S
C432 C433 1.377 . S
C433 H417 0.930 . S
C433 C432 1.377 . S
C433 C434 1.379 . S
C434 H418 0.931 . S
C434 C428 1.383 . S
C434 C433 1.379 . S
H435 C429 0.959 . S
H436 C429 0.961 . S
H437 C429 0.960 . S
H438 C430 0.930 . S
H439 C431 0.929 . S
H440 C448 0.929 . S
H441 C450 0.930 . S
H442 C452 0.930 . S
H443 C455 0.929 . S
H444 C458 0.930 . S
H445 C460 0.960 . S
H446 C460 0.960 . S
H447 C460 0.960 . S
C448 H440 0.929 . S
C448 C449 1.377 . S
C448 C450 1.384 . S
C449 C448 1.377 . S
C449 C455 1.390 . S
C450 H441 0.930 . S
C450 C448 1.384 . S
C450 C451 1.372 . S
C451 C450 1.372 . S
C451 C452 1.400 . S
C451 C456 1.490 . S
C452 H442 0.930 . S
C452 C451 1.400 . S
C452 C455 1.386 . S
H453 C469 0.930 . S
H454 C470 0.931 . S
C455 H443 0.929 . S
C455 C449 1.390 . S
C455 C452 1.386 . S
C456 C451 1.490 . S
C456 C458 1.395 . S
C456 C459 1.403 . S
H457 C463 0.930 . S
C458 H444 0.930 . S
C458 C456 1.395 . S
C458 C461 1.403 . S
C459 C456 1.403 . S
C459 C460 1.524 . S
C459 C463 1.400 . S
C460 H445 0.960 . S
C460 H446 0.960 . S
C460 H447 0.960 . S
C460 C459 1.524 . S
C461 C458 1.403 . S
C461 C462 1.392 . S
C461 C465 1.495 . S
C462 C461 1.392 . S
C462 C463 1.385 . S
C462 C464 1.478 . S
C463 H457 0.930 . S
C463 C459 1.400 . S
C463 C462 1.385 . S
C464 C462 1.478 . S
C464 C466 1.381 . S
C464 C470 1.383 . S
C465 C461 1.495 . S
C465 H471 0.959 . S
C465 H472 0.961 . S
C465 H473 0.960 . S
C466 C464 1.381 . S
C466 C467 1.394 . S
C466 H474 0.930 . S
C467 C466 1.394 . S
C467 C468 1.383 . S
C467 H475 0.929 . S
C468 C467 1.383 . S
C468 C469 1.377 . S
C469 H453 0.930 . S
C469 C468 1.377 . S
C469 C470 1.379 . S
C470 H454 0.931 . S
C470 C464 1.383 . S
C470 C469 1.379 . S
H471 C465 0.959 . S
H472 C465 0.961 . S
H473 C465 0.960 . S
H474 C466 0.930 . S
H475 C467 0.929 . S
H476 C484 0.929 . S
H477 C486 0.930 . S
H478 C488 0.930 . S
H479 C491 0.929 . S
H480 C494 0.930 . S
H481 C496 0.960 . S
H482 C496 0.960 . S
H483 C496 0.960 . S
C484 H476 0.929 . S
C484 C485 1.377 . S
C484 C486 1.384 . S
C485 C484 1.377 . S
C485 C491 1.390 . S
C486 H477 0.930 . S
C486 C484 1.384 . S
C486 C487 1.372 . S
C487 C486 1.372 . S
C487 C488 1.400 . S
C487 C492 1.490 . S
C488 H478 0.930 . S
C488 C487 1.400 . S
C488 C491 1.386 . S
H489 C505 0.930 . S
H490 C506 0.931 . S
C491 H479 0.929 . S
C491 C485 1.390 . S
C491 C488 1.386 . S
C492 C487 1.490 . S
C492 C494 1.395 . S
C492 C495 1.403 . S
H493 C499 0.930 . S
C494 H480 0.930 . S
C494 C492 1.395 . S
C494 C497 1.403 . S
C495 C492 1.403 . S
C495 C496 1.524 . S
C495 C499 1.400 . S
C496 H481 0.960 . S
C496 H482 0.960 . S
C496 H483 0.960 . S
C496 C495 1.524 . S
C497 C494 1.403 . S
C497 C498 1.392 . S
C497 C501 1.495 . S
C498 C497 1.392 . S
C498 C499 1.385 . S
C498 C500 1.478 . S
C499 H493 0.930 . S
C499 C495 1.400 . S
C499 C498 1.385 . S
C500 C498 1.478 . S
C500 C502 1.381 . S
C500 C506 1.383 . S
C501 C497 1.495 . S
C501 H507 0.959 . S
C501 H508 0.961 . S
C501 H509 0.960 . S
C502 C500 1.381 . S
C502 C503 1.394 . S
C502 H510 0.930 . S
C503 C502 1.394 . S
C503 C504 1.383 . S
C503 H511 0.929 . S
C504 C503 1.383 . S
C504 C505 1.377 . S
C505 H489 0.930 . S
C505 C504 1.377 . S
C505 C506 1.379 . S
C506 H490 0.931 . S
C506 C500 1.383 . S
C506 C505 1.379 . S
H507 C501 0.959 . S
H508 C501 0.961 . S
H509 C501 0.960 . S
H510 C502 0.930 . S
H511 C503 0.929 . S
H512 C520 0.929 . S
H513 C522 0.930 . S
H514 C524 0.930 . S
H515 C527 0.929 . S
H516 C530 0.930 . S
H517 C532 0.960 . S
H518 C532 0.960 . S
H519 C532 0.960 . S
C520 H512 0.929 . S
C520 C521 1.377 . S
C520 C522 1.384 . S
C521 C520 1.377 . S
C521 C527 1.390 . S
C522 H513 0.930 . S
C522 C520 1.384 . S
C522 C523 1.372 . S
C523 C522 1.372 . S
C523 C524 1.400 . S
C523 C528 1.490 . S
C524 H514 0.930 . S
C524 C523 1.400 . S
C524 C527 1.386 . S
H525 C541 0.930 . S
H526 C542 0.931 . S
C527 H515 0.929 . S
C527 C521 1.390 . S
C527 C524 1.386 . S
C528 C523 1.490 . S
C528 C530 1.395 . S
C528 C531 1.403 . S
H529 C535 0.930 . S
C530 H516 0.930 . S
C530 C528 1.395 . S
C530 C533 1.403 . S
C531 C528 1.403 . S
C531 C532 1.524 . S
C531 C535 1.400 . S
C532 H517 0.960 . S
C532 H518 0.960 . S
C532 H519 0.960 . S
C532 C531 1.524 . S
C533 C530 1.403 . S
C533 C534 1.392 . S
C533 C537 1.495 . S
C534 C533 1.392 . S
C534 C535 1.385 . S
C534 C536 1.478 . S
C535 H529 0.930 . S
C535 C531 1.400 . S
C535 C534 1.385 . S
C536 C534 1.478 . S
C536 C538 1.381 . S
C536 C542 1.383 . S
C537 C533 1.495 . S
C537 H543 0.959 . S
C537 H544 0.961 . S
C537 H545 0.960 . S
C538 C536 1.381 . S
C538 C539 1.394 . S
C538 H546 0.930 . S
C539 C538 1.394 . S
C539 C540 1.383 . S
C539 H547 0.929 . S
C540 C539 1.383 . S
C540 C541 1.377 . S
C541 H525 0.930 . S
C541 C540 1.377 . S
C541 C542 1.379 . S
C542 H526 0.931 . S
C542 C536 1.383 . S
C542 C541 1.379 . S
H543 C537 0.959 . S
H544 C537 0.961 . S
H545 C537 0.960 . S
H546 C538 0.930 . S
H547 C539 0.929 . S
H548 C556 0.929 . S
H549 C558 0.930 . S
H550 C560 0.930 . S
H551 C563 0.929 . S
H552 C566 0.930 . S
H553 C568 0.960 . S
H554 C568 0.960 . S
H555 C568 0.960 . S
C556 H548 0.929 . S
C556 C557 1.377 . S
C556 C558 1.384 . S
C557 C556 1.377 . S
C557 C563 1.390 . S
C558 H549 0.930 . S
C558 C556 1.384 . S
C558 C559 1.372 . S
C559 C558 1.372 . S
C559 C560 1.400 . S
C559 C564 1.490 . S
C560 H550 0.930 . S
C560 C559 1.400 . S
C560 C563 1.386 . S
H561 C577 0.930 . S
H562 C578 0.931 . S
C563 H551 0.929 . S
C563 C557 1.390 . S
C563 C560 1.386 . S
C564 C559 1.490 . S
C564 C566 1.395 . S
C564 C567 1.403 . S
H565 C571 0.930 . S
C566 H552 0.930 . S
C566 C564 1.395 . S
C566 C569 1.403 . S
C567 C564 1.403 . S
C567 C568 1.524 . S
C567 C571 1.400 . S
C568 H553 0.960 . S
C568 H554 0.960 . S
C568 H555 0.960 . S
C568 C567 1.524 . S
C569 C566 1.403 . S
C569 C570 1.392 . S
C569 C573 1.495 . S
C570 C569 1.392 . S
C570 C571 1.385 . S
C570 C572 1.478 . S
C571 H565 0.930 . S
C571 C567 1.400 . S
C571 C570 1.385 . S
C572 C570 1.478 . S
C572 C574 1.381 . S
C572 C578 1.383 . S
C573 C569 1.495 . S
C573 H579 0.959 . S
C573 H580 0.961 . S
C573 H581 0.960 . S
C574 C572 1.381 . S
C574 C575 1.394 . S
C574 H582 0.930 . S
C575 C574 1.394 . S
C575 C576 1.383 . S
C575 H583 0.929 . S
C576 C575 1.383 . S
C576 C577 1.377 . S
C577 H561 0.930 . S
C577 C576 1.377 . S
C577 C578 1.379 . S
C578 H562 0.931 . S
C578 C572 1.383 . S
C578 C577 1.379 . S
H579 C573 0.959 . S
H580 C573 0.961 . S
H581 C573 0.960 . S
H582 C574 0.930 . S
H583 C575 0.929 . S
H584 C592 0.929 . S
H585 C594 0.930 . S
H586 C596 0.930 . S
H587 C599 0.929 . S
H588 C602 0.930 . S
H589 C604 0.960 . S
H590 C604 0.960 . S
H591 C604 0.960 . S
C592 H584 0.929 . S
C592 C593 1.377 . S
C592 C594 1.384 . S
C593 C592 1.377 . S
C593 C599 1.390 . S
C594 H585 0.930 . S
C594 C592 1.384 . S
C594 C595 1.372 . S
C595 C594 1.372 . S
C595 C596 1.400 . S
C595 C600 1.490 . S
C596 H586 0.930 . S
C596 C595 1.400 . S
C596 C599 1.386 . S
H597 C613 0.930 . S
H598 C614 0.931 . S
C599 H587 0.929 . S
C599 C593 1.390 . S
C599 C596 1.386 . S
C600 C595 1.490 . S
C600 C602 1.395 . S
C600 C603 1.403 . S
H601 C607 0.930 . S
C602 H588 0.930 . S
C602 C600 1.395 . S
C602 C605 1.403 . S
C603 C600 1.403 . S
C603 C604 1.524 . S
C603 C607 1.400 . S
C604 H589 0.960 . S
C604 H590 0.960 . S
C604 H591 0.960 . S
C604 C603 1.524 . S
C605 C602 1.403 . S
C605 C606 1.392 . S
C605 C609 1.495 . S
C606 C605 1.392 . S
C606 C607 1.385 . S
C606 C608 1.478 . S
C607 H601 0.930 . S
C607 C603 1.400 . S
C607 C606 1.385 . S
C608 C606 1.478 . S
C608 C610 1.381 . S
C608 C614 1.383 . S
C609 C605 1.495 . S
C609 H615 0.959 . S
C609 H616 0.961 . S
C609 H617 0.960 . S
C610 C608 1.381 . S
C610 C611 1.394 . S
C610 H618 0.930 . S
C611 C610 1.394 . S
C611 C612 1.383 . S
C611 H619 0.929 . S
C612 C611 1.383 . S
C612 C613 1.377 . S
C613 H597 0.930 . S
C613 C612 1.377 . S
C613 C614 1.379 . S
C614 H598 0.931 . S
C614 C608 1.383 . S
C614 C613 1.379 . S
H615 C609 0.959 . S
H616 C609 0.961 . S
H617 C609 0.960 . S
H618 C610 0.930 . S
H619 C611 0.929 . S
H620 C628 0.929 . S
H621 C630 0.930 . S
H622 C632 0.930 . S
H623 C635 0.929 . S
H624 C638 0.930 . S
H625 C640 0.960 . S
H626 C640 0.960 . S
H627 C640 0.960 . S
C628 H620 0.929 . S
C628 C629 1.377 . S
C628 C630 1.384 . S
C629 C628 1.377 . S
C629 C635 1.390 . S
C630 H621 0.930 . S
C630 C628 1.384 . S
C630 C631 1.372 . S
C631 C630 1.372 . S
C631 C632 1.400 . S
C631 C636 1.490 . S
C632 H622 0.930 . S
C632 C631 1.400 . S
C632 C635 1.386 . S
H633 C649 0.930 . S
H634 C650 0.931 . S
C635 H623 0.929 . S
C635 C629 1.390 . S
C635 C632 1.386 . S
C636 C631 1.490 . S
C636 C638 1.395 . S
C636 C639 1.403 . S
H637 C643 0.930 . S
C638 H624 0.930 . S
C638 C636 1.395 . S
C638 C641 1.403 . S
C639 C636 1.403 . S
C639 C640 1.524 . S
C639 C643 1.400 . S
C640 H625 0.960 . S
C640 H626 0.960 . S
C640 H627 0.960 . S
C640 C639 1.524 . S
C641 C638 1.403 . S
C641 C642 1.392 . S
C641 C645 1.495 . S
C642 C641 1.392 . S
C642 C643 1.385 . S
C642 C644 1.478 . S
C643 H637 0.930 . S
C643 C639 1.400 . S
C643 C642 1.385 . S
C644 C642 1.478 . S
C644 C646 1.381 . S
C644 C650 1.383 . S
C645 C641 1.495 . S
C645 H651 0.959 . S
C645 H652 0.961 . S
C645 H653 0.960 . S
C646 C644 1.381 . S
C646 C647 1.394 . S
C646 H654 0.930 . S
C647 C646 1.394 . S
C647 C648 1.383 . S
C647 H655 0.929 . S
C648 C647 1.383 . S
C648 C649 1.377 . S
C649 H633 0.930 . S
C649 C648 1.377 . S
C649 C650 1.379 . S
C650 H634 0.931 . S
C650 C644 1.383 . S
C650 C649 1.379 . S
H651 C645 0.959 . S
H652 C645 0.961 . S
H653 C645 0.960 . S
H654 C646 0.930 . S
H655 C647 0.929 . S
H656 C664 0.929 . S
H657 C666 0.930 . S
H658 C668 0.930 . S
H659 C671 0.929 . S
H660 C674 0.930 . S
H661 C676 0.960 . S
H662 C676 0.960 . S
H663 C676 0.960 . S
C664 H656 0.929 . S
C664 C665 1.377 . S
C664 C666 1.384 . S
C665 C664 1.377 . S
C665 C671 1.390 . S
C666 H657 0.930 . S
C666 C664 1.384 . S
C666 C667 1.372 . S
C667 C666 1.372 . S
C667 C668 1.400 . S
C667 C672 1.490 . S
C668 H658 0.930 . S
C668 C667 1.400 . S
C668 C671 1.386 . S
H669 C685 0.930 . S
H670 C686 0.931 . S
C671 H659 0.929 . S
C671 C665 1.390 . S
C671 C668 1.386 . S
C672 C667 1.490 . S
C672 C674 1.395 . S
C672 C675 1.403 . S
H673 C679 0.930 . S
C674 H660 0.930 . S
C674 C672 1.395 . S
C674 C677 1.403 . S
C675 C672 1.403 . S
C675 C676 1.524 . S
C675 C679 1.400 . S
C676 H661 0.960 . S
C676 H662 0.960 . S
C676 H663 0.960 . S
C676 C675 1.524 . S
C677 C674 1.403 . S
C677 C678 1.392 . S
C677 C681 1.495 . S
C678 C677 1.392 . S
C678 C679 1.385 . S
C678 C680 1.478 . S
C679 H673 0.930 . S
C679 C675 1.400 . S
C679 C678 1.385 . S
C680 C678 1.478 . S
C680 C682 1.381 . S
C680 C686 1.383 . S
C681 C677 1.495 . S
C681 H687 0.959 . S
C681 H688 0.961 . S
C681 H689 0.960 . S
C682 C680 1.381 . S
C682 C683 1.394 . S
C682 H690 0.930 . S
C683 C682 1.394 . S
C683 C684 1.383 . S
C683 H691 0.929 . S
C684 C683 1.383 . S
C684 C685 1.377 . S
C685 H669 0.930 . S
C685 C684 1.377 . S
C685 C686 1.379 . S
C686 H670 0.931 . S
C686 C680 1.383 . S
C686 C685 1.379 . S
H687 C681 0.959 . S
H688 C681 0.961 . S
H689 C681 0.960 . S
H690 C682 0.930 . S
H691 C683 0.929 . S
H692 C700 0.929 . S
H693 C702 0.930 . S
H694 C704 0.930 . S
H695 C707 0.929 . S
H696 C710 0.930 . S
H697 C712 0.960 . S
H698 C712 0.960 . S
H699 C712 0.960 . S
C700 H692 0.929 . S
C700 C701 1.377 . S
C700 C702 1.384 . S
C701 C700 1.377 . S
C701 C707 1.390 . S
C702 H693 0.930 . S
C702 C700 1.384 . S
C702 C703 1.372 . S
C703 C702 1.372 . S
C703 C704 1.400 . S
C703 C708 1.490 . S
C704 H694 0.930 . S
C704 C703 1.400 . S
C704 C707 1.386 . S
H705 C721 0.930 . S
H706 C722 0.931 . S
C707 H695 0.929 . S
C707 C701 1.390 . S
C707 C704 1.386 . S
C708 C703 1.490 . S
C708 C710 1.395 . S
C708 C711 1.403 . S
H709 C715 0.930 . S
C710 H696 0.930 . S
C710 C708 1.395 . S
C710 C713 1.403 . S
C711 C708 1.403 . S
C711 C712 1.524 . S
C711 C715 1.400 . S
C712 H697 0.960 . S
C712 H698 0.960 . S
C712 H699 0.960 . S
C712 C711 1.524 . S
C713 C710 1.403 . S
C713 C714 1.392 . S
C713 C717 1.495 . S
C714 C713 1.392 . S
C714 C715 1.385 . S
C714 C716 1.478 . S
C715 H709 0.930 . S
C715 C711 1.400 . S
C715 C714 1.385 . S
C716 C714 1.478 . S
C716 C718 1.381 . S
C716 C722 1.383 . S
C717 C713 1.495 . S
C717 H723 0.959 . S
C717 H724 0.961 . S
C717 H725 0.960 . S
C718 C716 1.381 . S
C718 C719 1.394 . S
C718 H726 0.930 . S
C719 C718 1.394 . S
C719 C720 1.383 . S
C719 H727 0.929 . S
C720 C719 1.383 . S
C720 C721 1.377 . S
C721 H705 0.930 . S
C721 C720 1.377 . S
C721 C722 1.379 . S
C722 H706 0.931 . S
C722 C716 1.383 . S
C722 C721 1.379 . S
H723 C717 0.959 . S
H724 C717 0.961 . S
H725 C717 0.960 . S
H726 C718 0.930 . S
H727 C719 0.929 . S
H728 C736 0.929 . S
H729 C738 0.930 . S
H730 C740 0.930 . S
H731 C743 0.929 . S
H732 C746 0.930 . S
H733 C748 0.960 . S
H734 C748 0.960 . S
H735 C748 0.960 . S
C736 H728 0.929 . S
C736 C737 1.377 . S
C736 C738 1.384 . S
C737 C736 1.377 . S
C737 C743 1.390 . S
C738 H729 0.930 . S
C738 C736 1.384 . S
C738 C739 1.372 . S
C739 C738 1.372 . S
C739 C740 1.400 . S
C739 C744 1.490 . S
C740 H730 0.930 . S
C740 C739 1.400 . S
C740 C743 1.386 . S
H741 C757 0.930 . S
H742 C758 0.931 . S
C743 H731 0.929 . S
C743 C737 1.390 . S
C743 C740 1.386 . S
C744 C739 1.490 . S
C744 C746 1.395 . S
C744 C747 1.403 . S
H745 C751 0.930 . S
C746 H732 0.930 . S
C746 C744 1.395 . S
C746 C749 1.403 . S
C747 C744 1.403 . S
C747 C748 1.524 . S
C747 C751 1.400 . S
C748 H733 0.960 . S
C748 H734 0.960 . S
C748 H735 0.960 . S
C748 C747 1.524 . S
C749 C746 1.403 . S
C749 C750 1.392 . S
C749 C753 1.495 . S
C750 C749 1.392 . S
C750 C751 1.385 . S
C750 C752 1.478 . S
C751 H745 0.930 . S
C751 C747 1.400 . S
C751 C750 1.385 . S
C752 C750 1.478 . S
C752 C754 1.381 . S
C752 C758 1.383 . S
C753 C749 1.495 . S
C753 H759 0.959 . S
C753 H760 0.961 . S
C753 H761 0.960 . S
C754 C752 1.381 . S
C754 C755 1.394 . S
C754 H762 0.930 . S
C755 C754 1.394 . S
C755 C756 1.383 . S
C755 H763 0.929 . S
C756 C755 1.383 . S
C756 C757 1.377 . S
C757 H741 0.930 . S
C757 C756 1.377 . S
C757 C758 1.379 . S
C758 H742 0.931 . S
C758 C752 1.383 . S
C758 C757 1.379 . S
H759 C753 0.959 . S
H760 C753 0.961 . S
H761 C753 0.960 . S
H762 C754 0.930 . S
H763 C755 0.929 . S
H764 C772 0.929 . S
H765 C774 0.930 . S
H766 C776 0.930 . S
H767 C779 0.929 . S
H768 C782 0.930 . S
H769 C784 0.960 . S
H770 C784 0.960 . S
H771 C784 0.960 . S
C772 H764 0.929 . S
C772 C773 1.377 . S
C772 C774 1.384 . S
C773 C772 1.377 . S
C773 C779 1.390 . S
C774 H765 0.930 . S
C774 C772 1.384 . S
C774 C775 1.372 . S
C775 C774 1.372 . S
C775 C776 1.400 . S
C775 C780 1.490 . S
C776 H766 0.930 . S
C776 C775 1.400 . S
C776 C779 1.386 . S
H777 C793 0.930 . S
H778 C794 0.931 . S
C779 H767 0.929 . S
C779 C773 1.390 . S
C779 C776 1.386 . S
C780 C775 1.490 . S
C780 C782 1.395 . S
C780 C783 1.403 . S
H781 C787 0.930 . S
C782 H768 0.930 . S
C782 C780 1.395 . S
C782 C785 1.403 . S
C783 C780 1.403 . S
C783 C784 1.524 . S
C783 C787 1.400 . S
C784 H769 0.960 . S
C784 H770 0.960 . S
C784 H771 0.960 . S
C784 C783 1.524 . S
C785 C782 1.403 . S
C785 C786 1.392 . S
C785 C789 1.495 . S
C786 C785 1.392 . S
C786 C787 1.385 . S
C786 C788 1.478 . S
C787 H781 0.930 . S
C787 C783 1.400 . S
C787 C786 1.385 . S
C788 C786 1.478 . S
C788 C790 1.381 . S
C788 C794 1.383 . S
C789 C785 1.495 . S
C789 H795 0.959 . S
C789 H796 0.961 . S
C789 H797 0.960 . S
C790 C788 1.381 . S
C790 C791 1.394 . S
C790 H798 0.930 . S
C791 C790 1.394 . S
C791 C792 1.383 . S
C791 H799 0.929 . S
C792 C791 1.383 . S
C792 C793 1.377 . S
C793 H777 0.930 . S
C793 C792 1.377 . S
C793 C794 1.379 . S
C794 H778 0.931 . S
C794 C788 1.383 . S
C794 C793 1.379 . S
H795 C789 0.959 . S
H796 C789 0.961 . S
H797 C789 0.960 . S
H798 C790 0.930 . S
H799 C791 0.929 . S
H800 C808 0.929 . S
H801 C810 0.930 . S
H802 C812 0.930 . S
H803 C815 0.929 . S
H804 C818 0.930 . S
H805 C820 0.960 . S
H806 C820 0.960 . S
H807 C820 0.960 . S
C808 H800 0.929 . S
C808 C809 1.377 . S
C808 C810 1.384 . S
C809 C808 1.377 . S
C809 C815 1.390 . S
C810 H801 0.930 . S
C810 C808 1.384 . S
C810 C811 1.372 . S
C811 C810 1.372 . S
C811 C812 1.400 . S
C811 C816 1.490 . S
C812 H802 0.930 . S
C812 C811 1.400 . S
C812 C815 1.386 . S
H813 C829 0.930 . S
H814 C830 0.931 . S
C815 H803 0.929 . S
C815 C809 1.390 . S
C815 C812 1.386 . S
C816 C811 1.490 . S
C816 C818 1.395 . S
C816 C819 1.403 . S
H817 C823 0.930 . S
C818 H804 0.930 . S
C818 C816 1.395 . S
C818 C821 1.403 1_556 S
C819 C816 1.403 . S
C819 C820 1.524 . S
C819 C823 1.400 1_556 S
C820 H805 0.960 . S
C820 H806 0.960 . S
C820 H807 0.960 . S
C820 C819 1.524 . S
C821 C818 1.403 1_554 S
C821 C822 1.392 . S
C821 C825 1.495 . S
C822 C821 1.392 . S
C822 C823 1.385 . S
C822 C824 1.478 . S
C823 H817 0.930 . S
C823 C819 1.400 1_554 S
C823 C822 1.385 . S
C824 C822 1.478 . S
C824 C826 1.381 . S
C824 C830 1.383 . S
C825 C821 1.495 . S
C825 H831 0.959 . S
C825 H832 0.961 . S
C825 H833 0.960 . S
C826 C824 1.381 . S
C826 C827 1.394 . S
C826 H834 0.926 1_554 S
C827 C826 1.394 . S
C827 C828 1.383 . S
C827 H835 0.929 . S
C828 C827 1.383 . S
C828 C829 1.377 . S
C829 H813 0.930 . S
C829 C828 1.377 . S
C829 C830 1.379 . S
C830 H814 0.931 . S
C830 C824 1.383 . S
C830 C829 1.379 . S
H831 C825 0.959 . S
H832 C825 0.961 . S
H833 C825 0.960 . S
H834 C826 0.926 1_556 S
H835 C827 0.929 . S
H836 C844 0.929 . S
H837 C846 0.930 . S
H838 C848 0.930 . S
H839 C851 0.929 . S
H840 C854 0.930 . S
H841 C856 0.960 . S
H842 C856 0.960 . S
H843 C856 0.960 . S
C844 H836 0.929 . S
C844 C845 1.377 . S
C844 C846 1.384 . S
C845 C844 1.377 . S
C845 C851 1.390 . S
C846 H837 0.930 . S
C846 C844 1.384 . S
C846 C847 1.372 . S
C847 C846 1.372 . S
C847 C848 1.400 . S
C847 C852 1.490 . S
C848 H838 0.930 . S
C848 C847 1.400 . S
C848 C851 1.386 . S
H849 C865 0.930 . S
H850 C866 0.931 . S
C851 H839 0.929 . S
C851 C845 1.390 . S
C851 C848 1.386 . S
C852 C847 1.490 . S
C852 C854 1.395 . S
C852 C855 1.403 . S
H853 C859 0.930 . S
C854 H840 0.930 . S
C854 C852 1.395 . S
C854 C857 1.403 . S
C855 C852 1.403 . S
C855 C856 1.524 . S
C855 C859 1.400 . S
C856 H841 0.960 . S
C856 H842 0.960 . S
C856 H843 0.960 . S
C856 C855 1.524 . S
C857 C854 1.403 . S
C857 C858 1.392 . S
C857 C861 1.495 . S
C858 C857 1.392 . S
C858 C859 1.385 . S
C858 C860 1.478 . S
C859 H853 0.930 . S
C859 C855 1.400 . S
C859 C858 1.385 . S
C860 C858 1.478 . S
C860 C862 1.381 . S
C860 C866 1.383 . S
C861 C857 1.495 . S
C861 H867 0.959 . S
C861 H868 0.961 . S
C861 H869 0.960 . S
C862 C860 1.381 . S
C862 C863 1.394 . S
C862 H870 0.930 . S
C863 C862 1.394 . S
C863 C864 1.383 . S
C863 H871 0.929 . S
C864 C863 1.383 . S
C864 C865 1.377 . S
C865 H849 0.930 . S
C865 C864 1.377 . S
C865 C866 1.379 . S
C866 H850 0.931 . S
C866 C860 1.383 . S
C866 C865 1.379 . S
H867 C861 0.959 . S
H868 C861 0.961 . S
H869 C861 0.960 . S
H870 C862 0.930 . S
H871 C863 0.929 . S
H872 C880 0.929 . S
H873 C882 0.930 . S
H874 C884 0.930 . S
H875 C887 0.929 . S
H876 C890 0.930 . S
H877 C892 0.960 . S
H878 C892 0.960 . S
H879 C892 0.960 . S
C880 H872 0.929 . S
C880 C881 1.377 . S
C880 C882 1.384 . S
C881 C880 1.377 . S
C881 C887 1.390 . S
C882 H873 0.930 . S
C882 C880 1.384 . S
C882 C883 1.372 . S
C883 C882 1.372 . S
C883 C884 1.400 . S
C883 C888 1.490 . S
C884 H874 0.930 . S
C884 C883 1.400 . S
C884 C887 1.386 . S
H885 C901 0.930 . S
H886 C902 0.931 . S
C887 H875 0.929 . S
C887 C881 1.390 . S
C887 C884 1.386 . S
C888 C883 1.490 . S
C888 C890 1.395 1_554 S
C888 C891 1.403 . S
H889 C895 0.930 . S
C890 H876 0.930 . S
C890 C888 1.395 1_556 S
C890 C893 1.403 . S
C891 C888 1.403 . S
C891 C892 1.524 . S
C891 C895 1.400 . S
C892 H877 0.960 . S
C892 H878 0.960 . S
C892 H879 0.960 . S
C892 C891 1.524 . S
C893 C890 1.403 . S
C893 C894 1.392 . S
C893 C897 1.495 . S
C894 C893 1.392 . S
C894 C895 1.385 1_556 S
C894 C896 1.478 . S
C895 H889 0.930 . S
C895 C891 1.400 . S
C895 C894 1.385 1_554 S
C896 C894 1.478 . S
C896 C898 1.381 . S
C896 C902 1.383 . S
C897 C893 1.495 . S
C897 H903 0.959 . S
C897 H904 0.961 . S
C897 H905 0.960 . S
C898 C896 1.381 . S
C898 C899 1.394 . S
C898 H906 0.930 . S
C899 C898 1.394 . S
C899 C900 1.383 . S
C899 H907 0.929 . S
C900 C899 1.383 . S
C900 C901 1.377 . S
C901 H885 0.930 . S
C901 C900 1.377 . S
C901 C902 1.379 . S
C902 H886 0.931 . S
C902 C896 1.383 . S
C902 C901 1.379 . S
H903 C897 0.959 . S
H904 C897 0.961 . S
H905 C897 0.960 . S
H906 C898 0.930 . S
H907 C899 0.929 . S
H908 C916 0.929 . S
H909 C918 0.930 . S
H910 C920 0.930 . S
H911 C923 0.929 . S
H912 C926 0.930 . S
H913 C928 0.960 . S
H914 C928 0.960 . S
H915 C928 0.960 . S
C916 H908 0.929 . S
C916 C917 1.377 . S
C916 C918 1.384 . S
C917 C916 1.377 . S
C917 C923 1.390 . S
C918 H909 0.930 . S
C918 C916 1.384 . S
C918 C919 1.372 . S
C919 C918 1.372 . S
C919 C920 1.400 . S
C919 C924 1.490 . S
C920 H910 0.930 . S
C920 C919 1.400 . S
C920 C923 1.386 . S
H921 C937 0.930 . S
H922 C938 0.931 . S
C923 H911 0.929 . S
C923 C917 1.390 . S
C923 C920 1.386 . S
C924 C919 1.490 . S
C924 C926 1.395 . S
C924 C927 1.403 . S
H925 C931 0.930 . S
C926 H912 0.930 . S
C926 C924 1.395 . S
C926 C929 1.403 . S
C927 C924 1.403 . S
C927 C928 1.524 . S
C927 C931 1.400 . S
C928 H913 0.960 . S
C928 H914 0.960 . S
C928 H915 0.960 . S
C928 C927 1.524 . S
C929 C926 1.403 . S
C929 C930 1.392 . S
C929 C933 1.495 . S
C930 C929 1.392 . S
C930 C931 1.385 . S
C930 C932 1.478 . S
C931 H925 0.930 . S
C931 C927 1.400 . S
C931 C930 1.385 . S
C932 C930 1.478 . S
C932 C934 1.381 . S
C932 C938 1.383 . S
C933 C929 1.495 . S
C933 H939 0.959 . S
C933 H940 0.961 . S
C933 H941 0.960 . S
C934 C932 1.381 . S
C934 C935 1.394 . S
C934 H942 0.930 . S
C935 C934 1.394 . S
C935 C936 1.383 . S
C935 H943 0.929 . S
C936 C935 1.383 . S
C936 C937 1.377 . S
C937 H921 0.930 . S
C937 C936 1.377 . S
C937 C938 1.379 . S
C938 H922 0.931 . S
C938 C932 1.383 . S
C938 C937 1.379 . S
H939 C933 0.959 . S
H940 C933 0.961 . S
H941 C933 0.960 . S
H942 C934 0.930 . S
H943 C935 0.929 . S
H944 C952 0.929 . S
H945 C954 0.930 . S
H946 C956 0.930 1_556 S
H947 C959 0.929 . S
H948 C962 0.930 . S
H949 C964 0.960 . S
H950 C964 0.960 1_554 S
H951 C964 0.960 . S
C952 H944 0.929 . S
C952 C953 1.377 . S
C952 C954 1.384 . S
C953 C952 1.377 . S
C953 C959 1.390 . S
C954 H945 0.930 . S
C954 C952 1.384 . S
C954 C955 1.372 . S
C955 C954 1.372 . S
C955 C956 1.400 . S
C955 C960 1.490 . S
C956 H946 0.930 1_554 S
C956 C955 1.400 . S
C956 C959 1.386 . S
H957 C973 0.930 . S
H958 C974 0.931 . S
C959 H947 0.929 . S
C959 C953 1.390 . S
C959 C956 1.386 . S
C960 C955 1.490 . S
C960 C962 1.395 . S
C960 C963 1.377 1_554 S
H961 C967 0.930 . S
C962 H948 0.930 . S
C962 C960 1.395 . S
C962 C965 1.403 . S
C963 C960 1.377 1_556 S
C963 C964 1.528 . S
C963 C967 1.423 . S
C964 H949 0.960 . S
C964 H950 0.960 1_556 S
C964 H951 0.960 . S
C964 C963 1.528 . S
C965 C962 1.403 . S
C965 C966 1.392 1_554 S
C965 C969 1.495 . S
C966 C965 1.392 1_556 S
C966 C967 1.385 . S
C966 C968 1.478 . S
C967 H961 0.930 . S
C967 C963 1.423 . S
C967 C966 1.385 . S
C968 C966 1.478 . S
C968 C970 1.381 . S
C968 C974 1.383 . S
C969 C965 1.495 . S
C969 H975 0.959 . S
C969 H976 0.961 1_554 S
C969 H977 0.960 . S
C970 C968 1.381 . S
C970 C971 1.394 . S
C970 H978 0.930 1_556 S
C971 C970 1.394 . S
C971 C972 1.383 . S
C971 H979 0.929 . S
C972 C971 1.383 . S
C972 C973 1.377 . S
C973 H957 0.930 . S
C973 C972 1.377 . S
C973 C974 1.379 . S
C974 H958 0.931 . S
C974 C968 1.383 . S
C974 C973 1.379 . S
H975 C969 0.959 . S
H976 C969 0.961 1_556 S
H977 C969 0.960 . S
H978 C970 0.930 1_554 S
H979 C971 0.929 . S
H980 C988 0.929 . S
H981 C990 0.930 . S
H982 C992 0.930 . S
H983 C995 0.929 . S
H984 C998 0.930 . S
H985 C1000 0.960 . S
H986 C1000 0.960 . S
H987 C1000 0.960 . S
C988 H980 0.929 . S
C988 C989 1.377 . S
C988 C990 1.384 . S
C989 C988 1.377 . S
C989 C995 1.390 . S
C990 H981 0.930 . S
C990 C988 1.384 . S
C990 C991 1.372 . S
C991 C990 1.372 . S
C991 C992 1.400 . S
C991 C996 1.490 . S
C992 H982 0.930 . S
C992 C991 1.400 . S
C992 C995 1.386 . S
H993 C1009 0.930 . S
H994 C1010 0.931 . S
C995 H983 0.929 . S
C995 C989 1.390 . S
C995 C992 1.386 . S
C996 C991 1.490 . S
C996 C998 1.395 . S
C996 C999 1.403 . S
H997 C1003 0.930 . S
C998 H984 0.930 . S
C998 C996 1.395 . S
C998 C1001 1.403 . S
C999 C996 1.403 . S
C999 C1000 1.524 . S
C999 C1003 1.400 . S
C1000 H985 0.960 . S
C1000 H986 0.960 . S
C1000 H987 0.960 . S
C1000 C999 1.524 . S
C1001 C998 1.403 . S
C1001 C1002 1.392 . S
C1001 C1005 1.495 . S
C1002 C1001 1.392 . S
C1002 C1003 1.385 . S
C1002 C1004 1.478 . S
C1003 H997 0.930 . S
C1003 C999 1.400 . S
C1003 C1002 1.385 . S
C1004 C1002 1.478 . S
C1004 C1006 1.381 . S
C1004 C1010 1.383 . S
C1005 C1001 1.495 . S
C1005 H1011 0.959 . S
C1005 H1012 0.961 . S
C1005 H1013 0.960 . S
C1006 C1004 1.381 . S
C1006 C1007 1.394 . S
C1006 H1014 0.930 . S
C1007 C1006 1.394 . S
C1007 C1008 1.383 . S
C1007 H1015 0.929 . S
C1008 C1007 1.383 . S
C1008 C1009 1.377 . S
C1009 H993 0.930 . S
C1009 C1008 1.377 . S
C1009 C1010 1.379 . S
C1010 H994 0.931 . S
C1010 C1004 1.383 . S
C1010 C1009 1.379 . S
H1011 C1005 0.959 . S
H1012 C1005 0.961 . S
H1013 C1005 0.960 . S
H1014 C1006 0.930 . S
H1015 C1007 0.929 . S
H1016 C1024 0.929 . S
H1017 C1026 0.949 . S
H1018 C1028 0.930 . S
H1019 C1031 0.929 . S
H1020 C1034 0.930 . S
H1021 C1036 0.960 . S
H1022 C1036 0.960 . S
H1023 C1036 0.960 . S
C1024 H1016 0.929 . S
C1024 C1025 1.377 . S
C1024 C1026 1.384 . S
C1025 C1024 1.377 . S
C1025 C1031 1.390 . S
C1026 H1017 0.949 . S
C1026 C1024 1.384 . S
C1026 C1027 1.372 . S
C1027 C1026 1.372 . S
C1027 C1028 1.400 . S
C1027 C1032 1.490 . S
C1028 H1018 0.930 . S
C1028 C1027 1.400 . S
C1028 C1031 1.386 . S
H1029 C1045 0.930 . S
H1030 C1046 0.931 1_554 S
C1031 H1019 0.929 . S
C1031 C1025 1.390 . S
C1031 C1028 1.386 . S
C1032 C1027 1.490 . S
C1032 C1034 1.395 . S
C1032 C1035 1.403 . S
H1033 C1039 0.930 . S
C1034 H1020 0.930 . S
C1034 C1032 1.395 . S
C1034 C1037 1.403 1_554 S
C1035 C1032 1.403 . S
C1035 C1036 1.524 . S
C1035 C1039 1.400 1_554 S
C1036 H1021 0.960 . S
C1036 H1022 0.960 . S
C1036 H1023 0.960 . S
C1036 C1035 1.524 . S
C1037 C1034 1.403 1_556 S
C1037 C1038 1.392 . S
C1037 C1041 1.495 . S
C1038 C1037 1.392 . S
C1038 C1039 1.385 . S
C1038 C1040 1.478 . S
C1039 H1033 0.930 . S
C1039 C1035 1.400 1_556 S
C1039 C1038 1.385 . S
C1040 C1038 1.478 . S
C1040 C1042 1.381 . S
C1040 C1046 1.383 . S
C1041 C1037 1.495 . S
C1041 H1047 0.959 . S
C1041 H1048 0.961 . S
C1041 H1049 0.960 . S
C1042 C1040 1.381 . S
C1042 C1043 1.394 . S
C1042 H1050 0.930 . S
C1043 C1042 1.394 . S
C1043 C1044 1.383 . S
C1043 H1051 0.929 . S
C1044 C1043 1.383 . S
C1044 C1045 1.377 . S
C1045 H1029 0.930 . S
C1045 C1044 1.377 . S
C1045 C1046 1.379 . S
C1046 H1030 0.931 1_556 S
C1046 C1040 1.383 . S
C1046 C1045 1.379 . S
H1047 C1041 0.959 . S
H1048 C1041 0.961 . S
H1049 C1041 0.960 . S
H1050 C1042 0.930 . S
H1051 C1043 0.929 . S
H1052 C1060 0.929 . S
H1053 C1062 0.930 . S
H1054 C1064 0.930 . S
H1055 C1067 0.929 . S
H1056 C1070 0.930 . S
H1057 C1072 0.960 . S
H1058 C1072 0.960 . S
H1059 C1072 0.960 . S
C1060 H1052 0.929 . S
C1060 C1061 1.377 . S
C1060 C1062 1.384 . S
C1061 C1060 1.377 . S
C1061 C1067 1.390 . S
C1062 H1053 0.930 . S
C1062 C1060 1.384 . S
C1062 C1063 1.372 . S
C1063 C1062 1.372 . S
C1063 C1064 1.400 . S
C1063 C1068 1.490 . S
C1064 H1054 0.930 . S
C1064 C1063 1.400 . S
C1064 C1067 1.386 . S
H1065 C1081 0.930 . S
H1066 C1082 0.931 . S
C1067 H1055 0.929 . S
C1067 C1061 1.390 . S
C1067 C1064 1.386 . S
C1068 C1063 1.490 . S
C1068 C1070 1.395 . S
C1068 C1071 1.403 . S
H1069 C1075 0.930 . S
C1070 H1056 0.930 . S
C1070 C1068 1.395 . S
C1070 C1073 1.403 . S
C1071 C1068 1.403 . S
C1071 C1072 1.524 . S
C1071 C1075 1.400 . S
C1072 H1057 0.960 . S
C1072 H1058 0.960 . S
C1072 H1059 0.960 . S
C1072 C1071 1.524 . S
C1073 C1070 1.403 . S
C1073 C1074 1.392 . S
C1073 C1077 1.495 . S
C1074 C1073 1.392 . S
C1074 C1075 1.385 . S
C1074 C1076 1.478 . S
C1075 H1069 0.930 . S
C1075 C1071 1.400 . S
C1075 C1074 1.385 . S
C1076 C1074 1.478 . S
C1076 C1078 1.381 . S
C1076 C1082 1.383 . S
C1077 C1073 1.495 . S
C1077 H1083 0.959 . S
C1077 H1084 0.961 . S
C1077 H1085 0.960 . S
C1078 C1076 1.381 . S
C1078 C1079 1.394 . S
C1078 H1086 0.930 . S
C1079 C1078 1.394 . S
C1079 C1080 1.383 . S
C1079 H1087 0.929 . S
C1080 C1079 1.383 . S
C1080 C1081 1.377 . S
C1081 H1065 0.930 . S
C1081 C1080 1.377 . S
C1081 C1082 1.379 . S
C1082 H1066 0.931 . S
C1082 C1076 1.383 . S
C1082 C1081 1.379 . S
H1083 C1077 0.959 . S
H1084 C1077 0.961 . S
H1085 C1077 0.960 . S
H1086 C1078 0.930 . S
H1087 C1079 0.929 . S
H1088 C1096 0.929 . S
H1089 C1098 0.930 . S
H1090 C1100 0.930 . S
H1091 C1103 0.929 . S
H1092 C1106 0.930 . S
H1093 C1108 0.960 . S
H1094 C1108 0.960 . S
H1095 C1108 0.960 . S
C1096 H1088 0.929 . S
C1096 C1097 1.377 . S
C1096 C1098 1.384 . S
C1097 C1096 1.377 . S
C1097 C1103 1.390 . S
C1098 H1089 0.930 . S
C1098 C1096 1.384 . S
C1098 C1099 1.372 . S
C1099 C1098 1.372 . S
C1099 C1100 1.400 . S
C1099 C1104 1.490 . S
C1100 H1090 0.930 . S
C1100 C1099 1.400 . S
C1100 C1103 1.386 . S
H1101 C1117 0.930 . S
H1102 C1118 0.931 . S
C1103 H1091 0.929 . S
C1103 C1097 1.390 . S
C1103 C1100 1.386 . S
C1104 C1099 1.490 . S
C1104 C1106 1.395 1_556 S
C1104 C1107 1.403 . S
H1105 C1111 0.930 . S
C1106 H1092 0.930 . S
C1106 C1104 1.395 1_554 S
C1106 C1109 1.403 . S
C1107 C1104 1.403 . S
C1107 C1108 1.524 . S
C1107 C1111 1.400 . S
C1108 H1093 0.960 . S
C1108 H1094 0.960 . S
C1108 H1095 0.960 . S
C1108 C1107 1.524 . S
C1109 C1106 1.403 . S
C1109 C1110 1.392 . S
C1109 C1113 1.495 . S
C1110 C1109 1.392 . S
C1110 C1111 1.385 1_554 S
C1110 C1112 1.478 . S
C1111 H1105 0.930 . S
C1111 C1107 1.400 . S
C1111 C1110 1.385 1_556 S
C1112 C1110 1.478 . S
C1112 C1114 1.381 . S
C1112 C1118 1.383 . S
C1113 C1109 1.495 . S
C1113 H1119 0.959 . S
C1113 H1120 0.961 . S
C1113 H1121 0.960 . S
C1114 C1112 1.381 . S
C1114 C1115 1.394 . S
C1114 H1122 0.930 . S
C1115 C1114 1.394 . S
C1115 C1116 1.383 . S
C1115 H1123 0.929 . S
C1116 C1115 1.383 . S
C1116 C1117 1.377 . S
C1117 H1101 0.930 . S
C1117 C1116 1.377 . S
C1117 C1118 1.379 . S
C1118 H1102 0.931 . S
C1118 C1112 1.383 . S
C1118 C1117 1.379 . S
H1119 C1113 0.959 . S
H1120 C1113 0.961 . S
H1121 C1113 0.960 . S
H1122 C1114 0.930 . S
H1123 C1115 0.929 . S
H1124 C1132 0.929 . S
H1125 C1134 0.930 . S
H1126 C1136 0.930 . S
H1127 C1139 0.929 . S
H1128 C1142 0.930 . S
H1129 C1144 0.960 . S
H1130 C1144 0.960 . S
H1131 C1144 0.960 . S
C1132 H1124 0.929 . S
C1132 C1133 1.377 . S
C1132 C1134 1.384 . S
C1133 C1132 1.377 . S
C1133 C1139 1.390 . S
C1134 H1125 0.930 . S
C1134 C1132 1.384 . S
C1134 C1135 1.372 . S
C1135 C1134 1.372 . S
C1135 C1136 1.400 . S
C1135 C1140 1.490 . S
C1136 H1126 0.930 . S
C1136 C1135 1.400 . S
C1136 C1139 1.386 . S
H1137 C1153 0.930 . S
H1138 C1154 0.931 . S
C1139 H1127 0.929 . S
C1139 C1133 1.390 . S
C1139 C1136 1.386 . S
C1140 C1135 1.490 . S
C1140 C1142 1.395 . S
C1140 C1143 1.403 . S
H1141 C1147 0.930 . S
C1142 H1128 0.930 . S
C1142 C1140 1.395 . S
C1142 C1145 1.403 . S
C1143 C1140 1.403 . S
C1143 C1144 1.524 . S
C1143 C1147 1.400 . S
C1144 H1129 0.960 . S
C1144 H1130 0.960 . S
C1144 H1131 0.960 . S
C1144 C1143 1.524 . S
C1145 C1142 1.403 . S
C1145 C1146 1.392 . S
C1145 C1149 1.495 . S
C1146 C1145 1.392 . S
C1146 C1147 1.385 . S
C1146 C1148 1.478 . S
C1147 H1141 0.930 . S
C1147 C1143 1.400 . S
C1147 C1146 1.385 . S
C1148 C1146 1.478 . S
C1148 C1150 1.381 . S
C1148 C1154 1.383 . S
C1149 C1145 1.495 . S
C1149 H1155 0.959 . S
C1149 H1156 0.961 . S
C1149 H1157 0.960 . S
C1150 C1148 1.381 . S
C1150 C1151 1.394 . S
C1150 H1158 0.930 . S
C1151 C1150 1.394 . S
C1151 C1152 1.383 . S
C1151 H1159 0.929 . S
C1152 C1151 1.383 . S
C1152 C1153 1.377 . S
C1153 H1137 0.930 . S
C1153 C1152 1.377 . S
C1153 C1154 1.379 . S
C1154 H1138 0.931 . S
C1154 C1148 1.383 . S
C1154 C1153 1.379 . S
H1155 C1149 0.959 . S
H1156 C1149 0.961 . S
H1157 C1149 0.960 . S
H1158 C1150 0.930 . S
H1159 C1151 0.929 . S
H1160 C1168 0.929 . S
H1161 C1170 0.930 . S
H1162 C1172 0.894 1_556 S
H1163 C1175 0.929 . S
H1164 C1178 0.930 . S
H1165 C1180 0.960 . S
H1166 C1180 0.960 . S
H1167 C1180 0.960 . S
C1168 H1160 0.929 . S
C1168 C1169 1.377 . S
C1168 C1170 1.384 . S
C1169 C1168 1.377 . S
C1169 C1175 1.390 . S
C1170 H1161 0.930 . S
C1170 C1168 1.384 . S
C1170 C1171 1.372 . S
C1171 C1170 1.372 . S
C1171 C1172 1.400 . S
C1171 C1176 1.490 . S
C1172 H1162 0.894 1_554 S
C1172 C1171 1.400 . S
C1172 C1175 1.386 . S
H1173 C1189 0.930 . S
H1174 C1190 0.931 . S
C1175 H1163 0.929 . S
C1175 C1169 1.390 . S
C1175 C1172 1.386 . S
C1176 C1171 1.490 . S
C1176 C1178 1.395 . S
C1176 C1179 1.403 . S
H1177 C1183 0.930 . S
C1178 H1164 0.930 . S
C1178 C1176 1.395 . S
C1178 C1181 1.403 1_554 S
C1179 C1176 1.403 . S
C1179 C1180 1.524 . S
C1179 C1183 1.400 1_554 S
C1180 H1165 0.960 . S
C1180 H1166 0.960 . S
C1180 H1167 0.960 . S
C1180 C1179 1.524 . S
C1181 C1178 1.403 1_556 S
C1181 C1182 1.392 . S
C1181 C1185 1.495 . S
C1182 C1181 1.392 . S
C1182 C1183 1.385 . S
C1182 C1184 1.478 . S
C1183 H1177 0.930 . S
C1183 C1179 1.400 1_556 S
C1183 C1182 1.385 . S
C1184 C1182 1.478 . S
C1184 C1186 1.381 . S
C1184 C1190 1.383 . S
C1185 C1181 1.495 . S
C1185 H1191 0.959 . S
C1185 H1192 0.961 . S
C1185 H1193 0.960 . S
C1186 C1184 1.381 . S
C1186 C1187 1.394 . S
C1186 H1194 0.930 1_556 S
C1187 C1186 1.394 . S
C1187 C1188 1.383 . S
C1187 H1195 0.929 . S
C1188 C1187 1.383 . S
C1188 C1189 1.377 . S
C1189 H1173 0.930 . S
C1189 C1188 1.377 . S
C1189 C1190 1.379 . S
C1190 H1174 0.931 . S
C1190 C1184 1.383 . S
C1190 C1189 1.379 . S
H1191 C1185 0.959 . S
H1192 C1185 0.961 . S
H1193 C1185 0.960 . S
H1194 C1186 0.930 1_554 S
H1195 C1187 0.929 . S
H1196 C1204 0.929 . S
H1197 C1206 0.930 . S
H1198 C1208 0.930 . S
H1199 C1211 0.929 . S
H1200 C1214 0.930 . S
H1201 C1216 0.960 . S
H1202 C1216 0.960 . S
H1203 C1216 0.960 . S
C1204 H1196 0.929 . S
C1204 C1205 1.377 . S
C1204 C1206 1.384 . S
C1205 C1204 1.377 . S
C1205 C1211 1.390 . S
C1206 H1197 0.930 . S
C1206 C1204 1.384 . S
C1206 C1207 1.372 . S
C1207 C1206 1.372 . S
C1207 C1208 1.400 . S
C1207 C1212 1.490 . S
C1208 H1198 0.930 . S
C1208 C1207 1.400 . S
C1208 C1211 1.386 . S
H1209 C1225 0.930 . S
H1210 C1226 0.931 . S
C1211 H1199 0.929 . S
C1211 C1205 1.390 . S
C1211 C1208 1.386 . S
C1212 C1207 1.490 . S
C1212 C1214 1.395 . S
C1212 C1215 1.403 . S
H1213 C1219 0.930 . S
C1214 H1200 0.930 . S
C1214 C1212 1.395 . S
C1214 C1217 1.403 . S
C1215 C1212 1.403 . S
C1215 C1216 1.524 . S
C1215 C1219 1.400 . S
C1216 H1201 0.960 . S
C1216 H1202 0.960 . S
C1216 H1203 0.960 . S
C1216 C1215 1.524 . S
C1217 C1214 1.403 . S
C1217 C1218 1.392 . S
C1217 C1221 1.495 . S
C1218 C1217 1.392 . S
C1218 C1219 1.385 . S
C1218 C1220 1.478 . S
C1219 H1213 0.930 . S
C1219 C1215 1.400 . S
C1219 C1218 1.385 . S
C1220 C1218 1.478 . S
C1220 C1222 1.381 . S
C1220 C1226 1.383 . S
C1221 C1217 1.495 . S
C1221 H1227 0.959 . S
C1221 H1228 0.961 . S
C1221 H1229 0.960 . S
C1222 C1220 1.381 . S
C1222 C1223 1.394 . S
C1222 H1230 0.930 . S
C1223 C1222 1.394 . S
C1223 C1224 1.383 . S
C1223 H1231 0.929 . S
C1224 C1223 1.383 . S
C1224 C1225 1.377 . S
C1225 H1209 0.930 . S
C1225 C1224 1.377 . S
C1225 C1226 1.379 . S
C1226 H1210 0.931 . S
C1226 C1220 1.383 . S
C1226 C1225 1.379 . S
H1227 C1221 0.959 . S
H1228 C1221 0.961 . S
H1229 C1221 0.960 . S
H1230 C1222 0.930 . S
H1231 C1223 0.929 . S
H1232 C1240 0.929 . S
H1233 C1242 0.930 1_554 S
H1234 C1244 0.930 . S
H1235 C1247 0.929 . S
H1236 C1250 0.930 . S
H1237 C1252 0.960 . S
H1238 C1252 0.960 . S
H1239 C1252 0.960 1_556 S
C1240 H1232 0.929 . S
C1240 C1241 1.377 . S
C1240 C1242 1.384 . S
C1241 C1240 1.377 . S
C1241 C1247 1.390 . S
C1242 H1233 0.930 1_556 S
C1242 C1240 1.384 . S
C1242 C1243 1.372 . S
C1243 C1242 1.372 . S
C1243 C1244 1.400 . S
C1243 C1248 1.490 . S
C1244 H1234 0.930 . S
C1244 C1243 1.400 . S
C1244 C1247 1.386 . S
H1245 C1261 0.930 . S
H1246 C1262 0.931 1_556 S
C1247 H1235 0.929 . S
C1247 C1241 1.390 . S
C1247 C1244 1.386 . S
C1248 C1243 1.490 . S
C1248 C1250 1.395 . S
C1248 C1251 1.392 1_556 S
H1249 C1255 0.930 . S
C1250 H1236 0.930 . S
C1250 C1248 1.395 . S
C1250 C1253 1.393 1_546 S
C1251 C1248 1.392 1_554 S
C1251 C1252 1.526 . S
C1251 C1255 1.411 1_545 S
C1252 H1237 0.960 . S
C1252 H1238 0.960 . S
C1252 H1239 0.960 1_554 S
C1252 C1251 1.526 . S
C1253 C1250 1.393 1_564 S
C1253 C1254 1.404 . S
C1253 C1257 1.495 . S
C1254 C1253 1.404 . S
C1254 C1255 1.385 . S
C1254 C1256 1.478 . S
C1255 H1249 0.930 . S
C1255 C1251 1.411 1_565 S
C1255 C1254 1.385 . S
C1256 C1254 1.478 . S
C1256 C1258 1.381 . S
C1256 C1262 1.383 . S
C1257 C1253 1.495 . S
C1257 H1263 0.958 1_554 S
C1257 H1264 0.960 1_554 S
C1257 H1265 0.962 . S
C1258 C1256 1.381 . S
C1258 C1259 1.394 . S
C1258 H1266 0.930 . S
C1259 C1258 1.394 . S
C1259 C1260 1.383 . S
C1259 H1267 0.929 . S
C1260 C1259 1.383 . S
C1260 C1261 1.377 . S
C1261 H1245 0.930 . S
C1261 C1260 1.377 . S
C1261 C1262 1.379 . S
C1262 H1246 0.931 1_554 S
C1262 C1256 1.383 . S
C1262 C1261 1.379 . S
H1263 C1257 0.958 1_556 S
H1264 C1257 0.960 1_556 S
H1265 C1257 0.962 . S
H1266 C1258 0.930 . S
H1267 C1259 0.929 . S
H1268 C1276 0.929 . S
H1269 C1278 0.930 . S
H1270 C1280 0.930 . S
H1271 C1283 0.929 . S
H1272 C1286 0.930 . S
H1273 C1288 0.960 . S
H1274 C1288 0.960 . S
H1275 C1288 0.960 . S
C1276 H1268 0.929 . S
C1276 C1277 1.377 . S
C1276 C1278 1.384 . S
C1277 C1276 1.377 . S
C1277 C1283 1.390 . S
C1278 H1269 0.930 . S
C1278 C1276 1.384 . S
C1278 C1279 1.372 . S
C1279 C1278 1.372 . S
C1279 C1280 1.400 . S
C1279 C1284 1.490 . S
C1280 H1270 0.930 . S
C1280 C1279 1.400 . S
C1280 C1283 1.386 . S
H1281 C1297 0.930 . S
H1282 C1298 0.931 . S
C1283 H1271 0.929 . S
C1283 C1277 1.390 . S
C1283 C1280 1.386 . S
C1284 C1279 1.490 . S
C1284 C1286 1.395 . S
C1284 C1287 1.403 . S
H1285 C1291 0.930 . S
C1286 H1272 0.930 . S
C1286 C1284 1.395 . S
C1286 C1289 1.403 1_565 S
C1287 C1284 1.403 . S
C1287 C1288 1.524 . S
C1287 C1291 1.400 1_565 S
C1288 H1273 0.960 . S
C1288 H1274 0.960 . S
C1288 H1275 0.960 . S
C1288 C1287 1.524 . S
C1289 C1286 1.403 1_545 S
C1289 C1290 1.392 . S
C1289 C1293 1.495 . S
C1290 C1289 1.392 . S
C1290 C1291 1.385 . S
C1290 C1292 1.478 . S
C1291 H1285 0.930 . S
C1291 C1287 1.400 1_545 S
C1291 C1290 1.385 . S
C1292 C1290 1.478 . S
C1292 C1294 1.381 . S
C1292 C1298 1.383 . S
C1293 C1289 1.495 . S
C1293 H1299 0.959 . S
C1293 H1300 0.961 . S
C1293 H1301 0.960 . S
C1294 C1292 1.381 . S
C1294 C1295 1.394 . S
C1294 H1302 0.930 . S
C1295 C1294 1.394 . S
C1295 C1296 1.383 . S
C1295 H1303 0.929 . S
C1296 C1295 1.383 . S
C1296 C1297 1.377 . S
C1297 H1281 0.930 . S
C1297 C1296 1.377 . S
C1297 C1298 1.379 . S
C1298 H1282 0.931 . S
C1298 C1292 1.383 . S
C1298 C1297 1.379 . S
H1299 C1293 0.959 . S
H1300 C1293 0.961 . S
H1301 C1293 0.960 . S
H1302 C1294 0.930 . S
H1303 C1295 0.929 . S
H1304 C1312 0.929 . S
H1305 C1314 0.930 . S
H1306 C1316 0.930 . S
H1307 C1319 0.929 . S
H1308 C1322 0.930 . S
H1309 C1324 0.946 1_545 S
H1310 C1324 0.968 . S
H1311 C1324 0.966 . S
C1312 H1304 0.929 . S
C1312 C1313 1.377 . S
C1312 C1314 1.384 . S
C1313 C1312 1.377 . S
C1313 C1319 1.390 . S
C1314 H1305 0.930 . S
C1314 C1312 1.384 . S
C1314 C1315 1.372 . S
C1315 C1314 1.372 . S
C1315 C1316 1.400 . S
C1315 C1320 1.490 . S
C1316 H1306 0.930 . S
C1316 C1315 1.400 . S
C1316 C1319 1.386 . S
H1317 C1333 0.930 . S
H1318 C1334 0.931 . S
C1319 H1307 0.929 . S
C1319 C1313 1.390 . S
C1319 C1316 1.386 . S
C1320 C1315 1.490 . S
C1320 C1322 1.395 1_554 S
C1320 C1323 1.403 . S
H1321 C1327 0.930 . S
C1322 H1308 0.930 . S
C1322 C1320 1.395 1_556 S
C1322 C1325 1.446 . S
C1323 C1320 1.403 . S
C1323 C1324 1.524 . S
C1323 C1327 1.400 1_565 S
C1324 H1309 0.946 1_565 S
C1324 H1310 0.968 . S
C1324 H1311 0.966 . S
C1324 C1323 1.524 . S
C1325 C1322 1.446 . S
C1325 C1326 1.350 1_565 S
C1325 C1329 1.497 . S
C1326 C1325 1.350 1_545 S
C1326 C1327 1.385 1_556 S
C1326 C1328 1.478 . S
C1327 H1321 0.930 . S
C1327 C1323 1.400 1_545 S
C1327 C1326 1.385 1_554 S
C1328 C1326 1.478 . S
C1328 C1330 1.381 . S
C1328 C1334 1.383 . S
C1329 C1325 1.497 . S
C1329 H1335 0.959 . S
C1329 H1336 0.961 1_565 S
C1329 H1337 0.960 1_565 S
C1330 C1328 1.381 . S
C1330 C1331 1.394 . S
C1330 H1338 0.930 . S
C1331 C1330 1.394 . S
C1331 C1332 1.383 . S
C1331 H1339 0.929 . S
C1332 C1331 1.383 . S
C1332 C1333 1.377 . S
C1333 H1317 0.930 . S
C1333 C1332 1.377 . S
C1333 C1334 1.379 . S
C1334 H1318 0.931 . S
C1334 C1328 1.383 . S
C1334 C1333 1.379 . S
H1335 C1329 0.959 . S
H1336 C1329 0.961 1_545 S
H1337 C1329 0.960 1_545 S
H1338 C1330 0.930 . S
H1339 C1331 0.929 . S
H1340 C1348 0.929 . S
H1341 C1350 0.930 . S
H1342 C1352 0.930 . S
H1343 C1355 0.929 . S
H1344 C1358 0.930 . S
H1345 C1360 0.960 1_565 S
H1346 C1360 0.960 . S
H1347 C1360 0.960 . S
C1348 H1340 0.929 . S
C1348 C1349 1.377 . S
C1348 C1350 1.384 . S
C1349 C1348 1.377 . S
C1349 C1355 1.390 . S
C1350 H1341 0.930 . S
C1350 C1348 1.384 . S
C1350 C1351 1.372 . S
C1351 C1350 1.372 . S
C1351 C1352 1.400 . S
C1351 C1356 1.490 . S
C1352 H1342 0.930 . S
C1352 C1351 1.400 . S
C1352 C1355 1.386 . S
H1353 C1369 0.930 . S
H1354 C1370 0.931 . S
C1355 H1343 0.929 . S
C1355 C1349 1.390 . S
C1355 C1352 1.386 . S
C1356 C1351 1.490 . S
C1356 C1358 1.395 . S
C1356 C1359 1.403 . S
H1357 C1363 0.930 . S
C1358 H1344 0.930 . S
C1358 C1356 1.395 . S
C1358 C1361 1.396 1_545 S
C1359 C1356 1.403 . S
C1359 C1360 1.524 . S
C1359 C1363 1.400 1_545 S
C1360 H1345 0.960 1_545 S
C1360 H1346 0.960 . S
C1360 H1347 0.960 . S
C1360 C1359 1.524 . S
C1361 C1358 1.396 1_565 S
C1361 C1362 1.399 . S
C1361 C1365 1.495 . S
C1362 C1361 1.399 . S
C1362 C1363 1.385 . S
C1362 C1364 1.478 . S
C1363 H1357 0.930 . S
C1363 C1359 1.400 1_565 S
C1363 C1362 1.385 . S
C1364 C1362 1.478 . S
C1364 C1366 1.381 . S
C1364 C1370 1.383 . S
C1365 C1361 1.495 . S
C1365 H1371 0.919 1_565 S
C1365 H1372 0.991 . S
C1365 H1373 0.973 . S
C1366 C1364 1.381 . S
C1366 C1367 1.394 . S
C1366 H1374 0.930 . S
C1367 C1366 1.394 . S
C1367 C1368 1.383 . S
C1367 H1375 0.929 . S
C1368 C1367 1.383 . S
C1368 C1369 1.377 . S
C1369 H1353 0.930 . S
C1369 C1368 1.377 . S
C1369 C1370 1.379 . S
C1370 H1354 0.931 . S
C1370 C1364 1.383 . S
C1370 C1369 1.379 . S
H1371 C1365 0.919 1_545 S
H1372 C1365 0.991 . S
H1373 C1365 0.973 . S
H1374 C1366 0.930 . S
H1375 C1367 0.929 . S
C233 C9 1.458 . S
C252 C93 1.491 . S
C269 C23 1.463 . S
C288 C107 1.466 . S
C305 C65 1.479 . S
C324 C37 1.436 . S
C341 C79 1.478 . S
C360 C51 1.437 . S
C377 C205 1.471 . S
C396 C121 1.480 . S
C413 C219 1.471 . S
C432 C135 1.482 . S
C449 C149 1.459 . S
C468 C177 1.482 . S
C485 C163 1.460 . S
C504 C191 1.480 . S
C521 C8 1.597 . S
C540 C77 1.532 . S
C557 C22 1.598 . S
C576 C63 1.562 . S
C593 C36 1.597 . S
C612 C105 1.535 . S
C629 C91 1.545 . S
C648 C50 1.593 . S
C665 C189 1.552 . S
C684 C120 1.592 . S
C701 C175 1.545 . S
C720 C134 1.594 . S
C737 C148 1.597 . S
C756 C217 1.530 . S
C773 C203 1.547 . S
C792 C162 1.590 . S
C809 C174 1.543 . S
C828 C6 1.543 . S
C845 C20 1.561 . S
C864 C188 1.516 . S
C881 C202 1.543 . S
C900 C34 1.571 . S
C917 C216 1.543 . S
C936 C48 1.570 . S
C953 C118 1.563 . S
C972 C62 1.542 . S
C989 C132 1.557 . S
C1008 C76 1.545 . S
C1025 C90 1.538 . S
C1044 C146 1.571 . S
C1061 C104 1.537 . S
C1080 C160 1.546 . S
C1097 C35 1.071 . S
C1116 C7 1.034 . S
C1133 C21 1.067 . S
C1152 C49 1.079 . S
C1169 C92 2.026 . S
C1188 C64 2.022 . S
C1205 C78 2.025 . S
C1224 C106 2.020 . S
C1241 C147 1.082 . S
C1260 C119 1.080 . S
C1277 C161 1.077 . S
C1296 C133 1.110 . S
C1313 C204 2.025 . S
C1332 C176 2.026 . S
C1349 C218 2.024 . S
C1368 C190 2.024 . S
