# Generated by pormake.
# Topology uoz, (4)-cn, num edge types: 1
# Building blocks:
#     Node 0, Type 0, BuildingBlock: QUQFOY_clean_sbu_3, # of connection points: 4
#     Node 1, Type 0, BuildingBlock: QUQFOY_clean_sbu_3, # of connection points: 4
#     Node 2, Type 0, BuildingBlock: QUQFOY_clean_sbu_3, # of connection points: 4
#     Node 3, Type 0, BuildingBlock: QUQFOY_clean_sbu_3, # of connection points: 4
#     Node 4, Type 0, BuildingBlock: QUQFOY_clean_sbu_3, # of connection points: 4
#     Node 5, Type 0, BuildingBlock: QUQFOY_clean_sbu_3, # of connection points: 4
#     Node 6, Type 0, BuildingBlock: QUQFOY_clean_sbu_3, # of connection points: 4
#     Node 7, Type 0, BuildingBlock: QUQFOY_clean_sbu_3, # of connection points: 4
#     Node 8, Type 0, BuildingBlock: QUQFOY_clean_sbu_3, # of connection points: 4
#     Node 9, Type 0, BuildingBlock: QUQFOY_clean_sbu_3, # of connection points: 4
#     Node 10, Type 0, BuildingBlock: QUQFOY_clean_sbu_3, # of connection points: 4
#     Node 11, Type 0, BuildingBlock: QUQFOY_clean_sbu_3, # of connection points: 4
#     Node 12, Type 0, BuildingBlock: QUQFOY_clean_sbu_3, # of connection points: 4
#     Node 13, Type 0, BuildingBlock: QUQFOY_clean_sbu_3, # of connection points: 4
#     Node 14, Type 0, BuildingBlock: QUQFOY_clean_sbu_3, # of connection points: 4
#     Node 15, Type 0, BuildingBlock: QUQFOY_clean_sbu_3, # of connection points: 4
#     Edge 16, Type (0, 0), BuildingBlock: OJICUG_clean_linker_0, # of connection points: 2
#     Edge 17, Type (0, 0), BuildingBlock: OJICUG_clean_linker_0, # of connection points: 2
#     Edge 18, Type (0, 0), BuildingBlock: OJICUG_clean_linker_0, # of connection points: 2
#     Edge 19, Type (0, 0), BuildingBlock: OJICUG_clean_linker_0, # of connection points: 2
#     Edge 20, Type (0, 0), BuildingBlock: OJICUG_clean_linker_0, # of connection points: 2
#     Edge 21, Type (0, 0), BuildingBlock: OJICUG_clean_linker_0, # of connection points: 2
#     Edge 22, Type (0, 0), BuildingBlock: OJICUG_clean_linker_0, # of connection points: 2
#     Edge 23, Type (0, 0), BuildingBlock: OJICUG_clean_linker_0, # of connection points: 2
#     Edge 24, Type (0, 0), BuildingBlock: OJICUG_clean_linker_0, # of connection points: 2
#     Edge 25, Type (0, 0), BuildingBlock: OJICUG_clean_linker_0, # of connection points: 2
#     Edge 26, Type (0, 0), BuildingBlock: OJICUG_clean_linker_0, # of connection points: 2
#     Edge 27, Type (0, 0), BuildingBlock: OJICUG_clean_linker_0, # of connection points: 2
#     Edge 28, Type (0, 0), BuildingBlock: OJICUG_clean_linker_0, # of connection points: 2
#     Edge 29, Type (0, 0), BuildingBlock: OJICUG_clean_linker_0, # of connection points: 2
#     Edge 30, Type (0, 0), BuildingBlock: OJICUG_clean_linker_0, # of connection points: 2
#     Edge 31, Type (0, 0), BuildingBlock: OJICUG_clean_linker_0, # of connection points: 2
#     Edge 32, Type (0, 0), BuildingBlock: OJICUG_clean_linker_0, # of connection points: 2
#     Edge 33, Type (0, 0), BuildingBlock: OJICUG_clean_linker_0, # of connection points: 2
#     Edge 34, Type (0, 0), BuildingBlock: OJICUG_clean_linker_0, # of connection points: 2
#     Edge 35, Type (0, 0), BuildingBlock: OJICUG_clean_linker_0, # of connection points: 2
#     Edge 36, Type (0, 0), BuildingBlock: OJICUG_clean_linker_0, # of connection points: 2
#     Edge 37, Type (0, 0), BuildingBlock: OJICUG_clean_linker_0, # of connection points: 2
#     Edge 38, Type (0, 0), BuildingBlock: OJICUG_clean_linker_0, # of connection points: 2
#     Edge 39, Type (0, 0), BuildingBlock: OJICUG_clean_linker_0, # of connection points: 2
#     Edge 40, Type (0, 0), BuildingBlock: OJICUG_clean_linker_0, # of connection points: 2
#     Edge 41, Type (0, 0), BuildingBlock: OJICUG_clean_linker_0, # of connection points: 2
#     Edge 42, Type (0, 0), BuildingBlock: OJICUG_clean_linker_0, # of connection points: 2
#     Edge 43, Type (0, 0), BuildingBlock: OJICUG_clean_linker_0, # of connection points: 2
#     Edge 44, Type (0, 0), BuildingBlock: OJICUG_clean_linker_0, # of connection points: 2
#     Edge 45, Type (0, 0), BuildingBlock: OJICUG_clean_linker_0, # of connection points: 2
#     Edge 46, Type (0, 0), BuildingBlock: OJICUG_clean_linker_0, # of connection points: 2
#     Edge 47, Type (0, 0), BuildingBlock: OJICUG_clean_linker_0, # of connection points: 2
# Relax obj value: 0.173
# Max RMSD: 0.165
# Mean RMSD: 0.165
data_MOF--net-uoz--node1-QUQFOY_clean_sbu_3--edge1-OJICUG_clean_linker_0
_symmetry_space_group_name_H-M    P1
_symmetry_Int_Tables_number       1
_symmetry_cell_setting            triclinic
loop_
_symmetry_equiv_pos_as_xyz
'x, y, z'
_cell_length_a     46.271387
_cell_length_b     46.10499
_cell_length_c     16.595455
_cell_angle_alpha  90.010715
_cell_angle_beta   90.199285
_cell_angle_gamma 90.3034
loop_
_atom_site_label
_atom_site_type_symbol
_atom_site_fract_x
_atom_site_fract_y
_atom_site_fract_z
_atom_type_partial_charge
C0 C 0.9489 0.60306 0.18788 0.0
O1 O 0.9571 0.59071 0.12374 0.0
Cd2 Cd -0.00686 0.55593 0.1145 0.0
O3 O 0.96005 0.5968 0.25622 0.0
Cd4 Cd -0.00235 0.56253 0.30193 0.0
C5 C 0.04717 0.59736 0.1999 0.0
O6 O 0.98137 0.52456 0.22287 0.0
O7 O 0.02756 0.52642 0.23157 0.0
O8 O 0.97083 0.5435 0.41336 0.0
C9 C 0.00533 0.51375 0.2036 0.0
O10 O 0.03666 0.5839 0.13949 0.0
C11 C -0.00666 0.53792 0.45427 0.0
O12 O 0.03567 0.5955 0.26925 0.0
O13 O 0.01703 0.54902 0.43058 0.0
C14 C 0.62836 0.68972 0.43672 0.0
O15 O 0.64042 0.69813 0.3723 0.0
Cd16 Cd 0.67493 0.73483 0.3631 0.0
O17 O 0.63478 0.70098 0.50487 0.0
Cd18 Cd 0.66886 0.73923 0.54991 0.0
C19 C 0.63336 0.78825 0.44873 0.0
O20 O 0.70643 0.72307 0.47116 0.0
O21 O 0.70457 0.76945 0.47776 0.0
O22 O 0.68761 0.71223 0.66151 0.0
C23 C 0.71721 0.74714 0.45101 0.0
O24 O 0.64672 0.77797 0.38826 0.0
C25 C 0.69386 0.7348 0.70187 0.0
O26 O 0.63554 0.77675 0.51815 0.0
O27 O 0.68334 0.75869 0.67786 0.0
C28 C 0.54308 0.37022 0.68939 0.0
O29 O 0.53495 0.38273 0.62527 0.0
Cd30 Cd 0.49797 0.41636 0.61556 0.0
O31 O 0.53162 0.3761 0.75739 0.0
Cd32 Cd 0.49358 0.41003 0.80235 0.0
C33 C 0.44524 0.37334 0.70103 0.0
O34 O 0.50892 0.44833 0.72342 0.0
O35 O 0.46277 0.44506 0.73001 0.0
O36 O 0.52015 0.42969 0.91389 0.0
C37 C 0.48469 0.45834 0.70281 0.0
O38 O 0.45547 0.38692 0.64066 0.0
C39 C 0.49754 0.43517 0.95411 0.0
O40 O 0.45649 0.37585 0.77076 0.0
O41 O 0.47398 0.42376 0.93015 0.0
C42 C 0.86392 0.28057 0.9386 0.0
O43 O 0.85187 0.272 0.8741 0.0
Cd44 Cd 0.81598 0.23667 0.86424 0.0
O45 O 0.85688 0.27013 0.00716 0.0
Cd46 Cd 0.82163 0.23298 0.05191 0.0
C47 C 0.85578 0.18246 0.95286 0.0
O48 O 0.78476 0.24989 0.97088 0.0
O49 O 0.78523 0.20351 0.9797 0.0
O50 O 0.80262 0.26031 0.16248 0.0
C51 C 0.7733 0.22602 0.9515 0.0
O52 O 0.84265 0.19278 0.89184 0.0
C53 C 0.7963 0.23782 0.20297 0.0
O54 O 0.854 0.1944 0.02177 0.0
O55 O 0.8069 0.21389 0.17969 0.0
C56 C 0.9503 0.36957 0.91312 0.0
O57 O 0.95805 0.38259 0.97696 0.0
Cd58 Cd -0.0055 0.41736 0.98551 0.0
O59 O 0.96179 0.3755 0.84512 0.0
Cd60 Cd -0.00096 0.41038 0.79887 0.0
C61 C 0.04801 0.37546 0.90124 0.0
O62 O 0.98268 0.44836 0.87648 0.0
O63 O 0.02892 0.44665 0.87046 0.0
O64 O 0.97188 0.42859 0.68685 0.0
C65 C 0.00663 0.45941 0.89641 0.0
O66 O 0.03755 0.38884 0.96149 0.0
C67 C -0.00568 0.43492 0.64659 0.0
O68 O 0.03675 0.37758 0.83147 0.0
O69 O 0.0182 0.42453 0.67077 0.0
C70 C 0.86047 0.68918 0.16261 0.0
O71 O 0.84778 0.69702 0.22651 0.0
Cd72 Cd 0.81383 0.73391 0.23493 0.0
O73 O 0.85465 0.70079 0.09459 0.0
Cd74 Cd 0.82085 0.73869 0.04818 0.0
C75 C 0.85708 0.78696 0.15127 0.0
O76 O 0.7826 0.72283 0.12546 0.0
O77 O 0.78549 0.7692 0.11937 0.0
O78 O 0.80216 0.7118 0.93596 0.0
C79 C 0.77226 0.74701 0.14552 0.0
O80 O 0.84341 0.7766 0.21127 0.0
C81 C 0.79643 0.73442 0.8955 0.0
O82 O 0.85464 0.77588 0.08136 0.0
O83 O 0.80729 0.75825 0.91984 0.0
C84 C 0.54136 0.60117 0.41386 0.0
O85 O 0.53373 0.58827 0.47784 0.0
Cd86 Cd 0.49631 0.5545 0.48606 0.0
O87 O 0.5292 0.59568 0.34628 0.0
Cd88 Cd 0.49086 0.56206 0.29957 0.0
C89 C 0.44337 0.59793 0.4034 0.0
O90 O 0.50656 0.52352 0.37583 0.0
O91 O 0.46038 0.52608 0.37046 0.0
O92 O 0.51796 0.54442 0.18754 0.0
C93 C 0.48253 0.51284 0.3959 0.0
O94 O 0.45394 0.58423 0.46315 0.0
C95 C 0.49557 0.53808 0.1467 0.0
O96 O 0.4541 0.59567 0.33322 0.0
O97 O 0.47161 0.54819 0.1708 0.0
C98 C 0.62927 0.28195 0.66296 0.0
O99 O 0.64172 0.2735 0.72686 0.0
Cd100 Cd 0.67658 0.23742 0.7343 0.0
O101 O 0.63542 0.27107 0.59433 0.0
Cd102 Cd 0.66948 0.23354 0.5473 0.0
C103 C 0.6349 0.18355 0.64829 0.0
O104 O 0.70742 0.25001 0.62587 0.0
O105 O 0.70566 0.20362 0.6177 0.0
O106 O 0.68808 0.26075 0.43564 0.0
C107 C 0.71841 0.22599 0.64475 0.0
O108 O 0.64853 0.19386 0.70867 0.0
C109 C 0.69373 0.23823 0.39481 0.0
O110 O 0.6366 0.19532 0.57913 0.0
O111 O 0.68288 0.21437 0.41864 0.0
C112 C 0.36147 0.18895 0.66191 0.0
O113 O 0.34898 0.19698 0.72596 0.0
Cd114 Cd 0.31491 0.23379 0.73473 0.0
O115 O 0.35549 0.20041 0.59383 0.0
Cd116 Cd 0.3217 0.23838 0.54808 0.0
C117 C 0.35799 0.28681 0.65043 0.0
O118 O 0.28353 0.22249 0.62576 0.0
O119 O 0.28645 0.26887 0.61977 0.0
O120 O 0.30287 0.21157 0.43585 0.0
C121 C 0.2732 0.24667 0.64577 0.0
O122 O 0.3443 0.27658 0.71057 0.0
C123 C 0.2971 0.23421 0.39553 0.0
O124 O 0.35559 0.27554 0.58074 0.0
O125 O 0.30794 0.25803 0.41996 0.0
C126 C 0.12981 0.78173 0.16547 0.0
O127 O 0.14222 0.77342 0.22955 0.0
Cd128 Cd 0.17664 0.737 0.23759 0.0
O129 O 0.13592 0.77063 0.0971 0.0
Cd130 Cd 0.16997 0.73296 0.05067 0.0
C131 C 0.13474 0.68338 0.15126 0.0
O132 O 0.20789 0.74916 0.12962 0.0
O133 O 0.20583 0.70278 0.12189 0.0
O134 O 0.18867 0.7603 0.9395 0.0
C135 C 0.21858 0.72508 0.14925 0.0
O136 O 0.14825 0.69369 0.21184 0.0
C137 C 0.19441 0.73782 0.89853 0.0
O138 O 0.13677 0.69501 0.08198 0.0
O139 O 0.18357 0.71392 0.92207 0.0
C140 C 0.12751 0.19024 0.93778 0.0
O141 O 0.13953 0.19855 0.87319 0.0
Cd142 Cd 0.17458 0.23472 0.8631 0.0
O143 O 0.13431 0.2013 0.00591 0.0
Cd144 Cd 0.16914 0.239 0.05017 0.0
C145 C 0.13396 0.28857 0.95029 0.0
O146 O 0.20629 0.22248 0.97014 0.0
O147 O 0.20495 0.26888 0.97739 0.0
O148 O 0.18824 0.21198 0.16136 0.0
C149 C 0.21726 0.24648 0.95008 0.0
O150 O 0.14705 0.27819 0.88952 0.0
C151 C 0.19458 0.23454 0.20163 0.0
O152 O 0.13614 0.27696 0.01956 0.0
O153 O 0.184 0.25844 0.17781 0.0
C154 C 0.36143 0.78208 0.43896 0.0
O155 O 0.34876 0.77375 0.37514 0.0
Cd156 Cd 0.31439 0.73688 0.36828 0.0
O157 O 0.35549 0.77088 0.50741 0.0
Cd158 Cd 0.32145 0.73307 0.55496 0.0
C159 C 0.35693 0.6841 0.45504 0.0
O160 O 0.28343 0.74884 0.47679 0.0
O161 O 0.28556 0.70248 0.48383 0.0
O162 O 0.303 0.76041 0.66607 0.0
C163 C 0.27265 0.72468 0.45715 0.0
O164 O 0.34324 0.69418 0.39463 0.0
C165 C 0.29699 0.73792 0.70692 0.0
O166 O 0.35489 0.69566 0.52437 0.0
O167 O 0.30763 0.71403 0.68349 0.0
C168 C 0.44954 0.10244 0.6868 0.0
O169 O 0.45752 0.08981 0.62286 0.0
Cd170 Cd 0.49379 0.05516 0.61452 0.0
O171 O 0.46096 0.09651 0.75502 0.0
Cd172 Cd 0.49858 0.06249 0.80175 0.0
C173 C 0.54783 0.09713 0.69844 0.0
O174 O 0.4823 0.02425 0.72412 0.0
O175 O 0.52849 0.02606 0.73245 0.0
O176 O 0.47149 0.04416 0.91349 0.0
C177 C 0.50622 0.01325 0.70528 0.0
O178 O 0.53723 0.08351 0.63839 0.0
C179 C 0.4939 0.0385 0.95472 0.0
O180 O 0.53649 0.09537 0.76801 0.0
O181 O 0.51772 0.04928 0.93094 0.0
C182 C 0.04283 0.86927 0.19069 0.0
O183 O 0.03457 0.88163 0.12648 0.0
Cd184 Cd -0.00218 0.91556 0.11683 0.0
O185 O 0.03152 0.8753 0.25878 0.0
Cd186 Cd -0.00649 0.9092 0.30381 0.0
C187 C 0.94485 0.8729 0.20249 0.0
O188 O 0.00913 0.94735 0.22472 0.0
O189 O 0.96294 0.94444 0.23168 0.0
O190 O 0.02011 0.92879 0.41549 0.0
C191 C -0.01504 0.95761 0.20458 0.0
O192 O 0.95506 0.88651 0.14214 0.0
C193 C -0.00249 0.93436 0.45559 0.0
O194 O 0.95626 0.8752 0.27206 0.0
O195 O 0.97392 0.92302 0.43154 0.0
C196 C 0.44934 0.86954 0.41233 0.0
O197 O 0.45771 0.88198 0.47646 0.0
Cd198 Cd 0.49408 0.9167 0.48584 0.0
O199 O 0.46041 0.87582 0.34402 0.0
Cd200 Cd 0.49814 0.9104 0.29876 0.0
C201 C 0.54727 0.87504 0.39987 0.0
O202 O 0.48198 0.94808 0.37784 0.0
O203 O 0.52818 0.94649 0.3708 0.0
O204 O 0.4712 0.92932 0.1872 0.0
C205 C 0.50595 0.95904 0.39792 0.0
O206 O 0.53704 0.88843 0.46041 0.0
C207 C 0.4937 0.93551 0.14708 0.0
O208 O 0.53577 0.87721 0.3304 0.0
O209 O 0.51747 0.92479 0.17103 0.0
C210 C 0.04012 0.10201 0.91519 0.0
O211 O 0.03246 0.0892 0.97928 0.0
Cd212 Cd -0.00401 0.05437 -0.01195 0.0
O213 O 0.02841 0.096 0.84733 0.0
Cd214 Cd -0.00917 0.06144 0.80095 0.0
C215 C 0.942 0.09602 0.90427 0.0
O216 O 0.00722 0.02347 0.87847 0.0
O217 O 0.961 0.02483 0.87124 0.0
O218 O 0.01807 0.04359 0.68929 0.0
C219 C 0.98335 0.01222 0.89778 0.0
O220 O 0.95272 0.08266 0.96442 0.0
C221 C -0.00428 0.03728 0.64825 0.0
O222 O 0.95309 0.09405 0.83446 0.0
O223 O 0.97176 0.04749 0.67204 0.0
C224 C 0.10158 0.64542 0.09712 0.0
C225 C 0.11479 0.65899 0.1634 0.0
H226 H 0.06991 0.61492 0.05683 0.0
C227 C 0.10737 0.65034 0.24184 0.0
H228 H 0.1071 0.6515 0.036 0.0
C229 C 0.08595 0.62955 0.25385 0.0
C230 C 0.07183 0.61691 0.1876 0.0
H231 H 0.11731 0.66036 0.29416 0.0
H232 H 0.07999 0.62392 0.31498 0.0
C233 C 0.08035 0.62443 0.10912 0.0
C234 C 0.58517 0.84235 0.34595 0.0
C235 C 0.57149 0.85516 0.41218 0.0
H236 H 0.61582 0.81122 0.30572 0.0
C237 C 0.57996 0.84748 0.49067 0.0
H238 H 0.57921 0.84805 0.28481 0.0
C239 C 0.60078 0.82627 0.50271 0.0
C240 C 0.61361 0.81261 0.43647 0.0
H241 H 0.56983 0.85709 0.54294 0.0
H242 H 0.6063 0.82014 0.56385 0.0
C243 C 0.60617 0.82132 0.35801 0.0
C244 C 0.41253 0.34565 0.60977 0.0
C245 C 0.42109 0.35314 0.68839 0.0
H246 H 0.38572 0.31869 0.53605 0.0
C247 C 0.40734 0.34011 0.75438 0.0
H248 H 0.42273 0.35541 0.55767 0.0
C249 C 0.38602 0.31921 0.74192 0.0
C250 C 0.37832 0.31085 0.66328 0.0
H251 H 0.41339 0.34564 0.81563 0.0
H252 H 0.37624 0.309 0.79399 0.0
C253 C 0.39139 0.32458 0.59731 0.0
C254 C 0.88181 0.14836 0.86306 0.0
C255 C 0.87522 0.15781 0.94133 0.0
H256 H 0.90824 0.12128 0.78994 0.0
C257 C 0.88893 0.14489 0.00764 0.0
H258 H 0.87147 0.15783 0.81071 0.0
C259 C 0.90989 0.12382 -0.00435 0.0
C260 C 0.91759 0.11556 0.91715 0.0
H261 H 0.8841 0.15161 0.06866 0.0
H262 H 0.92079 0.11486 0.0478 0.0
C263 C 0.90292 0.1275 0.85106 0.0
C264 C 0.08638 0.34326 0.8479 0.0
C265 C 0.07225 0.35564 0.91401 0.0
H266 H 0.11733 0.31247 0.80769 0.0
C267 C 0.08028 0.34757 -0.00746 0.0
H268 H 0.08077 0.34929 0.78674 0.0
C269 C 0.1011 0.32635 0.00462 0.0
C270 C 0.11435 0.31308 0.93838 0.0
H271 H 0.06979 0.35685 0.04471 0.0
H272 H 0.10626 0.31987 0.06572 0.0
C273 C 0.10736 0.32223 0.85999 0.0
C274 C 0.91127 0.84618 0.11137 0.0
C275 C 0.92052 0.8529 0.18995 0.0
H276 H 0.88379 0.81995 0.03748 0.0
C277 C 0.90728 0.83927 0.25585 0.0
H278 H 0.92102 0.85644 0.05934 0.0
C279 C 0.88583 0.81851 0.24325 0.0
C280 C 0.87748 0.8109 0.16453 0.0
H281 H 0.91386 0.84418 0.31708 0.0
H282 H 0.8765 0.80779 0.29516 0.0
C283 C 0.89 0.82526 0.09876 0.0
C284 C 0.39112 0.64724 0.50843 0.0
C285 C 0.37697 0.66001 0.44262 0.0
H286 H 0.42322 0.6173 0.54751 0.0
C287 C 0.38337 0.65072 0.36409 0.0
H288 H 0.38647 0.65388 0.56964 0.0
C289 C 0.40451 0.62994 0.35137 0.0
C290 C 0.41939 0.61793 0.41699 0.0
H291 H 0.37273 0.66011 0.31212 0.0
H292 H 0.40954 0.62369 0.29008 0.0
C293 C 0.4121 0.62627 0.49572 0.0
C294 C 0.60178 0.14544 0.59459 0.0
C295 C 0.61514 0.15901 0.66065 0.0
H296 H 0.57007 0.11485 0.55486 0.0
C297 C 0.60801 0.15023 0.7392 0.0
H298 H 0.60707 0.15162 0.53338 0.0
C299 C 0.58671 0.12935 0.75157 0.0
C300 C 0.57241 0.11673 0.68558 0.0
H301 H 0.61807 0.16023 0.79136 0.0
H302 H 0.58098 0.12364 0.81281 0.0
C303 C 0.58066 0.12435 0.60695 0.0
C304 C 0.91591 0.3402 -0.00541 0.0
C305 C 0.92808 0.34691 0.91922 0.0
H306 H 0.88607 0.31373 0.05996 0.0
C307 C 0.91915 0.33151 0.85069 0.0
H308 H 0.92236 0.35174 0.04865 0.0
C309 C 0.89836 0.3098 0.85738 0.0
C310 C 0.88624 0.30307 0.93274 0.0
H311 H 0.92821 0.33615 0.79196 0.0
H312 H 0.89188 0.29821 0.80341 0.0
C313 C 0.89522 0.31838 0.00132 0.0
C314 C 0.41498 0.13658 0.75044 0.0
C315 C 0.42683 0.12437 0.6808 0.0
H316 H 0.38482 0.16657 0.79895 0.0
C317 C 0.41683 0.13329 0.60463 0.0
H318 H 0.42222 0.13005 0.80984 0.0
C319 C 0.39548 0.15426 0.59823 0.0
C320 C 0.38367 0.16651 0.66788 0.0
H321 H 0.42561 0.12424 0.54972 0.0
H322 H 0.38825 0.16082 0.53884 0.0
C323 C 0.3935 0.15742 0.74405 0.0
C324 C 0.57436 0.63703 0.3496 0.0
C325 C 0.56412 0.62331 0.41926 0.0
H326 H 0.60278 0.6689 0.30068 0.0
C327 C 0.57544 0.6313 0.49492 0.0
H328 H 0.56606 0.63128 0.29056 0.0
C329 C 0.59636 0.65294 0.50088 0.0
C330 C 0.60644 0.66678 0.43125 0.0
H331 H 0.56796 0.62105 0.54982 0.0
H332 H 0.60464 0.65876 0.55988 0.0
C333 C 0.59541 0.65854 0.35552 0.0
C334 C 0.0962 0.81699 0.10205 0.0
C335 C 0.10783 0.80437 0.17161 0.0
H336 H 0.06656 0.8476 0.05369 0.0
C337 C 0.09824 0.81348 0.24784 0.0
H338 H 0.10327 0.81045 0.04263 0.0
C339 C 0.07714 0.8347 0.25436 0.0
C340 C 0.06543 0.84724 0.18478 0.0
H341 H 0.10683 0.80408 0.30268 0.0
H342 H 0.07003 0.84121 0.31377 0.0
C343 C 0.07523 0.83831 0.10858 0.0
C344 C 0.9169 0.63458 0.10565 0.0
C345 C 0.92619 0.62497 0.18187 0.0
H346 H 0.88876 0.6625 0.03971 0.0
C347 C 0.91352 0.63637 0.25144 0.0
H348 H 0.92633 0.62618 0.0508 0.0
C349 C 0.89191 0.65708 0.24491 0.0
C350 C 0.88277 0.66683 0.1687 0.0
H351 H 0.9202 0.62928 0.31085 0.0
H352 H 0.88257 0.66558 0.29976 0.0
C353 C 0.89542 0.6554 0.09914 0.0
C354 C 0.07312 0.13788 0.85089 0.0
C355 C 0.06266 0.12439 0.92063 0.0
H356 H 0.1019 0.16938 0.8018 0.0
C357 C 0.07376 0.13261 -0.00364 0.0
H358 H 0.06499 0.13196 0.79181 0.0
C359 C 0.09483 0.15412 0.00224 0.0
C360 C 0.10525 0.16761 0.93248 0.0
H361 H 0.0661 0.12256 0.05134 0.0
H362 H 0.103 0.16005 0.06127 0.0
C363 C 0.09429 0.15927 0.85675 0.0
C364 C 0.59723 0.31307 0.74576 0.0
C365 C 0.60739 0.30465 0.6695 0.0
H366 H 0.56882 0.3405 0.812 0.0
C367 C 0.59658 0.31819 0.60026 0.0
H368 H 0.60518 0.30294 0.80033 0.0
C369 C 0.5759 0.33977 0.60711 0.0
C370 C 0.56554 0.34803 0.68332 0.0
H371 H 0.60414 0.31222 0.54084 0.0
H372 H 0.56789 0.34978 0.55243 0.0
C373 C 0.57641 0.33455 0.7526 0.0
C374 C 0.39616 0.81673 0.50177 0.0
C375 C 0.38366 0.80469 0.4324 0.0
H376 H 0.42677 0.84679 0.54967 0.0
C377 C 0.39274 0.81424 0.356 0.0
H378 H 0.38953 0.80982 0.56133 0.0
C379 C 0.41416 0.83535 0.34913 0.0
C380 C 0.42669 0.84734 0.41854 0.0
H381 H 0.38349 0.80528 0.30129 0.0
H382 H 0.42082 0.84226 0.28961 0.0
C383 C 0.41744 0.83794 0.49491 0.0
C384 C 0.98096 0.49243 0.08645 0.0
C385 C 0.00684 0.4974 0.12843 0.0
H386 H 0.96093 0.47954 0.9775 0.0
C387 C 0.03339 0.4916 0.09113 0.0
H388 H 0.96011 0.49697 0.11306 0.0
C389 C 0.03383 0.48078 0.01259 0.0
C390 C 0.00775 0.4763 0.97076 0.0
H391 H 0.05365 0.49577 0.12204 0.0
H392 H 0.05436 0.47536 0.98546 0.0
C393 C 0.98144 0.48292 0.00788 0.0
C394 C 0.74908 0.7222 0.25861 0.0
C395 C 0.75546 0.74841 0.21965 0.0
H396 H 0.73489 0.70141 0.36479 0.0
C397 C 0.75056 0.77484 0.25928 0.0
H398 H 0.75282 0.70142 0.23005 0.0
C399 C 0.73943 0.77485 0.33736 0.0
C400 C 0.73378 0.74841 0.37642 0.0
H401 H 0.75577 0.79532 0.23068 0.0
H402 H 0.73488 0.79534 0.36649 0.0
C403 C 0.73926 0.72219 0.33674 0.0
C404 C 0.45552 0.49166 0.51227 0.0
C405 C 0.48144 0.49572 0.46979 0.0
H406 H 0.43613 0.4769 0.62225 0.0
C407 C 0.50782 0.48849 0.506 0.0
H408 H 0.43494 0.49753 0.48579 0.0
C409 C 0.50862 0.47896 0.58449 0.0
C410 C 0.48292 0.47447 0.62727 0.0
H411 H 0.52821 0.49145 0.47504 0.0
H412 H 0.52956 0.47402 0.61036 0.0
C413 C 0.45625 0.4807 0.5907 0.0
C414 C 0.75107 0.19832 0.83752 0.0
C415 C 0.75681 0.22478 0.87648 0.0
H416 H 0.73477 0.17777 0.73063 0.0
C417 C 0.75156 0.25097 0.83635 0.0
H418 H 0.75545 0.17784 0.86698 0.0
C419 C 0.74179 0.2509 0.75794 0.0
C420 C 0.73532 0.22466 0.71908 0.0
H421 H 0.75601 0.27176 0.86437 0.0
H422 H 0.73817 0.27164 0.72902 0.0
C423 C 0.74007 0.19826 0.75911 0.0
C424 C 0.24017 0.27423 0.83761 0.0
C425 C 0.23381 0.24773 0.87545 0.0
H426 H 0.25738 0.29489 0.73228 0.0
C427 C 0.23878 0.2216 0.8348 0.0
H428 H 0.23603 0.29467 0.86751 0.0
C429 C 0.24898 0.22179 0.75703 0.0
C430 C 0.25612 0.24804 0.71939 0.0
H431 H 0.23383 0.20078 0.86188 0.0
H432 H 0.25238 0.20108 0.72771 0.0
C433 C 0.2516 0.27438 0.75987 0.0
C434 C 0.24937 0.74956 0.34446 0.0
C435 C 0.25584 0.72328 0.38266 0.0
H436 H 0.2356 0.77066 0.23831 0.0
C437 C 0.25135 0.69696 0.34171 0.0
H438 H 0.25276 0.77025 0.3741 0.0
C439 C 0.24058 0.69717 0.263 0.0
C440 C 0.23493 0.7237 0.22464 0.0
H441 H 0.25666 0.67644 0.36969 0.0
H442 H 0.23633 0.67675 0.23279 0.0
C443 C 0.24001 0.74981 0.26572 0.0
C444 C 0.48124 0.98065 0.51317 0.0
C445 C 0.50731 0.97547 0.47305 0.0
H446 H 0.46071 -0.0064 0.62072 0.0
C447 C 0.5337 0.98103 0.51225 0.0
H448 H 0.46049 0.97632 0.48504 0.0
C449 C 0.53381 -0.00819 0.59087 0.0
C450 C 0.50753 -0.00355 0.63087 0.0
H451 H 0.55408 0.97668 0.48281 0.0
H452 H 0.55426 -0.00298 0.61953 0.0
C453 C 0.48137 -0.00992 0.59181 0.0
C454 C 0.00862 -0.01125 0.00947 0.0
C455 C 0.98229 -0.00477 0.97188 0.0
H456 H 0.03004 0.97474 0.11489 0.0
C457 C 0.95622 -0.00951 0.01305 0.0
H458 H 0.02913 -0.00769 0.97957 0.0
C459 C 0.95672 0.97953 0.09147 0.0
C460 C 0.9833 0.97391 0.12932 0.0
H461 H 0.93565 -0.00422 0.98551 0.0
H462 H 0.93649 0.97516 0.12191 0.0
C463 C 0.00916 0.97915 0.08792 0.0
C464 C 0.0199 0.47354 0.57054 0.0
C465 C -0.00614 0.45957 0.59054 0.0
H466 H 0.04011 0.51021 0.5158 0.0
C467 C 0.96752 0.47272 0.57007 0.0
H468 H 0.04056 0.46429 0.58705 0.0
C469 C 0.96726 0.49935 0.53025 0.0
C470 C -0.00667 0.51335 0.51059 0.0
H471 H 0.9471 0.46271 0.58612 0.0
H472 H 0.94666 0.50867 0.51348 0.0
C473 C 0.01963 0.50027 0.5316 0.0
C474 C 0.75826 0.70805 0.8184 0.0
C475 C 0.77196 0.7343 0.83889 0.0
H476 H 0.72197 0.68758 0.76155 0.0
C477 C 0.75868 0.76061 0.81839 0.0
H478 H 0.76773 0.68742 0.83479 0.0
C479 C 0.73208 0.7607 0.77904 0.0
C480 C 0.71841 0.73448 0.75819 0.0
H481 H 0.76839 0.78122 0.83486 0.0
H482 H 0.72266 0.78137 0.76293 0.0
C483 C 0.73175 0.70813 0.77822 0.0
C484 C 0.47033 0.49944 0.06932 0.0
C485 C 0.49624 0.51361 0.09008 0.0
H486 H 0.45047 0.46261 0.01399 0.0
C487 C 0.5227 0.50073 0.07005 0.0
H488 H 0.44958 0.50851 0.08542 0.0
C489 C 0.52322 0.47411 0.03021 0.0
C490 C 0.49729 0.45986 0.01003 0.0
H491 H 0.54302 0.5109 0.08663 0.0
H492 H 0.54392 0.46497 0.01396 0.0
C493 C 0.47085 0.47273 0.03029 0.0
C494 C 0.75836 0.26456 0.27843 0.0
C495 C 0.77167 0.23821 0.25857 0.0
H496 H 0.72243 0.28528 0.33469 0.0
C497 C 0.75797 0.212 0.27906 0.0
H498 H 0.76816 0.2851 0.26199 0.0
C499 C 0.73138 0.2121 0.31794 0.0
C500 C 0.71815 0.23841 0.33847 0.0
H501 H 0.76735 0.19131 0.26305 0.0
H502 H 0.72166 0.19148 0.33413 0.0
C503 C 0.73187 0.26466 0.31829 0.0
C504 C 0.25904 0.20782 0.31802 0.0
C505 C 0.27266 0.23408 0.33883 0.0
H506 H 0.22284 0.18733 0.26082 0.0
C507 C 0.25933 0.26039 0.31845 0.0
H508 H 0.26855 0.1872 0.33429 0.0
C509 C 0.23275 0.26045 0.27897 0.0
C510 C 0.21916 0.23422 0.25785 0.0
H511 H 0.26897 0.281 0.33515 0.0
H512 H 0.22329 0.28112 0.26301 0.0
C513 C 0.23255 0.20789 0.2777 0.0
C514 C 0.25902 0.76447 0.7827 0.0
C515 C 0.27244 0.73818 0.76277 0.0
H516 H 0.22297 0.78502 0.83883 0.0
C517 C 0.25883 0.7119 0.78311 0.0
H518 H 0.26874 0.78506 0.76636 0.0
C519 C 0.23221 0.71188 0.82184 0.0
C520 C 0.21887 0.73813 0.84237 0.0
H521 H 0.26829 0.69127 0.76703 0.0
H522 H 0.22256 0.69122 0.83788 0.0
C523 C 0.2325 0.76445 0.82241 0.0
C524 C 0.51971 0.97395 0.07145 0.0
C525 C 0.49352 0.96025 0.09133 0.0
H526 H 0.54034 0.01038 0.01672 0.0
C527 C 0.46734 0.9737 0.07088 0.0
H528 H 0.54027 0.96446 0.08797 0.0
C529 C 0.46738 0.00033 0.03105 0.0
C530 C 0.49361 0.01403 0.01137 0.0
H531 H 0.44681 0.96391 0.08687 0.0
H532 H 0.44688 0.00987 0.01419 0.0
C533 C 0.51976 0.00068 0.03251 0.0
C534 C 0.97044 -0.00122 0.57047 0.0
C535 C -0.00362 0.0128 0.59165 0.0
H536 H 0.95049 0.96206 0.5148 0.0
C537 C 0.02281 -0.00022 0.57198 0.0
H538 H 0.94971 0.00795 0.58626 0.0
C539 C 0.02326 0.97317 0.53206 0.0
C540 C -0.00271 0.95906 0.51149 0.0
H541 H 0.04316 0.00984 0.58887 0.0
H542 H 0.04394 0.96392 0.51607 0.0
C543 C 0.97089 0.97207 0.53141 0.0
loop_
_geom_bond_atom_site_label_1
_geom_bond_atom_site_label_2
_geom_bond_distance
_geom_bond_site_symmetry_2
_ccdc_geom_bond_type
C0 O1 1.306 . S
C0 O3 1.160 . S
O1 C0 1.306 . S
O1 Cd2 2.228 . S
Cd2 O1 2.228 . S
Cd2 O6 2.273 . S
Cd2 O10 2.277 1_655 S
O3 C0 1.160 . S
O3 Cd4 2.203 1_655 S
Cd4 O3 2.203 1_455 S
Cd4 O6 2.411 1_455 S
Cd4 O7 2.333 . S
Cd4 O8 2.352 1_455 S
Cd4 O12 2.277 . S
Cd4 O13 2.356 . S
C5 O10 1.209 . S
C5 O12 1.226 . S
O6 Cd2 2.273 . S
O6 Cd4 2.411 1_655 S
O6 C9 1.320 1_655 S
O7 Cd4 2.333 . S
O7 C9 1.214 . S
O8 Cd4 2.352 1_655 S
O8 C11 1.258 1_655 S
C9 O6 1.320 1_455 S
C9 O7 1.214 . S
O10 Cd2 2.277 1_455 S
O10 C5 1.209 . S
C11 O8 1.258 1_455 S
C11 O13 1.282 . S
O12 Cd4 2.277 . S
O12 C5 1.226 . S
O13 Cd4 2.356 . S
O13 C11 1.282 . S
C14 O15 1.306 . S
C14 O17 1.160 . S
O15 C14 1.306 . S
O15 Cd16 2.228 . S
Cd16 O15 2.228 . S
Cd16 O20 2.273 . S
Cd16 O24 2.277 . S
O17 C14 1.160 . S
O17 Cd18 2.203 . S
Cd18 O17 2.203 . S
Cd18 O20 2.411 . S
Cd18 O21 2.333 . S
Cd18 O22 2.352 . S
Cd18 O26 2.277 . S
Cd18 O27 2.356 . S
C19 O24 1.209 . S
C19 O26 1.226 . S
O20 Cd16 2.273 . S
O20 Cd18 2.411 . S
O20 C23 1.320 . S
O21 Cd18 2.333 . S
O21 C23 1.214 . S
O22 Cd18 2.352 . S
O22 C25 1.258 . S
C23 O20 1.320 . S
C23 O21 1.214 . S
O24 Cd16 2.277 . S
O24 C19 1.209 . S
C25 O22 1.258 . S
C25 O27 1.282 . S
O26 Cd18 2.277 . S
O26 C19 1.226 . S
O27 Cd18 2.356 . S
O27 C25 1.282 . S
C28 O29 1.306 . S
C28 O31 1.160 . S
O29 C28 1.306 . S
O29 Cd30 2.228 . S
Cd30 O29 2.228 . S
Cd30 O34 2.273 . S
Cd30 O38 2.277 . S
O31 C28 1.160 . S
O31 Cd32 2.203 . S
Cd32 O31 2.203 . S
Cd32 O34 2.411 . S
Cd32 O35 2.333 . S
Cd32 O36 2.352 . S
Cd32 O40 2.277 . S
Cd32 O41 2.356 . S
C33 O38 1.209 . S
C33 O40 1.226 . S
O34 Cd30 2.273 . S
O34 Cd32 2.411 . S
O34 C37 1.320 . S
O35 Cd32 2.333 . S
O35 C37 1.214 . S
O36 Cd32 2.352 . S
O36 C39 1.258 . S
C37 O34 1.320 . S
C37 O35 1.214 . S
O38 Cd30 2.277 . S
O38 C33 1.209 . S
C39 O36 1.258 . S
C39 O41 1.282 . S
O40 Cd32 2.277 . S
O40 C33 1.226 . S
O41 Cd32 2.356 . S
O41 C39 1.282 . S
C42 O43 1.306 1_554 S
C42 O45 1.160 . S
O43 C42 1.306 1_556 S
O43 Cd44 2.228 . S
Cd44 O43 2.228 . S
Cd44 O48 2.273 . S
Cd44 O52 2.277 . S
O45 C42 1.160 . S
O45 Cd46 2.203 . S
Cd46 O45 2.203 . S
Cd46 O48 2.411 1_554 S
Cd46 O49 2.333 1_554 S
Cd46 O50 2.352 . S
Cd46 O54 2.277 . S
Cd46 O55 2.356 . S
C47 O52 1.209 . S
C47 O54 1.226 1_556 S
O48 Cd44 2.273 . S
O48 Cd46 2.411 1_556 S
O48 C51 1.320 . S
O49 Cd46 2.333 1_556 S
O49 C51 1.214 . S
O50 Cd46 2.352 . S
O50 C53 1.258 . S
C51 O48 1.320 . S
C51 O49 1.214 . S
O52 Cd44 2.277 . S
O52 C47 1.209 . S
C53 O50 1.258 . S
C53 O55 1.282 . S
O54 Cd46 2.277 . S
O54 C47 1.226 1_554 S
O55 Cd46 2.356 . S
O55 C53 1.282 . S
C56 O57 1.306 . S
C56 O59 1.160 . S
O57 C56 1.306 . S
O57 Cd58 2.228 1_556 S
Cd58 O57 2.228 1_554 S
Cd58 O62 2.273 1_554 S
Cd58 O66 2.277 1_654 S
O59 C56 1.160 . S
O59 Cd60 2.203 1_655 S
Cd60 O59 2.203 1_455 S
Cd60 O62 2.411 1_455 S
Cd60 O63 2.333 . S
Cd60 O64 2.352 1_455 S
Cd60 O68 2.277 . S
Cd60 O69 2.356 . S
C61 O66 1.209 . S
C61 O68 1.226 . S
O62 Cd58 2.273 1_556 S
O62 Cd60 2.411 1_655 S
O62 C65 1.320 1_655 S
O63 Cd60 2.333 . S
O63 C65 1.214 . S
O64 Cd60 2.352 1_655 S
O64 C67 1.258 1_655 S
C65 O62 1.320 1_455 S
C65 O63 1.214 . S
O66 Cd58 2.277 1_456 S
O66 C61 1.209 . S
C67 O64 1.258 1_455 S
C67 O69 1.282 . S
O68 Cd60 2.277 . S
O68 C61 1.226 . S
O69 Cd60 2.356 . S
O69 C67 1.282 . S
C70 O71 1.306 . S
C70 O73 1.160 . S
O71 C70 1.306 . S
O71 Cd72 2.228 . S
Cd72 O71 2.228 . S
Cd72 O76 2.273 . S
Cd72 O80 2.277 . S
O73 C70 1.160 . S
O73 Cd74 2.203 . S
Cd74 O73 2.203 . S
Cd74 O76 2.411 . S
Cd74 O77 2.333 . S
Cd74 O78 2.352 . S
Cd74 O82 2.277 . S
Cd74 O83 2.356 1_554 S
C75 O80 1.209 . S
C75 O82 1.226 . S
O76 Cd72 2.273 . S
O76 Cd74 2.411 . S
O76 C79 1.320 . S
O77 Cd74 2.333 . S
O77 C79 1.214 . S
O78 Cd74 2.352 . S
O78 C81 1.258 1_554 S
C79 O76 1.320 . S
C79 O77 1.214 . S
O80 Cd72 2.277 . S
O80 C75 1.209 . S
C81 O78 1.258 1_556 S
C81 O83 1.282 . S
O82 Cd74 2.277 . S
O82 C75 1.226 . S
O83 Cd74 2.356 1_556 S
O83 C81 1.282 . S
C84 O85 1.306 . S
C84 O87 1.160 . S
O85 C84 1.306 . S
O85 Cd86 2.228 . S
Cd86 O85 2.228 . S
Cd86 O90 2.273 . S
Cd86 O94 2.277 . S
O87 C84 1.160 . S
O87 Cd88 2.203 . S
Cd88 O87 2.203 . S
Cd88 O90 2.411 . S
Cd88 O91 2.333 . S
Cd88 O92 2.352 . S
Cd88 O96 2.277 . S
Cd88 O97 2.356 . S
C89 O94 1.209 . S
C89 O96 1.226 . S
O90 Cd86 2.273 . S
O90 Cd88 2.411 . S
O90 C93 1.320 . S
O91 Cd88 2.333 . S
O91 C93 1.214 . S
O92 Cd88 2.352 . S
O92 C95 1.258 . S
C93 O90 1.320 . S
C93 O91 1.214 . S
O94 Cd86 2.277 . S
O94 C89 1.209 . S
C95 O92 1.258 . S
C95 O97 1.282 . S
O96 Cd88 2.277 . S
O96 C89 1.226 . S
O97 Cd88 2.356 . S
O97 C95 1.282 . S
C98 O99 1.306 . S
C98 O101 1.160 . S
O99 C98 1.306 . S
O99 Cd100 2.228 . S
Cd100 O99 2.228 . S
Cd100 O104 2.273 . S
Cd100 O108 2.277 . S
O101 C98 1.160 . S
O101 Cd102 2.203 . S
Cd102 O101 2.203 . S
Cd102 O104 2.411 . S
Cd102 O105 2.333 . S
Cd102 O106 2.352 . S
Cd102 O110 2.277 . S
Cd102 O111 2.356 . S
C103 O108 1.209 . S
C103 O110 1.226 . S
O104 Cd100 2.273 . S
O104 Cd102 2.411 . S
O104 C107 1.320 . S
O105 Cd102 2.333 . S
O105 C107 1.214 . S
O106 Cd102 2.352 . S
O106 C109 1.258 . S
C107 O104 1.320 . S
C107 O105 1.214 . S
O108 Cd100 2.277 . S
O108 C103 1.209 . S
C109 O106 1.258 . S
C109 O111 1.282 . S
O110 Cd102 2.277 . S
O110 C103 1.226 . S
O111 Cd102 2.356 . S
O111 C109 1.282 . S
C112 O113 1.306 . S
C112 O115 1.160 . S
O113 C112 1.306 . S
O113 Cd114 2.228 . S
Cd114 O113 2.228 . S
Cd114 O118 2.273 . S
Cd114 O122 2.277 . S
O115 C112 1.160 . S
O115 Cd116 2.203 . S
Cd116 O115 2.203 . S
Cd116 O118 2.411 . S
Cd116 O119 2.333 . S
Cd116 O120 2.352 . S
Cd116 O124 2.277 . S
Cd116 O125 2.356 . S
C117 O122 1.209 . S
C117 O124 1.226 . S
O118 Cd114 2.273 . S
O118 Cd116 2.411 . S
O118 C121 1.320 . S
O119 Cd116 2.333 . S
O119 C121 1.214 . S
O120 Cd116 2.352 . S
O120 C123 1.258 . S
C121 O118 1.320 . S
C121 O119 1.214 . S
O122 Cd114 2.277 . S
O122 C117 1.209 . S
C123 O120 1.258 . S
C123 O125 1.282 . S
O124 Cd116 2.277 . S
O124 C117 1.226 . S
O125 Cd116 2.356 . S
O125 C123 1.282 . S
C126 O127 1.306 . S
C126 O129 1.160 . S
O127 C126 1.306 . S
O127 Cd128 2.228 . S
Cd128 O127 2.228 . S
Cd128 O132 2.273 . S
Cd128 O136 2.277 . S
O129 C126 1.160 . S
O129 Cd130 2.203 . S
Cd130 O129 2.203 . S
Cd130 O132 2.411 . S
Cd130 O133 2.333 . S
Cd130 O134 2.352 . S
Cd130 O138 2.277 . S
Cd130 O139 2.356 1_554 S
C131 O136 1.209 . S
C131 O138 1.226 . S
O132 Cd128 2.273 . S
O132 Cd130 2.411 . S
O132 C135 1.320 . S
O133 Cd130 2.333 . S
O133 C135 1.214 . S
O134 Cd130 2.352 . S
O134 C137 1.258 1_554 S
C135 O132 1.320 . S
C135 O133 1.214 . S
O136 Cd128 2.277 . S
O136 C131 1.209 . S
C137 O134 1.258 1_556 S
C137 O139 1.282 . S
O138 Cd130 2.277 . S
O138 C131 1.226 . S
O139 Cd130 2.356 1_556 S
O139 C137 1.282 . S
C140 O141 1.306 1_554 S
C140 O143 1.160 . S
O141 C140 1.306 1_556 S
O141 Cd142 2.228 . S
Cd142 O141 2.228 . S
Cd142 O146 2.273 . S
Cd142 O150 2.277 . S
O143 C140 1.160 . S
O143 Cd144 2.203 . S
Cd144 O143 2.203 . S
Cd144 O146 2.411 1_554 S
Cd144 O147 2.333 1_554 S
Cd144 O148 2.352 . S
Cd144 O152 2.277 . S
Cd144 O153 2.356 . S
C145 O150 1.209 . S
C145 O152 1.226 1_556 S
O146 Cd142 2.273 . S
O146 Cd144 2.411 1_556 S
O146 C149 1.320 . S
O147 Cd144 2.333 1_556 S
O147 C149 1.214 . S
O148 Cd144 2.352 . S
O148 C151 1.258 . S
C149 O146 1.320 . S
C149 O147 1.214 . S
O150 Cd142 2.277 . S
O150 C145 1.209 . S
C151 O148 1.258 . S
C151 O153 1.282 . S
O152 Cd144 2.277 . S
O152 C145 1.226 1_554 S
O153 Cd144 2.356 . S
O153 C151 1.282 . S
C154 O155 1.306 . S
C154 O157 1.160 . S
O155 C154 1.306 . S
O155 Cd156 2.228 . S
Cd156 O155 2.228 . S
Cd156 O160 2.273 . S
Cd156 O164 2.277 . S
O157 C154 1.160 . S
O157 Cd158 2.203 . S
Cd158 O157 2.203 . S
Cd158 O160 2.411 . S
Cd158 O161 2.333 . S
Cd158 O162 2.352 . S
Cd158 O166 2.277 . S
Cd158 O167 2.356 . S
C159 O164 1.209 . S
C159 O166 1.226 . S
O160 Cd156 2.273 . S
O160 Cd158 2.411 . S
O160 C163 1.320 . S
O161 Cd158 2.333 . S
O161 C163 1.214 . S
O162 Cd158 2.352 . S
O162 C165 1.258 . S
C163 O160 1.320 . S
C163 O161 1.214 . S
O164 Cd156 2.277 . S
O164 C159 1.209 . S
C165 O162 1.258 . S
C165 O167 1.282 . S
O166 Cd158 2.277 . S
O166 C159 1.226 . S
O167 Cd158 2.356 . S
O167 C165 1.282 . S
C168 O169 1.306 . S
C168 O171 1.160 . S
O169 C168 1.306 . S
O169 Cd170 2.228 . S
Cd170 O169 2.228 . S
Cd170 O174 2.273 . S
Cd170 O178 2.277 . S
O171 C168 1.160 . S
O171 Cd172 2.203 . S
Cd172 O171 2.203 . S
Cd172 O174 2.411 . S
Cd172 O175 2.333 . S
Cd172 O176 2.352 . S
Cd172 O180 2.277 . S
Cd172 O181 2.356 . S
C173 O178 1.209 . S
C173 O180 1.226 . S
O174 Cd170 2.273 . S
O174 Cd172 2.411 . S
O174 C177 1.320 . S
O175 Cd172 2.333 . S
O175 C177 1.214 . S
O176 Cd172 2.352 . S
O176 C179 1.258 . S
C177 O174 1.320 . S
C177 O175 1.214 . S
O178 Cd170 2.277 . S
O178 C173 1.209 . S
C179 O176 1.258 . S
C179 O181 1.282 . S
O180 Cd172 2.277 . S
O180 C173 1.226 . S
O181 Cd172 2.356 . S
O181 C179 1.282 . S
C182 O183 1.306 . S
C182 O185 1.160 . S
O183 C182 1.306 . S
O183 Cd184 2.228 . S
Cd184 O183 2.228 . S
Cd184 O188 2.273 . S
Cd184 O192 2.277 1_455 S
O185 C182 1.160 . S
O185 Cd186 2.203 . S
Cd186 O185 2.203 . S
Cd186 O188 2.411 . S
Cd186 O189 2.333 1_455 S
Cd186 O190 2.352 . S
Cd186 O194 2.277 1_455 S
Cd186 O195 2.356 1_455 S
C187 O192 1.209 . S
C187 O194 1.226 . S
O188 Cd184 2.273 . S
O188 Cd186 2.411 . S
O188 C191 1.320 . S
O189 Cd186 2.333 1_655 S
O189 C191 1.214 1_655 S
O190 Cd186 2.352 . S
O190 C193 1.258 . S
C191 O188 1.320 . S
C191 O189 1.214 1_455 S
O192 Cd184 2.277 1_655 S
O192 C187 1.209 . S
C193 O190 1.258 . S
C193 O195 1.282 1_455 S
O194 Cd186 2.277 1_655 S
O194 C187 1.226 . S
O195 Cd186 2.356 1_655 S
O195 C193 1.282 1_655 S
C196 O197 1.306 . S
C196 O199 1.160 . S
O197 C196 1.306 . S
O197 Cd198 2.228 . S
Cd198 O197 2.228 . S
Cd198 O202 2.273 . S
Cd198 O206 2.277 . S
O199 C196 1.160 . S
O199 Cd200 2.203 . S
Cd200 O199 2.203 . S
Cd200 O202 2.411 . S
Cd200 O203 2.333 . S
Cd200 O204 2.352 . S
Cd200 O208 2.277 . S
Cd200 O209 2.356 . S
C201 O206 1.209 . S
C201 O208 1.226 . S
O202 Cd198 2.273 . S
O202 Cd200 2.411 . S
O202 C205 1.320 . S
O203 Cd200 2.333 . S
O203 C205 1.214 . S
O204 Cd200 2.352 . S
O204 C207 1.258 . S
C205 O202 1.320 . S
C205 O203 1.214 . S
O206 Cd198 2.277 . S
O206 C201 1.209 . S
C207 O204 1.258 . S
C207 O209 1.282 . S
O208 Cd200 2.277 . S
O208 C201 1.226 . S
O209 Cd200 2.356 . S
O209 C207 1.282 . S
C210 O211 1.306 . S
C210 O213 1.160 . S
O211 C210 1.306 . S
O211 Cd212 2.228 1_556 S
Cd212 O211 2.228 1_554 S
Cd212 O216 2.273 1_554 S
Cd212 O220 2.277 1_454 S
O213 C210 1.160 . S
O213 Cd214 2.203 . S
Cd214 O213 2.203 . S
Cd214 O216 2.411 . S
Cd214 O217 2.333 1_455 S
Cd214 O218 2.352 . S
Cd214 O222 2.277 1_455 S
Cd214 O223 2.356 1_455 S
C215 O220 1.209 . S
C215 O222 1.226 . S
O216 Cd212 2.273 1_556 S
O216 Cd214 2.411 . S
O216 C219 1.320 . S
O217 Cd214 2.333 1_655 S
O217 C219 1.214 1_655 S
O218 Cd214 2.352 . S
O218 C221 1.258 . S
C219 O216 1.320 . S
C219 O217 1.214 1_455 S
O220 Cd212 2.277 1_656 S
O220 C215 1.209 . S
C221 O218 1.258 . S
C221 O223 1.282 1_455 S
O222 Cd214 2.277 1_655 S
O222 C215 1.226 . S
O223 Cd214 2.356 1_655 S
O223 C221 1.282 1_655 S
C224 C225 1.387 . S
C224 H228 0.950 . S
C224 C233 1.390 . S
C225 C224 1.387 . S
C225 C227 1.387 . S
H226 C233 0.950 . S
C227 C225 1.387 . S
C227 C229 1.390 . S
C227 H231 0.950 . S
H228 C224 0.950 . S
C229 C227 1.390 . S
C229 C230 1.387 . S
C229 H232 0.950 . S
C230 C229 1.387 . S
C230 C233 1.387 . S
H231 C227 0.950 . S
H232 C229 0.950 . S
C233 C224 1.390 . S
C233 H226 0.950 . S
C233 C230 1.387 . S
C234 C235 1.387 . S
C234 H238 0.950 . S
C234 C243 1.390 . S
C235 C234 1.387 . S
C235 C237 1.387 . S
H236 C243 0.950 . S
C237 C235 1.387 . S
C237 C239 1.390 . S
C237 H241 0.950 . S
H238 C234 0.950 . S
C239 C237 1.390 . S
C239 C240 1.387 . S
C239 H242 0.950 . S
C240 C239 1.387 . S
C240 C243 1.387 . S
H241 C237 0.950 . S
H242 C239 0.950 . S
C243 C234 1.390 . S
C243 H236 0.950 . S
C243 C240 1.387 . S
C244 C245 1.387 . S
C244 H248 0.950 . S
C244 C253 1.390 . S
C245 C244 1.387 . S
C245 C247 1.387 . S
H246 C253 0.950 . S
C247 C245 1.387 . S
C247 C249 1.390 . S
C247 H251 0.950 . S
H248 C244 0.950 . S
C249 C247 1.390 . S
C249 C250 1.387 . S
C249 H252 0.950 . S
C250 C249 1.387 . S
C250 C253 1.387 . S
H251 C247 0.950 . S
H252 C249 0.950 . S
C253 C244 1.390 . S
C253 H246 0.950 . S
C253 C250 1.387 . S
C254 C255 1.387 . S
C254 H258 0.950 . S
C254 C263 1.390 . S
C255 C254 1.387 . S
C255 C257 1.387 1_556 S
H256 C263 0.950 . S
C257 C255 1.387 1_554 S
C257 C259 1.390 . S
C257 H261 0.950 . S
H258 C254 0.950 . S
C259 C257 1.390 . S
C259 C260 1.387 1_554 S
C259 H262 0.950 . S
C260 C259 1.387 1_556 S
C260 C263 1.387 . S
H261 C257 0.950 . S
H262 C259 0.950 . S
C263 C254 1.390 . S
C263 H256 0.950 . S
C263 C260 1.387 . S
C264 C265 1.387 . S
C264 H268 0.950 . S
C264 C273 1.390 . S
C265 C264 1.387 . S
C265 C267 1.387 1_556 S
H266 C273 0.950 . S
C267 C265 1.387 1_554 S
C267 C269 1.390 . S
C267 H271 0.950 . S
H268 C264 0.950 . S
C269 C267 1.390 . S
C269 C270 1.387 1_554 S
C269 H272 0.950 . S
C270 C269 1.387 1_556 S
C270 C273 1.387 . S
H271 C267 0.950 . S
H272 C269 0.950 . S
C273 C264 1.390 . S
C273 H266 0.950 . S
C273 C270 1.387 . S
C274 C275 1.387 . S
C274 H278 0.950 . S
C274 C283 1.390 . S
C275 C274 1.387 . S
C275 C277 1.387 . S
H276 C283 0.950 . S
C277 C275 1.387 . S
C277 C279 1.390 . S
C277 H281 0.950 . S
H278 C274 0.950 . S
C279 C277 1.390 . S
C279 C280 1.387 . S
C279 H282 0.950 . S
C280 C279 1.387 . S
C280 C283 1.387 . S
H281 C277 0.950 . S
H282 C279 0.950 . S
C283 C274 1.390 . S
C283 H276 0.950 . S
C283 C280 1.387 . S
C284 C285 1.387 . S
C284 H288 0.950 . S
C284 C293 1.390 . S
C285 C284 1.387 . S
C285 C287 1.387 . S
H286 C293 0.950 . S
C287 C285 1.387 . S
C287 C289 1.390 . S
C287 H291 0.950 . S
H288 C284 0.950 . S
C289 C287 1.390 . S
C289 C290 1.387 . S
C289 H292 0.950 . S
C290 C289 1.387 . S
C290 C293 1.387 . S
H291 C287 0.950 . S
H292 C289 0.950 . S
C293 C284 1.390 . S
C293 H286 0.950 . S
C293 C290 1.387 . S
C294 C295 1.387 . S
C294 H298 0.950 . S
C294 C303 1.390 . S
C295 C294 1.387 . S
C295 C297 1.387 . S
H296 C303 0.950 . S
C297 C295 1.387 . S
C297 C299 1.390 . S
C297 H301 0.950 . S
H298 C294 0.950 . S
C299 C297 1.390 . S
C299 C300 1.387 . S
C299 H302 0.950 . S
C300 C299 1.387 . S
C300 C303 1.387 . S
H301 C297 0.950 . S
H302 C299 0.950 . S
C303 C294 1.390 . S
C303 H296 0.950 . S
C303 C300 1.387 . S
C304 C305 1.387 . S
C304 H308 0.950 . S
C304 C313 1.390 . S
C305 C304 1.387 . S
C305 C307 1.387 . S
H306 C313 0.950 . S
C307 C305 1.387 . S
C307 C309 1.390 . S
C307 H311 0.950 . S
H308 C304 0.950 . S
C309 C307 1.390 . S
C309 C310 1.387 . S
C309 H312 0.950 . S
C310 C309 1.387 . S
C310 C313 1.387 . S
H311 C307 0.950 . S
H312 C309 0.950 . S
C313 C304 1.390 . S
C313 H306 0.950 . S
C313 C310 1.387 . S
C314 C315 1.387 . S
C314 H318 0.950 . S
C314 C323 1.390 . S
C315 C314 1.387 . S
C315 C317 1.387 . S
H316 C323 0.950 . S
C317 C315 1.387 . S
C317 C319 1.390 . S
C317 H321 0.950 . S
H318 C314 0.950 . S
C319 C317 1.390 . S
C319 C320 1.387 . S
C319 H322 0.950 . S
C320 C319 1.387 . S
C320 C323 1.387 . S
H321 C317 0.950 . S
H322 C319 0.950 . S
C323 C314 1.390 . S
C323 H316 0.950 . S
C323 C320 1.387 . S
C324 C325 1.387 . S
C324 H328 0.950 . S
C324 C333 1.390 . S
C325 C324 1.387 . S
C325 C327 1.387 . S
H326 C333 0.950 . S
C327 C325 1.387 . S
C327 C329 1.390 . S
C327 H331 0.950 . S
H328 C324 0.950 . S
C329 C327 1.390 . S
C329 C330 1.387 . S
C329 H332 0.950 . S
C330 C329 1.387 . S
C330 C333 1.387 . S
H331 C327 0.950 . S
H332 C329 0.950 . S
C333 C324 1.390 . S
C333 H326 0.950 . S
C333 C330 1.387 . S
C334 C335 1.387 . S
C334 H338 0.950 . S
C334 C343 1.390 . S
C335 C334 1.387 . S
C335 C337 1.387 . S
H336 C343 0.950 . S
C337 C335 1.387 . S
C337 C339 1.390 . S
C337 H341 0.950 . S
H338 C334 0.950 . S
C339 C337 1.390 . S
C339 C340 1.387 . S
C339 H342 0.950 . S
C340 C339 1.387 . S
C340 C343 1.387 . S
H341 C337 0.950 . S
H342 C339 0.950 . S
C343 C334 1.390 . S
C343 H336 0.950 . S
C343 C340 1.387 . S
C344 C345 1.387 . S
C344 H348 0.950 . S
C344 C353 1.390 . S
C345 C344 1.387 . S
C345 C347 1.387 . S
H346 C353 0.950 . S
C347 C345 1.387 . S
C347 C349 1.390 . S
C347 H351 0.950 . S
H348 C344 0.950 . S
C349 C347 1.390 . S
C349 C350 1.387 . S
C349 H352 0.950 . S
C350 C349 1.387 . S
C350 C353 1.387 . S
H351 C347 0.950 . S
H352 C349 0.950 . S
C353 C344 1.390 . S
C353 H346 0.950 . S
C353 C350 1.387 . S
C354 C355 1.387 . S
C354 H358 0.950 . S
C354 C363 1.390 . S
C355 C354 1.387 . S
C355 C357 1.387 . S
H356 C363 0.950 . S
C357 C355 1.387 . S
C357 C359 1.390 1_556 S
C357 H361 0.950 . S
H358 C354 0.950 . S
C359 C357 1.390 1_554 S
C359 C360 1.387 1_554 S
C359 H362 0.950 . S
C360 C359 1.387 1_556 S
C360 C363 1.387 . S
H361 C357 0.950 . S
H362 C359 0.950 . S
C363 C354 1.390 . S
C363 H356 0.950 . S
C363 C360 1.387 . S
C364 C365 1.387 . S
C364 H368 0.950 . S
C364 C373 1.390 . S
C365 C364 1.387 . S
C365 C367 1.387 . S
H366 C373 0.950 . S
C367 C365 1.387 . S
C367 C369 1.390 . S
C367 H371 0.950 . S
H368 C364 0.950 . S
C369 C367 1.390 . S
C369 C370 1.387 . S
C369 H372 0.950 . S
C370 C369 1.387 . S
C370 C373 1.387 . S
H371 C367 0.950 . S
H372 C369 0.950 . S
C373 C364 1.390 . S
C373 H366 0.950 . S
C373 C370 1.387 . S
C374 C375 1.387 . S
C374 H378 0.950 . S
C374 C383 1.390 . S
C375 C374 1.387 . S
C375 C377 1.387 . S
H376 C383 0.950 . S
C377 C375 1.387 . S
C377 C379 1.390 . S
C377 H381 0.950 . S
H378 C374 0.950 . S
C379 C377 1.390 . S
C379 C380 1.387 . S
C379 H382 0.950 . S
C380 C379 1.387 . S
C380 C383 1.387 . S
H381 C377 0.950 . S
H382 C379 0.950 . S
C383 C374 1.390 . S
C383 H376 0.950 . S
C383 C380 1.387 . S
C384 C385 1.387 1_655 S
C384 H388 0.950 . S
C384 C393 1.390 . S
C385 C384 1.387 1_455 S
C385 C387 1.387 . S
H386 C393 0.950 . S
C387 C385 1.387 . S
C387 C389 1.390 . S
C387 H391 0.950 . S
H388 C384 0.950 . S
C389 C387 1.390 . S
C389 C390 1.387 . S
C389 H392 0.950 . S
C390 C389 1.387 . S
C390 C393 1.387 1_455 S
H391 C387 0.950 . S
H392 C389 0.950 . S
C393 C384 1.390 . S
C393 H386 0.950 . S
C393 C390 1.387 1_655 S
C394 C395 1.387 . S
C394 H398 0.950 . S
C394 C403 1.390 . S
C395 C394 1.387 . S
C395 C397 1.387 . S
H396 C403 0.950 . S
C397 C395 1.387 . S
C397 C399 1.390 . S
C397 H401 0.950 . S
H398 C394 0.950 . S
C399 C397 1.390 . S
C399 C400 1.387 . S
C399 H402 0.950 . S
C400 C399 1.387 . S
C400 C403 1.387 . S
H401 C397 0.950 . S
H402 C399 0.950 . S
C403 C394 1.390 . S
C403 H396 0.950 . S
C403 C400 1.387 . S
C404 C405 1.387 . S
C404 H408 0.950 . S
C404 C413 1.390 . S
C405 C404 1.387 . S
C405 C407 1.387 . S
H406 C413 0.950 . S
C407 C405 1.387 . S
C407 C409 1.390 . S
C407 H411 0.950 . S
H408 C404 0.950 . S
C409 C407 1.390 . S
C409 C410 1.387 . S
C409 H412 0.950 . S
C410 C409 1.387 . S
C410 C413 1.387 . S
H411 C407 0.950 . S
H412 C409 0.950 . S
C413 C404 1.390 . S
C413 H406 0.950 . S
C413 C410 1.387 . S
C414 C415 1.387 . S
C414 H418 0.950 . S
C414 C423 1.390 . S
C415 C414 1.387 . S
C415 C417 1.387 . S
H416 C423 0.950 . S
C417 C415 1.387 . S
C417 C419 1.390 . S
C417 H421 0.950 . S
H418 C414 0.950 . S
C419 C417 1.390 . S
C419 C420 1.387 . S
C419 H422 0.950 . S
C420 C419 1.387 . S
C420 C423 1.387 . S
H421 C417 0.950 . S
H422 C419 0.950 . S
C423 C414 1.390 . S
C423 H416 0.950 . S
C423 C420 1.387 . S
C424 C425 1.387 . S
C424 H428 0.950 . S
C424 C433 1.390 . S
C425 C424 1.387 . S
C425 C427 1.387 . S
H426 C433 0.950 . S
C427 C425 1.387 . S
C427 C429 1.390 . S
C427 H431 0.950 . S
H428 C424 0.950 . S
C429 C427 1.390 . S
C429 C430 1.387 . S
C429 H432 0.950 . S
C430 C429 1.387 . S
C430 C433 1.387 . S
H431 C427 0.950 . S
H432 C429 0.950 . S
C433 C424 1.390 . S
C433 H426 0.950 . S
C433 C430 1.387 . S
C434 C435 1.387 . S
C434 H438 0.950 . S
C434 C443 1.390 . S
C435 C434 1.387 . S
C435 C437 1.387 . S
H436 C443 0.950 . S
C437 C435 1.387 . S
C437 C439 1.390 . S
C437 H441 0.950 . S
H438 C434 0.950 . S
C439 C437 1.390 . S
C439 C440 1.387 . S
C439 H442 0.950 . S
C440 C439 1.387 . S
C440 C443 1.387 . S
H441 C437 0.950 . S
H442 C439 0.950 . S
C443 C434 1.390 . S
C443 H436 0.950 . S
C443 C440 1.387 . S
C444 C445 1.387 . S
C444 H448 0.950 . S
C444 C453 1.390 1_565 S
C445 C444 1.387 . S
C445 C447 1.387 . S
H446 C453 0.950 . S
C447 C445 1.387 . S
C447 C449 1.390 1_565 S
C447 H451 0.950 . S
H448 C444 0.950 . S
C449 C447 1.390 1_545 S
C449 C450 1.387 . S
C449 H452 0.950 . S
C450 C449 1.387 . S
C450 C453 1.387 . S
H451 C447 0.950 . S
H452 C449 0.950 . S
C453 C444 1.390 1_545 S
C453 H446 0.950 . S
C453 C450 1.387 . S
C454 C455 1.387 . S
C454 H458 0.950 . S
C454 C463 1.390 1_545 S
C455 C454 1.387 . S
C455 C457 1.387 1_455 S
H456 C463 0.950 . S
C457 C455 1.387 1_655 S
C457 C459 1.390 1_545 S
C457 H461 0.950 . S
H458 C454 0.950 . S
C459 C457 1.390 1_565 S
C459 C460 1.387 1_655 S
C459 H462 0.950 . S
C460 C459 1.387 1_455 S
C460 C463 1.387 . S
H461 C457 0.950 . S
H462 C459 0.950 . S
C463 C454 1.390 1_565 S
C463 H456 0.950 . S
C463 C460 1.387 . S
C464 C465 1.387 1_455 S
C464 H468 0.950 . S
C464 C473 1.390 . S
C465 C464 1.387 1_655 S
C465 C467 1.387 . S
H466 C473 0.950 . S
C467 C465 1.387 . S
C467 C469 1.390 . S
C467 H471 0.950 . S
H468 C464 0.950 . S
C469 C467 1.390 . S
C469 C470 1.387 . S
C469 H472 0.950 . S
C470 C469 1.387 . S
C470 C473 1.387 1_655 S
H471 C467 0.950 . S
H472 C469 0.950 . S
C473 C464 1.390 . S
C473 H466 0.950 . S
C473 C470 1.387 1_455 S
C474 C475 1.387 . S
C474 H478 0.950 . S
C474 C483 1.390 . S
C475 C474 1.387 . S
C475 C477 1.387 . S
H476 C483 0.950 . S
C477 C475 1.387 . S
C477 C479 1.390 . S
C477 H481 0.950 . S
H478 C474 0.950 . S
C479 C477 1.390 . S
C479 C480 1.387 . S
C479 H482 0.950 . S
C480 C479 1.387 . S
C480 C483 1.387 . S
H481 C477 0.950 . S
H482 C479 0.950 . S
C483 C474 1.390 . S
C483 H476 0.950 . S
C483 C480 1.387 . S
C484 C485 1.387 . S
C484 H488 0.950 . S
C484 C493 1.390 . S
C485 C484 1.387 . S
C485 C487 1.387 . S
H486 C493 0.950 . S
C487 C485 1.387 . S
C487 C489 1.390 . S
C487 H491 0.950 . S
H488 C484 0.950 . S
C489 C487 1.390 . S
C489 C490 1.388 . S
C489 H492 0.950 . S
C490 C489 1.388 . S
C490 C493 1.388 . S
H491 C487 0.950 . S
H492 C489 0.950 . S
C493 C484 1.390 . S
C493 H486 0.950 . S
C493 C490 1.388 . S
C494 C495 1.387 . S
C494 H498 0.950 . S
C494 C503 1.390 . S
C495 C494 1.387 . S
C495 C497 1.387 . S
H496 C503 0.950 . S
C497 C495 1.387 . S
C497 C499 1.390 . S
C497 H501 0.950 . S
H498 C494 0.950 . S
C499 C497 1.390 . S
C499 C500 1.387 . S
C499 H502 0.950 . S
C500 C499 1.387 . S
C500 C503 1.387 . S
H501 C497 0.950 . S
H502 C499 0.950 . S
C503 C494 1.390 . S
C503 H496 0.950 . S
C503 C500 1.387 . S
C504 C505 1.387 . S
C504 H508 0.950 . S
C504 C513 1.390 . S
C505 C504 1.387 . S
C505 C507 1.387 . S
H506 C513 0.950 . S
C507 C505 1.387 . S
C507 C509 1.390 . S
C507 H511 0.950 . S
H508 C504 0.950 . S
C509 C507 1.390 . S
C509 C510 1.387 . S
C509 H512 0.950 . S
C510 C509 1.387 . S
C510 C513 1.387 . S
H511 C507 0.950 . S
H512 C509 0.950 . S
C513 C504 1.390 . S
C513 H506 0.950 . S
C513 C510 1.387 . S
C514 C515 1.387 . S
C514 H518 0.950 . S
C514 C523 1.390 . S
C515 C514 1.387 . S
C515 C517 1.387 . S
H516 C523 0.950 . S
C517 C515 1.387 . S
C517 C519 1.390 . S
C517 H521 0.950 . S
H518 C514 0.950 . S
C519 C517 1.390 . S
C519 C520 1.387 . S
C519 H522 0.950 . S
C520 C519 1.387 . S
C520 C523 1.387 . S
H521 C517 0.950 . S
H522 C519 0.950 . S
C523 C514 1.390 . S
C523 H516 0.950 . S
C523 C520 1.387 . S
C524 C525 1.387 . S
C524 H528 0.950 . S
C524 C533 1.390 1_565 S
C525 C524 1.387 . S
C525 C527 1.387 . S
H526 C533 0.950 . S
C527 C525 1.387 . S
C527 C529 1.390 1_565 S
C527 H531 0.950 . S
H528 C524 0.950 . S
C529 C527 1.390 1_545 S
C529 C530 1.388 . S
C529 H532 0.950 . S
C530 C529 1.388 . S
C530 C533 1.388 . S
H531 C527 0.950 . S
H532 C529 0.950 . S
C533 C524 1.390 1_545 S
C533 H526 0.950 . S
C533 C530 1.388 . S
C534 C535 1.387 1_655 S
C534 H538 0.950 . S
C534 C543 1.390 1_545 S
C535 C534 1.387 1_455 S
C535 C537 1.387 . S
H536 C543 0.950 . S
C537 C535 1.387 . S
C537 C539 1.390 1_545 S
C537 H541 0.950 . S
H538 C534 0.950 . S
C539 C537 1.390 1_565 S
C539 C540 1.387 . S
C539 H542 0.950 . S
C540 C539 1.387 . S
C540 C543 1.387 1_455 S
H541 C537 0.950 . S
H542 C539 0.950 . S
C543 C534 1.390 1_565 S
C543 H536 0.950 . S
C543 C540 1.387 1_655 S
C225 C131 1.484 . S
C230 C5 1.484 . S
C235 C201 1.484 . S
C240 C19 1.484 . S
C245 C33 1.484 . S
C250 C117 1.484 . S
C255 C47 1.484 . S
C260 C215 1.484 . S
C265 C61 1.483 . S
C270 C145 1.484 . S
C275 C187 1.484 . S
C280 C75 1.483 . S
C285 C159 1.484 . S
C290 C89 1.484 . S
C295 C103 1.484 . S
C300 C173 1.484 . S
C305 C56 1.563 . S
C310 C42 1.563 1_556 S
C315 C168 1.566 . S
C320 C112 1.566 . S
C325 C84 1.567 . S
C330 C14 1.566 . S
C335 C126 1.565 . S
C340 C182 1.565 . S
C345 C0 1.565 . S
C350 C70 1.565 . S
C355 C210 1.567 . S
C360 C140 1.566 1_556 S
C365 C98 1.565 . S
C370 C28 1.566 . S
C375 C154 1.566 . S
C380 C196 1.565 . S
C385 C9 0.872 . S
C390 C65 0.872 1_554 S
C395 C79 0.872 . S
C400 C23 0.872 . S
C405 C93 0.873 . S
C410 C37 0.873 . S
C415 C51 0.873 . S
C420 C107 0.873 . S
C425 C149 0.873 . S
C430 C121 0.873 . S
C435 C163 0.872 . S
C440 C135 0.872 . S
C445 C205 0.872 . S
C450 C177 0.872 . S
C455 C219 0.872 1_554 S
C460 C191 0.872 . S
C465 C67 1.678 1_655 S
C470 C11 1.678 1_655 S
C475 C81 1.679 . S
C480 C25 1.679 . S
C485 C95 1.678 . S
C490 C39 1.677 1_554 S
C495 C53 1.679 . S
C500 C109 1.679 . S
C505 C123 1.679 . S
C510 C151 1.679 . S
C515 C165 1.679 . S
C520 C137 1.679 . S
C525 C207 1.678 . S
C530 C179 1.677 1_554 S
C535 C221 1.678 . S
C540 C193 1.678 . S
