# Generated by pormake.
# Topology uni, (4)-cn, num edge types: 1
# Building blocks:
#     Node 0, Type 0, BuildingBlock: KUFVIS_clean_sbu_0, # of connection points: 4
#     Node 1, Type 0, BuildingBlock: KUFVIS_clean_sbu_0, # of connection points: 4
#     Node 2, Type 0, BuildingBlock: KUFVIS_clean_sbu_0, # of connection points: 4
#     Node 3, Type 0, BuildingBlock: KUFVIS_clean_sbu_0, # of connection points: 4
#     Node 4, Type 0, BuildingBlock: KUFVIS_clean_sbu_0, # of connection points: 4
#     Node 5, Type 0, BuildingBlock: KUFVIS_clean_sbu_0, # of connection points: 4
#     Edge 6, Type (0, 0), BuildingBlock: TEMPAE_clean_linker_10, # of connection points: 2
#     Edge 7, Type (0, 0), BuildingBlock: TEMPAE_clean_linker_10, # of connection points: 2
#     Edge 8, Type (0, 0), BuildingBlock: TEMPAE_clean_linker_10, # of connection points: 2
#     Edge 9, Type (0, 0), BuildingBlock: TEMPAE_clean_linker_10, # of connection points: 2
#     Edge 10, Type (0, 0), BuildingBlock: TEMPAE_clean_linker_10, # of connection points: 2
#     Edge 11, Type (0, 0), BuildingBlock: TEMPAE_clean_linker_10, # of connection points: 2
#     Edge 12, Type (0, 0), BuildingBlock: TEMPAE_clean_linker_10, # of connection points: 2
#     Edge 13, Type (0, 0), BuildingBlock: TEMPAE_clean_linker_10, # of connection points: 2
#     Edge 14, Type (0, 0), BuildingBlock: TEMPAE_clean_linker_10, # of connection points: 2
#     Edge 15, Type (0, 0), BuildingBlock: TEMPAE_clean_linker_10, # of connection points: 2
#     Edge 16, Type (0, 0), BuildingBlock: TEMPAE_clean_linker_10, # of connection points: 2
#     Edge 17, Type (0, 0), BuildingBlock: TEMPAE_clean_linker_10, # of connection points: 2
# Relax obj value: 0.055
# Max RMSD: 0.074
# Mean RMSD: 0.074
data_MOF--net-uni--node1-KUFVIS_clean_sbu_0--edge1-TEMPAE_clean_linker_10
_symmetry_space_group_name_H-M    P1
_symmetry_Int_Tables_number       1
_symmetry_cell_setting            triclinic
loop_
_symmetry_equiv_pos_as_xyz
'x, y, z'
_cell_length_a     38.710168
_cell_length_b     38.715126
_cell_length_c     23.265226
_cell_angle_alpha  89.990487
_cell_angle_beta   90.012711
_cell_angle_gamma 119.99904
loop_
_atom_site_label
_atom_site_type_symbol
_atom_site_fract_x
_atom_site_fract_y
_atom_site_fract_z
_atom_type_partial_charge
Mn0 Mn 0.65955 0.04019 0.07458 0.0
Mn1 Mn 0.65462 0.12369 0.0985 0.0
C2 C 0.61115 0.03854 0.13591 0.0
C3 C 0.68153 0.99495 0.09439 0.0
C4 C 0.6226 0.07427 0.99058 0.0
O5 O 0.71464 0.08396 0.04767 0.0
O6 O 0.70687 0.13684 0.06473 0.0
C7 C 0.71633 0.15837 0.18941 0.0
N8 N 0.67848 0.14592 0.17105 0.0
C9 C 0.66293 0.1688 0.25812 0.0
C10 C 0.70177 0.18199 0.27795 0.0
C11 C 0.7285 0.17652 0.24358 0.0
C12 C 0.65233 0.15039 0.20418 0.0
H13 H 0.73709 0.15462 0.16286 0.0
C14 C 0.72762 0.1215 0.04725 0.0
O15 O 0.66869 0.99743 0.04395 0.0
O16 O 0.6835 0.02022 0.13285 0.0
N17 N 0.60624 0.11635 0.13166 0.0
C18 C 0.56937 0.10024 0.10733 0.0
C19 C 0.53904 0.10307 0.1362 0.0
C20 C 0.54714 0.12297 0.18923 0.0
C21 C 0.5852 0.13892 0.21374 0.0
C22 C 0.61419 0.13516 0.18298 0.0
H23 H 0.56328 0.08573 0.06594 0.0
O24 O 0.60609 1.0064 0.11085 0.0
O25 O 0.64449 0.07103 0.12445 0.0
O26 O 0.63339 0.04911 1.00382 0.0
O27 O 0.62856 0.1032 0.02327 0.0
C28 C 0.5956 0.1586 0.26727 0.0
C29 C 0.63429 0.17312 0.28974 0.0
H30 H 0.71135 0.19624 0.31953 0.0
H31 H 0.75851 0.18655 0.25862 0.0
H32 H 0.50967 0.0905 0.11723 0.0
H33 H 0.52388 0.12578 0.21077 0.0
H34 H 0.57397 0.16243 0.2918 0.0
H35 H 0.6417 0.18756 0.33138 0.0
Mn36 Mn 0.65366 0.66089 0.24154 0.0
Mn37 Mn 0.56502 0.65553 0.26531 0.0
C38 C 0.60697 0.61232 0.30274 0.0
C39 C 0.72089 0.68312 0.2616 0.0
C40 C 0.58274 0.62378 0.15739 0.0
O41 O 0.66479 0.71594 0.21475 0.0
O42 O 0.604 0.70789 0.23169 0.0
C43 C 0.59167 0.7171 0.35635 0.0
N44 N 0.56643 0.67925 0.33789 0.0
C45 C 0.52783 0.66345 0.42481 0.0
C46 C 0.55332 0.7023 0.44475 0.0
C47 C 0.58554 0.72915 0.4105 0.0
C48 C 0.5358 0.65298 0.3709 0.0
H49 H 0.6162 0.73796 0.32988 0.0
C50 C 0.64011 0.72878 0.21433 0.0
O51 O 0.70572 0.67035 0.21107 0.0
O52 O 0.69744 0.68488 0.29999 0.0
N53 N 0.52407 0.60703 0.29831 0.0
C54 C 0.50349 0.57018 0.27391 0.0
C55 C 0.47036 0.53974 0.30267 0.0
C56 C 0.4584 0.5477 0.35567 0.0
C57 C 0.48032 0.58574 0.38025 0.0
C58 C 0.51306 0.61485 0.34961 0.0
H59 H 0.51203 0.56419 0.23255 0.0
O60 O 0.63415 0.60742 0.2777 0.0
O61 O 0.60767 0.64559 0.29131 0.0
O62 O 0.61872 0.63471 0.17067 0.0
O63 O 0.55967 0.6296 0.19004 0.0
C64 C 0.47086 0.59601 0.43375 0.0
C65 C 0.49486 0.63469 0.45631 0.0
H66 H 0.54852 0.71178 0.48632 0.0
H67 H 0.60539 0.75916 0.42562 0.0
H68 H 0.4537 0.51038 0.28364 0.0
H69 H 0.43234 0.52434 0.37712 0.0
H70 H 0.44541 0.57429 0.45819 0.0
H71 H 0.48771 0.642 0.49794 0.0
Mn72 Mn 0.02661 0.65421 0.40778 0.0
Mn73 Mn 0.94303 0.56584 0.43169 0.0
C74 C 0.02816 0.60748 0.46928 0.0
C75 C 0.07185 0.72143 0.42747 0.0
C76 C 0.99257 0.58309 0.32396 0.0
O77 O 0.98291 0.66557 0.38065 0.0
O78 O 0.92997 0.60491 0.39751 0.0
C79 C 0.90832 0.59311 0.52219 0.0
N80 N 0.92073 0.56764 0.50409 0.0
C81 C 0.89778 0.52943 0.59134 0.0
C82 C 0.88463 0.55516 0.61091 0.0
C83 C 0.89016 0.58729 0.57631 0.0
C84 C 0.91621 0.53709 0.53743 0.0
H85 H 0.91213 0.61758 0.49547 0.0
C86 C 0.94538 0.64099 0.37996 0.0
O87 O 0.06941 0.70606 0.37709 0.0
O88 O 0.04656 0.69818 0.46594 0.0
N89 N 0.95025 0.52482 0.46518 0.0
C90 C 0.96629 0.50393 0.44106 0.0
C91 C 0.96334 0.47079 0.47014 0.0
C92 C 0.94342 0.45914 0.52316 0.0
C93 C 0.92755 0.48137 0.54745 0.0
C94 C 0.9314 0.51409 0.51649 0.0
H95 H 0.98082 0.51224 0.39968 0.0
O96 O 0.06034 0.63453 0.44425 0.0
O97 O 0.99569 0.60836 0.4577 0.0
O98 O 0.01771 0.61906 0.33713 0.0
O99 O 0.96362 0.56014 0.35663 0.0
C100 C 0.90786 0.47225 0.60097 0.0
C101 C 0.89339 0.49652 0.6232 0.0
H102 H 0.87036 0.5506 0.65246 0.0
H103 H 0.88016 0.60733 0.59115 0.0
H104 H 0.97586 0.4539 0.45133 0.0
H105 H 0.94051 0.43307 0.54484 0.0
H106 H 0.90398 0.44684 0.62568 0.0
H107 H 0.87894 0.48961 0.66483 0.0
Mn108 Mn 0.40591 0.02765 0.57451 0.0
Mn109 Mn 0.41109 0.94429 0.5985 0.0
C110 C 0.45439 0.02944 0.63587 0.0
C111 C 0.38379 0.07277 0.59429 0.0
C112 C 0.44297 0.9937 0.49054 0.0
O113 O 0.35085 0.98378 0.54763 0.0
O114 O 0.35879 0.93101 0.56478 0.0
C115 C 0.34944 0.90951 0.68946 0.0
N116 N 0.38729 0.92203 0.67107 0.0
C117 C 0.40296 0.89919 0.75809 0.0
C118 C 0.36412 0.88593 0.77796 0.0
C119 C 0.33732 0.89134 0.74362 0.0
C120 C 0.4135 0.91762 0.70416 0.0
H121 H 0.32863 0.91322 0.66293 0.0
C122 C 0.33795 0.94625 0.54728 0.0
O123 O 0.39663 0.07031 0.54385 0.0
O124 O 0.3819 0.04754 0.63277 0.0
N125 N 0.45953 0.95175 0.63162 0.0
C126 C 0.49639 0.96793 0.60727 0.0
C127 C 0.52677 0.96516 0.6361 0.0
C128 C 0.51873 0.94524 0.68912 0.0
C129 C 0.48069 0.92922 0.71365 0.0
C130 C 0.45164 0.93293 0.68294 0.0
H131 H 0.50244 0.98245 0.56589 0.0
O132 O 0.45937 0.06154 0.61078 0.0
O133 O 0.42109 0.99691 0.62441 0.0
O134 O 0.43211 0.01881 0.50377 0.0
O135 O 0.43708 0.9648 0.52324 0.0
C136 C 0.47035 0.90951 0.76717 0.0
C137 C 0.43166 0.89492 0.78967 0.0
H138 H 0.35458 0.87165 0.81953 0.0
H139 H 0.30731 0.88126 0.75869 0.0
H140 H 0.55614 0.97779 0.6171 0.0
H141 H 0.54204 0.94247 0.71062 0.0
H142 H 0.49201 0.90572 0.79166 0.0
H143 H 0.42429 0.88046 0.83131 0.0
Mn144 Mn 0.41265 0.4072 0.74129 0.0
Mn145 Mn 0.50104 0.41205 0.76535 0.0
C146 C 0.45938 0.45552 0.80276 0.0
C147 C 0.34541 0.38525 0.76091 0.0
C148 C 0.48373 0.44414 0.65743 0.0
O149 O 0.40131 0.35212 0.71431 0.0
O150 O 0.46194 0.35983 0.7315 0.0
C151 C 0.47393 0.35029 0.8562 0.0
N152 N 0.49936 0.38814 0.83789 0.0
C153 C 0.53776 0.40361 0.92499 0.0
C154 C 0.51208 0.36477 0.94478 0.0
C155 C 0.47987 0.33808 0.91036 0.0
C156 C 0.52998 0.41425 0.87106 0.0
H157 H 0.44941 0.32956 0.82961 0.0
C158 C 0.42586 0.33912 0.71394 0.0
O159 O 0.36081 0.39814 0.71053 0.0
O160 O 0.36865 0.38322 0.79944 0.0
N161 N 0.54209 0.46039 0.79859 0.0
C162 C 0.56289 0.49726 0.7743 0.0
C163 C 0.59605 0.52755 0.80322 0.0
C164 C 0.60783 0.5194 0.85625 0.0
C165 C 0.58569 0.48135 0.88071 0.0
C166 C 0.55293 0.45239 0.84991 0.0
H167 H 0.55449 0.50339 0.73291 0.0
O168 O 0.43233 0.46063 0.77767 0.0
O169 O 0.45851 0.42218 0.79126 0.0
O170 O 0.44778 0.43339 0.67063 0.0
O171 O 0.50667 0.43814 0.69013 0.0
C172 C 0.59495 0.4709 0.93424 0.0
C173 C 0.57074 0.43221 0.95666 0.0
H174 H 0.51673 0.35516 0.98635 0.0
H175 H 0.45987 0.30808 0.92536 0.0
H176 H 0.61288 0.55692 0.78428 0.0
H177 H 0.63391 0.54264 0.87782 0.0
H178 H 0.62041 0.49249 0.9588 0.0
H179 H 0.57775 0.42477 0.9983 0.0
Mn180 Mn 0.03916 0.41307 0.90793 0.0
Mn181 Mn 0.1225 0.50164 0.93187 0.0
C182 C 0.03735 0.45973 0.96929 0.0
C183 C 0.99405 0.34583 0.92775 0.0
C184 C 0.07303 0.48406 0.82394 0.0
O185 O 0.08305 0.40191 0.88104 0.0
O186 O 0.13581 0.46263 0.89821 0.0
C187 C 0.15736 0.47485 0.02286 0.0
N188 N 0.14479 0.50014 1.00444 0.0
C189 C 0.16767 0.5387 0.0914 0.0
C190 C 0.18098 0.51316 0.11129 0.0
C191 C 0.17556 0.48094 0.07701 0.0
C192 C 0.14921 0.53077 0.03749 0.0
H193 H 0.15365 0.45033 0.99637 0.0
C194 C 0.12058 0.42655 0.88074 0.0
O195 O 0.99649 0.36112 0.8773 0.0
O196 O 0.01929 0.36917 0.96621 0.0
N197 N 0.115 0.54259 0.96495 0.0
C198 C 0.09878 0.56323 0.94058 0.0
C199 C 0.10154 0.59638 0.96937 0.0
C200 C 0.12149 0.6083 0.02236 0.0
C201 C 0.13756 0.58632 0.04691 0.0
C202 C 0.13386 0.55357 0.01624 0.0
H203 H 0.08423 0.55472 0.89922 0.0
O204 O 1.00524 0.4326 0.94422 0.0
O205 O 0.0699 0.45899 0.95782 0.0
O206 O 0.04794 0.4481 0.83718 0.0
O207 O 0.10195 0.50708 0.8566 0.0
C208 C 0.15731 0.59574 0.1004 0.0
C209 C 0.17195 0.57168 0.12293 0.0
H210 H 0.19528 0.51793 0.15286 0.0
H211 H 0.18568 0.46105 0.09209 0.0
H212 H 0.08887 0.61308 0.95036 0.0
H213 H 0.12424 0.63438 0.04383 0.0
H214 H 0.1611 0.6212 0.12486 0.0
H215 H 0.18643 0.57881 0.16455 0.0
C216 C 0.54339 0.00883 0.18011 0.0
C217 C 0.58455 0.03526 0.18391 0.0
C218 C 0.51826 1.00174 0.2277 0.0
C219 C 0.53472 0.02155 0.28041 0.0
C220 C 0.57627 0.04873 0.28406 0.0
C221 C 0.60073 0.0546 0.23614 0.0
C222 C 0.47426 0.97225 0.22204 0.0
C223 C 0.59504 0.07097 0.339 0.0
C224 C 0.4681 0.02802 0.39557 0.0
C225 C 0.46451 0.99911 0.43527 0.0
C226 C 0.48977 0.03479 0.34437 0.0
C227 C 0.50895 0.01259 0.33251 0.0
C228 C 0.50462 0.98263 0.37166 0.0
C229 C 0.48249 0.97624 0.42245 0.0
C230 C 0.49326 0.06684 0.3042 0.0
C231 C 0.5239 0.95769 0.36032 0.0
H232 H 0.53096 0.99317 0.14006 0.0
H233 H 0.63275 0.07359 0.23999 0.0
H234 H 0.46573 0.94704 0.25219 0.0
H235 H 0.45661 0.9866 0.23388 0.0
H236 H 0.46594 0.96016 0.17774 0.0
H237 H 0.62751 0.09217 0.33415 0.0
H238 H 0.58026 0.08783 0.35291 0.0
H239 H 0.59072 0.04953 0.37372 0.0
H240 H 0.45426 0.0458 0.40467 0.0
H241 H 0.47991 0.95372 0.45261 0.0
H242 H 0.48931 0.05665 0.25891 0.0
H243 H 0.5235 0.09307 0.30871 0.0
H244 H 0.47116 0.07634 0.314 0.0
H245 H 0.51473 0.94324 0.31753 0.0
H246 H 0.51596 0.93419 0.39338 0.0
H247 H 0.55682 0.97706 0.35961 0.0
C248 C 0.58042 0.6018 0.40293 0.0
C249 C 0.58372 0.58568 0.35074 0.0
C250 C 0.56188 0.57732 0.45085 0.0
C251 C 0.54773 0.53582 0.44726 0.0
C252 C 0.55125 0.51941 0.39461 0.0
C253 C 0.56923 0.54456 0.34701 0.0
C254 C 0.55823 0.59604 0.50573 0.0
C255 C 0.53698 0.47546 0.38902 0.0
C256 C 0.5408 0.48376 0.5895 0.0
C257 C 0.49991 0.46565 0.60215 0.0
C258 C 0.55657 0.50587 0.53869 0.0
C259 C 0.53092 0.51004 0.49936 0.0
C260 C 0.48951 0.49072 0.51106 0.0
C261 C 0.47458 0.46909 0.56228 0.0
C262 C 0.60082 0.52531 0.52752 0.0
C263 C 0.46092 0.49402 0.47068 0.0
H264 H 0.59328 0.6338 0.40673 0.0
H265 H 0.57256 0.53217 0.30699 0.0
H266 H 0.57535 0.5918 0.54054 0.0
H267 H 0.56937 0.62847 0.50085 0.0
H268 H 0.52657 0.58115 0.51953 0.0
H269 H 0.54091 0.46719 0.34478 0.0
H270 H 0.55369 0.46707 0.41933 0.0
H271 H 0.50497 0.45769 0.40072 0.0
H272 H 0.56073 0.4813 0.6198 0.0
H273 H 0.44293 0.45513 0.57124 0.0
H274 H 0.61424 0.55821 0.52679 0.0
H275 H 0.60623 0.51618 0.48479 0.0
H276 H 0.6164 0.51747 0.5607 0.0
H277 H 0.46469 0.52415 0.4752 0.0
H278 H 0.42934 0.47174 0.48031 0.0
H279 H 0.46734 0.49019 0.42543 0.0
C280 C 0.09047 0.54105 0.75583 0.0
C281 C 0.06756 0.5002 0.7687 0.0
C282 C 0.08403 0.5568 0.70507 0.0
C283 C 0.05397 0.53119 0.66601 0.0
C284 C 0.03171 0.48982 0.67795 0.0
C285 C 0.03854 0.47491 0.72911 0.0
C286 C 0.10902 0.60101 0.69366 0.0
C287 C 0.99955 0.46129 0.63788 0.0
C288 C 1.01207 0.58105 0.56955 0.0
C289 C 0.03138 0.58415 0.51732 0.0
C290 C 0.01791 0.56245 0.6175 0.0
C291 C 0.04502 0.548 0.61388 0.0
C292 C 0.06479 0.55127 0.56117 0.0
C293 C 0.05774 0.56933 0.51355 0.0
C294 C 0.99572 0.55908 0.67245 0.0
C295 C 0.0942 0.53666 0.55552 0.0
H296 H 0.11306 0.56097 0.78591 0.0
H297 H 0.02072 0.4433 0.73825 0.0
H298 H 0.12344 0.60623 0.65086 0.0
H299 H 0.08969 0.6146 0.69293 0.0
H300 H 0.13255 0.61656 0.7267 0.0
H301 H 0.98991 0.42967 0.64781 0.0
H302 H 0.97342 0.46546 0.64235 0.0
H303 H 1.00972 0.46742 0.59258 0.0
H304 H 0.99312 0.59412 0.57336 0.0
H305 H 0.07337 0.5725 0.4735 0.0
H306 H 0.0172 0.57621 0.70713 0.0
H307 H 0.97883 0.52746 0.68645 0.0
H308 H 0.97455 0.57038 0.66757 0.0
H309 H 0.11945 0.55333 0.58563 0.0
H310 H 0.10625 0.54036 0.51121 0.0
H311 H 0.07979 0.50468 0.56744 0.0
C312 C 0.59755 0.04009 0.89551 0.0
C313 C 0.60108 0.06892 0.9353 0.0
C314 C 0.5759 0.03337 0.84429 0.0
C315 C 0.55666 0.05552 0.83251 0.0
C316 C 0.56091 0.0854 0.87176 0.0
C317 C 0.58304 0.09175 0.92256 0.0
C318 C 0.5725 1.00141 0.80401 0.0
C319 C 0.54156 0.11029 0.86051 0.0
C320 C 0.52216 0.05932 0.68013 0.0
C321 C 0.48101 0.0328 0.68389 0.0
C322 C 0.5473 0.06645 0.72773 0.0
C323 C 0.53087 0.04657 0.78041 0.0
C324 C 0.48934 0.01931 0.78403 0.0
C325 C 0.46487 0.01341 0.7361 0.0
C326 C 0.59128 0.09603 0.72211 0.0
C327 C 0.4706 0.997 0.83894 0.0
H328 H 0.61145 0.02235 0.90454 0.0
H329 H 0.58556 0.1142 0.95279 0.0
H330 H 0.54233 0.97511 0.80856 0.0
H331 H 0.57637 0.01163 0.75875 0.0
H332 H 0.59471 0.99203 0.81371 0.0
H333 H 0.54946 0.13374 0.89363 0.0
H334 H 0.55071 0.12479 0.81775 0.0
H335 H 0.50864 0.09087 0.85978 0.0
H336 H 0.53457 0.07501 0.64009 0.0
H337 H 0.43285 0.99434 0.73992 0.0
H338 H 0.60899 0.08173 0.73387 0.0
H339 H 0.59975 0.12118 0.75235 0.0
H340 H 0.59957 0.10819 0.67784 0.0
H341 H 0.48543 0.98018 0.85279 0.0
H342 H 0.43815 0.97576 0.83407 0.0
H343 H 0.47489 0.01839 0.8737 0.0
C344 C 0.59195 0.59852 0.06254 0.0
C345 C 0.56663 0.60219 0.10213 0.0
C346 C 0.57706 0.57679 0.01137 0.0
C347 C 0.53568 0.55764 0.99944 0.0
C348 C 0.51004 0.56203 0.0385 0.0
C349 C 0.52578 0.58421 0.08926 0.0
C350 C 0.60561 0.57322 0.9713 0.0
C351 C 0.46582 0.54276 0.02709 0.0
C352 C 0.4975 0.52326 0.847 0.0
C353 C 0.4827 0.48209 0.85078 0.0
C354 C 0.51557 0.54838 0.8946 0.0
C355 C 0.51888 0.53189 0.94731 0.0
C356 C 0.50445 0.49033 0.95095 0.0
C357 C 0.48583 0.46589 0.90302 0.0
C358 C 0.53015 0.59239 0.88895 0.0
C359 C 0.50786 0.47152 0.0059 0.0
H360 H 0.62357 0.61235 0.07169 0.0
H361 H 0.50584 0.58684 0.11934 0.0
H362 H 0.60148 0.54294 0.97574 0.0
H363 H 0.59948 0.57728 0.926 0.0
H364 H 0.63723 0.59522 0.98123 0.0
H365 H 0.45025 0.5507 0.06013 0.0
H366 H 0.46058 0.55196 0.9843 0.0
H367 H 0.45227 0.50985 0.02637 0.0
H368 H 0.49431 0.53572 0.80694 0.0
H369 H 0.47277 0.43387 0.90685 0.0
H370 H 0.56214 0.60998 0.90086 0.0
H371 H 0.51346 0.60093 0.91906 0.0
H372 H 0.52643 0.60073 0.84463 0.0
H373 H 0.53949 0.48626 0.01986 0.0
H374 H 0.49657 0.43906 1.00103 0.0
H375 H 0.49074 0.47586 0.04059 0.0
C376 C 1.00743 0.49755 0.01361 0.0
C377 C 0.034 0.48298 0.01732 0.0
C378 C 1.00032 0.51555 0.06122 0.0
C379 C 0.02025 0.51902 0.11387 0.0
C380 C 0.04755 0.5048 0.11744 0.0
C381 C 0.05343 0.48624 0.06951 0.0
C382 C 0.97069 0.5299 0.05565 0.0
C383 C 0.06991 0.50841 0.17232 0.0
C384 C 0.02674 0.5922 0.2289 0.0
C385 C 0.99795 0.5669 0.26873 0.0
C386 C 0.03345 0.57726 0.1777 0.0
C387 C 1.01132 0.53585 0.16598 0.0
C388 C 0.98148 0.51023 0.20528 0.0
C389 C 0.97514 0.52601 0.25607 0.0
C390 C 0.06536 0.60581 0.13736 0.0
C391 C 0.95662 0.46598 0.1941 0.0
H392 H 0.9917 0.49425 0.9736 0.0
H393 H 0.07253 0.47333 0.0733 0.0
H394 H 0.94558 0.51321 0.08596 0.0
H395 H 0.98498 0.5619 0.06737 0.0
H396 H 0.95847 0.52599 0.01141 0.0
H397 H 0.08673 0.54006 0.18613 0.0
H398 H 0.04856 0.4913 0.20712 0.0
H399 H 0.09117 0.49722 0.16742 0.0
H400 H 0.04446 0.62384 0.23787 0.0
H401 H 0.95272 0.50609 0.28633 0.0
H402 H 0.05511 0.59944 0.09211 0.0
H403 H 0.09169 0.60197 0.14187 0.0
H404 H 0.07473 0.6374 0.14702 0.0
H405 H 0.94207 0.4606 0.15137 0.0
H406 H 0.93321 0.45043 0.22727 0.0
H407 H 0.97608 0.45253 0.19334 0.0
C408 C 0.62491 0.78295 0.19167 0.0
C409 C 0.653 0.77008 0.19422 0.0
C410 C 0.63565 0.8217 0.17444 0.0
C411 C 0.67566 0.84881 0.15917 0.0
C412 C 0.70435 0.83626 0.16136 0.0
C413 C 0.6927 0.797 0.17881 0.0
C414 C 0.60393 0.83359 0.17259 0.0
C415 C 0.7473 0.86435 0.14547 0.0
C416 C 0.68237 0.93281 0.06726 0.0
C417 C 0.68846 0.96153 0.10896 0.0
C418 C 0.68129 0.89713 0.08229 0.0
C419 C 0.68653 0.88994 0.14045 0.0
C420 C 0.69583 0.92017 0.18192 0.0
C421 C 0.69661 0.95558 0.16572 0.0
C422 C 0.67134 0.86583 0.0366 0.0
C423 C 0.70196 0.91392 0.24429 0.0
H424 H 0.59412 0.76268 0.20331 0.0
H425 H 0.71471 0.78753 0.18073 0.0
H426 H 0.6123 0.85942 0.20142 0.0
H427 H 0.60147 0.84297 0.12843 0.0
H428 H 0.57416 0.80895 0.18585 0.0
H429 H 0.76601 0.85014 0.14946 0.0
H430 H 0.74917 0.87485 0.10061 0.0
H431 H 0.7599 0.89107 0.17357 0.0
H432 H 0.67634 0.93721 0.02318 0.0
H433 H 0.70159 0.97767 0.1982 0.0
H434 H 0.64025 0.84116 0.04278 0.0
H435 H 0.69117 0.85292 0.0401 0.0
H436 H 0.67398 0.87804 0.99258 0.0
H437 H 0.67282 0.89247 0.26383 0.0
H438 H 0.71503 0.94217 0.26919 0.0
H439 H 0.72175 0.90098 0.24833 0.0
C440 C 0.87651 0.62556 0.35349 0.0
C441 C 0.91718 0.65399 0.35933 0.0
C442 C 0.84855 0.63643 0.33644 0.0
C443 C 0.86122 0.6769 0.32472 0.0
C444 C 0.90222 0.70589 0.32984 0.0
C445 C 0.92978 0.6941 0.34704 0.0
C446 C 0.80521 0.60438 0.3313 0.0
C447 C 0.91684 0.74932 0.31767 0.0
C448 C 0.78488 0.68617 0.23402 0.0
C449 C 0.76127 0.69015 0.27634 0.0
C450 C 0.81956 0.6851 0.24868 0.0
C451 C 0.83093 0.68801 0.30713 0.0
C452 C 0.80894 0.69517 0.3495 0.0
C453 C 0.77437 0.69616 0.33361 0.0
C454 C 0.84215 0.67764 0.20203 0.0
C455 C 0.82007 0.69864 0.41226 0.0
H456 H 0.86619 0.59443 0.3625 0.0
H457 H 0.96103 0.71635 0.3515 0.0
H458 H 0.78671 0.611 0.36073 0.0
H459 H 0.79443 0.6038 0.28693 0.0
H460 H 0.80028 0.57423 0.34172 0.0
H461 H 0.94971 0.76807 0.32232 0.0
H462 H 0.90839 0.75287 0.27342 0.0
H463 H 0.90238 0.76057 0.34755 0.0
H464 H 0.77523 0.68185 0.18956 0.0
H465 H 0.75646 0.69946 0.3666 0.0
H466 H 0.83597 0.64645 0.2051 0.0
H467 H 0.87477 0.69754 0.20736 0.0
H468 H 0.83344 0.68223 0.15842 0.0
H469 H 0.81256 0.66884 0.42897 0.0
H470 H 0.80398 0.71011 0.43848 0.0
H471 H 0.85263 0.71867 0.41801 0.0
C472 C 0.11119 0.77597 0.49868 0.0
C473 C 0.10524 0.76183 0.44196 0.0
C474 C 0.14658 0.81065 0.51482 0.0
C475 C 0.17679 0.83157 0.47331 0.0
C476 C 0.16959 0.81911 0.41518 0.0
C477 C 0.13392 0.78446 0.40022 0.0
C478 C 0.15284 0.82306 0.57717 0.0
C479 C 0.20086 0.84045 0.36946 0.0
C480 C 0.26975 0.93067 0.51166 0.0
C481 C 0.29666 0.91789 0.52711 0.0
C482 C 0.23049 0.90307 0.49418 0.0
C483 C 0.21793 0.86184 0.49202 0.0
C484 C 0.24503 0.84892 0.50729 0.0
C485 C 0.28378 0.87692 0.52455 0.0
C486 C 0.20241 0.91794 0.47826 0.0
C487 C 0.23313 0.80531 0.50546 0.0
H488 H 0.08911 0.75886 0.53119 0.0
H489 H 0.12952 0.77399 0.35616 0.0
H490 H 0.1743 0.8154 0.59673 0.0
H491 H 0.16577 0.85579 0.58115 0.0
H492 H 0.12459 0.80789 0.60208 0.0
H493 H 0.18862 0.83088 0.32545 0.0
H494 H 0.21378 0.87319 0.37295 0.0
H495 H 0.22553 0.83403 0.37561 0.0
H496 H 0.27923 0.96214 0.51358 0.0
H497 H 0.30405 0.8664 0.53621 0.0
H498 H 0.17571 0.90386 0.50641 0.0
H499 H 0.19186 0.90926 0.43343 0.0
H500 H 0.21665 0.95086 0.48216 0.0
H501 H 0.2073 0.78786 0.5343 0.0
H502 H 0.25777 0.80018 0.51872 0.0
H503 H 0.22374 0.79348 0.4613 0.0
C504 C 0.44092 0.28499 0.69044 0.0
C505 C 0.41283 0.29784 0.69366 0.0
C506 C 0.43004 0.2462 0.67322 0.0
C507 C 0.3899 0.21905 0.65865 0.0
C508 C 0.36123 0.23159 0.66141 0.0
C509 C 0.37302 0.27089 0.67884 0.0
C510 C 0.46175 0.23432 0.67072 0.0
C511 C 0.31815 0.20346 0.64623 0.0
C512 C 0.38251 0.13467 0.56699 0.0
C513 C 0.37682 0.10617 0.60885 0.0
C514 C 0.38363 0.17038 0.58192 0.0
C515 C 0.37887 0.17783 0.64014 0.0
C516 C 0.36994 0.1478 0.68182 0.0
C517 C 0.36908 0.11234 0.6657 0.0
C518 C 0.39315 0.20145 0.53602 0.0
C519 C 0.36435 0.15434 0.74428 0.0
H520 H 0.4718 0.3053 0.70158 0.0
H521 H 0.35102 0.28035 0.68127 0.0
H522 H 0.45366 0.20861 0.69969 0.0
H523 H 0.46379 0.22475 0.6265 0.0
H524 H 0.49165 0.25902 0.68341 0.0
H525 H 0.29952 0.21775 0.6503 0.0
H526 H 0.31591 0.19263 0.60149 0.0
H527 H 0.30573 0.17694 0.67472 0.0
H528 H 0.38821 0.13008 0.52284 0.0
H529 H 0.36441 0.09042 0.69831 0.0
H530 H 0.4243 0.22613 0.54155 0.0
H531 H 0.37337 0.2144 0.53989 0.0
H532 H 0.39006 0.18901 0.49206 0.0
H533 H 0.39364 0.1759 0.76329 0.0
H534 H 0.35151 0.12621 0.76944 0.0
H535 H 0.34457 0.16728 0.74863 0.0
C536 C 0.19001 0.44161 0.85888 0.0
C537 C 0.14898 0.41364 0.86069 0.0
C538 C 0.21801 0.43087 0.84164 0.0
C539 C 0.20504 0.39097 0.82561 0.0
C540 C 0.16375 0.3624 0.8271 0.0
C541 C 0.13615 0.37406 0.84458 0.0
C542 C 0.26168 0.46246 0.84057 0.0
C543 C 0.14883 0.31958 0.81039 0.0
C544 C 0.28264 0.38484 0.73371 0.0
C545 C 0.30502 0.3783 0.77533 0.0
C546 C 0.24802 0.3859 0.7487 0.0
C547 C 0.2353 0.38014 0.80673 0.0
C548 C 0.25597 0.37037 0.84806 0.0
C549 C 0.29065 0.36966 0.8319 0.0
C550 C 0.22699 0.3964 0.70318 0.0
C551 C 0.24326 0.36366 0.91028 0.0
H552 H 0.20057 0.47231 0.87111 0.0
H553 H 0.10463 0.35214 0.84592 0.0
H554 H 0.27888 0.4537 0.8693 0.0
H555 H 0.27377 0.46531 0.7965 0.0
H556 H 0.26685 0.49214 0.85442 0.0
H557 H 0.11589 0.30092 0.81409 0.0
H558 H 0.15759 0.31809 0.76546 0.0
H559 H 0.1628 0.30666 0.83817 0.0
H560 H 0.29329 0.39126 0.68976 0.0
H561 H 0.30756 0.36432 0.86431 0.0
H562 H 0.23347 0.42745 0.71 0.0
H563 H 0.19422 0.37661 0.70623 0.0
H564 H 0.23677 0.39416 0.65912 0.0
H565 H 0.25095 0.39261 0.93042 0.0
H566 H 0.25821 0.35023 0.93492 0.0
H567 H 0.21049 0.34394 0.91386 0.0
C568 C 0.95441 0.29161 0.99922 0.0
C569 C 0.96065 0.30546 0.94233 0.0
C570 C 0.91893 0.25701 0.01533 0.0
C571 C 0.88895 0.23585 0.97361 0.0
C572 C 0.89648 0.248 0.91536 0.0
C573 C 0.9322 0.2826 0.90044 0.0
C574 C 0.91232 0.24495 0.07782 0.0
C575 C 0.86547 0.22638 0.8694 0.0
C576 C 0.79591 0.13694 0.01237 0.0
C577 C 0.76891 0.14976 0.02699 0.0
C578 C 0.83522 0.16445 0.99498 0.0
C579 C 0.84772 0.20566 0.99205 0.0
C580 C 0.82051 0.21861 0.00641 0.0
C581 C 0.78171 0.19069 0.0236 0.0
C582 C 0.86341 0.14954 0.98003 0.0
C583 C 0.83235 0.26218 1.00372 0.0
H584 H 0.97629 0.3089 0.03186 0.0
H585 H 0.93684 0.29284 0.85626 0.0
H586 H 0.89071 0.25268 0.09666 0.0
H587 H 0.89941 0.21226 0.08228 0.0
H588 H 0.94042 0.2603 0.10306 0.0
H589 H 0.87797 0.23569 0.82547 0.0
H590 H 0.85254 0.19366 0.87338 0.0
H591 H 0.84076 0.23283 0.87476 0.0
H592 H 0.78649 0.10549 0.01493 0.0
H593 H 0.76136 0.20123 0.03457 0.0
H594 H 0.88989 0.16369 0.00861 0.0
H595 H 0.87431 0.15812 0.93531 0.0
H596 H 0.84914 0.11663 0.98417 0.0
H597 H 0.85802 0.27986 0.03273 0.0
H598 H 0.8076 0.26735 0.01626 0.0
H599 H 0.84195 0.27373 0.95949 0.0
loop_
_geom_bond_atom_site_label_1
_geom_bond_atom_site_label_2
_geom_bond_distance
_geom_bond_site_symmetry_2
_ccdc_geom_bond_type
Mn0 O5 2.095 . S
Mn0 O15 2.162 1_545 S
Mn0 O16 2.297 1_545 S
Mn0 O24 2.385 1_545 S
Mn0 O25 2.209 . S
Mn0 O26 2.094 1_554 S
Mn1 O6 2.121 . S
Mn1 N8 2.257 . S
Mn1 N17 2.282 . S
Mn1 O25 2.215 . S
Mn1 O27 2.117 . S
C2 O24 1.234 1_545 S
C2 O25 1.283 . S
C3 O15 1.281 . S
C3 O16 1.236 . S
C4 O26 1.240 . S
C4 O27 1.264 1_556 S
O5 Mn0 2.095 . S
O5 C14 1.250 . S
O6 Mn1 2.121 . S
O6 C14 1.258 . S
C7 N8 1.326 . S
C7 C11 1.460 . S
C7 H13 0.929 . S
N8 Mn1 2.257 . S
N8 C7 1.326 . S
N8 C12 1.362 . S
C9 C10 1.258 . S
C9 C12 1.431 . S
C9 C29 1.449 . S
C10 C9 1.258 . S
C10 C11 1.477 . S
C10 H30 0.931 . S
C11 C7 1.460 . S
C11 C10 1.477 . S
C11 H31 0.930 . S
C12 N8 1.362 . S
C12 C9 1.431 . S
C12 C22 1.476 . S
H13 C7 0.929 . S
C14 O5 1.250 . S
C14 O6 1.258 . S
O15 Mn0 2.162 1_565 S
O15 C3 1.281 . S
O16 Mn0 2.297 1_565 S
O16 C3 1.236 . S
N17 Mn1 2.282 . S
N17 C18 1.328 . S
N17 C22 1.318 . S
C18 N17 1.328 . S
C18 C19 1.457 . S
C18 H23 0.929 . S
C19 C18 1.457 . S
C19 C20 1.291 . S
C19 H32 0.931 . S
C20 C19 1.291 . S
C20 C21 1.373 . S
C20 H33 0.929 . S
C21 C20 1.373 . S
C21 C22 1.396 . S
C21 C28 1.403 . S
C22 C12 1.476 . S
C22 N17 1.318 . S
C22 C21 1.396 . S
H23 C18 0.929 . S
O24 Mn0 2.385 1_565 S
O24 C2 1.234 1_565 S
O25 Mn0 2.209 . S
O25 Mn1 2.215 . S
O25 C2 1.283 . S
O26 Mn0 2.094 1_556 S
O26 C4 1.240 . S
O27 Mn1 2.117 . S
O27 C4 1.264 1_554 S
C28 C21 1.403 . S
C28 C29 1.399 . S
C28 H34 0.929 . S
C29 C9 1.449 . S
C29 C28 1.399 . S
C29 H35 0.930 . S
H30 C10 0.931 . S
H31 C11 0.930 . S
H32 C19 0.931 . S
H33 C20 0.929 . S
H34 C28 0.929 . S
H35 C29 0.930 . S
Mn36 O41 2.095 . S
Mn36 O51 2.162 . S
Mn36 O52 2.297 . S
Mn36 O60 2.385 . S
Mn36 O61 2.209 . S
Mn36 O62 2.094 . S
Mn37 O42 2.121 . S
Mn37 N44 2.257 . S
Mn37 N53 2.282 . S
Mn37 O61 2.215 . S
Mn37 O63 2.117 . S
C38 O60 1.234 . S
C38 O61 1.283 . S
C39 O51 1.281 . S
C39 O52 1.236 . S
C40 O62 1.240 . S
C40 O63 1.264 . S
O41 Mn36 2.095 . S
O41 C50 1.250 . S
O42 Mn37 2.121 . S
O42 C50 1.258 . S
C43 N44 1.326 . S
C43 C47 1.460 . S
C43 H49 0.929 . S
N44 Mn37 2.257 . S
N44 C43 1.326 . S
N44 C48 1.362 . S
C45 C46 1.258 . S
C45 C48 1.431 . S
C45 C65 1.449 . S
C46 C45 1.258 . S
C46 C47 1.477 . S
C46 H66 0.931 . S
C47 C43 1.460 . S
C47 C46 1.477 . S
C47 H67 0.930 . S
C48 N44 1.362 . S
C48 C45 1.431 . S
C48 C58 1.476 . S
H49 C43 0.929 . S
C50 O41 1.250 . S
C50 O42 1.258 . S
O51 Mn36 2.162 . S
O51 C39 1.281 . S
O52 Mn36 2.297 . S
O52 C39 1.236 . S
N53 Mn37 2.282 . S
N53 C54 1.328 . S
N53 C58 1.318 . S
C54 N53 1.328 . S
C54 C55 1.457 . S
C54 H59 0.929 . S
C55 C54 1.457 . S
C55 C56 1.291 . S
C55 H68 0.931 . S
C56 C55 1.291 . S
C56 C57 1.373 . S
C56 H69 0.929 . S
C57 C56 1.373 . S
C57 C58 1.396 . S
C57 C64 1.403 . S
C58 C48 1.476 . S
C58 N53 1.318 . S
C58 C57 1.396 . S
H59 C54 0.929 . S
O60 Mn36 2.385 . S
O60 C38 1.234 . S
O61 Mn36 2.209 . S
O61 Mn37 2.215 . S
O61 C38 1.283 . S
O62 Mn36 2.094 . S
O62 C40 1.240 . S
O63 Mn37 2.117 . S
O63 C40 1.264 . S
C64 C57 1.403 . S
C64 C65 1.399 . S
C64 H70 0.929 . S
C65 C45 1.449 . S
C65 C64 1.399 . S
C65 H71 0.930 . S
H66 C46 0.931 . S
H67 C47 0.930 . S
H68 C55 0.931 . S
H69 C56 0.929 . S
H70 C64 0.929 . S
H71 C65 0.930 . S
Mn72 O77 2.095 1_455 S
Mn72 O87 2.162 . S
Mn72 O88 2.297 . S
Mn72 O96 2.385 . S
Mn72 O97 2.200 1_455 S
Mn72 O98 2.094 . S
Mn73 O78 2.121 . S
Mn73 N80 2.257 . S
Mn73 N89 2.282 . S
Mn73 O97 2.230 . S
Mn73 O99 2.117 . S
C74 O96 1.234 . S
C74 O97 1.257 1_455 S
C75 O87 1.281 . S
C75 O88 1.236 . S
C76 O98 1.240 . S
C76 O99 1.264 1_455 S
O77 Mn72 2.095 1_655 S
O77 C86 1.250 . S
O78 Mn73 2.121 . S
O78 C86 1.258 . S
C79 N80 1.326 . S
C79 C83 1.460 . S
C79 H85 0.929 . S
N80 Mn73 2.257 . S
N80 C79 1.326 . S
N80 C84 1.362 . S
C81 C82 1.258 . S
C81 C84 1.431 . S
C81 C101 1.449 . S
C82 C81 1.258 . S
C82 C83 1.477 . S
C82 H102 0.931 . S
C83 C79 1.460 . S
C83 C82 1.477 . S
C83 H103 0.930 . S
C84 N80 1.362 . S
C84 C81 1.431 . S
C84 C94 1.476 . S
H85 C79 0.929 . S
C86 O77 1.250 . S
C86 O78 1.258 . S
O87 Mn72 2.162 . S
O87 C75 1.281 . S
O88 Mn72 2.297 . S
O88 C75 1.236 . S
N89 Mn73 2.282 . S
N89 C90 1.328 . S
N89 C94 1.318 . S
C90 N89 1.328 . S
C90 C91 1.457 . S
C90 H95 0.929 . S
C91 C90 1.457 . S
C91 C92 1.291 . S
C91 H104 0.931 1_655 S
C92 C91 1.291 . S
C92 C93 1.373 . S
C92 H105 0.929 . S
C93 C92 1.373 . S
C93 C94 1.396 . S
C93 C100 1.403 . S
C94 C84 1.476 . S
C94 N89 1.318 . S
C94 C93 1.396 . S
H95 C90 0.929 . S
O96 Mn72 2.385 . S
O96 C74 1.234 . S
O97 Mn72 2.200 1_655 S
O97 Mn73 2.230 . S
O97 C74 1.257 1_655 S
O98 Mn72 2.094 . S
O98 C76 1.240 . S
O99 Mn73 2.117 . S
O99 C76 1.264 1_655 S
C100 C93 1.403 . S
C100 C101 1.399 . S
C100 H106 0.929 . S
C101 C81 1.449 . S
C101 C100 1.399 . S
C101 H107 0.930 . S
H102 C82 0.931 . S
H103 C83 0.930 . S
H104 C91 0.931 1_455 S
H105 C92 0.929 . S
H106 C100 0.929 . S
H107 C101 0.930 . S
Mn108 O113 2.095 1_545 S
Mn108 O123 2.162 . S
Mn108 O124 2.297 . S
Mn108 O132 2.385 . S
Mn108 O133 2.209 . S
Mn108 O134 2.094 . S
Mn109 O114 2.121 . S
Mn109 N116 2.257 . S
Mn109 N125 2.282 . S
Mn109 O133 2.215 1_565 S
Mn109 O135 2.117 . S
C110 O132 1.234 . S
C110 O133 1.283 . S
C111 O123 1.281 . S
C111 O124 1.236 . S
C112 O134 1.240 . S
C112 O135 1.264 1_545 S
O113 Mn108 2.095 1_565 S
O113 C122 1.250 . S
O114 Mn109 2.121 . S
O114 C122 1.258 . S
C115 N116 1.326 . S
C115 C119 1.460 . S
C115 H121 0.929 . S
N116 Mn109 2.257 . S
N116 C115 1.326 . S
N116 C120 1.362 . S
C117 C118 1.258 . S
C117 C120 1.431 . S
C117 C137 1.449 . S
C118 C117 1.258 . S
C118 C119 1.477 . S
C118 H138 0.931 . S
C119 C115 1.460 . S
C119 C118 1.477 . S
C119 H139 0.930 . S
C120 N116 1.362 . S
C120 C117 1.431 . S
C120 C130 1.476 . S
H121 C115 0.929 . S
C122 O113 1.250 . S
C122 O114 1.258 . S
O123 Mn108 2.162 . S
O123 C111 1.281 . S
O124 Mn108 2.297 . S
O124 C111 1.236 . S
N125 Mn109 2.282 . S
N125 C126 1.328 . S
N125 C130 1.318 . S
C126 N125 1.328 . S
C126 C127 1.457 . S
C126 H131 0.929 1_565 S
C127 C126 1.457 . S
C127 C128 1.291 . S
C127 H140 0.931 1_565 S
C128 C127 1.291 . S
C128 C129 1.373 . S
C128 H141 0.929 . S
C129 C128 1.373 . S
C129 C130 1.396 . S
C129 C136 1.403 . S
C130 C120 1.476 . S
C130 N125 1.318 . S
C130 C129 1.396 . S
H131 C126 0.929 1_545 S
O132 Mn108 2.385 . S
O132 C110 1.234 . S
O133 Mn108 2.209 . S
O133 Mn109 2.215 1_545 S
O133 C110 1.283 . S
O134 Mn108 2.094 . S
O134 C112 1.240 . S
O135 Mn109 2.117 . S
O135 C112 1.264 1_565 S
C136 C129 1.403 . S
C136 C137 1.399 . S
C136 H142 0.929 . S
C137 C117 1.449 . S
C137 C136 1.399 . S
C137 H143 0.930 . S
H138 C118 0.931 . S
H139 C119 0.930 . S
H140 C127 0.931 1_545 S
H141 C128 0.929 . S
H142 C136 0.929 . S
H143 C137 0.930 . S
Mn144 O149 2.095 . S
Mn144 O159 2.162 . S
Mn144 O160 2.297 . S
Mn144 O168 2.385 . S
Mn144 O169 2.209 . S
Mn144 O170 2.094 . S
Mn145 O150 2.121 . S
Mn145 N152 2.257 . S
Mn145 N161 2.282 . S
Mn145 O169 2.215 . S
Mn145 O171 2.117 . S
C146 O168 1.234 . S
C146 O169 1.283 . S
C147 O159 1.281 . S
C147 O160 1.236 . S
C148 O170 1.240 . S
C148 O171 1.264 . S
O149 Mn144 2.095 . S
O149 C158 1.250 . S
O150 Mn145 2.121 . S
O150 C158 1.258 . S
C151 N152 1.326 . S
C151 C155 1.460 . S
C151 H157 0.929 . S
N152 Mn145 2.257 . S
N152 C151 1.326 . S
N152 C156 1.362 . S
C153 C154 1.258 . S
C153 C156 1.431 . S
C153 C173 1.449 . S
C154 C153 1.258 . S
C154 C155 1.477 . S
C154 H174 0.931 . S
C155 C151 1.460 . S
C155 C154 1.477 . S
C155 H175 0.930 . S
C156 N152 1.362 . S
C156 C153 1.431 . S
C156 C166 1.476 . S
H157 C151 0.929 . S
C158 O149 1.250 . S
C158 O150 1.258 . S
O159 Mn144 2.162 . S
O159 C147 1.281 . S
O160 Mn144 2.297 . S
O160 C147 1.236 . S
N161 Mn145 2.282 . S
N161 C162 1.328 . S
N161 C166 1.318 . S
C162 N161 1.328 . S
C162 C163 1.457 . S
C162 H167 0.929 . S
C163 C162 1.457 . S
C163 C164 1.291 . S
C163 H176 0.931 . S
C164 C163 1.291 . S
C164 C165 1.373 . S
C164 H177 0.929 . S
C165 C164 1.373 . S
C165 C166 1.396 . S
C165 C172 1.403 . S
C166 C156 1.476 . S
C166 N161 1.318 . S
C166 C165 1.396 . S
H167 C162 0.929 . S
O168 Mn144 2.385 . S
O168 C146 1.234 . S
O169 Mn144 2.209 . S
O169 Mn145 2.215 . S
O169 C146 1.283 . S
O170 Mn144 2.094 . S
O170 C148 1.240 . S
O171 Mn145 2.117 . S
O171 C148 1.264 . S
C172 C165 1.403 . S
C172 C173 1.399 . S
C172 H178 0.929 . S
C173 C153 1.449 . S
C173 C172 1.399 . S
C173 H179 0.930 . S
H174 C154 0.931 . S
H175 C155 0.930 . S
H176 C163 0.931 . S
H177 C164 0.929 . S
H178 C172 0.929 . S
H179 C173 0.930 . S
Mn180 O185 2.095 . S
Mn180 O195 2.162 1_455 S
Mn180 O196 2.297 1_455 S
Mn180 O204 2.385 1_455 S
Mn180 O205 2.209 . S
Mn180 O206 2.094 1_455 S
Mn181 O186 2.121 . S
Mn181 N188 2.257 . S
Mn181 N197 2.282 . S
Mn181 O205 2.215 . S
Mn181 O207 2.117 . S
C182 O204 1.234 1_455 S
C182 O205 1.283 . S
C183 O195 1.281 . S
C183 O196 1.236 . S
C184 O206 1.240 1_455 S
C184 O207 1.264 . S
O185 Mn180 2.095 . S
O185 C194 1.250 . S
O186 Mn181 2.121 . S
O186 C194 1.258 . S
C187 N188 1.326 . S
C187 C191 1.460 1_556 S
C187 H193 0.929 . S
N188 Mn181 2.257 . S
N188 C187 1.326 . S
N188 C192 1.362 1_556 S
C189 C190 1.258 . S
C189 C192 1.431 . S
C189 C209 1.449 . S
C190 C189 1.258 . S
C190 C191 1.477 . S
C190 H210 0.931 . S
C191 C187 1.460 1_554 S
C191 C190 1.477 . S
C191 H211 0.930 . S
C192 N188 1.362 1_554 S
C192 C189 1.431 . S
C192 C202 1.476 1_554 S
H193 C187 0.929 . S
C194 O185 1.250 . S
C194 O186 1.258 . S
O195 Mn180 2.162 1_655 S
O195 C183 1.281 . S
O196 Mn180 2.297 1_655 S
O196 C183 1.236 . S
N197 Mn181 2.282 . S
N197 C198 1.328 . S
N197 C202 1.318 . S
C198 N197 1.328 . S
C198 C199 1.457 . S
C198 H203 0.929 . S
C199 C198 1.457 . S
C199 C200 1.291 . S
C199 H212 0.931 . S
C200 C199 1.291 . S
C200 C201 1.373 1_556 S
C200 H213 0.929 1_556 S
C201 C200 1.373 1_554 S
C201 C202 1.396 1_554 S
C201 C208 1.403 . S
C202 C192 1.476 1_556 S
C202 N197 1.318 . S
C202 C201 1.396 1_556 S
H203 C198 0.929 . S
O204 Mn180 2.385 1_655 S
O204 C182 1.234 1_655 S
O205 Mn180 2.209 . S
O205 Mn181 2.215 . S
O205 C182 1.283 . S
O206 Mn180 2.094 1_655 S
O206 C184 1.240 1_655 S
O207 Mn181 2.117 . S
O207 C184 1.264 . S
C208 C201 1.403 . S
C208 C209 1.399 . S
C208 H214 0.929 . S
C209 C189 1.449 . S
C209 C208 1.399 . S
C209 H215 0.930 . S
H210 C190 0.931 . S
H211 C191 0.930 . S
H212 C199 0.931 . S
H213 C200 0.929 1_554 S
H214 C208 0.929 . S
H215 C209 0.930 . S
C216 C217 1.391 . S
C216 C218 1.394 . S
C216 H232 0.931 . S
C217 C216 1.391 . S
C217 C221 1.376 . S
C218 C216 1.394 . S
C218 C219 1.369 . S
C218 C222 1.531 . S
C219 C218 1.369 . S
C219 C220 1.410 . S
C219 C227 1.503 . S
C220 C219 1.410 . S
C220 C221 1.392 . S
C220 C223 1.511 . S
C221 C217 1.376 . S
C221 C220 1.392 . S
C221 H233 0.929 . S
C222 C218 1.531 . S
C222 H234 0.960 1_545 S
C222 H235 0.962 . S
C222 H236 0.952 1_545 S
C223 C220 1.511 . S
C223 H237 0.961 . S
C223 H238 0.961 . S
C223 H239 0.961 1_545 S
C224 C225 1.370 . S
C224 C226 1.363 . S
C224 H240 0.931 . S
C225 C224 1.370 . S
C225 C229 1.408 1_545 S
C226 C224 1.363 . S
C226 C227 1.370 . S
C226 C230 1.524 . S
C227 C219 1.503 . S
C227 C226 1.370 . S
C227 C228 1.403 1_545 S
C228 C227 1.403 1_565 S
C228 C229 1.404 . S
C228 C231 1.539 . S
C229 C225 1.408 1_565 S
C229 C228 1.404 . S
C229 H241 0.930 . S
C230 C226 1.524 . S
C230 H242 0.956 . S
C230 H243 0.961 . S
C230 H244 0.961 . S
C231 C228 1.539 . S
C231 H245 0.958 . S
C231 H246 0.961 . S
C231 H247 0.960 . S
H232 C216 0.931 . S
H233 C221 0.929 . S
H234 C222 0.960 1_565 S
H235 C222 0.962 . S
H236 C222 0.952 1_565 S
H237 C223 0.961 . S
H238 C223 0.961 . S
H239 C223 0.961 1_565 S
H240 C224 0.931 . S
H241 C229 0.930 . S
H242 C230 0.956 . S
H243 C230 0.961 . S
H244 C230 0.961 . S
H245 C231 0.958 . S
H246 C231 0.961 . S
H247 C231 0.960 . S
C248 C249 1.391 . S
C248 C250 1.394 . S
C248 H264 0.931 . S
C249 C248 1.391 . S
C249 C253 1.376 . S
C250 C248 1.394 . S
C250 C251 1.369 . S
C250 C254 1.531 . S
C251 C250 1.369 . S
C251 C252 1.410 . S
C251 C259 1.503 . S
C252 C251 1.410 . S
C252 C253 1.392 . S
C252 C255 1.511 . S
C253 C249 1.376 . S
C253 C252 1.392 . S
C253 H265 0.929 . S
C254 C250 1.531 . S
C254 H266 0.960 . S
C254 H267 0.962 . S
C254 H268 0.960 . S
C255 C252 1.511 . S
C255 H269 0.961 . S
C255 H270 0.961 . S
C255 H271 0.961 . S
C256 C257 1.370 . S
C256 C258 1.363 . S
C256 H272 0.931 . S
C257 C256 1.370 . S
C257 C261 1.408 . S
C258 C256 1.363 . S
C258 C259 1.370 . S
C258 C262 1.524 . S
C259 C251 1.503 . S
C259 C258 1.370 . S
C259 C260 1.403 . S
C260 C259 1.403 . S
C260 C261 1.404 . S
C260 C263 1.539 . S
C261 C257 1.408 . S
C261 C260 1.404 . S
C261 H273 0.930 . S
C262 C258 1.524 . S
C262 H274 0.956 . S
C262 H275 0.961 . S
C262 H276 0.961 . S
C263 C260 1.539 . S
C263 H277 0.958 . S
C263 H278 0.961 . S
C263 H279 0.960 . S
H264 C248 0.931 . S
H265 C253 0.929 . S
H266 C254 0.960 . S
H267 C254 0.962 . S
H268 C254 0.960 . S
H269 C255 0.961 . S
H270 C255 0.961 . S
H271 C255 0.961 . S
H272 C256 0.931 . S
H273 C261 0.930 . S
H274 C262 0.956 . S
H275 C262 0.961 . S
H276 C262 0.961 . S
H277 C263 0.958 . S
H278 C263 0.961 . S
H279 C263 0.960 . S
C280 C281 1.391 . S
C280 C282 1.394 . S
C280 H296 0.931 . S
C281 C280 1.391 . S
C281 C285 1.376 . S
C282 C280 1.394 . S
C282 C283 1.369 . S
C282 C286 1.531 . S
C283 C282 1.369 . S
C283 C284 1.410 . S
C283 C291 1.503 . S
C284 C283 1.410 . S
C284 C285 1.392 . S
C284 C287 1.511 . S
C285 C281 1.376 . S
C285 C284 1.392 . S
C285 H297 0.929 . S
C286 C282 1.531 . S
C286 H298 0.960 . S
C286 H299 0.962 . S
C286 H300 0.960 . S
C287 C284 1.511 . S
C287 H301 0.961 1_455 S
C287 H302 0.975 . S
C287 H303 0.961 . S
C288 C289 1.370 1_655 S
C288 C290 1.363 . S
C288 H304 0.931 . S
C289 C288 1.370 1_455 S
C289 C293 1.408 . S
C290 C288 1.363 . S
C290 C291 1.370 1_655 S
C290 C294 1.524 . S
C291 C283 1.503 . S
C291 C290 1.370 1_455 S
C291 C292 1.403 . S
C292 C291 1.403 . S
C292 C293 1.404 . S
C292 C295 1.539 . S
C293 C289 1.408 . S
C293 C292 1.404 . S
C293 H305 0.930 . S
C294 C290 1.524 . S
C294 H306 0.956 . S
C294 H307 0.961 . S
C294 H308 0.961 . S
C295 C292 1.539 . S
C295 H309 0.958 . S
C295 H310 0.961 . S
C295 H311 0.960 . S
H296 C280 0.931 . S
H297 C285 0.929 . S
H298 C286 0.960 . S
H299 C286 0.962 . S
H300 C286 0.960 . S
H301 C287 0.961 1_655 S
H302 C287 0.975 . S
H303 C287 0.961 . S
H304 C288 0.931 . S
H305 C293 0.930 . S
H306 C294 0.956 . S
H307 C294 0.961 . S
H308 C294 0.961 . S
H309 C295 0.958 . S
H310 C295 0.961 . S
H311 C295 0.960 . S
C312 C313 1.391 1_565 S
C312 C314 1.394 . S
C312 H328 0.931 . S
C313 C312 1.391 1_545 S
C313 C317 1.376 . S
C314 C312 1.394 . S
C314 C315 1.369 1_565 S
C314 C318 1.531 . S
C315 C314 1.369 1_545 S
C315 C316 1.410 . S
C315 C323 1.503 . S
C316 C315 1.410 . S
C316 C317 1.392 . S
C316 C319 1.511 . S
C317 C313 1.376 . S
C317 C316 1.392 . S
C317 H329 0.929 . S
C318 C314 1.531 . S
C318 H330 0.960 . S
C318 H331 0.962 . S
C318 H332 0.960 . S
C319 C316 1.511 . S
C319 H333 0.961 . S
C319 H334 0.961 . S
C319 H335 0.961 . S
C320 C321 1.370 . S
C320 C322 1.363 . S
C320 H336 0.931 . S
C321 C320 1.370 . S
C321 C325 1.408 . S
C322 C320 1.363 . S
C322 C323 1.370 . S
C322 C326 1.524 . S
C323 C315 1.503 . S
C323 C322 1.370 . S
C323 C324 1.403 . S
C324 C323 1.403 . S
C324 C325 1.404 . S
C324 C327 1.538 1_545 S
C325 C321 1.408 . S
C325 C324 1.404 . S
C325 H337 0.930 . S
C326 C322 1.524 . S
C326 H338 0.956 . S
C326 H339 0.961 . S
C326 H340 0.961 . S
C327 C324 1.538 1_565 S
C327 H341 0.971 . S
C327 H342 0.952 1_565 S
C327 H343 0.958 1_565 S
H328 C312 0.931 . S
H329 C317 0.929 . S
H330 C318 0.960 . S
H331 C318 0.962 . S
H332 C318 0.960 . S
H333 C319 0.961 . S
H334 C319 0.961 . S
H335 C319 0.961 . S
H336 C320 0.931 . S
H337 C325 0.930 . S
H338 C326 0.956 . S
H339 C326 0.961 . S
H340 C326 0.961 . S
H341 C327 0.971 . S
H342 C327 0.952 1_545 S
H343 C327 0.958 1_545 S
C344 C345 1.391 . S
C344 C346 1.394 . S
C344 H360 0.931 . S
C345 C344 1.391 . S
C345 C349 1.376 . S
C346 C344 1.394 . S
C346 C347 1.369 . S
C346 C350 1.531 1_554 S
C347 C346 1.369 . S
C347 C348 1.410 . S
C347 C355 1.503 1_554 S
C348 C347 1.410 . S
C348 C349 1.392 . S
C348 C351 1.511 . S
C349 C345 1.376 . S
C349 C348 1.392 . S
C349 H361 0.929 . S
C350 C346 1.531 1_556 S
C350 H362 0.960 . S
C350 H363 0.962 . S
C350 H364 0.960 . S
C351 C348 1.511 . S
C351 H365 0.961 . S
C351 H366 0.961 1_554 S
C351 H367 0.961 . S
C352 C353 1.370 . S
C352 C354 1.363 . S
C352 H368 0.931 . S
C353 C352 1.370 . S
C353 C357 1.408 . S
C354 C352 1.363 . S
C354 C355 1.370 . S
C354 C358 1.524 . S
C355 C347 1.503 1_556 S
C355 C354 1.370 . S
C355 C356 1.403 . S
C356 C355 1.403 . S
C356 C357 1.404 . S
C356 C359 1.539 1_556 S
C357 C353 1.408 . S
C357 C356 1.404 . S
C357 H369 0.930 . S
C358 C354 1.524 . S
C358 H370 0.956 . S
C358 H371 0.961 . S
C358 H372 0.961 . S
C359 C356 1.539 1_554 S
C359 H373 0.958 . S
C359 H374 0.961 . S
C359 H375 0.960 . S
H360 C344 0.931 . S
H361 C349 0.929 . S
H362 C350 0.960 . S
H363 C350 0.962 . S
H364 C350 0.960 . S
H365 C351 0.961 . S
H366 C351 0.961 1_556 S
H367 C351 0.961 . S
H368 C352 0.931 . S
H369 C357 0.930 . S
H370 C358 0.956 . S
H371 C358 0.961 . S
H372 C358 0.961 . S
H373 C359 0.958 . S
H374 C359 0.961 . S
H375 C359 0.960 . S
C376 C377 1.391 1_655 S
C376 C378 1.394 . S
C376 H392 0.931 . S
C377 C376 1.391 1_455 S
C377 C381 1.376 . S
C378 C376 1.394 . S
C378 C379 1.369 1_655 S
C378 C382 1.531 . S
C379 C378 1.369 1_455 S
C379 C380 1.410 . S
C379 C387 1.503 . S
C380 C379 1.410 . S
C380 C381 1.392 . S
C380 C383 1.511 . S
C381 C377 1.376 . S
C381 C380 1.392 . S
C381 H393 0.929 . S
C382 C378 1.531 . S
C382 H394 0.960 . S
C382 H395 0.962 . S
C382 H396 0.960 . S
C383 C380 1.511 . S
C383 H397 0.961 . S
C383 H398 0.961 . S
C383 H399 0.961 . S
C384 C385 1.383 . S
C384 C386 1.374 . S
C384 H400 0.907 1_455 S
C385 C384 1.383 . S
C385 C389 1.408 . S
C386 C384 1.374 . S
C386 C387 1.370 . S
C386 C390 1.524 1_455 S
C387 C379 1.503 . S
C387 C386 1.370 . S
C387 C388 1.403 . S
C388 C387 1.403 . S
C388 C389 1.404 . S
C388 C391 1.539 . S
C389 C385 1.408 . S
C389 C388 1.404 . S
C389 H401 0.930 . S
C390 C386 1.524 1_655 S
C390 H402 0.956 . S
C390 H403 0.955 1_655 S
C390 H404 0.961 . S
C391 C388 1.539 . S
C391 H405 0.958 . S
C391 H406 0.961 . S
C391 H407 0.960 . S
H392 C376 0.931 . S
H393 C381 0.929 . S
H394 C382 0.960 . S
H395 C382 0.962 . S
H396 C382 0.960 . S
H397 C383 0.961 . S
H398 C383 0.961 . S
H399 C383 0.961 . S
H400 C384 0.907 1_655 S
H401 C389 0.930 . S
H402 C390 0.956 . S
H403 C390 0.955 1_455 S
H404 C390 0.961 . S
H405 C391 0.958 . S
H406 C391 0.961 . S
H407 C391 0.960 . S
C408 C409 1.391 . S
C408 C410 1.394 . S
C408 H424 0.931 . S
C409 C408 1.391 . S
C409 C413 1.376 . S
C410 C408 1.394 . S
C410 C411 1.369 . S
C410 C414 1.531 . S
C411 C410 1.369 . S
C411 C412 1.410 . S
C411 C419 1.503 . S
C412 C411 1.410 . S
C412 C413 1.392 . S
C412 C415 1.511 . S
C413 C409 1.376 . S
C413 C412 1.392 . S
C413 H425 0.929 . S
C414 C410 1.531 . S
C414 H426 0.960 . S
C414 H427 0.962 . S
C414 H428 0.960 . S
C415 C412 1.511 . S
C415 H429 0.961 . S
C415 H430 0.961 . S
C415 H431 0.961 . S
C416 C417 1.370 . S
C416 C418 1.363 . S
C416 H432 0.931 . S
C417 C416 1.370 . S
C417 C421 1.408 . S
C418 C416 1.363 . S
C418 C419 1.370 . S
C418 C422 1.524 . S
C419 C411 1.503 . S
C419 C418 1.370 . S
C419 C420 1.403 . S
C420 C419 1.403 . S
C420 C421 1.404 . S
C420 C423 1.539 . S
C421 C417 1.408 . S
C421 C420 1.404 . S
C421 H433 0.930 . S
C422 C418 1.524 . S
C422 H434 0.956 . S
C422 H435 0.961 . S
C422 H436 0.961 . S
C423 C420 1.539 . S
C423 H437 0.958 . S
C423 H438 0.961 . S
C423 H439 0.960 . S
H424 C408 0.931 . S
H425 C413 0.929 . S
H426 C414 0.960 . S
H427 C414 0.962 . S
H428 C414 0.960 . S
H429 C415 0.961 . S
H430 C415 0.961 . S
H431 C415 0.961 . S
H432 C416 0.931 . S
H433 C421 0.930 . S
H434 C422 0.956 . S
H435 C422 0.961 . S
H436 C422 0.961 . S
H437 C423 0.958 . S
H438 C423 0.961 . S
H439 C423 0.960 . S
C440 C441 1.391 . S
C440 C442 1.394 . S
C440 H456 0.931 . S
C441 C440 1.391 . S
C441 C445 1.376 . S
C442 C440 1.394 . S
C442 C443 1.369 . S
C442 C446 1.531 . S
C443 C442 1.369 . S
C443 C444 1.410 . S
C443 C451 1.503 . S
C444 C443 1.410 . S
C444 C445 1.392 . S
C444 C447 1.511 . S
C445 C441 1.376 . S
C445 C444 1.392 . S
C445 H457 0.929 . S
C446 C442 1.531 . S
C446 H458 0.960 . S
C446 H459 0.962 . S
C446 H460 0.960 . S
C447 C444 1.511 . S
C447 H461 0.961 . S
C447 H462 0.961 . S
C447 H463 0.961 . S
C448 C449 1.370 . S
C448 C450 1.363 . S
C448 H464 0.931 . S
C449 C448 1.370 . S
C449 C453 1.408 . S
C450 C448 1.363 . S
C450 C451 1.370 . S
C450 C454 1.524 . S
C451 C443 1.503 . S
C451 C450 1.370 . S
C451 C452 1.403 . S
C452 C451 1.403 . S
C452 C453 1.404 . S
C452 C455 1.539 . S
C453 C449 1.408 . S
C453 C452 1.404 . S
C453 H465 0.930 . S
C454 C450 1.524 . S
C454 H466 0.956 . S
C454 H467 0.961 . S
C454 H468 0.961 . S
C455 C452 1.539 . S
C455 H469 0.958 . S
C455 H470 0.961 . S
C455 H471 0.960 . S
H456 C440 0.931 . S
H457 C445 0.929 . S
H458 C446 0.960 . S
H459 C446 0.962 . S
H460 C446 0.960 . S
H461 C447 0.961 . S
H462 C447 0.961 . S
H463 C447 0.961 . S
H464 C448 0.931 . S
H465 C453 0.930 . S
H466 C454 0.956 . S
H467 C454 0.961 . S
H468 C454 0.961 . S
H469 C455 0.958 . S
H470 C455 0.961 . S
H471 C455 0.960 . S
C472 C473 1.391 . S
C472 C474 1.394 . S
C472 H488 0.931 . S
C473 C472 1.391 . S
C473 C477 1.376 . S
C474 C472 1.394 . S
C474 C475 1.369 . S
C474 C478 1.531 . S
C475 C474 1.369 . S
C475 C476 1.410 . S
C475 C483 1.503 . S
C476 C475 1.410 . S
C476 C477 1.392 . S
C476 C479 1.511 . S
C477 C473 1.376 . S
C477 C476 1.392 . S
C477 H489 0.929 . S
C478 C474 1.531 . S
C478 H490 0.960 . S
C478 H491 0.962 . S
C478 H492 0.960 . S
C479 C476 1.511 . S
C479 H493 0.961 . S
C479 H494 0.961 . S
C479 H495 0.961 . S
C480 C481 1.370 . S
C480 C482 1.363 . S
C480 H496 0.931 . S
C481 C480 1.370 . S
C481 C485 1.408 . S
C482 C480 1.363 . S
C482 C483 1.370 . S
C482 C486 1.524 . S
C483 C475 1.503 . S
C483 C482 1.370 . S
C483 C484 1.403 . S
C484 C483 1.403 . S
C484 C485 1.404 . S
C484 C487 1.539 . S
C485 C481 1.408 . S
C485 C484 1.404 . S
C485 H497 0.930 . S
C486 C482 1.524 . S
C486 H498 0.956 . S
C486 H499 0.961 . S
C486 H500 0.961 . S
C487 C484 1.539 . S
C487 H501 0.958 . S
C487 H502 0.961 . S
C487 H503 0.960 . S
H488 C472 0.931 . S
H489 C477 0.929 . S
H490 C478 0.960 . S
H491 C478 0.962 . S
H492 C478 0.960 . S
H493 C479 0.961 . S
H494 C479 0.961 . S
H495 C479 0.961 . S
H496 C480 0.931 . S
H497 C485 0.930 . S
H498 C486 0.956 . S
H499 C486 0.961 . S
H500 C486 0.961 . S
H501 C487 0.958 . S
H502 C487 0.961 . S
H503 C487 0.960 . S
C504 C505 1.391 . S
C504 C506 1.394 . S
C504 H520 0.931 . S
C505 C504 1.391 . S
C505 C509 1.376 . S
C506 C504 1.394 . S
C506 C507 1.369 . S
C506 C510 1.531 . S
C507 C506 1.369 . S
C507 C508 1.410 . S
C507 C515 1.503 . S
C508 C507 1.410 . S
C508 C509 1.392 . S
C508 C511 1.511 . S
C509 C505 1.376 . S
C509 C508 1.392 . S
C509 H521 0.929 . S
C510 C506 1.531 . S
C510 H522 0.960 . S
C510 H523 0.962 . S
C510 H524 0.960 . S
C511 C508 1.511 . S
C511 H525 0.961 . S
C511 H526 0.961 . S
C511 H527 0.961 . S
C512 C513 1.370 . S
C512 C514 1.363 . S
C512 H528 0.931 . S
C513 C512 1.370 . S
C513 C517 1.408 . S
C514 C512 1.363 . S
C514 C515 1.370 . S
C514 C518 1.524 . S
C515 C507 1.503 . S
C515 C514 1.370 . S
C515 C516 1.403 . S
C516 C515 1.403 . S
C516 C517 1.404 . S
C516 C519 1.539 . S
C517 C513 1.408 . S
C517 C516 1.404 . S
C517 H529 0.930 . S
C518 C514 1.524 . S
C518 H530 0.956 . S
C518 H531 0.961 . S
C518 H532 0.961 . S
C519 C516 1.539 . S
C519 H533 0.958 . S
C519 H534 0.961 . S
C519 H535 0.960 . S
H520 C504 0.931 . S
H521 C509 0.929 . S
H522 C510 0.960 . S
H523 C510 0.962 . S
H524 C510 0.960 . S
H525 C511 0.961 . S
H526 C511 0.961 . S
H527 C511 0.961 . S
H528 C512 0.931 . S
H529 C517 0.930 . S
H530 C518 0.956 . S
H531 C518 0.961 . S
H532 C518 0.961 . S
H533 C519 0.958 . S
H534 C519 0.961 . S
H535 C519 0.960 . S
C536 C537 1.391 . S
C536 C538 1.394 . S
C536 H552 0.931 . S
C537 C536 1.391 . S
C537 C541 1.376 . S
C538 C536 1.394 . S
C538 C539 1.369 . S
C538 C542 1.531 . S
C539 C538 1.369 . S
C539 C540 1.410 . S
C539 C547 1.503 . S
C540 C539 1.410 . S
C540 C541 1.392 . S
C540 C543 1.511 . S
C541 C537 1.376 . S
C541 C540 1.392 . S
C541 H553 0.929 . S
C542 C538 1.531 . S
C542 H554 0.960 . S
C542 H555 0.962 . S
C542 H556 0.960 . S
C543 C540 1.511 . S
C543 H557 0.961 . S
C543 H558 0.961 . S
C543 H559 0.961 . S
C544 C545 1.370 . S
C544 C546 1.363 . S
C544 H560 0.931 . S
C545 C544 1.370 . S
C545 C549 1.408 . S
C546 C544 1.363 . S
C546 C547 1.370 . S
C546 C550 1.524 . S
C547 C539 1.503 . S
C547 C546 1.370 . S
C547 C548 1.403 . S
C548 C547 1.403 . S
C548 C549 1.404 . S
C548 C551 1.539 . S
C549 C545 1.408 . S
C549 C548 1.404 . S
C549 H561 0.930 . S
C550 C546 1.524 . S
C550 H562 0.956 . S
C550 H563 0.961 . S
C550 H564 0.961 . S
C551 C548 1.539 . S
C551 H565 0.958 . S
C551 H566 0.961 . S
C551 H567 0.960 . S
H552 C536 0.931 . S
H553 C541 0.929 . S
H554 C542 0.960 . S
H555 C542 0.962 . S
H556 C542 0.960 . S
H557 C543 0.961 . S
H558 C543 0.961 . S
H559 C543 0.961 . S
H560 C544 0.931 . S
H561 C549 0.930 . S
H562 C550 0.956 . S
H563 C550 0.961 . S
H564 C550 0.961 . S
H565 C551 0.958 . S
H566 C551 0.961 . S
H567 C551 0.960 . S
C568 C569 1.391 . S
C568 C570 1.394 1_556 S
C568 H584 0.931 1_556 S
C569 C568 1.391 . S
C569 C573 1.376 . S
C570 C568 1.394 1_554 S
C570 C571 1.369 1_554 S
C570 C574 1.531 . S
C571 C570 1.369 1_556 S
C571 C572 1.410 . S
C571 C579 1.503 1_556 S
C572 C571 1.410 . S
C572 C573 1.392 . S
C572 C575 1.511 . S
C573 C569 1.376 . S
C573 C572 1.392 . S
C573 H585 0.929 . S
C574 C570 1.531 . S
C574 H586 0.960 . S
C574 H587 0.962 . S
C574 H588 0.960 . S
C575 C572 1.511 . S
C575 H589 0.961 . S
C575 H590 0.961 . S
C575 H591 0.961 . S
C576 C577 1.370 1_556 S
C576 C578 1.363 . S
C576 H592 0.931 . S
C577 C576 1.370 1_554 S
C577 C581 1.408 . S
C578 C576 1.363 . S
C578 C579 1.370 1_556 S
C578 C582 1.524 . S
C579 C571 1.503 1_554 S
C579 C578 1.370 1_554 S
C579 C580 1.403 . S
C580 C579 1.403 . S
C580 C581 1.404 . S
C580 C583 1.539 . S
C581 C577 1.408 . S
C581 C580 1.404 . S
C581 H593 0.930 . S
C582 C578 1.524 . S
C582 H594 0.956 . S
C582 H595 0.961 . S
C582 H596 0.961 . S
C583 C580 1.539 . S
C583 H597 0.958 . S
C583 H598 0.961 . S
C583 H599 0.960 . S
H584 C568 0.931 1_554 S
H585 C573 0.929 . S
H586 C574 0.960 . S
H587 C574 0.962 . S
H588 C574 0.960 . S
H589 C575 0.961 . S
H590 C575 0.961 . S
H591 C575 0.961 . S
H592 C576 0.931 . S
H593 C581 0.930 . S
H594 C582 0.956 . S
H595 C582 0.961 . S
H596 C582 0.961 . S
H597 C583 0.958 . S
H598 C583 0.961 . S
H599 C583 0.960 . S
C217 C2 1.574 . S
C225 C112 1.591 . S
C249 C38 1.571 . S
C257 C148 1.597 . S
C281 C184 1.587 . S
C289 C74 1.583 . S
C313 C4 1.584 . S
C321 C110 1.594 . S
C345 C40 1.584 . S
C353 C146 1.594 . S
C377 C182 1.599 1_554 S
C385 C76 1.593 . S
C409 C50 1.344 . S
C417 C3 1.380 . S
C441 C86 1.320 . S
C449 C39 1.379 . S
C473 C75 1.371 . S
C481 C122 1.296 . S
C505 C158 1.341 . S
C513 C111 1.380 . S
C537 C194 1.344 . S
C545 C147 1.379 . S
C569 C183 1.369 . S
C577 C14 1.294 . S
