# Generated by pormake.
# Topology uob, (4)-cn, num edge types: 1
# Building blocks:
#     Node 0, Type 0, BuildingBlock: KUFVIS_clean_sbu_0, # of connection points: 4
#     Node 1, Type 0, BuildingBlock: KUFVIS_clean_sbu_0, # of connection points: 4
#     Node 2, Type 0, BuildingBlock: KUFVIS_clean_sbu_0, # of connection points: 4
#     Node 3, Type 0, BuildingBlock: KUFVIS_clean_sbu_0, # of connection points: 4
#     Node 4, Type 0, BuildingBlock: KUFVIS_clean_sbu_0, # of connection points: 4
#     Node 5, Type 0, BuildingBlock: KUFVIS_clean_sbu_0, # of connection points: 4
#     Node 6, Type 0, BuildingBlock: KUFVIS_clean_sbu_0, # of connection points: 4
#     Node 7, Type 0, BuildingBlock: KUFVIS_clean_sbu_0, # of connection points: 4
#     Node 8, Type 0, BuildingBlock: KUFVIS_clean_sbu_0, # of connection points: 4
#     Node 9, Type 0, BuildingBlock: KUFVIS_clean_sbu_0, # of connection points: 4
#     Node 10, Type 0, BuildingBlock: KUFVIS_clean_sbu_0, # of connection points: 4
#     Node 11, Type 0, BuildingBlock: KUFVIS_clean_sbu_0, # of connection points: 4
#     Node 12, Type 0, BuildingBlock: KUFVIS_clean_sbu_0, # of connection points: 4
#     Node 13, Type 0, BuildingBlock: KUFVIS_clean_sbu_0, # of connection points: 4
#     Node 14, Type 0, BuildingBlock: KUFVIS_clean_sbu_0, # of connection points: 4
#     Node 15, Type 0, BuildingBlock: KUFVIS_clean_sbu_0, # of connection points: 4
#     Edge 16, Type (0, 0), BuildingBlock: CIFDUS_clean_linker_0, # of connection points: 2
#     Edge 17, Type (0, 0), BuildingBlock: CIFDUS_clean_linker_0, # of connection points: 2
#     Edge 18, Type (0, 0), BuildingBlock: CIFDUS_clean_linker_0, # of connection points: 2
#     Edge 19, Type (0, 0), BuildingBlock: CIFDUS_clean_linker_0, # of connection points: 2
#     Edge 20, Type (0, 0), BuildingBlock: CIFDUS_clean_linker_0, # of connection points: 2
#     Edge 21, Type (0, 0), BuildingBlock: CIFDUS_clean_linker_0, # of connection points: 2
#     Edge 22, Type (0, 0), BuildingBlock: CIFDUS_clean_linker_0, # of connection points: 2
#     Edge 23, Type (0, 0), BuildingBlock: CIFDUS_clean_linker_0, # of connection points: 2
#     Edge 24, Type (0, 0), BuildingBlock: CIFDUS_clean_linker_0, # of connection points: 2
#     Edge 25, Type (0, 0), BuildingBlock: CIFDUS_clean_linker_0, # of connection points: 2
#     Edge 26, Type (0, 0), BuildingBlock: CIFDUS_clean_linker_0, # of connection points: 2
#     Edge 27, Type (0, 0), BuildingBlock: CIFDUS_clean_linker_0, # of connection points: 2
#     Edge 28, Type (0, 0), BuildingBlock: CIFDUS_clean_linker_0, # of connection points: 2
#     Edge 29, Type (0, 0), BuildingBlock: CIFDUS_clean_linker_0, # of connection points: 2
#     Edge 30, Type (0, 0), BuildingBlock: CIFDUS_clean_linker_0, # of connection points: 2
#     Edge 31, Type (0, 0), BuildingBlock: CIFDUS_clean_linker_0, # of connection points: 2
#     Edge 32, Type (0, 0), BuildingBlock: CIFDUS_clean_linker_0, # of connection points: 2
#     Edge 33, Type (0, 0), BuildingBlock: CIFDUS_clean_linker_0, # of connection points: 2
#     Edge 34, Type (0, 0), BuildingBlock: CIFDUS_clean_linker_0, # of connection points: 2
#     Edge 35, Type (0, 0), BuildingBlock: CIFDUS_clean_linker_0, # of connection points: 2
#     Edge 36, Type (0, 0), BuildingBlock: CIFDUS_clean_linker_0, # of connection points: 2
#     Edge 37, Type (0, 0), BuildingBlock: CIFDUS_clean_linker_0, # of connection points: 2
#     Edge 38, Type (0, 0), BuildingBlock: CIFDUS_clean_linker_0, # of connection points: 2
#     Edge 39, Type (0, 0), BuildingBlock: CIFDUS_clean_linker_0, # of connection points: 2
#     Edge 40, Type (0, 0), BuildingBlock: CIFDUS_clean_linker_0, # of connection points: 2
#     Edge 41, Type (0, 0), BuildingBlock: CIFDUS_clean_linker_0, # of connection points: 2
#     Edge 42, Type (0, 0), BuildingBlock: CIFDUS_clean_linker_0, # of connection points: 2
#     Edge 43, Type (0, 0), BuildingBlock: CIFDUS_clean_linker_0, # of connection points: 2
#     Edge 44, Type (0, 0), BuildingBlock: CIFDUS_clean_linker_0, # of connection points: 2
#     Edge 45, Type (0, 0), BuildingBlock: CIFDUS_clean_linker_0, # of connection points: 2
#     Edge 46, Type (0, 0), BuildingBlock: CIFDUS_clean_linker_0, # of connection points: 2
#     Edge 47, Type (0, 0), BuildingBlock: CIFDUS_clean_linker_0, # of connection points: 2
# Relax obj value: 0.187
# Max RMSD: 0.228
# Mean RMSD: 0.228
data_MOF--net-uob--node1-KUFVIS_clean_sbu_0--edge1-CIFDUS_clean_linker_0
_symmetry_space_group_name_H-M    P1
_symmetry_Int_Tables_number       1
_symmetry_cell_setting            triclinic
loop_
_symmetry_equiv_pos_as_xyz
'x, y, z'
_cell_length_a     46.943269
_cell_length_b     46.902716
_cell_length_c     23.375015
_cell_angle_alpha  90.079241
_cell_angle_beta   89.929776
_cell_angle_gamma 90.008534
loop_
_atom_site_label
_atom_site_type_symbol
_atom_site_fract_x
_atom_site_fract_y
_atom_site_fract_z
_atom_type_partial_charge
Mn0 Mn 0.14769 0.06623 0.26552 0.0
Mn1 Mn 0.09742 0.11756 0.261 0.0
C2 C 0.12516 0.08073 0.34731 0.0
C3 C 0.19558 0.05511 0.28732 0.0
C4 C 0.08477 0.05573 0.23235 0.0
O5 O 0.15403 0.08301 0.18563 0.0
O6 O 0.11885 0.1157 0.18787 0.0
C7 C 0.1376 0.16621 0.2576 0.0
N8 N 0.11562 0.1523 0.28346 0.0
C9 C 0.11395 0.18701 0.35935 0.0
C10 C 0.13646 0.20178 0.33334 0.0
C11 C 0.14834 0.19132 0.28227 0.0
C12 C 0.10412 0.16212 0.33276 0.0
H13 H 0.14695 0.15815 0.21858 0.0
C14 C 0.13921 0.10274 0.16218 0.0
O15 O 0.17961 0.03679 0.26033 0.0
O16 O 0.18499 0.08022 0.29367 0.0
N17 N 0.075 0.12203 0.32891 0.0
C18 C 0.05268 0.10586 0.34734 0.0
C19 C 0.03817 0.11363 0.3976 0.0
C20 C 0.04653 0.1381 0.42796 0.0
C21 C 0.06894 0.15492 0.40712 0.0
C22 C 0.08239 0.14628 0.35645 0.0
H23 H 0.04621 0.08699 0.32427 0.0
O24 O 0.13766 0.05626 0.34531 0.0
O25 O 0.12654 0.09639 0.30168 0.0
O26 O 0.11045 0.0463 0.23761 0.0
O27 O 0.07786 0.08187 0.24017 0.0
C28 C 0.07847 0.17991 0.43462 0.0
C29 C 0.10101 0.1959 0.41081 0.0
H30 H 0.14485 0.22112 0.35229 0.0
H31 H 0.1658 0.20255 0.26206 0.0
H32 H 0.02075 0.10066 0.41315 0.0
H33 H 0.03552 0.14383 0.46707 0.0
H34 H 0.06864 0.18701 0.4741 0.0
H35 H 0.1082 0.21505 0.43234 0.0
Mn36 Mn 0.95516 0.6382 0.52244 0.0
Mn37 Mn 0.9109 0.58231 0.54053 0.0
C38 C 0.95466 0.61362 0.60683 0.0
C39 C 0.96136 0.68761 0.53806 0.0
C40 C 0.96792 0.57707 0.48016 0.0
O41 O 0.92841 0.64204 0.45364 0.0
O42 O 0.90074 0.60378 0.4706 0.0
C43 C 0.86001 0.61729 0.56675 0.0
N44 N 0.87877 0.59653 0.58212 0.0
C45 C 0.85567 0.59055 0.67336 0.0
C46 C 0.83599 0.61172 0.65833 0.0
C47 C 0.8382 0.62517 0.60482 0.0
C48 C 0.87698 0.58363 0.63371 0.0
H49 H 0.86178 0.62784 0.52588 0.0
C50 C 0.90811 0.62512 0.43992 0.0
O51 O 0.97808 0.67381 0.50315 0.0
O52 O 0.94028 0.67353 0.55882 0.0
N53 N 0.9179 0.55915 0.6064 0.0
C54 C 0.93785 0.53832 0.61326 0.0
C55 C 0.93808 0.5222 0.66386 0.0
C56 C 0.91765 0.52744 0.70656 0.0
C57 C 0.89684 0.54844 0.69783 0.0
C58 C 0.89741 0.5635 0.64615 0.0
H59 H 0.95353 0.53414 0.58048 0.0
O60 O 0.97612 0.62964 0.59418 0.0
O61 O 0.93373 0.6133 0.57067 0.0
O62 O 0.97516 0.60359 0.48317 0.0
O63 O 0.94443 0.5672 0.50001 0.0
C64 C 0.87557 0.555 0.73835 0.0
C65 C 0.85509 0.57616 0.72626 0.0
H66 H 0.81915 0.61788 0.68759 0.0
H67 H 0.82316 0.64162 0.59301 0.0
H68 H 0.95407 0.50587 0.67006 0.0
H69 H 0.9181 0.5152 0.7458 0.0
H70 H 0.87483 0.54399 0.77903 0.0
H71 H 0.83896 0.58114 0.7579 0.0
Mn72 Mn 0.3874 0.45433 0.78337 0.0
Mn73 Mn 0.44399 0.41102 0.80219 0.0
C74 C 0.41042 0.45289 0.86939 0.0
C75 C 0.33747 0.45861 0.7955 0.0
C76 C 0.44895 0.46932 0.74673 0.0
O77 O 0.38545 0.42859 0.71249 0.0
O78 O 0.42366 0.40114 0.73077 0.0
C79 C 0.40996 0.35896 0.8238 0.0
N80 N 0.43012 0.37797 0.84115 0.0
C81 C 0.43589 0.3536 0.93098 0.0
C82 C 0.41532 0.33366 0.9139 0.0
C83 C 0.40228 0.33638 0.86011 0.0
C84 C 0.44262 0.37568 0.89303 0.0
H85 H 0.39971 0.36112 0.78271 0.0
C86 C 0.40269 0.40849 0.69917 0.0
O87 O 0.35138 0.47649 0.76329 0.0
O88 O 0.35187 0.43767 0.81578 0.0
N89 N 0.46611 0.41776 0.86961 0.0
C90 C 0.4862 0.43825 0.87879 0.0
C91 C 0.50182 0.43813 0.93001 0.0
C92 C 0.49684 0.41679 0.97095 0.0
C93 C 0.47661 0.3955 0.95987 0.0
C94 C 0.46204 0.39647 0.90767 0.0
H95 H 0.49021 0.45462 0.84737 0.0
O96 O 0.39401 0.47414 0.85737 0.0
O97 O 0.41198 0.43266 0.83166 0.0
O98 O 0.42227 0.47608 0.74859 0.0
O99 O 0.45879 0.44545 0.7646 0.0
C100 C 0.47028 0.3734 -0.00137 0.0
C101 C 0.44979 0.35259 -0.01565 0.0
H102 H 0.40932 0.31624 0.94182 0.0
H103 H 0.38629 0.32116 0.84674 0.0
H104 H 0.51755 0.45451 0.93803 0.0
H105 H 0.50868 0.41696 0.0107 0.0
H106 H 0.48091 0.37232 0.03968 0.0
H107 H 0.44489 0.33591 0.01476 0.0
Mn108 Mn 0.57547 0.88752 0.02748 0.0
Mn109 Mn 0.62812 0.93591 0.04478 0.0
C110 C 0.58605 0.90491 0.11622 0.0
C111 C 0.5634 0.83855 0.03288 0.0
C112 C 0.56874 0.95207 0.00374 0.0
O113 O 0.59664 0.88521 0.95065 0.0
O114 O 0.63148 0.91691 0.96959 0.0
C115 C 0.67574 0.89464 0.05075 0.0
N116 N 0.66056 0.91633 0.07471 0.0
C117 C 0.69002 0.91588 0.15893 0.0
C118 C 0.70609 0.89366 0.13497 0.0
C119 C 0.69889 0.88297 0.08069 0.0
C120 C 0.66719 0.92664 0.12708 0.0
H121 H 0.67017 0.88625 0.0092 0.0
C122 C 0.61916 0.899 0.93651 0.0
O123 O 0.5463 0.85669 0.00843 0.0
O124 O 0.58773 0.84831 0.04864 0.0
N125 N 0.62775 0.95614 0.11597 0.0
C126 C 0.61065 0.97821 0.13224 0.0
C127 C 0.61536 0.99169 0.18509 0.0
C128 C 0.63774 0.98253 0.2204 0.0
C129 C 0.65552 0.96031 0.20205 0.0
C130 C 0.65008 0.948 0.14855 0.0
H131 H 0.59345 0.9854 0.10526 0.0
O132 O 0.56165 0.89308 0.10697 0.0
O133 O 0.60375 0.9058 0.07375 0.0
O134 O 0.55763 0.92687 0.00458 0.0
O135 O 0.5948 0.95704 0.01641 0.0
C136 C 0.67836 0.94981 0.23486 0.0
C137 C 0.69558 0.92757 0.21338 0.0
H138 H 0.72392 0.88456 0.15797 0.0
H139 H 0.71111 0.86574 0.06204 0.0
H140 H 0.60164 1.00894 0.19877 0.0
H141 H 0.64107 0.99271 0.26149 0.0
H142 H 0.68272 0.95857 0.27683 0.0
H143 H 0.71303 0.91962 0.23911 0.0
Mn144 Mn 0.1447 0.44629 -0.00565 0.0
Mn145 Mn 0.08861 0.40161 -0.01708 0.0
C146 C 0.12223 0.43937 0.90811 0.0
C147 C 0.19421 0.45283 0.97895 0.0
C148 C 0.0831 0.46185 0.0297 0.0
O149 O 0.14742 0.42341 0.06934 0.0
O150 O 0.10942 0.39485 0.05504 0.0
C151 C 0.12245 0.34873 0.96963 0.0
N152 N 0.10241 0.36707 0.94926 0.0
C153 C 0.09634 0.339 0.86383 0.0
C154 C 0.11679 0.31973 0.88407 0.0
C155 C 0.12993 0.32464 0.93716 0.0
C156 C 0.08982 0.36267 0.89799 0.0
H157 H 0.13273 0.35251 0.01023 0.0
C158 C 0.13049 0.40342 0.08525 0.0
O159 O 0.1797 0.47089 0.00976 0.0
O160 O 0.18087 0.43004 0.9639 0.0
N161 N 0.06647 0.40564 0.91466 0.0
C162 C 0.04659 0.42586 0.90206 0.0
C163 C 0.03089 0.42363 0.85114 0.0
C164 C 0.03559 0.40054 0.81398 0.0
C165 C 0.05578 0.37973 0.82835 0.0
C166 C 0.07045 0.38284 0.88012 0.0
H167 H 0.04277 0.44358 0.93058 0.0
O168 O 0.13726 0.46206 0.91653 0.0
O169 O 0.12079 0.42161 0.95024 0.0
O170 O 0.10966 0.46867 0.02616 0.0
O171 O 0.07341 0.43734 0.01533 0.0
C172 C 0.06191 0.35602 0.79337 0.0
C173 C 0.0823 0.33575 0.81094 0.0
H174 H 0.12264 0.30113 0.85915 0.0
H175 H 0.14583 0.30993 0.95295 0.0
H176 H 0.01528 0.43974 0.84043 0.0
H177 H 0.02365 0.39905 0.77445 0.0
H178 H 0.05114 0.35322 0.75278 0.0
H179 H 0.08694 0.31769 0.78354 0.0
Mn180 Mn 0.5588 0.64805 0.24132 0.0
Mn181 Mn 0.60679 0.59458 0.24341 0.0
C182 C 0.56759 0.62179 0.1604 0.0
C183 C 0.55175 0.69688 0.21736 0.0
C184 C 0.54589 0.58697 0.28462 0.0
O185 O 0.57944 0.65511 0.3173 0.0
O186 O 0.61003 0.61821 0.31355 0.0
C187 C 0.65722 0.63196 0.23085 0.0
N188 N 0.64105 0.60988 0.21145 0.0
C189 C 0.67114 0.60394 0.12882 0.0
C190 C 0.68822 0.62651 0.14813 0.0
C191 C 0.68122 0.64058 0.19935 0.0
C192 C 0.6475 0.59631 0.16204 0.0
H193 H 0.65176 0.64304 0.26988 0.0
C194 C 0.59933 0.63989 0.339 0.0
O195 O 0.5331 0.68324 0.24832 0.0
O196 O 0.57485 0.68323 0.20648 0.0
N197 N 0.60646 0.56972 0.17841 0.0
C198 C 0.58848 0.54761 0.16711 0.0
C199 C 0.59299 0.53077 0.11817 0.0
C200 C 0.61605 0.5367 0.0817 0.0
C201 C 0.63474 0.55904 0.09515 0.0
C202 C 0.62945 0.57475 0.14503 0.0
H203 H 0.57074 0.54296 0.19501 0.0
O204 O 0.54456 0.63669 0.16454 0.0
O205 O 0.5852 0.62344 0.20299 0.0
O206 O 0.53758 0.61298 0.27699 0.0
O207 O 0.57124 0.5783 0.27383 0.0
C208 C 0.65841 0.56633 0.06105 0.0
C209 C 0.67651 0.58887 0.07773 0.0
H210 H 0.7067 0.63327 0.12388 0.0
H211 H 0.69422 0.6581 0.21439 0.0
H212 H 0.57861 0.51341 0.10837 0.0
H213 H 0.61925 0.5239 0.04362 0.0
H214 H 0.66284 0.5548 0.02186 0.0
H215 H 0.69457 0.59437 0.05103 0.0
Mn216 Mn 0.37531 0.06045 0.51996 0.0
Mn217 Mn 0.42782 0.10957 0.51977 0.0
C218 C 0.40057 0.06923 0.43839 0.0
C219 C 0.32668 0.05222 0.50048 0.0
C220 C 0.43665 0.04904 0.56188 0.0
O221 O 0.36871 0.08112 0.59591 0.0
O222 O 0.40455 0.11288 0.59028 0.0
C223 C 0.38971 0.15942 0.50691 0.0
N224 N 0.41197 0.14347 0.48751 0.0
C225 C 0.41761 0.1736 0.40499 0.0
C226 C 0.39488 0.19046 0.4243 0.0
C227 C 0.38086 0.18332 0.47545 0.0
C228 C 0.42548 0.15005 0.43816 0.0
H229 H 0.37871 0.15385 0.54592 0.0
C230 C 0.38347 0.1016 0.61667 0.0
O231 O 0.34143 0.0337 0.52949 0.0
O232 O 0.33936 0.07563 0.48757 0.0
N233 N 0.45239 0.10921 0.45435 0.0
C234 C 0.47447 0.09126 0.44265 0.0
C235 C 0.49106 0.09574 0.39342 0.0
C236 C 0.48497 0.11879 0.35712 0.0
C237 C 0.46269 0.13748 0.37099 0.0
C238 C 0.44717 0.13217 0.42107 0.0
H239 H 0.47925 0.07352 0.47042 0.0
O240 O 0.38597 0.04603 0.44317 0.0
O241 O 0.39902 0.08722 0.48052 0.0
O242 O 0.4109 0.04011 0.55436 0.0
O243 O 0.4448 0.07451 0.55071 0.0
C244 C 0.45522 0.16111 0.33703 0.0
C245 C 0.43261 0.17909 0.35389 0.0
H246 H 0.38793 0.20886 0.40008 0.0
H247 H 0.36321 0.19614 0.49049 0.0
H248 H 0.50837 0.08136 0.38328 0.0
H249 H 0.49758 0.12198 0.31882 0.0
H250 H 0.46662 0.16558 0.29774 0.0
H251 H 0.42694 0.19709 0.32724 0.0
Mn252 Mn 0.94832 0.87192 0.75993 0.0
Mn253 Mn 0.89779 0.92309 0.76383 0.0
C254 C 0.93466 0.8946 0.67799 0.0
C255 C 0.95899 0.82363 0.74 0.0
C256 C 0.95951 0.93484 0.7938 0.0
O257 O 0.93091 0.86598 0.83945 0.0
O258 O 0.8988 0.90167 0.83699 0.0
C259 C 0.84853 0.88366 0.76574 0.0
N260 N 0.86296 0.90545 0.74043 0.0
C261 C 0.82894 0.90767 0.66357 0.0
C262 C 0.81363 0.88535 0.68903 0.0
C263 C 0.82348 0.8733 0.74032 0.0
C264 C 0.85371 0.91714 0.69097 0.0
H265 H 0.85615 0.87416 0.8049 0.0
C266 C 0.91136 0.88113 0.86278 0.0
O267 O 0.97717 0.83968 0.76716 0.0
O268 O 0.93425 0.83458 0.73121 0.0
N269 N 0.89421 0.94561 0.69598 0.0
C270 C 0.91089 0.96767 0.67807 0.0
C271 C 0.90374 0.98235 0.62776 0.0
C272 C 0.8794 0.97438 0.59672 0.0
C273 C 0.86209 0.95222 0.61699 0.0
C274 C 0.87006 0.93865 0.66784 0.0
H275 H 0.9297 0.97379 0.70159 0.0
O276 O 0.95892 0.8817 0.68033 0.0
O277 O 0.91878 0.89356 0.72342 0.0
O278 O 0.96856 0.90898 0.78848 0.0
O279 O 0.93355 0.94213 0.7856 0.0
C280 C 0.8373 0.94297 0.5886 0.0
C281 C 0.82074 0.9207 0.61183 0.0
H282 H 0.79435 0.87724 0.66946 0.0
H283 H 0.81184 0.85599 0.76009 0.0
H284 H 0.91711 0.99956 0.61264 0.0
H285 H 0.87417 0.98548 0.5575 0.0
H286 H 0.83087 0.95277 0.54875 0.0
H287 H 0.80175 0.91374 0.58952 0.0
Mn288 Mn 0.65072 0.58123 0.76892 0.0
Mn289 Mn 0.59684 0.629 0.76672 0.0
C290 C 0.62893 0.59472 0.85224 0.0
C291 C 0.70002 0.57378 0.78251 0.0
C292 C 0.58813 0.56627 0.7398 0.0
O293 O 0.65374 0.5975 0.68774 0.0
O294 O 0.6173 0.62866 0.69239 0.0
C295 C 0.63355 0.68026 0.76156 0.0
N296 N 0.61283 0.66493 0.78832 0.0
C297 C 0.60937 0.69964 0.86393 0.0
C298 C 0.63056 0.71589 0.83699 0.0
C299 C 0.64272 0.70613 0.78562 0.0
C300 C 0.60115 0.67401 0.83801 0.0
H301 H 0.64308 0.67275 0.72227 0.0
C302 C 0.63763 0.61646 0.66521 0.0
O303 O 0.68413 0.55392 0.76023 0.0
O304 O 0.68796 0.59803 0.79149 0.0
N305 N 0.57485 0.63199 0.83549 0.0
C306 C 0.55344 0.61468 0.85408 0.0
C307 C 0.53856 0.62175 0.90432 0.0
C308 C 0.54556 0.64673 0.93441 0.0
C309 C 0.56691 0.66477 0.9132 0.0
C310 C 0.58076 0.65678 0.86255 0.0
H311 H 0.54794 0.59547 0.83109 0.0
O312 O 0.6436 0.57147 0.85007 0.0
O313 O 0.62803 0.61 0.80598 0.0
O314 O 0.61435 0.55853 0.74527 0.0
O315 O 0.57959 0.592 0.74668 0.0
C316 C 0.57487 0.69046 0.9401 0.0
C317 C 0.59616 0.70784 0.91557 0.0
H318 H 0.6377 0.73585 0.85541 0.0
H319 H 0.65916 0.7185 0.76468 0.0
H320 H 0.52189 0.60787 0.92004 0.0
H321 H 0.53427 0.65194 0.97349 0.0
H322 H 0.5647 0.69707 0.97957 0.0
H323 H 0.60213 0.72754 0.93657 0.0
Mn324 Mn 0.44836 0.1441 0.04471 0.0
Mn325 Mn 0.3941 0.09687 0.04572 0.0
C326 C 0.43313 0.12486 0.12897 0.0
C327 C 0.46052 0.19274 0.05695 0.0
C328 C 0.45499 0.07986 0.01628 0.0
O329 O 0.43178 0.14863 0.96441 0.0
O330 O 0.39592 0.11692 0.9711 0.0
C331 C 0.34774 0.13961 0.04283 0.0
N332 N 0.3607 0.11715 0.06892 0.0
C333 C 0.32646 0.11771 0.14565 0.0
C334 C 0.31264 0.14074 0.1194 0.0
C335 C 0.32337 0.15175 0.06781 0.0
C336 C 0.35068 0.10652 0.11878 0.0
H337 H 0.35602 0.14825 0.00337 0.0
C338 C 0.41049 0.1353 0.94311 0.0
O339 O 0.47868 0.17493 0.03455 0.0
O340 O 0.4355 0.18292 0.06714 0.0
N341 N 0.3894 0.07562 0.11498 0.0
C342 C 0.40462 0.05271 0.13369 0.0
C343 C 0.39646 0.03893 0.18445 0.0
C344 C 0.37253 0.04857 0.21499 0.0
C345 C 0.35666 0.07158 0.19389 0.0
C346 C 0.36565 0.08428 0.14275 0.0
H347 H 0.42303 0.04521 0.11043 0.0
O348 O 0.458 0.13646 0.12563 0.0
O349 O 0.41747 0.12544 0.08328 0.0
O350 O 0.4665 0.1048 0.02105 0.0
O351 O 0.42836 0.07525 0.02407 0.0
C352 C 0.33227 0.08242 0.22158 0.0
C353 C 0.31725 0.10554 0.19758 0.0
H354 H 0.29385 0.15018 0.13855 0.0
H355 H 0.31289 0.1696 0.04742 0.0
H356 H 0.4087 0.02104 0.20021 0.0
H357 H 0.3665 0.0381 0.25446 0.0
H358 H 0.32492 0.07316 0.26139 0.0
H359 H 0.2986 0.11376 0.21938 0.0
Mn360 Mn 0.87768 0.95726 0.28554 0.0
Mn361 Mn 0.92967 0.90767 0.28742 0.0
C362 C 0.903 0.94923 0.36724 0.0
C363 C 0.82916 0.96667 0.30574 0.0
C364 C 0.9396 0.96777 0.24437 0.0
O365 O 0.87055 0.93568 0.21078 0.0
O366 O 0.90705 0.90475 0.21598 0.0
C367 C 0.89029 0.85871 0.29903 0.0
N368 N 0.91269 0.87418 0.31921 0.0
C369 C 0.91629 0.84445 0.40274 0.0
C370 C 0.89337 0.8281 0.38266 0.0
C371 C 0.88032 0.83527 0.33057 0.0
C372 C 0.92531 0.86753 0.36941 0.0
H373 H 0.87998 0.86432 0.25935 0.0
C374 C 0.88573 0.91558 0.18974 0.0
O375 O 0.84401 0.98414 0.2743 0.0
O376 O 0.84158 0.94336 0.32025 0.0
N377 N 0.95362 0.90747 0.35364 0.0
C378 C 0.97624 0.92467 0.36568 0.0
C379 C 0.99218 0.91987 0.41558 0.0
C380 C 0.98486 0.89729 0.45222 0.0
C381 C 0.96207 0.87933 0.43795 0.0
C382 C 0.9473 0.88487 0.38715 0.0
H383 H 0.98194 0.94205 0.33767 0.0
O384 O 0.88879 0.97261 0.36131 0.0
O385 O 0.9011 0.9307 0.32607 0.0
O386 O 0.91367 0.97669 0.24969 0.0
O387 O 0.94759 0.94243 0.2572 0.0
C388 C 0.95336 0.8562 0.47219 0.0
C389 C 0.93036 0.8389 0.45476 0.0
H390 H 0.88556 0.81006 0.40696 0.0
H391 H 0.86254 0.82283 0.31491 0.0
H392 H 1.0099 0.93367 0.42601 0.0
H393 H 0.99695 0.89389 0.49106 0.0
H394 H 0.9641 0.85162 0.51213 0.0
H395 H 0.92362 0.82137 0.48164 0.0
Mn396 Mn 0.07551 0.37723 0.5082 0.0
Mn397 Mn 0.1216 0.43244 0.51871 0.0
C398 C 0.07953 0.4023 0.59193 0.0
C399 C 0.06814 0.32795 0.52351 0.0
C400 C 0.06255 0.43859 0.4676 0.0
O401 O 0.09959 0.37269 0.4352 0.0
O402 O 0.12888 0.41004 0.44865 0.0
C403 C 0.17243 0.39647 0.53874 0.0
N404 N 0.15482 0.41791 0.55589 0.0
C405 C 0.18158 0.42472 0.6426 0.0
C406 C 0.20011 0.40282 0.6257 0.0
C407 C 0.19549 0.38861 0.57357 0.0
C408 C 0.15892 0.43153 0.60622 0.0
H409 H 0.16883 0.38535 0.49891 0.0
C410 C 0.12012 0.38882 0.4192 0.0
O411 O 0.05069 0.34263 0.49185 0.0
O412 O 0.09046 0.34114 0.54152 0.0
N413 N 0.11761 0.45662 0.58425 0.0
C414 C 0.09881 0.47838 0.59257 0.0
C415 C 0.10109 0.49544 0.64179 0.0
C416 C 0.12292 0.49023 0.68149 0.0
C417 C 0.14263 0.46839 0.67095 0.0
C418 C 0.13954 0.45239 0.6207 0.0
H419 H 0.0821 0.4826 0.56205 0.0
O420 O 0.05755 0.38635 0.58302 0.0
O421 O 0.09927 0.40201 0.55301 0.0
O422 O 0.0549 0.41227 0.47235 0.0
O423 O 0.08704 0.44799 0.48282 0.0
C424 C 0.16529 0.46192 0.70822 0.0
C425 C 0.18463 0.43996 0.69422 0.0
H426 H 0.21791 0.3967 0.65245 0.0
H427 H 0.20963 0.37161 0.56033 0.0
H428 H 0.08599 0.51248 0.64924 0.0
H429 H 0.12443 0.50321 0.71972 0.0
H430 H 0.168 0.47365 0.7478 0.0
H431 H 0.20184 0.43506 0.72333 0.0
Mn432 Mn 0.64148 0.95175 0.51673 0.0
Mn433 Mn 0.58839 0.90358 0.50364 0.0
C434 C 0.61607 0.94845 0.43388 0.0
C435 C 0.69015 0.96136 0.49861 0.0
C436 C 0.57997 0.96113 0.56035 0.0
O437 O 0.64783 0.92624 0.58655 0.0
O438 O 0.61117 0.89606 0.57303 0.0
C439 C 0.62621 0.85453 0.47934 0.0
N440 N 0.60408 0.8716 0.46379 0.0
C441 C 0.59786 0.84584 0.37553 0.0
C442 C 0.62047 0.82787 0.39078 0.0
C443 C 0.63473 0.83227 0.44287 0.0
C444 C 0.59037 0.86769 0.41355 0.0
H445 H 0.63735 0.85796 0.51915 0.0
C446 C 0.63236 0.90515 0.60214 0.0
O447 O 0.67559 0.97728 0.53379 0.0
O448 O 0.6774 0.93909 0.4793 0.0
N449 N 0.56408 0.90788 0.43851 0.0
C450 C 0.54227 0.92667 0.43085 0.0
C451 C 0.52554 0.9249 0.3812 0.0
C452 C 0.53116 0.90364 0.34032 0.0
C453 C 0.55317 0.88403 0.34996 0.0
C454 C 0.56889 0.88663 0.40059 0.0
H455 H 0.53779 0.94299 0.4622 0.0
O456 O 0.63077 0.97113 0.44453 0.0
O457 O 0.61758 0.92791 0.47086 0.0
O458 O 0.60596 0.96996 0.55641 0.0
O459 O 0.57156 0.93673 0.54235 0.0
C460 C 0.56021 0.86207 0.31123 0.0
C461 C 0.58262 0.84307 0.32388 0.0
H462 H 0.62714 0.81072 0.36274 0.0
H463 H 0.65229 0.81858 0.45482 0.0
H464 H 0.50844 0.93998 0.37431 0.0
H465 H 0.51842 0.90254 0.30178 0.0
H466 H 0.54863 0.85972 0.27143 0.0
H467 H 0.58799 0.82643 0.29356 0.0
Mn468 Mn 0.06453 0.13901 0.74 0.0
Mn469 Mn 0.11136 0.08457 0.73949 0.0
C470 C 0.07152 0.11268 0.6588 0.0
C471 C 0.05868 0.18798 0.71608 0.0
C472 C 0.05072 0.07804 0.7827 0.0
O473 O 0.08607 0.14545 0.81499 0.0
O474 O 0.11562 0.10778 0.80995 0.0
C475 C 0.16235 0.12108 0.72586 0.0
N476 N 0.1456 0.09939 0.70663 0.0
C477 C 0.17471 0.09345 0.62264 0.0
C478 C 0.19238 0.1156 0.64173 0.0
C479 C 0.18616 0.12947 0.69358 0.0
C480 C 0.15132 0.086 0.65667 0.0
H481 H 0.15747 0.13202 0.76534 0.0
C482 C 0.10566 0.12964 0.83596 0.0
O483 O 0.03991 0.17494 0.74776 0.0
O484 O 0.0813 0.17368 0.70469 0.0
N485 N 0.11003 0.05999 0.67413 0.0
C486 C 0.09157 0.03824 0.66307 0.0
C487 C 0.09525 0.02167 0.61351 0.0
C488 C 0.11799 0.02746 0.57616 0.0
C489 C 0.13722 0.04938 0.5894 0.0
C490 C 0.13275 0.06483 0.63992 0.0
H491 H 0.07404 0.03373 0.69161 0.0
O492 O 0.049 0.12822 0.66413 0.0
O493 O 0.08987 0.11388 0.70022 0.0
O494 O 0.04287 0.10429 0.77615 0.0
O495 O 0.07578 0.06891 0.77074 0.0
C496 C 0.16062 0.05652 0.55445 0.0
C497 C 0.17925 0.07865 0.57094 0.0
H498 H 0.21071 0.12219 0.61685 0.0
H499 H 0.19962 0.14668 0.70847 0.0
H500 H 0.08047 1.00462 0.60388 0.0
H501 H 0.12055 0.0149 0.53758 0.0
H502 H 0.16443 0.04522 0.51472 0.0
H503 H 0.19702 0.08411 0.54361 0.0
Mn504 Mn 0.88478 0.57799 0.00783 0.0
Mn505 Mn 0.94006 0.624 0.00678 0.0
C506 C 0.90894 0.58775 0.9249 0.0
C507 C 0.8359 0.57134 -0.01375 0.0
C508 C 0.94615 0.56215 0.04355 0.0
O509 O 0.88001 0.59806 0.08556 0.0
O510 O 0.91795 0.62734 0.07855 0.0
C511 C 0.9052 0.67656 0.00097 0.0
N512 N 0.9258 0.65947 0.97835 0.0
C513 C 0.93163 0.69068 0.89746 0.0
C514 C 0.91061 0.70869 0.92011 0.0
C515 C 0.89732 0.70158 0.97206 0.0
C516 C 0.9386 0.66604 0.9282 0.0
H517 H 0.89475 0.67109 0.04063 0.0
C518 C 0.89633 0.61758 0.10563 0.0
O519 O 0.84983 0.55232 0.01562 0.0
O520 O 0.84916 0.59491 0.97714 0.0
N521 N 0.96324 0.62337 0.9393 0.0
C522 C 0.98391 0.60432 0.92443 0.0
C523 C 0.99965 0.60864 0.87403 0.0
C524 C 0.99418 0.63261 0.83978 0.0
C525 C 0.9734 0.65234 0.85682 0.0
C526 C 0.95868 0.64712 0.90792 0.0
H527 H 0.98818 0.58585 0.95053 0.0
O528 O 0.89402 0.56475 0.9292 0.0
O529 O 0.909 0.60458 0.96879 0.0
O530 O 0.91968 0.55517 0.03854 0.0
O531 O 0.95561 0.58729 0.03354 0.0
C532 C 0.96675 0.677 0.82519 0.0
C533 C 0.94581 0.69612 0.8454 0.0
H534 H 0.90442 0.72797 0.8979 0.0
H535 H 0.88099 0.7153 -0.01031 0.0
H536 H 0.0158 0.59341 0.86138 0.0
H537 H 1.00613 0.63568 0.80058 0.0
H538 H 0.97759 0.68147 0.78526 0.0
H539 H 0.94084 0.71497 0.82064 0.0
Mn540 Mn 0.44575 0.37986 0.26848 0.0
Mn541 Mn 0.39522 0.43115 0.26384 0.0
C542 C 0.43475 0.40208 0.18437 0.0
C543 C 0.45664 0.3313 0.25058 0.0
C544 C 0.45599 0.44304 0.30143 0.0
O545 O 0.42578 0.37461 0.34596 0.0
O546 O 0.39357 0.40993 0.33679 0.0
C547 C 0.34608 0.39161 0.25898 0.0
N548 N 0.3613 0.41344 0.2357 0.0
C549 C 0.32976 0.41579 0.15468 0.0
C550 C 0.31368 0.39345 0.17799 0.0
C551 C 0.3219 0.38129 0.23033 0.0
C552 C 0.35369 0.42514 0.18512 0.0
H553 H 0.35242 0.38207 0.299 0.0
C554 C 0.40508 0.38968 0.36518 0.0
O555 O 0.47413 0.34733 0.27956 0.0
O556 O 0.43224 0.3424 0.23923 0.0
N557 N 0.39398 0.45356 0.19546 0.0
C558 C 0.41089 0.47597 0.18037 0.0
C559 C 0.40512 0.49098 0.12974 0.0
C560 C 0.38183 0.48306 0.09554 0.0
C561 C 0.36416 0.46058 0.11296 0.0
C562 C 0.37075 0.44666 0.16425 0.0
H563 H 0.42881 0.48217 0.20646 0.0
O564 O 0.45878 0.389 0.18987 0.0
O565 O 0.41754 0.40136 0.22766 0.0
O566 O 0.46522 0.41715 0.29799 0.0
O567 O 0.43025 0.4502 0.29026 0.0
C568 C 0.34018 0.45154 0.08161 0.0
C569 C 0.32306 0.42908 0.10234 0.0
H570 H 0.29501 0.38542 0.15602 0.0
H571 H 0.30965 0.36397 0.24848 0.0
H572 H 0.41871 0.50848 0.11688 0.0
H573 H 0.37765 0.49447 0.05618 0.0
H574 H 0.33469 0.46173 0.04154 0.0
H575 H 0.30471 0.42228 0.0778 0.0
H576 H 0.31108 0.01852 0.41025 0.0
H577 H 0.2787 0.07846 0.53408 0.0
H578 H 0.23529 0.08423 0.47801 0.0
H579 H 0.20836 0.07569 0.39089 0.0
H580 H 0.239 0.0161 0.26458 0.0
H581 H 0.28107 1.00632 0.32468 0.0
C582 C 0.29386 0.03175 0.42617 0.0
C583 C 0.2977 0.04736 0.47744 0.0
C584 C 0.26894 0.03542 0.39271 0.0
C585 C 0.27584 0.06551 0.49607 0.0
C586 C 0.25114 0.06906 0.46361 0.0
C587 C 0.22423 0.06052 0.37621 0.0
C588 C 0.22086 0.04714 0.32253 0.0
C589 C 0.24783 0.05478 0.41124 0.0
C590 C 0.24122 0.02694 0.30527 0.0
C591 C 0.26522 0.02134 0.3398 0.0
H592 H 0.9495 0.81286 0.62893 0.0
H593 H 0.98596 0.77511 0.77997 0.0
H594 H 0.99308 0.73004 0.72759 0.0
H595 H 0.98436 0.70025 0.6409 0.0
H596 H 0.9487 0.73897 0.49016 0.0
H597 H 0.94635 0.78503 0.53977 0.0
C598 C 0.95933 0.79483 0.65024 0.0
C599 C 0.96692 0.79717 0.70852 0.0
C600 C 0.96364 0.7693 0.6196 0.0
C601 C 0.97994 0.77383 0.73532 0.0
C602 C 0.98391 0.74808 0.70531 0.0
C603 C 0.97702 0.71908 0.61839 0.0
C604 C 0.96733 0.71642 0.56138 0.0
C605 C 0.97536 0.74542 0.64769 0.0
C606 C 0.957 0.74066 0.53326 0.0
C607 C 0.95531 0.76689 0.56197 0.0
H608 H 0.31982 0.48276 0.89486 0.0
H609 H 0.2891 0.44005 0.74386 0.0
H610 H 0.24212 0.43456 0.7883 0.0
H611 H 0.21087 0.43871 0.87231 0.0
H612 H 0.24028 0.48247 0.02336 0.0
H613 H 0.28665 0.49091 0.97692 0.0
C614 C 0.30246 0.47322 0.87099 0.0
C615 C 0.30767 0.46258 0.8153 0.0
C616 C 0.27549 0.46987 0.89733 0.0
C617 C 0.28537 0.44923 0.78576 0.0
C618 C 0.25861 0.44579 0.81154 0.0
C619 C 0.22742 0.45014 0.89522 0.0
C620 C 0.22227 0.45948 0.95182 0.0
C621 C 0.25363 0.45544 0.8677 0.0
C622 C 0.24371 0.47486 0.98013 0.0
C623 C 0.2702 0.4797 0.95343 0.0
H624 H 0.52916 0.82207 0.12138 0.0
H625 H 0.58343 0.78955 -0.01234 0.0
H626 H 0.58354 0.74261 0.03298 0.0
H627 H 0.57247 0.71225 0.11471 0.0
H628 H 0.51867 0.74334 0.25067 0.0
H629 H 0.51392 0.78932 0.2005 0.0
C630 C 0.53996 0.80432 0.10099 0.0
C631 C 0.55555 0.80909 0.05 0.0
C632 C 0.54056 0.77737 0.12846 0.0
C633 C 0.57056 0.78624 0.0256 0.0
C634 C 0.57093 0.75948 0.05199 0.0
C635 C 0.55957 0.72902 0.13355 0.0
C636 C 0.54637 0.72447 0.18713 0.0
C637 C 0.55676 0.75506 0.10419 0.0
C638 C 0.52924 0.74627 0.20989 0.0
C639 C 0.52654 0.77256 0.18106 0.0
H640 H 0.71694 0.53934 0.87061 0.0
H641 H 0.74769 0.6009 0.74862 0.0
H642 H 0.79247 0.60497 0.80112 0.0
H643 H 0.82091 0.59475 0.88582 0.0
H644 H 0.79165 0.53363 0.01027 0.0
H645 H 0.74819 0.52574 0.95324 0.0
C646 C 0.73394 0.55278 0.85451 0.0
C647 C 0.7293 0.56926 0.80472 0.0
C648 C 0.75948 0.55572 0.88637 0.0
C649 C 0.75102 0.5875 0.78575 0.0
C650 C 0.77648 0.59011 0.81629 0.0
C651 C 0.80502 0.57972 0.90091 0.0
C652 C 0.80928 0.56532 0.95325 0.0
C653 C 0.78056 0.57503 0.86749 0.0
C654 C 0.78879 0.54531 0.97077 0.0
C655 C 0.76399 0.54075 0.93794 0.0
H656 H 0.44375 0.31747 0.14236 0.0
H657 H 0.48899 0.2855 0.2891 0.0
H658 H 0.49837 0.24048 0.23773 0.0
H659 H 0.48896 0.20853 0.15375 0.0
H660 H 0.44346 0.24195 0.00869 0.0
H661 H 0.43932 0.2882 0.05605 0.0
C662 C 0.45583 0.30071 0.16316 0.0
C663 C 0.46518 0.30463 0.22003 0.0
C664 C 0.46138 0.27527 0.13311 0.0
C665 C 0.48137 0.28297 0.24568 0.0
C666 C 0.4867 0.25725 0.21618 0.0
C667 C 0.47933 0.22639 0.13159 0.0
C668 C 0.46731 0.22204 0.07677 0.0
C669 C 0.47638 0.25295 0.1601 0.0
C670 C 0.45369 0.24498 0.04979 0.0
C671 C 0.45097 0.27135 0.07732 0.0
H672 H 0.81806 0.97233 0.41826 0.0
H673 H 0.7776 0.9748 0.25305 0.0
H674 H 0.73063 0.97579 0.29942 0.0
H675 H 0.7012 0.97016 0.38697 0.0
H676 H 0.74156 0.96963 0.55237 0.0
H677 H 0.78846 0.97406 0.5063 0.0
C678 C 0.7989 0.97382 0.39251 0.0
C679 C 0.80124 0.97368 0.33222 0.0
C680 C 0.77202 0.97437 0.41965 0.0
C681 C 0.77635 0.97531 0.29931 0.0
C682 C 0.74951 0.97555 0.32595 0.0
C683 C 0.72029 0.97164 0.41293 0.0
C684 C 0.71798 0.96959 0.47308 0.0
C685 C 0.74708 0.97427 0.38601 0.0
C686 C 0.74277 0.97143 0.50624 0.0
C687 C 0.76958 0.97369 0.47975 0.0
H688 H 0.03549 0.31202 0.61453 0.0
H689 H 0.09091 0.27889 0.48333 0.0
H690 H 0.09202 0.23259 0.5315 0.0
H691 H 0.08068 0.20294 0.61419 0.0
H692 H 0.02534 0.23464 0.74713 0.0
H693 H 0.02062 0.28012 0.69518 0.0
C694 C 0.04696 0.29429 0.59559 0.0
C695 C 0.06247 0.29861 0.54438 0.0
C696 C 0.04799 0.26777 0.62451 0.0
C697 C 0.07819 0.27586 0.52155 0.0
C698 C 0.07908 0.2495 0.54952 0.0
C699 C 0.06752 0.21975 0.63209 0.0
C700 C 0.0538 0.2155 0.68529 0.0
C701 C 0.06468 0.24546 0.60165 0.0
C702 C 0.03631 0.23735 0.70673 0.0
C703 C 0.03363 0.26334 0.67688 0.0
H704 H 0.02817 0.06825 0.22116 0.0
H705 H 0.08689 0.99729 0.22104 0.0
H706 H 0.04676 0.96411 0.21761 0.0
H707 H 0.99548 0.95525 0.22431 0.0
H708 H 0.93672 0.0261 0.23028 0.0
H709 H 0.97665 0.05933 0.22083 0.0
C710 C 0.03239 0.04554 0.21975 0.0
C711 C 0.06079 0.03541 0.22194 0.0
C712 C 1.00918 0.02655 0.21908 0.0
C713 C 0.06547 1.00584 0.21962 0.0
C714 C 0.04246 0.98681 0.21786 0.0
C715 C 0.99117 0.97795 0.22291 0.0
C716 C 0.96288 0.98804 0.22863 0.0
C717 C 0.01427 0.99694 0.21905 0.0
C718 C 0.95806 0.01759 0.22605 0.0
C719 C 0.98097 0.03663 0.22101 0.0
H720 H 0.95767 0.5211 0.45673 0.0
H721 H 0.02512 0.58377 0.45769 0.0
H722 H 0.06028 0.54587 0.44415 0.0
H723 H 0.0721 0.49499 0.44661 0.0
H724 H 1.00471 0.4323 0.4531 0.0
H725 H 0.96927 0.47036 0.44818 0.0
C726 C 0.98003 0.52667 0.4531 0.0
C727 C 0.98869 0.5554 0.45922 0.0
C728 C 1.00016 0.50471 0.44717 0.0
C729 C 0.01775 0.56199 0.45341 0.0
C730 C 0.0379 0.54025 0.44606 0.0
C731 C 0.04967 0.48946 0.44601 0.0
C732 C 0.04119 0.46063 0.45122 0.0
C733 C 0.0294 0.51151 0.44512 0.0
C734 C 0.01198 0.45414 0.44943 0.0
C735 C 0.99166 0.47597 0.44703 0.0
H736 H 0.50552 0.46028 0.72795 0.0
H737 H 0.44226 0.52715 0.72985 0.0
H738 H 0.48008 0.5629 0.72217 0.0
H739 H 0.53094 0.57514 0.72608 0.0
H740 H 0.59402 0.50806 0.73 0.0
H741 H 0.55617 0.47239 0.72433 0.0
C742 C 0.49978 0.48265 0.72593 0.0
C743 C 0.47084 0.49089 0.7301 0.0
C744 C 0.52166 0.50307 0.72337 0.0
C745 C 0.46415 0.52004 0.7267 0.0
C746 C 0.48585 0.54053 0.72281 0.0
C747 C 0.53661 0.55274 0.72512 0.0
C748 C 0.56555 0.54444 0.72911 0.0
C749 C 0.51468 0.53229 0.72291 0.0
C750 C 0.57213 0.51522 0.72728 0.0
C751 C 0.55044 0.49477 0.72415 0.0
H752 H 0.51014 0.95661 -0.00073 0.0
H753 H 0.58704 1.00667 -0.01398 0.0
H754 H 0.55934 0.05036 -0.01369 0.0
H755 H 0.5133 0.07525 -0.00139 0.0
H756 H 0.43641 0.0248 0.00833 0.0
H757 H 0.4639 0.98135 0.00085 0.0
C758 C 0.52084 0.977 -0.00469 0.0
C759 C 0.55078 0.97796 -0.00664 0.0
C760 C 0.50472 1.00248 -0.00441 0.0
C761 C 0.56407 1.00489 -0.01175 0.0
C762 C 0.54822 0.03015 -0.01145 0.0
C763 C 0.50251 0.05482 -0.00155 0.0
C764 C 0.47269 0.0538 0.00496 0.0
C765 C 0.51852 0.02933 -0.00636 0.0
C766 C 0.4593 0.02677 0.0041 0.0
C767 C 0.47503 1.00159 -0.00024 0.0
H768 H 0.02603 0.45402 0.04668 0.0
H769 H 0.09083 0.51943 0.04779 0.0
H770 H 0.05399 0.55588 0.05911 0.0
H771 H 1.00347 0.56942 0.05851 0.0
H772 H 0.93867 0.50406 0.05254 0.0
H773 H 0.97563 0.46736 0.05411 0.0
C774 C 0.03231 0.4762 0.05008 0.0
C775 C 0.06142 0.48382 0.04576 0.0
C776 C 1.01095 0.49712 0.05539 0.0
C777 C 0.06879 0.51277 0.05083 0.0
C778 C 0.04765 0.53368 0.05703 0.0
C779 C 0.99723 0.54716 0.05832 0.0
C780 C 0.96806 0.5397 0.05483 0.0
C781 C 0.01865 0.52614 0.05783 0.0
C782 C 0.96075 0.51062 0.05512 0.0
C783 C 0.98195 0.48957 0.05568 0.0
H784 H 0.44394 0.50001 0.30888 0.0
H785 H 0.51406 0.4405 0.31794 0.0
H786 H 0.54762 0.48034 0.32065 0.0
H787 H 0.55724 0.53137 0.31018 0.0
H788 H 0.48739 0.59082 0.29471 0.0
H789 H 0.45352 0.55147 0.30552 0.0
C790 C 0.46654 0.49556 0.31213 0.0
C791 C 0.47633 0.46697 0.31261 0.0
C792 C 0.4858 0.51859 0.31213 0.0
C793 C 0.50576 0.46204 0.31733 0.0
C794 C 0.52501 0.48488 0.31861 0.0
C795 C 0.53461 0.53599 0.30978 0.0
C796 C 0.52502 0.56428 0.30099 0.0
C797 C 0.51529 0.51317 0.31444 0.0
C798 C 0.49553 0.56947 0.30131 0.0
C799 C 0.47613 0.54689 0.30715 0.0
H800 H 0.49227 0.06127 0.58483 0.0
H801 H 0.43323 0.99074 0.5747 0.0
H802 H 0.47292 0.95726 0.58322 0.0
H803 H 0.52423 0.94824 0.58007 0.0
H804 H 0.58337 0.01884 0.58176 0.0
H805 H 0.54352 0.05211 0.59117 0.0
C806 C 0.48785 0.03858 0.58524 0.0
C807 C 0.4596 0.02863 0.57818 0.0
C808 C 0.51084 0.01947 0.58828 0.0
C809 C 0.45458 0.99911 0.57971 0.0
C810 C 0.47734 0.97994 0.58429 0.0
C811 C 0.52862 0.97088 0.58336 0.0
C812 C 0.55697 0.98095 0.57927 0.0
C813 C 0.50558 0.98991 0.58654 0.0
C814 C 0.56195 1.01038 0.58454 0.0
C815 C 0.5391 0.02944 0.58948 0.0
H816 H 0.06148 0.02225 0.80703 0.0
H817 H 0.99223 0.08248 0.79261 0.0
H818 H 0.95797 0.04331 0.80111 0.0
H819 H 0.94797 0.99189 0.80197 0.0
H820 H 0.01759 0.93171 0.80953 0.0
H821 H 0.05144 0.97124 0.81448 0.0
C822 C 0.03889 0.02708 0.80637 0.0
C823 C 0.02958 0.05554 0.79856 0.0
C824 C 0.01938 1.00439 0.80941 0.0
C825 C 1.00015 0.061 0.79854 0.0
C826 C 0.98053 0.03852 0.80299 0.0
C827 C 0.97053 0.98721 0.80531 0.0
C828 C 0.98009 0.95855 0.8048 0.0
C829 C 0.98995 1.01008 0.80675 0.0
C830 C 1.00947 0.95332 0.80959 0.0
C831 C 0.02888 0.97599 0.81226 0.0
H832 H 0.11259 0.13262 0.59195 0.0
H833 H 0.04405 0.07173 0.59905 0.0
H834 H 0.05484 0.05602 0.50116 0.0
H835 H 0.08479 0.0593 0.41506 0.0
H836 H 0.14869 0.12493 0.40344 0.0
H837 H 0.13914 0.13929 0.50252 0.0
C838 C 0.10039 0.11567 0.57193 0.0
C839 C 0.07868 0.10209 0.60242 0.0
C840 C 0.10581 0.10794 0.51538 0.0
C841 C 0.06162 0.08143 0.5761 0.0
C842 C 0.06766 0.07267 0.52046 0.0
C843 C 0.09615 0.07704 0.4343 0.0
C844 C 0.11672 0.09169 0.40271 0.0
C845 C 0.08983 0.08568 0.48997 0.0
C846 C 0.1321 0.11415 0.42734 0.0
C847 C 0.12681 0.12214 0.48373 0.0
H848 H 0.91739 0.63634 0.67799 0.0
H849 H 0.98526 0.57485 0.66721 0.0
H850 H 0.97702 0.56091 0.76726 0.0
H851 H 0.94792 0.56464 0.85503 0.0
H852 H 0.88545 0.63157 0.86914 0.0
H853 H 0.89353 0.64496 0.76928 0.0
C854 C 0.9302 0.61981 0.69785 0.0
C855 C 0.95075 0.60536 0.66585 0.0
C856 C 0.92616 0.61302 0.75516 0.0
C857 C 0.96857 0.58523 0.69159 0.0
C858 C 0.96393 0.57742 0.74835 0.0
C859 C 0.93662 0.58247 0.83614 0.0
C860 C 0.91664 0.59758 0.86841 0.0
C861 C 0.94237 0.59082 0.78007 0.0
C862 C 0.90142 0.62027 0.84443 0.0
C863 C 0.90594 0.6278 0.78771 0.0
H864 H 0.45697 0.44307 0.11877 0.0
H865 H 0.39317 0.37709 0.12411 0.0
H866 H 0.38045 0.38666 0.0244 0.0
H867 H 0.38854 0.41321 0.93604 0.0
H868 H 0.4471 0.48385 0.93411 0.0
H869 H 0.46044 0.474 0.03384 0.0
C870 C 0.44001 0.43125 0.09795 0.0
C871 C 0.42549 0.40996 0.12773 0.0
C872 C 0.43201 0.43778 0.0421 0.0
C873 C 0.40395 0.39408 0.10131 0.0
C874 C 0.39679 0.39946 0.04472 0.0
C875 C 0.40429 0.42627 0.95778 0.0
C876 C 0.41808 0.44816 0.9284 0.0
C877 C 0.41082 0.42115 0.0148 0.0
C878 C 0.43721 0.46622 0.95652 0.0
C879 C 0.44471 0.46064 0.01305 0.0
H880 H 0.63575 0.90934 0.3629 0.0
H881 H 0.57627 0.97889 0.37655 0.0
H882 H 0.56023 0.97041 0.27795 0.0
H883 H 0.56333 0.94252 0.1889 0.0
H884 H 0.62708 0.87696 0.1726 0.0
H885 H 0.64105 0.88373 0.2726 0.0
C886 C 0.61909 0.92235 0.34408 0.0
C887 C 0.60608 0.94375 0.3763 0.0
C888 C 0.61085 0.91789 0.28772 0.0
C889 C 0.58567 0.96171 0.35189 0.0
C890 C 0.5766 0.95687 0.29604 0.0
C891 C 0.58037 0.93 0.20762 0.0
C892 C 0.59483 0.90993 0.17446 0.0
C893 C 0.58894 0.93487 0.26381 0.0
C894 C 0.61642 0.89309 0.19806 0.0
C895 C 0.62429 0.89689 0.25479 0.0
H896 H 0.11865 0.38454 0.66495 0.0
H897 H 0.04895 0.44334 0.64582 0.0
H898 H 0.05746 0.46214 0.7425 0.0
H899 H 0.08548 0.4616 0.83188 0.0
H900 H 0.1495 0.39688 0.85533 0.0
H901 H 0.14328 0.38082 0.75657 0.0
C902 C 0.10557 0.40162 0.68219 0.0
C903 C 0.0842 0.41371 0.64868 0.0
C904 C 0.10976 0.41115 0.73794 0.0
C905 C 0.06614 0.43464 0.67128 0.0
C906 C 0.071 0.44528 0.72611 0.0
C907 C 0.09776 0.44387 0.81504 0.0
C908 C 0.11743 0.42994 0.84992 0.0
C909 C 0.09291 0.4338 0.75964 0.0
C910 C 0.13382 0.40734 0.82859 0.0
C911 C 0.1303 0.39822 0.77252 0.0
H912 H 0.60877 0.64429 0.09712 0.0
H913 H 0.54347 0.57984 0.09728 0.0
H914 H 0.55746 0.56495 0.00048 0.0
H915 H 0.58913 0.57016 0.91715 0.0
H916 H 0.64873 0.63989 0.91119 0.0
H917 H 0.63661 0.65297 0.00991 0.0
C918 C 0.59795 0.62679 0.07583 0.0
C919 C 0.57628 0.612 0.10419 0.0
C920 C 0.60506 0.61957 0.01972 0.0
C921 C 0.561 0.59055 0.0761 0.0
C922 C 0.56888 0.58222 0.02108 0.0
C923 C 0.599 0.58847 0.93752 0.0
C924 C 0.61907 0.60463 0.90758 0.0
C925 C 0.59101 0.59649 -0.00725 0.0
C926 C 0.63253 0.62787 0.93376 0.0
C927 C 0.62577 0.63516 -0.01007 0.0
H928 H 0.38112 0.11124 0.37331 0.0
H929 H 0.44147 0.04217 0.37799 0.0
H930 H 0.45753 0.05383 0.28086 0.0
H931 H 0.45439 0.08428 0.1958 0.0
H932 H 0.3899 0.14939 0.18672 0.0
H933 H 0.3754 0.13923 0.28547 0.0
C934 C 0.39803 0.09912 0.35294 0.0
C935 C 0.41129 0.07693 0.38249 0.0
C936 C 0.40612 0.1052 0.29691 0.0
C937 C 0.43196 0.06004 0.35573 0.0
C938 C 0.44096 0.0666 0.30057 0.0
C939 C 0.43693 0.09585 0.21559 0.0
C940 C 0.42251 0.1168 0.18475 0.0
C941 C 0.42825 0.08922 0.271 0.0
C942 C 0.40046 0.13248 0.21007 0.0
C943 C 0.39237 0.12682 0.26621 0.0
H944 H 0.95688 0.93446 0.60992 0.0
H945 H 0.89019 0.87169 0.62194 0.0
H946 H 0.87554 0.88186 0.52344 0.0
H947 H 0.88212 0.90873 0.43447 0.0
H948 H 0.94459 0.97583 0.42668 0.0
H949 H 0.96041 0.96454 0.52412 0.0
C950 C 0.93889 0.92346 0.59087 0.0
C951 C 0.924 0.90307 0.62246 0.0
C952 C 0.9301 0.93014 0.53554 0.0
C953 C 0.9012 0.88814 0.59805 0.0
C954 C 0.893 0.89381 0.54202 0.0
C955 C 0.89941 0.92053 0.45426 0.0
C956 C 0.91337 0.94197 0.42367 0.0
C957 C 0.90736 0.91472 0.51046 0.0
C958 C 0.93453 0.9585 0.44971 0.0
C959 C 0.9434 0.95215 0.50506 0.0
H960 H 0.1462 0.09975 0.89407 0.0
H961 H 0.0864 0.1691 0.91416 0.0
H962 H 0.09527 0.16949 0.01711 0.0
H963 H 0.1146 0.14583 0.10191 0.0
H964 H 0.17173 0.07426 0.0824 0.0
H965 H 0.16958 0.07947 0.97843 0.0
C966 C 0.13534 0.11531 0.92062 0.0
C967 C 0.11521 0.13408 0.8961 0.0
C968 C 0.13988 0.11484 0.98004 0.0
C969 C 0.10179 0.15427 0.93154 0.0
C970 C 0.10676 0.1544 -0.00942 0.0
C971 C 0.12696 0.13153 0.07515 0.0
C972 C 0.14293 0.10929 0.10029 0.0
C973 C 0.12492 0.13408 0.01543 0.0
C974 C 0.15912 0.09141 0.06456 0.0
C975 C 0.15775 0.09429 0.00498 0.0
H976 H 0.92077 0.66217 0.35273 0.0
H977 H 0.86608 0.59126 0.39557 0.0
H978 H 0.85411 0.58482 0.29534 0.0
H979 H 0.86569 0.59389 0.194 0.0
H980 H 0.91934 0.66565 0.15177 0.0
H981 H 0.92456 0.67721 0.25247 0.0
C982 C 0.90567 0.64578 0.34046 0.0
C983 C 0.89512 0.6268 0.38188 0.0
C984 C 0.89889 0.64192 0.28228 0.0
C985 C 0.87515 0.60595 0.36482 0.0
C986 C 0.86827 0.60209 0.3072 0.0
C987 C 0.87787 0.6125 0.2067 0.0
C988 C 0.89276 0.62825 0.16519 0.0
C989 C 0.88104 0.6191 0.26524 0.0
C990 C 0.90819 0.65256 0.18269 0.0
C991 C 0.91126 0.65928 0.24049 0.0
H992 H 0.36404 0.41804 0.61313 0.0
H993 H 0.4387 0.36838 0.6546 0.0
H994 H 0.44383 0.35439 0.55518 0.0
H995 H 0.43192 0.36256 0.45403 0.0
H996 H 0.35651 0.41102 0.41277 0.0
H997 H 0.34682 0.41845 0.51382 0.0
C998 C 0.38107 0.40367 0.60073 0.0
C999 C 0.40132 0.39507 0.64145 0.0
C1000 C 0.38409 0.3956 0.54298 0.0
C1001 C 0.42298 0.37596 0.62437 0.0
C1002 C 0.42606 0.36789 0.56721 0.0
C1003 C 0.41294 0.37404 0.4671 0.0
C1004 C 0.39553 0.38686 0.42558 0.0
C1005 C 0.40746 0.37854 0.5257 0.0
C1006 C 0.37079 0.40143 0.44362 0.0
C1007 C 0.36518 0.4058 0.5016 0.0
H1008 H 0.66513 0.9251 0.69029 0.0
H1009 H 0.60506 0.85877 0.64707 0.0
H1010 H 0.59753 0.84862 0.74791 0.0
H1011 H 0.60176 0.86416 0.84836 0.0
H1012 H 0.66304 0.92961 0.89081 0.0
H1013 H 0.6763 0.93402 0.79107 0.0
C1014 C 0.65102 0.90787 0.70273 0.0
C1015 C 0.6351 0.89342 0.66092 0.0
C1016 C 0.64644 0.90224 0.76111 0.0
C1017 C 0.61721 0.87081 0.67819 0.0
C1018 C 0.61271 0.86501 0.73606 0.0
C1019 C 0.61836 0.87901 0.83598 0.0
C1020 C 0.63063 0.89704 0.87726 0.0
C1021 C 0.62613 0.88155 0.77798 0.0
C1022 C 0.65262 0.91575 0.86023 0.0
C1023 C 0.66034 0.91838 0.8029 0.0
H1024 H 0.10077 0.35669 0.32893 0.0
H1025 H 0.16691 0.41614 0.37648 0.0
H1026 H 0.17874 0.42366 0.27646 0.0
H1027 H 0.16484 0.41972 0.17505 0.0
H1028 H 0.10008 0.35863 0.12785 0.0
H1029 H 0.0938 0.34535 0.22723 0.0
C1030 C 0.1183 0.37066 0.31761 0.0
C1031 C 0.13221 0.38641 0.36044 0.0
C1032 C 0.12507 0.37513 0.25956 0.0
C1033 C 0.15521 0.40415 0.34459 0.0
C1034 C 0.16204 0.40861 0.28714 0.0
C1035 C 0.14985 0.40303 0.18627 0.0
C1036 C 0.13239 0.39101 0.14379 0.0
C1037 C 0.14621 0.39526 0.2441 0.0
C1038 C 0.11341 0.36898 0.15946 0.0
C1039 C 0.1097 0.36125 0.21657 0.0
H1040 H 0.60859 0.65689 0.60513 0.0
H1041 H 0.67115 0.59012 0.58418 0.0
H1042 H 0.66752 0.59468 0.48029 0.0
H1043 H 0.6421 0.613 0.39649 0.0
H1044 H 0.57733 0.67759 0.41786 0.0
H1045 H 0.58671 0.67869 0.52067 0.0
C1046 C 0.62179 0.64352 0.57806 0.0
C1047 C 0.63983 0.62281 0.60287 0.0
C1048 C 0.61901 0.6457 0.51835 0.0
C1049 C 0.65698 0.60609 0.56666 0.0
C1050 C 0.65479 0.6086 0.50712 0.0
C1051 C 0.63022 0.62767 0.4233 0.0
C1052 C 0.60864 0.64489 0.39916 0.0
C1053 C 0.63515 0.62762 0.48261 0.0
C1054 C 0.5939 0.66398 0.43492 0.0
C1055 C 0.59916 0.6645 0.49389 0.0
H1056 H 0.41199 0.14302 0.67501 0.0
H1057 H 0.34522 0.08037 0.6951 0.0
H1058 H 0.3451 0.08872 0.7983 0.0
H1059 H 0.36845 0.10862 0.88303 0.0
H1060 H 0.43764 0.1686 0.86309 0.0
H1061 H 0.43198 0.1666 0.7593 0.0
C1062 C 0.39703 0.13141 0.70162 0.0
C1063 C 0.37895 0.11068 0.67704 0.0
C1064 C 0.39774 0.13561 0.76109 0.0
C1065 C 0.35953 0.09627 0.71256 0.0
C1066 C 0.35957 0.10092 0.77173 0.0
C1067 C 0.38211 0.12164 0.85625 0.0
C1068 C 0.40382 0.13841 0.88119 0.0
C1069 C 0.37931 0.11974 0.79656 0.0
C1070 C 0.42094 0.15532 0.84539 0.0
C1071 C 0.41778 0.1541 0.78592 0.0
H1072 H 0.91462 0.87437 0.13097 0.0
H1073 H 0.84697 0.93608 0.11181 0.0
H1074 H 0.84625 0.92724 0.00882 0.0
H1075 H 0.86916 0.90715 0.92365 0.0
H1076 H 0.93896 0.84787 0.94226 0.0
H1077 H 0.93406 0.85033 0.04627 0.0
C1078 C 0.89935 0.88566 0.1046 0.0
C1079 C 0.88117 0.90629 0.12942 0.0
C1080 C 0.89961 0.88108 0.04515 0.0
C1081 C 0.86136 0.92029 0.09421 0.0
C1082 C 0.86104 0.91533 0.03514 0.0
C1083 C 0.88313 0.89438 0.95022 0.0
C1084 C 0.90479 0.87769 0.92478 0.0
C1085 C 0.88076 0.89657 0.01 0.0
C1086 C 0.92224 0.86102 0.9603 0.0
C1087 C 0.91956 0.86257 0.01992 0.0
loop_
_geom_bond_atom_site_label_1
_geom_bond_atom_site_label_2
_geom_bond_distance
_geom_bond_site_symmetry_2
_ccdc_geom_bond_type
Mn0 O5 2.095 . S
Mn0 O15 2.162 . S
Mn0 O16 2.297 . S
Mn0 O24 2.385 . S
Mn0 O25 2.209 . S
Mn0 O26 2.094 . S
Mn1 O6 2.121 . S
Mn1 N8 2.257 . S
Mn1 N17 2.282 . S
Mn1 O25 2.215 . S
Mn1 O27 2.117 . S
C2 O24 1.234 . S
C2 O25 1.283 . S
C3 O15 1.281 . S
C3 O16 1.236 . S
C4 O26 1.240 . S
C4 O27 1.264 . S
O5 Mn0 2.095 . S
O5 C14 1.250 . S
O6 Mn1 2.121 . S
O6 C14 1.258 . S
C7 N8 1.326 . S
C7 C11 1.460 . S
C7 H13 0.929 . S
N8 Mn1 2.257 . S
N8 C7 1.326 . S
N8 C12 1.362 . S
C9 C10 1.258 . S
C9 C12 1.431 . S
C9 C29 1.449 . S
C10 C9 1.258 . S
C10 C11 1.477 . S
C10 H30 0.931 . S
C11 C7 1.460 . S
C11 C10 1.477 . S
C11 H31 0.930 . S
C12 N8 1.362 . S
C12 C9 1.431 . S
C12 C22 1.476 . S
H13 C7 0.929 . S
C14 O5 1.250 . S
C14 O6 1.258 . S
O15 Mn0 2.162 . S
O15 C3 1.281 . S
O16 Mn0 2.297 . S
O16 C3 1.236 . S
N17 Mn1 2.282 . S
N17 C18 1.328 . S
N17 C22 1.318 . S
C18 N17 1.328 . S
C18 C19 1.457 . S
C18 H23 0.929 . S
C19 C18 1.457 . S
C19 C20 1.291 . S
C19 H32 0.931 . S
C20 C19 1.291 . S
C20 C21 1.373 . S
C20 H33 0.929 1_455 S
C21 C20 1.373 . S
C21 C22 1.396 . S
C21 C28 1.403 . S
C22 C12 1.476 . S
C22 N17 1.318 . S
C22 C21 1.396 . S
H23 C18 0.929 . S
O24 Mn0 2.385 . S
O24 C2 1.234 . S
O25 Mn0 2.209 . S
O25 Mn1 2.215 . S
O25 C2 1.283 . S
O26 Mn0 2.094 . S
O26 C4 1.240 . S
O27 Mn1 2.117 . S
O27 C4 1.264 . S
C28 C21 1.403 . S
C28 C29 1.399 . S
C28 H34 0.929 1_455 S
C29 C9 1.449 . S
C29 C28 1.399 . S
C29 H35 0.930 . S
H30 C10 0.931 . S
H31 C11 0.930 . S
H32 C19 0.931 . S
H33 C20 0.929 1_655 S
H34 C28 0.929 1_655 S
H35 C29 0.930 . S
Mn36 O41 2.095 . S
Mn36 O51 2.162 . S
Mn36 O52 2.297 . S
Mn36 O60 2.385 . S
Mn36 O61 2.209 . S
Mn36 O62 2.094 . S
Mn37 O42 2.121 . S
Mn37 N44 2.257 . S
Mn37 N53 2.282 . S
Mn37 O61 2.215 . S
Mn37 O63 2.117 . S
C38 O60 1.234 . S
C38 O61 1.283 . S
C39 O51 1.281 . S
C39 O52 1.236 . S
C40 O62 1.240 . S
C40 O63 1.264 . S
O41 Mn36 2.095 . S
O41 C50 1.250 . S
O42 Mn37 2.121 . S
O42 C50 1.258 . S
C43 N44 1.326 . S
C43 C47 1.460 . S
C43 H49 0.929 . S
N44 Mn37 2.257 . S
N44 C43 1.326 . S
N44 C48 1.362 . S
C45 C46 1.258 . S
C45 C48 1.431 . S
C45 C65 1.449 . S
C46 C45 1.258 . S
C46 C47 1.477 . S
C46 H66 0.931 . S
C47 C43 1.460 . S
C47 C46 1.477 . S
C47 H67 0.930 . S
C48 N44 1.362 . S
C48 C45 1.431 . S
C48 C58 1.476 . S
H49 C43 0.929 . S
C50 O41 1.250 . S
C50 O42 1.258 . S
O51 Mn36 2.162 . S
O51 C39 1.281 . S
O52 Mn36 2.297 . S
O52 C39 1.236 . S
N53 Mn37 2.282 . S
N53 C54 1.328 . S
N53 C58 1.318 . S
C54 N53 1.328 . S
C54 C55 1.457 . S
C54 H59 0.929 . S
C55 C54 1.457 . S
C55 C56 1.291 . S
C55 H68 0.931 . S
C56 C55 1.291 . S
C56 C57 1.373 . S
C56 H69 0.929 . S
C57 C56 1.373 . S
C57 C58 1.396 . S
C57 C64 1.403 . S
C58 C48 1.476 . S
C58 N53 1.318 . S
C58 C57 1.396 . S
H59 C54 0.929 . S
O60 Mn36 2.385 . S
O60 C38 1.234 . S
O61 Mn36 2.209 . S
O61 Mn37 2.215 . S
O61 C38 1.283 . S
O62 Mn36 2.094 . S
O62 C40 1.240 . S
O63 Mn37 2.117 . S
O63 C40 1.264 . S
C64 C57 1.403 . S
C64 C65 1.399 . S
C64 H70 0.929 . S
C65 C45 1.449 . S
C65 C64 1.399 . S
C65 H71 0.930 . S
H66 C46 0.931 . S
H67 C47 0.930 . S
H68 C55 0.931 . S
H69 C56 0.929 . S
H70 C64 0.929 . S
H71 C65 0.930 . S
Mn72 O77 2.095 . S
Mn72 O87 2.162 . S
Mn72 O88 2.297 . S
Mn72 O96 2.385 . S
Mn72 O97 2.209 . S
Mn72 O98 2.094 . S
Mn73 O78 2.121 . S
Mn73 N80 2.257 . S
Mn73 N89 2.282 . S
Mn73 O97 2.215 . S
Mn73 O99 2.117 . S
C74 O96 1.234 . S
C74 O97 1.283 . S
C75 O87 1.281 . S
C75 O88 1.236 . S
C76 O98 1.240 . S
C76 O99 1.264 . S
O77 Mn72 2.095 . S
O77 C86 1.250 . S
O78 Mn73 2.121 . S
O78 C86 1.258 . S
C79 N80 1.326 . S
C79 C83 1.460 . S
C79 H85 0.929 . S
N80 Mn73 2.257 . S
N80 C79 1.326 . S
N80 C84 1.362 . S
C81 C82 1.258 . S
C81 C84 1.431 . S
C81 C101 1.449 . S
C82 C81 1.258 . S
C82 C83 1.477 . S
C82 H102 0.931 . S
C83 C79 1.460 . S
C83 C82 1.477 . S
C83 H103 0.930 . S
C84 N80 1.362 . S
C84 C81 1.431 . S
C84 C94 1.476 . S
H85 C79 0.929 . S
C86 O77 1.250 . S
C86 O78 1.258 . S
O87 Mn72 2.162 . S
O87 C75 1.281 . S
O88 Mn72 2.297 . S
O88 C75 1.236 . S
N89 Mn73 2.282 . S
N89 C90 1.328 . S
N89 C94 1.318 . S
C90 N89 1.328 . S
C90 C91 1.457 . S
C90 H95 0.929 . S
C91 C90 1.457 . S
C91 C92 1.291 . S
C91 H104 0.931 1_556 S
C92 C91 1.291 . S
C92 C93 1.373 . S
C92 H105 0.929 1_556 S
C93 C92 1.373 . S
C93 C94 1.396 . S
C93 C100 1.403 . S
C94 C84 1.476 . S
C94 N89 1.318 . S
C94 C93 1.396 . S
H95 C90 0.929 . S
O96 Mn72 2.385 . S
O96 C74 1.234 . S
O97 Mn72 2.209 . S
O97 Mn73 2.215 . S
O97 C74 1.283 . S
O98 Mn72 2.094 . S
O98 C76 1.240 . S
O99 Mn73 2.117 . S
O99 C76 1.264 . S
C100 C93 1.403 . S
C100 C101 1.399 . S
C100 H106 0.929 1_556 S
C101 C81 1.449 . S
C101 C100 1.399 . S
C101 H107 0.930 . S
H102 C82 0.931 . S
H103 C83 0.930 . S
H104 C91 0.931 1_554 S
H105 C92 0.929 1_554 S
H106 C100 0.929 1_554 S
H107 C101 0.930 . S
Mn108 O113 2.095 1_554 S
Mn108 O123 2.162 . S
Mn108 O124 2.297 . S
Mn108 O132 2.385 . S
Mn108 O133 2.209 . S
Mn108 O134 2.094 . S
Mn109 O114 2.121 1_554 S
Mn109 N116 2.257 . S
Mn109 N125 2.282 . S
Mn109 O133 2.215 . S
Mn109 O135 2.117 . S
C110 O132 1.234 . S
C110 O133 1.283 . S
C111 O123 1.281 . S
C111 O124 1.236 . S
C112 O134 1.240 . S
C112 O135 1.264 . S
O113 Mn108 2.095 1_556 S
O113 C122 1.250 . S
O114 Mn109 2.121 1_556 S
O114 C122 1.258 . S
C115 N116 1.326 . S
C115 C119 1.460 . S
C115 H121 0.929 . S
N116 Mn109 2.257 . S
N116 C115 1.326 . S
N116 C120 1.362 . S
C117 C118 1.258 . S
C117 C120 1.431 . S
C117 C137 1.449 . S
C118 C117 1.258 . S
C118 C119 1.477 . S
C118 H138 0.931 . S
C119 C115 1.460 . S
C119 C118 1.477 . S
C119 H139 0.930 . S
C120 N116 1.362 . S
C120 C117 1.431 . S
C120 C130 1.476 . S
H121 C115 0.929 . S
C122 O113 1.250 . S
C122 O114 1.258 . S
O123 Mn108 2.162 . S
O123 C111 1.281 . S
O124 Mn108 2.297 . S
O124 C111 1.236 . S
N125 Mn109 2.282 . S
N125 C126 1.328 . S
N125 C130 1.318 . S
C126 N125 1.328 . S
C126 C127 1.457 . S
C126 H131 0.929 . S
C127 C126 1.457 . S
C127 C128 1.291 . S
C127 H140 0.931 . S
C128 C127 1.291 . S
C128 C129 1.373 . S
C128 H141 0.929 1_565 S
C129 C128 1.373 . S
C129 C130 1.396 . S
C129 C136 1.403 . S
C130 C120 1.476 . S
C130 N125 1.318 . S
C130 C129 1.396 . S
H131 C126 0.929 . S
O132 Mn108 2.385 . S
O132 C110 1.234 . S
O133 Mn108 2.209 . S
O133 Mn109 2.215 . S
O133 C110 1.283 . S
O134 Mn108 2.094 . S
O134 C112 1.240 . S
O135 Mn109 2.117 . S
O135 C112 1.264 . S
C136 C129 1.403 . S
C136 C137 1.399 . S
C136 H142 0.929 1_565 S
C137 C117 1.449 . S
C137 C136 1.399 . S
C137 H143 0.930 . S
H138 C118 0.931 . S
H139 C119 0.930 . S
H140 C127 0.931 . S
H141 C128 0.929 1_545 S
H142 C136 0.929 1_545 S
H143 C137 0.930 . S
Mn144 O149 2.093 1_556 S
Mn144 O159 2.162 . S
Mn144 O160 2.297 . S
Mn144 O168 2.387 . S
Mn144 O169 2.209 . S
Mn144 O170 2.094 1_556 S
Mn145 O150 2.121 . S
Mn145 N152 2.257 1_554 S
Mn145 N161 2.282 1_554 S
Mn145 O169 2.215 1_554 S
Mn145 O171 2.117 . S
C146 O168 1.234 . S
C146 O169 1.283 . S
C147 O159 1.281 . S
C147 O160 1.236 . S
C148 O170 1.240 . S
C148 O171 1.264 . S
O149 Mn144 2.093 1_554 S
O149 C158 1.250 . S
O150 Mn145 2.121 . S
O150 C158 1.258 . S
C151 N152 1.326 1_554 S
C151 C155 1.460 . S
C151 H157 0.929 . S
N152 Mn145 2.257 1_556 S
N152 C151 1.326 1_556 S
N152 C156 1.362 . S
C153 C154 1.258 . S
C153 C156 1.431 . S
C153 C173 1.449 . S
C154 C153 1.258 . S
C154 C155 1.477 1_556 S
C154 H174 0.931 . S
C155 C151 1.460 . S
C155 C154 1.477 1_554 S
C155 H175 0.930 . S
C156 N152 1.362 . S
C156 C153 1.431 . S
C156 C166 1.476 . S
H157 C151 0.929 . S
C158 O149 1.250 . S
C158 O150 1.258 . S
O159 Mn144 2.162 . S
O159 C147 1.281 . S
O160 Mn144 2.297 . S
O160 C147 1.236 . S
N161 Mn145 2.282 1_556 S
N161 C162 1.328 . S
N161 C166 1.318 . S
C162 N161 1.328 . S
C162 C163 1.457 . S
C162 H167 0.929 . S
C163 C162 1.457 . S
C163 C164 1.291 . S
C163 H176 0.931 . S
C164 C163 1.291 . S
C164 C165 1.373 . S
C164 H177 0.929 1_455 S
C165 C164 1.373 . S
C165 C166 1.396 . S
C165 C172 1.403 . S
C166 C156 1.476 . S
C166 N161 1.318 . S
C166 C165 1.396 . S
H167 C162 0.929 . S
O168 Mn144 2.387 . S
O168 C146 1.234 . S
O169 Mn144 2.209 . S
O169 Mn145 2.215 1_556 S
O169 C146 1.283 . S
O170 Mn144 2.094 1_554 S
O170 C148 1.240 . S
O171 Mn145 2.117 . S
O171 C148 1.264 . S
C172 C165 1.403 . S
C172 C173 1.399 . S
C172 H178 0.929 1_455 S
C173 C153 1.449 . S
C173 C172 1.399 . S
C173 H179 0.930 . S
H174 C154 0.931 . S
H175 C155 0.930 . S
H176 C163 0.931 . S
H177 C164 0.929 1_655 S
H178 C172 0.929 1_655 S
H179 C173 0.930 . S
Mn180 O185 2.095 . S
Mn180 O195 2.162 . S
Mn180 O196 2.297 . S
Mn180 O204 2.385 . S
Mn180 O205 2.209 . S
Mn180 O206 2.094 . S
Mn181 O186 2.121 . S
Mn181 N188 2.257 . S
Mn181 N197 2.282 . S
Mn181 O205 2.215 . S
Mn181 O207 2.117 . S
C182 O204 1.234 . S
C182 O205 1.283 . S
C183 O195 1.281 . S
C183 O196 1.236 . S
C184 O206 1.240 . S
C184 O207 1.264 . S
O185 Mn180 2.095 . S
O185 C194 1.250 . S
O186 Mn181 2.121 . S
O186 C194 1.258 . S
C187 N188 1.326 . S
C187 C191 1.460 . S
C187 H193 0.929 . S
N188 Mn181 2.257 . S
N188 C187 1.326 . S
N188 C192 1.362 . S
C189 C190 1.258 . S
C189 C192 1.431 . S
C189 C209 1.449 . S
C190 C189 1.258 . S
C190 C191 1.477 . S
C190 H210 0.931 . S
C191 C187 1.460 . S
C191 C190 1.477 . S
C191 H211 0.930 . S
C192 N188 1.362 . S
C192 C189 1.431 . S
C192 C202 1.476 . S
H193 C187 0.929 . S
C194 O185 1.250 . S
C194 O186 1.258 . S
O195 Mn180 2.162 . S
O195 C183 1.281 . S
O196 Mn180 2.297 . S
O196 C183 1.236 . S
N197 Mn181 2.282 . S
N197 C198 1.328 . S
N197 C202 1.318 . S
C198 N197 1.328 . S
C198 C199 1.457 . S
C198 H203 0.929 . S
C199 C198 1.457 . S
C199 C200 1.291 . S
C199 H212 0.931 . S
C200 C199 1.291 . S
C200 C201 1.373 . S
C200 H213 0.929 . S
C201 C200 1.373 . S
C201 C202 1.396 . S
C201 C208 1.403 . S
C202 C192 1.476 . S
C202 N197 1.318 . S
C202 C201 1.396 . S
H203 C198 0.929 . S
O204 Mn180 2.385 . S
O204 C182 1.234 . S
O205 Mn180 2.209 . S
O205 Mn181 2.215 . S
O205 C182 1.283 . S
O206 Mn180 2.094 . S
O206 C184 1.240 . S
O207 Mn181 2.117 . S
O207 C184 1.264 . S
C208 C201 1.403 . S
C208 C209 1.399 . S
C208 H214 0.929 . S
C209 C189 1.449 . S
C209 C208 1.399 . S
C209 H215 0.930 . S
H210 C190 0.931 . S
H211 C191 0.930 . S
H212 C199 0.931 . S
H213 C200 0.929 . S
H214 C208 0.929 . S
H215 C209 0.930 . S
Mn216 O221 2.095 . S
Mn216 O231 2.162 . S
Mn216 O232 2.297 . S
Mn216 O240 2.385 . S
Mn216 O241 2.209 . S
Mn216 O242 2.094 . S
Mn217 O222 2.121 . S
Mn217 N224 2.257 . S
Mn217 N233 2.282 . S
Mn217 O241 2.215 . S
Mn217 O243 2.117 . S
C218 O240 1.234 . S
C218 O241 1.283 . S
C219 O231 1.281 . S
C219 O232 1.236 . S
C220 O242 1.240 . S
C220 O243 1.264 . S
O221 Mn216 2.095 . S
O221 C230 1.250 . S
O222 Mn217 2.121 . S
O222 C230 1.258 . S
C223 N224 1.326 . S
C223 C227 1.460 . S
C223 H229 0.929 . S
N224 Mn217 2.257 . S
N224 C223 1.326 . S
N224 C228 1.362 . S
C225 C226 1.258 . S
C225 C228 1.431 . S
C225 C245 1.449 . S
C226 C225 1.258 . S
C226 C227 1.477 . S
C226 H246 0.931 . S
C227 C223 1.460 . S
C227 C226 1.477 . S
C227 H247 0.930 . S
C228 N224 1.362 . S
C228 C225 1.431 . S
C228 C238 1.476 . S
H229 C223 0.929 . S
C230 O221 1.250 . S
C230 O222 1.258 . S
O231 Mn216 2.162 . S
O231 C219 1.281 . S
O232 Mn216 2.297 . S
O232 C219 1.236 . S
N233 Mn217 2.282 . S
N233 C234 1.328 . S
N233 C238 1.318 . S
C234 N233 1.328 . S
C234 C235 1.457 . S
C234 H239 0.929 . S
C235 C234 1.457 . S
C235 C236 1.291 . S
C235 H248 0.931 . S
C236 C235 1.291 . S
C236 C237 1.373 . S
C236 H249 0.929 . S
C237 C236 1.373 . S
C237 C238 1.396 . S
C237 C244 1.403 . S
C238 C228 1.476 . S
C238 N233 1.318 . S
C238 C237 1.396 . S
H239 C234 0.929 . S
O240 Mn216 2.385 . S
O240 C218 1.234 . S
O241 Mn216 2.209 . S
O241 Mn217 2.215 . S
O241 C218 1.283 . S
O242 Mn216 2.094 . S
O242 C220 1.240 . S
O243 Mn217 2.117 . S
O243 C220 1.264 . S
C244 C237 1.403 . S
C244 C245 1.399 . S
C244 H250 0.929 . S
C245 C225 1.449 . S
C245 C244 1.399 . S
C245 H251 0.930 . S
H246 C226 0.931 . S
H247 C227 0.930 . S
H248 C235 0.931 . S
H249 C236 0.929 . S
H250 C244 0.929 . S
H251 C245 0.930 . S
Mn252 O257 2.095 . S
Mn252 O267 2.162 . S
Mn252 O268 2.297 . S
Mn252 O276 2.385 . S
Mn252 O277 2.209 . S
Mn252 O278 2.094 . S
Mn253 O258 2.121 . S
Mn253 N260 2.257 . S
Mn253 N269 2.282 . S
Mn253 O277 2.215 . S
Mn253 O279 2.117 . S
C254 O276 1.234 . S
C254 O277 1.283 . S
C255 O267 1.281 . S
C255 O268 1.236 . S
C256 O278 1.240 . S
C256 O279 1.264 . S
O257 Mn252 2.095 . S
O257 C266 1.250 . S
O258 Mn253 2.121 . S
O258 C266 1.258 . S
C259 N260 1.326 . S
C259 C263 1.460 . S
C259 H265 0.929 . S
N260 Mn253 2.257 . S
N260 C259 1.326 . S
N260 C264 1.362 . S
C261 C262 1.258 . S
C261 C264 1.431 . S
C261 C281 1.449 . S
C262 C261 1.258 . S
C262 C263 1.477 . S
C262 H282 0.931 . S
C263 C259 1.460 . S
C263 C262 1.477 . S
C263 H283 0.930 . S
C264 N260 1.362 . S
C264 C261 1.431 . S
C264 C274 1.476 . S
H265 C259 0.929 . S
C266 O257 1.250 . S
C266 O258 1.258 . S
O267 Mn252 2.162 . S
O267 C255 1.281 . S
O268 Mn252 2.297 . S
O268 C255 1.236 . S
N269 Mn253 2.282 . S
N269 C270 1.328 . S
N269 C274 1.318 . S
C270 N269 1.328 . S
C270 C271 1.457 . S
C270 H275 0.929 . S
C271 C270 1.457 . S
C271 C272 1.291 . S
C271 H284 0.931 . S
C272 C271 1.291 . S
C272 C273 1.373 . S
C272 H285 0.929 1_565 S
C273 C272 1.373 . S
C273 C274 1.396 . S
C273 C280 1.403 . S
C274 C264 1.476 . S
C274 N269 1.318 . S
C274 C273 1.396 . S
H275 C270 0.929 . S
O276 Mn252 2.385 . S
O276 C254 1.234 . S
O277 Mn252 2.209 . S
O277 Mn253 2.215 . S
O277 C254 1.283 . S
O278 Mn252 2.094 . S
O278 C256 1.240 . S
O279 Mn253 2.117 . S
O279 C256 1.264 . S
C280 C273 1.403 . S
C280 C281 1.399 . S
C280 H286 0.929 1_565 S
C281 C261 1.449 . S
C281 C280 1.399 . S
C281 H287 0.930 . S
H282 C262 0.931 . S
H283 C263 0.930 . S
H284 C271 0.931 . S
H285 C272 0.929 1_545 S
H286 C280 0.929 1_545 S
H287 C281 0.930 . S
Mn288 O293 2.095 . S
Mn288 O303 2.162 . S
Mn288 O304 2.297 . S
Mn288 O312 2.385 . S
Mn288 O313 2.209 . S
Mn288 O314 2.094 . S
Mn289 O294 2.121 . S
Mn289 N296 2.257 . S
Mn289 N305 2.282 . S
Mn289 O313 2.215 . S
Mn289 O315 2.117 . S
C290 O312 1.234 . S
C290 O313 1.283 . S
C291 O303 1.281 . S
C291 O304 1.236 . S
C292 O314 1.240 . S
C292 O315 1.264 . S
O293 Mn288 2.095 . S
O293 C302 1.250 . S
O294 Mn289 2.121 . S
O294 C302 1.258 . S
C295 N296 1.326 . S
C295 C299 1.460 . S
C295 H301 0.929 . S
N296 Mn289 2.257 . S
N296 C295 1.326 . S
N296 C300 1.362 . S
C297 C298 1.258 . S
C297 C300 1.431 . S
C297 C317 1.449 . S
C298 C297 1.258 . S
C298 C299 1.477 . S
C298 H318 0.931 . S
C299 C295 1.460 . S
C299 C298 1.477 . S
C299 H319 0.930 . S
C300 N296 1.362 . S
C300 C297 1.431 . S
C300 C310 1.476 . S
H301 C295 0.929 . S
C302 O293 1.250 . S
C302 O294 1.258 . S
O303 Mn288 2.162 . S
O303 C291 1.281 . S
O304 Mn288 2.297 . S
O304 C291 1.236 . S
N305 Mn289 2.282 . S
N305 C306 1.328 . S
N305 C310 1.318 . S
C306 N305 1.328 . S
C306 C307 1.457 . S
C306 H311 0.929 . S
C307 C306 1.457 . S
C307 C308 1.291 . S
C307 H320 0.931 1_556 S
C308 C307 1.291 . S
C308 C309 1.373 . S
C308 H321 0.929 1_556 S
C309 C308 1.373 . S
C309 C310 1.396 . S
C309 C316 1.403 . S
C310 C300 1.476 . S
C310 N305 1.318 . S
C310 C309 1.396 . S
H311 C306 0.929 . S
O312 Mn288 2.385 . S
O312 C290 1.234 . S
O313 Mn288 2.209 . S
O313 Mn289 2.215 . S
O313 C290 1.283 . S
O314 Mn288 2.094 . S
O314 C292 1.240 . S
O315 Mn289 2.117 . S
O315 C292 1.264 . S
C316 C309 1.403 . S
C316 C317 1.399 . S
C316 H322 0.929 1_556 S
C317 C297 1.449 . S
C317 C316 1.399 . S
C317 H323 0.930 . S
H318 C298 0.931 . S
H319 C299 0.930 . S
H320 C307 0.931 1_554 S
H321 C308 0.929 1_554 S
H322 C316 0.929 1_554 S
H323 C317 0.930 . S
Mn324 O329 2.095 1_554 S
Mn324 O339 2.162 . S
Mn324 O340 2.297 . S
Mn324 O348 2.385 . S
Mn324 O349 2.209 . S
Mn324 O350 2.094 . S
Mn325 O330 2.121 1_554 S
Mn325 N332 2.257 . S
Mn325 N341 2.282 . S
Mn325 O349 2.215 . S
Mn325 O351 2.117 . S
C326 O348 1.234 . S
C326 O349 1.283 . S
C327 O339 1.281 . S
C327 O340 1.236 . S
C328 O350 1.240 . S
C328 O351 1.264 . S
O329 Mn324 2.095 1_556 S
O329 C338 1.250 . S
O330 Mn325 2.121 1_556 S
O330 C338 1.258 . S
C331 N332 1.326 . S
C331 C335 1.460 . S
C331 H337 0.929 . S
N332 Mn325 2.257 . S
N332 C331 1.326 . S
N332 C336 1.362 . S
C333 C334 1.258 . S
C333 C336 1.431 . S
C333 C353 1.449 . S
C334 C333 1.258 . S
C334 C335 1.477 . S
C334 H354 0.931 . S
C335 C331 1.460 . S
C335 C334 1.477 . S
C335 H355 0.930 . S
C336 N332 1.362 . S
C336 C333 1.431 . S
C336 C346 1.476 . S
H337 C331 0.929 . S
C338 O329 1.250 . S
C338 O330 1.258 . S
O339 Mn324 2.162 . S
O339 C327 1.281 . S
O340 Mn324 2.297 . S
O340 C327 1.236 . S
N341 Mn325 2.282 . S
N341 C342 1.328 . S
N341 C346 1.318 . S
C342 N341 1.328 . S
C342 C343 1.457 . S
C342 H347 0.929 . S
C343 C342 1.457 . S
C343 C344 1.291 . S
C343 H356 0.931 . S
C344 C343 1.291 . S
C344 C345 1.373 . S
C344 H357 0.929 1_545 S
C345 C344 1.373 . S
C345 C346 1.396 . S
C345 C352 1.403 . S
C346 C336 1.476 . S
C346 N341 1.318 . S
C346 C345 1.396 . S
H347 C342 0.929 . S
O348 Mn324 2.385 . S
O348 C326 1.234 . S
O349 Mn324 2.209 . S
O349 Mn325 2.215 . S
O349 C326 1.283 . S
O350 Mn324 2.094 . S
O350 C328 1.240 . S
O351 Mn325 2.117 . S
O351 C328 1.264 . S
C352 C345 1.403 . S
C352 C353 1.399 . S
C352 H358 0.929 1_545 S
C353 C333 1.449 . S
C353 C352 1.399 . S
C353 H359 0.930 . S
H354 C334 0.931 . S
H355 C335 0.930 . S
H356 C343 0.931 . S
H357 C344 0.929 1_565 S
H358 C352 0.929 1_565 S
H359 C353 0.930 . S
Mn360 O365 2.095 . S
Mn360 O375 2.162 . S
Mn360 O376 2.297 . S
Mn360 O384 2.385 . S
Mn360 O385 2.209 . S
Mn360 O386 2.094 . S
Mn361 O366 2.121 . S
Mn361 N368 2.257 . S
Mn361 N377 2.282 . S
Mn361 O385 2.215 . S
Mn361 O387 2.117 . S
C362 O384 1.234 . S
C362 O385 1.283 . S
C363 O375 1.281 . S
C363 O376 1.236 . S
C364 O386 1.240 . S
C364 O387 1.264 . S
O365 Mn360 2.095 . S
O365 C374 1.250 . S
O366 Mn361 2.121 . S
O366 C374 1.258 . S
C367 N368 1.326 . S
C367 C371 1.460 . S
C367 H373 0.929 . S
N368 Mn361 2.257 . S
N368 C367 1.326 . S
N368 C372 1.362 . S
C369 C370 1.258 . S
C369 C372 1.431 . S
C369 C389 1.449 . S
C370 C369 1.258 . S
C370 C371 1.477 . S
C370 H390 0.931 . S
C371 C367 1.460 . S
C371 C370 1.477 . S
C371 H391 0.930 . S
C372 N368 1.362 . S
C372 C369 1.431 . S
C372 C382 1.476 . S
H373 C367 0.929 . S
C374 O365 1.250 . S
C374 O366 1.258 . S
O375 Mn360 2.162 . S
O375 C363 1.281 . S
O376 Mn360 2.297 . S
O376 C363 1.236 . S
N377 Mn361 2.282 . S
N377 C378 1.328 . S
N377 C382 1.318 . S
C378 N377 1.328 . S
C378 C379 1.457 . S
C378 H383 0.929 . S
C379 C378 1.457 . S
C379 C380 1.291 . S
C379 H392 0.931 . S
C380 C379 1.291 . S
C380 C381 1.373 . S
C380 H393 0.929 1_655 S
C381 C380 1.373 . S
C381 C382 1.396 . S
C381 C388 1.403 . S
C382 C372 1.476 . S
C382 N377 1.318 . S
C382 C381 1.396 . S
H383 C378 0.929 . S
O384 Mn360 2.385 . S
O384 C362 1.234 . S
O385 Mn360 2.209 . S
O385 Mn361 2.215 . S
O385 C362 1.283 . S
O386 Mn360 2.094 . S
O386 C364 1.240 . S
O387 Mn361 2.117 . S
O387 C364 1.264 . S
C388 C381 1.403 . S
C388 C389 1.399 . S
C388 H394 0.929 1_655 S
C389 C369 1.449 . S
C389 C388 1.399 . S
C389 H395 0.930 . S
H390 C370 0.931 . S
H391 C371 0.930 . S
H392 C379 0.931 . S
H393 C380 0.929 1_455 S
H394 C388 0.929 1_455 S
H395 C389 0.930 . S
Mn396 O401 2.095 . S
Mn396 O411 2.162 . S
Mn396 O412 2.297 . S
Mn396 O420 2.385 . S
Mn396 O421 2.209 . S
Mn396 O422 2.094 . S
Mn397 O402 2.121 . S
Mn397 N404 2.257 . S
Mn397 N413 2.282 . S
Mn397 O421 2.215 . S
Mn397 O423 2.117 . S
C398 O420 1.234 . S
C398 O421 1.283 . S
C399 O411 1.281 . S
C399 O412 1.236 . S
C400 O422 1.240 . S
C400 O423 1.264 . S
O401 Mn396 2.095 . S
O401 C410 1.250 . S
O402 Mn397 2.121 . S
O402 C410 1.258 . S
C403 N404 1.326 . S
C403 C407 1.460 . S
C403 H409 0.929 . S
N404 Mn397 2.257 . S
N404 C403 1.326 . S
N404 C408 1.362 . S
C405 C406 1.258 . S
C405 C408 1.431 . S
C405 C425 1.449 . S
C406 C405 1.258 . S
C406 C407 1.477 . S
C406 H426 0.931 . S
C407 C403 1.460 . S
C407 C406 1.477 . S
C407 H427 0.930 . S
C408 N404 1.362 . S
C408 C405 1.431 . S
C408 C418 1.476 . S
H409 C403 0.929 . S
C410 O401 1.250 . S
C410 O402 1.258 . S
O411 Mn396 2.162 . S
O411 C399 1.281 . S
O412 Mn396 2.297 . S
O412 C399 1.236 . S
N413 Mn397 2.282 . S
N413 C414 1.328 . S
N413 C418 1.318 . S
C414 N413 1.328 . S
C414 C415 1.457 . S
C414 H419 0.929 . S
C415 C414 1.457 . S
C415 C416 1.291 . S
C415 H428 0.931 . S
C416 C415 1.291 . S
C416 C417 1.373 . S
C416 H429 0.929 . S
C417 C416 1.373 . S
C417 C418 1.396 . S
C417 C424 1.403 . S
C418 C408 1.476 . S
C418 N413 1.318 . S
C418 C417 1.396 . S
H419 C414 0.929 . S
O420 Mn396 2.385 . S
O420 C398 1.234 . S
O421 Mn396 2.209 . S
O421 Mn397 2.215 . S
O421 C398 1.283 . S
O422 Mn396 2.094 . S
O422 C400 1.240 . S
O423 Mn397 2.117 . S
O423 C400 1.264 . S
C424 C417 1.403 . S
C424 C425 1.399 . S
C424 H430 0.929 . S
C425 C405 1.449 . S
C425 C424 1.399 . S
C425 H431 0.930 . S
H426 C406 0.931 . S
H427 C407 0.930 . S
H428 C415 0.931 . S
H429 C416 0.929 . S
H430 C424 0.929 . S
H431 C425 0.930 . S
Mn432 O437 2.095 . S
Mn432 O447 2.162 . S
Mn432 O448 2.297 . S
Mn432 O456 2.385 . S
Mn432 O457 2.209 . S
Mn432 O458 2.094 . S
Mn433 O438 2.121 . S
Mn433 N440 2.257 . S
Mn433 N449 2.282 . S
Mn433 O457 2.215 . S
Mn433 O459 2.117 . S
C434 O456 1.234 . S
C434 O457 1.283 . S
C435 O447 1.281 . S
C435 O448 1.236 . S
C436 O458 1.240 . S
C436 O459 1.264 . S
O437 Mn432 2.095 . S
O437 C446 1.250 . S
O438 Mn433 2.121 . S
O438 C446 1.258 . S
C439 N440 1.326 . S
C439 C443 1.460 . S
C439 H445 0.929 . S
N440 Mn433 2.257 . S
N440 C439 1.326 . S
N440 C444 1.362 . S
C441 C442 1.258 . S
C441 C444 1.431 . S
C441 C461 1.449 . S
C442 C441 1.258 . S
C442 C443 1.477 . S
C442 H462 0.931 . S
C443 C439 1.460 . S
C443 C442 1.477 . S
C443 H463 0.930 . S
C444 N440 1.362 . S
C444 C441 1.431 . S
C444 C454 1.476 . S
H445 C439 0.929 . S
C446 O437 1.250 . S
C446 O438 1.258 . S
O447 Mn432 2.162 . S
O447 C435 1.281 . S
O448 Mn432 2.297 . S
O448 C435 1.236 . S
N449 Mn433 2.282 . S
N449 C450 1.328 . S
N449 C454 1.318 . S
C450 N449 1.328 . S
C450 C451 1.457 . S
C450 H455 0.929 . S
C451 C450 1.457 . S
C451 C452 1.291 . S
C451 H464 0.931 . S
C452 C451 1.291 . S
C452 C453 1.373 . S
C452 H465 0.929 . S
C453 C452 1.373 . S
C453 C454 1.396 . S
C453 C460 1.403 . S
C454 C444 1.476 . S
C454 N449 1.318 . S
C454 C453 1.396 . S
H455 C450 0.929 . S
O456 Mn432 2.385 . S
O456 C434 1.234 . S
O457 Mn432 2.209 . S
O457 Mn433 2.215 . S
O457 C434 1.283 . S
O458 Mn432 2.094 . S
O458 C436 1.240 . S
O459 Mn433 2.117 . S
O459 C436 1.264 . S
C460 C453 1.403 . S
C460 C461 1.399 . S
C460 H466 0.929 . S
C461 C441 1.449 . S
C461 C460 1.399 . S
C461 H467 0.930 . S
H462 C442 0.931 . S
H463 C443 0.930 . S
H464 C451 0.931 . S
H465 C452 0.929 . S
H466 C460 0.929 . S
H467 C461 0.930 . S
Mn468 O473 2.095 . S
Mn468 O483 2.162 . S
Mn468 O484 2.297 . S
Mn468 O492 2.385 . S
Mn468 O493 2.209 . S
Mn468 O494 2.094 . S
Mn469 O474 2.121 . S
Mn469 N476 2.257 . S
Mn469 N485 2.282 . S
Mn469 O493 2.215 . S
Mn469 O495 2.117 . S
C470 O492 1.234 . S
C470 O493 1.283 . S
C471 O483 1.281 . S
C471 O484 1.236 . S
C472 O494 1.240 . S
C472 O495 1.264 . S
O473 Mn468 2.095 . S
O473 C482 1.250 . S
O474 Mn469 2.121 . S
O474 C482 1.258 . S
C475 N476 1.326 . S
C475 C479 1.460 . S
C475 H481 0.929 . S
N476 Mn469 2.257 . S
N476 C475 1.326 . S
N476 C480 1.362 . S
C477 C478 1.258 . S
C477 C480 1.431 . S
C477 C497 1.449 . S
C478 C477 1.258 . S
C478 C479 1.477 . S
C478 H498 0.931 . S
C479 C475 1.460 . S
C479 C478 1.477 . S
C479 H499 0.930 . S
C480 N476 1.362 . S
C480 C477 1.431 . S
C480 C490 1.476 . S
H481 C475 0.929 . S
C482 O473 1.250 . S
C482 O474 1.258 . S
O483 Mn468 2.162 . S
O483 C471 1.281 . S
O484 Mn468 2.297 . S
O484 C471 1.236 . S
N485 Mn469 2.282 . S
N485 C486 1.328 . S
N485 C490 1.318 . S
C486 N485 1.328 . S
C486 C487 1.457 . S
C486 H491 0.929 . S
C487 C486 1.457 . S
C487 C488 1.291 . S
C487 H500 0.931 . S
C488 C487 1.291 . S
C488 C489 1.373 . S
C488 H501 0.929 1_545 S
C489 C488 1.373 . S
C489 C490 1.396 . S
C489 C496 1.403 . S
C490 C480 1.476 . S
C490 N485 1.318 . S
C490 C489 1.396 . S
H491 C486 0.929 . S
O492 Mn468 2.385 . S
O492 C470 1.234 . S
O493 Mn468 2.209 . S
O493 Mn469 2.215 . S
O493 C470 1.283 . S
O494 Mn468 2.094 . S
O494 C472 1.240 . S
O495 Mn469 2.117 . S
O495 C472 1.264 . S
C496 C489 1.403 . S
C496 C497 1.399 . S
C496 H502 0.929 1_545 S
C497 C477 1.449 . S
C497 C496 1.399 . S
C497 H503 0.930 . S
H498 C478 0.931 . S
H499 C479 0.930 . S
H500 C487 0.931 . S
H501 C488 0.929 1_565 S
H502 C496 0.929 1_565 S
H503 C497 0.930 . S
Mn504 O509 2.093 1_556 S
Mn504 O519 2.162 . S
Mn504 O520 2.297 . S
Mn504 O528 2.387 . S
Mn504 O529 2.209 . S
Mn504 O530 2.094 1_556 S
Mn505 O510 2.121 . S
Mn505 N512 2.257 1_554 S
Mn505 N521 2.282 1_554 S
Mn505 O529 2.215 1_554 S
Mn505 O531 2.117 . S
C506 O528 1.234 . S
C506 O529 1.283 . S
C507 O519 1.281 . S
C507 O520 1.236 . S
C508 O530 1.240 . S
C508 O531 1.264 . S
O509 Mn504 2.093 1_554 S
O509 C518 1.250 . S
O510 Mn505 2.121 . S
O510 C518 1.258 . S
C511 N512 1.326 1_554 S
C511 C515 1.460 . S
C511 H517 0.929 . S
N512 Mn505 2.257 1_556 S
N512 C511 1.326 1_556 S
N512 C516 1.362 . S
C513 C514 1.258 . S
C513 C516 1.431 . S
C513 C533 1.449 . S
C514 C513 1.258 . S
C514 C515 1.477 1_556 S
C514 H534 0.931 . S
C515 C511 1.460 . S
C515 C514 1.477 1_554 S
C515 H535 0.930 . S
C516 N512 1.362 . S
C516 C513 1.431 . S
C516 C526 1.476 . S
H517 C511 0.929 . S
C518 O509 1.250 . S
C518 O510 1.258 . S
O519 Mn504 2.162 . S
O519 C507 1.281 . S
O520 Mn504 2.297 . S
O520 C507 1.236 . S
N521 Mn505 2.282 1_556 S
N521 C522 1.328 . S
N521 C526 1.318 . S
C522 N521 1.328 . S
C522 C523 1.457 . S
C522 H527 0.929 . S
C523 C522 1.457 . S
C523 C524 1.291 . S
C523 H536 0.931 . S
C524 C523 1.291 . S
C524 C525 1.373 . S
C524 H537 0.929 1_655 S
C525 C524 1.373 . S
C525 C526 1.396 . S
C525 C532 1.403 . S
C526 C516 1.476 . S
C526 N521 1.318 . S
C526 C525 1.396 . S
H527 C522 0.929 . S
O528 Mn504 2.387 . S
O528 C506 1.234 . S
O529 Mn504 2.209 . S
O529 Mn505 2.215 1_556 S
O529 C506 1.283 . S
O530 Mn504 2.094 1_554 S
O530 C508 1.240 . S
O531 Mn505 2.117 . S
O531 C508 1.264 . S
C532 C525 1.403 . S
C532 C533 1.399 . S
C532 H538 0.929 1_655 S
C533 C513 1.449 . S
C533 C532 1.399 . S
C533 H539 0.930 . S
H534 C514 0.931 . S
H535 C515 0.930 . S
H536 C523 0.931 . S
H537 C524 0.929 1_455 S
H538 C532 0.929 1_455 S
H539 C533 0.930 . S
Mn540 O545 2.095 . S
Mn540 O555 2.162 . S
Mn540 O556 2.297 . S
Mn540 O564 2.385 . S
Mn540 O565 2.209 . S
Mn540 O566 2.094 . S
Mn541 O546 2.121 . S
Mn541 N548 2.257 . S
Mn541 N557 2.282 . S
Mn541 O565 2.215 . S
Mn541 O567 2.117 . S
C542 O564 1.234 . S
C542 O565 1.283 . S
C543 O555 1.281 . S
C543 O556 1.236 . S
C544 O566 1.240 . S
C544 O567 1.264 . S
O545 Mn540 2.095 . S
O545 C554 1.250 . S
O546 Mn541 2.121 . S
O546 C554 1.258 . S
C547 N548 1.326 . S
C547 C551 1.460 . S
C547 H553 0.929 . S
N548 Mn541 2.257 . S
N548 C547 1.326 . S
N548 C552 1.362 . S
C549 C550 1.258 . S
C549 C552 1.431 . S
C549 C569 1.449 . S
C550 C549 1.258 . S
C550 C551 1.477 . S
C550 H570 0.931 . S
C551 C547 1.460 . S
C551 C550 1.477 . S
C551 H571 0.930 . S
C552 N548 1.362 . S
C552 C549 1.431 . S
C552 C562 1.476 . S
H553 C547 0.929 . S
C554 O545 1.250 . S
C554 O546 1.258 . S
O555 Mn540 2.162 . S
O555 C543 1.281 . S
O556 Mn540 2.297 . S
O556 C543 1.236 . S
N557 Mn541 2.282 . S
N557 C558 1.328 . S
N557 C562 1.318 . S
C558 N557 1.328 . S
C558 C559 1.457 . S
C558 H563 0.929 . S
C559 C558 1.457 . S
C559 C560 1.291 . S
C559 H572 0.931 . S
C560 C559 1.291 . S
C560 C561 1.373 . S
C560 H573 0.929 . S
C561 C560 1.373 . S
C561 C562 1.396 . S
C561 C568 1.403 . S
C562 C552 1.476 . S
C562 N557 1.318 . S
C562 C561 1.396 . S
H563 C558 0.929 . S
O564 Mn540 2.385 . S
O564 C542 1.234 . S
O565 Mn540 2.209 . S
O565 Mn541 2.215 . S
O565 C542 1.283 . S
O566 Mn540 2.094 . S
O566 C544 1.240 . S
O567 Mn541 2.117 . S
O567 C544 1.264 . S
C568 C561 1.403 . S
C568 C569 1.399 . S
C568 H574 0.929 . S
C569 C549 1.449 . S
C569 C568 1.399 . S
C569 H575 0.930 . S
H570 C550 0.931 . S
H571 C551 0.930 . S
H572 C559 0.931 . S
H573 C560 0.929 . S
H574 C568 0.929 . S
H575 C569 0.930 . S
H576 C582 0.930 . S
H577 C585 0.930 . S
H578 C586 0.930 . S
H579 C587 0.930 . S
H580 C590 0.930 . S
H581 C591 0.930 . S
C582 H576 0.930 . S
C582 C583 1.355 . S
C582 C584 1.415 . S
C583 C582 1.355 . S
C583 C585 1.419 . S
C584 C582 1.415 . S
C584 C589 1.425 . S
C584 C591 1.409 . S
C585 H577 0.930 . S
C585 C583 1.419 . S
C585 C586 1.362 . S
C586 H578 0.930 . S
C586 C585 1.362 . S
C586 C589 1.409 . S
C587 H579 0.930 . S
C587 C588 1.355 . S
C587 C589 1.415 . S
C588 C587 1.355 . S
C588 C590 1.419 . S
C589 C584 1.425 . S
C589 C586 1.409 . S
C589 C587 1.415 . S
C590 H580 0.930 . S
C590 C588 1.419 . S
C590 C591 1.362 . S
C591 H581 0.930 . S
C591 C584 1.409 . S
C591 C590 1.362 . S
H592 C598 0.930 . S
H593 C601 0.930 . S
H594 C602 0.930 . S
H595 C603 0.930 . S
H596 C606 0.930 . S
H597 C607 0.930 . S
C598 H592 0.930 . S
C598 C599 1.355 . S
C598 C600 1.415 . S
C599 C598 1.355 . S
C599 C601 1.419 . S
C600 C598 1.415 . S
C600 C605 1.425 . S
C600 C607 1.409 . S
C601 H593 0.930 . S
C601 C599 1.419 . S
C601 C602 1.362 . S
C602 H594 0.930 . S
C602 C601 1.362 . S
C602 C605 1.409 . S
C603 H595 0.930 . S
C603 C604 1.355 . S
C603 C605 1.415 . S
C604 C603 1.355 . S
C604 C606 1.419 . S
C605 C600 1.425 . S
C605 C602 1.409 . S
C605 C603 1.415 . S
C606 H596 0.930 . S
C606 C604 1.419 . S
C606 C607 1.362 . S
C607 H597 0.930 . S
C607 C600 1.409 . S
C607 C606 1.362 . S
H608 C614 0.930 . S
H609 C617 0.930 . S
H610 C618 0.930 . S
H611 C619 0.930 . S
H612 C622 0.930 . S
H613 C623 0.930 . S
C614 H608 0.930 . S
C614 C615 1.355 . S
C614 C616 1.415 . S
C615 C614 1.355 . S
C615 C617 1.419 . S
C616 C614 1.415 . S
C616 C621 1.425 . S
C616 C623 1.409 . S
C617 H609 0.930 . S
C617 C615 1.419 . S
C617 C618 1.362 . S
C618 H610 0.930 . S
C618 C617 1.362 . S
C618 C621 1.409 . S
C619 H611 0.930 . S
C619 C620 1.355 . S
C619 C621 1.415 . S
C620 C619 1.355 . S
C620 C622 1.419 . S
C621 C616 1.425 . S
C621 C618 1.409 . S
C621 C619 1.415 . S
C622 H612 0.930 . S
C622 C620 1.419 . S
C622 C623 1.362 . S
C623 H613 0.930 . S
C623 C616 1.409 . S
C623 C622 1.362 . S
H624 C630 0.930 . S
H625 C633 0.930 . S
H626 C634 0.930 . S
H627 C635 0.930 . S
H628 C638 0.930 . S
H629 C639 0.930 . S
C630 H624 0.930 . S
C630 C631 1.355 . S
C630 C632 1.415 . S
C631 C630 1.355 . S
C631 C633 1.419 . S
C632 C630 1.415 . S
C632 C637 1.425 . S
C632 C639 1.409 . S
C633 H625 0.930 . S
C633 C631 1.419 . S
C633 C634 1.362 . S
C634 H626 0.930 . S
C634 C633 1.362 . S
C634 C637 1.409 . S
C635 H627 0.930 . S
C635 C636 1.355 . S
C635 C637 1.415 . S
C636 C635 1.355 . S
C636 C638 1.419 . S
C637 C632 1.425 . S
C637 C634 1.409 . S
C637 C635 1.415 . S
C638 H628 0.930 . S
C638 C636 1.419 . S
C638 C639 1.362 . S
C639 H629 0.930 . S
C639 C632 1.409 . S
C639 C638 1.362 . S
H640 C646 0.930 . S
H641 C649 0.930 . S
H642 C650 0.930 . S
H643 C651 0.930 . S
H644 C654 0.930 . S
H645 C655 0.930 1_554 S
C646 H640 0.930 . S
C646 C647 1.355 . S
C646 C648 1.415 . S
C647 C646 1.355 . S
C647 C649 1.419 . S
C648 C646 1.415 . S
C648 C653 1.425 . S
C648 C655 1.409 . S
C649 H641 0.930 . S
C649 C647 1.419 . S
C649 C650 1.362 . S
C650 H642 0.930 . S
C650 C649 1.362 . S
C650 C653 1.409 . S
C651 H643 0.930 . S
C651 C652 1.355 . S
C651 C653 1.415 . S
C652 C651 1.355 . S
C652 C654 1.419 1_556 S
C653 C648 1.425 . S
C653 C650 1.409 . S
C653 C651 1.415 . S
C654 H644 0.930 . S
C654 C652 1.419 1_554 S
C654 C655 1.362 1_554 S
C655 H645 0.930 1_556 S
C655 C648 1.409 . S
C655 C654 1.362 1_556 S
H656 C662 0.930 . S
H657 C665 0.930 . S
H658 C666 0.930 . S
H659 C667 0.930 . S
H660 C670 0.930 . S
H661 C671 0.930 . S
C662 H656 0.930 . S
C662 C663 1.355 . S
C662 C664 1.415 . S
C663 C662 1.355 . S
C663 C665 1.419 . S
C664 C662 1.415 . S
C664 C669 1.425 . S
C664 C671 1.409 . S
C665 H657 0.930 . S
C665 C663 1.419 . S
C665 C666 1.362 . S
C666 H658 0.930 . S
C666 C665 1.362 . S
C666 C669 1.409 . S
C667 H659 0.930 . S
C667 C668 1.355 . S
C667 C669 1.415 . S
C668 C667 1.355 . S
C668 C670 1.419 . S
C669 C664 1.425 . S
C669 C666 1.409 . S
C669 C667 1.415 . S
C670 H660 0.930 . S
C670 C668 1.419 . S
C670 C671 1.362 . S
C671 H661 0.930 . S
C671 C664 1.409 . S
C671 C670 1.362 . S
H672 C678 0.930 . S
H673 C681 0.930 . S
H674 C682 0.930 . S
H675 C683 0.930 . S
H676 C686 0.930 . S
H677 C687 0.930 . S
C678 H672 0.930 . S
C678 C679 1.355 . S
C678 C680 1.415 . S
C679 C678 1.355 . S
C679 C681 1.419 . S
C680 C678 1.415 . S
C680 C685 1.425 . S
C680 C687 1.409 . S
C681 H673 0.930 . S
C681 C679 1.419 . S
C681 C682 1.362 . S
C682 H674 0.930 . S
C682 C681 1.362 . S
C682 C685 1.409 . S
C683 H675 0.930 . S
C683 C684 1.355 . S
C683 C685 1.415 . S
C684 C683 1.355 . S
C684 C686 1.419 . S
C685 C680 1.425 . S
C685 C682 1.409 . S
C685 C683 1.415 . S
C686 H676 0.930 . S
C686 C684 1.419 . S
C686 C687 1.362 . S
C687 H677 0.930 . S
C687 C680 1.409 . S
C687 C686 1.362 . S
H688 C694 0.930 . S
H689 C697 0.930 . S
H690 C698 0.930 . S
H691 C699 0.930 . S
H692 C702 0.930 . S
H693 C703 0.930 . S
C694 H688 0.930 . S
C694 C695 1.355 . S
C694 C696 1.415 . S
C695 C694 1.355 . S
C695 C697 1.419 . S
C696 C694 1.415 . S
C696 C701 1.425 . S
C696 C703 1.409 . S
C697 H689 0.930 . S
C697 C695 1.419 . S
C697 C698 1.362 . S
C698 H690 0.930 . S
C698 C697 1.362 . S
C698 C701 1.409 . S
C699 H691 0.930 . S
C699 C700 1.355 . S
C699 C701 1.415 . S
C700 C699 1.355 . S
C700 C702 1.419 . S
C701 C696 1.425 . S
C701 C698 1.409 . S
C701 C699 1.415 . S
C702 H692 0.930 . S
C702 C700 1.419 . S
C702 C703 1.362 . S
C703 H693 0.930 . S
C703 C696 1.409 . S
C703 C702 1.362 . S
H704 C710 0.930 . S
H705 C713 0.930 . S
H706 C714 0.930 . S
H707 C715 0.930 . S
H708 C718 0.930 . S
H709 C719 0.930 . S
C710 H704 0.930 . S
C710 C711 1.355 . S
C710 C712 1.415 . S
C711 C710 1.355 . S
C711 C713 1.419 . S
C712 C710 1.415 . S
C712 C717 1.425 1_445 S
C712 C719 1.409 1_445 S
C713 H705 0.930 . S
C713 C711 1.419 . S
C713 C714 1.362 . S
C714 H706 0.930 . S
C714 C713 1.362 . S
C714 C717 1.409 1_445 S
C715 H707 0.930 . S
C715 C716 1.355 . S
C715 C717 1.415 . S
C716 C715 1.355 . S
C716 C718 1.419 . S
C717 C712 1.425 1_665 S
C717 C714 1.409 1_665 S
C717 C715 1.415 . S
C718 H708 0.930 . S
C718 C716 1.419 . S
C718 C719 1.362 . S
C719 H709 0.930 . S
C719 C712 1.409 1_665 S
C719 C718 1.362 . S
H720 C726 0.930 . S
H721 C729 0.930 . S
H722 C730 0.930 . S
H723 C731 0.930 . S
H724 C734 0.930 . S
H725 C735 0.930 . S
C726 H720 0.930 . S
C726 C727 1.355 . S
C726 C728 1.415 . S
C727 C726 1.355 . S
C727 C729 1.419 1_655 S
C728 C726 1.415 . S
C728 C733 1.425 1_655 S
C728 C735 1.409 . S
C729 H721 0.930 . S
C729 C727 1.419 1_455 S
C729 C730 1.362 . S
C730 H722 0.930 . S
C730 C729 1.362 . S
C730 C733 1.409 . S
C731 H723 0.930 . S
C731 C732 1.355 . S
C731 C733 1.415 . S
C732 C731 1.355 . S
C732 C734 1.419 1_455 S
C733 C728 1.425 1_455 S
C733 C730 1.409 . S
C733 C731 1.415 . S
C734 H724 0.930 . S
C734 C732 1.419 1_655 S
C734 C735 1.362 . S
C735 H725 0.930 . S
C735 C728 1.409 . S
C735 C734 1.362 . S
H736 C742 0.930 . S
H737 C745 0.930 . S
H738 C746 0.930 . S
H739 C747 0.930 . S
H740 C750 0.930 . S
H741 C751 0.930 . S
C742 H736 0.930 . S
C742 C743 1.355 . S
C742 C744 1.415 . S
C743 C742 1.355 . S
C743 C745 1.419 . S
C744 C742 1.415 . S
C744 C749 1.425 . S
C744 C751 1.409 . S
C745 H737 0.930 . S
C745 C743 1.419 . S
C745 C746 1.362 . S
C746 H738 0.930 . S
C746 C745 1.362 . S
C746 C749 1.409 . S
C747 H739 0.930 . S
C747 C748 1.355 . S
C747 C749 1.415 . S
C748 C747 1.355 . S
C748 C750 1.419 . S
C749 C744 1.425 . S
C749 C746 1.409 . S
C749 C747 1.415 . S
C750 H740 0.930 . S
C750 C748 1.419 . S
C750 C751 1.362 . S
C751 H741 0.930 . S
C751 C744 1.409 . S
C751 C750 1.362 . S
H752 C758 0.930 . S
H753 C761 0.930 . S
H754 C762 0.934 . S
H755 C763 0.930 . S
H756 C766 0.930 . S
H757 C767 0.934 . S
C758 H752 0.930 . S
C758 C759 1.355 . S
C758 C760 1.415 . S
C759 C758 1.355 . S
C759 C761 1.419 . S
C760 C758 1.415 . S
C760 C765 1.425 1_565 S
C760 C767 1.411 . S
C761 H753 0.930 . S
C761 C759 1.419 . S
C761 C762 1.356 1_565 S
C762 H754 0.934 . S
C762 C761 1.356 1_545 S
C762 C765 1.411 . S
C763 H755 0.930 . S
C763 C764 1.355 . S
C763 C765 1.415 . S
C764 C763 1.355 . S
C764 C766 1.419 . S
C765 C760 1.425 1_545 S
C765 C762 1.411 . S
C765 C763 1.415 . S
C766 H756 0.930 . S
C766 C764 1.419 . S
C766 C767 1.356 1_545 S
C767 H757 0.934 . S
C767 C760 1.411 . S
C767 C766 1.356 1_565 S
H768 C774 0.930 . S
H769 C777 0.930 . S
H770 C778 0.930 . S
H771 C779 0.930 . S
H772 C782 0.930 . S
H773 C783 0.930 . S
C774 H768 0.930 . S
C774 C775 1.355 1_556 S
C774 C776 1.396 1_456 S
C775 C774 1.355 1_554 S
C775 C777 1.419 . S
C776 C774 1.396 1_654 S
C776 C781 1.424 1_655 S
C776 C783 1.429 1_554 S
C777 H769 0.930 . S
C777 C775 1.419 . S
C777 C778 1.362 . S
C778 H770 0.930 . S
C778 C777 1.362 . S
C778 C781 1.429 . S
C779 H771 0.930 . S
C779 C780 1.355 . S
C779 C781 1.396 1_655 S
C780 C779 1.355 . S
C780 C782 1.419 1_554 S
C781 C776 1.424 1_455 S
C781 C778 1.429 . S
C781 C779 1.396 1_455 S
C782 H772 0.930 . S
C782 C780 1.419 1_556 S
C782 C783 1.362 . S
C783 H773 0.930 . S
C783 C776 1.429 1_556 S
C783 C782 1.362 . S
H784 C790 0.930 . S
H785 C793 0.930 . S
H786 C794 0.930 . S
H787 C795 0.930 . S
H788 C798 0.930 . S
H789 C799 0.930 . S
C790 H784 0.930 . S
C790 C791 1.355 . S
C790 C792 1.415 . S
C791 C790 1.355 . S
C791 C793 1.419 . S
C792 C790 1.415 . S
C792 C797 1.425 . S
C792 C799 1.409 . S
C793 H785 0.930 . S
C793 C791 1.419 . S
C793 C794 1.362 . S
C794 H786 0.930 . S
C794 C793 1.362 . S
C794 C797 1.409 . S
C795 H787 0.930 . S
C795 C796 1.355 . S
C795 C797 1.415 . S
C796 C795 1.355 . S
C796 C798 1.419 . S
C797 C792 1.425 . S
C797 C794 1.409 . S
C797 C795 1.415 . S
C798 H788 0.930 . S
C798 C796 1.419 . S
C798 C799 1.362 . S
C799 H789 0.930 . S
C799 C792 1.409 . S
C799 C798 1.362 . S
H800 C806 0.930 . S
H801 C809 0.930 . S
H802 C810 0.930 . S
H803 C811 0.930 . S
H804 C814 0.930 . S
H805 C815 0.930 . S
C806 H800 0.930 . S
C806 C807 1.355 . S
C806 C808 1.415 . S
C807 C806 1.355 . S
C807 C809 1.419 1_545 S
C808 C806 1.415 . S
C808 C813 1.425 1_545 S
C808 C815 1.409 . S
C809 H801 0.930 . S
C809 C807 1.419 1_565 S
C809 C810 1.362 . S
C810 H802 0.930 . S
C810 C809 1.362 . S
C810 C813 1.409 . S
C811 H803 0.930 . S
C811 C812 1.355 . S
C811 C813 1.415 . S
C812 C811 1.355 . S
C812 C814 1.419 1_565 S
C813 C808 1.425 1_565 S
C813 C810 1.409 . S
C813 C811 1.415 . S
C814 H804 0.930 . S
C814 C812 1.419 1_545 S
C814 C815 1.362 . S
C815 H805 0.930 . S
C815 C808 1.409 . S
C815 C814 1.362 . S
H816 C822 0.930 . S
H817 C825 0.930 . S
H818 C826 0.930 . S
H819 C827 0.930 . S
H820 C830 0.930 . S
H821 C831 0.930 . S
C822 H816 0.930 . S
C822 C823 1.355 . S
C822 C824 1.413 . S
C823 C822 1.355 . S
C823 C825 1.419 1_455 S
C824 C822 1.413 . S
C824 C829 1.425 1_445 S
C824 C831 1.411 1_545 S
C825 H817 0.930 . S
C825 C823 1.419 1_655 S
C825 C826 1.362 . S
C826 H818 0.930 . S
C826 C825 1.362 . S
C826 C829 1.411 1_545 S
C827 H819 0.930 . S
C827 C828 1.355 . S
C827 C829 1.413 . S
C828 C827 1.355 . S
C828 C830 1.419 1_655 S
C829 C824 1.425 1_665 S
C829 C826 1.411 1_565 S
C829 C827 1.413 . S
C830 H820 0.930 . S
C830 C828 1.419 1_455 S
C830 C831 1.362 . S
C831 H821 0.930 . S
C831 C824 1.411 1_565 S
C831 C830 1.362 . S
H832 C838 0.930 . S
H833 C841 0.930 . S
H834 C842 0.930 . S
H835 C843 0.930 . S
H836 C846 0.930 . S
H837 C847 0.930 . S
C838 H832 0.930 . S
C838 C839 1.355 . S
C838 C840 1.415 . S
C839 C838 1.355 . S
C839 C841 1.419 . S
C840 C838 1.415 . S
C840 C845 1.425 . S
C840 C847 1.409 . S
C841 H833 0.930 . S
C841 C839 1.419 . S
C841 C842 1.362 . S
C842 H834 0.930 . S
C842 C841 1.362 . S
C842 C845 1.409 . S
C843 H835 0.930 . S
C843 C844 1.355 . S
C843 C845 1.415 . S
C844 C843 1.355 . S
C844 C846 1.419 . S
C845 C840 1.425 . S
C845 C842 1.409 . S
C845 C843 1.415 . S
C846 H836 0.930 . S
C846 C844 1.419 . S
C846 C847 1.362 . S
C847 H837 0.930 . S
C847 C840 1.409 . S
C847 C846 1.362 . S
H848 C854 0.930 . S
H849 C857 0.930 . S
H850 C858 0.930 . S
H851 C859 0.930 . S
H852 C862 0.930 . S
H853 C863 0.930 . S
C854 H848 0.930 . S
C854 C855 1.355 . S
C854 C856 1.415 . S
C855 C854 1.355 . S
C855 C857 1.419 . S
C856 C854 1.415 . S
C856 C861 1.425 . S
C856 C863 1.409 . S
C857 H849 0.930 . S
C857 C855 1.419 . S
C857 C858 1.362 . S
C858 H850 0.930 . S
C858 C857 1.362 . S
C858 C861 1.409 . S
C859 H851 0.930 . S
C859 C860 1.355 . S
C859 C861 1.415 . S
C860 C859 1.355 . S
C860 C862 1.419 . S
C861 C856 1.425 . S
C861 C858 1.409 . S
C861 C859 1.415 . S
C862 H852 0.930 . S
C862 C860 1.419 . S
C862 C863 1.362 . S
C863 H853 0.930 . S
C863 C856 1.409 . S
C863 C862 1.362 . S
H864 C870 0.930 . S
H865 C873 0.930 . S
H866 C874 0.930 . S
H867 C875 0.930 . S
H868 C878 0.930 . S
H869 C879 0.930 . S
C870 H864 0.930 . S
C870 C871 1.355 . S
C870 C872 1.415 . S
C871 C870 1.355 . S
C871 C873 1.419 . S
C872 C870 1.415 . S
C872 C877 1.425 . S
C872 C879 1.409 . S
C873 H865 0.930 . S
C873 C871 1.419 . S
C873 C874 1.362 . S
C874 H866 0.930 . S
C874 C873 1.362 . S
C874 C877 1.409 . S
C875 H867 0.930 . S
C875 C876 1.355 . S
C875 C877 1.415 1_556 S
C876 C875 1.355 . S
C876 C878 1.419 . S
C877 C872 1.425 . S
C877 C874 1.409 . S
C877 C875 1.415 1_554 S
C878 H868 0.930 . S
C878 C876 1.419 . S
C878 C879 1.362 1_556 S
C879 H869 0.930 . S
C879 C872 1.409 . S
C879 C878 1.362 1_554 S
H880 C886 0.930 . S
H881 C889 0.930 . S
H882 C890 0.930 . S
H883 C891 0.930 . S
H884 C894 0.930 . S
H885 C895 0.930 . S
C886 H880 0.930 . S
C886 C887 1.355 . S
C886 C888 1.415 . S
C887 C886 1.355 . S
C887 C889 1.419 . S
C888 C886 1.415 . S
C888 C893 1.425 . S
C888 C895 1.409 . S
C889 H881 0.930 . S
C889 C887 1.419 . S
C889 C890 1.362 . S
C890 H882 0.930 . S
C890 C889 1.362 . S
C890 C893 1.409 . S
C891 H883 0.930 . S
C891 C892 1.355 . S
C891 C893 1.415 . S
C892 C891 1.355 . S
C892 C894 1.419 . S
C893 C888 1.425 . S
C893 C890 1.409 . S
C893 C891 1.415 . S
C894 H884 0.930 . S
C894 C892 1.419 . S
C894 C895 1.362 . S
C895 H885 0.930 . S
C895 C888 1.409 . S
C895 C894 1.362 . S
H896 C902 0.930 . S
H897 C905 0.930 . S
H898 C906 0.930 . S
H899 C907 0.930 . S
H900 C910 0.930 . S
H901 C911 0.930 . S
C902 H896 0.930 . S
C902 C903 1.355 . S
C902 C904 1.415 . S
C903 C902 1.355 . S
C903 C905 1.419 . S
C904 C902 1.415 . S
C904 C909 1.425 . S
C904 C911 1.409 . S
C905 H897 0.930 . S
C905 C903 1.419 . S
C905 C906 1.362 . S
C906 H898 0.930 . S
C906 C905 1.362 . S
C906 C909 1.409 . S
C907 H899 0.930 . S
C907 C908 1.355 . S
C907 C909 1.415 . S
C908 C907 1.355 . S
C908 C910 1.419 . S
C909 C904 1.425 . S
C909 C906 1.409 . S
C909 C907 1.415 . S
C910 H900 0.930 . S
C910 C908 1.419 . S
C910 C911 1.362 . S
C911 H901 0.930 . S
C911 C904 1.409 . S
C911 C910 1.362 . S
H912 C918 0.930 . S
H913 C921 0.930 . S
H914 C922 0.930 . S
H915 C923 0.930 . S
H916 C926 0.930 . S
H917 C927 0.930 . S
C918 H912 0.930 . S
C918 C919 1.355 . S
C918 C920 1.415 . S
C919 C918 1.355 . S
C919 C921 1.419 . S
C920 C918 1.415 . S
C920 C925 1.425 . S
C920 C927 1.409 . S
C921 H913 0.930 . S
C921 C919 1.419 . S
C921 C922 1.362 . S
C922 H914 0.930 . S
C922 C921 1.362 . S
C922 C925 1.409 . S
C923 H915 0.930 . S
C923 C924 1.355 . S
C923 C925 1.415 1_556 S
C924 C923 1.355 . S
C924 C926 1.419 . S
C925 C920 1.425 . S
C925 C922 1.409 . S
C925 C923 1.415 1_554 S
C926 H916 0.930 . S
C926 C924 1.419 . S
C926 C927 1.362 1_556 S
C927 H917 0.930 . S
C927 C920 1.409 . S
C927 C926 1.362 1_554 S
H928 C934 0.930 . S
H929 C937 0.930 . S
H930 C938 0.930 . S
H931 C939 0.930 . S
H932 C942 0.930 . S
H933 C943 0.930 . S
C934 H928 0.930 . S
C934 C935 1.355 . S
C934 C936 1.415 . S
C935 C934 1.355 . S
C935 C937 1.419 . S
C936 C934 1.415 . S
C936 C941 1.425 . S
C936 C943 1.409 . S
C937 H929 0.930 . S
C937 C935 1.419 . S
C937 C938 1.362 . S
C938 H930 0.930 . S
C938 C937 1.362 . S
C938 C941 1.409 . S
C939 H931 0.930 . S
C939 C940 1.355 . S
C939 C941 1.415 . S
C940 C939 1.355 . S
C940 C942 1.419 . S
C941 C936 1.425 . S
C941 C938 1.409 . S
C941 C939 1.415 . S
C942 H932 0.930 . S
C942 C940 1.419 . S
C942 C943 1.362 . S
C943 H933 0.930 . S
C943 C936 1.409 . S
C943 C942 1.362 . S
H944 C950 0.930 . S
H945 C953 0.930 . S
H946 C954 0.930 . S
H947 C955 0.930 . S
H948 C958 0.930 . S
H949 C959 0.930 . S
C950 H944 0.930 . S
C950 C951 1.355 . S
C950 C952 1.415 . S
C951 C950 1.355 . S
C951 C953 1.419 . S
C952 C950 1.415 . S
C952 C957 1.425 . S
C952 C959 1.409 . S
C953 H945 0.930 . S
C953 C951 1.419 . S
C953 C954 1.362 . S
C954 H946 0.930 . S
C954 C953 1.362 . S
C954 C957 1.409 . S
C955 H947 0.930 . S
C955 C956 1.355 . S
C955 C957 1.415 . S
C956 C955 1.355 . S
C956 C958 1.419 . S
C957 C952 1.425 . S
C957 C954 1.409 . S
C957 C955 1.415 . S
C958 H948 0.930 . S
C958 C956 1.419 . S
C958 C959 1.362 . S
C959 H949 0.930 . S
C959 C952 1.409 . S
C959 C958 1.362 . S
H960 C966 0.930 . S
H961 C969 0.930 . S
H962 C970 0.930 . S
H963 C971 0.930 . S
H964 C974 0.930 . S
H965 C975 0.930 . S
C966 H960 0.930 . S
C966 C967 1.355 . S
C966 C968 1.415 1_556 S
C967 C966 1.355 . S
C967 C969 1.419 . S
C968 C966 1.415 1_554 S
C968 C973 1.425 . S
C968 C975 1.409 . S
C969 H961 0.930 . S
C969 C967 1.419 . S
C969 C970 1.362 1_556 S
C970 H962 0.930 . S
C970 C969 1.362 1_554 S
C970 C973 1.409 . S
C971 H963 0.930 . S
C971 C972 1.355 . S
C971 C973 1.415 . S
C972 C971 1.355 . S
C972 C974 1.419 . S
C973 C968 1.425 . S
C973 C970 1.409 . S
C973 C971 1.415 . S
C974 H964 0.930 . S
C974 C972 1.419 . S
C974 C975 1.362 . S
C975 H965 0.930 . S
C975 C968 1.409 . S
C975 C974 1.362 . S
H976 C982 0.930 . S
H977 C985 0.930 . S
H978 C986 0.930 . S
H979 C987 0.930 . S
H980 C990 0.930 . S
H981 C991 0.930 . S
C982 H976 0.930 . S
C982 C983 1.355 . S
C982 C984 1.415 . S
C983 C982 1.355 . S
C983 C985 1.419 . S
C984 C982 1.415 . S
C984 C989 1.425 . S
C984 C991 1.409 . S
C985 H977 0.930 . S
C985 C983 1.419 . S
C985 C986 1.362 . S
C986 H978 0.930 . S
C986 C985 1.362 . S
C986 C989 1.409 . S
C987 H979 0.930 . S
C987 C988 1.355 . S
C987 C989 1.415 . S
C988 C987 1.355 . S
C988 C990 1.419 . S
C989 C984 1.425 . S
C989 C986 1.409 . S
C989 C987 1.415 . S
C990 H980 0.930 . S
C990 C988 1.419 . S
C990 C991 1.362 . S
C991 H981 0.930 . S
C991 C984 1.409 . S
C991 C990 1.362 . S
H992 C998 0.930 . S
H993 C1001 0.930 . S
H994 C1002 0.930 . S
H995 C1003 0.930 . S
H996 C1006 0.930 . S
H997 C1007 0.930 . S
C998 H992 0.930 . S
C998 C999 1.355 . S
C998 C1000 1.415 . S
C999 C998 1.355 . S
C999 C1001 1.419 . S
C1000 C998 1.415 . S
C1000 C1005 1.425 . S
C1000 C1007 1.409 . S
C1001 H993 0.930 . S
C1001 C999 1.419 . S
C1001 C1002 1.362 . S
C1002 H994 0.930 . S
C1002 C1001 1.362 . S
C1002 C1005 1.409 . S
C1003 H995 0.930 . S
C1003 C1004 1.355 . S
C1003 C1005 1.415 . S
C1004 C1003 1.355 . S
C1004 C1006 1.419 . S
C1005 C1000 1.425 . S
C1005 C1002 1.409 . S
C1005 C1003 1.415 . S
C1006 H996 0.930 . S
C1006 C1004 1.419 . S
C1006 C1007 1.362 . S
C1007 H997 0.930 . S
C1007 C1000 1.409 . S
C1007 C1006 1.362 . S
H1008 C1014 0.930 . S
H1009 C1017 0.930 . S
H1010 C1018 0.930 . S
H1011 C1019 0.930 . S
H1012 C1022 0.930 . S
H1013 C1023 0.930 . S
C1014 H1008 0.930 . S
C1014 C1015 1.355 . S
C1014 C1016 1.415 . S
C1015 C1014 1.355 . S
C1015 C1017 1.419 . S
C1016 C1014 1.415 . S
C1016 C1021 1.425 . S
C1016 C1023 1.409 . S
C1017 H1009 0.930 . S
C1017 C1015 1.419 . S
C1017 C1018 1.362 . S
C1018 H1010 0.930 . S
C1018 C1017 1.362 . S
C1018 C1021 1.409 . S
C1019 H1011 0.930 . S
C1019 C1020 1.355 . S
C1019 C1021 1.415 . S
C1020 C1019 1.355 . S
C1020 C1022 1.419 . S
C1021 C1016 1.425 . S
C1021 C1018 1.409 . S
C1021 C1019 1.415 . S
C1022 H1012 0.930 . S
C1022 C1020 1.419 . S
C1022 C1023 1.362 . S
C1023 H1013 0.930 . S
C1023 C1016 1.409 . S
C1023 C1022 1.362 . S
H1024 C1030 0.930 . S
H1025 C1033 0.930 . S
H1026 C1034 0.930 . S
H1027 C1035 0.930 . S
H1028 C1038 0.930 . S
H1029 C1039 0.930 . S
C1030 H1024 0.930 . S
C1030 C1031 1.355 . S
C1030 C1032 1.415 . S
C1031 C1030 1.355 . S
C1031 C1033 1.419 . S
C1032 C1030 1.415 . S
C1032 C1037 1.425 . S
C1032 C1039 1.409 . S
C1033 H1025 0.930 . S
C1033 C1031 1.419 . S
C1033 C1034 1.362 . S
C1034 H1026 0.930 . S
C1034 C1033 1.362 . S
C1034 C1037 1.409 . S
C1035 H1027 0.930 . S
C1035 C1036 1.355 . S
C1035 C1037 1.415 . S
C1036 C1035 1.355 . S
C1036 C1038 1.419 . S
C1037 C1032 1.425 . S
C1037 C1034 1.409 . S
C1037 C1035 1.415 . S
C1038 H1028 0.930 . S
C1038 C1036 1.419 . S
C1038 C1039 1.362 . S
C1039 H1029 0.930 . S
C1039 C1032 1.409 . S
C1039 C1038 1.362 . S
H1040 C1046 0.930 . S
H1041 C1049 0.930 . S
H1042 C1050 0.930 . S
H1043 C1051 0.930 . S
H1044 C1054 0.930 . S
H1045 C1055 0.930 . S
C1046 H1040 0.930 . S
C1046 C1047 1.355 . S
C1046 C1048 1.415 . S
C1047 C1046 1.355 . S
C1047 C1049 1.419 . S
C1048 C1046 1.415 . S
C1048 C1053 1.425 . S
C1048 C1055 1.409 . S
C1049 H1041 0.930 . S
C1049 C1047 1.419 . S
C1049 C1050 1.362 . S
C1050 H1042 0.930 . S
C1050 C1049 1.362 . S
C1050 C1053 1.409 . S
C1051 H1043 0.930 . S
C1051 C1052 1.355 . S
C1051 C1053 1.415 . S
C1052 C1051 1.355 . S
C1052 C1054 1.419 . S
C1053 C1048 1.425 . S
C1053 C1050 1.409 . S
C1053 C1051 1.415 . S
C1054 H1044 0.930 . S
C1054 C1052 1.419 . S
C1054 C1055 1.362 . S
C1055 H1045 0.930 . S
C1055 C1048 1.409 . S
C1055 C1054 1.362 . S
H1056 C1062 0.930 . S
H1057 C1065 0.930 . S
H1058 C1066 0.930 . S
H1059 C1067 0.930 . S
H1060 C1070 0.930 . S
H1061 C1071 0.930 . S
C1062 H1056 0.930 . S
C1062 C1063 1.355 . S
C1062 C1064 1.415 . S
C1063 C1062 1.355 . S
C1063 C1065 1.419 . S
C1064 C1062 1.415 . S
C1064 C1069 1.425 . S
C1064 C1071 1.409 . S
C1065 H1057 0.930 . S
C1065 C1063 1.419 . S
C1065 C1066 1.362 . S
C1066 H1058 0.930 . S
C1066 C1065 1.362 . S
C1066 C1069 1.409 . S
C1067 H1059 0.930 . S
C1067 C1068 1.355 . S
C1067 C1069 1.415 . S
C1068 C1067 1.355 . S
C1068 C1070 1.419 . S
C1069 C1064 1.425 . S
C1069 C1066 1.409 . S
C1069 C1067 1.415 . S
C1070 H1060 0.930 . S
C1070 C1068 1.419 . S
C1070 C1071 1.362 . S
C1071 H1061 0.930 . S
C1071 C1064 1.409 . S
C1071 C1070 1.362 . S
H1072 C1078 0.930 . S
H1073 C1081 0.930 . S
H1074 C1082 0.930 . S
H1075 C1083 0.930 . S
H1076 C1086 0.930 . S
H1077 C1087 0.930 . S
C1078 H1072 0.930 . S
C1078 C1079 1.355 . S
C1078 C1080 1.415 . S
C1079 C1078 1.355 . S
C1079 C1081 1.419 . S
C1080 C1078 1.415 . S
C1080 C1085 1.425 . S
C1080 C1087 1.409 . S
C1081 H1073 0.930 . S
C1081 C1079 1.419 . S
C1081 C1082 1.362 . S
C1082 H1074 0.930 . S
C1082 C1081 1.362 . S
C1082 C1085 1.409 . S
C1083 H1075 0.930 . S
C1083 C1084 1.355 . S
C1083 C1085 1.415 1_556 S
C1084 C1083 1.355 . S
C1084 C1086 1.419 . S
C1085 C1080 1.425 . S
C1085 C1082 1.409 . S
C1085 C1083 1.415 1_554 S
C1086 H1076 0.930 . S
C1086 C1084 1.419 . S
C1086 C1087 1.362 1_556 S
C1087 H1077 0.930 . S
C1087 C1080 1.409 . S
C1087 C1086 1.362 1_554 S
C583 C219 1.482 . S
C588 C3 1.489 . S
C599 C255 1.490 . S
C604 C39 1.483 . S
C615 C75 1.463 . S
C620 C147 1.472 . S
C631 C111 1.447 . S
C636 C183 1.450 . S
C647 C291 1.490 . S
C652 C507 1.493 . S
C663 C543 1.470 . S
C668 C327 1.461 . S
C679 C363 1.490 . S
C684 C435 1.493 . S
C695 C399 1.447 . S
C700 C471 1.449 . S
C711 C4 1.397 . S
C716 C364 1.407 . S
C727 C40 1.432 . S
C732 C400 1.441 . S
C743 C76 1.431 . S
C748 C292 1.440 . S
C759 C112 1.378 . S
C764 C328 1.376 . S
C775 C148 1.452 . S
C780 C508 1.452 . S
C791 C544 1.451 . S
C796 C184 1.447 . S
C807 C220 1.449 . S
C812 C436 1.452 . S
C823 C472 1.432 . S
C828 C256 1.441 . S
C839 C470 0.580 . S
C844 C2 0.547 . S
C855 C38 0.583 . S
C860 C506 0.667 . S
C871 C542 0.767 . S
C876 C74 0.697 . S
C887 C434 0.547 . S
C892 C110 0.578 . S
C903 C398 0.785 . S
C908 C146 0.781 . S
C919 C182 0.715 . S
C924 C290 0.777 . S
C935 C218 0.648 . S
C940 C326 0.733 . S
C951 C254 0.654 . S
C956 C362 0.574 . S
C967 C482 1.441 . S
C972 C14 1.466 . S
C983 C50 1.432 . S
C988 C518 1.436 . S
C999 C86 1.465 . S
C1004 C554 1.410 . S
C1015 C446 1.425 . S
C1020 C122 1.444 . S
C1031 C410 1.474 . S
C1036 C158 1.406 . S
C1047 C302 1.419 . S
C1052 C194 1.480 . S
C1063 C230 1.480 . S
C1068 C338 1.416 . S
C1079 C374 1.431 . S
C1084 C266 1.473 . S
