# Generated by pormake.
# Topology oof, (8)-cn, num edge types: 1
# Building blocks:
#     Node 0, Type 0, BuildingBlock: EBIMEJ_clean_sbu_0, # of connection points: 8
#     Node 1, Type 0, BuildingBlock: EBIMEJ_clean_sbu_0, # of connection points: 8
#     Node 2, Type 0, BuildingBlock: EBIMEJ_clean_sbu_0, # of connection points: 8
#     Node 3, Type 0, BuildingBlock: EBIMEJ_clean_sbu_0, # of connection points: 8
#     Edge 4, Type (0, 0), BuildingBlock: KIFKEQ_clean_linker_1, # of connection points: 2
#     Edge 5, Type (0, 0), BuildingBlock: KIFKEQ_clean_linker_1, # of connection points: 2
#     Edge 6, Type (0, 0), BuildingBlock: KIFKEQ_clean_linker_1, # of connection points: 2
#     Edge 7, Type (0, 0), BuildingBlock: KIFKEQ_clean_linker_1, # of connection points: 2
#     Edge 8, Type (0, 0), BuildingBlock: KIFKEQ_clean_linker_1, # of connection points: 2
#     Edge 9, Type (0, 0), BuildingBlock: KIFKEQ_clean_linker_1, # of connection points: 2
#     Edge 10, Type (0, 0), BuildingBlock: KIFKEQ_clean_linker_1, # of connection points: 2
#     Edge 11, Type (0, 0), BuildingBlock: KIFKEQ_clean_linker_1, # of connection points: 2
#     Edge 12, Type (0, 0), BuildingBlock: KIFKEQ_clean_linker_1, # of connection points: 2
#     Edge 13, Type (0, 0), BuildingBlock: KIFKEQ_clean_linker_1, # of connection points: 2
#     Edge 14, Type (0, 0), BuildingBlock: KIFKEQ_clean_linker_1, # of connection points: 2
#     Edge 15, Type (0, 0), BuildingBlock: KIFKEQ_clean_linker_1, # of connection points: 2
#     Edge 16, Type (0, 0), BuildingBlock: KIFKEQ_clean_linker_1, # of connection points: 2
#     Edge 17, Type (0, 0), BuildingBlock: KIFKEQ_clean_linker_1, # of connection points: 2
#     Edge 18, Type (0, 0), BuildingBlock: KIFKEQ_clean_linker_1, # of connection points: 2
#     Edge 19, Type (0, 0), BuildingBlock: KIFKEQ_clean_linker_1, # of connection points: 2
# Relax obj value: 0.053
# Max RMSD: 0.153
# Mean RMSD: 0.153
data_MOF--net-oof--node1-EBIMEJ_clean_sbu_0--edge1-KIFKEQ_clean_linker_1
_symmetry_space_group_name_H-M    P1
_symmetry_Int_Tables_number       1
_symmetry_cell_setting            triclinic
loop_
_symmetry_equiv_pos_as_xyz
'x, y, z'
_cell_length_a     15.411579
_cell_length_b     68.020109
_cell_length_c     17.818028
_cell_angle_alpha  79.744113
_cell_angle_beta   123.40612
_cell_angle_gamma 95.785735
loop_
_atom_site_label
_atom_site_type_symbol
_atom_site_fract_x
_atom_site_fract_y
_atom_site_fract_z
_atom_type_partial_charge
Co0 Co 0.96281 0.18496 0.32424 0.0
Co1 Co 0.93996 0.16379 0.16472 0.0
Co2 Co 0.98224 0.13821 0.33906 0.0
H3 H 0.98737 0.16158 0.32021 0.0
O4 O 0.02195 0.16582 0.29579 0.0
H5 H 0.95602 0.14026 0.1892 0.0
O6 O 0.91989 0.13488 0.21084 0.0
Co7 Co 1.00034 0.11808 0.19134 0.0
O8 O 0.95867 0.13126 0.06415 0.0
O9 O 0.87353 0.15949 0.03507 0.0
O10 O 0.99564 0.09628 0.28399 0.0
O11 O 0.9593 0.1095 0.37122 0.0
O12 O 0.97453 0.21443 0.34167 0.0
O13 O 0.105 0.19635 0.41784 0.0
O14 O 0.13315 0.13312 0.26238 0.0
O15 O 0.0741 0.16248 0.1772 0.0
C16 C 0.00432 0.15693 0.48978 0.0
C17 C 0.88459 0.20548 0.13785 0.0
C18 C 0.00377 0.08768 0.13194 0.0
C19 C 0.78165 0.15884 0.24054 0.0
C20 C 0.90389 0.14644 0.01003 0.0
C21 C 0.97514 0.09453 0.34546 0.0
C22 C 0.07016 0.21358 0.4008 0.0
C23 C 0.14733 0.14996 0.22665 0.0
O24 O 0.9677 0.17344 0.43781 0.0
O25 O 0.03037 0.14275 0.46664 0.0
O26 O 0.93521 0.19379 0.12575 0.0
O27 O 0.87007 0.20133 0.20269 0.0
O28 O 0.08096 0.09879 0.17309 0.0
O29 O 0.92513 0.09379 0.12507 0.0
O30 O 0.8204 0.17589 0.234 0.0
O31 O 0.83728 0.14398 0.29604 0.0
Co32 Co 0.00433 0.93253 0.8322 0.0
Co33 Co 0.04253 0.91121 0.70149 0.0
Co34 Co 0.07436 0.8867 0.87341 0.0
H35 H 0.05601 0.91021 0.84449 0.0
O36 O 0.0954 0.91552 0.82625 0.0
H37 H 0.04795 0.88796 0.72724 0.0
O38 O 0.00819 0.88328 0.74602 0.0
Co39 Co 0.09082 0.86528 0.73662 0.0
O40 O 0.09767 0.87718 0.62869 0.0
O41 O 0.00505 0.90525 0.57976 0.0
O42 O 0.17392 0.85037 0.86335 0.0
O43 O 0.07747 0.8569 0.91424 0.0
O44 O 0.93451 0.9591 0.81275 0.0
O45 O 0.07528 0.95084 0.93194 0.0
O46 O 0.22787 0.87691 0.82484 0.0
O47 O 0.19157 0.90788 0.75038 0.0
C48 C 0.09652 0.90587 0.01821 0.0
C49 C 0.01468 0.95462 0.67115 0.0
C50 C 0.99253 0.83557 0.66461 0.0
C51 C 0.86203 0.90044 0.78929 0.0
C52 C 0.05061 0.89223 0.56864 0.0
C53 C 0.13757 0.84531 0.91305 0.0
C54 C 0.00518 0.96382 0.88852 0.0
C55 C 0.25603 0.89467 0.81147 0.0
O56 O 0.04242 0.92068 0.95962 0.0
O57 O 0.12953 0.89209 0.99911 0.0
O58 O 0.0553 0.94019 0.66316 0.0
O59 O 0.98137 0.9527 0.7239 0.0
O60 O 0.08958 0.83732 0.706 0.0
O61 O 0.95147 0.85078 0.66296 0.0
O62 O 0.88343 0.91597 0.75135 0.0
O63 O 0.93309 0.88813 0.84806 0.0
Co64 Co 0.46371 0.68632 0.31099 0.0
Co65 Co 0.44471 0.66401 0.15635 0.0
Co66 Co 0.48429 0.63958 0.33221 0.0
H67 H 0.48973 0.66282 0.31038 0.0
O68 O 0.52527 0.66677 0.28657 0.0
H69 H 0.45891 0.64046 0.18308 0.0
O70 O 0.42249 0.63549 0.20502 0.0
Co71 Co 0.50012 0.61778 0.18662 0.0
O72 O 0.45806 0.63005 0.05864 0.0
O73 O 0.37746 0.65899 0.02766 0.0
O74 O 0.4925 0.59685 0.27991 0.0
O75 O 0.46063 0.61102 0.36766 0.0
O76 O 0.49761 0.70787 0.39166 0.0
O77 O 0.59282 0.7043 0.34655 0.0
O78 O 0.6361 0.63208 0.25134 0.0
O79 O 0.57951 0.66196 0.16939 0.0
C80 C 0.49569 0.65913 0.47487 0.0
C81 C 0.39286 0.70623 0.12491 0.0
C82 C 0.50205 0.58664 0.13145 0.0
C83 C 0.28189 0.66028 0.23108 0.0
C84 C 0.40547 0.64534 1.00358 0.0
C85 C 0.47352 0.59568 0.34202 0.0
C86 C 0.57705 0.71403 0.39149 0.0
C87 C 0.65075 0.64896 0.21632 0.0
O88 O 0.45659 0.67508 0.41892 0.0
O89 O 0.53043 0.64517 0.45787 0.0
O90 O 0.44158 0.69382 0.11411 0.0
O91 O 0.37762 0.703 0.18935 0.0
O92 O 0.5821 0.59572 0.18523 0.0
O93 O 0.42103 0.59511 0.10988 0.0
O94 O 0.31931 0.67741 0.22294 0.0
O95 O 0.33894 0.64561 0.28719 0.0
Co96 Co 0.51171 0.43271 0.82957 0.0
Co97 Co 0.54771 0.41196 0.69729 0.0
Co98 Co 0.58399 0.38764 0.87236 0.0
H99 H 0.56648 0.41097 0.84263 0.0
O100 O 0.6053 0.41631 0.82351 0.0
H101 H 0.55399 0.38866 0.72346 0.0
O102 O 0.51645 0.384 0.74445 0.0
Co103 Co 0.59246 0.36559 0.73036 0.0
O104 O 0.58164 0.37653 0.61395 0.0
O105 O 0.50112 0.40597 0.57273 0.0
O106 O 0.69258 0.35865 0.86492 0.0
O107 O 0.59042 0.35778 0.91451 0.0
O108 O 0.43597 0.45812 0.81349 0.0
O109 O 0.58194 0.45109 0.92884 0.0
O110 O 0.7291 0.37802 0.81223 0.0
O111 O 0.69235 0.4082 0.73191 0.0
C112 C 0.59909 0.40648 0.01452 0.0
C113 C 0.52105 0.45547 0.66879 0.0
C114 C 0.49406 0.33508 0.66667 0.0
C115 C 0.36896 0.39976 0.76986 0.0
C116 C 0.53813 0.39218 0.55685 0.0
C117 C 0.65578 0.34891 0.90883 0.0
C118 C 0.50813 0.46329 0.88778 0.0
C119 C 0.75642 0.39403 0.78221 0.0
O120 O 0.54303 0.42091 0.95476 0.0
O121 O 0.63634 0.39313 0.99722 0.0
O122 O 0.55843 0.44103 0.65753 0.0
O123 O 0.49112 0.45342 0.72393 0.0
O124 O 0.58416 0.33914 0.68435 0.0
O125 O 0.45996 0.3484 0.68405 0.0
O126 O 0.38989 0.41705 0.74287 0.0
O127 O 0.43941 0.38893 0.8398 0.0
H128 H 0.81112 0.12393 0.87238 0.0
H129 H 0.99642 0.17677 0.95943 0.0
H130 H 0.84254 0.12598 0.75083 0.0
H131 H 0.03665 0.17801 0.84472 0.0
H132 H 0.02263 0.18641 0.58151 0.0
H133 H 0.98801 0.18487 0.69869 0.0
H134 H 0.96065 0.12052 0.71526 0.0
H135 H 0.98875 0.12241 0.59145 0.0
C136 C 0.85657 0.13628 0.86381 0.0
C137 C 0.89807 0.15063 0.92306 0.0
C138 C 0.87719 0.13719 0.79567 0.0
C139 C 0.94329 0.15207 0.78718 0.0
C140 C 0.98327 0.16659 0.84628 0.0
C141 C 0.9598 0.16601 0.91228 0.0
C142 C 0.01029 0.17183 0.6106 0.0
C143 C 0.00798 0.15453 0.57632 0.0
C144 C 0.99088 0.17092 0.67897 0.0
C145 C 0.97012 0.15259 0.71724 0.0
C146 C 0.97366 0.13504 0.68652 0.0
C147 C 0.99203 0.13601 0.61667 0.0
H148 H 0.17882 0.87232 0.54852 0.0
H149 H 0.94146 0.91792 0.40635 0.0
H150 H 0.19811 0.876 0.42139 0.0
H151 H 0.95885 0.92115 0.27585 0.0
H152 H 0.08934 0.93583 0.09735 0.0
H153 H 0.07764 0.93284 0.22936 0.0
H154 H 0.1125 0.86883 0.27061 0.0
H155 H 0.12655 0.87191 0.13902 0.0
C156 C 0.12937 0.88302 0.48946 0.0
C157 C 0.05768 0.89476 0.48765 0.0
C158 C 0.14044 0.88503 0.41607 0.0
C159 C 0.07971 0.89873 0.33794 0.0
C160 C 0.00781 0.91057 0.33557 0.0
C161 C 0.99722 0.90867 0.40996 0.0
C162 C 0.09621 0.92112 0.1354 0.0
C163 C 0.10911 0.90407 0.10772 0.0
C164 C 0.0881 0.9194 0.2105 0.0
C165 C 0.09242 0.9006 0.25993 0.0
C166 C 0.10949 0.8836 0.23446 0.0
C167 C 0.11817 0.88533 0.15933 0.0
H168 H 0.36425 0.61731 0.89648 0.0
H169 H 0.43586 0.67981 0.91635 0.0
H170 H 0.38968 0.62037 0.77138 0.0
H171 H 0.46791 0.6828 0.79554 0.0
H172 H 0.43621 0.68744 0.52756 0.0
H173 H 0.40269 0.68415 0.64552 0.0
H174 H 0.514 0.62328 0.73381 0.0
H175 H 0.54117 0.62622 0.60891 0.0
C176 C 0.38336 0.63184 0.87256 0.0
C177 C 0.3956 0.64844 0.91477 0.0
C178 C 0.4003 0.63351 0.80206 0.0
C179 C 0.43227 0.65178 0.77303 0.0
C180 C 0.44153 0.66852 0.81398 0.0
C181 C 0.42239 0.66691 0.88319 0.0
C182 C 0.45423 0.67324 0.57182 0.0
C183 C 0.49117 0.65702 0.55761 0.0
C184 C 0.43559 0.67144 0.64089 0.0
C185 C 0.45524 0.65346 0.70033 0.0
C186 C 0.49574 0.63731 0.68854 0.0
C187 C 0.51298 0.63903 0.61768 0.0
H188 H 0.59533 0.43637 0.09545 0.0
H189 H 0.61842 0.37225 0.12969 0.0
H190 H 0.57813 0.4333 0.22477 0.0
H191 H 0.59793 0.36905 0.2577 0.0
H192 H 0.65944 0.3711 0.53361 0.0
H193 H 0.68171 0.37504 0.40866 0.0
H194 H 0.45587 0.4227 0.26816 0.0
H195 H 0.43577 0.41923 0.39748 0.0
C196 C 0.59799 0.4216 0.13145 0.0
C197 C 0.60891 0.40452 0.10279 0.0
C198 C 0.58654 0.41984 0.20479 0.0
C199 C 0.58509 0.40095 0.25103 0.0
C200 C 0.59966 0.38389 0.22425 0.0
C201 C 0.61211 0.38567 0.15123 0.0
C202 C 0.61301 0.38236 0.47602 0.0
C203 C 0.54427 0.39471 0.4754 0.0
C204 C 0.62596 0.38454 0.40379 0.0
C205 C 0.56997 0.399 0.32767 0.0
C206 C 0.50098 0.41147 0.32631 0.0
C207 C 0.48867 0.40942 0.39987 0.0
H208 H 0.6444 0.18932 0.16556 0.0
H209 H 0.66537 0.12485 0.20959 0.0
H210 H 0.4724 0.18669 0.13786 0.0
H211 H 0.48917 0.1222 0.17664 0.0
H212 H 0.32341 0.1276 0.32147 0.0
H213 H 0.45654 0.12859 0.28773 0.0
H214 H 0.29661 0.17737 0.06897 0.0
H215 H 0.16804 0.17733 0.10662 0.0
C216 C 0.6104 0.17458 0.16559 0.0
C217 C 0.66924 0.15724 0.19424 0.0
C218 C 0.51117 0.17307 0.14879 0.0
C219 C 0.46967 0.1542 0.15885 0.0
C220 C 0.52187 0.1369 0.17219 0.0
C221 C 0.62215 0.13841 0.19084 0.0
C222 C 0.31783 0.1387 0.26719 0.0
C223 C 0.2359 0.15238 0.217 0.0
C224 C 0.39232 0.13896 0.24625 0.0
C225 C 0.38493 0.15272 0.17397 0.0
C226 C 0.30371 0.16656 0.12465 0.0
C227 C 0.23071 0.1666 0.1469 0.0
H228 H 0.8083 0.93245 0.8242 0.0
H229 H 0.73555 0.87034 0.79264 0.0
H230 H 0.69248 0.93288 0.8762 0.0
H231 H 0.61338 0.87094 0.8385 0.0
H232 H 0.41945 0.86974 0.9348 0.0
H233 H 0.59169 0.87325 0.95949 0.0
H234 H 0.51234 0.93271 0.80558 0.0
H235 H 0.34409 0.92965 0.78536 0.0
C236 C 0.76458 0.91908 0.8256 0.0
C237 C 0.77733 0.90153 0.80172 0.0
C238 C 0.69971 0.91923 0.85676 0.0
C239 C 0.64455 0.90193 0.86224 0.0
C240 C 0.65703 0.88438 0.83751 0.0
C241 C 0.72422 0.88412 0.80867 0.0
C242 C 0.44054 0.88382 0.90931 0.0
C243 C 0.36698 0.89901 0.85369 0.0
C244 C 0.53881 0.88579 0.92316 0.0
C245 C 0.56302 0.90281 0.88042 0.0
C246 C 0.49557 0.91924 0.83822 0.0
C247 C 0.39824 0.9174 0.82565 0.0
H248 H 0.78394 0.6799 0.23968 0.0
H249 H 0.69181 0.62265 0.14487 0.0
H250 H 0.91376 0.68324 0.2 0.0
H251 H 0.81614 0.62635 0.09979 0.0
H252 H 0.17479 0.626 0.22866 0.0
H253 H 0.99905 0.62372 0.19221 0.0
H254 H 0.95509 0.68678 0.08567 0.0
H255 H 0.1341 0.68926 0.12568 0.0
C256 C 0.79221 0.66808 0.21053 0.0
C257 C 0.73314 0.6506 0.19955 0.0
C258 C 0.86399 0.67016 0.18549 0.0
C259 C 0.87489 0.65499 0.14684 0.0
C260 C 0.81059 0.63807 0.13093 0.0
C261 C 0.74107 0.63579 0.15814 0.0
C262 C 0.12708 0.63931 0.19556 0.0
C263 C 0.1692 0.658 0.18429 0.0
C264 C 0.02555 0.63795 0.17336 0.0
C265 C 0.96479 0.65525 0.13887 0.0
C266 C 0.00197 0.67337 0.11493 0.0
C267 C 0.10416 0.67477 0.13781 0.0
H268 H 0.8237 0.36066 0.76745 0.0
H269 H 0.87399 0.42447 0.76315 0.0
H270 H 0.94355 0.3588 0.72123 0.0
H271 H 0.99919 0.42245 0.72188 0.0
H272 H 0.19627 0.42048 0.63059 0.0
H273 H 0.0239 0.41602 0.60534 0.0
H274 H 0.12648 0.36152 0.79834 0.0
H275 H 0.29589 0.36547 0.82046 0.0
C276 C 0.86284 0.37423 0.75912 0.0
C277 C 0.8424 0.3927 0.77131 0.0
C278 C 0.92993 0.37317 0.73113 0.0
C279 C 0.97966 0.39046 0.71705 0.0
C280 C 0.95963 0.40893 0.72978 0.0
C281 C 0.89052 0.41006 0.75583 0.0
C282 C 0.18058 0.40718 0.66496 0.0
C283 C 0.26031 0.39388 0.73127 0.0
C284 C 0.0822 0.40466 0.65059 0.0
C285 C 0.0639 0.38897 0.70309 0.0
C286 C 0.13873 0.37395 0.75779 0.0
C287 C 0.23647 0.37634 0.77132 0.0
H288 H 0.2984 0.32503 0.62437 0.0
H289 H 0.55557 0.30401 0.62742 0.0
H290 H 0.19857 0.29534 0.56386 0.0
H291 H 0.45467 0.27434 0.56482 0.0
H292 H 0.27726 0.21443 0.5344 0.0
H293 H 0.38183 0.24344 0.60115 0.0
H294 H 0.11125 0.2811 0.42534 0.0
H295 H 0.00697 0.2521 0.3605 0.0
C296 C 0.33346 0.31407 0.61173 0.0
C297 C 0.43462 0.3169 0.63019 0.0
C298 C 0.27599 0.29708 0.57654 0.0
C299 C 0.31814 0.28246 0.5588 0.0
C300 C 0.42004 0.28519 0.57835 0.0
C301 C 0.47764 0.30225 0.61361 0.0
C302 C 0.24031 0.22891 0.51041 0.0
C303 C 0.13387 0.23098 0.44255 0.0
C304 C 0.3003 0.24557 0.54817 0.0
C305 C 0.25507 0.26464 0.51884 0.0
C306 C 0.14846 0.26662 0.45076 0.0
C307 C 0.08865 0.25 0.41322 0.0
H308 H 0.76088 0.32824 0.86716 0.0
H309 H 0.60705 0.31999 0.01321 0.0
H310 H 0.80644 0.29357 0.9089 0.0
H311 H 0.65736 0.2845 0.05867 0.0
H312 H 0.68976 0.21844 0.06039 0.0
H313 H 0.62841 0.25285 1.00262 0.0
H314 H 0.9237 0.27104 0.03694 0.0
H315 H 0.9835 0.23639 0.09271 0.0
C316 C 0.73699 0.31907 0.90908 0.0
C317 C 0.68039 0.32716 0.93734 0.0
C318 C 0.76427 0.29901 0.93355 0.0
C319 C 0.73721 0.28617 0.98819 0.0
C320 C 0.67911 0.29399 0.0159 0.0
C321 C 0.65068 0.31432 0.99048 0.0
C322 C 0.74013 0.22976 0.05255 0.0
C323 C 0.8407 0.22473 0.07929 0.0
C324 C 0.7057 0.24953 0.02122 0.0
C325 C 0.77132 0.26485 0.01632 0.0
C326 C 0.8704 0.25963 0.03894 0.0
C327 C 0.90464 0.23975 0.06993 0.0
H328 H 0.74615 0.73023 0.39073 0.0
H329 H 0.55335 0.73655 0.49141 0.0
H330 H 0.84808 0.75934 0.45795 0.0
H331 H 0.65614 0.76547 0.55996 0.0
H332 H 0.78316 0.82957 0.57569 0.0
H333 H 0.68538 0.79988 0.51228 0.0
H334 H 0.97141 0.7709 0.60383 0.0
H335 H 0.06906 0.80081 0.66619 0.0
C336 C 0.72612 0.73775 0.42789 0.0
C337 C 0.64163 0.73114 0.43564 0.0
C338 C 0.78483 0.75439 0.4668 0.0
C339 C 0.76023 0.76482 0.51421 0.0
C340 C 0.67635 0.75799 0.5228 0.0
C341 C 0.61778 0.74135 0.484 0.0
C342 C 0.82511 0.81687 0.58208 0.0
C343 C 0.93371 0.81755 0.62549 0.0
C344 C 0.76916 0.79978 0.54632 0.0
C345 C 0.82042 0.78295 0.55304 0.0
C346 C 0.92927 0.78367 0.5965 0.0
C347 C 0.9853 0.80077 0.6325 0.0
H348 H 0.19076 0.71555 0.01605 0.0
H349 H 0.49667 0.7398 0.10708 0.0
H350 H 0.12004 0.74904 0.96933 0.0
H351 H 0.42585 0.77367 0.05667 0.0
H352 H 0.30785 0.8297 0.07169 0.0
H353 H 0.3669 0.79524 0.10955 0.0
H354 H 0.07425 0.77984 0.87573 0.0
H355 H 0.01455 0.814 0.84205 0.0
C356 C 0.24184 0.72815 0.02128 0.0
C357 C 0.34875 0.72509 0.06328 0.0
C358 C 0.20154 0.74744 0.99546 0.0
C359 C 0.26727 0.76423 0.01091 0.0
C360 C 0.3731 0.76113 0.04596 0.0
C361 C 0.41355 0.74174 0.07244 0.0
C362 C 0.2545 0.81862 0.03162 0.0
C363 C 0.15535 0.82431 0.95602 0.0
C364 C 0.28931 0.79899 0.05138 0.0
C365 C 0.22655 0.7847 0.99457 0.0
C366 C 0.1249 0.79023 0.92173 0.0
C367 C 0.08976 0.80979 0.90297 0.0
H368 H 0.84226 0.06246 0.04101 0.0
H369 H 0.16729 0.0722 0.14125 0.0
H370 H 0.84299 0.03277 0.98185 0.0
H371 H 0.16799 0.04261 0.08113 0.0
H372 H 0.15493 0.97626 0.04961 0.0
H373 H 0.15512 1.0062 0.10782 0.0
H374 H 0.85656 1.0229 0.86337 0.0
H375 H 0.85624 0.99283 0.80565 0.0
C376 C 0.91385 0.05828 0.05014 0.0
C377 C 0.00474 0.06968 0.09591 0.0
C378 C 0.91415 0.04132 0.01574 0.0
C379 C 0.00551 0.03525 0.02649 0.0
C380 C 0.09652 0.04667 0.07247 0.0
C381 C 0.09607 0.0637 0.1066 0.0
C382 C 0.08946 0.98636 1.00824 0.0
C383 C 0.00555 0.98217 0.92303 0.0
C384 C 0.08978 1.00359 0.0414 0.0
C385 C 0.00587 1.01702 0.99041 0.0
C386 C 0.92194 1.0128 0.90502 0.0
C387 C 0.92193 0.99561 0.87165 0.0
H388 H 0.97949 0.08301 0.50331 0.0
H389 H 0.96884 0.05941 0.28847 0.0
H390 H 0.98986 0.04907 0.5805 0.0
H391 H 0.97628 0.02563 0.36414 0.0
H392 H 0.10431 0.9688 0.57407 0.0
H393 H 0.0932 1.00265 0.49487 0.0
H394 H 0.88927 1.01942 0.56834 0.0
H395 H 0.90251 0.9861 0.64892 0.0
C396 C 0.97801 0.07061 0.47197 0.0
C397 C 0.97358 0.07399 0.38985 0.0
C398 C 0.98377 0.05112 0.51609 0.0
C399 C 0.98437 0.03457 0.47872 0.0
C400 C 0.97805 0.03799 0.3958 0.0
C401 C 0.97294 0.05742 0.35205 0.0
C402 C 0.05693 0.97971 0.57297 0.0
C403 C 0.00496 0.9747 0.61839 0.0
C404 C 0.0502 0.99911 0.52734 0.0
C405 C 0.99085 1.01384 0.52576 0.0
C406 C 0.93748 1.00864 0.56975 0.0
C407 C 0.94465 0.9894 0.61558 0.0
H408 H 0.66963 0.56828 0.16006 0.0
H409 H 0.33607 0.56391 0.02407 0.0
H410 H 0.67063 0.53875 0.10026 0.0
H411 H 0.33684 0.53402 0.96623 0.0
H412 H 0.36347 0.49314 0.80135 0.0
H413 H 0.3622 0.52292 0.85979 0.0
H414 H 0.64671 0.50345 0.11432 0.0
H415 H 0.64914 0.47406 0.0546 0.0
C416 C 0.59655 0.5609 0.11789 0.0
C417 C 0.50281 0.56842 0.09679 0.0
C418 C 0.59706 0.54388 0.08392 0.0
C419 C 0.50379 0.53388 0.02826 0.0
C420 C 0.41004 0.54144 1.00761 0.0
C421 C 0.40958 0.55851 0.0413 0.0
C422 C 0.42566 0.49526 0.86975 0.0
C423 C 0.50646 0.48128 0.92329 0.0
C424 C 0.42472 0.51229 0.90359 0.0
C425 C 0.5044 0.5157 0.99201 0.0
C426 C 0.58493 0.50157 0.04549 0.0
C427 C 0.58606 0.48463 0.01147 0.0
H428 H 0.59716 0.46967 0.56061 0.0
H429 H 0.42155 0.48749 0.66061 0.0
H430 H 0.58379 0.50371 0.4821 0.0
H431 H 0.40611 0.52096 0.58096 0.0
H432 H 0.49266 0.58451 0.50677 0.0
H433 H 0.50558 0.55053 0.58537 0.0
H434 H 0.46028 0.52683 0.35662 0.0
H435 H 0.44999 0.56053 0.27953 0.0
C436 C 0.55519 0.48074 0.56536 0.0
C437 C 0.51096 0.47577 0.6173 0.0
C438 C 0.54711 0.50024 0.52014 0.0
C439 C 0.49419 0.51515 0.52555 0.0
C440 C 0.44914 0.51004 0.57665 0.0
C441 C 0.45754 0.49069 0.62193 0.0
C442 C 0.48448 0.57203 0.47306 0.0
C443 C 0.47079 0.57529 0.38712 0.0
C444 C 0.4919 0.55254 0.51801 0.0
C445 C 0.48498 0.5359 0.47766 0.0
C446 C 0.46841 0.53923 0.3907 0.0
C447 C 0.46161 0.55863 0.34616 0.0
loop_
_geom_bond_atom_site_label_1
_geom_bond_atom_site_label_2
_geom_bond_distance
_geom_bond_site_symmetry_2
_ccdc_geom_bond_type
Co0 H3 2.400 1_655 S
Co0 O4 2.009 1_655 S
Co0 O12 2.115 . S
Co0 O13 2.315 1_655 S
Co0 O24 2.053 . S
Co0 O27 2.094 . S
Co0 O30 2.122 . S
Co1 O4 2.126 1_655 S
Co1 H5 2.388 . S
Co1 O6 2.053 . S
Co1 O9 2.047 . S
Co1 O15 2.113 1_655 S
Co1 O26 2.063 1_655 S
Co2 H3 2.388 . S
Co2 O4 2.053 . S
Co2 O6 2.126 1_455 S
Co2 O11 2.063 1_455 S
Co2 O25 2.047 . S
Co2 O31 2.113 1_455 S
H3 Co0 2.400 1_455 S
H3 Co2 2.388 . S
H3 O4 0.760 . S
O4 Co0 2.009 1_455 S
O4 Co1 2.126 1_455 S
O4 Co2 2.053 . S
O4 H3 0.760 . S
H5 Co1 2.388 . S
H5 O6 0.760 . S
H5 Co7 2.400 1_655 S
O6 Co1 2.053 . S
O6 Co2 2.126 1_655 S
O6 H5 0.760 . S
O6 Co7 2.009 1_655 S
Co7 H5 2.400 1_455 S
Co7 O6 2.009 1_455 S
Co7 O8 2.053 . S
Co7 O10 2.094 . S
Co7 O14 2.122 . S
Co7 O28 2.115 . S
Co7 O29 2.315 1_455 S
O8 Co7 2.053 . S
O8 C20 1.259 1_455 S
O9 Co1 2.047 . S
O9 C20 1.257 . S
O10 Co7 2.094 . S
O10 C21 1.253 . S
O11 Co2 2.063 1_655 S
O11 C21 1.268 1_655 S
O12 Co0 2.115 . S
O12 C22 1.281 1_655 S
O13 Co0 2.315 1_455 S
O13 C22 1.252 . S
O14 Co7 2.122 . S
O14 C23 1.272 . S
O15 Co1 2.113 1_455 S
O15 C23 1.245 . S
C16 O24 1.259 1_455 S
C16 O25 1.257 . S
C17 O26 1.268 1_655 S
C17 O27 1.253 . S
C18 O28 1.281 1_655 S
C18 O29 1.252 . S
C19 O30 1.272 . S
C19 O31 1.245 . S
C20 O8 1.259 1_655 S
C20 O9 1.257 . S
C21 O10 1.253 . S
C21 O11 1.268 1_455 S
C22 O12 1.281 1_455 S
C22 O13 1.252 . S
C23 O14 1.272 . S
C23 O15 1.245 . S
O24 Co0 2.053 . S
O24 C16 1.259 1_655 S
O25 Co2 2.047 . S
O25 C16 1.257 . S
O26 Co1 2.063 1_455 S
O26 C17 1.268 1_455 S
O27 Co0 2.094 . S
O27 C17 1.253 . S
O28 Co7 2.115 . S
O28 C18 1.281 1_455 S
O29 Co7 2.315 1_655 S
O29 C18 1.252 . S
O30 Co0 2.122 . S
O30 C19 1.272 . S
O31 Co2 2.113 1_655 S
O31 C19 1.245 . S
Co32 H35 2.400 1_655 S
Co32 O36 2.009 1_655 S
Co32 O44 2.115 . S
Co32 O45 2.315 1_655 S
Co32 O56 2.053 1_655 S
Co32 O59 2.094 . S
Co32 O62 2.122 . S
Co33 O36 2.126 . S
Co33 H37 2.388 1_455 S
Co33 O38 2.053 1_455 S
Co33 O41 2.047 1_455 S
Co33 O47 2.113 . S
Co33 O58 2.063 . S
Co34 H35 2.388 . S
Co34 O36 2.053 . S
Co34 O38 2.126 1_455 S
Co34 O43 2.063 . S
Co34 O57 2.047 . S
Co34 O63 2.113 1_455 S
H35 Co32 2.400 1_455 S
H35 Co34 2.388 . S
H35 O36 0.760 . S
O36 Co32 2.009 1_455 S
O36 Co33 2.126 . S
O36 Co34 2.053 . S
O36 H35 0.760 . S
H37 Co33 2.388 1_655 S
H37 O38 0.760 . S
H37 Co39 2.400 1_655 S
O38 Co33 2.053 1_655 S
O38 Co34 2.126 1_655 S
O38 H37 0.760 . S
O38 Co39 2.009 1_655 S
Co39 H37 2.400 1_455 S
Co39 O38 2.009 1_455 S
Co39 O40 2.053 . S
Co39 O42 2.094 . S
Co39 O46 2.122 . S
Co39 O60 2.115 . S
Co39 O61 2.315 1_455 S
O40 Co39 2.053 . S
O40 C52 1.259 1_455 S
O41 Co33 2.047 1_655 S
O41 C52 1.257 . S
O42 Co39 2.094 . S
O42 C53 1.253 . S
O43 Co34 2.063 . S
O43 C53 1.268 . S
O44 Co32 2.115 . S
O44 C54 1.281 1_655 S
O45 Co32 2.315 1_455 S
O45 C54 1.252 . S
O46 Co39 2.122 . S
O46 C55 1.272 . S
O47 Co33 2.113 . S
O47 C55 1.245 . S
C48 O56 1.259 . S
C48 O57 1.257 . S
C49 O58 1.268 1_655 S
C49 O59 1.253 . S
C50 O60 1.281 1_655 S
C50 O61 1.252 . S
C51 O62 1.272 . S
C51 O63 1.245 . S
C52 O40 1.259 1_655 S
C52 O41 1.257 . S
C53 O42 1.253 . S
C53 O43 1.268 . S
C54 O44 1.281 1_455 S
C54 O45 1.252 . S
C55 O46 1.272 . S
C55 O47 1.245 . S
O56 Co32 2.053 1_455 S
O56 C48 1.259 . S
O57 Co34 2.047 . S
O57 C48 1.257 . S
O58 Co33 2.063 . S
O58 C49 1.268 1_455 S
O59 Co32 2.094 . S
O59 C49 1.253 . S
O60 Co39 2.115 . S
O60 C50 1.281 1_455 S
O61 Co39 2.315 1_655 S
O61 C50 1.252 . S
O62 Co32 2.122 . S
O62 C51 1.272 . S
O63 Co34 2.113 1_655 S
O63 C51 1.245 . S
Co64 H67 2.400 . S
Co64 O68 2.009 . S
Co64 O76 2.115 . S
Co64 O77 2.315 . S
Co64 O88 2.053 . S
Co64 O91 2.094 . S
Co64 O94 2.122 . S
Co65 O68 2.126 . S
Co65 H69 2.388 . S
Co65 O70 2.053 . S
Co65 O73 2.047 . S
Co65 O79 2.113 . S
Co65 O90 2.063 . S
Co66 H67 2.388 . S
Co66 O68 2.053 . S
Co66 O70 2.126 . S
Co66 O75 2.063 . S
Co66 O89 2.047 . S
Co66 O95 2.113 . S
H67 Co64 2.400 . S
H67 Co66 2.388 . S
H67 O68 0.760 . S
O68 Co64 2.009 . S
O68 Co65 2.126 . S
O68 Co66 2.053 . S
O68 H67 0.760 . S
H69 Co65 2.388 . S
H69 O70 0.760 . S
H69 Co71 2.400 . S
O70 Co65 2.053 . S
O70 Co66 2.126 . S
O70 H69 0.760 . S
O70 Co71 2.009 . S
Co71 H69 2.400 . S
Co71 O70 2.009 . S
Co71 O72 2.053 . S
Co71 O74 2.094 . S
Co71 O78 2.122 . S
Co71 O92 2.115 . S
Co71 O93 2.315 . S
O72 Co71 2.053 . S
O72 C84 1.259 . S
O73 Co65 2.047 . S
O73 C84 1.257 . S
O74 Co71 2.094 . S
O74 C85 1.253 . S
O75 Co66 2.063 . S
O75 C85 1.268 . S
O76 Co64 2.115 . S
O76 C86 1.281 . S
O77 Co64 2.315 . S
O77 C86 1.252 . S
O78 Co71 2.122 . S
O78 C87 1.272 . S
O79 Co65 2.113 . S
O79 C87 1.245 . S
C80 O88 1.259 . S
C80 O89 1.257 . S
C81 O90 1.268 . S
C81 O91 1.253 . S
C82 O92 1.281 . S
C82 O93 1.252 . S
C83 O94 1.272 . S
C83 O95 1.245 . S
C84 O72 1.259 . S
C84 O73 1.257 . S
C85 O74 1.253 . S
C85 O75 1.268 . S
C86 O76 1.281 . S
C86 O77 1.252 . S
C87 O78 1.272 . S
C87 O79 1.245 . S
O88 Co64 2.053 . S
O88 C80 1.259 . S
O89 Co66 2.047 . S
O89 C80 1.257 . S
O90 Co65 2.063 . S
O90 C81 1.268 . S
O91 Co64 2.094 . S
O91 C81 1.253 . S
O92 Co71 2.115 . S
O92 C82 1.281 . S
O93 Co71 2.315 . S
O93 C82 1.252 . S
O94 Co64 2.122 . S
O94 C83 1.272 . S
O95 Co66 2.113 . S
O95 C83 1.245 . S
Co96 H99 2.400 . S
Co96 O100 2.009 . S
Co96 O108 2.115 . S
Co96 O109 2.315 . S
Co96 O120 2.053 . S
Co96 O123 2.094 . S
Co96 O126 2.122 . S
Co97 O100 2.126 . S
Co97 H101 2.388 . S
Co97 O102 2.053 . S
Co97 O105 2.047 . S
Co97 O111 2.113 . S
Co97 O122 2.063 . S
Co98 H99 2.388 . S
Co98 O100 2.053 . S
Co98 O102 2.126 . S
Co98 O107 2.063 . S
Co98 O121 2.047 . S
Co98 O127 2.113 . S
H99 Co96 2.400 . S
H99 Co98 2.388 . S
H99 O100 0.760 . S
O100 Co96 2.009 . S
O100 Co97 2.126 . S
O100 Co98 2.053 . S
O100 H99 0.760 . S
H101 Co97 2.388 . S
H101 O102 0.760 . S
H101 Co103 2.400 . S
O102 Co97 2.053 . S
O102 Co98 2.126 . S
O102 H101 0.760 . S
O102 Co103 2.009 . S
Co103 H101 2.400 . S
Co103 O102 2.009 . S
Co103 O104 2.053 . S
Co103 O106 2.094 . S
Co103 O110 2.122 . S
Co103 O124 2.115 . S
Co103 O125 2.315 . S
O104 Co103 2.053 . S
O104 C116 1.259 . S
O105 Co97 2.047 . S
O105 C116 1.257 . S
O106 Co103 2.094 . S
O106 C117 1.253 . S
O107 Co98 2.063 . S
O107 C117 1.268 . S
O108 Co96 2.115 . S
O108 C118 1.281 . S
O109 Co96 2.315 . S
O109 C118 1.252 . S
O110 Co103 2.122 . S
O110 C119 1.272 . S
O111 Co97 2.113 . S
O111 C119 1.245 . S
C112 O120 1.259 . S
C112 O121 1.257 . S
C113 O122 1.268 . S
C113 O123 1.253 . S
C114 O124 1.281 . S
C114 O125 1.252 . S
C115 O126 1.272 . S
C115 O127 1.245 . S
C116 O104 1.259 . S
C116 O105 1.257 . S
C117 O106 1.253 . S
C117 O107 1.268 . S
C118 O108 1.281 . S
C118 O109 1.252 . S
C119 O110 1.272 . S
C119 O111 1.245 . S
O120 Co96 2.053 . S
O120 C112 1.259 . S
O121 Co98 2.047 . S
O121 C112 1.257 . S
O122 Co97 2.063 . S
O122 C113 1.268 . S
O123 Co96 2.094 . S
O123 C113 1.253 . S
O124 Co103 2.115 . S
O124 C114 1.281 . S
O125 Co103 2.315 . S
O125 C114 1.252 . S
O126 Co96 2.122 . S
O126 C115 1.272 . S
O127 Co98 2.113 . S
O127 C115 1.245 . S
H128 C136 0.950 . S
H129 C141 0.950 . S
H130 C138 0.950 . S
H131 C140 0.950 . S
H132 C142 0.950 . S
H133 C144 0.950 . S
H134 C146 0.950 . S
H135 C147 0.950 . S
C136 H128 0.950 . S
C136 C137 1.386 . S
C136 C138 1.391 . S
C137 C136 1.386 . S
C137 C141 1.393 1_655 S
C138 H130 0.950 . S
C138 C136 1.391 . S
C138 C139 1.400 . S
C139 C138 1.400 . S
C139 C140 1.398 1_655 S
C139 C145 1.491 1_655 S
C140 H131 0.950 . S
C140 C139 1.398 1_455 S
C140 C141 1.391 . S
C141 H129 0.950 . S
C141 C137 1.393 1_455 S
C141 C140 1.391 . S
C142 H132 0.950 . S
C142 C143 1.386 . S
C142 C144 1.391 . S
C143 C142 1.386 . S
C143 C147 1.393 1_455 S
C144 H133 0.950 . S
C144 C142 1.391 . S
C144 C145 1.400 . S
C145 C139 1.491 1_455 S
C145 C144 1.400 . S
C145 C146 1.398 1_455 S
C146 H134 0.950 . S
C146 C145 1.398 1_655 S
C146 C147 1.391 . S
C147 H135 0.950 . S
C147 C143 1.393 1_655 S
C147 C146 1.391 . S
H148 C156 0.950 . S
H149 C161 0.950 . S
H150 C158 0.950 . S
H151 C160 0.950 . S
H152 C162 0.950 . S
H153 C164 0.950 . S
H154 C166 0.950 . S
H155 C167 0.950 . S
C156 H148 0.950 . S
C156 C157 1.386 1_455 S
C156 C158 1.391 . S
C157 C156 1.386 1_655 S
C157 C161 1.393 . S
C158 H150 0.950 . S
C158 C156 1.391 . S
C158 C159 1.400 . S
C159 C158 1.400 . S
C159 C160 1.398 1_455 S
C159 C165 1.491 . S
C160 H151 0.950 . S
C160 C159 1.398 1_655 S
C160 C161 1.391 . S
C161 H149 0.950 . S
C161 C157 1.393 . S
C161 C160 1.391 . S
C162 H152 0.950 . S
C162 C163 1.386 1_655 S
C162 C164 1.391 . S
C163 C162 1.386 1_455 S
C163 C167 1.393 . S
C164 H153 0.950 . S
C164 C162 1.391 . S
C164 C165 1.400 1_655 S
C165 C159 1.491 . S
C165 C164 1.400 1_455 S
C165 C166 1.398 . S
C166 H154 0.950 . S
C166 C165 1.398 . S
C166 C167 1.391 . S
C167 H155 0.950 . S
C167 C163 1.393 . S
C167 C166 1.391 . S
H168 C176 0.950 . S
H169 C181 0.950 . S
H170 C178 0.950 . S
H171 C180 0.950 . S
H172 C182 0.950 . S
H173 C184 0.950 . S
H174 C186 0.950 . S
H175 C187 0.950 . S
C176 H168 0.950 . S
C176 C177 1.386 . S
C176 C178 1.391 . S
C177 C176 1.386 . S
C177 C181 1.393 . S
C178 H170 0.950 . S
C178 C176 1.391 . S
C178 C179 1.400 . S
C179 C178 1.400 . S
C179 C180 1.398 . S
C179 C185 1.491 . S
C180 H171 0.950 . S
C180 C179 1.398 . S
C180 C181 1.391 . S
C181 H169 0.950 . S
C181 C177 1.393 . S
C181 C180 1.391 . S
C182 H172 0.950 . S
C182 C183 1.386 . S
C182 C184 1.391 . S
C183 C182 1.386 . S
C183 C187 1.393 . S
C184 H173 0.950 . S
C184 C182 1.391 . S
C184 C185 1.400 . S
C185 C179 1.491 . S
C185 C184 1.400 . S
C185 C186 1.398 . S
C186 H174 0.950 . S
C186 C185 1.398 . S
C186 C187 1.391 . S
C187 H175 0.950 . S
C187 C183 1.393 . S
C187 C186 1.391 . S
H188 C196 0.941 1_556 S
H189 C201 0.950 . S
H190 C198 0.950 . S
H191 C200 0.950 . S
H192 C202 0.950 . S
H193 C204 0.950 . S
H194 C206 0.950 . S
H195 C207 0.950 . S
C196 H188 0.941 1_554 S
C196 C197 1.386 . S
C196 C198 1.391 . S
C197 C196 1.386 . S
C197 C201 1.393 . S
C198 H190 0.950 . S
C198 C196 1.391 . S
C198 C199 1.400 . S
C199 C198 1.400 . S
C199 C200 1.398 . S
C199 C205 1.491 . S
C200 H191 0.950 . S
C200 C199 1.398 . S
C200 C201 1.391 . S
C201 H189 0.950 . S
C201 C197 1.393 . S
C201 C200 1.391 . S
C202 H192 0.950 . S
C202 C203 1.386 . S
C202 C204 1.391 . S
C203 C202 1.386 . S
C203 C207 1.393 . S
C204 H193 0.950 . S
C204 C202 1.391 . S
C204 C205 1.400 . S
C205 C199 1.491 . S
C205 C204 1.400 . S
C205 C206 1.398 . S
C206 H194 0.950 . S
C206 C205 1.398 . S
C206 C207 1.391 . S
C207 H195 0.950 . S
C207 C203 1.393 . S
C207 C206 1.391 . S
H208 C216 0.950 . S
H209 C221 0.950 . S
H210 C218 0.950 . S
H211 C220 0.950 . S
H212 C222 0.950 . S
H213 C224 0.950 . S
H214 C226 0.950 . S
H215 C227 0.950 . S
C216 H208 0.950 . S
C216 C217 1.386 . S
C216 C218 1.391 . S
C217 C216 1.386 . S
C217 C221 1.393 . S
C218 H210 0.950 . S
C218 C216 1.391 . S
C218 C219 1.400 . S
C219 C218 1.400 . S
C219 C220 1.398 . S
C219 C225 1.491 . S
C220 H211 0.950 . S
C220 C219 1.398 . S
C220 C221 1.391 . S
C221 H209 0.950 . S
C221 C217 1.393 . S
C221 C220 1.391 . S
C222 H212 0.950 . S
C222 C223 1.386 . S
C222 C224 1.391 . S
C223 C222 1.386 . S
C223 C227 1.393 . S
C224 H213 0.950 . S
C224 C222 1.391 . S
C224 C225 1.400 . S
C225 C219 1.491 . S
C225 C224 1.400 . S
C225 C226 1.398 . S
C226 H214 0.950 . S
C226 C225 1.398 . S
C226 C227 1.391 . S
C227 H215 0.950 . S
C227 C223 1.393 . S
C227 C226 1.391 . S
H228 C236 0.950 . S
H229 C241 0.950 . S
H230 C238 0.950 . S
H231 C240 0.950 . S
H232 C242 0.950 . S
H233 C244 0.950 . S
H234 C246 0.950 . S
H235 C247 0.950 . S
C236 H228 0.950 . S
C236 C237 1.386 . S
C236 C238 1.391 . S
C237 C236 1.386 . S
C237 C241 1.393 . S
C238 H230 0.950 . S
C238 C236 1.391 . S
C238 C239 1.400 . S
C239 C238 1.400 . S
C239 C240 1.398 . S
C239 C245 1.491 . S
C240 H231 0.950 . S
C240 C239 1.398 . S
C240 C241 1.391 . S
C241 H229 0.950 . S
C241 C237 1.393 . S
C241 C240 1.391 . S
C242 H232 0.950 . S
C242 C243 1.386 . S
C242 C244 1.391 . S
C243 C242 1.386 . S
C243 C247 1.393 . S
C244 H233 0.950 . S
C244 C242 1.391 . S
C244 C245 1.400 . S
C245 C239 1.491 . S
C245 C244 1.400 . S
C245 C246 1.398 . S
C246 H234 0.950 . S
C246 C245 1.398 . S
C246 C247 1.391 . S
C247 H235 0.950 . S
C247 C243 1.393 . S
C247 C246 1.391 . S
H248 C256 0.950 . S
H249 C261 0.950 . S
H250 C258 0.950 1_455 S
H251 C260 0.950 . S
H252 C262 0.950 . S
H253 C264 0.950 1_655 S
H254 C266 0.950 . S
H255 C267 0.950 . S
C256 H248 0.950 . S
C256 C257 1.386 . S
C256 C258 1.391 . S
C257 C256 1.386 . S
C257 C261 1.393 . S
C258 H250 0.950 1_655 S
C258 C256 1.391 . S
C258 C259 1.400 . S
C259 C258 1.400 . S
C259 C260 1.398 . S
C259 C265 1.491 1_655 S
C260 H251 0.950 . S
C260 C259 1.398 . S
C260 C261 1.391 . S
C261 H249 0.950 . S
C261 C257 1.393 . S
C261 C260 1.391 . S
C262 H252 0.950 . S
C262 C263 1.386 . S
C262 C264 1.391 . S
C263 C262 1.386 . S
C263 C267 1.393 . S
C264 H253 0.950 1_455 S
C264 C262 1.391 . S
C264 C265 1.400 . S
C265 C259 1.491 1_455 S
C265 C264 1.400 . S
C265 C266 1.398 . S
C266 H254 0.950 . S
C266 C265 1.398 . S
C266 C267 1.391 . S
C267 H255 0.950 . S
C267 C263 1.393 . S
C267 C266 1.391 . S
H268 C276 0.950 . S
H269 C281 0.950 . S
H270 C278 0.950 . S
H271 C280 0.950 . S
H272 C282 0.950 . S
H273 C284 0.950 . S
H274 C286 0.950 . S
H275 C287 0.950 . S
C276 H268 0.950 . S
C276 C277 1.386 . S
C276 C278 1.391 . S
C277 C276 1.386 . S
C277 C281 1.393 . S
C278 H270 0.950 . S
C278 C276 1.391 . S
C278 C279 1.400 . S
C279 C278 1.400 . S
C279 C280 1.398 . S
C279 C285 1.491 1_655 S
C280 H271 0.950 . S
C280 C279 1.398 . S
C280 C281 1.391 . S
C281 H269 0.950 . S
C281 C277 1.393 . S
C281 C280 1.391 . S
C282 H272 0.950 . S
C282 C283 1.386 . S
C282 C284 1.391 . S
C283 C282 1.386 . S
C283 C287 1.393 . S
C284 H273 0.950 . S
C284 C282 1.391 . S
C284 C285 1.400 . S
C285 C279 1.491 1_455 S
C285 C284 1.400 . S
C285 C286 1.398 . S
C286 H274 0.950 . S
C286 C285 1.398 . S
C286 C287 1.391 . S
C287 H275 0.950 . S
C287 C283 1.393 . S
C287 C286 1.391 . S
H288 C296 0.950 . S
H289 C301 0.950 . S
H290 C298 0.950 . S
H291 C300 0.950 . S
H292 C302 0.950 . S
H293 C304 0.950 . S
H294 C306 0.950 . S
H295 C307 0.950 1_655 S
C296 H288 0.950 . S
C296 C297 1.386 . S
C296 C298 1.391 . S
C297 C296 1.386 . S
C297 C301 1.393 . S
C298 H290 0.950 . S
C298 C296 1.391 . S
C298 C299 1.400 . S
C299 C298 1.400 . S
C299 C300 1.398 . S
C299 C305 1.491 . S
C300 H291 0.950 . S
C300 C299 1.398 . S
C300 C301 1.391 . S
C301 H289 0.950 . S
C301 C297 1.393 . S
C301 C300 1.391 . S
C302 H292 0.950 . S
C302 C303 1.386 . S
C302 C304 1.391 . S
C303 C302 1.386 . S
C303 C307 1.393 . S
C304 H293 0.950 . S
C304 C302 1.391 . S
C304 C305 1.400 . S
C305 C299 1.491 . S
C305 C304 1.400 . S
C305 C306 1.398 . S
C306 H294 0.950 . S
C306 C305 1.398 . S
C306 C307 1.391 . S
C307 H295 0.950 1_455 S
C307 C303 1.393 . S
C307 C306 1.391 . S
H308 C316 0.950 . S
H309 C321 0.950 1_554 S
H310 C318 0.950 . S
H311 C320 0.950 . S
H312 C322 0.950 . S
H313 C324 0.950 . S
H314 C326 0.950 . S
H315 C327 0.950 1_556 S
C316 H308 0.950 . S
C316 C317 1.386 . S
C316 C318 1.391 . S
C317 C316 1.386 . S
C317 C321 1.393 . S
C318 H310 0.950 . S
C318 C316 1.391 . S
C318 C319 1.400 . S
C319 C318 1.400 . S
C319 C320 1.398 1_556 S
C319 C325 1.491 1_556 S
C320 H311 0.950 . S
C320 C319 1.398 1_554 S
C320 C321 1.391 1_554 S
C321 H309 0.950 1_556 S
C321 C317 1.393 . S
C321 C320 1.391 1_556 S
C322 H312 0.950 . S
C322 C323 1.386 . S
C322 C324 1.391 . S
C323 C322 1.386 . S
C323 C327 1.393 . S
C324 H313 0.950 . S
C324 C322 1.391 . S
C324 C325 1.400 . S
C325 C319 1.491 1_554 S
C325 C324 1.400 . S
C325 C326 1.398 1_554 S
C326 H314 0.950 . S
C326 C325 1.398 1_556 S
C326 C327 1.391 1_556 S
C327 H315 0.950 1_554 S
C327 C323 1.393 . S
C327 C326 1.391 1_554 S
H328 C336 0.950 . S
H329 C341 0.950 . S
H330 C338 0.950 . S
H331 C340 0.950 . S
H332 C342 0.950 . S
H333 C344 0.950 . S
H334 C346 0.950 . S
H335 C347 0.950 1_455 S
C336 H328 0.950 . S
C336 C337 1.386 . S
C336 C338 1.391 . S
C337 C336 1.386 . S
C337 C341 1.393 . S
C338 H330 0.950 . S
C338 C336 1.391 . S
C338 C339 1.400 . S
C339 C338 1.400 . S
C339 C340 1.398 . S
C339 C345 1.491 . S
C340 H331 0.950 . S
C340 C339 1.398 . S
C340 C341 1.391 . S
C341 H329 0.950 . S
C341 C337 1.393 . S
C341 C340 1.391 . S
C342 H332 0.950 . S
C342 C343 1.386 . S
C342 C344 1.391 . S
C343 C342 1.386 . S
C343 C347 1.393 . S
C344 H333 0.950 . S
C344 C342 1.391 . S
C344 C345 1.400 . S
C345 C339 1.491 . S
C345 C344 1.400 . S
C345 C346 1.398 . S
C346 H334 0.950 . S
C346 C345 1.398 . S
C346 C347 1.391 . S
C347 H335 0.950 1_655 S
C347 C343 1.393 . S
C347 C346 1.391 . S
H348 C356 0.950 . S
H349 C361 0.950 . S
H350 C358 0.950 . S
H351 C360 0.950 1_556 S
H352 C362 0.950 . S
H353 C364 0.950 . S
H354 C366 0.950 1_554 S
H355 C367 0.950 . S
C356 H348 0.950 . S
C356 C357 1.386 . S
C356 C358 1.391 . S
C357 C356 1.386 . S
C357 C361 1.393 . S
C358 H350 0.950 . S
C358 C356 1.391 . S
C358 C359 1.400 . S
C359 C358 1.400 . S
C359 C360 1.398 . S
C359 C365 1.491 1_554 S
C360 H351 0.950 1_554 S
C360 C359 1.398 . S
C360 C361 1.391 . S
C361 H349 0.950 . S
C361 C357 1.393 . S
C361 C360 1.391 . S
C362 H352 0.950 . S
C362 C363 1.386 . S
C362 C364 1.391 . S
C363 C362 1.386 . S
C363 C367 1.393 . S
C364 H353 0.950 . S
C364 C362 1.391 . S
C364 C365 1.400 . S
C365 C359 1.491 1_556 S
C365 C364 1.400 . S
C365 C366 1.398 . S
C366 H354 0.950 1_556 S
C366 C365 1.398 . S
C366 C367 1.391 . S
C367 H355 0.950 . S
C367 C363 1.393 . S
C367 C366 1.391 . S
H368 C376 0.950 . S
H369 C381 0.950 . S
H370 C378 0.950 1_556 S
H371 C380 0.950 . S
H372 C382 0.950 . S
H373 C384 0.950 1_554 S
H374 C386 0.950 . S
H375 C387 0.950 . S
C376 H368 0.950 . S
C376 C377 1.386 . S
C376 C378 1.391 . S
C377 C376 1.386 . S
C377 C381 1.393 1_655 S
C378 H370 0.950 1_554 S
C378 C376 1.391 . S
C378 C379 1.400 1_655 S
C379 C378 1.400 1_455 S
C379 C380 1.398 . S
C379 C385 1.491 1_544 S
C380 H371 0.950 . S
C380 C379 1.398 . S
C380 C381 1.391 . S
C381 H369 0.950 . S
C381 C377 1.393 1_455 S
C381 C380 1.391 . S
C382 H372 0.950 . S
C382 C383 1.386 . S
C382 C384 1.391 . S
C383 C382 1.386 . S
C383 C387 1.393 1_455 S
C384 H373 0.950 1_556 S
C384 C382 1.391 . S
C384 C385 1.400 . S
C385 C379 1.491 1_566 S
C385 C384 1.400 . S
C385 C386 1.398 1_455 S
C386 H374 0.950 . S
C386 C385 1.398 1_655 S
C386 C387 1.391 . S
C387 H375 0.950 . S
C387 C383 1.393 1_655 S
C387 C386 1.391 . S
H388 C396 0.950 . S
H389 C401 0.950 . S
H390 C398 0.950 . S
H391 C400 0.950 . S
H392 C402 0.950 . S
H393 C404 0.950 . S
H394 C406 0.950 . S
H395 C407 0.950 . S
C396 H388 0.950 . S
C396 C397 1.386 . S
C396 C398 1.391 . S
C397 C396 1.386 . S
C397 C401 1.393 1_455 S
C398 H390 0.950 . S
C398 C396 1.391 . S
C398 C399 1.400 . S
C399 C398 1.400 . S
C399 C400 1.398 1_455 S
C399 C405 1.491 1_545 S
C400 H391 0.950 . S
C400 C399 1.398 1_655 S
C400 C401 1.391 . S
C401 H389 0.950 . S
C401 C397 1.393 1_655 S
C401 C400 1.391 . S
C402 H392 0.950 . S
C402 C403 1.386 . S
C402 C404 1.391 . S
C403 C402 1.386 . S
C403 C407 1.393 1_655 S
C404 H393 0.950 . S
C404 C402 1.391 . S
C404 C405 1.400 1_655 S
C405 C399 1.491 1_565 S
C405 C404 1.400 1_455 S
C405 C406 1.398 . S
C406 H394 0.950 . S
C406 C405 1.398 . S
C406 C407 1.391 . S
C407 H395 0.950 . S
C407 C403 1.393 1_455 S
C407 C406 1.391 . S
H408 C416 0.950 . S
H409 C421 0.950 1_556 S
H410 C418 0.950 . S
H411 C420 0.950 . S
H412 C422 0.950 . S
H413 C424 0.950 . S
H414 C426 0.950 . S
H415 C427 0.950 1_554 S
C416 H408 0.950 . S
C416 C417 1.386 . S
C416 C418 1.391 . S
C417 C416 1.386 . S
C417 C421 1.393 . S
C418 H410 0.950 . S
C418 C416 1.391 . S
C418 C419 1.400 . S
C419 C418 1.400 . S
C419 C420 1.398 1_554 S
C419 C425 1.491 1_554 S
C420 H411 0.950 . S
C420 C419 1.398 1_556 S
C420 C421 1.391 1_556 S
C421 H409 0.950 1_554 S
C421 C417 1.393 . S
C421 C420 1.391 1_554 S
C422 H412 0.950 . S
C422 C423 1.386 . S
C422 C424 1.391 . S
C423 C422 1.386 . S
C423 C427 1.393 . S
C424 H413 0.950 . S
C424 C422 1.391 . S
C424 C425 1.400 . S
C425 C419 1.491 1_556 S
C425 C424 1.400 . S
C425 C426 1.398 1_556 S
C426 H414 0.950 . S
C426 C425 1.398 1_554 S
C426 C427 1.391 1_554 S
C427 H415 0.950 1_556 S
C427 C423 1.393 . S
C427 C426 1.391 1_556 S
H428 C436 0.950 . S
H429 C441 0.950 . S
H430 C438 0.950 . S
H431 C440 0.950 . S
H432 C442 0.950 . S
H433 C444 0.950 . S
H434 C446 0.950 . S
H435 C447 0.950 . S
C436 H428 0.950 . S
C436 C437 1.386 . S
C436 C438 1.391 . S
C437 C436 1.386 . S
C437 C441 1.393 . S
C438 H430 0.950 . S
C438 C436 1.391 . S
C438 C439 1.400 . S
C439 C438 1.400 . S
C439 C440 1.398 . S
C439 C445 1.491 . S
C440 H431 0.950 . S
C440 C439 1.398 . S
C440 C441 1.391 . S
C441 H429 0.950 . S
C441 C437 1.393 . S
C441 C440 1.391 . S
C442 H432 0.950 . S
C442 C443 1.386 . S
C442 C444 1.391 . S
C443 C442 1.386 . S
C443 C447 1.393 . S
C444 H433 0.950 . S
C444 C442 1.391 . S
C444 C445 1.400 . S
C445 C439 1.491 . S
C445 C444 1.400 . S
C445 C446 1.398 . S
C446 H434 0.950 . S
C446 C445 1.398 . S
C446 C447 1.391 . S
C447 H435 0.950 . S
C447 C443 1.393 . S
C447 C446 1.391 . S
C137 C20 1.534 1_556 S
C143 C16 1.534 . S
C157 C52 1.524 . S
C163 C48 1.524 1_554 S
C177 C84 1.535 1_556 S
C183 C80 1.535 . S
C197 C112 1.533 1_554 S
C203 C116 1.533 . S
C217 C19 0.645 . S
C223 C23 0.645 . S
C237 C51 0.616 . S
C243 C55 0.616 . S
C257 C87 0.605 . S
C263 C83 0.605 . S
C277 C119 0.616 . S
C283 C115 0.616 . S
C297 C114 1.852 . S
C303 C22 1.853 . S
C317 C117 2.084 . S
C323 C17 2.084 . S
C337 C86 1.855 . S
C343 C50 1.855 . S
C357 C81 2.092 . S
C363 C53 2.092 . S
C377 C18 1.871 . S
C383 C54 1.871 . S
C397 C21 1.747 . S
C403 C49 1.747 . S
C417 C82 1.887 . S
C423 C118 1.887 . S
C437 C113 1.749 . S
C443 C85 1.749 . S
