# Generated by pormake.
# Topology crs, (6)-cn, num edge types: 1
# Building blocks:
#     Node 0, Type 0, BuildingBlock: JUFBIX_clean_sbu_0, # of connection points: 6
#     Node 1, Type 0, BuildingBlock: JUFBIX_clean_sbu_0, # of connection points: 6
#     Node 2, Type 0, BuildingBlock: JUFBIX_clean_sbu_0, # of connection points: 6
#     Node 3, Type 0, BuildingBlock: JUFBIX_clean_sbu_0, # of connection points: 6
#     Node 4, Type 0, BuildingBlock: JUFBIX_clean_sbu_0, # of connection points: 6
#     Node 5, Type 0, BuildingBlock: JUFBIX_clean_sbu_0, # of connection points: 6
#     Node 6, Type 0, BuildingBlock: JUFBIX_clean_sbu_0, # of connection points: 6
#     Node 7, Type 0, BuildingBlock: JUFBIX_clean_sbu_0, # of connection points: 6
#     Node 8, Type 0, BuildingBlock: JUFBIX_clean_sbu_0, # of connection points: 6
#     Node 9, Type 0, BuildingBlock: JUFBIX_clean_sbu_0, # of connection points: 6
#     Node 10, Type 0, BuildingBlock: JUFBIX_clean_sbu_0, # of connection points: 6
#     Node 11, Type 0, BuildingBlock: JUFBIX_clean_sbu_0, # of connection points: 6
#     Node 12, Type 0, BuildingBlock: JUFBIX_clean_sbu_0, # of connection points: 6
#     Node 13, Type 0, BuildingBlock: JUFBIX_clean_sbu_0, # of connection points: 6
#     Node 14, Type 0, BuildingBlock: JUFBIX_clean_sbu_0, # of connection points: 6
#     Node 15, Type 0, BuildingBlock: JUFBIX_clean_sbu_0, # of connection points: 6
#     Edge 16, Type (0, 0), BuildingBlock: OJICUG_clean_linker_0, # of connection points: 2
#     Edge 17, Type (0, 0), BuildingBlock: OJICUG_clean_linker_0, # of connection points: 2
#     Edge 18, Type (0, 0), BuildingBlock: OJICUG_clean_linker_0, # of connection points: 2
#     Edge 19, Type (0, 0), BuildingBlock: OJICUG_clean_linker_0, # of connection points: 2
#     Edge 20, Type (0, 0), BuildingBlock: OJICUG_clean_linker_0, # of connection points: 2
#     Edge 21, Type (0, 0), BuildingBlock: OJICUG_clean_linker_0, # of connection points: 2
#     Edge 22, Type (0, 0), BuildingBlock: OJICUG_clean_linker_0, # of connection points: 2
#     Edge 23, Type (0, 0), BuildingBlock: OJICUG_clean_linker_0, # of connection points: 2
#     Edge 24, Type (0, 0), BuildingBlock: OJICUG_clean_linker_0, # of connection points: 2
#     Edge 25, Type (0, 0), BuildingBlock: OJICUG_clean_linker_0, # of connection points: 2
#     Edge 26, Type (0, 0), BuildingBlock: OJICUG_clean_linker_0, # of connection points: 2
#     Edge 27, Type (0, 0), BuildingBlock: OJICUG_clean_linker_0, # of connection points: 2
#     Edge 28, Type (0, 0), BuildingBlock: OJICUG_clean_linker_0, # of connection points: 2
#     Edge 29, Type (0, 0), BuildingBlock: OJICUG_clean_linker_0, # of connection points: 2
#     Edge 30, Type (0, 0), BuildingBlock: OJICUG_clean_linker_0, # of connection points: 2
#     Edge 31, Type (0, 0), BuildingBlock: OJICUG_clean_linker_0, # of connection points: 2
#     Edge 32, Type (0, 0), BuildingBlock: OJICUG_clean_linker_0, # of connection points: 2
#     Edge 33, Type (0, 0), BuildingBlock: OJICUG_clean_linker_0, # of connection points: 2
#     Edge 34, Type (0, 0), BuildingBlock: OJICUG_clean_linker_0, # of connection points: 2
#     Edge 35, Type (0, 0), BuildingBlock: OJICUG_clean_linker_0, # of connection points: 2
#     Edge 36, Type (0, 0), BuildingBlock: OJICUG_clean_linker_0, # of connection points: 2
#     Edge 37, Type (0, 0), BuildingBlock: OJICUG_clean_linker_0, # of connection points: 2
#     Edge 38, Type (0, 0), BuildingBlock: OJICUG_clean_linker_0, # of connection points: 2
#     Edge 39, Type (0, 0), BuildingBlock: OJICUG_clean_linker_0, # of connection points: 2
#     Edge 40, Type (0, 0), BuildingBlock: OJICUG_clean_linker_0, # of connection points: 2
#     Edge 41, Type (0, 0), BuildingBlock: OJICUG_clean_linker_0, # of connection points: 2
#     Edge 42, Type (0, 0), BuildingBlock: OJICUG_clean_linker_0, # of connection points: 2
#     Edge 43, Type (0, 0), BuildingBlock: OJICUG_clean_linker_0, # of connection points: 2
#     Edge 44, Type (0, 0), BuildingBlock: OJICUG_clean_linker_0, # of connection points: 2
#     Edge 45, Type (0, 0), BuildingBlock: OJICUG_clean_linker_0, # of connection points: 2
#     Edge 46, Type (0, 0), BuildingBlock: OJICUG_clean_linker_0, # of connection points: 2
#     Edge 47, Type (0, 0), BuildingBlock: OJICUG_clean_linker_0, # of connection points: 2
#     Edge 48, Type (0, 0), BuildingBlock: OJICUG_clean_linker_0, # of connection points: 2
#     Edge 49, Type (0, 0), BuildingBlock: OJICUG_clean_linker_0, # of connection points: 2
#     Edge 50, Type (0, 0), BuildingBlock: OJICUG_clean_linker_0, # of connection points: 2
#     Edge 51, Type (0, 0), BuildingBlock: OJICUG_clean_linker_0, # of connection points: 2
#     Edge 52, Type (0, 0), BuildingBlock: OJICUG_clean_linker_0, # of connection points: 2
#     Edge 53, Type (0, 0), BuildingBlock: OJICUG_clean_linker_0, # of connection points: 2
#     Edge 54, Type (0, 0), BuildingBlock: OJICUG_clean_linker_0, # of connection points: 2
#     Edge 55, Type (0, 0), BuildingBlock: OJICUG_clean_linker_0, # of connection points: 2
#     Edge 56, Type (0, 0), BuildingBlock: OJICUG_clean_linker_0, # of connection points: 2
#     Edge 57, Type (0, 0), BuildingBlock: OJICUG_clean_linker_0, # of connection points: 2
#     Edge 58, Type (0, 0), BuildingBlock: OJICUG_clean_linker_0, # of connection points: 2
#     Edge 59, Type (0, 0), BuildingBlock: OJICUG_clean_linker_0, # of connection points: 2
#     Edge 60, Type (0, 0), BuildingBlock: OJICUG_clean_linker_0, # of connection points: 2
#     Edge 61, Type (0, 0), BuildingBlock: OJICUG_clean_linker_0, # of connection points: 2
#     Edge 62, Type (0, 0), BuildingBlock: OJICUG_clean_linker_0, # of connection points: 2
#     Edge 63, Type (0, 0), BuildingBlock: OJICUG_clean_linker_0, # of connection points: 2
# Relax obj value: 0.765
# Max RMSD: 0.366
# Mean RMSD: 0.298
data_MOF--net-crs--node1-JUFBIX_clean_sbu_0--edge1-OJICUG_clean_linker_0
_symmetry_space_group_name_H-M    P1
_symmetry_Int_Tables_number       1
_symmetry_cell_setting            triclinic
loop_
_symmetry_equiv_pos_as_xyz
'x, y, z'
_cell_length_a     29.650183
_cell_length_b     30.901146
_cell_length_c     39.66804
_cell_angle_alpha  105.69311
_cell_angle_beta   89.958055
_cell_angle_gamma 90.166695
loop_
_atom_site_label
_atom_site_type_symbol
_atom_site_fract_x
_atom_site_fract_y
_atom_site_fract_z
_atom_type_partial_charge
Co0 Co 0.97102 0.00356 0.97289 0.0
C1 C 0.98915 0.03954 0.04297 0.0
Co2 Co 0.02093 0.96428 -0.00688 0.0
C3 C 0.90032 0.02446 0.93078 0.0
C4 C 0.93494 0.08353 0.96008 0.0
N5 N 0.93276 0.03857 0.95498 0.0
N6 N 0.88272 0.05865 0.92009 0.0
C7 C 0.90438 0.09595 0.93835 0.0
H8 H 0.89186 -0.0106 0.91952 0.0
H9 H 0.95875 0.10551 0.97723 0.0
C10 C 0.00256 0.9282 0.92304 0.0
N11 N 0.05941 0.92959 0.01112 0.0
C12 C 0.092 0.94442 0.03507 0.0
C13 C 0.0576 0.88473 0.00663 0.0
N14 N 0.11007 0.91082 0.04624 0.0
C15 C 0.08855 0.87312 0.02851 0.0
C16 C 0.93057 0.93817 -0.00377 0.0
O17 O 0.97618 0.96165 0.92793 0.0
O18 O 0.02645 0.92312 0.94819 0.0
O19 O 0.97121 0.93075 0.00309 0.0
O20 O 0.92195 0.97019 -0.01714 0.0
O21 O 0.01563 0.00619 0.03815 0.0
H22 H 0.03378 0.86232 -0.01015 0.0
H23 H 0.10017 0.97963 0.0459 0.0
O24 O 0.9655 0.04464 0.01773 0.0
O25 O 0.02068 0.03695 0.96286 0.0
O26 O 0.07004 -0.00218 -0.0168 0.0
C27 C 0.06132 0.02976 0.96979 0.0
H28 H 0.89957 0.12939 0.93527 0.0
H29 H 0.09363 0.83999 0.03213 0.0
Co30 Co 0.01803 0.25449 0.22235 0.0
C31 C 0.92757 0.27917 0.21944 0.0
Co32 Co 0.96933 0.21443 0.24305 0.0
C33 C 0.08867 0.2753 0.1803 0.0
C34 C 0.05361 0.33443 0.20862 0.0
N35 N 0.05593 0.28961 0.20416 0.0
N36 N 0.10634 0.30918 0.16916 0.0
C37 C 0.08441 0.34653 0.18681 0.0
H38 H 0.09726 0.24023 0.16955 0.0
H39 H 0.02957 0.35647 0.22537 0.0
C40 C 0.05978 0.18963 0.2458 0.0
N41 N 0.93139 0.17941 0.26134 0.0
C42 C 0.89889 0.194 0.28535 0.0
C43 C 0.93349 0.13461 0.25698 0.0
N44 N 0.88112 0.16031 0.29668 0.0
C45 C 0.90278 0.12279 0.27901 0.0
C46 C 0.98723 0.17824 0.17296 0.0
O47 O 0.06779 0.22216 0.23279 0.0
O48 O 0.01931 0.18133 0.25258 0.0
O49 O 0.96335 0.17322 0.19818 0.0
O50 O 0.01346 0.21191 0.17767 0.0
O51 O 0.91973 0.24761 0.23353 0.0
H52 H 0.95732 0.11238 0.24016 0.0
H53 H 0.89053 0.22914 0.29607 0.0
O54 O 0.96792 0.2867 0.2118 0.0
O55 O 0.02277 0.29642 0.26685 0.0
O56 O 0.97519 0.25626 0.28809 0.0
C57 C 0.00018 0.29083 0.29252 0.0
H58 H 0.08913 0.37974 0.18319 0.0
H59 H 0.8979 0.08965 0.28272 0.0
Co60 Co 0.76922 0.21601 0.49398 0.0
C61 C 0.78029 0.20195 0.42338 0.0
Co62 Co 0.71819 0.25129 0.47099 0.0
C63 C 0.80223 0.16462 0.53832 0.0
C64 C 0.85674 0.18849 0.51281 0.0
N65 N 0.81134 0.18795 0.51495 0.0
N66 N 0.83996 0.15074 0.55111 0.0
C67 C 0.87451 0.16576 0.53524 0.0
H68 H 0.76842 0.15945 0.54682 0.0
H69 H 0.87565 0.20518 0.49661 0.0
C70 C 0.7071 0.26541 0.54158 0.0
N71 N 0.67602 0.27933 0.45003 0.0
C72 C 0.68497 0.30263 0.42661 0.0
C73 C 0.63063 0.27877 0.4523 0.0
N74 N 0.64714 0.31647 0.41391 0.0
C75 C 0.61271 0.30146 0.4299 0.0
C76 C 0.69299 0.16505 0.4717 0.0
O77 O 0.74138 0.24007 0.53795 0.0
O78 O 0.69074 0.2752 0.515 0.0
O79 O 0.68066 0.19985 0.46298 0.0
O80 O 0.73131 0.16476 0.48588 0.0
O81 O 0.746 0.22729 0.42706 0.0
H82 H 0.61183 0.26211 0.46858 0.0
H83 H 0.71874 0.30784 0.41803 0.0
O84 O 0.79669 0.19208 0.44992 0.0
O85 O 0.80678 0.26743 0.50198 0.0
O86 O 0.75609 0.30254 0.47913 0.0
C87 C 0.79442 0.30224 0.4933 0.0
H88 H 0.90992 0.16093 0.53969 0.0
H89 H 0.57726 0.3063 0.42558 0.0
Co90 Co 0.71857 0.96996 0.7466 0.0
C91 C 0.69171 0.05557 0.74555 0.0
Co92 Co 0.76893 0.00637 0.72375 0.0
C93 C 0.68699 0.92215 0.79399 0.0
C94 C 0.63215 0.93881 0.76487 0.0
N95 N 0.67739 0.94147 0.76824 0.0
N96 N 0.64965 0.90814 0.80742 0.0
C97 C 0.61496 0.91819 0.78893 0.0
H98 H 0.72095 0.91911 0.80302 0.0
H99 H 0.61287 0.9523 0.74692 0.0
C100 C 0.79585 0.9208 0.72468 0.0
N101 N 0.8102 0.03489 0.70222 0.0
C102 C 0.80093 0.05373 0.67614 0.0
C103 C 0.85533 0.03831 0.70626 0.0
N104 N 0.83839 0.06818 0.66318 0.0
C105 C 0.8728 0.05891 0.68229 0.0
C106 C 0.78049 0.02105 0.79414 0.0
O107 O 0.7575 0.91955 0.7387 0.0
O108 O 0.8075 0.9559 0.71601 0.0
O109 O 0.79661 0.03143 0.76769 0.0
O110 O 0.74653 -0.00486 0.7903 0.0
O111 O 0.73008 0.05673 0.73156 0.0
H112 H 0.87438 0.0254 0.72467 0.0
H113 H 0.76713 0.05619 0.66657 0.0
O114 O 0.68 0.02055 0.75434 0.0
O115 O 0.69092 0.94487 0.70283 0.0
O116 O 0.74085 0.98101 0.67991 0.0
C117 C 0.70696 0.95496 0.67626 0.0
H118 H 0.57964 0.91264 0.79331 0.0
H119 H 0.90814 0.06503 0.67841 0.0
Co120 Co 0.51948 0.75439 0.22342 0.0
C121 C 0.43013 0.78288 0.22112 0.0
Co122 Co 0.46865 0.71499 0.24285 0.0
C123 C 0.59134 0.77362 0.18169 0.0
C124 C 0.55919 0.83377 0.21148 0.0
N125 N 0.55926 0.78872 0.20599 0.0
N126 N 0.61076 0.80728 0.17126 0.0
C127 C 0.59067 0.84527 0.18985 0.0
H128 H 0.59818 0.73831 0.17012 0.0
H129 H 0.5362 0.85648 0.2288 0.0
C130 C 0.558 0.68648 0.24504 0.0
N131 N 0.42886 0.68073 0.26032 0.0
C132 C 0.39664 0.69596 0.28448 0.0
C133 C 0.42905 0.63573 0.25514 0.0
N134 N 0.37725 0.66245 0.29511 0.0
C135 C 0.39751 0.6244 0.27681 0.0
C136 C 0.48586 0.68064 0.17258 0.0
O137 O 0.56738 0.71912 0.23251 0.0
O138 O 0.51718 0.67958 0.25194 0.0
O139 O 0.46193 0.6751 0.19759 0.0
O140 O 0.51307 0.71364 0.17798 0.0
O141 O 0.42074 0.75033 0.23375 0.0
H142 H 0.45217 0.61294 0.23801 0.0
H143 H 0.38967 0.7313 0.29582 0.0
O144 O 0.47096 0.78976 0.21425 0.0
O145 O 0.52613 0.79434 0.26872 0.0
O146 O 0.47509 0.75565 0.28826 0.0
C147 C 0.50223 0.78869 0.29371 0.0
H148 H 0.59706 0.87861 0.187 0.0
H149 H 0.39117 0.59116 0.27988 0.0
Co150 Co 0.26693 0.71705 0.49282 0.0
C151 C 0.27735 0.70423 0.42231 0.0
Co152 Co 0.21648 0.75414 0.47089 0.0
C153 C 0.29911 0.66393 0.53624 0.0
C154 C 0.35387 0.68681 0.51034 0.0
N155 N 0.3085 0.68741 0.51301 0.0
N156 N 0.33666 0.64891 0.54847 0.0
C157 C 0.37134 0.66328 0.53233 0.0
H158 H 0.26529 0.65949 0.54508 0.0
H159 H 0.37299 0.70329 0.49411 0.0
C160 C 0.20608 0.76691 0.5414 0.0
N161 N 0.17495 0.78377 0.4507 0.0
C162 C 0.18457 0.80744 0.42765 0.0
C163 C 0.12955 0.78414 0.45302 0.0
N164 N 0.14716 0.82236 0.4152 0.0
C165 C 0.11229 0.80772 0.43099 0.0
C166 C 0.18939 0.66806 0.47065 0.0
O167 O 0.23984 0.74083 0.53709 0.0
O168 O 0.18973 0.77781 0.51527 0.0
O169 O 0.17768 0.70346 0.46254 0.0
O170 O 0.22785 0.66662 0.48434 0.0
O171 O 0.2436 0.73034 0.42658 0.0
H172 H 0.11027 0.76743 0.469 0.0
H173 H 0.21849 0.81203 0.41905 0.0
O174 O 0.29366 0.69338 0.44846 0.0
O175 O 0.30569 0.76772 0.5012 0.0
O176 O 0.25558 0.80462 0.47939 0.0
C177 C 0.294 0.80317 0.49314 0.0
H178 H 0.40669 0.6575 0.53631 0.0
H179 H 0.07699 0.81331 0.4267 0.0
Co180 Co 0.21628 0.46555 0.74288 0.0
C181 C 0.18902 0.55095 0.74167 0.0
Co182 Co 0.26663 0.50213 0.72014 0.0
C183 C 0.18443 0.41806 0.7904 0.0
C184 C 0.12994 0.4333 0.76027 0.0
N185 N 0.17507 0.43688 0.76433 0.0
N186 N 0.14704 0.40346 0.80335 0.0
C187 C 0.11257 0.41261 0.78423 0.0
H188 H 0.21825 0.4157 0.79997 0.0
H189 H 0.11084 0.44615 0.74186 0.0
C190 C 0.29379 0.41662 0.72132 0.0
N191 N 0.30777 0.53081 0.69858 0.0
C192 C 0.2982 0.55013 0.67282 0.0
C193 C 0.35298 0.5338 0.70216 0.0
N194 N 0.33552 0.56452 0.65962 0.0
C195 C 0.37017 0.55465 0.67824 0.0
C196 C 0.27785 0.5173 0.79057 0.0
O197 O 0.25538 0.41533 0.73523 0.0
O198 O 0.3054 0.4517 0.71257 0.0
O199 O 0.29402 0.52743 0.76404 0.0
O200 O 0.24406 0.49112 0.78678 0.0
O201 O 0.22748 0.55234 0.72785 0.0
H202 H 0.37224 0.52045 0.7202 0.0
H203 H 0.26427 0.55297 0.66365 0.0
O204 O 0.17745 0.51586 0.7504 0.0
O205 O 0.18891 0.44028 0.69889 0.0
O206 O 0.23892 0.47674 0.67636 0.0
C207 C 0.20508 0.45066 0.67247 0.0
H208 H 0.07727 0.40636 0.78809 0.0
H209 H 0.40547 0.56053 0.67407 0.0
Co210 Co 0.96616 0.50564 0.4715 0.0
C211 C 0.98342 0.54243 0.54175 0.0
Co212 Co 0.01522 0.46657 0.49273 0.0
C213 C 0.89561 0.52473 0.42881 0.0
C214 C 0.92957 0.58476 0.45712 0.0
N215 N 0.92794 0.53996 0.45291 0.0
N216 N 0.87752 0.55802 0.41728 0.0
C217 C 0.89878 0.59593 0.43492 0.0
H218 H 0.88762 0.48944 0.41819 0.0
H219 H 0.95314 0.60744 0.47396 0.0
C220 C -0.00179 0.42989 0.42256 0.0
N221 N 0.05317 0.43192 0.51122 0.0
C222 C 0.08563 0.44622 0.53538 0.0
C223 C 0.05083 0.38703 0.5065 0.0
N224 N 0.10309 0.41221 0.54639 0.0
C225 C 0.08132 0.37485 0.52838 0.0
C226 C 0.92502 0.44057 0.49523 0.0
O227 O 0.97273 0.46384 0.4265 0.0
O228 O 0.02036 0.42443 0.44838 0.0
O229 O 0.96537 0.43397 0.50325 0.0
O230 O 0.91686 0.47169 0.48079 0.0
O231 O 0.01019 0.50934 0.53723 0.0
H232 H 0.02699 0.36495 0.48946 0.0
H233 H 0.09422 0.4813 0.54636 0.0
O234 O 0.95953 0.54686 0.51638 0.0
O235 O 0.01589 0.53942 0.46219 0.0
O236 O 0.06474 0.49939 0.48223 0.0
C237 C 0.05644 0.53166 0.46902 0.0
H238 H 0.89358 0.62893 0.43107 0.0
H239 H 0.08602 0.34152 0.53172 0.0
Co240 Co 0.26822 0.21893 -0.00572 0.0
C241 C 0.2787 0.20522 0.92369 0.0
Co242 Co 0.21714 0.25465 0.9717 0.0
C243 C 0.30171 0.16693 0.03808 0.0
C244 C 0.35587 0.19106 0.01238 0.0
N245 N 0.31049 0.19052 0.01483 0.0
N246 N 0.33964 0.1529 0.05051 0.0
C247 C 0.37395 0.16808 0.03452 0.0
H248 H 0.26801 0.16165 0.04676 0.0
H249 H 0.37455 0.20791 -0.00383 0.0
C250 C 0.20667 0.26828 0.04231 0.0
N251 N 0.17493 0.28309 0.95111 0.0
C252 C 0.18389 0.30657 0.92782 0.0
C253 C 0.12954 0.2826 0.95343 0.0
N254 N 0.14607 0.32058 0.91523 0.0
C255 C 0.11163 0.3055 0.93116 0.0
C256 C 0.19171 0.16839 0.97212 0.0
O257 O 0.24085 0.24278 0.03838 0.0
O258 O 0.1901 0.27839 0.01592 0.0
O259 O 0.17938 0.20337 0.96367 0.0
O260 O 0.23011 0.16785 -0.01388 0.0
O261 O 0.24456 0.23076 0.92755 0.0
H262 H 0.11073 0.26579 0.9696 0.0
H263 H 0.21765 0.31174 0.91919 0.0
O264 O 0.29521 0.19519 0.95012 0.0
O265 O 0.30597 0.27017 0.00228 0.0
O266 O 0.25528 0.30575 0.97985 0.0
C267 C 0.2937 0.30514 -0.0062 0.0
H268 H 0.40943 0.16316 0.03867 0.0
H269 H 0.07619 0.31038 0.92685 0.0
Co270 Co 0.22066 0.96845 0.24385 0.0
C271 C 0.19321 0.05386 0.24289 0.0
Co272 Co 0.27102 0.00535 0.22143 0.0
C273 C 0.1883 0.92048 0.29101 0.0
C274 C 0.13422 0.9361 0.26069 0.0
N275 N 0.17932 0.9395 0.26498 0.0
N276 N 0.15067 0.90592 0.3037 0.0
C277 C 0.11648 0.91534 0.28446 0.0
H278 H 0.222 0.91799 0.30075 0.0
H279 H 0.11537 0.94918 0.24228 0.0
C280 C 0.29849 0.92 0.22258 0.0
N281 N 0.31219 0.0344 0.20024 0.0
C282 C 0.30261 0.05361 0.17444 0.0
C283 C 0.35733 0.03802 0.20418 0.0
N284 N 0.33986 0.06849 0.16152 0.0
C285 C 0.37448 0.05912 0.18039 0.0
C286 C 0.2818 0.01998 0.29185 0.0
O287 O 0.25993 0.91846 0.2362 0.0
O288 O 0.31009 0.95516 0.21395 0.0
O289 O 0.29802 0.03052 0.26551 0.0
O290 O 0.24804 -0.00624 0.28783 0.0
O291 O 0.23165 0.05543 0.2291 0.0
H292 H 0.37659 0.02493 0.22237 0.0
H293 H 0.26873 0.05604 0.16502 0.0
O294 O 0.18172 0.01862 0.25142 0.0
O295 O 0.19368 0.94326 0.19977 0.0
O296 O 0.24368 0.97989 0.17739 0.0
C297 C 0.21002 0.95355 0.17337 0.0
H298 H 0.08109 0.90924 0.28811 0.0
H299 H 0.40974 0.06551 0.17648 0.0
Co300 Co 0.51677 0.25561 0.72199 0.0
C301 C 0.42688 0.28082 0.7195 0.0
Co302 Co 0.4687 0.21599 0.74358 0.0
C303 C 0.58736 0.27491 0.67935 0.0
C304 C 0.55372 0.33487 0.70781 0.0
N305 N 0.55503 0.29002 0.70342 0.0
N306 N 0.6058 0.30831 0.66805 0.0
C307 C 0.58474 0.34619 0.68576 0.0
H308 H 0.59518 0.23964 0.66864 0.0
H309 H 0.5303 0.3575 0.72474 0.0
C310 C 0.55862 0.1909 0.74618 0.0
N311 N 0.43052 0.18149 0.76213 0.0
C312 C 0.39757 0.19623 0.78572 0.0
C313 C 0.43263 0.13675 0.75809 0.0
N314 N 0.37954 0.16269 0.79709 0.0
C315 C 0.40147 0.12512 0.77986 0.0
C316 C 0.4856 0.17896 0.67336 0.0
O317 O 0.5661 0.22132 0.73082 0.0
O318 O 0.51856 0.18446 0.75511 0.0
O319 O 0.46481 0.17292 0.69965 0.0
O320 O 0.50928 0.21423 0.67681 0.0
O321 O 0.41887 0.24789 0.7321 0.0
H322 H 0.45673 0.11444 0.74164 0.0
H323 H 0.38905 0.23139 0.7961 0.0
O324 O 0.46737 0.28956 0.7132 0.0
O325 O 0.52407 0.2966 0.76697 0.0
O326 O 0.47271 0.25948 0.78774 0.0
C327 C 0.49972 0.2925 0.79225 0.0
H328 H 0.59029 0.37927 0.68211 0.0
H329 H 0.3965 0.09208 0.78374 0.0
Co330 Co 0.01719 0.75512 0.72228 0.0
C331 C 0.9274 0.78284 0.72061 0.0
Co332 Co 0.96711 0.71571 0.74243 0.0
C333 C 0.08814 0.7745 0.67984 0.0
C334 C 0.05535 0.8345 0.7092 0.0
N335 N 0.05614 0.78953 0.70422 0.0
N336 N 0.10681 0.80809 0.66889 0.0
C337 C 0.08631 0.84599 0.6872 0.0
H338 H 0.09546 0.73921 0.66861 0.0
H339 H 0.03222 0.85712 0.72645 0.0
C340 C 0.0569 0.688 0.74416 0.0
N341 N 0.92809 0.68136 0.76049 0.0
C342 C 0.89612 0.69651 0.78487 0.0
C343 C 0.92865 0.63639 0.75544 0.0
N344 N 0.87723 0.66297 0.79577 0.0
C345 C 0.89757 0.62499 0.77741 0.0
C346 C 0.98366 0.68071 0.67208 0.0
O347 O 0.06576 0.72041 0.73123 0.0
O348 O 0.01626 0.68097 0.75145 0.0
O349 O 0.96016 0.67525 0.69735 0.0
O350 O 0.0105 0.71396 0.6771 0.0
O351 O 0.91856 0.75038 0.73347 0.0
H352 H 0.95168 0.61368 0.73816 0.0
H353 H 0.88897 0.73182 0.79614 0.0
O354 O 0.96803 0.78989 0.71331 0.0
O355 O 0.02419 0.79553 0.76731 0.0
O356 O 0.97379 0.75696 0.78763 0.0
C357 C 0.0007 0.79015 0.7926 0.0
H358 H 0.09211 0.87922 0.68393 0.0
H359 H 0.89158 0.59176 0.78061 0.0
Co360 Co 0.71623 0.46266 0.24209 0.0
C361 C 0.68904 0.54822 0.24141 0.0
Co362 Co 0.76662 0.49953 0.21966 0.0
C363 C 0.68467 0.4145 0.28921 0.0
C364 C 0.62994 0.43017 0.25951 0.0
N365 N 0.67509 0.43366 0.26337 0.0
N366 N 0.6474 0.39979 0.30223 0.0
C367 C 0.61277 0.40921 0.28338 0.0
H368 H 0.71856 0.41202 0.29859 0.0
H369 H 0.61067 0.4433 0.24134 0.0
C370 C 0.79384 0.41397 0.22038 0.0
N371 N 0.80787 0.52843 0.19841 0.0
C372 C 0.79864 0.54776 0.1726 0.0
C373 C 0.85304 0.53139 0.20226 0.0
N374 N 0.83616 0.56209 0.15961 0.0
C375 C 0.87057 0.5522 0.17844 0.0
C376 C 0.77768 0.51416 0.29002 0.0
O377 O 0.7554 0.41247 0.23418 0.0
O378 O 0.80542 0.44919 0.21186 0.0
O379 O 0.7939 0.5245 0.26361 0.0
O380 O 0.74395 0.4879 0.28608 0.0
O381 O 0.72749 0.54969 0.22761 0.0
H382 H 0.87207 0.51797 0.22038 0.0
H383 H 0.76482 0.5506 0.16321 0.0
O384 O 0.67738 0.51298 0.24989 0.0
O385 O 0.68885 0.43776 0.19802 0.0
O386 O 0.73896 0.4745 0.1758 0.0
C387 C 0.70506 0.44847 0.17173 0.0
H388 H 0.5775 0.40299 0.28739 0.0
H389 H 0.90595 0.558 0.17446 0.0
Co390 Co 0.76934 0.7165 -0.00578 0.0
C391 C 0.7789 0.70447 0.9237 0.0
Co392 Co 0.71902 0.75451 0.97302 0.0
C393 C 0.80123 0.66211 0.03667 0.0
C394 C 0.85612 0.68494 0.01086 0.0
N395 N 0.81077 0.68593 0.01371 0.0
N396 N 0.83868 0.64653 0.04859 0.0
C397 C 0.87345 0.66087 0.03251 0.0
H398 H 0.76741 0.6579 0.04562 0.0
H399 H 0.87533 0.7016 -0.0052 0.0
C400 C 0.70947 0.76649 0.04355 0.0
N401 N 0.6775 0.78503 0.95359 0.0
C402 C 0.68671 0.80865 0.93043 0.0
C403 C 0.63218 0.78613 0.95679 0.0
N404 N 0.64908 0.8242 0.91873 0.0
C405 C 0.61454 0.81007 0.93517 0.0
C406 C 0.69112 0.66862 0.97217 0.0
O407 O 0.74295 0.74003 0.03882 0.0
O408 O 0.69299 0.77789 0.01769 0.0
O409 O 0.67969 0.70439 0.96453 0.0
O410 O 0.72964 0.66654 -0.01441 0.0
O411 O 0.74544 0.73097 0.92841 0.0
H412 H 0.6132 0.76966 0.9731 0.0
H413 H 0.72041 0.81275 0.92121 0.0
O414 O 0.79536 0.69309 0.94958 0.0
O415 O 0.80874 0.76668 0.00267 0.0
O416 O 0.75865 0.80442 0.98161 0.0
C417 C 0.79722 0.8024 -0.00504 0.0
H418 H 0.90875 0.65475 0.03636 0.0
H419 H 0.57918 0.81624 0.93159 0.0
Co420 Co 0.47075 0.00346 0.47221 0.0
C421 C 0.48675 0.04098 0.54259 0.0
Co422 Co 0.51809 0.96413 0.49455 0.0
C423 C 0.40105 0.02408 0.42905 0.0
C424 C 0.43673 0.08297 0.45742 0.0
N425 N 0.43367 0.0382 0.4531 0.0
N426 N 0.38414 0.05808 0.41774 0.0
C427 C 0.40647 0.09525 0.43543 0.0
H428 H 0.39186 -0.01092 0.41844 0.0
H429 H 0.46083 0.10489 0.47431 0.0
C430 C 0.50196 0.92674 0.42414 0.0
N431 N 0.55544 0.92977 0.5138 0.0
C432 C 0.5876 0.94498 0.53805 0.0
C433 C 0.55346 0.88503 0.50981 0.0
N434 N 0.60532 0.91173 0.54982 0.0
C435 C 0.58393 0.87387 0.53226 0.0
C436 C 0.4277 0.93929 0.49624 0.0
O437 O 0.47509 0.95968 0.42826 0.0
O438 O 0.52581 0.92286 0.44972 0.0
O439 O 0.46799 0.93054 0.50294 0.0
O440 O 0.42024 0.97203 0.48335 0.0
O441 O 0.51015 0.00575 0.53952 0.0
H442 H 0.52999 0.86237 0.49285 0.0
H443 H 0.59587 0.98024 0.54848 0.0
O444 O 0.46657 0.04683 0.51602 0.0
O445 O 0.52125 0.03443 0.46102 0.0
O446 O 0.56808 -0.0019 0.48611 0.0
C447 C 0.56108 0.02816 0.47035 0.0
H448 H 0.40225 0.12851 0.43184 0.0
H449 H 0.58894 0.8409 0.53621 0.0
Co450 Co 0.46666 0.50722 0.97157 0.0
C451 C 0.48443 0.54342 0.04169 0.0
Co452 Co 0.51596 0.46768 -0.00784 0.0
C453 C 0.39619 0.52702 0.92909 0.0
C454 C 0.43093 0.58668 0.95714 0.0
N455 N 0.42871 0.54193 0.95309 0.0
N456 N 0.37854 0.56043 0.91747 0.0
C457 C 0.40029 0.59812 0.93495 0.0
H458 H 0.38775 0.49181 0.91858 0.0
H459 H 0.45482 0.60912 0.97384 0.0
C460 C 0.49845 0.43162 0.92201 0.0
N461 N 0.55364 0.43254 0.01044 0.0
C462 C 0.58588 0.44647 0.03485 0.0
C463 C 0.55112 0.3876 0.00537 0.0
N464 N 0.60305 0.41219 0.04566 0.0
C465 C 0.5813 0.37501 0.02728 0.0
C466 C 0.42537 0.44219 -0.00512 0.0
O467 O 0.47223 0.46514 0.92667 0.0
O468 O 0.52173 0.42639 0.9474 0.0
O469 O 0.46588 0.43472 0.00199 0.0
O470 O 0.41709 0.47406 0.98129 0.0
O471 O 0.51055 0.50979 0.03699 0.0
H472 H 0.52737 0.36574 -0.01193 0.0
H473 H 0.59454 0.48148 0.04611 0.0
O474 O 0.46088 0.5486 0.01638 0.0
O475 O 0.51685 0.54036 0.96185 0.0
O476 O 0.56547 0.50065 0.98244 0.0
C477 C 0.55732 0.53272 0.96901 0.0
H478 H 0.39553 0.63113 0.931 0.0
H479 H 0.58583 0.34154 0.03036 0.0
C480 C 0.02893 0.09182 0.09278 0.0
C481 C 0.98831 0.07397 0.07673 0.0
H482 H 0.06014 0.1404 0.13552 0.0
C483 C 0.94715 0.09096 0.0922 0.0
H484 H 0.06102 0.07943 0.08101 0.0
C485 C 0.94665 0.12479 0.12381 0.0
C486 C 0.98729 0.14332 0.13944 0.0
H487 H 0.91548 0.07768 0.08004 0.0
H488 H 0.91461 0.13699 0.13576 0.0
C489 C 0.02842 0.12683 0.12362 0.0
C490 C 0.7923 0.20782 0.36264 0.0
C491 C 0.80252 0.18687 0.38903 0.0
H492 H 0.80975 0.21536 0.31214 0.0
C493 C 0.83602 0.15361 0.38296 0.0
H494 H 0.76658 0.23354 0.36653 0.0
C495 C 0.86019 0.14287 0.3516 0.0
C496 C 0.85165 0.16572 0.32614 0.0
H497 H 0.8444 0.13678 0.4028 0.0
H498 H 0.88715 0.1185 0.34804 0.0
C499 C 0.81693 0.19756 0.33159 0.0
C500 C 0.80665 0.07756 0.60813 0.0
C501 C 0.84068 0.08708 0.63377 0.0
H502 H 0.7803 0.08981 0.56147 0.0
C503 C 0.8763 0.11578 0.63041 0.0
H504 H 0.77944 0.05459 0.60921 0.0
C505 C 0.87696 0.13569 0.60264 0.0
C506 C 0.84192 0.12737 0.57787 0.0
H507 H 0.90291 0.1239 0.64977 0.0
H508 H 0.90395 0.15881 0.60126 0.0
C509 C 0.80721 0.09756 0.58061 0.0
C510 C 0.81784 0.02276 0.88519 0.0
C511 C 0.8531 0.05418 0.89084 0.0
H512 H 0.76658 -0.01174 0.85037 0.0
C513 C 0.86177 0.07783 0.86586 0.0
H514 H 0.81055 0.00439 0.90427 0.0
C515 C 0.83713 0.06825 0.83471 0.0
C516 C 0.80303 0.03541 0.82843 0.0
H517 H 0.88914 0.10193 0.86961 0.0
H518 H 0.84564 0.08558 0.81519 0.0
C519 C 0.79273 0.01371 0.85441 0.0
C520 C 0.13107 0.89333 0.1011 0.0
C521 C 0.13952 0.91642 0.07574 0.0
H522 H 0.14668 0.88731 0.15233 0.0
C523 C 0.17403 0.94869 0.08137 0.0
H524 H 0.10429 0.86861 0.0974 0.0
C525 C 0.19847 0.95918 0.11252 0.0
C526 C 0.18827 0.93803 0.13884 0.0
H527 H 0.18114 0.96667 0.06201 0.0
H528 H 0.22399 -0.01475 0.11654 0.0
C529 C 0.15506 0.90429 0.13256 0.0
C530 C 0.96645 0.36053 0.38291 0.0
C531 C -0.00111 0.39485 0.38933 0.0
H532 H 0.94171 0.30018 0.34725 0.0
C533 C 0.03256 0.39441 0.3645 0.0
H534 H 0.94039 0.36039 0.40206 0.0
C535 C 0.03337 0.36019 0.33312 0.0
C536 C 0.0008 0.32566 0.32643 0.0
H537 H 0.05806 0.42056 0.36932 0.0
H538 H 0.05946 0.36079 0.31412 0.0
C539 C 0.96746 0.32606 0.35174 0.0
C540 C 0.69446 0.25955 0.60226 0.0
C541 C 0.68484 0.28071 0.57589 0.0
H542 H 0.67638 0.25218 0.65269 0.0
C543 C 0.65183 0.31446 0.58192 0.0
H544 H 0.71979 0.23346 0.59838 0.0
C545 C 0.62755 0.3255 0.61322 0.0
C546 C 0.63546 0.30247 0.63866 0.0
H547 H 0.64393 0.33146 0.56209 0.0
H548 H 0.60097 0.35028 0.61675 0.0
C549 C 0.66969 0.27012 0.63326 0.0
C550 C 0.61155 0.8612 0.84065 0.0
C551 C 0.64776 0.88891 0.83669 0.0
H552 H 0.58362 0.81864 0.87006 0.0
C553 C 0.68271 0.89712 0.86158 0.0
H554 H 0.58421 0.85406 0.82188 0.0
C555 C 0.68241 0.87676 0.88891 0.0
C556 C 0.64704 0.84797 0.89223 0.0
H557 H 0.71045 0.91932 0.86007 0.0
H558 H 0.71003 0.88345 0.90745 0.0
C559 C 0.61114 0.84098 0.86824 0.0
C560 C 0.1951 0.26218 0.10303 0.0
C561 C 0.18471 0.28327 0.07676 0.0
H562 H 0.17787 0.25434 0.15348 0.0
C563 C 0.15121 0.31654 0.08301 0.0
H564 H 0.22084 0.23646 0.099 0.0
C565 C 0.12715 0.32709 0.11441 0.0
C566 C 0.13582 0.30405 0.13974 0.0
H567 H 0.1427 0.33348 0.06326 0.0
H568 H 0.10015 0.35143 0.11809 0.0
C569 C 0.17059 0.27227 0.13413 0.0
C570 C 0.67978 0.38997 0.35696 0.0
C571 C 0.64549 0.38061 0.33152 0.0
H572 H 0.70666 0.37741 0.40335 0.0
C573 C 0.60999 0.35184 0.33496 0.0
H574 H 0.70692 0.41299 0.35582 0.0
C575 C 0.60967 0.33173 0.36263 0.0
C576 C 0.64495 0.33991 0.3872 0.0
H577 H 0.58318 0.34384 0.31577 0.0
H578 H 0.58273 0.30859 0.36408 0.0
C579 C 0.67957 0.36975 0.38435 0.0
C580 C 0.66951 0.94988 0.58452 0.0
C581 C 0.63492 0.91771 0.57927 0.0
H582 H 0.72002 -0.0136 0.61918 0.0
C583 C 0.6268 0.89486 0.60483 0.0
H584 H 0.67642 0.96766 0.565 0.0
C585 C 0.65124 0.9059 0.63608 0.0
C586 C 0.68461 0.93948 0.64195 0.0
H587 H 0.59997 0.87021 0.60142 0.0
H588 H 0.64315 0.88906 0.65599 0.0
C589 C 0.69441 0.96045 0.61546 0.0
C590 C 0.96148 0.87635 0.87377 0.0
C591 C 0.00257 0.89348 0.8894 0.0
H592 H 0.92895 0.82863 0.83123 0.0
C593 C 0.04325 0.87575 0.87347 0.0
H594 H 0.92973 0.8893 0.88589 0.0
C595 C 0.0428 0.84207 0.84175 0.0
C596 C 0.00167 0.82442 0.82647 0.0
H597 H 0.07528 0.88846 0.88527 0.0
H598 H 0.07448 0.82942 0.82937 0.0
C599 C 0.96104 0.8415 0.84284 0.0
C600 C 0.14037 0.05911 0.97943 0.0
C601 C 0.09696 0.06145 0.96585 0.0
H602 H 0.20457 0.09122 -0.00795 0.0
C603 C 0.08649 0.09712 0.95153 0.0
H604 H 0.14943 0.03204 -0.00933 0.0
C605 C 0.11796 0.131 0.95241 0.0
C606 C 0.16056 0.12993 0.96761 0.0
H607 H 0.05339 0.09978 0.94074 0.0
H608 H 0.10831 0.15876 0.94214 0.0
C609 C 0.1719 0.09308 0.98031 0.0
C610 C 0.66881 0.62401 0.23461 0.0
C611 C 0.65721 0.58602 0.24584 0.0
H612 H 0.64663 0.68591 0.22587 0.0
C613 C 0.61396 0.5834 0.25967 0.0
H614 H 0.70194 0.6271 0.22394 0.0
C615 C 0.58231 0.61711 0.26082 0.0
C616 C 0.59327 0.65416 0.2482 0.0
H617 H 0.60403 0.55468 0.26871 0.0
H618 H 0.54881 0.61336 0.27061 0.0
C619 C 0.63715 0.65778 0.2358 0.0
C620 C 0.36806 0.83943 0.51346 0.0
C621 C 0.32589 0.84113 0.4978 0.0
H622 H 0.43301 0.86952 0.52573 0.0
C623 C 0.31575 0.87805 0.4848 0.0
H624 H 0.3768 0.81163 0.52397 0.0
C625 C 0.34808 0.91143 0.48585 0.0
C626 C 0.39107 0.90842 0.49992 0.0
H627 H 0.28345 0.88038 0.47267 0.0
H628 H 0.34 0.93852 0.47436 0.0
C629 C 0.40028 0.87271 0.51452 0.0
C630 C 0.08208 0.61954 0.76088 0.0
C631 C 0.09252 0.65608 0.74749 0.0
H632 H 0.10443 0.55781 0.76968 0.0
C633 C 0.13618 0.65954 0.73461 0.0
H634 H 0.04878 0.61592 0.77106 0.0
C635 C 0.16812 0.62608 0.73374 0.0
C636 C 0.15701 0.58857 0.74576 0.0
H637 H 0.14525 0.68727 0.72408 0.0
H638 H 0.20104 0.62899 0.72269 0.0
C639 C 0.11399 0.58616 0.76003 0.0
C640 C 0.81451 0.37704 0.48421 0.0
C641 C 0.8255 0.34074 0.49768 0.0
H642 H 0.83735 0.43754 0.47313 0.0
C643 C 0.86777 0.34017 0.5135 0.0
H644 H 0.78211 0.3785 0.47196 0.0
C645 C 0.89928 0.37398 0.51426 0.0
C646 C 0.88921 0.40907 0.49919 0.0
H647 H 0.87714 0.31284 0.52435 0.0
H648 H 0.93214 0.37167 0.52557 0.0
C649 C 0.8461 0.41092 0.48496 0.0
C650 C 0.37399 0.88522 0.20526 0.0
C651 C 0.33054 0.88246 0.2187 0.0
H652 H 0.43942 0.85569 0.19517 0.0
C653 C 0.31896 0.84465 0.23019 0.0
H654 H 0.38392 0.91382 0.19606 0.0
C655 C 0.35079 0.81121 0.2296 0.0
C656 C 0.39483 0.81497 0.21755 0.0
H657 H 0.28569 0.84146 0.24059 0.0
H658 H 0.34128 0.78321 0.23968 0.0
C659 C 0.4058 0.85184 0.20471 0.0
C660 C 0.36822 0.38079 0.702 0.0
C661 C 0.3257 0.37889 0.71717 0.0
H662 H 0.43325 0.35094 0.6904 0.0
C663 C 0.31515 0.34191 0.73005 0.0
H664 H 0.37733 0.40864 0.69161 0.0
C665 C 0.3473 0.30863 0.72929 0.0
C666 C 0.39057 0.31177 0.71565 0.0
H667 H 0.28258 0.3394 0.74179 0.0
H668 H 0.33882 0.28145 0.74063 0.0
C669 C 0.40028 0.34762 0.70125 0.0
C670 C 0.19397 0.7595 0.60172 0.0
C671 C 0.18434 0.78167 0.57596 0.0
H672 H 0.17642 0.75094 0.6519 0.0
C673 C 0.15183 0.81591 0.58284 0.0
H674 H 0.21893 0.733 0.59719 0.0
C675 C 0.12805 0.82649 0.61439 0.0
C676 C 0.13598 0.80252 0.63922 0.0
H677 H 0.14391 0.83367 0.5635 0.0
H678 H 0.10184 0.85171 0.61858 0.0
C679 C 0.16972 0.76962 0.63295 0.0
C680 C 0.18199 0.89562 0.35863 0.0
C681 C 0.14798 0.88676 0.33297 0.0
H682 H 0.20786 0.8826 0.40518 0.0
C683 C 0.1119 0.85849 0.33619 0.0
H684 H 0.20958 0.91824 0.35768 0.0
C685 C 0.11073 0.8384 0.36384 0.0
C686 C 0.14573 0.84605 0.38863 0.0
H687 H 0.08529 0.85084 0.31682 0.0
H688 H 0.08338 0.81562 0.36511 0.0
C689 C 0.18094 0.8754 0.38602 0.0
C690 C 0.94208 0.6283 0.62283 0.0
C691 C 0.983 0.64642 0.63821 0.0
H692 H 0.91016 0.5815 0.57922 0.0
C693 C 0.02383 0.62987 0.62191 0.0
H694 H 0.91025 0.64055 0.63515 0.0
C695 C 0.0238 0.59504 0.59097 0.0
C696 C 0.98292 0.57741 0.57525 0.0
H697 H 0.05577 0.6431 0.63358 0.0
H698 H 0.0557 0.58247 0.57894 0.0
C699 C 0.94202 0.59463 0.59108 0.0
C700 C 0.33122 0.65471 0.38087 0.0
C701 C 0.29913 0.68935 0.38776 0.0
H702 H 0.38103 0.61844 0.34521 0.0
C703 C 0.29003 0.71176 0.36206 0.0
H704 H 0.33871 0.63676 0.40017 0.0
C705 C 0.31445 0.70148 0.33089 0.0
C706 C 0.34779 0.66817 0.32462 0.0
H707 H 0.26542 0.73857 0.36661 0.0
H708 H 0.30821 0.72035 0.31201 0.0
C709 C 0.35513 0.64397 0.34939 0.0
C710 C 0.30747 0.07855 0.10687 0.0
C711 C 0.34173 0.08787 0.13234 0.0
H712 H 0.28047 0.09145 0.06064 0.0
C713 C 0.3771 0.11687 0.12907 0.0
H714 H 0.28043 0.05535 0.10787 0.0
C715 C 0.3773 0.13726 0.10156 0.0
C716 C 0.34202 0.12914 0.077 0.0
H717 H 0.40388 0.12484 0.14829 0.0
H718 H 0.40411 0.16059 0.10024 0.0
C719 C 0.30755 0.09905 0.07965 0.0
C720 C 0.83223 0.65495 0.88176 0.0
C721 C 0.80022 0.68966 0.88897 0.0
H722 H 0.88164 0.61871 0.84571 0.0
C723 C 0.79078 0.71221 0.86342 0.0
H724 H 0.83997 0.63688 0.90093 0.0
C725 C 0.81481 0.70199 0.83207 0.0
C726 C 0.84813 0.66863 0.82549 0.0
H727 H 0.76621 0.73907 0.86821 0.0
H728 H 0.8083 0.72096 0.81329 0.0
C729 C 0.85577 0.64429 0.85011 0.0
C730 C 0.30271 0.57575 0.60542 0.0
C731 C 0.33748 0.584 0.63047 0.0
H732 H 0.27569 0.58942 0.55945 0.0
C733 C 0.3736 0.61196 0.62677 0.0
H734 H 0.27503 0.55339 0.60674 0.0
C735 C 0.37413 0.6323 0.59924 0.0
C736 C 0.33846 0.6252 0.57504 0.0
H737 H 0.40079 0.61916 0.64566 0.0
H738 H 0.40161 0.65478 0.5976 0.0
C739 C 0.30314 0.59622 0.57815 0.0
C740 C 0.33821 0.0674 0.3324 0.0
C741 C 0.30415 0.03452 0.3262 0.0
H742 H 0.39032 0.10112 0.36711 0.0
C743 C 0.29393 0.0129 0.35223 0.0
H744 H 0.34667 0.08468 0.31283 0.0
C745 C 0.31911 0.02206 0.38299 0.0
C746 C 0.35442 0.05345 0.38852 0.0
H747 H 0.26779 -0.01255 0.34825 0.0
H748 H 0.31185 0.00378 0.40213 0.0
C749 C 0.36296 0.07703 0.36348 0.0
C750 C 0.87269 0.83704 0.01299 0.0
C751 C 0.82947 0.83997 -0.0007 0.0
H752 H 0.93842 0.86613 0.02313 0.0
C753 C 0.81844 0.87781 -0.01223 0.0
H754 H 0.88215 0.80843 0.02228 0.0
C755 C 0.85072 0.91098 -0.01169 0.0
C756 C 0.89462 0.9069 0.00038 0.0
H757 H 0.78534 0.88111 0.97719 0.0
H758 H 0.84172 0.9389 0.97803 0.0
C759 C 0.90493 0.87018 0.01353 0.0
C760 C 0.62018 0.12667 0.4506 0.0
C761 C 0.66182 0.12665 0.46742 0.0
H762 H 0.55597 0.09512 0.43787 0.0
C763 C 0.67197 0.09113 0.48202 0.0
H764 H 0.6115 0.15337 0.43884 0.0
C765 C 0.64003 0.05759 0.48147 0.0
C766 C 0.59747 0.05901 0.46625 0.0
H767 H 0.70389 0.09012 0.49506 0.0
H768 H 0.64804 0.03166 0.4942 0.0
C769 C 0.58837 0.09319 0.44998 0.0
C770 C 0.81552 0.33948 0.22921 0.0
C771 C 0.82594 0.37644 0.21629 0.0
H772 H 0.83944 0.27934 0.24008 0.0
C773 C 0.86856 0.37861 0.20132 0.0
H774 H 0.7829 0.33677 0.2408 0.0
C775 C 0.90085 0.34571 0.20083 0.0
C776 C 0.89124 0.30994 0.21532 0.0
H777 H 0.87755 0.40647 0.19092 0.0
H778 H 0.93388 0.34924 0.19017 0.0
C779 C 0.84788 0.30652 0.22873 0.0
C780 C 0.08251 0.59904 0.4511 0.0
C781 C 0.09254 0.56291 0.46501 0.0
H782 H 0.10531 0.66046 0.44181 0.0
C783 C 0.1361 0.55955 0.47799 0.0
H784 H 0.0493 0.60252 0.44077 0.0
C785 C 0.16827 0.59291 0.47863 0.0
C786 C 0.15744 0.6302 0.4663 0.0
H787 H 0.14486 0.53211 0.4889 0.0
H788 H 0.20107 0.59023 0.4899 0.0
C789 C 0.11461 0.63233 0.45174 0.0
C790 C 0.61745 0.09179 0.76503 0.0
C791 C 0.65982 0.09327 0.74953 0.0
H792 H 0.55246 0.12181 0.77655 0.0
C793 C 0.67022 0.12971 0.73597 0.0
H794 H 0.60849 0.06433 0.77593 0.0
C795 C 0.63802 0.16279 0.73635 0.0
C796 C 0.59487 0.16005 0.75033 0.0
H797 H 0.70266 0.13189 0.72395 0.0
H798 H 0.64641 0.18953 0.72451 0.0
C799 C 0.58534 0.12483 0.76545 0.0
C800 C 0.87485 0.60931 0.1269 0.0
C801 C 0.83855 0.58146 0.13043 0.0
H802 H 0.90333 0.65206 0.09786 0.0
C803 C 0.80403 0.57323 0.10518 0.0
H804 H 0.90186 0.61648 0.14594 0.0
C805 C 0.80483 0.59368 0.07791 0.0
C806 C 0.84029 0.6226 0.075 0.0
H807 H 0.77624 0.55094 0.10636 0.0
H808 H 0.77752 0.58697 0.05908 0.0
C809 C 0.87576 0.62962 0.09936 0.0
C810 C 0.85651 0.57492 0.3622 0.0
C811 C 0.84819 0.55197 0.38767 0.0
H812 H 0.84083 0.58059 0.31089 0.0
C813 C 0.81387 0.51949 0.38209 0.0
H814 H 0.88315 0.59979 0.36585 0.0
C815 C 0.78947 0.50871 0.35091 0.0
C816 C 0.79952 0.52977 0.32452 0.0
H817 H 0.80684 0.50162 0.40154 0.0
H818 H 0.76408 0.48253 0.34695 0.0
C819 C 0.83258 0.56367 0.33072 0.0
C820 C 0.14872 0.40311 0.63188 0.0
C821 C 0.18269 0.43609 0.63813 0.0
H822 H 0.09684 0.36916 0.59701 0.0
C823 C 0.19291 0.45773 0.61211 0.0
H824 H 0.14027 0.38583 0.65145 0.0
C825 C 0.16785 0.44847 0.58129 0.0
C826 C 0.13269 0.41694 0.57569 0.0
H827 H 0.21898 0.48326 0.61612 0.0
H828 H 0.17509 0.46677 0.56216 0.0
C829 C 0.12412 0.39336 0.60072 0.0
C830 C 0.63263 0.82648 0.11722 0.0
C831 C 0.64002 0.80181 0.14166 0.0
H832 H 0.6487 0.83431 0.06657 0.0
C833 C 0.67318 0.76831 0.13496 0.0
H834 H 0.60687 0.85218 0.12173 0.0
C835 C 0.69732 0.75828 0.10366 0.0
C836 C 0.68812 0.78115 0.07827 0.0
H837 H 0.67948 0.74908 0.1536 0.0
H838 H 0.72177 0.7313 0.09877 0.0
C839 C 0.65626 0.816 0.08561 0.0
C840 C 0.69298 0.45644 0.1116 0.0
C841 C 0.68259 0.43444 0.13738 0.0
H842 H 0.6753 0.46632 0.06189 0.0
C843 C 0.64838 0.4017 0.1309 0.0
H844 H 0.71922 0.48181 0.11579 0.0
C845 C 0.62375 0.39251 0.09975 0.0
C846 C 0.63254 0.41643 0.07497 0.0
H847 H 0.63977 0.38417 0.15027 0.0
H848 H 0.59632 0.36847 0.09586 0.0
C849 C 0.66789 0.44776 0.08082 0.0
C850 C 0.3461 0.41341 -0.01474 0.0
C851 C 0.38937 0.41101 -0.00094 0.0
H852 H 0.28169 0.38169 0.97279 0.0
C853 C 0.39932 0.37577 0.01399 0.0
H854 H 0.33744 0.44016 0.97356 0.0
C855 C 0.36751 0.34232 0.01349 0.0
C856 C 0.32507 0.34339 -0.00195 0.0
H857 H 0.43229 0.3731 0.02501 0.0
H858 H 0.37679 0.31485 0.02421 0.0
C859 C 0.31421 0.37986 -0.01525 0.0
C860 C 0.08645 0.12237 0.26339 0.0
C861 C 0.09609 0.15857 0.24941 0.0
H862 H 0.10959 0.06107 0.27243 0.0
C863 C 0.13936 0.16205 0.23587 0.0
H864 H 0.05347 0.11877 0.27413 0.0
C865 C 0.17161 0.12878 0.2348 0.0
C866 C 0.16114 0.09148 0.24728 0.0
H867 H 0.1478 0.18952 0.22484 0.0
H868 H 0.20417 0.13159 0.22316 0.0
C869 C 0.11861 0.0892 0.26235 0.0
C870 C 0.10884 0.33571 0.86383 0.0
C871 C 0.14394 0.34405 0.88855 0.0
H872 H 0.0827 0.34754 0.81677 0.0
C873 C 0.17854 0.37396 0.88581 0.0
H874 H 0.08193 0.3125 0.8652 0.0
C875 C 0.17894 0.39406 0.85835 0.0
C876 C 0.14487 0.3845 0.83274 0.0
H877 H 0.20549 0.38172 0.90492 0.0
H878 H 0.20608 0.41711 0.85727 0.0
C879 C 0.10935 0.3557 0.8361 0.0
C880 C 0.33374 0.15624 0.88318 0.0
C881 C 0.30068 0.18993 0.88928 0.0
H882 H 0.3846 0.12062 0.84831 0.0
C883 C 0.29082 0.21105 0.86294 0.0
H884 H 0.34181 0.13925 0.90298 0.0
C885 C 0.31547 0.20055 0.83189 0.0
C886 C 0.34985 0.16833 0.82644 0.0
H887 H 0.26542 0.23708 0.86688 0.0
H888 H 0.30862 0.21847 0.81247 0.0
C889 C 0.35793 0.14529 0.85185 0.0
C890 C 0.35756 0.57739 0.86238 0.0
C891 C 0.34908 0.55462 0.88794 0.0
H892 H 0.34176 0.5831 0.81109 0.0
C893 C 0.31438 0.52256 0.88256 0.0
H894 H 0.38449 0.60195 0.86587 0.0
C895 C 0.28975 0.512 0.85149 0.0
C896 C 0.29993 0.53285 0.825 0.0
H897 H 0.30721 0.50484 0.90207 0.0
H898 H 0.26406 0.48612 0.84768 0.0
C899 C 0.33338 0.56635 0.831 0.0
C900 C 0.61607 0.6338 0.95303 0.0
C901 C 0.65888 0.631 0.96743 0.0
H902 H 0.55055 0.60456 0.94182 0.0
C903 C 0.66948 0.59319 0.97915 0.0
H904 H 0.60698 0.66236 0.94356 0.0
C905 C 0.6371 0.55994 0.97808 0.0
C906 C 0.59355 0.56393 0.96529 0.0
H907 H 0.70226 0.58999 -0.00974 0.0
H908 H 0.64569 0.53206 -0.01147 0.0
C909 C 0.58375 0.6006 0.95196 0.0
C910 C 0.84831 0.81163 0.73076 0.0
C911 C 0.89182 0.81493 0.71756 0.0
H912 H 0.78372 0.84256 0.74336 0.0
C913 C 0.90224 0.85155 0.70428 0.0
H914 H 0.83926 0.78383 0.74122 0.0
C915 C 0.87049 0.88519 0.70556 0.0
C916 C 0.82765 0.88295 0.72017 0.0
H917 H 0.93543 0.85504 0.69387 0.0
H918 H 0.88004 0.91359 0.69598 0.0
C919 C 0.81652 0.84534 0.73207 0.0
C920 C 0.48529 0.15533 0.60797 0.0
C921 C 0.48447 0.14387 0.63984 0.0
H922 H 0.48532 0.13126 0.55196 0.0
C923 C 0.4838 0.0983 0.6396 0.0
H924 H 0.4859 0.19025 0.60758 0.0
C925 C 0.48489 0.06465 0.60794 0.0
C926 C 0.48507 0.07611 0.57606 0.0
H927 H 0.48358 0.0887 0.66393 0.0
H928 H 0.48518 0.02974 0.60834 0.0
C929 C 0.48479 0.12168 0.5763 0.0
C930 C 0.54067 0.34531 0.84159 0.0
C931 C 0.49992 0.32779 0.82556 0.0
H932 H 0.57204 0.39165 0.8857 0.0
C933 C 0.45889 0.34533 0.84093 0.0
H934 H 0.57264 0.33226 0.83 0.0
C935 C 0.45858 0.38033 0.87176 0.0
C936 C 0.49927 0.39714 0.88827 0.0
H937 H 0.42709 0.3325 0.82873 0.0
H938 H 0.42655 0.3935 0.88318 0.0
C939 C 0.54032 0.37916 0.87321 0.0
C940 C 0.46191 0.83888 0.34412 0.0
C941 C 0.50279 0.82261 0.32778 0.0
H942 H 0.42987 0.88606 0.38713 0.0
C943 C 0.54366 0.8408 0.34324 0.0
H944 H 0.43001 0.82559 0.3324 0.0
C945 C 0.5436 0.87437 0.37505 0.0
C946 C 0.50264 0.8914 0.39085 0.0
H947 H 0.57552 0.82876 0.33089 0.0
H948 H 0.57541 0.88766 0.38691 0.0
C949 C 0.46182 0.87359 0.37512 0.0
C950 C 0.52533 0.59463 0.09141 0.0
C951 C 0.48429 0.57812 0.07534 0.0
H952 H 0.55776 0.64161 0.13445 0.0
C953 C 0.44358 0.5963 0.09093 0.0
H954 H 0.55711 0.58132 0.07957 0.0
C955 C 0.44393 0.62976 0.12278 0.0
C956 C 0.48503 0.64674 0.13853 0.0
H957 H 0.4116 0.58408 0.07879 0.0
H958 H 0.41221 0.64273 0.13491 0.0
C959 C 0.52571 0.62926 0.12248 0.0
loop_
_geom_bond_atom_site_label_1
_geom_bond_atom_site_label_2
_geom_bond_distance
_geom_bond_site_symmetry_2
_ccdc_geom_bond_type
Co0 N5 2.057 . S
Co0 O17 2.021 1_545 S
Co0 O20 2.062 1_545 S
Co0 O24 2.117 1_556 S
Co0 O25 2.020 1_655 S
C1 O21 1.259 1_655 S
C1 O24 1.258 . S
Co2 N11 2.057 . S
Co2 O18 2.117 1_554 S
Co2 O19 2.020 1_455 S
Co2 O21 2.021 1_565 S
Co2 O26 2.062 1_565 S
C3 N5 1.316 . S
C3 N6 1.347 . S
C3 H8 0.931 . S
C4 N5 1.375 . S
C4 C7 1.350 . S
C4 H9 0.930 . S
N5 Co0 2.057 . S
N5 C3 1.316 . S
N5 C4 1.375 . S
N6 C3 1.347 . S
N6 C7 1.373 . S
C7 C4 1.350 . S
C7 N6 1.373 . S
C7 H28 0.931 . S
H8 C3 0.931 . S
H9 C4 0.930 . S
C10 O17 1.259 1_455 S
C10 O18 1.258 . S
N11 Co2 2.057 . S
N11 C12 1.316 . S
N11 C13 1.375 . S
C12 N11 1.316 . S
C12 N14 1.347 . S
C12 H23 0.931 . S
C13 N11 1.375 . S
C13 C15 1.350 . S
C13 H22 0.930 . S
N14 C12 1.347 . S
N14 C15 1.373 . S
C15 C13 1.350 . S
C15 N14 1.373 . S
C15 H29 0.931 . S
C16 O19 1.256 . S
C16 O20 1.255 1_554 S
O17 Co0 2.021 1_565 S
O17 C10 1.259 1_655 S
O18 Co2 2.117 1_556 S
O18 C10 1.258 . S
O19 Co2 2.020 1_655 S
O19 C16 1.256 . S
O20 Co0 2.062 1_565 S
O20 C16 1.255 1_556 S
O21 C1 1.259 1_455 S
O21 Co2 2.021 1_545 S
H22 C13 0.930 . S
H23 C12 0.931 . S
O24 Co0 2.117 1_554 S
O24 C1 1.258 . S
O25 Co0 2.020 1_455 S
O25 C27 1.256 . S
O26 Co2 2.062 1_545 S
O26 C27 1.255 1_554 S
C27 O25 1.256 . S
C27 O26 1.255 1_556 S
H28 C7 0.931 . S
H29 C15 0.931 . S
Co30 N35 2.057 . S
Co30 O47 2.021 . S
Co30 O50 2.062 . S
Co30 O54 2.117 1_455 S
Co30 O55 2.020 . S
C31 O51 1.259 . S
C31 O54 1.258 . S
Co32 N41 2.057 . S
Co32 O48 2.117 1_655 S
Co32 O49 2.020 . S
Co32 O51 2.021 . S
Co32 O56 2.062 . S
C33 N35 1.316 . S
C33 N36 1.347 . S
C33 H38 0.931 . S
C34 N35 1.375 . S
C34 C37 1.350 . S
C34 H39 0.930 . S
N35 Co30 2.057 . S
N35 C33 1.316 . S
N35 C34 1.375 . S
N36 C33 1.347 . S
N36 C37 1.373 . S
C37 C34 1.350 . S
C37 N36 1.373 . S
C37 H58 0.931 . S
H38 C33 0.931 . S
H39 C34 0.930 . S
C40 O47 1.259 . S
C40 O48 1.258 . S
N41 Co32 2.057 . S
N41 C42 1.316 . S
N41 C43 1.375 . S
C42 N41 1.316 . S
C42 N44 1.347 . S
C42 H53 0.931 . S
C43 N41 1.375 . S
C43 C45 1.350 . S
C43 H52 0.930 . S
N44 C42 1.347 . S
N44 C45 1.373 . S
C45 C43 1.350 . S
C45 N44 1.373 . S
C45 H59 0.931 . S
C46 O49 1.256 . S
C46 O50 1.255 1_655 S
O47 Co30 2.021 . S
O47 C40 1.259 . S
O48 Co32 2.117 1_455 S
O48 C40 1.258 . S
O49 Co32 2.020 . S
O49 C46 1.256 . S
O50 Co30 2.062 . S
O50 C46 1.255 1_455 S
O51 C31 1.259 . S
O51 Co32 2.021 . S
H52 C43 0.930 . S
H53 C42 0.931 . S
O54 Co30 2.117 1_655 S
O54 C31 1.258 . S
O55 Co30 2.020 . S
O55 C57 1.256 . S
O56 Co32 2.062 . S
O56 C57 1.255 1_655 S
C57 O55 1.256 . S
C57 O56 1.255 1_455 S
H58 C37 0.931 . S
H59 C45 0.931 . S
Co60 N65 2.057 . S
Co60 O77 2.021 . S
Co60 O80 2.062 . S
Co60 O84 2.117 . S
Co60 O85 2.020 . S
C61 O81 1.259 . S
C61 O84 1.258 . S
Co62 N71 2.057 . S
Co62 O78 2.117 . S
Co62 O79 2.020 . S
Co62 O81 2.021 . S
Co62 O86 2.062 . S
C63 N65 1.316 . S
C63 N66 1.347 . S
C63 H68 0.931 . S
C64 N65 1.375 . S
C64 C67 1.350 . S
C64 H69 0.930 . S
N65 Co60 2.057 . S
N65 C63 1.316 . S
N65 C64 1.375 . S
N66 C63 1.347 . S
N66 C67 1.373 . S
C67 C64 1.350 . S
C67 N66 1.373 . S
C67 H88 0.931 . S
H68 C63 0.931 . S
H69 C64 0.930 . S
C70 O77 1.259 . S
C70 O78 1.258 . S
N71 Co62 2.057 . S
N71 C72 1.316 . S
N71 C73 1.375 . S
C72 N71 1.316 . S
C72 N74 1.347 . S
C72 H83 0.931 . S
C73 N71 1.375 . S
C73 C75 1.350 . S
C73 H82 0.930 . S
N74 C72 1.347 . S
N74 C75 1.373 . S
C75 C73 1.350 . S
C75 N74 1.373 . S
C75 H89 0.931 . S
C76 O79 1.256 . S
C76 O80 1.255 . S
O77 Co60 2.021 . S
O77 C70 1.259 . S
O78 Co62 2.117 . S
O78 C70 1.258 . S
O79 Co62 2.020 . S
O79 C76 1.256 . S
O80 Co60 2.062 . S
O80 C76 1.255 . S
O81 C61 1.259 . S
O81 Co62 2.021 . S
H82 C73 0.930 . S
H83 C72 0.931 . S
O84 Co60 2.117 . S
O84 C61 1.258 . S
O85 Co60 2.020 . S
O85 C87 1.256 . S
O86 Co62 2.062 . S
O86 C87 1.255 . S
C87 O85 1.256 . S
C87 O86 1.255 . S
H88 C67 0.931 . S
H89 C75 0.931 . S
Co90 N95 2.057 . S
Co90 O107 2.021 . S
Co90 O110 2.062 1_565 S
Co90 O114 2.117 1_565 S
Co90 O115 2.020 . S
C91 O111 1.259 . S
C91 O114 1.258 . S
Co92 N101 2.057 . S
Co92 O108 2.117 1_545 S
Co92 O109 2.020 . S
Co92 O111 2.021 . S
Co92 O116 2.062 . S
C93 N95 1.316 . S
C93 N96 1.347 . S
C93 H98 0.931 . S
C94 N95 1.375 . S
C94 C97 1.350 . S
C94 H99 0.930 . S
N95 Co90 2.057 . S
N95 C93 1.316 . S
N95 C94 1.375 . S
N96 C93 1.347 . S
N96 C97 1.373 . S
C97 C94 1.350 . S
C97 N96 1.373 . S
C97 H118 0.931 . S
H98 C93 0.931 . S
H99 C94 0.930 . S
C100 O107 1.259 . S
C100 O108 1.258 . S
N101 Co92 2.057 . S
N101 C102 1.316 . S
N101 C103 1.375 . S
C102 N101 1.316 . S
C102 N104 1.347 . S
C102 H113 0.931 . S
C103 N101 1.375 . S
C103 C105 1.350 . S
C103 H112 0.930 . S
N104 C102 1.347 . S
N104 C105 1.373 . S
C105 C103 1.350 . S
C105 N104 1.373 . S
C105 H119 0.931 . S
C106 O109 1.256 . S
C106 O110 1.253 . S
O107 Co90 2.021 . S
O107 C100 1.259 . S
O108 Co92 2.117 1_565 S
O108 C100 1.258 . S
O109 Co92 2.020 . S
O109 C106 1.256 . S
O110 Co90 2.062 1_545 S
O110 C106 1.253 . S
O111 C91 1.259 . S
O111 Co92 2.021 . S
H112 C103 0.930 . S
H113 C102 0.931 . S
O114 Co90 2.117 1_545 S
O114 C91 1.258 . S
O115 Co90 2.020 . S
O115 C117 1.256 . S
O116 Co92 2.062 . S
O116 C117 1.253 1_545 S
C117 O115 1.256 . S
C117 O116 1.253 1_565 S
H118 C97 0.931 . S
H119 C105 0.931 . S
Co120 N125 2.057 . S
Co120 O137 2.021 . S
Co120 O140 2.062 . S
Co120 O144 2.117 . S
Co120 O145 2.020 . S
C121 O141 1.259 . S
C121 O144 1.258 . S
Co122 N131 2.057 . S
Co122 O138 2.117 . S
Co122 O139 2.020 . S
Co122 O141 2.021 . S
Co122 O146 2.062 . S
C123 N125 1.316 . S
C123 N126 1.347 . S
C123 H128 0.931 . S
C124 N125 1.375 . S
C124 C127 1.350 . S
C124 H129 0.930 . S
N125 Co120 2.057 . S
N125 C123 1.316 . S
N125 C124 1.375 . S
N126 C123 1.347 . S
N126 C127 1.373 . S
C127 C124 1.350 . S
C127 N126 1.373 . S
C127 H148 0.931 . S
H128 C123 0.931 . S
H129 C124 0.930 . S
C130 O137 1.259 . S
C130 O138 1.258 . S
N131 Co122 2.057 . S
N131 C132 1.316 . S
N131 C133 1.375 . S
C132 N131 1.316 . S
C132 N134 1.347 . S
C132 H143 0.931 . S
C133 N131 1.375 . S
C133 C135 1.350 . S
C133 H142 0.930 . S
N134 C132 1.347 . S
N134 C135 1.373 . S
C135 C133 1.350 . S
C135 N134 1.373 . S
C135 H149 0.931 . S
C136 O139 1.256 . S
C136 O140 1.255 . S
O137 Co120 2.021 . S
O137 C130 1.259 . S
O138 Co122 2.117 . S
O138 C130 1.258 . S
O139 Co122 2.020 . S
O139 C136 1.256 . S
O140 Co120 2.062 . S
O140 C136 1.255 . S
O141 C121 1.259 . S
O141 Co122 2.021 . S
H142 C133 0.930 . S
H143 C132 0.931 . S
O144 Co120 2.117 . S
O144 C121 1.258 . S
O145 Co120 2.020 . S
O145 C147 1.256 . S
O146 Co122 2.062 . S
O146 C147 1.255 . S
C147 O145 1.256 . S
C147 O146 1.255 . S
H148 C127 0.931 . S
H149 C135 0.931 . S
Co150 N155 2.057 . S
Co150 O167 2.021 . S
Co150 O170 2.062 . S
Co150 O174 2.117 . S
Co150 O175 2.020 . S
C151 O171 1.259 . S
C151 O174 1.258 . S
Co152 N161 2.057 . S
Co152 O168 2.117 . S
Co152 O169 2.020 . S
Co152 O171 2.021 . S
Co152 O176 2.062 . S
C153 N155 1.316 . S
C153 N156 1.347 . S
C153 H158 0.931 . S
C154 N155 1.375 . S
C154 C157 1.350 . S
C154 H159 0.930 . S
N155 Co150 2.057 . S
N155 C153 1.316 . S
N155 C154 1.375 . S
N156 C153 1.347 . S
N156 C157 1.373 . S
C157 C154 1.350 . S
C157 N156 1.373 . S
C157 H178 0.931 . S
H158 C153 0.931 . S
H159 C154 0.930 . S
C160 O167 1.259 . S
C160 O168 1.258 . S
N161 Co152 2.057 . S
N161 C162 1.316 . S
N161 C163 1.375 . S
C162 N161 1.316 . S
C162 N164 1.347 . S
C162 H173 0.931 . S
C163 N161 1.375 . S
C163 C165 1.350 . S
C163 H172 0.930 . S
N164 C162 1.347 . S
N164 C165 1.373 . S
C165 C163 1.350 . S
C165 N164 1.373 . S
C165 H179 0.931 . S
C166 O169 1.256 . S
C166 O170 1.255 . S
O167 Co150 2.021 . S
O167 C160 1.259 . S
O168 Co152 2.117 . S
O168 C160 1.258 . S
O169 Co152 2.020 . S
O169 C166 1.256 . S
O170 Co150 2.062 . S
O170 C166 1.255 . S
O171 C151 1.259 . S
O171 Co152 2.021 . S
H172 C163 0.930 . S
H173 C162 0.931 . S
O174 Co150 2.117 . S
O174 C151 1.258 . S
O175 Co150 2.020 . S
O175 C177 1.256 . S
O176 Co152 2.062 . S
O176 C177 1.255 . S
C177 O175 1.256 . S
C177 O176 1.255 . S
H178 C157 0.931 . S
H179 C165 0.931 . S
Co180 N185 2.057 . S
Co180 O197 2.021 . S
Co180 O200 2.062 . S
Co180 O204 2.117 . S
Co180 O205 2.020 . S
C181 O201 1.259 . S
C181 O204 1.258 . S
Co182 N191 2.057 . S
Co182 O198 2.117 . S
Co182 O199 2.020 . S
Co182 O201 2.021 . S
Co182 O206 2.062 . S
C183 N185 1.316 . S
C183 N186 1.347 . S
C183 H188 0.931 . S
C184 N185 1.375 . S
C184 C187 1.350 . S
C184 H189 0.930 . S
N185 Co180 2.057 . S
N185 C183 1.316 . S
N185 C184 1.375 . S
N186 C183 1.347 . S
N186 C187 1.373 . S
C187 C184 1.350 . S
C187 N186 1.373 . S
C187 H208 0.931 . S
H188 C183 0.931 . S
H189 C184 0.930 . S
C190 O197 1.259 . S
C190 O198 1.258 . S
N191 Co182 2.057 . S
N191 C192 1.316 . S
N191 C193 1.375 . S
C192 N191 1.316 . S
C192 N194 1.347 . S
C192 H203 0.931 . S
C193 N191 1.375 . S
C193 C195 1.350 . S
C193 H202 0.930 . S
N194 C192 1.347 . S
N194 C195 1.373 . S
C195 C193 1.350 . S
C195 N194 1.373 . S
C195 H209 0.931 . S
C196 O199 1.256 . S
C196 O200 1.255 . S
O197 Co180 2.021 . S
O197 C190 1.259 . S
O198 Co182 2.117 . S
O198 C190 1.258 . S
O199 Co182 2.020 . S
O199 C196 1.256 . S
O200 Co180 2.062 . S
O200 C196 1.255 . S
O201 C181 1.259 . S
O201 Co182 2.021 . S
H202 C193 0.930 . S
H203 C192 0.931 . S
O204 Co180 2.117 . S
O204 C181 1.258 . S
O205 Co180 2.020 . S
O205 C207 1.256 . S
O206 Co182 2.062 . S
O206 C207 1.255 . S
C207 O205 1.256 . S
C207 O206 1.255 . S
H208 C187 0.931 . S
H209 C195 0.931 . S
Co210 N215 2.057 . S
Co210 O227 2.021 . S
Co210 O230 2.062 . S
Co210 O234 2.117 . S
Co210 O235 2.020 1_655 S
C211 O231 1.259 1_655 S
C211 O234 1.258 . S
Co212 N221 2.057 . S
Co212 O228 2.117 . S
Co212 O229 2.020 1_455 S
Co212 O231 2.021 . S
Co212 O236 2.062 . S
C213 N215 1.316 . S
C213 N216 1.347 . S
C213 H218 0.931 . S
C214 N215 1.375 . S
C214 C217 1.350 . S
C214 H219 0.930 . S
N215 Co210 2.057 . S
N215 C213 1.316 . S
N215 C214 1.375 . S
N216 C213 1.347 . S
N216 C217 1.373 . S
C217 C214 1.350 . S
C217 N216 1.373 . S
C217 H238 0.931 . S
H218 C213 0.931 . S
H219 C214 0.930 . S
C220 O227 1.259 1_455 S
C220 O228 1.258 . S
N221 Co212 2.057 . S
N221 C222 1.316 . S
N221 C223 1.375 . S
C222 N221 1.316 . S
C222 N224 1.347 . S
C222 H233 0.931 . S
C223 N221 1.375 . S
C223 C225 1.350 . S
C223 H232 0.930 . S
N224 C222 1.347 . S
N224 C225 1.373 . S
C225 C223 1.350 . S
C225 N224 1.373 . S
C225 H239 0.931 . S
C226 O229 1.256 . S
C226 O230 1.255 . S
O227 Co210 2.021 . S
O227 C220 1.259 1_655 S
O228 Co212 2.117 . S
O228 C220 1.258 . S
O229 Co212 2.020 1_655 S
O229 C226 1.256 . S
O230 Co210 2.062 . S
O230 C226 1.255 . S
O231 C211 1.259 1_455 S
O231 Co212 2.021 . S
H232 C223 0.930 . S
H233 C222 0.931 . S
O234 Co210 2.117 . S
O234 C211 1.258 . S
O235 Co210 2.020 1_455 S
O235 C237 1.256 . S
O236 Co212 2.062 . S
O236 C237 1.255 . S
C237 O235 1.256 . S
C237 O236 1.255 . S
H238 C217 0.931 . S
H239 C225 0.931 . S
Co240 N245 2.057 . S
Co240 O257 2.021 . S
Co240 O260 2.062 . S
Co240 O264 2.117 1_554 S
Co240 O265 2.020 . S
C241 O261 1.259 . S
C241 O264 1.258 . S
Co242 N251 2.057 . S
Co242 O258 2.117 1_556 S
Co242 O259 2.020 . S
Co242 O261 2.021 . S
Co242 O266 2.062 . S
C243 N245 1.316 . S
C243 N246 1.347 . S
C243 H248 0.931 . S
C244 N245 1.375 . S
C244 C247 1.350 . S
C244 H249 0.930 . S
N245 Co240 2.057 . S
N245 C243 1.316 . S
N245 C244 1.375 . S
N246 C243 1.347 . S
N246 C247 1.373 . S
C247 C244 1.350 . S
C247 N246 1.373 . S
C247 H268 0.931 . S
H248 C243 0.931 . S
H249 C244 0.930 . S
C250 O257 1.259 . S
C250 O258 1.258 . S
N251 Co242 2.057 . S
N251 C252 1.316 . S
N251 C253 1.375 . S
C252 N251 1.316 . S
C252 N254 1.347 . S
C252 H263 0.931 . S
C253 N251 1.375 . S
C253 C255 1.350 . S
C253 H262 0.930 . S
N254 C252 1.347 . S
N254 C255 1.373 . S
C255 C253 1.350 . S
C255 N254 1.373 . S
C255 H269 0.931 . S
C256 O259 1.256 . S
C256 O260 1.255 1_556 S
O257 Co240 2.021 . S
O257 C250 1.259 . S
O258 Co242 2.117 1_554 S
O258 C250 1.258 . S
O259 Co242 2.020 . S
O259 C256 1.256 . S
O260 Co240 2.062 . S
O260 C256 1.255 1_554 S
O261 C241 1.259 . S
O261 Co242 2.021 . S
H262 C253 0.930 . S
H263 C252 0.931 . S
O264 Co240 2.117 1_556 S
O264 C241 1.258 . S
O265 Co240 2.020 . S
O265 C267 1.256 . S
O266 Co242 2.062 . S
O266 C267 1.255 1_556 S
C267 O265 1.256 . S
C267 O266 1.255 1_554 S
H268 C247 0.931 . S
H269 C255 0.931 . S
Co270 N275 2.057 . S
Co270 O287 2.021 . S
Co270 O290 2.062 1_565 S
Co270 O294 2.117 1_565 S
Co270 O295 2.020 . S
C271 O291 1.259 . S
C271 O294 1.258 . S
Co272 N281 2.057 . S
Co272 O288 2.117 1_545 S
Co272 O289 2.020 . S
Co272 O291 2.021 . S
Co272 O296 2.062 . S
C273 N275 1.316 . S
C273 N276 1.347 . S
C273 H278 0.931 . S
C274 N275 1.375 . S
C274 C277 1.350 . S
C274 H279 0.930 . S
N275 Co270 2.057 . S
N275 C273 1.316 . S
N275 C274 1.375 . S
N276 C273 1.347 . S
N276 C277 1.373 . S
C277 C274 1.350 . S
C277 N276 1.373 . S
C277 H298 0.931 . S
H278 C273 0.931 . S
H279 C274 0.930 . S
C280 O287 1.259 . S
C280 O288 1.258 . S
N281 Co272 2.057 . S
N281 C282 1.316 . S
N281 C283 1.375 . S
C282 N281 1.316 . S
C282 N284 1.347 . S
C282 H293 0.931 . S
C283 N281 1.375 . S
C283 C285 1.350 . S
C283 H292 0.930 . S
N284 C282 1.347 . S
N284 C285 1.373 . S
C285 C283 1.350 . S
C285 N284 1.373 . S
C285 H299 0.931 . S
C286 O289 1.256 . S
C286 O290 1.253 . S
O287 Co270 2.021 . S
O287 C280 1.259 . S
O288 Co272 2.117 1_565 S
O288 C280 1.258 . S
O289 Co272 2.020 . S
O289 C286 1.256 . S
O290 Co270 2.062 1_545 S
O290 C286 1.253 . S
O291 C271 1.259 . S
O291 Co272 2.021 . S
H292 C283 0.930 . S
H293 C282 0.931 . S
O294 Co270 2.117 1_545 S
O294 C271 1.258 . S
O295 Co270 2.020 . S
O295 C297 1.256 . S
O296 Co272 2.062 . S
O296 C297 1.253 1_545 S
C297 O295 1.256 . S
C297 O296 1.253 1_565 S
H298 C277 0.931 . S
H299 C285 0.931 . S
Co300 N305 2.057 . S
Co300 O317 2.021 . S
Co300 O320 2.062 . S
Co300 O324 2.117 . S
Co300 O325 2.020 . S
C301 O321 1.259 . S
C301 O324 1.258 . S
Co302 N311 2.057 . S
Co302 O318 2.117 . S
Co302 O319 2.020 . S
Co302 O321 2.021 . S
Co302 O326 2.062 . S
C303 N305 1.316 . S
C303 N306 1.347 . S
C303 H308 0.931 . S
C304 N305 1.375 . S
C304 C307 1.350 . S
C304 H309 0.930 . S
N305 Co300 2.057 . S
N305 C303 1.316 . S
N305 C304 1.375 . S
N306 C303 1.347 . S
N306 C307 1.373 . S
C307 C304 1.350 . S
C307 N306 1.373 . S
C307 H328 0.931 . S
H308 C303 0.931 . S
H309 C304 0.930 . S
C310 O317 1.259 . S
C310 O318 1.258 . S
N311 Co302 2.057 . S
N311 C312 1.316 . S
N311 C313 1.375 . S
C312 N311 1.316 . S
C312 N314 1.347 . S
C312 H323 0.931 . S
C313 N311 1.375 . S
C313 C315 1.350 . S
C313 H322 0.930 . S
N314 C312 1.347 . S
N314 C315 1.373 . S
C315 C313 1.350 . S
C315 N314 1.373 . S
C315 H329 0.931 . S
C316 O319 1.256 . S
C316 O320 1.255 . S
O317 Co300 2.021 . S
O317 C310 1.259 . S
O318 Co302 2.117 . S
O318 C310 1.258 . S
O319 Co302 2.020 . S
O319 C316 1.256 . S
O320 Co300 2.062 . S
O320 C316 1.255 . S
O321 C301 1.259 . S
O321 Co302 2.021 . S
H322 C313 0.930 . S
H323 C312 0.931 . S
O324 Co300 2.117 . S
O324 C301 1.258 . S
O325 Co300 2.020 . S
O325 C327 1.256 . S
O326 Co302 2.062 . S
O326 C327 1.255 . S
C327 O325 1.256 . S
C327 O326 1.255 . S
H328 C307 0.931 . S
H329 C315 0.931 . S
Co330 N335 2.057 . S
Co330 O347 2.021 . S
Co330 O350 2.062 . S
Co330 O354 2.117 1_455 S
Co330 O355 2.020 . S
C331 O351 1.259 . S
C331 O354 1.258 . S
Co332 N341 2.057 . S
Co332 O348 2.117 1_655 S
Co332 O349 2.020 . S
Co332 O351 2.021 . S
Co332 O356 2.062 . S
C333 N335 1.316 . S
C333 N336 1.347 . S
C333 H338 0.931 . S
C334 N335 1.375 . S
C334 C337 1.350 . S
C334 H339 0.930 . S
N335 Co330 2.057 . S
N335 C333 1.316 . S
N335 C334 1.375 . S
N336 C333 1.347 . S
N336 C337 1.373 . S
C337 C334 1.350 . S
C337 N336 1.373 . S
C337 H358 0.931 . S
H338 C333 0.931 . S
H339 C334 0.930 . S
C340 O347 1.259 . S
C340 O348 1.258 . S
N341 Co332 2.057 . S
N341 C342 1.316 . S
N341 C343 1.375 . S
C342 N341 1.316 . S
C342 N344 1.347 . S
C342 H353 0.931 . S
C343 N341 1.375 . S
C343 C345 1.350 . S
C343 H352 0.930 . S
N344 C342 1.347 . S
N344 C345 1.373 . S
C345 C343 1.350 . S
C345 N344 1.373 . S
C345 H359 0.931 . S
C346 O349 1.256 . S
C346 O350 1.255 1_655 S
O347 Co330 2.021 . S
O347 C340 1.259 . S
O348 Co332 2.117 1_455 S
O348 C340 1.258 . S
O349 Co332 2.020 . S
O349 C346 1.256 . S
O350 Co330 2.062 . S
O350 C346 1.255 1_455 S
O351 C331 1.259 . S
O351 Co332 2.021 . S
H352 C343 0.930 . S
H353 C342 0.931 . S
O354 Co330 2.117 1_655 S
O354 C331 1.258 . S
O355 Co330 2.020 . S
O355 C357 1.256 . S
O356 Co332 2.062 . S
O356 C357 1.255 1_655 S
C357 O355 1.256 . S
C357 O356 1.255 1_455 S
H358 C337 0.931 . S
H359 C345 0.931 . S
Co360 N365 2.057 . S
Co360 O377 2.021 . S
Co360 O380 2.062 . S
Co360 O384 2.117 . S
Co360 O385 2.020 . S
C361 O381 1.259 . S
C361 O384 1.258 . S
Co362 N371 2.057 . S
Co362 O378 2.117 . S
Co362 O379 2.020 . S
Co362 O381 2.021 . S
Co362 O386 2.062 . S
C363 N365 1.316 . S
C363 N366 1.347 . S
C363 H368 0.931 . S
C364 N365 1.375 . S
C364 C367 1.350 . S
C364 H369 0.930 . S
N365 Co360 2.057 . S
N365 C363 1.316 . S
N365 C364 1.375 . S
N366 C363 1.347 . S
N366 C367 1.373 . S
C367 C364 1.350 . S
C367 N366 1.373 . S
C367 H388 0.931 . S
H368 C363 0.931 . S
H369 C364 0.930 . S
C370 O377 1.259 . S
C370 O378 1.258 . S
N371 Co362 2.057 . S
N371 C372 1.316 . S
N371 C373 1.375 . S
C372 N371 1.316 . S
C372 N374 1.347 . S
C372 H383 0.931 . S
C373 N371 1.375 . S
C373 C375 1.350 . S
C373 H382 0.930 . S
N374 C372 1.347 . S
N374 C375 1.373 . S
C375 C373 1.350 . S
C375 N374 1.373 . S
C375 H389 0.931 . S
C376 O379 1.256 . S
C376 O380 1.255 . S
O377 Co360 2.021 . S
O377 C370 1.259 . S
O378 Co362 2.117 . S
O378 C370 1.258 . S
O379 Co362 2.020 . S
O379 C376 1.256 . S
O380 Co360 2.062 . S
O380 C376 1.255 . S
O381 C361 1.259 . S
O381 Co362 2.021 . S
H382 C373 0.930 . S
H383 C372 0.931 . S
O384 Co360 2.117 . S
O384 C361 1.258 . S
O385 Co360 2.020 . S
O385 C387 1.256 . S
O386 Co362 2.062 . S
O386 C387 1.255 . S
C387 O385 1.256 . S
C387 O386 1.255 . S
H388 C367 0.931 . S
H389 C375 0.931 . S
Co390 N395 2.057 . S
Co390 O407 2.021 . S
Co390 O410 2.062 . S
Co390 O414 2.117 1_554 S
Co390 O415 2.020 . S
C391 O411 1.259 . S
C391 O414 1.258 . S
Co392 N401 2.057 . S
Co392 O408 2.117 1_556 S
Co392 O409 2.020 . S
Co392 O411 2.021 . S
Co392 O416 2.062 . S
C393 N395 1.316 . S
C393 N396 1.347 . S
C393 H398 0.931 . S
C394 N395 1.375 . S
C394 C397 1.350 . S
C394 H399 0.930 . S
N395 Co390 2.057 . S
N395 C393 1.316 . S
N395 C394 1.375 . S
N396 C393 1.347 . S
N396 C397 1.373 . S
C397 C394 1.350 . S
C397 N396 1.373 . S
C397 H418 0.931 . S
H398 C393 0.931 . S
H399 C394 0.930 . S
C400 O407 1.259 . S
C400 O408 1.258 . S
N401 Co392 2.057 . S
N401 C402 1.316 . S
N401 C403 1.375 . S
C402 N401 1.316 . S
C402 N404 1.347 . S
C402 H413 0.931 . S
C403 N401 1.375 . S
C403 C405 1.350 . S
C403 H412 0.930 . S
N404 C402 1.347 . S
N404 C405 1.373 . S
C405 C403 1.350 . S
C405 N404 1.373 . S
C405 H419 0.931 . S
C406 O409 1.256 . S
C406 O410 1.255 1_556 S
O407 Co390 2.021 . S
O407 C400 1.259 . S
O408 Co392 2.117 1_554 S
O408 C400 1.258 . S
O409 Co392 2.020 . S
O409 C406 1.256 . S
O410 Co390 2.062 . S
O410 C406 1.255 1_554 S
O411 C391 1.259 . S
O411 Co392 2.021 . S
H412 C403 0.930 . S
H413 C402 0.931 . S
O414 Co390 2.117 1_556 S
O414 C391 1.258 . S
O415 Co390 2.020 . S
O415 C417 1.256 . S
O416 Co392 2.062 . S
O416 C417 1.255 1_556 S
C417 O415 1.256 . S
C417 O416 1.255 1_554 S
H418 C397 0.931 . S
H419 C405 0.931 . S
Co420 N425 2.057 . S
Co420 O437 2.021 1_545 S
Co420 O440 2.062 1_545 S
Co420 O444 2.117 . S
Co420 O445 2.020 . S
C421 O441 1.259 . S
C421 O444 1.258 . S
Co422 N431 2.057 . S
Co422 O438 2.117 . S
Co422 O439 2.020 . S
Co422 O441 2.021 1_565 S
Co422 O446 2.062 1_565 S
C423 N425 1.316 . S
C423 N426 1.347 . S
C423 H428 0.931 . S
C424 N425 1.375 . S
C424 C427 1.350 . S
C424 H429 0.930 . S
N425 Co420 2.057 . S
N425 C423 1.316 . S
N425 C424 1.375 . S
N426 C423 1.347 . S
N426 C427 1.373 . S
C427 C424 1.350 . S
C427 N426 1.373 . S
C427 H448 0.931 . S
H428 C423 0.931 . S
H429 C424 0.930 . S
C430 O437 1.259 . S
C430 O438 1.258 . S
N431 Co422 2.057 . S
N431 C432 1.316 . S
N431 C433 1.375 . S
C432 N431 1.316 . S
C432 N434 1.347 . S
C432 H443 0.931 . S
C433 N431 1.375 . S
C433 C435 1.350 . S
C433 H442 0.930 . S
N434 C432 1.347 . S
N434 C435 1.373 . S
C435 C433 1.350 . S
C435 N434 1.373 . S
C435 H449 0.931 . S
C436 O439 1.256 . S
C436 O440 1.255 . S
O437 Co420 2.021 1_565 S
O437 C430 1.259 . S
O438 Co422 2.117 . S
O438 C430 1.258 . S
O439 Co422 2.020 . S
O439 C436 1.256 . S
O440 Co420 2.062 1_565 S
O440 C436 1.255 . S
O441 C421 1.259 . S
O441 Co422 2.021 1_545 S
H442 C433 0.930 . S
H443 C432 0.931 . S
O444 Co420 2.117 . S
O444 C421 1.258 . S
O445 Co420 2.020 . S
O445 C447 1.256 . S
O446 Co422 2.062 1_545 S
O446 C447 1.255 . S
C447 O445 1.256 . S
C447 O446 1.255 . S
H448 C427 0.931 . S
H449 C435 0.931 . S
Co450 N455 2.057 . S
Co450 O467 2.021 . S
Co450 O470 2.062 . S
Co450 O474 2.117 1_556 S
Co450 O475 2.020 . S
C451 O471 1.259 . S
C451 O474 1.258 . S
Co452 N461 2.057 . S
Co452 O468 2.117 1_554 S
Co452 O469 2.020 . S
Co452 O471 2.021 . S
Co452 O476 2.062 . S
C453 N455 1.316 . S
C453 N456 1.347 . S
C453 H458 0.931 . S
C454 N455 1.375 . S
C454 C457 1.350 . S
C454 H459 0.930 . S
N455 Co450 2.057 . S
N455 C453 1.316 . S
N455 C454 1.375 . S
N456 C453 1.347 . S
N456 C457 1.373 . S
C457 C454 1.350 . S
C457 N456 1.373 . S
C457 H478 0.931 . S
H458 C453 0.931 . S
H459 C454 0.930 . S
C460 O467 1.259 . S
C460 O468 1.258 . S
N461 Co452 2.057 . S
N461 C462 1.316 . S
N461 C463 1.375 . S
C462 N461 1.316 . S
C462 N464 1.347 . S
C462 H473 0.931 . S
C463 N461 1.375 . S
C463 C465 1.350 . S
C463 H472 0.930 . S
N464 C462 1.347 . S
N464 C465 1.373 . S
C465 C463 1.350 . S
C465 N464 1.373 . S
C465 H479 0.931 . S
C466 O469 1.256 . S
C466 O470 1.255 1_554 S
O467 Co450 2.021 . S
O467 C460 1.259 . S
O468 Co452 2.117 1_556 S
O468 C460 1.258 . S
O469 Co452 2.020 . S
O469 C466 1.256 . S
O470 Co450 2.062 . S
O470 C466 1.255 1_556 S
O471 C451 1.259 . S
O471 Co452 2.021 . S
H472 C463 0.930 . S
H473 C462 0.931 . S
O474 Co450 2.117 1_554 S
O474 C451 1.258 . S
O475 Co450 2.020 . S
O475 C477 1.256 . S
O476 Co452 2.062 . S
O476 C477 1.255 1_554 S
C477 O475 1.256 . S
C477 O476 1.255 1_556 S
H478 C457 0.931 . S
H479 C465 0.931 . S
C480 C481 1.387 1_455 S
C480 H484 0.950 . S
C480 C489 1.390 . S
C481 C480 1.387 1_655 S
C481 C483 1.387 . S
H482 C489 0.950 . S
C483 C481 1.387 . S
C483 C485 1.390 . S
C483 H487 0.950 . S
H484 C480 0.950 . S
C485 C483 1.390 . S
C485 C486 1.387 . S
C485 H488 0.950 . S
C486 C485 1.387 . S
C486 C489 1.387 1_655 S
H487 C483 0.950 . S
H488 C485 0.950 . S
C489 C480 1.390 . S
C489 H482 0.950 . S
C489 C486 1.387 1_455 S
C490 C491 1.387 . S
C490 H494 0.950 . S
C490 C499 1.390 . S
C491 C490 1.387 . S
C491 C493 1.387 . S
H492 C499 0.950 . S
C493 C491 1.387 . S
C493 C495 1.390 . S
C493 H497 0.950 . S
H494 C490 0.950 . S
C495 C493 1.390 . S
C495 C496 1.387 . S
C495 H498 0.950 . S
C496 C495 1.387 . S
C496 C499 1.387 . S
H497 C493 0.950 . S
H498 C495 0.950 . S
C499 C490 1.390 . S
C499 H492 0.950 . S
C499 C496 1.387 . S
C500 C501 1.387 . S
C500 H504 0.950 . S
C500 C509 1.390 . S
C501 C500 1.387 . S
C501 C503 1.387 . S
H502 C509 0.950 . S
C503 C501 1.387 . S
C503 C505 1.390 . S
C503 H507 0.950 . S
H504 C500 0.950 . S
C505 C503 1.390 . S
C505 C506 1.387 . S
C505 H508 0.950 . S
C506 C505 1.387 . S
C506 C509 1.387 . S
H507 C503 0.950 . S
H508 C505 0.950 . S
C509 C500 1.390 . S
C509 H502 0.950 . S
C509 C506 1.387 . S
C510 C511 1.387 . S
C510 H514 0.950 . S
C510 C519 1.390 . S
C511 C510 1.387 . S
C511 C513 1.387 . S
H512 C519 0.950 . S
C513 C511 1.387 . S
C513 C515 1.390 . S
C513 H517 0.950 . S
H514 C510 0.950 . S
C515 C513 1.390 . S
C515 C516 1.387 . S
C515 H518 0.950 . S
C516 C515 1.387 . S
C516 C519 1.387 . S
H517 C513 0.950 . S
H518 C515 0.950 . S
C519 C510 1.390 . S
C519 H512 0.950 . S
C519 C516 1.387 . S
C520 C521 1.387 . S
C520 H524 0.950 . S
C520 C529 1.390 . S
C521 C520 1.387 . S
C521 C523 1.387 . S
H522 C529 0.950 . S
C523 C521 1.387 . S
C523 C525 1.390 . S
C523 H527 0.950 1_565 S
H524 C520 0.950 . S
C525 C523 1.390 . S
C525 C526 1.387 . S
C525 H528 0.950 1_565 S
C526 C525 1.387 . S
C526 C529 1.387 . S
H527 C523 0.950 1_545 S
H528 C525 0.950 1_545 S
C529 C520 1.390 . S
C529 H522 0.950 . S
C529 C526 1.387 . S
C530 C531 1.387 . S
C530 H534 0.950 1_455 S
C530 C539 1.390 1_455 S
C531 C530 1.387 . S
C531 C533 1.387 . S
H532 C539 0.957 . S
C533 C531 1.387 . S
C533 C535 1.390 . S
C533 H537 0.950 . S
H534 C530 0.950 1_655 S
C535 C533 1.390 . S
C535 C536 1.387 . S
C535 H538 0.950 . S
C536 C535 1.387 . S
C536 C539 1.380 1_455 S
H537 C533 0.950 . S
H538 C535 0.950 . S
C539 C530 1.390 1_655 S
C539 H532 0.957 . S
C539 C536 1.380 1_655 S
C540 C541 1.387 . S
C540 H544 0.950 . S
C540 C549 1.390 . S
C541 C540 1.387 . S
C541 C543 1.387 . S
H542 C549 0.950 . S
C543 C541 1.387 . S
C543 C545 1.390 . S
C543 H547 0.950 . S
H544 C540 0.950 . S
C545 C543 1.390 . S
C545 C546 1.387 . S
C545 H548 0.950 . S
C546 C545 1.387 . S
C546 C549 1.387 . S
H547 C543 0.950 . S
H548 C545 0.950 . S
C549 C540 1.390 . S
C549 H542 0.950 . S
C549 C546 1.387 . S
C550 C551 1.387 . S
C550 H554 0.950 . S
C550 C559 1.390 . S
C551 C550 1.387 . S
C551 C553 1.387 . S
H552 C559 0.950 . S
C553 C551 1.387 . S
C553 C555 1.390 . S
C553 H557 0.950 . S
H554 C550 0.950 . S
C555 C553 1.390 . S
C555 C556 1.387 . S
C555 H558 0.950 . S
C556 C555 1.387 . S
C556 C559 1.387 . S
H557 C553 0.950 . S
H558 C555 0.950 . S
C559 C550 1.390 . S
C559 H552 0.950 . S
C559 C556 1.387 . S
C560 C561 1.387 . S
C560 H564 0.950 . S
C560 C569 1.390 . S
C561 C560 1.387 . S
C561 C563 1.387 . S
H562 C569 0.950 . S
C563 C561 1.387 . S
C563 C565 1.390 . S
C563 H567 0.950 . S
H564 C560 0.950 . S
C565 C563 1.390 . S
C565 C566 1.387 . S
C565 H568 0.950 . S
C566 C565 1.387 . S
C566 C569 1.387 . S
H567 C563 0.950 . S
H568 C565 0.950 . S
C569 C560 1.390 . S
C569 H562 0.950 . S
C569 C566 1.387 . S
C570 C571 1.387 . S
C570 H574 0.950 . S
C570 C579 1.390 . S
C571 C570 1.387 . S
C571 C573 1.387 . S
H572 C579 0.950 . S
C573 C571 1.387 . S
C573 C575 1.390 . S
C573 H577 0.950 . S
H574 C570 0.950 . S
C575 C573 1.390 . S
C575 C576 1.387 . S
C575 H578 0.950 . S
C576 C575 1.387 . S
C576 C579 1.387 . S
H577 C573 0.950 . S
H578 C575 0.950 . S
C579 C570 1.390 . S
C579 H572 0.950 . S
C579 C576 1.387 . S
C580 C581 1.387 . S
C580 H584 0.950 1_565 S
C580 C589 1.390 . S
C581 C580 1.387 . S
C581 C583 1.387 . S
H582 C589 0.950 1_545 S
C583 C581 1.387 . S
C583 C585 1.390 . S
C583 H587 0.950 . S
H584 C580 0.950 1_545 S
C585 C583 1.390 . S
C585 C586 1.387 . S
C585 H588 0.950 . S
C586 C585 1.387 . S
C586 C589 1.387 . S
H587 C583 0.950 . S
H588 C585 0.950 . S
C589 C580 1.390 . S
C589 H582 0.950 1_565 S
C589 C586 1.387 . S
C590 C591 1.387 1_655 S
C590 H594 0.950 . S
C590 C599 1.390 . S
C591 C590 1.387 1_455 S
C591 C593 1.387 . S
H592 C599 0.950 . S
C593 C591 1.387 . S
C593 C595 1.390 . S
C593 H597 0.950 . S
H594 C590 0.950 . S
C595 C593 1.390 . S
C595 C596 1.387 . S
C595 H598 0.950 . S
C596 C595 1.387 . S
C596 C599 1.387 1_455 S
H597 C593 0.950 . S
H598 C595 0.950 . S
C599 C590 1.390 . S
C599 H592 0.950 . S
C599 C596 1.387 1_655 S
C600 C601 1.387 1_554 S
C600 H604 0.950 . S
C600 C609 1.390 . S
C601 C600 1.387 1_556 S
C601 C603 1.387 . S
H602 C609 0.950 . S
C603 C601 1.387 . S
C603 C605 1.390 . S
C603 H607 0.950 . S
H604 C600 0.950 . S
C605 C603 1.390 . S
C605 C606 1.387 . S
C605 H608 0.950 . S
C606 C605 1.387 . S
C606 C609 1.387 1_556 S
H607 C603 0.950 . S
H608 C605 0.950 . S
C609 C600 1.390 . S
C609 H602 0.950 . S
C609 C606 1.387 1_554 S
C610 C611 1.387 . S
C610 H614 0.950 . S
C610 C619 1.390 . S
C611 C610 1.387 . S
C611 C613 1.387 . S
H612 C619 0.950 . S
C613 C611 1.387 . S
C613 C615 1.390 . S
C613 H617 0.950 . S
H614 C610 0.950 . S
C615 C613 1.390 . S
C615 C616 1.387 . S
C615 H618 0.950 . S
C616 C615 1.387 . S
C616 C619 1.387 . S
H617 C613 0.950 . S
H618 C615 0.950 . S
C619 C610 1.390 . S
C619 H612 0.950 . S
C619 C616 1.387 . S
C620 C621 1.387 . S
C620 H624 0.950 . S
C620 C629 1.390 . S
C621 C620 1.387 . S
C621 C623 1.387 . S
H622 C629 0.950 . S
C623 C621 1.387 . S
C623 C625 1.390 . S
C623 H627 0.950 . S
H624 C620 0.950 . S
C625 C623 1.390 . S
C625 C626 1.387 . S
C625 H628 0.950 . S
C626 C625 1.387 . S
C626 C629 1.387 . S
H627 C623 0.950 . S
H628 C625 0.950 . S
C629 C620 1.390 . S
C629 H622 0.950 . S
C629 C626 1.387 . S
C630 C631 1.387 . S
C630 H634 0.950 . S
C630 C639 1.390 . S
C631 C630 1.387 . S
C631 C633 1.387 . S
H632 C639 0.950 . S
C633 C631 1.387 . S
C633 C635 1.390 . S
C633 H637 0.950 . S
H634 C630 0.950 . S
C635 C633 1.390 . S
C635 C636 1.387 . S
C635 H638 0.950 . S
C636 C635 1.387 . S
C636 C639 1.387 . S
H637 C633 0.950 . S
H638 C635 0.950 . S
C639 C630 1.390 . S
C639 H632 0.950 . S
C639 C636 1.387 . S
C640 C641 1.387 . S
C640 H644 0.950 . S
C640 C649 1.390 . S
C641 C640 1.387 . S
C641 C643 1.387 . S
H642 C649 0.950 . S
C643 C641 1.387 . S
C643 C645 1.390 . S
C643 H647 0.950 . S
H644 C640 0.950 . S
C645 C643 1.390 . S
C645 C646 1.387 . S
C645 H648 0.950 . S
C646 C645 1.387 . S
C646 C649 1.387 . S
H647 C643 0.950 . S
H648 C645 0.950 . S
C649 C640 1.390 . S
C649 H642 0.950 . S
C649 C646 1.387 . S
C650 C651 1.387 . S
C650 H654 0.950 . S
C650 C659 1.390 . S
C651 C650 1.387 . S
C651 C653 1.387 . S
H652 C659 0.950 . S
C653 C651 1.387 . S
C653 C655 1.390 . S
C653 H657 0.950 . S
H654 C650 0.950 . S
C655 C653 1.390 . S
C655 C656 1.387 . S
C655 H658 0.950 . S
C656 C655 1.387 . S
C656 C659 1.387 . S
H657 C653 0.950 . S
H658 C655 0.950 . S
C659 C650 1.390 . S
C659 H652 0.950 . S
C659 C656 1.387 . S
C660 C661 1.387 . S
C660 H664 0.950 . S
C660 C669 1.390 . S
C661 C660 1.387 . S
C661 C663 1.387 . S
H662 C669 0.950 . S
C663 C661 1.387 . S
C663 C665 1.390 . S
C663 H667 0.950 . S
H664 C660 0.950 . S
C665 C663 1.390 . S
C665 C666 1.387 . S
C665 H668 0.950 . S
C666 C665 1.387 . S
C666 C669 1.387 . S
H667 C663 0.950 . S
H668 C665 0.950 . S
C669 C660 1.390 . S
C669 H662 0.950 . S
C669 C666 1.387 . S
C670 C671 1.387 . S
C670 H674 0.950 . S
C670 C679 1.390 . S
C671 C670 1.387 . S
C671 C673 1.387 . S
H672 C679 0.950 . S
C673 C671 1.387 . S
C673 C675 1.390 . S
C673 H677 0.950 . S
H674 C670 0.950 . S
C675 C673 1.390 . S
C675 C676 1.387 . S
C675 H678 0.950 . S
C676 C675 1.387 . S
C676 C679 1.387 . S
H677 C673 0.950 . S
H678 C675 0.950 . S
C679 C670 1.390 . S
C679 H672 0.950 . S
C679 C676 1.387 . S
C680 C681 1.387 . S
C680 H684 0.950 . S
C680 C689 1.390 . S
C681 C680 1.387 . S
C681 C683 1.387 . S
H682 C689 0.950 . S
C683 C681 1.387 . S
C683 C685 1.390 . S
C683 H687 0.950 . S
H684 C680 0.950 . S
C685 C683 1.390 . S
C685 C686 1.387 . S
C685 H688 0.950 . S
C686 C685 1.387 . S
C686 C689 1.387 . S
H687 C683 0.950 . S
H688 C685 0.950 . S
C689 C680 1.390 . S
C689 H682 0.950 . S
C689 C686 1.387 . S
C690 C691 1.387 . S
C690 H694 0.950 . S
C690 C699 1.390 . S
C691 C690 1.387 . S
C691 C693 1.387 1_655 S
H692 C699 0.950 . S
C693 C691 1.387 1_455 S
C693 C695 1.390 . S
C693 H697 0.950 . S
H694 C690 0.950 . S
C695 C693 1.390 . S
C695 C696 1.387 1_455 S
C695 H698 0.950 . S
C696 C695 1.387 1_655 S
C696 C699 1.387 . S
H697 C693 0.950 . S
H698 C695 0.950 . S
C699 C690 1.390 . S
C699 H692 0.950 . S
C699 C696 1.387 . S
C700 C701 1.387 . S
C700 H704 0.950 . S
C700 C709 1.390 . S
C701 C700 1.387 . S
C701 C703 1.387 . S
H702 C709 0.950 . S
C703 C701 1.387 . S
C703 C705 1.390 . S
C703 H707 0.950 . S
H704 C700 0.950 . S
C705 C703 1.390 . S
C705 C706 1.387 . S
C705 H708 0.950 . S
C706 C705 1.387 . S
C706 C709 1.387 . S
H707 C703 0.950 . S
H708 C705 0.950 . S
C709 C700 1.390 . S
C709 H702 0.950 . S
C709 C706 1.387 . S
C710 C711 1.387 . S
C710 H714 0.950 . S
C710 C719 1.390 . S
C711 C710 1.387 . S
C711 C713 1.387 . S
H712 C719 0.950 . S
C713 C711 1.387 . S
C713 C715 1.390 . S
C713 H717 0.950 . S
H714 C710 0.950 . S
C715 C713 1.390 . S
C715 C716 1.387 . S
C715 H718 0.950 . S
C716 C715 1.387 . S
C716 C719 1.387 . S
H717 C713 0.950 . S
H718 C715 0.950 . S
C719 C710 1.390 . S
C719 H712 0.950 . S
C719 C716 1.387 . S
C720 C721 1.387 . S
C720 H724 0.950 . S
C720 C729 1.390 . S
C721 C720 1.387 . S
C721 C723 1.387 . S
H722 C729 0.950 . S
C723 C721 1.387 . S
C723 C725 1.390 . S
C723 H727 0.950 . S
H724 C720 0.950 . S
C725 C723 1.390 . S
C725 C726 1.387 . S
C725 H728 0.950 . S
C726 C725 1.387 . S
C726 C729 1.387 . S
H727 C723 0.950 . S
H728 C725 0.950 . S
C729 C720 1.390 . S
C729 H722 0.950 . S
C729 C726 1.387 . S
C730 C731 1.387 . S
C730 H734 0.950 . S
C730 C739 1.390 . S
C731 C730 1.387 . S
C731 C733 1.387 . S
H732 C739 0.950 . S
C733 C731 1.387 . S
C733 C735 1.390 . S
C733 H737 0.950 . S
H734 C730 0.950 . S
C735 C733 1.390 . S
C735 C736 1.387 . S
C735 H738 0.950 . S
C736 C735 1.387 . S
C736 C739 1.387 . S
H737 C733 0.950 . S
H738 C735 0.950 . S
C739 C730 1.390 . S
C739 H732 0.950 . S
C739 C736 1.387 . S
C740 C741 1.387 . S
C740 H744 0.950 . S
C740 C749 1.390 . S
C741 C740 1.387 . S
C741 C743 1.387 . S
H742 C749 0.950 . S
C743 C741 1.387 . S
C743 C745 1.390 . S
C743 H747 0.950 1_545 S
H744 C740 0.950 . S
C745 C743 1.390 . S
C745 C746 1.387 . S
C745 H748 0.950 1_545 S
C746 C745 1.387 . S
C746 C749 1.387 . S
H747 C743 0.950 1_565 S
H748 C745 0.950 1_565 S
C749 C740 1.390 . S
C749 H742 0.950 . S
C749 C746 1.387 . S
C750 C751 1.387 . S
C750 H754 0.950 . S
C750 C759 1.390 . S
C751 C750 1.387 . S
C751 C753 1.387 1_554 S
H752 C759 0.950 . S
C753 C751 1.387 1_556 S
C753 C755 1.390 . S
C753 H757 0.950 . S
H754 C750 0.950 . S
C755 C753 1.390 . S
C755 C756 1.387 1_556 S
C755 H758 0.950 . S
C756 C755 1.387 1_554 S
C756 C759 1.387 . S
H757 C753 0.950 . S
H758 C755 0.950 . S
C759 C750 1.390 . S
C759 H752 0.950 . S
C759 C756 1.387 . S
C760 C761 1.387 . S
C760 H764 0.950 . S
C760 C769 1.390 . S
C761 C760 1.387 . S
C761 C763 1.387 . S
H762 C769 0.950 . S
C763 C761 1.387 . S
C763 C765 1.390 . S
C763 H767 0.950 . S
H764 C760 0.950 . S
C765 C763 1.390 . S
C765 C766 1.387 . S
C765 H768 0.950 . S
C766 C765 1.387 . S
C766 C769 1.387 . S
H767 C763 0.950 . S
H768 C765 0.950 . S
C769 C760 1.390 . S
C769 H762 0.950 . S
C769 C766 1.387 . S
C770 C771 1.387 . S
C770 H774 0.950 . S
C770 C779 1.390 . S
C771 C770 1.387 . S
C771 C773 1.387 . S
H772 C779 0.950 . S
C773 C771 1.387 . S
C773 C775 1.390 . S
C773 H777 0.950 . S
H774 C770 0.950 . S
C775 C773 1.390 . S
C775 C776 1.387 . S
C775 H778 0.950 . S
C776 C775 1.387 . S
C776 C779 1.387 . S
H777 C773 0.950 . S
H778 C775 0.950 . S
C779 C770 1.390 . S
C779 H772 0.950 . S
C779 C776 1.387 . S
C780 C781 1.387 . S
C780 H784 0.950 . S
C780 C789 1.390 . S
C781 C780 1.387 . S
C781 C783 1.387 . S
H782 C789 0.950 . S
C783 C781 1.387 . S
C783 C785 1.390 . S
C783 H787 0.950 . S
H784 C780 0.950 . S
C785 C783 1.390 . S
C785 C786 1.387 . S
C785 H788 0.950 . S
C786 C785 1.387 . S
C786 C789 1.387 . S
H787 C783 0.950 . S
H788 C785 0.950 . S
C789 C780 1.390 . S
C789 H782 0.950 . S
C789 C786 1.387 . S
C790 C791 1.387 . S
C790 H794 0.950 . S
C790 C799 1.390 . S
C791 C790 1.387 . S
C791 C793 1.387 . S
H792 C799 0.950 . S
C793 C791 1.387 . S
C793 C795 1.390 . S
C793 H797 0.950 . S
H794 C790 0.950 . S
C795 C793 1.390 . S
C795 C796 1.387 . S
C795 H798 0.950 . S
C796 C795 1.387 . S
C796 C799 1.387 . S
H797 C793 0.950 . S
H798 C795 0.950 . S
C799 C790 1.390 . S
C799 H792 0.950 . S
C799 C796 1.387 . S
C800 C801 1.387 . S
C800 H804 0.950 . S
C800 C809 1.390 . S
C801 C800 1.387 . S
C801 C803 1.387 . S
H802 C809 0.950 . S
C803 C801 1.387 . S
C803 C805 1.390 . S
C803 H807 0.950 . S
H804 C800 0.950 . S
C805 C803 1.390 . S
C805 C806 1.387 . S
C805 H808 0.950 . S
C806 C805 1.387 . S
C806 C809 1.387 . S
H807 C803 0.950 . S
H808 C805 0.950 . S
C809 C800 1.390 . S
C809 H802 0.950 . S
C809 C806 1.387 . S
C810 C811 1.387 . S
C810 H814 0.950 . S
C810 C819 1.390 . S
C811 C810 1.387 . S
C811 C813 1.387 . S
H812 C819 0.950 . S
C813 C811 1.387 . S
C813 C815 1.390 . S
C813 H817 0.950 . S
H814 C810 0.950 . S
C815 C813 1.390 . S
C815 C816 1.387 . S
C815 H818 0.950 . S
C816 C815 1.387 . S
C816 C819 1.387 . S
H817 C813 0.950 . S
H818 C815 0.950 . S
C819 C810 1.390 . S
C819 H812 0.950 . S
C819 C816 1.387 . S
C820 C821 1.387 . S
C820 H824 0.950 . S
C820 C829 1.390 . S
C821 C820 1.387 . S
C821 C823 1.387 . S
H822 C829 0.950 . S
C823 C821 1.387 . S
C823 C825 1.390 . S
C823 H827 0.950 . S
H824 C820 0.950 . S
C825 C823 1.390 . S
C825 C826 1.387 . S
C825 H828 0.950 . S
C826 C825 1.387 . S
C826 C829 1.387 . S
H827 C823 0.950 . S
H828 C825 0.950 . S
C829 C820 1.390 . S
C829 H822 0.950 . S
C829 C826 1.387 . S
C830 C831 1.387 . S
C830 H834 0.950 . S
C830 C839 1.390 . S
C831 C830 1.387 . S
C831 C833 1.387 . S
H832 C839 0.950 . S
C833 C831 1.387 . S
C833 C835 1.390 . S
C833 H837 0.950 . S
H834 C830 0.950 . S
C835 C833 1.390 . S
C835 C836 1.387 . S
C835 H838 0.950 . S
C836 C835 1.387 . S
C836 C839 1.387 . S
H837 C833 0.950 . S
H838 C835 0.950 . S
C839 C830 1.390 . S
C839 H832 0.950 . S
C839 C836 1.387 . S
C840 C841 1.387 . S
C840 H844 0.950 . S
C840 C849 1.390 . S
C841 C840 1.387 . S
C841 C843 1.387 . S
H842 C849 0.950 . S
C843 C841 1.387 . S
C843 C845 1.390 . S
C843 H847 0.950 . S
H844 C840 0.950 . S
C845 C843 1.390 . S
C845 C846 1.387 . S
C845 H848 0.950 . S
C846 C845 1.387 . S
C846 C849 1.387 . S
H847 C843 0.950 . S
H848 C845 0.950 . S
C849 C840 1.390 . S
C849 H842 0.950 . S
C849 C846 1.387 . S
C850 C851 1.387 1_556 S
C850 H854 0.950 . S
C850 C859 1.390 . S
C851 C850 1.387 1_554 S
C851 C853 1.387 . S
H852 C859 0.950 . S
C853 C851 1.387 . S
C853 C855 1.390 . S
C853 H857 0.950 . S
H854 C850 0.950 . S
C855 C853 1.390 . S
C855 C856 1.387 . S
C855 H858 0.950 . S
C856 C855 1.387 . S
C856 C859 1.387 1_554 S
H857 C853 0.950 . S
H858 C855 0.950 . S
C859 C850 1.390 . S
C859 H852 0.950 . S
C859 C856 1.387 1_556 S
C860 C861 1.387 . S
C860 H864 0.950 . S
C860 C869 1.390 . S
C861 C860 1.387 . S
C861 C863 1.387 . S
H862 C869 0.950 . S
C863 C861 1.387 . S
C863 C865 1.390 . S
C863 H867 0.950 . S
H864 C860 0.950 . S
C865 C863 1.390 . S
C865 C866 1.387 . S
C865 H868 0.950 . S
C866 C865 1.387 . S
C866 C869 1.387 . S
H867 C863 0.950 . S
H868 C865 0.950 . S
C869 C860 1.390 . S
C869 H862 0.950 . S
C869 C866 1.387 . S
C870 C871 1.387 . S
C870 H874 0.950 . S
C870 C879 1.390 . S
C871 C870 1.387 . S
C871 C873 1.387 . S
H872 C879 0.950 . S
C873 C871 1.387 . S
C873 C875 1.390 . S
C873 H877 0.950 . S
H874 C870 0.950 . S
C875 C873 1.390 . S
C875 C876 1.387 . S
C875 H878 0.950 . S
C876 C875 1.387 . S
C876 C879 1.387 . S
H877 C873 0.950 . S
H878 C875 0.950 . S
C879 C870 1.390 . S
C879 H872 0.950 . S
C879 C876 1.387 . S
C880 C881 1.387 . S
C880 H884 0.950 . S
C880 C889 1.390 . S
C881 C880 1.387 . S
C881 C883 1.387 . S
H882 C889 0.950 . S
C883 C881 1.387 . S
C883 C885 1.390 . S
C883 H887 0.950 . S
H884 C880 0.950 . S
C885 C883 1.390 . S
C885 C886 1.387 . S
C885 H888 0.950 . S
C886 C885 1.387 . S
C886 C889 1.387 . S
H887 C883 0.950 . S
H888 C885 0.950 . S
C889 C880 1.390 . S
C889 H882 0.950 . S
C889 C886 1.387 . S
C890 C891 1.387 . S
C890 H894 0.950 . S
C890 C899 1.390 . S
C891 C890 1.387 . S
C891 C893 1.387 . S
H892 C899 0.950 . S
C893 C891 1.387 . S
C893 C895 1.390 . S
C893 H897 0.950 . S
H894 C890 0.950 . S
C895 C893 1.390 . S
C895 C896 1.387 . S
C895 H898 0.950 . S
C896 C895 1.387 . S
C896 C899 1.387 . S
H897 C893 0.950 . S
H898 C895 0.950 . S
C899 C890 1.390 . S
C899 H892 0.950 . S
C899 C896 1.387 . S
C900 C901 1.387 1_554 S
C900 H904 0.950 . S
C900 C909 1.390 . S
C901 C900 1.387 1_556 S
C901 C903 1.387 . S
H902 C909 0.950 . S
C903 C901 1.387 . S
C903 C905 1.390 . S
C903 H907 0.950 . S
H904 C900 0.950 . S
C905 C903 1.390 . S
C905 C906 1.387 . S
C905 H908 0.950 . S
C906 C905 1.387 . S
C906 C909 1.387 1_556 S
H907 C903 0.950 . S
H908 C905 0.950 . S
C909 C900 1.390 . S
C909 H902 0.950 . S
C909 C906 1.387 1_554 S
C910 C911 1.387 . S
C910 H914 0.950 . S
C910 C919 1.390 . S
C911 C910 1.387 . S
C911 C913 1.387 . S
H912 C919 0.950 . S
C913 C911 1.387 . S
C913 C915 1.390 . S
C913 H917 0.950 . S
H914 C910 0.950 . S
C915 C913 1.390 . S
C915 C916 1.387 . S
C915 H918 0.950 . S
C916 C915 1.387 . S
C916 C919 1.387 . S
H917 C913 0.950 . S
H918 C915 0.950 . S
C919 C910 1.390 . S
C919 H912 0.950 . S
C919 C916 1.387 . S
C920 C921 1.387 . S
C920 H924 0.950 . S
C920 C929 1.390 . S
C921 C920 1.387 . S
C921 C923 1.387 . S
H922 C929 0.950 . S
C923 C921 1.387 . S
C923 C925 1.390 . S
C923 H927 0.950 . S
H924 C920 0.950 . S
C925 C923 1.390 . S
C925 C926 1.387 . S
C925 H928 0.950 . S
C926 C925 1.387 . S
C926 C929 1.387 . S
H927 C923 0.950 . S
H928 C925 0.950 . S
C929 C920 1.390 . S
C929 H922 0.950 . S
C929 C926 1.387 . S
C930 C931 1.387 . S
C930 H934 0.950 . S
C930 C939 1.390 . S
C931 C930 1.387 . S
C931 C933 1.387 . S
H932 C939 0.950 . S
C933 C931 1.387 . S
C933 C935 1.390 . S
C933 H937 0.950 . S
H934 C930 0.950 . S
C935 C933 1.390 . S
C935 C936 1.387 . S
C935 H938 0.950 . S
C936 C935 1.387 . S
C936 C939 1.387 . S
H937 C933 0.950 . S
H938 C935 0.950 . S
C939 C930 1.390 . S
C939 H932 0.950 . S
C939 C936 1.387 . S
C940 C941 1.387 . S
C940 H944 0.950 . S
C940 C949 1.390 . S
C941 C940 1.387 . S
C941 C943 1.387 . S
H942 C949 0.950 . S
C943 C941 1.387 . S
C943 C945 1.390 . S
C943 H947 0.950 . S
H944 C940 0.950 . S
C945 C943 1.390 . S
C945 C946 1.387 . S
C945 H948 0.950 . S
C946 C945 1.387 . S
C946 C949 1.387 . S
H947 C943 0.950 . S
H948 C945 0.950 . S
C949 C940 1.390 . S
C949 H942 0.950 . S
C949 C946 1.387 . S
C950 C951 1.387 . S
C950 H954 0.950 . S
C950 C959 1.390 . S
C951 C950 1.387 . S
C951 C953 1.387 . S
H952 C959 0.950 . S
C953 C951 1.387 . S
C953 C955 1.390 . S
C953 H957 0.950 . S
H954 C950 0.950 . S
C955 C953 1.390 . S
C955 C956 1.387 . S
C955 H958 0.950 . S
C956 C955 1.387 . S
C956 C959 1.387 . S
H957 C953 0.950 . S
H958 C955 0.950 . S
C959 C950 1.390 . S
C959 H952 0.950 . S
C959 C956 1.387 . S
C481 C1 1.311 . S
C486 C46 1.342 . S
C491 C61 0.854 . S
C496 N44 0.866 . S
C501 N104 0.576 . S
C506 N66 0.555 . S
C511 N6 0.928 . S
C516 C106 0.930 . S
C521 N14 0.925 . S
C526 C297 0.917 . S
C531 C220 1.314 . S
C536 C57 1.346 . S
C541 C70 0.856 . S
C546 N306 0.867 . S
C551 N96 0.576 . S
C556 N404 0.563 . S
C561 C250 0.855 . S
C566 N36 0.861 . S
C571 N366 0.584 . S
C576 N74 0.564 . S
C581 N434 0.929 . S
C586 C117 0.925 . S
C591 C10 1.313 . S
C596 C357 1.351 . S
C601 C27 1.392 . S
C606 C256 1.353 . S
C611 C361 1.385 . S
C616 C130 1.441 . S
C621 C177 1.357 . S
C626 C436 1.394 . S
C631 C340 1.441 . S
C636 C181 1.384 . S
C641 C87 1.356 . S
C646 C226 1.394 . S
C651 C280 1.387 . S
C656 C121 1.443 . S
C661 C190 1.385 . S
C666 C301 1.441 . S
C671 C160 0.859 . S
C676 N336 0.866 . S
C681 N276 0.582 . S
C686 N164 0.564 . S
C691 C346 1.346 . S
C696 C211 1.314 . S
C701 C151 0.858 . S
C706 N134 0.868 . S
C711 N284 0.576 . S
C716 N246 0.552 . S
C721 C391 0.857 . S
C726 N344 0.872 . S
C731 N194 0.576 . S
C736 N156 0.558 . S
C741 C286 0.925 . S
C746 N426 0.929 . S
C751 C417 1.357 . S
C756 C16 1.396 . S
C761 C76 1.356 . S
C766 C447 1.390 . S
C771 C370 1.386 . S
C776 C31 1.442 . S
C781 C237 1.392 . S
C786 C166 1.353 . S
C791 C91 1.384 . S
C796 C310 1.439 . S
C801 N374 0.584 . S
C806 N396 0.561 . S
C811 N216 0.926 . S
C816 C376 0.923 . S
C821 C207 0.922 . S
C826 N224 0.923 . S
C831 N126 0.864 . S
C836 C400 0.851 . S
C841 C387 0.925 . S
C846 N464 0.926 . S
C851 C466 1.392 . S
C856 C267 1.356 . S
C861 C40 1.441 . S
C866 C271 1.382 . S
C871 N254 0.557 . S
C876 N186 0.578 . S
C881 C241 0.859 . S
C886 N314 0.871 . S
C891 N456 0.929 . S
C896 C196 0.928 . S
C901 C406 1.356 . S
C906 C477 1.392 . S
C911 C331 1.441 . S
C916 C100 1.391 . S
C921 C316 1.347 . S
C926 C421 1.310 . S
C931 C327 1.346 . S
C936 C460 1.313 . S
C941 C147 1.346 . S
C946 C430 1.315 . S
C951 C451 1.311 . S
C956 C136 1.343 . S
