# Generated by pormake.
# Topology wgu, (5)-cn, num edge types: 1
# Building blocks:
#     Node 0, Type 0, BuildingBlock: BEQFEK_clean_sbu_0, # of connection points: 5
#     Node 1, Type 0, BuildingBlock: BEQFEK_clean_sbu_0, # of connection points: 5
#     Node 2, Type 0, BuildingBlock: BEQFEK_clean_sbu_0, # of connection points: 5
#     Node 3, Type 0, BuildingBlock: BEQFEK_clean_sbu_0, # of connection points: 5
#     Node 4, Type 0, BuildingBlock: BEQFEK_clean_sbu_0, # of connection points: 5
#     Node 5, Type 0, BuildingBlock: BEQFEK_clean_sbu_0, # of connection points: 5
#     Node 6, Type 0, BuildingBlock: BEQFEK_clean_sbu_0, # of connection points: 5
#     Node 7, Type 0, BuildingBlock: BEQFEK_clean_sbu_0, # of connection points: 5
#     Edge 8, Type (0, 0), BuildingBlock: TEMPAE_clean_linker_10, # of connection points: 2
#     Edge 9, Type (0, 0), BuildingBlock: TEMPAE_clean_linker_10, # of connection points: 2
#     Edge 10, Type (0, 0), BuildingBlock: TEMPAE_clean_linker_10, # of connection points: 2
#     Edge 11, Type (0, 0), BuildingBlock: TEMPAE_clean_linker_10, # of connection points: 2
#     Edge 12, Type (0, 0), BuildingBlock: TEMPAE_clean_linker_10, # of connection points: 2
#     Edge 13, Type (0, 0), BuildingBlock: TEMPAE_clean_linker_10, # of connection points: 2
#     Edge 14, Type (0, 0), BuildingBlock: TEMPAE_clean_linker_10, # of connection points: 2
#     Edge 15, Type (0, 0), BuildingBlock: TEMPAE_clean_linker_10, # of connection points: 2
#     Edge 16, Type (0, 0), BuildingBlock: TEMPAE_clean_linker_10, # of connection points: 2
#     Edge 17, Type (0, 0), BuildingBlock: TEMPAE_clean_linker_10, # of connection points: 2
#     Edge 18, Type (0, 0), BuildingBlock: TEMPAE_clean_linker_10, # of connection points: 2
#     Edge 19, Type (0, 0), BuildingBlock: TEMPAE_clean_linker_10, # of connection points: 2
#     Edge 20, Type (0, 0), BuildingBlock: TEMPAE_clean_linker_10, # of connection points: 2
#     Edge 21, Type (0, 0), BuildingBlock: TEMPAE_clean_linker_10, # of connection points: 2
#     Edge 22, Type (0, 0), BuildingBlock: TEMPAE_clean_linker_10, # of connection points: 2
#     Edge 23, Type (0, 0), BuildingBlock: TEMPAE_clean_linker_10, # of connection points: 2
#     Edge 24, Type (0, 0), BuildingBlock: TEMPAE_clean_linker_10, # of connection points: 2
#     Edge 25, Type (0, 0), BuildingBlock: TEMPAE_clean_linker_10, # of connection points: 2
#     Edge 26, Type (0, 0), BuildingBlock: TEMPAE_clean_linker_10, # of connection points: 2
#     Edge 27, Type (0, 0), BuildingBlock: TEMPAE_clean_linker_10, # of connection points: 2
# Relax obj value: 0.461
# Max RMSD: 0.226
# Mean RMSD: 0.226
data_MOF--net-wgu--node1-BEQFEK_clean_sbu_0--edge1-TEMPAE_clean_linker_10
_symmetry_space_group_name_H-M    P1
_symmetry_Int_Tables_number       1
_symmetry_cell_setting            triclinic
loop_
_symmetry_equiv_pos_as_xyz
'x, y, z'
_cell_length_a     33.080514
_cell_length_b     33.072746
_cell_length_c     28.590723
_cell_angle_alpha  90.026573
_cell_angle_beta   89.993213
_cell_angle_gamma 90.017698
loop_
_atom_site_label
_atom_site_type_symbol
_atom_site_fract_x
_atom_site_fract_y
_atom_site_fract_z
_atom_type_partial_charge
Co0 Co 0.30044 0.39759 0.03289 0.0
Co1 Co 0.35899 0.32377 0.03371 0.0
C2 C 0.29838 0.33565 0.95623 0.0
O3 O 0.28567 0.36867 0.97384 0.0
O4 O 0.32639 0.31548 0.97588 0.0
C5 C 0.22394 0.44034 0.03415 0.0
O6 O 0.20758 0.40527 1.02376 0.0
C7 C 0.37673 0.23785 0.03716 0.0
C8 C 0.43938 0.23545 0.06364 0.0
C9 C 0.40703 0.21151 0.0504 0.0
N10 N 0.39027 0.27584 0.0422 0.0
N11 N 0.42802 0.27429 0.05738 0.0
C12 C 0.33486 0.22702 1.02164 0.0
H13 H 0.3137 0.25241 1.02815 0.0
H14 H 0.32385 0.19951 0.03979 0.0
H15 H 0.33548 0.22045 0.9836 0.0
C16 C 0.2771 0.36287 0.12572 0.0
N17 N 0.29884 0.36247 0.08576 0.0
N18 N 0.324 0.33161 0.08668 0.0
C19 C 0.31886 0.31134 0.12734 0.0
C20 C 0.28881 0.33038 0.15338 0.0
C21 C 0.24737 0.39514 0.13848 0.0
H22 H 0.25927 0.42516 0.12812 0.0
H23 H 0.21867 0.3897 0.11945 0.0
H24 H 0.24106 0.39528 0.1766 0.0
O25 O 0.35487 0.42283 1.02882 0.0
O26 O 0.39708 0.37063 1.02636 0.0
H27 H 0.37365 0.27727 0.1344 0.0
H28 H 0.33516 0.26351 0.17623 0.0
C29 C 0.34073 0.27317 0.13976 0.0
H30 H 0.33006 0.24854 0.11665 0.0
H31 H 0.44552 0.2997 0.06504 0.0
O32 O 0.26194 0.44279 0.04011 0.0
C33 C 0.39058 0.40865 1.02609 0.0
Co34 Co 0.6233 0.29984 0.53059 0.0
Co35 Co 0.6948 0.36148 0.52783 0.0
C36 C 0.68327 0.29912 0.45196 0.0
O37 O 0.65118 0.28534 0.47075 0.0
O38 O 0.70279 0.32824 0.4704 0.0
C39 C 0.57939 0.22386 0.52597 0.0
O40 O 0.60876 0.21135 0.49864 0.0
C41 C 0.77961 0.38481 0.52455 0.0
C42 C 0.78019 0.4441 0.56011 0.0
C43 C 0.80508 0.41527 0.53992 0.0
N44 N 0.74137 0.39515 0.53475 0.0
N45 N 0.74179 0.43101 0.55523 0.0
C46 C 0.79182 0.34399 0.50671 0.0
H47 H 0.76858 0.32107 0.51553 0.0
H48 H 0.82123 0.33446 0.52177 0.0
H49 H 0.79508 0.34552 0.46813 0.0
C50 C 0.66148 0.27893 0.62162 0.0
N51 N 0.66 0.30059 0.58171 0.0
N52 N 0.68993 0.3268 0.58129 0.0
C53 C 0.71165 0.32241 0.62103 0.0
C54 C 0.69435 0.29187 0.64797 0.0
C55 C 0.63053 0.24807 0.63521 0.0
H56 H 0.59982 0.26076 0.63012 0.0
H57 H 0.6336 0.22125 0.61216 0.0
H58 H 0.63381 0.23859 0.67221 0.0
O59 O 0.59562 0.35302 0.52602 0.0
O60 O 0.64604 0.39723 0.52128 0.0
H61 H 0.74304 0.37832 0.63133 0.0
H62 H 0.76278 0.33703 0.6659 0.0
C63 C 0.74954 0.34544 0.6317 0.0
H64 H 0.77234 0.33896 0.60441 0.0
H65 H 0.71607 0.44562 0.56792 0.0
O66 O 0.58042 0.25953 0.54251 0.0
C67 C 0.60831 0.38922 0.52211 0.0
Co68 Co 0.71326 0.62134 0.03572 0.0
Co69 Co 0.6522 0.69315 0.03164 0.0
C70 C 0.71435 0.68016 0.95607 0.0
O71 O 0.72981 0.65005 0.97729 0.0
O72 O 0.68367 0.69854 0.9725 0.0
C73 C 0.7902 0.57876 0.04077 0.0
O74 O 0.80707 0.61357 1.03027 0.0
C75 C 0.63149 0.77833 1.02537 0.0
C76 C 0.5745 0.78233 0.06535 0.0
C77 C 0.60316 0.80548 0.04229 0.0
N78 N 0.62012 0.74084 0.03767 0.0
N79 N 0.5855 0.74328 0.06062 0.0
C80 C 0.67179 0.78813 1.00423 0.0
H81 H 0.695 0.76659 1.01698 0.0
H82 H 0.68143 0.81943 1.01265 0.0
H83 H 0.66966 0.78504 0.96566 0.0
C84 C 0.73357 0.65928 0.1275 0.0
N85 N 0.71266 0.6578 0.08701 0.0
N86 N 0.68741 0.68855 0.08528 0.0
C87 C 0.69192 0.71084 0.12463 0.0
C88 C 0.72133 0.69303 0.15274 0.0
C89 C 0.76301 0.62763 0.14292 0.0
H90 H 0.75183 0.59723 0.13293 0.0
H91 H 0.79241 0.63287 0.12528 0.0
H92 H 0.76776 0.62855 0.18133 0.0
O93 O 0.65924 0.59486 1.02994 0.0
O94 O 0.61523 0.64552 1.0269 0.0
H95 H 0.6802 0.76433 0.16683 0.0
H96 H 0.67576 0.771 0.10499 0.0
C97 C 0.67008 0.74966 0.13403 0.0
H98 H 0.63714 0.74375 0.13604 0.0
H99 H 0.57069 0.71855 0.07547 0.0
O100 O 0.75205 0.57666 0.04555 0.0
C101 C 0.62304 0.60777 1.02692 0.0
Co102 Co 0.3955 0.70931 0.52991 0.0
Co103 Co 0.32138 0.6507 0.52782 0.0
C104 C 0.33493 0.71247 0.4519 0.0
O105 O 0.3676 0.72508 0.47046 0.0
O106 O 0.3145 0.68407 0.47045 0.0
C107 C 0.4392 0.78554 0.53544 0.0
O108 O 0.40445 0.80291 0.5259 0.0
C109 C 0.23553 0.63088 0.52415 0.0
C110 C 0.23233 0.57193 0.56019 0.0
C111 C 0.20875 0.60153 0.53946 0.0
N112 N 0.27327 0.61917 0.53495 0.0
N113 N 0.27125 0.58352 0.55575 0.0
C114 C 0.22508 0.67194 0.50564 0.0
H115 H 0.24879 0.69416 0.51517 0.0
H116 H 0.1956 0.6825 0.51958 0.0
H117 H 0.22284 0.67028 0.46697 0.0
C118 C 0.35912 0.73089 0.62256 0.0
N119 N 0.35936 0.71002 0.58196 0.0
N120 N 0.32815 0.68528 0.58123 0.0
C121 C 0.30676 0.69013 0.62114 0.0
C122 C 0.32568 0.71921 0.64872 0.0
C123 C 0.39175 0.75948 0.63744 0.0
H124 H 0.42167 0.74759 0.62677 0.0
H125 H 0.38694 0.7891 0.62015 0.0
H126 H 0.39158 0.76409 0.67589 0.0
O127 O 0.42055 0.65498 0.52519 0.0
O128 O 0.36849 0.61267 0.52114 0.0
H129 H 0.27284 0.63584 0.63201 0.0
H130 H 0.25425 0.67858 0.66507 0.0
C131 C 0.26773 0.66896 0.63141 0.0
H132 H 0.24571 0.67588 0.60345 0.0
H133 H 0.29627 0.56798 0.56881 0.0
O134 O 0.44099 0.74729 0.5392 0.0
C135 C 0.40649 0.61927 0.52168 0.0
Co136 Co 0.80647 0.12045 0.07864 0.0
Co137 Co 0.86518 0.19453 0.08096 0.0
C138 C 0.80344 0.18073 0.15693 0.0
O139 O 0.79079 0.1481 0.13828 0.0
O140 O 0.83182 0.2012 0.13841 0.0
C141 C 0.73057 0.07629 0.07567 0.0
O142 O 0.71372 0.11034 0.08909 0.0
C143 C 0.8851 0.28035 0.08541 0.0
C144 C 0.94384 0.28385 0.04895 0.0
C145 C 0.9144 0.30725 0.07028 0.0
N146 N 0.89669 0.2427 0.074 0.0
N147 N 0.93222 0.24489 0.05291 0.0
C148 C 0.84418 0.29069 0.1044 0.0
H149 H 0.82181 0.26726 0.0944 0.0
H150 H 0.83372 0.32047 0.09125 0.0
H151 H 0.846 0.29222 0.1431 0.0
C152 C 0.78456 0.15727 0.98658 0.0
N153 N 0.80569 0.15684 1.02696 0.0
N154 N 0.83054 0.18796 1.02764 0.0
C155 C 0.82556 0.20946 0.98786 0.0
C156 C 0.79626 0.19071 0.96042 0.0
C157 C 0.75556 0.12486 0.97212 0.0
H158 H 0.72663 0.12909 0.99113 0.0
H159 H 0.74955 0.12574 0.93396 0.0
H160 H 0.76795 0.09477 0.98139 0.0
O161 O 0.86077 0.09537 0.08311 0.0
O162 O 0.90315 0.14737 0.08738 0.0
H163 H 0.83686 0.26222 0.94425 0.0
H164 H 0.84026 0.27035 1.00592 0.0
C165 C 0.84678 0.24848 0.97764 0.0
H166 H 0.87986 0.24324 0.97652 0.0
H167 H 0.94765 0.21998 0.03939 0.0
O168 O 0.76851 0.07505 0.06881 0.0
C169 C 0.89648 0.10937 0.08666 0.0
Co170 Co 0.89431 0.80129 0.58303 0.0
Co171 Co 0.82281 0.86265 0.58766 0.0
C172 C 0.83607 0.80009 0.66292 0.0
O173 O 0.86582 0.78427 0.64138 0.0
O174 O 0.81797 0.83103 0.64681 0.0
C175 C 0.93728 0.72455 0.5769 0.0
O176 O 0.90269 0.70739 0.58769 0.0
C177 C 0.73735 0.88141 0.59356 0.0
C178 C 0.73265 0.94094 0.559 0.0
C179 C 0.70981 0.9104 0.57912 0.0
N180 N 0.7747 0.89419 0.58267 0.0
N181 N 0.77184 0.93019 0.56287 0.0
C182 C 0.72814 0.83966 0.61097 0.0
H183 H 0.75224 0.81829 0.60018 0.0
H184 H 0.69867 0.82871 0.59742 0.0
H185 H 0.72674 0.84021 0.64975 0.0
C186 C 0.85606 0.78137 0.49132 0.0
N187 N 0.85773 0.80217 0.53189 0.0
N188 N 0.82727 0.82776 0.5337 0.0
C189 C 0.80511 0.82378 0.49417 0.0
C190 C 0.82257 0.79416 0.46603 0.0
C191 C 0.88731 0.75152 0.47584 0.0
H192 H 0.91787 0.76254 0.48532 0.0
H193 H 0.88198 0.72232 0.49388 0.0
H194 H 0.88603 0.74642 0.4375 0.0
O195 O 0.92069 0.85542 0.58919 0.0
O196 O 0.8703 0.89974 0.59213 0.0
H197 H 0.77297 0.87948 0.48599 0.0
H198 H 0.75362 0.83884 0.45012 0.0
C199 C 0.76689 0.84655 0.48454 0.0
H200 H 0.74427 0.83904 0.51168 0.0
H201 H 0.79642 0.94644 0.54984 0.0
O202 O 0.9391 0.76276 0.57247 0.0
C203 C 0.90799 0.89172 0.59216 0.0
Co204 Co 0.21552 0.89254 0.07843 0.0
Co205 Co 0.1542 0.8208 0.08096 0.0
C206 C 0.21644 0.83255 0.15697 0.0
O207 O 0.23017 0.86469 0.13821 0.0
O208 O 0.18737 0.81298 0.13849 0.0
C209 C 0.29165 0.93637 0.08108 0.0
O210 O 0.30568 0.90541 0.10483 0.0
C211 C 0.13082 0.73594 0.08471 0.0
C212 C 0.07176 0.73518 0.04873 0.0
C213 C 0.10036 0.71041 0.06948 0.0
N214 N 0.12068 0.77412 0.07395 0.0
N215 N 0.08496 0.77359 0.05318 0.0
C216 C 0.17144 0.72376 0.10311 0.0
H217 H 0.19454 0.74675 0.09402 0.0
H218 H 0.1809 0.69407 0.08868 0.0
H219 H 0.16964 0.72108 0.14172 0.0
C220 C 0.23685 0.85436 0.98734 0.0
N221 N 0.2151 0.85586 1.0272 0.0
N222 N 0.189 0.82581 1.02759 0.0
C223 C 0.19357 0.80402 0.98792 0.0
C224 C 0.2241 0.82137 0.96103 0.0
C225 C 0.2677 0.88533 0.97378 0.0
H226 H 0.25525 0.91606 0.97956 0.0
H227 H 0.29477 0.88182 0.99631 0.0
H228 H 0.27674 0.88239 0.93658 0.0
O229 O 0.16222 0.91985 0.08298 0.0
O230 O 0.11815 0.86934 0.0874 0.0
H231 H 0.17961 0.75247 0.9434 0.0
H232 H 0.17692 0.74343 1.00498 0.0
C233 C 0.17076 0.76598 0.97733 0.0
H234 H 0.13787 0.77243 0.97711 0.0
H235 H 0.07048 0.79924 0.04012 0.0
O236 O 0.2552 0.93605 0.06701 0.0
C237 C 0.12605 0.90709 0.08668 0.0
Co238 Co 0.11701 0.21447 0.58383 0.0
Co239 Co 0.19158 0.15673 0.5829 0.0
C240 C 0.17934 0.21739 0.66012 0.0
O241 O 0.14598 0.2295 0.64285 0.0
O242 O 0.19991 0.18972 0.64035 0.0
C243 C 0.07411 0.2908 0.58196 0.0
O244 O 0.10925 0.30723 0.59186 0.0
C245 C 0.27755 0.13941 0.58 0.0
C246 C 0.28062 0.0783 0.5491 0.0
C247 C 0.30427 0.11017 0.56451 0.0
N248 N 0.23972 0.12579 0.57389 0.0
N249 N 0.24167 0.08887 0.55619 0.0
C250 C 0.28767 0.1804 0.599 0.0
H251 H 0.28729 0.17881 0.63774 0.0
H252 H 0.26466 0.20282 0.58785 0.0
H253 H 0.31815 0.19054 0.58795 0.0
C254 C 0.15113 0.2377 0.49059 0.0
N255 N 0.15193 0.21622 0.53074 0.0
N256 N 0.18321 0.19159 0.52996 0.0
C257 C 0.20351 0.19702 0.48938 0.0
C258 C 0.1839 0.22649 0.46306 0.0
C259 C 0.11824 0.26661 0.4775 0.0
H260 H 0.08851 0.25439 0.48846 0.0
H261 H 0.12333 0.29577 0.49574 0.0
H262 H 0.11772 0.2722 0.43924 0.0
O263 O 0.0923 0.15987 0.58806 0.0
O264 O 0.14498 0.11825 0.59073 0.0
H265 H 0.23871 0.14317 0.48073 0.0
H266 H 0.25341 0.18372 0.44201 0.0
C267 C 0.24245 0.17635 0.47755 0.0
H268 H 0.26591 0.18636 0.50252 0.0
H269 H 0.21646 0.07162 0.54708 0.0
O270 O 0.07159 0.25272 0.57662 0.0
C271 C 0.1069 0.12435 0.591 0.0
C272 C 0.35453 0.97711 0.09504 0.0
C273 C 0.31682 0.97274 0.07315 0.0
C274 C 0.37648 0.01337 0.09129 0.0
C275 C 0.36019 0.04585 0.06515 0.0
C276 C 0.32313 0.04081 0.0411 0.0
C277 C 0.30196 1.00434 0.04535 0.0
C278 C 0.4161 0.01757 0.11701 0.0
C279 C 0.30477 0.07467 1.01267 0.0
C280 C 0.37819 0.15529 0.09626 0.0
C281 C 0.4022 0.16801 0.05884 0.0
C282 C 0.36648 0.11479 0.10047 0.0
C283 C 0.3793 0.08649 0.06636 0.0
C284 C 0.40599 0.09881 1.03029 0.0
C285 C 0.41704 0.13974 1.02681 0.0
C286 C 0.33797 0.10301 0.13941 0.0
C287 C 0.42063 0.06943 0.99364 0.0
H288 H 0.36635 0.95273 0.11635 0.0
H289 H 0.27309 1.00106 1.02781 0.0
H290 H 0.43952 0.03074 0.09378 0.0
H291 H 0.41222 0.03852 0.14699 0.0
H292 H 0.42717 0.9881 0.13055 0.0
H293 H 0.27714 0.06496 0.99364 0.0
H294 H 0.29667 0.10019 0.03609 0.0
H295 H 0.32697 0.08623 0.98687 0.0
H296 H 0.36685 0.17752 0.12089 0.0
H297 H 0.43556 0.14995 0.99784 0.0
H298 H 0.34902 0.0755 0.15752 0.0
H299 H 0.30783 0.09584 0.12452 0.0
H300 H 0.33427 0.12754 0.16563 0.0
H301 H 0.43042 0.04064 1.01 0.0
H302 H 0.44614 0.08199 0.97295 0.0
H303 H 0.3955 0.06226 0.96932 0.0
C304 C 0.04044 0.35809 0.57057 0.0
C305 C 0.03754 0.31606 0.57634 0.0
C306 C 1.00561 0.38182 0.56407 0.0
C307 C 0.96716 0.363 0.56397 0.0
C308 C 0.96414 0.32067 0.57051 0.0
C309 C 0.99933 0.29775 0.5763 0.0
C310 C 0.00992 0.42679 0.5566 0.0
C311 C 0.92365 0.29944 0.57114 0.0
C312 C 0.86735 0.41429 0.58842 0.0
C313 C 0.84935 0.41239 0.54419 0.0
C314 C 0.90735 0.40136 0.59498 0.0
C315 C 0.92967 0.38678 0.55619 0.0
C316 C 0.91276 0.38879 0.51074 0.0
C317 C 0.87257 0.40133 0.50534 0.0
C318 C 0.92415 0.39955 0.64401 0.0
C319 C 0.93575 0.3742 0.46837 0.0
H320 H 0.06993 0.37238 0.57037 0.0
H321 H 0.99682 0.26533 0.58106 0.0
H322 H 0.99799 0.43506 0.52162 0.0
H323 H 0.99179 0.44353 0.58288 0.0
H324 H 0.04186 0.43696 0.55902 0.0
H325 H 0.92651 0.26653 0.57815 0.0
H326 H 0.90391 0.31294 0.59837 0.0
H327 H 0.90824 0.30347 0.53699 0.0
H328 H 0.84918 0.42273 0.61845 0.0
H329 H 0.85852 0.40024 0.47109 0.0
H330 H 0.95595 0.41014 0.64484 0.0
H331 H 0.92386 0.36772 0.65631 0.0
H332 H 0.90608 0.41803 0.66883 0.0
H333 H 0.96743 0.38519 0.46918 0.0
H334 H 0.9214 0.38431 0.43525 0.0
H335 H 0.93664 0.34066 0.46843 0.0
C336 C 0.66371 0.04051 0.07082 0.0
C337 C 0.7061 0.03918 0.06939 0.0
C338 C 0.64061 1.00508 0.0656 0.0
C339 C 0.66046 0.96755 0.0594 0.0
C340 C 0.70321 0.96611 0.05778 0.0
C341 C 0.72544 1.00192 0.06251 0.0
C342 C 0.59508 1.00775 0.06684 0.0
C343 C 0.7256 0.92662 0.05164 0.0
C344 C 0.61441 0.86646 0.09101 0.0
C345 C 0.60888 0.84944 0.04667 0.0
C346 C 0.62883 0.90613 0.09585 0.0
C347 C 0.63713 0.92929 0.05529 0.0
C348 C 0.62832 0.91317 1.01052 0.0
C349 C 0.61476 0.8731 1.00672 0.0
C350 C 0.63844 0.92188 0.14416 0.0
C351 C 0.63598 0.93715 0.9665 0.0
H352 H 0.64855 0.06922 0.07591 0.0
H353 H 0.75817 1.00055 0.06146 0.0
H354 H 0.58217 0.99455 0.03443 0.0
H355 H 0.5832 0.98985 0.09663 0.0
H356 H 0.58425 0.03939 0.07035 0.0
H357 H 0.75893 0.93071 0.05154 0.0
H358 H 0.71751 0.90548 0.08029 0.0
H359 H 0.71661 0.91209 1.01825 0.0
H360 H 0.61025 0.84779 0.12182 0.0
H361 H 0.61047 0.85965 0.97248 0.0
H362 H 0.6266 0.95298 0.14875 0.0
H363 H 0.67174 0.92325 0.14873 0.0
H364 H 0.62569 0.90229 0.17207 0.0
H365 H 0.62458 0.96853 0.97033 0.0
H366 H 0.62145 0.92308 0.93547 0.0
H367 H 0.669 0.93896 0.96001 0.0
C368 C 0.01221 0.71912 0.57161 0.0
C369 C 0.97434 0.70011 0.57067 0.0
C370 C 0.04792 0.69691 0.5662 0.0
C371 C 0.0458 0.65462 0.5589 0.0
C372 C 1.00769 0.63514 0.55767 0.0
C373 C 0.97232 0.65812 0.56395 0.0
C374 C 0.088 0.71882 0.56834 0.0
C375 C 1.00432 0.59021 0.54924 0.0
C376 C 0.14231 0.61741 0.50308 0.0
C377 C 0.16447 0.6057 0.5425 0.0
C378 C 0.10202 0.63004 0.5073 0.0
C379 C 0.08389 0.6315 0.55215 0.0
C380 C 0.10525 0.6166 0.59149 0.0
C381 C 0.14535 0.60355 0.58609 0.0
C382 C 0.08008 0.64495 0.46435 0.0
C383 C 0.08717 0.61793 0.63994 0.0
H384 H 0.01405 0.7515 0.57713 0.0
H385 H 0.9431 0.64331 0.56299 0.0
H386 H 0.10729 0.70546 0.59607 0.0
H387 H 0.10431 0.71531 0.53468 0.0
H388 H 0.0844 0.75163 0.57561 0.0
H389 H 0.97247 0.57957 0.54976 0.0
H390 H 0.01782 0.58248 0.51485 0.0
H391 H 0.02158 0.57344 0.57625 0.0
H392 H 0.15718 0.61863 0.4693 0.0
H393 H 0.16267 0.59459 0.61657 0.0
H394 H 0.07872 0.67847 0.46505 0.0
H395 H 0.04855 0.63354 0.46375 0.0
H396 H 0.0955 0.63552 0.43159 0.0
H397 H 0.08642 0.64972 0.65236 0.0
H398 H 0.10495 0.59977 0.66532 0.0
H399 H 0.0556 0.60665 0.63961 0.0
C400 C 0.79605 0.50378 0.04478 0.0
C401 C 0.8149 0.54174 0.04595 0.0
C402 C 0.81851 0.4681 0.04899 0.0
C403 C 0.86091 0.47034 0.05529 0.0
C404 C 0.88022 0.50853 0.05678 0.0
C405 C 0.85697 0.54387 0.05171 0.0
C406 C 0.79675 0.42794 0.04662 0.0
C407 C 0.92526 0.512 0.06417 0.0
C408 C 0.89931 0.37317 0.10833 0.0
C409 C 0.91034 0.35158 0.06821 0.0
C410 C 0.88658 0.41351 0.1052 0.0
C411 C 0.8843 0.43226 0.06076 0.0
C412 C 0.89855 0.41148 1.02066 0.0
C413 C 0.91173 0.37131 1.02496 0.0
C414 C 0.87239 0.43481 0.14892 0.0
C415 C 0.89634 0.43022 0.9726 0.0
H416 H 0.7636 0.50184 0.03999 0.0
H417 H 0.87166 0.57315 0.05283 0.0
H418 H 0.8097 0.40909 1.01822 0.0
H419 H 0.80093 0.41119 0.07988 0.0
H420 H 0.76382 0.43148 0.04023 0.0
H421 H 0.93573 0.54392 0.06407 0.0
H422 H 0.93367 0.49802 0.09807 0.0
H423 H 0.94162 0.49525 0.03639 0.0
H424 H 0.89863 0.35781 0.14182 0.0
H425 H 0.92015 0.35442 0.99394 0.0
H426 H 0.83886 0.43602 0.14911 0.0
H427 H 0.88366 0.4664 0.14982 0.0
H428 H 0.8825 0.419 0.18113 0.0
H429 H 0.86435 0.43098 0.96092 0.0
H430 H 0.91415 0.41287 0.94647 0.0
H431 H 0.90747 0.46185 0.97328 0.0
C432 C 0.47416 0.85166 0.55052 0.0
C433 C 0.47626 0.80991 0.54213 0.0
C434 C 0.50948 0.87451 0.55783 0.0
C435 C 0.54762 0.85515 0.55595 0.0
C436 C 0.54983 0.81313 0.54684 0.0
C437 C 0.51416 0.79103 0.5404 0.0
C438 C 0.50601 0.91914 0.56812 0.0
C439 C 0.58995 0.79139 0.54394 0.0
C440 C 0.64684 0.90812 0.53177 0.0
C441 C 0.66568 0.90504 0.57545 0.0
C442 C 0.60701 0.89454 0.52543 0.0
C443 C 0.58562 0.87815 0.56394 0.0
C444 C 0.60346 0.87842 0.60897 0.0
C445 C 0.6435 0.89162 0.61412 0.0
C446 C 0.58926 0.89448 0.4768 0.0
C447 C 0.58144 0.86188 0.65107 0.0
H448 H 0.44492 0.86636 0.55212 0.0
H449 H 0.51605 0.75883 0.53361 0.0
H450 H 0.51928 0.92579 0.60292 0.0
H451 H 0.52341 0.93677 0.54198 0.0
H452 H 0.47415 0.92974 0.5678 0.0
H453 H 0.58643 0.75884 0.53524 0.0
H454 H 0.60933 0.8057 0.51692 0.0
H455 H 0.60612 0.79385 0.57782 0.0
H456 H 0.66418 0.91838 0.50185 0.0
H457 H 0.65814 0.88966 0.64797 0.0
H458 H 0.55766 0.90563 0.47729 0.0
H459 H 0.58867 0.86304 0.46321 0.0
H460 H 0.60714 0.91339 0.45223 0.0
H461 H 0.54987 0.87317 0.65208 0.0
H462 H 0.59671 0.87015 0.68433 0.0
H463 H 0.58013 0.82841 0.64872 0.0
C464 C 0.21716 0.51518 0.03888 0.0
C465 C 0.19874 0.47702 0.03912 0.0
C466 C 0.19428 0.55051 0.04374 0.0
C467 C 0.15187 0.54769 0.04966 0.0
C468 C 0.13295 0.50929 0.04994 0.0
C469 C 0.15664 0.4743 0.04432 0.0
C470 C 0.21563 0.59094 0.04272 0.0
C471 C 0.0879 0.50519 0.05682 0.0
C472 C 0.1134 0.64341 0.10569 0.0
C473 C 0.10296 0.66606 0.06619 0.0
C474 C 0.12569 0.60303 0.10134 0.0
C475 C 0.12812 0.58537 0.0563 0.0
C476 C 0.11414 0.60715 1.01682 0.0
C477 C 0.10142 0.64734 1.02233 0.0
C478 C 0.13961 0.58064 0.14442 0.0
C479 C 0.11644 0.58954 0.96818 0.0
H480 H 0.24963 0.51754 0.03454 0.0
H481 H 0.14228 0.44485 0.04473 0.0
H482 H 0.20254 0.61033 1.01492 0.0
H483 H 0.21123 0.60684 0.07651 0.0
H484 H 0.24861 0.58789 0.03629 0.0
H485 H 0.07769 0.47323 0.055 0.0
H486 H 0.07924 0.51778 0.09137 0.0
H487 H 0.07152 0.52288 1.02986 0.0
H488 H 0.11421 0.65802 0.13965 0.0
H489 H 0.09345 0.66507 0.9918 0.0
H490 H 0.17313 0.57968 0.14499 0.0
H491 H 0.12855 0.54898 0.14403 0.0
H492 H 0.12908 0.59553 0.17706 0.0
H493 H 0.1484 0.58949 0.95636 0.0
H494 H 0.09834 0.60729 0.94271 0.0
H495 H 0.10571 0.55777 0.96785 0.0
C496 C 0.35891 0.14492 0.52155 0.0
C497 C 0.34748 0.11618 0.55486 0.0
C498 C 0.39941 0.15614 0.51626 0.0
C499 C 0.42916 0.13787 0.5449 0.0
C500 C 0.41802 0.10674 0.57644 0.0
C501 C 0.37701 0.09625 0.58115 0.0
C502 C 0.4099 0.1894 0.48215 0.0
C503 C 0.44897 0.08624 0.60707 0.0
C504 C 0.53638 0.16334 0.50814 0.0
C505 C 0.54371 0.19806 0.53505 0.0
C506 C 0.50007 0.14166 0.51289 0.0
C507 C 0.47065 0.15507 0.54534 0.0
C508 C 0.47907 0.18856 0.5746 0.0
C509 C 0.51546 0.20965 0.56906 0.0
C510 C 0.49224 0.10592 0.48133 0.0
C511 C 0.44862 0.20367 0.60992 0.0
H512 H 0.33583 0.15989 0.50097 0.0
H513 H 0.36787 0.07387 0.60675 0.0
H514 H 0.41991 0.21663 0.50168 0.0
H515 H 0.43527 0.17993 0.45927 0.0
H516 H 0.38382 0.19792 0.45975 0.0
H517 H 0.43665 0.05862 0.62397 0.0
H518 H 0.47613 0.0779 0.58644 0.0
H519 H 0.45886 0.10745 0.63488 0.0
H520 H 0.55821 0.15405 0.48199 0.0
H521 H 0.5212 0.23607 0.59052 0.0
H522 H 0.46967 0.11441 0.45437 0.0
H523 H 0.47946 0.08028 0.50152 0.0
H524 H 0.52016 0.09561 0.46332 0.0
H525 H 0.42192 0.21615 0.59138 0.0
H526 H 0.46128 0.22765 0.63286 0.0
H527 H 0.43786 0.17842 0.6322 0.0
C528 C 0.59114 0.54275 0.05187 0.0
C529 C 0.58946 0.57812 1.02492 0.0
C530 C 0.55907 0.51483 0.05177 0.0
C531 C 0.52513 0.5216 1.02256 0.0
C532 C 0.52384 0.55679 0.99426 0.0
C533 C 0.55564 0.58504 0.99651 0.0
C534 C 0.56108 0.47861 0.08382 0.0
C535 C 0.48893 0.56453 0.96146 0.0
C536 C 0.45866 0.42993 0.99604 0.0
C537 C 0.42508 0.43724 1.0247 0.0
C538 C 0.49099 0.45762 0.99404 0.0
C539 C 0.49045 0.49255 1.02285 0.0
C540 C 0.45687 0.49952 0.05255 0.0
C541 C 0.42429 0.47222 0.0524 0.0
C542 C 0.52549 0.44976 0.9607 0.0
C543 C 0.45561 0.53545 0.08513 0.0
H544 H 0.61712 0.53751 0.07418 0.0
H545 H 0.55443 0.61221 0.97535 0.0
H546 H 0.53473 0.47873 0.10785 0.0
H547 H 0.55951 0.45029 0.06314 0.0
H548 H 0.5892 0.47814 0.10505 0.0
H549 H 0.49384 0.59173 0.93939 0.0
H550 H 0.48433 0.53799 0.93828 0.0
H551 H 0.46069 0.56878 0.98175 0.0
H552 H 0.45918 0.40303 0.97435 0.0
H553 H 0.3985 0.47774 0.07493 0.0
H554 H 0.55405 0.44585 0.98047 0.0
H555 H 0.52961 0.47614 0.93719 0.0
H556 H 0.52041 0.42236 0.93898 0.0
H557 H 0.48261 0.5353 0.10816 0.0
H558 H 0.42808 0.53563 0.10739 0.0
H559 H 0.45644 0.56393 0.0647 0.0
C560 C 0.58504 0.45664 0.49209 0.0
C561 C 0.57837 0.42255 0.52016 0.0
C562 C 0.55638 0.48806 0.48983 0.0
C563 C 0.52097 0.48608 0.51774 0.0
C564 C 0.51444 0.45187 0.54659 0.0
C565 C 0.54282 0.42024 0.54676 0.0
C566 C 0.56391 0.52331 0.45746 0.0
C567 C 0.47798 0.44911 0.57822 0.0
C568 C 0.47003 0.58591 0.54843 0.0
C569 C 0.43529 0.58495 0.52036 0.0
C570 C 0.49775 0.55373 0.54839 0.0
C571 C 0.49148 0.52037 0.51814 0.0
C572 C 0.45676 0.51961 0.48901 0.0
C573 C 0.42863 0.55155 0.49117 0.0
C574 C 0.53343 0.55518 0.5813 0.0
C575 C 0.4496 0.48532 0.45516 0.0
H576 H 0.61234 0.45836 0.4712 0.0
H577 H 0.53773 0.39406 0.56882 0.0
H578 H 0.53752 0.5277 0.43403 0.0
H579 H 0.56757 0.55148 0.47809 0.0
H580 H 0.59137 0.51896 0.43567 0.0
H581 H 0.47767 0.4208 0.59912 0.0
H582 H 0.47756 0.47527 0.60256 0.0
H583 H 0.44983 0.45049 0.55724 0.0
H584 H 0.47506 0.61155 0.57135 0.0
H585 H 0.40194 0.55092 0.46917 0.0
H586 H 0.56205 0.55492 0.56112 0.0
H587 H 0.53348 0.52796 0.604 0.0
H588 H 0.53309 0.5825 0.60391 0.0
H589 H 0.47617 0.48185 0.43178 0.0
H590 H 0.42226 0.49018 0.43332 0.0
H591 H 0.44603 0.4565 0.47452 0.0
C592 C 0.05825 0.93008 0.1159 0.0
C593 C 0.09268 0.93699 0.08846 0.0
C594 C 0.02684 0.95877 0.11805 0.0
C595 C 0.02922 0.99445 0.09067 0.0
C596 C 0.06375 1.00121 0.06243 0.0
C597 C 0.09534 0.97279 0.06236 0.0
C598 C 0.9912 0.95097 0.14975 0.0
C599 C 0.06695 0.038 1.03137 0.0
C600 C 0.92995 0.04608 0.05931 0.0
C601 C 0.93072 0.08051 0.08792 0.0
C602 C 0.96202 0.01824 0.0594 0.0
C603 C 0.99504 0.02406 0.09023 0.0
C604 C 0.9956 0.05847 0.11988 0.0
C605 C 0.9638 0.08675 0.11768 0.0
C606 C 0.96083 0.98291 1.02593 0.0
C607 C 0.02952 0.06513 0.15434 0.0
H608 H 0.05626 0.90259 0.13641 0.0
H609 H 0.12177 0.97808 0.04077 0.0
H610 H 0.98664 0.97709 0.17356 0.0
H611 H 0.96327 0.94767 0.12865 0.0
H612 H 0.99519 0.92322 0.17114 0.0
H613 H 0.09547 0.03843 1.01086 0.0
H614 H 0.04106 0.03877 1.0067 0.0
H615 H 0.06545 0.06594 0.05275 0.0
H616 H 0.90454 0.04139 0.03597 0.0
H617 H 0.96427 0.11319 0.1401 0.0
H618 H 0.96076 0.95407 0.04567 0.0
H619 H 0.98829 0.98302 1.00362 0.0
H620 H 0.93377 0.98359 1.00293 0.0
H621 H 0.03262 0.0383 0.17736 0.0
H622 H 0.02451 0.09227 0.17651 0.0
H623 H 0.05857 0.06881 0.13546 0.0
C624 C 0.93034 0.95985 0.62093 0.0
C625 C 0.93785 0.92516 0.59411 0.0
C626 C 0.95864 0.99162 0.62291 0.0
C627 C 0.99457 0.98935 0.59596 0.0
C628 C 1.00201 0.95449 0.56844 0.0
C629 C 0.97395 0.92254 0.56856 0.0
C630 C 0.95012 0.02759 0.6539 0.0
C631 C 0.0391 0.95136 0.53785 0.0
C632 C 0.04451 0.0893 0.56353 0.0
C633 C 0.07868 0.08958 0.59253 0.0
C634 C 0.01739 0.05659 0.56373 0.0
C635 C 0.02362 0.02403 0.59511 0.0
C636 C 0.05776 0.02455 0.62515 0.0
C637 C 0.08536 0.05695 0.62279 0.0
C638 C 0.98237 0.05664 0.52984 0.0
C639 C 0.06478 0.99121 0.66024 0.0
H640 H 0.90261 0.96183 0.64101 0.0
H641 H 0.97969 0.8959 0.54746 0.0
H642 H 0.97608 0.03302 0.67768 0.0
H643 H 0.94633 0.05513 0.63223 0.0
H644 H 0.9224 0.02338 0.6753 0.0
H645 H 0.0402 0.92246 0.51808 0.0
H646 H 0.03959 0.97679 0.51253 0.0
H647 H 0.06683 0.9538 0.55944 0.0
H648 H 0.03951 0.11437 0.53979 0.0
H649 H 0.11161 0.05731 0.64548 0.0
H650 H 0.95336 0.0566 0.54926 0.0
H651 H 0.98309 0.0288 0.50817 0.0
H652 H 0.98286 0.08332 0.50624 0.0
H653 H 0.03787 0.98797 0.68314 0.0
H654 H 0.09169 0.99698 0.6825 0.0
H655 H 0.06902 0.96197 0.64191 0.0
C656 C 0.29743 0.31086 0.23754 0.0
C657 C 0.27188 0.31802 0.19936 0.0
C658 C 0.28198 0.29698 0.28042 0.0
C659 C 0.23978 0.29109 0.28564 0.0
C660 C 0.21369 0.29977 0.24765 0.0
C661 C 0.23009 0.3129 0.20487 0.0
C662 C 0.31092 0.28784 0.31986 0.0
C663 C 0.1685 0.29461 0.25195 0.0
C664 C 0.20464 0.21725 0.37938 0.0
C665 C 0.196 0.24317 0.41684 0.0
C666 C 0.21871 0.23245 0.33646 0.0
C667 C 0.22321 0.27473 0.33042 0.0
C668 C 0.21294 0.30115 0.3676 0.0
C669 C 0.19971 0.28502 0.41048 0.0
C670 C 0.2296 0.20317 0.29794 0.0
C671 C 0.21655 0.34642 0.36236 0.0
H672 H 0.32966 0.31578 0.23366 0.0
H673 H 0.21027 0.31856 0.17541 0.0
H674 H 0.30306 0.30613 0.35108 0.0
H675 H 0.30831 0.25555 0.32997 0.0
H676 H 0.34284 0.29415 0.31023 0.0
H677 H 0.15222 0.30498 0.22017 0.0
H678 H 0.16115 0.2623 0.25798 0.0
H679 H 0.15708 0.31181 0.28254 0.0
H680 H 0.20086 0.18492 0.3839 0.0
H681 H 0.19296 0.30514 0.43939 0.0
H682 H 0.26198 0.2067 0.28861 0.0
H683 H 0.2117 0.20987 0.26608 0.0
H684 H 0.22418 0.17121 0.30813 0.0
H685 H 0.24869 0.35484 0.35709 0.0
H686 H 0.2049 0.36287 0.39345 0.0
H687 H 0.19964 0.35668 0.33103 0.0
C688 C 0.73903 0.20724 0.90633 0.0
C689 C 0.7807 0.20368 0.91403 0.0
C690 C 0.7239 0.22048 0.863 0.0
C691 C 0.75115 0.23077 0.82665 0.0
C692 C 0.7933 0.22678 0.83419 0.0
C693 C 0.80752 0.21293 0.87763 0.0
C694 C 0.67876 0.22383 0.85626 0.0
C695 C 0.82341 0.23764 0.79654 0.0
C696 C 0.71428 0.23464 0.70046 0.0
C697 C 0.70814 0.27618 0.69396 0.0
C698 C 0.72773 0.21935 0.74362 0.0
C699 C 0.73568 0.24634 0.78101 0.0
C700 C 0.72932 0.28835 0.7746 0.0
C701 C 0.71528 0.30269 0.73128 0.0
C702 C 0.73367 0.17435 0.74911 0.0
C703 C 0.7377 0.3182 0.81338 0.0
H704 H 0.71825 0.20018 0.93449 0.0
H705 H 0.83974 0.20949 0.88329 0.0
H706 H 0.67042 0.25576 0.84937 0.0
H707 H 0.66926 0.20589 0.82535 0.0
H708 H 0.66162 0.2131 0.88729 0.0
H709 H 0.85515 0.23287 0.80796 0.0
H710 H 0.81782 0.21916 0.7648 0.0
H711 H 0.81963 0.26981 0.78645 0.0
H712 H 0.70888 0.21412 0.67155 0.0
H713 H 0.70991 0.33476 0.7265 0.0
H714 H 0.71557 0.16306 0.77907 0.0
H715 H 0.76585 0.16777 0.75691 0.0
H716 H 0.72479 0.15733 0.71722 0.0
H717 H 0.71884 0.31095 0.84435 0.0
H718 H 0.73148 0.34988 0.80267 0.0
H719 H 0.76978 0.31593 0.8244 0.0
C720 C 0.80305 0.73744 0.41253 0.0
C721 C 0.80848 0.77898 0.41987 0.0
C722 C 0.78945 0.72254 0.36921 0.0
C723 C 0.78089 0.7499 0.33238 0.0
C724 C 0.78664 0.79191 0.33959 0.0
C725 C 0.80063 0.8059 0.38314 0.0
C726 C 0.78402 0.67754 0.36295 0.0
C727 C 0.77783 0.82212 0.30137 0.0
C728 C 0.77817 0.71117 0.20677 0.0
C729 C 0.73656 0.70698 0.19895 0.0
C730 C 0.79305 0.72477 0.2501 0.0
C731 C 0.76562 0.73463 0.28644 0.0
C732 C 0.72353 0.73015 0.27874 0.0
C733 C 0.70955 0.71613 0.23521 0.0
C734 C 0.83812 0.72882 0.25689 0.0
C735 C 0.69324 0.74039 0.31642 0.0
H736 H 0.80909 0.71659 0.44093 0.0
H737 H 0.80553 0.83798 0.38852 0.0
H738 H 0.75196 0.67069 0.35479 0.0
H739 H 0.80241 0.66681 0.33296 0.0
H740 H 0.79291 0.66026 0.39463 0.0
H741 H 0.78368 0.85374 0.31262 0.0
H742 H 0.79672 0.81549 0.27024 0.0
H743 H 0.74576 0.81958 0.29037 0.0
H744 H 0.79909 0.70421 0.17872 0.0
H745 H 0.67739 0.71227 0.22946 0.0
H746 H 0.84795 0.71046 0.2873 0.0
H747 H 0.84593 0.76075 0.26464 0.0
H748 H 0.85544 0.71899 0.22559 0.0
H749 H 0.69894 0.72166 0.34791 0.0
H750 H 0.66157 0.73542 0.30483 0.0
H751 H 0.6967 0.7725 0.32698 0.0
C752 C 0.2815 0.80152 0.90869 0.0
C753 C 0.23994 0.80754 0.9151 0.0
C754 C 0.29691 0.78797 0.86561 0.0
C755 C 0.27002 0.77986 0.82817 0.0
C756 C 0.22799 0.78613 0.83448 0.0
C757 C 0.21352 0.80021 0.87775 0.0
C758 C 0.34192 0.78207 0.86024 0.0
C759 C 0.19826 0.77765 0.79564 0.0
C760 C 0.30935 0.77644 0.70293 0.0
C761 C 0.3128 0.73475 0.69517 0.0
C762 C 0.29608 0.7916 0.74625 0.0
C763 C 0.28572 0.76435 0.78258 0.0
C764 C 0.28969 0.72219 0.77503 0.0
C765 C 0.30353 0.70794 0.73156 0.0
C766 C 0.29271 0.83675 0.75298 0.0
C767 C 0.27883 0.69209 0.81268 0.0
H768 H 0.30195 0.80707 0.93763 0.0
H769 H 0.18143 0.80546 0.88247 0.0
H770 H 0.34855 0.74989 0.85244 0.0
H771 H 0.35326 0.80019 0.83033 0.0
H772 H 0.35884 0.79097 0.89219 0.0
H773 H 0.16656 0.78386 0.80624 0.0
H774 H 0.20558 0.79646 0.76465 0.0
H775 H 0.20058 0.74553 0.78469 0.0
H776 H 0.31647 0.79722 0.67478 0.0
H777 H 0.30691 0.67571 0.72587 0.0
H778 H 0.31055 0.84628 0.78394 0.0
H779 H 0.26076 0.84508 0.75978 0.0
H780 H 0.3035 0.85388 0.72198 0.0
H781 H 0.29717 0.6978 0.84448 0.0
H782 H 0.28374 0.66035 0.80131 0.0
H783 H 0.24661 0.69578 0.82264 0.0
C784 C 0.70895 0.71087 0.87636 0.0
C785 C 0.7331 0.69521 0.91234 0.0
C786 C 0.72635 0.72632 0.8352 0.0
C787 C 0.769 0.72771 0.83069 0.0
C788 C 0.79352 0.71226 0.86721 0.0
C789 C 0.77524 0.69548 0.90719 0.0
C790 C 0.69904 0.74115 0.79652 0.0
C791 C 0.83904 0.71452 0.86466 0.0
C792 C 0.81646 0.73939 0.70982 0.0
C793 C 0.821 0.78142 0.7066 0.0
C794 C 0.79925 0.72149 0.74979 0.0
C795 C 0.78787 0.74611 0.7882 0.0
C796 C 0.79372 0.78852 0.7856 0.0
C797 C 0.80936 0.80573 0.74442 0.0
C798 C 0.79209 0.67641 0.75031 0.0
C799 C 0.78342 0.81576 0.82629 0.0
H800 H 0.67635 0.71055 0.8802 0.0
H801 H 0.79398 0.68384 0.93523 0.0
H802 H 0.70311 0.77415 0.79158 0.0
H803 H 0.70717 0.72625 0.76303 0.0
H804 H 0.66662 0.73517 0.80399 0.0
H805 H 0.85378 0.7017 0.89626 0.0
H806 H 0.85016 0.69793 0.8335 0.0
H807 H 0.84864 0.7465 0.86077 0.0
H808 H 0.82498 0.72063 0.6803 0.0
H809 H 0.81299 0.83824 0.74198 0.0
H810 H 0.75941 0.67019 0.75536 0.0
H811 H 0.80838 0.66238 0.78005 0.0
H812 H 0.80214 0.66161 0.71741 0.0
H813 H 0.75038 0.81518 0.83277 0.0
H814 H 0.79275 0.84758 0.82006 0.0
H815 H 0.79846 0.80472 0.85855 0.0
C816 C 0.34541 0.74435 0.37315 0.0
C817 C 0.31924 0.73208 0.409 0.0
C818 C 0.33025 0.76159 0.33166 0.0
C819 C 0.28806 0.76794 0.32666 0.0
C820 C 0.26173 0.75672 0.36352 0.0
C821 C 0.27758 0.73842 0.40386 0.0
C822 C 0.35923 0.772 0.29271 0.0
C823 C 0.21673 0.76394 0.36034 0.0
C824 C 0.2504 0.84262 0.23465 0.0
C825 C 0.23552 0.81651 0.20006 0.0
C826 C 0.26756 0.82731 0.27611 0.0
C827 C 0.27112 0.78492 0.28236 0.0
C828 C 0.25716 0.75854 0.24681 0.0
C829 C 0.23905 0.77464 0.20648 0.0
C830 C 0.28095 0.85645 0.31369 0.0
C831 C 0.26133 0.71324 0.25133 0.0
H832 H 0.37762 0.73936 0.37701 0.0
H833 H 0.25735 0.72968 0.43187 0.0
H834 H 0.35133 0.75449 0.26087 0.0
H835 H 0.35665 0.8045 0.28366 0.0
H836 H 0.39113 0.76541 0.30214 0.0
H837 H 0.20075 0.75578 0.39319 0.0
H838 H 0.21069 0.79622 0.35242 0.0
H839 H 0.20378 0.74582 0.33134 0.0
H840 H 0.24764 0.87501 0.22982 0.0
H841 H 0.22828 0.75437 0.17946 0.0
H842 H 0.31343 0.85192 0.32167 0.0
H843 H 0.26387 0.85051 0.34639 0.0
H844 H 0.27623 0.8885 0.30342 0.0
H845 H 0.29331 0.70514 0.25835 0.0
H846 H 0.25118 0.69704 0.21936 0.0
H847 H 0.24317 0.70231 0.28139 0.0
C848 C 0.23689 0.24397 0.70753 0.0
C849 C 0.19535 0.23652 0.7032 0.0
C850 C 0.25295 0.26187 0.74805 0.0
C851 C 0.22699 0.27151 0.78586 0.0
C852 C 0.18493 0.26398 0.78168 0.0
C853 C 0.16952 0.2472 0.74005 0.0
C854 C 0.29775 0.27042 0.75037 0.0
C855 C 0.15637 0.27272 0.82159 0.0
C856 C 0.27738 0.27776 0.9054 0.0
C857 C 0.27955 0.31961 0.91288 0.0
C858 C 0.25941 0.26176 0.86489 0.0
C859 C 0.24418 0.28826 0.8302 0.0
C860 C 0.24645 0.33062 0.83744 0.0
C861 C 0.26354 0.34578 0.87902 0.0
C862 C 0.2567 0.21643 0.85928 0.0
C863 C 0.2316 0.35994 0.80083 0.0
H864 H 0.25682 0.23645 0.67876 0.0
H865 H 0.13739 0.24134 0.73682 0.0
H866 H 0.30296 0.30274 0.75891 0.0
H867 H 0.31175 0.25224 0.77865 0.0
H868 H 0.31339 0.2633 0.71698 0.0
H869 H 0.12454 0.26518 0.81281 0.0
H870 H 0.16546 0.25497 0.8528 0.0
H871 H 0.15801 0.30513 0.83136 0.0
H872 H 0.28914 0.25738 0.93173 0.0
H873 H 0.26526 0.37816 0.88455 0.0
H874 H 0.2747 0.20668 0.82856 0.0
H875 H 0.22489 0.20737 0.85273 0.0
H876 H 0.26789 0.20002 0.8906 0.0
H877 H 0.24823 0.35498 0.76759 0.0
H878 H 0.23563 0.39195 0.81168 0.0
H879 H 0.19911 0.35462 0.79353 0.0
C880 C 0.77152 0.17014 0.23565 0.0
C881 C 0.78384 0.19636 0.19989 0.0
C882 C 0.75426 0.18526 0.27717 0.0
C883 C 0.74795 0.22746 0.28228 0.0
C884 C 0.75922 0.25384 0.2455 0.0
C885 C 0.77751 0.23802 0.20512 0.0
C886 C 0.74376 0.15623 0.31603 0.0
C887 C 0.75206 0.29885 0.2488 0.0
C888 C 0.67325 0.26516 0.37427 0.0
C889 C 0.69933 0.28 0.40889 0.0
C890 C 0.68857 0.24799 0.33281 0.0
C891 C 0.73095 0.24436 0.3266 0.0
C892 C 0.75731 0.25826 0.36219 0.0
C893 C 0.7412 0.27642 0.40251 0.0
C894 C 0.65946 0.23467 0.29518 0.0
C895 C 0.8026 0.25402 0.35771 0.0
H896 H 0.77648 0.13792 0.23171 0.0
H897 H 0.78626 0.25828 0.17716 0.0
H898 H 0.76124 0.16404 0.3479 0.0
H899 H 0.71126 0.15884 0.32507 0.0
H900 H 0.7503 0.12432 0.30651 0.0
H901 H 0.76029 0.31489 0.21601 0.0
H902 H 0.71978 0.30493 0.25668 0.0
H903 H 0.77015 0.31173 0.27787 0.0
H904 H 0.64086 0.26797 0.37907 0.0
H905 H 0.76144 0.28718 0.42956 0.0
H906 H 0.66397 0.20219 0.28711 0.0
H907 H 0.66545 0.2518 0.26253 0.0
H908 H 0.62742 0.23941 0.30543 0.0
H909 H 0.81064 0.22203 0.35059 0.0
H910 H 0.81876 0.26407 0.38973 0.0
H911 H 0.8136 0.27222 0.32772 0.0
loop_
_geom_bond_atom_site_label_1
_geom_bond_atom_site_label_2
_geom_bond_distance
_geom_bond_site_symmetry_2
_ccdc_geom_bond_type
Co0 O3 1.970 1_554 S
Co0 N17 1.989 . S
Co0 O25 1.967 1_554 S
Co0 O32 1.920 . S
Co1 O4 1.966 1_554 S
Co1 N10 2.022 . S
Co1 N18 1.993 . S
Co1 O26 1.941 . S
C2 O3 1.258 . S
C2 O4 1.263 . S
O3 Co0 1.970 1_556 S
O3 C2 1.258 . S
O4 Co1 1.966 1_556 S
O4 C2 1.263 . S
C5 O6 1.235 . S
C5 O32 1.289 . S
O6 C5 1.235 . S
C7 C9 1.400 1_556 S
C7 N10 1.351 1_556 S
C7 C12 1.501 . S
C8 C9 1.387 . S
C8 N11 1.341 . S
C9 C7 1.400 1_554 S
C9 C8 1.387 . S
N10 Co1 2.022 . S
N10 C7 1.351 1_554 S
N10 N11 1.365 . S
N11 C8 1.341 . S
N11 N10 1.365 . S
N11 H31 0.862 . S
C12 C7 1.501 . S
C12 H13 0.961 . S
C12 H14 0.961 . S
C12 H15 0.960 . S
H13 C12 0.961 . S
H14 C12 0.961 . S
H15 C12 0.960 . S
C16 N17 1.342 . S
C16 C20 1.401 . S
C16 C21 1.499 . S
N17 Co0 1.989 . S
N17 C16 1.342 . S
N17 N18 1.388 . S
N18 Co1 1.993 . S
N18 N17 1.388 . S
N18 C19 1.346 . S
C19 N18 1.346 . S
C19 C20 1.396 . S
C19 C29 1.510 . S
C20 C16 1.401 . S
C20 C19 1.396 . S
C21 C16 1.499 . S
C21 H22 0.959 . S
C21 H23 0.960 . S
C21 H24 0.961 . S
H22 C21 0.959 . S
H23 C21 0.960 . S
H24 C21 0.961 . S
O25 Co0 1.967 1_556 S
O25 C33 1.258 . S
O26 Co1 1.941 . S
O26 C33 1.266 1_554 S
H27 C29 0.959 . S
H28 C29 0.961 . S
C29 C19 1.510 . S
C29 H27 0.959 . S
C29 H28 0.961 . S
C29 H30 0.960 . S
H30 C29 0.960 . S
H31 N11 0.862 . S
O32 Co0 1.920 . S
O32 C5 1.289 . S
C33 O25 1.258 . S
C33 O26 1.266 1_556 S
Co34 O37 1.970 . S
Co34 N51 1.989 . S
Co34 O59 1.967 . S
Co34 O66 1.920 . S
Co35 O38 1.966 . S
Co35 N44 2.022 . S
Co35 N52 1.993 . S
Co35 O60 1.941 . S
C36 O37 1.258 . S
C36 O38 1.263 . S
O37 Co34 1.970 . S
O37 C36 1.258 . S
O38 Co35 1.966 . S
O38 C36 1.263 . S
C39 O40 1.235 . S
C39 O66 1.289 . S
O40 C39 1.235 . S
C41 C43 1.400 . S
C41 N44 1.351 . S
C41 C46 1.501 . S
C42 C43 1.387 . S
C42 N45 1.341 . S
C43 C41 1.400 . S
C43 C42 1.387 . S
N44 Co35 2.022 . S
N44 C41 1.351 . S
N44 N45 1.365 . S
N45 C42 1.341 . S
N45 N44 1.365 . S
N45 H65 0.862 . S
C46 C41 1.501 . S
C46 H47 0.961 . S
C46 H48 0.961 . S
C46 H49 0.960 . S
H47 C46 0.961 . S
H48 C46 0.961 . S
H49 C46 0.960 . S
C50 N51 1.342 . S
C50 C54 1.401 . S
C50 C55 1.499 . S
N51 Co34 1.989 . S
N51 C50 1.342 . S
N51 N52 1.388 . S
N52 Co35 1.993 . S
N52 N51 1.388 . S
N52 C53 1.346 . S
C53 N52 1.346 . S
C53 C54 1.396 . S
C53 C63 1.510 . S
C54 C50 1.401 . S
C54 C53 1.396 . S
C55 C50 1.499 . S
C55 H56 0.959 . S
C55 H57 0.960 . S
C55 H58 0.961 . S
H56 C55 0.959 . S
H57 C55 0.960 . S
H58 C55 0.961 . S
O59 Co34 1.967 . S
O59 C67 1.258 . S
O60 Co35 1.941 . S
O60 C67 1.266 . S
H61 C63 0.959 . S
H62 C63 0.961 . S
C63 C53 1.510 . S
C63 H61 0.959 . S
C63 H62 0.961 . S
C63 H64 0.960 . S
H64 C63 0.960 . S
H65 N45 0.862 . S
O66 Co34 1.920 . S
O66 C39 1.289 . S
C67 O59 1.258 . S
C67 O60 1.266 . S
Co68 O71 1.970 1_554 S
Co68 N85 1.989 . S
Co68 O93 1.967 1_554 S
Co68 O100 1.920 . S
Co69 O72 1.966 1_554 S
Co69 N78 2.022 . S
Co69 N86 1.993 . S
Co69 O94 1.941 . S
C70 O71 1.258 . S
C70 O72 1.263 . S
O71 Co68 1.970 1_556 S
O71 C70 1.258 . S
O72 Co69 1.966 1_556 S
O72 C70 1.263 . S
C73 O74 1.235 . S
C73 O100 1.289 . S
O74 C73 1.235 . S
C75 C77 1.400 1_556 S
C75 N78 1.351 1_556 S
C75 C80 1.501 . S
C76 C77 1.387 . S
C76 N79 1.341 . S
C77 C75 1.400 1_554 S
C77 C76 1.387 . S
N78 Co69 2.022 . S
N78 C75 1.351 1_554 S
N78 N79 1.365 . S
N79 C76 1.341 . S
N79 N78 1.365 . S
N79 H99 0.862 . S
C80 C75 1.501 . S
C80 H81 0.961 . S
C80 H82 0.961 . S
C80 H83 0.960 . S
H81 C80 0.961 . S
H82 C80 0.961 . S
H83 C80 0.960 . S
C84 N85 1.342 . S
C84 C88 1.401 . S
C84 C89 1.499 . S
N85 Co68 1.989 . S
N85 C84 1.342 . S
N85 N86 1.388 . S
N86 Co69 1.993 . S
N86 N85 1.388 . S
N86 C87 1.346 . S
C87 N86 1.346 . S
C87 C88 1.396 . S
C87 C97 1.510 . S
C88 C84 1.401 . S
C88 C87 1.396 . S
C89 C84 1.499 . S
C89 H90 0.959 . S
C89 H91 0.960 . S
C89 H92 0.961 . S
H90 C89 0.959 . S
H91 C89 0.960 . S
H92 C89 0.961 . S
O93 Co68 1.967 1_556 S
O93 C101 1.258 . S
O94 Co69 1.941 . S
O94 C101 1.266 1_554 S
H95 C97 0.959 . S
H96 C97 0.961 . S
C97 C87 1.510 . S
C97 H95 0.959 . S
C97 H96 0.961 . S
C97 H98 0.960 . S
H98 C97 0.960 . S
H99 N79 0.862 . S
O100 Co68 1.920 . S
O100 C73 1.289 . S
C101 O93 1.258 . S
C101 O94 1.266 1_556 S
Co102 O105 1.970 . S
Co102 N119 1.989 . S
Co102 O127 1.967 . S
Co102 O134 1.920 . S
Co103 O106 1.966 . S
Co103 N112 2.022 . S
Co103 N120 1.993 . S
Co103 O128 1.941 . S
C104 O105 1.258 . S
C104 O106 1.263 . S
O105 Co102 1.970 . S
O105 C104 1.258 . S
O106 Co103 1.966 . S
O106 C104 1.263 . S
C107 O108 1.235 . S
C107 O134 1.289 . S
O108 C107 1.235 . S
C109 C111 1.400 . S
C109 N112 1.351 . S
C109 C114 1.501 . S
C110 C111 1.387 . S
C110 N113 1.341 . S
C111 C109 1.400 . S
C111 C110 1.387 . S
N112 Co103 2.022 . S
N112 C109 1.351 . S
N112 N113 1.365 . S
N113 C110 1.341 . S
N113 N112 1.365 . S
N113 H133 0.862 . S
C114 C109 1.501 . S
C114 H115 0.961 . S
C114 H116 0.961 . S
C114 H117 0.960 . S
H115 C114 0.961 . S
H116 C114 0.961 . S
H117 C114 0.960 . S
C118 N119 1.342 . S
C118 C122 1.401 . S
C118 C123 1.499 . S
N119 Co102 1.989 . S
N119 C118 1.342 . S
N119 N120 1.388 . S
N120 Co103 1.993 . S
N120 N119 1.388 . S
N120 C121 1.346 . S
C121 N120 1.346 . S
C121 C122 1.396 . S
C121 C131 1.510 . S
C122 C118 1.401 . S
C122 C121 1.396 . S
C123 C118 1.499 . S
C123 H124 0.959 . S
C123 H125 0.960 . S
C123 H126 0.961 . S
H124 C123 0.959 . S
H125 C123 0.960 . S
H126 C123 0.961 . S
O127 Co102 1.967 . S
O127 C135 1.258 . S
O128 Co103 1.941 . S
O128 C135 1.266 . S
H129 C131 0.959 . S
H130 C131 0.961 . S
C131 C121 1.510 . S
C131 H129 0.959 . S
C131 H130 0.961 . S
C131 H132 0.960 . S
H132 C131 0.960 . S
H133 N113 0.862 . S
O134 Co102 1.920 . S
O134 C107 1.289 . S
C135 O127 1.258 . S
C135 O128 1.266 . S
Co136 O139 1.970 . S
Co136 N153 1.989 1_554 S
Co136 O161 1.967 . S
Co136 O168 1.920 . S
Co137 O140 1.966 . S
Co137 N146 2.022 . S
Co137 N154 1.993 1_554 S
Co137 O162 1.941 . S
C138 O139 1.258 . S
C138 O140 1.263 . S
O139 Co136 1.970 . S
O139 C138 1.258 . S
O140 Co137 1.966 . S
O140 C138 1.263 . S
C141 O142 1.235 1_565 S
C141 O168 1.289 1_565 S
O142 C141 1.235 1_545 S
C143 C145 1.400 . S
C143 N146 1.351 . S
C143 C148 1.501 . S
C144 C145 1.387 . S
C144 N147 1.341 . S
C145 C143 1.400 . S
C145 C144 1.387 . S
N146 Co137 2.022 . S
N146 C143 1.351 . S
N146 N147 1.365 . S
N147 C144 1.341 . S
N147 N146 1.365 . S
N147 H167 0.862 1_554 S
C148 C143 1.501 . S
C148 H149 0.961 . S
C148 H150 0.961 . S
C148 H151 0.960 . S
H149 C148 0.961 . S
H150 C148 0.961 . S
H151 C148 0.960 . S
C152 N153 1.342 . S
C152 C156 1.401 . S
C152 C157 1.499 . S
N153 Co136 1.989 1_556 S
N153 C152 1.342 . S
N153 N154 1.388 . S
N154 Co137 1.993 1_556 S
N154 N153 1.388 . S
N154 C155 1.346 . S
C155 N154 1.346 . S
C155 C156 1.396 . S
C155 C165 1.510 . S
C156 C152 1.401 . S
C156 C155 1.396 . S
C157 C152 1.499 . S
C157 H158 0.959 . S
C157 H159 0.960 . S
C157 H160 0.961 . S
H158 C157 0.959 . S
H159 C157 0.960 . S
H160 C157 0.961 . S
O161 Co136 1.967 . S
O161 C169 1.258 . S
O162 Co137 1.941 . S
O162 C169 1.266 . S
H163 C165 0.959 . S
H164 C165 0.961 . S
C165 C155 1.510 . S
C165 H163 0.959 . S
C165 H164 0.961 . S
C165 H166 0.960 . S
H166 C165 0.960 . S
H167 N147 0.862 1_556 S
O168 Co136 1.920 . S
O168 C141 1.289 1_545 S
C169 O161 1.258 . S
C169 O162 1.266 . S
Co170 O173 1.970 . S
Co170 N187 1.989 . S
Co170 O195 1.967 . S
Co170 O202 1.920 . S
Co171 O174 1.966 . S
Co171 N180 2.022 . S
Co171 N188 1.993 . S
Co171 O196 1.941 . S
C172 O173 1.258 . S
C172 O174 1.263 . S
O173 Co170 1.970 . S
O173 C172 1.258 . S
O174 Co171 1.966 . S
O174 C172 1.263 . S
C175 O176 1.235 1_455 S
C175 O202 1.289 1_455 S
O176 C175 1.235 1_655 S
C177 C179 1.400 . S
C177 N180 1.351 . S
C177 C182 1.501 . S
C178 C179 1.387 . S
C178 N181 1.341 . S
C179 C177 1.400 . S
C179 C178 1.387 . S
N180 Co171 2.022 . S
N180 C177 1.351 . S
N180 N181 1.365 . S
N181 C178 1.341 . S
N181 N180 1.365 . S
N181 H201 0.862 . S
C182 C177 1.501 . S
C182 H183 0.961 . S
C182 H184 0.961 . S
C182 H185 0.960 . S
H183 C182 0.961 . S
H184 C182 0.961 . S
H185 C182 0.960 . S
C186 N187 1.342 . S
C186 C190 1.401 . S
C186 C191 1.499 . S
N187 Co170 1.989 . S
N187 C186 1.342 . S
N187 N188 1.388 . S
N188 Co171 1.993 . S
N188 N187 1.388 . S
N188 C189 1.346 . S
C189 N188 1.346 . S
C189 C190 1.396 . S
C189 C199 1.510 . S
C190 C186 1.401 . S
C190 C189 1.396 . S
C191 C186 1.499 . S
C191 H192 0.959 . S
C191 H193 0.960 . S
C191 H194 0.961 . S
H192 C191 0.959 . S
H193 C191 0.960 . S
H194 C191 0.961 . S
O195 Co170 1.967 . S
O195 C203 1.258 . S
O196 Co171 1.941 . S
O196 C203 1.266 . S
H197 C199 0.959 . S
H198 C199 0.961 . S
C199 C189 1.510 . S
C199 H197 0.959 . S
C199 H198 0.961 . S
C199 H200 0.960 . S
H200 C199 0.960 . S
H201 N181 0.862 . S
O202 Co170 1.920 . S
O202 C175 1.289 1_655 S
C203 O195 1.258 . S
C203 O196 1.266 . S
Co204 O207 1.970 . S
Co204 N221 1.989 1_554 S
Co204 O229 1.967 . S
Co204 O236 1.920 . S
Co205 O208 1.966 . S
Co205 N214 2.022 . S
Co205 N222 1.993 1_554 S
Co205 O230 1.941 . S
C206 O207 1.258 . S
C206 O208 1.263 . S
O207 Co204 1.970 . S
O207 C206 1.258 . S
O208 Co205 1.966 . S
O208 C206 1.263 . S
C209 O210 1.235 1_545 S
C209 O236 1.289 1_545 S
O210 C209 1.235 1_565 S
C211 C213 1.400 . S
C211 N214 1.351 . S
C211 C216 1.501 . S
C212 C213 1.387 . S
C212 N215 1.341 . S
C213 C211 1.400 . S
C213 C212 1.387 . S
N214 Co205 2.022 . S
N214 C211 1.351 . S
N214 N215 1.365 . S
N215 C212 1.341 . S
N215 N214 1.365 . S
N215 H235 0.862 1_554 S
C216 C211 1.501 . S
C216 H217 0.961 . S
C216 H218 0.961 . S
C216 H219 0.960 . S
H217 C216 0.961 . S
H218 C216 0.961 . S
H219 C216 0.960 . S
C220 N221 1.342 . S
C220 C224 1.401 . S
C220 C225 1.499 . S
N221 Co204 1.989 1_556 S
N221 C220 1.342 . S
N221 N222 1.388 . S
N222 Co205 1.993 1_556 S
N222 N221 1.388 . S
N222 C223 1.346 . S
C223 N222 1.346 . S
C223 C224 1.396 . S
C223 C233 1.510 . S
C224 C220 1.401 . S
C224 C223 1.396 . S
C225 C220 1.499 . S
C225 H226 0.959 . S
C225 H227 0.960 . S
C225 H228 0.961 . S
H226 C225 0.959 . S
H227 C225 0.960 . S
H228 C225 0.961 . S
O229 Co204 1.967 . S
O229 C237 1.258 . S
O230 Co205 1.941 . S
O230 C237 1.266 . S
H231 C233 0.959 . S
H232 C233 0.961 . S
C233 C223 1.510 . S
C233 H231 0.959 . S
C233 H232 0.961 . S
C233 H234 0.960 . S
H234 C233 0.960 . S
H235 N215 0.862 1_556 S
O236 Co204 1.920 . S
O236 C209 1.289 1_565 S
C237 O229 1.258 . S
C237 O230 1.266 . S
Co238 O241 1.970 . S
Co238 N255 1.989 . S
Co238 O263 1.967 . S
Co238 O270 1.920 . S
Co239 O242 1.966 . S
Co239 N248 2.022 . S
Co239 N256 1.993 . S
Co239 O264 1.941 . S
C240 O241 1.258 . S
C240 O242 1.263 . S
O241 Co238 1.970 . S
O241 C240 1.258 . S
O242 Co239 1.966 . S
O242 C240 1.263 . S
C243 O244 1.235 1_655 S
C243 O270 1.289 1_655 S
O244 C243 1.235 1_455 S
C245 C247 1.400 . S
C245 N248 1.351 . S
C245 C250 1.501 . S
C246 C247 1.387 . S
C246 N249 1.341 . S
C247 C245 1.400 . S
C247 C246 1.387 . S
N248 Co239 2.022 . S
N248 C245 1.351 . S
N248 N249 1.365 . S
N249 C246 1.341 . S
N249 N248 1.365 . S
N249 H269 0.862 . S
C250 C245 1.501 . S
C250 H251 0.961 . S
C250 H252 0.961 . S
C250 H253 0.960 . S
H251 C250 0.961 . S
H252 C250 0.961 . S
H253 C250 0.960 . S
C254 N255 1.342 . S
C254 C258 1.401 . S
C254 C259 1.499 . S
N255 Co238 1.989 . S
N255 C254 1.342 . S
N255 N256 1.388 . S
N256 Co239 1.993 . S
N256 N255 1.388 . S
N256 C257 1.346 . S
C257 N256 1.346 . S
C257 C258 1.396 . S
C257 C267 1.510 . S
C258 C254 1.401 . S
C258 C257 1.396 . S
C259 C254 1.499 . S
C259 H260 0.959 . S
C259 H261 0.960 . S
C259 H262 0.961 . S
H260 C259 0.959 . S
H261 C259 0.960 . S
H262 C259 0.961 . S
O263 Co238 1.967 . S
O263 C271 1.258 . S
O264 Co239 1.941 . S
O264 C271 1.266 . S
H265 C267 0.959 . S
H266 C267 0.961 . S
C267 C257 1.510 . S
C267 H265 0.959 . S
C267 H266 0.961 . S
C267 H268 0.960 . S
H268 C267 0.960 . S
H269 N249 0.862 . S
O270 Co238 1.920 . S
O270 C243 1.289 1_455 S
C271 O263 1.258 . S
C271 O264 1.266 . S
C272 C273 1.391 . S
C272 C274 1.394 . S
C272 H288 0.931 . S
C273 C272 1.391 . S
C273 C277 1.361 1_554 S
C274 C272 1.394 . S
C274 C275 1.369 . S
C274 C278 1.531 . S
C275 C274 1.369 . S
C275 C276 1.410 1_554 S
C275 C283 1.503 . S
C276 C275 1.410 1_556 S
C276 C277 1.395 . S
C276 C279 1.511 . S
C277 C273 1.361 1_556 S
C277 C276 1.395 . S
C277 H289 0.942 . S
C278 C274 1.531 . S
C278 H290 0.960 . S
C278 H291 0.962 . S
C278 H292 0.960 . S
C279 C276 1.511 . S
C279 H293 0.961 . S
C279 H294 0.961 . S
C279 H295 0.961 . S
C280 C281 1.370 . S
C280 C282 1.363 . S
C280 H296 0.931 . S
C281 C280 1.370 . S
C281 C285 1.408 . S
C282 C280 1.363 . S
C282 C283 1.370 . S
C282 C286 1.524 . S
C283 C275 1.503 . S
C283 C282 1.370 . S
C283 C284 1.403 . S
C284 C283 1.403 . S
C284 C285 1.404 . S
C284 C287 1.539 . S
C285 C281 1.408 . S
C285 C284 1.404 . S
C285 H297 0.930 . S
C286 C282 1.524 . S
C286 H298 0.956 . S
C286 H299 0.961 1_554 S
C286 H300 0.961 . S
C287 C284 1.539 . S
C287 H301 0.958 . S
C287 H302 0.961 . S
C287 H303 0.960 . S
H288 C272 0.931 . S
H289 C277 0.942 . S
H290 C278 0.960 . S
H291 C278 0.962 . S
H292 C278 0.960 . S
H293 C279 0.961 . S
H294 C279 0.961 . S
H295 C279 0.961 . S
H296 C280 0.931 . S
H297 C285 0.930 . S
H298 C286 0.956 . S
H299 C286 0.961 1_556 S
H300 C286 0.961 . S
H301 C287 0.958 . S
H302 C287 0.961 . S
H303 C287 0.960 . S
C304 C305 1.391 . S
C304 C306 1.394 . S
C304 H320 0.931 . S
C305 C304 1.391 . S
C305 C309 1.376 . S
C306 C304 1.394 . S
C306 C307 1.369 . S
C306 C310 1.531 . S
C307 C306 1.369 . S
C307 C308 1.410 . S
C307 C315 1.503 . S
C308 C307 1.410 . S
C308 C309 1.392 . S
C308 C311 1.511 . S
C309 C305 1.376 . S
C309 C308 1.392 . S
C309 H321 0.929 . S
C310 C306 1.531 . S
C310 H322 0.960 . S
C310 H323 0.962 . S
C310 H324 0.960 . S
C311 C308 1.511 . S
C311 H325 0.961 . S
C311 H326 0.961 . S
C311 H327 0.961 . S
C312 C313 1.370 . S
C312 C314 1.363 . S
C312 H328 0.931 . S
C313 C312 1.370 . S
C313 C317 1.408 . S
C314 C312 1.363 . S
C314 C315 1.370 . S
C314 C318 1.524 . S
C315 C307 1.503 . S
C315 C314 1.370 . S
C315 C316 1.403 . S
C316 C315 1.403 . S
C316 C317 1.404 . S
C316 C319 1.539 . S
C317 C313 1.408 . S
C317 C316 1.404 . S
C317 H329 0.930 . S
C318 C314 1.524 . S
C318 H330 0.956 . S
C318 H331 0.961 . S
C318 H332 0.961 . S
C319 C316 1.539 . S
C319 H333 0.958 . S
C319 H334 0.961 . S
C319 H335 0.960 . S
H320 C304 0.931 . S
H321 C309 0.929 . S
H322 C310 0.960 . S
H323 C310 0.962 . S
H324 C310 0.960 . S
H325 C311 0.961 . S
H326 C311 0.961 . S
H327 C311 0.961 . S
H328 C312 0.931 . S
H329 C317 0.930 . S
H330 C318 0.956 . S
H331 C318 0.961 . S
H332 C318 0.961 . S
H333 C319 0.958 . S
H334 C319 0.961 . S
H335 C319 0.960 . S
C336 C337 1.391 . S
C336 C338 1.394 . S
C336 H352 0.931 . S
C337 C336 1.391 . S
C337 C341 1.376 . S
C338 C336 1.394 . S
C338 C339 1.369 . S
C338 C342 1.531 . S
C339 C338 1.369 . S
C339 C340 1.410 . S
C339 C347 1.503 . S
C340 C339 1.410 . S
C340 C341 1.392 . S
C340 C343 1.511 . S
C341 C337 1.376 . S
C341 C340 1.392 . S
C341 H353 0.929 . S
C342 C338 1.531 . S
C342 H354 0.960 . S
C342 H355 0.962 . S
C342 H356 0.960 . S
C343 C340 1.511 . S
C343 H357 0.961 . S
C343 H358 0.961 . S
C343 H359 0.961 1_554 S
C344 C345 1.370 . S
C344 C346 1.363 . S
C344 H360 0.931 . S
C345 C344 1.370 . S
C345 C349 1.408 1_554 S
C346 C344 1.363 . S
C346 C347 1.370 . S
C346 C350 1.524 . S
C347 C339 1.503 . S
C347 C346 1.370 . S
C347 C348 1.403 1_554 S
C348 C347 1.403 1_556 S
C348 C349 1.404 . S
C348 C351 1.539 . S
C349 C345 1.408 1_556 S
C349 C348 1.404 . S
C349 H361 0.930 . S
C350 C346 1.524 . S
C350 H362 0.956 . S
C350 H363 0.961 . S
C350 H364 0.961 . S
C351 C348 1.539 . S
C351 H365 0.958 . S
C351 H366 0.961 . S
C351 H367 0.960 . S
H352 C336 0.931 . S
H353 C341 0.929 . S
H354 C342 0.960 . S
H355 C342 0.962 . S
H356 C342 0.960 . S
H357 C343 0.961 . S
H358 C343 0.961 . S
H359 C343 0.961 1_556 S
H360 C344 0.931 . S
H361 C349 0.930 . S
H362 C350 0.956 . S
H363 C350 0.961 . S
H364 C350 0.961 . S
H365 C351 0.958 . S
H366 C351 0.961 . S
H367 C351 0.960 . S
C368 C369 1.391 . S
C368 C370 1.394 . S
C368 H384 0.931 . S
C369 C368 1.391 . S
C369 C373 1.376 . S
C370 C368 1.394 . S
C370 C371 1.369 . S
C370 C374 1.531 . S
C371 C370 1.369 . S
C371 C372 1.410 . S
C371 C379 1.503 . S
C372 C371 1.410 . S
C372 C373 1.392 . S
C372 C375 1.511 . S
C373 C369 1.376 . S
C373 C372 1.392 . S
C373 H385 0.929 . S
C374 C370 1.531 . S
C374 H386 0.960 . S
C374 H387 0.962 . S
C374 H388 0.960 . S
C375 C372 1.511 . S
C375 H389 0.961 . S
C375 H390 0.961 . S
C375 H391 0.961 . S
C376 C377 1.370 . S
C376 C378 1.363 . S
C376 H392 0.931 . S
C377 C376 1.370 . S
C377 C381 1.408 . S
C378 C376 1.363 . S
C378 C379 1.370 . S
C378 C382 1.524 . S
C379 C371 1.503 . S
C379 C378 1.370 . S
C379 C380 1.403 . S
C380 C379 1.403 . S
C380 C381 1.404 . S
C380 C383 1.539 . S
C381 C377 1.408 . S
C381 C380 1.404 . S
C381 H393 0.930 . S
C382 C378 1.524 . S
C382 H394 0.956 . S
C382 H395 0.961 . S
C382 H396 0.961 . S
C383 C380 1.539 . S
C383 H397 0.958 . S
C383 H398 0.961 . S
C383 H399 0.960 . S
H384 C368 0.931 . S
H385 C373 0.929 . S
H386 C374 0.960 . S
H387 C374 0.962 . S
H388 C374 0.960 . S
H389 C375 0.961 . S
H390 C375 0.961 . S
H391 C375 0.961 . S
H392 C376 0.931 . S
H393 C381 0.930 . S
H394 C382 0.956 . S
H395 C382 0.961 . S
H396 C382 0.961 . S
H397 C383 0.958 . S
H398 C383 0.961 . S
H399 C383 0.960 . S
C400 C401 1.391 . S
C400 C402 1.394 . S
C400 H416 0.930 1_554 S
C401 C400 1.391 . S
C401 C405 1.376 . S
C402 C400 1.394 . S
C402 C403 1.369 . S
C402 C406 1.531 1_554 S
C403 C402 1.369 . S
C403 C404 1.410 . S
C403 C411 1.503 . S
C404 C403 1.410 . S
C404 C405 1.392 . S
C404 C407 1.511 . S
C405 C401 1.376 . S
C405 C404 1.392 . S
C405 H417 0.929 . S
C406 C402 1.531 1_556 S
C406 H418 0.960 . S
C406 H419 0.962 1_556 S
C406 H420 0.960 . S
C407 C404 1.511 . S
C407 H421 0.961 . S
C407 H422 0.961 . S
C407 H423 0.961 1_554 S
C408 C409 1.370 . S
C408 C410 1.363 . S
C408 H424 0.931 . S
C409 C408 1.370 . S
C409 C413 1.408 1_554 S
C410 C408 1.363 . S
C410 C411 1.370 . S
C410 C414 1.524 . S
C411 C403 1.503 . S
C411 C410 1.370 . S
C411 C412 1.403 1_554 S
C412 C411 1.403 1_556 S
C412 C413 1.404 . S
C412 C415 1.539 . S
C413 C409 1.408 1_556 S
C413 C412 1.404 . S
C413 H425 0.930 . S
C414 C410 1.524 . S
C414 H426 0.956 . S
C414 H427 0.961 . S
C414 H428 0.961 . S
C415 C412 1.539 . S
C415 H429 0.958 . S
C415 H430 0.961 . S
C415 H431 0.960 . S
H416 C400 0.930 1_556 S
H417 C405 0.929 . S
H418 C406 0.960 . S
H419 C406 0.962 1_554 S
H420 C406 0.960 . S
H421 C407 0.961 . S
H422 C407 0.961 . S
H423 C407 0.961 1_556 S
H424 C408 0.931 . S
H425 C413 0.930 . S
H426 C414 0.956 . S
H427 C414 0.961 . S
H428 C414 0.961 . S
H429 C415 0.958 . S
H430 C415 0.961 . S
H431 C415 0.960 . S
C432 C433 1.391 . S
C432 C434 1.394 . S
C432 H448 0.931 . S
C433 C432 1.391 . S
C433 C437 1.376 . S
C434 C432 1.394 . S
C434 C435 1.369 . S
C434 C438 1.531 . S
C435 C434 1.369 . S
C435 C436 1.410 . S
C435 C443 1.503 . S
C436 C435 1.410 . S
C436 C437 1.392 . S
C436 C439 1.511 . S
C437 C433 1.376 . S
C437 C436 1.392 . S
C437 H449 0.929 . S
C438 C434 1.531 . S
C438 H450 0.960 . S
C438 H451 0.962 . S
C438 H452 0.960 . S
C439 C436 1.511 . S
C439 H453 0.961 . S
C439 H454 0.961 . S
C439 H455 0.961 . S
C440 C441 1.370 . S
C440 C442 1.363 . S
C440 H456 0.931 . S
C441 C440 1.370 . S
C441 C445 1.408 . S
C442 C440 1.363 . S
C442 C443 1.370 . S
C442 C446 1.524 . S
C443 C435 1.503 . S
C443 C442 1.370 . S
C443 C444 1.403 . S
C444 C443 1.403 . S
C444 C445 1.404 . S
C444 C447 1.539 . S
C445 C441 1.408 . S
C445 C444 1.404 . S
C445 H457 0.930 . S
C446 C442 1.524 . S
C446 H458 0.956 . S
C446 H459 0.961 . S
C446 H460 0.961 . S
C447 C444 1.539 . S
C447 H461 0.958 . S
C447 H462 0.961 . S
C447 H463 0.960 . S
H448 C432 0.931 . S
H449 C437 0.929 . S
H450 C438 0.960 . S
H451 C438 0.962 . S
H452 C438 0.960 . S
H453 C439 0.961 . S
H454 C439 0.961 . S
H455 C439 0.961 . S
H456 C440 0.931 . S
H457 C445 0.930 . S
H458 C446 0.956 . S
H459 C446 0.961 . S
H460 C446 0.961 . S
H461 C447 0.958 . S
H462 C447 0.961 . S
H463 C447 0.960 . S
C464 C465 1.391 1_556 S
C464 C466 1.394 . S
C464 H480 0.931 . S
C465 C464 1.391 1_554 S
C465 C469 1.376 . S
C466 C464 1.394 . S
C466 C467 1.369 1_556 S
C466 C470 1.531 . S
C467 C466 1.369 1_554 S
C467 C468 1.410 . S
C467 C475 1.503 . S
C468 C467 1.410 . S
C468 C469 1.392 . S
C468 C471 1.511 . S
C469 C465 1.376 . S
C469 C468 1.392 . S
C469 H481 0.929 . S
C470 C466 1.531 . S
C470 H482 0.960 . S
C470 H483 0.962 1_556 S
C470 H484 0.960 . S
C471 C468 1.511 . S
C471 H485 0.961 . S
C471 H486 0.961 . S
C471 H487 0.961 . S
C472 C473 1.370 . S
C472 C474 1.363 . S
C472 H488 0.931 . S
C473 C472 1.370 . S
C473 C477 1.408 1_554 S
C474 C472 1.363 . S
C474 C475 1.370 . S
C474 C478 1.524 . S
C475 C467 1.503 . S
C475 C474 1.370 . S
C475 C476 1.403 1_554 S
C476 C475 1.403 1_556 S
C476 C477 1.404 . S
C476 C479 1.539 . S
C477 C473 1.408 1_556 S
C477 C476 1.404 . S
C477 H489 0.930 . S
C478 C474 1.524 . S
C478 H490 0.956 . S
C478 H491 0.961 . S
C478 H492 0.961 . S
C479 C476 1.539 . S
C479 H493 0.958 . S
C479 H494 0.961 . S
C479 H495 0.960 . S
H480 C464 0.931 . S
H481 C469 0.929 . S
H482 C470 0.960 . S
H483 C470 0.962 1_554 S
H484 C470 0.960 . S
H485 C471 0.961 . S
H486 C471 0.961 . S
H487 C471 0.961 . S
H488 C472 0.931 . S
H489 C477 0.930 . S
H490 C478 0.956 . S
H491 C478 0.961 . S
H492 C478 0.961 . S
H493 C479 0.958 . S
H494 C479 0.961 . S
H495 C479 0.960 . S
C496 C497 1.391 . S
C496 C498 1.394 . S
C496 H512 0.931 . S
C497 C496 1.391 . S
C497 C501 1.376 . S
C498 C496 1.394 . S
C498 C499 1.369 . S
C498 C502 1.531 . S
C499 C498 1.369 . S
C499 C500 1.410 . S
C499 C507 1.503 . S
C500 C499 1.410 . S
C500 C501 1.392 . S
C500 C503 1.511 . S
C501 C497 1.376 . S
C501 C500 1.392 . S
C501 H513 0.929 . S
C502 C498 1.531 . S
C502 H514 0.960 . S
C502 H515 0.962 . S
C502 H516 0.960 . S
C503 C500 1.511 . S
C503 H517 0.961 . S
C503 H518 0.961 . S
C503 H519 0.961 . S
C504 C505 1.370 . S
C504 C506 1.363 . S
C504 H520 0.931 . S
C505 C504 1.370 . S
C505 C509 1.408 . S
C506 C504 1.363 . S
C506 C507 1.370 . S
C506 C510 1.524 . S
C507 C499 1.503 . S
C507 C506 1.370 . S
C507 C508 1.403 . S
C508 C507 1.403 . S
C508 C509 1.404 . S
C508 C511 1.539 . S
C509 C505 1.408 . S
C509 C508 1.404 . S
C509 H521 0.930 . S
C510 C506 1.524 . S
C510 H522 0.956 . S
C510 H523 0.961 . S
C510 H524 0.961 . S
C511 C508 1.539 . S
C511 H525 0.958 . S
C511 H526 0.961 . S
C511 H527 0.960 . S
H512 C496 0.931 . S
H513 C501 0.929 . S
H514 C502 0.960 . S
H515 C502 0.962 . S
H516 C502 0.960 . S
H517 C503 0.961 . S
H518 C503 0.961 . S
H519 C503 0.961 . S
H520 C504 0.931 . S
H521 C509 0.930 . S
H522 C510 0.956 . S
H523 C510 0.961 . S
H524 C510 0.961 . S
H525 C511 0.958 . S
H526 C511 0.961 . S
H527 C511 0.960 . S
C528 C529 1.391 1_554 S
C528 C530 1.394 . S
C528 H544 0.931 . S
C529 C528 1.391 1_556 S
C529 C533 1.376 . S
C530 C528 1.394 . S
C530 C531 1.369 . S
C530 C534 1.531 . S
C531 C530 1.369 . S
C531 C532 1.410 1_554 S
C531 C539 1.503 1_554 S
C532 C531 1.410 1_556 S
C532 C533 1.392 . S
C532 C535 1.511 . S
C533 C529 1.376 . S
C533 C532 1.392 . S
C533 H545 0.929 . S
C534 C530 1.531 . S
C534 H546 0.960 . S
C534 H547 0.962 . S
C534 H548 0.960 . S
C535 C532 1.511 . S
C535 H549 0.961 . S
C535 H550 0.961 . S
C535 H551 0.961 . S
C536 C537 1.370 . S
C536 C538 1.363 . S
C536 H552 0.931 . S
C537 C536 1.370 . S
C537 C541 1.408 1_556 S
C538 C536 1.363 . S
C538 C539 1.370 . S
C538 C542 1.524 . S
C539 C531 1.503 1_556 S
C539 C538 1.370 . S
C539 C540 1.403 1_556 S
C540 C539 1.403 1_554 S
C540 C541 1.404 . S
C540 C543 1.539 . S
C541 C537 1.408 1_554 S
C541 C540 1.404 . S
C541 H553 0.930 . S
C542 C538 1.524 . S
C542 H554 0.956 . S
C542 H555 0.961 . S
C542 H556 0.961 . S
C543 C540 1.539 . S
C543 H557 0.958 . S
C543 H558 0.961 . S
C543 H559 0.960 . S
H544 C528 0.931 . S
H545 C533 0.929 . S
H546 C534 0.960 . S
H547 C534 0.962 . S
H548 C534 0.960 . S
H549 C535 0.961 . S
H550 C535 0.961 . S
H551 C535 0.961 . S
H552 C536 0.931 . S
H553 C541 0.930 . S
H554 C542 0.956 . S
H555 C542 0.961 . S
H556 C542 0.961 . S
H557 C543 0.958 . S
H558 C543 0.961 . S
H559 C543 0.960 . S
C560 C561 1.391 . S
C560 C562 1.394 . S
C560 H576 0.931 . S
C561 C560 1.391 . S
C561 C565 1.376 . S
C562 C560 1.394 . S
C562 C563 1.369 . S
C562 C566 1.531 . S
C563 C562 1.369 . S
C563 C564 1.410 . S
C563 C571 1.503 . S
C564 C563 1.410 . S
C564 C565 1.392 . S
C564 C567 1.511 . S
C565 C561 1.376 . S
C565 C564 1.392 . S
C565 H577 0.929 . S
C566 C562 1.531 . S
C566 H578 0.960 . S
C566 H579 0.962 . S
C566 H580 0.960 . S
C567 C564 1.511 . S
C567 H581 0.961 . S
C567 H582 0.961 . S
C567 H583 0.961 . S
C568 C569 1.370 . S
C568 C570 1.363 . S
C568 H584 0.931 . S
C569 C568 1.370 . S
C569 C573 1.408 . S
C570 C568 1.363 . S
C570 C571 1.370 . S
C570 C574 1.524 . S
C571 C563 1.503 . S
C571 C570 1.370 . S
C571 C572 1.403 . S
C572 C571 1.403 . S
C572 C573 1.404 . S
C572 C575 1.539 . S
C573 C569 1.408 . S
C573 C572 1.404 . S
C573 H585 0.930 . S
C574 C570 1.524 . S
C574 H586 0.956 . S
C574 H587 0.961 . S
C574 H588 0.961 . S
C575 C572 1.539 . S
C575 H589 0.958 . S
C575 H590 0.961 . S
C575 H591 0.960 . S
H576 C560 0.931 . S
H577 C565 0.929 . S
H578 C566 0.960 . S
H579 C566 0.962 . S
H580 C566 0.960 . S
H581 C567 0.961 . S
H582 C567 0.961 . S
H583 C567 0.961 . S
H584 C568 0.931 . S
H585 C573 0.930 . S
H586 C574 0.956 . S
H587 C574 0.961 . S
H588 C574 0.961 . S
H589 C575 0.958 . S
H590 C575 0.961 . S
H591 C575 0.960 . S
C592 C593 1.391 . S
C592 C594 1.394 . S
C592 H608 0.931 . S
C593 C592 1.391 . S
C593 C597 1.376 . S
C594 C592 1.394 . S
C594 C595 1.369 . S
C594 C598 1.531 1_455 S
C595 C594 1.369 . S
C595 C596 1.410 1_565 S
C595 C603 1.503 1_465 S
C596 C595 1.410 1_545 S
C596 C597 1.392 1_545 S
C596 C599 1.511 . S
C597 C593 1.376 . S
C597 C596 1.392 1_565 S
C597 H609 0.929 1_565 S
C598 C594 1.531 1_655 S
C598 H610 0.960 . S
C598 H611 0.962 . S
C598 H612 0.960 . S
C599 C596 1.511 . S
C599 H613 0.961 . S
C599 H614 0.961 . S
C599 H615 0.961 . S
C600 C601 1.370 . S
C600 C602 1.363 . S
C600 H616 0.931 1_554 S
C601 C600 1.370 . S
C601 C605 1.408 . S
C602 C600 1.363 . S
C602 C603 1.370 . S
C602 C606 1.520 1_544 S
C603 C595 1.503 1_645 S
C603 C602 1.370 . S
C603 C604 1.403 . S
C604 C603 1.403 . S
C604 C605 1.404 . S
C604 C607 1.539 . S
C605 C601 1.408 . S
C605 C604 1.404 . S
C605 H617 0.930 . S
C606 C602 1.520 1_566 S
C606 H618 0.968 . S
C606 H619 0.957 1_665 S
C606 H620 0.957 1_565 S
C607 C604 1.539 . S
C607 H621 0.958 . S
C607 H622 0.961 . S
C607 H623 0.960 1_655 S
H608 C592 0.931 . S
H609 C597 0.929 1_545 S
H610 C598 0.960 . S
H611 C598 0.962 . S
H612 C598 0.960 . S
H613 C599 0.961 . S
H614 C599 0.961 . S
H615 C599 0.961 . S
H616 C600 0.931 1_556 S
H617 C605 0.930 . S
H618 C606 0.968 . S
H619 C606 0.957 1_445 S
H620 C606 0.957 1_545 S
H621 C607 0.958 . S
H622 C607 0.961 . S
H623 C607 0.960 1_455 S
C624 C625 1.391 . S
C624 C626 1.394 . S
C624 H640 0.931 . S
C625 C624 1.391 . S
C625 C629 1.376 . S
C626 C624 1.394 . S
C626 C627 1.369 . S
C626 C630 1.531 1_565 S
C627 C626 1.369 . S
C627 C628 1.410 1_655 S
C627 C635 1.503 1_665 S
C628 C627 1.410 1_455 S
C628 C629 1.392 1_455 S
C628 C631 1.511 . S
C629 C625 1.376 . S
C629 C628 1.392 1_655 S
C629 H641 0.929 1_655 S
C630 C626 1.531 1_545 S
C630 H642 0.960 . S
C630 H643 0.962 . S
C630 H644 0.960 . S
C631 C628 1.511 . S
C631 H645 0.961 . S
C631 H646 0.961 . S
C631 H647 0.961 . S
C632 C633 1.370 . S
C632 C634 1.363 . S
C632 H648 0.931 . S
C633 C632 1.370 . S
C633 C637 1.408 . S
C634 C632 1.363 . S
C634 C635 1.370 . S
C634 C638 1.524 1_455 S
C635 C627 1.503 1_445 S
C635 C634 1.370 . S
C635 C636 1.403 . S
C636 C635 1.403 . S
C636 C637 1.404 . S
C636 C639 1.539 . S
C637 C633 1.408 . S
C637 C636 1.404 . S
C637 H649 0.930 . S
C638 C634 1.524 1_655 S
C638 H650 0.956 . S
C638 H651 0.961 1_645 S
C638 H652 0.961 1_655 S
C639 C636 1.539 . S
C639 H653 0.958 . S
C639 H654 0.961 . S
C639 H655 0.960 1_545 S
H640 C624 0.931 . S
H641 C629 0.929 1_455 S
H642 C630 0.960 . S
H643 C630 0.962 . S
H644 C630 0.960 . S
H645 C631 0.961 . S
H646 C631 0.961 . S
H647 C631 0.961 . S
H648 C632 0.931 . S
H649 C637 0.930 . S
H650 C638 0.956 . S
H651 C638 0.961 1_465 S
H652 C638 0.961 1_455 S
H653 C639 0.958 . S
H654 C639 0.961 . S
H655 C639 0.960 1_565 S
C656 C657 1.391 . S
C656 C658 1.394 . S
C656 H672 0.931 . S
C657 C656 1.391 . S
C657 C661 1.376 . S
C658 C656 1.394 . S
C658 C659 1.369 . S
C658 C662 1.531 . S
C659 C658 1.369 . S
C659 C660 1.410 . S
C659 C667 1.503 . S
C660 C659 1.410 . S
C660 C661 1.392 . S
C660 C663 1.511 . S
C661 C657 1.376 . S
C661 C660 1.392 . S
C661 H673 0.929 . S
C662 C658 1.531 . S
C662 H674 0.960 . S
C662 H675 0.962 . S
C662 H676 0.960 . S
C663 C660 1.511 . S
C663 H677 0.961 . S
C663 H678 0.961 . S
C663 H679 0.961 . S
C664 C665 1.370 . S
C664 C666 1.363 . S
C664 H680 0.931 . S
C665 C664 1.370 . S
C665 C669 1.408 . S
C666 C664 1.363 . S
C666 C667 1.370 . S
C666 C670 1.524 . S
C667 C659 1.503 . S
C667 C666 1.370 . S
C667 C668 1.403 . S
C668 C667 1.403 . S
C668 C669 1.404 . S
C668 C671 1.539 . S
C669 C665 1.408 . S
C669 C668 1.404 . S
C669 H681 0.930 . S
C670 C666 1.524 . S
C670 H682 0.956 . S
C670 H683 0.961 . S
C670 H684 0.961 . S
C671 C668 1.539 . S
C671 H685 0.958 . S
C671 H686 0.961 . S
C671 H687 0.960 . S
H672 C656 0.931 . S
H673 C661 0.929 . S
H674 C662 0.960 . S
H675 C662 0.962 . S
H676 C662 0.960 . S
H677 C663 0.961 . S
H678 C663 0.961 . S
H679 C663 0.961 . S
H680 C664 0.931 . S
H681 C669 0.930 . S
H682 C670 0.956 . S
H683 C670 0.961 . S
H684 C670 0.961 . S
H685 C671 0.958 . S
H686 C671 0.961 . S
H687 C671 0.960 . S
C688 C689 1.391 . S
C688 C690 1.394 . S
C688 H704 0.931 . S
C689 C688 1.391 . S
C689 C693 1.376 . S
C690 C688 1.394 . S
C690 C691 1.369 . S
C690 C694 1.531 . S
C691 C690 1.369 . S
C691 C692 1.410 . S
C691 C699 1.503 . S
C692 C691 1.410 . S
C692 C693 1.392 . S
C692 C695 1.511 . S
C693 C689 1.376 . S
C693 C692 1.392 . S
C693 H705 0.929 . S
C694 C690 1.531 . S
C694 H706 0.960 . S
C694 H707 0.962 . S
C694 H708 0.960 . S
C695 C692 1.511 . S
C695 H709 0.961 . S
C695 H710 0.961 . S
C695 H711 0.961 . S
C696 C697 1.370 . S
C696 C698 1.363 . S
C696 H712 0.931 . S
C697 C696 1.370 . S
C697 C701 1.408 . S
C698 C696 1.363 . S
C698 C699 1.370 . S
C698 C702 1.524 . S
C699 C691 1.503 . S
C699 C698 1.370 . S
C699 C700 1.403 . S
C700 C699 1.403 . S
C700 C701 1.404 . S
C700 C703 1.539 . S
C701 C697 1.408 . S
C701 C700 1.404 . S
C701 H713 0.930 . S
C702 C698 1.524 . S
C702 H714 0.956 . S
C702 H715 0.961 . S
C702 H716 0.961 . S
C703 C700 1.539 . S
C703 H717 0.958 . S
C703 H718 0.961 . S
C703 H719 0.960 . S
H704 C688 0.931 . S
H705 C693 0.929 . S
H706 C694 0.960 . S
H707 C694 0.962 . S
H708 C694 0.960 . S
H709 C695 0.961 . S
H710 C695 0.961 . S
H711 C695 0.961 . S
H712 C696 0.931 . S
H713 C701 0.930 . S
H714 C702 0.956 . S
H715 C702 0.961 . S
H716 C702 0.961 . S
H717 C703 0.958 . S
H718 C703 0.961 . S
H719 C703 0.960 . S
C720 C721 1.391 . S
C720 C722 1.394 . S
C720 H736 0.931 . S
C721 C720 1.391 . S
C721 C725 1.376 . S
C722 C720 1.394 . S
C722 C723 1.369 . S
C722 C726 1.531 . S
C723 C722 1.369 . S
C723 C724 1.410 . S
C723 C731 1.503 . S
C724 C723 1.410 . S
C724 C725 1.392 . S
C724 C727 1.511 . S
C725 C721 1.376 . S
C725 C724 1.392 . S
C725 H737 0.929 . S
C726 C722 1.531 . S
C726 H738 0.960 . S
C726 H739 0.962 . S
C726 H740 0.960 . S
C727 C724 1.511 . S
C727 H741 0.961 . S
C727 H742 0.961 . S
C727 H743 0.961 . S
C728 C729 1.370 . S
C728 C730 1.363 . S
C728 H744 0.931 . S
C729 C728 1.370 . S
C729 C733 1.408 . S
C730 C728 1.363 . S
C730 C731 1.370 . S
C730 C734 1.524 . S
C731 C723 1.503 . S
C731 C730 1.370 . S
C731 C732 1.403 . S
C732 C731 1.403 . S
C732 C733 1.404 . S
C732 C735 1.539 . S
C733 C729 1.408 . S
C733 C732 1.404 . S
C733 H745 0.930 . S
C734 C730 1.524 . S
C734 H746 0.956 . S
C734 H747 0.961 . S
C734 H748 0.961 . S
C735 C732 1.539 . S
C735 H749 0.958 . S
C735 H750 0.961 . S
C735 H751 0.960 . S
H736 C720 0.931 . S
H737 C725 0.929 . S
H738 C726 0.960 . S
H739 C726 0.962 . S
H740 C726 0.960 . S
H741 C727 0.961 . S
H742 C727 0.961 . S
H743 C727 0.961 . S
H744 C728 0.931 . S
H745 C733 0.930 . S
H746 C734 0.956 . S
H747 C734 0.961 . S
H748 C734 0.961 . S
H749 C735 0.958 . S
H750 C735 0.961 . S
H751 C735 0.960 . S
C752 C753 1.391 . S
C752 C754 1.394 . S
C752 H768 0.931 . S
C753 C752 1.391 . S
C753 C757 1.376 . S
C754 C752 1.394 . S
C754 C755 1.369 . S
C754 C758 1.531 . S
C755 C754 1.369 . S
C755 C756 1.410 . S
C755 C763 1.503 . S
C756 C755 1.410 . S
C756 C757 1.392 . S
C756 C759 1.511 . S
C757 C753 1.376 . S
C757 C756 1.392 . S
C757 H769 0.929 . S
C758 C754 1.531 . S
C758 H770 0.960 . S
C758 H771 0.962 . S
C758 H772 0.960 . S
C759 C756 1.511 . S
C759 H773 0.961 . S
C759 H774 0.961 . S
C759 H775 0.961 . S
C760 C761 1.370 . S
C760 C762 1.363 . S
C760 H776 0.931 . S
C761 C760 1.370 . S
C761 C765 1.408 . S
C762 C760 1.363 . S
C762 C763 1.370 . S
C762 C766 1.524 . S
C763 C755 1.503 . S
C763 C762 1.370 . S
C763 C764 1.403 . S
C764 C763 1.403 . S
C764 C765 1.404 . S
C764 C767 1.539 . S
C765 C761 1.408 . S
C765 C764 1.404 . S
C765 H777 0.930 . S
C766 C762 1.524 . S
C766 H778 0.956 . S
C766 H779 0.961 . S
C766 H780 0.961 . S
C767 C764 1.539 . S
C767 H781 0.958 . S
C767 H782 0.961 . S
C767 H783 0.960 . S
H768 C752 0.931 . S
H769 C757 0.929 . S
H770 C758 0.960 . S
H771 C758 0.962 . S
H772 C758 0.960 . S
H773 C759 0.961 . S
H774 C759 0.961 . S
H775 C759 0.961 . S
H776 C760 0.931 . S
H777 C765 0.930 . S
H778 C766 0.956 . S
H779 C766 0.961 . S
H780 C766 0.961 . S
H781 C767 0.958 . S
H782 C767 0.961 . S
H783 C767 0.960 . S
C784 C785 1.391 . S
C784 C786 1.394 . S
C784 H800 0.931 . S
C785 C784 1.391 . S
C785 C789 1.376 . S
C786 C784 1.394 . S
C786 C787 1.369 . S
C786 C790 1.531 . S
C787 C786 1.369 . S
C787 C788 1.410 . S
C787 C795 1.503 . S
C788 C787 1.410 . S
C788 C789 1.392 . S
C788 C791 1.511 . S
C789 C785 1.376 . S
C789 C788 1.392 . S
C789 H801 0.929 . S
C790 C786 1.531 . S
C790 H802 0.960 . S
C790 H803 0.962 . S
C790 H804 0.960 . S
C791 C788 1.511 . S
C791 H805 0.961 . S
C791 H806 0.961 . S
C791 H807 0.961 . S
C792 C793 1.370 . S
C792 C794 1.363 . S
C792 H808 0.931 . S
C793 C792 1.370 . S
C793 C797 1.408 . S
C794 C792 1.363 . S
C794 C795 1.370 . S
C794 C798 1.524 . S
C795 C787 1.503 . S
C795 C794 1.370 . S
C795 C796 1.403 . S
C796 C795 1.403 . S
C796 C797 1.404 . S
C796 C799 1.539 . S
C797 C793 1.408 . S
C797 C796 1.404 . S
C797 H809 0.930 . S
C798 C794 1.524 . S
C798 H810 0.956 . S
C798 H811 0.961 . S
C798 H812 0.961 . S
C799 C796 1.539 . S
C799 H813 0.958 . S
C799 H814 0.961 . S
C799 H815 0.960 . S
H800 C784 0.931 . S
H801 C789 0.929 . S
H802 C790 0.960 . S
H803 C790 0.962 . S
H804 C790 0.960 . S
H805 C791 0.961 . S
H806 C791 0.961 . S
H807 C791 0.961 . S
H808 C792 0.931 . S
H809 C797 0.930 . S
H810 C798 0.956 . S
H811 C798 0.961 . S
H812 C798 0.961 . S
H813 C799 0.958 . S
H814 C799 0.961 . S
H815 C799 0.960 . S
C816 C817 1.391 . S
C816 C818 1.394 . S
C816 H832 0.931 . S
C817 C816 1.391 . S
C817 C821 1.376 . S
C818 C816 1.394 . S
C818 C819 1.369 . S
C818 C822 1.531 . S
C819 C818 1.369 . S
C819 C820 1.410 . S
C819 C827 1.503 . S
C820 C819 1.410 . S
C820 C821 1.392 . S
C820 C823 1.511 . S
C821 C817 1.376 . S
C821 C820 1.392 . S
C821 H833 0.929 . S
C822 C818 1.531 . S
C822 H834 0.960 . S
C822 H835 0.962 . S
C822 H836 0.960 . S
C823 C820 1.511 . S
C823 H837 0.961 . S
C823 H838 0.961 . S
C823 H839 0.961 . S
C824 C825 1.370 . S
C824 C826 1.363 . S
C824 H840 0.931 . S
C825 C824 1.370 . S
C825 C829 1.408 . S
C826 C824 1.363 . S
C826 C827 1.370 . S
C826 C830 1.524 . S
C827 C819 1.503 . S
C827 C826 1.370 . S
C827 C828 1.403 . S
C828 C827 1.403 . S
C828 C829 1.404 . S
C828 C831 1.539 . S
C829 C825 1.408 . S
C829 C828 1.404 . S
C829 H841 0.930 . S
C830 C826 1.524 . S
C830 H842 0.956 . S
C830 H843 0.961 . S
C830 H844 0.961 . S
C831 C828 1.539 . S
C831 H845 0.958 . S
C831 H846 0.961 . S
C831 H847 0.960 . S
H832 C816 0.931 . S
H833 C821 0.929 . S
H834 C822 0.960 . S
H835 C822 0.962 . S
H836 C822 0.960 . S
H837 C823 0.961 . S
H838 C823 0.961 . S
H839 C823 0.961 . S
H840 C824 0.931 . S
H841 C829 0.930 . S
H842 C830 0.956 . S
H843 C830 0.961 . S
H844 C830 0.961 . S
H845 C831 0.958 . S
H846 C831 0.961 . S
H847 C831 0.960 . S
C848 C849 1.391 . S
C848 C850 1.394 . S
C848 H864 0.931 . S
C849 C848 1.391 . S
C849 C853 1.376 . S
C850 C848 1.394 . S
C850 C851 1.369 . S
C850 C854 1.531 . S
C851 C850 1.369 . S
C851 C852 1.410 . S
C851 C859 1.503 . S
C852 C851 1.410 . S
C852 C853 1.392 . S
C852 C855 1.511 . S
C853 C849 1.376 . S
C853 C852 1.392 . S
C853 H865 0.929 . S
C854 C850 1.531 . S
C854 H866 0.960 . S
C854 H867 0.962 . S
C854 H868 0.960 . S
C855 C852 1.511 . S
C855 H869 0.961 . S
C855 H870 0.961 . S
C855 H871 0.961 . S
C856 C857 1.370 . S
C856 C858 1.363 . S
C856 H872 0.931 . S
C857 C856 1.370 . S
C857 C861 1.408 . S
C858 C856 1.363 . S
C858 C859 1.370 . S
C858 C862 1.524 . S
C859 C851 1.503 . S
C859 C858 1.370 . S
C859 C860 1.403 . S
C860 C859 1.403 . S
C860 C861 1.404 . S
C860 C863 1.539 . S
C861 C857 1.408 . S
C861 C860 1.404 . S
C861 H873 0.930 . S
C862 C858 1.524 . S
C862 H874 0.956 . S
C862 H875 0.961 . S
C862 H876 0.961 . S
C863 C860 1.539 . S
C863 H877 0.958 . S
C863 H878 0.961 . S
C863 H879 0.960 . S
H864 C848 0.931 . S
H865 C853 0.929 . S
H866 C854 0.960 . S
H867 C854 0.962 . S
H868 C854 0.960 . S
H869 C855 0.961 . S
H870 C855 0.961 . S
H871 C855 0.961 . S
H872 C856 0.931 . S
H873 C861 0.930 . S
H874 C862 0.956 . S
H875 C862 0.961 . S
H876 C862 0.961 . S
H877 C863 0.958 . S
H878 C863 0.961 . S
H879 C863 0.960 . S
C880 C881 1.391 . S
C880 C882 1.394 . S
C880 H896 0.931 . S
C881 C880 1.391 . S
C881 C885 1.376 . S
C882 C880 1.394 . S
C882 C883 1.369 . S
C882 C886 1.531 . S
C883 C882 1.369 . S
C883 C884 1.410 . S
C883 C891 1.503 . S
C884 C883 1.410 . S
C884 C885 1.392 . S
C884 C887 1.511 . S
C885 C881 1.376 . S
C885 C884 1.392 . S
C885 H897 0.929 . S
C886 C882 1.531 . S
C886 H898 0.960 . S
C886 H899 0.962 . S
C886 H900 0.960 . S
C887 C884 1.511 . S
C887 H901 0.961 . S
C887 H902 0.961 . S
C887 H903 0.961 . S
C888 C889 1.370 . S
C888 C890 1.363 . S
C888 H904 0.931 . S
C889 C888 1.370 . S
C889 C893 1.408 . S
C890 C888 1.363 . S
C890 C891 1.370 . S
C890 C894 1.524 . S
C891 C883 1.503 . S
C891 C890 1.370 . S
C891 C892 1.403 . S
C892 C891 1.403 . S
C892 C893 1.404 . S
C892 C895 1.539 . S
C893 C889 1.408 . S
C893 C892 1.404 . S
C893 H905 0.930 . S
C894 C890 1.524 . S
C894 H906 0.956 . S
C894 H907 0.961 . S
C894 H908 0.961 . S
C895 C892 1.539 . S
C895 H909 0.958 . S
C895 H910 0.961 . S
C895 H911 0.960 . S
H896 C880 0.931 . S
H897 C885 0.929 . S
H898 C886 0.960 . S
H899 C886 0.962 . S
H900 C886 0.960 . S
H901 C887 0.961 . S
H902 C887 0.961 . S
H903 C887 0.961 . S
H904 C888 0.931 . S
H905 C893 0.930 . S
H906 C894 0.956 . S
H907 C894 0.961 . S
H908 C894 0.961 . S
H909 C895 0.958 . S
H910 C895 0.961 . S
H911 C895 0.960 . S
C273 C209 0.327 . S
C281 C9 0.472 . S
C305 C243 0.257 . S
C313 C43 0.532 . S
C337 C141 0.248 . S
C345 C77 0.537 . S
C369 C175 0.322 . S
C377 C111 0.466 . S
C401 C73 0.294 . S
C409 C145 0.482 . S
C433 C107 0.212 . S
C441 C179 0.554 . S
C465 C5 0.305 . S
C473 C213 0.476 . S
C497 C247 0.535 . S
C505 C39 0.250 . S
C529 C101 2.800 . S
C537 C33 2.801 . S
C561 C67 2.800 . S
C569 C135 2.806 . S
C593 C237 2.800 . S
C601 C169 2.806 . S
C625 C203 2.800 . S
C633 C271 2.806 . S
C657 C20 1.727 . S
C665 C258 1.728 . S
C689 C156 1.721 . S
C697 C54 1.720 . S
C721 C190 1.710 . S
C729 C88 1.730 . S
C753 C224 1.713 . S
C761 C122 1.722 . S
C785 C70 2.079 . S
C793 C172 2.105 . S
C817 C104 2.095 . S
C825 C206 2.097 . S
C849 C240 2.092 . S
C857 C2 2.104 . S
C881 C138 2.109 . S
C889 C36 2.093 . S
