# Generated by pormake.
# Topology vbv, (6)-cn, num edge types: 1
# Building blocks:
#     Node 0, Type 0, BuildingBlock: IZENUY_clean_sbu_0, # of connection points: 6
#     Node 1, Type 0, BuildingBlock: IZENUY_clean_sbu_0, # of connection points: 6
#     Node 2, Type 0, BuildingBlock: IZENUY_clean_sbu_0, # of connection points: 6
#     Node 3, Type 0, BuildingBlock: IZENUY_clean_sbu_0, # of connection points: 6
#     Node 4, Type 0, BuildingBlock: IZENUY_clean_sbu_0, # of connection points: 6
#     Node 5, Type 0, BuildingBlock: IZENUY_clean_sbu_0, # of connection points: 6
#     Node 6, Type 0, BuildingBlock: IZENUY_clean_sbu_0, # of connection points: 6
#     Node 7, Type 0, BuildingBlock: IZENUY_clean_sbu_0, # of connection points: 6
#     Node 8, Type 0, BuildingBlock: IZENUY_clean_sbu_0, # of connection points: 6
#     Node 9, Type 0, BuildingBlock: IZENUY_clean_sbu_0, # of connection points: 6
#     Node 10, Type 0, BuildingBlock: IZENUY_clean_sbu_0, # of connection points: 6
#     Node 11, Type 0, BuildingBlock: IZENUY_clean_sbu_0, # of connection points: 6
#     Node 12, Type 0, BuildingBlock: IZENUY_clean_sbu_0, # of connection points: 6
#     Node 13, Type 0, BuildingBlock: IZENUY_clean_sbu_0, # of connection points: 6
#     Node 14, Type 0, BuildingBlock: IZENUY_clean_sbu_0, # of connection points: 6
#     Node 15, Type 0, BuildingBlock: IZENUY_clean_sbu_0, # of connection points: 6
#     Edge 16, Type (0, 0), BuildingBlock: KIFKEQ_clean_linker_1, # of connection points: 2
#     Edge 17, Type (0, 0), BuildingBlock: KIFKEQ_clean_linker_1, # of connection points: 2
#     Edge 18, Type (0, 0), BuildingBlock: KIFKEQ_clean_linker_1, # of connection points: 2
#     Edge 19, Type (0, 0), BuildingBlock: KIFKEQ_clean_linker_1, # of connection points: 2
#     Edge 20, Type (0, 0), BuildingBlock: KIFKEQ_clean_linker_1, # of connection points: 2
#     Edge 21, Type (0, 0), BuildingBlock: KIFKEQ_clean_linker_1, # of connection points: 2
#     Edge 22, Type (0, 0), BuildingBlock: KIFKEQ_clean_linker_1, # of connection points: 2
#     Edge 23, Type (0, 0), BuildingBlock: KIFKEQ_clean_linker_1, # of connection points: 2
#     Edge 24, Type (0, 0), BuildingBlock: KIFKEQ_clean_linker_1, # of connection points: 2
#     Edge 25, Type (0, 0), BuildingBlock: KIFKEQ_clean_linker_1, # of connection points: 2
#     Edge 26, Type (0, 0), BuildingBlock: KIFKEQ_clean_linker_1, # of connection points: 2
#     Edge 27, Type (0, 0), BuildingBlock: KIFKEQ_clean_linker_1, # of connection points: 2
#     Edge 28, Type (0, 0), BuildingBlock: KIFKEQ_clean_linker_1, # of connection points: 2
#     Edge 29, Type (0, 0), BuildingBlock: KIFKEQ_clean_linker_1, # of connection points: 2
#     Edge 30, Type (0, 0), BuildingBlock: KIFKEQ_clean_linker_1, # of connection points: 2
#     Edge 31, Type (0, 0), BuildingBlock: KIFKEQ_clean_linker_1, # of connection points: 2
#     Edge 32, Type (0, 0), BuildingBlock: KIFKEQ_clean_linker_1, # of connection points: 2
#     Edge 33, Type (0, 0), BuildingBlock: KIFKEQ_clean_linker_1, # of connection points: 2
#     Edge 34, Type (0, 0), BuildingBlock: KIFKEQ_clean_linker_1, # of connection points: 2
#     Edge 35, Type (0, 0), BuildingBlock: KIFKEQ_clean_linker_1, # of connection points: 2
#     Edge 36, Type (0, 0), BuildingBlock: KIFKEQ_clean_linker_1, # of connection points: 2
#     Edge 37, Type (0, 0), BuildingBlock: KIFKEQ_clean_linker_1, # of connection points: 2
#     Edge 38, Type (0, 0), BuildingBlock: KIFKEQ_clean_linker_1, # of connection points: 2
#     Edge 39, Type (0, 0), BuildingBlock: KIFKEQ_clean_linker_1, # of connection points: 2
#     Edge 40, Type (0, 0), BuildingBlock: KIFKEQ_clean_linker_1, # of connection points: 2
#     Edge 41, Type (0, 0), BuildingBlock: KIFKEQ_clean_linker_1, # of connection points: 2
#     Edge 42, Type (0, 0), BuildingBlock: KIFKEQ_clean_linker_1, # of connection points: 2
#     Edge 43, Type (0, 0), BuildingBlock: KIFKEQ_clean_linker_1, # of connection points: 2
#     Edge 44, Type (0, 0), BuildingBlock: KIFKEQ_clean_linker_1, # of connection points: 2
#     Edge 45, Type (0, 0), BuildingBlock: KIFKEQ_clean_linker_1, # of connection points: 2
#     Edge 46, Type (0, 0), BuildingBlock: KIFKEQ_clean_linker_1, # of connection points: 2
#     Edge 47, Type (0, 0), BuildingBlock: KIFKEQ_clean_linker_1, # of connection points: 2
#     Edge 48, Type (0, 0), BuildingBlock: KIFKEQ_clean_linker_1, # of connection points: 2
#     Edge 49, Type (0, 0), BuildingBlock: KIFKEQ_clean_linker_1, # of connection points: 2
#     Edge 50, Type (0, 0), BuildingBlock: KIFKEQ_clean_linker_1, # of connection points: 2
#     Edge 51, Type (0, 0), BuildingBlock: KIFKEQ_clean_linker_1, # of connection points: 2
#     Edge 52, Type (0, 0), BuildingBlock: KIFKEQ_clean_linker_1, # of connection points: 2
#     Edge 53, Type (0, 0), BuildingBlock: KIFKEQ_clean_linker_1, # of connection points: 2
#     Edge 54, Type (0, 0), BuildingBlock: KIFKEQ_clean_linker_1, # of connection points: 2
#     Edge 55, Type (0, 0), BuildingBlock: KIFKEQ_clean_linker_1, # of connection points: 2
#     Edge 56, Type (0, 0), BuildingBlock: KIFKEQ_clean_linker_1, # of connection points: 2
#     Edge 57, Type (0, 0), BuildingBlock: KIFKEQ_clean_linker_1, # of connection points: 2
#     Edge 58, Type (0, 0), BuildingBlock: KIFKEQ_clean_linker_1, # of connection points: 2
#     Edge 59, Type (0, 0), BuildingBlock: KIFKEQ_clean_linker_1, # of connection points: 2
#     Edge 60, Type (0, 0), BuildingBlock: KIFKEQ_clean_linker_1, # of connection points: 2
#     Edge 61, Type (0, 0), BuildingBlock: KIFKEQ_clean_linker_1, # of connection points: 2
#     Edge 62, Type (0, 0), BuildingBlock: KIFKEQ_clean_linker_1, # of connection points: 2
#     Edge 63, Type (0, 0), BuildingBlock: KIFKEQ_clean_linker_1, # of connection points: 2
# Relax obj value: 0.263
# Max RMSD: 0.241
# Mean RMSD: 0.241
data_MOF--net-vbv--node1-IZENUY_clean_sbu_0--edge1-KIFKEQ_clean_linker_1
_symmetry_space_group_name_H-M    P1
_symmetry_Int_Tables_number       1
_symmetry_cell_setting            triclinic
loop_
_symmetry_equiv_pos_as_xyz
'x, y, z'
_cell_length_a     54.335752
_cell_length_b     27.070197
_cell_length_c     47.103809
_cell_angle_alpha  89.994393
_cell_angle_beta   89.998558
_cell_angle_gamma 90.155877
loop_
_atom_site_label
_atom_site_type_symbol
_atom_site_fract_x
_atom_site_fract_y
_atom_site_fract_z
_atom_type_partial_charge
Fe0 Fe 0.12919 0.40417 0.12087 0.0
Fe1 Fe 0.16492 0.31777 0.11382 0.0
O2 O 0.14119 0.35526 0.10028 0.0
Fe3 Fe 0.12929 0.34367 0.06609 0.0
O4 O 0.13849 0.40391 0.05411 0.0
O5 O 0.12208 0.44429 0.0898 0.0
O6 O 0.15918 0.43464 0.12199 0.0
C7 C 0.1789 0.41447 0.13028 0.0
C8 C 0.08737 0.36217 0.09865 0.0
O9 O 0.17952 0.36807 0.13457 0.0
C10 C 0.13464 0.2493 0.08277 0.0
O11 O 0.13431 0.37291 0.1554 0.0
O12 O 0.146 0.29817 0.14325 0.0
O13 O 0.09794 0.36432 0.07473 0.0
O14 O 0.09883 0.37511 0.12079 0.0
C15 C 0.18045 0.32731 0.05967 0.0
O16 O 0.1549 0.26077 0.09472 0.0
O17 O 0.11958 0.28258 0.07626 0.0
C18 C 0.13677 0.32726 0.16119 0.0
O19 O 0.18512 0.33562 0.08533 0.0
O20 O 0.15851 0.32058 0.05139 0.0
C21 C 0.1313 0.4438 0.06492 0.0
Fe22 Fe 0.38307 0.68811 0.0659 0.0
Fe23 Fe 0.38648 0.62795 0.12071 0.0
O24 O 0.37327 0.6768 0.10095 0.0
Fe25 Fe 0.35034 0.71421 0.11625 0.0
O26 O 0.32863 0.69646 0.08958 0.0
O27 O 0.35282 0.70982 0.05312 0.0
O28 O 0.37367 0.62745 0.05491 0.0
C29 C 0.38192 0.58796 0.06513 0.0
C30 C 0.37855 0.78277 0.08284 0.0
O31 O 0.39245 0.58799 0.08928 0.0
C32 C 0.38066 0.70453 0.1616 0.0
O33 O 0.41496 0.66883 0.0727 0.0
O34 O 0.41668 0.65742 0.11874 0.0
O35 O 0.35909 0.7714 0.09645 0.0
O36 O 0.393 0.74947 0.07485 0.0
C37 C 0.33726 0.61728 0.13274 0.0
O38 O 0.38276 0.65889 0.15561 0.0
O39 O 0.37091 0.73376 0.14413 0.0
C40 C 0.42669 0.67173 0.09593 0.0
O41 O 0.35668 0.59723 0.12344 0.0
O42 O 0.33699 0.66348 0.13784 0.0
C43 C 0.33149 0.70341 0.06346 0.0
Fe44 Fe 0.63388 0.64384 0.40983 0.0
Fe45 Fe 0.67153 0.72833 0.41814 0.0
O46 O 0.64666 0.69195 0.43091 0.0
Fe47 Fe 0.63483 0.70392 0.46546 0.0
O48 O 0.62472 0.64094 0.47304 0.0
O49 O 0.6389 0.59783 0.43754 0.0
O50 O 0.66416 0.62333 0.39548 0.0
C51 C 0.68616 0.63416 0.40277 0.0
C52 C 0.59259 0.69418 0.43438 0.0
O53 O 0.69099 0.67468 0.41478 0.0
C54 C 0.64482 0.79976 0.44477 0.0
O55 O 0.62793 0.68487 0.37994 0.0
O56 O 0.66293 0.72539 0.38071 0.0
O57 O 0.60553 0.7197 0.45101 0.0
O58 O 0.60158 0.65733 0.42099 0.0
C59 C 0.68352 0.71195 0.47548 0.0
O60 O 0.65389 0.78566 0.42137 0.0
O61 O 0.642 0.76976 0.46501 0.0
C62 C 0.64332 0.71315 0.3682 0.0
O63 O 0.685 0.73711 0.45299 0.0
O64 O 0.66405 0.68931 0.48205 0.0
C65 C 0.63204 0.60051 0.46301 0.0
Fe66 Fe 0.88182 0.32506 0.46573 0.0
Fe67 Fe 0.88221 0.38503 0.41007 0.0
O68 O 0.86973 0.33678 0.43128 0.0
Fe69 Fe 0.84488 0.30012 0.41875 0.0
O70 O 0.83163 0.29128 0.4537 0.0
O71 O 0.85267 0.33935 0.48254 0.0
O72 O 0.89176 0.38822 0.47311 0.0
C73 C 0.88408 0.42846 0.46317 0.0
C74 C 0.87195 0.22906 0.44521 0.0
O75 O 0.877 0.431 0.43777 0.0
C76 C 0.87289 0.31535 0.36865 0.0
O77 O 0.91111 0.30967 0.45106 0.0
O78 O 0.9146 0.37235 0.42118 0.0
O79 O 0.86269 0.24301 0.42189 0.0
O80 O 0.87486 0.25913 0.46539 0.0
C81 C 0.8299 0.39399 0.40327 0.0
O82 O 0.88825 0.34389 0.38024 0.0
O83 O 0.85333 0.30308 0.38127 0.0
C84 C 0.92387 0.33573 0.43453 0.0
O85 O 0.85182 0.40489 0.39574 0.0
O86 O 0.82525 0.35357 0.41549 0.0
C87 C 0.8332 0.31655 0.47615 0.0
Fe88 Fe 0.88306 0.69047 0.96129 0.0
Fe89 Fe 0.849 0.71381 0.91161 0.0
O90 O 0.8726 0.67779 0.92657 0.0
Fe91 Fe 0.88567 0.62888 0.9068 0.0
O92 O 0.89255 0.58968 0.93829 0.0
O93 O 0.87465 0.62968 0.97309 0.0
O94 O 0.85273 0.71085 0.97469 0.0
C95 C 0.83129 0.70305 0.96491 0.0
C96 C 0.92624 0.67376 0.93011 0.0
O97 O 0.82805 0.69526 0.93891 0.0
C98 C 0.87828 0.70451 0.86545 0.0
O99 O 0.89202 0.75243 0.95174 0.0
O100 O 0.85729 0.77141 0.93098 0.0
O101 O 0.91559 0.65913 0.90779 0.0
O102 O 0.91511 0.67249 0.95379 0.0
C103 C 0.83645 0.61656 0.89566 0.0
O104 O 0.86882 0.73385 0.88311 0.0
O105 O 0.88111 0.65914 0.87179 0.0
C106 C 0.8768 0.78448 0.94391 0.0
O107 O 0.83587 0.6626 0.8904 0.0
O108 O 0.85602 0.59718 0.90499 0.0
C109 C 0.88277 0.5901 0.96286 0.0
Fe110 Fe 0.62962 0.3458 0.96119 0.0
Fe111 Fe 0.66398 0.31851 0.91234 0.0
O112 O 0.64074 0.35641 0.92656 0.0
Fe113 Fe 0.62843 0.40524 0.90616 0.0
O114 O 0.62121 0.44504 0.93716 0.0
O115 O 0.63928 0.40658 0.97242 0.0
O116 O 0.65907 0.32278 0.97522 0.0
C117 C 0.68082 0.32834 0.96609 0.0
C118 C 0.58715 0.36312 0.92922 0.0
O119 O 0.68494 0.33567 0.94022 0.0
C120 C 0.63557 0.32924 0.86536 0.0
O121 O 0.6196 0.28447 0.95193 0.0
O122 O 0.65409 0.26169 0.93172 0.0
O123 O 0.59824 0.3757 0.90673 0.0
O124 O 0.59805 0.36614 0.95298 0.0
C125 C 0.67798 0.41528 0.89623 0.0
O126 O 0.64436 0.2994 0.88321 0.0
O127 O 0.6335 0.37472 0.87154 0.0
C128 C 0.63427 0.25085 0.94481 0.0
O129 O 0.67835 0.36896 0.89148 0.0
O130 O 0.65839 0.4357 0.90483 0.0
C131 C 0.63145 0.44579 0.96141 0.0
Fe132 Fe 0.38719 0.40555 0.62136 0.0
Fe133 Fe 0.3859 0.34502 0.56647 0.0
O134 O 0.37452 0.35692 0.60086 0.0
Fe135 Fe 0.35044 0.32051 0.61469 0.0
O136 O 0.33686 0.37116 0.63572 0.0
O137 O 0.35752 0.43705 0.62241 0.0
O138 O 0.39499 0.44506 0.59037 0.0
C139 C 0.38527 0.44543 0.56583 0.0
C140 C 0.37901 0.32905 0.66174 0.0
O141 O 0.37748 0.40615 0.55476 0.0
C142 C 0.37916 0.25061 0.58311 0.0
O143 O 0.41712 0.3756 0.62123 0.0
O144 O 0.41758 0.36343 0.57518 0.0
O145 O 0.36947 0.30011 0.64384 0.0
O146 O 0.38172 0.37465 0.65592 0.0
C147 C 0.3345 0.33096 0.56072 0.0
O148 O 0.39468 0.28289 0.57599 0.0
O149 O 0.35934 0.26339 0.59542 0.0
C150 C 0.4281 0.36089 0.59916 0.0
O151 O 0.35627 0.32387 0.55209 0.0
O152 O 0.33014 0.33921 0.58648 0.0
C153 C 0.33773 0.41735 0.63103 0.0
Fe154 Fe 0.13017 0.62644 0.62041 0.0
Fe155 Fe 0.1328 0.68869 0.56606 0.0
O156 O 0.14308 0.67597 0.60081 0.0
Fe157 Fe 0.16642 0.71266 0.61608 0.0
O158 O 0.17947 0.6619 0.63754 0.0
O159 O 0.15999 0.59593 0.62237 0.0
O160 O 0.12367 0.58709 0.58886 0.0
C161 C 0.13337 0.58808 0.56428 0.0
C162 C 0.13641 0.70263 0.6616 0.0
O163 O 0.14123 0.62801 0.55413 0.0
C164 C 0.13886 0.78281 0.5835 0.0
O165 O 0.10006 0.65525 0.61927 0.0
O166 O 0.10079 0.6706 0.57346 0.0
O167 O 0.14611 0.7322 0.64418 0.0
O168 O 0.1343 0.65698 0.65544 0.0
C169 C 0.18456 0.70156 0.56298 0.0
O170 O 0.12375 0.75052 0.57556 0.0
O171 O 0.1583 0.77004 0.59656 0.0
C172 C 0.08961 0.67102 0.59711 0.0
O173 O 0.16321 0.7092 0.55297 0.0
O174 O 0.1877 0.69456 0.58908 0.0
C175 C 0.17931 0.61596 0.63203 0.0
Fe176 Fe 0.62854 0.90415 0.12523 0.0
Fe177 Fe 0.66475 0.81836 0.11771 0.0
O178 O 0.6415 0.85681 0.10403 0.0
Fe179 Fe 0.63105 0.84832 0.06893 0.0
O180 O 0.64096 0.90973 0.05931 0.0
O181 O 0.62198 0.94595 0.09478 0.0
O182 O 0.65838 0.93504 0.12822 0.0
C183 C 0.67811 0.91413 0.13599 0.0
C184 C 0.58802 0.8626 0.09998 0.0
O185 O 0.67877 0.86757 0.13953 0.0
C186 C 0.63526 0.75245 0.0839 0.0
O187 O 0.63295 0.87127 0.15934 0.0
O188 O 0.6451 0.79741 0.14623 0.0
O189 O 0.59952 0.86835 0.0768 0.0
O190 O 0.59833 0.87433 0.12312 0.0
C191 C 0.68218 0.83094 0.06444 0.0
O192 O 0.65499 0.76259 0.09734 0.0
O193 O 0.62085 0.78647 0.07663 0.0
C194 C 0.63591 0.82563 0.16465 0.0
O195 O 0.68596 0.83726 0.09044 0.0
O196 O 0.66055 0.82585 0.05497 0.0
C197 C 0.63277 0.94821 0.07083 0.0
Fe198 Fe 0.88243 0.18985 0.06873 0.0
Fe199 Fe 0.88523 0.12938 0.12369 0.0
O200 O 0.87216 0.17807 0.10365 0.0
Fe201 Fe 0.84884 0.21493 0.11856 0.0
O202 O 0.82761 0.19647 0.09153 0.0
O203 O 0.85212 0.21062 0.05543 0.0
O204 O 0.87362 0.12896 0.0575 0.0
C205 C 0.88168 0.08946 0.06788 0.0
C206 C 0.87689 0.28434 0.08574 0.0
O207 O 0.89168 0.08937 0.09235 0.0
C208 C 0.87838 0.2059 0.1646 0.0
O209 O 0.91444 0.17138 0.07605 0.0
O210 O 0.91526 0.15934 0.12213 0.0
O211 O 0.85738 0.27197 0.09888 0.0
O212 O 0.89179 0.25181 0.07772 0.0
C213 C 0.836 0.11821 0.13526 0.0
O214 O 0.88107 0.16041 0.15853 0.0
O215 O 0.8689 0.23502 0.14684 0.0
C216 C 0.92576 0.17343 0.09958 0.0
O217 O 0.85549 0.09806 0.12625 0.0
O218 O 0.83554 0.16441 0.14001 0.0
C219 C 0.83071 0.20344 0.06545 0.0
Fe220 Fe 0.16717 0.21246 0.40787 0.0
Fe221 Fe 0.13444 0.18804 0.45852 0.0
O222 O 0.1439 0.17607 0.42342 0.0
Fe223 Fe 0.13006 0.12751 0.40386 0.0
O224 O 0.15954 0.09579 0.40095 0.0
O225 O 0.17965 0.16139 0.38611 0.0
O226 O 0.18884 0.19384 0.4344 0.0
C227 C 0.18617 0.20115 0.46052 0.0
C228 C 0.13644 0.20382 0.36281 0.0
O229 O 0.16499 0.2086 0.47096 0.0
C230 C 0.09063 0.17326 0.42878 0.0
O231 O 0.15935 0.26985 0.4277 0.0
O232 O 0.12522 0.25 0.44967 0.0
O233 O 0.13389 0.15825 0.36888 0.0
O234 O 0.14662 0.23277 0.38018 0.0
C235 C 0.13442 0.08774 0.45957 0.0
O236 O 0.1024 0.16979 0.45193 0.0
O237 O 0.10021 0.15803 0.40597 0.0
C238 C 0.14008 0.28242 0.44122 0.0
O239 O 0.14317 0.12705 0.46958 0.0
O240 O 0.12383 0.08786 0.43544 0.0
C241 C 0.17901 0.11528 0.39128 0.0
Fe242 Fe 0.38655 0.90518 0.40328 0.0
Fe243 Fe 0.35072 0.8181 0.40947 0.0
O244 O 0.37391 0.85637 0.42367 0.0
Fe245 Fe 0.38472 0.84585 0.45838 0.0
O246 O 0.37489 0.90619 0.46944 0.0
O247 O 0.39285 0.94588 0.43443 0.0
O248 O 0.35659 0.93512 0.40104 0.0
C249 C 0.33705 0.91443 0.39241 0.0
C250 C 0.42725 0.86263 0.42723 0.0
O251 O 0.33659 0.86801 0.38813 0.0
C252 C 0.38041 0.75091 0.44203 0.0
O253 O 0.38226 0.87351 0.36872 0.0
O254 O 0.37049 0.79869 0.38082 0.0
O255 O 0.416 0.86727 0.45058 0.0
O256 O 0.41692 0.87624 0.40452 0.0
C257 C 0.33362 0.82802 0.46296 0.0
O258 O 0.36047 0.76148 0.42915 0.0
O259 O 0.395 0.78482 0.44915 0.0
C260 C 0.37999 0.82778 0.36302 0.0
O261 O 0.32962 0.83564 0.4371 0.0
O262 O 0.35531 0.82217 0.4721 0.0
C263 C 0.38272 0.94589 0.45886 0.0
Fe264 Fe 0.34882 0.21271 0.90878 0.0
Fe265 Fe 0.38597 0.12875 0.90368 0.0
O266 O 0.3722 0.1763 0.92389 0.0
Fe267 Fe 0.38178 0.18696 0.95914 0.0
O268 O 0.35113 0.20623 0.97198 0.0
O269 O 0.32725 0.19292 0.93519 0.0
O270 O 0.33639 0.1621 0.88662 0.0
C271 C 0.33698 0.11594 0.89158 0.0
C272 C 0.37583 0.2819 0.9428 0.0
O273 O 0.35653 0.0964 0.90091 0.0
C274 C 0.42567 0.17367 0.92867 0.0
O275 O 0.36924 0.23427 0.88114 0.0
O276 O 0.38167 0.16014 0.86905 0.0
O277 O 0.39071 0.24956 0.95114 0.0
O278 O 0.35662 0.26944 0.92912 0.0
C279 C 0.38203 0.08677 0.9585 0.0
O280 O 0.41556 0.16002 0.9058 0.0
O281 O 0.41415 0.17015 0.95207 0.0
C282 C 0.37923 0.20582 0.86341 0.0
O283 O 0.39291 0.08864 0.93466 0.0
O284 O 0.37321 0.12512 0.96942 0.0
C285 C 0.32992 0.19913 0.96141 0.0
Fe286 Fe 0.12901 0.90341 0.90308 0.0
Fe287 Fe 0.13095 0.84516 0.95863 0.0
O288 O 0.14189 0.8557 0.92389 0.0
Fe289 Fe 0.16571 0.81887 0.91005 0.0
O290 O 0.17925 0.86899 0.88843 0.0
O291 O 0.15868 0.93516 0.90115 0.0
O292 O 0.12168 0.94389 0.9338 0.0
C293 C 0.1319 0.94532 0.95807 0.0
C294 C 0.13669 0.8259 0.86328 0.0
O295 O 0.13993 0.90655 0.9694 0.0
C296 C 0.13683 0.75024 0.94254 0.0
O297 O 0.09908 0.87293 0.90419 0.0
O298 O 0.09917 0.86395 0.95048 0.0
O299 O 0.14637 0.79759 0.88132 0.0
O300 O 0.134 0.87158 0.86874 0.0
C301 C 0.18236 0.83062 0.96365 0.0
O302 O 0.12168 0.7829 0.94991 0.0
O303 O 0.15666 0.7624 0.92992 0.0
C304 C 0.08819 0.86047 0.92681 0.0
O305 O 0.16067 0.82389 0.9727 0.0
O306 O 0.18639 0.83828 0.93777 0.0
C307 C 0.17844 0.91532 0.89269 0.0
Fe308 Fe 0.88311 0.88768 0.62128 0.0
Fe309 Fe 0.88379 0.82925 0.5654 0.0
O310 O 0.87082 0.84014 0.59955 0.0
Fe311 Fe 0.84558 0.80359 0.61076 0.0
O312 O 0.82621 0.85698 0.61575 0.0
O313 O 0.85282 0.90837 0.63524 0.0
O314 O 0.87849 0.93391 0.59348 0.0
C315 C 0.88706 0.93144 0.56872 0.0
C316 C 0.87311 0.81582 0.66168 0.0
O317 O 0.89605 0.89146 0.56008 0.0
C318 C 0.87161 0.73305 0.58261 0.0
O319 O 0.91547 0.87349 0.61068 0.0
O320 O 0.91186 0.80926 0.58174 0.0
O321 O 0.85406 0.80257 0.64827 0.0
O322 O 0.88824 0.84615 0.65114 0.0
C323 C 0.83497 0.83006 0.5547 0.0
O324 O 0.87477 0.76442 0.56321 0.0
O325 O 0.86273 0.74601 0.60622 0.0
C326 C 0.92408 0.83408 0.5995 0.0
O327 O 0.85554 0.84871 0.54817 0.0
O328 O 0.83273 0.80002 0.57517 0.0
C329 C 0.83087 0.89706 0.62825 0.0
Fe330 Fe 0.63335 0.13961 0.62161 0.0
Fe331 Fe 0.63283 0.19881 0.56596 0.0
O332 O 0.64545 0.18812 0.60036 0.0
Fe333 Fe 0.67008 0.22587 0.61212 0.0
O334 O 0.68995 0.17348 0.6183 0.0
O335 O 0.66357 0.11915 0.63551 0.0
O336 O 0.63837 0.09415 0.59348 0.0
C337 C 0.62976 0.09675 0.56877 0.0
C338 C 0.64189 0.21208 0.6625 0.0
O339 O 0.62061 0.13667 0.5604 0.0
C340 C 0.64438 0.2954 0.58268 0.0
O341 O 0.60101 0.1539 0.6109 0.0
O342 O 0.60456 0.21843 0.58202 0.0
O343 O 0.66052 0.22787 0.64921 0.0
O344 O 0.62789 0.17958 0.65201 0.0
C345 C 0.68182 0.19852 0.55631 0.0
O346 O 0.64176 0.2636 0.56348 0.0
O347 O 0.65262 0.28288 0.60664 0.0
C348 C 0.59238 0.19342 0.5998 0.0
O349 O 0.66138 0.17968 0.5493 0.0
O350 O 0.68372 0.22859 0.57685 0.0
C351 C 0.68551 0.13236 0.62977 0.0
H352 H 0.10158 0.2253 0.04157 0.0
H353 H 0.16131 0.16363 0.09049 0.0
H354 H 0.10103 0.15355 1.01162 0.0
H355 H 0.1594 0.08871 0.06174 0.0
H356 H 0.17001 0.98461 0.98737 0.0
H357 H 0.16965 0.05559 0.01907 0.0
H358 H 0.09181 0.07452 1.0025 0.0
H359 H 0.09313 1.00618 0.96893 0.0
C360 C 0.1142 0.19563 0.04655 0.0
C361 C 0.13163 0.20061 0.0685 0.0
C362 C 0.11377 0.15382 0.02927 0.0
C363 C 0.13026 0.11464 0.03378 0.0
C364 C 0.14681 0.1184 0.05684 0.0
C365 C 0.1477 0.16112 0.07375 0.0
C366 C 0.15298 1.00476 0.99026 0.0
C367 C 0.1317 0.99063 0.97544 0.0
C368 C 0.1526 0.04505 1.00885 0.0
C369 C 0.13066 0.07133 1.01385 0.0
C370 C 0.10928 0.05652 0.99896 0.0
C371 C 0.10992 0.01716 0.97966 0.0
H372 H 0.3433 0.04436 0.98513 0.0
H373 H 0.42144 0.02967 0.97243 0.0
H374 H 0.34353 0.97398 0.0173 0.0
H375 H 0.42248 0.96205 1.00651 0.0
H376 H 0.41372 0.81041 0.04484 0.0
H377 H 0.41455 0.8824 0.01517 0.0
H378 H 0.3522 0.94204 0.06083 0.0
H379 H 0.35008 0.86665 0.08921 0.0
C380 C 0.36057 0.02581 0.98937 0.0
C381 C 0.38227 0.04162 0.97599 0.0
C382 C 0.36085 0.98592 1.00825 0.0
C383 C 0.38305 0.96178 0.015 0.0
C384 C 0.40484 0.97834 1.00158 0.0
C385 C 0.40437 0.01727 0.98198 0.0
C386 C 0.4002 0.83891 0.04888 0.0
C387 C 0.38158 0.83216 0.06934 0.0
C388 C 0.40083 0.88093 0.03179 0.0
C389 C 0.38332 0.91864 0.03506 0.0
C390 C 0.36561 0.91341 0.05687 0.0
C391 C 0.36459 0.87044 0.07359 0.0
H392 H 0.65828 1.01349 0.57283 0.0
H393 H 0.60457 0.08453 0.51905 0.0
H394 H 0.66266 0.94737 0.53775 0.0
H395 H 0.60897 0.01856 0.48414 0.0
H396 H 0.60337 0.85332 0.45157 0.0
H397 H 0.59958 0.92816 0.48036 0.0
H398 H 0.67871 0.93543 0.48802 0.0
H399 H 0.68231 0.86073 0.45895 0.0
C400 C 0.64725 1.01478 0.55369 0.0
C401 C 0.63098 0.05419 0.54887 0.0
C402 C 0.64999 0.97725 0.53341 0.0
C403 C 0.63633 0.97797 0.508 0.0
C404 C 0.61972 0.01686 0.50347 0.0
C405 C 0.61721 0.05464 0.52354 0.0
C406 C 0.61994 0.87247 0.45823 0.0
C407 C 0.64314 0.85234 0.45229 0.0
C408 C 0.6178 0.91495 0.47501 0.0
C409 C 0.63884 0.93743 0.48677 0.0
C410 C 0.66215 0.9187 0.47951 0.0
C411 C 0.66427 0.87662 0.46237 0.0
H412 H 0.91252 0.94428 0.51924 0.0
H413 H 0.85854 1.01463 0.57296 0.0
H414 H 0.90818 1.01053 0.48449 0.0
H415 H 0.85422 0.08103 0.53805 0.0
H416 H 0.83458 0.16765 0.45915 0.0
H417 H 0.83827 0.0929 0.48818 0.0
H418 H 0.91741 0.10113 0.48103 0.0
H419 H 0.91354 0.17603 0.45229 0.0
C420 C 0.89985 0.97409 0.52376 0.0
C421 C 0.88597 0.97426 0.54901 0.0
C422 C 0.89736 1.01202 0.50378 0.0
C423 C 0.88068 0.05077 0.50834 0.0
C424 C 0.86695 0.05125 0.53369 0.0
C425 C 0.86966 1.01357 0.55388 0.0
C426 C 0.85266 0.15197 0.46268 0.0
C427 C 0.87376 0.17652 0.45276 0.0
C428 C 0.85482 0.10986 0.47979 0.0
C429 C 0.87815 0.09139 0.48717 0.0
C430 C 0.89918 0.11416 0.47558 0.0
C431 C 0.897 0.15667 0.45883 0.0
H432 H 0.85902 0.07953 0.01666 0.0
H433 H 0.90301 0.99809 0.07702 0.0
H434 H 0.85887 1.00922 0.98492 0.0
H435 H 0.90236 0.92655 0.04509 0.0
H436 H 0.91709 0.82597 0.96925 0.0
H437 H 0.91842 0.8994 0.99913 0.0
H438 H 0.84192 0.92748 0.98032 0.0
H439 H 0.84066 0.85434 0.95012 0.0
C440 C 0.86863 0.04648 0.0233 0.0
C441 C 0.88115 0.04472 0.0495 0.0
C442 C 0.86837 1.0059 1.00504 0.0
C443 C 0.88059 0.96212 1.01233 0.0
C444 C 0.89301 0.95998 0.03861 0.0
C445 C 0.89324 1.00081 0.05704 0.0
C446 C 0.90064 0.84828 0.97107 0.0
C447 C 0.87874 0.83415 0.95721 0.0
C448 C 0.90134 0.89007 0.98853 0.0
C449 C 0.8802 0.91901 0.99255 0.0
C450 C 0.85862 0.90623 0.97763 0.0
C451 C 0.8579 0.86436 0.96015 0.0
H452 H 0.66133 0.16546 0.93759 0.0
H453 H 0.60111 0.22664 0.98591 0.0
H454 H 0.6598 0.09109 0.96684 0.0
H455 H 0.60093 0.15549 0.01633 0.0
H456 H 0.59382 1.00858 0.05992 0.0
H457 H 0.59221 0.0765 0.0261 0.0
H458 H 0.67016 0.05896 1.00974 0.0
H459 H 0.67083 0.98836 0.04173 0.0
C460 C 0.64768 0.16296 0.95429 0.0
C461 C 0.6314 0.20222 0.95924 0.0
C462 C 0.64702 0.12057 0.9715 0.0
C463 C 0.63046 0.11688 0.99456 0.0
C464 C 0.61371 0.15573 0.99873 0.0
C465 C 0.61393 0.19721 0.98117 0.0
C466 C 0.61058 0.01983 0.04923 0.0
C467 C 0.63248 0.99375 0.0536 0.0
C468 C 0.60978 0.05894 0.02976 0.0
C469 C 0.63109 0.07397 0.01481 0.0
C470 C 0.65316 0.04824 0.02 0.0
C471 C 0.65372 1.00818 0.03877 0.0
H472 H 0.3603 0.95601 0.5102 0.0
H473 H 0.40405 0.03729 0.44933 0.0
H474 H 0.36059 0.02643 0.54188 0.0
H475 H 0.40382 0.10894 0.48116 0.0
H476 H 0.41927 0.20988 0.55696 0.0
H477 H 0.42027 0.13656 0.52692 0.0
H478 H 0.34387 0.10799 0.54644 0.0
H479 H 0.34294 0.18077 0.5768 0.0
C480 C 0.36992 0.98906 0.50343 0.0
C481 C 0.38226 0.99075 0.47712 0.0
C482 C 0.36994 0.0297 0.52165 0.0
C483 C 0.38223 0.07346 0.51419 0.0
C484 C 0.39444 0.07553 0.48777 0.0
C485 C 0.3944 0.03464 0.4694 0.0
C486 C 0.40278 0.18747 0.55526 0.0
C487 C 0.38102 0.20128 0.56941 0.0
C488 C 0.40329 0.14575 0.53772 0.0
C489 C 0.38208 0.11665 0.5339 0.0
C490 C 0.36062 0.12929 0.549 0.0
C491 C 0.36011 0.17099 0.56657 0.0
H492 H 0.09857 0.82379 0.55811 0.0
H493 H 0.17493 0.85322 0.57753 0.0
H494 H 0.09723 0.89741 0.52838 0.0
H495 H 0.17367 0.92647 0.54745 0.0
H496 H 0.15693 0.07811 0.51092 0.0
H497 H 0.15687 1.00791 0.54275 0.0
H498 H 0.11326 0.92499 0.48259 0.0
H499 H 0.1128 0.99642 0.4506 0.0
C500 C 0.11501 0.84637 0.55638 0.0
C501 C 0.13688 0.83249 0.57027 0.0
C502 C 0.1143 0.88827 0.53902 0.0
C503 C 0.13542 0.91754 0.53511 0.0
C504 C 0.15699 0.90499 0.55006 0.0
C505 C 0.1577 0.86304 0.56747 0.0
C506 C 0.14725 0.04503 0.5043 0.0
C507 C 0.13476 0.04315 0.47809 0.0
C508 C 0.14738 1.00452 0.52262 0.0
C509 C 0.13507 0.96068 0.51535 0.0
C510 C 0.12266 0.95846 0.48906 0.0
C511 C 0.12254 0.99923 0.4706 0.0
H512 H 0.59357 0.50982 0.97009 0.0
H513 H 0.66893 0.4816 0.99329 0.0
H514 H 0.59232 0.57895 1.00309 0.0
H515 H 0.66878 0.55328 0.02447 0.0
H516 H 0.65971 0.66492 0.09407 0.0
H517 H 0.65741 0.58912 0.06609 0.0
H518 H 0.60316 0.65742 1.01153 0.0
H519 H 0.60398 0.73022 0.04063 0.0
C520 C 0.61006 0.51939 0.9818 0.0
C521 C 0.63138 0.49082 0.97905 0.0
C522 C 0.60948 0.55922 1.00076 0.0
C523 C 0.6305 0.57252 0.01674 0.0
C524 C 0.65198 0.54402 1.01333 0.0
C525 C 0.65225 0.50326 0.99508 0.0
C526 C 0.64691 0.66304 0.07648 0.0
C527 C 0.63205 0.70375 0.06975 0.0
C528 C 0.64581 0.61979 0.06005 0.0
C529 C 0.63027 0.61666 0.03604 0.0
C530 C 0.61502 0.6572 0.02996 0.0
C531 C 0.61564 0.69961 0.04674 0.0
H532 H 0.84159 0.35614 0.08082 0.0
H533 H 0.9173 0.32421 0.0598 0.0
H534 H 0.84332 0.42985 0.05112 0.0
H535 H 0.91909 0.39818 0.0304 0.0
H536 H 0.903 0.49806 0.95305 0.0
H537 H 0.90231 0.42643 0.98489 0.0
H538 H 0.86144 0.51086 0.04666 0.0
H539 H 0.86163 0.58137 0.01503 0.0
C540 C 0.85878 0.36546 0.07047 0.0
C541 C 0.87926 0.3341 0.0727 0.0
C542 C 0.85976 0.40766 0.05329 0.0
C543 C 0.88126 0.41959 0.03799 0.0
C544 C 0.90208 0.38951 0.04133 0.0
C545 C 0.90111 0.34739 0.05849 0.0
C546 C 0.89383 0.50119 0.97338 0.0
C547 C 0.88244 0.54559 0.98139 0.0
C548 C 0.89358 0.4603 0.99174 0.0
C549 C 0.88184 0.4629 0.01841 0.0
C550 C 0.87039 0.50724 0.02623 0.0
C551 C 0.87067 0.54789 1.00802 0.0
H552 H 0.15561 0.57955 0.51268 0.0
H553 H 0.11293 0.49582 0.57346 0.0
H554 H 0.1563 0.50909 0.48094 0.0
H555 H 0.11405 0.42436 0.54155 0.0
H556 H 0.09959 0.32302 0.46621 0.0
H557 H 0.0978 0.39689 0.49562 0.0
H558 H 0.17406 0.42761 0.4765 0.0
H559 H 0.17581 0.3538 0.44678 0.0
C560 C 0.14639 0.546 0.51939 0.0
C561 C 0.13409 0.54358 0.54572 0.0
C562 C 0.14695 0.50538 0.50114 0.0
C563 C 0.13522 0.461 0.50857 0.0
C564 C 0.12301 0.45826 0.53496 0.0
C565 C 0.1225 0.49907 0.55338 0.0
C566 C 0.1159 0.34596 0.46786 0.0
C567 C 0.13788 0.33234 0.4541 0.0
C568 C 0.11493 0.38804 0.48504 0.0
C569 C 0.13588 0.41781 0.48887 0.0
C570 C 0.15753 0.40564 0.47397 0.0
C571 C 0.15852 0.36341 0.45676 0.0
H572 H 0.42337 0.50888 0.55568 0.0
H573 H 0.34723 0.48184 0.53534 0.0
H574 H 0.42424 0.57751 0.52229 0.0
H575 H 0.34704 0.55307 0.50385 0.0
H576 H 0.35463 0.66393 0.43355 0.0
H577 H 0.35713 0.58852 0.46184 0.0
H578 H 0.41417 0.65576 0.51321 0.0
H579 H 0.41313 0.72795 0.4837 0.0
C580 C 0.40663 0.51864 0.54453 0.0
C581 C 0.38521 0.49051 0.54819 0.0
C582 C 0.40699 0.55822 0.52535 0.0
C583 C 0.38565 0.57171 0.51003 0.0
C584 C 0.36407 0.54369 0.5144 0.0
C585 C 0.364 0.50318 0.53286 0.0
C586 C 0.36808 0.66187 0.45048 0.0
C587 C 0.38364 0.70216 0.45618 0.0
C588 C 0.3693 0.61884 0.46712 0.0
C589 C 0.38568 0.61552 0.49039 0.0
C590 C 0.40162 0.6556 0.49539 0.0
C591 C 0.40087 0.69772 0.47837 0.0
H592 H 0.41627 0.32308 0.96782 0.0
H593 H 0.33996 0.35233 0.94843 0.0
H594 H 0.41791 0.39712 0.99715 0.0
H595 H 0.34152 0.42608 0.97813 0.0
H596 H 0.35929 0.57826 1.01386 0.0
H597 H 0.35886 0.50763 0.98233 0.0
H598 H 0.40179 0.42466 0.04292 0.0
H599 H 0.40274 0.49644 0.07459 0.0
C600 C 0.39991 0.3457 0.96949 0.0
C601 C 0.37796 0.33169 0.95576 0.0
C602 C 0.40079 0.38785 0.98661 0.0
C603 C 0.37976 0.41716 0.99041 0.0
C604 C 0.35812 0.40449 0.97558 0.0
C605 C 0.35724 0.36229 0.95841 0.0
C606 C 0.36871 0.54506 0.02063 0.0
C607 C 0.38118 0.54323 0.04684 0.0
C608 C 0.3683 0.50434 1.00249 0.0
C609 C 0.3803 0.46042 1.00999 0.0
C610 C 0.39263 0.45823 0.0363 0.0
C611 C 0.39303 0.49919 0.05457 0.0
H612 H 0.11175 0.53609 0.07562 0.0
H613 H 0.15194 0.45299 1.01253 0.0
H614 H 0.11232 0.60819 0.04413 0.0
H615 H 0.15204 0.52399 0.98125 0.0
H616 H 0.17208 0.67847 0.94744 0.0
H617 H 0.1705 0.60489 0.97718 0.0
H618 H 0.09498 0.63709 0.99884 0.0
H619 H 0.09661 0.71105 0.96936 0.0
C620 C 0.12065 0.53312 0.05513 0.0
C621 C 0.13173 0.48863 0.04669 0.0
C622 C 0.12083 0.57428 0.03698 0.0
C623 C 0.1322 0.57184 1.0101 0.0
C624 C 0.14337 0.52744 1.00186 0.0
C625 C 0.14315 0.48652 0.01985 0.0
C626 C 0.15495 0.66934 0.95801 0.0
C627 C 0.13449 0.70079 0.95596 0.0
C628 C 0.15407 0.6272 0.97521 0.0
C629 C 0.13269 0.61538 0.99072 0.0
C630 C 0.1119 0.64566 0.98768 0.0
C631 C 0.11276 0.68776 0.97049 0.0
H632 H 0.83361 0.67541 0.5659 0.0
H633 H 0.91234 0.6767 0.57678 0.0
H634 H 0.83665 0.5995 0.53775 0.0
H635 H 0.91554 0.60056 0.54891 0.0
H636 H 0.90754 0.44139 0.51396 0.0
H637 H 0.90379 0.5104 0.54698 0.0
H638 H 0.8544 0.58348 0.48888 0.0
H639 H 0.85816 0.51436 0.45567 0.0
C640 C 0.85144 0.65813 0.56326 0.0
C641 C 0.87268 0.68086 0.57413 0.0
C642 C 0.85325 0.61529 0.54673 0.0
C643 C 0.87636 0.5943 0.54087 0.0
C644 C 0.89746 0.6156 0.5532 0.0
C645 C 0.89565 0.65884 0.56938 0.0
C646 C 0.89599 0.4723 0.50809 0.0
C647 C 0.88322 0.47239 0.48206 0.0
C648 C 0.89386 0.51184 0.52705 0.0
C649 C 0.87864 0.55218 0.52069 0.0
C650 C 0.866 0.55255 0.49459 0.0
C651 C 0.86838 0.51324 0.47541 0.0
H652 H 0.65543 0.51214 0.45385 0.0
H653 H 0.61094 0.58958 0.51539 0.0
H654 H 0.65917 0.44262 0.4867 0.0
H655 H 0.61478 0.52023 0.54814 0.0
H656 H 0.60478 0.35609 0.58049 0.0
H657 H 0.6015 0.43207 0.5524 0.0
H658 H 0.67912 0.42412 0.53324 0.0
H659 H 0.68221 0.34835 0.5614 0.0
C660 C 0.64628 0.51421 0.47425 0.0
C661 C 0.63283 0.55646 0.48188 0.0
C662 C 0.64866 0.47461 0.49322 0.0
C663 C 0.63746 0.47608 0.52018 0.0
C664 C 0.62357 0.51784 0.52755 0.0
C665 C 0.6214 0.55762 0.50873 0.0
C666 C 0.62126 0.37192 0.57122 0.0
C667 C 0.64387 0.34742 0.57372 0.0
C668 C 0.61939 0.41508 0.55491 0.0
C669 C 0.64001 0.43385 0.5403 0.0
C670 C 0.66285 0.41033 0.54393 0.0
C671 C 0.66474 0.36754 0.56047 0.0
H672 H 0.1427 0.29767 0.34273 0.0
H673 H 0.11864 0.15224 0.31675 0.0
H674 H 0.13901 0.32671 0.29427 0.0
H675 H 0.11412 0.18198 0.26805 0.0
H676 H 0.14472 0.23413 0.18159 0.0
H677 H 0.14062 0.20479 0.23 0.0
H678 H 0.11305 0.34762 0.25556 0.0
H679 H 0.11796 0.37766 0.20699 0.0
C680 C 0.13623 0.27195 0.32675 0.0
C681 C 0.13127 0.22232 0.33369 0.0
C682 C 0.13391 0.28886 0.29886 0.0
C683 C 0.12639 0.25675 0.27706 0.0
C684 C 0.12038 0.20759 0.28418 0.0
C685 C 0.12282 0.19056 0.31216 0.0
C686 C 0.13761 0.25935 0.19743 0.0
C687 C 0.13196 0.30857 0.19037 0.0
C688 C 0.13504 0.24227 0.22527 0.0
C689 C 0.1266 0.27377 0.24688 0.0
C690 C 0.12002 0.3225 0.23961 0.0
C691 C 0.12272 0.33971 0.21171 0.0
H692 H 0.39828 0.65277 0.20761 0.0
H693 H 0.3748 0.79837 0.18171 0.0
H694 H 0.40297 0.68241 0.25631 0.0
H695 H 0.37862 0.82731 0.23017 0.0
H696 H 0.39936 0.87815 0.31743 0.0
H697 H 0.40452 0.84808 0.26892 0.0
H698 H 0.37657 0.70514 0.29433 0.0
H699 H 0.37226 0.73448 0.34268 0.0
C700 C 0.39426 0.6911 0.21222 0.0
C701 C 0.38591 0.72294 0.19073 0.0
C702 C 0.3968 0.70808 0.2402 0.0
C703 C 0.39098 0.75725 0.24735 0.0
C704 C 0.38358 0.78944 0.22556 0.0
C705 C 0.38117 0.77259 0.19768 0.0
C706 C 0.3946 0.84015 0.3127 0.0
C707 C 0.38516 0.80899 0.33397 0.0
C708 C 0.39743 0.82293 0.28483 0.0
C709 C 0.39079 0.77419 0.27753 0.0
C710 C 0.38221 0.74263 0.29909 0.0
C711 C 0.37951 0.75971 0.3269 0.0
H712 H 0.61151 0.86874 0.20951 0.0
H713 H 0.6536 0.73945 0.18657 0.0
H714 H 0.61041 0.84008 0.25904 0.0
H715 H 0.65288 0.71204 0.2358 0.0
H716 H 0.67876 0.73876 0.33027 0.0
H717 H 0.67373 0.76429 0.28099 0.0
H718 H 0.59494 0.75105 0.28904 0.0
H719 H 0.59989 0.72396 0.33866 0.0
C720 C 0.62027 0.8341 0.21491 0.0
C721 C 0.63276 0.80661 0.19405 0.0
C722 C 0.61953 0.81767 0.24318 0.0
C723 C 0.63164 0.774 0.2511 0.0
C724 C 0.64345 0.74587 0.23018 0.0
C725 C 0.6438 0.76167 0.20196 0.0
C726 C 0.66031 0.74129 0.32166 0.0
C727 C 0.63971 0.72921 0.33838 0.0
C728 C 0.65749 0.75578 0.29342 0.0
C729 C 0.63398 0.75957 0.28133 0.0
C730 C 0.61325 0.74847 0.29801 0.0
C731 C 0.6161 0.73279 0.32626 0.0
H732 H 0.90202 0.15944 0.20899 0.0
H733 H 0.86263 0.29287 0.18743 0.0
H734 H 0.90385 0.18667 0.25879 0.0
H735 H 0.86407 0.31881 0.23688 0.0
H736 H 0.83745 0.28677 0.33139 0.0
H737 H 0.84229 0.26118 0.2821 0.0
H738 H 0.9209 0.27976 0.28878 0.0
H739 H 0.91615 0.30687 0.33843 0.0
C740 C 0.89403 0.19466 0.21473 0.0
C741 C 0.88204 0.22373 0.19418 0.0
C742 C 0.89518 0.21025 0.24315 0.0
C743 C 0.88405 0.25472 0.25149 0.0
C744 C 0.87279 0.28439 0.23089 0.0
C745 C 0.872 0.26938 0.20256 0.0
C746 C 0.85583 0.28533 0.32251 0.0
C747 C 0.87642 0.299 0.33885 0.0
C748 C 0.85854 0.27073 0.29428 0.0
C749 C 0.88194 0.26846 0.28181 0.0
C750 C 0.90269 0.28109 0.29809 0.0
C751 C 0.89993 0.2968 0.32634 0.0
H752 H 0.91583 0.81113 0.69307 0.0
H753 H 0.83786 0.77977 0.69716 0.0
H754 H 0.92031 0.78279 0.74249 0.0
H755 H 0.84243 0.75284 0.74629 0.0
H756 H 0.86165 0.79037 0.84209 0.0
H757 H 0.863 0.81564 0.7925 0.0
H758 H 0.9039 0.68454 0.77136 0.0
H759 H 0.90218 0.65795 0.8213 0.0
C760 C 0.89972 0.7982 0.70444 0.0
C761 C 0.87648 0.79779 0.69119 0.0
C762 C 0.90233 0.78179 0.73256 0.0
C763 C 0.88169 0.76566 0.74797 0.0
C764 C 0.85859 0.76502 0.73474 0.0
C765 C 0.85604 0.78042 0.70661 0.0
C766 C 0.87123 0.76696 0.82709 0.0
C767 C 0.88167 0.72182 0.83574 0.0
C768 C 0.87196 0.78158 0.79869 0.0
C769 C 0.88355 0.75203 0.7783 0.0
C770 C 0.89497 0.70798 0.78686 0.0
C771 C 0.89389 0.69278 0.81535 0.0
H772 H 0.63497 0.23428 0.84524 0.0
H773 H 0.62763 0.386 0.81805 0.0
H774 H 0.63321 0.2072 0.79586 0.0
H775 H 0.62577 0.35874 0.7687 0.0
H776 H 0.66191 0.29385 0.68742 0.0
H777 H 0.65676 0.32254 0.736 0.0
H778 H 0.60641 0.20229 0.75256 0.0
H779 H 0.61158 0.17324 0.70369 0.0
C780 C 0.63269 0.26184 0.82878 0.0
C781 C 0.63169 0.3124 0.83565 0.0
C782 C 0.63153 0.24624 0.80047 0.0
C783 C 0.62954 0.28084 0.77834 0.0
C784 C 0.62762 0.33123 0.78526 0.0
C785 C 0.62856 0.34681 0.81358 0.0
C786 C 0.6496 0.27358 0.7013 0.0
C787 C 0.63727 0.23101 0.69164 0.0
C788 C 0.64651 0.29031 0.72913 0.0
C789 C 0.63117 0.26472 0.74816 0.0
C790 C 0.61849 0.22261 0.73844 0.0
C791 C 0.62136 0.20612 0.71042 0.0
H792 H 0.37105 0.23585 0.6822 0.0
H793 H 0.39744 0.37998 0.70757 0.0
H794 H 0.37492 0.20686 0.73073 0.0
H795 H 0.40204 0.35035 0.75625 0.0
H796 H 0.37211 0.2995 0.84339 0.0
H797 H 0.37569 0.32875 0.79487 0.0
H798 H 0.40183 0.18514 0.76877 0.0
H799 H 0.3975 0.15526 0.81743 0.0
C800 C 0.37802 0.26127 0.69806 0.0
C801 C 0.38366 0.31052 0.69095 0.0
C802 C 0.38044 0.24442 0.72596 0.0
C803 C 0.38871 0.27622 0.74756 0.0
C804 C 0.39523 0.32501 0.74027 0.0
C805 C 0.39271 0.34197 0.71231 0.0
C806 C 0.37883 0.27413 0.82741 0.0
C807 C 0.38421 0.22475 0.83434 0.0
C808 C 0.38108 0.29112 0.79951 0.0
C809 C 0.38891 0.25931 0.77774 0.0
C810 C 0.39532 0.21047 0.78487 0.0
C811 C 0.39297 0.19337 0.81283 0.0
H812 H 0.14586 0.73307 0.843 0.0
H813 H 0.11663 0.87468 0.81768 0.0
H814 H 0.14187 0.70331 0.79462 0.0
H815 H 0.11186 0.84422 0.76921 0.0
H816 H 0.14166 0.7966 0.68184 0.0
H817 H 0.13803 0.82512 0.7304 0.0
H818 H 0.11547 0.67888 0.75665 0.0
H819 H 0.11992 0.64972 0.70782 0.0
C820 C 0.13822 0.75773 0.82719 0.0
C821 C 0.13186 0.80659 0.83425 0.0
C822 C 0.13573 0.74041 0.79938 0.0
C823 C 0.12666 0.77133 0.77782 0.0
C824 C 0.11934 0.81959 0.78512 0.0
C825 C 0.12196 0.83704 0.81297 0.0
C826 C 0.13573 0.77043 0.69785 0.0
C827 C 0.13138 0.7206 0.69087 0.0
C828 C 0.13343 0.78701 0.7258 0.0
C829 C 0.12656 0.75437 0.74763 0.0
C830 C 0.12121 0.70492 0.74049 0.0
C831 C 0.12361 0.68822 0.71244 0.0
H832 H 0.22432 0.3845 0.14946 0.0
H833 H 0.18545 0.51386 0.1204 0.0
H834 H 0.26211 0.43284 0.15314 0.0
H835 H 0.22336 0.56195 0.12339 0.0
H836 H 0.29151 0.64753 0.1509 0.0
H837 H 0.25351 0.59939 0.15321 0.0
H838 H 0.29278 0.47031 0.12435 0.0
H839 H 0.33078 0.51807 0.12273 0.0
C840 C 0.22374 0.42334 0.144 0.0
C841 C 0.20163 0.44508 0.13471 0.0
C842 C 0.24557 0.45112 0.14588 0.0
C843 C 0.24609 0.50158 0.13844 0.0
C844 C 0.22382 0.52351 0.12971 0.0
C845 C 0.20198 0.49574 0.12787 0.0
C846 C 0.29214 0.6087 0.14543 0.0
C847 C 0.31442 0.58686 0.13678 0.0
C848 C 0.2702 0.58107 0.14648 0.0
C849 C 0.26979 0.53068 0.13886 0.0
C850 C 0.29221 0.50868 0.13079 0.0
C851 C 0.31413 0.53627 0.12977 0.0
H852 H 0.73527 0.65135 0.41113 0.0
H853 H 0.68493 0.53734 0.38354 0.0
H854 H 0.76933 0.59404 0.40766 0.0
H855 H 0.71945 0.47973 0.37941 0.0
H856 H 0.78093 0.37727 0.41309 0.0
H857 H 0.74678 0.43436 0.40931 0.0
H858 H 0.79618 0.54714 0.37804 0.0
H859 H 0.83077 0.48981 0.38247 0.0
C860 C 0.73142 0.61414 0.40389 0.0
C861 C 0.7071 0.59922 0.39768 0.0
C862 C 0.75117 0.58116 0.4017 0.0
C863 C 0.74741 0.53188 0.39326 0.0
C864 C 0.72317 0.51715 0.38633 0.0
C865 C 0.70331 0.55034 0.38847 0.0
C866 C 0.78465 0.41408 0.40512 0.0
C867 C 0.80886 0.42868 0.39815 0.0
C868 C 0.76485 0.44692 0.40276 0.0
C869 C 0.76846 0.49573 0.39338 0.0
C870 C 0.79258 0.51011 0.3857 0.0
C871 C 0.81249 0.47707 0.38803 0.0
H872 H 0.79119 0.64596 0.87599 0.0
H873 H 0.82991 0.51762 0.90682 0.0
H874 H 0.75328 0.59786 0.87328 0.0
H875 H 0.79186 0.46976 0.90471 0.0
H876 H 0.72345 0.38429 0.87788 0.0
H877 H 0.76152 0.43194 0.87487 0.0
H878 H 0.7229 0.56187 0.90363 0.0
H879 H 0.68476 0.5145 0.90604 0.0
C880 C 0.79172 0.60736 0.88199 0.0
C881 C 0.81379 0.58581 0.89152 0.0
C882 C 0.76983 0.57977 0.88069 0.0
C883 C 0.76926 0.52974 0.88892 0.0
C884 C 0.79149 0.50791 0.89783 0.0
C885 C 0.81339 0.53551 0.89913 0.0
C886 C 0.72296 0.42318 0.88324 0.0
C887 C 0.70084 0.44541 0.89208 0.0
C888 C 0.74494 0.45051 0.88176 0.0
C889 C 0.74553 0.50097 0.88909 0.0
C890 C 0.72327 0.52339 0.8974 0.0
C891 C 0.7013 0.49606 0.89888 0.0
H892 H 0.22466 0.64752 0.65053 0.0
H893 H 0.18614 0.51703 0.6218 0.0
H894 H 0.26285 0.60057 0.65307 0.0
H895 H 0.22439 0.47038 0.62378 0.0
H896 H 0.29273 0.38745 0.65123 0.0
H897 H 0.25484 0.43499 0.65435 0.0
H898 H 0.29302 0.56358 0.62236 0.0
H899 H 0.33111 0.5162 0.61977 0.0
C900 C 0.22424 0.6087 0.64499 0.0
C901 C 0.20215 0.58615 0.6361 0.0
C902 C 0.24627 0.58181 0.64619 0.0
C903 C 0.24691 0.53153 0.63855 0.0
C904 C 0.22469 0.50877 0.63022 0.0
C905 C 0.20267 0.53566 0.629 0.0
C906 C 0.29319 0.42603 0.64515 0.0
C907 C 0.31514 0.44787 0.63531 0.0
C908 C 0.27131 0.45328 0.64672 0.0
C909 C 0.27065 0.50325 0.63845 0.0
C910 C 0.29276 0.52543 0.62925 0.0
C911 C 0.31468 0.49814 0.62769 0.0
H912 H 0.83152 0.01896 0.14711 0.0
H913 H 0.78853 0.14986 0.13185 0.0
H914 H 0.7939 0.97033 0.15111 0.0
H915 H 0.75102 0.10132 0.13335 0.0
H916 H 0.68316 1.01149 0.15202 0.0
H917 H 0.72096 0.05974 0.15568 0.0
H918 H 0.76277 0.93209 0.12882 0.0
H919 H 0.72524 0.88364 0.12759 0.0
C920 C 0.81398 0.03732 0.1445 0.0
C921 C 0.81311 0.0884 0.13936 0.0
C922 C 0.79222 1.00928 0.14643 0.0
C923 C 0.76886 0.03114 0.14236 0.0
C924 C 0.76822 0.08254 0.13733 0.0
C925 C 0.78992 0.11069 0.13624 0.0
C926 C 0.70054 0.99374 0.14735 0.0
C927 C 0.70114 0.94356 0.13981 0.0
C928 C 0.72238 0.0216 0.14908 0.0
C929 C 0.74548 1.00056 0.14241 0.0
C930 C 0.74583 0.95008 0.13489 0.0
C931 C 0.72411 0.92201 0.13399 0.0
H932 H 0.22423 0.14468 0.37111 0.0
H933 H 0.1854 0.01639 0.4024 0.0
H934 H 0.26204 0.09665 0.36828 0.0
H935 H 0.22332 0.96865 0.4002 0.0
H936 H 0.29153 0.88296 0.37413 0.0
H937 H 0.25356 0.93048 0.37071 0.0
H938 H 0.29247 0.06115 0.39847 0.0
H939 H 0.33049 1.01392 0.40125 0.0
C940 C 0.22365 0.10609 0.37716 0.0
C941 C 0.20157 0.08456 0.38688 0.0
C942 C 0.24549 0.07855 0.3758 0.0
C943 C 0.246 0.02857 0.38416 0.0
C944 C 0.22376 1.00674 0.39321 0.0
C945 C 0.20191 0.03428 0.39456 0.0
C946 C 0.2921 0.92198 0.37916 0.0
C947 C 0.31427 0.94444 0.38786 0.0
C948 C 0.27018 0.94925 0.37745 0.0
C949 C 0.2697 0.99988 0.38441 0.0
C950 C 0.29201 0.02252 0.39252 0.0
C951 C 0.31392 0.99527 0.39422 0.0
H952 H 0.22364 0.88506 0.8734 0.0
H953 H 0.18513 1.01458 0.90292 0.0
H954 H 0.26165 0.93273 0.87029 0.0
H955 H 0.22329 0.06208 0.90035 0.0
H956 H 0.29172 0.14604 0.87229 0.0
H957 H 0.25364 0.09843 0.86979 0.0
H958 H 0.29207 0.96957 0.90044 0.0
H959 H 0.33027 0.01695 0.9024 0.0
C960 C 0.22318 0.92383 0.87904 0.0
C961 C 0.20113 0.94585 0.88831 0.0
C962 C 0.24513 0.95116 0.87749 0.0
C963 C 0.24578 1.00142 0.8852 0.0
C964 C 0.22359 0.02372 0.89387 0.0
C965 C 0.20161 0.99635 0.89542 0.0
C966 C 0.29218 0.10736 0.87814 0.0
C967 C 0.31426 0.08544 0.8874 0.0
C968 C 0.2702 0.08008 0.87696 0.0
C969 C 0.26955 0.02999 0.88502 0.0
C970 C 0.29176 1.00779 0.89368 0.0
C971 C 0.31376 0.03509 0.89487 0.0
H972 H 0.78181 0.87848 0.62075 0.0
H973 H 0.83164 0.99326 0.64849 0.0
H974 H 0.7475 0.93481 0.62462 0.0
H975 H 0.79679 0.04966 0.6537 0.0
H976 H 0.73463 0.15257 0.6234 0.0
H977 H 0.76918 0.09646 0.62651 0.0
H978 H 0.72009 0.97935 0.65295 0.0
H979 H 0.68512 0.0354 0.64847 0.0
C980 C 0.7855 0.9157 0.62807 0.0
C981 C 0.80976 0.93119 0.63401 0.0
C982 C 0.76557 0.94811 0.63061 0.0
C983 C 0.76905 0.99728 0.63945 0.0
C984 C 0.79324 1.01243 0.64636 0.0
C985 C 0.81331 0.97989 0.64364 0.0
C986 C 0.73107 0.11489 0.62999 0.0
C987 C 0.70682 0.09863 0.63534 0.0
C988 C 0.75111 0.0826 0.63207 0.0
C989 C 0.74774 0.03284 0.63984 0.0
C990 C 0.72357 0.01702 0.64634 0.0
C991 C 0.70342 0.04937 0.64405 0.0
H992 H 0.32643 0.23279 0.01622 0.0
H993 H 0.28263 0.18815 0.94388 0.0
H994 H 0.28926 0.26215 0.03981 0.0
H995 H 0.24615 0.22009 0.96641 0.0
H996 H 0.18089 0.24997 0.0233 0.0
H997 H 0.21698 0.21213 1.00201 0.0
H998 H 0.26245 0.33022 0.03534 0.0
H999 H 0.22637 0.36615 0.05805 0.0
C1000 C 0.30889 0.22879 1.00551 0.0
C1001 C 0.30753 0.20886 0.97807 0.0
C1002 C 0.28765 0.24625 0.0188 0.0
C1003 C 0.2648 0.24448 1.00473 0.0
C1004 C 0.26335 0.22189 0.97799 0.0
C1005 C 0.2844 0.20382 0.96496 0.0
C1006 C 0.19855 0.26831 0.02546 0.0
C1007 C 0.20098 0.31111 0.04196 0.0
C1008 C 0.21927 0.24654 1.01344 0.0
C1009 C 0.2427 0.26782 0.01723 0.0
C1010 C 0.24482 0.31208 0.03267 0.0
C1011 C 0.22417 0.33321 0.04521 0.0
H1012 H 0.32856 0.73541 1.00824 0.0
H1013 H 0.28412 0.69676 0.08121 0.0
H1014 H 0.29172 0.76493 0.98394 0.0
H1015 H 0.24809 0.72888 0.058 0.0
H1016 H 0.18316 0.75499 1.00101 0.0
H1017 H 0.21927 0.718 0.02252 0.0
H1018 H 0.26484 0.83338 0.98633 0.0
H1019 H 0.22863 0.86839 0.96328 0.0
C1020 C 0.31097 0.73286 0.01896 0.0
C1021 C 0.30931 0.71433 0.04671 0.0
C1022 C 0.28993 0.75037 1.00525 0.0
C1023 C 0.26701 0.75005 0.01921 0.0
C1024 C 0.26532 0.72934 0.04644 0.0
C1025 C 0.28613 0.71119 0.05987 0.0
C1026 C 0.20085 0.77295 0.9982 0.0
C1027 C 0.20323 0.81479 0.9809 0.0
C1028 C 0.22158 0.75166 1.01038 0.0
C1029 C 0.24502 0.77256 1.00604 0.0
C1030 C 0.24717 0.81566 0.98954 0.0
C1031 C 0.22646 0.83626 0.97679 0.0
H1032 H 0.68337 0.79204 0.50816 0.0
H1033 H 0.72521 0.66216 0.48693 0.0
H1034 H 0.7207 0.83411 0.52292 0.0
H1035 H 0.76268 0.70248 0.50377 0.0
H1036 H 0.82864 0.79298 0.50187 0.0
H1037 H 0.78858 0.76442 0.48494 0.0
H1038 H 0.75332 0.84314 0.55379 0.0
H1039 H 0.79305 0.87409 0.56892 0.0
C1040 C 0.70047 0.7715 0.5085 0.0
C1041 C 0.70165 0.72391 0.4969 0.0
C1042 C 0.72194 0.7958 0.51649 0.0
C1043 C 0.7448 0.77224 0.51358 0.0
C1044 C 0.74545 0.72235 0.50513 0.0
C1045 C 0.72399 0.69852 0.49646 0.0
C1046 C 0.8121 0.80656 0.51205 0.0
C1047 C 0.81359 0.83535 0.53661 0.0
C1048 C 0.78926 0.78903 0.50304 0.0
C1049 C 0.76792 0.79957 0.5189 0.0
C1050 C 0.76933 0.83381 0.54122 0.0
C1051 C 0.79206 0.85203 0.54977 0.0
H1052 H 0.8335 0.23697 0.50928 0.0
H1053 H 0.79148 0.36631 0.48739 0.0
H1054 H 0.79625 0.19521 0.52468 0.0
H1055 H 0.7541 0.32624 0.50472 0.0
H1056 H 0.68833 0.23458 0.50327 0.0
H1057 H 0.72834 0.2633 0.48623 0.0
H1058 H 0.76369 0.18749 0.5561 0.0
H1059 H 0.72401 0.1565 0.57146 0.0
C1060 C 0.81639 0.25749 0.50959 0.0
C1061 C 0.81513 0.30484 0.49767 0.0
C1062 C 0.79497 0.23335 0.51794 0.0
C1063 C 0.77209 0.25681 0.515 0.0
C1064 C 0.77136 0.30648 0.50615 0.0
C1065 C 0.79277 0.33016 0.49717 0.0
C1066 C 0.70489 0.22168 0.51371 0.0
C1067 C 0.70344 0.19366 0.53857 0.0
C1068 C 0.72769 0.23929 0.50461 0.0
C1069 C 0.74903 0.22955 0.52064 0.0
C1070 C 0.74768 0.19615 0.54338 0.0
C1071 C 0.72499 0.17793 0.55207 0.0
H1072 H 0.82878 0.73703 0.01982 0.0
H1073 H 0.78377 0.69371 0.9482 0.0
H1074 H 0.792 0.76637 0.0443 0.0
H1075 H 0.74783 0.72591 0.9714 0.0
H1076 H 0.68306 0.75449 0.02777 0.0
H1077 H 0.71922 0.71688 1.00676 0.0
H1078 H 0.76469 0.8334 0.04197 0.0
H1079 H 0.72842 0.86876 0.06472 0.0
C1080 C 0.81108 0.73341 1.00944 0.0
C1081 C 0.80924 0.71363 0.98199 0.0
C1082 C 0.79006 0.75085 0.02324 0.0
C1083 C 0.76698 0.74931 1.00963 0.0
C1084 C 0.76515 0.72732 0.98275 0.0
C1085 C 0.78593 0.70913 0.96929 0.0
C1086 C 0.70075 0.77251 0.03045 0.0
C1087 C 0.70309 0.81479 0.04738 0.0
C1088 C 0.72153 0.7509 0.01855 0.0
C1089 C 0.74496 0.77198 0.02273 0.0
C1090 C 0.74705 0.81549 0.03888 0.0
C1091 C 0.7263 0.83634 0.05143 0.0
H1092 H 0.68201 0.25091 1.00223 0.0
H1093 H 0.72666 0.36781 0.96687 0.0
H1094 H 0.7184 0.214 0.02333 0.0
H1095 H 0.76306 0.33302 0.98956 0.0
H1096 H 0.82787 0.23823 1.01072 0.0
H1097 H 0.79082 0.26667 0.9864 0.0
H1098 H 0.74699 0.22307 0.05897 0.0
H1099 H 0.78326 0.19193 0.08204 0.0
C1100 C 0.69957 0.2696 0.99991 0.0
C1101 C 0.70166 0.31242 0.98338 0.0
C1102 C 0.72047 0.2484 1.01183 0.0
C1103 C 0.74375 0.27034 1.00802 0.0
C1104 C 0.74556 0.31442 0.99233 0.0
C1105 C 0.72472 0.33492 0.97982 0.0
C1106 C 0.8102 0.23374 0.02107 0.0
C1107 C 0.80856 0.21347 0.04841 0.0
C1108 C 0.78902 0.25065 1.00737 0.0
C1109 C 0.76595 0.24802 0.02095 0.0
C1110 C 0.76431 0.2254 0.04767 0.0
C1111 C 0.78527 0.20783 0.06106 0.0
H1112 H 0.33431 0.25567 0.52313 0.0
H1113 H 0.28815 0.36775 0.5606 0.0
H1114 H 0.29849 0.21785 0.50124 0.0
H1115 H 0.25224 0.33179 0.53725 0.0
H1116 H 0.1893 0.23148 0.51593 0.0
H1117 H 0.22608 0.26166 0.54013 0.0
H1118 H 0.26952 0.22849 0.46556 0.0
H1119 H 0.23348 0.1958 0.44232 0.0
C1120 C 0.31654 0.27315 0.52581 0.0
C1121 C 0.31385 0.31481 0.54319 0.0
C1122 C 0.29598 0.25138 0.51342 0.0
C1123 C 0.27246 0.27158 0.51768 0.0
C1124 C 0.27001 0.31461 0.53415 0.0
C1125 C 0.29054 0.33573 0.54708 0.0
C1126 C 0.20684 0.2297 0.50504 0.0
C1127 C 0.20844 0.21191 0.47714 0.0
C1128 C 0.22783 0.24757 0.51871 0.0
C1129 C 0.25063 0.24835 0.50455 0.0
C1130 C 0.25233 0.22816 0.4772 0.0
C1131 C 0.23154 0.20966 0.46378 0.0
H1132 H 0.33277 0.75054 0.49898 0.0
H1133 H 0.2876 0.86607 0.46348 0.0
H1134 H 0.29659 0.71272 0.52016 0.0
H1135 H 0.25137 0.83031 0.48628 0.0
H1136 H 0.18719 0.73411 0.50788 0.0
H1137 H 0.22409 0.76251 0.48318 0.0
H1138 H 0.26818 0.72241 0.55612 0.0
H1139 H 0.23203 0.69129 0.57967 0.0
C1140 C 0.31513 0.76871 0.49661 0.0
C1141 C 0.31281 0.81141 0.48005 0.0
C1142 C 0.29437 0.74697 0.50859 0.0
C1143 C 0.27102 0.76831 0.50478 0.0
C1144 C 0.26896 0.81223 0.48902 0.0
C1145 C 0.28968 0.83326 0.47644 0.0
C1146 C 0.20488 0.73037 0.51825 0.0
C1147 C 0.20665 0.71121 0.54584 0.0
C1148 C 0.22596 0.74723 0.50431 0.0
C1149 C 0.24903 0.74563 0.51791 0.0
C1150 C 0.25082 0.72393 0.54486 0.0
C1151 C 0.22995 0.70639 0.5585 0.0
H1152 H 0.06635 0.31583 0.14423 0.0
H1153 H 0.05241 0.35573 0.05704 0.0
H1154 H 0.02846 0.2676 0.14512 0.0
H1155 H 0.01381 0.31007 0.05823 0.0
H1156 H 0.95893 0.18555 0.05631 0.0
H1157 H 0.99745 0.23159 0.05717 0.0
H1158 H 0.98607 0.26435 0.14608 0.0
H1159 H 0.94833 0.2158 0.1454 0.0
C1160 C 0.05482 0.31541 0.12547 0.0
C1161 C 0.0624 0.33977 0.10059 0.0
C1162 C 0.03299 0.28762 0.12593 0.0
C1163 C 0.0179 0.28406 0.10164 0.0
C1164 C 0.0251 0.31038 0.07715 0.0
C1165 C 0.04714 0.33733 0.07655 0.0
C1166 C 0.9649 0.20193 0.07614 0.0
C1167 C 0.9506 0.19661 0.10081 0.0
C1168 C 0.98689 0.22908 0.0766 0.0
C1169 C 0.995 0.25272 0.10161 0.0
C1170 C 0.98085 0.24642 0.12644 0.0
C1171 C 0.95908 0.21846 0.12609 0.0
H1172 H 0.44835 0.72451 0.0534 0.0
H1173 H 0.46025 0.67667 0.13977 0.0
H1174 H 0.4859 0.77278 0.05512 0.0
H1175 H 0.49879 0.72344 0.14112 0.0
H1176 H 0.55497 0.8502 0.14399 0.0
H1177 H 0.51636 0.80349 0.14326 0.0
H1178 H 0.52834 0.76879 0.05476 0.0
H1179 H 0.56588 0.81696 0.05521 0.0
C1180 C 0.4593 0.7233 0.07261 0.0
C1181 C 0.4513 0.69611 0.09635 0.0
C1182 C 0.481 0.75112 0.0736 0.0
C1183 C 0.49569 0.7522 0.09823 0.0
C1184 C 0.48789 0.7243 0.12189 0.0
C1185 C 0.46591 0.69687 0.12101 0.0
C1186 C 0.54909 0.83323 0.12429 0.0
C1187 C 0.56344 0.83806 0.09959 0.0
C1188 C 0.52707 0.80584 0.12393 0.0
C1189 C 0.51899 0.78209 0.09893 0.0
C1190 C 0.53344 0.78722 0.07429 0.0
C1191 C 0.55516 0.81497 0.07457 0.0
H1192 H 0.44664 0.80713 0.46953 0.0
H1193 H 0.46128 0.85506 0.38369 0.0
H1194 H 0.48374 0.75829 0.46922 0.0
H1195 H 0.49973 0.80753 0.3839 0.0
H1196 H 0.56076 0.68801 0.3884 0.0
H1197 H 0.51963 0.72588 0.38494 0.0
H1198 H 0.52573 0.77388 0.47219 0.0
H1199 H 0.56538 0.73502 0.47582 0.0
C1200 C 0.45806 0.8081 0.45069 0.0
C1201 C 0.45117 0.83607 0.42685 0.0
C1202 C 0.47946 0.77985 0.4505 0.0
C1203 C 0.49509 0.77936 0.4267 0.0
C1204 C 0.4881 0.80672 0.40256 0.0
C1205 C 0.46625 0.83455 0.40256 0.0
C1206 C 0.55282 0.70544 0.40695 0.0
C1207 C 0.56627 0.70827 0.4324 0.0
C1208 C 0.52949 0.72784 0.40488 0.0
C1209 C 0.51923 0.75306 0.4283 0.0
C1210 C 0.53258 0.75418 0.45383 0.0
C1211 C 0.55555 0.73198 0.45588 0.0
H1212 H 0.0714 0.23028 0.47066 0.0
H1213 H 0.05594 0.17749 0.38597 0.0
H1214 H 0.03381 0.27793 0.47019 0.0
H1215 H 0.01723 0.22392 0.38599 0.0
H1216 H 0.95563 0.34124 0.38856 0.0
H1217 H 0.99716 0.30511 0.38571 0.0
H1218 H 0.99174 0.26168 0.47381 0.0
H1219 H 0.95154 0.2987 0.47675 0.0
C1220 C 0.05972 0.22802 0.45207 0.0
C1221 C 0.06651 0.19907 0.42859 0.0
C1222 C 0.03807 0.25559 0.45177 0.0
C1223 C 0.02219 0.25449 0.42818 0.0
C1224 C 0.02907 0.22605 0.40444 0.0
C1225 C 0.05108 0.19885 0.40458 0.0
C1226 C 0.96378 0.3252 0.4074 0.0
C1227 C 0.95036 0.323 0.43288 0.0
C1228 C 0.98736 0.30381 0.40571 0.0
C1229 C 0.9979 0.28027 0.42953 0.0
C1230 C 0.98463 0.28002 0.45512 0.0
C1231 C 0.96137 0.30115 0.45677 0.0
H1232 H 0.94836 0.71506 0.88378 0.0
H1233 H 0.95993 0.68583 0.97284 0.0
H1234 H 0.98628 0.76287 0.88225 0.0
H1235 H 0.99867 0.7311 0.97111 0.0
H1236 H 0.05403 0.85482 0.96935 0.0
H1237 H 0.01533 0.80939 0.96929 0.0
H1238 H 0.02864 0.76474 0.88247 0.0
H1239 H 0.06657 0.81273 0.88221 0.0
C1240 C 0.95937 0.71777 0.9029 0.0
C1241 C 0.95112 0.69647 0.92842 0.0
C1242 C 0.98123 0.74529 0.90205 0.0
C1243 C 0.99573 0.7516 0.92661 0.0
C1244 C 0.98784 0.72852 0.95188 0.0
C1245 C 0.96573 0.70183 0.95284 0.0
C1246 C 0.04844 0.83594 0.95012 0.0
C1247 C 0.0633 0.83774 0.92573 0.0
C1248 C 0.02635 0.80917 0.95016 0.0
C1249 C 0.01874 0.78243 0.926 0.0
C1250 C 0.03348 0.78518 0.90141 0.0
C1251 C 0.05534 0.8128 0.90122 0.0
H1252 H 0.55279 0.356 0.97156 0.0
H1253 H 0.56575 0.31649 0.88411 0.0
H1254 H 0.51411 0.3104 0.97085 0.0
H1255 H 0.52792 0.26833 0.88369 0.0
H1256 H 0.44816 0.21736 0.88335 0.0
H1257 H 0.48576 0.26605 0.88296 0.0
H1258 H 0.497 0.23253 0.97182 0.0
H1259 H 0.45847 0.18631 0.97241 0.0
C1260 C 0.5473 0.33768 0.95212 0.0
C1261 C 0.56227 0.3403 0.92783 0.0
C1262 C 0.52522 0.3108 0.95177 0.0
C1263 C 0.51772 0.28476 0.92731 0.0
C1264 C 0.53261 0.28826 0.90286 0.0
C1265 C 0.55443 0.31599 0.90306 0.0
C1266 C 0.45882 0.2199 0.90274 0.0
C1267 C 0.45032 0.19766 0.92789 0.0
C1268 C 0.48054 0.24791 0.90254 0.0
C1269 C 0.49469 0.25386 0.92739 0.0
C1270 C 0.48648 0.23016 0.95236 0.0
C1271 C 0.46448 0.20294 0.95267 0.0
H1272 H 0.54784 0.14645 0.59353 0.0
H1273 H 0.58152 0.28328 0.62002 0.0
H1274 H 0.50706 0.1858 0.5958 0.0
H1275 H 0.54113 0.32224 0.62277 0.0
H1276 H 0.46078 0.36424 0.64363 0.0
H1277 H 0.49956 0.31893 0.64827 0.0
H1278 H 0.48868 0.25566 0.56511 0.0
H1279 H 0.45023 0.30116 0.56023 0.0
C1280 C 0.54639 0.18435 0.60069 0.0
C1281 C 0.56764 0.21184 0.60683 0.0
C1282 C 0.52319 0.20703 0.60171 0.0
C1283 C 0.52096 0.25718 0.60935 0.0
C1284 C 0.5422 0.28354 0.61705 0.0
C1285 C 0.5653 0.26125 0.61551 0.0
C1286 C 0.46678 0.34101 0.62625 0.0
C1287 C 0.45256 0.33691 0.60141 0.0
C1288 C 0.4889 0.3149 0.62897 0.0
C1289 C 0.497 0.28335 0.60717 0.0
C1290 C 0.48273 0.27911 0.58243 0.0
C1291 C 0.46089 0.30581 0.57949 0.0
H1292 H 0.05618 0.66354 0.64056 0.0
H1293 H 0.06754 0.73227 0.55878 0.0
H1294 H 0.01712 0.70748 0.64545 0.0
H1295 H 0.02866 0.77635 0.56387 0.0
H1296 H 0.96838 0.88228 0.5939 0.0
H1297 H 0.00936 0.84364 0.59533 0.0
H1298 H 0.976 0.70514 0.61997 0.0
H1299 H 0.93544 0.74345 0.61814 0.0
C1300 C 0.05027 0.68766 0.62354 0.0
C1301 C 0.06485 0.69382 0.59911 0.0
C1302 C 0.02797 0.713 0.62641 0.0
C1303 C 0.01996 0.74575 0.60517 0.0
C1304 C 0.03452 0.75194 0.58078 0.0
C1305 C 0.05662 0.72605 0.5777 0.0
C1306 C 0.97003 0.84404 0.60039 0.0
C1307 C 0.94893 0.81583 0.60615 0.0
C1308 C 0.99335 0.82176 0.60089 0.0
C1309 C 0.99584 0.77126 0.60762 0.0
C1310 C 0.97474 0.7441 0.61493 0.0
C1311 C 0.95155 0.76603 0.61392 0.0
loop_
_geom_bond_atom_site_label_1
_geom_bond_atom_site_label_2
_geom_bond_distance
_geom_bond_site_symmetry_2
_ccdc_geom_bond_type
Fe0 O2 1.918 . S
Fe0 O5 1.997 . S
Fe0 O6 2.002 . S
Fe0 O11 1.976 . S
Fe0 O14 1.996 . S
Fe1 O2 1.918 . S
Fe1 O9 1.997 . S
Fe1 O12 1.996 . S
Fe1 O16 1.976 . S
Fe1 O19 2.002 . S
O2 Fe0 1.918 . S
O2 Fe1 1.918 . S
O2 Fe3 1.918 . S
Fe3 O2 1.918 . S
Fe3 O4 2.002 . S
Fe3 O13 1.976 . S
Fe3 O17 1.996 . S
Fe3 O20 1.997 . S
O4 Fe3 2.002 . S
O4 C21 1.295 . S
O5 Fe0 1.997 . S
O5 C21 1.235 . S
O6 Fe0 2.002 . S
O6 C7 1.295 . S
C7 O6 1.295 . S
C7 O9 1.235 . S
C8 O13 1.287 . S
C8 O14 1.255 . S
O9 Fe1 1.997 . S
O9 C7 1.235 . S
C10 O16 1.287 . S
C10 O17 1.255 . S
O11 Fe0 1.976 . S
O11 C18 1.287 . S
O12 Fe1 1.996 . S
O12 C18 1.255 . S
O13 Fe3 1.976 . S
O13 C8 1.287 . S
O14 Fe0 1.996 . S
O14 C8 1.255 . S
C15 O19 1.295 . S
C15 O20 1.235 . S
O16 Fe1 1.976 . S
O16 C10 1.287 . S
O17 Fe3 1.996 . S
O17 C10 1.255 . S
C18 O11 1.287 . S
C18 O12 1.255 . S
O19 Fe1 2.002 . S
O19 C15 1.295 . S
O20 Fe3 1.997 . S
O20 C15 1.235 . S
C21 O4 1.295 . S
C21 O5 1.235 . S
Fe22 O24 1.918 . S
Fe22 O27 1.997 . S
Fe22 O28 2.002 . S
Fe22 O33 1.976 . S
Fe22 O36 1.996 . S
Fe23 O24 1.918 . S
Fe23 O31 1.997 . S
Fe23 O34 1.996 . S
Fe23 O38 1.976 . S
Fe23 O41 2.002 . S
O24 Fe22 1.918 . S
O24 Fe23 1.918 . S
O24 Fe25 1.918 . S
Fe25 O24 1.918 . S
Fe25 O26 2.002 . S
Fe25 O35 1.976 . S
Fe25 O39 1.996 . S
Fe25 O42 1.997 . S
O26 Fe25 2.002 . S
O26 C43 1.295 . S
O27 Fe22 1.997 . S
O27 C43 1.235 . S
O28 Fe22 2.002 . S
O28 C29 1.295 . S
C29 O28 1.295 . S
C29 O31 1.235 . S
C30 O35 1.287 . S
C30 O36 1.255 . S
O31 Fe23 1.997 . S
O31 C29 1.235 . S
C32 O38 1.287 . S
C32 O39 1.255 . S
O33 Fe22 1.976 . S
O33 C40 1.287 . S
O34 Fe23 1.996 . S
O34 C40 1.255 . S
O35 Fe25 1.976 . S
O35 C30 1.287 . S
O36 Fe22 1.996 . S
O36 C30 1.255 . S
C37 O41 1.295 . S
C37 O42 1.235 . S
O38 Fe23 1.976 . S
O38 C32 1.287 . S
O39 Fe25 1.996 . S
O39 C32 1.255 . S
C40 O33 1.287 . S
C40 O34 1.255 . S
O41 Fe23 2.002 . S
O41 C37 1.295 . S
O42 Fe25 1.997 . S
O42 C37 1.235 . S
C43 O26 1.295 . S
C43 O27 1.235 . S
Fe44 O46 1.918 . S
Fe44 O49 1.997 . S
Fe44 O50 2.002 . S
Fe44 O55 1.976 . S
Fe44 O58 1.996 . S
Fe45 O46 1.918 . S
Fe45 O53 1.997 . S
Fe45 O56 1.996 . S
Fe45 O60 1.976 . S
Fe45 O63 2.002 . S
O46 Fe44 1.918 . S
O46 Fe45 1.918 . S
O46 Fe47 1.918 . S
Fe47 O46 1.918 . S
Fe47 O48 2.002 . S
Fe47 O57 1.976 . S
Fe47 O61 1.996 . S
Fe47 O64 1.997 . S
O48 Fe47 2.002 . S
O48 C65 1.295 . S
O49 Fe44 1.997 . S
O49 C65 1.235 . S
O50 Fe44 2.002 . S
O50 C51 1.295 . S
C51 O50 1.295 . S
C51 O53 1.235 . S
C52 O57 1.287 . S
C52 O58 1.255 . S
O53 Fe45 1.997 . S
O53 C51 1.235 . S
C54 O60 1.287 . S
C54 O61 1.255 . S
O55 Fe44 1.976 . S
O55 C62 1.287 . S
O56 Fe45 1.996 . S
O56 C62 1.255 . S
O57 Fe47 1.976 . S
O57 C52 1.287 . S
O58 Fe44 1.996 . S
O58 C52 1.255 . S
C59 O63 1.295 . S
C59 O64 1.235 . S
O60 Fe45 1.976 . S
O60 C54 1.287 . S
O61 Fe47 1.996 . S
O61 C54 1.255 . S
C62 O55 1.287 . S
C62 O56 1.255 . S
O63 Fe45 2.002 . S
O63 C59 1.295 . S
O64 Fe47 1.997 . S
O64 C59 1.235 . S
C65 O48 1.295 . S
C65 O49 1.235 . S
Fe66 O68 1.918 . S
Fe66 O71 1.997 . S
Fe66 O72 2.002 . S
Fe66 O77 1.976 . S
Fe66 O80 1.996 . S
Fe67 O68 1.918 . S
Fe67 O75 1.997 . S
Fe67 O78 1.996 . S
Fe67 O82 1.976 . S
Fe67 O85 2.002 . S
O68 Fe66 1.918 . S
O68 Fe67 1.918 . S
O68 Fe69 1.918 . S
Fe69 O68 1.918 . S
Fe69 O70 2.002 . S
Fe69 O79 1.976 . S
Fe69 O83 1.996 . S
Fe69 O86 1.997 . S
O70 Fe69 2.002 . S
O70 C87 1.295 . S
O71 Fe66 1.997 . S
O71 C87 1.235 . S
O72 Fe66 2.002 . S
O72 C73 1.295 . S
C73 O72 1.295 . S
C73 O75 1.235 . S
C74 O79 1.287 . S
C74 O80 1.255 . S
O75 Fe67 1.997 . S
O75 C73 1.235 . S
C76 O82 1.287 . S
C76 O83 1.255 . S
O77 Fe66 1.976 . S
O77 C84 1.287 . S
O78 Fe67 1.996 . S
O78 C84 1.255 . S
O79 Fe69 1.976 . S
O79 C74 1.287 . S
O80 Fe66 1.996 . S
O80 C74 1.255 . S
C81 O85 1.295 . S
C81 O86 1.235 . S
O82 Fe67 1.976 . S
O82 C76 1.287 . S
O83 Fe69 1.996 . S
O83 C76 1.255 . S
C84 O77 1.287 . S
C84 O78 1.255 . S
O85 Fe67 2.002 . S
O85 C81 1.295 . S
O86 Fe69 1.997 . S
O86 C81 1.235 . S
C87 O70 1.295 . S
C87 O71 1.235 . S
Fe88 O90 1.918 . S
Fe88 O93 1.997 . S
Fe88 O94 2.002 . S
Fe88 O99 1.976 . S
Fe88 O102 1.996 . S
Fe89 O90 1.918 . S
Fe89 O97 1.997 . S
Fe89 O100 1.996 . S
Fe89 O104 1.976 . S
Fe89 O107 2.002 . S
O90 Fe88 1.918 . S
O90 Fe89 1.918 . S
O90 Fe91 1.918 . S
Fe91 O90 1.918 . S
Fe91 O92 2.002 . S
Fe91 O101 1.976 . S
Fe91 O105 1.996 . S
Fe91 O108 1.997 . S
O92 Fe91 2.002 . S
O92 C109 1.295 . S
O93 Fe88 1.997 . S
O93 C109 1.235 . S
O94 Fe88 2.002 . S
O94 C95 1.295 . S
C95 O94 1.295 . S
C95 O97 1.235 . S
C96 O101 1.287 . S
C96 O102 1.255 . S
O97 Fe89 1.997 . S
O97 C95 1.235 . S
C98 O104 1.287 . S
C98 O105 1.255 . S
O99 Fe88 1.976 . S
O99 C106 1.287 . S
O100 Fe89 1.996 . S
O100 C106 1.255 . S
O101 Fe91 1.976 . S
O101 C96 1.287 . S
O102 Fe88 1.996 . S
O102 C96 1.255 . S
C103 O107 1.295 . S
C103 O108 1.235 . S
O104 Fe89 1.976 . S
O104 C98 1.287 . S
O105 Fe91 1.996 . S
O105 C98 1.255 . S
C106 O99 1.287 . S
C106 O100 1.255 . S
O107 Fe89 2.002 . S
O107 C103 1.295 . S
O108 Fe91 1.997 . S
O108 C103 1.235 . S
C109 O92 1.295 . S
C109 O93 1.235 . S
Fe110 O112 1.918 . S
Fe110 O115 1.997 . S
Fe110 O116 2.002 . S
Fe110 O121 1.976 . S
Fe110 O124 1.996 . S
Fe111 O112 1.918 . S
Fe111 O119 1.997 . S
Fe111 O122 1.996 . S
Fe111 O126 1.976 . S
Fe111 O129 2.002 . S
O112 Fe110 1.918 . S
O112 Fe111 1.918 . S
O112 Fe113 1.918 . S
Fe113 O112 1.918 . S
Fe113 O114 2.002 . S
Fe113 O123 1.976 . S
Fe113 O127 1.996 . S
Fe113 O130 1.997 . S
O114 Fe113 2.002 . S
O114 C131 1.295 . S
O115 Fe110 1.997 . S
O115 C131 1.235 . S
O116 Fe110 2.002 . S
O116 C117 1.295 . S
C117 O116 1.295 . S
C117 O119 1.235 . S
C118 O123 1.287 . S
C118 O124 1.255 . S
O119 Fe111 1.997 . S
O119 C117 1.235 . S
C120 O126 1.287 . S
C120 O127 1.255 . S
O121 Fe110 1.976 . S
O121 C128 1.287 . S
O122 Fe111 1.996 . S
O122 C128 1.255 . S
O123 Fe113 1.976 . S
O123 C118 1.287 . S
O124 Fe110 1.996 . S
O124 C118 1.255 . S
C125 O129 1.295 . S
C125 O130 1.235 . S
O126 Fe111 1.976 . S
O126 C120 1.287 . S
O127 Fe113 1.996 . S
O127 C120 1.255 . S
C128 O121 1.287 . S
C128 O122 1.255 . S
O129 Fe111 2.002 . S
O129 C125 1.295 . S
O130 Fe113 1.997 . S
O130 C125 1.235 . S
C131 O114 1.295 . S
C131 O115 1.235 . S
Fe132 O134 1.918 . S
Fe132 O137 1.997 . S
Fe132 O138 2.002 . S
Fe132 O143 1.976 . S
Fe132 O146 1.996 . S
Fe133 O134 1.918 . S
Fe133 O141 1.997 . S
Fe133 O144 1.996 . S
Fe133 O148 1.976 . S
Fe133 O151 2.002 . S
O134 Fe132 1.918 . S
O134 Fe133 1.918 . S
O134 Fe135 1.918 . S
Fe135 O134 1.918 . S
Fe135 O136 2.002 . S
Fe135 O145 1.976 . S
Fe135 O149 1.996 . S
Fe135 O152 1.997 . S
O136 Fe135 2.002 . S
O136 C153 1.295 . S
O137 Fe132 1.997 . S
O137 C153 1.235 . S
O138 Fe132 2.002 . S
O138 C139 1.295 . S
C139 O138 1.295 . S
C139 O141 1.235 . S
C140 O145 1.287 . S
C140 O146 1.255 . S
O141 Fe133 1.997 . S
O141 C139 1.235 . S
C142 O148 1.287 . S
C142 O149 1.255 . S
O143 Fe132 1.976 . S
O143 C150 1.287 . S
O144 Fe133 1.996 . S
O144 C150 1.255 . S
O145 Fe135 1.976 . S
O145 C140 1.287 . S
O146 Fe132 1.996 . S
O146 C140 1.255 . S
C147 O151 1.295 . S
C147 O152 1.235 . S
O148 Fe133 1.976 . S
O148 C142 1.287 . S
O149 Fe135 1.996 . S
O149 C142 1.255 . S
C150 O143 1.287 . S
C150 O144 1.255 . S
O151 Fe133 2.002 . S
O151 C147 1.295 . S
O152 Fe135 1.997 . S
O152 C147 1.235 . S
C153 O136 1.295 . S
C153 O137 1.235 . S
Fe154 O156 1.918 . S
Fe154 O159 1.997 . S
Fe154 O160 2.002 . S
Fe154 O165 1.976 . S
Fe154 O168 1.996 . S
Fe155 O156 1.918 . S
Fe155 O163 1.997 . S
Fe155 O166 1.996 . S
Fe155 O170 1.976 . S
Fe155 O173 2.002 . S
O156 Fe154 1.918 . S
O156 Fe155 1.918 . S
O156 Fe157 1.918 . S
Fe157 O156 1.918 . S
Fe157 O158 2.002 . S
Fe157 O167 1.976 . S
Fe157 O171 1.996 . S
Fe157 O174 1.997 . S
O158 Fe157 2.002 . S
O158 C175 1.295 . S
O159 Fe154 1.997 . S
O159 C175 1.235 . S
O160 Fe154 2.002 . S
O160 C161 1.295 . S
C161 O160 1.295 . S
C161 O163 1.235 . S
C162 O167 1.287 . S
C162 O168 1.255 . S
O163 Fe155 1.997 . S
O163 C161 1.235 . S
C164 O170 1.287 . S
C164 O171 1.255 . S
O165 Fe154 1.976 . S
O165 C172 1.287 . S
O166 Fe155 1.996 . S
O166 C172 1.255 . S
O167 Fe157 1.976 . S
O167 C162 1.287 . S
O168 Fe154 1.996 . S
O168 C162 1.255 . S
C169 O173 1.295 . S
C169 O174 1.235 . S
O170 Fe155 1.976 . S
O170 C164 1.287 . S
O171 Fe157 1.996 . S
O171 C164 1.255 . S
C172 O165 1.287 . S
C172 O166 1.255 . S
O173 Fe155 2.002 . S
O173 C169 1.295 . S
O174 Fe157 1.997 . S
O174 C169 1.235 . S
C175 O158 1.295 . S
C175 O159 1.235 . S
Fe176 O178 1.918 . S
Fe176 O181 1.997 . S
Fe176 O182 2.002 . S
Fe176 O187 1.976 . S
Fe176 O190 1.996 . S
Fe177 O178 1.918 . S
Fe177 O185 1.997 . S
Fe177 O188 1.996 . S
Fe177 O192 1.976 . S
Fe177 O195 2.002 . S
O178 Fe176 1.918 . S
O178 Fe177 1.918 . S
O178 Fe179 1.918 . S
Fe179 O178 1.918 . S
Fe179 O180 2.002 . S
Fe179 O189 1.976 . S
Fe179 O193 1.996 . S
Fe179 O196 1.997 . S
O180 Fe179 2.002 . S
O180 C197 1.295 . S
O181 Fe176 1.997 . S
O181 C197 1.235 . S
O182 Fe176 2.002 . S
O182 C183 1.295 . S
C183 O182 1.295 . S
C183 O185 1.235 . S
C184 O189 1.287 . S
C184 O190 1.255 . S
O185 Fe177 1.997 . S
O185 C183 1.235 . S
C186 O192 1.287 . S
C186 O193 1.255 . S
O187 Fe176 1.976 . S
O187 C194 1.287 . S
O188 Fe177 1.996 . S
O188 C194 1.255 . S
O189 Fe179 1.976 . S
O189 C184 1.287 . S
O190 Fe176 1.996 . S
O190 C184 1.255 . S
C191 O195 1.295 . S
C191 O196 1.235 . S
O192 Fe177 1.976 . S
O192 C186 1.287 . S
O193 Fe179 1.996 . S
O193 C186 1.255 . S
C194 O187 1.287 . S
C194 O188 1.255 . S
O195 Fe177 2.002 . S
O195 C191 1.295 . S
O196 Fe179 1.997 . S
O196 C191 1.235 . S
C197 O180 1.295 . S
C197 O181 1.235 . S
Fe198 O200 1.918 . S
Fe198 O203 1.997 . S
Fe198 O204 2.002 . S
Fe198 O209 1.976 . S
Fe198 O212 1.996 . S
Fe199 O200 1.918 . S
Fe199 O207 1.997 . S
Fe199 O210 1.996 . S
Fe199 O214 1.976 . S
Fe199 O217 2.002 . S
O200 Fe198 1.918 . S
O200 Fe199 1.918 . S
O200 Fe201 1.918 . S
Fe201 O200 1.918 . S
Fe201 O202 2.002 . S
Fe201 O211 1.976 . S
Fe201 O215 1.996 . S
Fe201 O218 1.997 . S
O202 Fe201 2.002 . S
O202 C219 1.295 . S
O203 Fe198 1.997 . S
O203 C219 1.235 . S
O204 Fe198 2.002 . S
O204 C205 1.295 . S
C205 O204 1.295 . S
C205 O207 1.235 . S
C206 O211 1.287 . S
C206 O212 1.255 . S
O207 Fe199 1.997 . S
O207 C205 1.235 . S
C208 O214 1.287 . S
C208 O215 1.255 . S
O209 Fe198 1.976 . S
O209 C216 1.287 . S
O210 Fe199 1.996 . S
O210 C216 1.255 . S
O211 Fe201 1.976 . S
O211 C206 1.287 . S
O212 Fe198 1.996 . S
O212 C206 1.255 . S
C213 O217 1.295 . S
C213 O218 1.235 . S
O214 Fe199 1.976 . S
O214 C208 1.287 . S
O215 Fe201 1.996 . S
O215 C208 1.255 . S
C216 O209 1.287 . S
C216 O210 1.255 . S
O217 Fe199 2.002 . S
O217 C213 1.295 . S
O218 Fe201 1.997 . S
O218 C213 1.235 . S
C219 O202 1.295 . S
C219 O203 1.235 . S
Fe220 O222 1.918 . S
Fe220 O225 1.997 . S
Fe220 O226 2.002 . S
Fe220 O231 1.976 . S
Fe220 O234 1.996 . S
Fe221 O222 1.918 . S
Fe221 O229 1.997 . S
Fe221 O232 1.996 . S
Fe221 O236 1.976 . S
Fe221 O239 2.002 . S
O222 Fe220 1.918 . S
O222 Fe221 1.918 . S
O222 Fe223 1.918 . S
Fe223 O222 1.918 . S
Fe223 O224 2.002 . S
Fe223 O233 1.976 . S
Fe223 O237 1.996 . S
Fe223 O240 1.997 . S
O224 Fe223 2.002 . S
O224 C241 1.295 . S
O225 Fe220 1.997 . S
O225 C241 1.235 . S
O226 Fe220 2.002 . S
O226 C227 1.295 . S
C227 O226 1.295 . S
C227 O229 1.235 . S
C228 O233 1.287 . S
C228 O234 1.255 . S
O229 Fe221 1.997 . S
O229 C227 1.235 . S
C230 O236 1.287 . S
C230 O237 1.255 . S
O231 Fe220 1.976 . S
O231 C238 1.287 . S
O232 Fe221 1.996 . S
O232 C238 1.255 . S
O233 Fe223 1.976 . S
O233 C228 1.287 . S
O234 Fe220 1.996 . S
O234 C228 1.255 . S
C235 O239 1.295 . S
C235 O240 1.235 . S
O236 Fe221 1.976 . S
O236 C230 1.287 . S
O237 Fe223 1.996 . S
O237 C230 1.255 . S
C238 O231 1.287 . S
C238 O232 1.255 . S
O239 Fe221 2.002 . S
O239 C235 1.295 . S
O240 Fe223 1.997 . S
O240 C235 1.235 . S
C241 O224 1.295 . S
C241 O225 1.235 . S
Fe242 O244 1.918 . S
Fe242 O247 1.997 . S
Fe242 O248 2.002 . S
Fe242 O253 1.976 . S
Fe242 O256 1.996 . S
Fe243 O244 1.918 . S
Fe243 O251 1.997 . S
Fe243 O254 1.996 . S
Fe243 O258 1.976 . S
Fe243 O261 2.002 . S
O244 Fe242 1.918 . S
O244 Fe243 1.918 . S
O244 Fe245 1.918 . S
Fe245 O244 1.918 . S
Fe245 O246 2.002 . S
Fe245 O255 1.976 . S
Fe245 O259 1.996 . S
Fe245 O262 1.997 . S
O246 Fe245 2.002 . S
O246 C263 1.295 . S
O247 Fe242 1.997 . S
O247 C263 1.235 . S
O248 Fe242 2.002 . S
O248 C249 1.295 . S
C249 O248 1.295 . S
C249 O251 1.235 . S
C250 O255 1.287 . S
C250 O256 1.255 . S
O251 Fe243 1.997 . S
O251 C249 1.235 . S
C252 O258 1.287 . S
C252 O259 1.255 . S
O253 Fe242 1.976 . S
O253 C260 1.287 . S
O254 Fe243 1.996 . S
O254 C260 1.255 . S
O255 Fe245 1.976 . S
O255 C250 1.287 . S
O256 Fe242 1.996 . S
O256 C250 1.255 . S
C257 O261 1.295 . S
C257 O262 1.235 . S
O258 Fe243 1.976 . S
O258 C252 1.287 . S
O259 Fe245 1.996 . S
O259 C252 1.255 . S
C260 O253 1.287 . S
C260 O254 1.255 . S
O261 Fe243 2.002 . S
O261 C257 1.295 . S
O262 Fe245 1.997 . S
O262 C257 1.235 . S
C263 O246 1.295 . S
C263 O247 1.235 . S
Fe264 O266 1.918 . S
Fe264 O269 1.997 . S
Fe264 O270 2.002 . S
Fe264 O275 1.976 . S
Fe264 O278 1.996 . S
Fe265 O266 1.918 . S
Fe265 O273 1.997 . S
Fe265 O276 1.996 . S
Fe265 O280 1.976 . S
Fe265 O283 2.002 . S
O266 Fe264 1.918 . S
O266 Fe265 1.918 . S
O266 Fe267 1.918 . S
Fe267 O266 1.918 . S
Fe267 O268 2.002 . S
Fe267 O277 1.976 . S
Fe267 O281 1.996 . S
Fe267 O284 1.997 . S
O268 Fe267 2.002 . S
O268 C285 1.295 . S
O269 Fe264 1.997 . S
O269 C285 1.235 . S
O270 Fe264 2.002 . S
O270 C271 1.295 . S
C271 O270 1.295 . S
C271 O273 1.235 . S
C272 O277 1.287 . S
C272 O278 1.255 . S
O273 Fe265 1.997 . S
O273 C271 1.235 . S
C274 O280 1.287 . S
C274 O281 1.255 . S
O275 Fe264 1.976 . S
O275 C282 1.287 . S
O276 Fe265 1.996 . S
O276 C282 1.255 . S
O277 Fe267 1.976 . S
O277 C272 1.287 . S
O278 Fe264 1.996 . S
O278 C272 1.255 . S
C279 O283 1.295 . S
C279 O284 1.235 . S
O280 Fe265 1.976 . S
O280 C274 1.287 . S
O281 Fe267 1.996 . S
O281 C274 1.255 . S
C282 O275 1.287 . S
C282 O276 1.255 . S
O283 Fe265 2.002 . S
O283 C279 1.295 . S
O284 Fe267 1.997 . S
O284 C279 1.235 . S
C285 O268 1.295 . S
C285 O269 1.235 . S
Fe286 O288 1.918 . S
Fe286 O291 1.997 . S
Fe286 O292 2.002 . S
Fe286 O297 1.976 . S
Fe286 O300 1.996 . S
Fe287 O288 1.918 . S
Fe287 O295 1.997 . S
Fe287 O298 1.996 . S
Fe287 O302 1.976 . S
Fe287 O305 2.002 . S
O288 Fe286 1.918 . S
O288 Fe287 1.918 . S
O288 Fe289 1.918 . S
Fe289 O288 1.918 . S
Fe289 O290 2.002 . S
Fe289 O299 1.976 . S
Fe289 O303 1.996 . S
Fe289 O306 1.997 . S
O290 Fe289 2.002 . S
O290 C307 1.295 . S
O291 Fe286 1.997 . S
O291 C307 1.235 . S
O292 Fe286 2.002 . S
O292 C293 1.295 . S
C293 O292 1.295 . S
C293 O295 1.235 . S
C294 O299 1.287 . S
C294 O300 1.255 . S
O295 Fe287 1.997 . S
O295 C293 1.235 . S
C296 O302 1.287 . S
C296 O303 1.255 . S
O297 Fe286 1.976 . S
O297 C304 1.287 . S
O298 Fe287 1.996 . S
O298 C304 1.255 . S
O299 Fe289 1.976 . S
O299 C294 1.287 . S
O300 Fe286 1.996 . S
O300 C294 1.255 . S
C301 O305 1.295 . S
C301 O306 1.235 . S
O302 Fe287 1.976 . S
O302 C296 1.287 . S
O303 Fe289 1.996 . S
O303 C296 1.255 . S
C304 O297 1.287 . S
C304 O298 1.255 . S
O305 Fe287 2.002 . S
O305 C301 1.295 . S
O306 Fe289 1.997 . S
O306 C301 1.235 . S
C307 O290 1.295 . S
C307 O291 1.235 . S
Fe308 O310 1.918 . S
Fe308 O313 1.997 . S
Fe308 O314 2.002 . S
Fe308 O319 1.976 . S
Fe308 O322 1.996 . S
Fe309 O310 1.918 . S
Fe309 O317 1.997 . S
Fe309 O320 1.996 . S
Fe309 O324 1.976 . S
Fe309 O327 2.002 . S
O310 Fe308 1.918 . S
O310 Fe309 1.918 . S
O310 Fe311 1.918 . S
Fe311 O310 1.918 . S
Fe311 O312 2.002 . S
Fe311 O321 1.976 . S
Fe311 O325 1.996 . S
Fe311 O328 1.997 . S
O312 Fe311 2.002 . S
O312 C329 1.295 . S
O313 Fe308 1.997 . S
O313 C329 1.235 . S
O314 Fe308 2.002 . S
O314 C315 1.295 . S
C315 O314 1.295 . S
C315 O317 1.235 . S
C316 O321 1.287 . S
C316 O322 1.255 . S
O317 Fe309 1.997 . S
O317 C315 1.235 . S
C318 O324 1.287 . S
C318 O325 1.255 . S
O319 Fe308 1.976 . S
O319 C326 1.287 . S
O320 Fe309 1.996 . S
O320 C326 1.255 . S
O321 Fe311 1.976 . S
O321 C316 1.287 . S
O322 Fe308 1.996 . S
O322 C316 1.255 . S
C323 O327 1.295 . S
C323 O328 1.235 . S
O324 Fe309 1.976 . S
O324 C318 1.287 . S
O325 Fe311 1.996 . S
O325 C318 1.255 . S
C326 O319 1.287 . S
C326 O320 1.255 . S
O327 Fe309 2.002 . S
O327 C323 1.295 . S
O328 Fe311 1.997 . S
O328 C323 1.235 . S
C329 O312 1.295 . S
C329 O313 1.235 . S
Fe330 O332 1.918 . S
Fe330 O335 1.997 . S
Fe330 O336 2.002 . S
Fe330 O341 1.976 . S
Fe330 O344 1.996 . S
Fe331 O332 1.918 . S
Fe331 O339 1.997 . S
Fe331 O342 1.996 . S
Fe331 O346 1.976 . S
Fe331 O349 2.002 . S
O332 Fe330 1.918 . S
O332 Fe331 1.918 . S
O332 Fe333 1.918 . S
Fe333 O332 1.918 . S
Fe333 O334 2.002 . S
Fe333 O343 1.976 . S
Fe333 O347 1.996 . S
Fe333 O350 1.997 . S
O334 Fe333 2.002 . S
O334 C351 1.295 . S
O335 Fe330 1.997 . S
O335 C351 1.235 . S
O336 Fe330 2.002 . S
O336 C337 1.295 . S
C337 O336 1.295 . S
C337 O339 1.235 . S
C338 O343 1.287 . S
C338 O344 1.255 . S
O339 Fe331 1.997 . S
O339 C337 1.235 . S
C340 O346 1.287 . S
C340 O347 1.255 . S
O341 Fe330 1.976 . S
O341 C348 1.287 . S
O342 Fe331 1.996 . S
O342 C348 1.255 . S
O343 Fe333 1.976 . S
O343 C338 1.287 . S
O344 Fe330 1.996 . S
O344 C338 1.255 . S
C345 O349 1.295 . S
C345 O350 1.235 . S
O346 Fe331 1.976 . S
O346 C340 1.287 . S
O347 Fe333 1.996 . S
O347 C340 1.255 . S
C348 O341 1.287 . S
C348 O342 1.255 . S
O349 Fe331 2.002 . S
O349 C345 1.295 . S
O350 Fe333 1.997 . S
O350 C345 1.235 . S
C351 O334 1.295 . S
C351 O335 1.235 . S
H352 C360 0.950 . S
H353 C365 0.950 . S
H354 C362 0.950 1_556 S
H355 C364 0.950 . S
H356 C366 0.950 1_554 S
H357 C368 0.950 . S
H358 C370 0.950 . S
H359 C371 0.950 . S
C360 H352 0.950 . S
C360 C361 1.386 . S
C360 C362 1.391 . S
C361 C360 1.386 . S
C361 C365 1.393 . S
C362 H354 0.950 1_554 S
C362 C360 1.391 . S
C362 C363 1.400 . S
C363 C362 1.400 . S
C363 C364 1.398 . S
C363 C369 1.491 . S
C364 H355 0.950 . S
C364 C363 1.398 . S
C364 C365 1.391 . S
C365 H353 0.950 . S
C365 C361 1.393 . S
C365 C364 1.391 . S
C366 H356 0.950 1_556 S
C366 C367 1.386 . S
C366 C368 1.391 1_556 S
C367 C366 1.386 . S
C367 C371 1.393 . S
C368 H357 0.950 . S
C368 C366 1.391 1_554 S
C368 C369 1.400 1_565 S
C369 C363 1.491 . S
C369 C368 1.400 1_545 S
C369 C370 1.398 1_554 S
C370 H358 0.950 . S
C370 C369 1.398 1_556 S
C370 C371 1.391 1_545 S
C371 H359 0.950 . S
C371 C367 1.393 . S
C371 C370 1.391 1_565 S
H372 C380 0.950 . S
H373 C385 0.950 . S
H374 C382 0.950 1_565 S
H375 C384 0.942 1_564 S
H376 C386 0.950 . S
H377 C388 0.950 . S
H378 C390 0.950 . S
H379 C391 0.950 . S
C380 H372 0.950 . S
C380 C381 1.386 . S
C380 C382 1.391 . S
C381 C380 1.386 . S
C381 C385 1.393 . S
C382 H374 0.950 1_545 S
C382 C380 1.391 . S
C382 C383 1.400 1_546 S
C383 C382 1.400 1_564 S
C383 C384 1.395 1_564 S
C383 C389 1.491 . S
C384 H375 0.942 1_546 S
C384 C383 1.395 1_546 S
C384 C385 1.402 . S
C385 H373 0.950 . S
C385 C381 1.393 . S
C385 C384 1.402 . S
C386 H376 0.950 . S
C386 C387 1.386 . S
C386 C388 1.391 . S
C387 C386 1.386 . S
C387 C391 1.393 . S
C388 H377 0.950 . S
C388 C386 1.391 . S
C388 C389 1.400 . S
C389 C383 1.491 . S
C389 C388 1.400 . S
C389 C390 1.398 . S
C390 H378 0.950 . S
C390 C389 1.398 . S
C390 C391 1.391 . S
C391 H379 0.950 . S
C391 C387 1.393 . S
C391 C390 1.391 . S
H392 C400 0.950 . S
H393 C405 0.950 . S
H394 C402 0.950 . S
H395 C404 0.950 . S
H396 C406 0.950 . S
H397 C408 0.950 . S
H398 C410 0.950 . S
H399 C411 0.950 . S
C400 H392 0.950 . S
C400 C401 1.386 . S
C400 C402 1.391 1_545 S
C401 C400 1.386 . S
C401 C405 1.393 . S
C402 H394 0.950 . S
C402 C400 1.391 1_565 S
C402 C403 1.400 . S
C403 C402 1.400 . S
C403 C404 1.398 1_565 S
C403 C409 1.491 . S
C404 H395 0.950 . S
C404 C403 1.398 1_545 S
C404 C405 1.391 . S
C405 H393 0.950 . S
C405 C401 1.393 . S
C405 C404 1.391 . S
C406 H396 0.950 . S
C406 C407 1.386 . S
C406 C408 1.391 . S
C407 C406 1.386 . S
C407 C411 1.393 . S
C408 H397 0.950 . S
C408 C406 1.391 . S
C408 C409 1.400 . S
C409 C403 1.491 . S
C409 C408 1.400 . S
C409 C410 1.398 . S
C410 H398 0.950 . S
C410 C409 1.398 . S
C410 C411 1.391 . S
C411 H399 0.950 . S
C411 C407 1.393 . S
C411 C410 1.391 . S
H412 C420 0.950 . S
H413 C425 0.950 . S
H414 C422 0.950 . S
H415 C424 0.950 . S
H416 C426 0.950 . S
H417 C428 0.950 . S
H418 C430 0.950 . S
H419 C431 0.950 . S
C420 H412 0.950 . S
C420 C421 1.386 . S
C420 C422 1.391 . S
C421 C420 1.386 . S
C421 C425 1.393 . S
C422 H414 0.950 . S
C422 C420 1.391 . S
C422 C423 1.400 1_565 S
C423 C422 1.400 1_545 S
C423 C424 1.398 . S
C423 C429 1.491 . S
C424 H415 0.950 . S
C424 C423 1.398 . S
C424 C425 1.391 1_545 S
C425 H413 0.950 . S
C425 C421 1.393 . S
C425 C424 1.391 1_565 S
C426 H416 0.950 . S
C426 C427 1.386 . S
C426 C428 1.391 . S
C427 C426 1.386 . S
C427 C431 1.393 . S
C428 H417 0.950 . S
C428 C426 1.391 . S
C428 C429 1.400 . S
C429 C423 1.491 . S
C429 C428 1.400 . S
C429 C430 1.398 . S
C430 H418 0.950 . S
C430 C429 1.398 . S
C430 C431 1.391 . S
C431 H419 0.950 . S
C431 C427 1.393 . S
C431 C430 1.391 . S
H432 C440 0.950 . S
H433 C445 0.950 . S
H434 C442 0.950 1_556 S
H435 C444 0.944 1_566 S
H436 C446 0.950 . S
H437 C448 0.950 . S
H438 C450 0.950 . S
H439 C451 0.950 . S
C440 H432 0.950 . S
C440 C441 1.386 . S
C440 C442 1.391 . S
C441 C440 1.386 . S
C441 C445 1.393 . S
C442 H434 0.950 1_554 S
C442 C440 1.391 . S
C442 C443 1.400 1_544 S
C443 C442 1.400 1_566 S
C443 C444 1.395 1_566 S
C443 C449 1.491 . S
C444 H435 0.944 1_544 S
C444 C443 1.395 1_544 S
C444 C445 1.401 . S
C445 H433 0.950 . S
C445 C441 1.393 . S
C445 C444 1.401 . S
C446 H436 0.950 . S
C446 C447 1.386 . S
C446 C448 1.391 . S
C447 C446 1.386 . S
C447 C451 1.393 . S
C448 H437 0.950 . S
C448 C446 1.391 . S
C448 C449 1.400 . S
C449 C443 1.491 . S
C449 C448 1.400 . S
C449 C450 1.398 . S
C450 H438 0.950 . S
C450 C449 1.398 . S
C450 C451 1.391 . S
C451 H439 0.950 . S
C451 C447 1.393 . S
C451 C450 1.391 . S
H452 C460 0.950 . S
H453 C465 0.950 . S
H454 C462 0.950 . S
H455 C464 0.950 1_554 S
H456 C466 0.950 . S
H457 C468 0.950 . S
H458 C470 0.950 . S
H459 C471 0.949 1_556 S
C460 H452 0.950 . S
C460 C461 1.386 . S
C460 C462 1.391 . S
C461 C460 1.386 . S
C461 C465 1.393 . S
C462 H454 0.950 . S
C462 C460 1.391 . S
C462 C463 1.400 . S
C463 C462 1.400 . S
C463 C464 1.398 . S
C463 C469 1.491 . S
C464 H455 0.950 1_556 S
C464 C463 1.398 . S
C464 C465 1.391 . S
C465 H453 0.950 . S
C465 C461 1.393 . S
C465 C464 1.391 . S
C466 H456 0.950 . S
C466 C467 1.386 . S
C466 C468 1.391 1_565 S
C467 C466 1.386 . S
C467 C471 1.396 . S
C468 H457 0.950 . S
C468 C466 1.391 1_545 S
C468 C469 1.400 1_554 S
C469 C463 1.491 . S
C469 C468 1.400 1_556 S
C469 C470 1.398 1_545 S
C470 H458 0.950 . S
C470 C469 1.398 1_565 S
C470 C471 1.389 1_556 S
C471 H459 0.949 1_554 S
C471 C467 1.396 . S
C471 C470 1.389 1_554 S
H472 C480 0.950 . S
H473 C485 0.950 . S
H474 C482 0.950 . S
H475 C484 0.950 . S
H476 C486 0.950 . S
H477 C488 0.950 . S
H478 C490 0.950 . S
H479 C491 0.950 . S
C480 H472 0.950 . S
C480 C481 1.386 . S
C480 C482 1.391 . S
C481 C480 1.386 . S
C481 C485 1.393 . S
C482 H474 0.950 . S
C482 C480 1.391 . S
C482 C483 1.400 1_565 S
C483 C482 1.400 1_545 S
C483 C484 1.398 . S
C483 C489 1.491 . S
C484 H475 0.950 . S
C484 C483 1.398 . S
C484 C485 1.391 1_545 S
C485 H473 0.950 . S
C485 C481 1.393 . S
C485 C484 1.391 1_565 S
C486 H476 0.950 . S
C486 C487 1.386 . S
C486 C488 1.391 . S
C487 C486 1.386 . S
C487 C491 1.393 . S
C488 H477 0.950 . S
C488 C486 1.391 . S
C488 C489 1.400 . S
C489 C483 1.491 . S
C489 C488 1.400 . S
C489 C490 1.398 . S
C490 H478 0.950 . S
C490 C489 1.398 . S
C490 C491 1.391 . S
C491 H479 0.950 . S
C491 C487 1.393 . S
C491 C490 1.391 . S
H492 C500 0.950 . S
H493 C505 0.950 . S
H494 C502 0.950 . S
H495 C504 0.950 . S
H496 C506 0.950 . S
H497 C508 0.950 . S
H498 C510 0.950 . S
H499 C511 0.950 . S
C500 H492 0.950 . S
C500 C501 1.386 . S
C500 C502 1.391 . S
C501 C500 1.386 . S
C501 C505 1.393 . S
C502 H494 0.950 . S
C502 C500 1.391 . S
C502 C503 1.400 . S
C503 C502 1.400 . S
C503 C504 1.398 . S
C503 C509 1.491 . S
C504 H495 0.950 . S
C504 C503 1.398 . S
C504 C505 1.391 . S
C505 H493 0.950 . S
C505 C501 1.393 . S
C505 C504 1.391 . S
C506 H496 0.950 . S
C506 C507 1.386 . S
C506 C508 1.391 . S
C507 C506 1.386 . S
C507 C511 1.393 . S
C508 H497 0.950 . S
C508 C506 1.391 . S
C508 C509 1.400 1_545 S
C509 C503 1.491 . S
C509 C508 1.400 1_565 S
C509 C510 1.398 . S
C510 H498 0.950 . S
C510 C509 1.398 . S
C510 C511 1.391 1_565 S
C511 H499 0.950 . S
C511 C507 1.393 . S
C511 C510 1.391 1_545 S
H512 C520 0.950 . S
H513 C525 0.950 . S
H514 C522 0.950 . S
H515 C524 0.950 . S
H516 C526 0.950 . S
H517 C528 0.950 . S
H518 C530 0.950 . S
H519 C531 0.950 . S
C520 H512 0.950 . S
C520 C521 1.386 . S
C520 C522 1.391 1_556 S
C521 C520 1.386 . S
C521 C525 1.393 . S
C522 H514 0.950 . S
C522 C520 1.391 1_554 S
C522 C523 1.400 . S
C523 C522 1.400 . S
C523 C524 1.398 1_554 S
C523 C529 1.491 . S
C524 H515 0.950 . S
C524 C523 1.398 1_556 S
C524 C525 1.391 . S
C525 H513 0.950 . S
C525 C521 1.393 . S
C525 C524 1.391 . S
C526 H516 0.950 . S
C526 C527 1.386 . S
C526 C528 1.391 . S
C527 C526 1.386 . S
C527 C531 1.393 . S
C528 H517 0.950 . S
C528 C526 1.391 . S
C528 C529 1.400 . S
C529 C523 1.491 . S
C529 C528 1.400 . S
C529 C530 1.398 . S
C530 H518 0.950 . S
C530 C529 1.398 . S
C530 C531 1.391 . S
C531 H519 0.950 . S
C531 C527 1.393 . S
C531 C530 1.391 . S
H532 C540 0.950 . S
H533 C545 0.950 . S
H534 C542 0.950 . S
H535 C544 0.950 . S
H536 C546 0.950 . S
H537 C548 0.950 . S
H538 C550 0.950 . S
H539 C551 0.950 . S
C540 H532 0.950 . S
C540 C541 1.386 . S
C540 C542 1.391 . S
C541 C540 1.386 . S
C541 C545 1.393 . S
C542 H534 0.950 . S
C542 C540 1.391 . S
C542 C543 1.400 . S
C543 C542 1.400 . S
C543 C544 1.398 . S
C543 C549 1.491 . S
C544 H535 0.950 . S
C544 C543 1.398 . S
C544 C545 1.391 . S
C545 H533 0.950 . S
C545 C541 1.393 . S
C545 C544 1.391 . S
C546 H536 0.950 . S
C546 C547 1.386 . S
C546 C548 1.391 . S
C547 C546 1.386 . S
C547 C551 1.393 . S
C548 H537 0.950 . S
C548 C546 1.391 . S
C548 C549 1.400 1_556 S
C549 C543 1.491 . S
C549 C548 1.400 1_554 S
C549 C550 1.398 . S
C550 H538 0.950 . S
C550 C549 1.398 . S
C550 C551 1.391 1_554 S
C551 H539 0.950 . S
C551 C547 1.393 . S
C551 C550 1.391 1_556 S
H552 C560 0.950 . S
H553 C565 0.950 . S
H554 C562 0.950 . S
H555 C564 0.950 . S
H556 C566 0.950 . S
H557 C568 0.950 . S
H558 C570 0.950 . S
H559 C571 0.950 . S
C560 H552 0.950 . S
C560 C561 1.386 . S
C560 C562 1.391 . S
C561 C560 1.386 . S
C561 C565 1.393 . S
C562 H554 0.950 . S
C562 C560 1.391 . S
C562 C563 1.400 . S
C563 C562 1.400 . S
C563 C564 1.398 . S
C563 C569 1.491 . S
C564 H555 0.950 . S
C564 C563 1.398 . S
C564 C565 1.391 . S
C565 H553 0.950 . S
C565 C561 1.393 . S
C565 C564 1.391 . S
C566 H556 0.950 . S
C566 C567 1.386 . S
C566 C568 1.391 . S
C567 C566 1.386 . S
C567 C571 1.393 . S
C568 H557 0.950 . S
C568 C566 1.391 . S
C568 C569 1.400 . S
C569 C563 1.491 . S
C569 C568 1.400 . S
C569 C570 1.398 . S
C570 H558 0.950 . S
C570 C569 1.398 . S
C570 C571 1.391 . S
C571 H559 0.950 . S
C571 C567 1.393 . S
C571 C570 1.391 . S
H572 C580 0.950 . S
H573 C585 0.950 . S
H574 C582 0.950 . S
H575 C584 0.950 . S
H576 C586 0.950 . S
H577 C588 0.950 . S
H578 C590 0.950 . S
H579 C591 0.950 . S
C580 H572 0.950 . S
C580 C581 1.386 . S
C580 C582 1.391 . S
C581 C580 1.386 . S
C581 C585 1.393 . S
C582 H574 0.950 . S
C582 C580 1.391 . S
C582 C583 1.400 . S
C583 C582 1.400 . S
C583 C584 1.398 . S
C583 C589 1.491 . S
C584 H575 0.950 . S
C584 C583 1.398 . S
C584 C585 1.391 . S
C585 H573 0.950 . S
C585 C581 1.393 . S
C585 C584 1.391 . S
C586 H576 0.950 . S
C586 C587 1.386 . S
C586 C588 1.391 . S
C587 C586 1.386 . S
C587 C591 1.393 . S
C588 H577 0.950 . S
C588 C586 1.391 . S
C588 C589 1.400 . S
C589 C583 1.491 . S
C589 C588 1.400 . S
C589 C590 1.398 . S
C590 H578 0.950 . S
C590 C589 1.398 . S
C590 C591 1.391 . S
C591 H579 0.950 . S
C591 C587 1.393 . S
C591 C590 1.391 . S
H592 C600 0.950 . S
H593 C605 0.950 . S
H594 C602 0.950 . S
H595 C604 0.950 . S
H596 C606 0.950 . S
H597 C608 0.969 . S
H598 C610 0.950 . S
H599 C611 0.950 . S
C600 H592 0.950 . S
C600 C601 1.386 . S
C600 C602 1.391 . S
C601 C600 1.386 . S
C601 C605 1.393 . S
C602 H594 0.950 . S
C602 C600 1.391 . S
C602 C603 1.400 . S
C603 C602 1.400 . S
C603 C604 1.398 . S
C603 C609 1.491 . S
C604 H595 0.950 . S
C604 C603 1.398 . S
C604 C605 1.391 . S
C605 H593 0.950 . S
C605 C601 1.393 . S
C605 C604 1.391 . S
C606 H596 0.950 . S
C606 C607 1.386 . S
C606 C608 1.367 1_554 S
C607 C606 1.386 . S
C607 C611 1.393 . S
C608 H597 0.969 . S
C608 C606 1.367 1_556 S
C608 C609 1.407 . S
C609 C603 1.491 . S
C609 C608 1.407 . S
C609 C610 1.398 1_556 S
C610 H598 0.950 . S
C610 C609 1.398 1_554 S
C610 C611 1.391 . S
C611 H599 0.950 . S
C611 C607 1.393 . S
C611 C610 1.391 . S
H612 C620 0.950 . S
H613 C625 0.950 . S
H614 C622 0.950 . S
H615 C624 0.950 . S
H616 C626 0.950 . S
H617 C628 0.950 . S
H618 C630 0.950 . S
H619 C631 0.950 . S
C620 H612 0.950 . S
C620 C621 1.386 . S
C620 C622 1.391 . S
C621 C620 1.386 . S
C621 C625 1.393 . S
C622 H614 0.950 . S
C622 C620 1.391 . S
C622 C623 1.400 1_554 S
C623 C622 1.400 1_556 S
C623 C624 1.398 . S
C623 C629 1.491 . S
C624 H615 0.950 . S
C624 C623 1.398 . S
C624 C625 1.391 1_556 S
C625 H613 0.950 . S
C625 C621 1.393 . S
C625 C624 1.391 1_554 S
C626 H616 0.950 . S
C626 C627 1.386 . S
C626 C628 1.391 . S
C627 C626 1.386 . S
C627 C631 1.393 . S
C628 H617 0.950 . S
C628 C626 1.391 . S
C628 C629 1.400 . S
C629 C623 1.491 . S
C629 C628 1.400 . S
C629 C630 1.398 . S
C630 H618 0.950 . S
C630 C629 1.398 . S
C630 C631 1.391 . S
C631 H619 0.950 . S
C631 C627 1.393 . S
C631 C630 1.391 . S
H632 C640 0.950 . S
H633 C645 0.950 . S
H634 C642 0.950 . S
H635 C644 0.950 . S
H636 C646 0.950 . S
H637 C648 0.950 . S
H638 C650 0.950 . S
H639 C651 0.950 . S
C640 H632 0.950 . S
C640 C641 1.386 . S
C640 C642 1.391 . S
C641 C640 1.386 . S
C641 C645 1.393 . S
C642 H634 0.950 . S
C642 C640 1.391 . S
C642 C643 1.400 . S
C643 C642 1.400 . S
C643 C644 1.398 . S
C643 C649 1.491 . S
C644 H635 0.950 . S
C644 C643 1.398 . S
C644 C645 1.391 . S
C645 H633 0.950 . S
C645 C641 1.393 . S
C645 C644 1.391 . S
C646 H636 0.950 . S
C646 C647 1.386 . S
C646 C648 1.391 . S
C647 C646 1.386 . S
C647 C651 1.393 . S
C648 H637 0.950 . S
C648 C646 1.391 . S
C648 C649 1.400 . S
C649 C643 1.491 . S
C649 C648 1.400 . S
C649 C650 1.398 . S
C650 H638 0.950 . S
C650 C649 1.398 . S
C650 C651 1.391 . S
C651 H639 0.950 . S
C651 C647 1.393 . S
C651 C650 1.391 . S
H652 C660 0.950 . S
H653 C665 0.950 . S
H654 C662 0.950 . S
H655 C664 0.950 . S
H656 C666 0.950 . S
H657 C668 0.950 . S
H658 C670 0.950 . S
H659 C671 0.950 . S
C660 H652 0.950 . S
C660 C661 1.386 . S
C660 C662 1.391 . S
C661 C660 1.386 . S
C661 C665 1.393 . S
C662 H654 0.950 . S
C662 C660 1.391 . S
C662 C663 1.400 . S
C663 C662 1.400 . S
C663 C664 1.398 . S
C663 C669 1.491 . S
C664 H655 0.950 . S
C664 C663 1.398 . S
C664 C665 1.391 . S
C665 H653 0.950 . S
C665 C661 1.393 . S
C665 C664 1.391 . S
C666 H656 0.950 . S
C666 C667 1.386 . S
C666 C668 1.391 . S
C667 C666 1.386 . S
C667 C671 1.393 . S
C668 H657 0.950 . S
C668 C666 1.391 . S
C668 C669 1.400 . S
C669 C663 1.491 . S
C669 C668 1.400 . S
C669 C670 1.398 . S
C670 H658 0.950 . S
C670 C669 1.398 . S
C670 C671 1.391 . S
C671 H659 0.950 . S
C671 C667 1.393 . S
C671 C670 1.391 . S
H672 C680 0.950 . S
H673 C685 0.950 . S
H674 C682 0.950 . S
H675 C684 0.950 . S
H676 C686 0.950 . S
H677 C688 0.950 . S
H678 C690 0.950 . S
H679 C691 0.950 . S
C680 H672 0.950 . S
C680 C681 1.386 . S
C680 C682 1.391 . S
C681 C680 1.386 . S
C681 C685 1.393 . S
C682 H674 0.950 . S
C682 C680 1.391 . S
C682 C683 1.400 . S
C683 C682 1.400 . S
C683 C684 1.398 . S
C683 C689 1.491 . S
C684 H675 0.950 . S
C684 C683 1.398 . S
C684 C685 1.391 . S
C685 H673 0.950 . S
C685 C681 1.393 . S
C685 C684 1.391 . S
C686 H676 0.950 . S
C686 C687 1.386 . S
C686 C688 1.391 . S
C687 C686 1.386 . S
C687 C691 1.393 . S
C688 H677 0.950 . S
C688 C686 1.391 . S
C688 C689 1.400 . S
C689 C683 1.491 . S
C689 C688 1.400 . S
C689 C690 1.398 . S
C690 H678 0.950 . S
C690 C689 1.398 . S
C690 C691 1.391 . S
C691 H679 0.950 . S
C691 C687 1.393 . S
C691 C690 1.391 . S
H692 C700 0.950 . S
H693 C705 0.950 . S
H694 C702 0.950 . S
H695 C704 0.950 . S
H696 C706 0.950 . S
H697 C708 0.950 . S
H698 C710 0.950 . S
H699 C711 0.950 . S
C700 H692 0.950 . S
C700 C701 1.386 . S
C700 C702 1.391 . S
C701 C700 1.386 . S
C701 C705 1.393 . S
C702 H694 0.950 . S
C702 C700 1.391 . S
C702 C703 1.400 . S
C703 C702 1.400 . S
C703 C704 1.398 . S
C703 C709 1.491 . S
C704 H695 0.950 . S
C704 C703 1.398 . S
C704 C705 1.391 . S
C705 H693 0.950 . S
C705 C701 1.393 . S
C705 C704 1.391 . S
C706 H696 0.950 . S
C706 C707 1.386 . S
C706 C708 1.391 . S
C707 C706 1.386 . S
C707 C711 1.393 . S
C708 H697 0.950 . S
C708 C706 1.391 . S
C708 C709 1.400 . S
C709 C703 1.491 . S
C709 C708 1.400 . S
C709 C710 1.398 . S
C710 H698 0.950 . S
C710 C709 1.398 . S
C710 C711 1.391 . S
C711 H699 0.950 . S
C711 C707 1.393 . S
C711 C710 1.391 . S
H712 C720 0.950 . S
H713 C725 0.950 . S
H714 C722 0.950 . S
H715 C724 0.950 . S
H716 C726 0.950 . S
H717 C728 0.950 . S
H718 C730 0.950 . S
H719 C731 0.950 . S
C720 H712 0.950 . S
C720 C721 1.386 . S
C720 C722 1.391 . S
C721 C720 1.386 . S
C721 C725 1.393 . S
C722 H714 0.950 . S
C722 C720 1.391 . S
C722 C723 1.400 . S
C723 C722 1.400 . S
C723 C724 1.398 . S
C723 C729 1.491 . S
C724 H715 0.950 . S
C724 C723 1.398 . S
C724 C725 1.391 . S
C725 H713 0.950 . S
C725 C721 1.393 . S
C725 C724 1.391 . S
C726 H716 0.950 . S
C726 C727 1.386 . S
C726 C728 1.391 . S
C727 C726 1.386 . S
C727 C731 1.393 . S
C728 H717 0.950 . S
C728 C726 1.391 . S
C728 C729 1.400 . S
C729 C723 1.491 . S
C729 C728 1.400 . S
C729 C730 1.398 . S
C730 H718 0.950 . S
C730 C729 1.398 . S
C730 C731 1.391 . S
C731 H719 0.950 . S
C731 C727 1.393 . S
C731 C730 1.391 . S
H732 C740 0.950 . S
H733 C745 0.950 . S
H734 C742 0.950 . S
H735 C744 0.950 . S
H736 C746 0.950 . S
H737 C748 0.950 . S
H738 C750 0.950 . S
H739 C751 0.950 . S
C740 H732 0.950 . S
C740 C741 1.386 . S
C740 C742 1.391 . S
C741 C740 1.386 . S
C741 C745 1.393 . S
C742 H734 0.950 . S
C742 C740 1.391 . S
C742 C743 1.400 . S
C743 C742 1.400 . S
C743 C744 1.398 . S
C743 C749 1.491 . S
C744 H735 0.950 . S
C744 C743 1.398 . S
C744 C745 1.391 . S
C745 H733 0.950 . S
C745 C741 1.393 . S
C745 C744 1.391 . S
C746 H736 0.950 . S
C746 C747 1.386 . S
C746 C748 1.391 . S
C747 C746 1.386 . S
C747 C751 1.393 . S
C748 H737 0.950 . S
C748 C746 1.391 . S
C748 C749 1.400 . S
C749 C743 1.491 . S
C749 C748 1.400 . S
C749 C750 1.398 . S
C750 H738 0.950 . S
C750 C749 1.398 . S
C750 C751 1.391 . S
C751 H739 0.950 . S
C751 C747 1.393 . S
C751 C750 1.391 . S
H752 C760 0.950 . S
H753 C765 0.950 . S
H754 C762 0.950 . S
H755 C764 0.950 . S
H756 C766 0.950 . S
H757 C768 0.950 . S
H758 C770 0.950 . S
H759 C771 0.950 . S
C760 H752 0.950 . S
C760 C761 1.386 . S
C760 C762 1.391 . S
C761 C760 1.386 . S
C761 C765 1.393 . S
C762 H754 0.950 . S
C762 C760 1.391 . S
C762 C763 1.400 . S
C763 C762 1.400 . S
C763 C764 1.398 . S
C763 C769 1.491 . S
C764 H755 0.950 . S
C764 C763 1.398 . S
C764 C765 1.391 . S
C765 H753 0.950 . S
C765 C761 1.393 . S
C765 C764 1.391 . S
C766 H756 0.950 . S
C766 C767 1.386 . S
C766 C768 1.391 . S
C767 C766 1.386 . S
C767 C771 1.393 . S
C768 H757 0.950 . S
C768 C766 1.391 . S
C768 C769 1.400 . S
C769 C763 1.491 . S
C769 C768 1.400 . S
C769 C770 1.398 . S
C770 H758 0.950 . S
C770 C769 1.398 . S
C770 C771 1.391 . S
C771 H759 0.950 . S
C771 C767 1.393 . S
C771 C770 1.391 . S
H772 C780 0.950 . S
H773 C785 0.950 . S
H774 C782 0.950 . S
H775 C784 0.950 . S
H776 C786 0.950 . S
H777 C788 0.950 . S
H778 C790 0.950 . S
H779 C791 0.950 . S
C780 H772 0.950 . S
C780 C781 1.386 . S
C780 C782 1.391 . S
C781 C780 1.386 . S
C781 C785 1.393 . S
C782 H774 0.950 . S
C782 C780 1.391 . S
C782 C783 1.400 . S
C783 C782 1.400 . S
C783 C784 1.398 . S
C783 C789 1.491 . S
C784 H775 0.950 . S
C784 C783 1.398 . S
C784 C785 1.391 . S
C785 H773 0.950 . S
C785 C781 1.393 . S
C785 C784 1.391 . S
C786 H776 0.950 . S
C786 C787 1.386 . S
C786 C788 1.391 . S
C787 C786 1.386 . S
C787 C791 1.393 . S
C788 H777 0.950 . S
C788 C786 1.391 . S
C788 C789 1.400 . S
C789 C783 1.491 . S
C789 C788 1.400 . S
C789 C790 1.398 . S
C790 H778 0.950 . S
C790 C789 1.398 . S
C790 C791 1.391 . S
C791 H779 0.950 . S
C791 C787 1.393 . S
C791 C790 1.391 . S
H792 C800 0.950 . S
H793 C805 0.950 . S
H794 C802 0.950 . S
H795 C804 0.950 . S
H796 C806 0.950 . S
H797 C808 0.950 . S
H798 C810 0.950 . S
H799 C811 0.950 . S
C800 H792 0.950 . S
C800 C801 1.386 . S
C800 C802 1.391 . S
C801 C800 1.386 . S
C801 C805 1.393 . S
C802 H794 0.950 . S
C802 C800 1.391 . S
C802 C803 1.400 . S
C803 C802 1.400 . S
C803 C804 1.398 . S
C803 C809 1.491 . S
C804 H795 0.950 . S
C804 C803 1.398 . S
C804 C805 1.391 . S
C805 H793 0.950 . S
C805 C801 1.393 . S
C805 C804 1.391 . S
C806 H796 0.950 . S
C806 C807 1.386 . S
C806 C808 1.391 . S
C807 C806 1.386 . S
C807 C811 1.393 . S
C808 H797 0.950 . S
C808 C806 1.391 . S
C808 C809 1.400 . S
C809 C803 1.491 . S
C809 C808 1.400 . S
C809 C810 1.398 . S
C810 H798 0.950 . S
C810 C809 1.398 . S
C810 C811 1.391 . S
C811 H799 0.950 . S
C811 C807 1.393 . S
C811 C810 1.391 . S
H812 C820 0.950 . S
H813 C825 0.950 . S
H814 C822 0.950 . S
H815 C824 0.950 . S
H816 C826 0.950 . S
H817 C828 0.950 . S
H818 C830 0.950 . S
H819 C831 0.950 . S
C820 H812 0.950 . S
C820 C821 1.386 . S
C820 C822 1.391 . S
C821 C820 1.386 . S
C821 C825 1.393 . S
C822 H814 0.950 . S
C822 C820 1.391 . S
C822 C823 1.400 . S
C823 C822 1.400 . S
C823 C824 1.398 . S
C823 C829 1.491 . S
C824 H815 0.950 . S
C824 C823 1.398 . S
C824 C825 1.391 . S
C825 H813 0.950 . S
C825 C821 1.393 . S
C825 C824 1.391 . S
C826 H816 0.950 . S
C826 C827 1.386 . S
C826 C828 1.391 . S
C827 C826 1.386 . S
C827 C831 1.393 . S
C828 H817 0.950 . S
C828 C826 1.391 . S
C828 C829 1.400 . S
C829 C823 1.491 . S
C829 C828 1.400 . S
C829 C830 1.398 . S
C830 H818 0.950 . S
C830 C829 1.398 . S
C830 C831 1.391 . S
C831 H819 0.950 . S
C831 C827 1.393 . S
C831 C830 1.391 . S
H832 C840 0.950 . S
H833 C845 0.950 . S
H834 C842 0.950 . S
H835 C844 0.950 . S
H836 C846 0.950 . S
H837 C848 0.950 . S
H838 C850 0.950 . S
H839 C851 0.950 . S
C840 H832 0.950 . S
C840 C841 1.386 . S
C840 C842 1.391 . S
C841 C840 1.386 . S
C841 C845 1.393 . S
C842 H834 0.950 . S
C842 C840 1.391 . S
C842 C843 1.400 . S
C843 C842 1.400 . S
C843 C844 1.398 . S
C843 C849 1.491 . S
C844 H835 0.950 . S
C844 C843 1.398 . S
C844 C845 1.391 . S
C845 H833 0.950 . S
C845 C841 1.393 . S
C845 C844 1.391 . S
C846 H836 0.950 . S
C846 C847 1.386 . S
C846 C848 1.391 . S
C847 C846 1.386 . S
C847 C851 1.393 . S
C848 H837 0.950 . S
C848 C846 1.391 . S
C848 C849 1.400 . S
C849 C843 1.491 . S
C849 C848 1.400 . S
C849 C850 1.398 . S
C850 H838 0.950 . S
C850 C849 1.398 . S
C850 C851 1.391 . S
C851 H839 0.950 . S
C851 C847 1.393 . S
C851 C850 1.391 . S
H852 C860 0.950 . S
H853 C865 0.950 . S
H854 C862 0.950 . S
H855 C864 0.950 . S
H856 C866 0.950 . S
H857 C868 0.950 . S
H858 C870 0.950 . S
H859 C871 0.950 . S
C860 H852 0.950 . S
C860 C861 1.386 . S
C860 C862 1.391 . S
C861 C860 1.386 . S
C861 C865 1.393 . S
C862 H854 0.950 . S
C862 C860 1.391 . S
C862 C863 1.400 . S
C863 C862 1.400 . S
C863 C864 1.398 . S
C863 C869 1.491 . S
C864 H855 0.950 . S
C864 C863 1.398 . S
C864 C865 1.391 . S
C865 H853 0.950 . S
C865 C861 1.393 . S
C865 C864 1.391 . S
C866 H856 0.950 . S
C866 C867 1.386 . S
C866 C868 1.391 . S
C867 C866 1.386 . S
C867 C871 1.393 . S
C868 H857 0.950 . S
C868 C866 1.391 . S
C868 C869 1.400 . S
C869 C863 1.491 . S
C869 C868 1.400 . S
C869 C870 1.398 . S
C870 H858 0.950 . S
C870 C869 1.398 . S
C870 C871 1.391 . S
C871 H859 0.950 . S
C871 C867 1.393 . S
C871 C870 1.391 . S
H872 C880 0.950 . S
H873 C885 0.950 . S
H874 C882 0.950 . S
H875 C884 0.950 . S
H876 C886 0.950 . S
H877 C888 0.950 . S
H878 C890 0.950 . S
H879 C891 0.950 . S
C880 H872 0.950 . S
C880 C881 1.386 . S
C880 C882 1.391 . S
C881 C880 1.386 . S
C881 C885 1.393 . S
C882 H874 0.950 . S
C882 C880 1.391 . S
C882 C883 1.400 . S
C883 C882 1.400 . S
C883 C884 1.398 . S
C883 C889 1.491 . S
C884 H875 0.950 . S
C884 C883 1.398 . S
C884 C885 1.391 . S
C885 H873 0.950 . S
C885 C881 1.393 . S
C885 C884 1.391 . S
C886 H876 0.950 . S
C886 C887 1.386 . S
C886 C888 1.391 . S
C887 C886 1.386 . S
C887 C891 1.393 . S
C888 H877 0.950 . S
C888 C886 1.391 . S
C888 C889 1.400 . S
C889 C883 1.491 . S
C889 C888 1.400 . S
C889 C890 1.398 . S
C890 H878 0.950 . S
C890 C889 1.398 . S
C890 C891 1.391 . S
C891 H879 0.950 . S
C891 C887 1.393 . S
C891 C890 1.391 . S
H892 C900 0.950 . S
H893 C905 0.950 . S
H894 C902 0.950 . S
H895 C904 0.950 . S
H896 C906 0.950 . S
H897 C908 0.950 . S
H898 C910 0.950 . S
H899 C911 0.950 . S
C900 H892 0.950 . S
C900 C901 1.386 . S
C900 C902 1.391 . S
C901 C900 1.386 . S
C901 C905 1.393 . S
C902 H894 0.950 . S
C902 C900 1.391 . S
C902 C903 1.400 . S
C903 C902 1.400 . S
C903 C904 1.398 . S
C903 C909 1.491 . S
C904 H895 0.950 . S
C904 C903 1.398 . S
C904 C905 1.391 . S
C905 H893 0.950 . S
C905 C901 1.393 . S
C905 C904 1.391 . S
C906 H896 0.950 . S
C906 C907 1.386 . S
C906 C908 1.391 . S
C907 C906 1.386 . S
C907 C911 1.393 . S
C908 H897 0.950 . S
C908 C906 1.391 . S
C908 C909 1.400 . S
C909 C903 1.491 . S
C909 C908 1.400 . S
C909 C910 1.398 . S
C910 H898 0.950 . S
C910 C909 1.398 . S
C910 C911 1.391 . S
C911 H899 0.950 . S
C911 C907 1.393 . S
C911 C910 1.391 . S
H912 C920 0.950 . S
H913 C925 0.950 . S
H914 C922 0.950 . S
H915 C924 0.950 . S
H916 C926 0.950 . S
H917 C928 0.950 . S
H918 C930 0.950 . S
H919 C931 0.950 . S
C920 H912 0.950 . S
C920 C921 1.386 . S
C920 C922 1.391 . S
C921 C920 1.386 . S
C921 C925 1.393 . S
C922 H914 0.950 . S
C922 C920 1.391 . S
C922 C923 1.400 . S
C923 C922 1.400 . S
C923 C924 1.398 . S
C923 C929 1.491 1_545 S
C924 H915 0.950 . S
C924 C923 1.398 . S
C924 C925 1.391 . S
C925 H913 0.950 . S
C925 C921 1.393 . S
C925 C924 1.391 . S
C926 H916 0.950 . S
C926 C927 1.386 . S
C926 C928 1.391 . S
C927 C926 1.386 . S
C927 C931 1.393 . S
C928 H917 0.950 . S
C928 C926 1.391 . S
C928 C929 1.400 . S
C929 C923 1.491 1_565 S
C929 C928 1.400 . S
C929 C930 1.398 . S
C930 H918 0.950 . S
C930 C929 1.398 . S
C930 C931 1.391 . S
C931 H919 0.950 . S
C931 C927 1.393 . S
C931 C930 1.391 . S
H932 C940 0.950 . S
H933 C945 0.950 . S
H934 C942 0.950 . S
H935 C944 0.950 1_565 S
H936 C946 0.950 . S
H937 C948 0.950 . S
H938 C950 0.950 1_545 S
H939 C951 0.950 . S
C940 H932 0.950 . S
C940 C941 1.386 . S
C940 C942 1.391 . S
C941 C940 1.386 . S
C941 C945 1.393 . S
C942 H934 0.950 . S
C942 C940 1.391 . S
C942 C943 1.400 . S
C943 C942 1.400 . S
C943 C944 1.398 . S
C943 C949 1.491 1_545 S
C944 H935 0.950 1_545 S
C944 C943 1.398 . S
C944 C945 1.391 . S
C945 H933 0.950 . S
C945 C941 1.393 . S
C945 C944 1.391 . S
C946 H936 0.950 . S
C946 C947 1.386 . S
C946 C948 1.391 . S
C947 C946 1.386 . S
C947 C951 1.393 . S
C948 H937 0.950 . S
C948 C946 1.391 . S
C948 C949 1.400 . S
C949 C943 1.491 1_565 S
C949 C948 1.400 . S
C949 C950 1.398 . S
C950 H938 0.950 1_565 S
C950 C949 1.398 . S
C950 C951 1.391 . S
C951 H939 0.950 . S
C951 C947 1.393 . S
C951 C950 1.391 . S
H952 C960 0.950 . S
H953 C965 0.950 . S
H954 C962 0.950 . S
H955 C964 0.950 1_545 S
H956 C966 0.950 . S
H957 C968 0.950 . S
H958 C970 0.950 1_565 S
H959 C971 0.950 . S
C960 H952 0.950 . S
C960 C961 1.386 . S
C960 C962 1.391 . S
C961 C960 1.386 . S
C961 C965 1.393 . S
C962 H954 0.950 . S
C962 C960 1.391 . S
C962 C963 1.400 . S
C963 C962 1.400 . S
C963 C964 1.398 . S
C963 C969 1.491 1_565 S
C964 H955 0.950 1_565 S
C964 C963 1.398 . S
C964 C965 1.391 . S
C965 H953 0.950 . S
C965 C961 1.393 . S
C965 C964 1.391 . S
C966 H956 0.950 . S
C966 C967 1.386 . S
C966 C968 1.391 . S
C967 C966 1.386 . S
C967 C971 1.393 . S
C968 H957 0.950 . S
C968 C966 1.391 . S
C968 C969 1.400 . S
C969 C963 1.491 1_545 S
C969 C968 1.400 . S
C969 C970 1.398 . S
C970 H958 0.950 1_545 S
C970 C969 1.398 . S
C970 C971 1.391 . S
C971 H959 0.950 . S
C971 C967 1.393 . S
C971 C970 1.391 . S
H972 C980 0.950 . S
H973 C985 0.950 . S
H974 C982 0.950 . S
H975 C984 0.950 1_545 S
H976 C986 0.950 . S
H977 C988 0.950 . S
H978 C990 0.950 1_565 S
H979 C991 0.950 . S
C980 H972 0.950 . S
C980 C981 1.386 . S
C980 C982 1.391 . S
C981 C980 1.386 . S
C981 C985 1.393 . S
C982 H974 0.950 . S
C982 C980 1.391 . S
C982 C983 1.400 . S
C983 C982 1.400 . S
C983 C984 1.398 . S
C983 C989 1.491 1_565 S
C984 H975 0.950 1_565 S
C984 C983 1.398 . S
C984 C985 1.391 . S
C985 H973 0.950 . S
C985 C981 1.393 . S
C985 C984 1.391 . S
C986 H976 0.950 . S
C986 C987 1.386 . S
C986 C988 1.391 . S
C987 C986 1.386 . S
C987 C991 1.393 . S
C988 H977 0.950 . S
C988 C986 1.391 . S
C988 C989 1.400 . S
C989 C983 1.491 1_545 S
C989 C988 1.400 . S
C989 C990 1.398 . S
C990 H978 0.950 1_545 S
C990 C989 1.398 . S
C990 C991 1.391 . S
C991 H979 0.950 . S
C991 C987 1.393 . S
C991 C990 1.391 . S
H992 C1000 0.950 . S
H993 C1005 0.950 . S
H994 C1002 0.950 . S
H995 C1004 0.973 . S
H996 C1006 0.950 . S
H997 C1008 0.950 . S
H998 C1010 0.960 . S
H999 C1011 0.950 . S
C1000 H992 0.950 . S
C1000 C1001 1.386 . S
C1000 C1002 1.391 . S
C1001 C1000 1.386 . S
C1001 C1005 1.393 . S
C1002 H994 0.950 . S
C1002 C1000 1.391 . S
C1002 C1003 1.400 . S
C1003 C1002 1.400 . S
C1003 C1004 1.390 1_556 S
C1003 C1009 1.491 1_556 S
C1004 H995 0.973 . S
C1004 C1003 1.390 1_554 S
C1004 C1005 1.378 1_554 S
C1005 H993 0.950 . S
C1005 C1001 1.393 . S
C1005 C1004 1.378 1_556 S
C1006 H996 0.950 . S
C1006 C1007 1.386 . S
C1006 C1008 1.391 . S
C1007 C1006 1.386 . S
C1007 C1011 1.393 . S
C1008 H997 0.950 . S
C1008 C1006 1.391 . S
C1008 C1009 1.400 . S
C1009 C1003 1.491 1_554 S
C1009 C1008 1.400 . S
C1009 C1010 1.395 1_554 S
C1010 H998 0.960 . S
C1010 C1009 1.395 1_556 S
C1010 C1011 1.385 1_556 S
C1011 H999 0.950 . S
C1011 C1007 1.393 . S
C1011 C1010 1.385 1_554 S
H1012 C1020 0.950 . S
H1013 C1025 0.950 . S
H1014 C1022 0.950 . S
H1015 C1024 0.950 1_556 S
H1016 C1026 0.950 . S
H1017 C1028 0.950 . S
H1018 C1030 0.950 1_554 S
H1019 C1031 0.950 . S
C1020 H1012 0.950 . S
C1020 C1021 1.386 . S
C1020 C1022 1.391 . S
C1021 C1020 1.386 . S
C1021 C1025 1.393 . S
C1022 H1014 0.950 . S
C1022 C1020 1.391 . S
C1022 C1023 1.400 . S
C1023 C1022 1.400 . S
C1023 C1024 1.398 . S
C1023 C1029 1.491 1_554 S
C1024 H1015 0.950 1_554 S
C1024 C1023 1.398 . S
C1024 C1025 1.391 . S
C1025 H1013 0.950 . S
C1025 C1021 1.393 . S
C1025 C1024 1.391 . S
C1026 H1016 0.950 . S
C1026 C1027 1.386 . S
C1026 C1028 1.391 . S
C1027 C1026 1.386 . S
C1027 C1031 1.393 . S
C1028 H1017 0.950 . S
C1028 C1026 1.391 . S
C1028 C1029 1.400 . S
C1029 C1023 1.491 1_556 S
C1029 C1028 1.400 . S
C1029 C1030 1.398 . S
C1030 H1018 0.950 1_556 S
C1030 C1029 1.398 . S
C1030 C1031 1.391 . S
C1031 H1019 0.950 . S
C1031 C1027 1.393 . S
C1031 C1030 1.391 . S
H1032 C1040 0.950 . S
H1033 C1045 0.950 . S
H1034 C1042 0.950 . S
H1035 C1044 0.950 . S
H1036 C1046 0.950 . S
H1037 C1048 0.950 . S
H1038 C1050 0.950 . S
H1039 C1051 0.950 . S
C1040 H1032 0.950 . S
C1040 C1041 1.386 . S
C1040 C1042 1.391 . S
C1041 C1040 1.386 . S
C1041 C1045 1.393 . S
C1042 H1034 0.950 . S
C1042 C1040 1.391 . S
C1042 C1043 1.400 . S
C1043 C1042 1.400 . S
C1043 C1044 1.398 . S
C1043 C1049 1.491 . S
C1044 H1035 0.950 . S
C1044 C1043 1.398 . S
C1044 C1045 1.391 . S
C1045 H1033 0.950 . S
C1045 C1041 1.393 . S
C1045 C1044 1.391 . S
C1046 H1036 0.950 . S
C1046 C1047 1.386 . S
C1046 C1048 1.391 . S
C1047 C1046 1.386 . S
C1047 C1051 1.393 . S
C1048 H1037 0.950 . S
C1048 C1046 1.391 . S
C1048 C1049 1.400 . S
C1049 C1043 1.491 . S
C1049 C1048 1.400 . S
C1049 C1050 1.398 . S
C1050 H1038 0.950 . S
C1050 C1049 1.398 . S
C1050 C1051 1.391 . S
C1051 H1039 0.950 . S
C1051 C1047 1.393 . S
C1051 C1050 1.391 . S
H1052 C1060 0.950 . S
H1053 C1065 0.950 . S
H1054 C1062 0.950 . S
H1055 C1064 0.950 . S
H1056 C1066 0.950 . S
H1057 C1068 0.950 . S
H1058 C1070 0.950 . S
H1059 C1071 0.950 . S
C1060 H1052 0.950 . S
C1060 C1061 1.386 . S
C1060 C1062 1.391 . S
C1061 C1060 1.386 . S
C1061 C1065 1.393 . S
C1062 H1054 0.950 . S
C1062 C1060 1.391 . S
C1062 C1063 1.400 . S
C1063 C1062 1.400 . S
C1063 C1064 1.398 . S
C1063 C1069 1.491 . S
C1064 H1055 0.950 . S
C1064 C1063 1.398 . S
C1064 C1065 1.391 . S
C1065 H1053 0.950 . S
C1065 C1061 1.393 . S
C1065 C1064 1.391 . S
C1066 H1056 0.950 . S
C1066 C1067 1.386 . S
C1066 C1068 1.391 . S
C1067 C1066 1.386 . S
C1067 C1071 1.393 . S
C1068 H1057 0.950 . S
C1068 C1066 1.391 . S
C1068 C1069 1.400 . S
C1069 C1063 1.491 . S
C1069 C1068 1.400 . S
C1069 C1070 1.398 . S
C1070 H1058 0.950 . S
C1070 C1069 1.398 . S
C1070 C1071 1.391 . S
C1071 H1059 0.950 . S
C1071 C1067 1.393 . S
C1071 C1070 1.391 . S
H1072 C1080 0.950 . S
H1073 C1085 0.945 1_554 S
H1074 C1082 0.950 . S
H1075 C1084 0.950 . S
H1076 C1086 0.950 . S
H1077 C1088 0.950 . S
H1078 C1090 0.950 . S
H1079 C1091 0.934 1_556 S
C1080 H1072 0.950 . S
C1080 C1081 1.386 . S
C1080 C1082 1.391 . S
C1081 C1080 1.386 . S
C1081 C1085 1.400 . S
C1082 H1074 0.950 . S
C1082 C1080 1.391 . S
C1082 C1083 1.400 . S
C1083 C1082 1.400 . S
C1083 C1084 1.398 1_556 S
C1083 C1089 1.491 1_556 S
C1084 H1075 0.950 . S
C1084 C1083 1.398 1_554 S
C1084 C1085 1.388 1_554 S
C1085 H1073 0.945 1_556 S
C1085 C1081 1.400 . S
C1085 C1084 1.388 1_556 S
C1086 H1076 0.950 . S
C1086 C1087 1.386 . S
C1086 C1088 1.391 . S
C1087 C1086 1.386 . S
C1087 C1091 1.420 . S
C1088 H1077 0.950 . S
C1088 C1086 1.391 . S
C1088 C1089 1.400 . S
C1089 C1083 1.491 1_554 S
C1089 C1088 1.400 . S
C1089 C1090 1.398 1_554 S
C1090 H1078 0.950 . S
C1090 C1089 1.398 1_556 S
C1090 C1091 1.381 1_556 S
C1091 H1079 0.934 1_554 S
C1091 C1087 1.420 . S
C1091 C1090 1.381 1_554 S
H1092 C1100 0.950 . S
H1093 C1105 0.950 . S
H1094 C1102 0.950 . S
H1095 C1104 0.950 . S
H1096 C1106 0.950 . S
H1097 C1108 0.950 . S
H1098 C1110 0.950 . S
H1099 C1111 0.950 . S
C1100 H1092 0.950 . S
C1100 C1101 1.386 1_554 S
C1100 C1102 1.391 . S
C1101 C1100 1.386 1_556 S
C1101 C1105 1.393 . S
C1102 H1094 0.950 . S
C1102 C1100 1.391 . S
C1102 C1103 1.400 1_554 S
C1103 C1102 1.400 1_556 S
C1103 C1104 1.398 . S
C1103 C1109 1.491 1_556 S
C1104 H1095 0.950 . S
C1104 C1103 1.398 . S
C1104 C1105 1.391 . S
C1105 H1093 0.950 . S
C1105 C1101 1.393 . S
C1105 C1104 1.391 . S
C1106 H1096 0.950 . S
C1106 C1107 1.386 1_556 S
C1106 C1108 1.391 . S
C1107 C1106 1.386 1_554 S
C1107 C1111 1.393 . S
C1108 H1097 0.950 . S
C1108 C1106 1.391 . S
C1108 C1109 1.400 1_556 S
C1109 C1103 1.491 1_554 S
C1109 C1108 1.400 1_554 S
C1109 C1110 1.398 . S
C1110 H1098 0.950 . S
C1110 C1109 1.398 . S
C1110 C1111 1.391 . S
C1111 H1099 0.950 . S
C1111 C1107 1.393 . S
C1111 C1110 1.391 . S
H1112 C1120 0.950 . S
H1113 C1125 0.950 . S
H1114 C1122 0.950 . S
H1115 C1124 0.950 . S
H1116 C1126 0.950 . S
H1117 C1128 0.950 . S
H1118 C1130 0.950 . S
H1119 C1131 0.950 . S
C1120 H1112 0.950 . S
C1120 C1121 1.386 . S
C1120 C1122 1.391 . S
C1121 C1120 1.386 . S
C1121 C1125 1.393 . S
C1122 H1114 0.950 . S
C1122 C1120 1.391 . S
C1122 C1123 1.400 . S
C1123 C1122 1.400 . S
C1123 C1124 1.398 . S
C1123 C1129 1.491 . S
C1124 H1115 0.950 . S
C1124 C1123 1.398 . S
C1124 C1125 1.391 . S
C1125 H1113 0.950 . S
C1125 C1121 1.393 . S
C1125 C1124 1.391 . S
C1126 H1116 0.950 . S
C1126 C1127 1.386 . S
C1126 C1128 1.391 . S
C1127 C1126 1.386 . S
C1127 C1131 1.393 . S
C1128 H1117 0.950 . S
C1128 C1126 1.391 . S
C1128 C1129 1.400 . S
C1129 C1123 1.491 . S
C1129 C1128 1.400 . S
C1129 C1130 1.398 . S
C1130 H1118 0.950 . S
C1130 C1129 1.398 . S
C1130 C1131 1.391 . S
C1131 H1119 0.950 . S
C1131 C1127 1.393 . S
C1131 C1130 1.391 . S
H1132 C1140 0.950 . S
H1133 C1145 0.950 . S
H1134 C1142 0.950 . S
H1135 C1144 0.950 . S
H1136 C1146 0.950 . S
H1137 C1148 0.950 . S
H1138 C1150 0.950 . S
H1139 C1151 0.950 . S
C1140 H1132 0.950 . S
C1140 C1141 1.386 . S
C1140 C1142 1.391 . S
C1141 C1140 1.386 . S
C1141 C1145 1.393 . S
C1142 H1134 0.950 . S
C1142 C1140 1.391 . S
C1142 C1143 1.400 . S
C1143 C1142 1.400 . S
C1143 C1144 1.398 . S
C1143 C1149 1.491 . S
C1144 H1135 0.950 . S
C1144 C1143 1.398 . S
C1144 C1145 1.391 . S
C1145 H1133 0.950 . S
C1145 C1141 1.393 . S
C1145 C1144 1.391 . S
C1146 H1136 0.950 . S
C1146 C1147 1.386 . S
C1146 C1148 1.391 . S
C1147 C1146 1.386 . S
C1147 C1151 1.393 . S
C1148 H1137 0.950 . S
C1148 C1146 1.391 . S
C1148 C1149 1.400 . S
C1149 C1143 1.491 . S
C1149 C1148 1.400 . S
C1149 C1150 1.398 . S
C1150 H1138 0.950 . S
C1150 C1149 1.398 . S
C1150 C1151 1.391 . S
C1151 H1139 0.950 . S
C1151 C1147 1.393 . S
C1151 C1150 1.391 . S
H1152 C1160 0.950 . S
H1153 C1165 0.950 . S
H1154 C1162 0.950 . S
H1155 C1164 0.950 . S
H1156 C1166 0.950 . S
H1157 C1168 0.950 . S
H1158 C1170 0.950 . S
H1159 C1171 0.950 . S
C1160 H1152 0.950 . S
C1160 C1161 1.386 . S
C1160 C1162 1.391 . S
C1161 C1160 1.386 . S
C1161 C1165 1.393 . S
C1162 H1154 0.950 . S
C1162 C1160 1.391 . S
C1162 C1163 1.400 . S
C1163 C1162 1.400 . S
C1163 C1164 1.398 . S
C1163 C1169 1.491 1_455 S
C1164 H1155 0.950 . S
C1164 C1163 1.398 . S
C1164 C1165 1.391 . S
C1165 H1153 0.950 . S
C1165 C1161 1.393 . S
C1165 C1164 1.391 . S
C1166 H1156 0.950 . S
C1166 C1167 1.386 . S
C1166 C1168 1.391 . S
C1167 C1166 1.386 . S
C1167 C1171 1.393 . S
C1168 H1157 0.950 . S
C1168 C1166 1.391 . S
C1168 C1169 1.400 . S
C1169 C1163 1.491 1_655 S
C1169 C1168 1.400 . S
C1169 C1170 1.398 . S
C1170 H1158 0.950 . S
C1170 C1169 1.398 . S
C1170 C1171 1.391 . S
C1171 H1159 0.950 . S
C1171 C1167 1.393 . S
C1171 C1170 1.391 . S
H1172 C1180 0.950 . S
H1173 C1185 0.950 . S
H1174 C1182 0.950 . S
H1175 C1184 0.950 . S
H1176 C1186 0.950 . S
H1177 C1188 0.950 . S
H1178 C1190 0.950 . S
H1179 C1191 0.950 . S
C1180 H1172 0.950 . S
C1180 C1181 1.386 . S
C1180 C1182 1.391 . S
C1181 C1180 1.386 . S
C1181 C1185 1.393 . S
C1182 H1174 0.950 . S
C1182 C1180 1.391 . S
C1182 C1183 1.400 . S
C1183 C1182 1.400 . S
C1183 C1184 1.398 . S
C1183 C1189 1.491 . S
C1184 H1175 0.950 . S
C1184 C1183 1.398 . S
C1184 C1185 1.391 . S
C1185 H1173 0.950 . S
C1185 C1181 1.393 . S
C1185 C1184 1.391 . S
C1186 H1176 0.950 . S
C1186 C1187 1.386 . S
C1186 C1188 1.391 . S
C1187 C1186 1.386 . S
C1187 C1191 1.393 . S
C1188 H1177 0.950 . S
C1188 C1186 1.391 . S
C1188 C1189 1.400 . S
C1189 C1183 1.491 . S
C1189 C1188 1.400 . S
C1189 C1190 1.398 . S
C1190 H1178 0.950 . S
C1190 C1189 1.398 . S
C1190 C1191 1.391 . S
C1191 H1179 0.950 . S
C1191 C1187 1.393 . S
C1191 C1190 1.391 . S
H1192 C1200 0.950 . S
H1193 C1205 0.950 . S
H1194 C1202 0.950 . S
H1195 C1204 0.950 . S
H1196 C1206 0.950 . S
H1197 C1208 0.950 . S
H1198 C1210 0.950 . S
H1199 C1211 0.950 . S
C1200 H1192 0.950 . S
C1200 C1201 1.386 . S
C1200 C1202 1.391 . S
C1201 C1200 1.386 . S
C1201 C1205 1.393 . S
C1202 H1194 0.950 . S
C1202 C1200 1.391 . S
C1202 C1203 1.400 . S
C1203 C1202 1.400 . S
C1203 C1204 1.398 . S
C1203 C1209 1.491 . S
C1204 H1195 0.950 . S
C1204 C1203 1.398 . S
C1204 C1205 1.391 . S
C1205 H1193 0.950 . S
C1205 C1201 1.393 . S
C1205 C1204 1.391 . S
C1206 H1196 0.950 . S
C1206 C1207 1.386 . S
C1206 C1208 1.391 . S
C1207 C1206 1.386 . S
C1207 C1211 1.393 . S
C1208 H1197 0.950 . S
C1208 C1206 1.391 . S
C1208 C1209 1.400 . S
C1209 C1203 1.491 . S
C1209 C1208 1.400 . S
C1209 C1210 1.398 . S
C1210 H1198 0.950 . S
C1210 C1209 1.398 . S
C1210 C1211 1.391 . S
C1211 H1199 0.950 . S
C1211 C1207 1.393 . S
C1211 C1210 1.391 . S
H1212 C1220 0.950 . S
H1213 C1225 0.950 . S
H1214 C1222 0.950 . S
H1215 C1224 0.950 . S
H1216 C1226 0.950 . S
H1217 C1228 0.950 . S
H1218 C1230 0.950 . S
H1219 C1231 0.950 . S
C1220 H1212 0.950 . S
C1220 C1221 1.386 . S
C1220 C1222 1.391 . S
C1221 C1220 1.386 . S
C1221 C1225 1.393 . S
C1222 H1214 0.950 . S
C1222 C1220 1.391 . S
C1222 C1223 1.400 . S
C1223 C1222 1.400 . S
C1223 C1224 1.398 . S
C1223 C1229 1.491 1_455 S
C1224 H1215 0.950 . S
C1224 C1223 1.398 . S
C1224 C1225 1.391 . S
C1225 H1213 0.950 . S
C1225 C1221 1.393 . S
C1225 C1224 1.391 . S
C1226 H1216 0.950 . S
C1226 C1227 1.386 . S
C1226 C1228 1.391 . S
C1227 C1226 1.386 . S
C1227 C1231 1.393 . S
C1228 H1217 0.950 . S
C1228 C1226 1.391 . S
C1228 C1229 1.400 . S
C1229 C1223 1.491 1_655 S
C1229 C1228 1.400 . S
C1229 C1230 1.398 . S
C1230 H1218 0.950 . S
C1230 C1229 1.398 . S
C1230 C1231 1.391 . S
C1231 H1219 0.950 . S
C1231 C1227 1.393 . S
C1231 C1230 1.391 . S
H1232 C1240 0.950 . S
H1233 C1245 0.950 . S
H1234 C1242 0.950 . S
H1235 C1244 0.950 . S
H1236 C1246 0.950 . S
H1237 C1248 0.950 . S
H1238 C1250 0.950 . S
H1239 C1251 0.950 . S
C1240 H1232 0.950 . S
C1240 C1241 1.386 . S
C1240 C1242 1.391 . S
C1241 C1240 1.386 . S
C1241 C1245 1.393 . S
C1242 H1234 0.950 . S
C1242 C1240 1.391 . S
C1242 C1243 1.400 . S
C1243 C1242 1.400 . S
C1243 C1244 1.398 . S
C1243 C1249 1.491 1_655 S
C1244 H1235 0.950 . S
C1244 C1243 1.398 . S
C1244 C1245 1.391 . S
C1245 H1233 0.950 . S
C1245 C1241 1.393 . S
C1245 C1244 1.391 . S
C1246 H1236 0.950 . S
C1246 C1247 1.386 . S
C1246 C1248 1.391 . S
C1247 C1246 1.386 . S
C1247 C1251 1.393 . S
C1248 H1237 0.950 . S
C1248 C1246 1.391 . S
C1248 C1249 1.400 . S
C1249 C1243 1.491 1_455 S
C1249 C1248 1.400 . S
C1249 C1250 1.398 . S
C1250 H1238 0.950 . S
C1250 C1249 1.398 . S
C1250 C1251 1.391 . S
C1251 H1239 0.950 . S
C1251 C1247 1.393 . S
C1251 C1250 1.391 . S
H1252 C1260 0.950 . S
H1253 C1265 0.950 . S
H1254 C1262 0.950 . S
H1255 C1264 0.950 . S
H1256 C1266 0.950 . S
H1257 C1268 0.950 . S
H1258 C1270 0.950 . S
H1259 C1271 0.950 . S
C1260 H1252 0.950 . S
C1260 C1261 1.386 . S
C1260 C1262 1.391 . S
C1261 C1260 1.386 . S
C1261 C1265 1.393 . S
C1262 H1254 0.950 . S
C1262 C1260 1.391 . S
C1262 C1263 1.400 . S
C1263 C1262 1.400 . S
C1263 C1264 1.398 . S
C1263 C1269 1.491 . S
C1264 H1255 0.950 . S
C1264 C1263 1.398 . S
C1264 C1265 1.391 . S
C1265 H1253 0.950 . S
C1265 C1261 1.393 . S
C1265 C1264 1.391 . S
C1266 H1256 0.950 . S
C1266 C1267 1.386 . S
C1266 C1268 1.391 . S
C1267 C1266 1.386 . S
C1267 C1271 1.393 . S
C1268 H1257 0.950 . S
C1268 C1266 1.391 . S
C1268 C1269 1.400 . S
C1269 C1263 1.491 . S
C1269 C1268 1.400 . S
C1269 C1270 1.398 . S
C1270 H1258 0.950 . S
C1270 C1269 1.398 . S
C1270 C1271 1.391 . S
C1271 H1259 0.950 . S
C1271 C1267 1.393 . S
C1271 C1270 1.391 . S
H1272 C1280 0.950 . S
H1273 C1285 0.950 . S
H1274 C1282 0.950 . S
H1275 C1284 0.950 . S
H1276 C1286 0.950 . S
H1277 C1288 0.950 . S
H1278 C1290 0.950 . S
H1279 C1291 0.950 . S
C1280 H1272 0.950 . S
C1280 C1281 1.386 . S
C1280 C1282 1.391 . S
C1281 C1280 1.386 . S
C1281 C1285 1.393 . S
C1282 H1274 0.950 . S
C1282 C1280 1.391 . S
C1282 C1283 1.400 . S
C1283 C1282 1.400 . S
C1283 C1284 1.398 . S
C1283 C1289 1.491 . S
C1284 H1275 0.950 . S
C1284 C1283 1.398 . S
C1284 C1285 1.391 . S
C1285 H1273 0.950 . S
C1285 C1281 1.393 . S
C1285 C1284 1.391 . S
C1286 H1276 0.950 . S
C1286 C1287 1.386 . S
C1286 C1288 1.391 . S
C1287 C1286 1.386 . S
C1287 C1291 1.393 . S
C1288 H1277 0.950 . S
C1288 C1286 1.391 . S
C1288 C1289 1.400 . S
C1289 C1283 1.491 . S
C1289 C1288 1.400 . S
C1289 C1290 1.398 . S
C1290 H1278 0.950 . S
C1290 C1289 1.398 . S
C1290 C1291 1.391 . S
C1291 H1279 0.950 . S
C1291 C1287 1.393 . S
C1291 C1290 1.391 . S
H1292 C1300 0.950 . S
H1293 C1305 0.950 . S
H1294 C1302 0.950 . S
H1295 C1304 0.950 . S
H1296 C1306 0.950 . S
H1297 C1308 0.950 . S
H1298 C1310 0.950 . S
H1299 C1311 0.950 . S
C1300 H1292 0.950 . S
C1300 C1301 1.386 . S
C1300 C1302 1.391 . S
C1301 C1300 1.386 . S
C1301 C1305 1.393 . S
C1302 H1294 0.950 . S
C1302 C1300 1.391 . S
C1302 C1303 1.400 . S
C1303 C1302 1.400 . S
C1303 C1304 1.398 . S
C1303 C1309 1.491 1_455 S
C1304 H1295 0.950 . S
C1304 C1303 1.398 . S
C1304 C1305 1.391 . S
C1305 H1293 0.950 . S
C1305 C1301 1.393 . S
C1305 C1304 1.391 . S
C1306 H1296 0.950 . S
C1306 C1307 1.386 . S
C1306 C1308 1.391 . S
C1307 C1306 1.386 . S
C1307 C1311 1.393 . S
C1308 H1297 0.950 . S
C1308 C1306 1.391 . S
C1308 C1309 1.400 . S
C1309 C1303 1.491 1_655 S
C1309 C1308 1.400 . S
C1309 C1310 1.398 . S
C1310 H1298 0.950 . S
C1310 C1309 1.398 . S
C1310 C1311 1.391 . S
C1311 H1299 0.950 . S
C1311 C1307 1.393 . S
C1311 C1310 1.391 . S
C361 C10 1.432 . S
C367 C293 1.483 . S
C381 C279 1.481 . S
C387 C30 1.438 . S
C401 C337 1.483 . S
C407 C54 1.433 . S
C421 C315 1.477 . S
C427 C74 1.421 . S
C441 C205 1.483 . S
C447 C106 1.427 . S
C461 C128 1.438 . S
C467 C197 1.487 . S
C481 C263 1.483 . S
C487 C142 1.427 . S
C501 C164 1.452 . S
C507 C235 1.485 . S
C521 C131 1.478 . S
C527 C186 1.413 . S
C541 C206 1.433 . S
C547 C109 1.478 . S
C561 C161 1.480 . S
C567 C238 1.438 . S
C581 C139 1.483 . S
C587 C252 1.429 . S
C601 C272 1.452 . S
C607 C29 1.485 . S
C621 C21 1.484 . S
C627 C296 1.450 . S
C641 C318 1.429 . S
C647 C73 1.481 . S
C661 C65 1.483 . S
C667 C340 1.427 . S
C681 C228 1.450 . S
C687 C18 1.454 . S
C701 C32 1.460 . S
C707 C260 1.456 . S
C721 C194 1.459 . S
C727 C62 1.458 . S
C741 C208 1.460 . S
C747 C76 1.456 . S
C761 C316 1.449 . S
C767 C98 1.449 . S
C781 C120 1.458 . S
C787 C338 1.453 . S
C801 C140 1.453 . S
C807 C282 1.449 . S
C821 C294 1.452 . S
C827 C162 1.449 . S
C841 C7 1.584 . S
C847 C37 1.591 . S
C861 C51 1.584 . S
C867 C81 1.591 . S
C881 C103 1.601 . S
C887 C125 1.592 . S
C901 C175 1.601 . S
C907 C153 1.592 . S
C921 C213 1.592 . S
C927 C183 1.589 . S
C941 C241 1.584 . S
C947 C249 1.590 . S
C961 C307 1.597 . S
C967 C271 1.593 . S
C981 C329 1.601 . S
C987 C351 1.592 . S
C1001 C285 0.531 . S
C1007 C15 0.537 . S
C1021 C43 0.573 . S
C1027 C301 0.561 . S
C1041 C59 0.557 . S
C1047 C323 0.550 . S
C1061 C87 0.570 . S
C1067 C345 0.561 . S
C1081 C95 0.548 . S
C1087 C191 0.555 . S
C1101 C117 0.523 . S
C1107 C219 0.531 . S
C1121 C147 0.545 . S
C1127 C227 0.552 . S
C1141 C257 0.558 . S
C1147 C169 0.547 . S
C1161 C8 1.524 . S
C1167 C216 1.523 . S
C1181 C40 1.516 . S
C1187 C184 1.517 . S
C1201 C250 1.516 . S
C1207 C52 1.518 . S
C1221 C230 1.517 . S
C1227 C84 1.518 . S
C1241 C96 1.501 . S
C1247 C304 1.497 . S
C1261 C118 1.502 . S
C1267 C274 1.505 . S
C1281 C348 1.500 . S
C1287 C150 1.496 . S
C1301 C172 1.499 . S
C1307 C326 1.496 . S
