# Generated by pormake.
# Topology vbv, (6)-cn, num edge types: 1
# Building blocks:
#     Node 0, Type 0, BuildingBlock: IZENUY_clean_sbu_0, # of connection points: 6
#     Node 1, Type 0, BuildingBlock: IZENUY_clean_sbu_0, # of connection points: 6
#     Node 2, Type 0, BuildingBlock: IZENUY_clean_sbu_0, # of connection points: 6
#     Node 3, Type 0, BuildingBlock: IZENUY_clean_sbu_0, # of connection points: 6
#     Node 4, Type 0, BuildingBlock: IZENUY_clean_sbu_0, # of connection points: 6
#     Node 5, Type 0, BuildingBlock: IZENUY_clean_sbu_0, # of connection points: 6
#     Node 6, Type 0, BuildingBlock: IZENUY_clean_sbu_0, # of connection points: 6
#     Node 7, Type 0, BuildingBlock: IZENUY_clean_sbu_0, # of connection points: 6
#     Node 8, Type 0, BuildingBlock: IZENUY_clean_sbu_0, # of connection points: 6
#     Node 9, Type 0, BuildingBlock: IZENUY_clean_sbu_0, # of connection points: 6
#     Node 10, Type 0, BuildingBlock: IZENUY_clean_sbu_0, # of connection points: 6
#     Node 11, Type 0, BuildingBlock: IZENUY_clean_sbu_0, # of connection points: 6
#     Node 12, Type 0, BuildingBlock: IZENUY_clean_sbu_0, # of connection points: 6
#     Node 13, Type 0, BuildingBlock: IZENUY_clean_sbu_0, # of connection points: 6
#     Node 14, Type 0, BuildingBlock: IZENUY_clean_sbu_0, # of connection points: 6
#     Node 15, Type 0, BuildingBlock: IZENUY_clean_sbu_0, # of connection points: 6
#     Edge 16, Type (0, 0), BuildingBlock: TEMPAE_clean_linker_10, # of connection points: 2
#     Edge 17, Type (0, 0), BuildingBlock: TEMPAE_clean_linker_10, # of connection points: 2
#     Edge 18, Type (0, 0), BuildingBlock: TEMPAE_clean_linker_10, # of connection points: 2
#     Edge 19, Type (0, 0), BuildingBlock: TEMPAE_clean_linker_10, # of connection points: 2
#     Edge 20, Type (0, 0), BuildingBlock: TEMPAE_clean_linker_10, # of connection points: 2
#     Edge 21, Type (0, 0), BuildingBlock: TEMPAE_clean_linker_10, # of connection points: 2
#     Edge 22, Type (0, 0), BuildingBlock: TEMPAE_clean_linker_10, # of connection points: 2
#     Edge 23, Type (0, 0), BuildingBlock: TEMPAE_clean_linker_10, # of connection points: 2
#     Edge 24, Type (0, 0), BuildingBlock: TEMPAE_clean_linker_10, # of connection points: 2
#     Edge 25, Type (0, 0), BuildingBlock: TEMPAE_clean_linker_10, # of connection points: 2
#     Edge 26, Type (0, 0), BuildingBlock: TEMPAE_clean_linker_10, # of connection points: 2
#     Edge 27, Type (0, 0), BuildingBlock: TEMPAE_clean_linker_10, # of connection points: 2
#     Edge 28, Type (0, 0), BuildingBlock: TEMPAE_clean_linker_10, # of connection points: 2
#     Edge 29, Type (0, 0), BuildingBlock: TEMPAE_clean_linker_10, # of connection points: 2
#     Edge 30, Type (0, 0), BuildingBlock: TEMPAE_clean_linker_10, # of connection points: 2
#     Edge 31, Type (0, 0), BuildingBlock: TEMPAE_clean_linker_10, # of connection points: 2
#     Edge 32, Type (0, 0), BuildingBlock: TEMPAE_clean_linker_10, # of connection points: 2
#     Edge 33, Type (0, 0), BuildingBlock: TEMPAE_clean_linker_10, # of connection points: 2
#     Edge 34, Type (0, 0), BuildingBlock: TEMPAE_clean_linker_10, # of connection points: 2
#     Edge 35, Type (0, 0), BuildingBlock: TEMPAE_clean_linker_10, # of connection points: 2
#     Edge 36, Type (0, 0), BuildingBlock: TEMPAE_clean_linker_10, # of connection points: 2
#     Edge 37, Type (0, 0), BuildingBlock: TEMPAE_clean_linker_10, # of connection points: 2
#     Edge 38, Type (0, 0), BuildingBlock: TEMPAE_clean_linker_10, # of connection points: 2
#     Edge 39, Type (0, 0), BuildingBlock: TEMPAE_clean_linker_10, # of connection points: 2
#     Edge 40, Type (0, 0), BuildingBlock: TEMPAE_clean_linker_10, # of connection points: 2
#     Edge 41, Type (0, 0), BuildingBlock: TEMPAE_clean_linker_10, # of connection points: 2
#     Edge 42, Type (0, 0), BuildingBlock: TEMPAE_clean_linker_10, # of connection points: 2
#     Edge 43, Type (0, 0), BuildingBlock: TEMPAE_clean_linker_10, # of connection points: 2
#     Edge 44, Type (0, 0), BuildingBlock: TEMPAE_clean_linker_10, # of connection points: 2
#     Edge 45, Type (0, 0), BuildingBlock: TEMPAE_clean_linker_10, # of connection points: 2
#     Edge 46, Type (0, 0), BuildingBlock: TEMPAE_clean_linker_10, # of connection points: 2
#     Edge 47, Type (0, 0), BuildingBlock: TEMPAE_clean_linker_10, # of connection points: 2
#     Edge 48, Type (0, 0), BuildingBlock: TEMPAE_clean_linker_10, # of connection points: 2
#     Edge 49, Type (0, 0), BuildingBlock: TEMPAE_clean_linker_10, # of connection points: 2
#     Edge 50, Type (0, 0), BuildingBlock: TEMPAE_clean_linker_10, # of connection points: 2
#     Edge 51, Type (0, 0), BuildingBlock: TEMPAE_clean_linker_10, # of connection points: 2
#     Edge 52, Type (0, 0), BuildingBlock: TEMPAE_clean_linker_10, # of connection points: 2
#     Edge 53, Type (0, 0), BuildingBlock: TEMPAE_clean_linker_10, # of connection points: 2
#     Edge 54, Type (0, 0), BuildingBlock: TEMPAE_clean_linker_10, # of connection points: 2
#     Edge 55, Type (0, 0), BuildingBlock: TEMPAE_clean_linker_10, # of connection points: 2
#     Edge 56, Type (0, 0), BuildingBlock: TEMPAE_clean_linker_10, # of connection points: 2
#     Edge 57, Type (0, 0), BuildingBlock: TEMPAE_clean_linker_10, # of connection points: 2
#     Edge 58, Type (0, 0), BuildingBlock: TEMPAE_clean_linker_10, # of connection points: 2
#     Edge 59, Type (0, 0), BuildingBlock: TEMPAE_clean_linker_10, # of connection points: 2
#     Edge 60, Type (0, 0), BuildingBlock: TEMPAE_clean_linker_10, # of connection points: 2
#     Edge 61, Type (0, 0), BuildingBlock: TEMPAE_clean_linker_10, # of connection points: 2
#     Edge 62, Type (0, 0), BuildingBlock: TEMPAE_clean_linker_10, # of connection points: 2
#     Edge 63, Type (0, 0), BuildingBlock: TEMPAE_clean_linker_10, # of connection points: 2
# Relax obj value: 0.263
# Max RMSD: 0.241
# Mean RMSD: 0.241
data_MOF--net-vbv--node1-IZENUY_clean_sbu_0--edge1-TEMPAE_clean_linker_10
_symmetry_space_group_name_H-M    P1
_symmetry_Int_Tables_number       1
_symmetry_cell_setting            triclinic
loop_
_symmetry_equiv_pos_as_xyz
'x, y, z'
_cell_length_a     54.520696
_cell_length_b     27.165342
_cell_length_c     47.32268
_cell_angle_alpha  89.991437
_cell_angle_beta   90.011774
_cell_angle_gamma 89.961015
loop_
_atom_site_label
_atom_site_type_symbol
_atom_site_fract_x
_atom_site_fract_y
_atom_site_fract_z
_atom_type_partial_charge
Fe0 Fe 0.12728 0.39068 0.11393 0.0
Fe1 Fe 0.16386 0.30619 0.10769 0.0
O2 O 0.13941 0.34133 0.09404 0.0
Fe3 Fe 0.12725 0.32746 0.06024 0.0
O4 O 0.13542 0.3875 0.04703 0.0
O5 O 0.11948 0.4289 0.0825 0.0
O6 O 0.15674 0.42236 0.11384 0.0
C7 C 0.17677 0.40383 0.12205 0.0
C8 C 0.08575 0.34677 0.09324 0.0
O9 O 0.17817 0.35798 0.12717 0.0
C10 C 0.13416 0.23443 0.07868 0.0
O11 O 0.13309 0.36139 0.14888 0.0
O12 O 0.1461 0.28717 0.13791 0.0
O13 O 0.09583 0.3472 0.06912 0.0
O14 O 0.09745 0.36071 0.11482 0.0
C15 C 0.17842 0.31043 0.05362 0.0
O16 O 0.15424 0.24798 0.09003 0.0
O17 O 0.11852 0.26617 0.0714 0.0
C18 C 0.13683 0.31654 0.15553 0.0
O19 O 0.18291 0.32373 0.07846 0.0
O20 O 0.15649 0.30439 0.0455 0.0
C21 C 0.12815 0.42758 0.05748 0.0
Fe22 Fe 0.38092 0.68812 0.06093 0.0
Fe23 Fe 0.38148 0.62568 0.11486 0.0
O24 O 0.36901 0.67441 0.09474 0.0
Fe25 Fe 0.3443 0.70922 0.10826 0.0
O26 O 0.32502 0.68942 0.07978 0.0
O27 O 0.3512 0.70786 0.04616 0.0
O28 O 0.37356 0.62778 0.04814 0.0
C29 C 0.38071 0.58779 0.05862 0.0
C30 C 0.37254 0.7812 0.07767 0.0
O31 O 0.38932 0.58656 0.08367 0.0
C32 C 0.37201 0.70138 0.15566 0.0
O33 O 0.41263 0.67051 0.0698 0.0
O34 O 0.41125 0.65579 0.11544 0.0
O35 O 0.35267 0.76709 0.08928 0.0
O36 O 0.38875 0.74997 0.07159 0.0
C37 C 0.33212 0.61208 0.12352 0.0
O38 O 0.37572 0.65621 0.14952 0.0
O39 O 0.36245 0.73009 0.13781 0.0
C40 C 0.42282 0.67005 0.09385 0.0
O41 O 0.3521 0.59367 0.1151 0.0
O42 O 0.33086 0.65783 0.12885 0.0
C43 C 0.32966 0.69732 0.0542 0.0
Fe44 Fe 0.62679 0.62653 0.40239 0.0
Fe45 Fe 0.66407 0.71031 0.40712 0.0
O46 O 0.63984 0.67576 0.42175 0.0
Fe47 Fe 0.6289 0.69002 0.45599 0.0
O48 O 0.63691 0.62957 0.46892 0.0
O49 O 0.61962 0.58866 0.43412 0.0
O50 O 0.65616 0.59428 0.40151 0.0
C51 C 0.67607 0.61242 0.39262 0.0
C52 C 0.58637 0.67286 0.42456 0.0
O53 O 0.67743 0.65813 0.38716 0.0
C54 C 0.63573 0.78293 0.43713 0.0
O55 O 0.63188 0.65558 0.36716 0.0
O56 O 0.64545 0.72958 0.37766 0.0
O57 O 0.59727 0.67161 0.44819 0.0
O58 O 0.59689 0.65689 0.40258 0.0
C59 C 0.68028 0.70551 0.46057 0.0
O60 O 0.65541 0.76892 0.42507 0.0
O61 O 0.62027 0.75156 0.44523 0.0
C62 C 0.63586 0.70025 0.36026 0.0
O63 O 0.68398 0.69244 0.43553 0.0
O64 O 0.65866 0.71201 0.46956 0.0
C65 C 0.62889 0.58978 0.45884 0.0
Fe66 Fe 0.87908 0.32897 0.45492 0.0
Fe67 Fe 0.88146 0.39186 0.40121 0.0
O68 O 0.86817 0.34316 0.42079 0.0
Fe69 Fe 0.84362 0.30891 0.40644 0.0
O70 O 0.82365 0.32863 0.43439 0.0
O71 O 0.84906 0.30959 0.46866 0.0
O72 O 0.87165 0.38948 0.46759 0.0
C73 C 0.87933 0.42937 0.45746 0.0
C74 C 0.87093 0.23618 0.4375 0.0
O75 O 0.88868 0.43049 0.43276 0.0
C76 C 0.87228 0.31677 0.35984 0.0
O77 O 0.91089 0.34583 0.44711 0.0
O78 O 0.91135 0.36146 0.40159 0.0
O79 O 0.85133 0.25065 0.42541 0.0
O80 O 0.88697 0.26715 0.44437 0.0
C81 C 0.83224 0.40636 0.39118 0.0
O82 O 0.87635 0.36169 0.36628 0.0
O83 O 0.86238 0.28809 0.37743 0.0
C84 C 0.92185 0.3453 0.42353 0.0
O85 O 0.85215 0.42438 0.40011 0.0
O86 O 0.83092 0.36071 0.38564 0.0
C87 C 0.82771 0.32019 0.46004 0.0
Fe88 Fe 0.87734 0.68552 0.95681 0.0
Fe89 Fe 0.84009 0.71426 0.91157 0.0
O90 O 0.86482 0.67636 0.9224 0.0
Fe91 Fe 0.87716 0.62942 0.90045 0.0
O92 O 0.87366 0.58236 0.92805 0.0
O93 O 0.89081 0.62469 0.96116 0.0
O94 O 0.84927 0.66353 0.97286 0.0
C95 C 0.82868 0.68217 0.96664 0.0
C96 C 0.91747 0.68548 0.92258 0.0
O97 O 0.82632 0.71333 0.94679 0.0
C98 C 0.86735 0.70315 0.86041 0.0
O99 O 0.86737 0.74906 0.96107 0.0
O100 O 0.85721 0.77119 0.9185 0.0
O101 O 0.9094 0.64643 0.91038 0.0
O102 O 0.90503 0.7078 0.94115 0.0
C103 C 0.82504 0.62096 0.89299 0.0
O104 O 0.84954 0.71952 0.87469 0.0
O105 O 0.88127 0.66997 0.87007 0.0
C106 C 0.8648 0.78221 0.94285 0.0
O107 O 0.82063 0.66225 0.90399 0.0
O108 O 0.84691 0.60734 0.88761 0.0
C109 C 0.88247 0.58452 0.95255 0.0
Fe110 Fe 0.63082 0.32024 0.95862 0.0
Fe111 Fe 0.6657 0.2936 0.91057 0.0
O112 O 0.64131 0.33047 0.92348 0.0
Fe113 Fe 0.62796 0.3775 0.90238 0.0
O114 O 0.6331 0.42474 0.92946 0.0
O115 O 0.61984 0.38243 0.96531 0.0
O116 O 0.6605 0.33846 0.973 0.0
C117 C 0.68016 0.31829 0.96488 0.0
C118 C 0.58809 0.32505 0.92813 0.0
O119 O 0.68 0.28741 0.94496 0.0
C120 C 0.63666 0.30663 0.8613 0.0
O121 O 0.63886 0.25504 0.95942 0.0
O122 O 0.64813 0.23678 0.91556 0.0
O123 O 0.59627 0.36239 0.91454 0.0
O124 O 0.60136 0.30195 0.94554 0.0
C125 C 0.67969 0.38767 0.8941 0.0
O126 O 0.65616 0.29409 0.87367 0.0
O127 O 0.6218 0.33599 0.87286 0.0
C128 C 0.64006 0.22414 0.93957 0.0
O129 O 0.68489 0.34708 0.90558 0.0
O130 O 0.65771 0.39844 0.8872 0.0
C131 C 0.62687 0.42263 0.95506 0.0
Fe132 Fe 0.37789 0.39108 0.61534 0.0
Fe133 Fe 0.37585 0.33697 0.55833 0.0
O134 O 0.36429 0.34577 0.5932 0.0
Fe135 Fe 0.33917 0.30932 0.60448 0.0
O136 O 0.3206 0.36278 0.61227 0.0
O137 O 0.34842 0.41372 0.62972 0.0
O138 O 0.37386 0.43945 0.58867 0.0
C139 C 0.38104 0.43774 0.56347 0.0
C140 C 0.36781 0.31728 0.65489 0.0
O141 O 0.38918 0.39791 0.55399 0.0
C142 C 0.36289 0.24047 0.57258 0.0
O143 O 0.40962 0.37378 0.60389 0.0
O144 O 0.4039 0.31373 0.57275 0.0
O145 O 0.34906 0.30367 0.64126 0.0
O146 O 0.3825 0.34864 0.64478 0.0
C147 C 0.32702 0.34114 0.54952 0.0
O148 O 0.36556 0.27361 0.55435 0.0
O149 O 0.35551 0.25147 0.59708 0.0
C150 C 0.41706 0.33499 0.59103 0.0
O151 O 0.34755 0.35966 0.54313 0.0
O152 O 0.32483 0.31052 0.56962 0.0
C153 C 0.32629 0.40267 0.62411 0.0
Fe154 Fe 0.12435 0.62877 0.61467 0.0
Fe155 Fe 0.1265 0.69182 0.56083 0.0
O156 O 0.13747 0.67761 0.59505 0.0
Fe157 Fe 0.16173 0.71214 0.60965 0.0
O158 O 0.17457 0.66048 0.63033 0.0
O159 O 0.15369 0.59637 0.61586 0.0
O160 O 0.11707 0.59027 0.58323 0.0
C161 C 0.12588 0.59145 0.5583 0.0
C162 C 0.13291 0.70363 0.65602 0.0
O163 O 0.13377 0.63112 0.54806 0.0
C164 C 0.13448 0.78483 0.5787 0.0
O165 O 0.09461 0.65928 0.6144 0.0
O166 O 0.09469 0.67499 0.56891 0.0
O167 O 0.1428 0.73254 0.63858 0.0
O168 O 0.12937 0.65861 0.6496 0.0
C169 C 0.17804 0.70359 0.55626 0.0
O170 O 0.11856 0.754 0.57117 0.0
O171 O 0.15393 0.77026 0.59095 0.0
C172 C 0.08399 0.67591 0.59267 0.0
O173 O 0.15656 0.71149 0.54709 0.0
O174 O 0.18177 0.69315 0.58173 0.0
C175 C 0.17346 0.61475 0.62499 0.0
Fe176 Fe 0.62898 0.88322 0.11362 0.0
Fe177 Fe 0.66566 0.79865 0.10763 0.0
O178 O 0.64099 0.83335 0.09407 0.0
Fe179 Fe 0.62837 0.81832 0.06067 0.0
O180 O 0.63643 0.87765 0.04662 0.0
O181 O 0.6209 0.92036 0.08186 0.0
O182 O 0.65835 0.91507 0.11289 0.0
C183 C 0.6786 0.89715 0.12084 0.0
C184 C 0.58719 0.83924 0.09383 0.0
O185 O 0.68034 0.85134 0.12614 0.0
C186 C 0.63548 0.72599 0.07975 0.0
O187 O 0.63513 0.85509 0.14876 0.0
O188 O 0.64841 0.78075 0.13847 0.0
O189 O 0.5971 0.83867 0.06966 0.0
O190 O 0.59914 0.85325 0.1152 0.0
C191 C 0.67935 0.801 0.05317 0.0
O192 O 0.65568 0.73972 0.09085 0.0
O193 O 0.61972 0.75772 0.07284 0.0
C194 C 0.63909 0.81053 0.15582 0.0
O195 O 0.68429 0.81496 0.07778 0.0
O196 O 0.6573 0.79451 0.0457 0.0
C197 C 0.62919 0.91799 0.05669 0.0
Fe198 Fe 0.88204 0.19228 0.06138 0.0
Fe199 Fe 0.88081 0.12838 0.11454 0.0
O200 O 0.86911 0.17811 0.09465 0.0
Fe201 Fe 0.84445 0.21351 0.10762 0.0
O202 O 0.8259 0.19681 0.07767 0.0
O203 O 0.85345 0.21669 0.04609 0.0
O204 O 0.87341 0.13307 0.04764 0.0
C205 C 0.87999 0.09247 0.05799 0.0
C206 C 0.87548 0.285 0.07991 0.0
O207 O 0.88882 0.09052 0.08295 0.0
C208 C 0.87062 0.20206 0.15618 0.0
O209 O 0.91309 0.17095 0.0706 0.0
O210 O 0.91078 0.15792 0.11621 0.0
O211 O 0.8549 0.27209 0.09049 0.0
O212 O 0.89105 0.25257 0.07352 0.0
C213 C 0.83105 0.11548 0.12131 0.0
O214 O 0.87455 0.15732 0.14944 0.0
O215 O 0.86153 0.23167 0.13854 0.0
C216 C 0.92291 0.17112 0.09481 0.0
O217 O 0.85129 0.09707 0.11376 0.0
O218 O 0.82942 0.16141 0.12632 0.0
C219 C 0.83137 0.20871 0.05286 0.0
Fe220 Fe 0.16472 0.21372 0.40638 0.0
Fe221 Fe 0.12955 0.19273 0.45516 0.0
O222 O 0.14056 0.17882 0.4209 0.0
Fe223 Fe 0.12762 0.12961 0.40144 0.0
O224 O 0.15705 0.09761 0.4005 0.0
O225 O 0.1783 0.1617 0.38643 0.0
O226 O 0.18464 0.19604 0.43483 0.0
C227 C 0.18087 0.20904 0.45988 0.0
C228 C 0.13651 0.2036 0.35947 0.0
O229 O 0.15921 0.21516 0.46882 0.0
C230 C 0.08706 0.17524 0.42372 0.0
O231 O 0.15579 0.27217 0.42439 0.0
O232 O 0.12069 0.25413 0.44447 0.0
O233 O 0.13262 0.15887 0.36629 0.0
O234 O 0.14614 0.23289 0.37686 0.0
C235 C 0.12983 0.09256 0.45779 0.0
O236 O 0.09798 0.17389 0.44733 0.0
O237 O 0.09764 0.15968 0.40169 0.0
C238 C 0.13603 0.28578 0.43647 0.0
O239 O 0.13778 0.13234 0.46796 0.0
O240 O 0.12054 0.09152 0.43308 0.0
C241 C 0.17697 0.11592 0.39176 0.0
Fe242 Fe 0.38198 0.89341 0.40038 0.0
Fe243 Fe 0.34397 0.81072 0.40528 0.0
O244 O 0.36849 0.84478 0.41982 0.0
Fe245 Fe 0.37917 0.83054 0.45404 0.0
O246 O 0.37169 0.89106 0.46663 0.0
O247 O 0.38911 0.93191 0.43201 0.0
O248 O 0.35274 0.92617 0.3991 0.0
C249 C 0.33282 0.90834 0.39008 0.0
C250 C 0.42213 0.84653 0.42301 0.0
O251 O 0.33143 0.86272 0.38446 0.0
C252 C 0.37106 0.73778 0.43653 0.0
O253 O 0.37699 0.86338 0.36538 0.0
O254 O 0.36283 0.78986 0.37637 0.0
O255 O 0.41102 0.84736 0.44649 0.0
O256 O 0.4118 0.86271 0.40096 0.0
C257 C 0.3278 0.82206 0.45877 0.0
O258 O 0.35154 0.75234 0.42428 0.0
O259 O 0.38708 0.7687 0.44355 0.0
C260 C 0.37287 0.81851 0.35886 0.0
O261 O 0.3239 0.8305 0.43309 0.0
O262 O 0.34907 0.81124 0.46754 0.0
C263 C 0.37949 0.93089 0.45658 0.0
Fe264 Fe 0.33899 0.21212 0.90879 0.0
Fe265 Fe 0.37752 0.12917 0.89907 0.0
O266 O 0.36372 0.17494 0.92076 0.0
Fe267 Fe 0.3747 0.18377 0.95594 0.0
O268 O 0.34599 0.1616 0.97042 0.0
O269 O 0.32392 0.21096 0.94324 0.0
O270 O 0.32026 0.15931 0.90003 0.0
C271 C 0.32592 0.11838 0.88928 0.0
C272 C 0.36259 0.2803 0.94134 0.0
O273 O 0.34811 0.10589 0.88504 0.0
C274 C 0.41654 0.18558 0.92401 0.0
O275 O 0.34957 0.218 0.87242 0.0
O276 O 0.38213 0.17049 0.86905 0.0
O277 O 0.36454 0.2472 0.95967 0.0
O278 O 0.35546 0.26954 0.91673 0.0
C279 C 0.38063 0.08282 0.95119 0.0
O280 O 0.40914 0.14737 0.9105 0.0
O281 O 0.40313 0.20649 0.94222 0.0
C282 C 0.368 0.20278 0.85884 0.0
O283 O 0.37368 0.08109 0.92593 0.0
O284 O 0.38796 0.12296 0.96101 0.0
C285 C 0.32566 0.18064 0.96355 0.0
Fe286 Fe 0.12479 0.89092 0.9006 0.0
Fe287 Fe 0.12716 0.82795 0.95439 0.0
O288 O 0.13801 0.84217 0.92014 0.0
Fe289 Fe 0.16231 0.80784 0.90541 0.0
O290 O 0.17494 0.85963 0.88456 0.0
O291 O 0.15405 0.92341 0.89965 0.0
O292 O 0.1173 0.92924 0.93201 0.0
C293 C 0.12607 0.92828 0.95694 0.0
C294 C 0.13335 0.81617 0.85921 0.0
O295 O 0.13423 0.88879 0.96719 0.0
C296 C 0.1353 0.73501 0.93647 0.0
O297 O 0.09518 0.86019 0.9008 0.0
O298 O 0.09521 0.84437 0.9463 0.0
O299 O 0.1433 0.78724 0.8766 0.0
O300 O 0.1299 0.86123 0.86564 0.0
C301 C 0.17886 0.81639 0.95867 0.0
O302 O 0.11937 0.7658 0.94403 0.0
O303 O 0.15473 0.74962 0.92423 0.0
C304 C 0.08451 0.84363 0.9225 0.0
O305 O 0.15742 0.80851 0.96803 0.0
O306 O 0.18235 0.8272 0.93321 0.0
C307 C 0.17374 0.90525 0.89019 0.0
Fe308 Fe 0.87717 0.88991 0.61628 0.0
Fe309 Fe 0.87499 0.8352 0.55947 0.0
O310 O 0.86362 0.84408 0.59445 0.0
Fe311 Fe 0.83879 0.80703 0.60608 0.0
O312 O 0.81998 0.85984 0.61463 0.0
O313 O 0.84767 0.9128 0.63033 0.0
O314 O 0.87312 0.93785 0.58941 0.0
C315 C 0.88029 0.93601 0.56424 0.0
C316 C 0.86758 0.81613 0.65625 0.0
O317 O 0.88826 0.89607 0.55478 0.0
C318 C 0.86248 0.73862 0.57374 0.0
O319 O 0.9089 0.87234 0.60494 0.0
O320 O 0.9032 0.81238 0.57368 0.0
O321 O 0.84914 0.80116 0.64257 0.0
O322 O 0.88182 0.84833 0.64615 0.0
C323 C 0.8261 0.83875 0.55113 0.0
O324 O 0.86483 0.77179 0.5555 0.0
O325 O 0.85528 0.74951 0.59831 0.0
C326 C 0.91643 0.83379 0.59185 0.0
O327 O 0.84653 0.85751 0.54454 0.0
O328 O 0.82406 0.80843 0.57143 0.0
C329 C 0.82553 0.90051 0.62573 0.0
Fe330 Fe 0.6237 0.12534 0.61486 0.0
Fe331 Fe 0.62634 0.18969 0.56168 0.0
O332 O 0.63683 0.175 0.596 0.0
Fe333 Fe 0.66056 0.20976 0.61162 0.0
O334 O 0.6734 0.15747 0.63197 0.0
O335 O 0.65316 0.09359 0.61583 0.0
O336 O 0.6167 0.08782 0.583 0.0
C337 C 0.62599 0.0894 0.55834 0.0
C338 C 0.63112 0.1986 0.6573 0.0
O339 O 0.63406 0.12929 0.54858 0.0
C340 C 0.63353 0.28255 0.58039 0.0
O341 O 0.59389 0.1556 0.61453 0.0
O342 O 0.59447 0.17219 0.56913 0.0
O343 O 0.64082 0.22857 0.64031 0.0
O344 O 0.62837 0.15367 0.65024 0.0
C345 C 0.67792 0.20293 0.55847 0.0
O346 O 0.61796 0.25152 0.57221 0.0
O347 O 0.65272 0.26827 0.59328 0.0
C348 C 0.58348 0.1726 0.59274 0.0
O349 O 0.65655 0.21006 0.54873 0.0
O350 O 0.68133 0.19259 0.58403 0.0
C351 C 0.67264 0.11203 0.62569 0.0
C352 C 0.15327 0.15835 0.05811 0.0
C353 C 0.13209 0.18456 0.06578 0.0
C354 C 0.15195 0.11653 0.04061 0.0
C355 C 0.12879 0.0994 0.03115 0.0
C356 C 0.10725 0.12412 0.04011 0.0
C357 C 0.10916 0.16662 0.057 0.0
C358 C 0.17545 0.09194 0.0313 0.0
C359 C 0.08215 0.10653 0.03119 0.0
C360 C 0.12587 0.02032 0.96424 0.0
C361 C 0.12542 0.97258 0.9755 0.0
C362 C 0.12699 0.06193 0.98206 0.0
C363 C 0.12715 0.05574 0.01186 0.0
C364 C 0.12609 1.00763 0.02326 0.0
C365 C 0.12549 0.96682 1.00503 0.0
C366 C 0.12854 0.11251 0.96899 0.0
C367 C 0.12578 0.99919 0.05481 0.0
H368 H 0.17107 0.17196 0.06453 0.0
H369 H 0.09269 0.18661 0.06278 0.0
H370 H 0.17521 0.0524 0.03713 0.0
H371 H 0.17709 0.09398 1.00795 0.0
H372 H 0.19195 0.10929 0.04083 0.0
H373 H 0.06718 0.12788 0.04137 0.0
H374 H 0.08022 0.10986 1.00793 0.0
H375 H 0.07985 0.06706 0.03661 0.0
H376 H 0.12606 0.02511 0.9415 0.0
H377 H 0.12499 0.9301 0.01399 0.0
H378 H 0.14573 0.13087 0.97581 0.0
H379 H 0.11304 0.13562 0.97643 0.0
H380 H 0.12815 0.11123 0.94553 0.0
H381 H 0.14299 0.01326 0.06434 0.0
H382 H 0.12387 0.95963 0.06033 0.0
H383 H 0.11039 0.01984 0.06455 0.0
C384 C 0.37313 0.99205 0.95988 0.0
C385 C 0.37986 0.03869 0.97005 0.0
C386 C 0.37151 0.95113 0.9782 0.0
C387 C 0.37642 0.95697 1.00748 0.0
C388 C 0.38295 1.00403 0.01785 0.0
C389 C 0.38472 0.04401 0.99909 0.0
C390 C 0.36466 0.90154 0.96619 0.0
C391 C 0.38796 0.01228 0.04888 0.0
C392 C 0.35292 0.85873 0.05882 0.0
C393 C 0.37404 0.83015 0.06338 0.0
C394 C 0.35344 0.90033 0.04097 0.0
C395 C 0.37557 0.91373 0.0272 0.0
C396 C 0.39709 0.88595 0.03246 0.0
C397 C 0.39609 0.84487 0.05051 0.0
C398 C 0.33011 0.9291 0.03623 0.0
C399 C 0.42108 0.89866 0.01828 0.0
H400 H 0.36913 0.98749 0.9376 0.0
H401 H 0.38964 0.07985 1.00739 0.0
H402 H 0.37962 0.87474 0.97028 0.0
H403 H 0.34796 0.88737 0.97682 0.0
H404 H 0.36119 0.90307 0.94308 0.0
H405 H 0.39207 0.05142 0.05376 0.0
H406 H 0.37187 1.00067 0.06158 0.0
H407 H 0.40376 0.98944 0.05572 0.0
H408 H 0.33571 0.84751 0.0683 0.0
H409 H 0.41255 0.82316 0.05377 0.0
H410 H 0.32428 0.92545 0.01387 0.0
H411 H 0.33328 0.96882 0.04031 0.0
H412 H 0.3149 0.9162 0.04998 0.0
H413 H 0.41896 0.89625 0.995 0.0
H414 H 0.43624 0.87381 0.02485 0.0
H415 H 0.42636 0.93709 0.02333 0.0
C416 C 0.62738 0.05142 0.51009 0.0
C417 C 0.62608 0.04533 0.53956 0.0
C418 C 0.62849 0.01078 0.49174 0.0
C419 C 0.62882 0.96252 0.503 0.0
C420 C 0.62749 0.95601 0.53273 0.0
C421 C 0.62589 0.99744 0.55064 0.0
C422 C 0.6293 0.01954 0.46024 0.0
C423 C 0.62814 0.90524 0.54565 0.0
C424 C 0.61095 0.85234 0.45731 0.0
C425 C 0.6339 0.83317 0.44953 0.0
C426 C 0.60901 0.89524 0.47385 0.0
C427 C 0.63056 0.91896 0.48363 0.0
C428 C 0.65378 0.90066 0.4751 0.0
C429 C 0.65514 0.85849 0.45785 0.0
C430 C 0.58385 0.914 0.48169 0.0
C431 C 0.67726 0.9242 0.48525 0.0
H432 H 0.62738 0.08823 0.50124 0.0
H433 H 0.62512 0.99237 0.57334 0.0
H434 H 0.64651 1.00423 0.45133 0.0
H435 H 0.61382 1.00015 0.44985 0.0
H436 H 0.62826 0.05927 0.45479 0.0
H437 H 0.62735 0.90631 0.5691 0.0
H438 H 0.61245 0.88317 0.53777 0.0
H439 H 0.64518 0.88593 0.53917 0.0
H440 H 0.59443 0.83299 0.45104 0.0
H441 H 0.67294 0.84381 0.45225 0.0
H442 H 0.5828 0.95455 0.47917 0.0
H443 H 0.58014 0.90545 0.50421 0.0
H444 H 0.56923 0.8969 0.46864 0.0
H445 H 0.6773 0.96408 0.48024 0.0
H446 H 0.69378 0.90704 0.47565 0.0
H447 H 0.67859 0.92066 0.50857 0.0
C448 C 0.88306 0.97355 0.51596 0.0
C449 C 0.87882 0.97955 0.54508 0.0
C450 C 0.88072 0.01304 0.49697 0.0
C451 C 0.87428 0.06025 0.50719 0.0
C452 C 0.86986 0.0667 0.53652 0.0
C453 C 0.87201 0.02625 0.55508 0.0
C454 C 0.88518 1.00418 0.46588 0.0
C455 C 0.86314 0.11651 0.54835 0.0
C456 C 0.8943 0.17144 0.4639 0.0
C457 C 0.87222 0.18692 0.45136 0.0
C458 C 0.89517 0.1303 0.48188 0.0
C459 C 0.8735 0.10323 0.48735 0.0
C460 C 0.85135 0.11723 0.47381 0.0
C461 C 0.85095 0.15894 0.45604 0.0
C462 C 0.91917 0.11687 0.49585 0.0
C463 C 0.82788 0.08913 0.47879 0.0
H464 H 0.88796 0.93758 0.50781 0.0
H465 H 0.86845 0.03126 0.57743 0.0
H466 H 0.86902 0.01628 0.45342 0.0
H467 H 0.90109 0.02629 0.45865 0.0
H468 H 0.88886 0.96482 0.4611 0.0
H469 H 0.85971 0.11528 0.57148 0.0
H470 H 0.87817 0.14305 0.54415 0.0
H471 H 0.84647 0.1308 0.53771 0.0
H472 H 0.91086 0.19265 0.46048 0.0
H473 H 0.83373 0.17079 0.44682 0.0
H474 H 0.92414 0.07826 0.4908 0.0
H475 H 0.91724 0.11946 0.51915 0.0
H476 H 0.93445 0.14116 0.48912 0.0
H477 H 0.83084 0.04922 0.47511 0.0
H478 H 0.81275 0.102 0.46489 0.0
H479 H 0.82206 0.09361 0.5011 0.0
C480 C 0.88776 1.00221 0.04818 0.0
C481 C 0.87845 0.04797 0.03959 0.0
C482 C 0.88577 0.96043 0.03062 0.0
C483 C 0.87404 0.96439 1.00392 0.0
C484 C 0.86472 0.01048 0.99515 0.0
C485 C 0.86706 0.0515 0.01297 0.0
C486 C 0.89599 0.9119 0.04074 0.0
C487 C 0.85189 0.01637 0.96704 0.0
C488 C 0.88526 0.86351 0.94911 0.0
C489 C 0.86478 0.83333 0.9532 0.0
C490 C 0.88834 0.90687 0.96508 0.0
C491 C 0.87054 0.92001 0.98564 0.0
C492 C 0.84936 0.89036 0.98898 0.0
C493 C 0.84685 0.84727 0.97285 0.0
C494 C 0.91118 0.93732 0.96088 0.0
C495 C 0.82982 0.90299 0.01042 0.0
H496 H 0.89656 0.99897 0.06864 0.0
H497 H 0.85962 0.08648 1.00602 0.0
H498 H 0.88095 0.88463 0.04278 0.0
H499 H 0.90919 0.89715 0.02503 0.0
H500 H 0.90541 0.91522 0.06147 0.0
H501 H 0.84629 0.05504 0.96293 0.0
H502 H 0.86409 1.00408 0.94966 0.0
H503 H 0.83529 0.99278 0.96646 0.0
H504 H 0.89946 0.85187 0.93454 0.0
H505 H 0.83133 0.8231 0.97651 0.0
H506 H 0.92258 0.9359 0.9803 0.0
H507 H 0.90628 0.97645 0.95721 0.0
H508 H 0.92239 0.9241 0.9428 0.0
H509 H 0.83772 0.90185 0.03201 0.0
H510 H 0.81401 0.87723 0.00956 0.0
H511 H 0.82299 0.94097 1.00683 0.0
C512 C 0.61429 0.15498 0.95591 0.0
C513 C 0.63741 0.17214 0.94764 0.0
C514 C 0.61185 0.11169 0.97194 0.0
C515 C 0.63314 0.08577 0.98058 0.0
C516 C 0.65651 0.10203 0.97127 0.0
C517 C 0.65834 0.14498 0.95479 0.0
C518 C 0.58658 0.09532 0.98093 0.0
C519 C 0.67969 0.07594 0.98026 0.0
C520 C 0.62989 1.00953 0.04834 0.0
C521 C 0.62873 0.96149 0.03764 0.0
C522 C 0.6313 0.05034 0.03001 0.0
C523 C 0.63108 0.04297 1.00031 0.0
C524 C 0.62927 0.99461 0.98947 0.0
C525 C 0.62833 0.95457 0.0082 0.0
C526 C 0.63356 0.10131 0.04244 0.0
C527 C 0.62856 0.98509 0.95804 0.0
H528 H 0.59819 0.17691 0.95107 0.0
H529 H 0.67627 0.15934 0.94925 0.0
H530 H 0.58396 0.05565 0.97623 0.0
H531 H 0.58455 0.10007 1.00409 0.0
H532 H 0.57186 0.11665 0.97024 0.0
H533 H 0.69626 0.09145 0.9699 0.0
H534 H 0.68194 0.07911 1.00349 0.0
H535 H 0.67853 0.03615 0.97517 0.0
H536 H 0.63043 0.01511 0.07101 0.0
H537 H 0.62727 0.91758 0.99969 0.0
H538 H 0.61829 0.12489 0.03487 0.0
H539 H 0.65092 0.11856 0.03526 0.0
H540 H 0.63334 0.1009 0.06591 0.0
H541 H 0.61331 1.00611 0.94824 0.0
H542 H 0.62615 0.94545 0.953 0.0
H543 H 0.64583 0.99805 0.94814 0.0
C544 C 0.36639 0.97214 0.50146 0.0
C545 C 0.37803 0.97554 0.47495 0.0
C546 C 0.36394 0.01311 0.51928 0.0
C547 C 0.37337 0.05917 0.51068 0.0
C548 C 0.38539 0.06305 0.48414 0.0
C549 C 0.38753 0.02124 0.46655 0.0
C550 C 0.35086 1.0072 0.54723 0.0
C551 C 0.39576 0.11153 0.47421 0.0
C552 C 0.34548 0.17564 0.54199 0.0
C553 C 0.36306 0.18934 0.56212 0.0
C554 C 0.34839 0.133 0.52554 0.0
C555 C 0.36963 0.10351 0.529 0.0
C556 C 0.38708 0.11637 0.55003 0.0
C557 C 0.38361 0.1593 0.56631 0.0
C558 C 0.32918 0.12067 0.50365 0.0
C559 C 0.40999 0.08612 0.55442 0.0
H560 H 0.35884 0.93725 0.50834 0.0
H561 H 0.39651 0.02443 0.4462 0.0
H562 H 0.36293 0.01934 0.56477 0.0
H563 H 0.33428 0.0309 0.54764 0.0
H564 H 0.34519 0.96856 0.55123 0.0
H565 H 0.40538 0.1082 0.45361 0.0
H566 H 0.38076 0.1389 0.47199 0.0
H567 H 0.40881 0.12614 0.49012 0.0
H568 H 0.32993 0.19972 0.53821 0.0
H569 H 0.39759 0.17078 0.5812 0.0
H570 H 0.32254 0.08243 0.50669 0.0
H571 H 0.33733 0.12277 0.48221 0.0
H572 H 0.3132 0.14603 0.50456 0.0
H573 H 0.4053 0.04661 0.55685 0.0
H574 H 0.42049 0.09817 0.5733 0.0
H575 H 0.42198 0.08946 0.53558 0.0
C576 C 0.15531 0.85774 0.55686 0.0
C577 C 0.13357 0.83445 0.56545 0.0
C578 C 0.15476 0.89987 0.53952 0.0
C579 C 0.13191 0.92005 0.53107 0.0
C580 C 0.10991 0.89787 0.54071 0.0
C581 C 0.111 0.8551 0.55747 0.0
C582 C 0.17867 0.9216 0.52937 0.0
C583 C 0.08516 0.91862 0.53275 0.0
C584 C 0.13106 0.0533 0.50575 0.0
C585 C 0.12963 0.04806 0.47623 0.0
C586 C 0.13152 0.01213 0.52374 0.0
C587 C 0.131 0.96417 0.51207 0.0
C588 C 0.12966 0.95852 0.48229 0.0
C589 C 0.12874 1.00049 0.46475 0.0
C590 C 0.13256 0.02001 0.55531 0.0
C591 C 0.12951 0.90809 0.46892 0.0
H592 H 0.17283 0.84154 0.56243 0.0
H593 H 0.09414 0.83712 0.56386 0.0
H594 H 0.17951 0.91997 0.50595 0.0
H595 H 0.17985 0.96094 0.53548 0.0
H596 H 0.19488 0.90192 0.53806 0.0
H597 H 0.06983 0.89858 0.54309 0.0
H598 H 0.08408 0.95805 0.53875 0.0
H599 H 0.08264 0.91651 0.50952 0.0
H600 H 0.13164 0.08986 0.51491 0.0
H601 H 0.12787 0.99606 0.44201 0.0
H602 H 0.14952 1.00331 0.56402 0.0
H603 H 0.11679 1.00143 0.56561 0.0
H604 H 0.13221 0.05964 0.56109 0.0
H605 H 0.14627 0.88759 0.47515 0.0
H606 H 0.12867 0.90984 0.44549 0.0
H607 H 0.11353 0.88671 0.47666 0.0
C608 C 0.63515 0.51313 0.96387 0.0
C609 C 0.62768 0.46684 0.97386 0.0
C610 C 0.63671 0.55406 0.98219 0.0
C611 C 0.63082 0.54863 0.01126 0.0
C612 C 0.62345 0.50197 0.02144 0.0
C613 C 0.6219 0.46194 1.00272 0.0
C614 C 0.64461 0.60319 0.97044 0.0
C615 C 0.61723 0.49423 0.05222 0.0
C616 C 0.65399 0.64569 0.06345 0.0
C617 C 0.63336 0.67627 0.06647 0.0
C618 C 0.65342 0.60388 0.0458 0.0
C619 C 0.63163 0.5919 0.03093 0.0
C620 C 0.61042 0.6212 0.035 0.0
C621 C 0.61153 0.66275 0.05269 0.0
C622 C 0.67644 0.57358 0.04229 0.0
C623 C 0.58673 0.60975 0.01984 0.0
H624 H 0.63985 0.5174 0.94176 0.0
H625 H 0.61631 0.42641 0.0109 0.0
H626 H 0.63 0.63095 0.97403 0.0
H627 H 0.66126 0.61626 0.98164 0.0
H628 H 0.64863 0.60145 0.94745 0.0
H629 H 0.61231 0.45542 0.05696 0.0
H630 H 0.63307 0.50482 0.06564 0.0
H631 H 0.60161 0.51817 0.05831 0.0
H632 H 0.67095 0.65546 0.07394 0.0
H633 H 0.5954 0.68582 0.05486 0.0
H634 H 0.68336 0.57738 0.02035 0.0
H635 H 0.67245 0.53402 0.04583 0.0
H636 H 0.6912 0.58516 0.05705 0.0
H637 H 0.58957 0.6124 0.99667 0.0
H638 H 0.57166 0.63521 0.02592 0.0
H639 H 0.58088 0.5715 0.02449 0.0
C640 C 0.85976 0.37003 0.06737 0.0
C641 C 0.87857 0.33466 0.06668 0.0
C642 C 0.86076 0.41243 0.05013 0.0
C643 C 0.88085 0.41945 0.03151 0.0
C644 C 0.90048 0.38539 0.03194 0.0
C645 C 0.89922 0.34392 0.04962 0.0
C646 C 0.83991 0.44896 0.0511 0.0
C647 C 0.92242 0.39151 0.01277 0.0
C648 C 0.87196 0.49617 0.96438 0.0
C649 C 0.88281 0.54111 0.97195 0.0
C650 C 0.87104 0.45647 0.9836 0.0
C651 C 0.88118 0.46167 0.01108 0.0
C652 C 0.89224 0.50684 0.01874 0.0
C653 C 0.89294 0.54577 0.99918 0.0
C654 C 0.85932 0.40876 0.97442 0.0
C655 C 0.90334 0.51415 0.04769 0.0
H656 H 0.84378 0.36363 0.08046 0.0
H657 H 0.91407 0.31739 0.04896 0.0
H658 H 0.84708 0.48661 0.05483 0.0
H659 H 0.83033 0.44949 0.03041 0.0
H660 H 0.82642 0.44013 0.06794 0.0
H661 H 0.9369 0.36365 0.01697 0.0
H662 H 0.91654 0.38804 0.99041 0.0
H663 H 0.9305 0.4287 0.01535 0.0
H664 H 0.86396 0.49213 0.94354 0.0
H665 H 0.9013 0.58026 1.00544 0.0
H666 H 0.84545 0.39689 0.99013 0.0
H667 H 0.87349 0.37948 0.97338 0.0
H668 H 0.85037 0.41182 0.95341 0.0
H669 H 0.88935 0.50734 0.06424 0.0
H670 H 0.91082 0.55184 0.05059 0.0
H671 H 0.91837 0.48724 0.0511 0.0
C672 C 0.1261 0.49935 0.55084 0.0
C673 C 0.12568 0.54718 0.53968 0.0
C674 C 0.12772 0.4579 0.53294 0.0
C675 C 0.1285 0.46434 0.50317 0.0
C676 C 0.12751 0.51251 0.49186 0.0
C677 C 0.12633 0.55315 0.51017 0.0
C678 C 0.12904 0.40721 0.54589 0.0
C679 C 0.12773 0.5212 0.46034 0.0
C680 C 0.15511 0.36174 0.45718 0.0
C681 C 0.13398 0.33583 0.44909 0.0
C682 C 0.15362 0.40354 0.47471 0.0
C683 C 0.13037 0.42086 0.48377 0.0
C684 C 0.1089 0.39656 0.47425 0.0
C685 C 0.11098 0.35408 0.4574 0.0
C686 C 0.17703 0.42783 0.48451 0.0
C687 C 0.08369 0.41428 0.48269 0.0
H688 H 0.12584 0.49439 0.57357 0.0
H689 H 0.12585 0.58991 0.50126 0.0
H690 H 0.1135 0.38447 0.53827 0.0
H691 H 0.1462 0.38859 0.53916 0.0
H692 H 0.12853 0.40832 0.56935 0.0
H693 H 0.12619 0.56085 0.45487 0.0
H694 H 0.14496 0.5066 0.4511 0.0
H695 H 0.11231 0.50113 0.45027 0.0
H696 H 0.17295 0.34783 0.45114 0.0
H697 H 0.09454 0.33429 0.45131 0.0
H698 H 0.17857 0.42465 0.50783 0.0
H699 H 0.17674 0.46763 0.47931 0.0
H700 H 0.19359 0.411 0.4748 0.0
H701 H 0.08048 0.40564 0.5053 0.0
H702 H 0.06901 0.39656 0.47 0.0
H703 H 0.08218 0.45477 0.48017 0.0
C704 C 0.38303 0.47502 0.51506 0.0
C705 C 0.37937 0.48125 0.54427 0.0
C706 C 0.38053 0.51446 0.49605 0.0
C707 C 0.37455 0.56188 0.50633 0.0
C708 C 0.3707 0.56855 0.53576 0.0
C709 C 0.37296 0.52813 0.55434 0.0
C710 C 0.38438 0.50533 0.46488 0.0
C711 C 0.3645 0.61857 0.54765 0.0
C712 C 0.39447 0.67249 0.46243 0.0
C713 C 0.37229 0.68847 0.45036 0.0
C714 C 0.39541 0.63133 0.4804 0.0
C715 C 0.37368 0.60481 0.48642 0.0
C716 C 0.35139 0.61934 0.47336 0.0
C717 C 0.35094 0.661 0.45555 0.0
C718 C 0.41957 0.61734 0.49381 0.0
C719 C 0.32783 0.59184 0.47893 0.0
H720 H 0.3876 0.43891 0.50687 0.0
H721 H 0.36985 0.53333 0.57676 0.0
H722 H 0.36809 0.51784 0.45278 0.0
H723 H 0.40031 0.52696 0.45725 0.0
H724 H 0.3877 0.46586 0.46009 0.0
H725 H 0.36161 0.61759 0.57088 0.0
H726 H 0.37954 0.6448 0.54291 0.0
H727 H 0.34764 0.63308 0.53749 0.0
H728 H 0.4111 0.69333 0.45864 0.0
H729 H 0.33364 0.67326 0.44671 0.0
H730 H 0.42393 0.57822 0.48935 0.0
H731 H 0.41824 0.62136 0.5171 0.0
H732 H 0.43498 0.64042 0.48614 0.0
H733 H 0.33048 0.55185 0.47523 0.0
H734 H 0.31255 0.60506 0.46537 0.0
H735 H 0.32243 0.59655 0.50136 0.0
C736 C 0.34499 0.34835 0.96942 0.0
C737 C 0.36371 0.33144 0.95161 0.0
C738 C 0.34822 0.39034 0.98636 0.0
C739 C 0.3709 0.41582 0.98575 0.0
C740 C 0.38964 0.39962 0.9671 0.0
C741 C 0.38585 0.35742 0.95035 0.0
C742 C 0.32768 0.40624 1.00574 0.0
C743 C 0.41409 0.42552 0.96578 0.0
C744 C 0.37075 0.54789 0.01232 0.0
C745 C 0.37957 0.54319 0.04017 0.0
C746 C 0.36826 0.50704 0.99442 0.0
C747 C 0.37476 0.45975 1.00434 0.0
C748 C 0.38403 0.45451 0.03224 0.0
C749 C 0.3863 0.49627 0.04986 0.0
C750 C 0.35823 0.51448 0.96496 0.0
C751 C 0.39122 0.40466 0.0436 0.0
H752 H 0.32819 0.32713 0.97113 0.0
H753 H 0.40065 0.3432 0.9374 0.0
H754 H 0.33377 0.40376 0.02806 0.0
H755 H 0.3228 0.44524 1.00161 0.0
H756 H 0.31097 0.38328 1.00312 0.0
H757 H 0.42605 0.41056 0.94882 0.0
H758 H 0.41142 0.4655 0.9621 0.0
H759 H 0.42371 0.4214 0.98631 0.0
H760 H 0.36543 0.58375 1.00437 0.0
H761 H 0.39307 0.49206 0.07126 0.0
H762 H 0.3408 0.49383 0.96251 0.0
H763 H 0.3713 0.49976 0.9491 0.0
H764 H 0.35469 0.55387 0.96012 0.0
H765 H 0.37494 0.38019 0.04409 0.0
H766 H 0.39902 0.40687 0.06525 0.0
H767 H 0.40493 0.38725 0.02946 0.0
C768 C 0.12762 0.51977 0.05056 0.0
C769 C 0.12826 0.47217 0.03909 0.0
C770 C 0.12902 0.56171 0.03302 0.0
C771 C 0.1307 0.556 1.00326 0.0
C772 C 0.131 0.50804 0.9916 0.0
C773 C 0.12997 0.46691 0.00959 0.0
C774 C 0.129 0.61216 0.04636 0.0
C775 C 0.13241 0.50009 0.96006 0.0
C776 C 0.11154 0.66493 0.95728 0.0
C777 C 0.13424 0.68534 0.94964 0.0
C778 C 0.11015 0.62237 0.97416 0.0
C779 C 0.13198 0.60005 0.98423 0.0
C780 C 0.15498 0.61988 0.97606 0.0
C781 C 0.15583 0.66192 0.95865 0.0
C782 C 0.08525 0.60205 0.98182 0.0
C783 C 0.17871 0.59784 0.9866 0.0
H784 H 0.12655 0.52424 0.07329 0.0
H785 H 0.13038 0.43036 1.00041 0.0
H786 H 0.14595 0.63222 0.04039 0.0
H787 H 0.11324 0.63392 0.03835 0.0
H788 H 0.12788 0.61045 0.06978 0.0
H789 H 0.13202 0.46047 0.95428 0.0
H790 H 0.11684 0.51888 0.94948 0.0
H791 H 0.14953 0.51654 0.95163 0.0
H792 H 0.09479 0.68302 0.95056 0.0
H793 H 0.17344 0.67796 0.95336 0.0
H794 H 0.0825 0.60439 1.005 0.0
H795 H 0.08412 0.56259 0.97591 0.0
H796 H 0.0701 0.62222 0.9712 0.0
H797 H 0.17938 0.5999 0.01001 0.0
H798 H 0.19507 0.61703 0.97796 0.0
H799 H 0.17976 0.55836 0.98075 0.0
C800 C 0.84476 0.67233 0.5444 0.0
C801 C 0.863 0.68746 0.56336 0.0
C802 C 0.84768 0.62979 0.52784 0.0
C803 C 0.8696 0.60194 0.52997 0.0
C804 C 0.88779 0.6163 0.54981 0.0
C805 C 0.88429 0.65906 0.56621 0.0
C806 C 0.82769 0.61582 0.50725 0.0
C807 C 0.91144 0.5879 0.55274 0.0
C808 C 0.86771 0.47003 0.50307 0.0
C809 C 0.87801 0.47401 0.47586 0.0
C810 C 0.86526 0.51103 0.52088 0.0
C811 C 0.8733 0.55771 0.51154 0.0
C812 C 0.884 0.56218 0.48429 0.0
C813 C 0.88618 0.52032 0.46674 0.0
C814 C 0.85367 0.50444 0.54964 0.0
C815 C 0.89286 0.61134 0.47355 0.0
H816 H 0.82863 0.69523 0.54158 0.0
H817 H 0.89876 0.67172 0.58015 0.0
H818 H 0.83475 0.61829 0.48531 0.0
H819 H 0.82193 0.57714 0.5108 0.0
H820 H 0.81132 0.64 0.50912 0.0
H821 H 0.92253 0.6007 0.57101 0.0
H822 H 0.90768 0.54803 0.55533 0.0
H823 H 0.9225 0.59234 0.53323 0.0
H824 H 0.86123 0.43464 0.51054 0.0
H825 H 0.89411 0.52398 0.44585 0.0
H826 H 0.8367 0.52689 0.55107 0.0
H827 H 0.86633 0.51765 0.56634 0.0
H828 H 0.84892 0.46544 0.55409 0.0
H829 H 0.87724 0.63744 0.47224 0.0
H830 H 0.90152 0.60852 0.45237 0.0
H831 H 0.90636 0.6272 0.48855 0.0
C832 C 0.63019 0.55081 0.5069 0.0
C833 C 0.62867 0.54537 0.4774 0.0
C834 C 0.63069 0.50977 0.52501 0.0
C835 C 0.63012 0.4617 0.51349 0.0
C836 C 0.62867 0.45584 0.48372 0.0
C837 C 0.62772 0.4977 0.46606 0.0
C838 C 0.63181 0.51791 0.55655 0.0
C839 C 0.62846 0.4053 0.47049 0.0
C840 C 0.6544 0.35544 0.55854 0.0
C841 C 0.63265 0.33228 0.56723 0.0
C842 C 0.65386 0.39747 0.5411 0.0
C843 C 0.63102 0.41769 0.53263 0.0
C844 C 0.60902 0.39565 0.54238 0.0
C845 C 0.6101 0.35297 0.55922 0.0
C846 C 0.67778 0.41901 0.53083 0.0
C847 C 0.58427 0.41643 0.53442 0.0
H848 H 0.63081 0.58743 0.51597 0.0
H849 H 0.62679 0.49308 0.44334 0.0
H850 H 0.61606 0.49947 0.56696 0.0
H851 H 0.64878 0.50122 0.56525 0.0
H852 H 0.63151 0.55758 0.56223 0.0
H853 H 0.62759 0.40688 0.44705 0.0
H854 H 0.64522 0.38481 0.47674 0.0
H855 H 0.61248 0.38405 0.47832 0.0
H856 H 0.67191 0.33914 0.56408 0.0
H857 H 0.59323 0.33504 0.56565 0.0
H858 H 0.67899 0.45843 0.53677 0.0
H859 H 0.67859 0.41707 0.50742 0.0
H860 H 0.69398 0.39941 0.5396 0.0
H861 H 0.58327 0.45596 0.54023 0.0
H862 H 0.56896 0.39664 0.54494 0.0
H863 H 0.58167 0.41397 0.51122 0.0
C864 C 0.11727 0.19716 0.31096 0.0
C865 C 0.1334 0.22063 0.32972 0.0
C866 C 0.11501 0.21312 0.28268 0.0
C867 C 0.12972 0.25258 0.2727 0.0
C868 C 0.14588 0.27649 0.29166 0.0
C869 C 0.14729 0.26068 0.31986 0.0
C870 C 0.09713 0.18738 0.26336 0.0
C871 C 0.16241 0.31778 0.28192 0.0
C872 C 0.14743 0.25891 0.19498 0.0
C873 C 0.13371 0.29929 0.18521 0.0
C874 C 0.14588 0.24283 0.22313 0.0
C875 C 0.12973 0.26683 0.2421 0.0
C876 C 0.11517 0.30658 0.23218 0.0
C877 C 0.11757 0.32279 0.20397 0.0
C878 C 0.16224 0.20122 0.23282 0.0
C879 C 0.09732 0.33244 0.2515 0.0
H880 H 0.10634 0.16648 0.31842 0.0
H881 H 0.15996 0.27896 0.33405 0.0
H882 H 0.08517 0.21475 0.2527 0.0
H883 H 0.10728 0.16735 0.24662 0.0
H884 H 0.0854 0.16066 0.2749 0.0
H885 H 0.17358 0.33326 0.29942 0.0
H886 H 0.175 0.30409 0.26525 0.0
H887 H 0.15135 0.34788 0.27252 0.0
H888 H 0.16007 0.24059 0.18077 0.0
H889 H 0.10674 0.35367 0.19656 0.0
H890 H 0.15109 0.17132 0.24225 0.0
H891 H 0.17492 0.21465 0.24946 0.0
H892 H 0.17332 0.18555 0.21528 0.0
H893 H 0.0853 0.30515 0.26211 0.0
H894 H 0.08566 0.35932 0.23998 0.0
H895 H 0.1075 0.3523 0.26829 0.0
C896 C 0.36167 0.76018 0.19467 0.0
C897 C 0.37533 0.71955 0.18515 0.0
C898 C 0.36332 0.77684 0.22271 0.0
C899 C 0.37949 0.7532 0.24181 0.0
C900 C 0.39402 0.71326 0.23211 0.0
C901 C 0.39153 0.69647 0.20402 0.0
C902 C 0.34698 0.81865 0.23217 0.0
C903 C 0.41192 0.68776 0.25155 0.0
C904 C 0.39212 0.82393 0.31031 0.0
C905 C 0.37601 0.8008 0.32924 0.0
C906 C 0.39431 0.80754 0.28209 0.0
C907 C 0.37956 0.76797 0.27235 0.0
C908 C 0.36344 0.74436 0.29148 0.0
C909 C 0.36209 0.7606 0.31961 0.0
C910 C 0.41215 0.83297 0.2626 0.0
C911 C 0.34689 0.70293 0.282 0.0
H912 H 0.34899 0.7782 0.18037 0.0
H913 H 0.40232 0.66539 0.1968 0.0
H914 H 0.33429 0.80551 0.24888 0.0
H915 H 0.35816 0.84867 0.24144 0.0
H916 H 0.33591 0.83407 0.21455 0.0
H917 H 0.42361 0.66077 0.24014 0.0
H918 H 0.42392 0.71524 0.26202 0.0
H919 H 0.40177 0.66806 0.26842 0.0
H920 H 0.40307 0.85472 0.31757 0.0
H921 H 0.34944 0.74255 0.33391 0.0
H922 H 0.40196 0.85278 0.24579 0.0
H923 H 0.42407 0.80542 0.25204 0.0
H924 H 0.42392 0.85983 0.27397 0.0
H925 H 0.33427 0.71635 0.26527 0.0
H926 H 0.33574 0.68775 0.29961 0.0
H927 H 0.35792 0.67267 0.27274 0.0
C928 C 0.6496 0.75415 0.1959 0.0
C929 C 0.63576 0.79394 0.1856 0.0
C930 C 0.64763 0.73843 0.22409 0.0
C931 C 0.63095 0.76218 0.24253 0.0
C932 C 0.61632 0.80141 0.23207 0.0
C933 C 0.61914 0.81727 0.20385 0.0
C934 C 0.66409 0.69739 0.23437 0.0
C935 C 0.59792 0.82701 0.25081 0.0
C936 C 0.61751 0.69297 0.31131 0.0
C937 C 0.63312 0.71705 0.33041 0.0
C938 C 0.61574 0.70856 0.28291 0.0
C939 C 0.6304 0.74827 0.27318 0.0
C940 C 0.646 0.77283 0.29247 0.0
C941 C 0.64694 0.75737 0.32077 0.0
C942 C 0.59844 0.68211 0.2632 0.0
C943 C 0.66245 0.81444 0.28303 0.0
H944 H 0.66261 0.73596 0.18207 0.0
H945 H 0.6082 0.84769 0.19601 0.0
H946 H 0.6763 0.71134 0.25133 0.0
H947 H 0.65295 0.66725 0.24357 0.0
H948 H 0.67565 0.68189 0.21721 0.0
H949 H 0.58637 0.85357 0.2389 0.0
H950 H 0.58582 0.79952 0.26112 0.0
H951 H 0.60762 0.84718 0.26785 0.0
H952 H 0.60665 0.66206 0.31858 0.0
H953 H 0.65921 0.77614 0.3352 0.0
H954 H 0.60907 0.66213 0.24684 0.0
H955 H 0.58654 0.70904 0.25209 0.0
H956 H 0.58664 0.65524 0.27452 0.0
H957 H 0.67549 0.80089 0.26679 0.0
H958 H 0.67314 0.83045 0.30078 0.0
H959 H 0.6514 0.84412 0.27318 0.0
C960 C 0.85989 0.25924 0.19579 0.0
C961 C 0.87371 0.21911 0.18591 0.0
C962 C 0.86162 0.27541 0.22392 0.0
C963 C 0.87804 0.25175 0.24273 0.0
C964 C 0.89264 0.21215 0.2327 0.0
C965 C 0.89007 0.19586 0.20453 0.0
C966 C 0.84521 0.31685 0.23373 0.0
C967 C 0.91077 0.18664 0.25184 0.0
C968 C 0.89113 0.32238 0.3111 0.0
C969 C 0.87526 0.29903 0.33021 0.0
C970 C 0.89312 0.30605 0.28286 0.0
C971 C 0.8784 0.26632 0.27328 0.0
C972 C 0.86254 0.24245 0.29259 0.0
C973 C 0.8614 0.25865 0.32074 0.0
C974 C 0.91068 0.33177 0.26316 0.0
C975 C 0.84603 0.20084 0.28329 0.0
H976 H 0.84709 0.27737 0.18168 0.0
H977 H 0.90098 0.16517 0.19701 0.0
H978 H 0.83283 0.30341 0.25067 0.0
H979 H 0.85638 0.34705 0.24283 0.0
H980 H 0.83382 0.33211 0.21634 0.0
H981 H 0.92231 0.15963 0.24026 0.0
H982 H 0.92291 0.21414 0.26209 0.0
H983 H 0.90084 0.167 0.26891 0.0
H984 H 0.90204 0.35332 0.31824 0.0
H985 H 0.84892 0.24043 0.33518 0.0
H986 H 0.90026 0.3516 0.24655 0.0
H987 H 0.92255 0.3044 0.25236 0.0
H988 H 0.92252 0.35866 0.27441 0.0
H989 H 0.83314 0.21422 0.26683 0.0
H990 H 0.83517 0.18534 0.30104 0.0
H991 H 0.85705 0.17083 0.27374 0.0
C992 C 0.85687 0.75839 0.69589 0.0
C993 C 0.87136 0.79727 0.68562 0.0
C994 C 0.85843 0.74268 0.72415 0.0
C995 C 0.87485 0.76636 0.74294 0.0
C996 C 0.89013 0.80456 0.73258 0.0
C997 C 0.88825 0.81947 0.70409 0.0
C998 C 0.84189 0.70162 0.73411 0.0
C999 C 0.90788 0.83081 0.75184 0.0
C1000 C 0.85646 0.76064 0.82063 0.0
C1001 C 0.87097 0.7218 0.83096 0.0
C1002 C 0.85817 0.77647 0.79239 0.0
C1003 C 0.87477 0.75297 0.77371 0.0
C1004 C 0.89002 0.71476 0.78414 0.0
C1005 C 0.88798 0.69971 0.81258 0.0
C1006 C 0.84163 0.8175 0.78233 0.0
C1007 C 0.90796 0.68867 0.76501 0.0
H1008 H 0.84386 0.74059 0.68191 0.0
H1009 H 0.89956 0.8495 0.69651 0.0
H1010 H 0.85287 0.67231 0.74445 0.0
H1011 H 0.82882 0.71598 0.75009 0.0
H1012 H 0.83123 0.68496 0.71654 0.0
H1013 H 0.91978 0.85705 0.74018 0.0
H1014 H 0.89756 0.85147 0.7682 0.0
H1015 H 0.91969 0.8038 0.76299 0.0
H1016 H 0.84335 0.77834 0.83453 0.0
H1017 H 0.89933 0.66976 0.82021 0.0
H1018 H 0.82869 0.80315 0.76622 0.0
H1019 H 0.85263 0.84688 0.77211 0.0
H1020 H 0.83083 0.83407 0.79982 0.0
H1021 H 0.89778 0.66813 0.74849 0.0
H1022 H 0.91979 0.66236 0.77674 0.0
H1023 H 0.91982 0.71579 0.75406 0.0
C1024 C 0.61033 0.29808 0.81752 0.0
C1025 C 0.63236 0.28858 0.83193 0.0
C1026 C 0.6069 0.2823 0.78939 0.0
C1027 C 0.62602 0.2569 0.77521 0.0
C1028 C 0.64806 0.24646 0.78985 0.0
C1029 C 0.65089 0.26213 0.81791 0.0
C1030 C 0.58301 0.29364 0.77465 0.0
C1031 C 0.66904 0.21989 0.77559 0.0
C1032 C 0.61767 0.18231 0.70752 0.0
C1033 C 0.62691 0.2148 0.68704 0.0
C1034 C 0.61598 0.19635 0.73614 0.0
C1035 C 0.62393 0.24382 0.74458 0.0
C1036 C 0.63228 0.27739 0.72383 0.0
C1037 C 0.63353 0.26263 0.69542 0.0
C1038 C 0.60662 0.15967 0.75751 0.0
C1039 C 0.64112 0.32822 0.73179 0.0
H1040 H 0.59582 0.31812 0.82814 0.0
H1041 H 0.66801 0.2544 0.8287 0.0
H1042 H 0.5863 0.31995 0.75713 0.0
H1043 H 0.57527 0.25966 0.76519 0.0
H1044 H 0.56922 0.30985 0.78922 0.0
H1045 H 0.68464 0.21308 0.79018 0.0
H1046 H 0.66269 0.18403 0.7671 0.0
H1047 H 0.67576 0.24198 0.75746 0.0
H1048 H 0.6123 0.14545 0.70133 0.0
H1049 H 0.64055 0.28833 0.67988 0.0
H1050 H 0.59269 0.17701 0.77141 0.0
H1051 H 0.62198 0.14737 0.77119 0.0
H1052 H 0.59839 0.12677 0.7473 0.0
H1053 H 0.62712 0.34746 0.74471 0.0
H1054 H 0.64534 0.35119 0.71299 0.0
H1055 H 0.65797 0.32514 0.74485 0.0
C1056 C 0.35648 0.26009 0.69464 0.0
C1057 C 0.37153 0.29796 0.6842 0.0
C1058 C 0.35823 0.24389 0.72282 0.0
C1059 C 0.37538 0.26608 0.74135 0.0
C1060 C 0.39117 0.30325 0.7308 0.0
C1061 C 0.38911 0.31864 0.7024 0.0
C1062 C 0.34112 0.20393 0.73298 0.0
C1063 C 0.40968 0.32799 0.74977 0.0
C1064 C 0.35795 0.2614 0.81936 0.0
C1065 C 0.37191 0.22157 0.82945 0.0
C1066 C 0.35957 0.27717 0.79111 0.0
C1067 C 0.37548 0.25253 0.77212 0.0
C1068 C 0.39023 0.21331 0.78231 0.0
C1069 C 0.38833 0.19841 0.81081 0.0
C1070 C 0.34362 0.31937 0.78136 0.0
C1071 C 0.40741 0.18595 0.76285 0.0
H1072 H 0.34294 0.24346 0.68087 0.0
H1073 H 0.40087 0.34786 0.6947 0.0
H1074 H 0.35172 0.17382 0.74308 0.0
H1075 H 0.32851 0.21909 0.74919 0.0
H1076 H 0.32996 0.18813 0.71556 0.0
H1077 H 0.42187 0.35348 0.73794 0.0
H1078 H 0.39999 0.34922 0.7664 0.0
H1079 H 0.42116 0.30003 0.76059 0.0
H1080 H 0.34531 0.27995 0.83348 0.0
H1081 H 0.39921 0.16761 0.81825 0.0
H1082 H 0.33019 0.30597 0.76552 0.0
H1083 H 0.35499 0.34795 0.77093 0.0
H1084 H 0.33339 0.33669 0.79906 0.0
H1085 H 0.39663 0.16605 0.74658 0.0
H1086 H 0.41897 0.15889 0.77437 0.0
H1087 H 0.41955 0.21219 0.75161 0.0
C1088 C 0.14331 0.75836 0.81976 0.0
C1089 C 0.12966 0.79863 0.82974 0.0
C1090 C 0.14149 0.74254 0.79161 0.0
C1091 C 0.12516 0.76671 0.77294 0.0
C1092 C 0.11057 0.80617 0.78313 0.0
C1093 C 0.11324 0.82213 0.81133 0.0
C1094 C 0.15786 0.70116 0.78159 0.0
C1095 C 0.09251 0.83211 0.7641 0.0
C1096 C 0.14291 0.7616 0.69538 0.0
C1097 C 0.12932 0.7212 0.68549 0.0
C1098 C 0.14123 0.77741 0.72353 0.0
C1099 C 0.12508 0.7531 0.74233 0.0
C1100 C 0.11054 0.71351 0.73226 0.0
C1101 C 0.11308 0.69757 0.70405 0.0
C1102 C 0.15754 0.81893 0.73342 0.0
C1103 C 0.09267 0.68742 0.75144 0.0
H1104 H 0.15616 0.74005 0.83374 0.0
H1105 H 0.10247 0.85293 0.81895 0.0
H1106 H 0.14671 0.6714 0.77202 0.0
H1107 H 0.17047 0.71499 0.76498 0.0
H1108 H 0.16902 0.68519 0.79897 0.0
H1109 H 0.08067 0.85827 0.77592 0.0
H1110 H 0.10253 0.85283 0.74754 0.0
H1111 H 0.08066 0.80485 0.75321 0.0
H1112 H 0.15563 0.78001 0.6813 0.0
H1113 H 0.10235 0.66665 0.69651 0.0
H1114 H 0.1703 0.80521 0.74993 0.0
H1115 H 0.14636 0.84859 0.74308 0.0
H1116 H 0.16854 0.835 0.71595 0.0
H1117 H 0.10286 0.66679 0.76792 0.0
H1118 H 0.08084 0.66115 0.73971 0.0
H1119 H 0.08082 0.71457 0.76243 0.0
C1120 C 0.21849 0.42239 0.14278 0.0
C1121 C 0.19896 0.43581 0.12501 0.0
C1122 C 0.24004 0.4511 0.14438 0.0
C1123 C 0.2426 0.49358 0.12715 0.0
C1124 C 0.22292 0.50723 0.10915 0.0
C1125 C 0.20131 0.47869 0.10861 0.0
C1126 C 0.26019 0.43573 0.1644 0.0
C1127 C 0.22495 0.55122 0.08978 0.0
C1128 C 0.29022 0.59347 0.14377 0.0
C1129 C 0.30983 0.5803 0.12606 0.0
C1130 C 0.26859 0.56494 0.14493 0.0
C1131 C 0.26604 0.52294 0.12732 0.0
C1132 C 0.28579 0.50965 0.10934 0.0
C1133 C 0.30746 0.53797 0.10922 0.0
C1134 C 0.24837 0.57995 0.16492 0.0
C1135 C 0.28379 0.46618 0.08958 0.0
H1136 H 0.2169 0.38942 0.15555 0.0
H1137 H 0.18651 0.48908 0.0945 0.0
H1138 H 0.27685 0.42565 0.15226 0.0
H1139 H 0.26517 0.46691 0.17841 0.0
H1140 H 0.2548 0.40383 0.17771 0.0
H1141 H 0.20806 0.55709 0.07706 0.0
H1142 H 0.22861 0.58499 0.10224 0.0
H1143 H 0.24065 0.54614 0.07514 0.0
H1144 H 0.29182 0.62608 0.15683 0.0
H1145 H 0.3223 0.52783 0.09513 0.0
H1146 H 0.24331 0.54848 0.17869 0.0
H1147 H 0.23176 0.5903 0.15275 0.0
H1148 H 0.25371 0.61155 0.17848 0.0
H1149 H 0.2803 0.43205 0.10179 0.0
H1150 H 0.30064 0.46086 0.07672 0.0
H1151 H 0.26801 0.47145 0.07507 0.0
C1152 C 0.70089 0.53772 0.40594 0.0
C1153 C 0.69826 0.58043 0.38945 0.0
C1154 C 0.72267 0.50962 0.40539 0.0
C1155 C 0.74225 0.5236 0.38734 0.0
C1156 C 0.73939 0.56585 0.37 0.0
C1157 C 0.71767 0.59407 0.37157 0.0
C1158 C 0.725 0.46577 0.42483 0.0
C1159 C 0.75942 0.58158 0.34994 0.0
C1160 C 0.8074 0.48054 0.40522 0.0
C1161 C 0.80997 0.43821 0.38841 0.0
C1162 C 0.78558 0.50848 0.4051 0.0
C1163 C 0.76587 0.49475 0.38716 0.0
C1164 C 0.76864 0.45284 0.36954 0.0
C1165 C 0.79042 0.42475 0.37069 0.0
C1166 C 0.78338 0.55196 0.42481 0.0
C1167 C 0.74846 0.43736 0.34961 0.0
H1168 H 0.6862 0.52716 0.42014 0.0
H1169 H 0.71588 0.62694 0.35874 0.0
H1170 H 0.72889 0.43204 0.41242 0.0
H1171 H 0.74067 0.4713 0.43947 0.0
H1172 H 0.70815 0.45956 0.43755 0.0
H1173 H 0.75382 0.61327 0.33657 0.0
H1174 H 0.77603 0.59211 0.36204 0.0
H1175 H 0.76459 0.55044 0.33597 0.0
H1176 H 0.82219 0.4909 0.41934 0.0
H1177 H 0.79216 0.39213 0.35765 0.0
H1178 H 0.76771 0.54633 0.43942 0.0
H1179 H 0.77958 0.58595 0.41259 0.0
H1180 H 0.80025 0.55776 0.43756 0.0
H1181 H 0.73195 0.4266 0.36184 0.0
H1182 H 0.75397 0.40589 0.33603 0.0
H1183 H 0.74315 0.4687 0.33586 0.0
C1184 C 0.7798 0.60344 0.89536 0.0
C1185 C 0.80354 0.58758 0.88788 0.0
C1186 C 0.75937 0.57199 0.8937 0.0
C1187 C 0.76237 0.52308 0.88401 0.0
C1188 C 0.78605 0.50719 0.87535 0.0
C1189 C 0.80634 0.53945 0.8775 0.0
C1190 C 0.73468 0.59069 0.90345 0.0
C1191 C 0.79009 0.45548 0.86471 0.0
C1192 C 0.71704 0.42884 0.9129 0.0
C1193 C 0.70005 0.42382 0.8908 0.0
C1194 C 0.73742 0.46022 0.91073 0.0
C1195 C 0.7412 0.48767 0.88566 0.0
C1196 C 0.72401 0.48311 0.8632 0.0
C1197 C 0.70349 0.45157 0.86613 0.0
C1198 C 0.7547 0.46446 0.93559 0.0
C1199 C 0.72742 0.51128 0.83603 0.0
H1200 H 0.77713 0.64039 0.90343 0.0
H1201 H 0.82445 0.52655 0.87165 0.0
H1202 H 0.72082 0.58572 0.88654 0.0
H1203 H 0.72842 0.56905 0.92199 0.0
H1204 H 0.73517 0.63021 0.90943 0.0
H1205 H 0.80883 0.45025 0.85599 0.0
H1206 H 0.78739 0.42897 0.88226 0.0
H1207 H 0.77647 0.44642 0.84807 0.0
H1208 H 0.71412 0.40861 0.93231 0.0
H1209 H 0.69049 0.44776 0.84894 0.0
H1210 H 0.75466 0.50283 0.94363 0.0
H1211 H 0.77372 0.45581 0.92891 0.0
H1212 H 0.74963 0.43936 0.95319 0.0
H1213 H 0.72699 0.55141 0.8403 0.0
H1214 H 0.71303 0.50248 0.82019 0.0
H1215 H 0.74565 0.50273 0.82682 0.0
C1216 C 0.19638 0.53481 0.61831 0.0
C1217 C 0.19576 0.58321 0.62879 0.0
C1218 C 0.21804 0.50641 0.6192 0.0
C1219 C 0.23973 0.5265 0.63109 0.0
C1220 C 0.23906 0.57483 0.64235 0.0
C1221 C 0.21721 0.60256 0.64097 0.0
C1222 C 0.21787 0.45527 0.60671 0.0
C1223 C 0.26163 0.59775 0.6553 0.0
C1224 C 0.2906 0.43579 0.6516 0.0
C1225 C 0.30642 0.4391 0.62837 0.0
C1226 C 0.26924 0.46508 0.65322 0.0
C1227 C 0.26328 0.49764 0.63076 0.0
C1228 C 0.27953 0.50142 0.60744 0.0
C1229 C 0.30087 0.4722 0.60657 0.0
C1230 C 0.25266 0.46008 0.67858 0.0
C1231 C 0.27391 0.5349 0.5828 0.0
H1232 H 0.18006 0.51945 0.60863 0.0
H1233 H 0.21709 0.63987 0.64908 0.0
H1234 H 0.23138 0.45297 0.58924 0.0
H1235 H 0.22346 0.428 0.62293 0.0
H1236 H 0.19955 0.44477 0.5984 0.0
H1237 H 0.25784 0.6346 0.6645 0.0
H1238 H 0.26906 0.57351 0.67213 0.0
H1239 H 0.27611 0.60167 0.63898 0.0
H1240 H 0.29462 0.40938 0.66815 0.0
H1241 H 0.31281 0.47378 0.58825 0.0
H1242 H 0.23474 0.44464 0.67194 0.0
H1243 H 0.24904 0.49679 0.68798 0.0
H1244 H 0.26064 0.43578 0.69508 0.0
H1245 H 0.25694 0.52226 0.57208 0.0
H1246 H 0.28902 0.5357 0.56705 0.0
H1247 H 0.27053 0.57297 0.59034 0.0
C1248 C 0.80712 0.0405 0.10672 0.0
C1249 C 0.80897 0.08287 0.12365 0.0
C1250 C 0.78595 0.01064 0.10701 0.0
C1251 C 0.76617 0.02225 0.12532 0.0
C1252 C 0.76817 0.06436 0.14298 0.0
C1253 C 0.78928 0.09453 0.14159 0.0
C1254 C 0.78454 0.96726 0.08712 0.0
C1255 C 0.74794 0.07763 0.16337 0.0
C1256 C 0.70201 0.97346 0.10726 0.0
C1257 C 0.70054 0.93014 0.12344 0.0
C1258 C 0.72311 1.00354 0.10768 0.0
C1259 C 0.74322 0.99111 0.12535 0.0
C1260 C 0.74158 0.94808 0.14231 0.0
C1261 C 0.72051 0.91781 0.14083 0.0
C1262 C 0.72412 0.048 0.08856 0.0
C1263 C 0.76217 0.93385 0.16199 0.0
H1264 H 0.82202 0.03142 0.09247 0.0
H1265 H 0.79048 0.12706 0.15478 0.0
H1266 H 0.78196 0.93274 0.09927 0.0
H1267 H 0.76843 0.97136 0.07297 0.0
H1268 H 0.80128 0.96349 0.07389 0.0
H1269 H 0.75287 0.10951 0.17693 0.0
H1270 H 0.73098 0.08678 0.15154 0.0
H1271 H 0.74369 0.04567 0.17713 0.0
H1272 H 0.68689 0.98314 0.09345 0.0
H1273 H 0.71962 0.88457 0.15345 0.0
H1274 H 0.73987 0.0446 0.07384 0.0
H1275 H 0.72705 0.08182 0.10123 0.0
H1276 H 0.70708 0.05258 0.07594 0.0
H1277 H 0.77889 0.92517 0.1496 0.0
H1278 H 0.75748 0.90138 0.1752 0.0
H1279 H 0.76673 0.96517 0.17611 0.0
C1280 C 0.21869 0.09763 0.37086 0.0
C1281 C 0.19919 0.08394 0.3886 0.0
C1282 C 0.24036 0.06922 0.36925 0.0
C1283 C 0.24309 0.02671 0.38642 0.0
C1284 C 0.22343 0.01272 0.40436 0.0
C1285 C 0.20171 0.041 0.40494 0.0
C1286 C 0.26047 0.08499 0.3493 0.0
C1287 C 0.22561 0.96863 0.42364 0.0
C1288 C 0.29104 0.92738 0.36956 0.0
C1289 C 0.3106 0.94043 0.38737 0.0
C1290 C 0.26934 0.95577 0.36844 0.0
C1291 C 0.26665 0.99757 0.38618 0.0
C1292 C 0.28637 0.01085 0.40422 0.0
C1293 C 0.30811 0.98263 0.40431 0.0
C1294 C 0.24915 0.94075 0.3484 0.0
C1295 C 0.28426 0.05414 0.42409 0.0
H1296 H 0.217 0.13066 0.35815 0.0
H1297 H 0.18696 0.03037 0.41904 0.0
H1298 H 0.27708 0.09517 0.36149 0.0
H1299 H 0.26557 0.05397 0.33521 0.0
H1300 H 0.25497 0.11692 0.33606 0.0
H1301 H 0.20874 0.96247 0.43631 0.0
H1302 H 0.22942 0.93499 0.41111 0.0
H1303 H 0.24128 0.97382 0.43831 0.0
H1304 H 0.2927 0.89486 0.35643 0.0
H1305 H 0.3229 0.99268 0.4185 0.0
H1306 H 0.24396 0.97231 0.33476 0.0
H1307 H 0.2326 0.93001 0.36054 0.0
H1308 H 0.25462 0.90938 0.33471 0.0
H1309 H 0.28059 0.08831 0.41198 0.0
H1310 H 0.30112 0.05959 0.4369 0.0
H1311 H 0.26854 0.04853 0.43863 0.0
C1312 C 0.21364 0.92638 0.8661 0.0
C1313 C 0.1959 0.93687 0.88674 0.0
C1314 C 0.2353 0.95457 0.86388 0.0
C1315 C 0.23986 0.99304 0.88346 0.0
C1316 C 0.22205 1.00343 0.90449 0.0
C1317 C 0.20018 0.97587 0.90555 0.0
C1318 C 0.25328 0.94324 0.84053 0.0
C1319 C 0.22636 0.0429 0.92639 0.0
C1320 C 0.3057 0.03668 0.89672 0.0
C1321 C 0.30566 0.08311 0.88378 0.0
C1322 C 0.2846 1.0066 0.89643 0.0
C1323 C 0.26315 0.02262 0.88206 0.0
C1324 C 0.26358 0.06847 0.86771 0.0
C1325 C 0.28458 0.09854 0.86928 0.0
C1326 C 0.28484 0.95897 0.91286 0.0
C1327 C 0.24154 0.08653 0.8514 0.0
H1328 H 0.21048 0.8963 0.85149 0.0
H1329 H 0.18676 0.98372 0.92186 0.0
H1330 H 0.25689 0.97694 0.82794 0.0
H1331 H 0.27103 0.93125 0.84968 0.0
H1332 H 0.24651 0.91393 0.82614 0.0
H1333 H 0.21117 0.04525 0.942 0.0
H1334 H 0.24371 0.03535 0.93788 0.0
H1335 H 0.22837 0.07926 0.91601 0.0
H1336 H 0.32176 0.02517 0.90854 0.0
H1337 H 0.28441 0.13465 0.85951 0.0
H1338 H 0.27931 0.92788 0.89909 0.0
H1339 H 0.27131 0.96108 0.93033 0.0
H1340 H 0.30317 0.95076 0.92199 0.0
H1341 H 0.23475 0.05729 0.83702 0.0
H1342 H 0.24575 0.1199 0.83872 0.0
H1343 H 0.22646 0.09553 0.86626 0.0
C1344 C 0.78413 0.91984 0.64568 0.0
C1345 C 0.80521 0.93561 0.63134 0.0
C1346 C 0.76306 0.94978 0.64733 0.0
C1347 C 0.76258 0.99586 0.63323 0.0
C1348 C 0.78404 0.01223 0.61904 0.0
C1349 C 0.80519 0.98226 0.61866 0.0
C1350 C 0.74101 0.93131 0.66343 0.0
C1351 C 0.78423 0.06015 0.60288 0.0
C1352 C 0.69952 0.04238 0.6098 0.0
C1353 C 0.69502 0.08088 0.6289 0.0
C1354 C 0.72151 0.01512 0.61072 0.0
C1355 C 0.73923 0.0253 0.63189 0.0
C1356 C 0.73447 0.06332 0.65171 0.0
C1357 C 0.71269 0.09122 0.64965 0.0
C1358 C 0.726 0.97611 0.58858 0.0
C1359 C 0.75237 0.07441 0.67518 0.0
H1360 H 0.784 0.88357 0.65525 0.0
H1361 H 0.82126 0.99403 0.60696 0.0
H1362 H 0.73413 0.96024 0.67797 0.0
H1363 H 0.72599 0.92252 0.64845 0.0
H1364 H 0.74524 0.89773 0.67592 0.0
H1365 H 0.80258 0.06863 0.5939 0.0
H1366 H 0.77076 0.05825 0.58532 0.0
H1367 H 0.77857 0.09096 0.6168 0.0
H1368 H 0.68617 0.03466 0.5934 0.0
H1369 H 0.70936 0.1209 0.66447 0.0
H1370 H 0.72808 0.93957 0.59875 0.0
H1371 H 0.74336 0.984 0.57721 0.0
H1372 H 0.71087 0.97392 0.5729 0.0
H1373 H 0.75598 0.04055 0.68765 0.0
H1374 H 0.74552 0.10351 0.68967 0.0
H1375 H 0.77014 0.08655 0.66617 0.0
C1376 C 0.30527 0.21892 1.00357 0.0
C1377 C 0.30561 0.18112 0.98361 0.0
C1378 C 0.28316 0.23417 0.01558 0.0
C1379 C 0.26118 0.21007 1.0077 0.0
C1380 C 0.26185 0.16868 0.98958 0.0
C1381 C 0.28419 0.15521 0.97721 0.0
C1382 C 0.28313 0.27868 0.03475 0.0
C1383 C 0.23896 0.14094 0.98138 0.0
C1384 C 0.20894 0.24423 0.05524 0.0
C1385 C 0.19778 0.28219 0.03983 0.0
C1386 C 0.22844 0.21754 0.04399 0.0
C1387 C 0.23757 0.23069 0.01719 0.0
C1388 C 0.2257 0.26761 1.00094 0.0
C1389 C 0.20553 0.29273 0.01242 0.0
C1390 C 0.23989 0.17678 0.06124 0.0
C1391 C 0.23505 0.28207 0.9721 0.0
H1392 H 0.32193 0.23956 1.00769 0.0
H1393 H 0.28461 0.12672 0.96114 0.0
H1394 H 0.27292 0.30919 0.02447 0.0
H1395 H 0.27365 0.27008 0.05488 0.0
H1396 H 0.30196 0.29176 0.03965 0.0
H1397 H 0.24329 0.1019 0.97655 0.0
H1398 H 0.22484 0.14195 0.99824 0.0
H1399 H 0.23103 0.15777 0.96205 0.0
H1400 H 0.20256 0.23575 0.07639 0.0
H1401 H 0.19658 0.32183 1.00059 0.0
H1402 H 0.25827 0.18847 0.06873 0.0
H1403 H 0.24244 0.14338 0.04805 0.0
H1404 H 0.22855 0.16696 0.07992 0.0
H1405 H 0.25379 0.29767 0.97405 0.0
H1406 H 0.22307 0.30974 0.96168 0.0
H1407 H 0.23633 0.24912 0.95833 0.0
C1408 C 0.30891 0.74859 0.01836 0.0
C1409 C 0.30868 0.70733 0.03601 0.0
C1410 C 0.28719 0.76541 1.00598 0.0
C1411 C 0.26509 0.73957 0.01114 0.0
C1412 C 0.26508 0.69627 0.02768 0.0
C1413 C 0.28696 0.68081 0.04015 0.0
C1414 C 0.28771 0.81184 0.98841 0.0
C1415 C 0.24186 0.66732 0.03301 0.0
C1416 C 0.20569 0.80942 1.00106 0.0
C1417 C 0.19985 0.79564 0.97348 0.0
C1418 C 0.22698 0.79097 0.0139 0.0
C1419 C 0.24203 0.75753 0.99877 0.0
C1420 C 0.23546 0.74202 0.97137 0.0
C1421 C 0.21448 0.76159 0.95897 0.0
C1422 C 0.23372 0.8081 0.04323 0.0
C1423 C 0.25079 0.70553 0.95494 0.0
H1424 H 0.3257 0.76946 0.01568 0.0
H1425 H 0.28698 0.64895 0.05398 0.0
H1426 H 0.28045 0.80432 0.96694 0.0
H1427 H 0.2757 0.84013 0.99814 0.0
H1428 H 0.3065 0.82729 0.98638 0.0
H1429 H 0.24539 0.63286 0.04499 0.0
H1430 H 0.22871 0.69014 0.04519 0.0
H1431 H 0.23288 0.65772 0.01271 0.0
H1432 H 0.19411 0.83557 0.0121 0.0
H1433 H 0.20947 0.7503 0.93775 0.0
H1434 H 0.25161 0.82753 0.04263 0.0
H1435 H 0.23588 0.776 0.05751 0.0
H1436 H 0.21973 0.8333 0.05232 0.0
H1437 H 0.26924 0.72121 0.95087 0.0
H1438 H 0.24233 0.69562 0.93436 0.0
H1439 H 0.25342 0.67138 0.96744 0.0
C1440 C 0.70814 0.72279 0.50105 0.0
C1441 C 0.70007 0.73322 0.47375 0.0
C1442 C 0.7282 0.74843 0.51232 0.0
C1443 C 0.73951 0.78596 0.49604 0.0
C1444 C 0.73015 0.79873 0.46928 0.0
C1445 C 0.71085 0.77137 0.45818 0.0
C1446 C 0.73796 0.73402 0.541 0.0
C1447 C 0.74103 0.84008 0.45202 0.0
C1448 C 0.78463 0.86299 0.53696 0.0
C1449 C 0.80642 0.83825 0.53065 0.0
C1450 C 0.76264 0.84885 0.5241 0.0
C1451 C 0.76273 0.80796 0.5056 0.0
C1452 C 0.7851 0.78527 0.49773 0.0
C1453 C 0.80685 0.80127 0.51021 0.0
C1454 C 0.73926 0.87504 0.53225 0.0
C1455 C 0.78583 0.74119 0.47826 0.0
H1456 H 0.69945 0.69355 0.51299 0.0
H1457 H 0.70416 0.7798 0.43714 0.0
H1458 H 0.75696 0.71981 0.53885 0.0
H1459 H 0.7387 0.76672 0.55501 0.0
H1460 H 0.72654 0.7053 0.5513 0.0
H1461 H 0.7295 0.84944 0.43341 0.0
H1462 H 0.74323 0.87355 0.46523 0.0
H1463 H 0.75952 0.82931 0.44442 0.0
H1464 H 0.78451 0.89091 0.55336 0.0
H1465 H 0.82382 0.78158 0.50615 0.0
H1466 H 0.7308 0.85586 0.5505 0.0
H1467 H 0.72578 0.87532 0.51469 0.0
H1468 H 0.74302 0.91363 0.53867 0.0
H1469 H 0.77611 0.70984 0.4883 0.0
H1470 H 0.80488 0.72942 0.47335 0.0
H1471 H 0.77626 0.74956 0.45815 0.0
C1472 C 0.78469 0.33577 0.47346 0.0
C1473 C 0.80648 0.30953 0.47769 0.0
C1474 C 0.76295 0.32058 0.48638 0.0
C1475 C 0.76319 0.27768 0.50328 0.0
C1476 C 0.78532 0.25179 0.50818 0.0
C1477 C 0.80689 0.26848 0.4955 0.0
C1478 C 0.73969 0.34962 0.48137 0.0
C1479 C 0.78606 0.20562 0.52598 0.0
C1480 C 0.71396 0.25656 0.55722 0.0
C1481 C 0.69892 0.22259 0.54327 0.0
C1482 C 0.73456 0.27604 0.544 0.0
C1483 C 0.74039 0.26027 0.51641 0.0
C1484 C 0.72498 0.22666 0.50193 0.0
C1485 C 0.70402 0.20854 0.51554 0.0
C1486 C 0.75026 0.31282 0.55971 0.0
C1487 C 0.731 0.20901 0.4725 0.0
H1488 H 0.78458 0.36745 0.4595 0.0
H1489 H 0.82375 0.24779 0.49823 0.0
H1490 H 0.72624 0.32661 0.46978 0.0
H1491 H 0.73116 0.35991 0.50182 0.0
H1492 H 0.74305 0.38368 0.46897 0.0
H1493 H 0.80479 0.18962 0.52735 0.0
H1494 H 0.77953 0.21374 0.54768 0.0
H1495 H 0.77357 0.17752 0.51692 0.0
H1496 H 0.70947 0.26811 0.57855 0.0
H1497 H 0.6921 0.1825 0.50494 0.0
H1498 H 0.75263 0.34666 0.54687 0.0
H1499 H 0.76878 0.29713 0.56339 0.0
H1500 H 0.74225 0.32325 0.58045 0.0
H1501 H 0.73281 0.24084 0.45797 0.0
H1502 H 0.71681 0.18368 0.46401 0.0
H1503 H 0.74891 0.18955 0.47264 0.0
C1504 C 0.78758 0.65223 0.9778 0.0
C1505 C 0.80837 0.67854 0.98617 0.0
C1506 C 0.76466 0.66306 0.98952 0.0
C1507 C 0.76283 0.70195 0.00926 0.0
C1508 C 0.78422 0.72569 0.01941 0.0
C1509 C 0.80691 0.71332 1.00776 0.0
C1510 C 0.74232 0.636 0.97888 0.0
C1511 C 0.78293 0.76742 0.04048 0.0
C1512 C 0.70765 0.78553 0.01291 0.0
C1513 C 0.69835 0.77221 0.03925 0.0
C1514 C 0.72807 0.7607 1.00187 0.0
C1515 C 0.73867 0.72143 0.01748 0.0
C1516 C 0.72793 0.70554 0.04297 0.0
C1517 C 0.70813 0.73184 0.05383 0.0
C1518 C 0.73923 0.77841 0.97451 0.0
C1519 C 0.73826 0.66291 0.05967 0.0
H1520 H 0.78894 0.62601 0.96058 0.0
H1521 H 0.82312 0.73427 0.01347 0.0
H1522 H 0.72903 0.62918 0.99619 0.0
H1523 H 0.73297 0.65878 0.96268 0.0
H1524 H 0.74736 0.60023 0.96909 0.0
H1525 H 0.80141 0.7794 0.04762 0.0
H1526 H 0.77354 0.79944 0.0307 0.0
H1527 H 0.77209 0.75636 0.05926 0.0
H1528 H 0.69982 0.81671 1.0018 0.0
H1529 H 0.70077 0.72175 0.07428 0.0
H1530 H 0.74194 0.74707 0.95982 0.0
H1531 H 0.75755 0.79463 0.97878 0.0
H1532 H 0.72767 0.80661 0.96393 0.0
H1533 H 0.74202 0.63113 0.04559 0.0
H1534 H 0.72561 0.65084 0.07672 0.0
H1535 H 0.75592 0.67393 0.06944 0.0
C1536 C 0.72484 0.32167 0.96329 0.0
C1537 C 0.70345 0.32477 0.9796 0.0
C1538 C 0.74743 0.3124 0.97581 0.0
C1539 C 0.74843 0.30579 1.00531 0.0
C1540 C 0.72755 0.31554 0.02225 0.0
C1541 C 0.70495 0.32478 0.00906 0.0
C1542 C 0.76961 0.3047 0.95718 0.0
C1543 C 0.72878 0.31252 0.05403 0.0
C1544 C 0.79075 0.20496 0.03023 0.0
C1545 C 0.81184 0.23169 0.03664 0.0
C1546 C 0.76991 0.22893 0.01987 0.0
C1547 C 0.77001 0.28099 0.01743 0.0
C1548 C 0.7913 0.30808 0.02424 0.0
C1549 C 0.81226 0.2828 0.03307 0.0
C1550 C 0.74783 0.19856 0.01159 0.0
C1551 C 0.79224 0.36355 0.02289 0.0
H1552 H 0.72363 0.32254 0.94043 0.0
H1553 H 0.68837 0.32787 0.02159 0.0
H1554 H 0.78504 0.32792 0.96459 0.0
H1555 H 0.7756 0.26569 0.95842 0.0
H1556 H 0.76583 0.31386 0.93471 0.0
H1557 H 0.71251 0.32979 0.06413 0.0
H1558 H 0.72961 0.27336 0.06062 0.0
H1559 H 0.74564 0.33088 0.06191 0.0
H1560 H 0.79051 0.16549 0.03368 0.0
H1561 H 0.82853 0.30338 0.03876 0.0
H1562 H 0.74269 0.20647 0.98934 0.0
H1563 H 0.73193 0.20849 0.02504 0.0
H1564 H 0.75123 0.1584 0.01373 0.0
H1565 H 0.80399 0.37486 1.0049 0.0
H1566 H 0.8008 0.37804 0.04246 0.0
H1567 H 0.77397 0.38099 0.02045 0.0
C1568 C 0.28557 0.36631 0.53597 0.0
C1569 C 0.30727 0.34169 0.52912 0.0
C1570 C 0.26342 0.35257 0.52332 0.0
C1571 C 0.26328 0.31226 0.5044 0.0
C1572 C 0.28557 0.28991 0.49591 0.0
C1573 C 0.30747 0.30547 0.50824 0.0
C1574 C 0.24011 0.37838 0.5321 0.0
C1575 C 0.28608 0.24648 0.47595 0.0
C1576 C 0.20899 0.22626 0.50014 0.0
C1577 C 0.20052 0.23717 0.47306 0.0
C1578 C 0.22905 0.25207 0.51129 0.0
C1579 C 0.23994 0.29031 0.49516 0.0
C1580 C 0.23015 0.30356 0.46868 0.0
C1581 C 0.21089 0.27597 0.45764 0.0
C1582 C 0.23934 0.23692 0.5396 0.0
C1583 C 0.24063 0.34544 0.45151 0.0
H1584 H 0.28564 0.39368 0.55268 0.0
H1585 H 0.32438 0.28586 0.50374 0.0
H1586 H 0.22705 0.38145 0.5142 0.0
H1587 H 0.23105 0.3569 0.54908 0.0
H1588 H 0.24394 0.41585 0.54042 0.0
H1589 H 0.30507 0.23512 0.47046 0.0
H1590 H 0.27664 0.21469 0.48588 0.0
H1591 H 0.27612 0.25536 0.45616 0.0
H1592 H 0.20066 0.19643 0.51194 0.0
H1593 H 0.20396 0.28463 0.43674 0.0
H1594 H 0.24045 0.26925 0.55386 0.0
H1595 H 0.25826 0.22259 0.53683 0.0
H1596 H 0.22807 0.20804 0.54997 0.0
H1597 H 0.2434 0.37839 0.46499 0.0
H1598 H 0.22854 0.35563 0.43352 0.0
H1599 H 0.2588 0.33466 0.44297 0.0
C1600 C 0.28462 0.83757 0.47146 0.0
C1601 C 0.30645 0.81173 0.47627 0.0
C1602 C 0.26277 0.82241 0.48412 0.0
C1603 C 0.26297 0.78001 0.50142 0.0
C1604 C 0.28513 0.75465 0.50699 0.0
C1605 C 0.30678 0.77125 0.4945 0.0
C1606 C 0.23946 0.85084 0.47838 0.0
C1607 C 0.28582 0.70909 0.52531 0.0
C1608 C 0.21326 0.75913 0.55473 0.0
C1609 C 0.19878 0.72398 0.54098 0.0
C1610 C 0.23378 0.77905 0.54158 0.0
C1611 C 0.24007 0.76255 0.51427 0.0
C1612 C 0.22514 0.72792 0.49992 0.0
C1613 C 0.20427 0.7093 0.51346 0.0
C1614 C 0.24899 0.81686 0.55714 0.0
C1615 C 0.23164 0.70961 0.47076 0.0
H1616 H 0.28456 0.86885 0.4572 0.0
H1617 H 0.32368 0.75089 0.49772 0.0
H1618 H 0.23054 0.86148 0.49855 0.0
H1619 H 0.24285 0.88466 0.46578 0.0
H1620 H 0.22632 0.82727 0.46669 0.0
H1621 H 0.30461 0.69354 0.52726 0.0
H1622 H 0.27889 0.71778 0.54678 0.0
H1623 H 0.27363 0.68042 0.51629 0.0
H1624 H 0.20846 0.77109 0.5759 0.0
H1625 H 0.19274 0.68235 0.50302 0.0
H1626 H 0.25141 0.85022 0.54391 0.0
H1627 H 0.26751 0.80172 0.56148 0.0
H1628 H 0.24053 0.82794 0.57754 0.0
H1629 H 0.23358 0.74108 0.45599 0.0
H1630 H 0.21765 0.68389 0.46222 0.0
H1631 H 0.2496 0.69036 0.47142 0.0
C1632 C 0.05721 0.28876 0.11721 0.0
C1633 C 0.06113 0.32459 0.09638 0.0
C1634 C 0.03512 0.26215 0.1184 0.0
C1635 C 0.01609 0.273 0.09896 0.0
C1636 C 0.01964 0.31068 0.0786 0.0
C1637 C 0.04235 0.33519 0.07711 0.0
C1638 C 0.03255 0.22107 0.13968 0.0
C1639 C 0.99954 0.32477 0.05818 0.0
C1640 C 0.96686 0.1788 0.08021 0.0
C1641 C 0.94761 0.19276 0.09809 0.0
C1642 C 0.98961 0.20322 0.08117 0.0
C1643 C 0.99272 0.24417 0.09942 0.0
C1644 C 0.97324 0.25829 0.11753 0.0
C1645 C 0.95109 0.23179 0.11703 0.0
C1646 C 0.01018 0.18565 0.06233 0.0
C1647 C 0.97538 0.30275 0.13651 0.0
H1648 H 0.07194 0.27984 0.13175 0.0
H1649 H 0.04543 0.36275 0.06093 0.0
H1650 H 0.01626 0.22733 0.15323 0.0
H1651 H 0.02967 0.18565 0.12847 0.0
H1652 H 0.04897 0.21753 0.15345 0.0
H1653 H 0.00437 0.35779 0.0455 0.0
H1654 H 0.99589 0.29381 0.0435 0.0
H1655 H 0.98226 0.33228 0.06981 0.0
H1656 H 0.96406 0.14882 0.06544 0.0
H1657 H 0.93598 0.24325 0.13041 0.0
H1658 H 0.02719 0.1804 0.07486 0.0
H1659 H 0.01414 0.2138 0.04599 0.0
H1660 H 0.00565 0.15048 0.05155 0.0
H1661 H 0.99139 0.29888 0.15079 0.0
H1662 H 0.95868 0.3085 0.14956 0.0
H1663 H 0.97848 0.33614 0.12347 0.0
C1664 C 0.4519 0.72751 0.11727 0.0
C1665 C 0.44766 0.69111 0.09687 0.0
C1666 C 0.47428 0.75314 0.11822 0.0
C1667 C 0.49323 0.74066 0.09901 0.0
C1668 C 0.48934 0.70232 0.07915 0.0
C1669 C 0.46636 0.67885 0.07786 0.0
C1670 C 0.47725 0.79496 0.13895 0.0
C1671 C 0.50934 0.68649 0.05904 0.0
C1672 C 0.54331 0.83212 0.079 0.0
C1673 C 0.56237 0.81829 0.09717 0.0
C1674 C 0.52036 0.80855 0.08023 0.0
C1675 C 0.51685 0.76858 0.0991 0.0
C1676 C 0.53616 0.75455 0.11747 0.0
C1677 C 0.55853 0.78024 0.11666 0.0
C1678 C 0.49998 0.826 0.06107 0.0
C1679 C 0.5336 0.71102 0.13709 0.0
H1680 H 0.43723 0.73764 0.13162 0.0
H1681 H 0.463 0.65081 0.06202 0.0
H1682 H 0.49346 0.7886 0.15262 0.0
H1683 H 0.48049 0.82979 0.12727 0.0
H1684 H 0.46086 0.79971 0.15263 0.0
H1685 H 0.50422 0.65305 0.04688 0.0
H1686 H 0.5133 0.71657 0.04387 0.0
H1687 H 0.52652 0.67889 0.07084 0.0
H1688 H 0.54638 0.86139 0.06383 0.0
H1689 H 0.57351 0.76891 0.13028 0.0
H1690 H 0.48302 0.83252 0.07348 0.0
H1691 H 0.49576 0.79723 0.04518 0.0
H1692 H 0.50486 0.86045 0.04974 0.0
H1693 H 0.51761 0.7161 0.15126 0.0
H1694 H 0.55023 0.70524 0.15026 0.0
H1695 H 0.53021 0.67719 0.12453 0.0
C1696 C 0.46433 0.83683 0.40175 0.0
C1697 C 0.44661 0.82269 0.42162 0.0
C1698 C 0.48733 0.81301 0.40063 0.0
C1699 C 0.49226 0.77293 0.41903 0.0
C1700 C 0.4741 0.75785 0.43856 0.0
C1701 C 0.45176 0.78336 0.43991 0.0
C1702 C 0.50651 0.83139 0.38023 0.0
C1703 C 0.47819 0.71451 0.45801 0.0
C1704 C 0.5445 0.68331 0.40267 0.0
C1705 C 0.56205 0.69723 0.42279 0.0
C1706 C 0.52168 0.70767 0.40104 0.0
C1707 C 0.51677 0.74813 0.41916 0.0
C1708 C 0.53481 0.76313 0.43888 0.0
C1709 C 0.55694 0.73699 0.44079 0.0
C1710 C 0.50262 0.68938 0.38045 0.0
C1711 C 0.53075 0.80689 0.45802 0.0
H1712 H 0.46041 0.86711 0.38753 0.0
H1713 H 0.43801 0.77167 0.45502 0.0
H1714 H 0.52304 0.84331 0.39209 0.0
H1715 H 0.51227 0.8013 0.36586 0.0
H1716 H 0.49982 0.86278 0.3673 0.0
H1717 H 0.46226 0.70777 0.47209 0.0
H1718 H 0.48163 0.68085 0.44531 0.0
H1719 H 0.49462 0.72071 0.47136 0.0
H1720 H 0.5484 0.65274 0.38865 0.0
H1721 H 0.57057 0.7485 0.4561 0.0
H1722 H 0.49702 0.71947 0.36599 0.0
H1723 H 0.48599 0.67758 0.39214 0.0
H1724 H 0.50936 0.65791 0.36761 0.0
H1725 H 0.52698 0.84017 0.44513 0.0
H1726 H 0.54683 0.81432 0.4718 0.0
H1727 H 0.51452 0.80062 0.47167 0.0
C1728 C 0.04515 0.18521 0.40183 0.0
C1729 C 0.06259 0.19907 0.42209 0.0
C1730 C 0.02217 0.20902 0.40037 0.0
C1731 C 0.01697 0.24887 0.41883 0.0
C1732 C 0.03489 0.26382 0.4387 0.0
C1733 C 0.0572 0.23824 0.44042 0.0
C1734 C 0.00326 0.19078 0.37958 0.0
C1735 C 0.03054 0.30698 0.4582 0.0
C1736 C 0.96407 0.33688 0.40214 0.0
C1737 C 0.94642 0.32189 0.42189 0.0
C1738 C 0.98718 0.31355 0.4008 0.0
C1739 C 0.99231 0.27307 0.41884 0.0
C1740 C 0.97421 0.25706 0.4382 0.0
C1741 C 0.95176 0.28214 0.43981 0.0
C1742 C 0.00628 0.33288 0.38059 0.0
C1743 C 0.97852 0.21327 0.45725 0.0
H1744 H 0.04926 0.1551 0.38757 0.0
H1745 H 0.07075 0.24973 0.45582 0.0
H1746 H 0.98668 0.17829 0.39113 0.0
H1747 H 0.9975 0.22109 0.36536 0.0
H1748 H 0.01021 0.1598 0.36651 0.0
H1749 H 0.04651 0.31433 0.47216 0.0
H1750 H 0.02669 0.34053 0.44557 0.0
H1751 H 0.01427 0.30007 0.47168 0.0
H1752 H 0.96001 0.36749 0.3882 0.0
H1753 H 0.93807 0.26981 0.45483 0.0
H1754 H 0.01226 0.30327 0.366 0.0
H1755 H 0.02271 0.34495 0.39257 0.0
H1756 H 0.99941 0.36439 0.36788 0.0
H1757 H 0.98298 0.18036 0.44433 0.0
H1758 H 0.96231 0.2048 0.47059 0.0
H1759 H 0.9944 0.22025 0.47132 0.0
C1760 C 0.94553 0.757 0.92009 0.0
C1761 C 0.9421 0.70613 0.91653 0.0
C1762 C 0.9688 0.77844 0.91838 0.0
C1763 C 0.98943 0.74838 0.91294 0.0
C1764 C 0.98606 0.69727 0.90788 0.0
C1765 C 0.96232 0.67665 0.90961 0.0
C1766 C 0.97135 0.83306 0.92373 0.0
C1767 C 0.00763 0.66409 0.9019 0.0
C1768 C 0.04796 0.81742 0.8937 0.0
C1769 C 0.0598 0.82075 0.92001 0.0
C1770 C 0.02544 0.79257 0.89082 0.0
C1771 C 0.01447 0.77043 0.91479 0.0
C1772 C 0.02645 0.77324 0.9413 0.0
C1773 C 0.04888 0.79834 0.94359 0.0
C1774 C 0.01324 0.79055 0.86221 0.0
C1775 C 0.01539 0.75029 0.96743 0.0
H1776 H 0.9299 0.78021 0.92497 0.0
H1777 H 0.95978 0.63738 0.90682 0.0
H1778 H 0.98178 0.83916 0.94356 0.0
H1779 H 0.98178 0.85072 0.90636 0.0
H1780 H 0.9533 0.85175 0.92568 0.0
H1781 H 1.0018 0.62649 0.89559 0.0
H1782 H 0.01919 0.67989 0.88487 0.0
H1783 H 0.01926 0.6612 0.92108 0.0
H1784 H 0.05635 0.83397 0.87524 0.0
H1785 H 0.05796 0.79999 0.96394 0.0
H1786 H 0.99563 0.81101 0.86288 0.0
H1787 H 0.00891 0.75189 0.85656 0.0
H1788 H 0.02489 0.80665 0.84531 0.0
H1789 H 0.99773 0.76862 0.97247 0.0
H1790 H 0.02764 0.75331 0.98611 0.0
H1791 H 0.0114 0.71081 0.96361 0.0
C1792 C 0.55337 0.27087 0.94287 0.0
C1793 C 0.56247 0.30703 0.92435 0.0
C1794 C 0.53001 0.25038 0.93938 0.0
C1795 C 0.51501 0.26618 0.91674 0.0
C1796 C 0.52402 0.30225 0.89769 0.0
C1797 C 0.54765 0.32239 0.90174 0.0
C1798 C 0.52119 0.21244 0.96043 0.0
C1799 C 0.50864 0.31977 0.87317 0.0
C1800 C 0.4596 0.18298 0.90358 0.0
C1801 C 0.44156 0.20659 0.91981 0.0
C1802 C 0.48337 0.2032 0.90104 0.0
C1803 C 0.48917 0.24796 0.91504 0.0
C1804 C 0.47071 0.27279 0.93042 0.0
C1805 C 0.4473 0.25198 0.93255 0.0
C1806 C 0.50252 0.17583 0.88424 0.0
C1807 C 0.47593 0.32041 0.94581 0.0
H1808 H 0.56456 0.25834 0.9604 0.0
H1809 H 0.55459 0.34966 0.88707 0.0
H1810 H 0.50517 0.2271 0.97221 0.0
H1811 H 0.51508 0.17868 0.94929 0.0
H1812 H 0.53562 0.20207 0.97591 0.0
H1813 H 0.5189 0.34511 0.85904 0.0
H1814 H 0.50213 0.28787 0.8606 0.0
H1815 H 0.49215 0.33922 0.88118 0.0
H1816 H 0.45534 0.14832 0.89336 0.0
H1817 H 0.43351 0.27133 0.94475 0.0
H1818 H 0.51655 0.16053 0.89878 0.0
H1819 H 0.51208 0.20127 0.86957 0.0
H1820 H 0.49449 0.14506 0.87185 0.0
H1821 H 0.48929 0.31359 0.96307 0.0
H1822 H 0.45913 0.33691 0.95514 0.0
H1823 H 0.4843 0.3476 0.93124 0.0
C1824 C 0.5491 0.22139 0.57156 0.0
C1825 C 0.55883 0.19589 0.59483 0.0
C1826 C 0.52678 0.24697 0.57351 0.0
C1827 C 0.51363 0.24695 0.59931 0.0
C1828 C 0.52338 0.22163 0.62297 0.0
C1829 C 0.54588 0.19653 0.62048 0.0
C1830 C 0.51711 0.27349 0.54775 0.0
C1831 C 0.50986 0.22049 0.65079 0.0
C1832 C 0.46171 0.3412 0.60546 0.0
C1833 C 0.44166 0.31326 0.59621 0.0
C1834 C 0.48528 0.31985 0.60751 0.0
C1835 C 0.48865 0.26946 0.60047 0.0
C1836 C 0.46818 0.2408 0.59246 0.0
C1837 C 0.44509 0.26299 0.5904 0.0
C1838 C 0.50671 0.35156 0.61614 0.0
C1839 C 0.47074 0.18694 0.58497 0.0
H1840 H 0.55907 0.22191 0.55175 0.0
H1841 H 0.55336 0.17753 0.63869 0.0
H1842 H 0.49968 0.25627 0.54079 0.0
H1843 H 0.51306 0.31247 0.55297 0.0
H1844 H 0.53026 0.27261 0.52983 0.0
H1845 H 0.52059 0.20191 0.66766 0.0
H1846 H 0.50549 0.25849 0.65775 0.0
H1847 H 0.49218 0.20079 0.64817 0.0
H1848 H 0.45918 0.37995 0.61007 0.0
H1849 H 0.42961 0.24079 0.58376 0.0
H1850 H 0.51936 0.35604 0.59796 0.0
H1851 H 0.51723 0.33357 0.63336 0.0
H1852 H 0.50081 0.38864 0.62335 0.0
H1853 H 0.48227 0.18302 0.56578 0.0
H1854 H 0.45275 0.16917 0.58086 0.0
H1855 H 0.48005 0.16677 0.60231 0.0
C1856 C 0.04574 0.69668 0.62009 0.0
C1857 C 0.05938 0.69925 0.59497 0.0
C1858 C 0.02308 0.72116 0.62271 0.0
C1859 C 0.01393 0.74929 0.59978 0.0
C1860 C 0.0279 0.75289 0.57464 0.0
C1861 C 0.0503 0.72769 0.57249 0.0
C1862 C 0.00868 0.71611 0.64979 0.0
C1863 C 0.01895 0.78265 0.54971 0.0
C1864 C 0.94555 0.7636 0.5886 0.0
C1865 C 0.94129 0.81276 0.59652 0.0
C1866 C 0.96885 0.74229 0.59056 0.0
C1867 C 0.9887 0.77065 0.6007 0.0
C1868 C 0.98451 0.8198 0.60975 0.0
C1869 C 0.96075 0.84031 0.60768 0.0
C1870 C 0.9723 0.68973 0.58084 0.0
C1871 C 0.00526 0.85116 0.62069 0.0
H1872 H 0.05272 0.67535 0.63771 0.0
H1873 H 0.06086 0.73082 0.55317 0.0
H1874 H 0.00353 0.75296 0.65798 0.0
H1875 H 0.9914 0.69581 0.64561 0.0
H1876 H 0.01912 0.69617 0.6664 0.0
H1877 H 0.03284 0.78497 0.53259 0.0
H1878 H 1.00206 0.76568 0.54098 0.0
H1879 H 0.01416 0.82054 0.55651 0.0
H1880 H 0.93058 0.74155 0.58044 0.0
H1881 H 0.95761 0.87815 0.61396 0.0
H1882 H 0.98102 0.66757 0.59779 0.0
H1883 H 0.98472 0.6888 0.56228 0.0
H1884 H 0.95471 0.67195 0.57485 0.0
H1885 H 0.01534 0.83144 0.63763 0.0
H1886 H 0.99871 0.88701 0.6291 0.0
H1887 H 0.0185 0.85836 0.60338 0.0
loop_
_geom_bond_atom_site_label_1
_geom_bond_atom_site_label_2
_geom_bond_distance
_geom_bond_site_symmetry_2
_ccdc_geom_bond_type
Fe0 O2 1.918 . S
Fe0 O5 1.997 . S
Fe0 O6 2.002 . S
Fe0 O11 1.976 . S
Fe0 O14 1.996 . S
Fe1 O2 1.918 . S
Fe1 O9 1.997 . S
Fe1 O12 1.996 . S
Fe1 O16 1.976 . S
Fe1 O19 2.002 . S
O2 Fe0 1.918 . S
O2 Fe1 1.918 . S
O2 Fe3 1.918 . S
Fe3 O2 1.918 . S
Fe3 O4 2.002 . S
Fe3 O13 1.976 . S
Fe3 O17 1.996 . S
Fe3 O20 1.997 . S
O4 Fe3 2.002 . S
O4 C21 1.295 . S
O5 Fe0 1.997 . S
O5 C21 1.235 . S
O6 Fe0 2.002 . S
O6 C7 1.295 . S
C7 O6 1.295 . S
C7 O9 1.235 . S
C8 O13 1.287 . S
C8 O14 1.255 . S
O9 Fe1 1.997 . S
O9 C7 1.235 . S
C10 O16 1.287 . S
C10 O17 1.255 . S
O11 Fe0 1.976 . S
O11 C18 1.287 . S
O12 Fe1 1.996 . S
O12 C18 1.255 . S
O13 Fe3 1.976 . S
O13 C8 1.287 . S
O14 Fe0 1.996 . S
O14 C8 1.255 . S
C15 O19 1.295 . S
C15 O20 1.235 . S
O16 Fe1 1.976 . S
O16 C10 1.287 . S
O17 Fe3 1.996 . S
O17 C10 1.255 . S
C18 O11 1.287 . S
C18 O12 1.255 . S
O19 Fe1 2.002 . S
O19 C15 1.295 . S
O20 Fe3 1.997 . S
O20 C15 1.235 . S
C21 O4 1.295 . S
C21 O5 1.235 . S
Fe22 O24 1.918 . S
Fe22 O27 1.997 . S
Fe22 O28 2.002 . S
Fe22 O33 1.976 . S
Fe22 O36 1.996 . S
Fe23 O24 1.918 . S
Fe23 O31 1.997 . S
Fe23 O34 1.996 . S
Fe23 O38 1.976 . S
Fe23 O41 2.002 . S
O24 Fe22 1.918 . S
O24 Fe23 1.918 . S
O24 Fe25 1.918 . S
Fe25 O24 1.918 . S
Fe25 O26 2.002 . S
Fe25 O35 1.976 . S
Fe25 O39 1.996 . S
Fe25 O42 1.997 . S
O26 Fe25 2.002 . S
O26 C43 1.295 . S
O27 Fe22 1.997 . S
O27 C43 1.235 . S
O28 Fe22 2.002 . S
O28 C29 1.295 . S
C29 O28 1.295 . S
C29 O31 1.235 . S
C30 O35 1.287 . S
C30 O36 1.255 . S
O31 Fe23 1.997 . S
O31 C29 1.235 . S
C32 O38 1.287 . S
C32 O39 1.255 . S
O33 Fe22 1.976 . S
O33 C40 1.287 . S
O34 Fe23 1.996 . S
O34 C40 1.255 . S
O35 Fe25 1.976 . S
O35 C30 1.287 . S
O36 Fe22 1.996 . S
O36 C30 1.255 . S
C37 O41 1.295 . S
C37 O42 1.235 . S
O38 Fe23 1.976 . S
O38 C32 1.287 . S
O39 Fe25 1.996 . S
O39 C32 1.255 . S
C40 O33 1.287 . S
C40 O34 1.255 . S
O41 Fe23 2.002 . S
O41 C37 1.295 . S
O42 Fe25 1.997 . S
O42 C37 1.235 . S
C43 O26 1.295 . S
C43 O27 1.235 . S
Fe44 O46 1.918 . S
Fe44 O49 1.997 . S
Fe44 O50 2.002 . S
Fe44 O55 1.976 . S
Fe44 O58 1.996 . S
Fe45 O46 1.918 . S
Fe45 O53 1.997 . S
Fe45 O56 1.996 . S
Fe45 O60 1.976 . S
Fe45 O63 2.002 . S
O46 Fe44 1.918 . S
O46 Fe45 1.918 . S
O46 Fe47 1.918 . S
Fe47 O46 1.918 . S
Fe47 O48 2.002 . S
Fe47 O57 1.976 . S
Fe47 O61 1.996 . S
Fe47 O64 1.997 . S
O48 Fe47 2.002 . S
O48 C65 1.295 . S
O49 Fe44 1.997 . S
O49 C65 1.235 . S
O50 Fe44 2.002 . S
O50 C51 1.295 . S
C51 O50 1.295 . S
C51 O53 1.235 . S
C52 O57 1.287 . S
C52 O58 1.255 . S
O53 Fe45 1.997 . S
O53 C51 1.235 . S
C54 O60 1.287 . S
C54 O61 1.255 . S
O55 Fe44 1.976 . S
O55 C62 1.287 . S
O56 Fe45 1.996 . S
O56 C62 1.255 . S
O57 Fe47 1.976 . S
O57 C52 1.287 . S
O58 Fe44 1.996 . S
O58 C52 1.255 . S
C59 O63 1.295 . S
C59 O64 1.235 . S
O60 Fe45 1.976 . S
O60 C54 1.287 . S
O61 Fe47 1.996 . S
O61 C54 1.255 . S
C62 O55 1.287 . S
C62 O56 1.255 . S
O63 Fe45 2.002 . S
O63 C59 1.295 . S
O64 Fe47 1.997 . S
O64 C59 1.235 . S
C65 O48 1.295 . S
C65 O49 1.235 . S
Fe66 O68 1.918 . S
Fe66 O71 1.997 . S
Fe66 O72 2.002 . S
Fe66 O77 1.976 . S
Fe66 O80 1.996 . S
Fe67 O68 1.918 . S
Fe67 O75 1.997 . S
Fe67 O78 1.996 . S
Fe67 O82 1.976 . S
Fe67 O85 2.002 . S
O68 Fe66 1.918 . S
O68 Fe67 1.918 . S
O68 Fe69 1.918 . S
Fe69 O68 1.918 . S
Fe69 O70 2.002 . S
Fe69 O79 1.976 . S
Fe69 O83 1.996 . S
Fe69 O86 1.997 . S
O70 Fe69 2.002 . S
O70 C87 1.295 . S
O71 Fe66 1.997 . S
O71 C87 1.235 . S
O72 Fe66 2.002 . S
O72 C73 1.295 . S
C73 O72 1.295 . S
C73 O75 1.235 . S
C74 O79 1.287 . S
C74 O80 1.255 . S
O75 Fe67 1.997 . S
O75 C73 1.235 . S
C76 O82 1.287 . S
C76 O83 1.255 . S
O77 Fe66 1.976 . S
O77 C84 1.287 . S
O78 Fe67 1.996 . S
O78 C84 1.255 . S
O79 Fe69 1.976 . S
O79 C74 1.287 . S
O80 Fe66 1.996 . S
O80 C74 1.255 . S
C81 O85 1.295 . S
C81 O86 1.235 . S
O82 Fe67 1.976 . S
O82 C76 1.287 . S
O83 Fe69 1.996 . S
O83 C76 1.255 . S
C84 O77 1.287 . S
C84 O78 1.255 . S
O85 Fe67 2.002 . S
O85 C81 1.295 . S
O86 Fe69 1.997 . S
O86 C81 1.235 . S
C87 O70 1.295 . S
C87 O71 1.235 . S
Fe88 O90 1.918 . S
Fe88 O93 1.997 . S
Fe88 O94 2.002 . S
Fe88 O99 1.976 . S
Fe88 O102 1.996 . S
Fe89 O90 1.918 . S
Fe89 O97 1.997 . S
Fe89 O100 1.996 . S
Fe89 O104 1.976 . S
Fe89 O107 2.002 . S
O90 Fe88 1.918 . S
O90 Fe89 1.918 . S
O90 Fe91 1.918 . S
Fe91 O90 1.918 . S
Fe91 O92 2.002 . S
Fe91 O101 1.976 . S
Fe91 O105 1.996 . S
Fe91 O108 1.997 . S
O92 Fe91 2.002 . S
O92 C109 1.295 . S
O93 Fe88 1.997 . S
O93 C109 1.235 . S
O94 Fe88 2.002 . S
O94 C95 1.295 . S
C95 O94 1.295 . S
C95 O97 1.235 . S
C96 O101 1.287 . S
C96 O102 1.255 . S
O97 Fe89 1.997 . S
O97 C95 1.235 . S
C98 O104 1.287 . S
C98 O105 1.255 . S
O99 Fe88 1.976 . S
O99 C106 1.287 . S
O100 Fe89 1.996 . S
O100 C106 1.255 . S
O101 Fe91 1.976 . S
O101 C96 1.287 . S
O102 Fe88 1.996 . S
O102 C96 1.255 . S
C103 O107 1.295 . S
C103 O108 1.235 . S
O104 Fe89 1.976 . S
O104 C98 1.287 . S
O105 Fe91 1.996 . S
O105 C98 1.255 . S
C106 O99 1.287 . S
C106 O100 1.255 . S
O107 Fe89 2.002 . S
O107 C103 1.295 . S
O108 Fe91 1.997 . S
O108 C103 1.235 . S
C109 O92 1.295 . S
C109 O93 1.235 . S
Fe110 O112 1.918 . S
Fe110 O115 1.997 . S
Fe110 O116 2.002 . S
Fe110 O121 1.976 . S
Fe110 O124 1.996 . S
Fe111 O112 1.918 . S
Fe111 O119 1.997 . S
Fe111 O122 1.996 . S
Fe111 O126 1.976 . S
Fe111 O129 2.002 . S
O112 Fe110 1.918 . S
O112 Fe111 1.918 . S
O112 Fe113 1.918 . S
Fe113 O112 1.918 . S
Fe113 O114 2.002 . S
Fe113 O123 1.976 . S
Fe113 O127 1.996 . S
Fe113 O130 1.997 . S
O114 Fe113 2.002 . S
O114 C131 1.295 . S
O115 Fe110 1.997 . S
O115 C131 1.235 . S
O116 Fe110 2.002 . S
O116 C117 1.295 . S
C117 O116 1.295 . S
C117 O119 1.235 . S
C118 O123 1.287 . S
C118 O124 1.255 . S
O119 Fe111 1.997 . S
O119 C117 1.235 . S
C120 O126 1.287 . S
C120 O127 1.255 . S
O121 Fe110 1.976 . S
O121 C128 1.287 . S
O122 Fe111 1.996 . S
O122 C128 1.255 . S
O123 Fe113 1.976 . S
O123 C118 1.287 . S
O124 Fe110 1.996 . S
O124 C118 1.255 . S
C125 O129 1.295 . S
C125 O130 1.235 . S
O126 Fe111 1.976 . S
O126 C120 1.287 . S
O127 Fe113 1.996 . S
O127 C120 1.255 . S
C128 O121 1.287 . S
C128 O122 1.255 . S
O129 Fe111 2.002 . S
O129 C125 1.295 . S
O130 Fe113 1.997 . S
O130 C125 1.235 . S
C131 O114 1.295 . S
C131 O115 1.235 . S
Fe132 O134 1.918 . S
Fe132 O137 1.997 . S
Fe132 O138 2.002 . S
Fe132 O143 1.976 . S
Fe132 O146 1.996 . S
Fe133 O134 1.918 . S
Fe133 O141 1.997 . S
Fe133 O144 1.996 . S
Fe133 O148 1.976 . S
Fe133 O151 2.002 . S
O134 Fe132 1.918 . S
O134 Fe133 1.918 . S
O134 Fe135 1.918 . S
Fe135 O134 1.918 . S
Fe135 O136 2.002 . S
Fe135 O145 1.976 . S
Fe135 O149 1.996 . S
Fe135 O152 1.997 . S
O136 Fe135 2.002 . S
O136 C153 1.295 . S
O137 Fe132 1.997 . S
O137 C153 1.235 . S
O138 Fe132 2.002 . S
O138 C139 1.295 . S
C139 O138 1.295 . S
C139 O141 1.235 . S
C140 O145 1.287 . S
C140 O146 1.255 . S
O141 Fe133 1.997 . S
O141 C139 1.235 . S
C142 O148 1.287 . S
C142 O149 1.255 . S
O143 Fe132 1.976 . S
O143 C150 1.287 . S
O144 Fe133 1.996 . S
O144 C150 1.255 . S
O145 Fe135 1.976 . S
O145 C140 1.287 . S
O146 Fe132 1.996 . S
O146 C140 1.255 . S
C147 O151 1.295 . S
C147 O152 1.235 . S
O148 Fe133 1.976 . S
O148 C142 1.287 . S
O149 Fe135 1.996 . S
O149 C142 1.255 . S
C150 O143 1.287 . S
C150 O144 1.255 . S
O151 Fe133 2.002 . S
O151 C147 1.295 . S
O152 Fe135 1.997 . S
O152 C147 1.235 . S
C153 O136 1.295 . S
C153 O137 1.235 . S
Fe154 O156 1.918 . S
Fe154 O159 1.997 . S
Fe154 O160 2.002 . S
Fe154 O165 1.976 . S
Fe154 O168 1.996 . S
Fe155 O156 1.918 . S
Fe155 O163 1.997 . S
Fe155 O166 1.996 . S
Fe155 O170 1.976 . S
Fe155 O173 2.002 . S
O156 Fe154 1.918 . S
O156 Fe155 1.918 . S
O156 Fe157 1.918 . S
Fe157 O156 1.918 . S
Fe157 O158 2.002 . S
Fe157 O167 1.976 . S
Fe157 O171 1.996 . S
Fe157 O174 1.997 . S
O158 Fe157 2.002 . S
O158 C175 1.295 . S
O159 Fe154 1.997 . S
O159 C175 1.235 . S
O160 Fe154 2.002 . S
O160 C161 1.295 . S
C161 O160 1.295 . S
C161 O163 1.235 . S
C162 O167 1.287 . S
C162 O168 1.255 . S
O163 Fe155 1.997 . S
O163 C161 1.235 . S
C164 O170 1.287 . S
C164 O171 1.255 . S
O165 Fe154 1.976 . S
O165 C172 1.287 . S
O166 Fe155 1.996 . S
O166 C172 1.255 . S
O167 Fe157 1.976 . S
O167 C162 1.287 . S
O168 Fe154 1.996 . S
O168 C162 1.255 . S
C169 O173 1.295 . S
C169 O174 1.235 . S
O170 Fe155 1.976 . S
O170 C164 1.287 . S
O171 Fe157 1.996 . S
O171 C164 1.255 . S
C172 O165 1.287 . S
C172 O166 1.255 . S
O173 Fe155 2.002 . S
O173 C169 1.295 . S
O174 Fe157 1.997 . S
O174 C169 1.235 . S
C175 O158 1.295 . S
C175 O159 1.235 . S
Fe176 O178 1.918 . S
Fe176 O181 1.997 . S
Fe176 O182 2.002 . S
Fe176 O187 1.976 . S
Fe176 O190 1.996 . S
Fe177 O178 1.918 . S
Fe177 O185 1.997 . S
Fe177 O188 1.996 . S
Fe177 O192 1.976 . S
Fe177 O195 2.002 . S
O178 Fe176 1.918 . S
O178 Fe177 1.918 . S
O178 Fe179 1.918 . S
Fe179 O178 1.918 . S
Fe179 O180 2.002 . S
Fe179 O189 1.976 . S
Fe179 O193 1.996 . S
Fe179 O196 1.997 . S
O180 Fe179 2.002 . S
O180 C197 1.295 . S
O181 Fe176 1.997 . S
O181 C197 1.235 . S
O182 Fe176 2.002 . S
O182 C183 1.295 . S
C183 O182 1.295 . S
C183 O185 1.235 . S
C184 O189 1.287 . S
C184 O190 1.255 . S
O185 Fe177 1.997 . S
O185 C183 1.235 . S
C186 O192 1.287 . S
C186 O193 1.255 . S
O187 Fe176 1.976 . S
O187 C194 1.287 . S
O188 Fe177 1.996 . S
O188 C194 1.255 . S
O189 Fe179 1.976 . S
O189 C184 1.287 . S
O190 Fe176 1.996 . S
O190 C184 1.255 . S
C191 O195 1.295 . S
C191 O196 1.235 . S
O192 Fe177 1.976 . S
O192 C186 1.287 . S
O193 Fe179 1.996 . S
O193 C186 1.255 . S
C194 O187 1.287 . S
C194 O188 1.255 . S
O195 Fe177 2.002 . S
O195 C191 1.295 . S
O196 Fe179 1.997 . S
O196 C191 1.235 . S
C197 O180 1.295 . S
C197 O181 1.235 . S
Fe198 O200 1.918 . S
Fe198 O203 1.997 . S
Fe198 O204 2.002 . S
Fe198 O209 1.976 . S
Fe198 O212 1.996 . S
Fe199 O200 1.918 . S
Fe199 O207 1.997 . S
Fe199 O210 1.996 . S
Fe199 O214 1.976 . S
Fe199 O217 2.002 . S
O200 Fe198 1.918 . S
O200 Fe199 1.918 . S
O200 Fe201 1.918 . S
Fe201 O200 1.918 . S
Fe201 O202 2.002 . S
Fe201 O211 1.976 . S
Fe201 O215 1.996 . S
Fe201 O218 1.997 . S
O202 Fe201 2.002 . S
O202 C219 1.295 . S
O203 Fe198 1.997 . S
O203 C219 1.235 . S
O204 Fe198 2.002 . S
O204 C205 1.295 . S
C205 O204 1.295 . S
C205 O207 1.235 . S
C206 O211 1.287 . S
C206 O212 1.255 . S
O207 Fe199 1.997 . S
O207 C205 1.235 . S
C208 O214 1.287 . S
C208 O215 1.255 . S
O209 Fe198 1.976 . S
O209 C216 1.287 . S
O210 Fe199 1.996 . S
O210 C216 1.255 . S
O211 Fe201 1.976 . S
O211 C206 1.287 . S
O212 Fe198 1.996 . S
O212 C206 1.255 . S
C213 O217 1.295 . S
C213 O218 1.235 . S
O214 Fe199 1.976 . S
O214 C208 1.287 . S
O215 Fe201 1.996 . S
O215 C208 1.255 . S
C216 O209 1.287 . S
C216 O210 1.255 . S
O217 Fe199 2.002 . S
O217 C213 1.295 . S
O218 Fe201 1.997 . S
O218 C213 1.235 . S
C219 O202 1.295 . S
C219 O203 1.235 . S
Fe220 O222 1.918 . S
Fe220 O225 1.997 . S
Fe220 O226 2.002 . S
Fe220 O231 1.976 . S
Fe220 O234 1.996 . S
Fe221 O222 1.918 . S
Fe221 O229 1.997 . S
Fe221 O232 1.996 . S
Fe221 O236 1.976 . S
Fe221 O239 2.002 . S
O222 Fe220 1.918 . S
O222 Fe221 1.918 . S
O222 Fe223 1.918 . S
Fe223 O222 1.918 . S
Fe223 O224 2.002 . S
Fe223 O233 1.976 . S
Fe223 O237 1.996 . S
Fe223 O240 1.997 . S
O224 Fe223 2.002 . S
O224 C241 1.295 . S
O225 Fe220 1.997 . S
O225 C241 1.235 . S
O226 Fe220 2.002 . S
O226 C227 1.295 . S
C227 O226 1.295 . S
C227 O229 1.235 . S
C228 O233 1.287 . S
C228 O234 1.255 . S
O229 Fe221 1.997 . S
O229 C227 1.235 . S
C230 O236 1.287 . S
C230 O237 1.255 . S
O231 Fe220 1.976 . S
O231 C238 1.287 . S
O232 Fe221 1.996 . S
O232 C238 1.255 . S
O233 Fe223 1.976 . S
O233 C228 1.287 . S
O234 Fe220 1.996 . S
O234 C228 1.255 . S
C235 O239 1.295 . S
C235 O240 1.235 . S
O236 Fe221 1.976 . S
O236 C230 1.287 . S
O237 Fe223 1.996 . S
O237 C230 1.255 . S
C238 O231 1.287 . S
C238 O232 1.255 . S
O239 Fe221 2.002 . S
O239 C235 1.295 . S
O240 Fe223 1.997 . S
O240 C235 1.235 . S
C241 O224 1.295 . S
C241 O225 1.235 . S
Fe242 O244 1.918 . S
Fe242 O247 1.997 . S
Fe242 O248 2.002 . S
Fe242 O253 1.976 . S
Fe242 O256 1.996 . S
Fe243 O244 1.918 . S
Fe243 O251 1.997 . S
Fe243 O254 1.996 . S
Fe243 O258 1.976 . S
Fe243 O261 2.002 . S
O244 Fe242 1.918 . S
O244 Fe243 1.918 . S
O244 Fe245 1.918 . S
Fe245 O244 1.918 . S
Fe245 O246 2.002 . S
Fe245 O255 1.976 . S
Fe245 O259 1.996 . S
Fe245 O262 1.997 . S
O246 Fe245 2.002 . S
O246 C263 1.295 . S
O247 Fe242 1.997 . S
O247 C263 1.235 . S
O248 Fe242 2.002 . S
O248 C249 1.295 . S
C249 O248 1.295 . S
C249 O251 1.235 . S
C250 O255 1.287 . S
C250 O256 1.255 . S
O251 Fe243 1.997 . S
O251 C249 1.235 . S
C252 O258 1.287 . S
C252 O259 1.255 . S
O253 Fe242 1.976 . S
O253 C260 1.287 . S
O254 Fe243 1.996 . S
O254 C260 1.255 . S
O255 Fe245 1.976 . S
O255 C250 1.287 . S
O256 Fe242 1.996 . S
O256 C250 1.255 . S
C257 O261 1.295 . S
C257 O262 1.235 . S
O258 Fe243 1.976 . S
O258 C252 1.287 . S
O259 Fe245 1.996 . S
O259 C252 1.255 . S
C260 O253 1.287 . S
C260 O254 1.255 . S
O261 Fe243 2.002 . S
O261 C257 1.295 . S
O262 Fe245 1.997 . S
O262 C257 1.235 . S
C263 O246 1.295 . S
C263 O247 1.235 . S
Fe264 O266 1.918 . S
Fe264 O269 1.997 . S
Fe264 O270 2.002 . S
Fe264 O275 1.976 . S
Fe264 O278 1.996 . S
Fe265 O266 1.918 . S
Fe265 O273 1.997 . S
Fe265 O276 1.996 . S
Fe265 O280 1.976 . S
Fe265 O283 2.002 . S
O266 Fe264 1.918 . S
O266 Fe265 1.918 . S
O266 Fe267 1.918 . S
Fe267 O266 1.918 . S
Fe267 O268 2.002 . S
Fe267 O277 1.976 . S
Fe267 O281 1.996 . S
Fe267 O284 1.997 . S
O268 Fe267 2.002 . S
O268 C285 1.295 . S
O269 Fe264 1.997 . S
O269 C285 1.235 . S
O270 Fe264 2.002 . S
O270 C271 1.295 . S
C271 O270 1.295 . S
C271 O273 1.235 . S
C272 O277 1.287 . S
C272 O278 1.255 . S
O273 Fe265 1.997 . S
O273 C271 1.235 . S
C274 O280 1.287 . S
C274 O281 1.255 . S
O275 Fe264 1.976 . S
O275 C282 1.287 . S
O276 Fe265 1.996 . S
O276 C282 1.255 . S
O277 Fe267 1.976 . S
O277 C272 1.287 . S
O278 Fe264 1.996 . S
O278 C272 1.255 . S
C279 O283 1.295 . S
C279 O284 1.235 . S
O280 Fe265 1.976 . S
O280 C274 1.287 . S
O281 Fe267 1.996 . S
O281 C274 1.255 . S
C282 O275 1.287 . S
C282 O276 1.255 . S
O283 Fe265 2.002 . S
O283 C279 1.295 . S
O284 Fe267 1.997 . S
O284 C279 1.235 . S
C285 O268 1.295 . S
C285 O269 1.235 . S
Fe286 O288 1.918 . S
Fe286 O291 1.997 . S
Fe286 O292 2.002 . S
Fe286 O297 1.976 . S
Fe286 O300 1.996 . S
Fe287 O288 1.918 . S
Fe287 O295 1.997 . S
Fe287 O298 1.996 . S
Fe287 O302 1.976 . S
Fe287 O305 2.002 . S
O288 Fe286 1.918 . S
O288 Fe287 1.918 . S
O288 Fe289 1.918 . S
Fe289 O288 1.918 . S
Fe289 O290 2.002 . S
Fe289 O299 1.976 . S
Fe289 O303 1.996 . S
Fe289 O306 1.997 . S
O290 Fe289 2.002 . S
O290 C307 1.295 . S
O291 Fe286 1.997 . S
O291 C307 1.235 . S
O292 Fe286 2.002 . S
O292 C293 1.295 . S
C293 O292 1.295 . S
C293 O295 1.235 . S
C294 O299 1.287 . S
C294 O300 1.255 . S
O295 Fe287 1.997 . S
O295 C293 1.235 . S
C296 O302 1.287 . S
C296 O303 1.255 . S
O297 Fe286 1.976 . S
O297 C304 1.287 . S
O298 Fe287 1.996 . S
O298 C304 1.255 . S
O299 Fe289 1.976 . S
O299 C294 1.287 . S
O300 Fe286 1.996 . S
O300 C294 1.255 . S
C301 O305 1.295 . S
C301 O306 1.235 . S
O302 Fe287 1.976 . S
O302 C296 1.287 . S
O303 Fe289 1.996 . S
O303 C296 1.255 . S
C304 O297 1.287 . S
C304 O298 1.255 . S
O305 Fe287 2.002 . S
O305 C301 1.295 . S
O306 Fe289 1.997 . S
O306 C301 1.235 . S
C307 O290 1.295 . S
C307 O291 1.235 . S
Fe308 O310 1.918 . S
Fe308 O313 1.997 . S
Fe308 O314 2.002 . S
Fe308 O319 1.976 . S
Fe308 O322 1.996 . S
Fe309 O310 1.918 . S
Fe309 O317 1.997 . S
Fe309 O320 1.996 . S
Fe309 O324 1.976 . S
Fe309 O327 2.002 . S
O310 Fe308 1.918 . S
O310 Fe309 1.918 . S
O310 Fe311 1.918 . S
Fe311 O310 1.918 . S
Fe311 O312 2.002 . S
Fe311 O321 1.976 . S
Fe311 O325 1.996 . S
Fe311 O328 1.997 . S
O312 Fe311 2.002 . S
O312 C329 1.295 . S
O313 Fe308 1.997 . S
O313 C329 1.235 . S
O314 Fe308 2.002 . S
O314 C315 1.295 . S
C315 O314 1.295 . S
C315 O317 1.235 . S
C316 O321 1.287 . S
C316 O322 1.255 . S
O317 Fe309 1.997 . S
O317 C315 1.235 . S
C318 O324 1.287 . S
C318 O325 1.255 . S
O319 Fe308 1.976 . S
O319 C326 1.287 . S
O320 Fe309 1.996 . S
O320 C326 1.255 . S
O321 Fe311 1.976 . S
O321 C316 1.287 . S
O322 Fe308 1.996 . S
O322 C316 1.255 . S
C323 O327 1.295 . S
C323 O328 1.235 . S
O324 Fe309 1.976 . S
O324 C318 1.287 . S
O325 Fe311 1.996 . S
O325 C318 1.255 . S
C326 O319 1.287 . S
C326 O320 1.255 . S
O327 Fe309 2.002 . S
O327 C323 1.295 . S
O328 Fe311 1.997 . S
O328 C323 1.235 . S
C329 O312 1.295 . S
C329 O313 1.235 . S
Fe330 O332 1.918 . S
Fe330 O335 1.997 . S
Fe330 O336 2.002 . S
Fe330 O341 1.976 . S
Fe330 O344 1.996 . S
Fe331 O332 1.918 . S
Fe331 O339 1.997 . S
Fe331 O342 1.996 . S
Fe331 O346 1.976 . S
Fe331 O349 2.002 . S
O332 Fe330 1.918 . S
O332 Fe331 1.918 . S
O332 Fe333 1.918 . S
Fe333 O332 1.918 . S
Fe333 O334 2.002 . S
Fe333 O343 1.976 . S
Fe333 O347 1.996 . S
Fe333 O350 1.997 . S
O334 Fe333 2.002 . S
O334 C351 1.295 . S
O335 Fe330 1.997 . S
O335 C351 1.235 . S
O336 Fe330 2.002 . S
O336 C337 1.295 . S
C337 O336 1.295 . S
C337 O339 1.235 . S
C338 O343 1.287 . S
C338 O344 1.255 . S
O339 Fe331 1.997 . S
O339 C337 1.235 . S
C340 O346 1.287 . S
C340 O347 1.255 . S
O341 Fe330 1.976 . S
O341 C348 1.287 . S
O342 Fe331 1.996 . S
O342 C348 1.255 . S
O343 Fe333 1.976 . S
O343 C338 1.287 . S
O344 Fe330 1.996 . S
O344 C338 1.255 . S
C345 O349 1.295 . S
C345 O350 1.235 . S
O346 Fe331 1.976 . S
O346 C340 1.287 . S
O347 Fe333 1.996 . S
O347 C340 1.255 . S
C348 O341 1.287 . S
C348 O342 1.255 . S
O349 Fe331 2.002 . S
O349 C345 1.295 . S
O350 Fe333 1.997 . S
O350 C345 1.235 . S
C351 O334 1.295 . S
C351 O335 1.235 . S
C352 C353 1.391 . S
C352 C354 1.394 . S
C352 H368 0.931 . S
C353 C352 1.391 . S
C353 C357 1.376 . S
C354 C352 1.394 . S
C354 C355 1.369 . S
C354 C358 1.531 1_554 S
C355 C354 1.369 . S
C355 C356 1.410 . S
C355 C363 1.503 . S
C356 C355 1.410 . S
C356 C357 1.392 . S
C356 C359 1.511 . S
C357 C353 1.376 . S
C357 C356 1.392 . S
C357 H369 0.929 . S
C358 C354 1.531 1_556 S
C358 H370 0.960 . S
C358 H371 0.962 . S
C358 H372 0.960 . S
C359 C356 1.511 . S
C359 H373 0.961 . S
C359 H374 0.961 1_545 S
C359 H375 0.961 1_545 S
C360 C361 1.370 . S
C360 C362 1.363 1_565 S
C360 H376 0.931 . S
C361 C360 1.370 . S
C361 C365 1.408 . S
C362 C360 1.363 1_545 S
C362 C363 1.370 1_556 S
C362 C366 1.524 . S
C363 C355 1.503 . S
C363 C362 1.370 1_554 S
C363 C364 1.403 1_545 S
C364 C363 1.403 1_565 S
C364 C365 1.404 1_554 S
C364 C367 1.539 . S
C365 C361 1.408 . S
C365 C364 1.404 1_556 S
C365 H377 0.930 . S
C366 C362 1.524 . S
C366 H378 0.956 . S
C366 H379 0.961 1_556 S
C366 H380 0.961 . S
C367 C364 1.539 . S
C367 H381 0.958 . S
C367 H382 0.961 . S
C367 H383 0.960 . S
H368 C352 0.931 . S
H369 C357 0.929 . S
H370 C358 0.960 . S
H371 C358 0.962 . S
H372 C358 0.960 . S
H373 C359 0.961 . S
H374 C359 0.961 1_565 S
H375 C359 0.961 1_565 S
H376 C360 0.931 . S
H377 C365 0.930 . S
H378 C366 0.956 . S
H379 C366 0.961 1_554 S
H380 C366 0.961 . S
H381 C367 0.958 . S
H382 C367 0.961 . S
H383 C367 0.960 . S
C384 C385 1.391 . S
C384 C386 1.394 1_545 S
C384 H400 0.931 . S
C385 C384 1.391 . S
C385 C389 1.376 . S
C386 C384 1.394 1_565 S
C386 C387 1.371 1_556 S
C386 C390 1.531 . S
C387 C386 1.371 1_554 S
C387 C388 1.410 1_564 S
C387 C395 1.501 . S
C388 C387 1.410 1_546 S
C388 C389 1.392 . S
C388 C391 1.511 1_546 S
C389 C385 1.376 . S
C389 C388 1.392 . S
C389 H401 0.929 . S
C390 C386 1.531 . S
C390 H402 0.960 . S
C390 H403 0.962 1_556 S
C390 H404 0.960 . S
C391 C388 1.511 1_564 S
C391 H405 0.961 1_565 S
C391 H406 0.961 . S
C391 H407 0.961 . S
C392 C393 1.370 . S
C392 C394 1.363 . S
C392 H408 0.931 . S
C393 C392 1.370 . S
C393 C397 1.408 . S
C394 C392 1.363 . S
C394 C395 1.370 . S
C394 C398 1.524 . S
C395 C387 1.501 . S
C395 C394 1.370 . S
C395 C396 1.403 . S
C396 C395 1.403 . S
C396 C397 1.404 . S
C396 C399 1.539 1_554 S
C397 C393 1.408 . S
C397 C396 1.404 . S
C397 H409 0.930 . S
C398 C394 1.524 . S
C398 H410 0.956 1_565 S
C398 H411 0.961 1_565 S
C398 H412 0.961 . S
C399 C396 1.539 1_556 S
C399 H413 0.958 . S
C399 H414 0.961 . S
C399 H415 0.960 . S
H400 C384 0.931 . S
H401 C389 0.929 . S
H402 C390 0.960 . S
H403 C390 0.962 1_554 S
H404 C390 0.960 . S
H405 C391 0.961 1_545 S
H406 C391 0.961 . S
H407 C391 0.961 . S
H408 C392 0.931 . S
H409 C397 0.930 . S
H410 C398 0.956 1_545 S
H411 C398 0.961 1_545 S
H412 C398 0.961 . S
H413 C399 0.958 . S
H414 C399 0.961 . S
H415 C399 0.960 . S
C416 C417 1.391 . S
C416 C418 1.394 . S
C416 H432 0.931 . S
C417 C416 1.391 . S
C417 C421 1.376 . S
C418 C416 1.394 . S
C418 C419 1.369 1_545 S
C418 C422 1.531 . S
C419 C418 1.369 1_565 S
C419 C420 1.410 . S
C419 C427 1.503 . S
C420 C419 1.410 . S
C420 C421 1.392 1_565 S
C420 C423 1.511 . S
C421 C417 1.376 . S
C421 C420 1.392 1_545 S
C421 H433 0.929 . S
C422 C418 1.531 . S
C422 H434 0.960 . S
C422 H435 0.962 . S
C422 H436 0.960 . S
C423 C420 1.511 . S
C423 H437 0.961 . S
C423 H438 0.961 . S
C423 H439 0.961 . S
C424 C425 1.370 . S
C424 C426 1.363 . S
C424 H440 0.931 . S
C425 C424 1.370 . S
C425 C429 1.408 . S
C426 C424 1.363 . S
C426 C427 1.370 . S
C426 C430 1.524 . S
C427 C419 1.503 . S
C427 C426 1.370 . S
C427 C428 1.403 . S
C428 C427 1.403 . S
C428 C429 1.404 . S
C428 C431 1.539 . S
C429 C425 1.408 . S
C429 C428 1.404 . S
C429 H441 0.930 . S
C430 C426 1.524 . S
C430 H442 0.956 . S
C430 H443 0.961 . S
C430 H444 0.961 . S
C431 C428 1.539 . S
C431 H445 0.958 . S
C431 H446 0.961 . S
C431 H447 0.960 . S
H432 C416 0.931 . S
H433 C421 0.929 . S
H434 C422 0.960 . S
H435 C422 0.962 . S
H436 C422 0.960 . S
H437 C423 0.961 . S
H438 C423 0.961 . S
H439 C423 0.961 . S
H440 C424 0.931 . S
H441 C429 0.930 . S
H442 C430 0.956 . S
H443 C430 0.961 . S
H444 C430 0.961 . S
H445 C431 0.958 . S
H446 C431 0.961 . S
H447 C431 0.960 . S
C448 C449 1.391 . S
C448 C450 1.394 . S
C448 H464 0.931 . S
C449 C448 1.391 . S
C449 C453 1.376 . S
C450 C448 1.394 . S
C450 C451 1.369 1_565 S
C450 C454 1.531 . S
C451 C450 1.369 1_545 S
C451 C452 1.410 . S
C451 C459 1.503 . S
C452 C451 1.410 . S
C452 C453 1.392 1_545 S
C452 C455 1.511 . S
C453 C449 1.376 . S
C453 C452 1.392 1_565 S
C453 H465 0.929 . S
C454 C450 1.531 . S
C454 H466 0.960 . S
C454 H467 0.962 1_565 S
C454 H468 0.960 . S
C455 C452 1.511 . S
C455 H469 0.961 . S
C455 H470 0.961 . S
C455 H471 0.961 . S
C456 C457 1.370 . S
C456 C458 1.363 . S
C456 H472 0.931 . S
C457 C456 1.370 . S
C457 C461 1.408 . S
C458 C456 1.363 . S
C458 C459 1.370 . S
C458 C462 1.524 . S
C459 C451 1.503 . S
C459 C458 1.370 . S
C459 C460 1.403 . S
C460 C459 1.403 . S
C460 C461 1.404 . S
C460 C463 1.539 . S
C461 C457 1.408 . S
C461 C460 1.404 . S
C461 H473 0.930 . S
C462 C458 1.524 . S
C462 H474 0.956 . S
C462 H475 0.961 . S
C462 H476 0.961 . S
C463 C460 1.539 . S
C463 H477 0.958 1_545 S
C463 H478 0.961 . S
C463 H479 0.960 1_545 S
H464 C448 0.931 . S
H465 C453 0.929 . S
H466 C454 0.960 . S
H467 C454 0.962 1_545 S
H468 C454 0.960 . S
H469 C455 0.961 . S
H470 C455 0.961 . S
H471 C455 0.961 . S
H472 C456 0.931 . S
H473 C461 0.930 . S
H474 C462 0.956 . S
H475 C462 0.961 . S
H476 C462 0.961 . S
H477 C463 0.958 1_565 S
H478 C463 0.961 . S
H479 C463 0.960 1_565 S
C480 C481 1.391 . S
C480 C482 1.394 1_545 S
C480 H496 0.931 . S
C481 C480 1.391 . S
C481 C485 1.376 . S
C482 C480 1.394 1_565 S
C482 C483 1.360 1_554 S
C482 C486 1.531 . S
C483 C482 1.360 1_556 S
C483 C484 1.409 1_566 S
C483 C491 1.515 . S
C484 C483 1.409 1_544 S
C484 C485 1.392 . S
C484 C487 1.511 1_554 S
C485 C481 1.376 . S
C485 C484 1.392 . S
C485 H497 0.929 . S
C486 C482 1.531 . S
C486 H498 0.960 . S
C486 H499 0.962 1_554 S
C486 H500 0.960 . S
C487 C484 1.511 1_556 S
C487 H501 0.961 . S
C487 H502 0.961 1_545 S
C487 H503 0.961 1_545 S
C488 C489 1.370 . S
C488 C490 1.363 . S
C488 H504 0.931 . S
C489 C488 1.370 . S
C489 C493 1.408 . S
C490 C488 1.363 . S
C490 C491 1.370 . S
C490 C494 1.524 . S
C491 C483 1.515 . S
C491 C490 1.370 . S
C491 C492 1.403 . S
C492 C491 1.403 . S
C492 C493 1.404 . S
C492 C495 1.539 1_556 S
C493 C489 1.408 . S
C493 C492 1.404 . S
C493 H505 0.930 . S
C494 C490 1.524 . S
C494 H506 0.956 . S
C494 H507 0.961 1_565 S
C494 H508 0.961 . S
C495 C492 1.539 1_554 S
C495 H509 0.958 . S
C495 H510 0.961 . S
C495 H511 0.960 . S
H496 C480 0.931 . S
H497 C485 0.929 . S
H498 C486 0.960 . S
H499 C486 0.962 1_556 S
H500 C486 0.960 . S
H501 C487 0.961 . S
H502 C487 0.961 1_565 S
H503 C487 0.961 1_565 S
H504 C488 0.931 . S
H505 C493 0.930 . S
H506 C494 0.956 . S
H507 C494 0.961 1_545 S
H508 C494 0.961 . S
H509 C495 0.958 . S
H510 C495 0.961 . S
H511 C495 0.960 . S
C512 C513 1.391 . S
C512 C514 1.394 . S
C512 H528 0.931 . S
C513 C512 1.391 . S
C513 C517 1.376 . S
C514 C512 1.394 . S
C514 C515 1.369 . S
C514 C518 1.531 . S
C515 C514 1.369 . S
C515 C516 1.410 . S
C515 C523 1.503 . S
C516 C515 1.410 . S
C516 C517 1.392 . S
C516 C519 1.511 . S
C517 C513 1.376 . S
C517 C516 1.392 . S
C517 H529 0.929 . S
C518 C514 1.531 . S
C518 H530 0.960 . S
C518 H531 0.962 . S
C518 H532 0.960 . S
C519 C516 1.511 . S
C519 H533 0.961 . S
C519 H534 0.961 . S
C519 H535 0.961 . S
C520 C521 1.370 . S
C520 C522 1.363 1_565 S
C520 H536 0.931 . S
C521 C520 1.370 . S
C521 C525 1.370 1_554 S
C522 C520 1.363 1_545 S
C522 C523 1.370 1_554 S
C522 C526 1.524 . S
C523 C515 1.503 . S
C523 C522 1.370 1_556 S
C523 C524 1.403 1_545 S
C524 C523 1.403 1_565 S
C524 C525 1.429 . S
C524 C527 1.539 . S
C525 C521 1.370 1_556 S
C525 C524 1.429 . S
C525 H537 0.944 . S
C526 C522 1.524 . S
C526 H538 0.956 . S
C526 H539 0.961 . S
C526 H540 0.961 . S
C527 C524 1.539 . S
C527 H541 0.958 . S
C527 H542 0.961 . S
C527 H543 0.960 . S
H528 C512 0.931 . S
H529 C517 0.929 . S
H530 C518 0.960 . S
H531 C518 0.962 . S
H532 C518 0.960 . S
H533 C519 0.961 . S
H534 C519 0.961 . S
H535 C519 0.961 . S
H536 C520 0.931 . S
H537 C525 0.944 . S
H538 C526 0.956 . S
H539 C526 0.961 . S
H540 C526 0.961 . S
H541 C527 0.958 . S
H542 C527 0.961 . S
H543 C527 0.960 . S
C544 C545 1.391 . S
C544 C546 1.394 . S
C544 H560 0.931 . S
C545 C544 1.391 . S
C545 C549 1.376 . S
C546 C544 1.394 . S
C546 C547 1.369 1_565 S
C546 C550 1.531 . S
C547 C546 1.369 1_545 S
C547 C548 1.410 . S
C547 C555 1.503 . S
C548 C547 1.410 . S
C548 C549 1.392 1_545 S
C548 C551 1.511 . S
C549 C545 1.376 . S
C549 C548 1.392 1_565 S
C549 H561 0.929 . S
C550 C546 1.531 . S
C550 H562 0.960 . S
C550 H563 0.962 . S
C550 H564 0.960 . S
C551 C548 1.511 . S
C551 H565 0.961 . S
C551 H566 0.961 . S
C551 H567 0.961 . S
C552 C553 1.370 . S
C552 C554 1.363 . S
C552 H568 0.931 . S
C553 C552 1.370 . S
C553 C557 1.408 . S
C554 C552 1.363 . S
C554 C555 1.370 . S
C554 C558 1.524 . S
C555 C547 1.503 . S
C555 C554 1.370 . S
C555 C556 1.403 . S
C556 C555 1.403 . S
C556 C557 1.404 . S
C556 C559 1.539 . S
C557 C553 1.408 . S
C557 C556 1.404 . S
C557 H569 0.930 . S
C558 C554 1.524 . S
C558 H570 0.956 . S
C558 H571 0.961 . S
C558 H572 0.961 . S
C559 C556 1.539 . S
C559 H573 0.958 . S
C559 H574 0.961 . S
C559 H575 0.960 . S
H560 C544 0.931 . S
H561 C549 0.929 . S
H562 C550 0.960 . S
H563 C550 0.962 . S
H564 C550 0.960 . S
H565 C551 0.961 . S
H566 C551 0.961 . S
H567 C551 0.961 . S
H568 C552 0.931 . S
H569 C557 0.930 . S
H570 C558 0.956 . S
H571 C558 0.961 . S
H572 C558 0.961 . S
H573 C559 0.958 . S
H574 C559 0.961 . S
H575 C559 0.960 . S
C576 C577 1.391 . S
C576 C578 1.394 . S
C576 H592 0.931 . S
C577 C576 1.391 . S
C577 C581 1.376 . S
C578 C576 1.394 . S
C578 C579 1.369 . S
C578 C582 1.531 . S
C579 C578 1.369 . S
C579 C580 1.410 . S
C579 C587 1.503 . S
C580 C579 1.410 . S
C580 C581 1.392 . S
C580 C583 1.511 . S
C581 C577 1.376 . S
C581 C580 1.392 . S
C581 H593 0.929 . S
C582 C578 1.531 . S
C582 H594 0.960 . S
C582 H595 0.962 . S
C582 H596 0.960 . S
C583 C580 1.511 . S
C583 H597 0.961 . S
C583 H598 0.961 1_565 S
C583 H599 0.961 . S
C584 C585 1.370 . S
C584 C586 1.363 . S
C584 H600 0.931 . S
C585 C584 1.370 . S
C585 C589 1.408 . S
C586 C584 1.363 . S
C586 C587 1.370 1_545 S
C586 C590 1.524 . S
C587 C579 1.503 . S
C587 C586 1.370 1_565 S
C587 C588 1.403 . S
C588 C587 1.403 . S
C588 C589 1.404 1_565 S
C588 C591 1.539 . S
C589 C585 1.408 . S
C589 C588 1.404 1_545 S
C589 H601 0.930 . S
C590 C586 1.524 . S
C590 H602 0.956 1_545 S
C590 H603 0.961 . S
C590 H604 0.961 . S
C591 C588 1.539 . S
C591 H605 0.958 . S
C591 H606 0.961 . S
C591 H607 0.960 . S
H592 C576 0.931 . S
H593 C581 0.929 . S
H594 C582 0.960 . S
H595 C582 0.962 . S
H596 C582 0.960 . S
H597 C583 0.961 . S
H598 C583 0.961 1_545 S
H599 C583 0.961 . S
H600 C584 0.931 . S
H601 C589 0.930 . S
H602 C590 0.956 1_565 S
H603 C590 0.961 . S
H604 C590 0.961 . S
H605 C591 0.958 . S
H606 C591 0.961 . S
H607 C591 0.960 . S
C608 C609 1.391 . S
C608 C610 1.394 . S
C608 H624 0.931 . S
C609 C608 1.391 . S
C609 C613 1.376 . S
C610 C608 1.394 . S
C610 C611 1.369 1_556 S
C610 C614 1.531 . S
C611 C610 1.369 1_554 S
C611 C612 1.410 . S
C611 C619 1.503 . S
C612 C611 1.410 . S
C612 C613 1.392 1_554 S
C612 C615 1.511 . S
C613 C609 1.376 . S
C613 C612 1.392 1_556 S
C613 H625 0.929 1_556 S
C614 C610 1.531 . S
C614 H626 0.960 . S
C614 H627 0.962 . S
C614 H628 0.960 . S
C615 C612 1.511 . S
C615 H629 0.961 . S
C615 H630 0.961 . S
C615 H631 0.961 . S
C616 C617 1.370 . S
C616 C618 1.363 . S
C616 H632 0.931 . S
C617 C616 1.370 . S
C617 C621 1.408 . S
C618 C616 1.363 . S
C618 C619 1.370 . S
C618 C622 1.524 . S
C619 C611 1.503 . S
C619 C618 1.370 . S
C619 C620 1.403 . S
C620 C619 1.403 . S
C620 C621 1.404 . S
C620 C623 1.539 . S
C621 C617 1.408 . S
C621 C620 1.404 . S
C621 H633 0.930 . S
C622 C618 1.524 . S
C622 H634 0.956 1_554 S
C622 H635 0.961 . S
C622 H636 0.961 . S
C623 C620 1.539 . S
C623 H637 0.958 . S
C623 H638 0.961 . S
C623 H639 0.960 . S
H624 C608 0.931 . S
H625 C613 0.929 1_554 S
H626 C614 0.960 . S
H627 C614 0.962 . S
H628 C614 0.960 . S
H629 C615 0.961 . S
H630 C615 0.961 . S
H631 C615 0.961 . S
H632 C616 0.931 . S
H633 C621 0.930 . S
H634 C622 0.956 1_556 S
H635 C622 0.961 . S
H636 C622 0.961 . S
H637 C623 0.958 . S
H638 C623 0.961 . S
H639 C623 0.960 . S
C640 C641 1.391 . S
C640 C642 1.394 . S
C640 H656 0.931 . S
C641 C640 1.391 . S
C641 C645 1.376 . S
C642 C640 1.394 . S
C642 C643 1.369 . S
C642 C646 1.531 . S
C643 C642 1.369 . S
C643 C644 1.410 . S
C643 C651 1.503 . S
C644 C643 1.410 . S
C644 C645 1.392 . S
C644 C647 1.511 1_554 S
C645 C641 1.376 . S
C645 C644 1.392 . S
C645 H657 0.929 . S
C646 C642 1.531 . S
C646 H658 0.960 . S
C646 H659 0.962 . S
C646 H660 0.960 . S
C647 C644 1.511 1_556 S
C647 H661 0.961 . S
C647 H662 0.961 . S
C647 H663 0.961 . S
C648 C649 1.370 . S
C648 C650 1.363 . S
C648 H664 0.931 . S
C649 C648 1.370 . S
C649 C653 1.408 . S
C650 C648 1.363 . S
C650 C651 1.370 1_556 S
C650 C654 1.524 1_556 S
C651 C643 1.503 . S
C651 C650 1.370 1_554 S
C651 C652 1.403 1_554 S
C652 C651 1.403 1_556 S
C652 C653 1.404 . S
C652 C655 1.539 1_556 S
C653 C649 1.408 . S
C653 C652 1.404 . S
C653 H665 0.930 . S
C654 C650 1.524 1_554 S
C654 H666 0.956 . S
C654 H667 0.961 . S
C654 H668 0.960 1_554 S
C655 C652 1.539 1_554 S
C655 H669 0.958 . S
C655 H670 0.961 1_554 S
C655 H671 0.960 . S
H656 C640 0.931 . S
H657 C645 0.929 . S
H658 C646 0.960 . S
H659 C646 0.962 . S
H660 C646 0.960 . S
H661 C647 0.961 . S
H662 C647 0.961 . S
H663 C647 0.961 . S
H664 C648 0.931 . S
H665 C653 0.930 . S
H666 C654 0.956 . S
H667 C654 0.961 . S
H668 C654 0.960 1_556 S
H669 C655 0.958 . S
H670 C655 0.961 1_556 S
H671 C655 0.960 . S
C672 C673 1.391 . S
C672 C674 1.394 . S
C672 H688 0.931 . S
C673 C672 1.391 . S
C673 C677 1.376 . S
C674 C672 1.394 . S
C674 C675 1.369 . S
C674 C678 1.531 . S
C675 C674 1.369 . S
C675 C676 1.410 . S
C675 C683 1.503 . S
C676 C675 1.410 . S
C676 C677 1.392 . S
C676 C679 1.511 . S
C677 C673 1.376 . S
C677 C676 1.392 . S
C677 H689 0.929 . S
C678 C674 1.531 . S
C678 H690 0.960 . S
C678 H691 0.962 . S
C678 H692 0.960 . S
C679 C676 1.511 . S
C679 H693 0.961 . S
C679 H694 0.961 . S
C679 H695 0.961 . S
C680 C681 1.370 . S
C680 C682 1.363 . S
C680 H696 0.931 . S
C681 C680 1.370 . S
C681 C685 1.408 . S
C682 C680 1.363 . S
C682 C683 1.370 . S
C682 C686 1.524 . S
C683 C675 1.503 . S
C683 C682 1.370 . S
C683 C684 1.403 . S
C684 C683 1.403 . S
C684 C685 1.404 . S
C684 C687 1.539 . S
C685 C681 1.408 . S
C685 C684 1.404 . S
C685 H697 0.930 . S
C686 C682 1.524 . S
C686 H698 0.956 . S
C686 H699 0.961 . S
C686 H700 0.961 . S
C687 C684 1.539 . S
C687 H701 0.958 . S
C687 H702 0.961 . S
C687 H703 0.960 . S
H688 C672 0.931 . S
H689 C677 0.929 . S
H690 C678 0.960 . S
H691 C678 0.962 . S
H692 C678 0.960 . S
H693 C679 0.961 . S
H694 C679 0.961 . S
H695 C679 0.961 . S
H696 C680 0.931 . S
H697 C685 0.930 . S
H698 C686 0.956 . S
H699 C686 0.961 . S
H700 C686 0.961 . S
H701 C687 0.958 . S
H702 C687 0.961 . S
H703 C687 0.960 . S
C704 C705 1.391 . S
C704 C706 1.394 . S
C704 H720 0.931 . S
C705 C704 1.391 . S
C705 C709 1.376 . S
C706 C704 1.394 . S
C706 C707 1.369 . S
C706 C710 1.531 . S
C707 C706 1.369 . S
C707 C708 1.410 . S
C707 C715 1.503 . S
C708 C707 1.410 . S
C708 C709 1.392 . S
C708 C711 1.511 . S
C709 C705 1.376 . S
C709 C708 1.392 . S
C709 H721 0.929 . S
C710 C706 1.531 . S
C710 H722 0.960 . S
C710 H723 0.962 . S
C710 H724 0.960 . S
C711 C708 1.511 . S
C711 H725 0.961 . S
C711 H726 0.961 . S
C711 H727 0.961 . S
C712 C713 1.370 . S
C712 C714 1.363 . S
C712 H728 0.931 . S
C713 C712 1.370 . S
C713 C717 1.408 . S
C714 C712 1.363 . S
C714 C715 1.370 . S
C714 C718 1.524 . S
C715 C707 1.503 . S
C715 C714 1.370 . S
C715 C716 1.403 . S
C716 C715 1.403 . S
C716 C717 1.404 . S
C716 C719 1.539 . S
C717 C713 1.408 . S
C717 C716 1.404 . S
C717 H729 0.930 . S
C718 C714 1.524 . S
C718 H730 0.956 . S
C718 H731 0.961 . S
C718 H732 0.961 . S
C719 C716 1.539 . S
C719 H733 0.958 . S
C719 H734 0.961 . S
C719 H735 0.960 . S
H720 C704 0.931 . S
H721 C709 0.929 . S
H722 C710 0.960 . S
H723 C710 0.962 . S
H724 C710 0.960 . S
H725 C711 0.961 . S
H726 C711 0.961 . S
H727 C711 0.961 . S
H728 C712 0.931 . S
H729 C717 0.930 . S
H730 C718 0.956 . S
H731 C718 0.961 . S
H732 C718 0.961 . S
H733 C719 0.958 . S
H734 C719 0.961 . S
H735 C719 0.960 . S
C736 C737 1.391 . S
C736 C738 1.394 . S
C736 H752 0.931 . S
C737 C736 1.391 . S
C737 C741 1.376 . S
C738 C736 1.394 . S
C738 C739 1.369 . S
C738 C742 1.531 1_556 S
C739 C738 1.369 . S
C739 C740 1.410 . S
C739 C747 1.503 . S
C740 C739 1.410 . S
C740 C741 1.392 . S
C740 C743 1.511 . S
C741 C737 1.376 . S
C741 C740 1.392 . S
C741 H753 0.929 . S
C742 C738 1.531 1_554 S
C742 H754 0.960 . S
C742 H755 0.962 . S
C742 H756 0.960 . S
C743 C740 1.511 . S
C743 H757 0.961 . S
C743 H758 0.961 . S
C743 H759 0.961 . S
C744 C745 1.370 . S
C744 C746 1.363 1_554 S
C744 H760 0.931 . S
C745 C744 1.370 . S
C745 C749 1.408 . S
C746 C744 1.363 1_556 S
C746 C747 1.370 . S
C746 C750 1.524 . S
C747 C739 1.503 . S
C747 C746 1.370 . S
C747 C748 1.403 1_556 S
C748 C747 1.403 1_554 S
C748 C749 1.404 . S
C748 C751 1.539 . S
C749 C745 1.408 . S
C749 C748 1.404 . S
C749 H761 0.930 . S
C750 C746 1.524 . S
C750 H762 0.956 . S
C750 H763 0.961 . S
C750 H764 0.961 . S
C751 C748 1.539 . S
C751 H765 0.958 . S
C751 H766 0.961 . S
C751 H767 0.960 . S
H752 C736 0.931 . S
H753 C741 0.929 . S
H754 C742 0.960 . S
H755 C742 0.962 . S
H756 C742 0.960 . S
H757 C743 0.961 . S
H758 C743 0.961 . S
H759 C743 0.961 . S
H760 C744 0.931 . S
H761 C749 0.930 . S
H762 C750 0.956 . S
H763 C750 0.961 . S
H764 C750 0.961 . S
H765 C751 0.958 . S
H766 C751 0.961 . S
H767 C751 0.960 . S
C768 C769 1.391 . S
C768 C770 1.394 . S
C768 H784 0.931 . S
C769 C768 1.391 . S
C769 C773 1.376 . S
C770 C768 1.394 . S
C770 C771 1.369 1_554 S
C770 C774 1.531 . S
C771 C770 1.369 1_556 S
C771 C772 1.410 . S
C771 C779 1.503 . S
C772 C771 1.410 . S
C772 C773 1.392 1_556 S
C772 C775 1.511 . S
C773 C769 1.376 . S
C773 C772 1.392 1_554 S
C773 H785 0.929 . S
C774 C770 1.531 . S
C774 H786 0.960 . S
C774 H787 0.962 . S
C774 H788 0.960 . S
C775 C772 1.511 . S
C775 H789 0.961 . S
C775 H790 0.961 . S
C775 H791 0.961 . S
C776 C777 1.370 . S
C776 C778 1.363 . S
C776 H792 0.931 . S
C777 C776 1.370 . S
C777 C781 1.408 . S
C778 C776 1.363 . S
C778 C779 1.370 . S
C778 C782 1.524 . S
C779 C771 1.503 . S
C779 C778 1.370 . S
C779 C780 1.403 . S
C780 C779 1.403 . S
C780 C781 1.404 . S
C780 C783 1.539 1_556 S
C781 C777 1.408 . S
C781 C780 1.404 . S
C781 H793 0.930 . S
C782 C778 1.524 . S
C782 H794 0.956 . S
C782 H795 0.961 . S
C782 H796 0.961 . S
C783 C780 1.539 1_554 S
C783 H797 0.958 . S
C783 H798 0.961 . S
C783 H799 0.960 . S
H784 C768 0.931 . S
H785 C773 0.929 . S
H786 C774 0.960 . S
H787 C774 0.962 . S
H788 C774 0.960 . S
H789 C775 0.961 . S
H790 C775 0.961 . S
H791 C775 0.961 . S
H792 C776 0.931 . S
H793 C781 0.930 . S
H794 C782 0.956 . S
H795 C782 0.961 . S
H796 C782 0.961 . S
H797 C783 0.958 . S
H798 C783 0.961 . S
H799 C783 0.960 . S
C800 C801 1.391 . S
C800 C802 1.394 . S
C800 H816 0.931 . S
C801 C800 1.391 . S
C801 C805 1.376 . S
C802 C800 1.394 . S
C802 C803 1.369 . S
C802 C806 1.531 . S
C803 C802 1.369 . S
C803 C804 1.410 . S
C803 C811 1.503 . S
C804 C803 1.410 . S
C804 C805 1.392 . S
C804 C807 1.511 . S
C805 C801 1.376 . S
C805 C804 1.392 . S
C805 H817 0.929 . S
C806 C802 1.531 . S
C806 H818 0.960 . S
C806 H819 0.962 . S
C806 H820 0.960 . S
C807 C804 1.511 . S
C807 H821 0.961 . S
C807 H822 0.961 . S
C807 H823 0.961 . S
C808 C809 1.370 . S
C808 C810 1.363 . S
C808 H824 0.931 . S
C809 C808 1.370 . S
C809 C813 1.408 . S
C810 C808 1.363 . S
C810 C811 1.370 . S
C810 C814 1.524 . S
C811 C803 1.503 . S
C811 C810 1.370 . S
C811 C812 1.403 . S
C812 C811 1.403 . S
C812 C813 1.404 . S
C812 C815 1.539 . S
C813 C809 1.408 . S
C813 C812 1.404 . S
C813 H825 0.930 . S
C814 C810 1.524 . S
C814 H826 0.956 . S
C814 H827 0.961 . S
C814 H828 0.961 . S
C815 C812 1.539 . S
C815 H829 0.958 . S
C815 H830 0.961 . S
C815 H831 0.960 . S
H816 C800 0.931 . S
H817 C805 0.929 . S
H818 C806 0.960 . S
H819 C806 0.962 . S
H820 C806 0.960 . S
H821 C807 0.961 . S
H822 C807 0.961 . S
H823 C807 0.961 . S
H824 C808 0.931 . S
H825 C813 0.930 . S
H826 C814 0.956 . S
H827 C814 0.961 . S
H828 C814 0.961 . S
H829 C815 0.958 . S
H830 C815 0.961 . S
H831 C815 0.960 . S
C832 C833 1.391 . S
C832 C834 1.394 . S
C832 H848 0.931 . S
C833 C832 1.391 . S
C833 C837 1.376 . S
C834 C832 1.394 . S
C834 C835 1.369 . S
C834 C838 1.531 . S
C835 C834 1.369 . S
C835 C836 1.410 . S
C835 C843 1.503 . S
C836 C835 1.410 . S
C836 C837 1.392 . S
C836 C839 1.511 . S
C837 C833 1.376 . S
C837 C836 1.392 . S
C837 H849 0.929 . S
C838 C834 1.531 . S
C838 H850 0.960 . S
C838 H851 0.962 . S
C838 H852 0.960 . S
C839 C836 1.511 . S
C839 H853 0.961 . S
C839 H854 0.961 . S
C839 H855 0.961 . S
C840 C841 1.370 . S
C840 C842 1.363 . S
C840 H856 0.931 . S
C841 C840 1.370 . S
C841 C845 1.408 . S
C842 C840 1.363 . S
C842 C843 1.370 . S
C842 C846 1.524 . S
C843 C835 1.503 . S
C843 C842 1.370 . S
C843 C844 1.403 . S
C844 C843 1.403 . S
C844 C845 1.404 . S
C844 C847 1.539 . S
C845 C841 1.408 . S
C845 C844 1.404 . S
C845 H857 0.930 . S
C846 C842 1.524 . S
C846 H858 0.956 . S
C846 H859 0.961 . S
C846 H860 0.961 . S
C847 C844 1.539 . S
C847 H861 0.958 . S
C847 H862 0.961 . S
C847 H863 0.960 . S
H848 C832 0.931 . S
H849 C837 0.929 . S
H850 C838 0.960 . S
H851 C838 0.962 . S
H852 C838 0.960 . S
H853 C839 0.961 . S
H854 C839 0.961 . S
H855 C839 0.961 . S
H856 C840 0.931 . S
H857 C845 0.930 . S
H858 C846 0.956 . S
H859 C846 0.961 . S
H860 C846 0.961 . S
H861 C847 0.958 . S
H862 C847 0.961 . S
H863 C847 0.960 . S
C864 C865 1.391 . S
C864 C866 1.394 . S
C864 H880 0.931 . S
C865 C864 1.391 . S
C865 C869 1.376 . S
C866 C864 1.394 . S
C866 C867 1.369 . S
C866 C870 1.531 . S
C867 C866 1.369 . S
C867 C868 1.410 . S
C867 C875 1.503 . S
C868 C867 1.410 . S
C868 C869 1.392 . S
C868 C871 1.511 . S
C869 C865 1.376 . S
C869 C868 1.392 . S
C869 H881 0.929 . S
C870 C866 1.531 . S
C870 H882 0.960 . S
C870 H883 0.962 . S
C870 H884 0.960 . S
C871 C868 1.511 . S
C871 H885 0.961 . S
C871 H886 0.961 . S
C871 H887 0.961 . S
C872 C873 1.370 . S
C872 C874 1.363 . S
C872 H888 0.931 . S
C873 C872 1.370 . S
C873 C877 1.408 . S
C874 C872 1.363 . S
C874 C875 1.370 . S
C874 C878 1.524 . S
C875 C867 1.503 . S
C875 C874 1.370 . S
C875 C876 1.403 . S
C876 C875 1.403 . S
C876 C877 1.404 . S
C876 C879 1.539 . S
C877 C873 1.408 . S
C877 C876 1.404 . S
C877 H889 0.930 . S
C878 C874 1.524 . S
C878 H890 0.956 . S
C878 H891 0.961 . S
C878 H892 0.961 . S
C879 C876 1.539 . S
C879 H893 0.958 . S
C879 H894 0.961 . S
C879 H895 0.960 . S
H880 C864 0.931 . S
H881 C869 0.929 . S
H882 C870 0.960 . S
H883 C870 0.962 . S
H884 C870 0.960 . S
H885 C871 0.961 . S
H886 C871 0.961 . S
H887 C871 0.961 . S
H888 C872 0.931 . S
H889 C877 0.930 . S
H890 C878 0.956 . S
H891 C878 0.961 . S
H892 C878 0.961 . S
H893 C879 0.958 . S
H894 C879 0.961 . S
H895 C879 0.960 . S
C896 C897 1.391 . S
C896 C898 1.394 . S
C896 H912 0.931 . S
C897 C896 1.391 . S
C897 C901 1.376 . S
C898 C896 1.394 . S
C898 C899 1.369 . S
C898 C902 1.531 . S
C899 C898 1.369 . S
C899 C900 1.410 . S
C899 C907 1.503 . S
C900 C899 1.410 . S
C900 C901 1.392 . S
C900 C903 1.511 . S
C901 C897 1.376 . S
C901 C900 1.392 . S
C901 H913 0.929 . S
C902 C898 1.531 . S
C902 H914 0.960 . S
C902 H915 0.962 . S
C902 H916 0.960 . S
C903 C900 1.511 . S
C903 H917 0.961 . S
C903 H918 0.961 . S
C903 H919 0.961 . S
C904 C905 1.370 . S
C904 C906 1.363 . S
C904 H920 0.931 . S
C905 C904 1.370 . S
C905 C909 1.408 . S
C906 C904 1.363 . S
C906 C907 1.370 . S
C906 C910 1.524 . S
C907 C899 1.503 . S
C907 C906 1.370 . S
C907 C908 1.403 . S
C908 C907 1.403 . S
C908 C909 1.404 . S
C908 C911 1.539 . S
C909 C905 1.408 . S
C909 C908 1.404 . S
C909 H921 0.930 . S
C910 C906 1.524 . S
C910 H922 0.956 . S
C910 H923 0.961 . S
C910 H924 0.961 . S
C911 C908 1.539 . S
C911 H925 0.958 . S
C911 H926 0.961 . S
C911 H927 0.960 . S
H912 C896 0.931 . S
H913 C901 0.929 . S
H914 C902 0.960 . S
H915 C902 0.962 . S
H916 C902 0.960 . S
H917 C903 0.961 . S
H918 C903 0.961 . S
H919 C903 0.961 . S
H920 C904 0.931 . S
H921 C909 0.930 . S
H922 C910 0.956 . S
H923 C910 0.961 . S
H924 C910 0.961 . S
H925 C911 0.958 . S
H926 C911 0.961 . S
H927 C911 0.960 . S
C928 C929 1.391 . S
C928 C930 1.394 . S
C928 H944 0.931 . S
C929 C928 1.391 . S
C929 C933 1.376 . S
C930 C928 1.394 . S
C930 C931 1.369 . S
C930 C934 1.531 . S
C931 C930 1.369 . S
C931 C932 1.410 . S
C931 C939 1.503 . S
C932 C931 1.410 . S
C932 C933 1.392 . S
C932 C935 1.511 . S
C933 C929 1.376 . S
C933 C932 1.392 . S
C933 H945 0.929 . S
C934 C930 1.531 . S
C934 H946 0.960 . S
C934 H947 0.962 . S
C934 H948 0.960 . S
C935 C932 1.511 . S
C935 H949 0.961 . S
C935 H950 0.961 . S
C935 H951 0.961 . S
C936 C937 1.370 . S
C936 C938 1.363 . S
C936 H952 0.931 . S
C937 C936 1.370 . S
C937 C941 1.408 . S
C938 C936 1.363 . S
C938 C939 1.370 . S
C938 C942 1.524 . S
C939 C931 1.503 . S
C939 C938 1.370 . S
C939 C940 1.403 . S
C940 C939 1.403 . S
C940 C941 1.404 . S
C940 C943 1.539 . S
C941 C937 1.408 . S
C941 C940 1.404 . S
C941 H953 0.930 . S
C942 C938 1.524 . S
C942 H954 0.956 . S
C942 H955 0.961 . S
C942 H956 0.961 . S
C943 C940 1.539 . S
C943 H957 0.958 . S
C943 H958 0.961 . S
C943 H959 0.960 . S
H944 C928 0.931 . S
H945 C933 0.929 . S
H946 C934 0.960 . S
H947 C934 0.962 . S
H948 C934 0.960 . S
H949 C935 0.961 . S
H950 C935 0.961 . S
H951 C935 0.961 . S
H952 C936 0.931 . S
H953 C941 0.930 . S
H954 C942 0.956 . S
H955 C942 0.961 . S
H956 C942 0.961 . S
H957 C943 0.958 . S
H958 C943 0.961 . S
H959 C943 0.960 . S
C960 C961 1.391 . S
C960 C962 1.394 . S
C960 H976 0.931 . S
C961 C960 1.391 . S
C961 C965 1.376 . S
C962 C960 1.394 . S
C962 C963 1.369 . S
C962 C966 1.531 . S
C963 C962 1.369 . S
C963 C964 1.410 . S
C963 C971 1.503 . S
C964 C963 1.410 . S
C964 C965 1.392 . S
C964 C967 1.511 . S
C965 C961 1.376 . S
C965 C964 1.392 . S
C965 H977 0.929 . S
C966 C962 1.531 . S
C966 H978 0.960 . S
C966 H979 0.962 . S
C966 H980 0.960 . S
C967 C964 1.511 . S
C967 H981 0.961 . S
C967 H982 0.961 . S
C967 H983 0.961 . S
C968 C969 1.370 . S
C968 C970 1.363 . S
C968 H984 0.931 . S
C969 C968 1.370 . S
C969 C973 1.408 . S
C970 C968 1.363 . S
C970 C971 1.370 . S
C970 C974 1.524 . S
C971 C963 1.503 . S
C971 C970 1.370 . S
C971 C972 1.403 . S
C972 C971 1.403 . S
C972 C973 1.404 . S
C972 C975 1.539 . S
C973 C969 1.408 . S
C973 C972 1.404 . S
C973 H985 0.930 . S
C974 C970 1.524 . S
C974 H986 0.956 . S
C974 H987 0.961 . S
C974 H988 0.961 . S
C975 C972 1.539 . S
C975 H989 0.958 . S
C975 H990 0.961 . S
C975 H991 0.960 . S
H976 C960 0.931 . S
H977 C965 0.929 . S
H978 C966 0.960 . S
H979 C966 0.962 . S
H980 C966 0.960 . S
H981 C967 0.961 . S
H982 C967 0.961 . S
H983 C967 0.961 . S
H984 C968 0.931 . S
H985 C973 0.930 . S
H986 C974 0.956 . S
H987 C974 0.961 . S
H988 C974 0.961 . S
H989 C975 0.958 . S
H990 C975 0.961 . S
H991 C975 0.960 . S
C992 C993 1.391 . S
C992 C994 1.394 . S
C992 H1008 0.931 . S
C993 C992 1.391 . S
C993 C997 1.376 . S
C994 C992 1.394 . S
C994 C995 1.369 . S
C994 C998 1.531 . S
C995 C994 1.369 . S
C995 C996 1.410 . S
C995 C1003 1.503 . S
C996 C995 1.410 . S
C996 C997 1.392 . S
C996 C999 1.511 . S
C997 C993 1.376 . S
C997 C996 1.392 . S
C997 H1009 0.929 . S
C998 C994 1.531 . S
C998 H1010 0.960 . S
C998 H1011 0.962 . S
C998 H1012 0.960 . S
C999 C996 1.511 . S
C999 H1013 0.961 . S
C999 H1014 0.961 . S
C999 H1015 0.961 . S
C1000 C1001 1.370 . S
C1000 C1002 1.363 . S
C1000 H1016 0.931 . S
C1001 C1000 1.370 . S
C1001 C1005 1.408 . S
C1002 C1000 1.363 . S
C1002 C1003 1.370 . S
C1002 C1006 1.524 . S
C1003 C995 1.503 . S
C1003 C1002 1.370 . S
C1003 C1004 1.403 . S
C1004 C1003 1.403 . S
C1004 C1005 1.404 . S
C1004 C1007 1.539 . S
C1005 C1001 1.408 . S
C1005 C1004 1.404 . S
C1005 H1017 0.930 . S
C1006 C1002 1.524 . S
C1006 H1018 0.956 . S
C1006 H1019 0.961 . S
C1006 H1020 0.961 . S
C1007 C1004 1.539 . S
C1007 H1021 0.958 . S
C1007 H1022 0.961 . S
C1007 H1023 0.960 . S
H1008 C992 0.931 . S
H1009 C997 0.929 . S
H1010 C998 0.960 . S
H1011 C998 0.962 . S
H1012 C998 0.960 . S
H1013 C999 0.961 . S
H1014 C999 0.961 . S
H1015 C999 0.961 . S
H1016 C1000 0.931 . S
H1017 C1005 0.930 . S
H1018 C1006 0.956 . S
H1019 C1006 0.961 . S
H1020 C1006 0.961 . S
H1021 C1007 0.958 . S
H1022 C1007 0.961 . S
H1023 C1007 0.960 . S
C1024 C1025 1.391 . S
C1024 C1026 1.394 . S
C1024 H1040 0.931 . S
C1025 C1024 1.391 . S
C1025 C1029 1.376 . S
C1026 C1024 1.394 . S
C1026 C1027 1.369 . S
C1026 C1030 1.531 . S
C1027 C1026 1.369 . S
C1027 C1028 1.410 . S
C1027 C1035 1.503 . S
C1028 C1027 1.410 . S
C1028 C1029 1.392 . S
C1028 C1031 1.511 . S
C1029 C1025 1.376 . S
C1029 C1028 1.392 . S
C1029 H1041 0.929 . S
C1030 C1026 1.531 . S
C1030 H1042 0.960 . S
C1030 H1043 0.962 . S
C1030 H1044 0.960 . S
C1031 C1028 1.511 . S
C1031 H1045 0.961 . S
C1031 H1046 0.961 . S
C1031 H1047 0.961 . S
C1032 C1033 1.370 . S
C1032 C1034 1.363 . S
C1032 H1048 0.931 . S
C1033 C1032 1.370 . S
C1033 C1037 1.408 . S
C1034 C1032 1.363 . S
C1034 C1035 1.370 . S
C1034 C1038 1.524 . S
C1035 C1027 1.503 . S
C1035 C1034 1.370 . S
C1035 C1036 1.403 . S
C1036 C1035 1.403 . S
C1036 C1037 1.404 . S
C1036 C1039 1.539 . S
C1037 C1033 1.408 . S
C1037 C1036 1.404 . S
C1037 H1049 0.930 . S
C1038 C1034 1.524 . S
C1038 H1050 0.956 . S
C1038 H1051 0.961 . S
C1038 H1052 0.961 . S
C1039 C1036 1.539 . S
C1039 H1053 0.958 . S
C1039 H1054 0.961 . S
C1039 H1055 0.960 . S
H1040 C1024 0.931 . S
H1041 C1029 0.929 . S
H1042 C1030 0.960 . S
H1043 C1030 0.962 . S
H1044 C1030 0.960 . S
H1045 C1031 0.961 . S
H1046 C1031 0.961 . S
H1047 C1031 0.961 . S
H1048 C1032 0.931 . S
H1049 C1037 0.930 . S
H1050 C1038 0.956 . S
H1051 C1038 0.961 . S
H1052 C1038 0.961 . S
H1053 C1039 0.958 . S
H1054 C1039 0.961 . S
H1055 C1039 0.960 . S
C1056 C1057 1.391 . S
C1056 C1058 1.394 . S
C1056 H1072 0.931 . S
C1057 C1056 1.391 . S
C1057 C1061 1.376 . S
C1058 C1056 1.394 . S
C1058 C1059 1.369 . S
C1058 C1062 1.531 . S
C1059 C1058 1.369 . S
C1059 C1060 1.410 . S
C1059 C1067 1.503 . S
C1060 C1059 1.410 . S
C1060 C1061 1.392 . S
C1060 C1063 1.511 . S
C1061 C1057 1.376 . S
C1061 C1060 1.392 . S
C1061 H1073 0.929 . S
C1062 C1058 1.531 . S
C1062 H1074 0.960 . S
C1062 H1075 0.962 . S
C1062 H1076 0.960 . S
C1063 C1060 1.511 . S
C1063 H1077 0.961 . S
C1063 H1078 0.961 . S
C1063 H1079 0.961 . S
C1064 C1065 1.370 . S
C1064 C1066 1.363 . S
C1064 H1080 0.931 . S
C1065 C1064 1.370 . S
C1065 C1069 1.408 . S
C1066 C1064 1.363 . S
C1066 C1067 1.370 . S
C1066 C1070 1.524 . S
C1067 C1059 1.503 . S
C1067 C1066 1.370 . S
C1067 C1068 1.403 . S
C1068 C1067 1.403 . S
C1068 C1069 1.404 . S
C1068 C1071 1.539 . S
C1069 C1065 1.408 . S
C1069 C1068 1.404 . S
C1069 H1081 0.930 . S
C1070 C1066 1.524 . S
C1070 H1082 0.956 . S
C1070 H1083 0.961 . S
C1070 H1084 0.961 . S
C1071 C1068 1.539 . S
C1071 H1085 0.958 . S
C1071 H1086 0.961 . S
C1071 H1087 0.960 . S
H1072 C1056 0.931 . S
H1073 C1061 0.929 . S
H1074 C1062 0.960 . S
H1075 C1062 0.962 . S
H1076 C1062 0.960 . S
H1077 C1063 0.961 . S
H1078 C1063 0.961 . S
H1079 C1063 0.961 . S
H1080 C1064 0.931 . S
H1081 C1069 0.930 . S
H1082 C1070 0.956 . S
H1083 C1070 0.961 . S
H1084 C1070 0.961 . S
H1085 C1071 0.958 . S
H1086 C1071 0.961 . S
H1087 C1071 0.960 . S
C1088 C1089 1.391 . S
C1088 C1090 1.394 . S
C1088 H1104 0.931 . S
C1089 C1088 1.391 . S
C1089 C1093 1.376 . S
C1090 C1088 1.394 . S
C1090 C1091 1.369 . S
C1090 C1094 1.531 . S
C1091 C1090 1.369 . S
C1091 C1092 1.410 . S
C1091 C1099 1.503 . S
C1092 C1091 1.410 . S
C1092 C1093 1.392 . S
C1092 C1095 1.511 . S
C1093 C1089 1.376 . S
C1093 C1092 1.392 . S
C1093 H1105 0.929 . S
C1094 C1090 1.531 . S
C1094 H1106 0.960 . S
C1094 H1107 0.962 . S
C1094 H1108 0.960 . S
C1095 C1092 1.511 . S
C1095 H1109 0.961 . S
C1095 H1110 0.961 . S
C1095 H1111 0.961 . S
C1096 C1097 1.370 . S
C1096 C1098 1.363 . S
C1096 H1112 0.931 . S
C1097 C1096 1.370 . S
C1097 C1101 1.408 . S
C1098 C1096 1.363 . S
C1098 C1099 1.370 . S
C1098 C1102 1.524 . S
C1099 C1091 1.503 . S
C1099 C1098 1.370 . S
C1099 C1100 1.403 . S
C1100 C1099 1.403 . S
C1100 C1101 1.404 . S
C1100 C1103 1.539 . S
C1101 C1097 1.408 . S
C1101 C1100 1.404 . S
C1101 H1113 0.930 . S
C1102 C1098 1.524 . S
C1102 H1114 0.956 . S
C1102 H1115 0.961 . S
C1102 H1116 0.961 . S
C1103 C1100 1.539 . S
C1103 H1117 0.958 . S
C1103 H1118 0.961 . S
C1103 H1119 0.960 . S
H1104 C1088 0.931 . S
H1105 C1093 0.929 . S
H1106 C1094 0.960 . S
H1107 C1094 0.962 . S
H1108 C1094 0.960 . S
H1109 C1095 0.961 . S
H1110 C1095 0.961 . S
H1111 C1095 0.961 . S
H1112 C1096 0.931 . S
H1113 C1101 0.930 . S
H1114 C1102 0.956 . S
H1115 C1102 0.961 . S
H1116 C1102 0.961 . S
H1117 C1103 0.958 . S
H1118 C1103 0.961 . S
H1119 C1103 0.960 . S
C1120 C1121 1.391 . S
C1120 C1122 1.394 . S
C1120 H1136 0.931 . S
C1121 C1120 1.391 . S
C1121 C1125 1.376 . S
C1122 C1120 1.394 . S
C1122 C1123 1.369 . S
C1122 C1126 1.531 . S
C1123 C1122 1.369 . S
C1123 C1124 1.410 . S
C1123 C1131 1.503 . S
C1124 C1123 1.410 . S
C1124 C1125 1.392 . S
C1124 C1127 1.511 . S
C1125 C1121 1.376 . S
C1125 C1124 1.392 . S
C1125 H1137 0.929 . S
C1126 C1122 1.531 . S
C1126 H1138 0.960 . S
C1126 H1139 0.962 . S
C1126 H1140 0.960 . S
C1127 C1124 1.511 . S
C1127 H1141 0.961 . S
C1127 H1142 0.961 . S
C1127 H1143 0.961 . S
C1128 C1129 1.370 . S
C1128 C1130 1.363 . S
C1128 H1144 0.931 . S
C1129 C1128 1.370 . S
C1129 C1133 1.408 . S
C1130 C1128 1.363 . S
C1130 C1131 1.370 . S
C1130 C1134 1.524 . S
C1131 C1123 1.503 . S
C1131 C1130 1.370 . S
C1131 C1132 1.403 . S
C1132 C1131 1.403 . S
C1132 C1133 1.404 . S
C1132 C1135 1.539 . S
C1133 C1129 1.408 . S
C1133 C1132 1.404 . S
C1133 H1145 0.930 . S
C1134 C1130 1.524 . S
C1134 H1146 0.956 . S
C1134 H1147 0.961 . S
C1134 H1148 0.961 . S
C1135 C1132 1.539 . S
C1135 H1149 0.958 . S
C1135 H1150 0.961 . S
C1135 H1151 0.960 . S
H1136 C1120 0.931 . S
H1137 C1125 0.929 . S
H1138 C1126 0.960 . S
H1139 C1126 0.962 . S
H1140 C1126 0.960 . S
H1141 C1127 0.961 . S
H1142 C1127 0.961 . S
H1143 C1127 0.961 . S
H1144 C1128 0.931 . S
H1145 C1133 0.930 . S
H1146 C1134 0.956 . S
H1147 C1134 0.961 . S
H1148 C1134 0.961 . S
H1149 C1135 0.958 . S
H1150 C1135 0.961 . S
H1151 C1135 0.960 . S
C1152 C1153 1.391 . S
C1152 C1154 1.394 . S
C1152 H1168 0.931 . S
C1153 C1152 1.391 . S
C1153 C1157 1.376 . S
C1154 C1152 1.394 . S
C1154 C1155 1.369 . S
C1154 C1158 1.531 . S
C1155 C1154 1.369 . S
C1155 C1156 1.410 . S
C1155 C1163 1.503 . S
C1156 C1155 1.410 . S
C1156 C1157 1.392 . S
C1156 C1159 1.511 . S
C1157 C1153 1.376 . S
C1157 C1156 1.392 . S
C1157 H1169 0.929 . S
C1158 C1154 1.531 . S
C1158 H1170 0.960 . S
C1158 H1171 0.962 . S
C1158 H1172 0.960 . S
C1159 C1156 1.511 . S
C1159 H1173 0.961 . S
C1159 H1174 0.961 . S
C1159 H1175 0.961 . S
C1160 C1161 1.370 . S
C1160 C1162 1.363 . S
C1160 H1176 0.931 . S
C1161 C1160 1.370 . S
C1161 C1165 1.408 . S
C1162 C1160 1.363 . S
C1162 C1163 1.370 . S
C1162 C1166 1.524 . S
C1163 C1155 1.503 . S
C1163 C1162 1.370 . S
C1163 C1164 1.403 . S
C1164 C1163 1.403 . S
C1164 C1165 1.404 . S
C1164 C1167 1.539 . S
C1165 C1161 1.408 . S
C1165 C1164 1.404 . S
C1165 H1177 0.930 . S
C1166 C1162 1.524 . S
C1166 H1178 0.956 . S
C1166 H1179 0.961 . S
C1166 H1180 0.961 . S
C1167 C1164 1.539 . S
C1167 H1181 0.958 . S
C1167 H1182 0.961 . S
C1167 H1183 0.960 . S
H1168 C1152 0.931 . S
H1169 C1157 0.929 . S
H1170 C1158 0.960 . S
H1171 C1158 0.962 . S
H1172 C1158 0.960 . S
H1173 C1159 0.961 . S
H1174 C1159 0.961 . S
H1175 C1159 0.961 . S
H1176 C1160 0.931 . S
H1177 C1165 0.930 . S
H1178 C1166 0.956 . S
H1179 C1166 0.961 . S
H1180 C1166 0.961 . S
H1181 C1167 0.958 . S
H1182 C1167 0.961 . S
H1183 C1167 0.960 . S
C1184 C1185 1.391 . S
C1184 C1186 1.394 . S
C1184 H1200 0.931 . S
C1185 C1184 1.391 . S
C1185 C1189 1.376 . S
C1186 C1184 1.394 . S
C1186 C1187 1.369 . S
C1186 C1190 1.531 . S
C1187 C1186 1.369 . S
C1187 C1188 1.410 . S
C1187 C1195 1.503 . S
C1188 C1187 1.410 . S
C1188 C1189 1.392 . S
C1188 C1191 1.511 . S
C1189 C1185 1.376 . S
C1189 C1188 1.392 . S
C1189 H1201 0.929 . S
C1190 C1186 1.531 . S
C1190 H1202 0.960 . S
C1190 H1203 0.962 . S
C1190 H1204 0.960 . S
C1191 C1188 1.511 . S
C1191 H1205 0.961 . S
C1191 H1206 0.961 . S
C1191 H1207 0.961 . S
C1192 C1193 1.370 . S
C1192 C1194 1.363 . S
C1192 H1208 0.931 . S
C1193 C1192 1.370 . S
C1193 C1197 1.408 . S
C1194 C1192 1.363 . S
C1194 C1195 1.370 . S
C1194 C1198 1.524 . S
C1195 C1187 1.503 . S
C1195 C1194 1.370 . S
C1195 C1196 1.403 . S
C1196 C1195 1.403 . S
C1196 C1197 1.404 . S
C1196 C1199 1.539 . S
C1197 C1193 1.408 . S
C1197 C1196 1.404 . S
C1197 H1209 0.930 . S
C1198 C1194 1.524 . S
C1198 H1210 0.956 . S
C1198 H1211 0.961 . S
C1198 H1212 0.961 . S
C1199 C1196 1.539 . S
C1199 H1213 0.958 . S
C1199 H1214 0.961 . S
C1199 H1215 0.960 . S
H1200 C1184 0.931 . S
H1201 C1189 0.929 . S
H1202 C1190 0.960 . S
H1203 C1190 0.962 . S
H1204 C1190 0.960 . S
H1205 C1191 0.961 . S
H1206 C1191 0.961 . S
H1207 C1191 0.961 . S
H1208 C1192 0.931 . S
H1209 C1197 0.930 . S
H1210 C1198 0.956 . S
H1211 C1198 0.961 . S
H1212 C1198 0.961 . S
H1213 C1199 0.958 . S
H1214 C1199 0.961 . S
H1215 C1199 0.960 . S
C1216 C1217 1.391 . S
C1216 C1218 1.394 . S
C1216 H1232 0.931 . S
C1217 C1216 1.391 . S
C1217 C1221 1.376 . S
C1218 C1216 1.394 . S
C1218 C1219 1.369 . S
C1218 C1222 1.531 . S
C1219 C1218 1.369 . S
C1219 C1220 1.410 . S
C1219 C1227 1.503 . S
C1220 C1219 1.410 . S
C1220 C1221 1.392 . S
C1220 C1223 1.511 . S
C1221 C1217 1.376 . S
C1221 C1220 1.392 . S
C1221 H1233 0.929 . S
C1222 C1218 1.531 . S
C1222 H1234 0.960 . S
C1222 H1235 0.962 . S
C1222 H1236 0.960 . S
C1223 C1220 1.511 . S
C1223 H1237 0.961 . S
C1223 H1238 0.961 . S
C1223 H1239 0.961 . S
C1224 C1225 1.370 . S
C1224 C1226 1.363 . S
C1224 H1240 0.931 . S
C1225 C1224 1.370 . S
C1225 C1229 1.408 . S
C1226 C1224 1.363 . S
C1226 C1227 1.370 . S
C1226 C1230 1.524 . S
C1227 C1219 1.503 . S
C1227 C1226 1.370 . S
C1227 C1228 1.403 . S
C1228 C1227 1.403 . S
C1228 C1229 1.404 . S
C1228 C1231 1.539 . S
C1229 C1225 1.408 . S
C1229 C1228 1.404 . S
C1229 H1241 0.930 . S
C1230 C1226 1.524 . S
C1230 H1242 0.956 . S
C1230 H1243 0.961 . S
C1230 H1244 0.961 . S
C1231 C1228 1.539 . S
C1231 H1245 0.958 . S
C1231 H1246 0.961 . S
C1231 H1247 0.960 . S
H1232 C1216 0.931 . S
H1233 C1221 0.929 . S
H1234 C1222 0.960 . S
H1235 C1222 0.962 . S
H1236 C1222 0.960 . S
H1237 C1223 0.961 . S
H1238 C1223 0.961 . S
H1239 C1223 0.961 . S
H1240 C1224 0.931 . S
H1241 C1229 0.930 . S
H1242 C1230 0.956 . S
H1243 C1230 0.961 . S
H1244 C1230 0.961 . S
H1245 C1231 0.958 . S
H1246 C1231 0.961 . S
H1247 C1231 0.960 . S
C1248 C1249 1.391 . S
C1248 C1250 1.394 . S
C1248 H1264 0.931 . S
C1249 C1248 1.391 . S
C1249 C1253 1.376 . S
C1250 C1248 1.394 . S
C1250 C1251 1.369 . S
C1250 C1254 1.531 . S
C1251 C1250 1.369 . S
C1251 C1252 1.410 . S
C1251 C1259 1.503 1_545 S
C1252 C1251 1.410 . S
C1252 C1253 1.392 . S
C1252 C1255 1.511 1_545 S
C1253 C1249 1.376 . S
C1253 C1252 1.392 . S
C1253 H1265 0.929 . S
C1254 C1250 1.531 . S
C1254 H1266 0.960 . S
C1254 H1267 0.962 . S
C1254 H1268 0.960 . S
C1255 C1252 1.511 1_565 S
C1255 H1269 0.961 . S
C1255 H1270 0.961 . S
C1255 H1271 0.961 . S
C1256 C1257 1.370 . S
C1256 C1258 1.363 . S
C1256 H1272 0.931 . S
C1257 C1256 1.370 . S
C1257 C1261 1.408 . S
C1258 C1256 1.363 . S
C1258 C1259 1.370 . S
C1258 C1262 1.524 1_565 S
C1259 C1251 1.503 1_565 S
C1259 C1258 1.370 . S
C1259 C1260 1.403 . S
C1260 C1259 1.403 . S
C1260 C1261 1.404 . S
C1260 C1263 1.539 . S
C1261 C1257 1.408 . S
C1261 C1260 1.404 . S
C1261 H1273 0.930 . S
C1262 C1258 1.524 1_545 S
C1262 H1274 0.956 . S
C1262 H1275 0.961 . S
C1262 H1276 0.961 . S
C1263 C1260 1.539 . S
C1263 H1277 0.958 . S
C1263 H1278 0.961 . S
C1263 H1279 0.960 . S
H1264 C1248 0.931 . S
H1265 C1253 0.929 . S
H1266 C1254 0.960 . S
H1267 C1254 0.962 . S
H1268 C1254 0.960 . S
H1269 C1255 0.961 . S
H1270 C1255 0.961 . S
H1271 C1255 0.961 . S
H1272 C1256 0.931 . S
H1273 C1261 0.930 . S
H1274 C1262 0.956 . S
H1275 C1262 0.961 . S
H1276 C1262 0.961 . S
H1277 C1263 0.958 . S
H1278 C1263 0.961 . S
H1279 C1263 0.960 . S
C1280 C1281 1.391 . S
C1280 C1282 1.394 . S
C1280 H1296 0.931 . S
C1281 C1280 1.391 . S
C1281 C1285 1.376 . S
C1282 C1280 1.394 . S
C1282 C1283 1.369 . S
C1282 C1286 1.531 1_545 S
C1283 C1282 1.369 . S
C1283 C1284 1.410 . S
C1283 C1291 1.503 1_545 S
C1284 C1283 1.410 . S
C1284 C1285 1.392 . S
C1284 C1287 1.511 . S
C1285 C1281 1.376 . S
C1285 C1284 1.392 . S
C1285 H1297 0.929 . S
C1286 C1282 1.531 1_565 S
C1286 H1298 0.960 . S
C1286 H1299 0.962 . S
C1286 H1300 0.954 1_565 S
C1287 C1284 1.511 . S
C1287 H1301 0.961 . S
C1287 H1302 0.961 . S
C1287 H1303 0.961 . S
C1288 C1289 1.370 . S
C1288 C1290 1.363 . S
C1288 H1304 0.931 . S
C1289 C1288 1.370 . S
C1289 C1293 1.408 . S
C1290 C1288 1.363 . S
C1290 C1291 1.370 . S
C1290 C1294 1.524 . S
C1291 C1283 1.503 1_565 S
C1291 C1290 1.370 . S
C1291 C1292 1.403 . S
C1292 C1291 1.403 . S
C1292 C1293 1.404 . S
C1292 C1295 1.539 1_565 S
C1293 C1289 1.408 . S
C1293 C1292 1.404 . S
C1293 H1305 0.930 . S
C1294 C1290 1.524 . S
C1294 H1306 0.956 . S
C1294 H1307 0.961 . S
C1294 H1308 0.961 . S
C1295 C1292 1.539 1_545 S
C1295 H1309 0.958 . S
C1295 H1310 0.961 . S
C1295 H1311 0.960 . S
H1296 C1280 0.931 . S
H1297 C1285 0.929 . S
H1298 C1286 0.960 . S
H1299 C1286 0.962 . S
H1300 C1286 0.954 1_545 S
H1301 C1287 0.961 . S
H1302 C1287 0.961 . S
H1303 C1287 0.961 . S
H1304 C1288 0.931 . S
H1305 C1293 0.930 . S
H1306 C1294 0.956 . S
H1307 C1294 0.961 . S
H1308 C1294 0.961 . S
H1309 C1295 0.958 . S
H1310 C1295 0.961 . S
H1311 C1295 0.960 . S
C1312 C1313 1.391 . S
C1312 C1314 1.394 . S
C1312 H1328 0.931 . S
C1313 C1312 1.391 . S
C1313 C1317 1.376 . S
C1314 C1312 1.394 . S
C1314 C1315 1.369 . S
C1314 C1318 1.531 . S
C1315 C1314 1.369 . S
C1315 C1316 1.410 . S
C1315 C1323 1.503 1_565 S
C1316 C1315 1.410 . S
C1316 C1317 1.392 . S
C1316 C1319 1.511 . S
C1317 C1313 1.376 . S
C1317 C1316 1.392 . S
C1317 H1329 0.929 . S
C1318 C1314 1.531 . S
C1318 H1330 0.960 1_565 S
C1318 H1331 0.962 . S
C1318 H1332 0.960 . S
C1319 C1316 1.511 . S
C1319 H1333 0.961 . S
C1319 H1334 0.961 1_565 S
C1319 H1335 0.961 1_565 S
C1320 C1321 1.370 . S
C1320 C1322 1.363 . S
C1320 H1336 0.931 . S
C1321 C1320 1.370 . S
C1321 C1325 1.408 . S
C1322 C1320 1.363 . S
C1322 C1323 1.370 . S
C1322 C1326 1.524 1_545 S
C1323 C1315 1.503 1_545 S
C1323 C1322 1.370 . S
C1323 C1324 1.403 . S
C1324 C1323 1.403 . S
C1324 C1325 1.404 . S
C1324 C1327 1.539 . S
C1325 C1321 1.408 . S
C1325 C1324 1.404 . S
C1325 H1337 0.930 . S
C1326 C1322 1.524 1_565 S
C1326 H1338 0.956 . S
C1326 H1339 0.961 . S
C1326 H1340 0.961 . S
C1327 C1324 1.539 . S
C1327 H1341 0.958 . S
C1327 H1342 0.961 . S
C1327 H1343 0.960 . S
H1328 C1312 0.931 . S
H1329 C1317 0.929 . S
H1330 C1318 0.960 1_545 S
H1331 C1318 0.962 . S
H1332 C1318 0.960 . S
H1333 C1319 0.961 . S
H1334 C1319 0.961 1_545 S
H1335 C1319 0.961 1_545 S
H1336 C1320 0.931 . S
H1337 C1325 0.930 . S
H1338 C1326 0.956 . S
H1339 C1326 0.961 . S
H1340 C1326 0.961 . S
H1341 C1327 0.958 . S
H1342 C1327 0.961 . S
H1343 C1327 0.960 . S
C1344 C1345 1.391 . S
C1344 C1346 1.394 . S
C1344 H1360 0.931 . S
C1345 C1344 1.391 . S
C1345 C1349 1.376 . S
C1346 C1344 1.394 . S
C1346 C1347 1.369 . S
C1346 C1350 1.531 . S
C1347 C1346 1.369 . S
C1347 C1348 1.410 . S
C1347 C1355 1.503 1_565 S
C1348 C1347 1.410 . S
C1348 C1349 1.392 . S
C1348 C1351 1.511 1_565 S
C1349 C1345 1.376 . S
C1349 C1348 1.392 . S
C1349 H1361 0.929 . S
C1350 C1346 1.531 . S
C1350 H1362 0.960 . S
C1350 H1363 0.962 . S
C1350 H1364 0.960 . S
C1351 C1348 1.511 1_545 S
C1351 H1365 0.961 . S
C1351 H1366 0.961 . S
C1351 H1367 0.961 . S
C1352 C1353 1.370 . S
C1352 C1354 1.363 . S
C1352 H1368 0.931 . S
C1353 C1352 1.370 . S
C1353 C1357 1.408 . S
C1354 C1352 1.363 . S
C1354 C1355 1.370 . S
C1354 C1358 1.524 1_545 S
C1355 C1347 1.503 1_545 S
C1355 C1354 1.370 . S
C1355 C1356 1.403 . S
C1356 C1355 1.403 . S
C1356 C1357 1.404 . S
C1356 C1359 1.539 . S
C1357 C1353 1.408 . S
C1357 C1356 1.404 . S
C1357 H1369 0.930 . S
C1358 C1354 1.524 1_565 S
C1358 H1370 0.956 . S
C1358 H1371 0.961 . S
C1358 H1372 0.961 1_565 S
C1359 C1356 1.539 . S
C1359 H1373 0.958 . S
C1359 H1374 0.961 . S
C1359 H1375 0.960 . S
H1360 C1344 0.931 . S
H1361 C1349 0.929 . S
H1362 C1350 0.960 . S
H1363 C1350 0.962 . S
H1364 C1350 0.960 . S
H1365 C1351 0.961 . S
H1366 C1351 0.961 . S
H1367 C1351 0.961 . S
H1368 C1352 0.931 . S
H1369 C1357 0.930 . S
H1370 C1358 0.956 . S
H1371 C1358 0.961 . S
H1372 C1358 0.961 1_545 S
H1373 C1359 0.958 . S
H1374 C1359 0.961 . S
H1375 C1359 0.960 . S
C1376 C1377 1.391 . S
C1376 C1378 1.394 1_556 S
C1376 H1392 0.931 1_556 S
C1377 C1376 1.391 . S
C1377 C1381 1.376 . S
C1378 C1376 1.394 1_554 S
C1378 C1379 1.369 1_554 S
C1378 C1382 1.531 . S
C1379 C1378 1.369 1_556 S
C1379 C1380 1.410 . S
C1379 C1387 1.503 1_556 S
C1380 C1379 1.410 . S
C1380 C1381 1.392 . S
C1380 C1383 1.511 . S
C1381 C1377 1.376 . S
C1381 C1380 1.392 . S
C1381 H1393 0.929 . S
C1382 C1378 1.531 . S
C1382 H1394 0.960 . S
C1382 H1395 0.962 . S
C1382 H1396 0.960 . S
C1383 C1380 1.511 . S
C1383 H1397 0.961 . S
C1383 H1398 0.961 . S
C1383 H1399 0.961 . S
C1384 C1385 1.370 . S
C1384 C1386 1.363 . S
C1384 H1400 0.931 . S
C1385 C1384 1.370 . S
C1385 C1389 1.408 . S
C1386 C1384 1.363 . S
C1386 C1387 1.370 . S
C1386 C1390 1.524 . S
C1387 C1379 1.503 1_554 S
C1387 C1386 1.370 . S
C1387 C1388 1.403 1_554 S
C1388 C1387 1.403 1_556 S
C1388 C1389 1.404 1_556 S
C1388 C1391 1.539 . S
C1389 C1385 1.408 . S
C1389 C1388 1.404 1_554 S
C1389 H1401 0.930 . S
C1390 C1386 1.524 . S
C1390 H1402 0.956 . S
C1390 H1403 0.961 . S
C1390 H1404 0.961 . S
C1391 C1388 1.539 . S
C1391 H1405 0.958 . S
C1391 H1406 0.961 . S
C1391 H1407 0.960 . S
H1392 C1376 0.931 1_554 S
H1393 C1381 0.929 . S
H1394 C1382 0.960 . S
H1395 C1382 0.962 . S
H1396 C1382 0.960 . S
H1397 C1383 0.961 . S
H1398 C1383 0.961 . S
H1399 C1383 0.961 . S
H1400 C1384 0.931 . S
H1401 C1389 0.930 . S
H1402 C1390 0.956 . S
H1403 C1390 0.961 . S
H1404 C1390 0.961 . S
H1405 C1391 0.958 . S
H1406 C1391 0.961 . S
H1407 C1391 0.960 . S
C1408 C1409 1.379 1_556 S
C1408 C1410 1.399 . S
C1408 H1424 0.937 . S
C1409 C1408 1.379 1_554 S
C1409 C1413 1.376 . S
C1410 C1408 1.399 . S
C1410 C1411 1.369 1_556 S
C1410 C1414 1.531 . S
C1411 C1410 1.369 1_554 S
C1411 C1412 1.410 . S
C1411 C1419 1.503 1_554 S
C1412 C1411 1.410 . S
C1412 C1413 1.392 . S
C1412 C1415 1.511 . S
C1413 C1409 1.376 . S
C1413 C1412 1.392 . S
C1413 H1425 0.929 . S
C1414 C1410 1.531 . S
C1414 H1426 0.960 . S
C1414 H1427 0.962 . S
C1414 H1428 0.960 . S
C1415 C1412 1.511 . S
C1415 H1429 0.961 . S
C1415 H1430 0.961 . S
C1415 H1431 0.961 . S
C1416 C1417 1.370 . S
C1416 C1418 1.350 1_556 S
C1416 H1432 0.931 . S
C1417 C1416 1.370 . S
C1417 C1421 1.408 . S
C1418 C1416 1.350 1_554 S
C1418 C1419 1.359 1_554 S
C1418 C1422 1.550 . S
C1419 C1411 1.503 1_556 S
C1419 C1418 1.359 1_556 S
C1419 C1420 1.403 . S
C1420 C1419 1.403 . S
C1420 C1421 1.404 . S
C1420 C1423 1.539 . S
C1421 C1417 1.408 . S
C1421 C1420 1.404 . S
C1421 H1433 0.930 . S
C1422 C1418 1.550 . S
C1422 H1434 0.956 . S
C1422 H1435 0.961 . S
C1422 H1436 0.961 . S
C1423 C1420 1.539 . S
C1423 H1437 0.958 . S
C1423 H1438 0.961 . S
C1423 H1439 0.960 . S
H1424 C1408 0.937 . S
H1425 C1413 0.929 . S
H1426 C1414 0.960 . S
H1427 C1414 0.962 . S
H1428 C1414 0.960 . S
H1429 C1415 0.961 . S
H1430 C1415 0.961 . S
H1431 C1415 0.961 . S
H1432 C1416 0.931 . S
H1433 C1421 0.930 . S
H1434 C1422 0.956 . S
H1435 C1422 0.961 . S
H1436 C1422 0.961 . S
H1437 C1423 0.958 . S
H1438 C1423 0.961 . S
H1439 C1423 0.960 . S
C1440 C1441 1.391 . S
C1440 C1442 1.394 . S
C1440 H1456 0.931 . S
C1441 C1440 1.391 . S
C1441 C1445 1.376 . S
C1442 C1440 1.394 . S
C1442 C1443 1.369 . S
C1442 C1446 1.531 . S
C1443 C1442 1.369 . S
C1443 C1444 1.410 . S
C1443 C1451 1.503 . S
C1444 C1443 1.410 . S
C1444 C1445 1.392 . S
C1444 C1447 1.511 . S
C1445 C1441 1.376 . S
C1445 C1444 1.392 . S
C1445 H1457 0.929 . S
C1446 C1442 1.531 . S
C1446 H1458 0.960 . S
C1446 H1459 0.962 . S
C1446 H1460 0.960 . S
C1447 C1444 1.511 . S
C1447 H1461 0.961 . S
C1447 H1462 0.961 . S
C1447 H1463 0.961 . S
C1448 C1449 1.370 . S
C1448 C1450 1.363 . S
C1448 H1464 0.931 . S
C1449 C1448 1.370 . S
C1449 C1453 1.408 . S
C1450 C1448 1.363 . S
C1450 C1451 1.370 . S
C1450 C1454 1.524 . S
C1451 C1443 1.503 . S
C1451 C1450 1.370 . S
C1451 C1452 1.403 . S
C1452 C1451 1.403 . S
C1452 C1453 1.404 . S
C1452 C1455 1.539 . S
C1453 C1449 1.408 . S
C1453 C1452 1.404 . S
C1453 H1465 0.930 . S
C1454 C1450 1.524 . S
C1454 H1466 0.956 . S
C1454 H1467 0.961 . S
C1454 H1468 0.961 . S
C1455 C1452 1.539 . S
C1455 H1469 0.958 . S
C1455 H1470 0.961 . S
C1455 H1471 0.960 . S
H1456 C1440 0.931 . S
H1457 C1445 0.929 . S
H1458 C1446 0.960 . S
H1459 C1446 0.962 . S
H1460 C1446 0.960 . S
H1461 C1447 0.961 . S
H1462 C1447 0.961 . S
H1463 C1447 0.961 . S
H1464 C1448 0.931 . S
H1465 C1453 0.930 . S
H1466 C1454 0.956 . S
H1467 C1454 0.961 . S
H1468 C1454 0.961 . S
H1469 C1455 0.958 . S
H1470 C1455 0.961 . S
H1471 C1455 0.960 . S
C1472 C1473 1.391 . S
C1472 C1474 1.394 . S
C1472 H1488 0.931 . S
C1473 C1472 1.391 . S
C1473 C1477 1.376 . S
C1474 C1472 1.394 . S
C1474 C1475 1.369 . S
C1474 C1478 1.531 . S
C1475 C1474 1.369 . S
C1475 C1476 1.410 . S
C1475 C1483 1.503 . S
C1476 C1475 1.410 . S
C1476 C1477 1.392 . S
C1476 C1479 1.511 . S
C1477 C1473 1.376 . S
C1477 C1476 1.392 . S
C1477 H1489 0.929 . S
C1478 C1474 1.531 . S
C1478 H1490 0.960 . S
C1478 H1491 0.962 . S
C1478 H1492 0.960 . S
C1479 C1476 1.511 . S
C1479 H1493 0.961 . S
C1479 H1494 0.961 . S
C1479 H1495 0.961 . S
C1480 C1481 1.370 . S
C1480 C1482 1.363 . S
C1480 H1496 0.931 . S
C1481 C1480 1.370 . S
C1481 C1485 1.408 . S
C1482 C1480 1.363 . S
C1482 C1483 1.370 . S
C1482 C1486 1.524 . S
C1483 C1475 1.503 . S
C1483 C1482 1.370 . S
C1483 C1484 1.403 . S
C1484 C1483 1.403 . S
C1484 C1485 1.404 . S
C1484 C1487 1.539 . S
C1485 C1481 1.408 . S
C1485 C1484 1.404 . S
C1485 H1497 0.930 . S
C1486 C1482 1.524 . S
C1486 H1498 0.956 . S
C1486 H1499 0.961 . S
C1486 H1500 0.961 . S
C1487 C1484 1.539 . S
C1487 H1501 0.958 . S
C1487 H1502 0.961 . S
C1487 H1503 0.960 . S
H1488 C1472 0.931 . S
H1489 C1477 0.929 . S
H1490 C1478 0.960 . S
H1491 C1478 0.962 . S
H1492 C1478 0.960 . S
H1493 C1479 0.961 . S
H1494 C1479 0.961 . S
H1495 C1479 0.961 . S
H1496 C1480 0.931 . S
H1497 C1485 0.930 . S
H1498 C1486 0.956 . S
H1499 C1486 0.961 . S
H1500 C1486 0.961 . S
H1501 C1487 0.958 . S
H1502 C1487 0.961 . S
H1503 C1487 0.960 . S
C1504 C1505 1.391 . S
C1504 C1506 1.394 . S
C1504 H1520 0.931 . S
C1505 C1504 1.391 . S
C1505 C1509 1.376 1_556 S
C1506 C1504 1.394 . S
C1506 C1507 1.369 . S
C1506 C1510 1.531 . S
C1507 C1506 1.369 . S
C1507 C1508 1.410 1_556 S
C1507 C1515 1.503 1_556 S
C1508 C1507 1.410 1_554 S
C1508 C1509 1.392 . S
C1508 C1511 1.511 . S
C1509 C1505 1.376 1_554 S
C1509 C1508 1.392 . S
C1509 H1521 0.929 . S
C1510 C1506 1.531 . S
C1510 H1522 0.960 . S
C1510 H1523 0.962 . S
C1510 H1524 0.960 . S
C1511 C1508 1.511 . S
C1511 H1525 0.961 . S
C1511 H1526 0.961 . S
C1511 H1527 0.961 . S
C1512 C1513 1.370 . S
C1512 C1514 1.375 . S
C1512 H1528 0.931 . S
C1513 C1512 1.370 . S
C1513 C1517 1.408 . S
C1514 C1512 1.375 . S
C1514 C1515 1.379 . S
C1514 C1518 1.505 1_554 S
C1515 C1507 1.503 1_554 S
C1515 C1514 1.379 . S
C1515 C1516 1.403 . S
C1516 C1515 1.403 . S
C1516 C1517 1.404 . S
C1516 C1519 1.539 . S
C1517 C1513 1.408 . S
C1517 C1516 1.404 . S
C1517 H1529 0.930 . S
C1518 C1514 1.505 1_556 S
C1518 H1530 0.956 . S
C1518 H1531 0.961 . S
C1518 H1532 0.961 . S
C1519 C1516 1.539 . S
C1519 H1533 0.958 . S
C1519 H1534 0.961 . S
C1519 H1535 0.960 . S
H1520 C1504 0.931 . S
H1521 C1509 0.929 . S
H1522 C1510 0.960 . S
H1523 C1510 0.962 . S
H1524 C1510 0.960 . S
H1525 C1511 0.961 . S
H1526 C1511 0.961 . S
H1527 C1511 0.961 . S
H1528 C1512 0.931 . S
H1529 C1517 0.930 . S
H1530 C1518 0.956 . S
H1531 C1518 0.961 . S
H1532 C1518 0.961 . S
H1533 C1519 0.958 . S
H1534 C1519 0.961 . S
H1535 C1519 0.960 . S
C1536 C1537 1.391 . S
C1536 C1538 1.394 . S
C1536 H1552 0.931 . S
C1537 C1536 1.391 . S
C1537 C1541 1.387 . S
C1538 C1536 1.394 . S
C1538 C1539 1.369 . S
C1538 C1542 1.531 . S
C1539 C1538 1.369 . S
C1539 C1540 1.410 1_556 S
C1539 C1547 1.503 1_556 S
C1540 C1539 1.410 1_554 S
C1540 C1541 1.387 1_554 S
C1540 C1543 1.511 . S
C1541 C1537 1.387 . S
C1541 C1540 1.387 1_556 S
C1541 H1553 0.923 1_556 S
C1542 C1538 1.531 . S
C1542 H1554 0.960 . S
C1542 H1555 0.962 . S
C1542 H1556 0.960 . S
C1543 C1540 1.511 . S
C1543 H1557 0.961 . S
C1543 H1558 0.961 . S
C1543 H1559 0.961 . S
C1544 C1545 1.370 . S
C1544 C1546 1.363 1_554 S
C1544 H1560 0.918 1_554 S
C1545 C1544 1.370 . S
C1545 C1549 1.408 . S
C1546 C1544 1.363 1_556 S
C1546 C1547 1.370 1_556 S
C1546 C1550 1.524 . S
C1547 C1539 1.503 1_554 S
C1547 C1546 1.370 1_554 S
C1547 C1548 1.403 . S
C1548 C1547 1.403 . S
C1548 C1549 1.404 . S
C1548 C1551 1.539 . S
C1549 C1545 1.408 . S
C1549 C1548 1.404 . S
C1549 H1561 0.930 . S
C1550 C1546 1.524 . S
C1550 H1562 0.956 . S
C1550 H1563 0.961 . S
C1550 H1564 0.961 . S
C1551 C1548 1.539 . S
C1551 H1565 0.958 . S
C1551 H1566 0.961 . S
C1551 H1567 0.960 . S
H1552 C1536 0.931 . S
H1553 C1541 0.923 1_554 S
H1554 C1542 0.960 . S
H1555 C1542 0.962 . S
H1556 C1542 0.960 . S
H1557 C1543 0.961 . S
H1558 C1543 0.961 . S
H1559 C1543 0.961 . S
H1560 C1544 0.918 1_556 S
H1561 C1549 0.930 . S
H1562 C1550 0.956 . S
H1563 C1550 0.961 . S
H1564 C1550 0.961 . S
H1565 C1551 0.958 . S
H1566 C1551 0.961 . S
H1567 C1551 0.960 . S
C1568 C1569 1.391 . S
C1568 C1570 1.394 . S
C1568 H1584 0.931 . S
C1569 C1568 1.391 . S
C1569 C1573 1.376 . S
C1570 C1568 1.394 . S
C1570 C1571 1.369 . S
C1570 C1574 1.531 . S
C1571 C1570 1.369 . S
C1571 C1572 1.410 . S
C1571 C1579 1.503 . S
C1572 C1571 1.410 . S
C1572 C1573 1.392 . S
C1572 C1575 1.511 . S
C1573 C1569 1.376 . S
C1573 C1572 1.392 . S
C1573 H1585 0.929 . S
C1574 C1570 1.531 . S
C1574 H1586 0.960 . S
C1574 H1587 0.962 . S
C1574 H1588 0.960 . S
C1575 C1572 1.511 . S
C1575 H1589 0.961 . S
C1575 H1590 0.961 . S
C1575 H1591 0.961 . S
C1576 C1577 1.370 . S
C1576 C1578 1.363 . S
C1576 H1592 0.931 . S
C1577 C1576 1.370 . S
C1577 C1581 1.408 . S
C1578 C1576 1.363 . S
C1578 C1579 1.370 . S
C1578 C1582 1.524 . S
C1579 C1571 1.503 . S
C1579 C1578 1.370 . S
C1579 C1580 1.403 . S
C1580 C1579 1.403 . S
C1580 C1581 1.404 . S
C1580 C1583 1.539 . S
C1581 C1577 1.408 . S
C1581 C1580 1.404 . S
C1581 H1593 0.930 . S
C1582 C1578 1.524 . S
C1582 H1594 0.956 . S
C1582 H1595 0.961 . S
C1582 H1596 0.961 . S
C1583 C1580 1.539 . S
C1583 H1597 0.958 . S
C1583 H1598 0.961 . S
C1583 H1599 0.960 . S
H1584 C1568 0.931 . S
H1585 C1573 0.929 . S
H1586 C1574 0.960 . S
H1587 C1574 0.962 . S
H1588 C1574 0.960 . S
H1589 C1575 0.961 . S
H1590 C1575 0.961 . S
H1591 C1575 0.961 . S
H1592 C1576 0.931 . S
H1593 C1581 0.930 . S
H1594 C1582 0.956 . S
H1595 C1582 0.961 . S
H1596 C1582 0.961 . S
H1597 C1583 0.958 . S
H1598 C1583 0.961 . S
H1599 C1583 0.960 . S
C1600 C1601 1.391 . S
C1600 C1602 1.394 . S
C1600 H1616 0.931 . S
C1601 C1600 1.391 . S
C1601 C1605 1.376 . S
C1602 C1600 1.394 . S
C1602 C1603 1.369 . S
C1602 C1606 1.531 . S
C1603 C1602 1.369 . S
C1603 C1604 1.410 . S
C1603 C1611 1.503 . S
C1604 C1603 1.410 . S
C1604 C1605 1.392 . S
C1604 C1607 1.511 . S
C1605 C1601 1.376 . S
C1605 C1604 1.392 . S
C1605 H1617 0.929 . S
C1606 C1602 1.531 . S
C1606 H1618 0.960 . S
C1606 H1619 0.962 . S
C1606 H1620 0.960 . S
C1607 C1604 1.511 . S
C1607 H1621 0.961 . S
C1607 H1622 0.961 . S
C1607 H1623 0.961 . S
C1608 C1609 1.370 . S
C1608 C1610 1.363 . S
C1608 H1624 0.931 . S
C1609 C1608 1.370 . S
C1609 C1613 1.408 . S
C1610 C1608 1.363 . S
C1610 C1611 1.370 . S
C1610 C1614 1.524 . S
C1611 C1603 1.503 . S
C1611 C1610 1.370 . S
C1611 C1612 1.403 . S
C1612 C1611 1.403 . S
C1612 C1613 1.404 . S
C1612 C1615 1.539 . S
C1613 C1609 1.408 . S
C1613 C1612 1.404 . S
C1613 H1625 0.930 . S
C1614 C1610 1.524 . S
C1614 H1626 0.956 . S
C1614 H1627 0.961 . S
C1614 H1628 0.961 . S
C1615 C1612 1.539 . S
C1615 H1629 0.958 . S
C1615 H1630 0.961 . S
C1615 H1631 0.960 . S
H1616 C1600 0.931 . S
H1617 C1605 0.929 . S
H1618 C1606 0.960 . S
H1619 C1606 0.962 . S
H1620 C1606 0.960 . S
H1621 C1607 0.961 . S
H1622 C1607 0.961 . S
H1623 C1607 0.961 . S
H1624 C1608 0.931 . S
H1625 C1613 0.930 . S
H1626 C1614 0.956 . S
H1627 C1614 0.961 . S
H1628 C1614 0.961 . S
H1629 C1615 0.958 . S
H1630 C1615 0.961 . S
H1631 C1615 0.960 . S
C1632 C1633 1.391 . S
C1632 C1634 1.394 . S
C1632 H1648 0.931 . S
C1633 C1632 1.391 . S
C1633 C1637 1.376 . S
C1634 C1632 1.394 . S
C1634 C1635 1.369 . S
C1634 C1638 1.531 . S
C1635 C1634 1.369 . S
C1635 C1636 1.410 . S
C1635 C1643 1.503 1_455 S
C1636 C1635 1.410 . S
C1636 C1637 1.392 . S
C1636 C1639 1.511 . S
C1637 C1633 1.376 . S
C1637 C1636 1.392 . S
C1637 H1649 0.929 . S
C1638 C1634 1.531 . S
C1638 H1650 0.960 1_455 S
C1638 H1651 0.962 . S
C1638 H1652 0.960 . S
C1639 C1636 1.511 . S
C1639 H1653 0.961 . S
C1639 H1654 0.961 1_455 S
C1639 H1655 0.961 1_455 S
C1640 C1641 1.370 . S
C1640 C1642 1.363 . S
C1640 H1656 0.931 . S
C1641 C1640 1.370 . S
C1641 C1645 1.408 . S
C1642 C1640 1.363 . S
C1642 C1643 1.370 . S
C1642 C1646 1.524 1_655 S
C1643 C1635 1.503 1_655 S
C1643 C1642 1.370 . S
C1643 C1644 1.403 . S
C1644 C1643 1.403 . S
C1644 C1645 1.404 . S
C1644 C1647 1.539 . S
C1645 C1641 1.408 . S
C1645 C1644 1.404 . S
C1645 H1657 0.930 . S
C1646 C1642 1.524 1_455 S
C1646 H1658 0.956 . S
C1646 H1659 0.961 . S
C1646 H1660 0.961 1_455 S
C1647 C1644 1.539 . S
C1647 H1661 0.958 . S
C1647 H1662 0.961 . S
C1647 H1663 0.960 . S
H1648 C1632 0.931 . S
H1649 C1637 0.929 . S
H1650 C1638 0.960 1_655 S
H1651 C1638 0.962 . S
H1652 C1638 0.960 . S
H1653 C1639 0.961 . S
H1654 C1639 0.961 1_655 S
H1655 C1639 0.961 1_655 S
H1656 C1640 0.931 . S
H1657 C1645 0.930 . S
H1658 C1646 0.956 . S
H1659 C1646 0.961 . S
H1660 C1646 0.961 1_655 S
H1661 C1647 0.958 . S
H1662 C1647 0.961 . S
H1663 C1647 0.960 . S
C1664 C1665 1.391 . S
C1664 C1666 1.394 . S
C1664 H1680 0.931 . S
C1665 C1664 1.391 . S
C1665 C1669 1.376 . S
C1666 C1664 1.394 . S
C1666 C1667 1.369 . S
C1666 C1670 1.531 . S
C1667 C1666 1.369 . S
C1667 C1668 1.410 . S
C1667 C1675 1.503 . S
C1668 C1667 1.410 . S
C1668 C1669 1.392 . S
C1668 C1671 1.511 . S
C1669 C1665 1.376 . S
C1669 C1668 1.392 . S
C1669 H1681 0.929 . S
C1670 C1666 1.531 . S
C1670 H1682 0.960 . S
C1670 H1683 0.962 . S
C1670 H1684 0.960 . S
C1671 C1668 1.511 . S
C1671 H1685 0.961 . S
C1671 H1686 0.961 . S
C1671 H1687 0.961 . S
C1672 C1673 1.370 . S
C1672 C1674 1.363 . S
C1672 H1688 0.931 . S
C1673 C1672 1.370 . S
C1673 C1677 1.408 . S
C1674 C1672 1.363 . S
C1674 C1675 1.370 . S
C1674 C1678 1.524 . S
C1675 C1667 1.503 . S
C1675 C1674 1.370 . S
C1675 C1676 1.403 . S
C1676 C1675 1.403 . S
C1676 C1677 1.404 . S
C1676 C1679 1.539 . S
C1677 C1673 1.408 . S
C1677 C1676 1.404 . S
C1677 H1689 0.930 . S
C1678 C1674 1.524 . S
C1678 H1690 0.956 . S
C1678 H1691 0.961 . S
C1678 H1692 0.961 . S
C1679 C1676 1.539 . S
C1679 H1693 0.958 . S
C1679 H1694 0.961 . S
C1679 H1695 0.960 . S
H1680 C1664 0.931 . S
H1681 C1669 0.929 . S
H1682 C1670 0.960 . S
H1683 C1670 0.962 . S
H1684 C1670 0.960 . S
H1685 C1671 0.961 . S
H1686 C1671 0.961 . S
H1687 C1671 0.961 . S
H1688 C1672 0.931 . S
H1689 C1677 0.930 . S
H1690 C1678 0.956 . S
H1691 C1678 0.961 . S
H1692 C1678 0.961 . S
H1693 C1679 0.958 . S
H1694 C1679 0.961 . S
H1695 C1679 0.960 . S
C1696 C1697 1.391 . S
C1696 C1698 1.394 . S
C1696 H1712 0.931 . S
C1697 C1696 1.391 . S
C1697 C1701 1.376 . S
C1698 C1696 1.394 . S
C1698 C1699 1.369 . S
C1698 C1702 1.531 . S
C1699 C1698 1.369 . S
C1699 C1700 1.410 . S
C1699 C1707 1.503 . S
C1700 C1699 1.410 . S
C1700 C1701 1.392 . S
C1700 C1703 1.511 . S
C1701 C1697 1.376 . S
C1701 C1700 1.392 . S
C1701 H1713 0.929 . S
C1702 C1698 1.531 . S
C1702 H1714 0.960 . S
C1702 H1715 0.962 . S
C1702 H1716 0.960 . S
C1703 C1700 1.511 . S
C1703 H1717 0.961 . S
C1703 H1718 0.961 . S
C1703 H1719 0.961 . S
C1704 C1705 1.370 . S
C1704 C1706 1.363 . S
C1704 H1720 0.931 . S
C1705 C1704 1.370 . S
C1705 C1709 1.408 . S
C1706 C1704 1.363 . S
C1706 C1707 1.370 . S
C1706 C1710 1.524 . S
C1707 C1699 1.503 . S
C1707 C1706 1.370 . S
C1707 C1708 1.403 . S
C1708 C1707 1.403 . S
C1708 C1709 1.404 . S
C1708 C1711 1.539 . S
C1709 C1705 1.408 . S
C1709 C1708 1.404 . S
C1709 H1721 0.930 . S
C1710 C1706 1.524 . S
C1710 H1722 0.956 . S
C1710 H1723 0.961 . S
C1710 H1724 0.961 . S
C1711 C1708 1.539 . S
C1711 H1725 0.958 . S
C1711 H1726 0.961 . S
C1711 H1727 0.960 . S
H1712 C1696 0.931 . S
H1713 C1701 0.929 . S
H1714 C1702 0.960 . S
H1715 C1702 0.962 . S
H1716 C1702 0.960 . S
H1717 C1703 0.961 . S
H1718 C1703 0.961 . S
H1719 C1703 0.961 . S
H1720 C1704 0.931 . S
H1721 C1709 0.930 . S
H1722 C1710 0.956 . S
H1723 C1710 0.961 . S
H1724 C1710 0.961 . S
H1725 C1711 0.958 . S
H1726 C1711 0.961 . S
H1727 C1711 0.960 . S
C1728 C1729 1.391 . S
C1728 C1730 1.394 . S
C1728 H1744 0.931 . S
C1729 C1728 1.391 . S
C1729 C1733 1.376 . S
C1730 C1728 1.394 . S
C1730 C1731 1.369 . S
C1730 C1734 1.531 1_455 S
C1731 C1730 1.369 . S
C1731 C1732 1.410 . S
C1731 C1739 1.503 1_455 S
C1732 C1731 1.410 . S
C1732 C1733 1.392 . S
C1732 C1735 1.511 . S
C1733 C1729 1.376 . S
C1733 C1732 1.392 . S
C1733 H1745 0.929 . S
C1734 C1730 1.531 1_655 S
C1734 H1746 0.960 . S
C1734 H1747 0.962 . S
C1734 H1748 0.960 1_655 S
C1735 C1732 1.511 . S
C1735 H1749 0.961 . S
C1735 H1750 0.961 . S
C1735 H1751 0.961 . S
C1736 C1737 1.370 . S
C1736 C1738 1.363 . S
C1736 H1752 0.931 . S
C1737 C1736 1.370 . S
C1737 C1741 1.408 . S
C1738 C1736 1.363 . S
C1738 C1739 1.370 . S
C1738 C1742 1.524 . S
C1739 C1731 1.503 1_655 S
C1739 C1738 1.370 . S
C1739 C1740 1.403 . S
C1740 C1739 1.403 . S
C1740 C1741 1.404 . S
C1740 C1743 1.539 . S
C1741 C1737 1.408 . S
C1741 C1740 1.404 . S
C1741 H1753 0.930 . S
C1742 C1738 1.524 . S
C1742 H1754 0.956 . S
C1742 H1755 0.961 1_655 S
C1742 H1756 0.961 . S
C1743 C1740 1.539 . S
C1743 H1757 0.958 . S
C1743 H1758 0.961 . S
C1743 H1759 0.960 1_655 S
H1744 C1728 0.931 . S
H1745 C1733 0.929 . S
H1746 C1734 0.960 . S
H1747 C1734 0.962 . S
H1748 C1734 0.960 1_455 S
H1749 C1735 0.961 . S
H1750 C1735 0.961 . S
H1751 C1735 0.961 . S
H1752 C1736 0.931 . S
H1753 C1741 0.930 . S
H1754 C1742 0.956 . S
H1755 C1742 0.961 1_455 S
H1756 C1742 0.961 . S
H1757 C1743 0.958 . S
H1758 C1743 0.961 . S
H1759 C1743 0.960 1_455 S
C1760 C1761 1.391 . S
C1760 C1762 1.394 . S
C1760 H1776 0.931 . S
C1761 C1760 1.391 . S
C1761 C1765 1.376 . S
C1762 C1760 1.394 . S
C1762 C1763 1.369 . S
C1762 C1766 1.531 . S
C1763 C1762 1.369 . S
C1763 C1764 1.410 . S
C1763 C1771 1.503 1_655 S
C1764 C1763 1.410 . S
C1764 C1765 1.392 . S
C1764 C1767 1.511 . S
C1765 C1761 1.376 . S
C1765 C1764 1.392 . S
C1765 H1777 0.929 . S
C1766 C1762 1.531 . S
C1766 H1778 0.960 1_655 S
C1766 H1779 0.962 . S
C1766 H1780 0.960 . S
C1767 C1764 1.511 . S
C1767 H1781 0.961 . S
C1767 H1782 0.961 1_655 S
C1767 H1783 0.961 1_655 S
C1768 C1769 1.370 . S
C1768 C1770 1.363 . S
C1768 H1784 0.931 . S
C1769 C1768 1.370 . S
C1769 C1773 1.408 . S
C1770 C1768 1.363 . S
C1770 C1771 1.370 . S
C1770 C1774 1.524 1_455 S
C1771 C1763 1.503 1_455 S
C1771 C1770 1.370 . S
C1771 C1772 1.403 . S
C1772 C1771 1.403 . S
C1772 C1773 1.404 . S
C1772 C1775 1.539 . S
C1773 C1769 1.408 . S
C1773 C1772 1.404 . S
C1773 H1785 0.930 . S
C1774 C1770 1.524 1_655 S
C1774 H1786 0.956 . S
C1774 H1787 0.961 . S
C1774 H1788 0.961 1_655 S
C1775 C1772 1.539 . S
C1775 H1789 0.958 . S
C1775 H1790 0.961 . S
C1775 H1791 0.960 . S
H1776 C1760 0.931 . S
H1777 C1765 0.929 . S
H1778 C1766 0.960 1_455 S
H1779 C1766 0.962 . S
H1780 C1766 0.960 . S
H1781 C1767 0.961 . S
H1782 C1767 0.961 1_455 S
H1783 C1767 0.961 1_455 S
H1784 C1768 0.931 . S
H1785 C1773 0.930 . S
H1786 C1774 0.956 . S
H1787 C1774 0.961 . S
H1788 C1774 0.961 1_455 S
H1789 C1775 0.958 . S
H1790 C1775 0.961 . S
H1791 C1775 0.960 . S
C1792 C1793 1.391 . S
C1792 C1794 1.394 . S
C1792 H1808 0.931 . S
C1793 C1792 1.391 . S
C1793 C1797 1.376 . S
C1794 C1792 1.394 . S
C1794 C1795 1.369 . S
C1794 C1798 1.531 . S
C1795 C1794 1.369 . S
C1795 C1796 1.410 . S
C1795 C1803 1.503 . S
C1796 C1795 1.410 . S
C1796 C1797 1.392 . S
C1796 C1799 1.511 . S
C1797 C1793 1.376 . S
C1797 C1796 1.392 . S
C1797 H1809 0.929 . S
C1798 C1794 1.531 . S
C1798 H1810 0.960 . S
C1798 H1811 0.962 . S
C1798 H1812 0.960 . S
C1799 C1796 1.511 . S
C1799 H1813 0.961 . S
C1799 H1814 0.961 . S
C1799 H1815 0.961 . S
C1800 C1801 1.370 . S
C1800 C1802 1.363 . S
C1800 H1816 0.931 . S
C1801 C1800 1.370 . S
C1801 C1805 1.408 . S
C1802 C1800 1.363 . S
C1802 C1803 1.370 . S
C1802 C1806 1.524 . S
C1803 C1795 1.503 . S
C1803 C1802 1.370 . S
C1803 C1804 1.403 . S
C1804 C1803 1.403 . S
C1804 C1805 1.404 . S
C1804 C1807 1.539 . S
C1805 C1801 1.408 . S
C1805 C1804 1.404 . S
C1805 H1817 0.930 . S
C1806 C1802 1.524 . S
C1806 H1818 0.956 . S
C1806 H1819 0.961 . S
C1806 H1820 0.961 . S
C1807 C1804 1.539 . S
C1807 H1821 0.958 . S
C1807 H1822 0.961 . S
C1807 H1823 0.960 . S
H1808 C1792 0.931 . S
H1809 C1797 0.929 . S
H1810 C1798 0.960 . S
H1811 C1798 0.962 . S
H1812 C1798 0.960 . S
H1813 C1799 0.961 . S
H1814 C1799 0.961 . S
H1815 C1799 0.961 . S
H1816 C1800 0.931 . S
H1817 C1805 0.930 . S
H1818 C1806 0.956 . S
H1819 C1806 0.961 . S
H1820 C1806 0.961 . S
H1821 C1807 0.958 . S
H1822 C1807 0.961 . S
H1823 C1807 0.960 . S
C1824 C1825 1.391 . S
C1824 C1826 1.394 . S
C1824 H1840 0.931 . S
C1825 C1824 1.391 . S
C1825 C1829 1.376 . S
C1826 C1824 1.394 . S
C1826 C1827 1.369 . S
C1826 C1830 1.531 . S
C1827 C1826 1.369 . S
C1827 C1828 1.410 . S
C1827 C1835 1.503 . S
C1828 C1827 1.410 . S
C1828 C1829 1.392 . S
C1828 C1831 1.511 . S
C1829 C1825 1.376 . S
C1829 C1828 1.392 . S
C1829 H1841 0.929 . S
C1830 C1826 1.531 . S
C1830 H1842 0.960 . S
C1830 H1843 0.962 . S
C1830 H1844 0.960 . S
C1831 C1828 1.511 . S
C1831 H1845 0.961 . S
C1831 H1846 0.961 . S
C1831 H1847 0.961 . S
C1832 C1833 1.370 . S
C1832 C1834 1.363 . S
C1832 H1848 0.931 . S
C1833 C1832 1.370 . S
C1833 C1837 1.408 . S
C1834 C1832 1.363 . S
C1834 C1835 1.370 . S
C1834 C1838 1.524 . S
C1835 C1827 1.503 . S
C1835 C1834 1.370 . S
C1835 C1836 1.403 . S
C1836 C1835 1.403 . S
C1836 C1837 1.404 . S
C1836 C1839 1.539 . S
C1837 C1833 1.408 . S
C1837 C1836 1.404 . S
C1837 H1849 0.930 . S
C1838 C1834 1.524 . S
C1838 H1850 0.956 . S
C1838 H1851 0.961 . S
C1838 H1852 0.961 . S
C1839 C1836 1.539 . S
C1839 H1853 0.958 . S
C1839 H1854 0.961 . S
C1839 H1855 0.960 . S
H1840 C1824 0.931 . S
H1841 C1829 0.929 . S
H1842 C1830 0.960 . S
H1843 C1830 0.962 . S
H1844 C1830 0.960 . S
H1845 C1831 0.961 . S
H1846 C1831 0.961 . S
H1847 C1831 0.961 . S
H1848 C1832 0.931 . S
H1849 C1837 0.930 . S
H1850 C1838 0.956 . S
H1851 C1838 0.961 . S
H1852 C1838 0.961 . S
H1853 C1839 0.958 . S
H1854 C1839 0.961 . S
H1855 C1839 0.960 . S
C1856 C1857 1.391 . S
C1856 C1858 1.394 . S
C1856 H1872 0.931 . S
C1857 C1856 1.391 . S
C1857 C1861 1.376 . S
C1858 C1856 1.394 . S
C1858 C1859 1.369 . S
C1858 C1862 1.531 1_455 S
C1859 C1858 1.369 . S
C1859 C1860 1.410 . S
C1859 C1867 1.503 1_455 S
C1860 C1859 1.410 . S
C1860 C1861 1.392 . S
C1860 C1863 1.511 . S
C1861 C1857 1.376 . S
C1861 C1860 1.392 . S
C1861 H1873 0.929 . S
C1862 C1858 1.531 1_655 S
C1862 H1874 0.960 . S
C1862 H1875 0.962 . S
C1862 H1876 0.960 1_655 S
C1863 C1860 1.511 . S
C1863 H1877 0.961 . S
C1863 H1878 0.961 . S
C1863 H1879 0.961 . S
C1864 C1865 1.370 . S
C1864 C1866 1.363 . S
C1864 H1880 0.931 . S
C1865 C1864 1.370 . S
C1865 C1869 1.408 . S
C1866 C1864 1.363 . S
C1866 C1867 1.370 . S
C1866 C1870 1.524 . S
C1867 C1859 1.503 1_655 S
C1867 C1866 1.370 . S
C1867 C1868 1.403 . S
C1868 C1867 1.403 . S
C1868 C1869 1.404 . S
C1868 C1871 1.539 . S
C1869 C1865 1.408 . S
C1869 C1868 1.404 . S
C1869 H1881 0.930 . S
C1870 C1866 1.524 . S
C1870 H1882 0.966 . S
C1870 H1883 0.961 1_655 S
C1870 H1884 0.961 . S
C1871 C1868 1.539 . S
C1871 H1885 0.958 . S
C1871 H1886 0.961 . S
C1871 H1887 0.960 . S
H1872 C1856 0.931 . S
H1873 C1861 0.929 . S
H1874 C1862 0.960 . S
H1875 C1862 0.962 . S
H1876 C1862 0.960 1_455 S
H1877 C1863 0.961 . S
H1878 C1863 0.961 . S
H1879 C1863 0.961 . S
H1880 C1864 0.931 . S
H1881 C1869 0.930 . S
H1882 C1870 0.966 . S
H1883 C1870 0.961 1_455 S
H1884 C1870 0.961 . S
H1885 C1871 0.958 . S
H1886 C1871 0.961 . S
H1887 C1871 0.960 . S
C353 C10 1.442 . S
C361 C293 1.480 . S
C385 C279 1.481 . S
C393 C30 1.414 . S
C417 C337 1.471 . S
C425 C54 1.429 . S
C449 C315 1.473 . S
C457 C74 1.436 . S
C481 C205 1.484 . S
C489 C106 1.430 . S
C513 C128 1.468 . S
C521 C197 1.485 . S
C545 C263 1.486 . S
C553 C142 1.448 . S
C577 C164 1.423 . S
C585 C235 1.490 . S
C609 C131 1.485 . S
C617 C186 1.434 . S
C641 C206 1.420 . S
C649 C109 1.485 . S
C673 C161 1.483 . S
C681 C238 1.437 . S
C705 C139 1.477 . S
C713 C252 1.440 . S
C737 C272 1.419 . S
C745 C29 1.490 . S
C769 C21 1.480 . S
C777 C296 1.434 . S
C801 C318 1.408 . S
C809 C73 1.489 . S
C833 C65 1.483 . S
C841 C340 1.451 . S
C865 C228 1.453 . S
C873 C18 1.451 . S
C897 C32 1.448 . S
C905 C260 1.461 . S
C929 C194 1.449 . S
C937 C62 1.451 . S
C961 C208 1.451 . S
C969 C76 1.451 . S
C993 C316 1.462 . S
C1001 C98 1.454 . S
C1025 C120 1.438 . S
C1033 C338 1.455 . S
C1057 C140 1.462 . S
C1065 C282 1.451 . S
C1089 C294 1.462 . S
C1097 C162 1.454 . S
C1121 C7 1.575 . S
C1129 C37 1.588 . S
C1153 C51 1.585 . S
C1161 C81 1.595 . S
C1185 C103 1.602 . S
C1193 C125 1.602 . S
C1217 C175 1.583 . S
C1225 C153 1.593 . S
C1249 C213 1.576 . S
C1257 C183 1.590 . S
C1281 C241 1.597 . S
C1289 C249 1.591 . S
C1313 C307 1.593 . S
C1321 C271 1.599 . S
C1345 C329 1.604 . S
C1353 C351 1.603 . S
C1377 C285 0.475 . S
C1385 C15 0.587 . S
C1409 C43 0.627 . S
C1417 C301 0.519 . S
C1441 C59 0.561 . S
C1449 C323 0.549 . S
C1473 C87 0.475 . S
C1481 C345 0.577 . S
C1505 C95 0.614 . S
C1513 C191 0.522 . S
C1537 C117 0.618 . S
C1545 C219 0.520 . S
C1569 C147 0.621 . S
C1577 C227 0.520 . S
C1601 C257 0.473 . S
C1609 C169 0.576 . S
C1633 C8 1.530 . S
C1641 C216 1.516 . S
C1665 C40 1.525 . S
C1673 C184 1.519 . S
C1697 C250 1.524 . S
C1705 C52 1.518 . S
C1729 C230 1.516 . S
C1737 C84 1.522 . S
C1761 C96 1.509 . S
C1769 C304 1.495 . S
C1793 C118 1.503 . S
C1801 C274 1.495 . S
C1825 C348 1.507 . S
C1833 C150 1.495 . S
C1857 C172 1.507 . S
C1865 C326 1.502 . S
