# Generated by pormake.
# Topology fnr, (5)-cn, num edge types: 1
# Building blocks:
#     Node 0, Type 0, BuildingBlock: BEQFEK_clean_sbu_0, # of connection points: 5
#     Node 1, Type 0, BuildingBlock: BEQFEK_clean_sbu_0, # of connection points: 5
#     Node 2, Type 0, BuildingBlock: BEQFEK_clean_sbu_0, # of connection points: 5
#     Node 3, Type 0, BuildingBlock: BEQFEK_clean_sbu_0, # of connection points: 5
#     Node 4, Type 0, BuildingBlock: BEQFEK_clean_sbu_0, # of connection points: 5
#     Node 5, Type 0, BuildingBlock: BEQFEK_clean_sbu_0, # of connection points: 5
#     Node 6, Type 0, BuildingBlock: BEQFEK_clean_sbu_0, # of connection points: 5
#     Node 7, Type 0, BuildingBlock: BEQFEK_clean_sbu_0, # of connection points: 5
#     Node 8, Type 0, BuildingBlock: BEQFEK_clean_sbu_0, # of connection points: 5
#     Node 9, Type 0, BuildingBlock: BEQFEK_clean_sbu_0, # of connection points: 5
#     Node 10, Type 0, BuildingBlock: BEQFEK_clean_sbu_0, # of connection points: 5
#     Node 11, Type 0, BuildingBlock: BEQFEK_clean_sbu_0, # of connection points: 5
#     Edge 12, Type (0, 0), BuildingBlock: MIFKUJ_clean_linker_0, # of connection points: 2
#     Edge 13, Type (0, 0), BuildingBlock: MIFKUJ_clean_linker_0, # of connection points: 2
#     Edge 14, Type (0, 0), BuildingBlock: MIFKUJ_clean_linker_0, # of connection points: 2
#     Edge 15, Type (0, 0), BuildingBlock: MIFKUJ_clean_linker_0, # of connection points: 2
#     Edge 16, Type (0, 0), BuildingBlock: MIFKUJ_clean_linker_0, # of connection points: 2
#     Edge 17, Type (0, 0), BuildingBlock: MIFKUJ_clean_linker_0, # of connection points: 2
#     Edge 18, Type (0, 0), BuildingBlock: MIFKUJ_clean_linker_0, # of connection points: 2
#     Edge 19, Type (0, 0), BuildingBlock: MIFKUJ_clean_linker_0, # of connection points: 2
#     Edge 20, Type (0, 0), BuildingBlock: MIFKUJ_clean_linker_0, # of connection points: 2
#     Edge 21, Type (0, 0), BuildingBlock: MIFKUJ_clean_linker_0, # of connection points: 2
#     Edge 22, Type (0, 0), BuildingBlock: MIFKUJ_clean_linker_0, # of connection points: 2
#     Edge 23, Type (0, 0), BuildingBlock: MIFKUJ_clean_linker_0, # of connection points: 2
#     Edge 24, Type (0, 0), BuildingBlock: MIFKUJ_clean_linker_0, # of connection points: 2
#     Edge 25, Type (0, 0), BuildingBlock: MIFKUJ_clean_linker_0, # of connection points: 2
#     Edge 26, Type (0, 0), BuildingBlock: MIFKUJ_clean_linker_0, # of connection points: 2
#     Edge 27, Type (0, 0), BuildingBlock: MIFKUJ_clean_linker_0, # of connection points: 2
#     Edge 28, Type (0, 0), BuildingBlock: MIFKUJ_clean_linker_0, # of connection points: 2
#     Edge 29, Type (0, 0), BuildingBlock: MIFKUJ_clean_linker_0, # of connection points: 2
#     Edge 30, Type (0, 0), BuildingBlock: MIFKUJ_clean_linker_0, # of connection points: 2
#     Edge 31, Type (0, 0), BuildingBlock: MIFKUJ_clean_linker_0, # of connection points: 2
#     Edge 32, Type (0, 0), BuildingBlock: MIFKUJ_clean_linker_0, # of connection points: 2
#     Edge 33, Type (0, 0), BuildingBlock: MIFKUJ_clean_linker_0, # of connection points: 2
#     Edge 34, Type (0, 0), BuildingBlock: MIFKUJ_clean_linker_0, # of connection points: 2
#     Edge 35, Type (0, 0), BuildingBlock: MIFKUJ_clean_linker_0, # of connection points: 2
#     Edge 36, Type (0, 0), BuildingBlock: MIFKUJ_clean_linker_0, # of connection points: 2
#     Edge 37, Type (0, 0), BuildingBlock: MIFKUJ_clean_linker_0, # of connection points: 2
#     Edge 38, Type (0, 0), BuildingBlock: MIFKUJ_clean_linker_0, # of connection points: 2
#     Edge 39, Type (0, 0), BuildingBlock: MIFKUJ_clean_linker_0, # of connection points: 2
#     Edge 40, Type (0, 0), BuildingBlock: MIFKUJ_clean_linker_0, # of connection points: 2
#     Edge 41, Type (0, 0), BuildingBlock: MIFKUJ_clean_linker_0, # of connection points: 2
# Relax obj value: 0.136
# Max RMSD: 0.110
# Mean RMSD: 0.110
data_MOF--net-fnr--node1-BEQFEK_clean_sbu_0--edge1-MIFKUJ_clean_linker_0
_symmetry_space_group_name_H-M    P1
_symmetry_Int_Tables_number       1
_symmetry_cell_setting            triclinic
loop_
_symmetry_equiv_pos_as_xyz
'x, y, z'
_cell_length_a     56.255029
_cell_length_b     56.221667
_cell_length_c     60.932099
_cell_angle_alpha  90.026722
_cell_angle_beta   90.004234
_cell_angle_gamma 119.96324
loop_
_atom_site_label
_atom_site_type_symbol
_atom_site_fract_x
_atom_site_fract_y
_atom_site_fract_z
_atom_type_partial_charge
Co0 Co 0.44941 0.26282 0.10108 0.0
Co1 Co 0.40201 0.20187 0.09298 0.0
C2 C 0.46042 0.21683 0.08918 0.0
O3 O 0.46729 0.24115 0.09486 0.0
O4 O 0.43529 0.19874 0.08674 0.0
C5 C 0.4993 0.30744 0.08731 0.0
O6 O 0.49747 0.28809 0.07415 0.0
C7 C 0.36871 0.15025 0.06925 0.0
C8 C 0.32877 0.13224 0.08625 0.0
C9 C 0.34242 0.12767 0.06929 0.0
N10 N 0.3706 0.16734 0.08547 0.0
N11 N 0.34668 0.15637 0.09566 0.0
C12 C 0.39119 0.15647 0.05319 0.0
H13 H 0.40395 0.17898 0.05075 0.0
H14 H 0.38269 0.14627 0.0372 0.0
H15 H 0.40448 0.14879 0.05983 0.0
C16 C 0.41669 0.27393 0.06912 0.0
N17 N 0.42189 0.25631 0.0802 0.0
N18 N 0.40172 0.23106 0.07694 0.0
C19 C 0.3828 0.2319 0.06379 0.0
C20 C 0.3916 0.25916 0.05845 0.0
C21 C 0.43539 0.30441 0.06916 0.0
H22 H 0.45638 0.30916 0.06463 0.0
H23 H 0.42867 0.3149 0.05737 0.0
H24 H 0.43628 0.31248 0.08595 0.0
O25 O 0.43315 0.2519 0.13075 0.0
O26 O 0.40123 0.20819 0.12527 0.0
H27 H 0.34204 0.21288 0.04932 0.0
H28 H 0.35837 0.19217 0.04951 0.0
C29 C 0.35541 0.20743 0.05884 0.0
H30 H 0.34495 0.19779 0.07446 0.0
H31 H 0.3425 0.16549 0.10892 0.0
O32 O 0.47971 0.30202 0.10055 0.0
C33 C 0.41435 0.22879 0.13802 0.0
Co34 Co 0.18873 0.44942 0.60109 0.0
Co35 Co 0.20249 0.40236 0.59182 0.0
C36 C 0.24564 0.46068 0.58862 0.0
O37 O 0.2282 0.46744 0.59455 0.0
O38 O 0.2387 0.43562 0.58578 0.0
C39 C 0.19132 0.49632 0.58383 0.0
O40 O 0.20447 0.49046 0.5689 0.0
C41 C 0.22291 0.369 0.57045 0.0
C42 C 0.19418 0.32733 0.58271 0.0
C43 C 0.21664 0.34186 0.56914 0.0
N44 N 0.20504 0.37054 0.58425 0.0
N45 N 0.18806 0.34556 0.59164 0.0
C46 C 0.24419 0.39273 0.55755 0.0
H47 H 0.2358 0.40582 0.55187 0.0
H48 H 0.25115 0.38571 0.54317 0.0
H49 H 0.26208 0.40528 0.5683 0.0
C50 C 0.14406 0.41651 0.56986 0.0
N51 N 0.16728 0.42189 0.58038 0.0
N52 N 0.17312 0.40246 0.57594 0.0
C53 C 0.15384 0.38424 0.56211 0.0
C54 C 0.13468 0.39245 0.55788 0.0
C55 C 0.12958 0.43246 0.57333 0.0
H56 H 0.13219 0.43972 0.59056 0.0
H57 H 0.13878 0.45068 0.56241 0.0
H58 H 0.10737 0.41992 0.56959 0.0
O59 O 0.18393 0.43335 0.63068 0.0
O60 O 0.19555 0.40144 0.62426 0.0
H61 H 0.14589 0.34319 0.56614 0.0
H62 H 0.13997 0.35105 0.53867 0.0
C63 C 0.15351 0.35925 0.55326 0.0
H64 H 0.17458 0.36433 0.54862 0.0
H65 H 0.17197 0.34089 0.60253 0.0
O66 O 0.18063 0.48013 0.60005 0.0
C67 C 0.18837 0.41443 0.63746 0.0
Co68 Co 0.74595 0.1903 0.09852 0.0
Co69 Co 0.80655 0.20229 0.09183 0.0
C70 C 0.79136 0.24545 0.08375 0.0
O71 O 0.76642 0.22885 0.08846 0.0
O72 O 0.80929 0.238 0.08439 0.0
C73 C 0.69825 0.18723 0.08114 0.0
O74 O 0.71498 0.19784 0.06436 0.0
C75 C 0.85803 0.21929 0.06815 0.0
C76 C 0.87801 0.20182 0.08858 0.0
C77 C 0.88168 0.21738 0.06992 0.0
N78 N 0.8412 0.20531 0.08488 0.0
N79 N 0.85324 0.19486 0.09699 0.0
C80 C 0.85239 0.23641 0.05249 0.0
H81 H 0.85495 0.25482 0.0613 0.0
H82 H 0.83079 0.2246 0.04677 0.0
H83 H 0.86646 0.24351 0.03827 0.0
C84 C 0.73442 0.14295 0.06985 0.0
N85 N 0.75199 0.16677 0.07984 0.0
N86 N 0.7773 0.17194 0.07667 0.0
C87 C 0.77659 0.15158 0.0644 0.0
C88 C 0.74937 0.13248 0.05969 0.0
C89 C 0.70386 0.13052 0.07026 0.0
H90 H 0.69815 0.14313 0.05996 0.0
H91 H 0.69302 0.10933 0.06367 0.0
H92 H 0.69692 0.13062 0.08728 0.0
O93 O 0.75786 0.18849 0.129 0.0
O94 O 0.80065 0.19704 0.12408 0.0
H95 H 0.81183 0.14965 0.07487 0.0
H96 H 0.79584 0.12977 0.05053 0.0
C97 C 0.80128 0.14909 0.05934 0.0
H98 H 0.81576 0.16683 0.04919 0.0
H99 H 0.84471 0.18334 0.11121 0.0
O100 O 0.70676 0.18093 0.09832 0.0
C101 C 0.78047 0.19185 0.13666 0.0
Co102 Co 0.55901 0.74307 0.60086 0.0
Co103 Co 0.60538 0.80417 0.59241 0.0
C104 C 0.54674 0.78743 0.58667 0.0
O105 O 0.54021 0.76336 0.59282 0.0
O106 O 0.57178 0.806 0.58469 0.0
C107 C 0.51423 0.69661 0.58327 0.0
O108 O 0.52037 0.71442 0.56727 0.0
C109 C 0.63896 0.85663 0.56955 0.0
C110 C 0.67891 0.87352 0.58644 0.0
C111 C 0.66545 0.87885 0.5698 0.0
N112 N 0.63678 0.83894 0.58535 0.0
N113 N 0.6607 0.84929 0.5955 0.0
C114 C 0.61658 0.85138 0.55366 0.0
H115 H 0.60416 0.82909 0.55009 0.0
H116 H 0.62509 0.8629 0.53816 0.0
H117 H 0.60295 0.85815 0.56113 0.0
C118 C 0.5941 0.73225 0.57104 0.0
N119 N 0.58771 0.74967 0.58111 0.0
N120 N 0.60724 0.7751 0.57743 0.0
C121 C 0.62676 0.77463 0.56482 0.0
C122 C 0.61915 0.74742 0.5604 0.0
C123 C 0.57636 0.70164 0.57176 0.0
H124 H 0.55717 0.69563 0.5626 0.0
H125 H 0.58623 0.69089 0.56412 0.0
H126 H 0.57083 0.69481 0.58902 0.0
O127 O 0.57381 0.75488 0.63085 0.0
O128 O 0.60501 0.79872 0.62496 0.0
H129 H 0.66676 0.79469 0.54902 0.0
H130 H 0.64969 0.81467 0.55068 0.0
C131 C 0.65356 0.79959 0.55934 0.0
H132 H 0.6647 0.80915 0.57476 0.0
H133 H 0.66469 0.83962 0.60844 0.0
O134 O 0.52934 0.70391 0.60031 0.0
C135 C 0.59189 0.77843 0.63796 0.0
Co136 Co 0.81999 0.55748 0.10043 0.0
Co137 Co 0.80693 0.60507 0.09173 0.0
C138 C 0.76412 0.54678 0.08545 0.0
O139 O 0.78115 0.53934 0.09118 0.0
O140 O 0.77112 0.57204 0.08459 0.0
C141 C 0.82044 0.5118 0.08327 0.0
O142 O 0.80758 0.51711 0.06773 0.0
C143 C 0.78813 0.63883 0.06916 0.0
C144 C 0.81202 0.67902 0.08557 0.0
C145 C 0.79236 0.66538 0.06949 0.0
N146 N 0.80431 0.63683 0.08444 0.0
N147 N 0.81851 0.66093 0.09422 0.0
C148 C 0.77078 0.61628 0.05344 0.0
H149 H 0.78034 0.6035 0.0501 0.0
H150 H 0.76811 0.6247 0.03775 0.0
H151 H 0.75031 0.60298 0.06087 0.0
C152 C 0.86657 0.59202 0.07124 0.0
N153 N 0.8429 0.58625 0.08116 0.0
N154 N 0.837 0.60558 0.07656 0.0
C155 C 0.85651 0.62401 0.06302 0.0
C156 C 0.87605 0.61612 0.05923 0.0
C157 C 0.88121 0.57633 0.07526 0.0
H158 H 0.8773 0.56815 0.09224 0.0
H159 H 0.87334 0.55878 0.06367 0.0
H160 H 0.90366 0.58944 0.07286 0.0
O161 O 0.82217 0.57187 0.13045 0.0
O162 O 0.81237 0.60508 0.12424 0.0
H163 H 0.86249 0.66444 0.06654 0.0
H164 H 0.87015 0.65704 0.03939 0.0
C165 C 0.85616 0.64843 0.05367 0.0
H166 H 0.83508 0.64248 0.04833 0.0
H167 H 0.83271 0.66505 0.10675 0.0
O168 O 0.82934 0.52762 0.09987 0.0
C169 C 0.81811 0.59097 0.1374 0.0
Co170 Co 0.26566 0.82085 0.59941 0.0
Co171 Co 0.2045 0.80643 0.59189 0.0
C172 C 0.22191 0.76496 0.58416 0.0
O173 O 0.24645 0.78244 0.58925 0.0
O174 O 0.20302 0.77115 0.58449 0.0
C175 C 0.31358 0.82606 0.58136 0.0
O176 O 0.2968 0.81645 0.56451 0.0
C177 C 0.15254 0.78748 0.56839 0.0
C178 C 0.13354 0.80761 0.58671 0.0
C179 C 0.1293 0.79018 0.56918 0.0
N180 N 0.16953 0.80244 0.58475 0.0
N181 N 0.158 0.81435 0.59568 0.0
C182 C 0.15971 0.77284 0.55142 0.0
H183 H 0.1823 0.78317 0.54933 0.0
H184 H 0.14996 0.77225 0.53544 0.0
H185 H 0.15231 0.75147 0.55695 0.0
C186 C 0.27594 0.86728 0.57027 0.0
N187 N 0.25883 0.84351 0.58049 0.0
N188 N 0.23328 0.83728 0.57682 0.0
C189 C 0.23343 0.85695 0.564 0.0
C190 C 0.26047 0.87654 0.55938 0.0
C191 C 0.3065 0.88229 0.57278 0.0
H192 H 0.31219 0.87895 0.58944 0.0
H193 H 0.3154 0.87433 0.56055 0.0
H194 H 0.31537 0.90465 0.56999 0.0
O195 O 0.2532 0.82201 0.62973 0.0
O196 O 0.21007 0.81207 0.62423 0.0
H197 H 0.19789 0.86009 0.57097 0.0
H198 H 0.21302 0.87364 0.54443 0.0
C199 C 0.20818 0.85713 0.55656 0.0
H200 H 0.19378 0.83707 0.54898 0.0
H201 H 0.16692 0.82722 0.60919 0.0
O202 O 0.30501 0.83116 0.59909 0.0
C203 C 0.23019 0.81789 0.63708 0.0
Co204 Co 0.74585 0.56114 0.40832 0.0
Co205 Co 0.8079 0.60675 0.41511 0.0
C206 C 0.7896 0.54739 0.42059 0.0
O207 O 0.76524 0.54129 0.4158 0.0
O208 O 0.80876 0.57232 0.42146 0.0
C209 C 0.7 0.51804 0.42768 0.0
O210 O 0.7187 0.52476 0.44304 0.0
C211 C 0.86215 0.63944 0.43629 0.0
C212 C 0.87793 0.67984 0.42035 0.0
C213 C 0.88436 0.66611 0.43605 0.0
N214 N 0.84337 0.63775 0.42169 0.0
N215 N 0.85304 0.66194 0.41215 0.0
C216 C 0.85945 0.61522 0.44869 0.0
H217 H 0.85669 0.59911 0.43683 0.0
H218 H 0.84091 0.60668 0.45924 0.0
H219 H 0.87778 0.62025 0.4587 0.0
C220 C 0.7378 0.5968 0.43952 0.0
N221 N 0.75423 0.59015 0.42821 0.0
N222 N 0.78003 0.60907 0.43149 0.0
C223 C 0.78071 0.62835 0.44515 0.0
C224 C 0.75399 0.62113 0.45073 0.0
C225 C 0.70714 0.58167 0.43784 0.0
H226 H 0.70069 0.57353 0.42099 0.0
H227 H 0.69859 0.56416 0.44947 0.0
H228 H 0.69859 0.59514 0.442 0.0
O229 O 0.75686 0.57538 0.37807 0.0
O230 O 0.8008 0.60703 0.38291 0.0
H231 H 0.81549 0.66759 0.43837 0.0
H232 H 0.80222 0.6642 0.46589 0.0
C233 C 0.80638 0.65341 0.45248 0.0
H234 H 0.82141 0.64753 0.45829 0.0
H235 H 0.84254 0.66629 0.40012 0.0
O236 O 0.70646 0.53229 0.41019 0.0
C237 C 0.77999 0.59365 0.37043 0.0
Co238 Co 0.19315 0.74505 0.90614 0.0
Co239 Co 0.20651 0.80561 0.91642 0.0
C240 C 0.24851 0.78875 0.92286 0.0
O241 O 0.23163 0.76436 0.91682 0.0
O242 O 0.24164 0.80712 0.92357 0.0
C243 C 0.18779 0.69599 0.92226 0.0
O244 O 0.19791 0.71195 0.93954 0.0
C245 C 0.22913 0.86164 0.93496 0.0
C246 C 0.19453 0.86916 0.93025 0.0
C247 C 0.22057 0.88054 0.9393 0.0
N248 N 0.20871 0.83981 0.92459 0.0
N249 N 0.18833 0.84475 0.92146 0.0
C250 C 0.25712 0.86532 0.93842 0.0
H251 H 0.26325 0.8581 0.9237 0.0
H252 H 0.25668 0.85286 0.95271 0.0
H253 H 0.27276 0.88715 0.94112 0.0
C254 C 0.14572 0.73226 0.93471 0.0
N255 N 0.16963 0.75038 0.9252 0.0
N256 N 0.17622 0.77544 0.93114 0.0
C257 C 0.15732 0.77386 0.94566 0.0
C258 C 0.13707 0.74644 0.94821 0.0
C259 C 0.13019 0.70234 0.92905 0.0
H260 H 0.13498 0.69908 0.91205 0.0
H261 H 0.13627 0.69095 0.94047 0.0
H262 H 0.10774 0.69398 0.93049 0.0
O263 O 0.19238 0.75889 0.87651 0.0
O264 O 0.20147 0.80144 0.88374 0.0
H265 H 0.14913 0.80696 0.94885 0.0
H266 H 0.14961 0.79131 0.97443 0.0
C267 C 0.15959 0.79786 0.95812 0.0
H268 H 0.18143 0.81365 0.96046 0.0
H269 H 0.16994 0.8312 0.91365 0.0
O270 O 0.18284 0.70564 0.90507 0.0
C271 C 0.19629 0.78217 0.8701 0.0
Co272 Co 0.45223 0.19335 0.40809 0.0
Co273 Co 0.40566 0.20772 0.41748 0.0
C274 C 0.4646 0.24879 0.42483 0.0
O275 O 0.47189 0.23159 0.41925 0.0
O276 O 0.43952 0.24247 0.42478 0.0
C277 C 0.49355 0.18344 0.42431 0.0
O278 O 0.48568 0.18905 0.44296 0.0
C279 C 0.3727 0.23018 0.43723 0.0
C280 C 0.33057 0.19782 0.42891 0.0
C281 C 0.3452 0.22235 0.44023 0.0
N282 N 0.37407 0.21069 0.42531 0.0
N283 N 0.3488 0.19168 0.4201 0.0
C284 C 0.39735 0.2568 0.44369 0.0
H285 H 0.41166 0.26513 0.42961 0.0
H286 H 0.40811 0.25317 0.45743 0.0
H287 H 0.39183 0.27242 0.44853 0.0
C288 C 0.41625 0.14568 0.4363 0.0
N289 N 0.42292 0.16991 0.42685 0.0
N290 N 0.40447 0.17681 0.43215 0.0
C291 C 0.38614 0.15766 0.446 0.0
C292 C 0.39284 0.13716 0.44893 0.0
C293 C 0.43007 0.12944 0.43123 0.0
H294 H 0.43961 0.13479 0.41474 0.0
H295 H 0.44623 0.13407 0.44366 0.0
H296 H 0.41516 0.10707 0.43182 0.0
O297 O 0.43798 0.19289 0.37827 0.0
O298 O 0.40507 0.20293 0.38489 0.0
H299 H 0.34504 0.15032 0.44622 0.0
H300 H 0.35764 0.14791 0.47277 0.0
C301 C 0.36332 0.15943 0.45705 0.0
H302 H 0.36954 0.18115 0.46039 0.0
H303 H 0.34397 0.1742 0.41085 0.0
O304 O 0.48114 0.18292 0.40671 0.0
C305 C 0.41904 0.19727 0.37154 0.0
Co306 Co 0.26274 0.44805 0.9079 0.0
Co307 Co 0.20196 0.40016 0.91527 0.0
C308 C 0.21787 0.45913 0.92172 0.0
O309 O 0.24265 0.46679 0.91694 0.0
O310 O 0.19967 0.43379 0.92187 0.0
C311 C 0.31089 0.49295 0.92448 0.0
O312 O 0.29433 0.48789 0.94124 0.0
C313 C 0.15098 0.36446 0.9399 0.0
C314 C 0.12882 0.33018 0.91663 0.0
C315 C 0.12643 0.33997 0.93691 0.0
N316 N 0.16707 0.36878 0.92225 0.0
N317 N 0.15371 0.34808 0.9085 0.0
C318 C 0.15837 0.38434 0.95851 0.0
H319 H 0.1765 0.40438 0.95445 0.0
H320 H 0.16355 0.37614 0.97316 0.0
H321 H 0.1407 0.38711 0.96273 0.0
C322 C 0.27394 0.41327 0.93793 0.0
N323 N 0.25642 0.41912 0.92737 0.0
N324 N 0.23111 0.39901 0.93055 0.0
C325 C 0.23183 0.37958 0.9431 0.0
C326 C 0.25898 0.3881 0.94833 0.0
C327 C 0.30453 0.43007 0.93619 0.0
H328 H 0.3105 0.43795 0.91923 0.0
H329 H 0.31207 0.44784 0.94752 0.0
H330 H 0.31444 0.41792 0.94064 0.0
O331 O 0.25062 0.43371 0.8777 0.0
O332 O 0.20777 0.39986 0.88301 0.0
H333 H 0.19583 0.342 0.93434 0.0
H334 H 0.21256 0.33975 0.95903 0.0
C335 C 0.20707 0.35303 0.94936 0.0
H336 H 0.19321 0.35735 0.95935 0.0
H337 H 0.16135 0.3465 0.89328 0.0
O338 O 0.30201 0.47739 0.90773 0.0
C339 C 0.22789 0.41443 0.87027 0.0
Co340 Co 0.81836 0.26094 0.40547 0.0
Co341 Co 0.80425 0.20022 0.41622 0.0
C342 C 0.76141 0.21579 0.41869 0.0
O343 O 0.77854 0.23952 0.41159 0.0
O344 O 0.76867 0.19817 0.42278 0.0
C345 C 0.81434 0.30588 0.41985 0.0
O346 O 0.79806 0.28688 0.43379 0.0
C347 C 0.78153 0.14431 0.43494 0.0
C348 C 0.81547 0.13599 0.42934 0.0
C349 C 0.78979 0.12511 0.43896 0.0
N350 N 0.80181 0.16584 0.42419 0.0
N351 N 0.82178 0.16041 0.42053 0.0
C352 C 0.75386 0.14115 0.4391 0.0
H353 H 0.74704 0.14768 0.42438 0.0
H354 H 0.75521 0.15442 0.45309 0.0
H355 H 0.73817 0.11955 0.44259 0.0
C356 C 0.86272 0.2735 0.43713 0.0
N357 N 0.83968 0.25528 0.4266 0.0
N358 N 0.83377 0.23016 0.43175 0.0
C359 C 0.85267 0.23178 0.4463 0.0
C360 C 0.87182 0.25926 0.45 0.0
C361 C 0.87718 0.30379 0.43297 0.0
H362 H 0.87535 0.30777 0.41541 0.0
H363 H 0.86732 0.31304 0.44289 0.0
H364 H 0.89922 0.31377 0.43743 0.0
O365 O 0.82352 0.24908 0.37633 0.0
O366 O 0.81047 0.20537 0.38354 0.0
H367 H 0.86273 0.19984 0.44615 0.0
H368 H 0.86328 0.21354 0.47291 0.0
C369 C 0.85227 0.20762 0.45696 0.0
H370 H 0.83084 0.19105 0.45973 0.0
H371 H 0.83997 0.17365 0.41234 0.0
O372 O 0.82716 0.30007 0.40556 0.0
C373 C 0.81823 0.22529 0.37 0.0
Co374 Co 0.56036 0.81645 0.90961 0.0
Co375 Co 0.60737 0.80219 0.91646 0.0
C376 C 0.54874 0.75987 0.923 0.0
O377 O 0.54156 0.77728 0.91788 0.0
O378 O 0.57394 0.76657 0.92359 0.0
C379 C 0.51484 0.81717 0.92698 0.0
O380 O 0.51959 0.80355 0.94223 0.0
C381 C 0.64094 0.78396 0.93974 0.0
C382 C 0.67917 0.80253 0.92032 0.0
C383 C 0.6666 0.78605 0.93844 0.0
N384 N 0.6385 0.79832 0.92312 0.0
N385 N 0.6614 0.80933 0.91153 0.0
C386 C 0.61974 0.77039 0.95729 0.0
H387 H 0.60752 0.78083 0.95904 0.0
H388 H 0.62947 0.77078 0.97323 0.0
H389 H 0.60561 0.74871 0.95259 0.0
C390 C 0.59539 0.8613 0.94036 0.0
N391 N 0.5893 0.83819 0.92928 0.0
N392 N 0.6091 0.83246 0.93219 0.0
C393 C 0.62856 0.85199 0.94512 0.0
C394 C 0.62041 0.87076 0.95083 0.0
C395 C 0.57884 0.87542 0.93922 0.0
H396 H 0.57182 0.87494 0.92213 0.0
H397 H 0.56045 0.86429 0.9498 0.0
H398 H 0.5908 0.89703 0.94489 0.0
O399 O 0.57463 0.81947 0.87924 0.0
O400 O 0.60703 0.80826 0.88426 0.0
H401 H 0.66661 0.85477 0.93618 0.0
H402 H 0.66759 0.87085 0.96218 0.0
C403 C 0.65487 0.85316 0.95128 0.0
H404 H 0.65027 0.83394 0.95983 0.0
H405 H 0.66491 0.82154 0.89766 0.0
O406 O 0.53108 0.82656 0.91067 0.0
C407 C 0.59318 0.81495 0.87166 0.0
H408 H 0.66315 0.17895 0.11524 0.0
H409 H 0.61944 0.17844 0.11363 0.0
H410 H 0.62672 0.1872 0.0432 0.0
H411 H 0.67077 0.18866 0.04481 0.0
H412 H 0.61392 0.22176 0.05836 0.0
H413 H 0.57843 0.12577 0.06936 0.0
H414 H 0.57389 0.0844 0.08731 0.0
H415 H 0.54846 0.10568 0.14705 0.0
H416 H 0.5532 0.14739 0.12956 0.0
H417 H 0.45637 0.16915 0.0728 0.0
H418 H 0.49378 0.15898 0.06803 0.0
H419 H 0.55111 0.23832 0.09495 0.0
H420 H 0.5145 0.24888 0.09914 0.0
H421 H 0.52817 0.15492 0.09622 0.0
H422 H 0.61171 0.26507 0.07136 0.0
H423 H 0.61477 0.30503 0.05197 0.0
H424 H 0.54199 0.25181 0.01543 0.0
H425 H 0.53866 0.21151 0.03439 0.0
C426 C 0.65525 0.18041 0.0994 0.0
C427 C 0.67048 0.18398 0.08017 0.0
C428 C 0.63017 0.17999 0.09847 0.0
C429 C 0.61959 0.18257 0.07826 0.0
C430 C 0.63443 0.18527 0.059 0.0
C431 C 0.65962 0.18605 0.05994 0.0
C432 C 0.5941 0.1844 0.07729 0.0
C433 C 0.59514 0.20699 0.06652 0.0
C434 C 0.56936 0.16496 0.08763 0.0
C435 C 0.56635 0.13982 0.09817 0.0
C436 C 0.57204 0.12173 0.08637 0.0
C437 C 0.56941 0.0982 0.09646 0.0
C438 C 0.56094 0.09244 0.11832 0.0
C439 C 0.55503 0.11017 0.13012 0.0
C440 C 0.55765 0.13374 0.12012 0.0
C441 C 0.47699 0.18444 0.07757 0.0
C442 C 0.48243 0.20992 0.08613 0.0
C443 C 0.49831 0.17858 0.07491 0.0
C444 C 0.52535 0.19809 0.08077 0.0
C445 C 0.53059 0.2232 0.08979 0.0
C446 C 0.5095 0.22915 0.09224 0.0
C447 C 0.54834 0.19253 0.07772 0.0
C448 C 0.54687 0.16939 0.0878 0.0
C449 C 0.57257 0.21119 0.06641 0.0
C450 C 0.57487 0.23526 0.05441 0.0
C451 C 0.59647 0.26187 0.05907 0.0
C452 C 0.59822 0.28459 0.04819 0.0
C453 C 0.57856 0.28097 0.03252 0.0
C454 C 0.55716 0.2546 0.02762 0.0
C455 C 0.55532 0.23181 0.03845 0.0
H456 H 0.57991 0.29859 0.02416 0.0
H457 H 0.55893 0.07422 0.1261 0.0
H458 H 0.26898 0.51273 0.60435 0.0
H459 H 0.31626 0.5494 0.60081 0.0
H460 H 0.33547 0.49586 0.56357 0.0
H461 H 0.28789 0.45835 0.56774 0.0
H462 H 0.37595 0.52603 0.59151 0.0
H463 H 0.3254 0.5447 0.5382 0.0
H464 H 0.28719 0.55048 0.5249 0.0
H465 H 0.31183 0.61913 0.56816 0.0
H466 H 0.34978 0.61336 0.58218 0.0
H467 H 0.48249 0.67331 0.54713 0.0
H468 H 0.4393 0.62995 0.54484 0.0
H469 H 0.44584 0.61485 0.61339 0.0
H470 H 0.48952 0.65803 0.61567 0.0
H471 H 0.39341 0.61653 0.56427 0.0
H472 H 0.41172 0.54633 0.62367 0.0
H473 H 0.44957 0.53889 0.63511 0.0
H474 H 0.4906 0.57175 0.57382 0.0
H475 H 0.45283 0.57903 0.56189 0.0
C476 C 0.28316 0.50864 0.59533 0.0
C477 C 0.27457 0.48265 0.58611 0.0
C478 C 0.31024 0.52972 0.59329 0.0
C479 C 0.3293 0.52559 0.58153 0.0
C480 C 0.32104 0.49953 0.57263 0.0
C481 C 0.29386 0.47816 0.57495 0.0
C482 C 0.35768 0.54879 0.57848 0.0
C483 C 0.37983 0.54579 0.58544 0.0
C484 C 0.36277 0.57443 0.57013 0.0
C485 C 0.34037 0.57847 0.56134 0.0
C486 C 0.32259 0.56094 0.54498 0.0
C487 C 0.30094 0.56418 0.53735 0.0
C488 C 0.297 0.58508 0.54577 0.0
C489 C 0.31482 0.60287 0.56176 0.0
C490 C 0.33642 0.59964 0.56954 0.0
C491 C 0.47494 0.66062 0.56168 0.0
C492 C 0.48939 0.66916 0.58162 0.0
C493 C 0.4502 0.63584 0.56034 0.0
C494 C 0.43931 0.61905 0.5789 0.0
C495 C 0.45402 0.62721 0.59874 0.0
C496 C 0.47894 0.65196 0.60006 0.0
C497 C 0.41174 0.59403 0.5778 0.0
C498 C 0.38967 0.59672 0.57011 0.0
C499 C 0.40685 0.56803 0.58505 0.0
C500 C 0.42953 0.56344 0.59198 0.0
C501 C 0.42875 0.55185 0.61259 0.0
C502 C 0.45021 0.54768 0.61917 0.0
C503 C 0.47251 0.55492 0.60522 0.0
C504 C 0.47337 0.56625 0.58464 0.0
C505 C 0.45195 0.57044 0.57797 0.0
H506 H 0.48911 0.55169 0.61035 0.0
H507 H 0.2802 0.58753 0.53988 0.0
H508 H 0.84168 0.29079 0.09059 0.0
H509 H 0.85336 0.33903 0.08832 0.0
H510 H 0.77188 0.3138 0.06478 0.0
H511 H 0.75978 0.2656 0.06756 0.0
H512 H 0.81949 0.36193 0.0422 0.0
H513 H 0.77879 0.32529 0.11411 0.0
H514 H 0.77684 0.30283 0.14935 0.0
H515 H 0.8589 0.36641 0.1644 0.0
H516 H 0.86146 0.38902 0.12905 0.0
H517 H 0.78911 0.46647 0.0587 0.0
H518 H 0.79094 0.42423 0.05695 0.0
H519 H 0.85907 0.45809 0.10226 0.0
H520 H 0.85635 0.50026 0.1049 0.0
H521 H 0.82654 0.40841 0.11317 0.0
H522 H 0.86645 0.44937 0.04505 0.0
H523 H 0.87131 0.47263 0.00967 0.0
H524 H 0.79659 0.40341 0.98665 0.0
H525 H 0.79105 0.37987 0.02201 0.0
C526 C 0.82642 0.29556 0.08457 0.0
C527 C 0.79977 0.27445 0.07934 0.0
C528 C 0.8331 0.32307 0.08335 0.0
C529 C 0.81342 0.32985 0.07647 0.0
C530 C 0.78732 0.30891 0.0701 0.0
C531 C 0.78044 0.28142 0.07176 0.0
C532 C 0.81919 0.35854 0.07734 0.0
C533 C 0.82097 0.37218 0.05766 0.0
C534 C 0.8221 0.3721 0.09754 0.0
C535 C 0.82045 0.35863 0.11884 0.0
C536 C 0.79651 0.33433 0.12484 0.0
C537 C 0.79527 0.3216 0.14485 0.0
C538 C 0.81777 0.33313 0.15907 0.0
C539 C 0.84151 0.35747 0.15334 0.0
C540 C 0.84287 0.37025 0.13333 0.0
C541 C 0.80465 0.46507 0.06818 0.0
C542 C 0.82271 0.48675 0.08184 0.0
C543 C 0.80582 0.4409 0.06705 0.0
C544 C 0.8256 0.4381 0.07903 0.0
C545 C 0.84372 0.45978 0.09273 0.0
C546 C 0.84219 0.48386 0.09422 0.0
C547 C 0.82627 0.41196 0.07792 0.0
C548 C 0.82564 0.39864 0.09759 0.0
C549 C 0.82497 0.39892 0.05764 0.0
C550 C 0.82826 0.41291 0.03626 0.0
C551 C 0.85096 0.43916 0.0325 0.0
C552 C 0.85385 0.45239 0.01243 0.0
C553 C 0.83425 0.43952 0.99593 0.0
C554 C 0.81175 0.41335 0.99944 0.0
C555 C 0.80875 0.40004 0.01949 0.0
H556 H 0.83652 0.4498 0.98041 0.0
H557 H 0.81677 0.32325 0.17456 0.0
H558 H 0.54851 0.83138 0.56499 0.0
H559 H 0.51111 0.84169 0.56132 0.0
H560 H 0.45806 0.76917 0.59896 0.0
H561 H 0.4945 0.75819 0.60169 0.0
H562 H 0.43005 0.77157 0.56811 0.0
H563 H 0.49196 0.83782 0.62055 0.0
H564 H 0.53638 0.87562 0.63359 0.0
H565 H 0.53612 0.92762 0.5821 0.0
H566 H 0.49183 0.88999 0.56861 0.0
H567 H 0.35166 0.83994 0.61423 0.0
H568 H 0.39408 0.83779 0.61294 0.0
H569 H 0.37973 0.81527 0.54453 0.0
H570 H 0.33733 0.81709 0.5457 0.0
H571 H 0.44201 0.86208 0.58947 0.0
H572 H 0.39333 0.7633 0.5361 0.0
H573 H 0.34772 0.72311 0.52877 0.0
H574 H 0.3195 0.73239 0.59194 0.0
H575 H 0.36501 0.77234 0.59977 0.0
C576 C 0.52879 0.81761 0.57233 0.0
C577 C 0.52449 0.79395 0.58357 0.0
C578 C 0.50747 0.82359 0.57035 0.0
C579 C 0.48175 0.80638 0.58008 0.0
C580 C 0.47755 0.78272 0.59117 0.0
C581 C 0.49853 0.77649 0.59276 0.0
C582 C 0.45894 0.81259 0.57898 0.0
C583 C 0.43282 0.79146 0.57266 0.0
C584 C 0.46224 0.83835 0.58527 0.0
C585 C 0.48875 0.86102 0.59344 0.0
C586 C 0.50147 0.85726 0.61193 0.0
C587 C 0.52661 0.87866 0.61942 0.0
C588 C 0.5391 0.90398 0.60864 0.0
C589 C 0.52644 0.90798 0.59041 0.0
C590 C 0.50132 0.88664 0.58284 0.0
C591 C 0.35774 0.8349 0.59884 0.0
C592 C 0.34093 0.82833 0.58014 0.0
C593 C 0.38203 0.83379 0.59811 0.0
C594 C 0.38984 0.82601 0.57872 0.0
C595 C 0.37388 0.82095 0.55974 0.0
C596 C 0.34964 0.82203 0.56045 0.0
C597 C 0.41338 0.82104 0.57871 0.0
C598 C 0.43949 0.84235 0.58473 0.0
C599 C 0.40994 0.79512 0.57294 0.0
C600 C 0.38249 0.77104 0.56837 0.0
C601 C 0.3774 0.75673 0.54843 0.0
C602 C 0.35157 0.73398 0.5442 0.0
C603 C 0.3307 0.72527 0.55984 0.0
C604 C 0.33564 0.73923 0.57979 0.0
C605 C 0.36144 0.76195 0.58411 0.0
H606 H 0.31072 0.70766 0.55654 0.0
H607 H 0.55857 0.92052 0.61445 0.0
H608 H 0.71837 0.55243 0.08357 0.0
H609 H 0.67038 0.51548 0.08098 0.0
H610 H 0.69701 0.45585 0.07566 0.0
H611 H 0.74469 0.49236 0.07815 0.0
H612 H 0.65498 0.44506 0.04732 0.0
H613 H 0.67753 0.46865 0.12437 0.0
H614 H 0.6928 0.50063 0.15578 0.0
H615 H 0.626 0.51566 0.14505 0.0
H616 H 0.61056 0.48405 0.11337 0.0
H617 H 0.55053 0.31734 0.07908 0.0
H618 H 0.5927 0.36144 0.07714 0.0
H619 H 0.54756 0.40294 0.09214 0.0
H620 H 0.50515 0.3582 0.09539 0.0
H621 H 0.59506 0.42791 0.11212 0.0
H622 H 0.5689 0.39946 0.03778 0.0
H623 H 0.55334 0.36661 0.00697 0.0
H624 H 0.6264 0.36082 0.01218 0.0
H625 H 0.64231 0.39347 0.04314 0.0
C626 C 0.71398 0.53148 0.08152 0.0
C627 C 0.73533 0.52531 0.08125 0.0
C628 C 0.68657 0.51041 0.08015 0.0
C629 C 0.68016 0.48292 0.07838 0.0
C630 C 0.70149 0.47691 0.07706 0.0
C631 C 0.72877 0.49784 0.07857 0.0
C632 C 0.65137 0.46 0.07896 0.0
C633 C 0.64184 0.44129 0.06146 0.0
C634 C 0.63398 0.45553 0.09716 0.0
C635 C 0.64309 0.47426 0.11635 0.0
C636 C 0.66622 0.47894 0.12862 0.0
C637 C 0.67489 0.49697 0.14648 0.0
C638 C 0.66044 0.51024 0.15236 0.0
C639 C 0.63721 0.50542 0.14044 0.0
C640 C 0.62849 0.48745 0.12254 0.0
C641 C 0.54957 0.33585 0.08201 0.0
C642 C 0.52459 0.33445 0.08713 0.0
C643 C 0.57369 0.36111 0.08076 0.0
C644 C 0.57324 0.38565 0.08373 0.0
C645 C 0.54838 0.38431 0.08952 0.0
C646 C 0.52421 0.35882 0.09136 0.0
C647 C 0.59888 0.41245 0.08071 0.0
C648 C 0.60785 0.43192 0.09771 0.0
C649 C 0.61577 0.41774 0.06198 0.0
C650 C 0.60676 0.39888 0.04282 0.0
C651 C 0.58164 0.39118 0.03235 0.0
C652 C 0.57276 0.37258 0.01487 0.0
C653 C 0.58887 0.36163 0.00763 0.0
C654 C 0.61397 0.36936 0.01778 0.0
C655 C 0.62297 0.38799 0.03525 0.0
H656 H 0.5819 0.34715 0.99415 0.0
H657 H 0.66718 0.5242 0.16619 0.0
H658 H 0.22603 0.54149 0.56022 0.0
H659 H 0.22807 0.58587 0.55917 0.0
H660 H 0.15879 0.55526 0.60301 0.0
H661 H 0.1569 0.51062 0.60453 0.0
H662 H 0.15814 0.58697 0.56364 0.0
H663 H 0.2149 0.59133 0.62461 0.0
H664 H 0.25202 0.58741 0.64261 0.0
H665 H 0.31117 0.64916 0.5997 0.0
H666 H 0.27429 0.6528 0.58091 0.0
H667 H 0.17321 0.71759 0.59095 0.0
H668 H 0.16503 0.67061 0.58916 0.0
H669 H 0.24741 0.70116 0.56495 0.0
H670 H 0.25603 0.7481 0.56782 0.0
H671 H 0.23955 0.66791 0.59542 0.0
H672 H 0.1864 0.66308 0.53264 0.0
H673 H 0.15126 0.66749 0.51174 0.0
H674 H 0.08835 0.60848 0.55398 0.0
H675 H 0.12318 0.604 0.57534 0.0
C676 C 0.21105 0.54405 0.56953 0.0
C677 C 0.19129 0.52257 0.5825 0.0
C678 C 0.21231 0.56946 0.56892 0.0
C679 C 0.19363 0.5738 0.58104 0.0
C680 C 0.17335 0.55221 0.59353 0.0
C681 C 0.17237 0.52683 0.59446 0.0
C682 C 0.19609 0.60127 0.58115 0.0
C683 C 0.17571 0.60469 0.57084 0.0
C684 C 0.21951 0.62438 0.58992 0.0
C685 C 0.24171 0.62204 0.60113 0.0
C686 C 0.23575 0.60377 0.61876 0.0
C687 C 0.25677 0.60162 0.62912 0.0
C688 C 0.28392 0.6179 0.6222 0.0
C689 C 0.29011 0.63644 0.60495 0.0
C690 C 0.26914 0.6385 0.5944 0.0
C691 C 0.18937 0.71418 0.58487 0.0
C692 C 0.21528 0.73648 0.5796 0.0
C693 C 0.18467 0.6873 0.58378 0.0
C694 C 0.20555 0.68219 0.57682 0.0
C695 C 0.231 0.70447 0.57054 0.0
C696 C 0.23588 0.73131 0.57208 0.0
C697 C 0.20176 0.65401 0.57755 0.0
C698 C 0.22191 0.65035 0.58813 0.0
C699 C 0.17845 0.63084 0.56856 0.0
C700 C 0.15744 0.63342 0.55573 0.0
C701 C 0.1651 0.65121 0.53758 0.0
C702 C 0.14523 0.65369 0.52563 0.0
C703 C 0.1176 0.63834 0.53156 0.0
C704 C 0.10977 0.6204 0.54942 0.0
C705 C 0.12956 0.61786 0.56145 0.0
H706 H 0.10225 0.64029 0.52229 0.0
H707 H 0.30017 0.61624 0.63027 0.0
H708 H 0.7527 0.49259 0.42221 0.0
H709 H 0.76191 0.45478 0.42393 0.0
H710 H 0.84882 0.51217 0.42758 0.0
H711 H 0.83981 0.55054 0.42533 0.0
H712 H 0.83588 0.4706 0.39743 0.0
H713 H 0.81419 0.47622 0.47356 0.0
H714 H 0.78555 0.47909 0.50295 0.0
H715 H 0.71708 0.40259 0.48177 0.0
H716 H 0.74526 0.39937 0.45218 0.0
H717 H 0.85886 0.35717 0.4136 0.0
H718 H 0.85976 0.40124 0.41608 0.0
H719 H 0.77216 0.35783 0.42708 0.0
H720 H 0.77176 0.31434 0.42623 0.0
H721 H 0.79173 0.39669 0.45295 0.0
H722 H 0.80704 0.39132 0.37568 0.0
H723 H 0.83073 0.3872 0.34307 0.0
H724 H 0.90466 0.46036 0.36194 0.0
H725 H 0.88147 0.46472 0.3948 0.0
C726 C 0.77383 0.49734 0.42357 0.0
C727 C 0.79554 0.52471 0.4237 0.0
C728 C 0.77904 0.47561 0.42463 0.0
C729 C 0.80604 0.48063 0.42615 0.0
C730 C 0.82782 0.50787 0.42651 0.0
C731 C 0.82262 0.52976 0.42537 0.0
C732 C 0.81122 0.45722 0.4267 0.0
C733 C 0.82671 0.45464 0.40979 0.0
C734 C 0.79855 0.43606 0.44245 0.0
C735 C 0.78185 0.43758 0.46067 0.0
C736 C 0.79303 0.46003 0.47518 0.0
C737 C 0.77687 0.46171 0.49187 0.0
C738 C 0.74952 0.44103 0.49423 0.0
C739 C 0.73829 0.41856 0.47996 0.0
C740 C 0.75437 0.41675 0.46328 0.0
C741 C 0.83989 0.35725 0.41647 0.0
C742 C 0.81527 0.33252 0.41978 0.0
C743 C 0.84034 0.38237 0.41778 0.0
C744 C 0.81596 0.38303 0.42156 0.0
C745 C 0.79133 0.35809 0.42436 0.0
C746 C 0.79106 0.33318 0.42378 0.0
C747 C 0.81572 0.40939 0.42318 0.0
C748 C 0.80125 0.41267 0.44064 0.0
C749 C 0.82866 0.43078 0.40753 0.0
C750 C 0.84263 0.42815 0.38782 0.0
C751 C 0.82841 0.4064 0.37295 0.0
C752 C 0.84173 0.40405 0.35441 0.0
C753 C 0.86921 0.42345 0.35047 0.0
C754 C 0.88339 0.4453 0.36503 0.0
C755 C 0.87017 0.44774 0.38361 0.0
H756 H 0.87949 0.4216 0.33611 0.0
H757 H 0.73703 0.44242 0.50712 0.0
H758 H 0.29465 0.83851 0.91666 0.0
H759 H 0.34245 0.84905 0.91932 0.0
H760 H 0.31513 0.7666 0.94157 0.0
H761 H 0.26724 0.7556 0.93831 0.0
H762 H 0.36496 0.81845 0.96517 0.0
H763 H 0.32764 0.76909 0.89556 0.0
H764 H 0.30421 0.76314 0.86007 0.0
H765 H 0.36542 0.84459 0.84092 0.0
H766 H 0.38896 0.85113 0.87649 0.0
H767 H 0.47066 0.78837 0.95342 0.0
H768 H 0.42821 0.78981 0.95441 0.0
H769 H 0.4598 0.85312 0.90486 0.0
H770 H 0.50224 0.85091 0.90315 0.0
H771 H 0.40999 0.81814 0.8952 0.0
H772 H 0.45212 0.86632 0.96049 0.0
H773 H 0.47643 0.87603 0.9959 0.0
H774 H 0.4089 0.80363 0.02371 0.0
H775 H 0.38431 0.79325 0.98837 0.0
C776 C 0.29884 0.82278 0.92249 0.0
C777 C 0.27725 0.79622 0.92728 0.0
C778 C 0.32611 0.82881 0.92392 0.0
C779 C 0.33217 0.80857 0.9306 0.0
C780 C 0.31075 0.78247 0.93643 0.0
C781 C 0.28348 0.77622 0.93451 0.0
C782 C 0.3607 0.81395 0.93014 0.0
C783 C 0.37487 0.81824 0.94996 0.0
C784 C 0.37382 0.81476 0.91016 0.0
C785 C 0.35982 0.81073 0.88876 0.0
C786 C 0.33592 0.78582 0.88387 0.0
C787 C 0.32266 0.78232 0.86373 0.0
C788 C 0.33326 0.80351 0.84828 0.0
C789 C 0.35719 0.82822 0.85292 0.0
C790 C 0.3705 0.83183 0.87306 0.0
C791 C 0.46876 0.80283 0.94286 0.0
C792 C 0.48988 0.81962 0.92826 0.0
C793 C 0.44446 0.80375 0.94355 0.0
C794 C 0.44089 0.82197 0.93005 0.0
C795 C 0.46207 0.83896 0.91552 0.0
C796 C 0.48633 0.83774 0.91458 0.0
C797 C 0.41445 0.82201 0.93041 0.0
C798 C 0.40051 0.81878 0.91052 0.0
C799 C 0.40179 0.82275 0.95036 0.0
C800 C 0.41644 0.82891 0.9717 0.0
C801 C 0.44252 0.85236 0.9741 0.0
C802 C 0.45634 0.858 0.99417 0.0
C803 C 0.44424 0.84044 0.01203 0.0
C804 C 0.41825 0.81722 0.00986 0.0
C805 C 0.40434 0.81146 0.98982 0.0
H806 H 0.45498 0.84484 0.02755 0.0
H807 H 0.32298 0.80076 0.83269 0.0
H808 H 0.68413 0.47956 0.45993 0.0
H809 H 0.64163 0.43554 0.46212 0.0
H810 H 0.61204 0.4549 0.40338 0.0
H811 H 0.65485 0.49919 0.40086 0.0
H812 H 0.57171 0.42796 0.44106 0.0
H813 H 0.63791 0.41803 0.39528 0.0
H814 H 0.68414 0.42447 0.38928 0.0
H815 H 0.67535 0.37642 0.44665 0.0
H816 H 0.62915 0.36995 0.45312 0.0
H817 H 0.4657 0.29529 0.41129 0.0
H818 H 0.50386 0.34229 0.41408 0.0
H819 H 0.54946 0.31373 0.45224 0.0
H820 H 0.51211 0.26639 0.44766 0.0
H821 H 0.58228 0.34691 0.42635 0.0
H822 H 0.51831 0.35361 0.47338 0.0
H823 H 0.47402 0.34874 0.48473 0.0
H824 H 0.47956 0.40319 0.43307 0.0
H825 H 0.52372 0.4081 0.4212 0.0
C826 C 0.66849 0.47472 0.44759 0.0
C827 C 0.67297 0.49281 0.43009 0.0
C828 C 0.64421 0.44953 0.44891 0.0
C829 C 0.62384 0.44199 0.43286 0.0
C830 C 0.62757 0.46047 0.41594 0.0
C831 C 0.65206 0.48565 0.41447 0.0
C832 C 0.5998 0.4139 0.43283 0.0
C833 C 0.57378 0.41014 0.4376 0.0
C834 C 0.60291 0.39078 0.42922 0.0
C835 C 0.63017 0.39366 0.42476 0.0
C836 C 0.64587 0.4089 0.40664 0.0
C837 C 0.67206 0.41255 0.40316 0.0
C838 C 0.6827 0.40091 0.41761 0.0
C839 C 0.66708 0.38542 0.43548 0.0
C840 C 0.64088 0.38171 0.43903 0.0
C841 C 0.48376 0.29918 0.42053 0.0
C842 C 0.486 0.27734 0.42937 0.0
C843 C 0.50556 0.32612 0.42227 0.0
C844 C 0.52959 0.33191 0.43374 0.0
C845 C 0.53131 0.31 0.44323 0.0
C846 C 0.50991 0.28295 0.44077 0.0
C847 C 0.55353 0.36043 0.43462 0.0
C848 C 0.57979 0.36443 0.42995 0.0
C849 C 0.55067 0.38369 0.43906 0.0
C850 C 0.52424 0.38103 0.44628 0.0
C851 C 0.51001 0.36442 0.46435 0.0
C852 C 0.48493 0.36167 0.47089 0.0
C853 C 0.47395 0.37559 0.45959 0.0
C854 C 0.48808 0.39239 0.44178 0.0
C855 C 0.51316 0.39519 0.43516 0.0
H856 H 0.45451 0.37341 0.46467 0.0
H857 H 0.70303 0.40386 0.41495 0.0
H858 H 0.16755 0.65722 0.88954 0.0
H859 H 0.16421 0.61208 0.88964 0.0
H860 H 0.19663 0.6266 0.95552 0.0
H861 H 0.19946 0.67126 0.95571 0.0
H862 H 0.20349 0.60036 0.89206 0.0
H863 H 0.17406 0.56778 0.98339 0.0
H864 H 0.14532 0.57153 0.0122 0.0
H865 H 0.09538 0.57998 0.96301 0.0
H866 H 0.12355 0.57588 0.93389 0.0
H867 H 0.25199 0.51443 0.92534 0.0
H868 H 0.2395 0.55011 0.92573 0.0
H869 H 0.15372 0.48844 0.92564 0.0
H870 H 0.16604 0.45227 0.92541 0.0
H871 H 0.16452 0.53233 0.95251 0.0
H872 H 0.18162 0.51796 0.87868 0.0
H873 H 0.20713 0.51199 0.84829 0.0
H874 H 0.27466 0.59337 0.85915 0.0
H875 H 0.24972 0.59967 0.88984 0.0
C876 C 0.17362 0.65063 0.90414 0.0
C877 C 0.18381 0.66788 0.9226 0.0
C878 C 0.17175 0.62484 0.90416 0.0
C879 C 0.17992 0.61578 0.92266 0.0
C880 C 0.18966 0.63282 0.94121 0.0
C881 C 0.19144 0.6585 0.94123 0.0
C882 C 0.18025 0.58949 0.92213 0.0
C883 C 0.19476 0.58542 0.9052 0.0
C884 C 0.16838 0.56961 0.93902 0.0
C885 C 0.15108 0.57172 0.95645 0.0
C886 C 0.15686 0.57028 0.97871 0.0
C887 C 0.14068 0.5725 0.9951 0.0
C888 C 0.11858 0.57606 0.98945 0.0
C889 C 0.11256 0.57732 0.96738 0.0
C890 C 0.12865 0.57508 0.95092 0.0
C891 C 0.23043 0.50832 0.92566 0.0
C892 C 0.21001 0.48043 0.92507 0.0
C893 C 0.22334 0.5288 0.92581 0.0
C894 C 0.1957 0.52193 0.92525 0.0
C895 C 0.17519 0.49416 0.92592 0.0
C896 C 0.18227 0.47354 0.92579 0.0
C897 C 0.18862 0.54394 0.92293 0.0
C898 C 0.1729 0.54717 0.93927 0.0
C899 C 0.19885 0.56277 0.90526 0.0
C900 C 0.21386 0.55921 0.88666 0.0
C901 C 0.20198 0.53452 0.87468 0.0
C902 C 0.21633 0.53108 0.85739 0.0
C903 C 0.24252 0.55227 0.85182 0.0
C904 C 0.25438 0.57697 0.86349 0.0
C905 C 0.24013 0.5805 0.88082 0.0
H906 H 0.2536 0.54957 0.83843 0.0
H907 H 0.1061 0.57779 1.00216 0.0
H908 H 0.52904 0.19446 0.39036 0.0
H909 H 0.57192 0.19354 0.39078 0.0
H910 H 0.55524 0.16241 0.45713 0.0
H911 H 0.5131 0.16503 0.45716 0.0
H912 H 0.60441 0.19909 0.45594 0.0
H913 H 0.55257 0.12238 0.40949 0.0
H914 H 0.52236 0.09595 0.37875 0.0
H915 H 0.58233 0.15103 0.33265 0.0
H916 H 0.61276 0.17803 0.36311 0.0
H917 H 0.72122 0.17565 0.44439 0.0
H918 H 0.67285 0.16382 0.44695 0.0
H919 H 0.6876 0.2265 0.39943 0.0
H920 H 0.73579 0.239 0.39727 0.0
H921 H 0.63769 0.16675 0.39366 0.0
H922 H 0.68517 0.24622 0.44303 0.0
H923 H 0.71491 0.26978 0.47479 0.0
H924 H 0.66081 0.20326 0.51681 0.0
H925 H 0.63097 0.17912 0.48517 0.0
C926 C 0.53436 0.18707 0.40492 0.0
C927 C 0.51778 0.1798 0.42373 0.0
C928 C 0.55883 0.18636 0.40512 0.0
C929 C 0.56677 0.17744 0.42387 0.0
C930 C 0.5497 0.1694 0.44246 0.0
C931 C 0.52557 0.1708 0.44245 0.0
C932 C 0.59372 0.17839 0.42456 0.0
C933 C 0.61128 0.1914 0.44248 0.0
C934 C 0.60309 0.16857 0.40703 0.0
C935 C 0.58488 0.15234 0.38862 0.0
C936 C 0.55925 0.12896 0.3928 0.0
C937 C 0.54209 0.11386 0.37542 0.0
C938 C 0.5504 0.12183 0.35377 0.0
C939 C 0.57591 0.14489 0.34944 0.0
C940 C 0.59315 0.16007 0.36676 0.0
C941 C 0.71411 0.18691 0.43456 0.0
C942 C 0.73231 0.20835 0.42073 0.0
C943 C 0.68656 0.18012 0.43601 0.0
C944 C 0.67681 0.19427 0.4233 0.0
C945 C 0.69482 0.21534 0.4093 0.0
C946 C 0.72236 0.22254 0.40822 0.0
C947 C 0.64795 0.18771 0.42471 0.0
C948 C 0.63025 0.17378 0.4072 0.0
C949 C 0.63824 0.19614 0.44274 0.0
C950 C 0.65608 0.21071 0.46172 0.0
C951 C 0.67979 0.23649 0.459 0.0
C952 C 0.69662 0.24998 0.47698 0.0
C953 C 0.68981 0.23798 0.49779 0.0
C954 C 0.6661 0.2125 0.50067 0.0
C955 C 0.64922 0.19891 0.48272 0.0
H956 H 0.70285 0.24845 0.5117 0.0
H957 H 0.53708 0.11011 0.34033 0.0
H958 H 0.34882 0.51274 0.89123 0.0
H959 H 0.3934 0.55514 0.89116 0.0
H960 H 0.38022 0.57102 0.95803 0.0
H961 H 0.33595 0.52869 0.95833 0.0
H962 H 0.40342 0.6064 0.89563 0.0
H963 H 0.44097 0.60626 0.98463 0.0
H964 H 0.43884 0.57283 0.01188 0.0
H965 H 0.42842 0.51647 0.9602 0.0
H966 H 0.43088 0.5497 0.93262 0.0
H967 H 0.494 0.74026 0.92877 0.0
H968 H 0.45736 0.6925 0.92957 0.0
H969 H 0.51709 0.66592 0.92537 0.0
H970 H 0.55417 0.71395 0.9249 0.0
H971 H 0.47517 0.63325 0.95287 0.0
H972 H 0.48447 0.66727 0.87976 0.0
H973 H 0.48831 0.69997 0.85114 0.0
H974 H 0.40817 0.68609 0.86764 0.0
H975 H 0.40401 0.65361 0.89663 0.0
C976 C 0.35558 0.52508 0.90601 0.0
C977 C 0.33879 0.51736 0.92477 0.0
C978 C 0.38103 0.54934 0.90592 0.0
C979 C 0.39026 0.56617 0.92464 0.0
C980 C 0.37376 0.55817 0.94351 0.0
C981 C 0.34834 0.534 0.9436 0.0
C982 C 0.41623 0.59297 0.92409 0.0
C983 C 0.41917 0.61218 0.90807 0.0
C984 C 0.43703 0.60041 0.9401 0.0
C985 C 0.43589 0.58042 0.95657 0.0
C986 C 0.43836 0.5868 0.97907 0.0
C987 C 0.43707 0.56786 0.99458 0.0
C988 C 0.43342 0.54251 0.98778 0.0
C989 C 0.43114 0.53607 0.96545 0.0
C990 C 0.43245 0.55494 0.94988 0.0
C991 C 0.49946 0.72432 0.92826 0.0
C992 C 0.52704 0.73095 0.92648 0.0
C993 C 0.47844 0.69699 0.92865 0.0
C994 C 0.48446 0.67565 0.92701 0.0
C995 C 0.512 0.68209 0.92648 0.0
C996 C 0.53315 0.70954 0.92622 0.0
C997 C 0.46181 0.64682 0.92486 0.0
C998 C 0.45951 0.62732 0.94034 0.0
C999 C 0.44178 0.63891 0.90812 0.0
C1000 C 0.44401 0.65813 0.89047 0.0
C1001 C 0.46772 0.6713 0.87737 0.0
C1002 C 0.46995 0.6898 0.86107 0.0
C1003 C 0.44851 0.69514 0.85758 0.0
C1004 C 0.42476 0.68194 0.87036 0.0
C1005 C 0.42244 0.66346 0.88672 0.0
H1006 H 0.45029 0.70949 0.84497 0.0
H1007 H 0.4324 0.52788 0.99982 0.0
H1008 H 0.39026 0.21764 0.34995 0.0
H1009 H 0.38566 0.22077 0.31034 0.0
H1010 H 0.43173 0.17934 0.2993 0.0
H1011 H 0.43718 0.17696 0.33884 0.0
H1012 H 0.4504 0.22109 0.27384 0.0
H1013 H 0.36029 0.14781 0.29072 0.0
H1014 H 0.31586 0.12473 0.31004 0.0
H1015 H 0.29783 0.1862 0.28707 0.0
H1016 H 0.34234 0.20986 0.26783 0.0
H1017 H 0.38 0.18149 0.16037 0.0
H1018 H 0.37695 0.17443 0.20009 0.0
H1019 H 0.43433 0.26053 0.20989 0.0
H1020 H 0.43787 0.26775 0.17026 0.0
H1021 H 0.36269 0.19363 0.23534 0.0
H1022 H 0.47866 0.26734 0.25027 0.0
H1023 H 0.52245 0.28567 0.2302 0.0
H1024 H 0.48742 0.21444 0.18865 0.0
H1025 H 0.44358 0.19552 0.20866 0.0
C1026 C 0.39918 0.20894 0.3391 0.0
C1027 C 0.41415 0.1971 0.34759 0.0
C1028 C 0.39644 0.21065 0.31642 0.0
C1029 C 0.40816 0.20011 0.30175 0.0
C1030 C 0.42258 0.18773 0.31024 0.0
C1031 C 0.42562 0.18631 0.33288 0.0
C1032 C 0.40665 0.20315 0.27759 0.0
C1033 C 0.43117 0.21505 0.26549 0.0
C1034 C 0.38157 0.19496 0.2665 0.0
C1035 C 0.35476 0.18074 0.278 0.0
C1036 C 0.34694 0.15652 0.28992 0.0
C1037 C 0.32173 0.14331 0.30083 0.0
C1038 C 0.30406 0.15403 0.29983 0.0
C1039 C 0.31155 0.17794 0.28785 0.0
C1040 C 0.33675 0.19124 0.27692 0.0
C1041 C 0.39172 0.19903 0.17095 0.0
C1042 C 0.40945 0.22514 0.16205 0.0
C1043 C 0.38989 0.19494 0.19369 0.0
C1044 C 0.40577 0.21685 0.20795 0.0
C1045 C 0.42226 0.24322 0.19918 0.0
C1046 C 0.42418 0.24732 0.17648 0.0
C1047 C 0.40644 0.21187 0.23183 0.0
C1048 C 0.38185 0.19968 0.24381 0.0
C1049 C 0.43136 0.21913 0.24278 0.0
C1050 C 0.45776 0.23018 0.23082 0.0
C1051 C 0.48035 0.25555 0.2369 0.0
C1052 C 0.50517 0.26605 0.22553 0.0
C1053 C 0.50768 0.25127 0.20811 0.0
C1054 C 0.48542 0.22592 0.20208 0.0
C1055 C 0.46057 0.21531 0.21342 0.0
H1056 H 0.52691 0.25945 0.19932 0.0
H1057 H 0.28455 0.14377 0.30829 0.0
H1058 H 0.17863 0.44117 0.67075 0.0
H1059 H 0.18337 0.43679 0.71009 0.0
H1060 H 0.20105 0.37157 0.69809 0.0
H1061 H 0.19693 0.3762 0.65858 0.0
H1062 H 0.15927 0.39867 0.74013 0.0
H1063 H 0.24945 0.37705 0.73483 0.0
H1064 H 0.28747 0.38575 0.70981 0.0
H1065 H 0.28734 0.45683 0.6842 0.0
H1066 H 0.2496 0.44877 0.70926 0.0
H1067 H 0.1854 0.37183 0.84828 0.0
H1068 H 0.17717 0.36728 0.8087 0.0
H1069 H 0.25274 0.44337 0.79824 0.0
H1070 H 0.26152 0.44764 0.83766 0.0
H1071 H 0.24715 0.40915 0.76735 0.0
H1072 H 0.18896 0.43975 0.79919 0.0
H1073 H 0.15368 0.43773 0.82437 0.0
H1074 H 0.09428 0.36001 0.79704 0.0
H1075 H 0.12934 0.36141 0.77187 0.0
C1076 C 0.18323 0.42566 0.67642 0.0
C1077 C 0.18766 0.40923 0.66141 0.0
C1078 C 0.18588 0.42314 0.69898 0.0
C1079 C 0.193 0.40416 0.70707 0.0
C1080 C 0.19605 0.38673 0.69222 0.0
C1081 C 0.19354 0.38932 0.66962 0.0
C1082 C 0.19845 0.40361 0.7309 0.0
C1083 C 0.17841 0.40075 0.74607 0.0
C1084 C 0.22364 0.40691 0.73873 0.0
C1085 C 0.24648 0.41208 0.72372 0.0
C1086 C 0.25759 0.39457 0.72389 0.0
C1087 C 0.27909 0.39939 0.7097 0.0
C1088 C 0.28974 0.42177 0.69537 0.0
C1089 C 0.27899 0.43944 0.69525 0.0
C1090 C 0.25753 0.43473 0.70942 0.0
C1091 C 0.20043 0.38745 0.83754 0.0
C1092 C 0.22405 0.4102 0.84619 0.0
C1093 C 0.19562 0.38489 0.81491 0.0
C1094 C 0.21407 0.40524 0.80048 0.0
C1095 C 0.23816 0.42741 0.80901 0.0
C1096 C 0.24314 0.42984 0.8316 0.0
C1097 C 0.20792 0.4041 0.77661 0.0
C1098 C 0.22785 0.40666 0.76143 0.0
C1099 C 0.18296 0.40138 0.76878 0.0
C1100 C 0.16183 0.40055 0.78382 0.0
C1101 C 0.16842 0.42214 0.79866 0.0
C1102 C 0.14846 0.42112 0.81291 0.0
C1103 C 0.12177 0.39872 0.81235 0.0
C1104 C 0.11497 0.37732 0.79748 0.0
C1105 C 0.13487 0.37823 0.78321 0.0
H1106 H 0.10635 0.39796 0.8234 0.0
H1107 H 0.30636 0.42545 0.68439 0.0
H1108 H 0.83839 0.26317 0.33686 0.0
H1109 H 0.83303 0.25448 0.29743 0.0
H1110 H 0.79248 0.16728 0.30937 0.0
H1111 H 0.79824 0.17578 0.34892 0.0
H1112 H 0.82449 0.18009 0.27387 0.0
H1113 H 0.75514 0.19865 0.29984 0.0
H1114 H 0.73705 0.22483 0.31914 0.0
H1115 H 0.78224 0.2932 0.27586 0.0
H1116 H 0.80092 0.26754 0.25649 0.0
H1117 H 0.74134 0.17712 0.16868 0.0
H1118 H 0.74784 0.17879 0.20842 0.0
H1119 H 0.83408 0.20783 0.19906 0.0
H1120 H 0.82763 0.20552 0.15936 0.0
H1121 H 0.77601 0.22033 0.23401 0.0
H1122 H 0.85987 0.18933 0.24177 0.0
H1123 H 0.87376 0.15913 0.22326 0.0
H1124 H 0.79138 0.10792 0.20003 0.0
H1125 H 0.77692 0.13758 0.21864 0.0
C1126 C 0.82866 0.24213 0.33114 0.0
C1127 C 0.81848 0.22016 0.34612 0.0
C1128 C 0.82552 0.2372 0.30856 0.0
C1129 C 0.81181 0.21021 0.30045 0.0
C1130 C 0.80299 0.18828 0.31526 0.0
C1131 C 0.8063 0.19319 0.33789 0.0
C1132 C 0.80538 0.20493 0.27666 0.0
C1133 C 0.81393 0.1889 0.26512 0.0
C1134 C 0.79096 0.21584 0.26534 0.0
C1135 C 0.77962 0.23126 0.27684 0.0
C1136 C 0.76136 0.21933 0.29453 0.0
C1137 C 0.75099 0.23407 0.30547 0.0
C1138 C 0.75854 0.26069 0.29876 0.0
C1139 C 0.77643 0.27259 0.28106 0.0
C1140 C 0.78691 0.25795 0.27008 0.0
C1141 C 0.76164 0.18358 0.17506 0.0
C1142 C 0.78395 0.19116 0.16077 0.0
C1143 C 0.76535 0.1846 0.19781 0.0
C1144 C 0.79141 0.19325 0.2068 0.0
C1145 C 0.81366 0.20058 0.19258 0.0
C1146 C 0.80994 0.19936 0.16983 0.0
C1147 C 0.79556 0.19588 0.23101 0.0
C1148 C 0.78657 0.21147 0.24268 0.0
C1149 C 0.80898 0.184 0.24249 0.0
C1150 C 0.8174 0.16585 0.23144 0.0
C1151 C 0.8447 0.17156 0.23279 0.0
C1152 C 0.85267 0.15455 0.22227 0.0
C1153 C 0.83348 0.13168 0.21042 0.0
C1154 C 0.80625 0.12571 0.20914 0.0
C1155 C 0.79816 0.14264 0.21965 0.0
H1156 H 0.8397 0.11854 0.20228 0.0
H1157 H 0.75048 0.27206 0.30725 0.0
H1158 H 0.56792 0.82824 0.83928 0.0
H1159 H 0.57125 0.82403 0.79963 0.0
H1160 H 0.63031 0.79746 0.80969 0.0
H1161 H 0.62756 0.80213 0.8493 0.0
H1162 H 0.64434 0.82996 0.77493 0.0
H1163 H 0.56313 0.75067 0.80031 0.0
H1164 H 0.51892 0.72527 0.81967 0.0
H1165 H 0.48438 0.76172 0.77788 0.0
H1166 H 0.52856 0.7876 0.75839 0.0
H1167 H 0.5731 0.73952 0.67039 0.0
H1168 H 0.57716 0.74693 0.71003 0.0
H1169 H 0.62338 0.83451 0.6997 0.0
H1170 H 0.62012 0.82725 0.66006 0.0
H1171 H 0.55762 0.76987 0.73513 0.0
H1172 H 0.66596 0.86641 0.74256 0.0
H1173 H 0.711 0.88678 0.72419 0.0
H1174 H 0.69275 0.807 0.70173 0.0
H1175 H 0.64777 0.78612 0.7202 0.0
C1176 C 0.58188 0.82182 0.83308 0.0
C1177 C 0.59728 0.81529 0.84755 0.0
C1178 C 0.58367 0.8193 0.81039 0.0
C1179 C 0.60067 0.80996 0.80168 0.0
C1180 C 0.61699 0.80463 0.81601 0.0
C1181 C 0.61532 0.80725 0.83869 0.0
C1182 C 0.60049 0.8045 0.77778 0.0
C1183 C 0.62538 0.81691 0.76619 0.0
C1184 C 0.57586 0.78686 0.76646 0.0
C1185 C 0.54922 0.77127 0.77805 0.0
C1186 C 0.54616 0.75342 0.79535 0.0
C1187 C 0.52109 0.73891 0.80634 0.0
C1188 C 0.49886 0.74193 0.80007 0.0
C1189 C 0.50163 0.75942 0.78274 0.0
C1190 C 0.52667 0.774 0.7717 0.0
C1191 C 0.58444 0.76036 0.67653 0.0
C1192 C 0.5963 0.78278 0.662 0.0
C1193 C 0.58665 0.76457 0.69923 0.0
C1194 C 0.60067 0.79127 0.70794 0.0
C1195 C 0.61286 0.81369 0.69346 0.0
C1196 C 0.6109 0.80949 0.67074 0.0
C1197 C 0.60147 0.79564 0.7321 0.0
C1198 C 0.57663 0.78303 0.74377 0.0
C1199 C 0.62626 0.81243 0.74357 0.0
C1200 C 0.65338 0.82476 0.73258 0.0
C1201 C 0.6716 0.85321 0.73377 0.0
C1202 C 0.69711 0.86485 0.72332 0.0
C1203 C 0.70469 0.84821 0.71174 0.0
C1204 C 0.68681 0.81988 0.71063 0.0
C1205 C 0.66129 0.80814 0.72106 0.0
H1206 H 0.72444 0.85726 0.70366 0.0
H1207 H 0.47946 0.73067 0.80859 0.0
H1208 H 0.82449 0.56176 0.17056 0.0
H1209 H 0.81933 0.56586 0.20989 0.0
H1210 H 0.80651 0.6343 0.19825 0.0
H1211 H 0.81108 0.63002 0.15876 0.0
H1212 H 0.845 0.6033 0.24005 0.0
H1213 H 0.75905 0.63148 0.23458 0.0
H1214 H 0.72158 0.62443 0.20954 0.0
H1215 H 0.71761 0.55115 0.18441 0.0
H1216 H 0.75475 0.55756 0.2095 0.0
H1217 H 0.82361 0.63437 0.34796 0.0
H1218 H 0.8311 0.63802 0.30829 0.0
H1219 H 0.75227 0.56525 0.29871 0.0
H1220 H 0.74426 0.56197 0.3382 0.0
H1221 H 0.75997 0.59927 0.26738 0.0
H1222 H 0.8134 0.56349 0.29935 0.0
H1223 H 0.84745 0.56266 0.32437 0.0
H1224 H 0.91069 0.638 0.29648 0.0
H1225 H 0.87691 0.63945 0.27148 0.0
C1226 C 0.82081 0.57787 0.17632 0.0
C1227 C 0.81797 0.59542 0.16142 0.0
C1228 C 0.81793 0.58022 0.19887 0.0
C1229 C 0.81214 0.60013 0.20704 0.0
C1230 C 0.81047 0.61845 0.19231 0.0
C1231 C 0.81323 0.61605 0.16972 0.0
C1232 C 0.80692 0.60098 0.23088 0.0
C1233 C 0.82649 0.60261 0.24601 0.0
C1234 C 0.78247 0.59939 0.23873 0.0
C1235 C 0.75991 0.59521 0.22374 0.0
C1236 C 0.75012 0.61383 0.22375 0.0
C1237 C 0.72894 0.60994 0.20955 0.0
C1238 C 0.71728 0.58741 0.19534 0.0
C1239 C 0.72671 0.56865 0.19536 0.0
C1240 C 0.74785 0.57243 0.20955 0.0
C1241 C 0.80771 0.61933 0.33739 0.0
C1242 C 0.78341 0.59775 0.34632 0.0
C1243 C 0.81208 0.62136 0.3147 0.0
C1244 C 0.79249 0.6016 0.30048 0.0
C1245 C 0.76774 0.58074 0.30929 0.0
C1246 C 0.76321 0.57887 0.33194 0.0
C1247 C 0.79817 0.60182 0.27659 0.0
C1248 C 0.77866 0.60035 0.26143 0.0
C1249 C 0.82223 0.60254 0.26872 0.0
C1250 C 0.84258 0.60174 0.28372 0.0
C1251 C 0.83453 0.57998 0.29867 0.0
C1252 C 0.85378 0.57939 0.31283 0.0
C1253 C 0.8812 0.60031 0.31206 0.0
C1254 C 0.88943 0.62183 0.29709 0.0
C1255 C 0.87025 0.62255 0.28291 0.0
H1256 H 0.89607 0.5998 0.32303 0.0
H1257 H 0.70091 0.58444 0.18435 0.0
H1258 H 0.20341 0.82883 0.84965 0.0
H1259 H 0.20603 0.83791 0.81019 0.0
H1260 H 0.19294 0.75684 0.79703 0.0
H1261 H 0.18972 0.74738 0.83625 0.0
H1262 H 0.24132 0.84081 0.78059 0.0
H1263 H 0.15977 0.73235 0.7494 0.0
H1264 H 0.11553 0.69342 0.76146 0.0
H1265 H 0.10069 0.74777 0.8012 0.0
H1266 H 0.14464 0.78708 0.78914 0.0
H1267 H 0.26488 0.82112 0.66997 0.0
H1268 H 0.25681 0.81854 0.70945 0.0
H1269 H 0.17868 0.81352 0.69835 0.0
H1270 H 0.18628 0.81536 0.65875 0.0
H1271 H 0.17247 0.77694 0.7271 0.0
H1272 H 0.23488 0.87258 0.71925 0.0
H1273 H 0.27697 0.91417 0.70725 0.0
H1274 H 0.32588 0.89063 0.74565 0.0
H1275 H 0.2841 0.84869 0.75766 0.0
C1276 C 0.20078 0.81281 0.83836 0.0
C1277 C 0.19627 0.78733 0.84619 0.0
C1278 C 0.2024 0.81809 0.81579 0.0
C1279 C 0.19944 0.79799 0.80059 0.0
C1280 C 0.19478 0.77251 0.80837 0.0
C1281 C 0.19305 0.76717 0.83088 0.0
C1282 C 0.20226 0.80388 0.77663 0.0
C1283 C 0.2262 0.82692 0.7689 0.0
C1284 C 0.18228 0.78612 0.76135 0.0
C1285 C 0.15563 0.76263 0.76849 0.0
C1286 C 0.14701 0.73602 0.76063 0.0
C1287 C 0.12199 0.71388 0.76748 0.0
C1288 C 0.10535 0.71811 0.78213 0.0
C1289 C 0.11365 0.74451 0.78991 0.0
C1290 C 0.13863 0.76672 0.78309 0.0
C1291 C 0.24608 0.81974 0.67589 0.0
C1292 C 0.22624 0.81845 0.66113 0.0
C1293 C 0.24153 0.81837 0.69853 0.0
C1294 C 0.21724 0.81612 0.70696 0.0
C1295 C 0.19757 0.81524 0.69228 0.0
C1296 C 0.202 0.81638 0.66961 0.0
C1297 C 0.2119 0.81348 0.73102 0.0
C1298 C 0.18749 0.791 0.73878 0.0
C1299 C 0.23116 0.83212 0.74632 0.0
C1300 C 0.25635 0.85738 0.73923 0.0
C1301 C 0.25462 0.87618 0.72502 0.0
C1302 C 0.27842 0.89983 0.71823 0.0
C1303 C 0.30408 0.90501 0.72564 0.0
C1304 C 0.30599 0.88658 0.73991 0.0
C1305 C 0.28225 0.86288 0.74673 0.0
H1306 H 0.32249 0.92333 0.72037 0.0
H1307 H 0.086 0.70094 0.78743 0.0
H1308 H 0.2149 0.92556 0.93397 0.0
H1309 H 0.23599 0.96792 0.9554 0.0
H1310 H 0.27918 0.93736 0.99423 0.0
H1311 H 0.25616 0.8941 0.97427 0.0
H1312 H 0.26311 0.96071 0.02002 0.0
H1313 H 0.31068 0.98915 0.95188 0.0
H1314 H 0.31635 0.99488 0.91176 0.0
H1315 H 0.27563 0.04226 0.91189 0.0
H1316 H 0.26939 0.03651 0.95199 0.0
H1317 H 0.36541 0.09666 0.05787 0.0
H1318 H 0.34516 0.05519 0.03493 0.0
H1319 H 0.27314 0.06241 0.02514 0.0
H1320 H 0.293 0.10352 0.04857 0.0
H1321 H 0.30563 0.05236 0.98463 0.0
H1322 H 0.25728 0.01939 0.05504 0.0
H1323 H 0.25703 0.01488 0.09532 0.0
H1324 H 0.30702 0.97722 0.09004 0.0
H1325 H 0.3079 0.98192 0.04971 0.0
C1326 C 0.22898 0.92792 0.94703 0.0
C1327 C 0.23467 0.90679 0.95175 0.0
C1328 C 0.24127 0.95231 0.95916 0.0
C1329 C 0.25993 0.95636 0.97608 0.0
C1330 C 0.26523 0.93504 0.98108 0.0
C1331 C 0.25247 0.91043 0.96926 0.0
C1332 C 0.27314 0.98234 0.98909 0.0
C1333 C 0.27265 0.98066 0.01213 0.0
C1334 C 0.28559 0.00861 0.97904 0.0
C1335 C 0.28933 0.01216 0.95492 0.0
C1336 C 0.30275 1.00062 0.94334 0.0
C1337 C 0.3061 0.0039 0.9206 0.0
C1338 C 0.2963 0.01887 0.90928 0.0
C1339 C 0.28318 0.03065 0.92068 0.0
C1340 C 0.27976 0.0274 0.94341 0.0
C1341 C 0.3454 0.08955 0.05062 0.0
C1342 C 0.33082 0.10335 0.05477 0.0
C1343 C 0.33385 0.06586 0.03762 0.0
C1344 C 0.30775 0.0559 0.02834 0.0
C1345 C 0.29335 0.06991 0.03214 0.0
C1346 C 0.30464 0.09325 0.04554 0.0
C1347 C 0.29519 0.03036 0.01519 0.0
C1348 C 0.29598 0.03224 0.99225 0.0
C1349 C 0.28365 0.00433 0.02525 0.0
C1350 C 0.28293 1.00131 0.04943 0.0
C1351 C 0.26846 0.01042 0.06249 0.0
C1352 C 0.26814 0.00777 0.08532 0.0
C1353 C 0.28208 0.99585 0.09524 0.0
C1354 C 0.29628 0.98649 0.08234 0.0
C1355 C 0.29668 0.98913 0.0595 0.0
H1356 H 0.2818 0.99381 0.11291 0.0
H1357 H 0.29891 0.02139 0.89167 0.0
H1358 H 0.19295 0.29992 0.53991 0.0
H1359 H 0.21541 0.28063 0.51761 0.0
H1360 H 0.29328 0.33721 0.54734 0.0
H1361 H 0.27094 0.35768 0.56849 0.0
H1362 H 0.30291 0.33368 0.5079 0.0
H1363 H 0.25248 0.26514 0.5614 0.0
H1364 H 0.2124 0.23288 0.58336 0.0
H1365 H 0.17083 0.18949 0.52481 0.0
H1366 H 0.21054 0.22172 0.50245 0.0
H1367 H 0.36387 0.25119 0.47895 0.0
H1368 H 0.34299 0.27292 0.50018 0.0
H1369 H 0.27579 0.24234 0.45428 0.0
H1370 H 0.29735 0.22183 0.43218 0.0
H1371 H 0.26224 0.23269 0.50215 0.0
H1372 H 0.31768 0.30478 0.4498 0.0
H1373 H 0.36147 0.33583 0.43138 0.0
H1374 H 0.39811 0.37126 0.49351 0.0
H1375 H 0.35461 0.34012 0.51234 0.0
C1376 C 0.21487 0.30819 0.54158 0.0
C1377 C 0.23029 0.3302 0.55584 0.0
C1378 C 0.22771 0.29705 0.52897 0.0
C1379 C 0.25605 0.30695 0.53107 0.0
C1380 C 0.27144 0.32912 0.54534 0.0
C1381 C 0.2587 0.34077 0.55748 0.0
C1382 C 0.26963 0.29434 0.51831 0.0
C1383 C 0.29409 0.31159 0.50696 0.0
C1384 C 0.25831 0.26547 0.51686 0.0
C1385 C 0.23439 0.24601 0.53023 0.0
C1386 C 0.23472 0.24883 0.55319 0.0
C1387 C 0.21208 0.23054 0.56571 0.0
C1388 C 0.18906 0.2092 0.55548 0.0
C1389 C 0.18866 0.20606 0.53271 0.0
C1390 C 0.21124 0.22432 0.5201 0.0
C1391 C 0.3452 0.24991 0.47287 0.0
C1392 C 0.33288 0.23574 0.45333 0.0
C1393 C 0.33307 0.26198 0.48525 0.0
C1394 C 0.30804 0.25946 0.47863 0.0
C1395 C 0.29522 0.24462 0.45955 0.0
C1396 C 0.30758 0.23297 0.44696 0.0
C1397 C 0.29504 0.27203 0.4918 0.0
C1398 C 0.27083 0.25475 0.50323 0.0
C1399 C 0.30703 0.30079 0.49388 0.0
C1400 C 0.33296 0.31995 0.4825 0.0
C1401 C 0.33513 0.31906 0.45955 0.0
C1402 C 0.35988 0.3367 0.44904 0.0
C1403 C 0.38258 0.35546 0.46128 0.0
C1404 C 0.38052 0.3567 0.48405 0.0
C1405 C 0.35581 0.33909 0.49465 0.0
H1406 H 0.40175 0.36906 0.45311 0.0
H1407 H 0.17155 0.19506 0.5652 0.0
H1408 H 0.88509 0.21797 0.02501 0.0
H1409 H 0.92666 0.23952 1.00253 0.0
H1410 H 0.9763 0.26435 0.0612 0.0
H1411 H 0.93466 0.24404 0.0837 0.0
H1412 H 0.99657 0.30507 0.03249 0.0
H1413 H 0.96651 0.20871 0.02968 0.0
H1414 H 0.93362 0.15968 0.02323 0.0
H1415 H 0.92634 0.17669 0.95564 0.0
H1416 H 0.95893 0.2259 0.96176 0.0
H1417 H 0.12302 0.33651 0.98202 0.0
H1418 H 0.08155 0.31615 0.00449 0.0
H1419 H 0.03182 0.29317 0.94594 0.0
H1420 H 0.07332 0.3137 0.92337 0.0
H1421 H 0.01174 0.25196 0.97462 0.0
H1422 H 0.04207 0.34835 0.97746 0.0
H1423 H 0.07523 0.39731 0.98393 0.0
H1424 H 0.08221 0.38017 0.05154 0.0
H1425 H 0.04939 0.33101 0.0454 0.0
C1426 C 0.90486 0.22867 0.03309 0.0
C1427 C 0.90666 0.23009 0.05609 0.0
C1428 C 0.92864 0.24055 0.02023 0.0
C1429 C 0.95469 0.25346 0.03015 0.0
C1430 C 0.95647 0.25463 0.05315 0.0
C1431 C 0.93269 0.24292 0.06599 0.0
C1432 C 0.98009 0.26572 0.01658 0.0
C1433 C 1.00004 0.29333 0.02004 0.0
C1434 C 0.98442 0.25064 0.99999 0.0
C1435 C 0.96496 0.22103 0.99624 0.0
C1436 C 0.95775 0.20202 0.01348 0.0
C1437 C 0.93918 0.1742 0.00988 0.0
C1438 C 0.92784 0.16508 0.98905 0.0
C1439 C 0.93511 0.18378 0.97177 0.0
C1440 C 0.95365 0.21164 0.97529 0.0
C1441 C 0.10334 0.32772 0.97391 0.0
C1442 C 0.10151 0.32742 0.9509 0.0
C1443 C 0.07958 0.31587 0.9868 0.0
C1444 C 0.05353 0.30354 0.97693 0.0
C1445 C 0.05167 0.30266 0.95394 0.0
C1446 C 0.07541 0.31442 0.94106 0.0
C1447 C 0.02819 0.29129 0.99053 0.0
C1448 C 0.00826 0.26368 0.98708 0.0
C1449 C 0.0239 0.30637 0.00714 0.0
C1450 C 0.04347 0.33596 0.01091 0.0
C1451 C 0.05083 0.35499 0.99367 0.0
C1452 C 0.06954 0.38278 0.99728 0.0
C1453 C 0.08087 0.39183 0.01812 0.0
C1454 C 0.07344 0.37312 0.0354 0.0
C1455 C 0.05477 0.34529 0.03187 0.0
H1456 H 0.09535 0.41335 0.02088 0.0
H1457 H 0.91347 0.14353 0.9863 0.0
H1458 H 0.64522 0.91292 0.56132 0.0
H1459 H 0.66595 0.95436 0.53865 0.0
H1460 H 0.73296 0.94056 0.5228 0.0
H1461 H 0.71301 0.90013 0.5467 0.0
H1462 H 0.75344 0.9908 0.52877 0.0
H1463 H 0.67674 0.92742 0.48591 0.0
H1464 H 0.62834 0.89369 0.47803 0.0
H1465 H 0.60546 0.95455 0.49152 0.0
H1466 H 0.65369 0.98856 0.49978 0.0
H1467 H 0.7936 0.07908 0.43287 0.0
H1468 H 0.77215 0.03671 0.45462 0.0
H1469 H 0.73329 0.0699 0.49557 0.0
H1470 H 0.75605 0.1129 0.47501 0.0
H1471 H 0.69865 0.00985 0.47515 0.0
H1472 H 0.77834 0.07213 0.51938 0.0
H1473 H 0.82783 0.10431 0.5243 0.0
H1474 H 0.84576 0.04193 0.50358 0.0
H1475 H 0.79635 0.0095 0.49821 0.0
C1476 C 0.6643 0.91875 0.55286 0.0
C1477 C 0.67744 0.9033 0.5555 0.0
C1478 C 0.67609 0.94233 0.53979 0.0
C1479 C 0.70079 0.95041 0.52849 0.0
C1480 C 0.71391 0.93487 0.53124 0.0
C1481 C 0.70249 0.91172 0.54482 0.0
C1482 C 0.71333 0.9754 0.5143 0.0
C1483 C 0.74139 0.99461 0.51686 0.0
C1484 C 0.69781 0.98081 0.49877 0.0
C1485 C 0.66881 0.96047 0.49365 0.0
C1486 C 0.66137 0.93357 0.48733 0.0
C1487 C 0.63397 0.9144 0.48278 0.0
C1488 C 0.61383 0.92196 0.48432 0.0
C1489 C 0.62108 0.94872 0.49035 0.0
C1490 C 0.64844 0.96796 0.49495 0.0
C1491 C 0.78041 0.07734 0.44647 0.0
C1492 C 0.77573 0.09907 0.45163 0.0
C1493 C 0.76814 0.05312 0.45881 0.0
C1494 C 0.75086 0.05013 0.47645 0.0
C1495 C 0.74616 0.07169 0.48172 0.0
C1496 C 0.7589 0.09613 0.46971 0.0
C1497 C 0.73835 0.0248 0.48985 0.0
C1498 C 0.71044 0.00568 0.48707 0.0
C1499 C 0.75407 0.01912 0.50476 0.0
C1500 C 0.78371 0.03853 0.50813 0.0
C1501 C 0.79286 0.06537 0.51565 0.0
C1502 C 0.82088 0.08363 0.51858 0.0
C1503 C 0.83993 0.0752 0.51419 0.0
C1504 C 0.83098 0.04845 0.50693 0.0
C1505 C 0.80298 0.03013 0.50396 0.0
H1506 H 0.86162 0.08936 0.51647 0.0
H1507 H 0.59263 0.90709 0.4808 0.0
H1508 H 0.81617 0.71671 0.05204 0.0
H1509 H 0.79441 0.73705 0.0301 0.0
H1510 H 0.71664 0.66196 0.03545 0.0
H1511 H 0.73841 0.64149 0.05714 0.0
H1512 H 0.72351 0.68045 0.99498 0.0
H1513 H 0.73205 0.71997 0.06621 0.0
H1514 H 0.75607 0.74463 0.09988 0.0
H1515 H 0.80858 0.81625 0.06185 0.0
H1516 H 0.78511 0.79189 0.02791 0.0
H1517 H 0.64099 0.73534 0.95824 0.0
H1518 H 0.66185 0.71513 0.98125 0.0
H1519 H 0.74112 0.78758 0.97272 0.0
H1520 H 0.72017 0.8083 0.95023 0.0
H1521 H 0.73277 0.77021 0.01513 0.0
H1522 H 0.72361 0.72965 0.94375 0.0
H1523 H 0.69858 0.70457 0.91053 0.0
H1524 H 0.64577 0.63421 0.94969 0.0
H1525 H 0.67027 0.65902 0.9832 0.0
C1526 C 0.79444 0.70456 0.04848 0.0
C1527 C 0.77909 0.67738 0.05598 0.0
C1528 C 0.78199 0.71623 0.03602 0.0
C1529 C 0.75379 0.70114 0.03126 0.0
C1530 C 0.73844 0.67396 0.03878 0.0
C1531 C 0.75094 0.66222 0.05107 0.0
C1532 C 0.74031 0.71363 0.01838 0.0
C1533 C 0.72523 0.69989 0.99958 0.0
C1534 C 0.74292 0.73926 0.0241 0.0
C1535 C 0.75699 0.75401 0.0445 0.0
C1536 C 0.74885 0.74091 0.06501 0.0
C1537 C 0.76234 0.75485 0.08415 0.0
C1538 C 0.78388 0.78197 0.083 0.0
C1539 C 0.79191 0.79523 0.06271 0.0
C1540 C 0.77851 0.78138 0.04352 0.0
C1541 C 0.66273 0.74727 0.96167 0.0
C1542 C 0.67884 0.77369 0.95279 0.0
C1543 C 0.67472 0.7355 0.97457 0.0
C1544 C 0.70309 0.74977 0.97861 0.0
C1545 C 0.71919 0.77621 0.96986 0.0
C1546 C 0.70721 0.78797 0.95694 0.0
C1547 C 0.71608 0.73705 0.99175 0.0
C1548 C 0.73104 0.75075 0.01058 0.0
C1549 C 0.71322 0.7113 0.98615 0.0
C1550 C 0.69861 0.69629 0.966 0.0
C1551 C 0.70653 0.7089 0.9453 0.0
C1552 C 0.69246 0.69472 0.92641 0.0
C1553 C 0.67055 0.66783 0.92801 0.0
C1554 C 0.66272 0.65504 0.94849 0.0
C1555 C 0.67671 0.66915 0.96742 0.0
H1556 H 0.65969 0.65689 0.91337 0.0
H1557 H 0.7943 0.79272 0.09783 0.0
H1558 H 0.88969 0.65868 0.47995 0.0
H1559 H 0.93179 0.67913 0.50169 0.0
H1560 H 0.97797 0.72498 0.44505 0.0
H1561 H 0.9361 0.703 0.42286 0.0
H1562 H 0.00634 0.70737 0.4656 0.0
H1563 H 0.95865 0.75411 0.48774 0.0
H1564 H 0.9195 0.75804 0.50143 0.0
H1565 H 0.92015 0.71871 0.56164 0.0
H1566 H 0.9591 0.71423 0.54818 0.0
H1567 H 0.10006 0.81366 0.55479 0.0
H1568 H 0.05928 0.79333 0.53134 0.0
H1569 H 0.06158 0.71781 0.52858 0.0
H1570 H 0.10247 0.73817 0.55181 0.0
H1571 H 0.01001 0.75226 0.53662 0.0
H1572 H 0.03617 0.68558 0.48 0.0
H1573 H 0.07701 0.6862 0.46451 0.0
H1574 H 0.12262 0.7741 0.46974 0.0
H1575 H 0.08197 0.77403 0.48497 0.0
C1576 C 0.90894 0.67243 0.47195 0.0
C1577 C 0.90974 0.6785 0.4495 0.0
C1578 C 0.93296 0.68458 0.48452 0.0
C1579 C 0.95814 0.70381 0.4751 0.0
C1580 C 0.95888 0.71011 0.45271 0.0
C1581 C 0.93492 0.69766 0.44007 0.0
C1582 C 0.98365 0.71754 0.48857 0.0
C1583 C 0.0071 0.71717 0.48113 0.0
C1584 C 0.98495 0.73081 0.50869 0.0
C1585 C 0.96163 0.73362 0.51687 0.0
C1586 C 0.95033 0.74615 0.50384 0.0
C1587 C 0.92819 0.74849 0.51157 0.0
C1588 C 0.91731 0.73858 0.53237 0.0
C1589 C 0.92859 0.72636 0.54552 0.0
C1590 C 0.95071 0.72393 0.53786 0.0
C1591 C 0.09193 0.79277 0.54905 0.0
C1592 C 0.10485 0.77774 0.5547 0.0
C1593 C 0.06859 0.78115 0.5357 0.0
C1594 C 0.05753 0.75416 0.52787 0.0
C1595 C 0.0701 0.7389 0.5339 0.0
C1596 C 0.09358 0.75061 0.54712 0.0
C1597 C 0.0326 0.74187 0.51373 0.0
C1598 C 0.00924 0.74245 0.52109 0.0
C1599 C 0.03162 0.72944 0.49327 0.0
C1600 C 0.05608 0.72974 0.48383 0.0
C1601 C 0.05488 0.70504 0.47776 0.0
C1602 C 0.078 0.7053 0.46904 0.0
C1603 C 0.10241 0.73017 0.46621 0.0
C1604 C 0.10373 0.75484 0.47202 0.0
C1605 C 0.08066 0.7547 0.48071 0.0
H1606 H 0.12029 0.73032 0.45948 0.0
H1607 H 0.90016 0.74041 0.53832 0.0
H1608 H 0.71383 0.08202 0.07623 0.0
H1609 H 0.69436 0.03764 0.05759 0.0
H1610 H 0.74232 0.07775 0.99993 0.0
H1611 H 0.76089 0.12242 0.01838 0.0
H1612 H 0.69254 0.04151 0.98802 0.0
H1613 H 0.75881 0.03928 0.03518 0.0
H1614 H 0.78302 0.04322 0.0699 0.0
H1615 H 0.70896 0.97789 0.09769 0.0
H1616 H 0.68418 0.97381 0.06322 0.0
H1617 H 0.66879 0.91522 0.93895 0.0
H1618 H 0.69316 0.95993 0.95765 0.0
H1619 H 0.63162 0.9295 0.00849 0.0
H1620 H 0.60686 0.88502 0.98946 0.0
H1621 H 0.69053 0.96075 0.02286 0.0
H1622 H 0.62464 0.96554 0.97474 0.0
H1623 H 0.60242 0.96148 0.93899 0.0
H1624 H 0.67937 0.0227 0.91185 0.0
H1625 H 0.70217 0.02673 0.94738 0.0
C1626 C 0.72004 0.08131 0.05952 0.0
C1627 C 0.7386 0.10556 0.04861 0.0
C1628 C 0.70916 0.05593 0.04895 0.0
C1629 C 0.71708 0.05421 0.0274 0.0
C1630 C 0.73588 0.07849 0.01655 0.0
C1631 C 0.74658 0.10395 0.02709 0.0
C1632 C 0.70515 0.02714 0.01607 0.0
C1633 C 0.69256 0.02403 0.99553 0.0
C1634 C 0.70475 0.00408 0.02591 0.0
C1635 C 0.71958 0.0064 0.04666 0.0
C1636 C 0.74763 0.02589 0.04874 0.0
C1637 C 0.76147 0.02813 0.06837 0.0
C1638 C 0.74753 0.01086 0.086 0.0
C1639 C 0.71973 0.99127 0.08402 0.0
C1640 C 0.70578 0.98897 0.06443 0.0
C1641 C 0.66071 0.91811 0.95423 0.0
C1642 C 0.63614 0.89686 0.96292 0.0
C1643 C 0.67454 0.94356 0.96484 0.0
C1644 C 0.66416 0.94795 0.98444 0.0
C1645 C 0.63999 0.92643 0.99344 0.0
C1646 C 0.62588 0.90116 0.9826 0.0
C1647 C 0.67791 0.97532 0.99508 0.0
C1648 C 0.69078 0.9784 0.01542 0.0
C1649 C 0.6789 0.99842 0.98495 0.0
C1650 C 0.66518 0.99619 0.96364 0.0
C1651 C 0.63689 0.97793 0.96109 0.0
C1652 C 0.62417 0.97567 0.94088 0.0
C1653 C 0.63949 0.99177 0.92314 0.0
C1654 C 0.66754 0.01021 0.9256 0.0
C1655 C 0.68037 0.01249 0.94577 0.0
H1656 H 0.62961 0.99001 0.9075 0.0
H1657 H 0.75828 0.01262 0.10119 0.0
H1658 H 0.72142 0.60413 0.48678 0.0
H1659 H 0.70134 0.62816 0.50602 0.0
H1660 H 0.74318 0.69689 0.46183 0.0
H1661 H 0.76421 0.67319 0.44323 0.0
H1662 H 0.74292 0.71575 0.50055 0.0
H1663 H 0.67435 0.64679 0.45523 0.0
H1664 H 0.6456 0.60036 0.43996 0.0
H1665 H 0.60981 0.5706 0.5034 0.0
H1666 H 0.63875 0.61678 0.51916 0.0
H1667 H 0.64185 0.75985 0.51937 0.0
H1668 H 0.66797 0.74113 0.50102 0.0
H1669 H 0.65829 0.69164 0.55797 0.0
H1670 H 0.6336 0.71137 0.57678 0.0
H1671 H 0.64196 0.66463 0.51123 0.0
H1672 H 0.7145 0.73655 0.5555 0.0
H1673 H 0.74251 0.78448 0.56797 0.0
H1674 H 0.7689 0.81031 0.50176 0.0
H1675 H 0.74065 0.76253 0.48886 0.0
C1676 C 0.72658 0.62454 0.48146 0.0
C1677 C 0.74426 0.6369 0.46361 0.0
C1678 C 0.71497 0.63819 0.4923 0.0
C1679 C 0.72018 0.66412 0.48507 0.0
C1680 C 0.73873 0.67689 0.4677 0.0
C1681 C 0.75074 0.6634 0.45709 0.0
C1682 C 0.70554 0.67736 0.49515 0.0
C1683 C 0.72082 0.7046 0.50262 0.0
C1684 C 0.67663 0.66297 0.49788 0.0
C1685 C 0.65892 0.63521 0.48842 0.0
C1686 C 0.66049 0.63031 0.46596 0.0
C1687 C 0.64415 0.60404 0.45722 0.0
C1688 C 0.62593 0.58253 0.47071 0.0
C1689 C 0.62396 0.58728 0.49298 0.0
C1690 C 0.64032 0.6135 0.50182 0.0
C1691 C 0.64566 0.74526 0.52803 0.0
C1692 C 0.63551 0.73682 0.54938 0.0
C1693 C 0.66043 0.73453 0.51753 0.0
C1694 C 0.66487 0.71493 0.52814 0.0
C1695 C 0.65489 0.70662 0.54949 0.0
C1696 C 0.6407 0.71778 0.56014 0.0
C1697 C 0.67944 0.70259 0.51688 0.0
C1698 C 0.66406 0.67562 0.50908 0.0
C1699 C 0.70809 0.71739 0.51342 0.0
C1700 C 0.72519 0.74604 0.52119 0.0
C1701 C 0.72603 0.75249 0.54357 0.0
C1702 C 0.74201 0.77962 0.55073 0.0
C1703 C 0.7574 0.80045 0.53566 0.0
C1704 C 0.75692 0.79417 0.51341 0.0
C1705 C 0.74094 0.76707 0.50617 0.0
H1706 H 0.76977 0.82144 0.54123 0.0
H1707 H 0.61329 0.5622 0.46391 0.0
H1708 H 0.91399 0.67104 0.06036 0.0
H1709 H 0.95826 0.69485 0.04121 0.0
H1710 H 0.94257 0.61823 0.01262 0.0
H1711 H 0.89765 0.59454 0.03071 0.0
H1712 H 1.00024 0.66507 0.04236 0.0
H1713 H 0.9397 0.64092 0.97622 0.0
H1714 H 0.90134 0.64127 0.95687 0.0
H1715 H 0.94049 0.72872 0.9649 0.0
H1716 H 0.97889 0.72875 0.9846 0.0
H1717 H 0.11267 0.6992 0.97254 0.0
H1718 H 0.06841 0.67839 0.99107 0.0
H1719 H 0.05965 0.74798 0.97336 0.0
H1720 H 0.10252 0.76734 0.95278 0.0
H1721 H 0.01371 0.70676 0.9684 0.0
H1722 H 0.07668 0.73482 0.02814 0.0
H1723 H 0.11536 0.73904 0.0502 0.0
H1724 H 0.07373 0.65156 0.05866 0.0
H1725 H 0.03494 0.64677 0.03641 0.0
C1726 C 0.91968 0.65939 0.04957 0.0
C1727 C 0.90228 0.63094 0.04691 0.0
C1728 C 0.94505 0.67296 0.03884 0.0
C1729 C 0.95354 0.65825 0.02551 0.0
C1730 C 0.93627 0.6299 0.02281 0.0
C1731 C 0.91072 0.61641 0.03322 0.0
C1732 C 0.98081 0.67234 0.01486 0.0
C1733 C 1.0033 0.67397 0.02609 0.0
C1734 C 0.98478 0.68482 0.99409 0.0
C1735 C 0.96191 0.68478 0.98209 0.0
C1736 C 0.93995 0.66016 0.97405 0.0
C1737 C 0.91826 0.6603 0.96298 0.0
C1738 C 0.91843 0.68499 0.95972 0.0
C1739 C 0.94035 0.7096 0.96747 0.0
C1740 C 0.96208 0.70955 0.97858 0.0
C1741 C 0.10117 0.70992 0.97235 0.0
C1742 C 0.1112 0.73495 0.96113 0.0
C1743 C 0.076 0.69822 0.98334 0.0
C1744 C 0.06072 0.71178 0.98411 0.0
C1745 C 0.07095 0.73704 0.97316 0.0
C1746 C 0.09577 0.74836 0.96165 0.0
C1747 C 0.03368 0.69921 0.99563 0.0
C1748 C 0.01106 0.69796 0.98467 0.0
C1749 C 0.02978 0.68763 0.01695 0.0
C1750 C 0.053 0.69043 0.03044 0.0
C1751 C 0.07585 0.71646 0.03459 0.0
C1752 C 0.09778 0.71896 0.04714 0.0
C1753 C 0.09703 0.69557 0.05578 0.0
C1754 C 0.0743 0.66965 0.05194 0.0
C1755 C 0.05231 0.66704 0.03938 0.0
H1756 H 0.11403 0.69755 0.06549 0.0
H1757 H 0.90162 0.68506 0.95114 0.0
H1758 H 0.24917 0.91759 0.56736 0.0
H1759 H 0.26889 0.96233 0.54886 0.0
H1760 H 0.31555 0.93935 0.50648 0.0
H1761 H 0.29597 0.89474 0.52504 0.0
H1762 H 0.32425 1.00296 0.54535 0.0
H1763 H 0.31674 0.96686 0.45531 0.0
H1764 H 0.28687 0.92651 0.43252 0.0
H1765 H 0.21908 0.90633 0.4757 0.0
H1766 H 0.24841 0.94676 0.49855 0.0
H1767 H 0.41355 0.11389 0.47664 0.0
H1768 H 0.38859 0.06972 0.49558 0.0
H1769 H 0.31247 0.05765 0.46847 0.0
H1770 H 0.33758 0.10127 0.44875 0.0
H1771 H 0.31452 0.01184 0.46528 0.0
H1772 H 0.33033 0.07654 0.52276 0.0
H1773 H 0.35825 0.11708 0.54596 0.0
H1774 H 0.405 0.0807 0.56893 0.0
H1775 H 0.3776 0.04008 0.54564 0.0
C1776 C 0.26339 0.92207 0.55392 0.0
C1777 C 0.27094 0.90278 0.54742 0.0
C1778 C 0.27478 0.94762 0.5435 0.0
C1779 C 0.29357 0.95409 0.52624 0.0
C1780 C 0.30091 0.93468 0.51964 0.0
C1781 C 0.28978 0.90929 0.53022 0.0
C1782 C 0.30592 0.98129 0.51534 0.0
C1783 C 0.3221 0.00494 0.52785 0.0
C1784 C 0.30279 0.98386 0.49258 0.0
C1785 C 0.28488 0.9597 0.47876 0.0
C1786 C 0.29544 0.95387 0.45989 0.0
C1787 C 0.2786 0.93098 0.44696 0.0
C1788 C 0.25112 0.91382 0.4527 0.0
C1789 C 0.24039 0.91957 0.47133 0.0
C1790 C 0.25713 0.94246 0.48428 0.0
C1791 C 0.39151 0.10175 0.47468 0.0
C1792 C 0.37749 0.11107 0.46131 0.0
C1793 C 0.37722 0.07663 0.48566 0.0
C1794 C 0.34857 0.06046 0.48369 0.0
C1795 C 0.33454 0.06978 0.47033 0.0
C1796 C 0.34886 0.09485 0.45926 0.0
C1797 C 0.33332 0.03361 0.4952 0.0
C1798 C 0.31663 0.00995 0.48279 0.0
C1799 C 0.33573 0.03108 0.51812 0.0
C1800 C 0.35204 0.05536 0.53233 0.0
C1801 C 0.34667 0.07725 0.53266 0.0
C1802 C 0.36239 0.10024 0.54584 0.0
C1803 C 0.38342 0.10149 0.55888 0.0
C1804 C 0.38872 0.07971 0.55882 0.0
C1805 C 0.37308 0.05669 0.54565 0.0
H1806 H 0.39558 0.11931 0.56906 0.0
H1807 H 0.23813 0.89609 0.44268 0.0
H1808 H 0.25345 0.33848 0.93785 0.0
H1809 H 0.27467 0.31494 0.95623 0.0
H1810 H 0.3108 0.38026 0.00408 0.0
H1811 H 0.29042 0.40423 0.98508 0.0
H1812 H 0.34715 0.36822 0.99262 0.0
H1813 H 0.25353 0.31413 0.01504 0.0
H1814 H 0.20341 0.28628 0.01016 0.0
H1815 H 0.21337 0.22693 0.97298 0.0
H1816 H 0.26362 0.25465 0.97736 0.0
H1817 H 0.38079 0.29847 0.07322 0.0
H1818 H 0.35701 0.31872 0.05389 0.0
H1819 H 0.34241 0.26469 0.99899 0.0
H1820 H 0.36714 0.24497 0.01805 0.0
H1821 H 0.29525 0.26977 0.01337 0.0
H1822 H 0.39038 0.32559 0.99295 0.0
H1823 H 0.4399 0.35367 1.00063 0.0
H1824 H 0.42572 0.41044 0.03761 0.0
H1825 H 0.37601 0.38241 0.03047 0.0
C1826 C 0.26568 0.34755 0.95245 0.0
C1827 C 0.27011 0.37291 0.96029 0.0
C1828 C 0.27776 0.3341 0.96299 0.0
C1829 C 0.29406 0.34555 0.98182 0.0
C1830 C 0.29834 0.37093 0.98964 0.0
C1831 C 0.2866 0.38455 0.97889 0.0
C1832 C 0.30734 0.33157 0.993 0.0
C1833 C 0.33563 0.34678 0.99738 0.0
C1834 C 0.29257 0.30341 0.99891 0.0
C1835 C 0.26236 0.28662 0.99634 0.0
C1836 C 0.24505 0.29524 0.00568 0.0
C1837 C 0.21662 0.27947 1.00303 0.0
C1838 C 0.20522 0.25489 0.99122 0.0
C1839 C 0.22224 0.246 0.98209 0.0
C1840 C 0.25069 0.26173 0.98467 0.0
C1841 C 0.37269 0.29107 0.05696 0.0
C1842 C 0.37604 0.27038 0.047 0.0
C1843 C 0.35899 0.30253 0.046 0.0
C1844 C 0.34809 0.2933 0.02497 0.0
C1845 C 0.35065 0.27205 0.01523 0.0
C1846 C 0.36472 0.26081 0.0261 0.0
C1847 C 0.33478 0.30653 0.01301 0.0
C1848 C 0.3066 0.29118 0.00851 0.0
C1849 C 0.3495 0.33466 0.00731 0.0
C1850 C 0.37944 0.35176 0.01134 0.0
C1851 C 0.39779 0.34394 1.00287 0.0
C1852 C 0.4259 0.35986 0.00711 0.0
C1853 C 0.43594 0.38379 0.01964 0.0
C1854 C 0.4179 0.39188 0.02792 0.0
C1855 C 0.38976 0.37599 0.02377 0.0
H1856 H 0.45771 0.39608 0.02291 0.0
H1857 H 0.1832 0.2427 0.98918 0.0
H1858 H 0.09508 0.33891 0.56327 0.0
H1859 H 0.05038 0.3142 0.5449 0.0
H1860 H 0.06954 0.38719 0.50812 0.0
H1861 H 0.11441 0.41182 0.52631 0.0
H1862 H 0.00774 0.32423 0.54503 0.0
H1863 H 0.04008 0.36721 0.4571 0.0
H1864 H 0.08054 0.38451 0.43291 0.0
H1865 H 0.10775 0.33607 0.46774 0.0
H1866 H 0.06728 0.31818 0.49192 0.0
H1867 H 0.89217 0.30069 0.4802 0.0
H1868 H 0.9368 0.3214 0.49883 0.0
H1869 H 0.95514 0.26453 0.46587 0.0
H1870 H 0.91078 0.24414 0.447 0.0
H1871 H 0.99815 0.31641 0.464 0.0
H1872 H 0.93779 0.25568 0.51924 0.0
H1873 H 0.89731 0.23568 0.5435 0.0
H1874 H 0.92605 0.31409 0.57428 0.0
H1875 H 0.96653 0.33466 0.54998 0.0
C1876 C 0.08986 0.34952 0.55103 0.0
C1877 C 0.10822 0.37716 0.54602 0.0
C1878 C 0.06425 0.33548 0.54071 0.0
C1879 C 0.05664 0.34878 0.52505 0.0
C1880 C 0.07506 0.37642 0.51998 0.0
C1881 C 0.10061 0.39048 0.53039 0.0
C1882 C 0.02934 0.33385 0.51421 0.0
C1883 C 0.00565 0.32254 0.52731 0.0
C1884 C 0.02657 0.33127 0.49111 0.0
C1885 C 0.05078 0.34158 0.47645 0.0
C1886 C 0.05464 0.36017 0.45953 0.0
C1887 C 0.07759 0.37009 0.44583 0.0
C1888 C 0.09675 0.36146 0.44883 0.0
C1889 C 0.09295 0.34281 0.46549 0.0
C1890 C 0.07003 0.33281 0.47921 0.0
C1891 C 0.90574 0.2926 0.47704 0.0
C1892 C 0.89802 0.27075 0.46229 0.0
C1893 C 0.93115 0.30434 0.48773 0.0
C1894 C 0.94927 0.29442 0.48385 0.0
C1895 C 0.9415 0.27251 0.46914 0.0
C1896 C 0.91606 0.2607 0.45854 0.0
C1897 C 0.97654 0.30718 0.4948 0.0
C1898 C 1.00023 0.31813 0.48171 0.0
C1899 C 0.9793 0.30909 0.51792 0.0
C1900 C 0.95507 0.29676 0.53265 0.0
C1901 C 0.93538 0.2687 0.53107 0.0
C1902 C 0.91245 0.25726 0.54485 0.0
C1903 C 0.90908 0.27362 0.56039 0.0
C1904 C 0.92867 0.30145 0.56222 0.0
C1905 C 0.95163 0.31301 0.54846 0.0
H1906 H 0.89131 0.26472 0.57104 0.0
H1907 H 0.1145 0.36919 0.43822 0.0
loop_
_geom_bond_atom_site_label_1
_geom_bond_atom_site_label_2
_geom_bond_distance
_geom_bond_site_symmetry_2
_ccdc_geom_bond_type
Co0 O3 1.970 . S
Co0 N17 1.989 . S
Co0 O25 1.967 . S
Co0 O32 1.920 . S
Co1 O4 1.966 . S
Co1 N10 2.022 . S
Co1 N18 1.993 . S
Co1 O26 1.941 . S
C2 O3 1.258 . S
C2 O4 1.263 . S
O3 Co0 1.970 . S
O3 C2 1.258 . S
O4 Co1 1.966 . S
O4 C2 1.263 . S
C5 O6 1.235 . S
C5 O32 1.289 . S
O6 C5 1.235 . S
C7 C9 1.400 . S
C7 N10 1.351 . S
C7 C12 1.501 . S
C8 C9 1.387 . S
C8 N11 1.341 . S
C9 C7 1.400 . S
C9 C8 1.387 . S
N10 Co1 2.022 . S
N10 C7 1.351 . S
N10 N11 1.365 . S
N11 C8 1.341 . S
N11 N10 1.365 . S
N11 H31 0.862 . S
C12 C7 1.501 . S
C12 H13 0.961 . S
C12 H14 0.961 . S
C12 H15 0.960 . S
H13 C12 0.961 . S
H14 C12 0.961 . S
H15 C12 0.960 . S
C16 N17 1.342 . S
C16 C20 1.401 . S
C16 C21 1.499 . S
N17 Co0 1.989 . S
N17 C16 1.342 . S
N17 N18 1.388 . S
N18 Co1 1.993 . S
N18 N17 1.388 . S
N18 C19 1.346 . S
C19 N18 1.346 . S
C19 C20 1.396 . S
C19 C29 1.510 . S
C20 C16 1.401 . S
C20 C19 1.396 . S
C21 C16 1.499 . S
C21 H22 0.959 . S
C21 H23 0.960 . S
C21 H24 0.961 . S
H22 C21 0.959 . S
H23 C21 0.960 . S
H24 C21 0.961 . S
O25 Co0 1.967 . S
O25 C33 1.258 . S
O26 Co1 1.941 . S
O26 C33 1.266 . S
H27 C29 0.959 . S
H28 C29 0.961 . S
C29 C19 1.510 . S
C29 H27 0.959 . S
C29 H28 0.961 . S
C29 H30 0.960 . S
H30 C29 0.960 . S
H31 N11 0.862 . S
O32 Co0 1.920 . S
O32 C5 1.289 . S
C33 O25 1.258 . S
C33 O26 1.266 . S
Co34 O37 1.970 . S
Co34 N51 1.989 . S
Co34 O59 1.967 . S
Co34 O66 1.920 . S
Co35 O38 1.966 . S
Co35 N44 2.022 . S
Co35 N52 1.993 . S
Co35 O60 1.941 . S
C36 O37 1.258 . S
C36 O38 1.263 . S
O37 Co34 1.970 . S
O37 C36 1.258 . S
O38 Co35 1.966 . S
O38 C36 1.263 . S
C39 O40 1.235 . S
C39 O66 1.289 . S
O40 C39 1.235 . S
C41 C43 1.400 . S
C41 N44 1.351 . S
C41 C46 1.501 . S
C42 C43 1.387 . S
C42 N45 1.341 . S
C43 C41 1.400 . S
C43 C42 1.387 . S
N44 Co35 2.022 . S
N44 C41 1.351 . S
N44 N45 1.365 . S
N45 C42 1.341 . S
N45 N44 1.365 . S
N45 H65 0.862 . S
C46 C41 1.501 . S
C46 H47 0.961 . S
C46 H48 0.961 . S
C46 H49 0.960 . S
H47 C46 0.961 . S
H48 C46 0.961 . S
H49 C46 0.960 . S
C50 N51 1.342 . S
C50 C54 1.401 . S
C50 C55 1.499 . S
N51 Co34 1.989 . S
N51 C50 1.342 . S
N51 N52 1.388 . S
N52 Co35 1.993 . S
N52 N51 1.388 . S
N52 C53 1.346 . S
C53 N52 1.346 . S
C53 C54 1.396 . S
C53 C63 1.510 . S
C54 C50 1.401 . S
C54 C53 1.396 . S
C55 C50 1.499 . S
C55 H56 0.959 . S
C55 H57 0.960 . S
C55 H58 0.961 . S
H56 C55 0.959 . S
H57 C55 0.960 . S
H58 C55 0.961 . S
O59 Co34 1.967 . S
O59 C67 1.258 . S
O60 Co35 1.941 . S
O60 C67 1.266 . S
H61 C63 0.959 . S
H62 C63 0.961 . S
C63 C53 1.510 . S
C63 H61 0.959 . S
C63 H62 0.961 . S
C63 H64 0.960 . S
H64 C63 0.960 . S
H65 N45 0.862 . S
O66 Co34 1.920 . S
O66 C39 1.289 . S
C67 O59 1.258 . S
C67 O60 1.266 . S
Co68 O71 1.970 . S
Co68 N85 1.989 . S
Co68 O93 1.967 . S
Co68 O100 1.920 . S
Co69 O72 1.966 . S
Co69 N78 2.022 . S
Co69 N86 1.993 . S
Co69 O94 1.941 . S
C70 O71 1.258 . S
C70 O72 1.263 . S
O71 Co68 1.970 . S
O71 C70 1.258 . S
O72 Co69 1.966 . S
O72 C70 1.263 . S
C73 O74 1.235 . S
C73 O100 1.289 . S
O74 C73 1.235 . S
C75 C77 1.400 . S
C75 N78 1.351 . S
C75 C80 1.501 . S
C76 C77 1.387 . S
C76 N79 1.341 . S
C77 C75 1.400 . S
C77 C76 1.387 . S
N78 Co69 2.022 . S
N78 C75 1.351 . S
N78 N79 1.365 . S
N79 C76 1.341 . S
N79 N78 1.365 . S
N79 H99 0.862 . S
C80 C75 1.501 . S
C80 H81 0.961 . S
C80 H82 0.961 . S
C80 H83 0.960 . S
H81 C80 0.961 . S
H82 C80 0.961 . S
H83 C80 0.960 . S
C84 N85 1.342 . S
C84 C88 1.401 . S
C84 C89 1.499 . S
N85 Co68 1.989 . S
N85 C84 1.342 . S
N85 N86 1.388 . S
N86 Co69 1.993 . S
N86 N85 1.388 . S
N86 C87 1.346 . S
C87 N86 1.346 . S
C87 C88 1.396 . S
C87 C97 1.510 . S
C88 C84 1.401 . S
C88 C87 1.396 . S
C89 C84 1.499 . S
C89 H90 0.959 . S
C89 H91 0.960 . S
C89 H92 0.961 . S
H90 C89 0.959 . S
H91 C89 0.960 . S
H92 C89 0.961 . S
O93 Co68 1.967 . S
O93 C101 1.258 . S
O94 Co69 1.941 . S
O94 C101 1.266 . S
H95 C97 0.959 . S
H96 C97 0.961 . S
C97 C87 1.510 . S
C97 H95 0.959 . S
C97 H96 0.961 . S
C97 H98 0.960 . S
H98 C97 0.960 . S
H99 N79 0.862 . S
O100 Co68 1.920 . S
O100 C73 1.289 . S
C101 O93 1.258 . S
C101 O94 1.266 . S
Co102 O105 1.970 . S
Co102 N119 1.989 . S
Co102 O127 1.967 . S
Co102 O134 1.920 . S
Co103 O106 1.966 . S
Co103 N112 2.022 . S
Co103 N120 1.993 . S
Co103 O128 1.941 . S
C104 O105 1.258 . S
C104 O106 1.263 . S
O105 Co102 1.970 . S
O105 C104 1.258 . S
O106 Co103 1.966 . S
O106 C104 1.263 . S
C107 O108 1.235 . S
C107 O134 1.289 . S
O108 C107 1.235 . S
C109 C111 1.400 . S
C109 N112 1.351 . S
C109 C114 1.501 . S
C110 C111 1.387 . S
C110 N113 1.341 . S
C111 C109 1.400 . S
C111 C110 1.387 . S
N112 Co103 2.022 . S
N112 C109 1.351 . S
N112 N113 1.365 . S
N113 C110 1.341 . S
N113 N112 1.365 . S
N113 H133 0.862 . S
C114 C109 1.501 . S
C114 H115 0.961 . S
C114 H116 0.961 . S
C114 H117 0.960 . S
H115 C114 0.961 . S
H116 C114 0.961 . S
H117 C114 0.960 . S
C118 N119 1.342 . S
C118 C122 1.401 . S
C118 C123 1.499 . S
N119 Co102 1.989 . S
N119 C118 1.342 . S
N119 N120 1.388 . S
N120 Co103 1.993 . S
N120 N119 1.388 . S
N120 C121 1.346 . S
C121 N120 1.346 . S
C121 C122 1.396 . S
C121 C131 1.510 . S
C122 C118 1.401 . S
C122 C121 1.396 . S
C123 C118 1.499 . S
C123 H124 0.959 . S
C123 H125 0.960 . S
C123 H126 0.961 . S
H124 C123 0.959 . S
H125 C123 0.960 . S
H126 C123 0.961 . S
O127 Co102 1.967 . S
O127 C135 1.258 . S
O128 Co103 1.941 . S
O128 C135 1.266 . S
H129 C131 0.959 . S
H130 C131 0.961 . S
C131 C121 1.510 . S
C131 H129 0.959 . S
C131 H130 0.961 . S
C131 H132 0.960 . S
H132 C131 0.960 . S
H133 N113 0.862 . S
O134 Co102 1.920 . S
O134 C107 1.289 . S
C135 O127 1.258 . S
C135 O128 1.266 . S
Co136 O139 1.970 . S
Co136 N153 1.989 . S
Co136 O161 1.967 . S
Co136 O168 1.920 . S
Co137 O140 1.966 . S
Co137 N146 2.022 . S
Co137 N154 1.993 . S
Co137 O162 1.941 . S
C138 O139 1.258 . S
C138 O140 1.263 . S
O139 Co136 1.970 . S
O139 C138 1.258 . S
O140 Co137 1.966 . S
O140 C138 1.263 . S
C141 O142 1.235 . S
C141 O168 1.289 . S
O142 C141 1.235 . S
C143 C145 1.400 . S
C143 N146 1.351 . S
C143 C148 1.501 . S
C144 C145 1.387 . S
C144 N147 1.341 . S
C145 C143 1.400 . S
C145 C144 1.387 . S
N146 Co137 2.022 . S
N146 C143 1.351 . S
N146 N147 1.365 . S
N147 C144 1.341 . S
N147 N146 1.365 . S
N147 H167 0.862 . S
C148 C143 1.501 . S
C148 H149 0.961 . S
C148 H150 0.961 . S
C148 H151 0.960 . S
H149 C148 0.961 . S
H150 C148 0.961 . S
H151 C148 0.960 . S
C152 N153 1.342 . S
C152 C156 1.401 . S
C152 C157 1.499 . S
N153 Co136 1.989 . S
N153 C152 1.342 . S
N153 N154 1.388 . S
N154 Co137 1.993 . S
N154 N153 1.388 . S
N154 C155 1.346 . S
C155 N154 1.346 . S
C155 C156 1.396 . S
C155 C165 1.510 . S
C156 C152 1.401 . S
C156 C155 1.396 . S
C157 C152 1.499 . S
C157 H158 0.959 . S
C157 H159 0.960 . S
C157 H160 0.961 . S
H158 C157 0.959 . S
H159 C157 0.960 . S
H160 C157 0.961 . S
O161 Co136 1.967 . S
O161 C169 1.258 . S
O162 Co137 1.941 . S
O162 C169 1.266 . S
H163 C165 0.959 . S
H164 C165 0.961 . S
C165 C155 1.510 . S
C165 H163 0.959 . S
C165 H164 0.961 . S
C165 H166 0.960 . S
H166 C165 0.960 . S
H167 N147 0.862 . S
O168 Co136 1.920 . S
O168 C141 1.289 . S
C169 O161 1.258 . S
C169 O162 1.266 . S
Co170 O173 1.970 . S
Co170 N187 1.989 . S
Co170 O195 1.967 . S
Co170 O202 1.920 . S
Co171 O174 1.966 . S
Co171 N180 2.022 . S
Co171 N188 1.993 . S
Co171 O196 1.941 . S
C172 O173 1.258 . S
C172 O174 1.263 . S
O173 Co170 1.970 . S
O173 C172 1.258 . S
O174 Co171 1.966 . S
O174 C172 1.263 . S
C175 O176 1.235 . S
C175 O202 1.289 . S
O176 C175 1.235 . S
C177 C179 1.400 . S
C177 N180 1.351 . S
C177 C182 1.501 . S
C178 C179 1.387 . S
C178 N181 1.341 . S
C179 C177 1.400 . S
C179 C178 1.387 . S
N180 Co171 2.022 . S
N180 C177 1.351 . S
N180 N181 1.365 . S
N181 C178 1.341 . S
N181 N180 1.365 . S
N181 H201 0.862 . S
C182 C177 1.501 . S
C182 H183 0.961 . S
C182 H184 0.961 . S
C182 H185 0.960 . S
H183 C182 0.961 . S
H184 C182 0.961 . S
H185 C182 0.960 . S
C186 N187 1.342 . S
C186 C190 1.401 . S
C186 C191 1.499 . S
N187 Co170 1.989 . S
N187 C186 1.342 . S
N187 N188 1.388 . S
N188 Co171 1.993 . S
N188 N187 1.388 . S
N188 C189 1.346 . S
C189 N188 1.346 . S
C189 C190 1.396 . S
C189 C199 1.510 . S
C190 C186 1.401 . S
C190 C189 1.396 . S
C191 C186 1.499 . S
C191 H192 0.959 . S
C191 H193 0.960 . S
C191 H194 0.961 . S
H192 C191 0.959 . S
H193 C191 0.960 . S
H194 C191 0.961 . S
O195 Co170 1.967 . S
O195 C203 1.258 . S
O196 Co171 1.941 . S
O196 C203 1.266 . S
H197 C199 0.959 . S
H198 C199 0.961 . S
C199 C189 1.510 . S
C199 H197 0.959 . S
C199 H198 0.961 . S
C199 H200 0.960 . S
H200 C199 0.960 . S
H201 N181 0.862 . S
O202 Co170 1.920 . S
O202 C175 1.289 . S
C203 O195 1.258 . S
C203 O196 1.266 . S
Co204 O207 1.970 . S
Co204 N221 1.989 . S
Co204 O229 1.967 . S
Co204 O236 1.920 . S
Co205 O208 1.966 . S
Co205 N214 2.022 . S
Co205 N222 1.993 . S
Co205 O230 1.941 . S
C206 O207 1.258 . S
C206 O208 1.263 . S
O207 Co204 1.970 . S
O207 C206 1.258 . S
O208 Co205 1.966 . S
O208 C206 1.263 . S
C209 O210 1.235 . S
C209 O236 1.289 . S
O210 C209 1.235 . S
C211 C213 1.400 . S
C211 N214 1.351 . S
C211 C216 1.501 . S
C212 C213 1.387 . S
C212 N215 1.341 . S
C213 C211 1.400 . S
C213 C212 1.387 . S
N214 Co205 2.022 . S
N214 C211 1.351 . S
N214 N215 1.365 . S
N215 C212 1.341 . S
N215 N214 1.365 . S
N215 H235 0.862 . S
C216 C211 1.501 . S
C216 H217 0.961 . S
C216 H218 0.961 . S
C216 H219 0.960 . S
H217 C216 0.961 . S
H218 C216 0.961 . S
H219 C216 0.960 . S
C220 N221 1.342 . S
C220 C224 1.401 . S
C220 C225 1.499 . S
N221 Co204 1.989 . S
N221 C220 1.342 . S
N221 N222 1.388 . S
N222 Co205 1.993 . S
N222 N221 1.388 . S
N222 C223 1.346 . S
C223 N222 1.346 . S
C223 C224 1.396 . S
C223 C233 1.510 . S
C224 C220 1.401 . S
C224 C223 1.396 . S
C225 C220 1.499 . S
C225 H226 0.959 . S
C225 H227 0.960 . S
C225 H228 0.961 . S
H226 C225 0.959 . S
H227 C225 0.960 . S
H228 C225 0.961 . S
O229 Co204 1.967 . S
O229 C237 1.258 . S
O230 Co205 1.941 . S
O230 C237 1.266 . S
H231 C233 0.959 . S
H232 C233 0.961 . S
C233 C223 1.510 . S
C233 H231 0.959 . S
C233 H232 0.961 . S
C233 H234 0.960 . S
H234 C233 0.960 . S
H235 N215 0.862 . S
O236 Co204 1.920 . S
O236 C209 1.289 . S
C237 O229 1.258 . S
C237 O230 1.266 . S
Co238 O241 1.970 . S
Co238 N255 1.989 . S
Co238 O263 1.967 . S
Co238 O270 1.920 . S
Co239 O242 1.966 . S
Co239 N248 2.022 . S
Co239 N256 1.993 . S
Co239 O264 1.941 . S
C240 O241 1.258 . S
C240 O242 1.263 . S
O241 Co238 1.970 . S
O241 C240 1.258 . S
O242 Co239 1.966 . S
O242 C240 1.263 . S
C243 O244 1.235 . S
C243 O270 1.289 . S
O244 C243 1.235 . S
C245 C247 1.400 . S
C245 N248 1.351 . S
C245 C250 1.501 . S
C246 C247 1.387 . S
C246 N249 1.341 . S
C247 C245 1.400 . S
C247 C246 1.387 . S
N248 Co239 2.022 . S
N248 C245 1.351 . S
N248 N249 1.365 . S
N249 C246 1.341 . S
N249 N248 1.365 . S
N249 H269 0.862 . S
C250 C245 1.501 . S
C250 H251 0.961 . S
C250 H252 0.961 . S
C250 H253 0.960 . S
H251 C250 0.961 . S
H252 C250 0.961 . S
H253 C250 0.960 . S
C254 N255 1.342 . S
C254 C258 1.401 . S
C254 C259 1.499 . S
N255 Co238 1.989 . S
N255 C254 1.342 . S
N255 N256 1.388 . S
N256 Co239 1.993 . S
N256 N255 1.388 . S
N256 C257 1.346 . S
C257 N256 1.346 . S
C257 C258 1.396 . S
C257 C267 1.510 . S
C258 C254 1.401 . S
C258 C257 1.396 . S
C259 C254 1.499 . S
C259 H260 0.959 . S
C259 H261 0.960 . S
C259 H262 0.961 . S
H260 C259 0.959 . S
H261 C259 0.960 . S
H262 C259 0.961 . S
O263 Co238 1.967 . S
O263 C271 1.258 . S
O264 Co239 1.941 . S
O264 C271 1.266 . S
H265 C267 0.959 . S
H266 C267 0.961 . S
C267 C257 1.510 . S
C267 H265 0.959 . S
C267 H266 0.961 . S
C267 H268 0.960 . S
H268 C267 0.960 . S
H269 N249 0.862 . S
O270 Co238 1.920 . S
O270 C243 1.289 . S
C271 O263 1.258 . S
C271 O264 1.266 . S
Co272 O275 1.970 . S
Co272 N289 1.989 . S
Co272 O297 1.967 . S
Co272 O304 1.920 . S
Co273 O276 1.966 . S
Co273 N282 2.022 . S
Co273 N290 1.993 . S
Co273 O298 1.941 . S
C274 O275 1.258 . S
C274 O276 1.263 . S
O275 Co272 1.970 . S
O275 C274 1.258 . S
O276 Co273 1.966 . S
O276 C274 1.263 . S
C277 O278 1.235 . S
C277 O304 1.289 . S
O278 C277 1.235 . S
C279 C281 1.400 . S
C279 N282 1.351 . S
C279 C284 1.501 . S
C280 C281 1.387 . S
C280 N283 1.341 . S
C281 C279 1.400 . S
C281 C280 1.387 . S
N282 Co273 2.022 . S
N282 C279 1.351 . S
N282 N283 1.365 . S
N283 C280 1.341 . S
N283 N282 1.365 . S
N283 H303 0.862 . S
C284 C279 1.501 . S
C284 H285 0.961 . S
C284 H286 0.961 . S
C284 H287 0.960 . S
H285 C284 0.961 . S
H286 C284 0.961 . S
H287 C284 0.960 . S
C288 N289 1.342 . S
C288 C292 1.401 . S
C288 C293 1.499 . S
N289 Co272 1.989 . S
N289 C288 1.342 . S
N289 N290 1.388 . S
N290 Co273 1.993 . S
N290 N289 1.388 . S
N290 C291 1.346 . S
C291 N290 1.346 . S
C291 C292 1.396 . S
C291 C301 1.510 . S
C292 C288 1.401 . S
C292 C291 1.396 . S
C293 C288 1.499 . S
C293 H294 0.959 . S
C293 H295 0.960 . S
C293 H296 0.961 . S
H294 C293 0.959 . S
H295 C293 0.960 . S
H296 C293 0.961 . S
O297 Co272 1.967 . S
O297 C305 1.258 . S
O298 Co273 1.941 . S
O298 C305 1.266 . S
H299 C301 0.959 . S
H300 C301 0.961 . S
C301 C291 1.510 . S
C301 H299 0.959 . S
C301 H300 0.961 . S
C301 H302 0.960 . S
H302 C301 0.960 . S
H303 N283 0.862 . S
O304 Co272 1.920 . S
O304 C277 1.289 . S
C305 O297 1.258 . S
C305 O298 1.266 . S
Co306 O309 1.970 . S
Co306 N323 1.989 . S
Co306 O331 1.967 . S
Co306 O338 1.920 . S
Co307 O310 1.966 . S
Co307 N316 2.022 . S
Co307 N324 1.993 . S
Co307 O332 1.941 . S
C308 O309 1.258 . S
C308 O310 1.263 . S
O309 Co306 1.970 . S
O309 C308 1.258 . S
O310 Co307 1.966 . S
O310 C308 1.263 . S
C311 O312 1.235 . S
C311 O338 1.289 . S
O312 C311 1.235 . S
C313 C315 1.400 . S
C313 N316 1.351 . S
C313 C318 1.501 . S
C314 C315 1.387 . S
C314 N317 1.341 . S
C315 C313 1.400 . S
C315 C314 1.387 . S
N316 Co307 2.022 . S
N316 C313 1.351 . S
N316 N317 1.365 . S
N317 C314 1.341 . S
N317 N316 1.365 . S
N317 H337 0.862 . S
C318 C313 1.501 . S
C318 H319 0.961 . S
C318 H320 0.961 . S
C318 H321 0.960 . S
H319 C318 0.961 . S
H320 C318 0.961 . S
H321 C318 0.960 . S
C322 N323 1.342 . S
C322 C326 1.401 . S
C322 C327 1.499 . S
N323 Co306 1.989 . S
N323 C322 1.342 . S
N323 N324 1.388 . S
N324 Co307 1.993 . S
N324 N323 1.388 . S
N324 C325 1.346 . S
C325 N324 1.346 . S
C325 C326 1.396 . S
C325 C335 1.510 . S
C326 C322 1.401 . S
C326 C325 1.396 . S
C327 C322 1.499 . S
C327 H328 0.959 . S
C327 H329 0.960 . S
C327 H330 0.961 . S
H328 C327 0.959 . S
H329 C327 0.960 . S
H330 C327 0.961 . S
O331 Co306 1.967 . S
O331 C339 1.258 . S
O332 Co307 1.941 . S
O332 C339 1.266 . S
H333 C335 0.959 . S
H334 C335 0.961 . S
C335 C325 1.510 . S
C335 H333 0.959 . S
C335 H334 0.961 . S
C335 H336 0.960 . S
H336 C335 0.960 . S
H337 N317 0.862 . S
O338 Co306 1.920 . S
O338 C311 1.289 . S
C339 O331 1.258 . S
C339 O332 1.266 . S
Co340 O343 1.970 . S
Co340 N357 1.989 . S
Co340 O365 1.967 . S
Co340 O372 1.920 . S
Co341 O344 1.966 . S
Co341 N350 2.022 . S
Co341 N358 1.993 . S
Co341 O366 1.941 . S
C342 O343 1.258 . S
C342 O344 1.263 . S
O343 Co340 1.970 . S
O343 C342 1.258 . S
O344 Co341 1.966 . S
O344 C342 1.263 . S
C345 O346 1.235 . S
C345 O372 1.289 . S
O346 C345 1.235 . S
C347 C349 1.400 . S
C347 N350 1.351 . S
C347 C352 1.501 . S
C348 C349 1.387 . S
C348 N351 1.341 . S
C349 C347 1.400 . S
C349 C348 1.387 . S
N350 Co341 2.022 . S
N350 C347 1.351 . S
N350 N351 1.365 . S
N351 C348 1.341 . S
N351 N350 1.365 . S
N351 H371 0.862 . S
C352 C347 1.501 . S
C352 H353 0.961 . S
C352 H354 0.961 . S
C352 H355 0.960 . S
H353 C352 0.961 . S
H354 C352 0.961 . S
H355 C352 0.960 . S
C356 N357 1.342 . S
C356 C360 1.401 . S
C356 C361 1.499 . S
N357 Co340 1.989 . S
N357 C356 1.342 . S
N357 N358 1.388 . S
N358 Co341 1.993 . S
N358 N357 1.388 . S
N358 C359 1.346 . S
C359 N358 1.346 . S
C359 C360 1.396 . S
C359 C369 1.510 . S
C360 C356 1.401 . S
C360 C359 1.396 . S
C361 C356 1.499 . S
C361 H362 0.959 . S
C361 H363 0.960 . S
C361 H364 0.961 . S
H362 C361 0.959 . S
H363 C361 0.960 . S
H364 C361 0.961 . S
O365 Co340 1.967 . S
O365 C373 1.258 . S
O366 Co341 1.941 . S
O366 C373 1.266 . S
H367 C369 0.959 . S
H368 C369 0.961 . S
C369 C359 1.510 . S
C369 H367 0.959 . S
C369 H368 0.961 . S
C369 H370 0.960 . S
H370 C369 0.960 . S
H371 N351 0.862 . S
O372 Co340 1.920 . S
O372 C345 1.289 . S
C373 O365 1.258 . S
C373 O366 1.266 . S
Co374 O377 1.970 . S
Co374 N391 1.989 . S
Co374 O399 1.967 . S
Co374 O406 1.920 . S
Co375 O378 1.966 . S
Co375 N384 2.022 . S
Co375 N392 1.993 . S
Co375 O400 1.941 . S
C376 O377 1.258 . S
C376 O378 1.263 . S
O377 Co374 1.970 . S
O377 C376 1.258 . S
O378 Co375 1.966 . S
O378 C376 1.263 . S
C379 O380 1.235 . S
C379 O406 1.289 . S
O380 C379 1.235 . S
C381 C383 1.400 . S
C381 N384 1.351 . S
C381 C386 1.501 . S
C382 C383 1.387 . S
C382 N385 1.341 . S
C383 C381 1.400 . S
C383 C382 1.387 . S
N384 Co375 2.022 . S
N384 C381 1.351 . S
N384 N385 1.365 . S
N385 C382 1.341 . S
N385 N384 1.365 . S
N385 H405 0.862 . S
C386 C381 1.501 . S
C386 H387 0.961 . S
C386 H388 0.961 . S
C386 H389 0.960 . S
H387 C386 0.961 . S
H388 C386 0.961 . S
H389 C386 0.960 . S
C390 N391 1.342 . S
C390 C394 1.401 . S
C390 C395 1.499 . S
N391 Co374 1.989 . S
N391 C390 1.342 . S
N391 N392 1.388 . S
N392 Co375 1.993 . S
N392 N391 1.388 . S
N392 C393 1.346 . S
C393 N392 1.346 . S
C393 C394 1.396 . S
C393 C403 1.510 . S
C394 C390 1.401 . S
C394 C393 1.396 . S
C395 C390 1.499 . S
C395 H396 0.959 . S
C395 H397 0.960 . S
C395 H398 0.961 . S
H396 C395 0.959 . S
H397 C395 0.960 . S
H398 C395 0.961 . S
O399 Co374 1.967 . S
O399 C407 1.258 . S
O400 Co375 1.941 . S
O400 C407 1.266 . S
H401 C403 0.959 . S
H402 C403 0.961 . S
C403 C393 1.510 . S
C403 H401 0.959 . S
C403 H402 0.961 . S
C403 H404 0.960 . S
H404 C403 0.960 . S
H405 N385 0.862 . S
O406 Co374 1.920 . S
O406 C379 1.289 . S
C407 O399 1.258 . S
C407 O400 1.266 . S
H408 C426 0.951 . S
H409 C428 0.951 . S
H410 C430 0.950 . S
H411 C431 0.950 . S
H412 C433 0.950 . S
H413 C436 0.950 . S
H414 C437 0.950 . S
H415 C439 0.950 . S
H416 C440 0.950 . S
H417 C441 0.951 . S
H418 C443 0.951 . S
H419 C445 0.950 . S
H420 C446 0.950 . S
H421 C448 0.950 . S
H422 C451 0.950 . S
H423 C452 0.950 . S
H424 C454 0.950 . S
H425 C455 0.950 . S
C426 H408 0.951 . S
C426 C427 1.366 . S
C426 C428 1.388 . S
C427 C426 1.366 . S
C427 C431 1.385 . S
C428 H409 0.951 . S
C428 C426 1.388 . S
C428 C429 1.366 . S
C429 C428 1.366 . S
C429 C430 1.414 . S
C429 C432 1.499 . S
C430 H410 0.950 . S
C430 C429 1.414 . S
C430 C431 1.374 . S
C431 H411 0.950 . S
C431 C427 1.385 . S
C431 C430 1.374 . S
C432 C429 1.499 . S
C432 C433 1.373 . S
C432 C434 1.389 . S
C433 H412 0.950 . S
C433 C432 1.373 . S
C433 C449 1.377 . S
C434 C432 1.389 . S
C434 C435 1.524 . S
C434 C448 1.377 . S
C435 C434 1.524 . S
C435 C436 1.397 . S
C435 C440 1.363 . S
C436 H413 0.950 . S
C436 C435 1.397 . S
C436 C437 1.334 . S
C437 H414 0.950 . S
C437 C436 1.334 . S
C437 C438 1.287 . S
C438 C437 1.287 . S
C438 C439 1.524 . S
C438 H457 0.913 . S
C439 H415 0.950 . S
C439 C438 1.524 . S
C439 C440 1.415 . S
C440 H416 0.950 . S
C440 C435 1.363 . S
C440 C439 1.415 . S
C441 H417 0.951 . S
C441 C442 1.366 . S
C441 C443 1.388 . S
C442 C441 1.366 . S
C442 C446 1.385 . S
C443 H418 0.951 . S
C443 C441 1.388 . S
C443 C444 1.366 . S
C444 C443 1.366 . S
C444 C445 1.414 . S
C444 C447 1.499 . S
C445 H419 0.950 . S
C445 C444 1.414 . S
C445 C446 1.374 . S
C446 H420 0.950 . S
C446 C442 1.385 . S
C446 C445 1.374 . S
C447 C444 1.499 . S
C447 C448 1.373 . S
C447 C449 1.389 . S
C448 H421 0.950 . S
C448 C434 1.377 . S
C448 C447 1.373 . S
C449 C433 1.377 . S
C449 C447 1.389 . S
C449 C450 1.524 . S
C450 C449 1.524 . S
C450 C451 1.397 . S
C450 C455 1.363 . S
C451 H422 0.950 . S
C451 C450 1.397 . S
C451 C452 1.334 . S
C452 H423 0.950 . S
C452 C451 1.334 . S
C452 C453 1.287 . S
C453 C452 1.287 . S
C453 C454 1.524 . S
C453 H456 0.999 . S
C454 H424 0.950 . S
C454 C453 1.524 . S
C454 C455 1.415 . S
C455 H425 0.950 . S
C455 C450 1.363 . S
C455 C454 1.415 . S
H456 C453 0.999 . S
H457 C438 0.913 . S
H458 C476 0.951 . S
H459 C478 0.951 . S
H460 C480 0.950 . S
H461 C481 0.950 . S
H462 C483 0.950 . S
H463 C486 0.950 . S
H464 C487 0.950 . S
H465 C489 0.950 . S
H466 C490 0.950 . S
H467 C491 0.951 . S
H468 C493 0.951 . S
H469 C495 0.950 . S
H470 C496 0.950 . S
H471 C498 0.950 . S
H472 C501 0.950 . S
H473 C502 0.950 . S
H474 C504 0.950 . S
H475 C505 0.950 . S
C476 H458 0.951 . S
C476 C477 1.366 . S
C476 C478 1.388 . S
C477 C476 1.366 . S
C477 C481 1.385 . S
C478 H459 0.951 . S
C478 C476 1.388 . S
C478 C479 1.366 . S
C479 C478 1.366 . S
C479 C480 1.414 . S
C479 C482 1.499 . S
C480 H460 0.950 . S
C480 C479 1.414 . S
C480 C481 1.374 . S
C481 H461 0.950 . S
C481 C477 1.385 . S
C481 C480 1.374 . S
C482 C479 1.499 . S
C482 C483 1.373 . S
C482 C484 1.389 . S
C483 H462 0.950 . S
C483 C482 1.373 . S
C483 C499 1.377 . S
C484 C482 1.389 . S
C484 C485 1.524 . S
C484 C498 1.377 . S
C485 C484 1.524 . S
C485 C486 1.397 . S
C485 C490 1.363 . S
C486 H463 0.950 . S
C486 C485 1.397 . S
C486 C487 1.334 . S
C487 H464 0.950 . S
C487 C486 1.334 . S
C487 C488 1.287 . S
C488 C487 1.287 . S
C488 C489 1.524 . S
C488 H507 0.913 . S
C489 H465 0.950 . S
C489 C488 1.524 . S
C489 C490 1.415 . S
C490 H466 0.950 . S
C490 C485 1.363 . S
C490 C489 1.415 . S
C491 H467 0.951 . S
C491 C492 1.366 . S
C491 C493 1.388 . S
C492 C491 1.366 . S
C492 C496 1.385 . S
C493 H468 0.951 . S
C493 C491 1.388 . S
C493 C494 1.366 . S
C494 C493 1.366 . S
C494 C495 1.414 . S
C494 C497 1.499 . S
C495 H469 0.950 . S
C495 C494 1.414 . S
C495 C496 1.374 . S
C496 H470 0.950 . S
C496 C492 1.385 . S
C496 C495 1.374 . S
C497 C494 1.499 . S
C497 C498 1.373 . S
C497 C499 1.389 . S
C498 H471 0.950 . S
C498 C484 1.377 . S
C498 C497 1.373 . S
C499 C483 1.377 . S
C499 C497 1.389 . S
C499 C500 1.524 . S
C500 C499 1.524 . S
C500 C501 1.397 . S
C500 C505 1.363 . S
C501 H472 0.950 . S
C501 C500 1.397 . S
C501 C502 1.334 . S
C502 H473 0.950 . S
C502 C501 1.334 . S
C502 C503 1.287 . S
C503 C502 1.287 . S
C503 C504 1.524 . S
C503 H506 0.999 . S
C504 H474 0.950 . S
C504 C503 1.524 . S
C504 C505 1.415 . S
C505 H475 0.950 . S
C505 C500 1.363 . S
C505 C504 1.415 . S
H506 C503 0.999 . S
H507 C488 0.913 . S
H508 C526 0.951 . S
H509 C528 0.951 . S
H510 C530 0.950 . S
H511 C531 0.950 . S
H512 C533 0.950 . S
H513 C536 0.950 . S
H514 C537 0.950 . S
H515 C539 0.950 . S
H516 C540 0.950 . S
H517 C541 0.951 . S
H518 C543 0.951 . S
H519 C545 0.950 . S
H520 C546 0.950 . S
H521 C548 0.950 . S
H522 C551 0.950 . S
H523 C552 0.950 . S
H524 C554 0.950 . S
H525 C555 0.950 . S
C526 H508 0.951 . S
C526 C527 1.366 . S
C526 C528 1.388 . S
C527 C526 1.366 . S
C527 C531 1.385 . S
C528 H509 0.951 . S
C528 C526 1.388 . S
C528 C529 1.366 . S
C529 C528 1.366 . S
C529 C530 1.414 . S
C529 C532 1.499 . S
C530 H510 0.950 . S
C530 C529 1.414 . S
C530 C531 1.374 . S
C531 H511 0.950 . S
C531 C527 1.385 . S
C531 C530 1.374 . S
C532 C529 1.499 . S
C532 C533 1.373 . S
C532 C534 1.389 . S
C533 H512 0.950 . S
C533 C532 1.373 . S
C533 C549 1.377 . S
C534 C532 1.389 . S
C534 C535 1.524 . S
C534 C548 1.377 . S
C535 C534 1.524 . S
C535 C536 1.397 . S
C535 C540 1.363 . S
C536 H513 0.950 . S
C536 C535 1.397 . S
C536 C537 1.334 . S
C537 H514 0.950 . S
C537 C536 1.334 . S
C537 C538 1.287 . S
C538 C537 1.287 . S
C538 C539 1.524 . S
C538 H557 0.913 . S
C539 H515 0.950 . S
C539 C538 1.524 . S
C539 C540 1.415 . S
C540 H516 0.950 . S
C540 C535 1.363 . S
C540 C539 1.415 . S
C541 H517 0.951 . S
C541 C542 1.366 . S
C541 C543 1.388 . S
C542 C541 1.366 . S
C542 C546 1.385 . S
C543 H518 0.951 . S
C543 C541 1.388 . S
C543 C544 1.366 . S
C544 C543 1.366 . S
C544 C545 1.414 . S
C544 C547 1.499 . S
C545 H519 0.950 . S
C545 C544 1.414 . S
C545 C546 1.374 . S
C546 H520 0.950 . S
C546 C542 1.385 . S
C546 C545 1.374 . S
C547 C544 1.499 . S
C547 C548 1.373 . S
C547 C549 1.389 . S
C548 H521 0.950 . S
C548 C534 1.377 . S
C548 C547 1.373 . S
C549 C533 1.377 . S
C549 C547 1.389 . S
C549 C550 1.524 . S
C550 C549 1.524 . S
C550 C551 1.397 . S
C550 C555 1.363 . S
C551 H522 0.950 . S
C551 C550 1.397 . S
C551 C552 1.334 . S
C552 H523 0.950 . S
C552 C551 1.334 . S
C552 C553 1.287 . S
C553 C552 1.287 . S
C553 C554 1.524 . S
C553 H556 0.999 . S
C554 H524 0.950 . S
C554 C553 1.524 . S
C554 C555 1.415 . S
C555 H525 0.950 . S
C555 C550 1.363 . S
C555 C554 1.415 . S
H556 C553 0.999 . S
H557 C538 0.913 . S
H558 C576 0.951 . S
H559 C578 0.951 . S
H560 C580 0.950 . S
H561 C581 0.950 . S
H562 C583 0.950 . S
H563 C586 0.950 . S
H564 C587 0.950 . S
H565 C589 0.950 . S
H566 C590 0.950 . S
H567 C591 0.951 . S
H568 C593 0.951 . S
H569 C595 0.950 . S
H570 C596 0.950 . S
H571 C598 0.950 . S
H572 C601 0.950 . S
H573 C602 0.950 . S
H574 C604 0.950 . S
H575 C605 0.950 . S
C576 H558 0.951 . S
C576 C577 1.366 . S
C576 C578 1.388 . S
C577 C576 1.366 . S
C577 C581 1.385 . S
C578 H559 0.951 . S
C578 C576 1.388 . S
C578 C579 1.366 . S
C579 C578 1.366 . S
C579 C580 1.414 . S
C579 C582 1.499 . S
C580 H560 0.950 . S
C580 C579 1.414 . S
C580 C581 1.374 . S
C581 H561 0.950 . S
C581 C577 1.385 . S
C581 C580 1.374 . S
C582 C579 1.499 . S
C582 C583 1.373 . S
C582 C584 1.389 . S
C583 H562 0.950 . S
C583 C582 1.373 . S
C583 C599 1.377 . S
C584 C582 1.389 . S
C584 C585 1.524 . S
C584 C598 1.377 . S
C585 C584 1.524 . S
C585 C586 1.397 . S
C585 C590 1.363 . S
C586 H563 0.950 . S
C586 C585 1.397 . S
C586 C587 1.334 . S
C587 H564 0.950 . S
C587 C586 1.334 . S
C587 C588 1.287 . S
C588 C587 1.287 . S
C588 C589 1.524 . S
C588 H607 0.913 . S
C589 H565 0.950 . S
C589 C588 1.524 . S
C589 C590 1.415 . S
C590 H566 0.950 . S
C590 C585 1.363 . S
C590 C589 1.415 . S
C591 H567 0.951 . S
C591 C592 1.366 . S
C591 C593 1.388 . S
C592 C591 1.366 . S
C592 C596 1.385 . S
C593 H568 0.951 . S
C593 C591 1.388 . S
C593 C594 1.366 . S
C594 C593 1.366 . S
C594 C595 1.414 . S
C594 C597 1.499 . S
C595 H569 0.950 . S
C595 C594 1.414 . S
C595 C596 1.374 . S
C596 H570 0.950 . S
C596 C592 1.385 . S
C596 C595 1.374 . S
C597 C594 1.499 . S
C597 C598 1.373 . S
C597 C599 1.389 . S
C598 H571 0.950 . S
C598 C584 1.377 . S
C598 C597 1.373 . S
C599 C583 1.377 . S
C599 C597 1.389 . S
C599 C600 1.524 . S
C600 C599 1.524 . S
C600 C601 1.397 . S
C600 C605 1.363 . S
C601 H572 0.950 . S
C601 C600 1.397 . S
C601 C602 1.334 . S
C602 H573 0.950 . S
C602 C601 1.334 . S
C602 C603 1.287 . S
C603 C602 1.287 . S
C603 C604 1.524 . S
C603 H606 0.999 . S
C604 H574 0.950 . S
C604 C603 1.524 . S
C604 C605 1.415 . S
C605 H575 0.950 . S
C605 C600 1.363 . S
C605 C604 1.415 . S
H606 C603 0.999 . S
H607 C588 0.913 . S
H608 C626 0.951 . S
H609 C628 0.951 . S
H610 C630 0.950 . S
H611 C631 0.950 . S
H612 C633 0.950 . S
H613 C636 0.950 . S
H614 C637 0.950 . S
H615 C639 0.950 . S
H616 C640 0.950 . S
H617 C641 0.951 . S
H618 C643 0.951 . S
H619 C645 0.950 . S
H620 C646 0.950 . S
H621 C648 0.950 . S
H622 C651 0.950 . S
H623 C652 0.950 . S
H624 C654 0.950 . S
H625 C655 0.950 . S
C626 H608 0.951 . S
C626 C627 1.366 . S
C626 C628 1.388 . S
C627 C626 1.366 . S
C627 C631 1.385 . S
C628 H609 0.951 . S
C628 C626 1.388 . S
C628 C629 1.366 . S
C629 C628 1.366 . S
C629 C630 1.414 . S
C629 C632 1.499 . S
C630 H610 0.950 . S
C630 C629 1.414 . S
C630 C631 1.374 . S
C631 H611 0.950 . S
C631 C627 1.385 . S
C631 C630 1.374 . S
C632 C629 1.499 . S
C632 C633 1.373 . S
C632 C634 1.389 . S
C633 H612 0.950 . S
C633 C632 1.373 . S
C633 C649 1.377 . S
C634 C632 1.389 . S
C634 C635 1.524 . S
C634 C648 1.377 . S
C635 C634 1.524 . S
C635 C636 1.397 . S
C635 C640 1.363 . S
C636 H613 0.950 . S
C636 C635 1.397 . S
C636 C637 1.334 . S
C637 H614 0.950 . S
C637 C636 1.334 . S
C637 C638 1.287 . S
C638 C637 1.287 . S
C638 C639 1.524 . S
C638 H657 0.913 . S
C639 H615 0.950 . S
C639 C638 1.524 . S
C639 C640 1.415 . S
C640 H616 0.950 . S
C640 C635 1.363 . S
C640 C639 1.415 . S
C641 H617 0.951 . S
C641 C642 1.366 . S
C641 C643 1.388 . S
C642 C641 1.366 . S
C642 C646 1.385 . S
C643 H618 0.951 . S
C643 C641 1.388 . S
C643 C644 1.366 . S
C644 C643 1.366 . S
C644 C645 1.414 . S
C644 C647 1.499 . S
C645 H619 0.950 . S
C645 C644 1.414 . S
C645 C646 1.374 . S
C646 H620 0.950 . S
C646 C642 1.385 . S
C646 C645 1.374 . S
C647 C644 1.499 . S
C647 C648 1.373 . S
C647 C649 1.389 . S
C648 H621 0.950 . S
C648 C634 1.377 . S
C648 C647 1.373 . S
C649 C633 1.377 . S
C649 C647 1.389 . S
C649 C650 1.524 . S
C650 C649 1.524 . S
C650 C651 1.397 . S
C650 C655 1.363 . S
C651 H622 0.950 . S
C651 C650 1.397 . S
C651 C652 1.334 . S
C652 H623 0.950 . S
C652 C651 1.334 . S
C652 C653 1.287 . S
C653 C652 1.287 . S
C653 C654 1.524 . S
C653 H656 0.999 . S
C654 H624 0.950 . S
C654 C653 1.524 . S
C654 C655 1.415 . S
C655 H625 0.950 . S
C655 C650 1.363 . S
C655 C654 1.415 . S
H656 C653 0.999 . S
H657 C638 0.913 . S
H658 C676 0.951 . S
H659 C678 0.951 . S
H660 C680 0.950 . S
H661 C681 0.950 . S
H662 C683 0.950 . S
H663 C686 0.950 . S
H664 C687 0.950 . S
H665 C689 0.950 . S
H666 C690 0.950 . S
H667 C691 0.951 . S
H668 C693 0.951 . S
H669 C695 0.950 . S
H670 C696 0.950 . S
H671 C698 0.950 . S
H672 C701 0.950 . S
H673 C702 0.950 . S
H674 C704 0.950 . S
H675 C705 0.950 . S
C676 H658 0.951 . S
C676 C677 1.366 . S
C676 C678 1.388 . S
C677 C676 1.366 . S
C677 C681 1.385 . S
C678 H659 0.951 . S
C678 C676 1.388 . S
C678 C679 1.366 . S
C679 C678 1.366 . S
C679 C680 1.414 . S
C679 C682 1.499 . S
C680 H660 0.950 . S
C680 C679 1.414 . S
C680 C681 1.374 . S
C681 H661 0.950 . S
C681 C677 1.385 . S
C681 C680 1.374 . S
C682 C679 1.499 . S
C682 C683 1.373 . S
C682 C684 1.389 . S
C683 H662 0.950 . S
C683 C682 1.373 . S
C683 C699 1.377 . S
C684 C682 1.389 . S
C684 C685 1.524 . S
C684 C698 1.377 . S
C685 C684 1.524 . S
C685 C686 1.397 . S
C685 C690 1.363 . S
C686 H663 0.950 . S
C686 C685 1.397 . S
C686 C687 1.334 . S
C687 H664 0.950 . S
C687 C686 1.334 . S
C687 C688 1.287 . S
C688 C687 1.287 . S
C688 C689 1.524 . S
C688 H707 0.913 . S
C689 H665 0.950 . S
C689 C688 1.524 . S
C689 C690 1.415 . S
C690 H666 0.950 . S
C690 C685 1.363 . S
C690 C689 1.415 . S
C691 H667 0.951 . S
C691 C692 1.366 . S
C691 C693 1.388 . S
C692 C691 1.366 . S
C692 C696 1.385 . S
C693 H668 0.951 . S
C693 C691 1.388 . S
C693 C694 1.366 . S
C694 C693 1.366 . S
C694 C695 1.414 . S
C694 C697 1.499 . S
C695 H669 0.950 . S
C695 C694 1.414 . S
C695 C696 1.374 . S
C696 H670 0.950 . S
C696 C692 1.385 . S
C696 C695 1.374 . S
C697 C694 1.499 . S
C697 C698 1.373 . S
C697 C699 1.389 . S
C698 H671 0.950 . S
C698 C684 1.377 . S
C698 C697 1.373 . S
C699 C683 1.377 . S
C699 C697 1.389 . S
C699 C700 1.524 . S
C700 C699 1.524 . S
C700 C701 1.397 . S
C700 C705 1.363 . S
C701 H672 0.950 . S
C701 C700 1.397 . S
C701 C702 1.334 . S
C702 H673 0.950 . S
C702 C701 1.334 . S
C702 C703 1.287 . S
C703 C702 1.287 . S
C703 C704 1.524 . S
C703 H706 0.999 . S
C704 H674 0.950 . S
C704 C703 1.524 . S
C704 C705 1.415 . S
C705 H675 0.950 . S
C705 C700 1.363 . S
C705 C704 1.415 . S
H706 C703 0.999 . S
H707 C688 0.913 . S
H708 C726 0.951 . S
H709 C728 0.951 . S
H710 C730 0.950 . S
H711 C731 0.950 . S
H712 C733 0.950 . S
H713 C736 0.950 . S
H714 C737 0.950 . S
H715 C739 0.950 . S
H716 C740 0.950 . S
H717 C741 0.951 . S
H718 C743 0.951 . S
H719 C745 0.950 . S
H720 C746 0.950 . S
H721 C748 0.950 . S
H722 C751 0.950 . S
H723 C752 0.950 . S
H724 C754 0.950 . S
H725 C755 0.950 . S
C726 H708 0.951 . S
C726 C727 1.366 . S
C726 C728 1.388 . S
C727 C726 1.366 . S
C727 C731 1.385 . S
C728 H709 0.951 . S
C728 C726 1.388 . S
C728 C729 1.366 . S
C729 C728 1.366 . S
C729 C730 1.414 . S
C729 C732 1.499 . S
C730 H710 0.950 . S
C730 C729 1.414 . S
C730 C731 1.374 . S
C731 H711 0.950 . S
C731 C727 1.385 . S
C731 C730 1.374 . S
C732 C729 1.499 . S
C732 C733 1.373 . S
C732 C734 1.389 . S
C733 H712 0.950 . S
C733 C732 1.373 . S
C733 C749 1.377 . S
C734 C732 1.389 . S
C734 C735 1.524 . S
C734 C748 1.377 . S
C735 C734 1.524 . S
C735 C736 1.397 . S
C735 C740 1.363 . S
C736 H713 0.950 . S
C736 C735 1.397 . S
C736 C737 1.334 . S
C737 H714 0.950 . S
C737 C736 1.334 . S
C737 C738 1.287 . S
C738 C737 1.287 . S
C738 C739 1.524 . S
C738 H757 0.913 . S
C739 H715 0.950 . S
C739 C738 1.524 . S
C739 C740 1.415 . S
C740 H716 0.950 . S
C740 C735 1.363 . S
C740 C739 1.415 . S
C741 H717 0.951 . S
C741 C742 1.366 . S
C741 C743 1.388 . S
C742 C741 1.366 . S
C742 C746 1.385 . S
C743 H718 0.951 . S
C743 C741 1.388 . S
C743 C744 1.366 . S
C744 C743 1.366 . S
C744 C745 1.414 . S
C744 C747 1.499 . S
C745 H719 0.950 . S
C745 C744 1.414 . S
C745 C746 1.374 . S
C746 H720 0.950 . S
C746 C742 1.385 . S
C746 C745 1.374 . S
C747 C744 1.499 . S
C747 C748 1.373 . S
C747 C749 1.389 . S
C748 H721 0.950 . S
C748 C734 1.377 . S
C748 C747 1.373 . S
C749 C733 1.377 . S
C749 C747 1.389 . S
C749 C750 1.524 . S
C750 C749 1.524 . S
C750 C751 1.397 . S
C750 C755 1.363 . S
C751 H722 0.950 . S
C751 C750 1.397 . S
C751 C752 1.334 . S
C752 H723 0.950 . S
C752 C751 1.334 . S
C752 C753 1.287 . S
C753 C752 1.287 . S
C753 C754 1.524 . S
C753 H756 0.999 . S
C754 H724 0.950 . S
C754 C753 1.524 . S
C754 C755 1.415 . S
C755 H725 0.950 . S
C755 C750 1.363 . S
C755 C754 1.415 . S
H756 C753 0.999 . S
H757 C738 0.913 . S
H758 C776 0.951 . S
H759 C778 0.951 . S
H760 C780 0.950 . S
H761 C781 0.950 . S
H762 C783 0.950 . S
H763 C786 0.950 . S
H764 C787 0.950 . S
H765 C789 0.950 . S
H766 C790 0.950 . S
H767 C791 0.951 . S
H768 C793 0.951 . S
H769 C795 0.950 . S
H770 C796 0.950 . S
H771 C798 0.950 . S
H772 C801 0.950 . S
H773 C802 0.950 . S
H774 C804 0.950 . S
H775 C805 0.950 . S
C776 H758 0.951 . S
C776 C777 1.366 . S
C776 C778 1.388 . S
C777 C776 1.366 . S
C777 C781 1.385 . S
C778 H759 0.951 . S
C778 C776 1.388 . S
C778 C779 1.366 . S
C779 C778 1.366 . S
C779 C780 1.414 . S
C779 C782 1.499 . S
C780 H760 0.950 . S
C780 C779 1.414 . S
C780 C781 1.374 . S
C781 H761 0.950 . S
C781 C777 1.385 . S
C781 C780 1.374 . S
C782 C779 1.499 . S
C782 C783 1.373 . S
C782 C784 1.389 . S
C783 H762 0.950 . S
C783 C782 1.373 . S
C783 C799 1.377 . S
C784 C782 1.389 . S
C784 C785 1.524 . S
C784 C798 1.377 . S
C785 C784 1.524 . S
C785 C786 1.397 . S
C785 C790 1.363 . S
C786 H763 0.950 . S
C786 C785 1.397 . S
C786 C787 1.334 . S
C787 H764 0.950 . S
C787 C786 1.334 . S
C787 C788 1.287 . S
C788 C787 1.287 . S
C788 C789 1.524 . S
C788 H807 0.913 . S
C789 H765 0.950 . S
C789 C788 1.524 . S
C789 C790 1.415 . S
C790 H766 0.950 . S
C790 C785 1.363 . S
C790 C789 1.415 . S
C791 H767 0.951 . S
C791 C792 1.366 . S
C791 C793 1.388 . S
C792 C791 1.366 . S
C792 C796 1.385 . S
C793 H768 0.951 . S
C793 C791 1.388 . S
C793 C794 1.366 . S
C794 C793 1.366 . S
C794 C795 1.414 . S
C794 C797 1.499 . S
C795 H769 0.950 . S
C795 C794 1.414 . S
C795 C796 1.374 . S
C796 H770 0.950 . S
C796 C792 1.385 . S
C796 C795 1.374 . S
C797 C794 1.499 . S
C797 C798 1.373 . S
C797 C799 1.389 . S
C798 H771 0.950 . S
C798 C784 1.377 . S
C798 C797 1.373 . S
C799 C783 1.377 . S
C799 C797 1.389 . S
C799 C800 1.524 . S
C800 C799 1.524 . S
C800 C801 1.397 . S
C800 C805 1.363 . S
C801 H772 0.950 . S
C801 C800 1.397 . S
C801 C802 1.334 . S
C802 H773 0.950 . S
C802 C801 1.334 . S
C802 C803 1.287 . S
C803 C802 1.287 . S
C803 C804 1.524 . S
C803 H806 0.999 . S
C804 H774 0.950 . S
C804 C803 1.524 . S
C804 C805 1.415 . S
C805 H775 0.950 . S
C805 C800 1.363 . S
C805 C804 1.415 . S
H806 C803 0.999 . S
H807 C788 0.913 . S
H808 C826 0.951 . S
H809 C828 0.951 . S
H810 C830 0.950 . S
H811 C831 0.950 . S
H812 C833 0.950 . S
H813 C836 0.950 . S
H814 C837 0.950 . S
H815 C839 0.950 . S
H816 C840 0.950 . S
H817 C841 0.951 . S
H818 C843 0.951 . S
H819 C845 0.950 . S
H820 C846 0.950 . S
H821 C848 0.950 . S
H822 C851 0.950 . S
H823 C852 0.950 . S
H824 C854 0.950 . S
H825 C855 0.950 . S
C826 H808 0.951 . S
C826 C827 1.366 . S
C826 C828 1.388 . S
C827 C826 1.366 . S
C827 C831 1.385 . S
C828 H809 0.951 . S
C828 C826 1.388 . S
C828 C829 1.366 . S
C829 C828 1.366 . S
C829 C830 1.414 . S
C829 C832 1.499 . S
C830 H810 0.950 . S
C830 C829 1.414 . S
C830 C831 1.374 . S
C831 H811 0.950 . S
C831 C827 1.385 . S
C831 C830 1.374 . S
C832 C829 1.499 . S
C832 C833 1.373 . S
C832 C834 1.389 . S
C833 H812 0.950 . S
C833 C832 1.373 . S
C833 C849 1.377 . S
C834 C832 1.389 . S
C834 C835 1.524 . S
C834 C848 1.377 . S
C835 C834 1.524 . S
C835 C836 1.397 . S
C835 C840 1.363 . S
C836 H813 0.950 . S
C836 C835 1.397 . S
C836 C837 1.334 . S
C837 H814 0.950 . S
C837 C836 1.334 . S
C837 C838 1.287 . S
C838 C837 1.287 . S
C838 C839 1.524 . S
C838 H857 0.913 . S
C839 H815 0.950 . S
C839 C838 1.524 . S
C839 C840 1.415 . S
C840 H816 0.950 . S
C840 C835 1.363 . S
C840 C839 1.415 . S
C841 H817 0.951 . S
C841 C842 1.366 . S
C841 C843 1.388 . S
C842 C841 1.366 . S
C842 C846 1.385 . S
C843 H818 0.951 . S
C843 C841 1.388 . S
C843 C844 1.366 . S
C844 C843 1.366 . S
C844 C845 1.414 . S
C844 C847 1.499 . S
C845 H819 0.950 . S
C845 C844 1.414 . S
C845 C846 1.374 . S
C846 H820 0.950 . S
C846 C842 1.385 . S
C846 C845 1.374 . S
C847 C844 1.499 . S
C847 C848 1.373 . S
C847 C849 1.389 . S
C848 H821 0.950 . S
C848 C834 1.377 . S
C848 C847 1.373 . S
C849 C833 1.377 . S
C849 C847 1.389 . S
C849 C850 1.524 . S
C850 C849 1.524 . S
C850 C851 1.397 . S
C850 C855 1.363 . S
C851 H822 0.950 . S
C851 C850 1.397 . S
C851 C852 1.334 . S
C852 H823 0.950 . S
C852 C851 1.334 . S
C852 C853 1.287 . S
C853 C852 1.287 . S
C853 C854 1.524 . S
C853 H856 0.999 . S
C854 H824 0.950 . S
C854 C853 1.524 . S
C854 C855 1.415 . S
C855 H825 0.950 . S
C855 C850 1.363 . S
C855 C854 1.415 . S
H856 C853 0.999 . S
H857 C838 0.913 . S
H858 C876 0.951 . S
H859 C878 0.951 . S
H860 C880 0.950 . S
H861 C881 0.950 . S
H862 C883 0.950 . S
H863 C886 0.950 . S
H864 C887 0.950 . S
H865 C889 0.950 . S
H866 C890 0.950 . S
H867 C891 0.951 . S
H868 C893 0.951 . S
H869 C895 0.950 . S
H870 C896 0.950 . S
H871 C898 0.950 . S
H872 C901 0.950 . S
H873 C902 0.950 . S
H874 C904 0.950 . S
H875 C905 0.950 . S
C876 H858 0.951 . S
C876 C877 1.366 . S
C876 C878 1.388 . S
C877 C876 1.366 . S
C877 C881 1.385 . S
C878 H859 0.951 . S
C878 C876 1.388 . S
C878 C879 1.366 . S
C879 C878 1.366 . S
C879 C880 1.414 . S
C879 C882 1.499 . S
C880 H860 0.950 . S
C880 C879 1.414 . S
C880 C881 1.374 . S
C881 H861 0.950 . S
C881 C877 1.385 . S
C881 C880 1.374 . S
C882 C879 1.499 . S
C882 C883 1.373 . S
C882 C884 1.389 . S
C883 H862 0.950 . S
C883 C882 1.373 . S
C883 C899 1.377 . S
C884 C882 1.389 . S
C884 C885 1.524 . S
C884 C898 1.377 . S
C885 C884 1.524 . S
C885 C886 1.397 . S
C885 C890 1.363 . S
C886 H863 0.950 . S
C886 C885 1.397 . S
C886 C887 1.334 . S
C887 H864 0.950 . S
C887 C886 1.334 . S
C887 C888 1.287 . S
C888 C887 1.287 . S
C888 C889 1.524 . S
C888 H907 0.913 . S
C889 H865 0.950 . S
C889 C888 1.524 . S
C889 C890 1.415 . S
C890 H866 0.950 . S
C890 C885 1.363 . S
C890 C889 1.415 . S
C891 H867 0.951 . S
C891 C892 1.366 . S
C891 C893 1.388 . S
C892 C891 1.366 . S
C892 C896 1.385 . S
C893 H868 0.951 . S
C893 C891 1.388 . S
C893 C894 1.366 . S
C894 C893 1.366 . S
C894 C895 1.414 . S
C894 C897 1.499 . S
C895 H869 0.950 . S
C895 C894 1.414 . S
C895 C896 1.374 . S
C896 H870 0.950 . S
C896 C892 1.385 . S
C896 C895 1.374 . S
C897 C894 1.499 . S
C897 C898 1.373 . S
C897 C899 1.389 . S
C898 H871 0.950 . S
C898 C884 1.377 . S
C898 C897 1.373 . S
C899 C883 1.377 . S
C899 C897 1.389 . S
C899 C900 1.524 . S
C900 C899 1.524 . S
C900 C901 1.397 . S
C900 C905 1.363 . S
C901 H872 0.950 . S
C901 C900 1.397 . S
C901 C902 1.334 . S
C902 H873 0.950 . S
C902 C901 1.334 . S
C902 C903 1.287 . S
C903 C902 1.287 . S
C903 C904 1.524 . S
C903 H906 0.999 . S
C904 H874 0.950 . S
C904 C903 1.524 . S
C904 C905 1.415 . S
C905 H875 0.950 . S
C905 C900 1.363 . S
C905 C904 1.415 . S
H906 C903 0.999 . S
H907 C888 0.913 . S
H908 C926 0.951 . S
H909 C928 0.951 . S
H910 C930 0.950 . S
H911 C931 0.950 . S
H912 C933 0.950 . S
H913 C936 0.950 . S
H914 C937 0.950 . S
H915 C939 0.950 . S
H916 C940 0.950 . S
H917 C941 0.951 . S
H918 C943 0.951 . S
H919 C945 0.950 . S
H920 C946 0.950 . S
H921 C948 0.950 . S
H922 C951 0.950 . S
H923 C952 0.950 . S
H924 C954 0.950 . S
H925 C955 0.950 . S
C926 H908 0.951 . S
C926 C927 1.366 . S
C926 C928 1.388 . S
C927 C926 1.366 . S
C927 C931 1.385 . S
C928 H909 0.951 . S
C928 C926 1.388 . S
C928 C929 1.366 . S
C929 C928 1.366 . S
C929 C930 1.414 . S
C929 C932 1.499 . S
C930 H910 0.950 . S
C930 C929 1.414 . S
C930 C931 1.374 . S
C931 H911 0.950 . S
C931 C927 1.385 . S
C931 C930 1.374 . S
C932 C929 1.499 . S
C932 C933 1.373 . S
C932 C934 1.389 . S
C933 H912 0.950 . S
C933 C932 1.373 . S
C933 C949 1.377 . S
C934 C932 1.389 . S
C934 C935 1.524 . S
C934 C948 1.377 . S
C935 C934 1.524 . S
C935 C936 1.397 . S
C935 C940 1.363 . S
C936 H913 0.950 . S
C936 C935 1.397 . S
C936 C937 1.334 . S
C937 H914 0.950 . S
C937 C936 1.334 . S
C937 C938 1.287 . S
C938 C937 1.287 . S
C938 C939 1.524 . S
C938 H957 0.913 . S
C939 H915 0.950 . S
C939 C938 1.524 . S
C939 C940 1.415 . S
C940 H916 0.950 . S
C940 C935 1.363 . S
C940 C939 1.415 . S
C941 H917 0.951 . S
C941 C942 1.366 . S
C941 C943 1.388 . S
C942 C941 1.366 . S
C942 C946 1.385 . S
C943 H918 0.951 . S
C943 C941 1.388 . S
C943 C944 1.366 . S
C944 C943 1.366 . S
C944 C945 1.414 . S
C944 C947 1.499 . S
C945 H919 0.950 . S
C945 C944 1.414 . S
C945 C946 1.374 . S
C946 H920 0.950 . S
C946 C942 1.385 . S
C946 C945 1.374 . S
C947 C944 1.499 . S
C947 C948 1.373 . S
C947 C949 1.389 . S
C948 H921 0.950 . S
C948 C934 1.377 . S
C948 C947 1.373 . S
C949 C933 1.377 . S
C949 C947 1.389 . S
C949 C950 1.524 . S
C950 C949 1.524 . S
C950 C951 1.397 . S
C950 C955 1.363 . S
C951 H922 0.950 . S
C951 C950 1.397 . S
C951 C952 1.334 . S
C952 H923 0.950 . S
C952 C951 1.334 . S
C952 C953 1.287 . S
C953 C952 1.287 . S
C953 C954 1.524 . S
C953 H956 0.999 . S
C954 H924 0.950 . S
C954 C953 1.524 . S
C954 C955 1.415 . S
C955 H925 0.950 . S
C955 C950 1.363 . S
C955 C954 1.415 . S
H956 C953 0.999 . S
H957 C938 0.913 . S
H958 C976 0.951 . S
H959 C978 0.951 . S
H960 C980 0.950 . S
H961 C981 0.950 . S
H962 C983 0.950 . S
H963 C986 0.950 . S
H964 C987 0.950 . S
H965 C989 0.950 . S
H966 C990 0.950 . S
H967 C991 0.951 . S
H968 C993 0.951 . S
H969 C995 0.950 . S
H970 C996 0.950 . S
H971 C998 0.950 . S
H972 C1001 0.950 . S
H973 C1002 0.950 . S
H974 C1004 0.950 . S
H975 C1005 0.950 . S
C976 H958 0.951 . S
C976 C977 1.366 . S
C976 C978 1.388 . S
C977 C976 1.366 . S
C977 C981 1.385 . S
C978 H959 0.951 . S
C978 C976 1.388 . S
C978 C979 1.366 . S
C979 C978 1.366 . S
C979 C980 1.414 . S
C979 C982 1.499 . S
C980 H960 0.950 . S
C980 C979 1.414 . S
C980 C981 1.374 . S
C981 H961 0.950 . S
C981 C977 1.385 . S
C981 C980 1.374 . S
C982 C979 1.499 . S
C982 C983 1.373 . S
C982 C984 1.389 . S
C983 H962 0.950 . S
C983 C982 1.373 . S
C983 C999 1.377 . S
C984 C982 1.389 . S
C984 C985 1.524 . S
C984 C998 1.377 . S
C985 C984 1.524 . S
C985 C986 1.397 . S
C985 C990 1.363 . S
C986 H963 0.950 . S
C986 C985 1.397 . S
C986 C987 1.334 . S
C987 H964 0.950 . S
C987 C986 1.334 . S
C987 C988 1.287 . S
C988 C987 1.287 . S
C988 C989 1.524 . S
C988 H1007 0.913 . S
C989 H965 0.950 . S
C989 C988 1.524 . S
C989 C990 1.415 . S
C990 H966 0.950 . S
C990 C985 1.363 . S
C990 C989 1.415 . S
C991 H967 0.951 . S
C991 C992 1.366 . S
C991 C993 1.388 . S
C992 C991 1.366 . S
C992 C996 1.385 . S
C993 H968 0.951 . S
C993 C991 1.388 . S
C993 C994 1.366 . S
C994 C993 1.366 . S
C994 C995 1.414 . S
C994 C997 1.499 . S
C995 H969 0.950 . S
C995 C994 1.414 . S
C995 C996 1.374 . S
C996 H970 0.950 . S
C996 C992 1.385 . S
C996 C995 1.374 . S
C997 C994 1.499 . S
C997 C998 1.373 . S
C997 C999 1.389 . S
C998 H971 0.950 . S
C998 C984 1.377 . S
C998 C997 1.373 . S
C999 C983 1.377 . S
C999 C997 1.389 . S
C999 C1000 1.524 . S
C1000 C999 1.524 . S
C1000 C1001 1.397 . S
C1000 C1005 1.363 . S
C1001 H972 0.950 . S
C1001 C1000 1.397 . S
C1001 C1002 1.334 . S
C1002 H973 0.950 . S
C1002 C1001 1.334 . S
C1002 C1003 1.287 . S
C1003 C1002 1.287 . S
C1003 C1004 1.524 . S
C1003 H1006 0.999 . S
C1004 H974 0.950 . S
C1004 C1003 1.524 . S
C1004 C1005 1.415 . S
C1005 H975 0.950 . S
C1005 C1000 1.363 . S
C1005 C1004 1.415 . S
H1006 C1003 0.999 . S
H1007 C988 0.913 . S
H1008 C1026 0.951 . S
H1009 C1028 0.951 . S
H1010 C1030 0.950 . S
H1011 C1031 0.950 . S
H1012 C1033 0.950 . S
H1013 C1036 0.950 . S
H1014 C1037 0.950 . S
H1015 C1039 0.950 . S
H1016 C1040 0.950 . S
H1017 C1041 0.951 . S
H1018 C1043 0.951 . S
H1019 C1045 0.950 . S
H1020 C1046 0.950 . S
H1021 C1048 0.950 . S
H1022 C1051 0.950 . S
H1023 C1052 0.950 . S
H1024 C1054 0.950 . S
H1025 C1055 0.950 . S
C1026 H1008 0.951 . S
C1026 C1027 1.366 . S
C1026 C1028 1.388 . S
C1027 C1026 1.366 . S
C1027 C1031 1.385 . S
C1028 H1009 0.951 . S
C1028 C1026 1.388 . S
C1028 C1029 1.366 . S
C1029 C1028 1.366 . S
C1029 C1030 1.414 . S
C1029 C1032 1.499 . S
C1030 H1010 0.950 . S
C1030 C1029 1.414 . S
C1030 C1031 1.374 . S
C1031 H1011 0.950 . S
C1031 C1027 1.385 . S
C1031 C1030 1.374 . S
C1032 C1029 1.499 . S
C1032 C1033 1.373 . S
C1032 C1034 1.389 . S
C1033 H1012 0.950 . S
C1033 C1032 1.373 . S
C1033 C1049 1.377 . S
C1034 C1032 1.389 . S
C1034 C1035 1.524 . S
C1034 C1048 1.377 . S
C1035 C1034 1.524 . S
C1035 C1036 1.397 . S
C1035 C1040 1.363 . S
C1036 H1013 0.950 . S
C1036 C1035 1.397 . S
C1036 C1037 1.334 . S
C1037 H1014 0.950 . S
C1037 C1036 1.334 . S
C1037 C1038 1.287 . S
C1038 C1037 1.287 . S
C1038 C1039 1.524 . S
C1038 H1057 0.913 . S
C1039 H1015 0.950 . S
C1039 C1038 1.524 . S
C1039 C1040 1.415 . S
C1040 H1016 0.950 . S
C1040 C1035 1.363 . S
C1040 C1039 1.415 . S
C1041 H1017 0.951 . S
C1041 C1042 1.366 . S
C1041 C1043 1.388 . S
C1042 C1041 1.366 . S
C1042 C1046 1.385 . S
C1043 H1018 0.951 . S
C1043 C1041 1.388 . S
C1043 C1044 1.366 . S
C1044 C1043 1.366 . S
C1044 C1045 1.414 . S
C1044 C1047 1.499 . S
C1045 H1019 0.950 . S
C1045 C1044 1.414 . S
C1045 C1046 1.374 . S
C1046 H1020 0.950 . S
C1046 C1042 1.385 . S
C1046 C1045 1.374 . S
C1047 C1044 1.499 . S
C1047 C1048 1.373 . S
C1047 C1049 1.389 . S
C1048 H1021 0.950 . S
C1048 C1034 1.377 . S
C1048 C1047 1.373 . S
C1049 C1033 1.377 . S
C1049 C1047 1.389 . S
C1049 C1050 1.524 . S
C1050 C1049 1.524 . S
C1050 C1051 1.397 . S
C1050 C1055 1.363 . S
C1051 H1022 0.950 . S
C1051 C1050 1.397 . S
C1051 C1052 1.334 . S
C1052 H1023 0.950 . S
C1052 C1051 1.334 . S
C1052 C1053 1.287 . S
C1053 C1052 1.287 . S
C1053 C1054 1.524 . S
C1053 H1056 0.999 . S
C1054 H1024 0.950 . S
C1054 C1053 1.524 . S
C1054 C1055 1.415 . S
C1055 H1025 0.950 . S
C1055 C1050 1.363 . S
C1055 C1054 1.415 . S
H1056 C1053 0.999 . S
H1057 C1038 0.913 . S
H1058 C1076 0.951 . S
H1059 C1078 0.951 . S
H1060 C1080 0.950 . S
H1061 C1081 0.950 . S
H1062 C1083 0.950 . S
H1063 C1086 0.950 . S
H1064 C1087 0.950 . S
H1065 C1089 0.950 . S
H1066 C1090 0.950 . S
H1067 C1091 0.951 . S
H1068 C1093 0.951 . S
H1069 C1095 0.950 . S
H1070 C1096 0.950 . S
H1071 C1098 0.950 . S
H1072 C1101 0.950 . S
H1073 C1102 0.950 . S
H1074 C1104 0.950 . S
H1075 C1105 0.950 . S
C1076 H1058 0.951 . S
C1076 C1077 1.366 . S
C1076 C1078 1.388 . S
C1077 C1076 1.366 . S
C1077 C1081 1.385 . S
C1078 H1059 0.951 . S
C1078 C1076 1.388 . S
C1078 C1079 1.366 . S
C1079 C1078 1.366 . S
C1079 C1080 1.414 . S
C1079 C1082 1.499 . S
C1080 H1060 0.950 . S
C1080 C1079 1.414 . S
C1080 C1081 1.374 . S
C1081 H1061 0.950 . S
C1081 C1077 1.385 . S
C1081 C1080 1.374 . S
C1082 C1079 1.499 . S
C1082 C1083 1.373 . S
C1082 C1084 1.389 . S
C1083 H1062 0.950 . S
C1083 C1082 1.373 . S
C1083 C1099 1.377 . S
C1084 C1082 1.389 . S
C1084 C1085 1.524 . S
C1084 C1098 1.377 . S
C1085 C1084 1.524 . S
C1085 C1086 1.397 . S
C1085 C1090 1.363 . S
C1086 H1063 0.950 . S
C1086 C1085 1.397 . S
C1086 C1087 1.334 . S
C1087 H1064 0.950 . S
C1087 C1086 1.334 . S
C1087 C1088 1.287 . S
C1088 C1087 1.287 . S
C1088 C1089 1.524 . S
C1088 H1107 0.913 . S
C1089 H1065 0.950 . S
C1089 C1088 1.524 . S
C1089 C1090 1.415 . S
C1090 H1066 0.950 . S
C1090 C1085 1.363 . S
C1090 C1089 1.415 . S
C1091 H1067 0.951 . S
C1091 C1092 1.366 . S
C1091 C1093 1.388 . S
C1092 C1091 1.366 . S
C1092 C1096 1.385 . S
C1093 H1068 0.951 . S
C1093 C1091 1.388 . S
C1093 C1094 1.366 . S
C1094 C1093 1.366 . S
C1094 C1095 1.414 . S
C1094 C1097 1.499 . S
C1095 H1069 0.950 . S
C1095 C1094 1.414 . S
C1095 C1096 1.374 . S
C1096 H1070 0.950 . S
C1096 C1092 1.385 . S
C1096 C1095 1.374 . S
C1097 C1094 1.499 . S
C1097 C1098 1.373 . S
C1097 C1099 1.389 . S
C1098 H1071 0.950 . S
C1098 C1084 1.377 . S
C1098 C1097 1.373 . S
C1099 C1083 1.377 . S
C1099 C1097 1.389 . S
C1099 C1100 1.524 . S
C1100 C1099 1.524 . S
C1100 C1101 1.397 . S
C1100 C1105 1.363 . S
C1101 H1072 0.950 . S
C1101 C1100 1.397 . S
C1101 C1102 1.334 . S
C1102 H1073 0.950 . S
C1102 C1101 1.334 . S
C1102 C1103 1.287 . S
C1103 C1102 1.287 . S
C1103 C1104 1.524 . S
C1103 H1106 0.999 . S
C1104 H1074 0.950 . S
C1104 C1103 1.524 . S
C1104 C1105 1.415 . S
C1105 H1075 0.950 . S
C1105 C1100 1.363 . S
C1105 C1104 1.415 . S
H1106 C1103 0.999 . S
H1107 C1088 0.913 . S
H1108 C1126 0.951 . S
H1109 C1128 0.951 . S
H1110 C1130 0.950 . S
H1111 C1131 0.950 . S
H1112 C1133 0.950 . S
H1113 C1136 0.950 . S
H1114 C1137 0.950 . S
H1115 C1139 0.950 . S
H1116 C1140 0.950 . S
H1117 C1141 0.951 . S
H1118 C1143 0.951 . S
H1119 C1145 0.950 . S
H1120 C1146 0.950 . S
H1121 C1148 0.950 . S
H1122 C1151 0.950 . S
H1123 C1152 0.950 . S
H1124 C1154 0.950 . S
H1125 C1155 0.950 . S
C1126 H1108 0.951 . S
C1126 C1127 1.366 . S
C1126 C1128 1.388 . S
C1127 C1126 1.366 . S
C1127 C1131 1.385 . S
C1128 H1109 0.951 . S
C1128 C1126 1.388 . S
C1128 C1129 1.366 . S
C1129 C1128 1.366 . S
C1129 C1130 1.414 . S
C1129 C1132 1.499 . S
C1130 H1110 0.950 . S
C1130 C1129 1.414 . S
C1130 C1131 1.374 . S
C1131 H1111 0.950 . S
C1131 C1127 1.385 . S
C1131 C1130 1.374 . S
C1132 C1129 1.499 . S
C1132 C1133 1.373 . S
C1132 C1134 1.389 . S
C1133 H1112 0.950 . S
C1133 C1132 1.373 . S
C1133 C1149 1.377 . S
C1134 C1132 1.389 . S
C1134 C1135 1.524 . S
C1134 C1148 1.377 . S
C1135 C1134 1.524 . S
C1135 C1136 1.397 . S
C1135 C1140 1.363 . S
C1136 H1113 0.950 . S
C1136 C1135 1.397 . S
C1136 C1137 1.334 . S
C1137 H1114 0.950 . S
C1137 C1136 1.334 . S
C1137 C1138 1.287 . S
C1138 C1137 1.287 . S
C1138 C1139 1.524 . S
C1138 H1157 0.913 . S
C1139 H1115 0.950 . S
C1139 C1138 1.524 . S
C1139 C1140 1.415 . S
C1140 H1116 0.950 . S
C1140 C1135 1.363 . S
C1140 C1139 1.415 . S
C1141 H1117 0.951 . S
C1141 C1142 1.366 . S
C1141 C1143 1.388 . S
C1142 C1141 1.366 . S
C1142 C1146 1.385 . S
C1143 H1118 0.951 . S
C1143 C1141 1.388 . S
C1143 C1144 1.366 . S
C1144 C1143 1.366 . S
C1144 C1145 1.414 . S
C1144 C1147 1.499 . S
C1145 H1119 0.950 . S
C1145 C1144 1.414 . S
C1145 C1146 1.374 . S
C1146 H1120 0.950 . S
C1146 C1142 1.385 . S
C1146 C1145 1.374 . S
C1147 C1144 1.499 . S
C1147 C1148 1.373 . S
C1147 C1149 1.389 . S
C1148 H1121 0.950 . S
C1148 C1134 1.377 . S
C1148 C1147 1.373 . S
C1149 C1133 1.377 . S
C1149 C1147 1.389 . S
C1149 C1150 1.524 . S
C1150 C1149 1.524 . S
C1150 C1151 1.397 . S
C1150 C1155 1.363 . S
C1151 H1122 0.950 . S
C1151 C1150 1.397 . S
C1151 C1152 1.334 . S
C1152 H1123 0.950 . S
C1152 C1151 1.334 . S
C1152 C1153 1.287 . S
C1153 C1152 1.287 . S
C1153 C1154 1.524 . S
C1153 H1156 0.999 . S
C1154 H1124 0.950 . S
C1154 C1153 1.524 . S
C1154 C1155 1.415 . S
C1155 H1125 0.950 . S
C1155 C1150 1.363 . S
C1155 C1154 1.415 . S
H1156 C1153 0.999 . S
H1157 C1138 0.913 . S
H1158 C1176 0.951 . S
H1159 C1178 0.951 . S
H1160 C1180 0.950 . S
H1161 C1181 0.950 . S
H1162 C1183 0.950 . S
H1163 C1186 0.950 . S
H1164 C1187 0.950 . S
H1165 C1189 0.950 . S
H1166 C1190 0.950 . S
H1167 C1191 0.951 . S
H1168 C1193 0.951 . S
H1169 C1195 0.950 . S
H1170 C1196 0.950 . S
H1171 C1198 0.950 . S
H1172 C1201 0.950 . S
H1173 C1202 0.950 . S
H1174 C1204 0.950 . S
H1175 C1205 0.950 . S
C1176 H1158 0.951 . S
C1176 C1177 1.366 . S
C1176 C1178 1.388 . S
C1177 C1176 1.366 . S
C1177 C1181 1.385 . S
C1178 H1159 0.951 . S
C1178 C1176 1.388 . S
C1178 C1179 1.366 . S
C1179 C1178 1.366 . S
C1179 C1180 1.414 . S
C1179 C1182 1.499 . S
C1180 H1160 0.950 . S
C1180 C1179 1.414 . S
C1180 C1181 1.374 . S
C1181 H1161 0.950 . S
C1181 C1177 1.385 . S
C1181 C1180 1.374 . S
C1182 C1179 1.499 . S
C1182 C1183 1.373 . S
C1182 C1184 1.389 . S
C1183 H1162 0.950 . S
C1183 C1182 1.373 . S
C1183 C1199 1.377 . S
C1184 C1182 1.389 . S
C1184 C1185 1.524 . S
C1184 C1198 1.377 . S
C1185 C1184 1.524 . S
C1185 C1186 1.397 . S
C1185 C1190 1.363 . S
C1186 H1163 0.950 . S
C1186 C1185 1.397 . S
C1186 C1187 1.334 . S
C1187 H1164 0.950 . S
C1187 C1186 1.334 . S
C1187 C1188 1.287 . S
C1188 C1187 1.287 . S
C1188 C1189 1.524 . S
C1188 H1207 0.913 . S
C1189 H1165 0.950 . S
C1189 C1188 1.524 . S
C1189 C1190 1.415 . S
C1190 H1166 0.950 . S
C1190 C1185 1.363 . S
C1190 C1189 1.415 . S
C1191 H1167 0.951 . S
C1191 C1192 1.366 . S
C1191 C1193 1.388 . S
C1192 C1191 1.366 . S
C1192 C1196 1.385 . S
C1193 H1168 0.951 . S
C1193 C1191 1.388 . S
C1193 C1194 1.366 . S
C1194 C1193 1.366 . S
C1194 C1195 1.414 . S
C1194 C1197 1.499 . S
C1195 H1169 0.950 . S
C1195 C1194 1.414 . S
C1195 C1196 1.374 . S
C1196 H1170 0.950 . S
C1196 C1192 1.385 . S
C1196 C1195 1.374 . S
C1197 C1194 1.499 . S
C1197 C1198 1.373 . S
C1197 C1199 1.389 . S
C1198 H1171 0.950 . S
C1198 C1184 1.377 . S
C1198 C1197 1.373 . S
C1199 C1183 1.377 . S
C1199 C1197 1.389 . S
C1199 C1200 1.524 . S
C1200 C1199 1.524 . S
C1200 C1201 1.397 . S
C1200 C1205 1.363 . S
C1201 H1172 0.950 . S
C1201 C1200 1.397 . S
C1201 C1202 1.334 . S
C1202 H1173 0.950 . S
C1202 C1201 1.334 . S
C1202 C1203 1.287 . S
C1203 C1202 1.287 . S
C1203 C1204 1.524 . S
C1203 H1206 0.999 . S
C1204 H1174 0.950 . S
C1204 C1203 1.524 . S
C1204 C1205 1.415 . S
C1205 H1175 0.950 . S
C1205 C1200 1.363 . S
C1205 C1204 1.415 . S
H1206 C1203 0.999 . S
H1207 C1188 0.913 . S
H1208 C1226 0.951 . S
H1209 C1228 0.951 . S
H1210 C1230 0.950 . S
H1211 C1231 0.950 . S
H1212 C1233 0.950 . S
H1213 C1236 0.950 . S
H1214 C1237 0.950 . S
H1215 C1239 0.950 . S
H1216 C1240 0.950 . S
H1217 C1241 0.951 . S
H1218 C1243 0.951 . S
H1219 C1245 0.950 . S
H1220 C1246 0.950 . S
H1221 C1248 0.950 . S
H1222 C1251 0.950 . S
H1223 C1252 0.950 . S
H1224 C1254 0.950 . S
H1225 C1255 0.950 . S
C1226 H1208 0.951 . S
C1226 C1227 1.366 . S
C1226 C1228 1.388 . S
C1227 C1226 1.366 . S
C1227 C1231 1.385 . S
C1228 H1209 0.951 . S
C1228 C1226 1.388 . S
C1228 C1229 1.366 . S
C1229 C1228 1.366 . S
C1229 C1230 1.414 . S
C1229 C1232 1.499 . S
C1230 H1210 0.950 . S
C1230 C1229 1.414 . S
C1230 C1231 1.374 . S
C1231 H1211 0.950 . S
C1231 C1227 1.385 . S
C1231 C1230 1.374 . S
C1232 C1229 1.499 . S
C1232 C1233 1.373 . S
C1232 C1234 1.389 . S
C1233 H1212 0.950 . S
C1233 C1232 1.373 . S
C1233 C1249 1.377 . S
C1234 C1232 1.389 . S
C1234 C1235 1.524 . S
C1234 C1248 1.377 . S
C1235 C1234 1.524 . S
C1235 C1236 1.397 . S
C1235 C1240 1.363 . S
C1236 H1213 0.950 . S
C1236 C1235 1.397 . S
C1236 C1237 1.334 . S
C1237 H1214 0.950 . S
C1237 C1236 1.334 . S
C1237 C1238 1.287 . S
C1238 C1237 1.287 . S
C1238 C1239 1.524 . S
C1238 H1257 0.913 . S
C1239 H1215 0.950 . S
C1239 C1238 1.524 . S
C1239 C1240 1.415 . S
C1240 H1216 0.950 . S
C1240 C1235 1.363 . S
C1240 C1239 1.415 . S
C1241 H1217 0.951 . S
C1241 C1242 1.366 . S
C1241 C1243 1.388 . S
C1242 C1241 1.366 . S
C1242 C1246 1.385 . S
C1243 H1218 0.951 . S
C1243 C1241 1.388 . S
C1243 C1244 1.366 . S
C1244 C1243 1.366 . S
C1244 C1245 1.414 . S
C1244 C1247 1.499 . S
C1245 H1219 0.950 . S
C1245 C1244 1.414 . S
C1245 C1246 1.374 . S
C1246 H1220 0.950 . S
C1246 C1242 1.385 . S
C1246 C1245 1.374 . S
C1247 C1244 1.499 . S
C1247 C1248 1.373 . S
C1247 C1249 1.389 . S
C1248 H1221 0.950 . S
C1248 C1234 1.377 . S
C1248 C1247 1.373 . S
C1249 C1233 1.377 . S
C1249 C1247 1.389 . S
C1249 C1250 1.524 . S
C1250 C1249 1.524 . S
C1250 C1251 1.397 . S
C1250 C1255 1.363 . S
C1251 H1222 0.950 . S
C1251 C1250 1.397 . S
C1251 C1252 1.334 . S
C1252 H1223 0.950 . S
C1252 C1251 1.334 . S
C1252 C1253 1.287 . S
C1253 C1252 1.287 . S
C1253 C1254 1.524 . S
C1253 H1256 0.999 . S
C1254 H1224 0.950 . S
C1254 C1253 1.524 . S
C1254 C1255 1.415 . S
C1255 H1225 0.950 . S
C1255 C1250 1.363 . S
C1255 C1254 1.415 . S
H1256 C1253 0.999 . S
H1257 C1238 0.913 . S
H1258 C1276 0.951 . S
H1259 C1278 0.951 . S
H1260 C1280 0.950 . S
H1261 C1281 0.950 . S
H1262 C1283 0.950 . S
H1263 C1286 0.950 . S
H1264 C1287 0.950 . S
H1265 C1289 0.950 . S
H1266 C1290 0.950 . S
H1267 C1291 0.951 . S
H1268 C1293 0.951 . S
H1269 C1295 0.950 . S
H1270 C1296 0.950 . S
H1271 C1298 0.950 . S
H1272 C1301 0.950 . S
H1273 C1302 0.950 . S
H1274 C1304 0.950 . S
H1275 C1305 0.950 . S
C1276 H1258 0.951 . S
C1276 C1277 1.366 . S
C1276 C1278 1.388 . S
C1277 C1276 1.366 . S
C1277 C1281 1.385 . S
C1278 H1259 0.951 . S
C1278 C1276 1.388 . S
C1278 C1279 1.366 . S
C1279 C1278 1.366 . S
C1279 C1280 1.414 . S
C1279 C1282 1.499 . S
C1280 H1260 0.950 . S
C1280 C1279 1.414 . S
C1280 C1281 1.374 . S
C1281 H1261 0.950 . S
C1281 C1277 1.385 . S
C1281 C1280 1.374 . S
C1282 C1279 1.499 . S
C1282 C1283 1.373 . S
C1282 C1284 1.389 . S
C1283 H1262 0.950 . S
C1283 C1282 1.373 . S
C1283 C1299 1.377 . S
C1284 C1282 1.389 . S
C1284 C1285 1.524 . S
C1284 C1298 1.377 . S
C1285 C1284 1.524 . S
C1285 C1286 1.397 . S
C1285 C1290 1.363 . S
C1286 H1263 0.950 . S
C1286 C1285 1.397 . S
C1286 C1287 1.334 . S
C1287 H1264 0.950 . S
C1287 C1286 1.334 . S
C1287 C1288 1.287 . S
C1288 C1287 1.287 . S
C1288 C1289 1.524 . S
C1288 H1307 0.913 . S
C1289 H1265 0.950 . S
C1289 C1288 1.524 . S
C1289 C1290 1.415 . S
C1290 H1266 0.950 . S
C1290 C1285 1.363 . S
C1290 C1289 1.415 . S
C1291 H1267 0.951 . S
C1291 C1292 1.366 . S
C1291 C1293 1.388 . S
C1292 C1291 1.366 . S
C1292 C1296 1.385 . S
C1293 H1268 0.951 . S
C1293 C1291 1.388 . S
C1293 C1294 1.366 . S
C1294 C1293 1.366 . S
C1294 C1295 1.414 . S
C1294 C1297 1.499 . S
C1295 H1269 0.950 . S
C1295 C1294 1.414 . S
C1295 C1296 1.374 . S
C1296 H1270 0.950 . S
C1296 C1292 1.385 . S
C1296 C1295 1.374 . S
C1297 C1294 1.499 . S
C1297 C1298 1.373 . S
C1297 C1299 1.389 . S
C1298 H1271 0.950 . S
C1298 C1284 1.377 . S
C1298 C1297 1.373 . S
C1299 C1283 1.377 . S
C1299 C1297 1.389 . S
C1299 C1300 1.524 . S
C1300 C1299 1.524 . S
C1300 C1301 1.397 . S
C1300 C1305 1.363 . S
C1301 H1272 0.950 . S
C1301 C1300 1.397 . S
C1301 C1302 1.334 . S
C1302 H1273 0.950 . S
C1302 C1301 1.334 . S
C1302 C1303 1.287 . S
C1303 C1302 1.287 . S
C1303 C1304 1.524 . S
C1303 H1306 0.999 . S
C1304 H1274 0.950 . S
C1304 C1303 1.524 . S
C1304 C1305 1.415 . S
C1305 H1275 0.950 . S
C1305 C1300 1.363 . S
C1305 C1304 1.415 . S
H1306 C1303 0.999 . S
H1307 C1288 0.913 . S
H1308 C1326 0.951 . S
H1309 C1328 0.951 . S
H1310 C1330 0.950 . S
H1311 C1331 0.950 . S
H1312 C1333 0.950 . S
H1313 C1336 0.950 . S
H1314 C1337 0.950 . S
H1315 C1339 0.950 . S
H1316 C1340 0.950 . S
H1317 C1341 0.951 . S
H1318 C1343 0.951 . S
H1319 C1345 0.950 . S
H1320 C1346 0.950 . S
H1321 C1348 0.950 . S
H1322 C1351 0.950 . S
H1323 C1352 0.950 . S
H1324 C1354 0.950 . S
H1325 C1355 0.950 . S
C1326 H1308 0.951 . S
C1326 C1327 1.366 . S
C1326 C1328 1.388 . S
C1327 C1326 1.366 . S
C1327 C1331 1.385 . S
C1328 H1309 0.951 . S
C1328 C1326 1.388 . S
C1328 C1329 1.366 . S
C1329 C1328 1.366 . S
C1329 C1330 1.414 . S
C1329 C1332 1.499 . S
C1330 H1310 0.950 . S
C1330 C1329 1.414 . S
C1330 C1331 1.374 . S
C1331 H1311 0.950 . S
C1331 C1327 1.385 . S
C1331 C1330 1.374 . S
C1332 C1329 1.499 . S
C1332 C1333 1.373 1_556 S
C1332 C1334 1.389 1_565 S
C1333 H1312 0.950 . S
C1333 C1332 1.373 1_554 S
C1333 C1349 1.377 . S
C1334 C1332 1.389 1_545 S
C1334 C1335 1.524 . S
C1334 C1348 1.377 . S
C1335 C1334 1.524 . S
C1335 C1336 1.397 1_545 S
C1335 C1340 1.363 . S
C1336 H1313 0.950 . S
C1336 C1335 1.397 1_565 S
C1336 C1337 1.334 . S
C1337 H1314 0.950 . S
C1337 C1336 1.334 . S
C1337 C1338 1.287 1_565 S
C1338 C1337 1.287 1_545 S
C1338 C1339 1.524 . S
C1338 H1357 0.913 . S
C1339 H1315 0.950 . S
C1339 C1338 1.524 . S
C1339 C1340 1.415 . S
C1340 H1316 0.950 . S
C1340 C1335 1.363 . S
C1340 C1339 1.415 . S
C1341 H1317 0.951 . S
C1341 C1342 1.366 . S
C1341 C1343 1.388 . S
C1342 C1341 1.366 . S
C1342 C1346 1.385 . S
C1343 H1318 0.951 . S
C1343 C1341 1.388 . S
C1343 C1344 1.366 . S
C1344 C1343 1.366 . S
C1344 C1345 1.414 . S
C1344 C1347 1.499 . S
C1345 H1319 0.950 . S
C1345 C1344 1.414 . S
C1345 C1346 1.374 . S
C1346 H1320 0.950 . S
C1346 C1342 1.385 . S
C1346 C1345 1.374 . S
C1347 C1344 1.499 . S
C1347 C1348 1.373 1_554 S
C1347 C1349 1.389 1_545 S
C1348 H1321 0.950 . S
C1348 C1334 1.377 . S
C1348 C1347 1.373 1_556 S
C1349 C1333 1.377 . S
C1349 C1347 1.389 1_565 S
C1349 C1350 1.524 . S
C1350 C1349 1.524 . S
C1350 C1351 1.397 1_565 S
C1350 C1355 1.363 . S
C1351 H1322 0.950 . S
C1351 C1350 1.397 1_545 S
C1351 C1352 1.334 . S
C1352 H1323 0.950 . S
C1352 C1351 1.334 . S
C1352 C1353 1.287 1_545 S
C1353 C1352 1.287 1_565 S
C1353 C1354 1.524 . S
C1353 H1356 0.999 . S
C1354 H1324 0.950 . S
C1354 C1353 1.524 . S
C1354 C1355 1.415 . S
C1355 H1325 0.950 . S
C1355 C1350 1.363 . S
C1355 C1354 1.415 . S
H1356 C1353 0.999 . S
H1357 C1338 0.913 . S
H1358 C1376 0.951 . S
H1359 C1378 0.951 . S
H1360 C1380 0.950 . S
H1361 C1381 0.950 . S
H1362 C1383 0.950 . S
H1363 C1386 0.950 . S
H1364 C1387 0.950 . S
H1365 C1389 0.950 . S
H1366 C1390 0.950 . S
H1367 C1391 0.951 . S
H1368 C1393 0.951 . S
H1369 C1395 0.950 . S
H1370 C1396 0.950 . S
H1371 C1398 0.950 . S
H1372 C1401 0.950 . S
H1373 C1402 0.950 . S
H1374 C1404 0.950 . S
H1375 C1405 0.950 . S
C1376 H1358 0.951 . S
C1376 C1377 1.366 . S
C1376 C1378 1.388 . S
C1377 C1376 1.366 . S
C1377 C1381 1.385 . S
C1378 H1359 0.951 . S
C1378 C1376 1.388 . S
C1378 C1379 1.366 . S
C1379 C1378 1.366 . S
C1379 C1380 1.414 . S
C1379 C1382 1.499 . S
C1380 H1360 0.950 . S
C1380 C1379 1.414 . S
C1380 C1381 1.374 . S
C1381 H1361 0.950 . S
C1381 C1377 1.385 . S
C1381 C1380 1.374 . S
C1382 C1379 1.499 . S
C1382 C1383 1.373 . S
C1382 C1384 1.389 . S
C1383 H1362 0.950 . S
C1383 C1382 1.373 . S
C1383 C1399 1.377 . S
C1384 C1382 1.389 . S
C1384 C1385 1.524 . S
C1384 C1398 1.377 . S
C1385 C1384 1.524 . S
C1385 C1386 1.397 . S
C1385 C1390 1.363 . S
C1386 H1363 0.950 . S
C1386 C1385 1.397 . S
C1386 C1387 1.334 . S
C1387 H1364 0.950 . S
C1387 C1386 1.334 . S
C1387 C1388 1.287 . S
C1388 C1387 1.287 . S
C1388 C1389 1.524 . S
C1388 H1407 0.913 . S
C1389 H1365 0.950 . S
C1389 C1388 1.524 . S
C1389 C1390 1.415 . S
C1390 H1366 0.950 . S
C1390 C1385 1.363 . S
C1390 C1389 1.415 . S
C1391 H1367 0.951 . S
C1391 C1392 1.366 . S
C1391 C1393 1.388 . S
C1392 C1391 1.366 . S
C1392 C1396 1.385 . S
C1393 H1368 0.951 . S
C1393 C1391 1.388 . S
C1393 C1394 1.366 . S
C1394 C1393 1.366 . S
C1394 C1395 1.414 . S
C1394 C1397 1.499 . S
C1395 H1369 0.950 . S
C1395 C1394 1.414 . S
C1395 C1396 1.374 . S
C1396 H1370 0.950 . S
C1396 C1392 1.385 . S
C1396 C1395 1.374 . S
C1397 C1394 1.499 . S
C1397 C1398 1.373 . S
C1397 C1399 1.389 . S
C1398 H1371 0.950 . S
C1398 C1384 1.377 . S
C1398 C1397 1.373 . S
C1399 C1383 1.377 . S
C1399 C1397 1.389 . S
C1399 C1400 1.524 . S
C1400 C1399 1.524 . S
C1400 C1401 1.397 . S
C1400 C1405 1.363 . S
C1401 H1372 0.950 . S
C1401 C1400 1.397 . S
C1401 C1402 1.334 . S
C1402 H1373 0.950 . S
C1402 C1401 1.334 . S
C1402 C1403 1.287 . S
C1403 C1402 1.287 . S
C1403 C1404 1.524 . S
C1403 H1406 0.999 . S
C1404 H1374 0.950 . S
C1404 C1403 1.524 . S
C1404 C1405 1.415 . S
C1405 H1375 0.950 . S
C1405 C1400 1.363 . S
C1405 C1404 1.415 . S
H1406 C1403 0.999 . S
H1407 C1388 0.913 . S
H1408 C1426 0.951 . S
H1409 C1428 0.977 . S
H1410 C1430 0.950 . S
H1411 C1431 0.950 . S
H1412 C1433 0.950 . S
H1413 C1436 0.950 1_554 S
H1414 C1437 0.950 . S
H1415 C1439 0.950 . S
H1416 C1440 0.950 . S
H1417 C1441 0.951 . S
H1418 C1443 0.977 . S
H1419 C1445 0.950 . S
H1420 C1446 0.950 . S
H1421 C1448 0.950 . S
H1422 C1451 0.950 1_556 S
H1423 C1452 0.950 . S
H1424 C1454 0.950 . S
H1425 C1455 0.950 . S
C1426 H1408 0.951 . S
C1426 C1427 1.366 . S
C1426 C1428 1.388 . S
C1427 C1426 1.366 . S
C1427 C1431 1.385 . S
C1428 H1409 0.977 . S
C1428 C1426 1.388 . S
C1428 C1429 1.366 . S
C1429 C1428 1.366 . S
C1429 C1430 1.414 . S
C1429 C1432 1.499 . S
C1430 H1410 0.950 . S
C1430 C1429 1.414 . S
C1430 C1431 1.374 . S
C1431 H1411 0.950 . S
C1431 C1427 1.385 . S
C1431 C1430 1.374 . S
C1432 C1429 1.499 . S
C1432 C1433 1.373 . S
C1432 C1434 1.389 1_554 S
C1433 H1412 0.950 . S
C1433 C1432 1.373 . S
C1433 C1449 1.377 1_655 S
C1434 C1432 1.389 1_556 S
C1434 C1435 1.524 . S
C1434 C1448 1.377 1_655 S
C1435 C1434 1.524 . S
C1435 C1436 1.397 . S
C1435 C1440 1.363 . S
C1436 H1413 0.950 1_556 S
C1436 C1435 1.397 . S
C1436 C1437 1.334 . S
C1437 H1414 0.950 . S
C1437 C1436 1.334 . S
C1437 C1438 1.287 . S
C1438 C1437 1.287 . S
C1438 C1439 1.524 . S
C1438 H1457 0.913 . S
C1439 H1415 0.950 . S
C1439 C1438 1.524 . S
C1439 C1440 1.415 . S
C1440 H1416 0.950 . S
C1440 C1435 1.363 . S
C1440 C1439 1.415 . S
C1441 H1417 0.951 . S
C1441 C1442 1.366 . S
C1441 C1443 1.388 . S
C1442 C1441 1.366 . S
C1442 C1446 1.385 . S
C1443 H1418 0.977 . S
C1443 C1441 1.388 . S
C1443 C1444 1.366 . S
C1444 C1443 1.366 . S
C1444 C1445 1.414 . S
C1444 C1447 1.499 . S
C1445 H1419 0.950 . S
C1445 C1444 1.414 . S
C1445 C1446 1.374 . S
C1446 H1420 0.950 . S
C1446 C1442 1.385 . S
C1446 C1445 1.374 . S
C1447 C1444 1.499 . S
C1447 C1448 1.373 . S
C1447 C1449 1.389 1_556 S
C1448 H1421 0.950 . S
C1448 C1434 1.377 1_455 S
C1448 C1447 1.373 . S
C1449 C1433 1.377 1_455 S
C1449 C1447 1.389 1_554 S
C1449 C1450 1.524 . S
C1450 C1449 1.524 . S
C1450 C1451 1.397 . S
C1450 C1455 1.363 . S
C1451 H1422 0.950 1_554 S
C1451 C1450 1.397 . S
C1451 C1452 1.334 . S
C1452 H1423 0.950 . S
C1452 C1451 1.334 . S
C1452 C1453 1.287 . S
C1453 C1452 1.287 . S
C1453 C1454 1.524 . S
C1453 H1456 0.999 . S
C1454 H1424 0.950 . S
C1454 C1453 1.524 . S
C1454 C1455 1.415 . S
C1455 H1425 0.950 . S
C1455 C1450 1.363 . S
C1455 C1454 1.415 . S
H1456 C1453 0.999 . S
H1457 C1438 0.913 . S
H1458 C1476 0.951 . S
H1459 C1478 0.951 . S
H1460 C1480 0.950 . S
H1461 C1481 0.950 . S
H1462 C1483 0.950 . S
H1463 C1486 0.950 . S
H1464 C1487 0.950 . S
H1465 C1489 0.950 . S
H1466 C1490 0.950 . S
H1467 C1491 0.951 . S
H1468 C1493 0.951 . S
H1469 C1495 0.950 . S
H1470 C1496 0.950 . S
H1471 C1498 0.950 . S
H1472 C1501 0.950 . S
H1473 C1502 0.950 . S
H1474 C1504 0.950 . S
H1475 C1505 0.950 . S
C1476 H1458 0.951 . S
C1476 C1477 1.366 . S
C1476 C1478 1.388 . S
C1477 C1476 1.366 . S
C1477 C1481 1.385 . S
C1478 H1459 0.951 . S
C1478 C1476 1.388 . S
C1478 C1479 1.366 . S
C1479 C1478 1.366 . S
C1479 C1480 1.414 . S
C1479 C1482 1.499 . S
C1480 H1460 0.950 . S
C1480 C1479 1.414 . S
C1480 C1481 1.374 . S
C1481 H1461 0.950 . S
C1481 C1477 1.385 . S
C1481 C1480 1.374 . S
C1482 C1479 1.499 . S
C1482 C1483 1.373 . S
C1482 C1484 1.389 . S
C1483 H1462 0.950 . S
C1483 C1482 1.373 . S
C1483 C1499 1.377 1_565 S
C1484 C1482 1.389 . S
C1484 C1485 1.524 . S
C1484 C1498 1.377 1_565 S
C1485 C1484 1.524 . S
C1485 C1486 1.397 . S
C1485 C1490 1.363 . S
C1486 H1463 0.950 . S
C1486 C1485 1.397 . S
C1486 C1487 1.334 . S
C1487 H1464 0.950 . S
C1487 C1486 1.334 . S
C1487 C1488 1.287 . S
C1488 C1487 1.287 . S
C1488 C1489 1.524 . S
C1488 H1507 0.913 . S
C1489 H1465 0.950 . S
C1489 C1488 1.524 . S
C1489 C1490 1.415 . S
C1490 H1466 0.950 . S
C1490 C1485 1.363 . S
C1490 C1489 1.415 . S
C1491 H1467 0.951 . S
C1491 C1492 1.366 . S
C1491 C1493 1.388 . S
C1492 C1491 1.366 . S
C1492 C1496 1.385 . S
C1493 H1468 0.951 . S
C1493 C1491 1.388 . S
C1493 C1494 1.366 . S
C1494 C1493 1.366 . S
C1494 C1495 1.414 . S
C1494 C1497 1.499 . S
C1495 H1469 0.950 . S
C1495 C1494 1.414 . S
C1495 C1496 1.374 . S
C1496 H1470 0.950 . S
C1496 C1492 1.385 . S
C1496 C1495 1.374 . S
C1497 C1494 1.499 . S
C1497 C1498 1.373 . S
C1497 C1499 1.389 . S
C1498 H1471 0.950 . S
C1498 C1484 1.377 1_545 S
C1498 C1497 1.373 . S
C1499 C1483 1.377 1_545 S
C1499 C1497 1.389 . S
C1499 C1500 1.524 . S
C1500 C1499 1.524 . S
C1500 C1501 1.397 . S
C1500 C1505 1.363 . S
C1501 H1472 0.950 . S
C1501 C1500 1.397 . S
C1501 C1502 1.334 . S
C1502 H1473 0.950 . S
C1502 C1501 1.334 . S
C1502 C1503 1.287 . S
C1503 C1502 1.287 . S
C1503 C1504 1.524 . S
C1503 H1506 0.999 . S
C1504 H1474 0.950 . S
C1504 C1503 1.524 . S
C1504 C1505 1.415 . S
C1505 H1475 0.950 . S
C1505 C1500 1.363 . S
C1505 C1504 1.415 . S
H1506 C1503 0.999 . S
H1507 C1488 0.913 . S
H1508 C1526 0.951 . S
H1509 C1528 0.951 . S
H1510 C1530 0.950 . S
H1511 C1531 0.950 . S
H1512 C1533 0.950 1_556 S
H1513 C1536 0.950 . S
H1514 C1537 0.950 . S
H1515 C1539 0.950 . S
H1516 C1540 0.950 . S
H1517 C1541 0.951 . S
H1518 C1543 0.951 . S
H1519 C1545 0.950 . S
H1520 C1546 0.950 . S
H1521 C1548 0.950 1_554 S
H1522 C1551 0.950 . S
H1523 C1552 0.950 . S
H1524 C1554 0.950 . S
H1525 C1555 0.950 . S
C1526 H1508 0.951 . S
C1526 C1527 1.366 . S
C1526 C1528 1.388 . S
C1527 C1526 1.366 . S
C1527 C1531 1.385 . S
C1528 H1509 0.951 . S
C1528 C1526 1.388 . S
C1528 C1529 1.366 . S
C1529 C1528 1.366 . S
C1529 C1530 1.414 . S
C1529 C1532 1.499 . S
C1530 H1510 0.950 . S
C1530 C1529 1.414 . S
C1530 C1531 1.374 . S
C1531 H1511 0.950 . S
C1531 C1527 1.385 . S
C1531 C1530 1.374 . S
C1532 C1529 1.499 . S
C1532 C1533 1.371 . S
C1532 C1534 1.389 . S
C1533 H1512 0.950 1_554 S
C1533 C1532 1.371 . S
C1533 C1549 1.378 1_554 S
C1534 C1532 1.389 . S
C1534 C1535 1.524 . S
C1534 C1548 1.378 1_554 S
C1535 C1534 1.524 . S
C1535 C1536 1.397 . S
C1535 C1540 1.363 . S
C1536 H1513 0.950 . S
C1536 C1535 1.397 . S
C1536 C1537 1.334 . S
C1537 H1514 0.950 . S
C1537 C1536 1.334 . S
C1537 C1538 1.287 . S
C1538 C1537 1.287 . S
C1538 C1539 1.524 . S
C1538 H1557 0.913 . S
C1539 H1515 0.950 . S
C1539 C1538 1.524 . S
C1539 C1540 1.415 . S
C1540 H1516 0.950 . S
C1540 C1535 1.363 . S
C1540 C1539 1.415 . S
C1541 H1517 0.951 . S
C1541 C1542 1.366 . S
C1541 C1543 1.388 . S
C1542 C1541 1.366 . S
C1542 C1546 1.385 . S
C1543 H1518 0.951 . S
C1543 C1541 1.388 . S
C1543 C1544 1.366 . S
C1544 C1543 1.366 . S
C1544 C1545 1.414 . S
C1544 C1547 1.499 . S
C1545 H1519 0.950 . S
C1545 C1544 1.414 . S
C1545 C1546 1.374 . S
C1546 H1520 0.950 . S
C1546 C1542 1.385 . S
C1546 C1545 1.374 . S
C1547 C1544 1.499 . S
C1547 C1548 1.371 . S
C1547 C1549 1.389 . S
C1548 H1521 0.950 1_556 S
C1548 C1534 1.378 1_556 S
C1548 C1547 1.371 . S
C1549 C1533 1.378 1_556 S
C1549 C1547 1.389 . S
C1549 C1550 1.524 . S
C1550 C1549 1.524 . S
C1550 C1551 1.397 . S
C1550 C1555 1.363 . S
C1551 H1522 0.950 . S
C1551 C1550 1.397 . S
C1551 C1552 1.334 . S
C1552 H1523 0.950 . S
C1552 C1551 1.334 . S
C1552 C1553 1.287 . S
C1553 C1552 1.287 . S
C1553 C1554 1.524 . S
C1553 H1556 0.999 . S
C1554 H1524 0.950 . S
C1554 C1553 1.524 . S
C1554 C1555 1.415 . S
C1555 H1525 0.950 . S
C1555 C1550 1.363 . S
C1555 C1554 1.415 . S
H1556 C1553 0.999 . S
H1557 C1538 0.913 . S
H1558 C1576 0.951 . S
H1559 C1578 0.951 . S
H1560 C1580 0.950 . S
H1561 C1581 0.950 . S
H1562 C1583 0.951 . S
H1563 C1586 0.950 . S
H1564 C1587 0.950 . S
H1565 C1589 0.950 . S
H1566 C1590 0.950 . S
H1567 C1591 0.951 . S
H1568 C1593 0.951 . S
H1569 C1595 0.950 . S
H1570 C1596 0.950 . S
H1571 C1598 0.951 . S
H1572 C1601 0.950 . S
H1573 C1602 0.950 . S
H1574 C1604 0.950 . S
H1575 C1605 0.950 . S
C1576 H1558 0.951 . S
C1576 C1577 1.366 . S
C1576 C1578 1.388 . S
C1577 C1576 1.366 . S
C1577 C1581 1.385 . S
C1578 H1559 0.951 . S
C1578 C1576 1.388 . S
C1578 C1579 1.366 . S
C1579 C1578 1.366 . S
C1579 C1580 1.414 . S
C1579 C1582 1.499 . S
C1580 H1560 0.950 . S
C1580 C1579 1.414 . S
C1580 C1581 1.374 . S
C1581 H1561 0.950 . S
C1581 C1577 1.385 . S
C1581 C1580 1.374 . S
C1582 C1579 1.499 . S
C1582 C1583 1.398 . S
C1582 C1584 1.389 . S
C1583 H1562 0.951 . S
C1583 C1582 1.398 . S
C1583 C1599 1.355 1_655 S
C1584 C1582 1.389 . S
C1584 C1585 1.524 . S
C1584 C1598 1.355 1_655 S
C1585 C1584 1.524 . S
C1585 C1586 1.397 . S
C1585 C1590 1.363 . S
C1586 H1563 0.950 . S
C1586 C1585 1.397 . S
C1586 C1587 1.334 . S
C1587 H1564 0.950 . S
C1587 C1586 1.334 . S
C1587 C1588 1.287 . S
C1588 C1587 1.287 . S
C1588 C1589 1.524 . S
C1588 H1607 0.913 . S
C1589 H1565 0.950 . S
C1589 C1588 1.524 . S
C1589 C1590 1.415 . S
C1590 H1566 0.950 . S
C1590 C1585 1.363 . S
C1590 C1589 1.415 . S
C1591 H1567 0.951 . S
C1591 C1592 1.366 . S
C1591 C1593 1.388 . S
C1592 C1591 1.366 . S
C1592 C1596 1.385 . S
C1593 H1568 0.951 . S
C1593 C1591 1.388 . S
C1593 C1594 1.366 . S
C1594 C1593 1.366 . S
C1594 C1595 1.414 . S
C1594 C1597 1.499 . S
C1595 H1569 0.950 . S
C1595 C1594 1.414 . S
C1595 C1596 1.374 . S
C1596 H1570 0.950 . S
C1596 C1592 1.385 . S
C1596 C1595 1.374 . S
C1597 C1594 1.499 . S
C1597 C1598 1.398 . S
C1597 C1599 1.389 . S
C1598 H1571 0.951 . S
C1598 C1584 1.355 1_455 S
C1598 C1597 1.398 . S
C1599 C1583 1.355 1_455 S
C1599 C1597 1.389 . S
C1599 C1600 1.524 . S
C1600 C1599 1.524 . S
C1600 C1601 1.397 . S
C1600 C1605 1.363 . S
C1601 H1572 0.950 . S
C1601 C1600 1.397 . S
C1601 C1602 1.334 . S
C1602 H1573 0.950 . S
C1602 C1601 1.334 . S
C1602 C1603 1.287 . S
C1603 C1602 1.287 . S
C1603 C1604 1.524 . S
C1603 H1606 0.999 . S
C1604 H1574 0.950 . S
C1604 C1603 1.524 . S
C1604 C1605 1.415 . S
C1605 H1575 0.950 . S
C1605 C1600 1.363 . S
C1605 C1604 1.415 . S
H1606 C1603 0.999 . S
H1607 C1588 0.913 . S
H1608 C1626 0.951 . S
H1609 C1628 0.951 . S
H1610 C1630 0.950 1_556 S
H1611 C1631 0.950 . S
H1612 C1633 0.950 . S
H1613 C1636 0.950 . S
H1614 C1637 0.950 . S
H1615 C1639 0.950 . S
H1616 C1640 0.950 . S
H1617 C1641 0.951 . S
H1618 C1643 0.951 . S
H1619 C1645 0.950 1_554 S
H1620 C1646 0.950 . S
H1621 C1648 0.950 . S
H1622 C1651 0.950 . S
H1623 C1652 0.950 . S
H1624 C1654 0.950 . S
H1625 C1655 0.950 . S
C1626 H1608 0.951 . S
C1626 C1627 1.366 . S
C1626 C1628 1.388 . S
C1627 C1626 1.366 . S
C1627 C1631 1.385 . S
C1628 H1609 0.951 . S
C1628 C1626 1.388 . S
C1628 C1629 1.366 . S
C1629 C1628 1.366 . S
C1629 C1630 1.414 . S
C1629 C1632 1.499 . S
C1630 H1610 0.950 1_554 S
C1630 C1629 1.414 . S
C1630 C1631 1.374 . S
C1631 H1611 0.950 . S
C1631 C1627 1.385 . S
C1631 C1630 1.374 . S
C1632 C1629 1.499 . S
C1632 C1633 1.373 1_554 S
C1632 C1634 1.389 . S
C1633 H1612 0.950 . S
C1633 C1632 1.373 1_556 S
C1633 C1649 1.377 1_545 S
C1634 C1632 1.389 . S
C1634 C1635 1.536 . S
C1634 C1648 1.377 1_545 S
C1635 C1634 1.536 . S
C1635 C1636 1.405 . S
C1635 C1640 1.342 1_545 S
C1636 H1613 0.950 . S
C1636 C1635 1.405 . S
C1636 C1637 1.334 . S
C1637 H1614 0.950 . S
C1637 C1636 1.334 . S
C1637 C1638 1.287 . S
C1638 C1637 1.287 . S
C1638 C1639 1.524 1_545 S
C1638 H1657 0.913 . S
C1639 H1615 0.950 . S
C1639 C1638 1.524 1_565 S
C1639 C1640 1.415 . S
C1640 H1616 0.950 . S
C1640 C1635 1.342 1_565 S
C1640 C1639 1.415 . S
C1641 H1617 0.951 . S
C1641 C1642 1.366 . S
C1641 C1643 1.388 . S
C1642 C1641 1.366 . S
C1642 C1646 1.385 . S
C1643 H1618 0.951 . S
C1643 C1641 1.388 . S
C1643 C1644 1.366 . S
C1644 C1643 1.366 . S
C1644 C1645 1.414 . S
C1644 C1647 1.499 . S
C1645 H1619 0.950 1_556 S
C1645 C1644 1.414 . S
C1645 C1646 1.374 . S
C1646 H1620 0.950 . S
C1646 C1642 1.385 . S
C1646 C1645 1.374 . S
C1647 C1644 1.499 . S
C1647 C1648 1.373 1_556 S
C1647 C1649 1.389 . S
C1648 H1621 0.950 . S
C1648 C1634 1.377 1_565 S
C1648 C1647 1.373 1_554 S
C1649 C1633 1.377 1_565 S
C1649 C1647 1.389 . S
C1649 C1650 1.536 . S
C1650 C1649 1.536 . S
C1650 C1651 1.405 . S
C1650 C1655 1.342 1_565 S
C1651 H1622 0.950 . S
C1651 C1650 1.405 . S
C1651 C1652 1.334 . S
C1652 H1623 0.950 . S
C1652 C1651 1.334 . S
C1652 C1653 1.287 . S
C1653 C1652 1.287 . S
C1653 C1654 1.524 1_565 S
C1653 H1656 0.999 . S
C1654 H1624 0.950 . S
C1654 C1653 1.524 1_545 S
C1654 C1655 1.415 . S
C1655 H1625 0.950 . S
C1655 C1650 1.342 1_545 S
C1655 C1654 1.415 . S
H1656 C1653 0.999 . S
H1657 C1638 0.913 . S
H1658 C1676 0.951 . S
H1659 C1678 0.951 . S
H1660 C1680 0.950 . S
H1661 C1681 0.950 . S
H1662 C1683 0.950 . S
H1663 C1686 0.950 . S
H1664 C1687 0.950 . S
H1665 C1689 0.950 . S
H1666 C1690 0.950 . S
H1667 C1691 0.951 . S
H1668 C1693 0.951 . S
H1669 C1695 0.950 . S
H1670 C1696 0.950 . S
H1671 C1698 0.950 . S
H1672 C1701 0.950 . S
H1673 C1702 0.950 . S
H1674 C1704 0.950 . S
H1675 C1705 0.950 . S
C1676 H1658 0.951 . S
C1676 C1677 1.366 . S
C1676 C1678 1.388 . S
C1677 C1676 1.366 . S
C1677 C1681 1.385 . S
C1678 H1659 0.951 . S
C1678 C1676 1.388 . S
C1678 C1679 1.366 . S
C1679 C1678 1.366 . S
C1679 C1680 1.414 . S
C1679 C1682 1.499 . S
C1680 H1660 0.950 . S
C1680 C1679 1.414 . S
C1680 C1681 1.374 . S
C1681 H1661 0.950 . S
C1681 C1677 1.385 . S
C1681 C1680 1.374 . S
C1682 C1679 1.499 . S
C1682 C1683 1.373 . S
C1682 C1684 1.389 . S
C1683 H1662 0.950 . S
C1683 C1682 1.373 . S
C1683 C1699 1.377 . S
C1684 C1682 1.389 . S
C1684 C1685 1.524 . S
C1684 C1698 1.377 . S
C1685 C1684 1.524 . S
C1685 C1686 1.397 . S
C1685 C1690 1.363 . S
C1686 H1663 0.950 . S
C1686 C1685 1.397 . S
C1686 C1687 1.334 . S
C1687 H1664 0.950 . S
C1687 C1686 1.334 . S
C1687 C1688 1.287 . S
C1688 C1687 1.287 . S
C1688 C1689 1.524 . S
C1688 H1707 0.913 . S
C1689 H1665 0.950 . S
C1689 C1688 1.524 . S
C1689 C1690 1.415 . S
C1690 H1666 0.950 . S
C1690 C1685 1.363 . S
C1690 C1689 1.415 . S
C1691 H1667 0.951 . S
C1691 C1692 1.366 . S
C1691 C1693 1.388 . S
C1692 C1691 1.366 . S
C1692 C1696 1.385 . S
C1693 H1668 0.951 . S
C1693 C1691 1.388 . S
C1693 C1694 1.366 . S
C1694 C1693 1.366 . S
C1694 C1695 1.414 . S
C1694 C1697 1.499 . S
C1695 H1669 0.950 . S
C1695 C1694 1.414 . S
C1695 C1696 1.374 . S
C1696 H1670 0.950 . S
C1696 C1692 1.385 . S
C1696 C1695 1.374 . S
C1697 C1694 1.499 . S
C1697 C1698 1.373 . S
C1697 C1699 1.389 . S
C1698 H1671 0.950 . S
C1698 C1684 1.377 . S
C1698 C1697 1.373 . S
C1699 C1683 1.377 . S
C1699 C1697 1.389 . S
C1699 C1700 1.524 . S
C1700 C1699 1.524 . S
C1700 C1701 1.397 . S
C1700 C1705 1.363 . S
C1701 H1672 0.950 . S
C1701 C1700 1.397 . S
C1701 C1702 1.334 . S
C1702 H1673 0.950 . S
C1702 C1701 1.334 . S
C1702 C1703 1.287 . S
C1703 C1702 1.287 . S
C1703 C1704 1.524 . S
C1703 H1706 0.999 . S
C1704 H1674 0.950 . S
C1704 C1703 1.524 . S
C1704 C1705 1.415 . S
C1705 H1675 0.950 . S
C1705 C1700 1.363 . S
C1705 C1704 1.415 . S
H1706 C1703 0.999 . S
H1707 C1688 0.913 . S
H1708 C1726 0.951 . S
H1709 C1728 0.951 . S
H1710 C1730 0.950 . S
H1711 C1731 0.950 . S
H1712 C1733 0.950 . S
H1713 C1736 0.950 . S
H1714 C1737 0.950 . S
H1715 C1739 0.950 . S
H1716 C1740 0.950 1_554 S
H1717 C1741 0.951 . S
H1718 C1743 0.951 . S
H1719 C1745 0.950 . S
H1720 C1746 0.950 . S
H1721 C1748 0.950 . S
H1722 C1751 0.950 . S
H1723 C1752 0.950 . S
H1724 C1754 0.950 . S
H1725 C1755 0.950 1_556 S
C1726 H1708 0.951 . S
C1726 C1727 1.366 . S
C1726 C1728 1.388 . S
C1727 C1726 1.366 . S
C1727 C1731 1.385 . S
C1728 H1709 0.951 . S
C1728 C1726 1.388 . S
C1728 C1729 1.366 . S
C1729 C1728 1.366 . S
C1729 C1730 1.414 . S
C1729 C1732 1.499 . S
C1730 H1710 0.950 . S
C1730 C1729 1.414 . S
C1730 C1731 1.374 . S
C1731 H1711 0.950 . S
C1731 C1727 1.385 . S
C1731 C1730 1.374 . S
C1732 C1729 1.499 . S
C1732 C1733 1.373 . S
C1732 C1734 1.389 1_554 S
C1733 H1712 0.950 . S
C1733 C1732 1.373 . S
C1733 C1749 1.377 1_655 S
C1734 C1732 1.389 1_556 S
C1734 C1735 1.524 . S
C1734 C1748 1.377 1_655 S
C1735 C1734 1.524 . S
C1735 C1736 1.397 . S
C1735 C1740 1.363 . S
C1736 H1713 0.950 . S
C1736 C1735 1.397 . S
C1736 C1737 1.334 . S
C1737 H1714 0.950 . S
C1737 C1736 1.334 . S
C1737 C1738 1.287 . S
C1738 C1737 1.287 . S
C1738 C1739 1.524 . S
C1738 H1757 0.913 . S
C1739 H1715 0.950 . S
C1739 C1738 1.524 . S
C1739 C1740 1.415 . S
C1740 H1716 0.950 1_556 S
C1740 C1735 1.363 . S
C1740 C1739 1.415 . S
C1741 H1717 0.951 . S
C1741 C1742 1.366 . S
C1741 C1743 1.388 . S
C1742 C1741 1.366 . S
C1742 C1746 1.385 . S
C1743 H1718 0.951 . S
C1743 C1741 1.388 . S
C1743 C1744 1.366 . S
C1744 C1743 1.366 . S
C1744 C1745 1.414 . S
C1744 C1747 1.499 . S
C1745 H1719 0.950 . S
C1745 C1744 1.414 . S
C1745 C1746 1.374 . S
C1746 H1720 0.950 . S
C1746 C1742 1.385 . S
C1746 C1745 1.374 . S
C1747 C1744 1.499 . S
C1747 C1748 1.373 . S
C1747 C1749 1.389 1_556 S
C1748 H1721 0.950 . S
C1748 C1734 1.377 1_455 S
C1748 C1747 1.373 . S
C1749 C1733 1.377 1_455 S
C1749 C1747 1.389 1_554 S
C1749 C1750 1.524 . S
C1750 C1749 1.524 . S
C1750 C1751 1.397 . S
C1750 C1755 1.363 . S
C1751 H1722 0.950 . S
C1751 C1750 1.397 . S
C1751 C1752 1.334 . S
C1752 H1723 0.950 . S
C1752 C1751 1.334 . S
C1752 C1753 1.287 . S
C1753 C1752 1.287 . S
C1753 C1754 1.524 . S
C1753 H1756 0.999 . S
C1754 H1724 0.950 . S
C1754 C1753 1.524 . S
C1754 C1755 1.415 . S
C1755 H1725 0.950 1_554 S
C1755 C1750 1.363 . S
C1755 C1754 1.415 . S
H1756 C1753 0.999 . S
H1757 C1738 0.913 . S
H1758 C1776 0.951 . S
H1759 C1778 0.951 . S
H1760 C1780 0.950 . S
H1761 C1781 0.950 . S
H1762 C1783 0.950 . S
H1763 C1786 0.950 . S
H1764 C1787 0.950 . S
H1765 C1789 0.950 . S
H1766 C1790 0.950 . S
H1767 C1791 0.951 . S
H1768 C1793 0.951 . S
H1769 C1795 0.950 . S
H1770 C1796 0.950 . S
H1771 C1798 0.950 . S
H1772 C1801 0.950 . S
H1773 C1802 0.950 . S
H1774 C1804 0.950 . S
H1775 C1805 0.950 . S
C1776 H1758 0.951 . S
C1776 C1777 1.366 . S
C1776 C1778 1.388 . S
C1777 C1776 1.366 . S
C1777 C1781 1.385 . S
C1778 H1759 0.951 . S
C1778 C1776 1.388 . S
C1778 C1779 1.366 . S
C1779 C1778 1.366 . S
C1779 C1780 1.414 . S
C1779 C1782 1.499 . S
C1780 H1760 0.950 . S
C1780 C1779 1.414 . S
C1780 C1781 1.374 . S
C1781 H1761 0.950 . S
C1781 C1777 1.385 . S
C1781 C1780 1.374 . S
C1782 C1779 1.499 . S
C1782 C1783 1.373 . S
C1782 C1784 1.389 . S
C1783 H1762 0.950 . S
C1783 C1782 1.373 . S
C1783 C1799 1.377 1_565 S
C1784 C1782 1.389 . S
C1784 C1785 1.524 . S
C1784 C1798 1.377 1_565 S
C1785 C1784 1.524 . S
C1785 C1786 1.397 . S
C1785 C1790 1.363 . S
C1786 H1763 0.950 . S
C1786 C1785 1.397 . S
C1786 C1787 1.334 . S
C1787 H1764 0.950 . S
C1787 C1786 1.334 . S
C1787 C1788 1.287 . S
C1788 C1787 1.287 . S
C1788 C1789 1.524 . S
C1788 H1807 0.913 . S
C1789 H1765 0.950 . S
C1789 C1788 1.524 . S
C1789 C1790 1.415 . S
C1790 H1766 0.950 . S
C1790 C1785 1.363 . S
C1790 C1789 1.415 . S
C1791 H1767 0.951 . S
C1791 C1792 1.366 . S
C1791 C1793 1.388 . S
C1792 C1791 1.366 . S
C1792 C1796 1.385 . S
C1793 H1768 0.951 . S
C1793 C1791 1.388 . S
C1793 C1794 1.366 . S
C1794 C1793 1.366 . S
C1794 C1795 1.414 . S
C1794 C1797 1.499 . S
C1795 H1769 0.950 . S
C1795 C1794 1.414 . S
C1795 C1796 1.374 . S
C1796 H1770 0.950 . S
C1796 C1792 1.385 . S
C1796 C1795 1.374 . S
C1797 C1794 1.499 . S
C1797 C1798 1.373 . S
C1797 C1799 1.389 . S
C1798 H1771 0.950 . S
C1798 C1784 1.377 1_545 S
C1798 C1797 1.373 . S
C1799 C1783 1.377 1_545 S
C1799 C1797 1.389 . S
C1799 C1800 1.524 . S
C1800 C1799 1.524 . S
C1800 C1801 1.397 . S
C1800 C1805 1.363 . S
C1801 H1772 0.950 . S
C1801 C1800 1.397 . S
C1801 C1802 1.334 . S
C1802 H1773 0.950 . S
C1802 C1801 1.334 . S
C1802 C1803 1.287 . S
C1803 C1802 1.287 . S
C1803 C1804 1.524 . S
C1803 H1806 0.999 . S
C1804 H1774 0.950 . S
C1804 C1803 1.524 . S
C1804 C1805 1.415 . S
C1805 H1775 0.950 . S
C1805 C1800 1.363 . S
C1805 C1804 1.415 . S
H1806 C1803 0.999 . S
H1807 C1788 0.913 . S
H1808 C1826 0.951 . S
H1809 C1828 0.951 . S
H1810 C1830 0.950 . S
H1811 C1831 0.950 . S
H1812 C1833 0.950 . S
H1813 C1836 0.950 . S
H1814 C1837 0.950 . S
H1815 C1839 0.950 . S
H1816 C1840 0.950 . S
H1817 C1841 0.951 . S
H1818 C1843 0.951 . S
H1819 C1845 0.950 . S
H1820 C1846 0.950 . S
H1821 C1848 0.950 . S
H1822 C1851 0.950 . S
H1823 C1852 0.950 . S
H1824 C1854 0.950 . S
H1825 C1855 0.950 . S
C1826 H1808 0.951 . S
C1826 C1827 1.366 . S
C1826 C1828 1.388 . S
C1827 C1826 1.366 . S
C1827 C1831 1.385 . S
C1828 H1809 0.951 . S
C1828 C1826 1.388 . S
C1828 C1829 1.366 . S
C1829 C1828 1.366 . S
C1829 C1830 1.414 . S
C1829 C1832 1.499 . S
C1830 H1810 0.950 . S
C1830 C1829 1.414 . S
C1830 C1831 1.374 . S
C1831 H1811 0.950 . S
C1831 C1827 1.385 . S
C1831 C1830 1.374 . S
C1832 C1829 1.499 . S
C1832 C1833 1.373 . S
C1832 C1834 1.402 . S
C1833 H1812 0.950 . S
C1833 C1832 1.373 . S
C1833 C1849 1.364 1_556 S
C1834 C1832 1.402 . S
C1834 C1835 1.523 1_556 S
C1834 C1848 1.364 1_556 S
C1835 C1834 1.523 1_554 S
C1835 C1836 1.397 . S
C1835 C1840 1.363 1_554 S
C1836 H1813 0.950 . S
C1836 C1835 1.397 . S
C1836 C1837 1.334 . S
C1837 H1814 0.950 . S
C1837 C1836 1.334 . S
C1837 C1838 1.287 . S
C1838 C1837 1.287 . S
C1838 C1839 1.524 1_554 S
C1838 H1857 0.913 . S
C1839 H1815 0.950 . S
C1839 C1838 1.524 1_556 S
C1839 C1840 1.415 . S
C1840 H1816 0.950 . S
C1840 C1835 1.363 1_556 S
C1840 C1839 1.415 . S
C1841 H1817 0.951 . S
C1841 C1842 1.366 . S
C1841 C1843 1.388 . S
C1842 C1841 1.366 . S
C1842 C1846 1.385 . S
C1843 H1818 0.951 . S
C1843 C1841 1.388 . S
C1843 C1844 1.366 . S
C1844 C1843 1.366 . S
C1844 C1845 1.414 . S
C1844 C1847 1.499 . S
C1845 H1819 0.950 . S
C1845 C1844 1.414 . S
C1845 C1846 1.374 . S
C1846 H1820 0.950 . S
C1846 C1842 1.385 . S
C1846 C1845 1.374 . S
C1847 C1844 1.499 . S
C1847 C1848 1.373 . S
C1847 C1849 1.402 . S
C1848 H1821 0.950 . S
C1848 C1834 1.364 1_554 S
C1848 C1847 1.373 . S
C1849 C1833 1.364 1_554 S
C1849 C1847 1.402 . S
C1849 C1850 1.523 1_554 S
C1850 C1849 1.523 1_556 S
C1850 C1851 1.397 . S
C1850 C1855 1.363 1_556 S
C1851 H1822 0.950 . S
C1851 C1850 1.397 . S
C1851 C1852 1.334 . S
C1852 H1823 0.950 . S
C1852 C1851 1.334 . S
C1852 C1853 1.287 . S
C1853 C1852 1.287 . S
C1853 C1854 1.524 1_556 S
C1853 H1856 0.999 . S
C1854 H1824 0.950 . S
C1854 C1853 1.524 1_554 S
C1854 C1855 1.415 . S
C1855 H1825 0.950 . S
C1855 C1850 1.363 1_554 S
C1855 C1854 1.415 . S
H1856 C1853 0.999 . S
H1857 C1838 0.913 . S
H1858 C1876 0.951 . S
H1859 C1878 0.951 . S
H1860 C1880 0.950 . S
H1861 C1881 0.950 . S
H1862 C1883 0.950 . S
H1863 C1886 0.950 . S
H1864 C1887 0.950 . S
H1865 C1889 0.950 . S
H1866 C1890 0.950 . S
H1867 C1891 0.951 . S
H1868 C1893 0.951 . S
H1869 C1895 0.950 . S
H1870 C1896 0.950 . S
H1871 C1898 0.950 . S
H1872 C1901 0.950 . S
H1873 C1902 0.950 . S
H1874 C1904 0.950 . S
H1875 C1905 0.950 . S
C1876 H1858 0.951 . S
C1876 C1877 1.366 . S
C1876 C1878 1.388 . S
C1877 C1876 1.366 . S
C1877 C1881 1.385 . S
C1878 H1859 0.951 . S
C1878 C1876 1.388 . S
C1878 C1879 1.366 . S
C1879 C1878 1.366 . S
C1879 C1880 1.414 . S
C1879 C1882 1.499 . S
C1880 H1860 0.950 . S
C1880 C1879 1.414 . S
C1880 C1881 1.374 . S
C1881 H1861 0.950 . S
C1881 C1877 1.385 . S
C1881 C1880 1.374 . S
C1882 C1879 1.499 . S
C1882 C1883 1.373 . S
C1882 C1884 1.389 . S
C1883 H1862 0.950 . S
C1883 C1882 1.373 . S
C1883 C1899 1.377 1_455 S
C1884 C1882 1.389 . S
C1884 C1885 1.524 . S
C1884 C1898 1.377 1_455 S
C1885 C1884 1.524 . S
C1885 C1886 1.397 . S
C1885 C1890 1.363 . S
C1886 H1863 0.950 . S
C1886 C1885 1.397 . S
C1886 C1887 1.334 . S
C1887 H1864 0.950 . S
C1887 C1886 1.334 . S
C1887 C1888 1.287 . S
C1888 C1887 1.287 . S
C1888 C1889 1.524 . S
C1888 H1907 0.913 . S
C1889 H1865 0.950 . S
C1889 C1888 1.524 . S
C1889 C1890 1.415 . S
C1890 H1866 0.950 . S
C1890 C1885 1.363 . S
C1890 C1889 1.415 . S
C1891 H1867 0.951 . S
C1891 C1892 1.366 . S
C1891 C1893 1.388 . S
C1892 C1891 1.366 . S
C1892 C1896 1.385 . S
C1893 H1868 0.951 . S
C1893 C1891 1.388 . S
C1893 C1894 1.366 . S
C1894 C1893 1.366 . S
C1894 C1895 1.414 . S
C1894 C1897 1.499 . S
C1895 H1869 0.950 . S
C1895 C1894 1.414 . S
C1895 C1896 1.374 . S
C1896 H1870 0.950 . S
C1896 C1892 1.385 . S
C1896 C1895 1.374 . S
C1897 C1894 1.499 . S
C1897 C1898 1.373 . S
C1897 C1899 1.389 . S
C1898 H1871 0.950 . S
C1898 C1884 1.377 1_655 S
C1898 C1897 1.373 . S
C1899 C1883 1.377 1_655 S
C1899 C1897 1.389 . S
C1899 C1900 1.524 . S
C1900 C1899 1.524 . S
C1900 C1901 1.397 . S
C1900 C1905 1.363 . S
C1901 H1872 0.950 . S
C1901 C1900 1.397 . S
C1901 C1902 1.334 . S
C1902 H1873 0.950 . S
C1902 C1901 1.334 . S
C1902 C1903 1.287 . S
C1903 C1902 1.287 . S
C1903 C1904 1.524 . S
C1903 H1906 0.999 . S
C1904 H1874 0.950 . S
C1904 C1903 1.524 . S
C1904 C1905 1.415 . S
C1905 H1875 0.950 . S
C1905 C1900 1.363 . S
C1905 C1904 1.415 . S
H1906 C1903 0.999 . S
H1907 C1888 0.913 . S
C427 C73 1.464 . S
C442 C2 1.538 . S
C477 C36 1.538 . S
C492 C107 1.464 . S
C527 C70 1.538 . S
C542 C141 1.465 . S
C577 C104 1.538 . S
C592 C175 1.465 . S
C627 C138 1.538 . S
C642 C5 1.465 . S
C677 C39 1.464 . S
C692 C172 1.538 . S
C727 C206 1.538 . S
C742 C345 1.464 . S
C777 C240 1.538 . S
C792 C379 1.465 . S
C827 C209 1.465 . S
C842 C274 1.538 . S
C877 C243 1.465 . S
C892 C308 1.538 . S
C927 C277 1.464 . S
C942 C342 1.538 . S
C977 C311 1.465 . S
C992 C376 1.538 . S
C1027 C305 1.202 . S
C1042 C33 1.202 . S
C1077 C67 1.202 . S
C1092 C339 1.202 . S
C1127 C373 1.202 . S
C1142 C101 1.202 . S
C1177 C407 1.202 . S
C1192 C135 1.202 . S
C1227 C169 1.202 . S
C1242 C237 1.202 . S
C1277 C271 1.202 . S
C1292 C203 1.202 . S
C1327 C247 1.553 . S
C1342 C9 1.553 . S
C1377 C43 1.553 . S
C1392 C281 1.552 . S
C1427 C77 1.552 . S
C1442 C315 1.552 . S
C1477 C111 1.552 . S
C1492 C349 1.552 . S
C1527 C145 1.553 . S
C1542 C383 1.553 . S
C1577 C213 1.552 . S
C1592 C179 1.552 . S
C1627 C88 1.843 . S
C1642 C394 1.843 . S
C1677 C224 1.843 . S
C1692 C122 1.843 . S
C1727 C156 1.843 . S
C1742 C258 1.843 . S
C1777 C190 1.843 . S
C1792 C292 1.843 . S
C1827 C326 1.843 . S
C1842 C20 1.843 . S
C1877 C54 1.843 . S
C1892 C360 1.843 . S
