# Generated by pormake.
# Topology upa, (4)-cn, num edge types: 1
# Building blocks:
#     Node 0, Type 0, BuildingBlock: QUQFOY_clean_sbu_1, # of connection points: 4
#     Node 1, Type 0, BuildingBlock: QUQFOY_clean_sbu_1, # of connection points: 4
#     Node 2, Type 0, BuildingBlock: QUQFOY_clean_sbu_1, # of connection points: 4
#     Node 3, Type 0, BuildingBlock: QUQFOY_clean_sbu_1, # of connection points: 4
#     Node 4, Type 0, BuildingBlock: QUQFOY_clean_sbu_1, # of connection points: 4
#     Node 5, Type 0, BuildingBlock: QUQFOY_clean_sbu_1, # of connection points: 4
#     Node 6, Type 0, BuildingBlock: QUQFOY_clean_sbu_1, # of connection points: 4
#     Node 7, Type 0, BuildingBlock: QUQFOY_clean_sbu_1, # of connection points: 4
#     Edge 8, Type (0, 0), BuildingBlock: MIFKUJ_clean_linker_0, # of connection points: 2
#     Edge 9, Type (0, 0), BuildingBlock: MIFKUJ_clean_linker_0, # of connection points: 2
#     Edge 10, Type (0, 0), BuildingBlock: MIFKUJ_clean_linker_0, # of connection points: 2
#     Edge 11, Type (0, 0), BuildingBlock: MIFKUJ_clean_linker_0, # of connection points: 2
#     Edge 12, Type (0, 0), BuildingBlock: MIFKUJ_clean_linker_0, # of connection points: 2
#     Edge 13, Type (0, 0), BuildingBlock: MIFKUJ_clean_linker_0, # of connection points: 2
#     Edge 14, Type (0, 0), BuildingBlock: MIFKUJ_clean_linker_0, # of connection points: 2
#     Edge 15, Type (0, 0), BuildingBlock: MIFKUJ_clean_linker_0, # of connection points: 2
#     Edge 16, Type (0, 0), BuildingBlock: MIFKUJ_clean_linker_0, # of connection points: 2
#     Edge 17, Type (0, 0), BuildingBlock: MIFKUJ_clean_linker_0, # of connection points: 2
#     Edge 18, Type (0, 0), BuildingBlock: MIFKUJ_clean_linker_0, # of connection points: 2
#     Edge 19, Type (0, 0), BuildingBlock: MIFKUJ_clean_linker_0, # of connection points: 2
#     Edge 20, Type (0, 0), BuildingBlock: MIFKUJ_clean_linker_0, # of connection points: 2
#     Edge 21, Type (0, 0), BuildingBlock: MIFKUJ_clean_linker_0, # of connection points: 2
#     Edge 22, Type (0, 0), BuildingBlock: MIFKUJ_clean_linker_0, # of connection points: 2
#     Edge 23, Type (0, 0), BuildingBlock: MIFKUJ_clean_linker_0, # of connection points: 2
# Relax obj value: 0.129
# Max RMSD: 0.095
# Mean RMSD: 0.095
data_MOF--net-upa--node1-QUQFOY_clean_sbu_1--edge1-MIFKUJ_clean_linker_0
_symmetry_space_group_name_H-M    P1
_symmetry_Int_Tables_number       1
_symmetry_cell_setting            triclinic
loop_
_symmetry_equiv_pos_as_xyz
'x, y, z'
_cell_length_a     37.811779
_cell_length_b     37.789502
_cell_length_c     55.48438
_cell_angle_alpha  90.07843
_cell_angle_beta   90.022285
_cell_angle_gamma 89.955611
loop_
_atom_site_label
_atom_site_type_symbol
_atom_site_fract_x
_atom_site_fract_y
_atom_site_fract_z
_atom_type_partial_charge
O0 O 0.19716 0.20248 0.36717 0.0
Cd1 Cd 0.19756 0.18615 0.33154 0.0
Cd2 Cd 0.12003 0.21145 0.33947 0.0
O3 O 0.14186 0.22026 0.37318 0.0
O4 O 0.24847 0.17469 0.32599 0.0
O5 O 0.22024 0.21618 0.30564 0.0
C6 C 0.24914 0.19894 0.30972 0.0
C7 C 0.06837 0.24167 0.32791 0.0
C8 C 0.17313 0.21484 0.38086 0.0
C9 C 0.13778 0.13615 0.32108 0.0
O10 O 0.11662 0.16063 0.32706 0.0
O11 O 0.17108 0.1402 0.32195 0.0
O12 O 0.06855 0.21945 0.34543 0.0
O13 O 0.09831 0.24903 0.31794 0.0
O14 O 0.30188 0.67945 0.8599 0.0
Cd15 Cd 0.31141 0.67672 0.82323 0.0
Cd16 Cd 0.26969 0.6071 0.83426 0.0
O17 O 0.26597 0.63411 0.86676 0.0
O18 O 0.33365 0.72322 0.81503 0.0
O19 O 0.28137 0.70697 0.80114 0.0
C20 C 0.30609 0.73048 0.80233 0.0
C21 C 0.23177 0.55945 0.8256 0.0
C22 C 0.28239 0.66155 0.87408 0.0
C23 C 0.34547 0.60677 0.81239 0.0
O24 O 0.31837 0.59236 0.82155 0.0
O25 O 0.34781 0.64019 0.81061 0.0
O26 O 0.25351 0.55865 0.84339 0.0
O27 O 0.22878 0.5889 0.814 0.0
O28 O 0.8069 0.81838 0.3549 0.0
Cd29 Cd 0.81247 0.83199 0.31879 0.0
Cd30 Cd 0.88048 0.80438 0.33311 0.0
O31 O 0.8523 0.78273 0.36126 0.0
O32 O 0.76342 0.848 0.31075 0.0
O33 O 0.78881 0.80255 0.29276 0.0
C34 C 0.76133 0.82249 0.29543 0.0
C35 C 0.93073 0.77808 0.31548 0.0
C36 C 0.82358 0.79684 0.3684 0.0
C37 C 0.87225 0.88171 0.32221 0.0
O38 O 0.88691 0.85805 0.33496 0.0
O39 O 0.8442 0.87504 0.31044 0.0
O40 O 0.93067 0.78844 0.3376 0.0
O41 O 0.90125 0.77998 0.30377 0.0
O42 O 0.70363 0.3114 0.86086 0.0
Cd43 Cd 0.68608 0.31376 0.82542 0.0
Cd44 Cd 0.72177 0.38721 0.83367 0.0
O45 O 0.73006 0.36321 0.86661 0.0
O46 O 0.66758 0.26492 0.81963 0.0
O47 O 0.7119 0.28755 0.79887 0.0
C48 C 0.691 0.26121 0.80297 0.0
C49 C 0.75626 0.43597 0.82206 0.0
C50 C 0.72034 0.33302 0.8743 0.0
C51 C 0.64392 0.3804 0.81685 0.0
O52 O 0.67109 0.39766 0.82321 0.0
O53 O 0.64412 0.34676 0.81649 0.0
O54 O 0.73593 0.43702 0.8406 0.0
O55 O 0.75966 0.40597 0.81114 0.0
O56 O 0.69695 0.30487 0.14066 0.0
Cd57 Cd 0.69302 0.31785 0.1772 0.0
Cd58 Cd 0.62072 0.29588 0.16392 0.0
O59 O 0.64512 0.28025 0.1327 0.0
O60 O 0.74264 0.33187 0.18502 0.0
O61 O 0.71615 0.28661 0.20238 0.0
C62 C 0.74401 0.30608 0.20012 0.0
C63 C 0.57186 0.26604 0.18 0.0
C64 C 0.67608 0.28909 0.12616 0.0
C65 C 0.63331 0.37029 0.18083 0.0
O66 O 0.61464 0.34904 0.16861 0.0
O67 O 0.66386 0.36167 0.18834 0.0
O68 O 0.5702 0.2822 0.15963 0.0
O69 O 0.60229 0.26428 0.19051 0.0
O70 O 0.20792 0.18451 0.64544 0.0
Cd71 Cd 0.18964 0.177 0.68034 0.0
Cd72 Cd 0.23111 0.11236 0.67091 0.0
O73 O 0.24494 0.13967 0.64022 0.0
O74 O 0.16619 0.22332 0.68743 0.0
O75 O 0.21184 0.20359 0.70824 0.0
C76 C 0.18881 0.22823 0.70445 0.0
C77 C 0.26725 0.06958 0.68908 0.0
C78 C 0.23026 0.16781 0.63256 0.0
C79 C 0.15196 0.1071 0.67984 0.0
O80 O 0.18053 0.09392 0.67195 0.0
O81 O 0.15036 0.13948 0.68603 0.0
O82 O 0.2563 0.06625 0.66725 0.0
O83 O 0.26073 0.09909 0.69998 0.0
O84 O 0.30936 0.68736 0.1424 0.0
Cd85 Cd 0.31549 0.68115 0.17952 0.0
Cd86 Cd 0.38078 0.71168 0.1645 0.0
O87 O 0.35107 0.72693 0.13527 0.0
O88 O 0.26811 0.66524 0.19146 0.0
O89 O 0.29134 0.71705 0.201 0.0
C90 C 0.26524 0.69512 0.20249 0.0
C91 C 0.42991 0.74373 0.17864 0.0
C92 C 0.32434 0.70926 0.12824 0.0
C93 C 0.37913 0.63646 0.18117 0.0
O94 O 0.39174 0.65881 0.1665 0.0
O95 O 0.35038 0.64283 0.19219 0.0
O96 O 0.42965 0.72925 0.15764 0.0
O97 O 0.40097 0.74275 0.19098 0.0
O98 O 0.79384 0.81152 0.63626 0.0
Cd99 Cd 0.80853 0.81443 0.67201 0.0
Cd100 Cd 0.77345 0.88676 0.66275 0.0
O101 O 0.76542 0.86194 0.6297 0.0
O102 O 0.82649 0.76567 0.6786 0.0
O103 O 0.78123 0.78893 0.69812 0.0
C104 C 0.80225 0.76242 0.69473 0.0
C105 C 0.73798 0.93465 0.67498 0.0
C106 C 0.77685 0.83211 0.62228 0.0
C107 C 0.85103 0.88017 0.68031 0.0
O108 O 0.82417 0.89772 0.67362 0.0
O109 O 0.85058 0.84659 0.68091 0.0
O110 O 0.75807 0.93645 0.65633 0.0
O111 O 0.73537 0.90437 0.68559 0.0
H112 H 0.10841 0.12 0.27809 0.0
H113 H 0.06435 0.07352 0.27122 0.0
H114 H 0.08373 0.03301 0.34274 0.0
H115 H 0.12863 0.07868 0.34914 0.0
H116 H 0.06484 0.98056 0.31414 0.0
H117 H 0.02288 0.09831 0.33142 0.0
H118 H 0.01618 0.1624 0.32461 0.0
H119 H 0.96644 0.14212 0.2564 0.0
H120 H 0.97369 0.07781 0.26254 0.0
H121 H 0.90836 0.91643 0.35684 0.0
H122 H 0.9527 0.96235 0.35066 0.0
H123 H 0.92454 0.96809 0.27543 0.0
H124 H 0.87928 0.92229 0.28167 0.0
H125 H 0.94752 0.03558 0.29903 0.0
H126 H 0.98359 0.91372 0.28778 0.0
H127 H 0.98449 0.85165 0.30143 0.0
H128 H 0.04202 0.88205 0.36487 0.0
H129 H 0.0406 0.94446 0.35195 0.0
C130 C 0.10443 0.09999 0.29179 0.0
C131 C 0.12201 0.10237 0.31399 0.0
C132 C 0.079 0.07376 0.288 0.0
C133 C 0.0701 0.05038 0.3067 0.0
C134 C 0.09008 0.0508 0.32807 0.0
C135 C 0.11586 0.07673 0.3317 0.0
C136 C 0.03731 0.02889 0.30549 0.0
C137 C 0.03928 0.9926 0.31071 0.0
C138 C 0.00379 0.04458 0.30096 0.0
C139 C 0.99936 0.08325 0.29726 0.0
C140 C 0.01084 0.10751 0.31486 0.0
C141 C 0.00692 0.14389 0.31113 0.0
C142 C 0.99103 0.15634 0.29004 0.0
C143 C 0.9789 0.13243 0.27267 0.0
C144 C 0.98298 0.09601 0.27624 0.0
C145 C 0.91076 0.92836 0.33916 0.0
C146 C 0.89086 0.91562 0.31964 0.0
C147 C 0.93606 0.95454 0.33567 0.0
C148 C 0.94232 0.96788 0.3125 0.0
C149 C 0.92007 0.95789 0.29341 0.0
C150 C 0.89427 0.93184 0.29699 0.0
C151 C 0.97528 0.9877 0.30793 0.0
C152 C 0.97327 0.02351 0.30173 0.0
C153 C 0.00866 0.97179 0.31205 0.0
C154 C 0.01182 0.93388 0.31894 0.0
C155 C 0.99627 0.90722 0.30471 0.0
C156 C 0.99671 0.87198 0.31237 0.0
C157 C 0.01313 0.86295 0.33407 0.0
C158 C 0.02921 0.88912 0.3481 0.0
C159 C 0.02863 0.92443 0.3406 0.0
H160 H 0.01361 0.83568 0.33994 0.0
H161 H 0.98805 0.1845 0.28716 0.0
H162 H 0.41547 0.62383 0.80584 0.0
H163 H 0.46445 0.58249 0.7989 0.0
H164 H 0.39037 0.49592 0.79448 0.0
H165 H 0.34166 0.53671 0.80178 0.0
H166 H 0.44035 0.48194 0.82609 0.0
H167 H 0.43697 0.52421 0.74489 0.0
H168 H 0.43681 0.5688 0.7125 0.0
H169 H 0.53936 0.60494 0.73484 0.0
H170 H 0.53994 0.5609 0.7676 0.0
H171 H 0.57686 0.35546 0.80725 0.0
H172 H 0.52382 0.39085 0.79883 0.0
H173 H 0.58589 0.4864 0.80309 0.0
H174 H 0.63864 0.45166 0.8109 0.0
H175 H 0.53896 0.49148 0.76756 0.0
H176 H 0.53867 0.45664 0.85144 0.0
H177 H 0.53961 0.41397 0.88503 0.0
H178 H 0.44434 0.36599 0.85844 0.0
H179 H 0.4431 0.40815 0.82449 0.0
C180 C 0.40964 0.5961 0.80293 0.0
C181 C 0.3748 0.58347 0.80468 0.0
C182 C 0.43761 0.5725 0.79888 0.0
C183 C 0.43104 0.53607 0.79619 0.0
C184 C 0.39607 0.52383 0.79666 0.0
C185 C 0.36827 0.54724 0.80086 0.0
C186 C 0.46056 0.51024 0.79531 0.0
C187 C 0.46151 0.4836 0.81293 0.0
C188 C 0.4886 0.5129 0.77855 0.0
C189 C 0.48835 0.53943 0.75885 0.0
C190 C 0.45936 0.54186 0.74304 0.0
C191 C 0.45922 0.567 0.72458 0.0
C192 C 0.48802 0.58974 0.72165 0.0
C193 C 0.51706 0.58733 0.73714 0.0
C194 C 0.51732 0.56225 0.75564 0.0
C195 C 0.57921 0.38396 0.80613 0.0
C196 C 0.6119 0.40069 0.81009 0.0
C197 C 0.54892 0.40415 0.80136 0.0
C198 C 0.55089 0.44131 0.80061 0.0
C199 C 0.58374 0.45782 0.80355 0.0
C200 C 0.61387 0.43781 0.80825 0.0
C201 C 0.5187 0.46348 0.7984 0.0
C202 C 0.51737 0.4895 0.78036 0.0
C203 C 0.49035 0.46052 0.81489 0.0
C204 C 0.49104 0.43522 0.83528 0.0
C205 C 0.51808 0.4368 0.85266 0.0
C206 C 0.51865 0.41275 0.87177 0.0
C207 C 0.49212 0.3872 0.87382 0.0
C208 C 0.46491 0.38574 0.85679 0.0
C209 C 0.46426 0.4097 0.83762 0.0
H210 H 0.49259 0.36861 0.88864 0.0
H211 H 0.48786 0.60918 0.70734 0.0
H212 H 0.61608 0.39298 0.22575 0.0
H213 H 0.57471 0.44133 0.23535 0.0
H214 H 0.57165 0.47042 0.16022 0.0
H215 H 0.6119 0.42167 0.1506 0.0
H216 H 0.5723 0.52923 0.19363 0.0
H217 H 0.51421 0.41588 0.1781 0.0
H218 H 0.50267 0.35287 0.18656 0.0
H219 H 0.46885 0.37943 0.25821 0.0
H220 H 0.48093 0.44259 0.25031 0.0
H221 H 0.42124 0.60202 0.14974 0.0
H222 H 0.4655 0.5572 0.15888 0.0
H223 H 0.43034 0.5543 0.2328 0.0
H224 H 0.38508 0.59929 0.22356 0.0
H225 H 0.45138 0.48613 0.2125 0.0
H226 H 0.49572 0.6032 0.22212 0.0
H227 H 0.50412 0.66537 0.21007 0.0
H228 H 0.5639 0.6321 0.14835 0.0
H229 H 0.55448 0.56965 0.1593 0.0
C230 C 0.60749 0.41061 0.21153 0.0
C231 C 0.61728 0.40418 0.18752 0.0
C232 C 0.58375 0.43792 0.21697 0.0
C233 C 0.57012 0.45923 0.19845 0.0
C234 C 0.58206 0.45435 0.17475 0.0
C235 C 0.60508 0.42667 0.16926 0.0
C236 C 0.54058 0.48403 0.20284 0.0
C237 C 0.54591 0.51999 0.19799 0.0
C238 C 0.50637 0.47182 0.20906 0.0
C239 C 0.49904 0.43388 0.21376 0.0
C240 C 0.50472 0.40825 0.19575 0.0
C241 C 0.49801 0.37252 0.20042 0.0
C242 C 0.48519 0.36214 0.22294 0.0
C243 C 0.47893 0.3875 0.2408 0.0
C244 C 0.48574 0.42326 0.23625 0.0
C245 C 0.42237 0.59134 0.16784 0.0
C246 C 0.4001 0.60439 0.18604 0.0
C247 C 0.4477 0.56579 0.17304 0.0
C248 C 0.45169 0.55317 0.19662 0.0
C249 C 0.42774 0.56401 0.21452 0.0
C250 C 0.40193 0.58955 0.20923 0.0
C251 C 0.48292 0.53116 0.20241 0.0
C252 C 0.47794 0.49575 0.20908 0.0
C253 C 0.51752 0.54386 0.19778 0.0
C254 C 0.52428 0.58157 0.19154 0.0
C255 C 0.51048 0.60906 0.20589 0.0
C256 C 0.51541 0.6444 0.19925 0.0
C257 C 0.53473 0.65268 0.17857 0.0
C258 C 0.54902 0.62564 0.16441 0.0
C259 C 0.5438 0.59024 0.17079 0.0
H260 H 0.53861 0.68004 0.1735 0.0
H261 H 0.48002 0.33447 0.22652 0.0
H262 H 0.08696 0.12182 0.69991 0.0
H263 H 0.03665 0.08121 0.70393 0.0
H264 H 0.097 0.99865 0.6693 0.0
H265 H 0.1469 0.0386 0.6651 0.0
H266 H 0.03131 0.00431 0.65048 0.0
H267 H 0.08503 0.99572 0.72826 0.0
H268 H 0.10926 0.01789 0.76666 0.0
H269 H 0.00784 0.0612 0.78528 0.0
H270 H 0.98311 0.03972 0.74678 0.0
H271 H 0.91967 0.85872 0.67499 0.0
H272 H 0.9727 0.89566 0.67931 0.0
H273 H 0.9082 0.98268 0.70389 0.0
H274 H 0.85519 0.9463 0.69919 0.0
H275 H 0.97629 0.97371 0.72896 0.0
H276 H 0.92443 0.9843 0.6494 0.0
H277 H 0.90105 0.9606 0.61115 0.0
H278 H 0.00127 0.91171 0.59629 0.0
H279 H 0.02506 0.93468 0.63469 0.0
C280 C 0.08942 0.09505 0.69312 0.0
C281 C 0.12091 0.08354 0.68214 0.0
C282 C 0.06079 0.07185 0.69554 0.0
C283 C 0.06326 0.03691 0.687 0.0
C284 C 0.09455 0.02551 0.67596 0.0
C285 C 0.12308 0.04848 0.67362 0.0
C286 C 0.03309 0.0122 0.68895 0.0
C287 C 0.0196 0.99732 0.66768 0.0
C288 C 0.01757 0.00346 0.71136 0.0
C289 C 0.03232 0.01647 0.73451 0.0
C290 C 0.06797 0.01027 0.74043 0.0
C291 C 0.08178 0.02265 0.76224 0.0
C292 C 0.06013 0.04104 0.77837 0.0
C293 C 0.0246 0.04701 0.77274 0.0
C294 C 0.01066 0.03472 0.75094 0.0
C295 C 0.91696 0.88547 0.6818 0.0
C296 C 0.88341 0.89984 0.6865 0.0
C297 C 0.94716 0.90649 0.68423 0.0
C298 C 0.94415 0.94186 0.69178 0.0
C299 C 0.91095 0.95542 0.69808 0.0
C300 C 0.88076 0.93469 0.69524 0.0
C301 C 0.97484 0.96588 0.69053 0.0
C302 C 0.98824 0.98069 0.71184 0.0
C303 C 0.99052 0.97446 0.66818 0.0
C304 C 0.97637 0.96083 0.64503 0.0
C305 C 0.94137 0.96821 0.63808 0.0
C306 C 0.92806 0.95497 0.61636 0.0
C307 C 0.94963 0.93456 0.60134 0.0
C308 C 0.98458 0.92745 0.60798 0.0
C309 C 0.99798 0.94058 0.62971 0.0
H310 H 0.93929 0.92434 0.58452 0.0
H311 H 0.07087 0.05058 0.79525 0.0
H312 H 0.2358 0.23449 0.4014 0.0
H313 H 0.25045 0.23557 0.44436 0.0
H314 H 0.14372 0.20362 0.46143 0.0
H315 H 0.12849 0.2051 0.4187 0.0
H316 H 0.16267 0.24336 0.49447 0.0
H317 H 0.21905 0.1438 0.45703 0.0
H318 H 0.25749 0.11301 0.42782 0.0
H319 H 0.34738 0.1709 0.45397 0.0
H320 H 0.30936 0.20234 0.48315 0.0
H321 H 0.24457 0.12519 0.59424 0.0
H322 H 0.23994 0.14035 0.55167 0.0
H323 H 0.22325 0.24997 0.57062 0.0
H324 H 0.22541 0.2343 0.61339 0.0
H325 H 0.26886 0.1757 0.51963 0.0
H326 H 0.16872 0.29032 0.53188 0.0
H327 H 0.12334 0.31021 0.56088 0.0
H328 H 0.10894 0.20321 0.5849 0.0
H329 H 0.15391 0.18267 0.55586 0.0
C330 C 0.21537 0.22833 0.41442 0.0
C331 C 0.18106 0.21958 0.40675 0.0
C332 C 0.22382 0.22862 0.43897 0.0
C333 C 0.19853 0.21869 0.45627 0.0
C334 C 0.16384 0.21135 0.44859 0.0
C335 C 0.15511 0.21215 0.42411 0.0
C336 C 0.2083 0.2143 0.48217 0.0
C337 C 0.18599 0.22867 0.49991 0.0
C338 C 0.23837 0.19459 0.48952 0.0
C339 C 0.26131 0.17569 0.47206 0.0
C340 C 0.24698 0.15011 0.45644 0.0
C341 C 0.26869 0.13253 0.4399 0.0
C342 C 0.30483 0.14007 0.43899 0.0
C343 C 0.31936 0.16514 0.45466 0.0
C344 C 0.29776 0.18283 0.47121 0.0
C345 C 0.24051 0.15263 0.58933 0.0
C346 C 0.23501 0.17851 0.60713 0.0
C347 C 0.23784 0.16133 0.56492 0.0
C348 C 0.23031 0.19622 0.55777 0.0
C349 C 0.22787 0.22265 0.57558 0.0
C350 C 0.22947 0.21377 0.60003 0.0
C351 C 0.22284 0.20414 0.53191 0.0
C352 C 0.24571 0.19065 0.51419 0.0
C353 C 0.19226 0.22303 0.52455 0.0
C354 C 0.16498 0.23507 0.54192 0.0
C355 C 0.15579 0.27106 0.54332 0.0
C356 C 0.13016 0.28244 0.55976 0.0
C357 C 0.11337 0.25801 0.57479 0.0
C358 C 0.12206 0.22212 0.57332 0.0
C359 C 0.14763 0.2106 0.55689 0.0
H360 H 0.09357 0.26687 0.58752 0.0
H361 H 0.3216 0.12644 0.42618 0.0
H362 H 0.24582 0.62889 0.91059 0.0
H363 H 0.24752 0.64298 0.95361 0.0
H364 H 0.31661 0.73119 0.93921 0.0
H365 H 0.31535 0.71722 0.89627 0.0
H366 H 0.3422 0.69013 0.97459 0.0
H367 H 0.23091 0.74449 0.95591 0.0
H368 H 0.17032 0.74715 0.93958 0.0
H369 H 0.13795 0.66481 0.98803 0.0
H370 H 0.1985 0.66131 0.00444 0.0
H371 H 0.34806 0.75468 0.09333 0.0
H372 H 0.33524 0.75255 0.05019 0.0
H373 H 0.26331 0.66571 0.06181 0.0
H374 H 0.27531 0.66817 0.10504 0.0
H375 H 0.23816 0.70873 0.02759 0.0
H376 H 0.34887 0.65109 0.04424 0.0
H377 H 0.4094 0.64638 0.06051 0.0
H378 H 0.44274 0.73245 0.01549 0.0
H379 H 0.38225 0.738 0.99919 0.0
C380 C 0.26105 0.65155 0.91651 0.0
C381 C 0.28056 0.67181 0.89991 0.0
C382 C 0.26188 0.65965 0.94113 0.0
C383 C 0.28208 0.68825 0.94964 0.0
C384 C 0.30088 0.70899 0.93306 0.0
C385 C 0.30004 0.70096 0.90848 0.0
C386 C 0.2855 0.69521 0.97591 0.0
C387 C 0.31947 0.69484 0.98609 0.0
C388 C 0.25579 0.70031 0.99105 0.0
C389 C 0.21934 0.70242 0.98125 0.0
C390 C 0.21095 0.72674 0.96295 0.0
C391 C 0.17659 0.72845 0.9537 0.0
C392 C 0.15032 0.70611 0.96272 0.0
C393 C 0.15834 0.68208 0.98104 0.0
C394 C 0.19266 0.68025 0.99034 0.0
C395 C 0.3291 0.73546 0.08679 0.0
C396 C 0.31304 0.71132 0.10266 0.0
C397 C 0.3219 0.73418 0.06208 0.0
C398 C 0.29889 0.70846 0.05268 0.0
C399 C 0.28129 0.68567 0.06862 0.0
C400 C 0.28827 0.68708 0.09336 0.0
C401 C 0.29488 0.7038 0.0262 0.0
C402 C 0.26087 0.70438 0.01602 0.0
C403 C 0.32454 0.6986 0.01101 0.0
C404 C 0.36096 0.6952 0.0207 0.0
C405 C 0.36905 0.66918 0.03794 0.0
C406 C 0.40336 0.66634 0.04715 0.0
C407 C 0.42987 0.68917 0.03909 0.0
C408 C 0.42216 0.71483 0.02175 0.0
C409 C 0.38788 0.71783 0.01251 0.0
H410 H 0.45642 0.68692 0.04624 0.0
H411 H 0.12374 0.70747 0.95553 0.0
H412 H 0.74568 0.86998 0.58564 0.0
H413 H 0.74717 0.85654 0.54246 0.0
H414 H 0.80232 0.75902 0.55715 0.0
H415 H 0.80101 0.77209 0.60018 0.0
H416 H 0.83598 0.79926 0.52339 0.0
H417 H 0.718 0.75707 0.53793 0.0
H418 H 0.65655 0.76139 0.55252 0.0
H419 H 0.63738 0.8484 0.50456 0.0
H420 H 0.69887 0.84492 0.48991 0.0
H421 H 0.84602 0.74751 0.40149 0.0
H422 H 0.83153 0.74538 0.44447 0.0
H423 H 0.7615 0.83467 0.43567 0.0
H424 H 0.77446 0.83583 0.39275 0.0
H425 H 0.73413 0.79374 0.46716 0.0
H426 H 0.85076 0.84209 0.45584 0.0
H427 H 0.91258 0.84249 0.44164 0.0
H428 H 0.93483 0.75005 0.48396 0.0
H429 H 0.87299 0.74885 0.49817 0.0
C430 C 0.7576 0.84538 0.57974 0.0
C431 C 0.77339 0.82225 0.59645 0.0
C432 C 0.75836 0.8377 0.55503 0.0
C433 C 0.77486 0.80675 0.54658 0.0
C434 C 0.78953 0.78308 0.56326 0.0
C435 C 0.78865 0.79062 0.58791 0.0
C436 C 0.77922 0.80025 0.52033 0.0
C437 C 0.81368 0.79741 0.51114 0.0
C438 C 0.75019 0.7989 0.50427 0.0
C439 C 0.71315 0.80091 0.51297 0.0
C440 C 0.70077 0.7773 0.53063 0.0
C441 C 0.66591 0.77957 0.53888 0.0
C442 C 0.6431 0.80521 0.52951 0.0
C443 C 0.65508 0.82857 0.51181 0.0
C444 C 0.68992 0.82644 0.50351 0.0
C445 C 0.82707 0.76628 0.40866 0.0
C446 C 0.81167 0.79203 0.39368 0.0
C447 C 0.81898 0.76522 0.43328 0.0
C448 C 0.79607 0.79047 0.44353 0.0
C449 C 0.77933 0.81497 0.42833 0.0
C450 C 0.78688 0.81562 0.4037 0.0
C451 C 0.79099 0.79294 0.47013 0.0
C452 C 0.75645 0.79518 0.47941 0.0
C453 C 0.81999 0.79442 0.4863 0.0
C454 C 0.85718 0.79515 0.47783 0.0
C455 C 0.86879 0.82172 0.46198 0.0
C456 C 0.90383 0.8221 0.45395 0.0
C457 C 0.92759 0.79625 0.46183 0.0
C458 C 0.91638 0.77001 0.47782 0.0
C459 C 0.88135 0.76947 0.48588 0.0
H460 H 0.95471 0.7966 0.4556 0.0
H461 H 0.61612 0.80692 0.53593 0.0
H462 H 0.72021 0.37817 0.91246 0.0
H463 H 0.7214 0.36321 0.95512 0.0
H464 H 0.73505 0.25283 0.93699 0.0
H465 H 0.7311 0.26768 0.89412 0.0
H466 H 0.69193 0.25405 0.96971 0.0
H467 H 0.80351 0.30886 0.96399 0.0
H468 H 0.8479 0.35382 0.95307 0.0
H469 H 0.79507 0.43034 0.9976 0.0
H470 H 0.75007 0.386 0.00855 0.0
H471 H 0.7431 0.28672 0.10734 0.0
H472 H 0.75979 0.28429 0.06473 0.0
H473 H 0.64939 0.28147 0.04488 0.0
H474 H 0.63285 0.28174 0.08722 0.0
H475 H 0.75243 0.32718 0.03143 0.0
H476 H 0.63325 0.24646 0.99201 0.0
H477 H 0.59721 0.19461 0.00305 0.0
H478 H 0.68057 0.15693 0.04891 0.0
H479 H 0.71733 0.20828 0.0379 0.0
C480 C 0.72399 0.35077 0.91758 0.0
C481 C 0.7257 0.32409 0.89998 0.0
C482 C 0.72493 0.3422 0.94206 0.0
C483 C 0.72901 0.30687 0.94955 0.0
C484 C 0.73182 0.28029 0.93185 0.0
C485 C 0.72975 0.28877 0.90734 0.0
C486 C 0.72771 0.2976 0.97571 0.0
C487 C 0.70549 0.26988 0.98315 0.0
C488 C 0.74624 0.31726 0.99345 0.0
C489 C 0.77328 0.34411 0.98698 0.0
C490 C 0.80123 0.33533 0.97134 0.0
C491 C 0.82652 0.36071 0.96516 0.0
C492 C 0.82428 0.39493 0.97461 0.0
C493 C 0.79678 0.40383 0.9903 0.0
C494 C 0.7714 0.37856 0.99653 0.0
C495 C 0.72247 0.28483 0.09385 0.0
C496 C 0.68667 0.28418 0.10066 0.0
C497 C 0.73202 0.2836 0.06947 0.0
C498 C 0.70595 0.28227 0.05139 0.0
C499 C 0.67019 0.28136 0.0583 0.0
C500 C 0.66069 0.28173 0.08262 0.0
C501 C 0.71572 0.28447 0.02537 0.0
C502 C 0.73944 0.31091 0.01797 0.0
C503 C 0.69988 0.26254 0.00767 0.0
C504 C 0.67797 0.2314 0.01423 0.0
C505 C 0.64399 0.22703 0.00434 0.0
C506 C 0.62341 0.19774 0.01063 0.0
C507 C 0.63656 0.17254 0.02672 0.0
C508 C 0.67037 0.17653 0.03651 0.0
C509 C 0.69107 0.20575 0.03028 0.0
H510 H 0.62057 0.1499 0.03156 0.0
H511 H 0.84388 0.41454 0.96979 0.0
H512 H 0.5651 0.23096 0.22311 0.0
H513 H 0.51007 0.2175 0.24461 0.0
H514 H 0.44961 0.26085 0.1857 0.0
H515 H 0.50416 0.27425 0.16416 0.0
H516 H 0.4292 0.2878 0.22939 0.0
H517 H 0.45171 0.17312 0.19447 0.0
H518 H 0.48713 0.11973 0.18596 0.0
H519 H 0.49408 0.0977 0.26172 0.0
H520 H 0.45909 0.15125 0.2707 0.0
H521 H 0.25719 0.23656 0.26782 0.0
H522 H 0.31193 0.24648 0.24524 0.0
H523 H 0.3705 0.18883 0.29924 0.0
H524 H 0.31584 0.17771 0.32126 0.0
H525 H 0.39248 0.16906 0.25784 0.0
H526 H 0.37163 0.28248 0.29377 0.0
H527 H 0.3385 0.3368 0.30373 0.0
H528 H 0.33122 0.36271 0.22857 0.0
H529 H 0.36388 0.30827 0.21813 0.0
C530 C 0.54007 0.23706 0.21457 0.0
C531 C 0.53906 0.25355 0.19188 0.0
C532 C 0.50865 0.22939 0.22688 0.0
C533 C 0.47573 0.23816 0.21673 0.0
C534 C 0.47469 0.25391 0.19388 0.0
C535 C 0.50597 0.26134 0.18153 0.0
C536 C 0.44235 0.23239 0.23026 0.0
C537 C 0.42089 0.26178 0.23537 0.0
C538 C 0.43209 0.19862 0.23864 0.0
C539 C 0.45308 0.16639 0.23326 0.0
C540 C 0.46105 0.15706 0.20932 0.0
C541 C 0.48099 0.12673 0.20441 0.0
C542 C 0.49293 0.10539 0.22329 0.0
C543 C 0.48486 0.11428 0.24711 0.0
C544 C 0.46495 0.1446 0.25212 0.0
C545 C 0.28178 0.22614 0.27489 0.0
C546 C 0.28218 0.20636 0.29631 0.0
C547 C 0.31312 0.23196 0.26203 0.0
C548 C 0.34558 0.21878 0.27064 0.0
C549 C 0.3459 0.19922 0.29213 0.0
C550 C 0.31459 0.19296 0.30476 0.0
C551 C 0.37911 0.22455 0.25709 0.0
C552 C 0.40067 0.19515 0.25194 0.0
C553 C 0.38972 0.25844 0.24893 0.0
C554 C 0.36984 0.29107 0.25516 0.0
C555 C 0.36268 0.29959 0.27935 0.0
C556 C 0.34404 0.33044 0.28509 0.0
C557 C 0.33267 0.35313 0.26679 0.0
C558 C 0.33998 0.34507 0.24272 0.0
C559 C 0.35857 0.31423 0.23688 0.0
H560 H 0.31827 0.37701 0.27127 0.0
H561 H 0.50836 0.08191 0.21945 0.0
H562 H 0.35948 0.77253 0.78633 0.0
H563 H 0.35496 0.83095 0.76787 0.0
H564 H 0.2412 0.82633 0.77387 0.0
H565 H 0.2457 0.76673 0.79092 0.0
H566 H 0.25402 0.856 0.73498 0.0
H567 H 0.29802 0.87668 0.8139 0.0
H568 H 0.33717 0.86968 0.84913 0.0
H569 H 0.42566 0.90559 0.80732 0.0
H570 H 0.38711 0.91238 0.77174 0.0
H571 H 0.27368 0.05995 0.73787 0.0
H572 H 0.28278 0.00353 0.75871 0.0
H573 H 0.30076 0.95187 0.69044 0.0
H574 H 0.29112 0.00783 0.66954 0.0
H575 H 0.33164 0.9532 0.76365 0.0
H576 H 0.25669 0.87438 0.68892 0.0
H577 H 0.20982 0.88512 0.65882 0.0
H578 H 0.16979 0.97125 0.7014 0.0
H579 H 0.21603 0.96068 0.7319 0.0
C580 C 0.3335 0.78392 0.78356 0.0
C581 C 0.30294 0.76516 0.79014 0.0
C582 C 0.33092 0.81753 0.7732 0.0
C583 C 0.29777 0.83376 0.77 0.0
C584 C 0.26714 0.81464 0.77617 0.0
C585 C 0.26969 0.78055 0.78594 0.0
C586 C 0.29512 0.87043 0.76009 0.0
C587 C 0.27105 0.87713 0.74133 0.0
C588 C 0.31644 0.89867 0.76873 0.0
C589 C 0.33972 0.89475 0.7901 0.0
C590 C 0.32587 0.88287 0.81218 0.0
C591 C 0.34795 0.87897 0.83221 0.0
C592 C 0.3839 0.88711 0.83045 0.0
C593 C 0.39782 0.89926 0.80866 0.0
C594 C 0.37586 0.90318 0.78855 0.0
C595 C 0.28051 0.03677 0.72735 0.0
C596 C 0.28134 0.03831 0.70203 0.0
C597 C 0.28558 0.00448 0.73929 0.0
C598 C 0.29158 0.97328 0.7261 0.0
C599 C 0.29534 0.97542 0.70097 0.0
C600 C 0.29008 0.00753 0.68905 0.0
C601 C 0.2914 0.93816 0.73822 0.0
C602 C 0.31476 0.93189 0.75738 0.0
C603 C 0.26831 0.91075 0.73072 0.0
C604 C 0.2401 0.91694 0.71256 0.0
C605 C 0.23781 0.89551 0.6919 0.0
C606 C 0.21135 0.90158 0.67477 0.0
C607 C 0.18693 0.92892 0.67816 0.0
C608 C 0.18881 0.95017 0.69874 0.0
C609 C 0.21516 0.94416 0.71594 0.0
H610 H 0.1665 0.9336 0.66486 0.0
H611 H 0.40095 0.88407 0.84598 0.0
H612 H 0.75082 0.7811 0.25526 0.0
H613 H 0.69472 0.77013 0.23413 0.0
H614 H 0.6403 0.83724 0.28492 0.0
H615 H 0.69604 0.84885 0.30577 0.0
H616 H 0.60788 0.769 0.27646 0.0
H617 H 0.65444 0.86965 0.23281 0.0
H618 H 0.69982 0.90126 0.20931 0.0
H619 H 0.69648 0.82028 0.15499 0.0
H620 H 0.65141 0.78791 0.17837 0.0
H621 H 0.43991 0.77933 0.22134 0.0
H622 H 0.49634 0.79524 0.24011 0.0
H623 H 0.55232 0.75234 0.17892 0.0
H624 H 0.49621 0.73772 0.15975 0.0
H625 H 0.5851 0.808 0.19253 0.0
H626 H 0.5439 0.70535 0.23396 0.0
H627 H 0.50168 0.66812 0.25649 0.0
H628 H 0.49857 0.74512 0.31343 0.0
H629 H 0.5405 0.7829 0.29112 0.0
C630 C 0.72691 0.79361 0.26184 0.0
C631 C 0.72791 0.81592 0.28214 0.0
C632 C 0.69493 0.78737 0.24975 0.0
C633 C 0.66338 0.80294 0.25797 0.0
C634 C 0.66432 0.82497 0.2783 0.0
C635 C 0.69627 0.83167 0.29012 0.0
C636 C 0.6292 0.79606 0.24563 0.0
C637 C 0.60268 0.77789 0.25821 0.0
C638 C 0.62291 0.80664 0.22157 0.0
C639 C 0.64984 0.82618 0.20746 0.0
C640 C 0.66361 0.85842 0.21596 0.0
C641 C 0.68923 0.87651 0.20264 0.0
C642 C 0.7011 0.86274 0.18071 0.0
C643 C 0.6873 0.83089 0.17201 0.0
C644 C 0.6617 0.81268 0.18527 0.0
C645 C 0.46423 0.77379 0.21174 0.0
C646 C 0.46348 0.75725 0.18905 0.0
C647 C 0.49655 0.78257 0.2226 0.0
C648 C 0.5288 0.77434 0.2112 0.0
C649 C 0.52796 0.75897 0.18816 0.0
C650 C 0.49573 0.75062 0.17719 0.0
C651 C 0.56338 0.78101 0.22339 0.0
C652 C 0.5901 0.79908 0.21079 0.0
C653 C 0.57021 0.76959 0.24727 0.0
C654 C 0.54493 0.7471 0.26074 0.0
C655 C 0.53391 0.71444 0.25118 0.0
C656 C 0.51012 0.69323 0.26393 0.0
C657 C 0.49734 0.70433 0.28632 0.0
C658 C 0.50843 0.7366 0.29606 0.0
C659 C 0.53224 0.75789 0.28339 0.0
H660 H 0.47892 0.68788 0.29616 0.0
H661 H 0.72093 0.87678 0.17042 0.0
H662 H 0.72554 0.24897 0.76025 0.0
H663 H 0.72825 0.19326 0.73747 0.0
H664 H 0.6654 0.14199 0.792 0.0
H665 H 0.66207 0.19748 0.81462 0.0
H666 H 0.72718 0.10356 0.77762 0.0
H667 H 0.6262 0.16255 0.74253 0.0
H668 H 0.59558 0.21236 0.72283 0.0
H669 H 0.66731 0.20609 0.663 0.0
H670 H 0.69869 0.15653 0.68252 0.0
H671 H 0.70027 0.94212 0.71703 0.0
H672 H 0.68614 0.99757 0.73783 0.0
H673 H 0.72969 0.05678 0.67842 0.0
H674 H 0.74282 0.00177 0.65731 0.0
H675 H 0.67574 0.09143 0.69573 0.0
H676 H 0.77899 0.03737 0.7293 0.0
H677 H 0.81424 0.98977 0.74791 0.0
H678 H 0.74485 0.98936 0.80917 0.0
H679 H 0.70886 0.03665 0.79072 0.0
C680 C 0.71233 0.22581 0.76737 0.0
C681 C 0.69353 0.22765 0.7892 0.0
C682 C 0.71379 0.19407 0.75431 0.0
C683 C 0.69686 0.16357 0.76301 0.0
C684 C 0.67859 0.16522 0.78496 0.0
C685 C 0.67665 0.197 0.79782 0.0
C686 C 0.69834 0.12977 0.74936 0.0
C687 C 0.71548 0.1007 0.75986 0.0
C688 C 0.68398 0.12643 0.72592 0.0
C689 C 0.665 0.15606 0.7141 0.0
C690 C 0.63563 0.17199 0.72527 0.0
C691 C 0.6181 0.20013 0.71412 0.0
C692 C 0.62955 0.21244 0.69171 0.0
C693 C 0.6585 0.19656 0.68037 0.0
C694 C 0.67615 0.16842 0.69146 0.0
C695 C 0.70604 0.96696 0.70815 0.0
C696 C 0.72298 0.96745 0.6856 0.0
C697 C 0.69824 0.99867 0.72015 0.0
C698 C 0.70766 0.03142 0.70997 0.0
C699 C 0.72234 0.03194 0.68676 0.0
C700 C 0.72988 1.00034 0.6747 0.0
C701 C 0.70452 0.06495 0.724 0.0
C702 C 0.68722 0.09408 0.71356 0.0
C703 C 0.7194 0.06861 0.74733 0.0
C704 C 0.741 0.04025 0.75851 0.0
C705 C 0.77109 0.02693 0.74665 0.0
C706 C 0.79123 1.00004 0.75718 0.0
C707 C 0.78173 0.98648 0.77968 0.0
C708 C 0.75212 0.99985 0.79172 0.0
C709 C 0.73185 0.0267 0.78124 0.0
H710 H 0.79736 0.96566 0.78781 0.0
H711 H 0.61594 0.23424 0.6831 0.0
H712 H 0.05755 0.28606 0.28941 0.0
H713 H 0.00095 0.29982 0.26991 0.0
H714 H 0.9459 0.23923 0.32392 0.0
H715 H 0.00198 0.22577 0.34364 0.0
H716 H 0.92895 0.2197 0.27654 0.0
H717 H 0.93713 0.32498 0.32485 0.0
H718 H 0.96557 0.379 0.34054 0.0
H719 H 0.97069 0.42169 0.26894 0.0
H720 H 0.94271 0.36767 0.25277 0.0
H721 H 0.75343 0.26085 0.23834 0.0
H722 H 0.80748 0.25175 0.26194 0.0
H723 H 0.86248 0.32675 0.21694 0.0
H724 H 0.80852 0.3367 0.19388 0.0
H725 H 0.87901 0.33896 0.26126 0.0
H726 H 0.87336 0.23467 0.21217 0.0
H727 H 0.84749 0.18025 0.19509 0.0
H728 H 0.84067 0.13503 0.26589 0.0
H729 H 0.866 0.18942 0.28344 0.0
C730 C 0.03334 0.27628 0.29741 0.0
C731 C 0.03433 0.25475 0.31805 0.0
C732 C 0.00103 0.28411 0.28623 0.0
C733 C 0.96926 0.27041 0.29544 0.0
C734 C 0.97011 0.24997 0.31649 0.0
C735 C 0.00225 0.24245 0.32778 0.0
C736 C 0.93536 0.27564 0.28243 0.0
C737 C 0.91769 0.24573 0.27348 0.0
C738 C 0.9213 0.30964 0.2779 0.0
C739 C 0.93816 0.34212 0.28757 0.0
C740 C 0.94462 0.34574 0.31242 0.0
C741 C 0.96059 0.37639 0.3214 0.0
C742 C 0.97003 0.40372 0.30574 0.0
C743 C 0.96342 0.40048 0.28105 0.0
C744 C 0.94748 0.36986 0.27197 0.0
C745 C 0.77709 0.27531 0.23347 0.0
C746 C 0.77666 0.29948 0.21423 0.0
C747 C 0.80804 0.26999 0.24691 0.0
C748 C 0.83928 0.2883 0.24111 0.0
C749 C 0.83878 0.31237 0.22186 0.0
C750 C 0.80787 0.31795 0.20862 0.0
C751 C 0.87246 0.28296 0.25516 0.0
C752 C 0.89009 0.31286 0.26433 0.0
C753 C 0.88673 0.24891 0.25964 0.0
C754 C 0.87114 0.21632 0.24915 0.0
C755 C 0.866 0.21327 0.22413 0.0
C756 C 0.8515 0.1824 0.21436 0.0
C757 C 0.84232 0.15426 0.22941 0.0
C758 C 0.8477 0.15689 0.25426 0.0
C759 C 0.86212 0.18773 0.26413 0.0
H760 H 0.83113 0.13036 0.2218 0.0
H761 H 0.98237 0.42743 0.31273 0.0
H762 H 0.22442 0.24326 0.74641 0.0
H763 H 0.22465 0.29939 0.76876 0.0
H764 H 0.1538 0.34487 0.71635 0.0
H765 H 0.15301 0.28897 0.69416 0.0
H766 H 0.21396 0.38713 0.72704 0.0
H767 H 0.1212 0.3239 0.76848 0.0
H768 H 0.09616 0.27332 0.7907 0.0
H769 H 0.17387 0.28681 0.8464 0.0
H770 H 0.1997 0.33719 0.82433 0.0
H771 H 0.1889 0.5497 0.78609 0.0
H772 H 0.17347 0.49314 0.76721 0.0
H773 H 0.22503 0.43729 0.82521 0.0
H774 H 0.23924 0.49336 0.84452 0.0
H775 H 0.17162 0.40003 0.81123 0.0
H776 H 0.26803 0.45712 0.77113 0.0
H777 H 0.29862 0.50554 0.74992 0.0
H778 H 0.22177 0.50107 0.69299 0.0
H779 H 0.19044 0.4529 0.71405 0.0
C780 C 0.20876 0.26517 0.73973 0.0
C781 C 0.18867 0.26163 0.71853 0.0
C782 C 0.20883 0.29717 0.75255 0.0
C783 C 0.18911 0.32624 0.74425 0.0
C784 C 0.16915 0.32276 0.72308 0.0
C785 C 0.16868 0.29073 0.71047 0.0
C786 C 0.18998 0.36065 0.7572 0.0
C787 C 0.20418 0.39013 0.74532 0.0
C788 C 0.17824 0.36424 0.78128 0.0
C789 C 0.16258 0.33411 0.79464 0.0
C790 C 0.13313 0.3159 0.78537 0.0
C791 C 0.11876 0.2873 0.79795 0.0
C792 C 0.13346 0.2768 0.81992 0.0
C793 C 0.16252 0.29495 0.82937 0.0
C794 C 0.17702 0.32355 0.81685 0.0
C795 C 0.1961 0.52536 0.79513 0.0
C796 C 0.21564 0.52612 0.81668 0.0
C797 C 0.18756 0.493 0.78421 0.0
C798 C 0.19895 0.46087 0.79442 0.0
C799 C 0.21612 0.46161 0.81684 0.0
C800 C 0.22428 0.49383 0.82787 0.0
C801 C 0.19557 0.42675 0.78107 0.0
C802 C 0.18109 0.39723 0.79288 0.0
C803 C 0.20784 0.42286 0.75706 0.0
C804 C 0.22667 0.45171 0.7443 0.0
C805 C 0.25752 0.46664 0.75417 0.0
C806 C 0.27501 0.49401 0.74217 0.0
C807 C 0.26209 0.50645 0.72015 0.0
C808 C 0.2317 0.49146 0.71007 0.0
C809 C 0.21407 0.46412 0.72202 0.0
H810 H 0.27566 0.52764 0.71088 0.0
H811 H 0.1223 0.25465 0.82964 0.0
H812 H 0.22006 0.65013 0.2253 0.0
H813 H 0.16389 0.66448 0.24479 0.0
H814 H 0.17842 0.7746 0.22658 0.0
H815 H 0.23585 0.76049 0.20869 0.0
H816 H 0.15071 0.77438 0.26651 0.0
H817 H 0.12017 0.71281 0.19451 0.0
H818 H 0.12079 0.66426 0.16475 0.0
H819 H 0.07959 0.59279 0.21787 0.0
H820 H 0.07914 0.64083 0.24804 0.0
H821 H 0.94242 0.76424 0.26754 0.0
H822 H 0.99913 0.75247 0.24775 0.0
H823 H 0.05186 0.75671 0.31666 0.0
H824 H 0.99551 0.76888 0.33641 0.0
H825 H 0.04431 0.70207 0.24912 0.0
H826 H 0.12867 0.78595 0.31459 0.0
H827 H 0.12986 0.84477 0.33407 0.0
H828 H 0.0612 0.88582 0.27915 0.0
H829 H 0.05857 0.82696 0.25992 0.0
C830 C 0.21134 0.67744 0.22569 0.0
C831 C 0.23226 0.70421 0.21547 0.0
C832 C 0.17899 0.68562 0.23661 0.0
C833 C 0.16612 0.72056 0.23669 0.0
C834 C 0.18748 0.74741 0.22683 0.0
C835 C 0.22036 0.73937 0.21656 0.0
C836 C 0.13062 0.72922 0.24709 0.0
C837 C 0.12756 0.75841 0.26265 0.0
C838 C 0.09981 0.70928 0.24167 0.0
C839 C 0.09994 0.68034 0.22358 0.0
C840 C 0.11146 0.68668 0.19988 0.0
C841 C 0.11175 0.65927 0.18294 0.0
C842 C 0.10032 0.62544 0.18943 0.0
C843 C 0.08848 0.61899 0.21287 0.0
C844 C 0.08817 0.64631 0.22989 0.0
C845 C 0.96606 0.76238 0.27849 0.0
C846 C 0.96435 0.76747 0.30358 0.0
C847 C 0.99855 0.7558 0.26714 0.0
C848 C 0.03006 0.75428 0.2806 0.0
C849 C 0.02821 0.75859 0.30572 0.0
C850 C 0.99581 0.76517 0.31706 0.0
C851 C 0.06466 0.74701 0.26859 0.0
C852 C 0.06756 0.71793 0.2529 0.0
C853 C 0.09498 0.76804 0.27289 0.0
C854 C 0.09314 0.80207 0.28602 0.0
C855 C 0.11337 0.80743 0.30695 0.0
C856 C 0.11426 0.84074 0.31794 0.0
C857 C 0.09557 0.869 0.30787 0.0
C858 C 0.07543 0.86385 0.28704 0.0
C859 C 0.07387 0.83044 0.27626 0.0
H860 H 0.09672 0.8949 0.31618 0.0
H861 H 0.10058 0.60425 0.17629 0.0
H862 H 0.74844 0.50258 0.84007 0.0
H863 H 0.76073 0.55826 0.8196 0.0
H864 H 0.80801 0.50132 0.76045 0.0
H865 H 0.79536 0.44503 0.78074 0.0
H866 H 0.84397 0.56714 0.77499 0.0
H867 H 0.7283 0.52272 0.75359 0.0
H868 H 0.6687 0.49972 0.76248 0.0
H869 H 0.64334 0.59543 0.80052 0.0
H870 H 0.70307 0.61873 0.79228 0.0
H871 H 0.83427 0.69924 0.68556 0.0
H872 H 0.82996 0.64451 0.70856 0.0
H873 H 0.75972 0.69566 0.75906 0.0
H874 H 0.76299 0.75041 0.73551 0.0
H875 H 0.73621 0.63259 0.74992 0.0
H876 H 0.84922 0.67828 0.77215 0.0
H877 H 0.90903 0.70244 0.76576 0.0
H878 H 0.93982 0.60702 0.72924 0.0
H879 H 0.88001 0.58246 0.73512 0.0
C880 C 0.76213 0.50176 0.82294 0.0
C881 C 0.77064 0.46927 0.81193 0.0
C882 C 0.76902 0.53369 0.81124 0.0
C883 C 0.78477 0.53384 0.78839 0.0
C884 C 0.7957 0.50168 0.77807 0.0
C885 C 0.7885 0.46957 0.7897 0.0
C886 C 0.78712 0.56732 0.77459 0.0
C887 C 0.82049 0.5813 0.7692 0.0
C888 C 0.75637 0.5862 0.76774 0.0
C889 C 0.72032 0.57232 0.77253 0.0
C890 C 0.71014 0.53873 0.76405 0.0
C891 C 0.67631 0.52565 0.76894 0.0
C892 C 0.65227 0.54607 0.78209 0.0
C893 C 0.66201 0.57963 0.79036 0.0
C894 C 0.69585 0.59278 0.78558 0.0
C895 C 0.81791 0.69891 0.70158 0.0
C896 C 0.7991 0.72925 0.70878 0.0
C897 C 0.81564 0.66759 0.71482 0.0
C898 C 0.7951 0.66603 0.73587 0.0
C899 C 0.77589 0.69619 0.74295 0.0
C900 C 0.7778 0.72749 0.7295 0.0
C901 C 0.79322 0.63273 0.75016 0.0
C902 C 0.75983 0.61865 0.75568 0.0
C903 C 0.82399 0.61402 0.75741 0.0
C904 C 0.86002 0.62866 0.75389 0.0
C905 C 0.86866 0.66255 0.7626 0.0
C906 C 0.90258 0.6763 0.75909 0.0
C907 C 0.92818 0.65632 0.74705 0.0
C908 C 0.91995 0.62249 0.73854 0.0
C909 C 0.88605 0.60862 0.74198 0.0
H910 H 0.95443 0.66701 0.74435 0.0
H911 H 0.62608 0.53595 0.78582 0.0
loop_
_geom_bond_atom_site_label_1
_geom_bond_atom_site_label_2
_geom_bond_distance
_geom_bond_site_symmetry_2
_ccdc_geom_bond_type
O0 Cd1 2.223 . S
O0 C8 1.315 . S
Cd1 O0 2.223 . S
Cd1 O4 2.297 . S
Cd1 O5 2.439 . S
Cd1 O11 2.240 . S
Cd2 O3 2.240 . S
Cd2 O10 2.223 . S
Cd2 O12 2.297 . S
Cd2 O13 2.439 . S
O3 Cd2 2.240 . S
O3 C8 1.279 . S
O4 Cd1 2.297 . S
O4 C6 1.247 . S
O5 Cd1 2.439 . S
O5 C6 1.208 . S
C6 O4 1.247 . S
C6 O5 1.208 . S
C7 O12 1.247 . S
C7 O13 1.208 . S
C8 O0 1.315 . S
C8 O3 1.279 . S
C9 O10 1.315 . S
C9 O11 1.279 . S
O10 Cd2 2.223 . S
O10 C9 1.315 . S
O11 Cd1 2.240 . S
O11 C9 1.279 . S
O12 Cd2 2.297 . S
O12 C7 1.247 . S
O13 Cd2 2.439 . S
O13 C7 1.208 . S
O14 Cd15 2.223 . S
O14 C22 1.315 . S
Cd15 O14 2.223 . S
Cd15 O18 2.297 . S
Cd15 O19 2.439 . S
Cd15 O25 2.240 . S
Cd16 O17 2.240 . S
Cd16 O24 2.223 . S
Cd16 O26 2.297 . S
Cd16 O27 2.439 . S
O17 Cd16 2.240 . S
O17 C22 1.279 . S
O18 Cd15 2.297 . S
O18 C20 1.247 . S
O19 Cd15 2.439 . S
O19 C20 1.208 . S
C20 O18 1.247 . S
C20 O19 1.208 . S
C21 O26 1.247 . S
C21 O27 1.208 . S
C22 O14 1.315 . S
C22 O17 1.279 . S
C23 O24 1.315 . S
C23 O25 1.279 . S
O24 Cd16 2.223 . S
O24 C23 1.315 . S
O25 Cd15 2.240 . S
O25 C23 1.279 . S
O26 Cd16 2.297 . S
O26 C21 1.247 . S
O27 Cd16 2.439 . S
O27 C21 1.208 . S
O28 Cd29 2.223 . S
O28 C36 1.315 . S
Cd29 O28 2.223 . S
Cd29 O32 2.297 . S
Cd29 O33 2.439 . S
Cd29 O39 2.240 . S
Cd30 O31 2.240 . S
Cd30 O38 2.223 . S
Cd30 O40 2.297 . S
Cd30 O41 2.439 . S
O31 Cd30 2.240 . S
O31 C36 1.279 . S
O32 Cd29 2.297 . S
O32 C34 1.247 . S
O33 Cd29 2.439 . S
O33 C34 1.208 . S
C34 O32 1.247 . S
C34 O33 1.208 . S
C35 O40 1.247 . S
C35 O41 1.208 . S
C36 O28 1.315 . S
C36 O31 1.279 . S
C37 O38 1.315 . S
C37 O39 1.279 . S
O38 Cd30 2.223 . S
O38 C37 1.315 . S
O39 Cd29 2.240 . S
O39 C37 1.279 . S
O40 Cd30 2.297 . S
O40 C35 1.247 . S
O41 Cd30 2.439 . S
O41 C35 1.208 . S
O42 Cd43 2.223 . S
O42 C50 1.315 . S
Cd43 O42 2.223 . S
Cd43 O46 2.297 . S
Cd43 O47 2.439 . S
Cd43 O53 2.240 . S
Cd44 O45 2.240 . S
Cd44 O52 2.223 . S
Cd44 O54 2.297 . S
Cd44 O55 2.439 . S
O45 Cd44 2.240 . S
O45 C50 1.279 . S
O46 Cd43 2.297 . S
O46 C48 1.247 . S
O47 Cd43 2.439 . S
O47 C48 1.208 . S
C48 O46 1.247 . S
C48 O47 1.208 . S
C49 O54 1.247 . S
C49 O55 1.208 . S
C50 O42 1.315 . S
C50 O45 1.279 . S
C51 O52 1.315 . S
C51 O53 1.279 . S
O52 Cd44 2.223 . S
O52 C51 1.315 . S
O53 Cd43 2.240 . S
O53 C51 1.279 . S
O54 Cd44 2.297 . S
O54 C49 1.247 . S
O55 Cd44 2.439 . S
O55 C49 1.208 . S
O56 Cd57 2.223 . S
O56 C64 1.315 . S
Cd57 O56 2.223 . S
Cd57 O60 2.297 . S
Cd57 O61 2.439 . S
Cd57 O67 2.240 . S
Cd58 O59 2.240 . S
Cd58 O66 2.223 . S
Cd58 O68 2.297 . S
Cd58 O69 2.439 . S
O59 Cd58 2.240 . S
O59 C64 1.279 . S
O60 Cd57 2.297 . S
O60 C62 1.247 . S
O61 Cd57 2.439 . S
O61 C62 1.208 . S
C62 O60 1.247 . S
C62 O61 1.208 . S
C63 O68 1.247 . S
C63 O69 1.208 . S
C64 O56 1.315 . S
C64 O59 1.279 . S
C65 O66 1.315 . S
C65 O67 1.279 . S
O66 Cd58 2.223 . S
O66 C65 1.315 . S
O67 Cd57 2.240 . S
O67 C65 1.279 . S
O68 Cd58 2.297 . S
O68 C63 1.247 . S
O69 Cd58 2.439 . S
O69 C63 1.208 . S
O70 Cd71 2.223 . S
O70 C78 1.315 . S
Cd71 O70 2.223 . S
Cd71 O74 2.297 . S
Cd71 O75 2.439 . S
Cd71 O81 2.240 . S
Cd72 O73 2.240 . S
Cd72 O80 2.223 . S
Cd72 O82 2.297 . S
Cd72 O83 2.439 . S
O73 Cd72 2.240 . S
O73 C78 1.279 . S
O74 Cd71 2.297 . S
O74 C76 1.247 . S
O75 Cd71 2.439 . S
O75 C76 1.208 . S
C76 O74 1.247 . S
C76 O75 1.208 . S
C77 O82 1.247 . S
C77 O83 1.208 . S
C78 O70 1.315 . S
C78 O73 1.279 . S
C79 O80 1.315 . S
C79 O81 1.279 . S
O80 Cd72 2.223 . S
O80 C79 1.315 . S
O81 Cd71 2.240 . S
O81 C79 1.279 . S
O82 Cd72 2.297 . S
O82 C77 1.247 . S
O83 Cd72 2.439 . S
O83 C77 1.208 . S
O84 Cd85 2.223 . S
O84 C92 1.315 . S
Cd85 O84 2.223 . S
Cd85 O88 2.297 . S
Cd85 O89 2.439 . S
Cd85 O95 2.240 . S
Cd86 O87 2.240 . S
Cd86 O94 2.223 . S
Cd86 O96 2.297 . S
Cd86 O97 2.439 . S
O87 Cd86 2.240 . S
O87 C92 1.279 . S
O88 Cd85 2.297 . S
O88 C90 1.247 . S
O89 Cd85 2.439 . S
O89 C90 1.208 . S
C90 O88 1.247 . S
C90 O89 1.208 . S
C91 O96 1.247 . S
C91 O97 1.208 . S
C92 O84 1.315 . S
C92 O87 1.279 . S
C93 O94 1.315 . S
C93 O95 1.279 . S
O94 Cd86 2.223 . S
O94 C93 1.315 . S
O95 Cd85 2.240 . S
O95 C93 1.279 . S
O96 Cd86 2.297 . S
O96 C91 1.247 . S
O97 Cd86 2.439 . S
O97 C91 1.208 . S
O98 Cd99 2.223 . S
O98 C106 1.315 . S
Cd99 O98 2.223 . S
Cd99 O102 2.297 . S
Cd99 O103 2.439 . S
Cd99 O109 2.240 . S
Cd100 O101 2.240 . S
Cd100 O108 2.223 . S
Cd100 O110 2.297 . S
Cd100 O111 2.439 . S
O101 Cd100 2.240 . S
O101 C106 1.279 . S
O102 Cd99 2.297 . S
O102 C104 1.247 . S
O103 Cd99 2.439 . S
O103 C104 1.208 . S
C104 O102 1.247 . S
C104 O103 1.208 . S
C105 O110 1.247 . S
C105 O111 1.208 . S
C106 O98 1.315 . S
C106 O101 1.279 . S
C107 O108 1.315 . S
C107 O109 1.279 . S
O108 Cd100 2.223 . S
O108 C107 1.315 . S
O109 Cd99 2.240 . S
O109 C107 1.279 . S
O110 Cd100 2.297 . S
O110 C105 1.247 . S
O111 Cd100 2.439 . S
O111 C105 1.208 . S
H112 C130 0.951 . S
H113 C132 0.951 . S
H114 C134 0.950 . S
H115 C135 0.950 . S
H116 C137 0.950 . S
H117 C140 0.950 . S
H118 C141 0.950 . S
H119 C143 0.950 . S
H120 C144 0.950 . S
H121 C145 0.951 . S
H122 C147 0.951 . S
H123 C149 0.950 . S
H124 C150 0.950 . S
H125 C152 0.950 . S
H126 C155 0.950 . S
H127 C156 0.950 . S
H128 C158 0.950 . S
H129 C159 0.950 . S
C130 H112 0.951 . S
C130 C131 1.366 . S
C130 C132 1.388 . S
C131 C130 1.366 . S
C131 C135 1.385 . S
C132 H113 0.951 . S
C132 C130 1.388 . S
C132 C133 1.366 . S
C133 C132 1.366 . S
C133 C134 1.414 . S
C133 C136 1.499 . S
C134 H114 0.950 . S
C134 C133 1.414 . S
C134 C135 1.374 . S
C135 H115 0.950 . S
C135 C131 1.385 . S
C135 C134 1.374 . S
C136 C133 1.499 . S
C136 C137 1.373 . S
C136 C138 1.389 1_455 S
C137 H116 0.950 . S
C137 C136 1.373 . S
C137 C153 1.377 1_545 S
C138 C136 1.389 1_655 S
C138 C139 1.524 . S
C138 C152 1.377 1_545 S
C139 C138 1.524 . S
C139 C140 1.397 . S
C139 C144 1.363 . S
C140 H117 0.950 . S
C140 C139 1.397 . S
C140 C141 1.334 . S
C141 H118 0.950 . S
C141 C140 1.334 . S
C141 C142 1.287 . S
C142 C141 1.287 . S
C142 C143 1.524 . S
C142 H161 0.913 . S
C143 H119 0.950 . S
C143 C142 1.524 . S
C143 C144 1.415 . S
C144 H120 0.950 . S
C144 C139 1.363 . S
C144 C143 1.415 . S
C145 H121 0.951 . S
C145 C146 1.366 . S
C145 C147 1.388 . S
C146 C145 1.366 . S
C146 C150 1.385 . S
C147 H122 0.951 . S
C147 C145 1.388 . S
C147 C148 1.366 . S
C148 C147 1.366 . S
C148 C149 1.414 . S
C148 C151 1.499 . S
C149 H123 0.950 . S
C149 C148 1.414 . S
C149 C150 1.374 . S
C150 H124 0.950 . S
C150 C146 1.385 . S
C150 C149 1.374 . S
C151 C148 1.499 . S
C151 C152 1.373 . S
C151 C153 1.389 1_655 S
C152 H125 0.950 . S
C152 C138 1.377 1_565 S
C152 C151 1.373 . S
C153 C137 1.377 1_565 S
C153 C151 1.389 1_455 S
C153 C154 1.524 . S
C154 C153 1.524 . S
C154 C155 1.397 . S
C154 C159 1.363 . S
C155 H126 0.950 . S
C155 C154 1.397 . S
C155 C156 1.334 . S
C156 H127 0.950 . S
C156 C155 1.334 . S
C156 C157 1.287 . S
C157 C156 1.287 . S
C157 C158 1.524 . S
C157 H160 0.999 . S
C158 H128 0.950 . S
C158 C157 1.524 . S
C158 C159 1.415 . S
C159 H129 0.950 . S
C159 C154 1.363 . S
C159 C158 1.415 . S
H160 C157 0.999 . S
H161 C142 0.913 . S
H162 C180 0.951 . S
H163 C182 0.951 . S
H164 C184 0.950 . S
H165 C185 0.950 . S
H166 C187 0.950 . S
H167 C190 0.950 . S
H168 C191 0.950 . S
H169 C193 0.950 . S
H170 C194 0.950 . S
H171 C195 0.951 . S
H172 C197 0.951 . S
H173 C199 0.950 . S
H174 C200 0.950 . S
H175 C202 0.950 . S
H176 C205 0.950 . S
H177 C206 0.950 . S
H178 C208 0.950 . S
H179 C209 0.950 . S
C180 H162 0.951 . S
C180 C181 1.366 . S
C180 C182 1.388 . S
C181 C180 1.366 . S
C181 C185 1.385 . S
C182 H163 0.951 . S
C182 C180 1.388 . S
C182 C183 1.366 . S
C183 C182 1.366 . S
C183 C184 1.414 . S
C183 C186 1.499 . S
C184 H164 0.950 . S
C184 C183 1.414 . S
C184 C185 1.374 . S
C185 H165 0.950 . S
C185 C181 1.385 . S
C185 C184 1.374 . S
C186 C183 1.499 . S
C186 C187 1.373 . S
C186 C188 1.389 . S
C187 H166 0.950 . S
C187 C186 1.373 . S
C187 C203 1.377 . S
C188 C186 1.389 . S
C188 C189 1.524 . S
C188 C202 1.377 . S
C189 C188 1.524 . S
C189 C190 1.397 . S
C189 C194 1.363 . S
C190 H167 0.950 . S
C190 C189 1.397 . S
C190 C191 1.334 . S
C191 H168 0.950 . S
C191 C190 1.334 . S
C191 C192 1.287 . S
C192 C191 1.287 . S
C192 C193 1.524 . S
C192 H211 0.913 . S
C193 H169 0.950 . S
C193 C192 1.524 . S
C193 C194 1.415 . S
C194 H170 0.950 . S
C194 C189 1.363 . S
C194 C193 1.415 . S
C195 H171 0.951 . S
C195 C196 1.366 . S
C195 C197 1.388 . S
C196 C195 1.366 . S
C196 C200 1.385 . S
C197 H172 0.951 . S
C197 C195 1.388 . S
C197 C198 1.366 . S
C198 C197 1.366 . S
C198 C199 1.414 . S
C198 C201 1.499 . S
C199 H173 0.950 . S
C199 C198 1.414 . S
C199 C200 1.374 . S
C200 H174 0.950 . S
C200 C196 1.385 . S
C200 C199 1.374 . S
C201 C198 1.499 . S
C201 C202 1.373 . S
C201 C203 1.389 . S
C202 H175 0.950 . S
C202 C188 1.377 . S
C202 C201 1.373 . S
C203 C187 1.377 . S
C203 C201 1.389 . S
C203 C204 1.524 . S
C204 C203 1.524 . S
C204 C205 1.397 . S
C204 C209 1.363 . S
C205 H176 0.950 . S
C205 C204 1.397 . S
C205 C206 1.334 . S
C206 H177 0.950 . S
C206 C205 1.334 . S
C206 C207 1.287 . S
C207 C206 1.287 . S
C207 C208 1.524 . S
C207 H210 0.999 . S
C208 H178 0.950 . S
C208 C207 1.524 . S
C208 C209 1.415 . S
C209 H179 0.950 . S
C209 C204 1.363 . S
C209 C208 1.415 . S
H210 C207 0.999 . S
H211 C192 0.913 . S
H212 C230 0.951 . S
H213 C232 0.951 . S
H214 C234 0.950 . S
H215 C235 0.950 . S
H216 C237 0.950 . S
H217 C240 0.950 . S
H218 C241 0.950 . S
H219 C243 0.950 . S
H220 C244 0.950 . S
H221 C245 0.951 . S
H222 C247 0.951 . S
H223 C249 0.950 . S
H224 C250 0.950 . S
H225 C252 0.950 . S
H226 C255 0.950 . S
H227 C256 0.950 . S
H228 C258 0.950 . S
H229 C259 0.950 . S
C230 H212 0.951 . S
C230 C231 1.366 . S
C230 C232 1.388 . S
C231 C230 1.366 . S
C231 C235 1.385 . S
C232 H213 0.951 . S
C232 C230 1.388 . S
C232 C233 1.366 . S
C233 C232 1.366 . S
C233 C234 1.414 . S
C233 C236 1.499 . S
C234 H214 0.950 . S
C234 C233 1.414 . S
C234 C235 1.374 . S
C235 H215 0.950 . S
C235 C231 1.385 . S
C235 C234 1.374 . S
C236 C233 1.499 . S
C236 C237 1.373 . S
C236 C238 1.389 . S
C237 H216 0.950 . S
C237 C236 1.373 . S
C237 C253 1.377 . S
C238 C236 1.389 . S
C238 C239 1.524 . S
C238 C252 1.377 . S
C239 C238 1.524 . S
C239 C240 1.397 . S
C239 C244 1.363 . S
C240 H217 0.950 . S
C240 C239 1.397 . S
C240 C241 1.334 . S
C241 H218 0.950 . S
C241 C240 1.334 . S
C241 C242 1.287 . S
C242 C241 1.287 . S
C242 C243 1.524 . S
C242 H261 0.913 . S
C243 H219 0.950 . S
C243 C242 1.524 . S
C243 C244 1.415 . S
C244 H220 0.950 . S
C244 C239 1.363 . S
C244 C243 1.415 . S
C245 H221 0.951 . S
C245 C246 1.366 . S
C245 C247 1.388 . S
C246 C245 1.366 . S
C246 C250 1.385 . S
C247 H222 0.951 . S
C247 C245 1.388 . S
C247 C248 1.366 . S
C248 C247 1.366 . S
C248 C249 1.414 . S
C248 C251 1.499 . S
C249 H223 0.950 . S
C249 C248 1.414 . S
C249 C250 1.374 . S
C250 H224 0.950 . S
C250 C246 1.385 . S
C250 C249 1.374 . S
C251 C248 1.499 . S
C251 C252 1.373 . S
C251 C253 1.389 . S
C252 H225 0.950 . S
C252 C238 1.377 . S
C252 C251 1.373 . S
C253 C237 1.377 . S
C253 C251 1.389 . S
C253 C254 1.524 . S
C254 C253 1.524 . S
C254 C255 1.397 . S
C254 C259 1.363 . S
C255 H226 0.950 . S
C255 C254 1.397 . S
C255 C256 1.334 . S
C256 H227 0.950 . S
C256 C255 1.334 . S
C256 C257 1.287 . S
C257 C256 1.287 . S
C257 C258 1.524 . S
C257 H260 0.999 . S
C258 H228 0.950 . S
C258 C257 1.524 . S
C258 C259 1.415 . S
C259 H229 0.950 . S
C259 C254 1.363 . S
C259 C258 1.415 . S
H260 C257 0.999 . S
H261 C242 0.913 . S
H262 C280 0.951 . S
H263 C282 0.951 . S
H264 C284 0.950 . S
H265 C285 0.950 . S
H266 C287 0.950 . S
H267 C290 0.950 . S
H268 C291 0.950 . S
H269 C293 0.950 . S
H270 C294 0.949 1_545 S
H271 C295 0.951 . S
H272 C297 0.951 . S
H273 C299 0.950 . S
H274 C300 0.950 . S
H275 C302 0.950 . S
H276 C305 0.950 . S
H277 C306 0.950 . S
H278 C308 0.950 . S
H279 C309 0.949 1_565 S
C280 H262 0.951 . S
C280 C281 1.366 . S
C280 C282 1.388 . S
C281 C280 1.366 . S
C281 C285 1.385 . S
C282 H263 0.951 . S
C282 C280 1.388 . S
C282 C283 1.366 . S
C283 C282 1.366 . S
C283 C284 1.414 . S
C283 C286 1.499 . S
C284 H264 0.950 . S
C284 C283 1.414 . S
C284 C285 1.374 . S
C285 H265 0.950 . S
C285 C281 1.385 . S
C285 C284 1.374 . S
C286 C283 1.499 . S
C286 C287 1.373 . S
C286 C288 1.389 1_545 S
C287 H266 0.950 . S
C287 C286 1.373 . S
C287 C303 1.377 1_455 S
C288 C286 1.389 1_565 S
C288 C289 1.524 . S
C288 C302 1.377 1_455 S
C289 C288 1.524 . S
C289 C290 1.397 . S
C289 C294 1.364 . S
C290 H267 0.950 . S
C290 C289 1.397 . S
C290 C291 1.334 . S
C291 H268 0.950 . S
C291 C290 1.334 . S
C291 C292 1.287 . S
C292 C291 1.287 . S
C292 C293 1.524 . S
C292 H311 0.913 . S
C293 H269 0.950 . S
C293 C292 1.524 . S
C293 C294 1.416 . S
C294 H270 0.949 1_565 S
C294 C289 1.364 . S
C294 C293 1.416 . S
C295 H271 0.951 . S
C295 C296 1.366 . S
C295 C297 1.388 . S
C296 C295 1.366 . S
C296 C300 1.385 . S
C297 H272 0.951 . S
C297 C295 1.388 . S
C297 C298 1.366 . S
C298 C297 1.366 . S
C298 C299 1.414 . S
C298 C301 1.499 . S
C299 H273 0.950 . S
C299 C298 1.414 . S
C299 C300 1.374 . S
C300 H274 0.950 . S
C300 C296 1.385 . S
C300 C299 1.374 . S
C301 C298 1.499 . S
C301 C302 1.373 . S
C301 C303 1.389 1_565 S
C302 H275 0.950 . S
C302 C288 1.377 1_655 S
C302 C301 1.373 . S
C303 C287 1.377 1_655 S
C303 C301 1.389 1_545 S
C303 C304 1.524 . S
C304 C303 1.524 . S
C304 C305 1.397 . S
C304 C309 1.364 . S
C305 H276 0.950 . S
C305 C304 1.397 . S
C305 C306 1.334 . S
C306 H277 0.950 . S
C306 C305 1.334 . S
C306 C307 1.287 . S
C307 C306 1.287 . S
C307 C308 1.524 . S
C307 H310 0.999 . S
C308 H278 0.950 . S
C308 C307 1.524 . S
C308 C309 1.416 . S
C309 H279 0.949 1_545 S
C309 C304 1.364 . S
C309 C308 1.416 . S
H310 C307 0.999 . S
H311 C292 0.913 . S
H312 C330 0.951 . S
H313 C332 0.951 . S
H314 C334 0.950 . S
H315 C335 0.950 . S
H316 C337 0.950 . S
H317 C340 0.950 . S
H318 C341 0.950 . S
H319 C343 0.950 . S
H320 C344 0.950 . S
H321 C345 0.951 . S
H322 C347 0.951 . S
H323 C349 0.950 . S
H324 C350 0.950 . S
H325 C352 0.950 . S
H326 C355 0.950 . S
H327 C356 0.950 . S
H328 C358 0.950 . S
H329 C359 0.950 . S
C330 H312 0.951 . S
C330 C331 1.366 . S
C330 C332 1.388 . S
C331 C330 1.366 . S
C331 C335 1.385 . S
C332 H313 0.951 . S
C332 C330 1.388 . S
C332 C333 1.366 . S
C333 C332 1.366 . S
C333 C334 1.414 . S
C333 C336 1.499 . S
C334 H314 0.950 . S
C334 C333 1.414 . S
C334 C335 1.374 . S
C335 H315 0.950 . S
C335 C331 1.385 . S
C335 C334 1.374 . S
C336 C333 1.499 . S
C336 C337 1.373 . S
C336 C338 1.389 . S
C337 H316 0.950 . S
C337 C336 1.373 . S
C337 C353 1.377 . S
C338 C336 1.389 . S
C338 C339 1.524 . S
C338 C352 1.377 . S
C339 C338 1.524 . S
C339 C340 1.397 . S
C339 C344 1.363 . S
C340 H317 0.950 . S
C340 C339 1.397 . S
C340 C341 1.334 . S
C341 H318 0.950 . S
C341 C340 1.334 . S
C341 C342 1.287 . S
C342 C341 1.287 . S
C342 C343 1.524 . S
C342 H361 0.913 . S
C343 H319 0.950 . S
C343 C342 1.524 . S
C343 C344 1.415 . S
C344 H320 0.950 . S
C344 C339 1.363 . S
C344 C343 1.415 . S
C345 H321 0.951 . S
C345 C346 1.366 . S
C345 C347 1.388 . S
C346 C345 1.366 . S
C346 C350 1.385 . S
C347 H322 0.951 . S
C347 C345 1.388 . S
C347 C348 1.366 . S
C348 C347 1.366 . S
C348 C349 1.414 . S
C348 C351 1.499 . S
C349 H323 0.950 . S
C349 C348 1.414 . S
C349 C350 1.374 . S
C350 H324 0.950 . S
C350 C346 1.385 . S
C350 C349 1.374 . S
C351 C348 1.499 . S
C351 C352 1.373 . S
C351 C353 1.389 . S
C352 H325 0.950 . S
C352 C338 1.377 . S
C352 C351 1.373 . S
C353 C337 1.377 . S
C353 C351 1.389 . S
C353 C354 1.524 . S
C354 C353 1.524 . S
C354 C355 1.397 . S
C354 C359 1.363 . S
C355 H326 0.950 . S
C355 C354 1.397 . S
C355 C356 1.334 . S
C356 H327 0.950 . S
C356 C355 1.334 . S
C356 C357 1.287 . S
C357 C356 1.287 . S
C357 C358 1.524 . S
C357 H360 0.999 . S
C358 H328 0.950 . S
C358 C357 1.524 . S
C358 C359 1.415 . S
C359 H329 0.950 . S
C359 C354 1.363 . S
C359 C358 1.415 . S
H360 C357 0.999 . S
H361 C342 0.913 . S
H362 C380 0.951 . S
H363 C382 0.951 . S
H364 C384 0.950 . S
H365 C385 0.950 . S
H366 C387 0.950 . S
H367 C390 0.950 . S
H368 C391 0.950 . S
H369 C393 0.950 1_554 S
H370 C394 0.950 . S
H371 C395 0.951 . S
H372 C397 0.951 . S
H373 C399 0.950 . S
H374 C400 0.950 . S
H375 C402 0.950 . S
H376 C405 0.950 . S
H377 C406 0.950 . S
H378 C408 0.950 1_556 S
H379 C409 0.950 . S
C380 H362 0.951 . S
C380 C381 1.366 . S
C380 C382 1.388 . S
C381 C380 1.366 . S
C381 C385 1.385 . S
C382 H363 0.951 . S
C382 C380 1.388 . S
C382 C383 1.366 . S
C383 C382 1.366 . S
C383 C384 1.414 . S
C383 C386 1.499 . S
C384 H364 0.950 . S
C384 C383 1.414 . S
C384 C385 1.374 . S
C385 H365 0.950 . S
C385 C381 1.385 . S
C385 C384 1.374 . S
C386 C383 1.499 . S
C386 C387 1.373 . S
C386 C388 1.389 . S
C387 H366 0.950 . S
C387 C386 1.373 . S
C387 C403 1.377 1_556 S
C388 C386 1.389 . S
C388 C389 1.524 . S
C388 C402 1.377 1_556 S
C389 C388 1.524 . S
C389 C390 1.397 . S
C389 C394 1.363 1_556 S
C390 H367 0.950 . S
C390 C389 1.397 . S
C390 C391 1.334 . S
C391 H368 0.950 . S
C391 C390 1.334 . S
C391 C392 1.287 . S
C392 C391 1.287 . S
C392 C393 1.524 . S
C392 H411 0.913 . S
C393 H369 0.950 1_556 S
C393 C392 1.524 . S
C393 C394 1.415 1_556 S
C394 H370 0.950 . S
C394 C389 1.363 1_554 S
C394 C393 1.415 1_554 S
C395 H371 0.951 . S
C395 C396 1.366 . S
C395 C397 1.388 . S
C396 C395 1.366 . S
C396 C400 1.385 . S
C397 H372 0.951 . S
C397 C395 1.388 . S
C397 C398 1.366 . S
C398 C397 1.366 . S
C398 C399 1.414 . S
C398 C401 1.499 . S
C399 H373 0.950 . S
C399 C398 1.414 . S
C399 C400 1.374 . S
C400 H374 0.950 . S
C400 C396 1.385 . S
C400 C399 1.374 . S
C401 C398 1.499 . S
C401 C402 1.373 . S
C401 C403 1.389 . S
C402 H375 0.950 . S
C402 C388 1.377 1_554 S
C402 C401 1.373 . S
C403 C387 1.377 1_554 S
C403 C401 1.389 . S
C403 C404 1.524 . S
C404 C403 1.524 . S
C404 C405 1.397 . S
C404 C409 1.363 1_554 S
C405 H376 0.950 . S
C405 C404 1.397 . S
C405 C406 1.334 . S
C406 H377 0.950 . S
C406 C405 1.334 . S
C406 C407 1.287 . S
C407 C406 1.287 . S
C407 C408 1.524 . S
C407 H410 0.999 . S
C408 H378 0.950 1_554 S
C408 C407 1.524 . S
C408 C409 1.415 1_554 S
C409 H379 0.950 . S
C409 C404 1.363 1_556 S
C409 C408 1.415 1_556 S
H410 C407 0.999 . S
H411 C392 0.913 . S
H412 C430 0.951 . S
H413 C432 0.951 . S
H414 C434 0.950 . S
H415 C435 0.950 . S
H416 C437 0.950 . S
H417 C440 0.950 . S
H418 C441 0.950 . S
H419 C443 0.950 . S
H420 C444 0.950 . S
H421 C445 0.951 . S
H422 C447 0.951 . S
H423 C449 0.950 . S
H424 C450 0.950 . S
H425 C452 0.950 . S
H426 C455 0.950 . S
H427 C456 0.950 . S
H428 C458 0.950 . S
H429 C459 0.950 . S
C430 H412 0.951 . S
C430 C431 1.366 . S
C430 C432 1.388 . S
C431 C430 1.366 . S
C431 C435 1.385 . S
C432 H413 0.951 . S
C432 C430 1.388 . S
C432 C433 1.366 . S
C433 C432 1.366 . S
C433 C434 1.414 . S
C433 C436 1.499 . S
C434 H414 0.950 . S
C434 C433 1.414 . S
C434 C435 1.374 . S
C435 H415 0.950 . S
C435 C431 1.385 . S
C435 C434 1.374 . S
C436 C433 1.499 . S
C436 C437 1.373 . S
C436 C438 1.389 . S
C437 H416 0.950 . S
C437 C436 1.373 . S
C437 C453 1.377 . S
C438 C436 1.389 . S
C438 C439 1.524 . S
C438 C452 1.377 . S
C439 C438 1.524 . S
C439 C440 1.397 . S
C439 C444 1.363 . S
C440 H417 0.950 . S
C440 C439 1.397 . S
C440 C441 1.334 . S
C441 H418 0.950 . S
C441 C440 1.334 . S
C441 C442 1.287 . S
C442 C441 1.287 . S
C442 C443 1.524 . S
C442 H461 0.913 . S
C443 H419 0.950 . S
C443 C442 1.524 . S
C443 C444 1.415 . S
C444 H420 0.950 . S
C444 C439 1.363 . S
C444 C443 1.415 . S
C445 H421 0.951 . S
C445 C446 1.366 . S
C445 C447 1.388 . S
C446 C445 1.366 . S
C446 C450 1.385 . S
C447 H422 0.951 . S
C447 C445 1.388 . S
C447 C448 1.366 . S
C448 C447 1.366 . S
C448 C449 1.414 . S
C448 C451 1.499 . S
C449 H423 0.950 . S
C449 C448 1.414 . S
C449 C450 1.374 . S
C450 H424 0.950 . S
C450 C446 1.385 . S
C450 C449 1.374 . S
C451 C448 1.499 . S
C451 C452 1.373 . S
C451 C453 1.389 . S
C452 H425 0.950 . S
C452 C438 1.377 . S
C452 C451 1.373 . S
C453 C437 1.377 . S
C453 C451 1.389 . S
C453 C454 1.524 . S
C454 C453 1.524 . S
C454 C455 1.397 . S
C454 C459 1.363 . S
C455 H426 0.950 . S
C455 C454 1.397 . S
C455 C456 1.334 . S
C456 H427 0.950 . S
C456 C455 1.334 . S
C456 C457 1.287 . S
C457 C456 1.287 . S
C457 C458 1.524 . S
C457 H460 0.999 . S
C458 H428 0.950 . S
C458 C457 1.524 . S
C458 C459 1.415 . S
C459 H429 0.950 . S
C459 C454 1.363 . S
C459 C458 1.415 . S
H460 C457 0.999 . S
H461 C442 0.913 . S
H462 C480 0.951 . S
H463 C482 0.951 . S
H464 C484 0.950 . S
H465 C485 0.950 . S
H466 C487 0.950 . S
H467 C490 0.950 . S
H468 C491 0.950 . S
H469 C493 0.950 . S
H470 C494 0.950 1_554 S
H471 C495 0.951 . S
H472 C497 0.951 . S
H473 C499 0.950 . S
H474 C500 0.950 . S
H475 C502 0.950 . S
H476 C505 0.950 . S
H477 C506 0.950 . S
H478 C508 0.950 . S
H479 C509 0.950 1_556 S
C480 H462 0.951 . S
C480 C481 1.366 . S
C480 C482 1.388 . S
C481 C480 1.366 . S
C481 C485 1.385 . S
C482 H463 0.951 . S
C482 C480 1.388 . S
C482 C483 1.366 . S
C483 C482 1.366 . S
C483 C484 1.414 . S
C483 C486 1.499 . S
C484 H464 0.950 . S
C484 C483 1.414 . S
C484 C485 1.374 . S
C485 H465 0.950 . S
C485 C481 1.385 . S
C485 C484 1.374 . S
C486 C483 1.499 . S
C486 C487 1.373 . S
C486 C488 1.389 . S
C487 H466 0.950 . S
C487 C486 1.373 . S
C487 C503 1.377 1_556 S
C488 C486 1.389 . S
C488 C489 1.524 . S
C488 C502 1.377 1_556 S
C489 C488 1.524 . S
C489 C490 1.397 . S
C489 C494 1.363 . S
C490 H467 0.950 . S
C490 C489 1.397 . S
C490 C491 1.334 . S
C491 H468 0.950 . S
C491 C490 1.334 . S
C491 C492 1.287 . S
C492 C491 1.287 . S
C492 C493 1.524 . S
C492 H511 0.913 . S
C493 H469 0.950 . S
C493 C492 1.524 . S
C493 C494 1.415 . S
C494 H470 0.950 1_556 S
C494 C489 1.363 . S
C494 C493 1.415 . S
C495 H471 0.951 . S
C495 C496 1.366 . S
C495 C497 1.388 . S
C496 C495 1.366 . S
C496 C500 1.385 . S
C497 H472 0.951 . S
C497 C495 1.388 . S
C497 C498 1.366 . S
C498 C497 1.366 . S
C498 C499 1.414 . S
C498 C501 1.499 . S
C499 H473 0.950 . S
C499 C498 1.414 . S
C499 C500 1.374 . S
C500 H474 0.950 . S
C500 C496 1.385 . S
C500 C499 1.374 . S
C501 C498 1.499 . S
C501 C502 1.373 . S
C501 C503 1.389 . S
C502 H475 0.950 . S
C502 C488 1.377 1_554 S
C502 C501 1.373 . S
C503 C487 1.377 1_554 S
C503 C501 1.389 . S
C503 C504 1.524 . S
C504 C503 1.524 . S
C504 C505 1.397 . S
C504 C509 1.363 . S
C505 H476 0.950 . S
C505 C504 1.397 . S
C505 C506 1.334 . S
C506 H477 0.950 . S
C506 C505 1.334 . S
C506 C507 1.287 . S
C507 C506 1.287 . S
C507 C508 1.524 . S
C507 H510 0.999 . S
C508 H478 0.950 . S
C508 C507 1.524 . S
C508 C509 1.415 . S
C509 H479 0.950 1_554 S
C509 C504 1.363 . S
C509 C508 1.415 . S
H510 C507 0.999 . S
H511 C492 0.913 . S
H512 C530 0.951 . S
H513 C532 0.951 . S
H514 C534 0.950 . S
H515 C535 0.950 . S
H516 C537 0.950 . S
H517 C540 0.950 . S
H518 C541 0.950 . S
H519 C543 0.950 . S
H520 C544 0.950 . S
H521 C545 0.951 . S
H522 C547 0.951 . S
H523 C549 0.950 . S
H524 C550 0.950 . S
H525 C552 0.950 . S
H526 C555 0.950 . S
H527 C556 0.950 . S
H528 C558 0.950 . S
H529 C559 0.950 . S
C530 H512 0.951 . S
C530 C531 1.366 . S
C530 C532 1.388 . S
C531 C530 1.366 . S
C531 C535 1.385 . S
C532 H513 0.951 . S
C532 C530 1.388 . S
C532 C533 1.366 . S
C533 C532 1.366 . S
C533 C534 1.414 . S
C533 C536 1.499 . S
C534 H514 0.950 . S
C534 C533 1.414 . S
C534 C535 1.374 . S
C535 H515 0.950 . S
C535 C531 1.385 . S
C535 C534 1.374 . S
C536 C533 1.499 . S
C536 C537 1.373 . S
C536 C538 1.389 . S
C537 H516 0.950 . S
C537 C536 1.373 . S
C537 C553 1.377 . S
C538 C536 1.389 . S
C538 C539 1.524 . S
C538 C552 1.377 . S
C539 C538 1.524 . S
C539 C540 1.397 . S
C539 C544 1.363 . S
C540 H517 0.950 . S
C540 C539 1.397 . S
C540 C541 1.334 . S
C541 H518 0.950 . S
C541 C540 1.334 . S
C541 C542 1.287 . S
C542 C541 1.287 . S
C542 C543 1.524 . S
C542 H561 0.913 . S
C543 H519 0.950 . S
C543 C542 1.524 . S
C543 C544 1.415 . S
C544 H520 0.950 . S
C544 C539 1.363 . S
C544 C543 1.415 . S
C545 H521 0.951 . S
C545 C546 1.366 . S
C545 C547 1.388 . S
C546 C545 1.366 . S
C546 C550 1.385 . S
C547 H522 0.951 . S
C547 C545 1.388 . S
C547 C548 1.366 . S
C548 C547 1.366 . S
C548 C549 1.414 . S
C548 C551 1.499 . S
C549 H523 0.950 . S
C549 C548 1.414 . S
C549 C550 1.374 . S
C550 H524 0.950 . S
C550 C546 1.385 . S
C550 C549 1.374 . S
C551 C548 1.499 . S
C551 C552 1.373 . S
C551 C553 1.389 . S
C552 H525 0.950 . S
C552 C538 1.377 . S
C552 C551 1.373 . S
C553 C537 1.377 . S
C553 C551 1.389 . S
C553 C554 1.524 . S
C554 C553 1.524 . S
C554 C555 1.397 . S
C554 C559 1.363 . S
C555 H526 0.950 . S
C555 C554 1.397 . S
C555 C556 1.334 . S
C556 H527 0.950 . S
C556 C555 1.334 . S
C556 C557 1.287 . S
C557 C556 1.287 . S
C557 C558 1.524 . S
C557 H560 0.999 . S
C558 H528 0.950 . S
C558 C557 1.524 . S
C558 C559 1.415 . S
C559 H529 0.950 . S
C559 C554 1.363 . S
C559 C558 1.415 . S
H560 C557 0.999 . S
H561 C542 0.913 . S
H562 C580 0.951 . S
H563 C582 0.951 . S
H564 C584 0.950 . S
H565 C585 0.950 . S
H566 C587 0.950 . S
H567 C590 0.950 . S
H568 C591 0.950 . S
H569 C593 0.950 . S
H570 C594 0.950 . S
H571 C595 0.951 . S
H572 C597 0.951 . S
H573 C599 0.950 . S
H574 C600 0.950 . S
H575 C602 0.950 . S
H576 C605 0.950 . S
H577 C606 0.950 . S
H578 C608 0.950 . S
H579 C609 0.950 . S
C580 H562 0.951 . S
C580 C581 1.366 . S
C580 C582 1.388 . S
C581 C580 1.366 . S
C581 C585 1.385 . S
C582 H563 0.951 . S
C582 C580 1.388 . S
C582 C583 1.366 . S
C583 C582 1.366 . S
C583 C584 1.414 . S
C583 C586 1.499 . S
C584 H564 0.950 . S
C584 C583 1.414 . S
C584 C585 1.374 . S
C585 H565 0.950 . S
C585 C581 1.385 . S
C585 C584 1.374 . S
C586 C583 1.499 . S
C586 C587 1.373 . S
C586 C588 1.389 . S
C587 H566 0.950 . S
C587 C586 1.373 . S
C587 C603 1.377 . S
C588 C586 1.389 . S
C588 C589 1.524 . S
C588 C602 1.377 . S
C589 C588 1.524 . S
C589 C590 1.397 . S
C589 C594 1.363 . S
C590 H567 0.950 . S
C590 C589 1.397 . S
C590 C591 1.334 . S
C591 H568 0.950 . S
C591 C590 1.334 . S
C591 C592 1.287 . S
C592 C591 1.287 . S
C592 C593 1.524 . S
C592 H611 0.913 . S
C593 H569 0.950 . S
C593 C592 1.524 . S
C593 C594 1.415 . S
C594 H570 0.950 . S
C594 C589 1.363 . S
C594 C593 1.415 . S
C595 H571 0.951 . S
C595 C596 1.366 . S
C595 C597 1.388 . S
C596 C595 1.366 . S
C596 C600 1.385 . S
C597 H572 0.951 . S
C597 C595 1.388 . S
C597 C598 1.366 . S
C598 C597 1.366 . S
C598 C599 1.414 . S
C598 C601 1.499 . S
C599 H573 0.950 . S
C599 C598 1.414 . S
C599 C600 1.374 . S
C600 H574 0.950 . S
C600 C596 1.385 . S
C600 C599 1.374 . S
C601 C598 1.499 . S
C601 C602 1.373 . S
C601 C603 1.389 . S
C602 H575 0.950 . S
C602 C588 1.377 . S
C602 C601 1.373 . S
C603 C587 1.377 . S
C603 C601 1.389 . S
C603 C604 1.524 . S
C604 C603 1.524 . S
C604 C605 1.397 . S
C604 C609 1.363 . S
C605 H576 0.950 . S
C605 C604 1.397 . S
C605 C606 1.334 . S
C606 H577 0.950 . S
C606 C605 1.334 . S
C606 C607 1.287 . S
C607 C606 1.287 . S
C607 C608 1.524 . S
C607 H610 0.999 . S
C608 H578 0.950 . S
C608 C607 1.524 . S
C608 C609 1.415 . S
C609 H579 0.950 . S
C609 C604 1.363 . S
C609 C608 1.415 . S
H610 C607 0.999 . S
H611 C592 0.913 . S
H612 C630 0.951 . S
H613 C632 0.951 . S
H614 C634 0.950 . S
H615 C635 0.950 . S
H616 C637 0.950 . S
H617 C640 0.950 . S
H618 C641 0.950 . S
H619 C643 0.950 . S
H620 C644 0.950 . S
H621 C645 0.951 . S
H622 C647 0.951 . S
H623 C649 0.950 . S
H624 C650 0.950 . S
H625 C652 0.950 . S
H626 C655 0.950 . S
H627 C656 0.950 . S
H628 C658 0.950 . S
H629 C659 0.950 . S
C630 H612 0.951 . S
C630 C631 1.366 . S
C630 C632 1.388 . S
C631 C630 1.366 . S
C631 C635 1.385 . S
C632 H613 0.951 . S
C632 C630 1.388 . S
C632 C633 1.366 . S
C633 C632 1.366 . S
C633 C634 1.414 . S
C633 C636 1.499 . S
C634 H614 0.950 . S
C634 C633 1.414 . S
C634 C635 1.374 . S
C635 H615 0.950 . S
C635 C631 1.385 . S
C635 C634 1.374 . S
C636 C633 1.499 . S
C636 C637 1.373 . S
C636 C638 1.389 . S
C637 H616 0.950 . S
C637 C636 1.373 . S
C637 C653 1.377 . S
C638 C636 1.389 . S
C638 C639 1.524 . S
C638 C652 1.377 . S
C639 C638 1.524 . S
C639 C640 1.397 . S
C639 C644 1.363 . S
C640 H617 0.950 . S
C640 C639 1.397 . S
C640 C641 1.334 . S
C641 H618 0.950 . S
C641 C640 1.334 . S
C641 C642 1.287 . S
C642 C641 1.287 . S
C642 C643 1.524 . S
C642 H661 0.913 . S
C643 H619 0.950 . S
C643 C642 1.524 . S
C643 C644 1.415 . S
C644 H620 0.950 . S
C644 C639 1.363 . S
C644 C643 1.415 . S
C645 H621 0.951 . S
C645 C646 1.366 . S
C645 C647 1.388 . S
C646 C645 1.366 . S
C646 C650 1.385 . S
C647 H622 0.951 . S
C647 C645 1.388 . S
C647 C648 1.366 . S
C648 C647 1.366 . S
C648 C649 1.414 . S
C648 C651 1.499 . S
C649 H623 0.950 . S
C649 C648 1.414 . S
C649 C650 1.374 . S
C650 H624 0.950 . S
C650 C646 1.385 . S
C650 C649 1.374 . S
C651 C648 1.499 . S
C651 C652 1.373 . S
C651 C653 1.389 . S
C652 H625 0.950 . S
C652 C638 1.377 . S
C652 C651 1.373 . S
C653 C637 1.377 . S
C653 C651 1.389 . S
C653 C654 1.524 . S
C654 C653 1.524 . S
C654 C655 1.397 . S
C654 C659 1.363 . S
C655 H626 0.950 . S
C655 C654 1.397 . S
C655 C656 1.334 . S
C656 H627 0.950 . S
C656 C655 1.334 . S
C656 C657 1.287 . S
C657 C656 1.287 . S
C657 C658 1.524 . S
C657 H660 0.999 . S
C658 H628 0.950 . S
C658 C657 1.524 . S
C658 C659 1.415 . S
C659 H629 0.950 . S
C659 C654 1.363 . S
C659 C658 1.415 . S
H660 C657 0.999 . S
H661 C642 0.913 . S
H662 C680 0.951 . S
H663 C682 0.951 . S
H664 C684 0.950 . S
H665 C685 0.950 . S
H666 C687 0.950 . S
H667 C690 0.950 . S
H668 C691 0.950 . S
H669 C693 0.950 . S
H670 C694 0.950 . S
H671 C695 0.936 1_565 S
H672 C697 0.951 . S
H673 C699 0.950 . S
H674 C700 0.950 . S
H675 C702 0.950 . S
H676 C705 0.950 . S
H677 C706 0.950 . S
H678 C708 0.950 . S
H679 C709 0.950 . S
C680 H662 0.951 . S
C680 C681 1.366 . S
C680 C682 1.388 . S
C681 C680 1.366 . S
C681 C685 1.385 . S
C682 H663 0.951 . S
C682 C680 1.388 . S
C682 C683 1.366 . S
C683 C682 1.366 . S
C683 C684 1.414 . S
C683 C686 1.499 . S
C684 H664 0.950 . S
C684 C683 1.414 . S
C684 C685 1.374 . S
C685 H665 0.950 . S
C685 C681 1.385 . S
C685 C684 1.374 . S
C686 C683 1.499 . S
C686 C687 1.373 . S
C686 C688 1.389 . S
C687 H666 0.950 . S
C687 C686 1.373 . S
C687 C703 1.377 . S
C688 C686 1.389 . S
C688 C689 1.524 . S
C688 C702 1.377 . S
C689 C688 1.524 . S
C689 C690 1.397 . S
C689 C694 1.363 . S
C690 H667 0.950 . S
C690 C689 1.397 . S
C690 C691 1.334 . S
C691 H668 0.950 . S
C691 C690 1.334 . S
C691 C692 1.287 . S
C692 C691 1.287 . S
C692 C693 1.524 . S
C692 H711 0.913 . S
C693 H669 0.950 . S
C693 C692 1.524 . S
C693 C694 1.415 . S
C694 H670 0.950 . S
C694 C689 1.363 . S
C694 C693 1.415 . S
C695 H671 0.936 1_545 S
C695 C696 1.366 . S
C695 C697 1.388 . S
C696 C695 1.366 . S
C696 C700 1.385 . S
C697 H672 0.951 . S
C697 C695 1.388 . S
C697 C698 1.366 . S
C698 C697 1.366 . S
C698 C699 1.414 . S
C698 C701 1.499 . S
C699 H673 0.950 . S
C699 C698 1.414 . S
C699 C700 1.374 . S
C700 H674 0.950 . S
C700 C696 1.385 . S
C700 C699 1.374 . S
C701 C698 1.499 . S
C701 C702 1.373 . S
C701 C703 1.389 . S
C702 H675 0.950 . S
C702 C688 1.377 . S
C702 C701 1.373 . S
C703 C687 1.377 . S
C703 C701 1.389 . S
C703 C704 1.524 . S
C704 C703 1.524 . S
C704 C705 1.397 . S
C704 C709 1.363 . S
C705 H676 0.950 . S
C705 C704 1.397 . S
C705 C706 1.334 . S
C706 H677 0.950 . S
C706 C705 1.334 . S
C706 C707 1.287 . S
C707 C706 1.287 . S
C707 C708 1.524 . S
C707 H710 0.999 . S
C708 H678 0.950 . S
C708 C707 1.524 . S
C708 C709 1.415 . S
C709 H679 0.950 . S
C709 C704 1.363 . S
C709 C708 1.415 . S
H710 C707 0.999 . S
H711 C692 0.913 . S
H712 C730 0.951 . S
H713 C732 0.951 . S
H714 C734 0.950 . S
H715 C735 0.950 . S
H716 C737 0.950 . S
H717 C740 0.950 . S
H718 C741 0.950 . S
H719 C743 0.950 . S
H720 C744 0.950 . S
H721 C745 0.951 . S
H722 C747 0.951 . S
H723 C749 0.950 . S
H724 C750 0.950 . S
H725 C752 0.950 . S
H726 C755 0.950 . S
H727 C756 0.950 . S
H728 C758 0.950 . S
H729 C759 0.950 . S
C730 H712 0.951 . S
C730 C731 1.366 . S
C730 C732 1.388 . S
C731 C730 1.366 . S
C731 C735 1.385 . S
C732 H713 0.951 . S
C732 C730 1.388 . S
C732 C733 1.366 . S
C733 C732 1.366 . S
C733 C734 1.414 . S
C733 C736 1.499 . S
C734 H714 0.950 . S
C734 C733 1.414 . S
C734 C735 1.374 . S
C735 H715 0.950 . S
C735 C731 1.385 . S
C735 C734 1.374 . S
C736 C733 1.499 . S
C736 C737 1.373 . S
C736 C738 1.389 . S
C737 H716 0.950 . S
C737 C736 1.373 . S
C737 C753 1.377 . S
C738 C736 1.389 . S
C738 C739 1.524 . S
C738 C752 1.377 . S
C739 C738 1.524 . S
C739 C740 1.397 . S
C739 C744 1.363 . S
C740 H717 0.950 . S
C740 C739 1.397 . S
C740 C741 1.334 . S
C741 H718 0.950 . S
C741 C740 1.334 . S
C741 C742 1.287 . S
C742 C741 1.287 . S
C742 C743 1.524 . S
C742 H761 0.913 . S
C743 H719 0.950 . S
C743 C742 1.524 . S
C743 C744 1.415 . S
C744 H720 0.950 . S
C744 C739 1.363 . S
C744 C743 1.415 . S
C745 H721 0.951 . S
C745 C746 1.366 . S
C745 C747 1.388 . S
C746 C745 1.366 . S
C746 C750 1.385 . S
C747 H722 0.951 . S
C747 C745 1.388 . S
C747 C748 1.366 . S
C748 C747 1.366 . S
C748 C749 1.414 . S
C748 C751 1.499 . S
C749 H723 0.950 . S
C749 C748 1.414 . S
C749 C750 1.374 . S
C750 H724 0.950 . S
C750 C746 1.385 . S
C750 C749 1.374 . S
C751 C748 1.499 . S
C751 C752 1.373 . S
C751 C753 1.389 . S
C752 H725 0.950 . S
C752 C738 1.377 . S
C752 C751 1.373 . S
C753 C737 1.377 . S
C753 C751 1.389 . S
C753 C754 1.524 . S
C754 C753 1.524 . S
C754 C755 1.397 . S
C754 C759 1.363 . S
C755 H726 0.950 . S
C755 C754 1.397 . S
C755 C756 1.334 . S
C756 H727 0.950 . S
C756 C755 1.334 . S
C756 C757 1.287 . S
C757 C756 1.287 . S
C757 C758 1.524 . S
C757 H760 0.999 . S
C758 H728 0.950 . S
C758 C757 1.524 . S
C758 C759 1.415 . S
C759 H729 0.950 . S
C759 C754 1.363 . S
C759 C758 1.415 . S
H760 C757 0.999 . S
H761 C742 0.913 . S
H762 C780 0.951 . S
H763 C782 0.951 . S
H764 C784 0.950 . S
H765 C785 0.950 . S
H766 C787 0.950 . S
H767 C790 0.950 . S
H768 C791 0.950 . S
H769 C793 0.950 . S
H770 C794 0.950 . S
H771 C795 0.951 . S
H772 C797 0.951 . S
H773 C799 0.950 . S
H774 C800 0.950 . S
H775 C802 0.950 . S
H776 C805 0.950 . S
H777 C806 0.950 . S
H778 C808 0.950 . S
H779 C809 0.950 . S
C780 H762 0.951 . S
C780 C781 1.366 . S
C780 C782 1.388 . S
C781 C780 1.366 . S
C781 C785 1.385 . S
C782 H763 0.951 . S
C782 C780 1.388 . S
C782 C783 1.366 . S
C783 C782 1.366 . S
C783 C784 1.414 . S
C783 C786 1.499 . S
C784 H764 0.950 . S
C784 C783 1.414 . S
C784 C785 1.374 . S
C785 H765 0.950 . S
C785 C781 1.385 . S
C785 C784 1.374 . S
C786 C783 1.499 . S
C786 C787 1.373 . S
C786 C788 1.389 . S
C787 H766 0.950 . S
C787 C786 1.373 . S
C787 C803 1.377 . S
C788 C786 1.389 . S
C788 C789 1.524 . S
C788 C802 1.377 . S
C789 C788 1.524 . S
C789 C790 1.397 . S
C789 C794 1.363 . S
C790 H767 0.950 . S
C790 C789 1.397 . S
C790 C791 1.334 . S
C791 H768 0.950 . S
C791 C790 1.334 . S
C791 C792 1.287 . S
C792 C791 1.287 . S
C792 C793 1.524 . S
C792 H811 0.913 . S
C793 H769 0.950 . S
C793 C792 1.524 . S
C793 C794 1.415 . S
C794 H770 0.950 . S
C794 C789 1.363 . S
C794 C793 1.415 . S
C795 H771 0.951 . S
C795 C796 1.366 . S
C795 C797 1.388 . S
C796 C795 1.366 . S
C796 C800 1.385 . S
C797 H772 0.951 . S
C797 C795 1.388 . S
C797 C798 1.366 . S
C798 C797 1.366 . S
C798 C799 1.414 . S
C798 C801 1.499 . S
C799 H773 0.950 . S
C799 C798 1.414 . S
C799 C800 1.374 . S
C800 H774 0.950 . S
C800 C796 1.385 . S
C800 C799 1.374 . S
C801 C798 1.499 . S
C801 C802 1.373 . S
C801 C803 1.389 . S
C802 H775 0.950 . S
C802 C788 1.377 . S
C802 C801 1.373 . S
C803 C787 1.377 . S
C803 C801 1.389 . S
C803 C804 1.524 . S
C804 C803 1.524 . S
C804 C805 1.397 . S
C804 C809 1.363 . S
C805 H776 0.950 . S
C805 C804 1.397 . S
C805 C806 1.334 . S
C806 H777 0.950 . S
C806 C805 1.334 . S
C806 C807 1.287 . S
C807 C806 1.287 . S
C807 C808 1.524 . S
C807 H810 0.999 . S
C808 H778 0.950 . S
C808 C807 1.524 . S
C808 C809 1.415 . S
C809 H779 0.950 . S
C809 C804 1.363 . S
C809 C808 1.415 . S
H810 C807 0.999 . S
H811 C792 0.913 . S
H812 C830 0.951 . S
H813 C832 0.951 . S
H814 C834 0.950 . S
H815 C835 0.950 . S
H816 C837 0.950 . S
H817 C840 0.950 . S
H818 C841 0.950 . S
H819 C843 0.950 . S
H820 C844 0.950 . S
H821 C845 0.951 . S
H822 C847 0.951 . S
H823 C849 0.950 . S
H824 C850 0.950 . S
H825 C852 0.950 . S
H826 C855 0.950 . S
H827 C856 0.950 . S
H828 C858 0.950 . S
H829 C859 0.950 . S
C830 H812 0.951 . S
C830 C831 1.366 . S
C830 C832 1.388 . S
C831 C830 1.366 . S
C831 C835 1.385 . S
C832 H813 0.951 . S
C832 C830 1.388 . S
C832 C833 1.366 . S
C833 C832 1.366 . S
C833 C834 1.414 . S
C833 C836 1.499 . S
C834 H814 0.950 . S
C834 C833 1.414 . S
C834 C835 1.374 . S
C835 H815 0.950 . S
C835 C831 1.385 . S
C835 C834 1.374 . S
C836 C833 1.499 . S
C836 C837 1.373 . S
C836 C838 1.389 . S
C837 H816 0.950 . S
C837 C836 1.373 . S
C837 C853 1.377 . S
C838 C836 1.389 . S
C838 C839 1.524 . S
C838 C852 1.377 . S
C839 C838 1.524 . S
C839 C840 1.397 . S
C839 C844 1.363 . S
C840 H817 0.950 . S
C840 C839 1.397 . S
C840 C841 1.334 . S
C841 H818 0.950 . S
C841 C840 1.334 . S
C841 C842 1.287 . S
C842 C841 1.287 . S
C842 C843 1.524 . S
C842 H861 0.913 . S
C843 H819 0.950 . S
C843 C842 1.524 . S
C843 C844 1.415 . S
C844 H820 0.950 . S
C844 C839 1.363 . S
C844 C843 1.415 . S
C845 H821 0.951 . S
C845 C846 1.366 . S
C845 C847 1.388 . S
C846 C845 1.366 . S
C846 C850 1.385 . S
C847 H822 0.951 . S
C847 C845 1.388 . S
C847 C848 1.366 . S
C848 C847 1.366 . S
C848 C849 1.414 . S
C848 C851 1.499 . S
C849 H823 0.950 . S
C849 C848 1.414 . S
C849 C850 1.374 . S
C850 H824 0.950 . S
C850 C846 1.385 . S
C850 C849 1.374 . S
C851 C848 1.499 . S
C851 C852 1.373 . S
C851 C853 1.389 . S
C852 H825 0.950 . S
C852 C838 1.377 . S
C852 C851 1.373 . S
C853 C837 1.377 . S
C853 C851 1.389 . S
C853 C854 1.524 . S
C854 C853 1.524 . S
C854 C855 1.397 . S
C854 C859 1.363 . S
C855 H826 0.950 . S
C855 C854 1.397 . S
C855 C856 1.334 . S
C856 H827 0.950 . S
C856 C855 1.334 . S
C856 C857 1.287 . S
C857 C856 1.287 . S
C857 C858 1.524 . S
C857 H860 0.999 . S
C858 H828 0.950 . S
C858 C857 1.524 . S
C858 C859 1.415 . S
C859 H829 0.950 . S
C859 C854 1.363 . S
C859 C858 1.415 . S
H860 C857 0.999 . S
H861 C842 0.913 . S
H862 C880 0.951 . S
H863 C882 0.951 . S
H864 C884 0.950 . S
H865 C885 0.950 . S
H866 C887 0.950 . S
H867 C890 0.950 . S
H868 C891 0.950 . S
H869 C893 0.950 . S
H870 C894 0.950 . S
H871 C895 0.951 . S
H872 C897 0.951 . S
H873 C899 0.950 . S
H874 C900 0.950 . S
H875 C902 0.950 . S
H876 C905 0.950 . S
H877 C906 0.950 . S
H878 C908 0.950 . S
H879 C909 0.950 . S
C880 H862 0.951 . S
C880 C881 1.366 . S
C880 C882 1.388 . S
C881 C880 1.366 . S
C881 C885 1.385 . S
C882 H863 0.951 . S
C882 C880 1.388 . S
C882 C883 1.366 . S
C883 C882 1.366 . S
C883 C884 1.414 . S
C883 C886 1.499 . S
C884 H864 0.950 . S
C884 C883 1.414 . S
C884 C885 1.374 . S
C885 H865 0.950 . S
C885 C881 1.385 . S
C885 C884 1.374 . S
C886 C883 1.499 . S
C886 C887 1.373 . S
C886 C888 1.389 . S
C887 H866 0.950 . S
C887 C886 1.373 . S
C887 C903 1.377 . S
C888 C886 1.389 . S
C888 C889 1.524 . S
C888 C902 1.377 . S
C889 C888 1.524 . S
C889 C890 1.397 . S
C889 C894 1.363 . S
C890 H867 0.950 . S
C890 C889 1.397 . S
C890 C891 1.334 . S
C891 H868 0.950 . S
C891 C890 1.334 . S
C891 C892 1.287 . S
C892 C891 1.287 . S
C892 C893 1.524 . S
C892 H911 0.913 . S
C893 H869 0.950 . S
C893 C892 1.524 . S
C893 C894 1.415 . S
C894 H870 0.950 . S
C894 C889 1.363 . S
C894 C893 1.415 . S
C895 H871 0.951 . S
C895 C896 1.366 . S
C895 C897 1.388 . S
C896 C895 1.366 . S
C896 C900 1.385 . S
C897 H872 0.951 . S
C897 C895 1.388 . S
C897 C898 1.366 . S
C898 C897 1.366 . S
C898 C899 1.414 . S
C898 C901 1.499 . S
C899 H873 0.950 . S
C899 C898 1.414 . S
C899 C900 1.374 . S
C900 H874 0.950 . S
C900 C896 1.385 . S
C900 C899 1.374 . S
C901 C898 1.499 . S
C901 C902 1.373 . S
C901 C903 1.389 . S
C902 H875 0.950 . S
C902 C888 1.377 . S
C902 C901 1.373 . S
C903 C887 1.377 . S
C903 C901 1.389 . S
C903 C904 1.524 . S
C904 C903 1.524 . S
C904 C905 1.397 . S
C904 C909 1.363 . S
C905 H876 0.950 . S
C905 C904 1.397 . S
C905 C906 1.334 . S
C906 H877 0.950 . S
C906 C905 1.334 . S
C906 C907 1.287 . S
C907 C906 1.287 . S
C907 C908 1.524 . S
C907 H910 0.999 . S
C908 H878 0.950 . S
C908 C907 1.524 . S
C908 C909 1.415 . S
C909 H879 0.950 . S
C909 C904 1.363 . S
C909 C908 1.415 . S
H910 C907 0.999 . S
H911 C892 0.913 . S
C131 C9 0.615 . S
C146 C37 0.615 . S
C181 C23 0.614 . S
C196 C51 0.613 . S
C231 C65 0.615 . S
C246 C93 0.614 . S
C281 C79 0.614 . S
C296 C107 0.614 . S
C331 C8 1.340 . S
C346 C78 1.340 . S
C381 C22 1.340 . S
C396 C92 1.340 . S
C431 C106 1.339 . S
C446 C36 1.339 . S
C481 C50 1.340 . S
C496 C64 1.339 . S
C531 C63 1.812 . S
C546 C6 1.768 . S
C581 C20 1.769 . S
C596 C77 1.813 1_565 S
C631 C34 1.769 . S
C646 C91 1.812 . S
C681 C48 1.769 . S
C696 C105 1.812 1_545 S
C731 C7 1.812 1_655 S
C746 C62 1.768 . S
C781 C76 1.769 . S
C796 C21 1.812 . S
C831 C90 1.769 . S
C846 C35 1.813 1_455 S
C881 C49 1.812 . S
C896 C104 1.769 . S
