# Generated by pormake.
# Topology wns, (7)-cn, num edge types: 1
# Building blocks:
#     Node 0, Type 0, BuildingBlock: HICVOG_clean_sbu_0, # of connection points: 7
#     Node 1, Type 0, BuildingBlock: HICVOG_clean_sbu_0, # of connection points: 7
#     Node 2, Type 0, BuildingBlock: HICVOG_clean_sbu_0, # of connection points: 7
#     Node 3, Type 0, BuildingBlock: HICVOG_clean_sbu_0, # of connection points: 7
#     Node 4, Type 0, BuildingBlock: HICVOG_clean_sbu_0, # of connection points: 7
#     Node 5, Type 0, BuildingBlock: HICVOG_clean_sbu_0, # of connection points: 7
#     Node 6, Type 0, BuildingBlock: HICVOG_clean_sbu_0, # of connection points: 7
#     Node 7, Type 0, BuildingBlock: HICVOG_clean_sbu_0, # of connection points: 7
#     Node 8, Type 0, BuildingBlock: HICVOG_clean_sbu_0, # of connection points: 7
#     Node 9, Type 0, BuildingBlock: HICVOG_clean_sbu_0, # of connection points: 7
#     Node 10, Type 0, BuildingBlock: HICVOG_clean_sbu_0, # of connection points: 7
#     Node 11, Type 0, BuildingBlock: HICVOG_clean_sbu_0, # of connection points: 7
#     Edge 12, Type (0, 0), BuildingBlock: XUDNAN_clean_linker_2, # of connection points: 2
#     Edge 13, Type (0, 0), BuildingBlock: XUDNAN_clean_linker_2, # of connection points: 2
#     Edge 14, Type (0, 0), BuildingBlock: XUDNAN_clean_linker_2, # of connection points: 2
#     Edge 15, Type (0, 0), BuildingBlock: XUDNAN_clean_linker_2, # of connection points: 2
#     Edge 16, Type (0, 0), BuildingBlock: XUDNAN_clean_linker_2, # of connection points: 2
#     Edge 17, Type (0, 0), BuildingBlock: XUDNAN_clean_linker_2, # of connection points: 2
#     Edge 18, Type (0, 0), BuildingBlock: XUDNAN_clean_linker_2, # of connection points: 2
#     Edge 19, Type (0, 0), BuildingBlock: XUDNAN_clean_linker_2, # of connection points: 2
#     Edge 20, Type (0, 0), BuildingBlock: XUDNAN_clean_linker_2, # of connection points: 2
#     Edge 21, Type (0, 0), BuildingBlock: XUDNAN_clean_linker_2, # of connection points: 2
#     Edge 22, Type (0, 0), BuildingBlock: XUDNAN_clean_linker_2, # of connection points: 2
#     Edge 23, Type (0, 0), BuildingBlock: XUDNAN_clean_linker_2, # of connection points: 2
#     Edge 24, Type (0, 0), BuildingBlock: XUDNAN_clean_linker_2, # of connection points: 2
#     Edge 25, Type (0, 0), BuildingBlock: XUDNAN_clean_linker_2, # of connection points: 2
#     Edge 26, Type (0, 0), BuildingBlock: XUDNAN_clean_linker_2, # of connection points: 2
#     Edge 27, Type (0, 0), BuildingBlock: XUDNAN_clean_linker_2, # of connection points: 2
#     Edge 28, Type (0, 0), BuildingBlock: XUDNAN_clean_linker_2, # of connection points: 2
#     Edge 29, Type (0, 0), BuildingBlock: XUDNAN_clean_linker_2, # of connection points: 2
#     Edge 30, Type (0, 0), BuildingBlock: XUDNAN_clean_linker_2, # of connection points: 2
#     Edge 31, Type (0, 0), BuildingBlock: XUDNAN_clean_linker_2, # of connection points: 2
#     Edge 32, Type (0, 0), BuildingBlock: XUDNAN_clean_linker_2, # of connection points: 2
#     Edge 33, Type (0, 0), BuildingBlock: XUDNAN_clean_linker_2, # of connection points: 2
#     Edge 34, Type (0, 0), BuildingBlock: XUDNAN_clean_linker_2, # of connection points: 2
#     Edge 35, Type (0, 0), BuildingBlock: XUDNAN_clean_linker_2, # of connection points: 2
#     Edge 36, Type (0, 0), BuildingBlock: XUDNAN_clean_linker_2, # of connection points: 2
#     Edge 37, Type (0, 0), BuildingBlock: XUDNAN_clean_linker_2, # of connection points: 2
#     Edge 38, Type (0, 0), BuildingBlock: XUDNAN_clean_linker_2, # of connection points: 2
#     Edge 39, Type (0, 0), BuildingBlock: XUDNAN_clean_linker_2, # of connection points: 2
#     Edge 40, Type (0, 0), BuildingBlock: XUDNAN_clean_linker_2, # of connection points: 2
#     Edge 41, Type (0, 0), BuildingBlock: XUDNAN_clean_linker_2, # of connection points: 2
#     Edge 42, Type (0, 0), BuildingBlock: XUDNAN_clean_linker_2, # of connection points: 2
#     Edge 43, Type (0, 0), BuildingBlock: XUDNAN_clean_linker_2, # of connection points: 2
#     Edge 44, Type (0, 0), BuildingBlock: XUDNAN_clean_linker_2, # of connection points: 2
#     Edge 45, Type (0, 0), BuildingBlock: XUDNAN_clean_linker_2, # of connection points: 2
#     Edge 46, Type (0, 0), BuildingBlock: XUDNAN_clean_linker_2, # of connection points: 2
#     Edge 47, Type (0, 0), BuildingBlock: XUDNAN_clean_linker_2, # of connection points: 2
#     Edge 48, Type (0, 0), BuildingBlock: XUDNAN_clean_linker_2, # of connection points: 2
#     Edge 49, Type (0, 0), BuildingBlock: XUDNAN_clean_linker_2, # of connection points: 2
#     Edge 50, Type (0, 0), BuildingBlock: XUDNAN_clean_linker_2, # of connection points: 2
#     Edge 51, Type (0, 0), BuildingBlock: XUDNAN_clean_linker_2, # of connection points: 2
#     Edge 52, Type (0, 0), BuildingBlock: XUDNAN_clean_linker_2, # of connection points: 2
#     Edge 53, Type (0, 0), BuildingBlock: XUDNAN_clean_linker_2, # of connection points: 2
# Relax obj value: 0.155
# Max RMSD: 0.215
# Mean RMSD: 0.215
data_MOF--net-wns--node1-HICVOG_clean_sbu_0--edge1-XUDNAN_clean_linker_2
_symmetry_space_group_name_H-M    P1
_symmetry_Int_Tables_number       1
_symmetry_cell_setting            triclinic
loop_
_symmetry_equiv_pos_as_xyz
'x, y, z'
_cell_length_a     42.226764
_cell_length_b     42.199082
_cell_length_c     35.019671
_cell_angle_alpha  89.709446
_cell_angle_beta   90.150941
_cell_angle_gamma 120.16137
loop_
_atom_site_label
_atom_site_type_symbol
_atom_site_fract_x
_atom_site_fract_y
_atom_site_fract_z
_atom_type_partial_charge
Zn0 Zn 0.43684 0.29437 0.15896 0.0
C1 C 0.35139 0.26168 0.08701 0.0
N2 N 0.3415 0.27947 0.11141 0.0
C3 C 0.36537 0.28818 0.1402 0.0
N4 N 0.3897 0.2768 0.13343 0.0
N5 N 0.38027 0.2593 0.10013 0.0
C6 C 0.42014 0.22714 0.00827 0.0
O7 O 0.45041 0.24598 0.02803 0.0
O8 O 0.43419 0.29235 0.21748 0.0
Zn9 Zn 0.39063 0.22116 0.08314 0.0
N10 N 0.47017 0.34419 0.14025 0.0
C11 C 0.47924 0.39605 0.10417 0.0
C12 C 0.45611 0.36122 0.11885 0.0
C13 C 0.50691 0.36049 0.14671 0.0
N14 N 0.51572 0.41236 0.1108 0.0
C15 C 0.53071 0.3958 0.13159 0.0
O16 O 0.43799 0.22436 0.10227 0.0
C17 C 0.46267 0.24194 0.12712 0.0
O18 O 0.46213 0.26642 0.14745 0.0
H19 H 0.42715 0.34793 0.11301 0.0
H20 H 0.5171 0.34545 0.16257 0.0
C21 C 0.33905 0.14351 0.08459 0.0
C22 C 0.31352 0.11027 0.10209 0.0
C23 C 0.31486 0.14294 0.15756 0.0
C24 C 0.34029 0.17578 0.14017 0.0
N25 N 0.35209 0.17543 0.1042 0.0
N26 N 0.30233 0.11097 0.13832 0.0
H27 H 0.34948 0.14393 0.05627 0.0
C28 C 0.41113 0.26553 0.23787 0.0
O29 O 0.38415 0.2369 0.22108 0.0
O30 O 0.38956 0.21561 0.02506 0.0
H31 H 0.35108 0.20132 0.15546 0.0
H32 H 0.46835 0.40996 0.08732 0.0
H33 H 0.30549 0.14279 0.18632 0.0
Zn34 Zn 0.73856 0.16014 0.16666 0.0
C35 C 0.77368 0.10493 0.1023 0.0
N36 N 0.75306 0.07819 0.12737 0.0
C37 C 0.7436 0.09553 0.15272 0.0
N38 N 0.75731 0.13114 0.14371 0.0
N39 N 0.77701 0.13763 0.11204 0.0
C40 C 0.79487 0.19514 0.01748 0.0
O41 O 0.76813 0.19469 0.03703 0.0
O42 O 0.73848 0.1577 0.22498 0.0
Zn43 Zn 0.81531 0.18674 0.0933 0.0
N44 N 0.68924 0.14314 0.14661 0.0
C45 C 0.64036 0.10184 0.10653 0.0
C46 C 0.67462 0.1139 0.12268 0.0
C47 C 0.67126 0.1618 0.15385 0.0
N48 N 0.6224 0.12019 0.11388 0.0
C49 C 0.63665 0.15018 0.13688 0.0
O50 O 0.81096 0.2306 0.111 0.0
C51 C 0.79247 0.2379 0.13441 0.0
O52 O 0.76711 0.21306 0.15443 0.0
H53 H 0.68963 0.10035 0.11545 0.0
H54 H 0.6846 0.1859 0.17157 0.0
C55 C 0.89396 0.21457 0.09409 0.0
C56 C 0.92723 0.22299 0.11198 0.0
C57 C 0.8943 0.1916 0.16767 0.0
C58 C 0.86149 0.18351 0.14995 0.0
N59 N 0.8619 0.19534 0.1137 0.0
N60 N 0.92634 0.21137 0.14849 0.0
H61 H 0.89366 0.22428 0.0655 0.0
C62 C 0.76761 0.1668 0.24401 0.0
O63 O 0.79782 0.17492 0.22557 0.0
O64 O 0.81881 0.19085 0.03518 0.0
H65 H 0.83588 0.16846 0.16522 0.0
H66 H 0.62836 0.07843 0.08768 0.0
H67 H 0.89435 0.18263 0.19665 0.0
Zn68 Zn 0.87434 0.5956 0.16641 0.0
C69 C 0.92737 0.6815 0.09469 0.0
N70 N 0.95405 0.69293 0.12092 0.0
C71 C 0.9383 0.66856 0.14936 0.0
N72 N 0.9036 0.64245 0.14038 0.0
N73 N 0.89643 0.65127 0.10624 0.0
C74 C 0.82695 0.60905 0.01478 0.0
O75 O 0.81835 0.58007 0.03598 0.0
O76 O 0.87277 0.60344 0.224 0.0
Zn77 Zn 0.84842 0.64134 0.08841 0.0
N78 N 0.89388 0.56371 0.15225 0.0
C79 C 0.94054 0.55706 0.12174 0.0
C80 C 0.92676 0.57905 0.13398 0.0
C81 C 0.87355 0.52672 0.15749 0.0
N82 N 0.92046 0.52034 0.12717 0.0
C83 C 0.88709 0.50407 0.14453 0.0
O84 O 0.80448 0.59387 0.10743 0.0
C85 C 0.797 0.56793 0.13091 0.0
O86 O 0.82154 0.56791 0.15183 0.0
H87 H 0.94226 0.60816 0.1287 0.0
H88 H 0.84681 0.51543 0.1704 0.0
C89 C 0.82446 0.69505 0.08892 0.0
C90 C 0.81821 0.72134 0.1065 0.0
C91 C 0.84848 0.71806 0.16216 0.0
C92 C 0.85465 0.69205 0.14469 0.0
N93 N 0.8421 0.68061 0.10869 0.0
N94 N 0.83016 0.73186 0.14286 0.0
H95 H 0.81451 0.6854 0.06037 0.0
C96 C 0.85351 0.6176 0.23355 0.0
O97 O 0.83686 0.62544 0.20656 0.0
O98 O 0.84377 0.64058 0.03019 0.0
H99 H 0.86896 0.68073 0.15992 0.0
H100 H 0.96679 0.56901 0.10751 0.0
H101 H 0.85793 0.727 0.19098 0.0
Zn102 Zn 0.29311 0.44058 0.35011 0.0
C103 C 0.25941 0.34673 0.40762 0.0
N104 N 0.27875 0.34201 0.38008 0.0
C105 C 0.28674 0.36989 0.35629 0.0
N106 N 0.27336 0.39099 0.36839 0.0
N107 N 0.25525 0.37615 0.40056 0.0
C108 C 0.20103 0.39501 0.50163 0.0
O109 O 0.18474 0.41132 0.48574 0.0
O110 O 0.29781 0.44233 0.29217 0.0
Zn111 Zn 0.21696 0.38461 0.42243 0.0
N112 N 0.34054 0.4711 0.37537 0.0
C113 C 0.37889 0.4734 0.42659 0.0
C114 C 0.34625 0.45505 0.4064 0.0
C115 C 0.36636 0.50582 0.36431 0.0
N116 N 0.40474 0.50738 0.41522 0.0
C117 C 0.39965 0.52449 0.38477 0.0
O118 O 0.21746 0.4316 0.40493 0.0
C119 C 0.23457 0.45796 0.3813 0.0
O120 O 0.26116 0.46108 0.36161 0.0
H121 H 0.32565 0.42804 0.41563 0.0
H122 H 0.3614 0.51831 0.33967 0.0
C123 C 0.13915 0.33204 0.42698 0.0
C124 C 0.1056 0.30252 0.41409 0.0
C125 C 0.13606 0.29816 0.35914 0.0
C126 C 0.169 0.32762 0.37186 0.0
N127 N 0.17004 0.34388 0.4056 0.0
N128 N 0.10529 0.28631 0.38046 0.0
H129 H 0.14092 0.34512 0.45393 0.0
C130 C 0.26955 0.42252 0.27187 0.0
O131 O 0.23856 0.39999 0.28906 0.0
O132 O 0.21692 0.38277 0.48045 0.0
H133 H 0.19362 0.3374 0.35499 0.0
H134 H 0.38374 0.46071 0.45109 0.0
H135 H 0.13491 0.28482 0.33246 0.0
Zn136 Zn 0.59702 0.86251 0.35541 0.0
C137 C 0.68685 0.92219 0.42146 0.0
N138 N 0.69325 0.94951 0.39764 0.0
C139 C 0.667 0.93313 0.37112 0.0
N140 N 0.64454 0.89679 0.37906 0.0
N141 N 0.6581 0.89008 0.41038 0.0
C142 C 0.64031 0.81518 0.5065 0.0
O143 O 0.62531 0.7832 0.48947 0.0
O144 O 0.60555 0.86512 0.29804 0.0
Zn145 Zn 0.65337 0.84461 0.42839 0.0
N146 N 0.56175 0.87762 0.37136 0.0
C147 C 0.55317 0.92275 0.40269 0.0
C148 C 0.57604 0.91053 0.38935 0.0
C149 C 0.52469 0.85571 0.36742 0.0
N150 N 0.51655 0.90119 0.3986 0.0
C151 C 0.50109 0.86773 0.38163 0.0
O152 O 0.60956 0.79871 0.40898 0.0
C153 C 0.58151 0.78656 0.38756 0.0
O154 O 0.57462 0.80793 0.36805 0.0
H155 H 0.60507 0.9274 0.39368 0.0
H156 H 0.5141 0.82912 0.3544 0.0
C157 C 0.70763 0.82222 0.42885 0.0
C158 C 0.73952 0.82256 0.41647 0.0
C159 C 0.74772 0.86617 0.36878 0.0
C160 C 0.71588 0.86537 0.38086 0.0
N161 N 0.69668 0.84379 0.41094 0.0
N162 N 0.75886 0.84493 0.38688 0.0
H163 H 0.692 0.80555 0.45288 0.0
C164 C 0.5844 0.84165 0.27377 0.0
O165 O 0.55304 0.81391 0.28527 0.0
O166 O 0.65328 0.84424 0.48631 0.0
H167 H 0.70676 0.88209 0.3665 0.0
H168 H 0.56438 0.94903 0.41668 0.0
H169 H 0.76347 0.88354 0.34518 0.0
Zn170 Zn 0.15923 0.73565 0.35698 0.0
C171 C 0.10985 0.77621 0.423 0.0
N172 N 0.08369 0.7598 0.39621 0.0
C173 C 0.09933 0.74836 0.37093 0.0
N174 N 0.13324 0.75663 0.38167 0.0
N175 N 0.14066 0.77519 0.41409 0.0
C176 C 0.20435 0.80329 0.50851 0.0
O177 O 0.203 0.77358 0.49522 0.0
O178 O 0.15601 0.74183 0.29989 0.0
Zn179 Zn 0.19107 0.81132 0.42946 0.0
N180 N 0.13774 0.68486 0.37396 0.0
C181 C 0.09693 0.63735 0.41596 0.0
C182 C 0.11086 0.67238 0.40078 0.0
C183 C 0.15279 0.66428 0.36331 0.0
N184 N 0.11171 0.61676 0.40522 0.0
C185 C 0.13964 0.62909 0.37954 0.0
O186 O 0.23113 0.79971 0.41561 0.0
C187 C 0.23711 0.78067 0.3917 0.0
O188 O 0.2122 0.75841 0.36944 0.0
H189 H 0.10066 0.68968 0.41097 0.0
H190 H 0.17583 0.67622 0.34399 0.0
C191 C 0.22092 0.88961 0.4185 0.0
C192 C 0.23405 0.92149 0.39592 0.0
C193 C 0.21272 0.88458 0.34042 0.0
C194 C 0.20008 0.85309 0.36283 0.0
N195 N 0.20461 0.85617 0.40134 0.0
N196 N 0.22973 0.91799 0.35736 0.0
H197 H 0.22497 0.89143 0.44912 0.0
C198 C 0.17895 0.74233 0.27604 0.0
O199 O 0.20381 0.73452 0.28786 0.0
O200 O 0.19756 0.82294 0.48603 0.0
H201 H 0.18752 0.82638 0.34959 0.0
H202 H 0.07519 0.62695 0.43694 0.0
H203 H 0.2096 0.88252 0.30971 0.0
Zn204 Zn 0.65492 0.81863 0.92606 0.0
C205 C 0.67003 0.74517 0.86841 0.0
N206 N 0.69654 0.75497 0.89452 0.0
C207 C 0.68998 0.77492 0.91933 0.0
N208 N 0.6607 0.77782 0.90902 0.0
N209 N 0.64727 0.75817 0.87733 0.0
C210 C 0.62559 0.78405 0.78624 0.0
O211 O 0.63902 0.80919 0.81296 0.0
O212 O 0.65453 0.82373 0.98358 0.0
Zn213 Zn 0.59934 0.74334 0.85398 0.0
N214 N 0.69646 0.86362 0.90722 0.0
C215 C 0.73817 0.8966 0.85694 0.0
C216 C 0.71074 0.86365 0.87247 0.0
C217 C 0.70914 0.89515 0.92753 0.0
N218 N 0.75023 0.92822 0.87676 0.0
C219 C 0.73666 0.9284 0.9119 0.0
O220 O 0.5755 0.77336 0.86688 0.0
C221 C 0.58233 0.80204 0.88514 0.0
O222 O 0.61078 0.8192 0.90571 0.0
H223 H 0.70042 0.83841 0.85668 0.0
H224 H 0.69697 0.89453 0.95489 0.0
C225 C 0.52827 0.67625 0.86311 0.0
C226 C 0.50461 0.64029 0.87684 0.0
C227 C 0.5561 0.63936 0.90312 0.0
C228 C 0.57908 0.67481 0.88994 0.0
N229 N 0.56502 0.69257 0.86976 0.0
N230 N 0.51967 0.6231 0.89637 0.0
H231 H 0.51786 0.69166 0.84828 0.0
C232 C 0.62541 0.80922 1.00353 0.0
O233 O 0.59389 0.78747 0.98692 0.0
O234 O 0.60603 0.75065 0.79629 0.0
H235 H 0.60795 0.688 0.89609 0.0
H236 H 0.74947 0.89711 0.8291 0.0
H237 H 0.56706 0.62495 0.91898 0.0
Zn238 Zn 0.22264 0.84605 0.93049 0.0
C239 C 0.29792 0.92831 0.8653 0.0
N240 N 0.29525 0.94986 0.89146 0.0
C241 C 0.27489 0.92602 0.91905 0.0
N242 N 0.26473 0.891 0.91001 0.0
N243 N 0.27981 0.89277 0.87628 0.0
C244 C 0.2867 0.8365 0.77568 0.0
O245 O 0.2779 0.80444 0.79044 0.0
O246 O 0.21859 0.8443 0.98836 0.0
Zn247 Zn 0.29279 0.85812 0.85564 0.0
N248 N 0.17862 0.84442 0.91098 0.0
C249 C 0.15046 0.86531 0.86631 0.0
C250 C 0.18144 0.86524 0.88 0.0
C251 C 0.14575 0.82316 0.92853 0.0
N252 N 0.11777 0.84443 0.88401 0.0
C253 C 0.11426 0.823 0.91473 0.0
O254 O 0.25791 0.80501 0.86807 0.0
C255 C 0.23237 0.78477 0.89111 0.0
O256 O 0.21944 0.79804 0.91493 0.0
H257 H 0.20758 0.88186 0.86614 0.0
H258 H 0.14449 0.80728 0.95344 0.0
C259 C 0.36537 0.8639 0.86327 0.0
C260 C 0.3983 0.87485 0.88322 0.0
C261 C 0.37771 0.89738 0.93349 0.0
C262 C 0.34519 0.88643 0.91397 0.0
N263 N 0.3397 0.87055 0.87899 0.0
N264 N 0.4035 0.89153 0.91764 0.0
H265 H 0.36046 0.85083 0.83566 0.0
C266 C 0.22961 0.82662 0.00867 0.0
O267 O 0.247 0.8119 0.99209 0.0
O268 O 0.29602 0.86358 0.79788 0.0
H269 H 0.32445 0.8906 0.92689 0.0
H270 H 0.15239 0.88195 0.84185 0.0
H271 H 0.38245 0.91037 0.96111 0.0
Zn272 Zn 0.18727 0.39562 0.92523 0.0
C273 C 0.09438 0.38579 0.87837 0.0
N274 N 0.07825 0.36542 0.9093 0.0
C275 C 0.1067 0.36871 0.92983 0.0
N276 N 0.13924 0.39015 0.9121 0.0
N277 N 0.13104 0.40096 0.87963 0.0
C278 C 0.17986 0.39666 0.78082 0.0
O279 O 0.20283 0.39668 0.80621 0.0
O280 O 0.19681 0.39899 0.98325 0.0
Zn281 Zn 0.16192 0.43426 0.83992 0.0
N282 N 0.18814 0.35247 0.90708 0.0
C283 C 0.16512 0.30218 0.86414 0.0
C284 C 0.16627 0.33392 0.87709 0.0
C285 C 0.20938 0.34071 0.92447 0.0
N286 N 0.18587 0.29016 0.88172 0.0
C287 C 0.20829 0.30854 0.91155 0.0
O288 O 0.21472 0.46428 0.85358 0.0
C289 C 0.23896 0.46536 0.87591 0.0
O290 O 0.23109 0.44105 0.90165 0.0
H291 H 0.14963 0.34357 0.86351 0.0
H292 H 0.22612 0.35577 0.94864 0.0
C293 C 0.15807 0.50118 0.84633 0.0
C294 C 0.14866 0.52689 0.83278 0.0
C295 C 0.1136 0.48577 0.78335 0.0
C296 C 0.12347 0.46072 0.7964 0.0
N297 N 0.14552 0.46879 0.8275 0.0
N298 N 0.12667 0.5183 0.80152 0.0
H299 H 0.17631 0.50741 0.87046 0.0
C300 C 0.22122 0.42939 0.99732 0.0
O301 O 0.23684 0.4584 0.97506 0.0
O302 O 0.15892 0.40885 0.79011 0.0
H303 H 0.11419 0.43527 0.78131 0.0
H304 H 0.14768 0.28705 0.84041 0.0
H305 H 0.0962 0.4797 0.75854 0.0
Zn306 Zn 0.73536 0.58499 0.6665 0.0
C307 C 0.76797 0.67227 0.59852 0.0
N308 N 0.74689 0.67872 0.62228 0.0
C309 C 0.73937 0.65407 0.6501 0.0
N310 N 0.75413 0.63279 0.64331 0.0
N311 N 0.77311 0.64487 0.6111 0.0
C312 C 0.82836 0.62637 0.51247 0.0
O313 O 0.84412 0.61011 0.5296 0.0
O314 O 0.73623 0.58696 0.72451 0.0
Zn315 Zn 0.80997 0.63417 0.59055 0.0
N316 N 0.68548 0.55244 0.64805 0.0
C317 C 0.6352 0.54377 0.60962 0.0
C318 C 0.66988 0.56655 0.62461 0.0
C319 C 0.66807 0.51576 0.65588 0.0
N320 N 0.61785 0.5074 0.61749 0.0
C321 C 0.63312 0.49219 0.63999 0.0
O322 O 0.80394 0.58443 0.60534 0.0
C323 C 0.78613 0.55933 0.62997 0.0
O324 O 0.76279 0.56032 0.65188 0.0
H325 H 0.68446 0.5951 0.61675 0.0
H326 H 0.68209 0.5053 0.67309 0.0
C327 C 0.88916 0.68584 0.5911 0.0
C328 C 0.92256 0.70923 0.60963 0.0
C329 C 0.89012 0.70234 0.66714 0.0
C330 C 0.85719 0.679 0.6488 0.0
N331 N 0.85725 0.67078 0.61135 0.0
N332 N 0.92198 0.71657 0.64732 0.0
H333 H 0.88873 0.67876 0.5614 0.0
C334 C 0.76508 0.60807 0.74332 0.0
O335 O 0.7948 0.63142 0.72478 0.0
O336 O 0.81181 0.63862 0.53262 0.0
H337 H 0.83172 0.66693 0.6644 0.0
H338 H 0.62242 0.55476 0.59117 0.0
H339 H 0.8904 0.70874 0.69706 0.0
Zn340 Zn 0.42873 0.1453 0.66283 0.0
C341 C 0.35 0.09972 0.58173 0.0
N342 N 0.33582 0.0704 0.60447 0.0
C343 C 0.3563 0.08201 0.63614 0.0
N344 N 0.38337 0.11778 0.63251 0.0
N345 N 0.37848 0.12895 0.5983 0.0
C346 C 0.42546 0.20884 0.50909 0.0
O347 O 0.45483 0.22246 0.5307 0.0
O348 O 0.42213 0.14394 0.72054 0.0
Zn349 Zn 0.39143 0.17872 0.58224 0.0
N350 N 0.46164 0.12665 0.65026 0.0
C351 C 0.46999 0.07788 0.62888 0.0
C352 C 0.44702 0.09125 0.63894 0.0
C353 C 0.49872 0.14946 0.6514 0.0
N354 N 0.50681 0.10051 0.63012 0.0
C355 C 0.52232 0.13618 0.64106 0.0
O356 O 0.43788 0.21975 0.60499 0.0
C357 C 0.46098 0.22562 0.63124 0.0
O358 O 0.4582 0.19975 0.65232 0.0
H359 H 0.41774 0.07352 0.63729 0.0
H360 H 0.50933 0.1777 0.65945 0.0
C361 C 0.34016 0.20533 0.57937 0.0
C362 C 0.31483 0.21381 0.5955 0.0
C363 C 0.31545 0.18393 0.65284 0.0
C364 C 0.3408 0.17589 0.63689 0.0
N365 N 0.35289 0.18696 0.60067 0.0
N366 N 0.30338 0.203 0.63201 0.0
H367 H 0.35069 0.21446 0.55083 0.0
C368 C 0.39934 0.14823 0.74041 0.0
O369 O 0.37291 0.1506 0.72328 0.0
O370 O 0.39452 0.18681 0.52404 0.0
H371 H 0.35135 0.16155 0.65345 0.0
H372 H 0.45865 0.04975 0.61988 0.0
H373 H 0.30586 0.17559 0.68178 0.0
Zn374 Zn 0.84304 0.21531 0.5917 0.0
C375 C 0.92987 0.27588 0.66121 0.0
N376 N 0.94756 0.26874 0.6339 0.0
C377 C 0.92251 0.25325 0.60608 0.0
N378 N 0.89028 0.25062 0.6157 0.0
N379 N 0.89519 0.26583 0.65007 0.0
C380 C 0.8301 0.23954 0.74 0.0
O381 O 0.81029 0.21661 0.71297 0.0
O382 O 0.8431 0.21431 0.53284 0.0
Zn383 Zn 0.86402 0.28263 0.67266 0.0
N384 N 0.83189 0.16749 0.61043 0.0
C385 C 0.82132 0.12957 0.66502 0.0
C386 C 0.83178 0.16375 0.649 0.0
C387 C 0.82266 0.13844 0.58702 0.0
N388 N 0.81137 0.10039 0.64179 0.0
C389 C 0.81199 0.10392 0.60314 0.0
O390 O 0.81287 0.25935 0.65264 0.0
C391 C 0.78949 0.23656 0.62951 0.0
O392 O 0.79788 0.21878 0.60642 0.0
H393 H 0.83929 0.18713 0.66712 0.0
H394 H 0.82265 0.14194 0.55637 0.0
C395 C 0.86439 0.35093 0.66218 0.0
C396 C 0.87867 0.3875 0.64964 0.0
C397 C 0.93388 0.38929 0.63208 0.0
C398 C 0.91933 0.35309 0.64372 0.0
N399 N 0.88518 0.3347 0.6593 0.0
N400 N 0.91329 0.40549 0.63517 0.0
H401 H 0.83675 0.33481 0.67282 0.0
C402 C 0.82743 0.22957 0.51596 0.0
O403 O 0.81816 0.24976 0.5362 0.0
O404 O 0.85654 0.27094 0.73052 0.0
H405 H 0.93522 0.33981 0.63993 0.0
H406 H 0.82076 0.12616 0.69569 0.0
H407 H 0.96113 0.40428 0.62003 0.0
H408 H 0.25886 0.97991 0.9228 0.0
H409 H 0.27692 0.90596 0.99313 0.0
H410 H 0.27815 0.94028 0.05074 0.0
H411 H 0.32521 0.05568 0.96458 0.0
H412 H 0.30357 0.08308 0.96106 0.0
H413 H 0.29218 0.04692 0.92744 0.0
H414 H 0.22347 0.01684 0.94496 0.0
H415 H 0.23443 0.05354 0.97804 0.0
H416 H 0.20955 1.00659 0.99421 0.0
H417 H 0.28753 0.98893 0.0989 0.0
H418 H 0.30625 0.04733 0.13235 0.0
H419 H 0.29018 0.09322 0.02807 0.0
C420 C 0.26119 0.96988 0.9506 0.0
C421 C 0.26564 0.939 0.95392 0.0
C422 C 0.2707 0.92779 0.99039 0.0
C423 C 0.27219 0.9477 0.02313 0.0
C424 C 0.26935 0.97912 0.0186 0.0
C425 C 0.26392 0.99008 0.98309 0.0
C426 C 0.26813 0.02788 0.9844 0.0
C427 C 0.29911 0.05495 0.95781 0.0
C428 C 0.23172 0.02609 0.97485 0.0
C429 C 0.27815 0.03721 0.02589 0.0
C430 C 0.27776 1.00844 0.04546 0.0
C431 C 0.28752 1.01141 0.0839 0.0
C432 C 0.29817 0.04464 0.10263 0.0
C433 C 0.29995 0.07474 0.08262 0.0
C434 C 0.28937 0.07071 0.04392 0.0
H435 H 0.94603 0.21561 0.03906 0.0
H436 H 0.98923 0.2802 0.14177 0.0
H437 H 0.04844 0.31944 0.10909 0.0
H438 H 0.03397 0.2216 0.00925 0.0
H439 H 0.02453 0.22388 0.9594 0.0
H440 H 0.98732 0.19863 0.99237 0.0
H441 H 0.95758 0.23702 0.9719 0.0
H442 H 0.99413 0.26154 0.93842 0.0
H443 H 0.98445 0.28633 0.97388 0.0
H444 H 0.09829 0.35816 0.06102 0.0
H445 H 0.13192 0.39145 1.00273 0.0
H446 H 0.06035 0.29695 0.93455 0.0
C447 C 0.96814 0.23777 0.05474 0.0
C448 C 0.96306 0.24519 0.09273 0.0
C449 C 0.99266 0.27414 0.11255 0.0
C450 C 0.02642 0.29643 0.0943 0.0
C451 C 0.03052 0.28866 0.05657 0.0
C452 C 1.00224 0.25962 0.03727 0.0
C453 C 1.01257 0.25825 0.99628 0.0
C454 C 1.01473 0.22352 0.98891 0.0
C455 C 0.98562 0.26098 0.96852 0.0
C456 C 0.05023 0.29222 0.99484 0.0
C457 C 0.06046 0.30937 0.02992 0.0
C458 C 0.09133 0.34431 0.03375 0.0
C459 C 0.11083 0.36291 1.0006 0.0
C460 C 0.09957 0.34618 0.96445 0.0
C461 C 0.07036 0.30969 0.96213 0.0
H462 H 0.83217 0.75374 0.03608 0.0
H463 H 0.75931 0.72412 0.13325 0.0
H464 H 0.7235 0.7476 0.09962 0.0
H465 H 0.82991 0.8392 0.0112 0.0
H466 H 0.83184 0.83207 0.96075 0.0
H467 H 0.85386 0.81671 0.99423 0.0
H468 H 0.81689 0.75067 0.96727 0.0
H469 H 0.79552 0.76609 0.9334 0.0
H470 H 0.76764 0.72848 0.9651 0.0
H471 H 0.68912 0.76202 0.05025 0.0
H472 H 0.66087 0.76715 0.99058 0.0
H473 H 0.76119 0.79817 0.92957 0.0
C474 C 0.80894 0.75271 0.05034 0.0
C475 C 0.7981 0.7369 0.08694 0.0
C476 C 0.76785 0.73616 0.10509 0.0
C477 C 0.74754 0.7496 0.08632 0.0
C478 C 0.75869 0.76482 0.04997 0.0
C479 C 0.78908 0.76699 0.03247 0.0
C480 C 0.79411 0.78253 0.99252 0.0
C481 C 0.82954 0.81985 0.98952 0.0
C482 C 0.79347 0.75532 0.96285 0.0
C483 C 0.76063 0.78675 0.9894 0.0
C484 C 0.74058 0.77666 0.02291 0.0
C485 C 0.70538 0.77188 0.02448 0.0
C486 C 0.6897 0.77579 0.99061 0.0
C487 C 0.70961 0.78537 0.95603 0.0
C488 C 0.74609 0.79265 0.95609 0.0
H489 H 0.08462 0.34089 0.46163 0.0
H490 H 0.04742 0.23233 0.416 0.0
H491 H 0.99025 0.20818 0.45344 0.0
H492 H 0.05331 0.31281 0.55514 0.0
H493 H 0.04063 0.34722 0.56248 0.0
H494 H 0.0765 0.35563 0.52938 0.0
H495 H 0.04168 0.36868 0.47606 0.0
H496 H 1.00531 0.35957 0.509 0.0
H497 H 0.99513 0.33451 0.46485 0.0
H498 H 0.93972 0.19472 0.50237 0.0
H499 H 0.90338 0.19413 0.55854 0.0
H500 H 0.97295 0.31166 0.56839 0.0
C501 C 0.06465 0.312 0.45946 0.0
C502 C 0.07091 0.28846 0.43614 0.0
C503 C 0.04335 0.25099 0.43366 0.0
C504 C 1.01069 0.23699 0.45476 0.0
C505 C 1.00561 0.26091 0.47782 0.0
C506 C 0.03189 0.29768 0.48007 0.0
C507 C 0.02108 0.31747 0.50836 0.0
C508 C 0.04954 0.33423 0.54074 0.0
C509 C 1.01546 0.34679 0.48835 0.0
C510 C 0.98511 0.28595 0.52255 0.0
C511 C 0.97624 0.25347 0.50454 0.0
C512 C 0.94594 0.22015 0.51601 0.0
C513 C 0.92518 0.21999 0.54763 0.0
C514 C 0.93492 0.25295 0.56692 0.0
C515 C 0.96436 0.28626 0.55326 0.0
H516 H 0.71737 0.66006 0.54663 0.0
H517 H 0.83409 0.72227 0.56668 0.0
H518 H 0.84096 0.7633 0.5123 0.0
H519 H 0.71828 0.67596 0.43867 0.0
H520 H 0.67791 0.67997 0.44308 0.0
H521 H 0.68433 0.64961 0.47439 0.0
H522 H 0.67627 0.68246 0.53264 0.0
H523 H 0.671 0.71364 0.50191 0.0
H524 H 0.70622 0.73119 0.53797 0.0
H525 H 0.83248 0.8046 0.46545 0.0
H526 H 0.81045 0.84085 0.43024 0.0
H527 H 0.6984 0.75266 0.44481 0.0
C528 C 0.74461 0.68104 0.53796 0.0
C529 C 0.77536 0.68765 0.55979 0.0
C530 C 0.81048 0.71626 0.5493 0.0
C531 C 0.81445 0.73975 0.51867 0.0
C532 C 0.783 0.73402 0.49922 0.0
C533 C 0.74875 0.70486 0.50819 0.0
C534 C 0.71852 0.70778 0.48814 0.0
C535 C 0.69859 0.67648 0.45934 0.0
C536 C 0.69146 0.70885 0.51689 0.0
C537 C 0.74075 0.74416 0.46806 0.0
C538 C 0.77792 0.75853 0.47387 0.0
C539 C 0.8035 0.79321 0.46019 0.0
C540 C 0.79074 0.81366 0.44036 0.0
C541 C 0.75271 0.79975 0.43523 0.0
C542 C 0.72761 0.76427 0.44871 0.0
H543 H 0.21313 0.94752 0.4564 0.0
H544 H 0.29999 0.9786 0.37371 0.0
H545 H 0.33611 0.03891 0.4052 0.0
H546 H 0.2255 0.04245 0.46658 0.0
H547 H 0.21477 0.03516 0.51678 0.0
H548 H 0.19377 0.99712 0.48415 0.0
H549 H 0.21791 0.96182 0.52444 0.0
H550 H 0.238 0.99926 0.55738 0.0
H551 H 0.26615 0.98366 0.53514 0.0
H552 H 0.36762 0.08883 0.45437 0.0
H553 H 0.39015 0.1215 0.51561 0.0
H554 H 0.27993 0.06393 0.56051 0.0
C555 C 0.23946 0.96739 0.44457 0.0
C556 C 0.25401 0.95852 0.41292 0.0
C557 C 0.28843 0.98507 0.39798 0.0
C558 C 0.30901 0.01942 0.41554 0.0
C559 C 0.29418 0.02726 0.44722 0.0
C560 C 0.25982 1.00214 0.4611 0.0
C561 C 0.2512 0.01575 0.49724 0.0
C562 C 0.21942 0.02306 0.49078 0.0
C563 C 0.24288 0.98854 0.53048 0.0
C564 C 0.28699 0.05125 0.50308 0.0
C565 C 0.31143 0.05781 0.47373 0.0
C566 C 0.34833 0.08499 0.47671 0.0
C567 C 0.36094 0.10407 0.51141 0.0
C568 C 0.33652 0.09615 0.54224 0.0
C569 C 0.29881 0.07147 0.53676 0.0
H570 H 0.76459 0.9458 0.9842 0.0
H571 H 0.73792 0.98961 0.88504 0.0
H572 H 0.75555 0.04696 0.92026 0.0
H573 H 0.73125 0.97927 0.05333 0.0
H574 H 0.76719 0.99001 0.08753 0.0
H575 H 0.75589 0.95465 0.0529 0.0
H576 H 0.82357 0.98805 0.03027 0.0
H577 H 0.83489 0.02389 0.06461 0.0
H578 H 0.84491 0.03515 0.01473 0.0
H579 H 0.76342 0.09288 0.97083 0.0
H580 H 0.7644 0.12397 0.03058 0.0
H581 H 0.79751 0.05716 0.09321 0.0
C582 C 0.76309 0.96779 0.96983 0.0
C583 C 0.74976 0.96346 0.93213 0.0
C584 C 0.74817 0.99264 0.91397 0.0
C585 C 0.75822 0.02527 0.9337 0.0
C586 C 0.77094 0.02866 0.97112 0.0
C587 C 0.77406 1.00092 0.98871 0.0
C588 C 0.78681 1.01056 0.02961 0.0
C589 C 0.75861 0.98195 0.05746 0.0
C590 C 0.82481 0.01466 0.03511 0.0
C591 C 0.78862 0.04722 0.03296 0.0
C592 C 0.77942 0.05732 0.99891 0.0
C593 C 0.77287 0.08661 0.99701 0.0
C594 C 0.77463 0.10516 0.0309 0.0
C595 C 0.78422 0.09537 0.06586 0.0
C596 C 0.79235 0.06673 0.06642 0.0
H597 H 0.08471 0.75492 0.94892 0.0
H598 H 0.06121 0.84148 0.92215 0.0
H599 H 1.00184 0.80712 0.95567 0.0
H600 H 0.98858 0.67757 0.9415 0.0
H601 H 0.9947 0.65338 0.98077 0.0
H602 H 0.0329 0.68243 0.95032 0.0
H603 H 0.07068 0.71922 0.00924 0.0
H604 H 0.03296 0.68982 0.03966 0.0
H605 H 0.05163 0.73872 0.04113 0.0
H606 H 0.95011 0.76825 1.00155 0.0
H607 H 0.91295 0.72954 0.05593 0.0
H608 H 0.96771 0.66652 0.04835 0.0
C609 C 0.06701 0.76658 0.94984 0.0
C610 C 0.07784 0.80112 0.93326 0.0
C611 C 0.05349 0.81503 0.93462 0.0
C612 C 0.01962 0.79563 0.95347 0.0
C613 C 1.00999 0.76187 0.97007 0.0
C614 C 0.03293 0.74735 0.96805 0.0
C615 C 0.01776 0.71207 0.99065 0.0
C616 C 1.0079 0.67943 0.96422 0.0
C617 C 0.04485 0.71518 0.02202 0.0
C618 C 0.98368 0.70994 0.00732 0.0
C619 C 0.97922 0.73858 0.99478 0.0
C620 C 0.95255 0.74501 0.01058 0.0
C621 C 0.93125 0.72273 0.04116 0.0
C622 C 0.93669 0.69438 0.0551 0.0
C623 C 0.96199 0.68702 0.03683 0.0
H624 H 0.36793 0.31599 0.03812 0.0
H625 H 0.30148 0.19847 0.05074 0.0
H626 H 0.26123 0.19703 0.99821 0.0
H627 H 0.2981 0.33021 0.03556 0.0
H628 H 0.31641 0.36814 1.00242 0.0
H629 H 0.34695 0.35947 0.03044 0.0
H630 H 0.37889 0.35483 0.9695 0.0
H631 H 0.34936 0.36488 0.94103 0.0
H632 H 0.35181 0.32418 0.93176 0.0
H633 H 0.22168 0.21053 0.95386 0.0
H634 H 0.1877 0.2365 0.92141 0.0
H635 H 0.27761 0.34628 0.9433 0.0
C636 C 0.34637 0.28971 0.02789 0.0
C637 C 0.33853 0.25714 0.04727 0.0
C638 C 0.30875 0.22342 0.03509 0.0
C639 C 0.28553 0.22255 1.0056 0.0
C640 C 0.29241 0.2557 0.98907 0.0
C641 C 0.32251 0.28868 0.99955 0.0
C642 C 0.3206 0.321 0.98304 0.0
C643 C 0.3205 0.34615 0.01476 0.0
C644 C 0.35203 0.34249 0.95463 0.0
C645 C 0.28404 0.3013 0.96283 0.0
C646 C 0.26856 0.26367 0.9658 0.0
C647 C 0.23391 0.23993 0.95095 0.0
C648 C 0.21474 0.25497 0.93267 0.0
C649 C 0.22976 0.29346 0.9301 0.0
C650 C 0.26509 0.31678 0.94515 0.0
H651 H 0.94227 0.74499 0.54051 0.0
H652 H 0.98343 0.70885 0.6345 0.0
H653 H 0.04306 0.73341 0.60144 0.0
H654 H 0.98325 0.72388 0.46644 0.0
H655 H 0.99359 0.76357 0.43785 0.0
H656 H 0.95588 0.74547 0.47076 0.0
H657 H 0.98403 0.80936 0.50272 0.0
H658 H 0.02234 0.82735 0.47028 0.0
H659 H 0.03011 0.83086 0.52111 0.0
H660 H 0.09383 0.7522 0.55267 0.0
H661 H 0.12984 0.76368 0.49357 0.0
H662 H 0.06077 0.79755 0.43636 0.0
C663 C 0.96399 0.74255 0.55417 0.0
C664 C 0.95828 0.72475 0.5898 0.0
C665 C 0.98737 0.72238 0.60711 0.0
C666 C 0.02134 0.73639 0.58864 0.0
C667 C 0.02619 0.75378 0.5534 0.0
C668 C 0.99841 0.75735 0.53663 0.0
C669 C 1.00995 0.77579 0.49798 0.0
C670 C 0.98416 0.75068 0.46641 0.0
C671 C 1.01171 0.81306 0.49805 0.0
C672 C 0.0479 0.78053 0.49478 0.0
C673 C 0.05695 0.76778 0.52704 0.0
C674 C 0.0879 0.76382 0.52794 0.0
C675 C 0.10894 0.77128 0.49445 0.0
C676 C 0.09937 0.7833 0.46091 0.0
C677 C 0.06966 0.78984 0.46205 0.0
H678 H 0.28602 0.20279 0.5231 0.0
H679 H 0.31432 0.27408 0.62132 0.0
H680 H 0.2945 0.31246 0.5867 0.0
H681 H 0.3148 0.27046 0.4517 0.0
H682 H 0.27751 0.24341 0.41955 0.0
H683 H 0.2924 0.22114 0.45303 0.0
H684 H 0.22619 0.18381 0.47945 0.0
H685 H 0.21126 0.20652 0.44636 0.0
H686 H 0.20365 0.20758 0.49685 0.0
H687 H 0.28187 0.34831 0.53732 0.0
H688 H 0.2722 0.37577 0.47923 0.0
H689 H 0.24216 0.2764 0.4169 0.0
C690 C 0.2878 0.22639 0.53728 0.0
C691 C 0.30198 0.23582 0.57467 0.0
C692 C 0.30355 0.26655 0.59262 0.0
C693 C 0.2923 0.28841 0.57323 0.0
C694 C 0.27853 0.27851 0.5363 0.0
C695 C 0.27567 0.24789 0.51873 0.0
C696 C 0.26049 0.24362 0.47867 0.0
C697 C 0.28793 0.24475 0.44901 0.0
C698 C 0.22318 0.20828 0.47514 0.0
C699 C 0.25645 0.27731 0.47598 0.0
C700 C 0.26717 0.29721 0.50943 0.0
C701 C 0.27131 0.3321 0.51168 0.0
C702 C 0.26486 0.34726 0.47877 0.0
C703 C 0.25364 0.32724 0.44435 0.0
C704 C 0.24856 0.29146 0.44345 0.0
H705 H 0.6671 0.92854 0.49264 0.0
H706 H 0.75716 0.93834 0.42525 0.0
H707 H 0.80102 0.98082 0.47261 0.0
H708 H 0.70146 0.01488 0.50872 0.0
H709 H 0.6867 0.01381 0.5572 0.0
H710 H 0.66161 0.97462 0.5271 0.0
H711 H 0.66981 0.93311 0.57562 0.0
H712 H 0.69421 0.97178 0.60691 0.0
H713 H 0.71507 0.94559 0.59227 0.0
H714 H 0.83402 0.03538 0.51418 0.0
H715 H 0.8541 0.09017 0.55486 0.0
H716 H 0.74341 0.04512 0.59712 0.0
C717 C 0.6959 0.93737 0.48968 0.0
C718 C 0.70886 0.92933 0.45614 0.0
C719 C 0.7468 0.94316 0.45155 0.0
C720 C 0.77191 0.96771 0.47813 0.0
C721 C 0.7585 0.97785 0.50928 0.0
C722 C 0.72127 0.96217 0.51597 0.0
C723 C 0.71398 0.98185 0.54792 0.0
C724 C 0.68952 0.99719 0.53439 0.0
C725 C 0.69728 0.95656 0.58275 0.0
C726 C 0.75257 0.0124 0.55627 0.0
C727 C 0.77792 1.00947 0.53393 0.0
C728 C 0.81464 0.0372 0.53287 0.0
C729 C 0.82576 0.06834 0.55565 0.0
C730 C 0.80028 0.07131 0.5792 0.0
C731 C 0.76342 0.04288 0.57983 0.0
H732 H 0.30525 0.28771 0.16585 0.0
H733 H 0.42142 0.33739 0.18846 0.0
H734 H 0.41554 0.37176 0.24202 0.0
H735 H 0.298 0.36941 0.18807 0.0
H736 H 0.25302 0.34113 0.2082 0.0
H737 H 0.26855 0.32375 0.17016 0.0
H738 H 0.25473 0.26758 0.21315 0.0
H739 H 0.23982 0.28575 0.25082 0.0
H740 H 0.27572 0.27537 0.25966 0.0
H741 H 0.39489 0.39654 0.29684 0.0
H742 H 0.36087 0.40528 0.34954 0.0
H743 H 0.25948 0.34213 0.28758 0.0
C744 C 0.32969 0.30607 0.18174 0.0
C745 C 0.3638 0.30908 0.17334 0.0
C746 C 0.39485 0.33338 0.195 0.0
C747 C 0.39182 0.35369 0.22507 0.0
C748 C 0.35764 0.34997 0.23242 0.0
C749 C 0.32716 0.32674 0.21119 0.0
C750 C 0.29296 0.32546 0.22596 0.0
C751 C 0.27726 0.34089 0.19632 0.0
C752 C 0.26414 0.28623 0.23814 0.0
C753 C 0.3086 0.35064 0.25986 0.0
C754 C 0.34608 0.36512 0.26287 0.0
C755 C 0.36577 0.38619 0.29421 0.0
C756 C 0.34639 0.39129 0.32381 0.0
C757 C 0.30798 0.37549 0.32153 0.0
C758 C 0.2891 0.35582 0.28888 0.0
H759 H 0.76812 0.09639 0.22373 0.0
H760 H 0.67015 0.04705 0.15444 0.0
H761 H 0.63626 1.00283 0.20622 0.0
H762 H 0.75816 0.01513 0.25331 0.0
H763 H 0.77666 0.02966 0.30058 0.0
H764 H 0.79054 0.06271 0.26255 0.0
H765 H 0.77078 0.10071 0.30217 0.0
H766 H 0.75573 0.06807 0.34075 0.0
H767 H 0.72448 0.08054 0.31966 0.0
H768 H 0.61522 0.95908 0.26385 0.0
H769 H 0.61018 0.9212 0.32008 0.0
H770 H 0.72453 0.99604 0.34606 0.0
C771 C 0.73899 0.07765 0.22052 0.0
C772 C 0.72109 0.07645 0.18622 0.0
C773 C 0.68372 0.04969 0.18147 0.0
C774 C 0.66438 0.0242 0.2106 0.0
C775 C 0.68311 0.02541 0.2439 0.0
C776 C 0.71966 0.05162 0.24894 0.0
C777 C 0.73519 0.04402 0.28442 0.0
C778 C 0.76699 0.03748 0.2746 0.0
C779 C 0.74718 0.07517 0.3135 0.0
C780 C 0.702 1.00922 0.2982 0.0
C781 C 0.672 0.99898 0.27502 0.0
C782 C 0.6387 0.96691 0.28211 0.0
C783 C 0.63621 0.94497 0.31377 0.0
C784 C 0.66706 0.9546 0.33717 0.0
C785 C 0.70013 0.98743 0.32902 0.0
H786 H 0.9932 0.7309 0.17949 0.0
H787 H 0.93136 0.61372 0.19949 0.0
H788 H 0.96948 0.62088 0.2554 0.0
H789 H 0.08165 0.74503 0.20498 0.0
H790 H 0.09537 0.7885 0.22748 0.0
H791 H 0.06275 0.77276 0.18902 0.0
H792 H 0.01733 0.78004 0.23304 0.0
H793 H 0.05014 0.79515 0.27138 0.0
H794 H 1.00476 0.75653 0.27842 0.0
H795 H 1.01313 0.64163 0.31101 0.0
H796 H 0.05643 0.67438 0.36315 0.0
H797 H 0.09334 0.77757 0.3045 0.0
C798 C 0.98759 0.70661 0.19554 0.0
C799 C 0.95882 0.67156 0.18491 0.0
C800 C 0.95246 0.64078 0.20699 0.0
C801 C 0.97442 0.64462 0.23876 0.0
C802 C 1.00286 0.67952 0.24794 0.0
C803 C 1.00926 0.71002 0.22715 0.0
C804 C 0.04071 0.7447 0.24359 0.0
C805 C 0.07199 0.76384 0.21453 0.0
C806 C 0.02743 0.77062 0.25743 0.0
C807 C 0.05145 0.72891 0.27674 0.0
C808 C 0.02915 0.69124 0.27884 0.0
C809 C 0.03154 0.67093 0.30902 0.0
C810 C 0.05677 0.68969 0.33824 0.0
C811 C 0.07985 0.72816 0.33656 0.0
C812 C 0.07728 0.74791 0.30531 0.0
H813 H 0.76572 0.679 0.7202 0.0
H814 H 0.66645 0.63125 0.65293 0.0
H815 H 0.63447 0.6434 0.70488 0.0
H816 H 0.72468 0.65398 0.81701 0.0
H817 H 0.75688 0.69809 0.83671 0.0
H818 H 0.77058 0.67955 0.79824 0.0
H819 H 0.79012 0.73669 0.75702 0.0
H820 H 0.77775 0.75693 0.79493 0.0
H821 H 0.75812 0.75232 0.74808 0.0
H822 H 0.61527 0.66667 0.76284 0.0
H823 H 0.61205 0.70009 0.81894 0.0
H824 H 0.72673 0.73941 0.84212 0.0
C825 C 0.73668 0.66919 0.71751 0.0
C826 C 0.71783 0.65215 0.68377 0.0
C827 C 0.68069 0.64243 0.67957 0.0
C828 C 0.66243 0.64958 0.7088 0.0
C829 C 0.68208 0.66735 0.74154 0.0
C830 C 0.71849 0.67708 0.74592 0.0
C831 C 0.73522 0.70086 0.78066 0.0
C832 C 0.74749 0.68193 0.80993 0.0
C833 C 0.76716 0.73894 0.76948 0.0
C834 C 0.70276 0.70322 0.79497 0.0
C835 C 0.67216 0.68343 0.77257 0.0
C836 C 0.63926 0.68247 0.78041 0.0
C837 C 0.63779 0.70226 0.81199 0.0
C838 C 0.66926 0.72363 0.83453 0.0
C839 C 0.70193 0.72359 0.82566 0.0
H840 H 0.39655 0.08047 0.70154 0.0
H841 H 0.28984 0.02329 0.64636 0.0
H842 H 0.26859 0.97491 0.69371 0.0
H843 H 0.39886 1.00001 0.73509 0.0
H844 H 0.41791 0.01857 0.78127 0.0
H845 H 0.42778 0.04881 0.74088 0.0
H846 H 0.40403 0.0848 0.77816 0.0
H847 H 0.39311 0.05485 0.81876 0.0
H848 H 0.35812 0.06162 0.79718 0.0
H849 H 0.25694 0.93168 0.74469 0.0
H850 H 0.25199 0.90076 0.80598 0.0
H851 H 0.36122 0.98689 0.83657 0.0
C852 C 0.36856 0.0585 0.7 0.0
C853 C 0.34537 0.05631 0.6695 0.0
C854 C 0.30896 0.02592 0.6685 0.0
C855 C 0.29628 0.99786 0.69542 0.0
C856 C 0.31973 1.0004 0.72437 0.0
C857 C 0.3547 0.03021 0.72783 0.0
C858 C 0.37251 0.02656 0.76423 0.0
C859 C 0.40628 0.0233 0.75479 0.0
C860 C 0.38247 0.05886 0.79121 0.0
C861 C 0.34164 0.99061 0.78047 0.0
C862 C 0.31201 0.97567 0.75607 0.0
C863 C 0.27994 0.94294 0.76417 0.0
C864 C 0.27754 0.92526 0.79879 0.0
C865 C 0.30653 0.94089 0.82541 0.0
C866 C 0.33918 0.97383 0.81603 0.0
H867 H 0.99199 0.2812 0.6907 0.0
H868 H 0.91495 0.31852 0.71105 0.0
H869 H 0.95159 0.35488 0.76522 0.0
H870 H 1.0107 0.27342 0.78893 0.0
H871 H 0.05847 0.28903 0.78083 0.0
H872 H 0.02563 0.26597 0.74336 0.0
H873 H 0.06304 0.32182 0.69788 0.0
H874 H 0.09573 0.34375 0.73578 0.0
H875 H 0.07431 0.36692 0.71373 0.0
H876 H 0.99685 0.38685 0.81866 0.0
H877 H 0.04405 0.40723 0.86943 0.0
H878 H 0.09298 0.35129 0.81294 0.0
C879 C 0.98261 0.29695 0.70647 0.0
C880 C 0.94976 0.2963 0.69631 0.0
C881 C 0.93891 0.31732 0.71817 0.0
C882 C 0.96014 0.33875 0.74893 0.0
C883 C 0.99255 0.33915 0.75755 0.0
C884 C 1.00359 0.31853 0.73711 0.0
C885 C 0.03889 0.32263 0.75294 0.0
C886 C 0.03305 0.28556 0.76738 0.0
C887 C 0.06981 0.3398 0.72326 0.0
C888 C 0.04596 0.34877 0.78558 0.0
C889 C 0.01902 0.35819 0.78765 0.0
C890 C 0.01843 0.38019 0.81692 0.0
C891 C 0.04543 0.3919 0.8454 0.0
C892 C 0.07285 0.38209 0.84398 0.0
C893 C 0.07338 0.3607 0.81346 0.0
H894 H 0.47643 0.19318 0.08818 0.0
H895 H 0.51713 0.27209 0.18074 0.0
H896 H 0.56619 0.25804 0.19305 0.0
H897 H 0.49318 0.12659 0.13324 0.0
H898 H 0.5073 0.1143 0.08992 0.0
H899 H 0.47553 0.13094 0.08779 0.0
H900 H 0.51846 0.18219 0.04077 0.0
H901 H 0.55032 0.16564 0.04269 0.0
H902 H 0.5655 0.21277 0.05399 0.0
H903 H 0.60999 0.23396 0.19695 0.0
H904 H 0.64585 0.20305 0.19089 0.0
H905 H 0.57802 0.14118 0.09446 0.0
C906 C 0.49569 0.20758 0.11097 0.0
C907 C 0.49268 0.2337 0.13348 0.0
C908 C 0.51864 0.25193 0.16301 0.0
C909 C 0.54671 0.24415 0.17031 0.0
C910 C 0.54876 0.21816 0.14779 0.0
C911 C 0.52407 0.20027 0.11861 0.0
C912 C 0.5324 0.17347 0.09871 0.0
C913 C 0.50019 0.13399 0.10267 0.0
C914 C 0.54226 0.18417 0.05654 0.0
C915 C 0.56541 0.17896 0.12145 0.0
C916 C 0.57441 0.20481 0.14963 0.0
C917 C 0.60345 0.21391 0.17467 0.0
C918 C 0.62394 0.19621 0.17076 0.0
C919 C 0.61551 0.16971 0.14175 0.0
C920 C 0.58562 0.16122 0.11697 0.0
H921 H 0.84523 0.30103 0.09838 0.0
H922 H 0.75771 0.26156 0.18231 0.0
H923 H 0.77123 0.32465 0.19305 0.0
H924 H 0.90764 0.38296 0.14756 0.0
H925 H 0.92461 0.4106 0.10495 0.0
H926 H 0.90747 0.36202 0.10275 0.0
H927 H 0.86157 0.35568 0.04992 0.0
H928 H 0.87864 0.40428 0.0519 0.0
H929 H 0.83048 0.37243 0.05854 0.0
H930 H 0.79569 0.39231 0.19701 0.0
H931 H 0.8285 0.4595 0.19266 0.0
H932 H 0.89888 0.45527 0.1047 0.0
C933 C 0.82878 0.30561 0.11886 0.0
C934 C 0.80044 0.27615 0.13948 0.0
C935 C 0.77963 0.2835 0.1661 0.0
C936 C 0.78705 0.31933 0.17246 0.0
C937 C 0.81528 0.3477 0.15193 0.0
C938 C 0.83573 0.34131 0.12555 0.0
C939 C 0.86481 0.37688 0.10766 0.0
C940 C 0.90341 0.38349 0.11626 0.0
C941 C 0.85848 0.37733 0.06444 0.0
C942 C 0.85766 0.40413 0.12842 0.0
C943 C 0.82897 0.38675 0.15378 0.0
C944 C 0.81795 0.40627 0.17687 0.0
C945 C 0.83673 0.44466 0.17392 0.0
C946 C 0.86618 0.46325 0.14783 0.0
C947 C 0.87653 0.4423 0.12492 0.0
H948 H 0.73594 0.5554 0.08974 0.0
H949 H 0.7712 0.51093 0.18191 0.0
H950 H 0.70759 0.46107 0.191 0.0
H951 H 0.65191 0.53714 0.13208 0.0
H952 H 0.62658 0.52482 0.0879 0.0
H953 H 0.6752 0.55639 0.08755 0.0
H954 H 0.68418 0.51499 0.03958 0.0
H955 H 0.63554 0.48333 0.0397 0.0
H956 H 0.66684 0.4674 0.05121 0.0
H957 H 0.63949 0.41761 0.19244 0.0
H958 H 0.57262 0.38319 0.18501 0.0
H959 H 0.58184 0.4546 0.09039 0.0
C960 C 0.73036 0.5351 0.11171 0.0
C961 C 0.75872 0.53728 0.13512 0.0
C962 C 0.75008 0.51001 0.16354 0.0
C963 C 0.71397 0.48149 0.16898 0.0
C964 C 0.68667 0.48034 0.14567 0.0
C965 C 0.69443 0.50629 0.11746 0.0
C966 C 0.65993 0.499 0.09667 0.0
C967 C 0.65301 0.53126 0.10135 0.0
C968 C 0.66174 0.49068 0.05428 0.0
C969 C 0.63158 0.46524 0.11796 0.0
C970 C 0.64753 0.45486 0.14604 0.0
C971 C 0.62669 0.42516 0.17015 0.0
C972 C 0.58848 0.40551 0.16544 0.0
C973 C 0.57136 0.41549 0.13661 0.0
C974 C 0.59363 0.44587 0.11267 0.0
H975 H 0.13384 0.57217 0.42299 0.0
H976 H 0.18298 0.63235 0.31794 0.0
H977 H 0.212 0.59515 0.30803 0.0
H978 H 0.20878 0.56213 0.4536 0.0
H979 H 0.18056 0.51623 0.47179 0.0
H980 H 0.1633 0.54753 0.47095 0.0
H981 H 0.10712 0.50095 0.43163 0.0
H982 H 0.12416 0.46945 0.43246 0.0
H983 H 0.11417 0.48354 0.3875 0.0
H984 H 0.23716 0.55291 0.3101 0.0
H985 H 0.25513 0.5068 0.32243 0.0
H986 H 0.18791 0.47164 0.42486 0.0
C987 C 0.15049 0.57757 0.39769 0.0
C988 C 0.15645 0.60598 0.37172 0.0
C989 C 0.17854 0.61174 0.33903 0.0
C990 C 0.19498 0.59042 0.33289 0.0
C991 C 0.18885 0.56314 0.35936 0.0
C992 C 0.16692 0.55642 0.39095 0.0
C993 C 0.16471 0.52529 0.41496 0.0
C994 C 0.18027 0.53861 0.45521 0.0
C995 C 0.12519 0.49289 0.41673 0.0
C996 C 0.18911 0.51573 0.39201 0.0
C997 C 0.20276 0.53803 0.36011 0.0
C998 C 0.22653 0.53519 0.33486 0.0
C999 C 0.23665 0.50888 0.34229 0.0
C1000 C 0.22297 0.48545 0.3747 0.0
C1001 C 0.19871 0.48893 0.39978 0.0
H1002 H 0.50649 0.74424 0.3749 0.0
H1003 H 0.60523 0.73779 0.3894 0.0
H1004 H 0.5694 0.67089 0.38143 0.0
H1005 H 0.44977 0.66413 0.42998 0.0
H1006 H 0.40935 0.64901 0.40105 0.0
H1007 H 0.44304 0.69702 0.40347 0.0
H1008 H 0.44883 0.6994 0.32982 0.0
H1009 H 0.41535 0.65124 0.3272 0.0
H1010 H 0.45989 0.66845 0.30591 0.0
H1011 H 0.52417 0.60554 0.37514 0.0
H1012 H 0.47039 0.54348 0.37833 0.0
H1013 H 0.39849 0.58895 0.37078 0.0
C1014 C 0.52048 0.72866 0.37588 0.0
C1015 C 0.55875 0.74629 0.38253 0.0
C1016 C 0.57601 0.72494 0.38443 0.0
C1017 C 0.55592 0.68692 0.37961 0.0
C1018 C 0.51837 0.67031 0.37329 0.0
C1019 C 0.50056 0.69023 0.37192 0.0
C1020 C 0.45934 0.66471 0.36839 0.0
C1021 C 0.4392 0.66897 0.40277 0.0
C1022 C 0.44501 0.67135 0.33057 0.0
C1023 C 0.45691 0.62745 0.36865 0.0
C1024 C 0.49153 0.63168 0.37075 0.0
C1025 C 0.49692 0.60181 0.3732 0.0
C1026 C 0.46619 0.56665 0.37492 0.0
C1027 C 0.43032 0.56134 0.37434 0.0
C1028 C 0.42558 0.59215 0.37025 0.0
H1029 H 0.45279 0.87881 0.42293 0.0
H1030 H 0.45581 0.80728 0.33577 0.0
H1031 H 0.3884 0.77464 0.33254 0.0
H1032 H 0.36948 0.81131 0.47049 0.0
H1033 H 0.35423 0.84365 0.47876 0.0
H1034 H 0.40251 0.85925 0.47654 0.0
H1035 H 0.41045 0.90548 0.42318 0.0
H1036 H 0.36227 0.89003 0.4252 0.0
H1037 H 0.38292 0.88909 0.38056 0.0
H1038 H 0.32029 0.75197 0.33636 0.0
H1039 H 0.25813 0.74199 0.34587 0.0
H1040 H 0.30046 0.82987 0.42912 0.0
C1041 C 0.43959 0.85613 0.40322 0.0
C1042 C 0.46021 0.84568 0.3799 0.0
C1043 C 0.4412 0.81573 0.3546 0.0
C1044 C 0.4027 0.79702 0.35239 0.0
C1045 C 0.38355 0.80851 0.37556 0.0
C1046 C 0.40144 0.83739 0.40049 0.0
C1047 C 0.37492 0.84575 0.42098 0.0
C1048 C 0.37531 0.83961 0.46426 0.0
C1049 C 0.38314 0.8849 0.41192 0.0
C1050 C 0.33913 0.81735 0.40327 0.0
C1051 C 0.34463 0.79592 0.37738 0.0
C1052 C 0.31573 0.7685 0.3567 0.0
C1053 C 0.28046 0.76312 0.3623 0.0
C1054 C 0.27425 0.78519 0.38826 0.0
C1055 C 0.30411 0.81238 0.40925 0.0
H1056 H 0.39744 0.81018 0.87109 0.0
H1057 H 0.46686 0.92825 0.86721 0.0
H1058 H 0.52142 0.92166 0.86095 0.0
H1059 H 0.45233 0.79365 0.9291 0.0
H1060 H 0.44531 0.75212 0.90701 0.0
H1061 H 0.41068 0.76487 0.90313 0.0
H1062 H 0.41269 0.76248 0.82938 0.0
H1063 H 0.44681 0.74888 0.833 0.0
H1064 H 0.45586 0.78848 0.80491 0.0
H1065 H 0.56815 0.90356 0.86815 0.0
H1066 H 0.60531 0.8744 0.87974 0.0
H1067 H 0.50717 0.76715 0.87654 0.0
C1068 C 0.42401 0.83441 0.86689 0.0
C1069 C 0.42811 0.86974 0.86859 0.0
C1070 C 0.46332 0.90104 0.86504 0.0
C1071 C 0.49441 0.89753 0.86168 0.0
C1072 C 0.48982 0.86247 0.86184 0.0
C1073 C 0.45553 0.83133 0.86353 0.0
C1074 C 0.45879 0.79713 0.86681 0.0
C1075 C 0.44071 0.7757 0.90371 0.0
C1076 C 0.44258 0.7728 0.83141 0.0
C1077 C 0.50014 0.8141 0.86826 0.0
C1078 C 0.51736 0.85184 0.86529 0.0
C1079 C 0.5551 0.874 0.86953 0.0
C1080 C 0.57593 0.85721 0.87651 0.0
C1081 C 0.55911 0.81859 0.87881 0.0
C1082 C 0.52072 0.79673 0.8743 0.0
H1083 H 0.22677 0.7425 0.82969 0.0
H1084 H 0.20566 0.7366 0.95136 0.0
H1085 H 0.18484 0.67022 0.95079 0.0
H1086 H 0.1473 0.65618 0.80719 0.0
H1087 H 0.16994 0.64549 0.77011 0.0
H1088 H 0.18461 0.69256 0.78087 0.0
H1089 H 0.25069 0.70544 0.79198 0.0
H1090 H 0.23623 0.65833 0.78152 0.0
H1091 H 0.2587 0.67812 0.82614 0.0
H1092 H 0.16847 0.60427 0.93666 0.0
H1093 H 0.15036 0.54347 0.90889 0.0
H1094 H 0.17803 0.59253 0.79604 0.0
C1095 C 0.21792 0.72728 0.85625 0.0
C1096 C 0.21814 0.74473 0.89065 0.0
C1097 C 0.20566 0.72373 0.92468 0.0
C1098 C 0.19402 0.68609 0.92465 0.0
C1099 C 0.19447 0.66977 0.89024 0.0
C1100 C 0.20552 0.68965 0.85656 0.0
C1101 C 0.20161 0.66544 0.82302 0.0
C1102 C 0.17423 0.66488 0.79357 0.0
C1103 C 0.23904 0.67756 0.80459 0.0
C1104 C 0.18666 0.62877 0.84301 0.0
C1105 C 0.18331 0.63184 0.88188 0.0
C1106 C 0.1708 0.60157 0.90623 0.0
C1107 C 0.1608 0.56722 0.89031 0.0
C1108 C 0.16279 0.56341 0.8504 0.0
C1109 C 0.1761 0.59468 0.82665 0.0
H1110 H 0.30008 0.47907 0.91782 0.0
H1111 H 0.26479 0.52113 0.82339 0.0
H1112 H 0.32812 0.57161 0.81461 0.0
H1113 H 0.36741 0.56768 0.95583 0.0
H1114 H 0.39931 0.55282 0.96851 0.0
H1115 H 0.35086 0.52036 0.96808 0.0
H1116 H 0.36153 0.47927 0.92128 0.0
H1117 H 0.40997 0.51157 0.92154 0.0
H1118 H 0.38531 0.49847 0.87697 0.0
H1119 H 0.396 0.61662 0.8144 0.0
H1120 H 0.46288 0.65226 0.82288 0.0
H1121 H 0.45369 0.58187 0.91844 0.0
C1122 C 0.30559 0.49893 0.89538 0.0
C1123 C 0.27727 0.49594 0.87132 0.0
C1124 C 0.28586 0.52264 0.84226 0.0
C1125 C 0.32182 0.55155 0.83702 0.0
C1126 C 0.34905 0.55362 0.8611 0.0
C1127 C 0.34138 0.52808 0.88975 0.0
C1128 C 0.37581 0.53627 0.91128 0.0
C1129 C 0.37318 0.5448 0.95342 0.0
C1130 C 0.38361 0.50451 0.90752 0.0
C1131 C 0.40399 0.57011 0.88997 0.0
C1132 C 0.38804 0.57978 0.86123 0.0
C1133 C 0.4088 0.60956 0.83712 0.0
C1134 C 0.44694 0.6299 0.8424 0.0
C1135 C 0.46402 0.62044 0.87171 0.0
C1136 C 0.44185 0.59012 0.89575 0.0
H1137 H 0.8402 0.54972 0.5971 0.0
H1138 H 0.74633 0.49781 0.67324 0.0
H1139 H 0.75821 0.44724 0.68467 0.0
H1140 H 0.82837 0.46452 0.55614 0.0
H1141 H 0.87694 0.48151 0.55398 0.0
H1142 H 0.85988 0.51287 0.54987 0.0
H1143 H 0.90123 0.55064 0.60633 0.0
H1144 H 0.91825 0.51932 0.61075 0.0
H1145 H 0.89771 0.52817 0.65134 0.0
H1146 H 0.78238 0.40433 0.69165 0.0
H1147 H 0.81607 0.37097 0.6918 0.0
H1148 H 0.89322 0.44924 0.6096 0.0
C1149 C 0.82189 0.5275 0.61578 0.0
C1150 C 0.79241 0.52794 0.63429 0.0
C1151 C 0.76924 0.49836 0.65878 0.0
C1152 C 0.77567 0.46935 0.66547 0.0
C1153 C 0.80526 0.47007 0.64736 0.0
C1154 C 0.82788 0.49818 0.62282 0.0
C1155 C 0.85843 0.49269 0.60796 0.0
C1156 C 0.85572 0.48759 0.5644 0.0
C1157 C 0.89613 0.5246 0.61982 0.0
C1158 C 0.84969 0.45749 0.62848 0.0
C1159 C 0.81888 0.44485 0.65095 0.0
C1160 C 0.80626 0.41359 0.67366 0.0
C1161 C 0.82561 0.3946 0.67331 0.0
C1162 C 0.85724 0.40681 0.65017 0.0
C1163 C 0.86917 0.4388 0.62756 0.0
H1164 H 0.47678 0.28797 0.59096 0.0
H1165 H 0.51406 0.24973 0.68698 0.0
H1166 H 0.56311 0.31335 0.69945 0.0
H1167 H 0.56662 0.35775 0.55865 0.0
H1168 H 0.55137 0.38923 0.54531 0.0
H1169 H 0.51994 0.34056 0.54364 0.0
H1170 H 0.4753 0.34831 0.58805 0.0
H1171 H 0.50663 0.39695 0.58996 0.0
H1172 H 0.49141 0.37058 0.63354 0.0
H1173 H 0.60706 0.38239 0.70275 0.0
H1174 H 0.64221 0.44957 0.69582 0.0
H1175 H 0.57656 0.44154 0.59649 0.0
C1176 C 0.4953 0.29282 0.61454 0.0
C1177 C 0.49138 0.26368 0.63801 0.0
C1178 C 0.51637 0.27148 0.66855 0.0
C1179 C 0.54437 0.30758 0.67589 0.0
C1180 C 0.54721 0.33566 0.65237 0.0
C1181 C 0.52341 0.32859 0.62221 0.0
C1182 C 0.53196 0.36352 0.60138 0.0
C1183 C 0.54315 0.36271 0.55978 0.0
C1184 C 0.49939 0.37023 0.60337 0.0
C1185 C 0.56409 0.39143 0.6247 0.0
C1186 C 0.57259 0.37495 0.65396 0.0
C1187 C 0.60085 0.39553 0.67965 0.0
C1188 C 0.62093 0.43389 0.67525 0.0
C1189 C 0.61278 0.45144 0.64523 0.0
C1190 C 0.58383 0.42947 0.61981 0.0
H1191 H 0.7268 0.18082 0.59589 0.0
H1192 H 0.7654 0.27638 0.66854 0.0
H1193 H 0.70203 0.2631 0.67679 0.0
H1194 H 0.65243 0.18862 0.54993 0.0
H1195 H 0.62185 0.13972 0.54919 0.0
H1196 H 0.67065 0.15818 0.54664 0.0
H1197 H 0.66729 0.11913 0.60547 0.0
H1198 H 0.61857 0.10072 0.60833 0.0
H1199 H 0.6471 0.12316 0.64915 0.0
H1200 H 0.634 0.23729 0.68102 0.0
H1201 H 0.56677 0.20147 0.68 0.0
H1202 H 0.57165 0.12302 0.6037 0.0
C1203 C 0.722 0.19927 0.61304 0.0
C1204 C 0.7513 0.22969 0.63149 0.0
C1205 C 0.7436 0.25286 0.65409 0.0
C1206 C 0.7076 0.2456 0.65895 0.0
C1207 C 0.67934 0.2151 0.64099 0.0
C1208 C 0.68608 0.19238 0.61832 0.0
C1209 C 0.65052 0.16058 0.60352 0.0
C1210 C 0.64877 0.16186 0.55972 0.0
C1211 C 0.64559 0.12373 0.61746 0.0
C1212 C 0.62284 0.16867 0.62196 0.0
C1213 C 0.64004 0.20035 0.64324 0.0
C1214 C 0.62019 0.21269 0.66394 0.0
C1215 C 0.58173 0.19211 0.66293 0.0
C1216 C 0.56325 0.15939 0.64124 0.0
C1217 C 0.58451 0.14786 0.62049 0.0
H1218 H 0.3541 0.15246 0.79494 0.0
H1219 H 0.46086 0.16248 0.77973 0.0
H1220 H 0.4763 0.18212 0.84643 0.0
H1221 H 0.38202 0.22951 0.85378 0.0
H1222 H 0.34297 0.20875 0.88525 0.0
H1223 H 0.33862 0.19306 0.83677 0.0
H1224 H 0.31482 0.12677 0.86092 0.0
H1225 H 0.31888 0.14213 0.90957 0.0
H1226 H 0.34174 0.11789 0.89469 0.0
H1227 H 0.48317 0.20649 0.91176 0.0
H1228 H 0.47868 0.22787 0.97554 0.0
H1229 H 0.36641 0.19952 0.95201 0.0
C1230 C 0.38052 0.15832 0.80584 0.0
C1231 C 0.40631 0.15604 0.78188 0.0
C1232 C 0.44057 0.16393 0.79732 0.0
C1233 C 0.44968 0.17522 0.83524 0.0
C1234 C 0.42411 0.17804 0.85776 0.0
C1235 C 0.38996 0.1692 0.84404 0.0
C1236 C 0.36781 0.17486 0.87468 0.0
C1237 C 0.35724 0.20324 0.86184 0.0
C1238 C 0.33379 0.13824 0.88561 0.0
C1239 C 0.39539 0.18943 0.90719 0.0
C1240 C 0.42765 0.191 0.89656 0.0
C1241 C 0.45791 0.20497 0.92065 0.0
C1242 C 0.45512 0.21732 0.9568 0.0
C1243 C 0.4222 0.21541 0.9689 0.0
C1244 C 0.39187 0.20115 0.94367 0.0
H1245 H 0.87365 0.26192 0.80512 0.0
H1246 H 0.7617 0.19353 0.766 0.0
H1247 H 0.74146 0.17456 0.83221 0.0
H1248 H 0.86896 0.19793 0.87827 0.0
H1249 H 0.8972 0.23314 0.91194 0.0
H1250 H 0.90342 0.24255 0.86141 0.0
H1251 H 0.89381 0.29798 0.87044 0.0
H1252 H 0.88763 0.28877 0.92098 0.0
H1253 H 0.8528 0.29135 0.89357 0.0
H1254 H 0.7322 0.16486 0.90189 0.0
H1255 H 0.7351 0.16186 0.9721 0.0
H1256 H 0.8532 0.23194 0.96795 0.0
C1257 C 0.8449 0.2431 0.81067 0.0
C1258 C 0.81918 0.22932 0.7804 0.0
C1259 C 0.78189 0.20436 0.78866 0.0
C1260 C 0.77007 0.19344 0.82622 0.0
C1261 C 0.79594 0.20721 0.85536 0.0
C1262 C 0.83264 0.23117 0.84821 0.0
C1263 C 0.85461 0.24083 0.88512 0.0
C1264 C 0.8827 0.22783 0.88411 0.0
C1265 C 0.87331 0.28219 0.89298 0.0
C1266 C 0.82437 0.2189 0.91394 0.0
C1267 C 0.79076 0.20001 0.89598 0.0
C1268 C 0.75837 0.1792 0.91631 0.0
C1269 C 0.76026 0.17774 0.95615 0.0
C1270 C 0.79431 0.19641 0.9753 0.0
C1271 C 0.82686 0.21696 0.95387 0.0
H1272 H 0.85322 0.65724 0.95334 0.0
H1273 H 0.76654 0.54909 0.98763 0.0
H1274 H 0.7394 0.53924 0.92347 0.0
H1275 H 0.79761 0.67892 0.88952 0.0
H1276 H 0.8333 0.70132 0.85438 0.0
H1277 H 0.84498 0.70163 0.90399 0.0
H1278 H 0.88484 0.67301 0.88651 0.0
H1279 H 0.87351 0.67288 0.83689 0.0
H1280 H 0.86474 0.63088 0.85981 0.0
H1281 H 0.72077 0.54083 0.85628 0.0
H1282 H 0.71609 0.55082 0.78752 0.0
H1283 H 0.81725 0.65548 0.79397 0.0
C1284 C 0.82844 0.63162 0.94728 0.0
C1285 C 0.81198 0.60395 0.97553 0.0
C1286 C 0.7798 0.5706 0.96643 0.0
C1287 C 0.76395 0.56482 0.93012 0.0
C1288 C 0.78076 0.59246 0.90288 0.0
C1289 C 0.81253 0.62503 0.91071 0.0
C1290 C 0.82614 0.64911 0.87527 0.0
C1291 C 0.82547 0.68487 0.88116 0.0
C1292 C 0.86458 0.65692 0.86396 0.0
C1293 C 0.79746 0.62461 0.84634 0.0
C1294 C 0.77105 0.5925 0.8632 0.0
C1295 C 0.74136 0.56582 0.84266 0.0
C1296 C 0.73888 0.57178 0.80361 0.0
C1297 C 0.76632 0.60385 0.78528 0.0
C1298 C 0.7959 0.63061 0.80712 0.0
H1299 H 0.16732 0.41566 0.55525 0.0
H1300 H 0.231 0.36159 0.54324 0.0
H1301 H 0.2291 0.35242 0.61292 0.0
H1302 H 0.20957 0.46354 0.64056 0.0
H1303 H 0.16803 0.45817 0.66105 0.0
H1304 H 0.17308 0.45894 0.60998 0.0
H1305 H 0.11334 0.39541 0.60462 0.0
H1306 H 0.10814 0.396 0.65553 0.0
H1307 H 0.10863 0.35774 0.6334 0.0
H1308 H 0.2229 0.35192 0.68433 0.0
H1309 H 0.21349 0.36078 0.7522 0.0
H1310 H 0.15268 0.41404 0.71782 0.0
C1311 C 0.18077 0.40177 0.56722 0.0
C1312 C 0.19956 0.38949 0.54364 0.0
C1313 C 0.21669 0.37141 0.5606 0.0
C1314 C 0.21558 0.36592 0.60022 0.0
C1315 C 0.19694 0.37844 0.62262 0.0
C1316 C 0.17978 0.39593 0.60675 0.0
C1317 C 0.1625 0.40767 0.63732 0.0
C1318 C 0.17931 0.44956 0.63721 0.0
C1319 C 0.12067 0.38799 0.63243 0.0
C1320 C 0.17321 0.39462 0.6729 0.0
C1321 C 0.19289 0.37764 0.66377 0.0
C1322 C 0.20721 0.36484 0.69185 0.0
C1323 C 0.20176 0.37003 0.73032 0.0
C1324 C 0.18213 0.38782 0.74037 0.0
C1325 C 0.16733 0.39981 0.71113 0.0
H1326 H 0.6136 0.75842 0.55875 0.0
H1327 H 0.67241 0.8772 0.55004 0.0
H1328 H 0.67599 0.88153 0.6203 0.0
H1329 H 0.56004 0.75145 0.6407 0.0
H1330 H 0.5625 0.71376 0.66199 0.0
H1331 H 0.5653 0.71967 0.6109 0.0
H1332 H 0.62712 0.72058 0.61077 0.0
H1333 H 0.62452 0.71469 0.66189 0.0
H1334 H 0.66411 0.75297 0.64045 0.0
H1335 H 0.67269 0.87353 0.69082 0.0
H1336 H 0.66196 0.85369 0.75802 0.0
H1337 H 0.60498 0.73984 0.72217 0.0
C1338 C 0.62732 0.78537 0.57159 0.0
C1339 C 0.64261 0.81752 0.54878 0.0
C1340 C 0.66033 0.85221 0.5668 0.0
C1341 C 0.66261 0.85497 0.6067 0.0
C1342 C 0.64716 0.82283 0.62827 0.0
C1343 C 0.62989 0.78866 0.61148 0.0
C1344 C 0.61515 0.75847 0.6415 0.0
C1345 C 0.57326 0.73443 0.63859 0.0
C1346 C 0.63384 0.73532 0.63846 0.0
C1347 C 0.62644 0.78109 0.67776 0.0
C1348 C 0.64509 0.81814 0.66933 0.0
C1349 C 0.65817 0.8446 0.69781 0.0
C1350 C 0.6519 0.83299 0.73596 0.0
C1351 C 0.63252 0.79518 0.74549 0.0
C1352 C 0.6198 0.76893 0.71586 0.0
H1353 H 0.25589 0.78135 0.72266 0.0
H1354 H 0.3043 0.89891 0.735 0.0
H1355 H 0.28605 0.90315 0.6689 0.0
H1356 H 0.28551 0.78537 0.62394 0.0
H1357 H 0.24464 0.74339 0.61114 0.0
H1358 H 0.26162 0.75015 0.6594 0.0
H1359 H 0.19853 0.73754 0.68416 0.0
H1360 H 0.18152 0.73129 0.63596 0.0
H1361 H 0.17966 0.76471 0.66626 0.0
H1362 H 0.25863 0.89345 0.60243 0.0
H1363 H 0.23208 0.87223 0.53818 0.0
H1364 H 0.20579 0.76171 0.56807 0.0
C1365 C 0.26305 0.80808 0.7114 0.0
C1366 C 0.28061 0.83976 0.73444 0.0
C1367 C 0.28976 0.87418 0.71833 0.0
C1368 C 0.27971 0.87685 0.68071 0.0
C1369 C 0.26123 0.84488 0.65923 0.0
C1370 C 0.25376 0.81128 0.67373 0.0
C1371 C 0.23449 0.7812 0.64446 0.0
C1372 C 0.25797 0.76403 0.63412 0.0
C1373 C 0.19628 0.75197 0.65857 0.0
C1374 C 0.23188 0.80301 0.61135 0.0
C1375 C 0.24712 0.83963 0.62054 0.0
C1376 C 0.24698 0.8649 0.59481 0.0
C1377 C 0.23161 0.85255 0.55848 0.0
C1378 C 0.21701 0.81536 0.54806 0.0
C1379 C 0.21694 0.79035 0.5751 0.0
H1380 H 0.57029 0.7772 0.0568 0.0
H1381 H 0.68347 0.86352 0.04265 0.0
H1382 H 0.68471 0.88222 0.10959 0.0
H1383 H 0.54202 0.82689 0.11685 0.0
H1384 H 0.51288 0.78799 0.14653 0.0
H1385 H 0.52079 0.78122 0.09751 0.0
H1386 H 0.54366 0.73732 0.11907 0.0
H1387 H 0.53555 0.74373 0.16813 0.0
H1388 H 0.58026 0.75284 0.15348 0.0
H1389 H 0.67297 0.89281 0.17759 0.0
H1390 H 0.65084 0.89142 0.24307 0.0
H1391 H 0.54587 0.79696 0.2136 0.0
C1392 C 0.5954 0.79994 0.06779 0.0
C1393 C 0.62676 0.81893 0.04439 0.0
C1394 C 0.65911 0.84846 0.06 0.0
C1395 C 0.66005 0.8594 0.09798 0.0
C1396 C 0.62852 0.84036 0.12012 0.0
C1397 C 0.59692 0.81101 0.10574 0.0
C1398 C 0.56702 0.79478 0.13576 0.0
C1399 C 0.53371 0.79792 0.12342 0.0
C1400 C 0.55599 0.7548 0.14464 0.0
C1401 C 0.58669 0.81964 0.16924 0.0
C1402 C 0.62204 0.84593 0.15952 0.0
C1403 C 0.6454 0.87221 0.18558 0.0
C1404 C 0.63252 0.87123 0.22272 0.0
C1405 C 0.59664 0.84396 0.23364 0.0
C1406 C 0.57344 0.81809 0.20627 0.0
H1407 H 0.24861 0.78946 0.05991 0.0
H1408 H 0.18791 0.8471 0.05035 0.0
H1409 H 0.1676 0.83097 0.11731 0.0
H1410 H 0.18375 0.71531 0.11711 0.0
H1411 H 0.21761 0.71228 0.14587 0.0
H1412 H 0.22836 0.72924 0.09759 0.0
H1413 H 0.28472 0.78908 0.12153 0.0
H1414 H 0.27436 0.77215 0.16986 0.0
H1415 H 0.27874 0.81576 0.15784 0.0
H1416 H 0.15235 0.80682 0.18478 0.0
H1417 H 0.14592 0.77936 0.24886 0.0
H1418 H 0.21707 0.73802 0.21457 0.0
C1419 C 0.23131 0.799 0.07193 0.0
C1420 C 0.21984 0.81955 0.04976 0.0
C1421 C 0.19713 0.8314 0.0667 0.0
C1422 C 0.18536 0.82228 0.10471 0.0
C1423 C 0.19667 0.80146 0.12552 0.0
C1424 C 0.21942 0.79027 0.10985 0.0
C1425 C 0.22762 0.76813 0.13832 0.0
C1426 C 0.21348 0.72892 0.12385 0.0
C1427 C 0.2688 0.78744 0.14742 0.0
C1428 C 0.20573 0.7684 0.17241 0.0
C1429 C 0.18799 0.78767 0.16439 0.0
C1430 C 0.16602 0.79158 0.19137 0.0
C1431 C 0.16234 0.77568 0.22759 0.0
C1432 C 0.18069 0.75626 0.23667 0.0
C1433 C 0.20256 0.75256 0.20852 0.0
H1434 H 0.18708 0.38321 0.05922 0.0
H1435 H 0.28671 0.48204 0.02516 0.0
H1436 H 0.3112 0.48824 0.09019 0.0
H1437 H 0.18045 0.41539 0.1511 0.0
H1438 H 0.16368 0.3719 0.17498 0.0
H1439 H 0.15476 0.37329 0.12487 0.0
H1440 H 0.18442 0.33386 0.11028 0.0
H1441 H 0.19382 0.33261 0.16035 0.0
H1442 H 0.23054 0.34916 0.12606 0.0
H1443 H 0.32524 0.48472 0.15878 0.0
H1444 H 0.3254 0.47452 0.22821 0.0
H1445 H 0.21591 0.37994 0.21989 0.0
C1446 C 0.21414 0.40594 0.06546 0.0
C1447 C 0.23496 0.4321 0.03697 0.0
C1448 C 0.2701 0.46172 0.04642 0.0
C1449 C 0.28443 0.4654 0.08329 0.0
C1450 C 0.26331 0.43938 0.11074 0.0
C1451 C 0.22881 0.41036 0.1025 0.0
C1452 C 0.21116 0.38753 0.13809 0.0
C1453 C 0.1754 0.38702 0.14783 0.0
C1454 C 0.2046 0.34847 0.1334 0.0
C1455 C 0.2408 0.40878 0.16757 0.0
C1456 C 0.27092 0.43813 0.15094 0.0
C1457 C 0.30179 0.46182 0.17218 0.0
C1458 C 0.30166 0.45577 0.21164 0.0
C1459 C 0.27066 0.42658 0.22965 0.0
C1460 C 0.24001 0.40261 0.20707 0.0
H1461 H 0.86259 0.60409 0.46138 0.0
H1462 H 0.79802 0.65789 0.46792 0.0
H1463 H 0.79975 0.66348 0.39763 0.0
H1464 H 0.92052 0.65859 0.38197 0.0
H1465 H 0.9218 0.62046 0.36068 0.0
H1466 H 0.91673 0.6218 0.41163 0.0
H1467 H 0.85738 0.55836 0.40937 0.0
H1468 H 0.86226 0.55676 0.35847 0.0
H1469 H 0.82057 0.55176 0.37812 0.0
H1470 H 0.80645 0.66122 0.32682 0.0
H1471 H 0.81747 0.65144 0.2601 0.0
H1472 H 0.87825 0.59938 0.2988 0.0
C1473 C 0.84894 0.61722 0.44809 0.0
C1474 C 0.83006 0.63046 0.47027 0.0
C1475 C 0.81259 0.64746 0.45164 0.0
C1476 C 0.81349 0.65083 0.4117 0.0
C1477 C 0.83212 0.63726 0.39074 0.0
C1478 C 0.84966 0.62091 0.40824 0.0
C1479 C 0.86715 0.608 0.37896 0.0
C1480 C 0.90903 0.62843 0.38359 0.0
C1481 C 0.85085 0.56624 0.38138 0.0
C1482 C 0.8561 0.61902 0.34219 0.0
C1483 C 0.83611 0.63606 0.34974 0.0
C1484 C 0.82219 0.64805 0.32057 0.0
C1485 C 0.82858 0.64227 0.28269 0.0
C1486 C 0.84868 0.62455 0.27407 0.0
C1487 C 0.86287 0.61308 0.30438 0.0
H1488 H 0.37425 0.18061 0.45036 0.0
H1489 H 0.48393 0.26848 0.47768 0.0
H1490 H 0.49012 0.29384 0.41305 0.0
H1491 H 0.39492 0.16761 0.354 0.0
H1492 H 0.35151 0.15841 0.33469 0.0
H1493 H 0.35472 0.14771 0.3839 0.0
H1494 H 0.32717 0.18756 0.40502 0.0
H1495 H 0.32413 0.19863 0.35587 0.0
H1496 H 0.34871 0.23479 0.38993 0.0
H1497 H 0.48504 0.31057 0.34619 0.0
H1498 H 0.47114 0.31438 0.27858 0.0
H1499 H 0.3658 0.21475 0.29175 0.0
C1500 C 0.3995 0.20521 0.44269 0.0
C1501 C 0.42859 0.22252 0.46928 0.0
C1502 C 0.46129 0.25453 0.45796 0.0
C1503 C 0.46504 0.26936 0.42129 0.0
C1504 C 0.43597 0.25185 0.39587 0.0
C1505 C 0.40394 0.22029 0.40578 0.0
C1506 C 0.37763 0.20629 0.37214 0.0
C1507 C 0.36921 0.16772 0.36049 0.0
C1508 C 0.34232 0.20686 0.3813 0.0
C1509 C 0.40016 0.23468 0.34181 0.0
C1510 C 0.43346 0.26099 0.35646 0.0
C1511 C 0.45908 0.2901 0.3343 0.0
C1512 C 0.45086 0.29207 0.29586 0.0
C1513 C 0.41743 0.26485 0.27962 0.0
C1514 C 0.3916 0.23601 0.30321 0.0
H1515 H 0.85555 0.20922 0.45494 0.0
H1516 H 0.76651 0.22691 0.48753 0.0
H1517 H 0.73992 0.20888 0.42331 0.0
H1518 H 0.86613 0.24706 0.36045 0.0
H1519 H 0.87647 0.2149 0.33816 0.0
H1520 H 0.8875 0.2265 0.38771 0.0
H1521 H 0.84967 0.15769 0.40593 0.0
H1522 H 0.83832 0.14593 0.35639 0.0
H1523 H 0.80239 0.13131 0.39138 0.0
H1524 H 0.72168 0.18781 0.35633 0.0
H1525 H 0.7174 0.17282 0.28783 0.0
H1526 H 0.8205 0.17374 0.29525 0.0
C1527 C 0.83041 0.20911 0.44847 0.0
C1528 C 0.81311 0.21945 0.47638 0.0
C1529 C 0.78045 0.21936 0.46668 0.0
C1530 C 0.7649 0.20887 0.43029 0.0
C1531 C 0.78248 0.1989 0.40343 0.0
C1532 C 0.81479 0.19942 0.41171 0.0
C1533 C 0.82909 0.18969 0.37649 0.0
C1534 C 0.86705 0.22143 0.36503 0.0
C1535 C 0.82992 0.15404 0.38296 0.0
C1536 C 0.80005 0.18419 0.34727 0.0
C1537 C 0.77298 0.18876 0.36377 0.0
C1538 C 0.74282 0.18433 0.34299 0.0
C1539 C 0.74055 0.17567 0.30407 0.0
C1540 C 0.76863 0.17222 0.28601 0.0
C1541 C 0.79867 0.17638 0.30814 0.0
loop_
_geom_bond_atom_site_label_1
_geom_bond_atom_site_label_2
_geom_bond_distance
_geom_bond_site_symmetry_2
_ccdc_geom_bond_type
Zn0 N4 2.020 . S
Zn0 O8 2.019 . S
Zn0 N10 2.119 . S
Zn0 O18 1.975 . S
C1 N2 1.334 . S
C1 N5 1.336 . S
N2 C1 1.334 . S
N2 C3 1.334 . S
C3 N2 1.334 . S
C3 N4 1.336 . S
N4 Zn0 2.020 . S
N4 C3 1.336 . S
N4 N5 1.354 . S
N5 C1 1.336 . S
N5 N4 1.354 . S
N5 Zn9 2.020 . S
C6 O7 1.244 . S
C6 O30 1.257 . S
O7 C6 1.244 . S
O8 Zn0 2.019 . S
O8 C28 1.257 . S
Zn9 N5 2.020 . S
Zn9 O16 1.975 . S
Zn9 N25 2.119 . S
Zn9 O30 2.019 . S
N10 Zn0 2.119 . S
N10 C12 1.334 . S
N10 C13 1.328 . S
C11 C12 1.391 . S
C11 N14 1.329 . S
C11 H32 0.930 . S
C12 N10 1.334 . S
C12 C11 1.391 . S
C12 H19 0.930 . S
C13 N10 1.328 . S
C13 C15 1.392 . S
C13 H20 0.930 . S
N14 C11 1.329 . S
N14 C15 1.331 . S
C15 C13 1.392 . S
C15 N14 1.331 . S
O16 Zn9 1.975 . S
O16 C17 1.252 . S
C17 O16 1.252 . S
C17 O18 1.252 . S
O18 Zn0 1.975 . S
O18 C17 1.252 . S
H19 C12 0.930 . S
H20 C13 0.930 . S
C21 C22 1.392 . S
C21 N25 1.328 . S
C21 H27 0.930 . S
C22 C21 1.392 . S
C22 N26 1.331 . S
C23 C24 1.391 . S
C23 N26 1.329 . S
C23 H33 0.930 . S
C24 C23 1.391 . S
C24 N25 1.334 . S
C24 H31 0.930 . S
N25 Zn9 2.119 . S
N25 C21 1.328 . S
N25 C24 1.334 . S
N26 C22 1.331 . S
N26 C23 1.329 . S
H27 C21 0.930 . S
C28 O8 1.257 . S
C28 O29 1.244 . S
O29 C28 1.244 . S
O30 C6 1.257 . S
O30 Zn9 2.019 . S
H31 C24 0.930 . S
H32 C11 0.930 . S
H33 C23 0.930 . S
Zn34 N38 2.020 . S
Zn34 O42 2.019 . S
Zn34 N44 2.119 . S
Zn34 O52 1.975 . S
C35 N36 1.334 . S
C35 N39 1.336 . S
N36 C35 1.334 . S
N36 C37 1.334 . S
C37 N36 1.334 . S
C37 N38 1.336 . S
N38 Zn34 2.020 . S
N38 C37 1.336 . S
N38 N39 1.354 . S
N39 C35 1.336 . S
N39 N38 1.354 . S
N39 Zn43 2.020 . S
C40 O41 1.244 . S
C40 O64 1.257 . S
O41 C40 1.244 . S
O42 Zn34 2.019 . S
O42 C62 1.257 . S
Zn43 N39 2.020 . S
Zn43 O50 1.975 . S
Zn43 N59 2.119 . S
Zn43 O64 2.019 . S
N44 Zn34 2.119 . S
N44 C46 1.334 . S
N44 C47 1.328 . S
C45 C46 1.391 . S
C45 N48 1.329 . S
C45 H66 0.930 . S
C46 N44 1.334 . S
C46 C45 1.391 . S
C46 H53 0.930 . S
C47 N44 1.328 . S
C47 C49 1.392 . S
C47 H54 0.930 . S
N48 C45 1.329 . S
N48 C49 1.331 . S
C49 C47 1.392 . S
C49 N48 1.331 . S
O50 Zn43 1.975 . S
O50 C51 1.252 . S
C51 O50 1.252 . S
C51 O52 1.252 . S
O52 Zn34 1.975 . S
O52 C51 1.252 . S
H53 C46 0.930 . S
H54 C47 0.930 . S
C55 C56 1.392 . S
C55 N59 1.328 . S
C55 H61 0.930 . S
C56 C55 1.392 . S
C56 N60 1.331 . S
C57 C58 1.391 . S
C57 N60 1.329 . S
C57 H67 0.930 . S
C58 C57 1.391 . S
C58 N59 1.334 . S
C58 H65 0.930 . S
N59 Zn43 2.119 . S
N59 C55 1.328 . S
N59 C58 1.334 . S
N60 C56 1.331 . S
N60 C57 1.329 . S
H61 C55 0.930 . S
C62 O42 1.257 . S
C62 O63 1.244 . S
O63 C62 1.244 . S
O64 C40 1.257 . S
O64 Zn43 2.019 . S
H65 C58 0.930 . S
H66 C45 0.930 . S
H67 C57 0.930 . S
Zn68 N72 2.020 . S
Zn68 O76 2.019 . S
Zn68 N78 2.119 . S
Zn68 O86 1.975 . S
C69 N70 1.334 . S
C69 N73 1.336 . S
N70 C69 1.334 . S
N70 C71 1.334 . S
C71 N70 1.334 . S
C71 N72 1.336 . S
N72 Zn68 2.020 . S
N72 C71 1.336 . S
N72 N73 1.354 . S
N73 C69 1.336 . S
N73 N72 1.354 . S
N73 Zn77 2.020 . S
C74 O75 1.244 . S
C74 O98 1.257 . S
O75 C74 1.244 . S
O76 Zn68 2.019 . S
O76 C96 1.257 . S
Zn77 N73 2.020 . S
Zn77 O84 1.975 . S
Zn77 N93 2.119 . S
Zn77 O98 2.019 . S
N78 Zn68 2.119 . S
N78 C80 1.334 . S
N78 C81 1.328 . S
C79 C80 1.391 . S
C79 N82 1.329 . S
C79 H100 0.930 . S
C80 N78 1.334 . S
C80 C79 1.391 . S
C80 H87 0.930 . S
C81 N78 1.328 . S
C81 C83 1.392 . S
C81 H88 0.930 . S
N82 C79 1.329 . S
N82 C83 1.331 . S
C83 C81 1.392 . S
C83 N82 1.331 . S
O84 Zn77 1.975 . S
O84 C85 1.252 . S
C85 O84 1.252 . S
C85 O86 1.252 . S
O86 Zn68 1.975 . S
O86 C85 1.252 . S
H87 C80 0.930 . S
H88 C81 0.930 . S
C89 C90 1.392 . S
C89 N93 1.328 . S
C89 H95 0.930 . S
C90 C89 1.392 . S
C90 N94 1.331 . S
C91 C92 1.391 . S
C91 N94 1.329 . S
C91 H101 0.930 . S
C92 C91 1.391 . S
C92 N93 1.334 . S
C92 H99 0.930 . S
N93 Zn77 2.119 . S
N93 C89 1.328 . S
N93 C92 1.334 . S
N94 C90 1.331 . S
N94 C91 1.329 . S
H95 C89 0.930 . S
C96 O76 1.257 . S
C96 O97 1.244 . S
O97 C96 1.244 . S
O98 C74 1.257 . S
O98 Zn77 2.019 . S
H99 C92 0.930 . S
H100 C79 0.930 . S
H101 C91 0.930 . S
Zn102 N106 2.020 . S
Zn102 O110 2.019 . S
Zn102 N112 2.119 . S
Zn102 O120 1.975 . S
C103 N104 1.334 . S
C103 N107 1.336 . S
N104 C103 1.334 . S
N104 C105 1.334 . S
C105 N104 1.334 . S
C105 N106 1.336 . S
N106 Zn102 2.020 . S
N106 C105 1.336 . S
N106 N107 1.354 . S
N107 C103 1.336 . S
N107 N106 1.354 . S
N107 Zn111 2.020 . S
C108 O109 1.244 . S
C108 O132 1.257 . S
O109 C108 1.244 . S
O110 Zn102 2.019 . S
O110 C130 1.257 . S
Zn111 N107 2.020 . S
Zn111 O118 1.975 . S
Zn111 N127 2.119 . S
Zn111 O132 2.019 . S
N112 Zn102 2.119 . S
N112 C114 1.334 . S
N112 C115 1.328 . S
C113 C114 1.391 . S
C113 N116 1.329 . S
C113 H134 0.930 . S
C114 N112 1.334 . S
C114 C113 1.391 . S
C114 H121 0.930 . S
C115 N112 1.328 . S
C115 C117 1.392 . S
C115 H122 0.930 . S
N116 C113 1.329 . S
N116 C117 1.331 . S
C117 C115 1.392 . S
C117 N116 1.331 . S
O118 Zn111 1.975 . S
O118 C119 1.252 . S
C119 O118 1.252 . S
C119 O120 1.252 . S
O120 Zn102 1.975 . S
O120 C119 1.252 . S
H121 C114 0.930 . S
H122 C115 0.930 . S
C123 C124 1.392 . S
C123 N127 1.328 . S
C123 H129 0.930 . S
C124 C123 1.392 . S
C124 N128 1.331 . S
C125 C126 1.391 . S
C125 N128 1.329 . S
C125 H135 0.930 . S
C126 C125 1.391 . S
C126 N127 1.334 . S
C126 H133 0.930 . S
N127 Zn111 2.119 . S
N127 C123 1.328 . S
N127 C126 1.334 . S
N128 C124 1.331 . S
N128 C125 1.329 . S
H129 C123 0.930 . S
C130 O110 1.257 . S
C130 O131 1.244 . S
O131 C130 1.244 . S
O132 C108 1.257 . S
O132 Zn111 2.019 . S
H133 C126 0.930 . S
H134 C113 0.930 . S
H135 C125 0.930 . S
Zn136 N140 2.020 . S
Zn136 O144 2.019 . S
Zn136 N146 2.119 . S
Zn136 O154 1.975 . S
C137 N138 1.334 . S
C137 N141 1.336 . S
N138 C137 1.334 . S
N138 C139 1.334 . S
C139 N138 1.334 . S
C139 N140 1.336 . S
N140 Zn136 2.020 . S
N140 C139 1.336 . S
N140 N141 1.354 . S
N141 C137 1.336 . S
N141 N140 1.354 . S
N141 Zn145 2.020 . S
C142 O143 1.244 . S
C142 O166 1.257 . S
O143 C142 1.244 . S
O144 Zn136 2.019 . S
O144 C164 1.257 . S
Zn145 N141 2.020 . S
Zn145 O152 1.975 . S
Zn145 N161 2.119 . S
Zn145 O166 2.019 . S
N146 Zn136 2.119 . S
N146 C148 1.334 . S
N146 C149 1.328 . S
C147 C148 1.391 . S
C147 N150 1.329 . S
C147 H168 0.930 . S
C148 N146 1.334 . S
C148 C147 1.391 . S
C148 H155 0.930 . S
C149 N146 1.328 . S
C149 C151 1.392 . S
C149 H156 0.930 . S
N150 C147 1.329 . S
N150 C151 1.331 . S
C151 C149 1.392 . S
C151 N150 1.331 . S
O152 Zn145 1.975 . S
O152 C153 1.252 . S
C153 O152 1.252 . S
C153 O154 1.252 . S
O154 Zn136 1.975 . S
O154 C153 1.252 . S
H155 C148 0.930 . S
H156 C149 0.930 . S
C157 C158 1.392 . S
C157 N161 1.328 . S
C157 H163 0.930 . S
C158 C157 1.392 . S
C158 N162 1.331 . S
C159 C160 1.391 . S
C159 N162 1.329 . S
C159 H169 0.930 . S
C160 C159 1.391 . S
C160 N161 1.334 . S
C160 H167 0.930 . S
N161 Zn145 2.119 . S
N161 C157 1.328 . S
N161 C160 1.334 . S
N162 C158 1.331 . S
N162 C159 1.329 . S
H163 C157 0.930 . S
C164 O144 1.257 . S
C164 O165 1.244 . S
O165 C164 1.244 . S
O166 C142 1.257 . S
O166 Zn145 2.019 . S
H167 C160 0.930 . S
H168 C147 0.930 . S
H169 C159 0.930 . S
Zn170 N174 2.020 . S
Zn170 O178 2.019 . S
Zn170 N180 2.119 . S
Zn170 O188 1.975 . S
C171 N172 1.334 . S
C171 N175 1.336 . S
N172 C171 1.334 . S
N172 C173 1.334 . S
C173 N172 1.334 . S
C173 N174 1.336 . S
N174 Zn170 2.020 . S
N174 C173 1.336 . S
N174 N175 1.354 . S
N175 C171 1.336 . S
N175 N174 1.354 . S
N175 Zn179 2.020 . S
C176 O177 1.244 . S
C176 O200 1.257 . S
O177 C176 1.244 . S
O178 Zn170 2.019 . S
O178 C198 1.257 . S
Zn179 N175 2.020 . S
Zn179 O186 1.975 . S
Zn179 N195 2.119 . S
Zn179 O200 2.019 . S
N180 Zn170 2.119 . S
N180 C182 1.334 . S
N180 C183 1.328 . S
C181 C182 1.391 . S
C181 N184 1.329 . S
C181 H202 0.930 . S
C182 N180 1.334 . S
C182 C181 1.391 . S
C182 H189 0.930 . S
C183 N180 1.328 . S
C183 C185 1.392 . S
C183 H190 0.930 . S
N184 C181 1.329 . S
N184 C185 1.331 . S
C185 C183 1.392 . S
C185 N184 1.331 . S
O186 Zn179 1.975 . S
O186 C187 1.252 . S
C187 O186 1.252 . S
C187 O188 1.252 . S
O188 Zn170 1.975 . S
O188 C187 1.252 . S
H189 C182 0.930 . S
H190 C183 0.930 . S
C191 C192 1.392 . S
C191 N195 1.328 . S
C191 H197 0.930 . S
C192 C191 1.392 . S
C192 N196 1.331 . S
C193 C194 1.391 . S
C193 N196 1.329 . S
C193 H203 0.930 . S
C194 C193 1.391 . S
C194 N195 1.334 . S
C194 H201 0.930 . S
N195 Zn179 2.119 . S
N195 C191 1.328 . S
N195 C194 1.334 . S
N196 C192 1.331 . S
N196 C193 1.329 . S
H197 C191 0.930 . S
C198 O178 1.257 . S
C198 O199 1.244 . S
O199 C198 1.244 . S
O200 C176 1.257 . S
O200 Zn179 2.019 . S
H201 C194 0.930 . S
H202 C181 0.930 . S
H203 C193 0.930 . S
Zn204 N208 2.020 . S
Zn204 O212 2.019 . S
Zn204 N214 2.119 . S
Zn204 O222 1.975 . S
C205 N206 1.334 . S
C205 N209 1.336 . S
N206 C205 1.334 . S
N206 C207 1.334 . S
C207 N206 1.334 . S
C207 N208 1.336 . S
N208 Zn204 2.020 . S
N208 C207 1.336 . S
N208 N209 1.354 . S
N209 C205 1.336 . S
N209 N208 1.354 . S
N209 Zn213 2.020 . S
C210 O211 1.244 . S
C210 O234 1.257 . S
O211 C210 1.244 . S
O212 Zn204 2.019 . S
O212 C232 1.257 . S
Zn213 N209 2.020 . S
Zn213 O220 1.975 . S
Zn213 N229 2.119 . S
Zn213 O234 2.019 . S
N214 Zn204 2.119 . S
N214 C216 1.334 . S
N214 C217 1.328 . S
C215 C216 1.391 . S
C215 N218 1.329 . S
C215 H236 0.930 . S
C216 N214 1.334 . S
C216 C215 1.391 . S
C216 H223 0.930 . S
C217 N214 1.328 . S
C217 C219 1.392 . S
C217 H224 0.930 . S
N218 C215 1.329 . S
N218 C219 1.331 . S
C219 C217 1.392 . S
C219 N218 1.331 . S
O220 Zn213 1.975 . S
O220 C221 1.252 . S
C221 O220 1.252 . S
C221 O222 1.252 . S
O222 Zn204 1.975 . S
O222 C221 1.252 . S
H223 C216 0.930 . S
H224 C217 0.930 . S
C225 C226 1.392 . S
C225 N229 1.328 . S
C225 H231 0.930 . S
C226 C225 1.392 . S
C226 N230 1.331 . S
C227 C228 1.391 . S
C227 N230 1.329 . S
C227 H237 0.930 . S
C228 C227 1.391 . S
C228 N229 1.334 . S
C228 H235 0.930 . S
N229 Zn213 2.119 . S
N229 C225 1.328 . S
N229 C228 1.334 . S
N230 C226 1.331 . S
N230 C227 1.329 . S
H231 C225 0.930 . S
C232 O212 1.257 . S
C232 O233 1.244 . S
O233 C232 1.244 . S
O234 C210 1.257 . S
O234 Zn213 2.019 . S
H235 C228 0.930 . S
H236 C215 0.930 . S
H237 C227 0.930 . S
Zn238 N242 2.020 . S
Zn238 O246 2.019 . S
Zn238 N248 2.119 . S
Zn238 O256 1.975 . S
C239 N240 1.334 . S
C239 N243 1.336 . S
N240 C239 1.334 . S
N240 C241 1.334 . S
C241 N240 1.334 . S
C241 N242 1.336 . S
N242 Zn238 2.020 . S
N242 C241 1.336 . S
N242 N243 1.354 . S
N243 C239 1.336 . S
N243 N242 1.354 . S
N243 Zn247 2.020 . S
C244 O245 1.244 . S
C244 O268 1.257 . S
O245 C244 1.244 . S
O246 Zn238 2.019 . S
O246 C266 1.257 . S
Zn247 N243 2.020 . S
Zn247 O254 1.975 . S
Zn247 N263 2.119 . S
Zn247 O268 2.019 . S
N248 Zn238 2.119 . S
N248 C250 1.334 . S
N248 C251 1.328 . S
C249 C250 1.391 . S
C249 N252 1.329 . S
C249 H270 0.930 . S
C250 N248 1.334 . S
C250 C249 1.391 . S
C250 H257 0.930 . S
C251 N248 1.328 . S
C251 C253 1.392 . S
C251 H258 0.930 . S
N252 C249 1.329 . S
N252 C253 1.331 . S
C253 C251 1.392 . S
C253 N252 1.331 . S
O254 Zn247 1.975 . S
O254 C255 1.252 . S
C255 O254 1.252 . S
C255 O256 1.252 . S
O256 Zn238 1.975 . S
O256 C255 1.252 . S
H257 C250 0.930 . S
H258 C251 0.930 . S
C259 C260 1.392 . S
C259 N263 1.328 . S
C259 H265 0.930 . S
C260 C259 1.392 . S
C260 N264 1.331 . S
C261 C262 1.391 . S
C261 N264 1.329 . S
C261 H271 0.930 . S
C262 C261 1.391 . S
C262 N263 1.334 . S
C262 H269 0.930 . S
N263 Zn247 2.119 . S
N263 C259 1.328 . S
N263 C262 1.334 . S
N264 C260 1.331 . S
N264 C261 1.329 . S
H265 C259 0.930 . S
C266 O246 1.257 . S
C266 O267 1.244 . S
O267 C266 1.244 . S
O268 C244 1.257 . S
O268 Zn247 2.019 . S
H269 C262 0.930 . S
H270 C249 0.930 . S
H271 C261 0.930 . S
Zn272 N276 2.020 . S
Zn272 O280 2.019 . S
Zn272 N282 2.119 . S
Zn272 O290 1.975 . S
C273 N274 1.334 . S
C273 N277 1.336 . S
N274 C273 1.334 . S
N274 C275 1.334 . S
C275 N274 1.334 . S
C275 N276 1.336 . S
N276 Zn272 2.020 . S
N276 C275 1.336 . S
N276 N277 1.354 . S
N277 C273 1.336 . S
N277 N276 1.354 . S
N277 Zn281 2.020 . S
C278 O279 1.244 . S
C278 O302 1.257 . S
O279 C278 1.244 . S
O280 Zn272 2.019 . S
O280 C300 1.257 . S
Zn281 N277 2.020 . S
Zn281 O288 1.975 . S
Zn281 N297 2.119 . S
Zn281 O302 2.019 . S
N282 Zn272 2.119 . S
N282 C284 1.334 . S
N282 C285 1.328 . S
C283 C284 1.391 . S
C283 N286 1.329 . S
C283 H304 0.930 . S
C284 N282 1.334 . S
C284 C283 1.391 . S
C284 H291 0.930 . S
C285 N282 1.328 . S
C285 C287 1.392 . S
C285 H292 0.930 . S
N286 C283 1.329 . S
N286 C287 1.331 . S
C287 C285 1.392 . S
C287 N286 1.331 . S
O288 Zn281 1.975 . S
O288 C289 1.252 . S
C289 O288 1.252 . S
C289 O290 1.252 . S
O290 Zn272 1.975 . S
O290 C289 1.252 . S
H291 C284 0.930 . S
H292 C285 0.930 . S
C293 C294 1.392 . S
C293 N297 1.328 . S
C293 H299 0.930 . S
C294 C293 1.392 . S
C294 N298 1.331 . S
C295 C296 1.391 . S
C295 N298 1.329 . S
C295 H305 0.930 . S
C296 C295 1.391 . S
C296 N297 1.334 . S
C296 H303 0.930 . S
N297 Zn281 2.119 . S
N297 C293 1.328 . S
N297 C296 1.334 . S
N298 C294 1.331 . S
N298 C295 1.329 . S
H299 C293 0.930 . S
C300 O280 1.257 . S
C300 O301 1.244 . S
O301 C300 1.244 . S
O302 C278 1.257 . S
O302 Zn281 2.019 . S
H303 C296 0.930 . S
H304 C283 0.930 . S
H305 C295 0.930 . S
Zn306 N310 2.020 . S
Zn306 O314 2.019 . S
Zn306 N316 2.119 . S
Zn306 O324 1.975 . S
C307 N308 1.334 . S
C307 N311 1.336 . S
N308 C307 1.334 . S
N308 C309 1.334 . S
C309 N308 1.334 . S
C309 N310 1.336 . S
N310 Zn306 2.020 . S
N310 C309 1.336 . S
N310 N311 1.354 . S
N311 C307 1.336 . S
N311 N310 1.354 . S
N311 Zn315 2.020 . S
C312 O313 1.244 . S
C312 O336 1.257 . S
O313 C312 1.244 . S
O314 Zn306 2.019 . S
O314 C334 1.257 . S
Zn315 N311 2.020 . S
Zn315 O322 1.975 . S
Zn315 N331 2.119 . S
Zn315 O336 2.019 . S
N316 Zn306 2.119 . S
N316 C318 1.334 . S
N316 C319 1.328 . S
C317 C318 1.391 . S
C317 N320 1.329 . S
C317 H338 0.930 . S
C318 N316 1.334 . S
C318 C317 1.391 . S
C318 H325 0.930 . S
C319 N316 1.328 . S
C319 C321 1.392 . S
C319 H326 0.930 . S
N320 C317 1.329 . S
N320 C321 1.331 . S
C321 C319 1.392 . S
C321 N320 1.331 . S
O322 Zn315 1.975 . S
O322 C323 1.252 . S
C323 O322 1.252 . S
C323 O324 1.252 . S
O324 Zn306 1.975 . S
O324 C323 1.252 . S
H325 C318 0.930 . S
H326 C319 0.930 . S
C327 C328 1.392 . S
C327 N331 1.328 . S
C327 H333 0.930 . S
C328 C327 1.392 . S
C328 N332 1.331 . S
C329 C330 1.391 . S
C329 N332 1.329 . S
C329 H339 0.930 . S
C330 C329 1.391 . S
C330 N331 1.334 . S
C330 H337 0.930 . S
N331 Zn315 2.119 . S
N331 C327 1.328 . S
N331 C330 1.334 . S
N332 C328 1.331 . S
N332 C329 1.329 . S
H333 C327 0.930 . S
C334 O314 1.257 . S
C334 O335 1.244 . S
O335 C334 1.244 . S
O336 C312 1.257 . S
O336 Zn315 2.019 . S
H337 C330 0.930 . S
H338 C317 0.930 . S
H339 C329 0.930 . S
Zn340 N344 2.020 . S
Zn340 O348 2.019 . S
Zn340 N350 2.119 . S
Zn340 O358 1.975 . S
C341 N342 1.334 . S
C341 N345 1.336 . S
N342 C341 1.334 . S
N342 C343 1.334 . S
C343 N342 1.334 . S
C343 N344 1.336 . S
N344 Zn340 2.020 . S
N344 C343 1.336 . S
N344 N345 1.354 . S
N345 C341 1.336 . S
N345 N344 1.354 . S
N345 Zn349 2.020 . S
C346 O347 1.244 . S
C346 O370 1.257 . S
O347 C346 1.244 . S
O348 Zn340 2.019 . S
O348 C368 1.257 . S
Zn349 N345 2.020 . S
Zn349 O356 1.975 . S
Zn349 N365 2.119 . S
Zn349 O370 2.019 . S
N350 Zn340 2.119 . S
N350 C352 1.334 . S
N350 C353 1.328 . S
C351 C352 1.391 . S
C351 N354 1.329 . S
C351 H372 0.930 . S
C352 N350 1.334 . S
C352 C351 1.391 . S
C352 H359 0.930 . S
C353 N350 1.328 . S
C353 C355 1.392 . S
C353 H360 0.930 . S
N354 C351 1.329 . S
N354 C355 1.331 . S
C355 C353 1.392 . S
C355 N354 1.331 . S
O356 Zn349 1.975 . S
O356 C357 1.252 . S
C357 O356 1.252 . S
C357 O358 1.252 . S
O358 Zn340 1.975 . S
O358 C357 1.252 . S
H359 C352 0.930 . S
H360 C353 0.930 . S
C361 C362 1.392 . S
C361 N365 1.328 . S
C361 H367 0.930 . S
C362 C361 1.392 . S
C362 N366 1.331 . S
C363 C364 1.391 . S
C363 N366 1.329 . S
C363 H373 0.930 . S
C364 C363 1.391 . S
C364 N365 1.334 . S
C364 H371 0.930 . S
N365 Zn349 2.119 . S
N365 C361 1.328 . S
N365 C364 1.334 . S
N366 C362 1.331 . S
N366 C363 1.329 . S
H367 C361 0.930 . S
C368 O348 1.257 . S
C368 O369 1.244 . S
O369 C368 1.244 . S
O370 C346 1.257 . S
O370 Zn349 2.019 . S
H371 C364 0.930 . S
H372 C351 0.930 . S
H373 C363 0.930 . S
Zn374 N378 2.020 . S
Zn374 O382 2.019 . S
Zn374 N384 2.119 . S
Zn374 O392 1.975 . S
C375 N376 1.334 . S
C375 N379 1.336 . S
N376 C375 1.334 . S
N376 C377 1.334 . S
C377 N376 1.334 . S
C377 N378 1.336 . S
N378 Zn374 2.020 . S
N378 C377 1.336 . S
N378 N379 1.354 . S
N379 C375 1.336 . S
N379 N378 1.354 . S
N379 Zn383 2.020 . S
C380 O381 1.244 . S
C380 O404 1.257 . S
O381 C380 1.244 . S
O382 Zn374 2.019 . S
O382 C402 1.257 . S
Zn383 N379 2.020 . S
Zn383 O390 1.975 . S
Zn383 N399 2.119 . S
Zn383 O404 2.019 . S
N384 Zn374 2.119 . S
N384 C386 1.334 . S
N384 C387 1.328 . S
C385 C386 1.391 . S
C385 N388 1.329 . S
C385 H406 0.930 . S
C386 N384 1.334 . S
C386 C385 1.391 . S
C386 H393 0.930 . S
C387 N384 1.328 . S
C387 C389 1.392 . S
C387 H394 0.930 . S
N388 C385 1.329 . S
N388 C389 1.331 . S
C389 C387 1.392 . S
C389 N388 1.331 . S
O390 Zn383 1.975 . S
O390 C391 1.252 . S
C391 O390 1.252 . S
C391 O392 1.252 . S
O392 Zn374 1.975 . S
O392 C391 1.252 . S
H393 C386 0.930 . S
H394 C387 0.930 . S
C395 C396 1.392 . S
C395 N399 1.328 . S
C395 H401 0.930 . S
C396 C395 1.392 . S
C396 N400 1.331 . S
C397 C398 1.391 . S
C397 N400 1.329 . S
C397 H407 0.930 . S
C398 C397 1.391 . S
C398 N399 1.334 . S
C398 H405 0.930 . S
N399 Zn383 2.119 . S
N399 C395 1.328 . S
N399 C398 1.334 . S
N400 C396 1.331 . S
N400 C397 1.329 . S
H401 C395 0.930 . S
C402 O382 1.257 . S
C402 O403 1.244 . S
O403 C402 1.244 . S
O404 C380 1.257 . S
O404 Zn383 2.019 . S
H405 C398 0.930 . S
H406 C385 0.930 . S
H407 C397 0.930 . S
H408 C420 0.930 . S
H409 C422 0.930 . S
H410 C423 0.930 1_554 S
H411 C427 0.959 . S
H412 C427 0.959 . S
H413 C427 0.961 . S
H414 C428 0.960 . S
H415 C428 0.961 . S
H416 C428 0.959 . S
H417 C431 0.929 . S
H418 C432 0.931 . S
H419 C434 0.930 . S
C420 H408 0.930 . S
C420 C421 1.399 . S
C420 C425 1.399 . S
C421 C420 1.399 . S
C421 C422 1.376 . S
C422 H409 0.930 . S
C422 C421 1.376 . S
C422 C423 1.388 . S
C423 H410 0.930 1_556 S
C423 C422 1.388 . S
C423 C424 1.390 . S
C424 C423 1.390 . S
C424 C425 1.394 . S
C424 C430 1.465 1_556 S
C425 C420 1.399 . S
C425 C424 1.394 . S
C425 C426 1.516 1_565 S
C426 C425 1.516 1_545 S
C426 C427 1.502 . S
C426 C428 1.561 . S
C426 C429 1.526 . S
C427 H411 0.959 . S
C427 H412 0.959 . S
C427 H413 0.961 . S
C427 C426 1.502 . S
C428 H414 0.960 . S
C428 H415 0.961 . S
C428 H416 0.959 . S
C428 C426 1.561 . S
C429 C426 1.526 . S
C429 C430 1.396 1_546 S
C429 C434 1.390 1_556 S
C430 C424 1.465 1_554 S
C430 C429 1.396 1_564 S
C430 C431 1.399 . S
C431 H417 0.929 . S
C431 C430 1.399 . S
C431 C432 1.385 1_565 S
C432 H418 0.931 . S
C432 C431 1.385 1_545 S
C432 C433 1.389 . S
C433 C432 1.389 . S
C433 C434 1.387 . S
C434 H419 0.930 . S
C434 C429 1.390 1_554 S
C434 C433 1.387 . S
H435 C447 0.930 . S
H436 C449 0.930 . S
H437 C450 0.930 1_455 S
H438 C454 0.959 . S
H439 C454 0.959 . S
H440 C454 0.961 1_655 S
H441 C455 0.960 . S
H442 C455 0.961 . S
H443 C455 0.959 . S
H444 C458 0.929 . S
H445 C459 0.931 . S
H446 C461 0.930 . S
C447 H435 0.930 . S
C447 C448 1.399 . S
C447 C452 1.392 1_554 S
C448 C447 1.399 . S
C448 C449 1.376 . S
C449 H436 0.930 . S
C449 C448 1.376 . S
C449 C450 1.388 . S
C450 H437 0.930 1_655 S
C450 C449 1.388 . S
C450 C451 1.390 1_655 S
C451 C450 1.390 1_455 S
C451 C452 1.391 1_454 S
C451 C457 1.465 1_554 S
C452 C447 1.392 1_556 S
C452 C451 1.391 1_656 S
C452 C453 1.526 . S
C453 C452 1.526 . S
C453 C454 1.502 1_655 S
C453 C455 1.561 . S
C453 C456 1.526 1_655 S
C454 H438 0.959 . S
C454 H439 0.959 . S
C454 H440 0.961 1_455 S
C454 C453 1.502 1_455 S
C455 H441 0.960 . S
C455 H442 0.961 . S
C455 H443 0.959 . S
C455 C453 1.561 . S
C456 C453 1.526 1_455 S
C456 C457 1.396 . S
C456 C461 1.390 . S
C457 C451 1.465 1_556 S
C457 C456 1.396 . S
C457 C458 1.399 . S
C458 H444 0.929 . S
C458 C457 1.399 . S
C458 C459 1.385 . S
C459 H445 0.931 . S
C459 C458 1.385 . S
C459 C460 1.389 . S
C460 C459 1.389 . S
C460 C461 1.387 . S
C461 H446 0.930 . S
C461 C456 1.390 . S
C461 C460 1.387 . S
H462 C474 0.930 . S
H463 C476 0.930 . S
H464 C477 0.930 . S
H465 C481 0.959 . S
H466 C481 0.959 . S
H467 C481 0.961 . S
H468 C482 0.960 1_554 S
H469 C482 0.961 . S
H470 C482 0.959 . S
H471 C485 0.929 . S
H472 C486 0.931 . S
H473 C488 0.930 . S
C474 H462 0.930 . S
C474 C475 1.399 . S
C474 C479 1.399 . S
C475 C474 1.399 . S
C475 C476 1.376 . S
C476 H463 0.930 . S
C476 C475 1.376 . S
C476 C477 1.388 1_554 S
C477 H464 0.930 . S
C477 C476 1.388 1_556 S
C477 C478 1.390 . S
C478 C477 1.390 . S
C478 C479 1.394 1_556 S
C478 C484 1.465 . S
C479 C474 1.399 . S
C479 C478 1.394 1_554 S
C479 C480 1.516 . S
C480 C479 1.516 . S
C480 C481 1.502 . S
C480 C482 1.561 1_554 S
C480 C483 1.526 1_554 S
C481 H465 0.959 . S
C481 H466 0.959 . S
C481 H467 0.961 . S
C481 C480 1.502 . S
C482 H468 0.960 1_556 S
C482 H469 0.961 . S
C482 H470 0.959 . S
C482 C480 1.561 1_556 S
C483 C480 1.526 1_556 S
C483 C484 1.396 . S
C483 C488 1.390 . S
C484 C478 1.465 . S
C484 C483 1.396 . S
C484 C485 1.399 . S
C485 H471 0.929 . S
C485 C484 1.399 . S
C485 C486 1.385 . S
C486 H472 0.931 . S
C486 C485 1.385 . S
C486 C487 1.389 . S
C487 C486 1.389 . S
C487 C488 1.387 . S
C488 H473 0.930 . S
C488 C483 1.390 . S
C488 C487 1.387 . S
H489 C501 0.930 . S
H490 C503 0.930 . S
H491 C504 0.930 1_655 S
H492 C508 0.959 . S
H493 C508 0.959 . S
H494 C508 0.961 . S
H495 C509 0.960 . S
H496 C509 0.961 . S
H497 C509 0.959 . S
H498 C512 0.929 . S
H499 C513 0.931 . S
H500 C515 0.930 . S
C501 H489 0.930 . S
C501 C502 1.399 . S
C501 C506 1.399 . S
C502 C501 1.399 . S
C502 C503 1.376 . S
C503 H490 0.930 . S
C503 C502 1.376 . S
C503 C504 1.388 . S
C504 H491 0.930 1_455 S
C504 C503 1.388 . S
C504 C505 1.390 1_455 S
C505 C504 1.390 1_655 S
C505 C506 1.394 1_655 S
C505 C511 1.465 . S
C506 C501 1.399 . S
C506 C505 1.394 1_455 S
C506 C507 1.516 1_455 S
C507 C506 1.516 1_655 S
C507 C508 1.502 1_655 S
C507 C509 1.561 . S
C507 C510 1.526 . S
C508 H492 0.959 . S
C508 H493 0.959 . S
C508 H494 0.961 . S
C508 C507 1.502 1_455 S
C509 H495 0.960 . S
C509 H496 0.961 . S
C509 H497 0.959 . S
C509 C507 1.561 . S
C510 C507 1.526 . S
C510 C511 1.396 . S
C510 C515 1.390 . S
C511 C505 1.465 . S
C511 C510 1.396 . S
C511 C512 1.399 . S
C512 H498 0.929 . S
C512 C511 1.399 . S
C512 C513 1.385 . S
C513 H499 0.931 . S
C513 C512 1.385 . S
C513 C514 1.389 . S
C514 C513 1.389 . S
C514 C515 1.387 . S
C515 H500 0.930 . S
C515 C510 1.390 . S
C515 C514 1.387 . S
H516 C528 0.930 . S
H517 C530 0.930 . S
H518 C531 0.930 . S
H519 C535 0.959 . S
H520 C535 0.959 . S
H521 C535 0.961 . S
H522 C536 0.960 . S
H523 C536 0.961 . S
H524 C536 0.959 . S
H525 C539 0.929 . S
H526 C540 0.931 . S
H527 C542 0.930 . S
C528 H516 0.930 . S
C528 C529 1.399 . S
C528 C533 1.399 . S
C529 C528 1.399 . S
C529 C530 1.376 . S
C530 H517 0.930 . S
C530 C529 1.376 . S
C530 C531 1.388 . S
C531 H518 0.930 . S
C531 C530 1.388 . S
C531 C532 1.390 . S
C532 C531 1.390 . S
C532 C533 1.394 . S
C532 C538 1.465 . S
C533 C528 1.399 . S
C533 C532 1.394 . S
C533 C534 1.516 . S
C534 C533 1.516 . S
C534 C535 1.502 . S
C534 C536 1.561 . S
C534 C537 1.526 . S
C535 H519 0.959 . S
C535 H520 0.959 . S
C535 H521 0.961 . S
C535 C534 1.502 . S
C536 H522 0.960 . S
C536 H523 0.961 . S
C536 H524 0.959 . S
C536 C534 1.561 . S
C537 C534 1.526 . S
C537 C538 1.396 . S
C537 C542 1.390 . S
C538 C532 1.465 . S
C538 C537 1.396 . S
C538 C539 1.399 . S
C539 H525 0.929 . S
C539 C538 1.399 . S
C539 C540 1.385 . S
C540 H526 0.931 . S
C540 C539 1.385 . S
C540 C541 1.389 . S
C541 C540 1.389 . S
C541 C542 1.387 . S
C542 H527 0.930 . S
C542 C537 1.390 . S
C542 C541 1.387 . S
H543 C555 0.930 . S
H544 C557 0.930 . S
H545 C558 0.930 . S
H546 C562 0.959 . S
H547 C562 0.959 . S
H548 C562 0.961 . S
H549 C563 0.960 . S
H550 C563 0.961 . S
H551 C563 0.959 . S
H552 C566 0.929 . S
H553 C567 0.931 . S
H554 C569 0.930 . S
C555 H543 0.930 . S
C555 C556 1.399 . S
C555 C560 1.399 . S
C556 C555 1.399 . S
C556 C557 1.376 . S
C557 H544 0.930 . S
C557 C556 1.376 . S
C557 C558 1.388 1_565 S
C558 H545 0.930 . S
C558 C557 1.388 1_545 S
C558 C559 1.390 . S
C559 C558 1.390 . S
C559 C560 1.394 1_545 S
C559 C565 1.465 . S
C560 C555 1.399 . S
C560 C559 1.394 1_565 S
C560 C561 1.516 . S
C561 C560 1.516 . S
C561 C562 1.502 . S
C561 C563 1.561 . S
C561 C564 1.526 1_565 S
C562 H546 0.959 . S
C562 H547 0.959 . S
C562 H548 0.961 . S
C562 C561 1.502 . S
C563 H549 0.960 . S
C563 H550 0.961 . S
C563 H551 0.959 . S
C563 C561 1.561 . S
C564 C561 1.526 1_545 S
C564 C565 1.396 . S
C564 C569 1.390 . S
C565 C559 1.465 . S
C565 C564 1.396 . S
C565 C566 1.399 . S
C566 H552 0.929 . S
C566 C565 1.399 . S
C566 C567 1.385 . S
C567 H553 0.931 . S
C567 C566 1.385 . S
C567 C568 1.389 . S
C568 C567 1.389 . S
C568 C569 1.387 . S
C569 H554 0.930 . S
C569 C564 1.390 . S
C569 C568 1.387 . S
H570 C582 0.930 . S
H571 C584 0.930 . S
H572 C585 0.930 . S
H573 C589 0.959 . S
H574 C589 0.959 . S
H575 C589 0.961 . S
H576 C590 0.960 . S
H577 C590 0.961 . S
H578 C590 0.959 1_556 S
H579 C593 0.929 . S
H580 C594 0.931 . S
H581 C596 0.930 . S
C582 H570 0.930 . S
C582 C583 1.399 . S
C582 C587 1.399 . S
C583 C582 1.399 . S
C583 C584 1.376 . S
C584 H571 0.930 . S
C584 C583 1.376 . S
C584 C585 1.388 1_565 S
C585 H572 0.930 . S
C585 C584 1.388 1_545 S
C585 C586 1.390 . S
C586 C585 1.390 . S
C586 C587 1.394 1_545 S
C586 C592 1.465 1_556 S
C587 C582 1.399 . S
C587 C586 1.394 1_565 S
C587 C588 1.516 1_566 S
C588 C587 1.516 1_544 S
C588 C589 1.502 1_545 S
C588 C590 1.561 . S
C588 C591 1.526 . S
C589 H573 0.959 . S
C589 H574 0.959 . S
C589 H575 0.961 . S
C589 C588 1.502 1_565 S
C590 H576 0.960 . S
C590 H577 0.961 . S
C590 H578 0.959 1_554 S
C590 C588 1.561 . S
C591 C588 1.526 . S
C591 C592 1.396 . S
C591 C596 1.390 . S
C592 C586 1.465 1_554 S
C592 C591 1.396 . S
C592 C593 1.399 . S
C593 H579 0.929 . S
C593 C592 1.399 . S
C593 C594 1.385 . S
C594 H580 0.931 . S
C594 C593 1.385 . S
C594 C595 1.389 . S
C595 C594 1.389 . S
C595 C596 1.387 . S
C596 H581 0.930 . S
C596 C591 1.390 . S
C596 C595 1.387 . S
H597 C609 0.930 . S
H598 C611 0.930 . S
H599 C612 0.930 . S
H600 C616 0.959 . S
H601 C616 0.959 . S
H602 C616 0.961 . S
H603 C617 0.960 . S
H604 C617 0.961 . S
H605 C617 0.959 . S
H606 C620 0.929 1_556 S
H607 C621 0.931 . S
H608 C623 0.930 . S
C609 H597 0.930 . S
C609 C610 1.399 . S
C609 C614 1.399 1_556 S
C610 C609 1.399 . S
C610 C611 1.376 . S
C611 H598 0.930 . S
C611 C610 1.376 . S
C611 C612 1.388 1_455 S
C612 H599 0.930 . S
C612 C611 1.388 1_655 S
C612 C613 1.390 . S
C613 C612 1.390 . S
C613 C614 1.394 1_656 S
C613 C619 1.465 1_556 S
C614 C609 1.399 1_554 S
C614 C613 1.394 1_454 S
C614 C615 1.516 . S
C615 C614 1.516 . S
C615 C616 1.502 . S
C615 C617 1.561 . S
C615 C618 1.526 1_455 S
C616 H600 0.959 . S
C616 H601 0.959 . S
C616 H602 0.961 . S
C616 C615 1.502 . S
C617 H603 0.960 . S
C617 H604 0.961 . S
C617 H605 0.959 . S
C617 C615 1.561 . S
C618 C615 1.526 1_655 S
C618 C619 1.396 . S
C618 C623 1.390 . S
C619 C613 1.465 1_554 S
C619 C618 1.396 . S
C619 C620 1.399 . S
C620 H606 0.929 1_554 S
C620 C619 1.399 . S
C620 C621 1.385 . S
C621 H607 0.931 . S
C621 C620 1.385 . S
C621 C622 1.389 . S
C622 C621 1.389 . S
C622 C623 1.387 . S
C623 H608 0.930 . S
C623 C618 1.390 . S
C623 C622 1.387 . S
H624 C636 0.930 . S
H625 C638 0.930 . S
H626 C639 0.930 1_556 S
H627 C643 0.959 . S
H628 C643 0.959 . S
H629 C643 0.961 . S
H630 C644 0.960 . S
H631 C644 0.961 . S
H632 C644 0.959 . S
H633 C647 0.929 . S
H634 C648 0.931 . S
H635 C650 0.930 . S
C636 H624 0.930 . S
C636 C637 1.399 . S
C636 C641 1.399 . S
C637 C636 1.399 . S
C637 C638 1.376 . S
C638 H625 0.930 . S
C638 C637 1.376 . S
C638 C639 1.388 . S
C639 H626 0.930 1_554 S
C639 C638 1.388 . S
C639 C640 1.390 . S
C640 C639 1.390 . S
C640 C641 1.394 . S
C640 C646 1.465 1_554 S
C641 C636 1.399 . S
C641 C640 1.394 . S
C641 C642 1.516 . S
C642 C641 1.516 . S
C642 C643 1.502 . S
C642 C644 1.561 . S
C642 C645 1.526 . S
C643 H627 0.959 . S
C643 H628 0.959 . S
C643 H629 0.961 . S
C643 C642 1.502 . S
C644 H630 0.960 . S
C644 H631 0.961 . S
C644 H632 0.959 . S
C644 C642 1.561 . S
C645 C642 1.526 . S
C645 C646 1.396 1_554 S
C645 C650 1.390 1_554 S
C646 C640 1.465 1_556 S
C646 C645 1.396 1_556 S
C646 C647 1.399 . S
C647 H633 0.929 . S
C647 C646 1.399 . S
C647 C648 1.385 . S
C648 H634 0.931 . S
C648 C647 1.385 . S
C648 C649 1.389 . S
C649 C648 1.389 . S
C649 C650 1.387 . S
C650 H635 0.930 . S
C650 C645 1.390 1_556 S
C650 C649 1.387 . S
H651 C663 0.930 . S
H652 C665 0.930 . S
H653 C666 0.930 . S
H654 C670 0.959 1_655 S
H655 C670 0.959 . S
H656 C670 0.961 1_655 S
H657 C671 0.960 . S
H658 C671 0.961 . S
H659 C671 0.959 . S
H660 C674 0.929 . S
H661 C675 0.931 . S
H662 C677 0.930 . S
C663 H651 0.930 . S
C663 C664 1.399 . S
C663 C668 1.399 . S
C664 C663 1.399 . S
C664 C665 1.376 . S
C665 H652 0.930 . S
C665 C664 1.376 . S
C665 C666 1.388 . S
C666 H653 0.930 . S
C666 C665 1.388 . S
C666 C667 1.390 1_655 S
C667 C666 1.390 1_455 S
C667 C668 1.394 1_455 S
C667 C673 1.465 . S
C668 C663 1.399 . S
C668 C667 1.394 1_655 S
C668 C669 1.516 1_655 S
C669 C668 1.516 1_455 S
C669 C670 1.502 . S
C669 C671 1.561 . S
C669 C672 1.526 . S
C670 H654 0.959 1_455 S
C670 H655 0.959 . S
C670 H656 0.961 1_455 S
C670 C669 1.502 . S
C671 H657 0.960 . S
C671 H658 0.961 . S
C671 H659 0.959 . S
C671 C669 1.561 . S
C672 C669 1.526 . S
C672 C673 1.396 . S
C672 C677 1.390 . S
C673 C667 1.465 . S
C673 C672 1.396 . S
C673 C674 1.399 . S
C674 H660 0.929 . S
C674 C673 1.399 . S
C674 C675 1.385 . S
C675 H661 0.931 . S
C675 C674 1.385 . S
C675 C676 1.389 . S
C676 C675 1.389 . S
C676 C677 1.387 . S
C677 H662 0.930 . S
C677 C672 1.390 . S
C677 C676 1.387 . S
H678 C690 0.930 . S
H679 C692 0.930 . S
H680 C693 0.930 . S
H681 C697 0.959 . S
H682 C697 0.959 . S
H683 C697 0.961 . S
H684 C698 0.960 . S
H685 C698 0.961 . S
H686 C698 0.959 . S
H687 C701 0.929 . S
H688 C702 0.931 . S
H689 C704 0.930 . S
C690 H678 0.930 . S
C690 C691 1.399 . S
C690 C695 1.399 . S
C691 C690 1.399 . S
C691 C692 1.376 . S
C692 H679 0.930 . S
C692 C691 1.376 . S
C692 C693 1.388 . S
C693 H680 0.930 . S
C693 C692 1.388 . S
C693 C694 1.390 . S
C694 C693 1.390 . S
C694 C695 1.394 . S
C694 C700 1.465 . S
C695 C690 1.399 . S
C695 C694 1.394 . S
C695 C696 1.516 . S
C696 C695 1.516 . S
C696 C697 1.502 . S
C696 C698 1.561 . S
C696 C699 1.526 . S
C697 H681 0.959 . S
C697 H682 0.959 . S
C697 H683 0.961 . S
C697 C696 1.502 . S
C698 H684 0.960 . S
C698 H685 0.961 . S
C698 H686 0.959 . S
C698 C696 1.561 . S
C699 C696 1.526 . S
C699 C700 1.396 . S
C699 C704 1.390 . S
C700 C694 1.465 . S
C700 C699 1.396 . S
C700 C701 1.399 . S
C701 H687 0.929 . S
C701 C700 1.399 . S
C701 C702 1.385 . S
C702 H688 0.931 . S
C702 C701 1.385 . S
C702 C703 1.389 . S
C703 C702 1.389 . S
C703 C704 1.387 . S
C704 H689 0.930 . S
C704 C699 1.390 . S
C704 C703 1.387 . S
H705 C717 0.930 . S
H706 C719 0.930 . S
H707 C720 0.930 . S
H708 C724 0.959 . S
H709 C724 0.959 . S
H710 C724 0.961 . S
H711 C725 0.960 . S
H712 C725 0.961 . S
H713 C725 0.959 . S
H714 C728 0.929 . S
H715 C729 0.931 . S
H716 C731 0.930 . S
C717 H705 0.930 . S
C717 C718 1.399 . S
C717 C722 1.399 . S
C718 C717 1.399 . S
C718 C719 1.376 . S
C719 H706 0.930 . S
C719 C718 1.376 . S
C719 C720 1.388 . S
C720 H707 0.930 . S
C720 C719 1.388 . S
C720 C721 1.390 . S
C721 C720 1.390 . S
C721 C722 1.394 . S
C721 C727 1.465 1_565 S
C722 C717 1.399 . S
C722 C721 1.394 . S
C722 C723 1.516 . S
C723 C722 1.516 . S
C723 C724 1.502 . S
C723 C725 1.561 . S
C723 C726 1.526 . S
C724 H708 0.959 . S
C724 H709 0.959 . S
C724 H710 0.961 . S
C724 C723 1.502 . S
C725 H711 0.960 . S
C725 H712 0.961 . S
C725 H713 0.959 . S
C725 C723 1.561 . S
C726 C723 1.526 . S
C726 C727 1.396 1_565 S
C726 C731 1.390 1_565 S
C727 C721 1.465 1_545 S
C727 C726 1.396 1_545 S
C727 C728 1.399 . S
C728 H714 0.929 . S
C728 C727 1.399 . S
C728 C729 1.385 . S
C729 H715 0.931 . S
C729 C728 1.385 . S
C729 C730 1.389 . S
C730 C729 1.389 . S
C730 C731 1.387 . S
C731 H716 0.930 . S
C731 C726 1.390 1_545 S
C731 C730 1.387 . S
H732 C744 0.930 . S
H733 C746 0.930 . S
H734 C747 0.930 . S
H735 C751 0.959 . S
H736 C751 0.959 . S
H737 C751 0.961 . S
H738 C752 0.960 . S
H739 C752 0.961 . S
H740 C752 0.959 . S
H741 C755 0.929 . S
H742 C756 0.931 . S
H743 C758 0.930 . S
C744 H732 0.930 . S
C744 C745 1.399 . S
C744 C749 1.399 . S
C745 C744 1.399 . S
C745 C746 1.376 . S
C746 H733 0.930 . S
C746 C745 1.376 . S
C746 C747 1.388 . S
C747 H734 0.930 . S
C747 C746 1.388 . S
C747 C748 1.390 . S
C748 C747 1.390 . S
C748 C749 1.394 . S
C748 C754 1.465 . S
C749 C744 1.399 . S
C749 C748 1.394 . S
C749 C750 1.516 . S
C750 C749 1.516 . S
C750 C751 1.502 . S
C750 C752 1.561 . S
C750 C753 1.526 . S
C751 H735 0.959 . S
C751 H736 0.959 . S
C751 H737 0.961 . S
C751 C750 1.502 . S
C752 H738 0.960 . S
C752 H739 0.961 . S
C752 H740 0.959 . S
C752 C750 1.561 . S
C753 C750 1.526 . S
C753 C754 1.396 . S
C753 C758 1.390 . S
C754 C748 1.465 . S
C754 C753 1.396 . S
C754 C755 1.399 . S
C755 H741 0.929 . S
C755 C754 1.399 . S
C755 C756 1.385 . S
C756 H742 0.931 . S
C756 C755 1.385 . S
C756 C757 1.389 . S
C757 C756 1.389 . S
C757 C758 1.387 . S
C758 H743 0.930 . S
C758 C753 1.390 . S
C758 C757 1.387 . S
H759 C771 0.930 . S
H760 C773 0.930 . S
H761 C774 0.930 . S
H762 C778 0.959 1_565 S
H763 C778 0.973 . S
H764 C778 0.961 . S
H765 C779 0.960 . S
H766 C779 0.961 . S
H767 C779 0.959 . S
H768 C782 0.929 . S
H769 C783 0.931 . S
H770 C785 0.930 . S
C771 H759 0.930 . S
C771 C772 1.399 . S
C771 C776 1.399 . S
C772 C771 1.399 . S
C772 C773 1.376 . S
C773 H760 0.930 . S
C773 C772 1.376 . S
C773 C774 1.388 . S
C774 H761 0.930 . S
C774 C773 1.388 . S
C774 C775 1.390 . S
C775 C774 1.390 . S
C775 C776 1.394 . S
C775 C781 1.465 1_545 S
C776 C771 1.399 . S
C776 C775 1.394 . S
C776 C777 1.516 . S
C777 C776 1.516 . S
C777 C778 1.502 . S
C777 C779 1.561 . S
C777 C780 1.526 1_545 S
C778 H762 0.959 1_545 S
C778 H763 0.973 . S
C778 H764 0.961 . S
C778 C777 1.502 . S
C779 H765 0.960 . S
C779 H766 0.961 . S
C779 H767 0.959 . S
C779 C777 1.561 . S
C780 C777 1.526 1_565 S
C780 C781 1.396 . S
C780 C785 1.390 . S
C781 C775 1.465 1_565 S
C781 C780 1.396 . S
C781 C782 1.399 . S
C782 H768 0.929 . S
C782 C781 1.399 . S
C782 C783 1.385 . S
C783 H769 0.931 . S
C783 C782 1.385 . S
C783 C784 1.389 . S
C784 C783 1.389 . S
C784 C785 1.387 . S
C785 H770 0.930 . S
C785 C780 1.390 . S
C785 C784 1.387 . S
H786 C798 0.930 . S
H787 C800 0.930 . S
H788 C801 0.930 . S
H789 C805 0.959 . S
H790 C805 0.959 . S
H791 C805 0.961 . S
H792 C806 0.960 . S
H793 C806 0.961 . S
H794 C806 0.959 . S
H795 C809 0.929 1_655 S
H796 C810 0.931 . S
H797 C812 0.930 . S
C798 H786 0.930 . S
C798 C799 1.399 . S
C798 C803 1.399 . S
C799 C798 1.399 . S
C799 C800 1.376 . S
C800 H787 0.930 . S
C800 C799 1.376 . S
C800 C801 1.388 . S
C801 H788 0.930 . S
C801 C800 1.388 . S
C801 C802 1.390 . S
C802 C801 1.390 . S
C802 C803 1.394 . S
C802 C808 1.465 1_655 S
C803 C798 1.399 . S
C803 C802 1.394 . S
C803 C804 1.516 1_655 S
C804 C803 1.516 1_455 S
C804 C805 1.502 . S
C804 C806 1.561 . S
C804 C807 1.526 . S
C805 H789 0.959 . S
C805 H790 0.959 . S
C805 H791 0.961 . S
C805 C804 1.502 . S
C806 H792 0.960 . S
C806 H793 0.961 . S
C806 H794 0.959 . S
C806 C804 1.561 . S
C807 C804 1.526 . S
C807 C808 1.396 . S
C807 C812 1.390 . S
C808 C802 1.465 1_455 S
C808 C807 1.396 . S
C808 C809 1.399 . S
C809 H795 0.929 1_455 S
C809 C808 1.399 . S
C809 C810 1.385 . S
C810 H796 0.931 . S
C810 C809 1.385 . S
C810 C811 1.389 . S
C811 C810 1.389 . S
C811 C812 1.387 . S
C812 H797 0.930 . S
C812 C807 1.390 . S
C812 C811 1.387 . S
H813 C825 0.930 . S
H814 C827 0.930 . S
H815 C828 0.930 . S
H816 C832 0.959 . S
H817 C832 0.959 . S
H818 C832 0.961 . S
H819 C833 0.960 . S
H820 C833 0.961 . S
H821 C833 0.959 . S
H822 C836 0.929 . S
H823 C837 0.931 . S
H824 C839 0.930 . S
C825 H813 0.930 . S
C825 C826 1.399 . S
C825 C830 1.399 . S
C826 C825 1.399 . S
C826 C827 1.376 . S
C827 H814 0.930 . S
C827 C826 1.376 . S
C827 C828 1.388 . S
C828 H815 0.930 . S
C828 C827 1.388 . S
C828 C829 1.390 . S
C829 C828 1.390 . S
C829 C830 1.394 . S
C829 C835 1.465 . S
C830 C825 1.399 . S
C830 C829 1.394 . S
C830 C831 1.516 . S
C831 C830 1.516 . S
C831 C832 1.502 . S
C831 C833 1.561 . S
C831 C834 1.526 . S
C832 H816 0.959 . S
C832 H817 0.959 . S
C832 H818 0.961 . S
C832 C831 1.502 . S
C833 H819 0.960 . S
C833 H820 0.961 . S
C833 H821 0.959 . S
C833 C831 1.561 . S
C834 C831 1.526 . S
C834 C835 1.396 . S
C834 C839 1.390 . S
C835 C829 1.465 . S
C835 C834 1.396 . S
C835 C836 1.399 . S
C836 H822 0.929 . S
C836 C835 1.399 . S
C836 C837 1.385 . S
C837 H823 0.931 . S
C837 C836 1.385 . S
C837 C838 1.389 . S
C838 C837 1.389 . S
C838 C839 1.387 . S
C839 H824 0.930 . S
C839 C834 1.390 . S
C839 C838 1.387 . S
H840 C852 0.930 . S
H841 C854 0.930 . S
H842 C855 0.930 . S
H843 C859 0.959 . S
H844 C859 0.959 . S
H845 C859 0.961 . S
H846 C860 0.960 . S
H847 C860 0.961 1_565 S
H848 C860 0.959 . S
H849 C863 0.929 . S
H850 C864 0.931 . S
H851 C866 0.930 . S
C852 H840 0.930 . S
C852 C853 1.399 . S
C852 C857 1.399 . S
C853 C852 1.399 . S
C853 C854 1.376 . S
C854 H841 0.930 . S
C854 C853 1.376 . S
C854 C855 1.388 . S
C855 H842 0.930 . S
C855 C854 1.388 . S
C855 C856 1.390 . S
C856 C855 1.390 . S
C856 C857 1.394 . S
C856 C862 1.465 1_545 S
C857 C852 1.399 . S
C857 C856 1.394 . S
C857 C858 1.516 1_545 S
C858 C857 1.516 1_565 S
C858 C859 1.502 . S
C858 C860 1.561 1_565 S
C858 C861 1.526 . S
C859 H843 0.959 . S
C859 H844 0.959 . S
C859 H845 0.961 . S
C859 C858 1.502 . S
C860 H846 0.960 . S
C860 H847 0.961 1_545 S
C860 H848 0.959 . S
C860 C858 1.561 1_545 S
C861 C858 1.526 . S
C861 C862 1.396 . S
C861 C866 1.390 . S
C862 C856 1.465 1_565 S
C862 C861 1.396 . S
C862 C863 1.399 . S
C863 H849 0.929 . S
C863 C862 1.399 . S
C863 C864 1.385 . S
C864 H850 0.931 . S
C864 C863 1.385 . S
C864 C865 1.389 . S
C865 C864 1.389 . S
C865 C866 1.387 . S
C866 H851 0.930 . S
C866 C861 1.390 . S
C866 C865 1.387 . S
H867 C879 0.930 . S
H868 C881 0.930 . S
H869 C882 0.930 . S
H870 C886 0.959 . S
H871 C886 0.959 . S
H872 C886 0.961 . S
H873 C887 0.960 . S
H874 C887 0.961 . S
H875 C887 0.959 . S
H876 C890 0.929 1_655 S
H877 C891 0.931 . S
H878 C893 0.930 . S
C879 H867 0.930 . S
C879 C880 1.399 . S
C879 C884 1.399 . S
C880 C879 1.399 . S
C880 C881 1.376 . S
C881 H868 0.930 . S
C881 C880 1.376 . S
C881 C882 1.388 . S
C882 H869 0.930 . S
C882 C881 1.388 . S
C882 C883 1.390 . S
C883 C882 1.390 . S
C883 C884 1.394 . S
C883 C889 1.465 1_655 S
C884 C879 1.399 . S
C884 C883 1.394 . S
C884 C885 1.516 1_655 S
C885 C884 1.516 1_455 S
C885 C886 1.502 . S
C885 C887 1.561 . S
C885 C888 1.526 . S
C886 H870 0.959 . S
C886 H871 0.959 . S
C886 H872 0.961 . S
C886 C885 1.502 . S
C887 H873 0.960 . S
C887 H874 0.961 . S
C887 H875 0.959 . S
C887 C885 1.561 . S
C888 C885 1.526 . S
C888 C889 1.396 . S
C888 C893 1.390 . S
C889 C883 1.465 1_455 S
C889 C888 1.396 . S
C889 C890 1.399 . S
C890 H876 0.929 1_455 S
C890 C889 1.399 . S
C890 C891 1.385 . S
C891 H877 0.931 . S
C891 C890 1.385 . S
C891 C892 1.389 . S
C892 C891 1.389 . S
C892 C893 1.387 . S
C893 H878 0.930 . S
C893 C888 1.390 . S
C893 C892 1.387 . S
H894 C906 0.930 . S
H895 C908 0.930 . S
H896 C909 0.930 . S
H897 C913 0.959 . S
H898 C913 0.959 . S
H899 C913 0.961 . S
H900 C914 0.960 . S
H901 C914 0.961 . S
H902 C914 0.959 . S
H903 C917 0.929 . S
H904 C918 0.931 . S
H905 C920 0.930 . S
C906 H894 0.930 . S
C906 C907 1.399 . S
C906 C911 1.399 . S
C907 C906 1.399 . S
C907 C908 1.376 . S
C908 H895 0.930 . S
C908 C907 1.376 . S
C908 C909 1.388 . S
C909 H896 0.930 . S
C909 C908 1.388 . S
C909 C910 1.390 . S
C910 C909 1.390 . S
C910 C911 1.394 . S
C910 C916 1.465 . S
C911 C906 1.399 . S
C911 C910 1.394 . S
C911 C912 1.516 . S
C912 C911 1.516 . S
C912 C913 1.502 . S
C912 C914 1.561 . S
C912 C915 1.526 . S
C913 H897 0.959 . S
C913 H898 0.959 . S
C913 H899 0.961 . S
C913 C912 1.502 . S
C914 H900 0.960 . S
C914 H901 0.961 . S
C914 H902 0.959 . S
C914 C912 1.561 . S
C915 C912 1.526 . S
C915 C916 1.396 . S
C915 C920 1.390 . S
C916 C910 1.465 . S
C916 C915 1.396 . S
C916 C917 1.399 . S
C917 H903 0.929 . S
C917 C916 1.399 . S
C917 C918 1.385 . S
C918 H904 0.931 . S
C918 C917 1.385 . S
C918 C919 1.389 . S
C919 C918 1.389 . S
C919 C920 1.387 . S
C920 H905 0.930 . S
C920 C915 1.390 . S
C920 C919 1.387 . S
H921 C933 0.930 . S
H922 C935 0.930 . S
H923 C936 0.930 . S
H924 C940 0.959 . S
H925 C940 0.959 . S
H926 C940 0.961 . S
H927 C941 0.960 . S
H928 C941 0.961 . S
H929 C941 0.959 . S
H930 C944 0.929 . S
H931 C945 0.931 . S
H932 C947 0.930 . S
C933 H921 0.930 . S
C933 C934 1.399 . S
C933 C938 1.399 . S
C934 C933 1.399 . S
C934 C935 1.376 . S
C935 H922 0.930 . S
C935 C934 1.376 . S
C935 C936 1.388 . S
C936 H923 0.930 . S
C936 C935 1.388 . S
C936 C937 1.390 . S
C937 C936 1.390 . S
C937 C938 1.394 . S
C937 C943 1.465 . S
C938 C933 1.399 . S
C938 C937 1.394 . S
C938 C939 1.516 . S
C939 C938 1.516 . S
C939 C940 1.502 . S
C939 C941 1.561 . S
C939 C942 1.526 . S
C940 H924 0.959 . S
C940 H925 0.959 . S
C940 H926 0.961 . S
C940 C939 1.502 . S
C941 H927 0.960 . S
C941 H928 0.961 . S
C941 H929 0.959 . S
C941 C939 1.561 . S
C942 C939 1.526 . S
C942 C943 1.396 . S
C942 C947 1.390 . S
C943 C937 1.465 . S
C943 C942 1.396 . S
C943 C944 1.399 . S
C944 H930 0.929 . S
C944 C943 1.399 . S
C944 C945 1.385 . S
C945 H931 0.931 . S
C945 C944 1.385 . S
C945 C946 1.389 . S
C946 C945 1.389 . S
C946 C947 1.387 . S
C947 H932 0.930 . S
C947 C942 1.390 . S
C947 C946 1.387 . S
H948 C960 0.930 . S
H949 C962 0.930 . S
H950 C963 0.930 . S
H951 C967 0.959 . S
H952 C967 0.959 . S
H953 C967 0.961 . S
H954 C968 0.960 . S
H955 C968 0.961 . S
H956 C968 0.959 . S
H957 C971 0.929 . S
H958 C972 0.931 . S
H959 C974 0.930 . S
C960 H948 0.930 . S
C960 C961 1.399 . S
C960 C965 1.399 . S
C961 C960 1.399 . S
C961 C962 1.376 . S
C962 H949 0.930 . S
C962 C961 1.376 . S
C962 C963 1.388 . S
C963 H950 0.930 . S
C963 C962 1.388 . S
C963 C964 1.390 . S
C964 C963 1.390 . S
C964 C965 1.394 . S
C964 C970 1.465 . S
C965 C960 1.399 . S
C965 C964 1.394 . S
C965 C966 1.516 . S
C966 C965 1.516 . S
C966 C967 1.502 . S
C966 C968 1.561 . S
C966 C969 1.526 . S
C967 H951 0.959 . S
C967 H952 0.959 . S
C967 H953 0.961 . S
C967 C966 1.502 . S
C968 H954 0.960 . S
C968 H955 0.961 . S
C968 H956 0.959 . S
C968 C966 1.561 . S
C969 C966 1.526 . S
C969 C970 1.396 . S
C969 C974 1.390 . S
C970 C964 1.465 . S
C970 C969 1.396 . S
C970 C971 1.399 . S
C971 H957 0.929 . S
C971 C970 1.399 . S
C971 C972 1.385 . S
C972 H958 0.931 . S
C972 C971 1.385 . S
C972 C973 1.389 . S
C973 C972 1.389 . S
C973 C974 1.387 . S
C974 H959 0.930 . S
C974 C969 1.390 . S
C974 C973 1.387 . S
H975 C987 0.930 . S
H976 C989 0.930 . S
H977 C990 0.930 . S
H978 C994 0.959 . S
H979 C994 0.959 . S
H980 C994 0.961 . S
H981 C995 0.960 . S
H982 C995 0.961 . S
H983 C995 0.959 . S
H984 C998 0.929 . S
H985 C999 0.931 . S
H986 C1001 0.930 . S
C987 H975 0.930 . S
C987 C988 1.399 . S
C987 C992 1.399 . S
C988 C987 1.399 . S
C988 C989 1.376 . S
C989 H976 0.930 . S
C989 C988 1.376 . S
C989 C990 1.388 . S
C990 H977 0.930 . S
C990 C989 1.388 . S
C990 C991 1.390 . S
C991 C990 1.390 . S
C991 C992 1.394 . S
C991 C997 1.465 . S
C992 C987 1.399 . S
C992 C991 1.394 . S
C992 C993 1.516 . S
C993 C992 1.516 . S
C993 C994 1.502 . S
C993 C995 1.561 . S
C993 C996 1.526 . S
C994 H978 0.959 . S
C994 H979 0.959 . S
C994 H980 0.961 . S
C994 C993 1.502 . S
C995 H981 0.960 . S
C995 H982 0.961 . S
C995 H983 0.959 . S
C995 C993 1.561 . S
C996 C993 1.526 . S
C996 C997 1.396 . S
C996 C1001 1.390 . S
C997 C991 1.465 . S
C997 C996 1.396 . S
C997 C998 1.399 . S
C998 H984 0.929 . S
C998 C997 1.399 . S
C998 C999 1.385 . S
C999 H985 0.931 . S
C999 C998 1.385 . S
C999 C1000 1.389 . S
C1000 C999 1.389 . S
C1000 C1001 1.387 . S
C1001 H986 0.930 . S
C1001 C996 1.390 . S
C1001 C1000 1.387 . S
H1002 C1014 0.930 . S
H1003 C1016 0.930 . S
H1004 C1017 0.930 . S
H1005 C1021 0.959 . S
H1006 C1021 0.959 . S
H1007 C1021 0.961 . S
H1008 C1022 0.960 . S
H1009 C1022 0.961 . S
H1010 C1022 0.959 . S
H1011 C1025 0.929 . S
H1012 C1026 0.931 . S
H1013 C1028 0.930 . S
C1014 H1002 0.930 . S
C1014 C1015 1.399 . S
C1014 C1019 1.399 . S
C1015 C1014 1.399 . S
C1015 C1016 1.376 . S
C1016 H1003 0.930 . S
C1016 C1015 1.376 . S
C1016 C1017 1.388 . S
C1017 H1004 0.930 . S
C1017 C1016 1.388 . S
C1017 C1018 1.390 . S
C1018 C1017 1.390 . S
C1018 C1019 1.394 . S
C1018 C1024 1.465 . S
C1019 C1014 1.399 . S
C1019 C1018 1.394 . S
C1019 C1020 1.516 . S
C1020 C1019 1.516 . S
C1020 C1021 1.502 . S
C1020 C1022 1.561 . S
C1020 C1023 1.526 . S
C1021 H1005 0.959 . S
C1021 H1006 0.959 . S
C1021 H1007 0.961 . S
C1021 C1020 1.502 . S
C1022 H1008 0.960 . S
C1022 H1009 0.961 . S
C1022 H1010 0.959 . S
C1022 C1020 1.561 . S
C1023 C1020 1.526 . S
C1023 C1024 1.396 . S
C1023 C1028 1.390 . S
C1024 C1018 1.465 . S
C1024 C1023 1.396 . S
C1024 C1025 1.399 . S
C1025 H1011 0.929 . S
C1025 C1024 1.399 . S
C1025 C1026 1.385 . S
C1026 H1012 0.931 . S
C1026 C1025 1.385 . S
C1026 C1027 1.389 . S
C1027 C1026 1.389 . S
C1027 C1028 1.387 . S
C1028 H1013 0.930 . S
C1028 C1023 1.390 . S
C1028 C1027 1.387 . S
H1029 C1041 0.930 . S
H1030 C1043 0.930 . S
H1031 C1044 0.930 . S
H1032 C1048 0.959 . S
H1033 C1048 0.959 . S
H1034 C1048 0.961 . S
H1035 C1049 0.960 . S
H1036 C1049 0.961 . S
H1037 C1049 0.959 . S
H1038 C1052 0.929 . S
H1039 C1053 0.931 . S
H1040 C1055 0.930 . S
C1041 H1029 0.930 . S
C1041 C1042 1.399 . S
C1041 C1046 1.399 . S
C1042 C1041 1.399 . S
C1042 C1043 1.376 . S
C1043 H1030 0.930 . S
C1043 C1042 1.376 . S
C1043 C1044 1.388 . S
C1044 H1031 0.930 . S
C1044 C1043 1.388 . S
C1044 C1045 1.390 . S
C1045 C1044 1.390 . S
C1045 C1046 1.394 . S
C1045 C1051 1.465 . S
C1046 C1041 1.399 . S
C1046 C1045 1.394 . S
C1046 C1047 1.516 . S
C1047 C1046 1.516 . S
C1047 C1048 1.502 . S
C1047 C1049 1.561 . S
C1047 C1050 1.526 . S
C1048 H1032 0.959 . S
C1048 H1033 0.959 . S
C1048 H1034 0.961 . S
C1048 C1047 1.502 . S
C1049 H1035 0.960 . S
C1049 H1036 0.961 . S
C1049 H1037 0.959 . S
C1049 C1047 1.561 . S
C1050 C1047 1.526 . S
C1050 C1051 1.396 . S
C1050 C1055 1.390 . S
C1051 C1045 1.465 . S
C1051 C1050 1.396 . S
C1051 C1052 1.399 . S
C1052 H1038 0.929 . S
C1052 C1051 1.399 . S
C1052 C1053 1.385 . S
C1053 H1039 0.931 . S
C1053 C1052 1.385 . S
C1053 C1054 1.389 . S
C1054 C1053 1.389 . S
C1054 C1055 1.387 . S
C1055 H1040 0.930 . S
C1055 C1050 1.390 . S
C1055 C1054 1.387 . S
H1056 C1068 0.930 . S
H1057 C1070 0.930 . S
H1058 C1071 0.930 . S
H1059 C1075 0.959 . S
H1060 C1075 0.959 . S
H1061 C1075 0.961 . S
H1062 C1076 0.960 . S
H1063 C1076 0.961 . S
H1064 C1076 0.959 . S
H1065 C1079 0.929 . S
H1066 C1080 0.931 . S
H1067 C1082 0.930 . S
C1068 H1056 0.930 . S
C1068 C1069 1.399 . S
C1068 C1073 1.399 . S
C1069 C1068 1.399 . S
C1069 C1070 1.376 . S
C1070 H1057 0.930 . S
C1070 C1069 1.376 . S
C1070 C1071 1.388 . S
C1071 H1058 0.930 . S
C1071 C1070 1.388 . S
C1071 C1072 1.390 . S
C1072 C1071 1.390 . S
C1072 C1073 1.394 . S
C1072 C1078 1.465 . S
C1073 C1068 1.399 . S
C1073 C1072 1.394 . S
C1073 C1074 1.516 . S
C1074 C1073 1.516 . S
C1074 C1075 1.502 . S
C1074 C1076 1.561 . S
C1074 C1077 1.526 . S
C1075 H1059 0.959 . S
C1075 H1060 0.959 . S
C1075 H1061 0.961 . S
C1075 C1074 1.502 . S
C1076 H1062 0.960 . S
C1076 H1063 0.961 . S
C1076 H1064 0.959 . S
C1076 C1074 1.561 . S
C1077 C1074 1.526 . S
C1077 C1078 1.396 . S
C1077 C1082 1.390 . S
C1078 C1072 1.465 . S
C1078 C1077 1.396 . S
C1078 C1079 1.399 . S
C1079 H1065 0.929 . S
C1079 C1078 1.399 . S
C1079 C1080 1.385 . S
C1080 H1066 0.931 . S
C1080 C1079 1.385 . S
C1080 C1081 1.389 . S
C1081 C1080 1.389 . S
C1081 C1082 1.387 . S
C1082 H1067 0.930 . S
C1082 C1077 1.390 . S
C1082 C1081 1.387 . S
H1083 C1095 0.930 . S
H1084 C1097 0.930 . S
H1085 C1098 0.930 . S
H1086 C1102 0.959 . S
H1087 C1102 0.959 . S
H1088 C1102 0.961 . S
H1089 C1103 0.960 . S
H1090 C1103 0.961 . S
H1091 C1103 0.959 . S
H1092 C1106 0.929 . S
H1093 C1107 0.931 . S
H1094 C1109 0.930 . S
C1095 H1083 0.930 . S
C1095 C1096 1.399 . S
C1095 C1100 1.399 . S
C1096 C1095 1.399 . S
C1096 C1097 1.376 . S
C1097 H1084 0.930 . S
C1097 C1096 1.376 . S
C1097 C1098 1.388 . S
C1098 H1085 0.930 . S
C1098 C1097 1.388 . S
C1098 C1099 1.390 . S
C1099 C1098 1.390 . S
C1099 C1100 1.394 . S
C1099 C1105 1.465 . S
C1100 C1095 1.399 . S
C1100 C1099 1.394 . S
C1100 C1101 1.516 . S
C1101 C1100 1.516 . S
C1101 C1102 1.502 . S
C1101 C1103 1.561 . S
C1101 C1104 1.526 . S
C1102 H1086 0.959 . S
C1102 H1087 0.959 . S
C1102 H1088 0.961 . S
C1102 C1101 1.502 . S
C1103 H1089 0.960 . S
C1103 H1090 0.961 . S
C1103 H1091 0.959 . S
C1103 C1101 1.561 . S
C1104 C1101 1.526 . S
C1104 C1105 1.396 . S
C1104 C1109 1.390 . S
C1105 C1099 1.465 . S
C1105 C1104 1.396 . S
C1105 C1106 1.399 . S
C1106 H1092 0.929 . S
C1106 C1105 1.399 . S
C1106 C1107 1.385 . S
C1107 H1093 0.931 . S
C1107 C1106 1.385 . S
C1107 C1108 1.389 . S
C1108 C1107 1.389 . S
C1108 C1109 1.387 . S
C1109 H1094 0.930 . S
C1109 C1104 1.390 . S
C1109 C1108 1.387 . S
H1110 C1122 0.930 . S
H1111 C1124 0.930 . S
H1112 C1125 0.930 . S
H1113 C1129 0.959 . S
H1114 C1129 0.959 . S
H1115 C1129 0.961 . S
H1116 C1130 0.960 . S
H1117 C1130 0.961 . S
H1118 C1130 0.959 . S
H1119 C1133 0.929 . S
H1120 C1134 0.931 . S
H1121 C1136 0.930 . S
C1122 H1110 0.930 . S
C1122 C1123 1.399 . S
C1122 C1127 1.399 . S
C1123 C1122 1.399 . S
C1123 C1124 1.376 . S
C1124 H1111 0.930 . S
C1124 C1123 1.376 . S
C1124 C1125 1.388 . S
C1125 H1112 0.930 . S
C1125 C1124 1.388 . S
C1125 C1126 1.390 . S
C1126 C1125 1.390 . S
C1126 C1127 1.394 . S
C1126 C1132 1.465 . S
C1127 C1122 1.399 . S
C1127 C1126 1.394 . S
C1127 C1128 1.516 . S
C1128 C1127 1.516 . S
C1128 C1129 1.502 . S
C1128 C1130 1.561 . S
C1128 C1131 1.526 . S
C1129 H1113 0.959 . S
C1129 H1114 0.959 . S
C1129 H1115 0.961 . S
C1129 C1128 1.502 . S
C1130 H1116 0.960 . S
C1130 H1117 0.961 . S
C1130 H1118 0.959 . S
C1130 C1128 1.561 . S
C1131 C1128 1.526 . S
C1131 C1132 1.396 . S
C1131 C1136 1.390 . S
C1132 C1126 1.465 . S
C1132 C1131 1.396 . S
C1132 C1133 1.399 . S
C1133 H1119 0.929 . S
C1133 C1132 1.399 . S
C1133 C1134 1.385 . S
C1134 H1120 0.931 . S
C1134 C1133 1.385 . S
C1134 C1135 1.389 . S
C1135 C1134 1.389 . S
C1135 C1136 1.387 . S
C1136 H1121 0.930 . S
C1136 C1131 1.390 . S
C1136 C1135 1.387 . S
H1137 C1149 0.930 . S
H1138 C1151 0.930 . S
H1139 C1152 0.930 . S
H1140 C1156 0.959 . S
H1141 C1156 0.959 . S
H1142 C1156 0.961 . S
H1143 C1157 0.960 . S
H1144 C1157 0.961 . S
H1145 C1157 0.959 . S
H1146 C1160 0.929 . S
H1147 C1161 0.931 . S
H1148 C1163 0.930 . S
C1149 H1137 0.930 . S
C1149 C1150 1.399 . S
C1149 C1154 1.399 . S
C1150 C1149 1.399 . S
C1150 C1151 1.376 . S
C1151 H1138 0.930 . S
C1151 C1150 1.376 . S
C1151 C1152 1.388 . S
C1152 H1139 0.930 . S
C1152 C1151 1.388 . S
C1152 C1153 1.390 . S
C1153 C1152 1.390 . S
C1153 C1154 1.394 . S
C1153 C1159 1.465 . S
C1154 C1149 1.399 . S
C1154 C1153 1.394 . S
C1154 C1155 1.516 . S
C1155 C1154 1.516 . S
C1155 C1156 1.502 . S
C1155 C1157 1.561 . S
C1155 C1158 1.526 . S
C1156 H1140 0.959 . S
C1156 H1141 0.959 . S
C1156 H1142 0.961 . S
C1156 C1155 1.502 . S
C1157 H1143 0.960 . S
C1157 H1144 0.961 . S
C1157 H1145 0.959 . S
C1157 C1155 1.561 . S
C1158 C1155 1.526 . S
C1158 C1159 1.396 . S
C1158 C1163 1.390 . S
C1159 C1153 1.465 . S
C1159 C1158 1.396 . S
C1159 C1160 1.399 . S
C1160 H1146 0.929 . S
C1160 C1159 1.399 . S
C1160 C1161 1.385 . S
C1161 H1147 0.931 . S
C1161 C1160 1.385 . S
C1161 C1162 1.389 . S
C1162 C1161 1.389 . S
C1162 C1163 1.387 . S
C1163 H1148 0.930 . S
C1163 C1158 1.390 . S
C1163 C1162 1.387 . S
H1164 C1176 0.930 . S
H1165 C1178 0.930 . S
H1166 C1179 0.930 . S
H1167 C1183 0.959 . S
H1168 C1183 0.959 . S
H1169 C1183 0.961 . S
H1170 C1184 0.960 . S
H1171 C1184 0.961 . S
H1172 C1184 0.959 . S
H1173 C1187 0.929 . S
H1174 C1188 0.931 . S
H1175 C1190 0.930 . S
C1176 H1164 0.930 . S
C1176 C1177 1.399 . S
C1176 C1181 1.399 . S
C1177 C1176 1.399 . S
C1177 C1178 1.376 . S
C1178 H1165 0.930 . S
C1178 C1177 1.376 . S
C1178 C1179 1.388 . S
C1179 H1166 0.930 . S
C1179 C1178 1.388 . S
C1179 C1180 1.390 . S
C1180 C1179 1.390 . S
C1180 C1181 1.394 . S
C1180 C1186 1.465 . S
C1181 C1176 1.399 . S
C1181 C1180 1.394 . S
C1181 C1182 1.516 . S
C1182 C1181 1.516 . S
C1182 C1183 1.502 . S
C1182 C1184 1.561 . S
C1182 C1185 1.526 . S
C1183 H1167 0.959 . S
C1183 H1168 0.959 . S
C1183 H1169 0.961 . S
C1183 C1182 1.502 . S
C1184 H1170 0.960 . S
C1184 H1171 0.961 . S
C1184 H1172 0.959 . S
C1184 C1182 1.561 . S
C1185 C1182 1.526 . S
C1185 C1186 1.396 . S
C1185 C1190 1.390 . S
C1186 C1180 1.465 . S
C1186 C1185 1.396 . S
C1186 C1187 1.399 . S
C1187 H1173 0.929 . S
C1187 C1186 1.399 . S
C1187 C1188 1.385 . S
C1188 H1174 0.931 . S
C1188 C1187 1.385 . S
C1188 C1189 1.389 . S
C1189 C1188 1.389 . S
C1189 C1190 1.387 . S
C1190 H1175 0.930 . S
C1190 C1185 1.390 . S
C1190 C1189 1.387 . S
H1191 C1203 0.930 . S
H1192 C1205 0.930 . S
H1193 C1206 0.930 . S
H1194 C1210 0.959 . S
H1195 C1210 0.959 . S
H1196 C1210 0.961 . S
H1197 C1211 0.960 . S
H1198 C1211 0.961 . S
H1199 C1211 0.959 . S
H1200 C1214 0.929 . S
H1201 C1215 0.931 . S
H1202 C1217 0.930 . S
C1203 H1191 0.930 . S
C1203 C1204 1.399 . S
C1203 C1208 1.399 . S
C1204 C1203 1.399 . S
C1204 C1205 1.376 . S
C1205 H1192 0.930 . S
C1205 C1204 1.376 . S
C1205 C1206 1.388 . S
C1206 H1193 0.930 . S
C1206 C1205 1.388 . S
C1206 C1207 1.390 . S
C1207 C1206 1.390 . S
C1207 C1208 1.394 . S
C1207 C1213 1.465 . S
C1208 C1203 1.399 . S
C1208 C1207 1.394 . S
C1208 C1209 1.516 . S
C1209 C1208 1.516 . S
C1209 C1210 1.502 . S
C1209 C1211 1.561 . S
C1209 C1212 1.526 . S
C1210 H1194 0.959 . S
C1210 H1195 0.959 . S
C1210 H1196 0.961 . S
C1210 C1209 1.502 . S
C1211 H1197 0.960 . S
C1211 H1198 0.961 . S
C1211 H1199 0.959 . S
C1211 C1209 1.561 . S
C1212 C1209 1.526 . S
C1212 C1213 1.396 . S
C1212 C1217 1.390 . S
C1213 C1207 1.465 . S
C1213 C1212 1.396 . S
C1213 C1214 1.399 . S
C1214 H1200 0.929 . S
C1214 C1213 1.399 . S
C1214 C1215 1.385 . S
C1215 H1201 0.931 . S
C1215 C1214 1.385 . S
C1215 C1216 1.389 . S
C1216 C1215 1.389 . S
C1216 C1217 1.387 . S
C1217 H1202 0.930 . S
C1217 C1212 1.390 . S
C1217 C1216 1.387 . S
H1218 C1230 0.930 . S
H1219 C1232 0.930 . S
H1220 C1233 0.930 . S
H1221 C1237 0.959 . S
H1222 C1237 0.959 . S
H1223 C1237 0.961 . S
H1224 C1238 0.960 . S
H1225 C1238 0.961 . S
H1226 C1238 0.959 . S
H1227 C1241 0.929 . S
H1228 C1242 0.931 . S
H1229 C1244 0.930 . S
C1230 H1218 0.930 . S
C1230 C1231 1.399 . S
C1230 C1235 1.399 . S
C1231 C1230 1.399 . S
C1231 C1232 1.376 . S
C1232 H1219 0.930 . S
C1232 C1231 1.376 . S
C1232 C1233 1.388 . S
C1233 H1220 0.930 . S
C1233 C1232 1.388 . S
C1233 C1234 1.390 . S
C1234 C1233 1.390 . S
C1234 C1235 1.394 . S
C1234 C1240 1.465 . S
C1235 C1230 1.399 . S
C1235 C1234 1.394 . S
C1235 C1236 1.516 . S
C1236 C1235 1.516 . S
C1236 C1237 1.502 . S
C1236 C1238 1.561 . S
C1236 C1239 1.526 . S
C1237 H1221 0.959 . S
C1237 H1222 0.959 . S
C1237 H1223 0.961 . S
C1237 C1236 1.502 . S
C1238 H1224 0.960 . S
C1238 H1225 0.961 . S
C1238 H1226 0.959 . S
C1238 C1236 1.561 . S
C1239 C1236 1.526 . S
C1239 C1240 1.396 . S
C1239 C1244 1.390 . S
C1240 C1234 1.465 . S
C1240 C1239 1.396 . S
C1240 C1241 1.399 . S
C1241 H1227 0.929 . S
C1241 C1240 1.399 . S
C1241 C1242 1.385 . S
C1242 H1228 0.931 . S
C1242 C1241 1.385 . S
C1242 C1243 1.389 . S
C1243 C1242 1.389 . S
C1243 C1244 1.387 . S
C1244 H1229 0.930 . S
C1244 C1239 1.390 . S
C1244 C1243 1.387 . S
H1245 C1257 0.930 . S
H1246 C1259 0.930 . S
H1247 C1260 0.930 . S
H1248 C1264 0.959 . S
H1249 C1264 0.959 . S
H1250 C1264 0.961 . S
H1251 C1265 0.960 . S
H1252 C1265 0.961 . S
H1253 C1265 0.959 . S
H1254 C1268 0.929 . S
H1255 C1269 0.931 . S
H1256 C1271 0.930 . S
C1257 H1245 0.930 . S
C1257 C1258 1.399 . S
C1257 C1262 1.399 . S
C1258 C1257 1.399 . S
C1258 C1259 1.376 . S
C1259 H1246 0.930 . S
C1259 C1258 1.376 . S
C1259 C1260 1.388 . S
C1260 H1247 0.930 . S
C1260 C1259 1.388 . S
C1260 C1261 1.390 . S
C1261 C1260 1.390 . S
C1261 C1262 1.394 . S
C1261 C1267 1.465 . S
C1262 C1257 1.399 . S
C1262 C1261 1.394 . S
C1262 C1263 1.516 . S
C1263 C1262 1.516 . S
C1263 C1264 1.502 . S
C1263 C1265 1.561 . S
C1263 C1266 1.526 . S
C1264 H1248 0.959 . S
C1264 H1249 0.959 . S
C1264 H1250 0.961 . S
C1264 C1263 1.502 . S
C1265 H1251 0.960 . S
C1265 H1252 0.961 . S
C1265 H1253 0.959 . S
C1265 C1263 1.561 . S
C1266 C1263 1.526 . S
C1266 C1267 1.396 . S
C1266 C1271 1.390 . S
C1267 C1261 1.465 . S
C1267 C1266 1.396 . S
C1267 C1268 1.399 . S
C1268 H1254 0.929 . S
C1268 C1267 1.399 . S
C1268 C1269 1.385 . S
C1269 H1255 0.931 . S
C1269 C1268 1.385 . S
C1269 C1270 1.389 . S
C1270 C1269 1.389 . S
C1270 C1271 1.387 . S
C1271 H1256 0.930 . S
C1271 C1266 1.390 . S
C1271 C1270 1.387 . S
H1272 C1284 0.930 . S
H1273 C1286 0.930 . S
H1274 C1287 0.930 . S
H1275 C1291 0.959 . S
H1276 C1291 0.959 . S
H1277 C1291 0.961 . S
H1278 C1292 0.960 . S
H1279 C1292 0.961 . S
H1280 C1292 0.959 . S
H1281 C1295 0.929 . S
H1282 C1296 0.931 . S
H1283 C1298 0.930 . S
C1284 H1272 0.930 . S
C1284 C1285 1.399 . S
C1284 C1289 1.399 . S
C1285 C1284 1.399 . S
C1285 C1286 1.376 . S
C1286 H1273 0.930 . S
C1286 C1285 1.376 . S
C1286 C1287 1.388 . S
C1287 H1274 0.930 . S
C1287 C1286 1.388 . S
C1287 C1288 1.390 . S
C1288 C1287 1.390 . S
C1288 C1289 1.394 . S
C1288 C1294 1.465 . S
C1289 C1284 1.399 . S
C1289 C1288 1.394 . S
C1289 C1290 1.516 . S
C1290 C1289 1.516 . S
C1290 C1291 1.502 . S
C1290 C1292 1.561 . S
C1290 C1293 1.526 . S
C1291 H1275 0.959 . S
C1291 H1276 0.959 . S
C1291 H1277 0.961 . S
C1291 C1290 1.502 . S
C1292 H1278 0.960 . S
C1292 H1279 0.961 . S
C1292 H1280 0.959 . S
C1292 C1290 1.561 . S
C1293 C1290 1.526 . S
C1293 C1294 1.396 . S
C1293 C1298 1.390 . S
C1294 C1288 1.465 . S
C1294 C1293 1.396 . S
C1294 C1295 1.399 . S
C1295 H1281 0.929 . S
C1295 C1294 1.399 . S
C1295 C1296 1.385 . S
C1296 H1282 0.931 . S
C1296 C1295 1.385 . S
C1296 C1297 1.389 . S
C1297 C1296 1.389 . S
C1297 C1298 1.387 . S
C1298 H1283 0.930 . S
C1298 C1293 1.390 . S
C1298 C1297 1.387 . S
H1299 C1311 0.930 . S
H1300 C1313 0.930 . S
H1301 C1314 0.930 . S
H1302 C1318 0.959 . S
H1303 C1318 0.959 . S
H1304 C1318 0.961 . S
H1305 C1319 0.960 . S
H1306 C1319 0.961 . S
H1307 C1319 0.959 . S
H1308 C1322 0.929 . S
H1309 C1323 0.931 . S
H1310 C1325 0.930 . S
C1311 H1299 0.930 . S
C1311 C1312 1.399 . S
C1311 C1316 1.399 . S
C1312 C1311 1.399 . S
C1312 C1313 1.376 . S
C1313 H1300 0.930 . S
C1313 C1312 1.376 . S
C1313 C1314 1.388 . S
C1314 H1301 0.930 . S
C1314 C1313 1.388 . S
C1314 C1315 1.390 . S
C1315 C1314 1.390 . S
C1315 C1316 1.394 . S
C1315 C1321 1.465 . S
C1316 C1311 1.399 . S
C1316 C1315 1.394 . S
C1316 C1317 1.516 . S
C1317 C1316 1.516 . S
C1317 C1318 1.502 . S
C1317 C1319 1.561 . S
C1317 C1320 1.526 . S
C1318 H1302 0.959 . S
C1318 H1303 0.959 . S
C1318 H1304 0.961 . S
C1318 C1317 1.502 . S
C1319 H1305 0.960 . S
C1319 H1306 0.961 . S
C1319 H1307 0.959 . S
C1319 C1317 1.561 . S
C1320 C1317 1.526 . S
C1320 C1321 1.396 . S
C1320 C1325 1.390 . S
C1321 C1315 1.465 . S
C1321 C1320 1.396 . S
C1321 C1322 1.399 . S
C1322 H1308 0.929 . S
C1322 C1321 1.399 . S
C1322 C1323 1.385 . S
C1323 H1309 0.931 . S
C1323 C1322 1.385 . S
C1323 C1324 1.389 . S
C1324 C1323 1.389 . S
C1324 C1325 1.387 . S
C1325 H1310 0.930 . S
C1325 C1320 1.390 . S
C1325 C1324 1.387 . S
H1326 C1338 0.930 . S
H1327 C1340 0.930 . S
H1328 C1341 0.930 . S
H1329 C1345 0.959 . S
H1330 C1345 0.959 . S
H1331 C1345 0.961 . S
H1332 C1346 0.960 . S
H1333 C1346 0.961 . S
H1334 C1346 0.959 . S
H1335 C1349 0.929 . S
H1336 C1350 0.931 . S
H1337 C1352 0.930 . S
C1338 H1326 0.930 . S
C1338 C1339 1.399 . S
C1338 C1343 1.399 . S
C1339 C1338 1.399 . S
C1339 C1340 1.376 . S
C1340 H1327 0.930 . S
C1340 C1339 1.376 . S
C1340 C1341 1.388 . S
C1341 H1328 0.930 . S
C1341 C1340 1.388 . S
C1341 C1342 1.390 . S
C1342 C1341 1.390 . S
C1342 C1343 1.394 . S
C1342 C1348 1.465 . S
C1343 C1338 1.399 . S
C1343 C1342 1.394 . S
C1343 C1344 1.516 . S
C1344 C1343 1.516 . S
C1344 C1345 1.502 . S
C1344 C1346 1.561 . S
C1344 C1347 1.526 . S
C1345 H1329 0.959 . S
C1345 H1330 0.959 . S
C1345 H1331 0.961 . S
C1345 C1344 1.502 . S
C1346 H1332 0.960 . S
C1346 H1333 0.961 . S
C1346 H1334 0.959 . S
C1346 C1344 1.561 . S
C1347 C1344 1.526 . S
C1347 C1348 1.396 . S
C1347 C1352 1.390 . S
C1348 C1342 1.465 . S
C1348 C1347 1.396 . S
C1348 C1349 1.399 . S
C1349 H1335 0.929 . S
C1349 C1348 1.399 . S
C1349 C1350 1.385 . S
C1350 H1336 0.931 . S
C1350 C1349 1.385 . S
C1350 C1351 1.389 . S
C1351 C1350 1.389 . S
C1351 C1352 1.387 . S
C1352 H1337 0.930 . S
C1352 C1347 1.390 . S
C1352 C1351 1.387 . S
H1353 C1365 0.930 . S
H1354 C1367 0.930 . S
H1355 C1368 0.930 . S
H1356 C1372 0.959 . S
H1357 C1372 0.959 . S
H1358 C1372 0.961 . S
H1359 C1373 0.960 . S
H1360 C1373 0.961 . S
H1361 C1373 0.959 . S
H1362 C1376 0.929 . S
H1363 C1377 0.931 . S
H1364 C1379 0.930 . S
C1365 H1353 0.930 . S
C1365 C1366 1.399 . S
C1365 C1370 1.399 . S
C1366 C1365 1.399 . S
C1366 C1367 1.376 . S
C1367 H1354 0.930 . S
C1367 C1366 1.376 . S
C1367 C1368 1.388 . S
C1368 H1355 0.930 . S
C1368 C1367 1.388 . S
C1368 C1369 1.390 . S
C1369 C1368 1.390 . S
C1369 C1370 1.394 . S
C1369 C1375 1.465 . S
C1370 C1365 1.399 . S
C1370 C1369 1.394 . S
C1370 C1371 1.516 . S
C1371 C1370 1.516 . S
C1371 C1372 1.502 . S
C1371 C1373 1.561 . S
C1371 C1374 1.526 . S
C1372 H1356 0.959 . S
C1372 H1357 0.959 . S
C1372 H1358 0.961 . S
C1372 C1371 1.502 . S
C1373 H1359 0.960 . S
C1373 H1360 0.961 . S
C1373 H1361 0.959 . S
C1373 C1371 1.561 . S
C1374 C1371 1.526 . S
C1374 C1375 1.396 . S
C1374 C1379 1.390 . S
C1375 C1369 1.465 . S
C1375 C1374 1.396 . S
C1375 C1376 1.399 . S
C1376 H1362 0.929 . S
C1376 C1375 1.399 . S
C1376 C1377 1.385 . S
C1377 H1363 0.931 . S
C1377 C1376 1.385 . S
C1377 C1378 1.389 . S
C1378 C1377 1.389 . S
C1378 C1379 1.387 . S
C1379 H1364 0.930 . S
C1379 C1374 1.390 . S
C1379 C1378 1.387 . S
H1380 C1392 0.930 . S
H1381 C1394 0.930 . S
H1382 C1395 0.930 . S
H1383 C1399 0.959 . S
H1384 C1399 0.959 . S
H1385 C1399 0.961 . S
H1386 C1400 0.960 . S
H1387 C1400 0.961 . S
H1388 C1400 0.959 . S
H1389 C1403 0.929 . S
H1390 C1404 0.931 . S
H1391 C1406 0.930 . S
C1392 H1380 0.930 . S
C1392 C1393 1.399 . S
C1392 C1397 1.399 . S
C1393 C1392 1.399 . S
C1393 C1394 1.376 . S
C1394 H1381 0.930 . S
C1394 C1393 1.376 . S
C1394 C1395 1.388 . S
C1395 H1382 0.930 . S
C1395 C1394 1.388 . S
C1395 C1396 1.390 . S
C1396 C1395 1.390 . S
C1396 C1397 1.394 . S
C1396 C1402 1.465 . S
C1397 C1392 1.399 . S
C1397 C1396 1.394 . S
C1397 C1398 1.516 . S
C1398 C1397 1.516 . S
C1398 C1399 1.502 . S
C1398 C1400 1.561 . S
C1398 C1401 1.526 . S
C1399 H1383 0.959 . S
C1399 H1384 0.959 . S
C1399 H1385 0.961 . S
C1399 C1398 1.502 . S
C1400 H1386 0.960 . S
C1400 H1387 0.961 . S
C1400 H1388 0.959 . S
C1400 C1398 1.561 . S
C1401 C1398 1.526 . S
C1401 C1402 1.396 . S
C1401 C1406 1.390 . S
C1402 C1396 1.465 . S
C1402 C1401 1.396 . S
C1402 C1403 1.399 . S
C1403 H1389 0.929 . S
C1403 C1402 1.399 . S
C1403 C1404 1.385 . S
C1404 H1390 0.931 . S
C1404 C1403 1.385 . S
C1404 C1405 1.389 . S
C1405 C1404 1.389 . S
C1405 C1406 1.387 . S
C1406 H1391 0.930 . S
C1406 C1401 1.390 . S
C1406 C1405 1.387 . S
H1407 C1419 0.930 . S
H1408 C1421 0.930 . S
H1409 C1422 0.930 . S
H1410 C1426 0.959 . S
H1411 C1426 0.959 . S
H1412 C1426 0.961 . S
H1413 C1427 0.960 . S
H1414 C1427 0.961 . S
H1415 C1427 0.959 . S
H1416 C1430 0.929 . S
H1417 C1431 0.931 . S
H1418 C1433 0.930 . S
C1419 H1407 0.930 . S
C1419 C1420 1.399 . S
C1419 C1424 1.399 . S
C1420 C1419 1.399 . S
C1420 C1421 1.376 . S
C1421 H1408 0.930 . S
C1421 C1420 1.376 . S
C1421 C1422 1.388 . S
C1422 H1409 0.930 . S
C1422 C1421 1.388 . S
C1422 C1423 1.390 . S
C1423 C1422 1.390 . S
C1423 C1424 1.394 . S
C1423 C1429 1.465 . S
C1424 C1419 1.399 . S
C1424 C1423 1.394 . S
C1424 C1425 1.516 . S
C1425 C1424 1.516 . S
C1425 C1426 1.502 . S
C1425 C1427 1.561 . S
C1425 C1428 1.526 . S
C1426 H1410 0.959 . S
C1426 H1411 0.959 . S
C1426 H1412 0.961 . S
C1426 C1425 1.502 . S
C1427 H1413 0.960 . S
C1427 H1414 0.961 . S
C1427 H1415 0.959 . S
C1427 C1425 1.561 . S
C1428 C1425 1.526 . S
C1428 C1429 1.396 . S
C1428 C1433 1.390 . S
C1429 C1423 1.465 . S
C1429 C1428 1.396 . S
C1429 C1430 1.399 . S
C1430 H1416 0.929 . S
C1430 C1429 1.399 . S
C1430 C1431 1.385 . S
C1431 H1417 0.931 . S
C1431 C1430 1.385 . S
C1431 C1432 1.389 . S
C1432 C1431 1.389 . S
C1432 C1433 1.387 . S
C1433 H1418 0.930 . S
C1433 C1428 1.390 . S
C1433 C1432 1.387 . S
H1434 C1446 0.930 . S
H1435 C1448 0.930 . S
H1436 C1449 0.930 . S
H1437 C1453 0.959 . S
H1438 C1453 0.959 . S
H1439 C1453 0.961 . S
H1440 C1454 0.960 . S
H1441 C1454 0.961 . S
H1442 C1454 0.959 . S
H1443 C1457 0.929 . S
H1444 C1458 0.931 . S
H1445 C1460 0.930 . S
C1446 H1434 0.930 . S
C1446 C1447 1.399 . S
C1446 C1451 1.399 . S
C1447 C1446 1.399 . S
C1447 C1448 1.376 . S
C1448 H1435 0.930 . S
C1448 C1447 1.376 . S
C1448 C1449 1.388 . S
C1449 H1436 0.930 . S
C1449 C1448 1.388 . S
C1449 C1450 1.390 . S
C1450 C1449 1.390 . S
C1450 C1451 1.394 . S
C1450 C1456 1.465 . S
C1451 C1446 1.399 . S
C1451 C1450 1.394 . S
C1451 C1452 1.516 . S
C1452 C1451 1.516 . S
C1452 C1453 1.502 . S
C1452 C1454 1.561 . S
C1452 C1455 1.526 . S
C1453 H1437 0.959 . S
C1453 H1438 0.959 . S
C1453 H1439 0.961 . S
C1453 C1452 1.502 . S
C1454 H1440 0.960 . S
C1454 H1441 0.961 . S
C1454 H1442 0.959 . S
C1454 C1452 1.561 . S
C1455 C1452 1.526 . S
C1455 C1456 1.396 . S
C1455 C1460 1.390 . S
C1456 C1450 1.465 . S
C1456 C1455 1.396 . S
C1456 C1457 1.399 . S
C1457 H1443 0.929 . S
C1457 C1456 1.399 . S
C1457 C1458 1.385 . S
C1458 H1444 0.931 . S
C1458 C1457 1.385 . S
C1458 C1459 1.389 . S
C1459 C1458 1.389 . S
C1459 C1460 1.387 . S
C1460 H1445 0.930 . S
C1460 C1455 1.390 . S
C1460 C1459 1.387 . S
H1461 C1473 0.930 . S
H1462 C1475 0.930 . S
H1463 C1476 0.930 . S
H1464 C1480 0.959 . S
H1465 C1480 0.959 . S
H1466 C1480 0.961 . S
H1467 C1481 0.960 . S
H1468 C1481 0.961 . S
H1469 C1481 0.959 . S
H1470 C1484 0.929 . S
H1471 C1485 0.931 . S
H1472 C1487 0.930 . S
C1473 H1461 0.930 . S
C1473 C1474 1.399 . S
C1473 C1478 1.399 . S
C1474 C1473 1.399 . S
C1474 C1475 1.376 . S
C1475 H1462 0.930 . S
C1475 C1474 1.376 . S
C1475 C1476 1.388 . S
C1476 H1463 0.930 . S
C1476 C1475 1.388 . S
C1476 C1477 1.390 . S
C1477 C1476 1.390 . S
C1477 C1478 1.394 . S
C1477 C1483 1.465 . S
C1478 C1473 1.399 . S
C1478 C1477 1.394 . S
C1478 C1479 1.516 . S
C1479 C1478 1.516 . S
C1479 C1480 1.502 . S
C1479 C1481 1.561 . S
C1479 C1482 1.526 . S
C1480 H1464 0.959 . S
C1480 H1465 0.959 . S
C1480 H1466 0.961 . S
C1480 C1479 1.502 . S
C1481 H1467 0.960 . S
C1481 H1468 0.961 . S
C1481 H1469 0.959 . S
C1481 C1479 1.561 . S
C1482 C1479 1.526 . S
C1482 C1483 1.396 . S
C1482 C1487 1.390 . S
C1483 C1477 1.465 . S
C1483 C1482 1.396 . S
C1483 C1484 1.399 . S
C1484 H1470 0.929 . S
C1484 C1483 1.399 . S
C1484 C1485 1.385 . S
C1485 H1471 0.931 . S
C1485 C1484 1.385 . S
C1485 C1486 1.389 . S
C1486 C1485 1.389 . S
C1486 C1487 1.387 . S
C1487 H1472 0.930 . S
C1487 C1482 1.390 . S
C1487 C1486 1.387 . S
H1488 C1500 0.930 . S
H1489 C1502 0.930 . S
H1490 C1503 0.930 . S
H1491 C1507 0.959 . S
H1492 C1507 0.959 . S
H1493 C1507 0.961 . S
H1494 C1508 0.960 . S
H1495 C1508 0.961 . S
H1496 C1508 0.959 . S
H1497 C1511 0.929 . S
H1498 C1512 0.931 . S
H1499 C1514 0.930 . S
C1500 H1488 0.930 . S
C1500 C1501 1.399 . S
C1500 C1505 1.399 . S
C1501 C1500 1.399 . S
C1501 C1502 1.376 . S
C1502 H1489 0.930 . S
C1502 C1501 1.376 . S
C1502 C1503 1.388 . S
C1503 H1490 0.930 . S
C1503 C1502 1.388 . S
C1503 C1504 1.390 . S
C1504 C1503 1.390 . S
C1504 C1505 1.394 . S
C1504 C1510 1.465 . S
C1505 C1500 1.399 . S
C1505 C1504 1.394 . S
C1505 C1506 1.516 . S
C1506 C1505 1.516 . S
C1506 C1507 1.502 . S
C1506 C1508 1.561 . S
C1506 C1509 1.526 . S
C1507 H1491 0.959 . S
C1507 H1492 0.959 . S
C1507 H1493 0.961 . S
C1507 C1506 1.502 . S
C1508 H1494 0.960 . S
C1508 H1495 0.961 . S
C1508 H1496 0.959 . S
C1508 C1506 1.561 . S
C1509 C1506 1.526 . S
C1509 C1510 1.396 . S
C1509 C1514 1.390 . S
C1510 C1504 1.465 . S
C1510 C1509 1.396 . S
C1510 C1511 1.399 . S
C1511 H1497 0.929 . S
C1511 C1510 1.399 . S
C1511 C1512 1.385 . S
C1512 H1498 0.931 . S
C1512 C1511 1.385 . S
C1512 C1513 1.389 . S
C1513 C1512 1.389 . S
C1513 C1514 1.387 . S
C1514 H1499 0.930 . S
C1514 C1509 1.390 . S
C1514 C1513 1.387 . S
H1515 C1527 0.930 . S
H1516 C1529 0.930 . S
H1517 C1530 0.930 . S
H1518 C1534 0.959 . S
H1519 C1534 0.959 . S
H1520 C1534 0.961 . S
H1521 C1535 0.960 . S
H1522 C1535 0.961 . S
H1523 C1535 0.959 . S
H1524 C1538 0.929 . S
H1525 C1539 0.931 . S
H1526 C1541 0.930 . S
C1527 H1515 0.930 . S
C1527 C1528 1.399 . S
C1527 C1532 1.399 . S
C1528 C1527 1.399 . S
C1528 C1529 1.376 . S
C1529 H1516 0.930 . S
C1529 C1528 1.376 . S
C1529 C1530 1.388 . S
C1530 H1517 0.930 . S
C1530 C1529 1.388 . S
C1530 C1531 1.390 . S
C1531 C1530 1.390 . S
C1531 C1532 1.394 . S
C1531 C1537 1.465 . S
C1532 C1527 1.399 . S
C1532 C1531 1.394 . S
C1532 C1533 1.516 . S
C1533 C1532 1.516 . S
C1533 C1534 1.502 . S
C1533 C1535 1.561 . S
C1533 C1536 1.526 . S
C1534 H1518 0.959 . S
C1534 H1519 0.959 . S
C1534 H1520 0.961 . S
C1534 C1533 1.502 . S
C1535 H1521 0.960 . S
C1535 H1522 0.961 . S
C1535 H1523 0.959 . S
C1535 C1533 1.561 . S
C1536 C1533 1.526 . S
C1536 C1537 1.396 . S
C1536 C1541 1.390 . S
C1537 C1531 1.465 . S
C1537 C1536 1.396 . S
C1537 C1538 1.399 . S
C1538 H1524 0.929 . S
C1538 C1537 1.399 . S
C1538 C1539 1.385 . S
C1539 H1525 0.931 . S
C1539 C1538 1.385 . S
C1539 C1540 1.389 . S
C1540 C1539 1.389 . S
C1540 C1541 1.387 . S
C1541 H1526 0.930 . S
C1541 C1536 1.390 . S
C1541 C1540 1.387 . S
C421 C241 1.706 . S
C433 C22 1.742 . S
C448 C56 1.727 . S
C460 C275 1.658 . S
C475 C90 1.745 . S
C487 C207 1.624 . S
C502 C124 1.752 . S
C514 C377 1.701 . S
C529 C307 1.698 . S
C541 C158 1.755 . S
C556 C192 1.728 . S
C568 C341 1.683 . S
C583 C219 1.730 . S
C595 C35 1.668 . S
C610 C253 1.746 . S
C622 C69 1.701 . S
C637 C1 1.689 . S
C649 C287 1.738 . S
C664 C328 1.726 . S
C676 C171 1.646 . S
C691 C362 1.739 . S
C703 C103 1.626 . S
C718 C137 1.674 . S
C730 C389 1.762 . S
C745 C3 1.507 . S
C757 C105 1.456 . S
C772 C37 1.473 . S
C784 C139 1.500 . S
C799 C71 1.500 . S
C811 C173 1.424 . S
C826 C309 1.440 . S
C838 C205 1.502 . S
C853 C343 1.477 . S
C865 C239 1.416 . S
C880 C375 1.507 . S
C892 C273 1.418 . S
C907 C17 1.937 . S
C919 C49 1.659 . S
C934 C51 1.922 . S
C946 C83 1.718 . S
C961 C85 1.922 . S
C973 C15 1.714 . S
C988 C185 1.725 . S
C1000 C119 1.934 . S
C1015 C153 1.955 . S
C1027 C117 1.652 . S
C1042 C151 1.738 . S
C1054 C187 1.922 . S
C1069 C260 1.714 . S
C1081 C221 1.949 . S
C1096 C255 1.940 . S
C1108 C294 1.627 . S
C1123 C289 1.938 . S
C1135 C226 1.734 . S
C1150 C323 1.937 . S
C1162 C396 1.735 . S
C1177 C357 1.937 . S
C1189 C321 1.631 . S
C1204 C391 1.928 . S
C1216 C355 1.737 . S
C1231 C368 1.232 . S
C1243 C6 1.239 1_556 S
C1258 C380 1.231 . S
C1270 C40 1.237 1_556 S
C1285 C74 1.240 1_556 S
C1297 C334 1.233 . S
C1312 C108 1.218 . S
C1324 C278 1.227 . S
C1339 C142 1.221 . S
C1351 C210 1.228 . S
C1366 C244 1.227 . S
C1378 C176 1.212 . S
C1393 C232 1.214 1_554 S
C1405 C164 1.227 . S
C1420 C266 1.213 1_554 S
C1432 C198 1.227 . S
C1447 C300 1.226 1_554 S
C1459 C130 1.232 . S
C1474 C312 1.224 . S
C1486 C96 1.227 . S
C1501 C346 1.219 . S
C1513 C28 1.231 . S
C1528 C402 1.237 . S
C1540 C62 1.232 . S
