# Generated by pormake.
# Topology wme, (6)-cn, num edge types: 1
# Building blocks:
#     Node 0, Type 0, BuildingBlock: CUKXOW_clean_sbu_0, # of connection points: 6
#     Node 1, Type 0, BuildingBlock: CUKXOW_clean_sbu_0, # of connection points: 6
#     Node 2, Type 0, BuildingBlock: CUKXOW_clean_sbu_0, # of connection points: 6
#     Node 3, Type 0, BuildingBlock: CUKXOW_clean_sbu_0, # of connection points: 6
#     Node 4, Type 0, BuildingBlock: CUKXOW_clean_sbu_0, # of connection points: 6
#     Node 5, Type 0, BuildingBlock: CUKXOW_clean_sbu_0, # of connection points: 6
#     Node 6, Type 0, BuildingBlock: CUKXOW_clean_sbu_0, # of connection points: 6
#     Node 7, Type 0, BuildingBlock: CUKXOW_clean_sbu_0, # of connection points: 6
#     Node 8, Type 0, BuildingBlock: CUKXOW_clean_sbu_0, # of connection points: 6
#     Node 9, Type 0, BuildingBlock: CUKXOW_clean_sbu_0, # of connection points: 6
#     Node 10, Type 0, BuildingBlock: CUKXOW_clean_sbu_0, # of connection points: 6
#     Node 11, Type 0, BuildingBlock: CUKXOW_clean_sbu_0, # of connection points: 6
#     Edge 12, Type (0, 0), BuildingBlock: UVAHIK_clean_linker_0, # of connection points: 2
#     Edge 13, Type (0, 0), BuildingBlock: UVAHIK_clean_linker_0, # of connection points: 2
#     Edge 14, Type (0, 0), BuildingBlock: UVAHIK_clean_linker_0, # of connection points: 2
#     Edge 15, Type (0, 0), BuildingBlock: UVAHIK_clean_linker_0, # of connection points: 2
#     Edge 16, Type (0, 0), BuildingBlock: UVAHIK_clean_linker_0, # of connection points: 2
#     Edge 17, Type (0, 0), BuildingBlock: UVAHIK_clean_linker_0, # of connection points: 2
#     Edge 18, Type (0, 0), BuildingBlock: UVAHIK_clean_linker_0, # of connection points: 2
#     Edge 19, Type (0, 0), BuildingBlock: UVAHIK_clean_linker_0, # of connection points: 2
#     Edge 20, Type (0, 0), BuildingBlock: UVAHIK_clean_linker_0, # of connection points: 2
#     Edge 21, Type (0, 0), BuildingBlock: UVAHIK_clean_linker_0, # of connection points: 2
#     Edge 22, Type (0, 0), BuildingBlock: UVAHIK_clean_linker_0, # of connection points: 2
#     Edge 23, Type (0, 0), BuildingBlock: UVAHIK_clean_linker_0, # of connection points: 2
#     Edge 24, Type (0, 0), BuildingBlock: UVAHIK_clean_linker_0, # of connection points: 2
#     Edge 25, Type (0, 0), BuildingBlock: UVAHIK_clean_linker_0, # of connection points: 2
#     Edge 26, Type (0, 0), BuildingBlock: UVAHIK_clean_linker_0, # of connection points: 2
#     Edge 27, Type (0, 0), BuildingBlock: UVAHIK_clean_linker_0, # of connection points: 2
#     Edge 28, Type (0, 0), BuildingBlock: UVAHIK_clean_linker_0, # of connection points: 2
#     Edge 29, Type (0, 0), BuildingBlock: UVAHIK_clean_linker_0, # of connection points: 2
#     Edge 30, Type (0, 0), BuildingBlock: UVAHIK_clean_linker_0, # of connection points: 2
#     Edge 31, Type (0, 0), BuildingBlock: UVAHIK_clean_linker_0, # of connection points: 2
#     Edge 32, Type (0, 0), BuildingBlock: UVAHIK_clean_linker_0, # of connection points: 2
#     Edge 33, Type (0, 0), BuildingBlock: UVAHIK_clean_linker_0, # of connection points: 2
#     Edge 34, Type (0, 0), BuildingBlock: UVAHIK_clean_linker_0, # of connection points: 2
#     Edge 35, Type (0, 0), BuildingBlock: UVAHIK_clean_linker_0, # of connection points: 2
#     Edge 36, Type (0, 0), BuildingBlock: UVAHIK_clean_linker_0, # of connection points: 2
#     Edge 37, Type (0, 0), BuildingBlock: UVAHIK_clean_linker_0, # of connection points: 2
#     Edge 38, Type (0, 0), BuildingBlock: UVAHIK_clean_linker_0, # of connection points: 2
#     Edge 39, Type (0, 0), BuildingBlock: UVAHIK_clean_linker_0, # of connection points: 2
#     Edge 40, Type (0, 0), BuildingBlock: UVAHIK_clean_linker_0, # of connection points: 2
#     Edge 41, Type (0, 0), BuildingBlock: UVAHIK_clean_linker_0, # of connection points: 2
#     Edge 42, Type (0, 0), BuildingBlock: UVAHIK_clean_linker_0, # of connection points: 2
#     Edge 43, Type (0, 0), BuildingBlock: UVAHIK_clean_linker_0, # of connection points: 2
#     Edge 44, Type (0, 0), BuildingBlock: UVAHIK_clean_linker_0, # of connection points: 2
#     Edge 45, Type (0, 0), BuildingBlock: UVAHIK_clean_linker_0, # of connection points: 2
#     Edge 46, Type (0, 0), BuildingBlock: UVAHIK_clean_linker_0, # of connection points: 2
#     Edge 47, Type (0, 0), BuildingBlock: UVAHIK_clean_linker_0, # of connection points: 2
# Relax obj value: 0.055
# Max RMSD: 0.147
# Mean RMSD: 0.147
data_MOF--net-wme--node1-CUKXOW_clean_sbu_0--edge1-UVAHIK_clean_linker_0
_symmetry_space_group_name_H-M    P1
_symmetry_Int_Tables_number       1
_symmetry_cell_setting            triclinic
loop_
_symmetry_equiv_pos_as_xyz
'x, y, z'
_cell_length_a     40.990284
_cell_length_b     40.998905
_cell_length_c     73.451935
_cell_angle_alpha  90.059459
_cell_angle_beta   89.953435
_cell_angle_gamma 120.0401
loop_
_atom_site_label
_atom_site_type_symbol
_atom_site_fract_x
_atom_site_fract_y
_atom_site_fract_z
_atom_type_partial_charge
Tb0 Tb 0.23539 0.37388 0.11723 0.0
C1 C 0.2045 0.32782 0.08154 0.0
Tb2 Tb 0.15376 0.3073 0.11685 0.0
O3 O 0.26009 0.33707 0.11496 0.0
O4 O 0.20663 0.31719 0.12581 0.0
O5 O 0.2263 0.36222 0.0882 0.0
C6 C 0.0879 0.24314 0.11436 0.0
O7 O 0.17686 0.30067 0.0912 0.0
C8 C 0.16121 0.37446 0.11565 0.0
C9 C 0.18947 0.34611 0.15447 0.0
O10 O 0.09984 0.27139 0.10323 0.0
O11 O 0.11312 0.2509 0.12685 0.0
O12 O 0.13256 0.34524 0.12271 0.0
O13 O 0.18239 0.36454 0.10793 0.0
O14 O 0.16261 0.31564 0.14612 0.0
O15 O 0.21904 0.37333 0.14572 0.0
C16 C 0.29582 0.44306 0.11786 0.0
O17 O 0.26168 0.43489 0.12178 0.0
O18 O 0.29588 0.41232 0.11381 0.0
C19 C 0.2293 0.30729 0.12012 0.0
Tb20 Tb 0.87456 0.23504 0.6196 0.0
C21 C 0.8861 0.20679 0.58053 0.0
Tb22 Tb 0.8534 0.15234 0.61442 0.0
O23 O 0.92777 0.24826 0.63318 0.0
O24 O 0.90273 0.20523 0.61406 0.0
O25 O 0.88294 0.23289 0.58999 0.0
C26 C 0.84711 0.08414 0.61522 0.0
O27 O 0.87964 0.1745 0.58801 0.0
C28 C 0.79974 0.16812 0.60833 0.0
C29 C 0.84984 0.18307 0.65399 0.0
O30 O 0.82238 0.09186 0.60869 0.0
O31 O 0.87566 0.11495 0.62134 0.0
O32 O 0.80209 0.14137 0.60012 0.0
O33 O 0.82476 0.18205 0.6204 0.0
O34 O 0.85283 0.15721 0.64429 0.0
O35 O 0.85158 0.21333 0.64644 0.0
C36 C 0.87037 0.29792 0.61747 0.0
O37 O 0.89566 0.29437 0.62653 0.0
O38 O 0.84775 0.2662 0.60952 0.0
C39 C 0.92853 0.2199 0.62564 0.0
Tb40 Tb 0.6415 0.87275 0.11967 0.0
C41 C 0.6891 0.89119 0.084 0.0
Tb42 Tb 0.70839 0.85832 0.11927 0.0
O43 O 0.67906 0.93336 0.1154 0.0
O44 O 0.69793 0.90082 0.12868 0.0
O45 O 0.65557 0.88192 0.09089 0.0
C46 C 0.7724 0.85649 0.116 0.0
O47 O 0.71479 0.88721 0.09326 0.0
C48 C 0.64126 0.79847 0.11821 0.0
C49 C 0.66789 0.85099 0.15648 0.0
O50 O 0.7415 0.83554 0.10708 0.0
O51 O 0.76746 0.87893 0.12669 0.0
O52 O 0.67031 0.79912 0.12553 0.0
O53 O 0.65132 0.82951 0.11048 0.0
O54 O 0.69962 0.85709 0.14852 0.0
O55 O 0.64023 0.85192 0.14739 0.0
C56 C 0.57207 0.86319 0.12073 0.0
O57 O 0.60138 0.8898 0.12897 0.0
O58 O 0.5819 0.84202 0.11192 0.0
C59 C 0.70813 0.93292 0.12222 0.0
Tb60 Tb 0.78104 0.64007 0.61996 0.0
C61 C 0.80835 0.68899 0.58464 0.0
Tb62 Tb 0.86166 0.70789 0.61926 0.0
O63 O 0.75655 0.67669 0.61651 0.0
O64 O 0.80866 0.69663 0.62907 0.0
O65 O 0.78536 0.65483 0.59127 0.0
C66 C 0.92667 0.77322 0.61697 0.0
O67 O 0.83751 0.71518 0.59402 0.0
C68 C 0.85651 0.64156 0.61743 0.0
C69 C 0.82932 0.6665 0.6564 0.0
O70 O 0.91386 0.74659 0.60486 0.0
O71 O 0.90262 0.76328 0.63022 0.0
O72 O 0.88512 0.67128 0.62419 0.0
O73 O 0.83431 0.65079 0.61033 0.0
O74 O 0.85325 0.69897 0.64847 0.0
O75 O 0.80197 0.63787 0.64721 0.0
C76 C 0.72059 0.57078 0.62086 0.0
O77 O 0.7244 0.59972 0.62991 0.0
O78 O 0.75086 0.58087 0.61136 0.0
C79 C 0.78598 0.70623 0.62306 0.0
Tb80 Tb 0.14323 0.77988 0.12166 0.0
C81 C 0.12345 0.8069 0.08575 0.0
Tb82 Tb 0.15675 0.86058 0.12038 0.0
O83 O 0.08231 0.75587 0.11746 0.0
O84 O 0.11448 0.80792 0.13017 0.0
O85 O 0.13389 0.78372 0.09281 0.0
C86 C 0.15749 0.92574 0.1169 0.0
O87 O 0.12657 0.83643 0.09482 0.0
C88 C 0.21742 0.85454 0.11944 0.0
C89 C 0.16365 0.8287 0.15806 0.0
O90 O 0.17505 0.91411 0.1064 0.0
O91 O 0.13909 0.90044 0.12925 0.0
O92 O 0.21639 0.88309 0.12632 0.0
O93 O 0.18623 0.83274 0.11199 0.0
O94 O 0.15648 0.85316 0.14969 0.0
O95 O 0.16443 0.80066 0.14926 0.0
C96 C 0.1534 0.72044 0.1227 0.0
O97 O 0.12641 0.72265 0.13082 0.0
O98 O 0.17457 0.75165 0.1141 0.0
C99 C 0.08236 0.78549 0.12389 0.0
Tb100 Tb 0.3738 0.14202 0.62178 0.0
C101 C 0.32353 0.1199 0.58692 0.0
Tb102 Tb 0.30607 0.1547 0.62178 0.0
O103 O 0.33754 0.08061 0.61871 0.0
O104 O 0.31743 0.11284 0.63102 0.0
O105 O 0.35803 0.1316 0.59322 0.0
C106 C 0.24032 0.1535 0.6222 0.0
O107 O 0.29751 0.12272 0.59655 0.0
C108 C 0.3722 0.21621 0.6191 0.0
C109 C 0.34818 0.16235 0.65851 0.0
O110 O 0.2605 0.15813 0.60777 0.0
O111 O 0.25688 0.14907 0.63618 0.0
O112 O 0.34247 0.21533 0.62562 0.0
O113 O 0.36278 0.18449 0.61233 0.0
O114 O 0.31519 0.15231 0.6508 0.0
O115 O 0.37712 0.16528 0.64903 0.0
C116 C 0.44329 0.1521 0.62176 0.0
O117 O 0.41487 0.12604 0.63072 0.0
O118 O 0.43255 0.17236 0.61285 0.0
C119 C 0.30786 0.08046 0.6251 0.0
Tb120 Tb 0.64255 0.77608 0.38827 0.0
C121 C 0.69013 0.80432 0.42395 0.0
Tb122 Tb 0.70939 0.85724 0.38901 0.0
O123 O 0.68003 0.75282 0.39211 0.0
O124 O 0.69906 0.80457 0.37918 0.0
O125 O 0.65658 0.78031 0.41702 0.0
C126 C 0.77374 0.92287 0.39224 0.0
O127 O 0.71591 0.83413 0.41479 0.0
C128 C 0.64246 0.85052 0.39043 0.0
C129 C 0.66844 0.825 0.35177 0.0
O130 O 0.74331 0.91265 0.40162 0.0
O131 O 0.76813 0.89588 0.38113 0.0
O132 O 0.67177 0.87909 0.38335 0.0
O133 O 0.65222 0.82898 0.39785 0.0
O134 O 0.70027 0.85038 0.35974 0.0
O135 O 0.64078 0.79631 0.36081 0.0
C136 C 0.57333 0.71562 0.38714 0.0
O137 O 0.5831 0.74616 0.39634 0.0
O138 O 0.60259 0.71911 0.37851 0.0
C139 C 0.70919 0.78244 0.38541 0.0
Tb140 Tb 0.87277 0.63926 0.88848 0.0
C141 C 0.89148 0.68598 0.92448 0.0
Tb142 Tb 0.85864 0.70616 0.88957 0.0
O143 O 0.93351 0.67669 0.8927 0.0
O144 O 0.90104 0.69593 0.87978 0.0
O145 O 0.88217 0.65264 0.91735 0.0
C146 C 0.85782 0.77061 0.89304 0.0
O147 O 0.88753 0.71192 0.91547 0.0
C148 C 0.79839 0.63918 0.89053 0.0
C149 C 0.85075 0.66638 0.85213 0.0
O150 O 0.83646 0.73972 0.90187 0.0
O151 O 0.88 0.76536 0.88233 0.0
O152 O 0.79923 0.66853 0.88346 0.0
O153 O 0.82958 0.64887 0.89807 0.0
O154 O 0.85812 0.69831 0.86029 0.0
O155 O 0.85045 0.63796 0.86107 0.0
C156 C 0.86438 0.57032 0.88691 0.0
O157 O 0.88995 0.59976 0.87833 0.0
O158 O 0.84358 0.57973 0.89633 0.0
C159 C 0.93318 0.70598 0.88613 0.0
Tb160 Tb 0.23774 0.87118 0.38877 0.0
C161 C 0.20927 0.88324 0.42757 0.0
Tb162 Tb 0.15505 0.85025 0.39356 0.0
O163 O 0.25201 0.92487 0.37546 0.0
O164 O 0.20795 0.89959 0.39405 0.0
O165 O 0.23513 0.87924 0.41836 0.0
C166 C 0.08708 0.84444 0.39263 0.0
O167 O 0.17752 0.87761 0.41978 0.0
C168 C 0.1702 0.79594 0.39933 0.0
C169 C 0.18626 0.847 0.3541 0.0
O170 O 0.11691 0.87001 0.3843 0.0
O171 O 0.0956 0.82231 0.4014 0.0
O172 O 0.14302 0.79797 0.40727 0.0
O173 O 0.18467 0.8215 0.38757 0.0
O174 O 0.16009 0.84956 0.36374 0.0
O175 O 0.21652 0.84885 0.36174 0.0
C176 C 0.30018 0.86626 0.39106 0.0
O177 O 0.29695 0.89161 0.3819 0.0
O178 O 0.26839 0.84399 0.39904 0.0
C179 C 0.22324 0.92555 0.38256 0.0
Tb180 Tb 0.37569 0.23208 0.88992 0.0
C181 C 0.32851 0.20577 0.92575 0.0
Tb182 Tb 0.30791 0.15152 0.89127 0.0
O183 O 0.33887 0.25631 0.89362 0.0
O184 O 0.3191 0.20413 0.88109 0.0
O185 O 0.36215 0.22904 0.91869 0.0
C186 C 0.24301 0.08665 0.8949 0.0
O187 O 0.3023 0.17586 0.91682 0.0
C188 C 0.37431 0.15695 0.89232 0.0
C189 C 0.3483 0.18212 0.85388 0.0
O190 O 0.27352 0.09655 0.90415 0.0
O191 O 0.24887 0.11353 0.88369 0.0
O192 O 0.34452 0.12853 0.88546 0.0
O193 O 0.36533 0.17913 0.89973 0.0
O194 O 0.31606 0.15817 0.862 0.0
O195 O 0.37692 0.21014 0.86277 0.0
C196 C 0.4452 0.29183 0.88834 0.0
O197 O 0.4162 0.28813 0.8794 0.0
O198 O 0.43501 0.26193 0.89811 0.0
C199 C 0.3094 0.22672 0.88712 0.0
Tb200 Tb 0.14495 0.36999 0.38653 0.0
C201 C 0.12489 0.32219 0.42209 0.0
Tb202 Tb 0.15738 0.30223 0.38699 0.0
O203 O 0.08404 0.33327 0.39064 0.0
O204 O 0.11581 0.31368 0.37728 0.0
O205 O 0.13563 0.35609 0.41529 0.0
C206 C 0.15668 0.2369 0.38893 0.0
O207 O 0.12798 0.29596 0.41283 0.0
C208 C 0.21854 0.36855 0.38858 0.0
C209 C 0.16654 0.34356 0.34992 0.0
O210 O 0.17826 0.26684 0.39837 0.0
O211 O 0.135 0.24354 0.37859 0.0
O212 O 0.21709 0.33915 0.38118 0.0
O213 O 0.18735 0.35917 0.39605 0.0
O214 O 0.15852 0.31124 0.35781 0.0
O215 O 0.16725 0.37194 0.35908 0.0
C216 C 0.15487 0.43945 0.38572 0.0
O217 O 0.12782 0.41025 0.37763 0.0
O218 O 0.17623 0.42949 0.39419 0.0
C219 C 0.08374 0.30396 0.38365 0.0
Tb220 Tb 0.78203 0.14135 0.88655 0.0
C221 C 0.80965 0.12294 0.92269 0.0
Tb222 Tb 0.8629 0.15501 0.88778 0.0
O223 O 0.75829 0.08059 0.89114 0.0
O224 O 0.81011 0.11261 0.8782 0.0
O225 O 0.78604 0.13266 0.91547 0.0
C226 C 0.92854 0.15666 0.89177 0.0
O227 O 0.8394 0.12633 0.91372 0.0
C228 C 0.85661 0.21552 0.88805 0.0
C229 C 0.83067 0.16085 0.85005 0.0
O230 O 0.91822 0.17744 0.90057 0.0
O231 O 0.90166 0.13453 0.88079 0.0
O232 O 0.88488 0.2141 0.88103 0.0
O233 O 0.83505 0.18474 0.89591 0.0
O234 O 0.85524 0.15384 0.85844 0.0
O235 O 0.80279 0.16196 0.85886 0.0
C236 C 0.72202 0.15072 0.88516 0.0
O237 O 0.72495 0.12421 0.87696 0.0
O238 O 0.7529 0.17195 0.89403 0.0
C239 C 0.78788 0.08065 0.88467 0.0
C240 C 0.18034 0.98768 0.10157 0.0
C241 C 0.16153 0.96348 0.11619 0.0
C242 C 0.18675 0.02452 0.10153 0.0
C243 C 0.21763 0.10714 0.10979 0.0
H244 H 0.14489 0.13041 0.13077 0.0
C245 C 0.25163 0.26073 0.12171 0.0
C246 C 0.22216 0.26835 0.11933 0.0
C247 C 0.24445 0.22355 0.12124 0.0
C248 C 0.1654 0.12446 0.12466 0.0
H249 H 0.13426 0.95835 0.14214 0.0
H250 H 0.14629 0.02291 0.1424 0.0
H251 H 0.13037 0.06536 0.12925 0.0
H252 H 0.16307 0.24381 0.11316 0.0
H253 H 0.15023 0.17929 0.11206 0.0
H254 H 0.252 0.16614 0.10453 0.0
C255 C 0.15542 0.01342 0.13072 0.0
C256 C 0.15728 0.08708 0.12404 0.0
C257 C 0.14863 0.97644 0.13064 0.0
C258 C 0.18579 0.2385 0.11587 0.0
C259 C 0.1786 0.20149 0.11515 0.0
C260 C 0.22559 0.14452 0.11023 0.0
C261 C 0.17487 0.03808 0.11624 0.0
C262 C 0.18329 0.07789 0.11663 0.0
C263 C 0.20772 0.1934 0.11804 0.0
C264 C 0.19958 0.15368 0.11768 0.0
H265 H 0.19043 0.97826 0.09022 0.0
H266 H 0.20109 0.04237 0.08997 0.0
H267 H 0.23864 0.10129 0.10423 0.0
H268 H 0.28006 0.28342 0.12429 0.0
H269 H 0.26757 0.21846 0.12367 0.0
C270 C 0.19411 0.16272 0.64007 0.0
C271 C 0.20625 0.15677 0.62315 0.0
C272 C 0.16329 0.16834 0.64113 0.0
C273 C 0.07617 0.14726 0.61971 0.0
H274 H 0.09107 0.24072 0.64057 0.0
C275 C 0.96358 0.19029 0.61297 0.0
C276 C 0.95941 0.21151 0.62682 0.0
C277 C 0.99308 0.1827 0.61344 0.0
C278 C 0.08611 0.21413 0.63504 0.0
H279 H 0.19547 0.15103 0.59413 0.0
H280 H 0.14035 0.15958 0.59607 0.0
H281 H 0.14343 0.22835 0.63959 0.0
H282 H 0.98217 0.24089 0.65223 0.0
H283 H 0.03319 0.22627 0.65358 0.0
H284 H 0.01873 0.13206 0.6157 0.0
C285 C 0.15514 0.16038 0.60843 0.0
C286 C 0.11621 0.20726 0.63436 0.0
C287 C 0.18654 0.15556 0.60732 0.0
C288 C 0.985 0.22463 0.64135 0.0
C289 C 0.0143 0.21641 0.64201 0.0
C290 C 0.04585 0.1537 0.62073 0.0
C291 C 0.14364 0.16729 0.62532 0.0
C292 C 0.11155 0.17401 0.62648 0.0
C293 C 0.01882 0.19547 0.62798 0.0
C294 C 0.05052 0.18751 0.62814 0.0
H295 H 0.20895 0.16389 0.65247 0.0
H296 H 0.15473 0.17343 0.65429 0.0
H297 H 0.0719 0.12118 0.6138 0.0
H298 H 0.94445 0.1801 0.60149 0.0
H299 H 0.99601 0.1674 0.60213 0.0
C300 C 0.75737 0.99399 0.10904 0.0
C301 C 0.74742 0.96384 0.12104 0.0
C302 C 0.79488 0.02292 0.10766 0.0
C303 C 0.88386 0.06888 0.13315 0.0
H304 H 0.92913 0.10773 0.08596 0.0
C305 C 0.0412 0.17956 0.12616 0.0
C306 C 0.05051 0.20892 0.11375 0.0
C307 C 1.00494 0.14812 0.12636 0.0
C308 C 0.91681 0.09747 0.09925 0.0
H309 H 0.76831 0.94022 0.14114 0.0
H310 H 0.8339 0.99069 0.13874 0.0
H311 H 0.86403 0.05618 0.08776 0.0
H312 H 0.02977 0.22841 0.09161 0.0
H313 H 0.96621 0.17393 0.09215 0.0
H314 H 0.93618 0.11046 0.14471 0.0
C315 C 0.81283 0.99209 0.13042 0.0
C316 C 0.87953 0.06792 0.10027 0.0
C317 C 0.7754 0.96309 0.1317 0.0
C318 C 0.02328 0.20603 0.10128 0.0
C319 C 0.98694 0.17472 0.10154 0.0
C320 C 0.92102 0.09854 0.13215 0.0
C321 C 0.82298 0.02232 0.11839 0.0
C322 C 0.86266 0.05337 0.11723 0.0
C323 C 0.97719 0.14555 0.11422 0.0
C324 C 0.93796 0.11326 0.11519 0.0
H325 H 0.73625 0.99507 0.10061 0.0
H326 H 0.8018 0.04603 0.09839 0.0
H327 H 0.87144 0.05861 0.14643 0.0
H328 H 0.06182 0.18105 0.13584 0.0
H329 H 0.99862 0.12588 0.13607 0.0
C330 C 0.82412 0.77438 0.63141 0.0
C331 C 0.79278 0.74513 0.62254 0.0
C332 C 0.83089 0.81136 0.63068 0.0
C333 C 0.78311 0.866 0.62273 0.0
H334 H 0.88413 0.94939 0.61436 0.0
C335 C 0.81064 0.01556 0.60808 0.0
C336 C 0.84258 0.0461 0.61588 0.0
C337 C 0.80545 0.97923 0.60895 0.0
C338 C 0.85583 0.9265 0.61694 0.0
H339 H 0.74388 0.73139 0.60596 0.0
H340 H 0.75553 0.79594 0.60471 0.0
H341 H 0.87326 0.8852 0.61582 0.0
H342 H 0.89434 0.06285 0.63062 0.0
H343 H 0.88507 0.99912 0.63245 0.0
H344 H 0.76561 0.90708 0.62402 0.0
C345 C 0.77479 0.79035 0.61234 0.0
C346 C 0.8496 0.88969 0.61775 0.0
C347 C 0.76816 0.75341 0.61301 0.0
C348 C 0.86948 0.03975 0.62447 0.0
C349 C 0.86423 1.00328 0.62541 0.0
C350 C 0.78934 0.90275 0.62201 0.0
C351 C 0.80626 0.81977 0.62116 0.0
C352 C 0.81312 0.85899 0.62055 0.0
C353 C 0.83199 0.97251 0.61775 0.0
C354 C 0.82574 0.93349 0.61898 0.0
H355 H 0.84321 0.76864 0.63908 0.0
H356 H 0.85508 0.83326 0.63782 0.0
H357 H 0.75478 0.84306 0.62524 0.0
H358 H 0.78955 0.0197 0.60128 0.0
H359 H 0.78068 0.95642 0.60259 0.0
C360 C 0.05219 0.82316 0.13252 0.0
C361 C 0.05096 0.79322 0.12267 0.0
C362 C 0.02284 0.83108 0.13115 0.0
C363 C 0.92252 0.78786 0.11794 0.0
H364 H 0.94428 0.89144 0.11675 0.0
C365 C 0.80661 0.82495 0.1041 0.0
C366 C 0.80626 0.85257 0.11528 0.0
C367 C 0.83734 0.81902 0.10431 0.0
C368 C 0.93774 0.86238 0.11722 0.0
H369 H 0.01841 0.74816 0.10359 0.0
H370 H 0.96715 0.76206 0.10103 0.0
H371 H 0.99603 0.87822 0.1184 0.0
H372 H 0.838 0.89633 0.13509 0.0
H373 H 0.89188 0.88598 0.1355 0.0
H374 H 0.86428 0.77201 0.11676 0.0
C375 C 0.9905 0.77917 0.11003 0.0
C376 C 0.96738 0.85477 0.11819 0.0
C377 C 0.01985 0.77122 0.11145 0.0
C378 C 0.83762 0.87488 0.12632 0.0
C379 C 0.86848 0.86902 0.12649 0.0
C380 C 0.89293 0.79546 0.11692 0.0
C381 C 0.9916 0.8092 0.11988 0.0
C382 C 0.96014 0.8174 0.11859 0.0
C383 C 0.86845 0.84065 0.11567 0.0
C384 C 0.90015 0.8328 0.11657 0.0
H385 H 0.07565 0.84022 0.14146 0.0
H386 H 0.02436 0.85399 0.13917 0.0
H387 H 0.91584 0.75877 0.11855 0.0
H388 H 0.78283 0.80743 0.09541 0.0
H389 H 0.83666 0.79738 0.09559 0.0
C390 C 0.98615 0.81825 0.60082 0.0
C391 C 0.96453 0.80699 0.61683 0.0
C392 C 0.0231 0.84869 0.60106 0.0
C393 C 0.10439 0.89667 0.63025 0.0
H394 H 0.13858 0.98308 0.59832 0.0
C395 C 0.26157 0.01212 0.62003 0.0
C396 C 0.2688 0.04873 0.62382 0.0
C397 C 0.22443 0.98219 0.61875 0.0
C398 C 0.12935 0.959 0.60724 0.0
H399 H 0.96421 0.81865 0.64559 0.0
H400 H 0.02926 0.87122 0.64611 0.0
H401 H 0.07284 0.9316 0.59679 0.0
H402 H 0.24316 0.08283 0.62895 0.0
H403 H 0.17832 0.03091 0.62609 0.0
H404 H 0.16102 0.92372 0.64048 0.0
C405 C 0.01745 0.85675 0.63337 0.0
C406 C 0.09192 0.92964 0.60634 0.0
C407 C 0.98026 0.82688 0.63304 0.0
C408 C 0.23836 0.05496 0.62607 0.0
C409 C 0.20132 0.0253 0.62435 0.0
C410 C 0.14201 0.92561 0.63086 0.0
C411 C 0.03925 0.86775 0.61741 0.0
C412 C 0.07905 0.89843 0.61797 0.0
C413 C 0.19403 0.98863 0.62079 0.0
C414 C 0.15469 0.95717 0.61949 0.0
H415 H 0.97462 0.80329 0.58815 0.0
H416 H 0.03944 0.85665 0.5886 0.0
H417 H 0.09512 0.87275 0.63928 0.0
H418 H 0.28458 0.00658 0.61821 0.0
H419 H 0.21943 0.9541 0.61595 0.0
C420 C 0.04254 0.86545 0.38192 0.0
C421 C 0.0493 0.84049 0.39211 0.0
C422 C 1.0064 0.86105 0.38133 0.0
C423 C 0.91541 0.81675 0.40603 0.0
H424 H 0.87468 0.82566 0.35989 0.0
C425 C 0.75768 0.76762 0.39677 0.0
C426 C 0.74834 0.79002 0.38603 0.0
C427 C 0.79492 0.77521 0.39764 0.0
C428 C 0.88579 0.82355 0.37293 0.0
H429 H 0.02391 0.79154 0.40971 0.0
H430 H 0.96092 0.78367 0.40862 0.0
H431 H 0.93901 0.83701 0.36128 0.0
H432 H 0.77014 0.83732 0.36747 0.0
H433 H 0.83537 0.85122 0.36926 0.0
H434 H 0.86224 0.80319 0.41769 0.0
C435 C 0.98345 0.8069 0.40124 0.0
C436 C 0.92268 0.83007 0.37372 0.0
C437 C 0.01948 0.81125 0.40178 0.0
C438 C 0.77675 0.81995 0.37605 0.0
C439 C 0.81401 0.82761 0.37692 0.0
C440 C 0.87858 0.8103 0.40525 0.0
C441 C 0.97643 0.83169 0.39099 0.0
C442 C 0.93782 0.82644 0.39026 0.0
C443 C 0.82358 0.80536 0.38776 0.0
C444 C 0.86319 0.81332 0.38866 0.0
H445 H 0.06513 0.8883 0.37438 0.0
H446 H 1.002 0.88084 0.37346 0.0
H447 H 0.92644 0.81435 0.41904 0.0
H448 H 0.73625 0.74434 0.40459 0.0
H449 H 0.80116 0.75716 0.40591 0.0
C450 C 0.96359 0.77364 0.87711 0.0
C451 C 0.96432 0.74522 0.88742 0.0
C452 C 0.99277 0.811 0.87856 0.0
C453 C 0.09221 0.86848 0.89304 0.0
H454 H 0.0705 0.95034 0.89281 0.0
C455 C 0.20746 0.02144 0.90733 0.0
C456 C 0.20877 0.04918 0.89569 0.0
C457 C 0.17653 0.98489 0.90707 0.0
C458 C 0.07702 0.92779 0.89274 0.0
H459 H 0.99577 0.73328 0.90738 0.0
H460 H 0.0467 0.79858 0.91008 0.0
H461 H 0.01881 0.88528 0.89087 0.0
H462 H 0.17846 0.06101 0.87502 0.0
H463 H 0.12422 0.99696 0.8745 0.0
H464 H 0.15036 0.91089 0.8949 0.0
C465 C 0.02391 0.79206 0.90066 0.0
C466 C 0.04742 0.89051 0.89161 0.0
C467 C 0.99474 0.75469 0.89917 0.0
C468 C 0.17808 0.04009 0.88415 0.0
C469 C 0.14702 1.00349 0.88391 0.0
C470 C 0.12174 0.90568 0.89422 0.0
C471 C 0.02332 0.8207 0.89036 0.0
C472 C 0.05467 0.86039 0.89173 0.0
C473 C 0.14619 0.97532 0.89517 0.0
C474 C 0.11452 0.93579 0.89409 0.0
H475 H 0.94068 0.7669 0.86774 0.0
H476 H 0.99169 0.83218 0.8702 0.0
H477 H 0.0989 0.84606 0.89282 0.0
H478 H 0.23071 0.02775 0.91641 0.0
H479 H 0.17649 0.96403 0.91612 0.0
C480 C 0.18774 0.2008 0.39852 0.0
C481 C 0.15994 0.20277 0.38825 0.0
C482 C 0.19333 0.17004 0.39668 0.0
C483 C 0.21519 0.11515 0.38105 0.0
H484 H 0.13079 0.01294 0.37924 0.0
C485 C 0.23488 0.98645 0.36887 0.0
C486 C 0.21448 0.95615 0.38077 0.0
C487 C 0.2272 0.01609 0.36804 0.0
C488 C 0.15465 0.04135 0.37972 0.0
H489 H 0.11554 0.17398 0.36835 0.0
H490 H 0.12522 0.12003 0.36512 0.0
H491 H 0.11909 0.06553 0.3821 0.0
H492 H 0.17014 0.9329 0.40109 0.0
H493 H 0.15667 0.98416 0.39959 0.0
H494 H 0.25076 0.09092 0.37916 0.0
C495 C 0.14262 0.14216 0.37464 0.0
C496 C 0.14794 0.07146 0.38122 0.0
C497 C 0.13711 0.17303 0.37646 0.0
C498 C 0.18601 0.95566 0.39161 0.0
C499 C 0.1782 0.98501 0.39071 0.0
C500 C 0.2219 0.08505 0.37949 0.0
C501 C 0.17117 0.14061 0.38455 0.0
C502 C 0.17815 0.10866 0.38215 0.0
C503 C 0.19886 0.01571 0.37903 0.0
C504 C 0.19171 0.04779 0.37905 0.0
H505 H 0.2057 0.22337 0.40773 0.0
H506 H 0.21509 0.16934 0.40474 0.0
H507 H 0.23905 0.14356 0.38147 0.0
H508 H 0.25697 0.98745 0.36037 0.0
H509 H 0.24342 0.0393 0.35882 0.0
C510 C 0.24193 0.18977 0.87775 0.0
C511 C 0.2703 0.2192 0.88799 0.0
C512 C 0.20466 0.18197 0.87881 0.0
C513 C 0.14731 0.22494 0.89188 0.0
H514 H 0.06516 0.12141 0.89207 0.0
C515 C 0.99376 0.18777 0.90434 0.0
C516 C 0.96624 0.1605 0.89286 0.0
C517 C 0.03039 0.19363 0.90447 0.0
C518 C 0.08778 0.15046 0.89187 0.0
H519 H 0.28222 0.26356 0.9074 0.0
H520 H 0.21702 0.24988 0.90942 0.0
H521 H 0.13015 0.13453 0.89092 0.0
H522 H 0.95499 0.11729 0.87285 0.0
H523 H 0.01918 0.12754 0.87301 0.0
H524 H 0.10499 0.24088 0.89282 0.0
C525 C 0.22354 0.23306 0.90037 0.0
C526 C 0.12504 0.15801 0.89119 0.0
C527 C 0.26086 0.24088 0.89926 0.0
C528 C 0.97571 0.13846 0.88185 0.0
C529 C 0.0124 0.14426 0.882 0.0
C530 C 0.1101 0.21739 0.8926 0.0
C531 C 0.19496 0.20349 0.89015 0.0
C532 C 0.15528 0.19536 0.89115 0.0
C533 C 0.04031 0.17229 0.89314 0.0
C534 C 0.07987 0.18008 0.89259 0.0
H535 H 0.24863 0.17302 0.86873 0.0
H536 H 0.18355 0.15944 0.87051 0.0
H537 H 0.16984 0.25402 0.89154 0.0
H538 H 0.98716 0.20507 0.91302 0.0
H539 H 0.05102 0.215 0.91342 0.0
C540 C 0.05234 0.23651 0.37411 0.0
C541 C 0.05224 0.26484 0.3848 0.0
C542 C 0.02302 0.1992 0.37551 0.0
C543 C 0.92404 0.1417 0.39068 0.0
H544 H 0.94561 0.05978 0.38941 0.0
C545 C 0.80892 0.98826 0.40459 0.0
C546 C 0.80771 0.9606 0.39289 0.0
C547 C 0.83969 0.02493 0.4043 0.0
C548 C 0.9391 0.08233 0.38963 0.0
H549 H 0.02166 0.27667 0.40534 0.0
H550 H 0.97042 0.21146 0.40791 0.0
H551 H 0.99728 0.12481 0.3875 0.0
H552 H 0.83797 0.94912 0.37202 0.0
H553 H 0.89185 0.01334 0.37142 0.0
H554 H 0.86591 0.09929 0.39277 0.0
C555 C 0.99287 0.21802 0.39827 0.0
C556 C 0.9687 0.11961 0.38852 0.0
C557 C 0.02221 0.25534 0.39683 0.0
C558 C 0.83827 0.96995 0.38121 0.0
C559 C 0.86915 0.00667 0.38093 0.0
C560 C 0.89449 0.10447 0.39182 0.0
C561 C 0.99291 0.18946 0.38762 0.0
C562 C 0.96152 0.14976 0.38901 0.0
C563 C 0.86996 0.03473 0.3923 0.0
C564 C 0.90163 0.07431 0.3913 0.0
H565 H 0.0749 0.24326 0.3645 0.0
H566 H 0.02366 0.17809 0.36688 0.0
H567 H 0.9174 0.16416 0.39078 0.0
H568 H 0.78576 0.98176 0.41378 0.0
H569 H 0.83969 0.04567 0.41345 0.0
C570 C 0.82715 0.80573 0.90486 0.0
C571 C 0.85464 0.80484 0.89381 0.0
C572 C 0.82201 0.83694 0.90462 0.0
C573 C 0.83802 0.91664 0.87537 0.0
H574 H 0.8142 0.95333 0.91921 0.0
C575 C 0.82536 0.05057 0.87575 0.0
C576 C 0.79574 0.04937 0.88586 0.0
C577 C 0.83363 0.0215 0.87711 0.0
C578 C 0.82045 0.94316 0.90683 0.0
H579 H 0.89912 0.83614 0.87425 0.0
H580 H 0.89054 0.89103 0.87397 0.0
H581 H 0.82805 0.90207 0.92123 0.0
H582 H 0.75136 0.01703 0.90529 0.0
H583 H 0.76543 0.96576 0.90755 0.0
H584 H 0.83025 0.95756 0.86095 0.0
C585 C 0.8725 0.86737 0.88261 0.0
C586 C 0.82844 0.91382 0.90798 0.0
C587 C 0.87761 0.8361 0.88285 0.0
C588 C 0.77432 0.01851 0.89732 0.0
C589 C 0.78261 0.9894 0.89872 0.0
C590 C 0.83008 0.94598 0.87422 0.0
C591 C 0.84431 0.86796 0.89332 0.0
C592 C 0.8372 0.90012 0.89226 0.0
C593 C 0.81237 0.99056 0.88862 0.0
C594 C 0.82109 0.95952 0.88992 0.0
H595 H 0.80898 0.78192 0.91339 0.0
H596 H 0.79977 0.83624 0.91287 0.0
H597 H 0.84396 0.90633 0.86295 0.0
H598 H 0.84204 0.0739 0.86668 0.0
H599 H 0.85696 0.02348 0.86929 0.0
C600 C 0.13258 0.65408 0.13152 0.0
C601 C 0.1581 0.68706 0.12231 0.0
C602 C 0.13583 0.62181 0.13034 0.0
C603 C 0.20134 0.58749 0.11835 0.0
H604 H 0.10836 0.49222 0.11302 0.0
C605 C 0.19301 0.4423 0.10548 0.0
C606 C 0.16576 0.41249 0.11601 0.0
C607 C 0.19494 0.47749 0.1056 0.0
C608 C 0.13459 0.51858 0.1146 0.0
H609 H 0.20753 0.71268 0.10498 0.0
H610 H 0.21303 0.6561 0.10274 0.0
H611 H 0.10624 0.55034 0.11478 0.0
H612 H 0.1201 0.39625 0.1353 0.0
H613 H 0.12343 0.457 0.13549 0.0
H614 H 0.22954 0.55524 0.11818 0.0
C615 C 0.1907 0.6552 0.111 0.0
C616 C 0.13336 0.5519 0.11568 0.0
C617 C 0.18744 0.68752 0.11221 0.0
C618 C 0.14116 0.41858 0.12688 0.0
C619 C 0.14295 0.45338 0.12695 0.0
C620 C 0.20257 0.55399 0.11723 0.0
C621 C 0.16462 0.6218 0.11987 0.0
C622 C 0.16661 0.58672 0.11789 0.0
C623 C 0.16939 0.48307 0.11611 0.0
C624 C 0.16909 0.51913 0.11568 0.0
H625 H 0.10983 0.65306 0.13948 0.0
H626 H 0.11569 0.59678 0.13762 0.0
H627 H 0.22746 0.61386 0.1201 0.0
H628 H 0.21221 0.43822 0.09692 0.0
H629 H 0.2156 0.49991 0.0971 0.0
C630 C 0.73687 0.15105 0.59561 0.0
C631 C 0.76616 0.17238 0.60788 0.0
C632 C 0.70322 0.15178 0.59646 0.0
C633 C 0.65905 0.20454 0.6147 0.0
H634 H 0.56762 0.1071 0.61221 0.0
C635 C 0.48925 0.13166 0.63018 0.0
C636 C 0.48135 0.15698 0.6211 0.0
C637 C 0.52492 0.1353 0.62881 0.0
C638 C 0.59288 0.13449 0.61307 0.0
H639 H 0.78407 0.21237 0.63017 0.0
H640 H 0.7252 0.21365 0.63169 0.0
H641 H 0.62857 0.1111 0.60869 0.0
H642 H 0.50439 0.2064 0.60381 0.0
H643 H 0.56673 0.21269 0.60131 0.0
H644 H 0.62319 0.2278 0.6194 0.0
C645 C 0.72825 0.1965 0.62136 0.0
C646 C 0.62779 0.13685 0.61081 0.0
C647 C 0.7619 0.1957 0.62052 0.0
C648 C 0.50984 0.18648 0.61093 0.0
C649 C 0.54554 0.1902 0.60959 0.0
C650 C 0.62405 0.2022 0.61691 0.0
C651 C 0.69825 0.17391 0.60959 0.0
C652 C 0.66126 0.17188 0.61159 0.0
C653 C 0.55334 0.16439 0.61835 0.0
C654 C 0.5906 0.16711 0.61616 0.0
H655 H 0.73957 0.13302 0.58566 0.0
H656 H 0.68086 0.1346 0.587 0.0
H657 H 0.68435 0.23195 0.61529 0.0
H658 H 0.46775 0.10876 0.63816 0.0
H659 H 0.53024 0.1153 0.63592 0.0
C660 C 0.59404 0.73883 0.13273 0.0
C661 C 0.6028 0.76584 0.11908 0.0
C662 C 0.55895 0.70604 0.13309 0.0
C663 C 0.49673 0.62888 0.12329 0.0
H664 H 0.40257 0.62296 0.10967 0.0
C665 C 0.36377 0.48607 0.11125 0.0
C666 C 0.32929 0.48109 0.11759 0.0
C667 C 0.39583 0.5218 0.11105 0.0
C668 C 0.42858 0.62419 0.11367 0.0
H669 H 0.58164 0.78053 0.09534 0.0
H670 H 0.52015 0.72242 0.09562 0.0
H671 H 0.46033 0.68433 0.11091 0.0
H672 H 0.30092 0.50943 0.12847 0.0
H673 H 0.35737 0.57207 0.12862 0.0
H674 H 0.46525 0.56923 0.12661 0.0
C675 C 0.5402 0.72691 0.10628 0.0
C676 C 0.46177 0.65933 0.11416 0.0
C677 C 0.57538 0.76012 0.10607 0.0
C678 C 0.32728 0.51258 0.12356 0.0
C679 C 0.35953 0.54844 0.1235 0.0
C680 C 0.46369 0.59398 0.12291 0.0
C681 C 0.53191 0.69909 0.11959 0.0
C682 C 0.49626 0.66208 0.11902 0.0
C683 C 0.3943 0.55342 0.11738 0.0
C684 C 0.42919 0.59106 0.118 0.0
H685 H 0.61456 0.74286 0.14309 0.0
H686 H 0.55323 0.68584 0.14386 0.0
H687 H 0.52279 0.62971 0.12676 0.0
H688 H 0.366 0.4623 0.10639 0.0
H689 H 0.42185 0.52462 0.10586 0.0
C690 C 0.87645 0.59727 0.62879 0.0
C691 C 0.85269 0.60379 0.61751 0.0
C692 C 0.8746 0.56237 0.62883 0.0
C693 C 0.84465 0.47705 0.601 0.0
H694 H 0.85987 0.43777 0.64624 0.0
C695 C 0.83844 0.33255 0.6064 0.0
C696 C 0.86672 0.33196 0.61694 0.0
C697 C 0.83428 0.36442 0.60627 0.0
C698 C 0.85586 0.4485 0.63347 0.0
H699 H 0.8087 0.57911 0.59717 0.0
H700 H 0.80466 0.51734 0.59749 0.0
H701 H 0.85518 0.49468 0.64664 0.0
H702 H 0.91294 0.36411 0.63552 0.0
H703 H 0.90575 0.4198 0.63533 0.0
H704 H 0.8454 0.43067 0.58788 0.0
C705 C 0.82491 0.53943 0.60628 0.0
C706 C 0.85316 0.48114 0.63369 0.0
C707 C 0.82684 0.57458 0.60624 0.0
C708 C 0.89087 0.36382 0.62729 0.0
C709 C 0.88658 0.39558 0.62726 0.0
C710 C 0.84716 0.44421 0.60081 0.0
C711 C 0.84887 0.53295 0.61758 0.0
C712 C 0.84819 0.49625 0.61742 0.0
C713 C 0.85814 0.39621 0.6168 0.0
C714 C 0.85342 0.42992 0.61702 0.0
H715 H 0.8968 0.61934 0.63757 0.0
H716 H 0.89401 0.55877 0.63744 0.0
H717 H 0.84122 0.48808 0.5882 0.0
H718 H 0.81935 0.30827 0.59833 0.0
H719 H 0.81193 0.3639 0.59819 0.0
C720 C 0.50492 0.83005 0.11043 0.0
C721 C 0.53382 0.85817 0.12104 0.0
C722 C 0.46884 0.8258 0.11044 0.0
C723 C 0.40606 0.8474 0.13745 0.0
H724 H 0.35511 0.83728 0.09156 0.0
C725 C 0.2805 0.87227 0.13184 0.0
C726 C 0.25093 0.85 0.11987 0.0
C727 C 0.31304 0.86946 0.13223 0.0
C728 C 0.3686 0.83942 0.10452 0.0
H729 H 0.5478 0.90364 0.1401 0.0
H730 H 0.48481 0.89619 0.14022 0.0
H731 H 0.41573 0.83946 0.09183 0.0
H732 H 0.23244 0.80789 0.09859 0.0
H733 H 0.28902 0.80197 0.09959 0.0
H734 H 0.35916 0.84744 0.15019 0.0
C735 C 0.48988 0.87728 0.13195 0.0
C736 C 0.40341 0.84077 0.10467 0.0
C737 C 0.52599 0.8817 0.13181 0.0
C738 C 0.25448 0.82476 0.10824 0.0
C739 C 0.28711 0.82181 0.10865 0.0
C740 C 0.37121 0.84582 0.13733 0.0
C741 C 0.46092 0.84938 0.12121 0.0
C742 C 0.42281 0.8454 0.12111 0.0
C743 C 0.31685 0.84423 0.12065 0.0
C744 C 0.35232 0.84249 0.12084 0.0
H745 H 0.51023 0.81147 0.10202 0.0
H746 H 0.44705 0.80385 0.10216 0.0
H747 H 0.41996 0.85026 0.15038 0.0
H748 H 0.27862 0.89215 0.14089 0.0
H749 H 0.33557 0.88774 0.14137 0.0
C750 C 0.65514 0.52568 0.63129 0.0
C751 C 0.68661 0.53296 0.62074 0.0
C752 C 0.62236 0.49039 0.63067 0.0
C753 C 0.58508 0.39043 0.61757 0.0
H754 H 0.48963 0.38866 0.61753 0.0
C755 C 0.43887 0.25374 0.60739 0.0
C756 C 0.40995 0.2503 0.61891 0.0
C757 C 0.47385 0.28727 0.60709 0.0
C758 C 0.51602 0.3886 0.61768 0.0
H759 H 0.70888 0.50897 0.60149 0.0
H760 H 0.6514 0.44728 0.60023 0.0
H761 H 0.54816 0.44875 0.61815 0.0
H762 H 0.39498 0.27873 0.63933 0.0
H763 H 0.45551 0.33676 0.63886 0.0
H764 H 0.55252 0.32998 0.61708 0.0
C765 C 0.65211 0.4687 0.60913 0.0
C766 C 0.54963 0.4231 0.61808 0.0
C767 C 0.68495 0.50408 0.60977 0.0
C768 C 0.41667 0.28066 0.63021 0.0
C769 C 0.45134 0.314 0.62989 0.0
C770 C 0.5513 0.35576 0.61713 0.0
C771 C 0.62024 0.46154 0.61943 0.0
C772 C 0.58462 0.42452 0.61828 0.0
C773 C 0.48024 0.31797 0.61819 0.0
C774 C 0.51638 0.35448 0.61746 0.0
H775 H 0.65572 0.54738 0.63995 0.0
H776 H 0.59865 0.48569 0.63905 0.0
H777 H 0.61151 0.39046 0.61782 0.0
H778 H 0.43414 0.23103 0.59827 0.0
H779 H 0.49546 0.28956 0.59783 0.0
C780 C 0.36563 0.88555 0.381 0.0
C781 C 0.33391 0.86211 0.3916 0.0
C782 C 0.39704 0.88069 0.38098 0.0
C783 C 0.44562 0.84159 0.40757 0.0
H784 H 0.4939 0.84635 0.36146 0.0
C785 C 0.57574 0.82087 0.40199 0.0
C786 C 0.60447 0.84617 0.39036 0.0
C787 C 0.54046 0.81871 0.40203 0.0
C788 C 0.48096 0.84522 0.37448 0.0
H789 H 0.31014 0.81546 0.41061 0.0
H790 H 0.36524 0.8071 0.41069 0.0
H791 H 0.43734 0.85166 0.36202 0.0
H792 H 0.61903 0.88895 0.36968 0.0
H793 H 0.55831 0.88577 0.36995 0.0
H794 H 0.48982 0.83605 0.42007 0.0
C795 C 0.36587 0.82929 0.40244 0.0
C796 C 0.44852 0.84827 0.37479 0.0
C797 C 0.33432 0.834 0.40235 0.0
C798 C 0.59734 0.86904 0.37875 0.0
C799 C 0.56234 0.86696 0.37879 0.0
C800 C 0.47829 0.83876 0.40728 0.0
C801 C 0.39747 0.8524 0.39163 0.0
C802 C 0.43079 0.84707 0.39135 0.0
C803 C 0.53342 0.84187 0.39044 0.0
C804 C 0.49672 0.84117 0.39074 0.0
H805 H 0.36605 0.90746 0.3726 0.0
H806 H 0.42115 0.89928 0.3727 0.0
H807 H 0.4327 0.84075 0.42056 0.0
H808 H 0.58075 0.8034 0.41131 0.0
H809 H 0.51876 0.79895 0.41113 0.0
C810 C 0.73582 0.59337 0.87779 0.0
C811 C 0.76527 0.60088 0.88986 0.0
C812 C 0.70356 0.55782 0.87722 0.0
C813 C 0.64796 0.47234 0.90474 0.0
H814 H 0.59791 0.43098 0.85868 0.0
C815 C 0.51205 0.32652 0.89899 0.0
C816 C 0.48344 0.32507 0.88791 0.0
C817 C 0.54808 0.35841 0.89896 0.0
C818 C 0.61142 0.44226 0.87166 0.0
H819 H 0.78399 0.57736 0.91104 0.0
H820 H 0.72773 0.51455 0.90981 0.0
H821 H 0.65855 0.48924 0.85906 0.0
H822 H 0.46995 0.35547 0.86802 0.0
H823 H 0.53284 0.41123 0.86795 0.0
H824 H 0.60057 0.42537 0.91733 0.0
C825 C 0.72955 0.5363 0.90081 0.0
C826 C 0.64619 0.47566 0.87189 0.0
C827 C 0.76196 0.57207 0.90137 0.0
C828 C 0.49154 0.35585 0.87666 0.0
C829 C 0.5276 0.38766 0.87655 0.0
C830 C 0.61321 0.4388 0.9045 0.0
C831 C 0.6999 0.52881 0.88874 0.0
C832 C 0.66461 0.49148 0.88845 0.0
C833 C 0.55626 0.38939 0.88777 0.0
C834 C 0.59427 0.4237 0.88798 0.0
H835 H 0.73756 0.61514 0.8688 0.0
H836 H 0.68107 0.55337 0.868 0.0
H837 H 0.66111 0.48393 0.91775 0.0
H838 H 0.50654 0.30307 0.90776 0.0
H839 H 0.56961 0.35871 0.90761 0.0
C840 C 0.15257 0.73257 0.41158 0.0
C841 C 0.17423 0.7622 0.39954 0.0
C842 C 0.15323 0.6989 0.41054 0.0
C843 C 0.20632 0.65512 0.39203 0.0
H844 H 0.10915 0.56347 0.39495 0.0
C845 C 0.13352 0.48479 0.37738 0.0
C846 C 0.15958 0.47747 0.38614 0.0
C847 C 0.13698 0.52041 0.3786 0.0
C848 C 0.13647 0.58878 0.39394 0.0
H849 H 0.21467 0.78062 0.37744 0.0
H850 H 0.21573 0.72168 0.37555 0.0
H851 H 0.11289 0.62427 0.39844 0.0
H852 H 0.21008 0.50153 0.4027 0.0
H853 H 0.216 0.5637 0.40499 0.0
H854 H 0.22975 0.61947 0.38718 0.0
C855 C 0.19841 0.72448 0.38587 0.0
C856 C 0.13869 0.62364 0.3962 0.0
C857 C 0.19773 0.75819 0.38691 0.0
C858 C 0.1896 0.5065 0.39582 0.0
C859 C 0.1931 0.54213 0.39704 0.0
C860 C 0.20411 0.62018 0.3898 0.0
C861 C 0.17556 0.69418 0.39744 0.0
C862 C 0.17362 0.65722 0.39531 0.0
C863 C 0.16659 0.54938 0.38861 0.0
C864 C 0.16913 0.58662 0.39071 0.0
H865 H 0.1344 0.73506 0.42152 0.0
H866 H 0.13586 0.67635 0.41988 0.0
H867 H 0.23368 0.68047 0.39136 0.0
H868 H 0.1102 0.46287 0.36976 0.0
H869 H 0.11643 0.52525 0.37172 0.0
C870 C 0.65613 0.12994 0.87533 0.0
C871 C 0.68824 0.15482 0.88532 0.0
C872 C 0.62349 0.13264 0.87618 0.0
C873 C 0.58724 0.19631 0.88933 0.0
H874 H 0.49174 0.10268 0.89104 0.0
C875 C 0.44185 0.18659 0.90271 0.0
C876 C 0.41217 0.16101 0.89157 0.0
C877 C 0.47689 0.18824 0.90221 0.0
C878 C 0.51816 0.12911 0.89043 0.0
H879 H 0.71182 0.20249 0.90376 0.0
H880 H 0.6546 0.20692 0.90549 0.0
H881 H 0.55011 0.10098 0.88948 0.0
H882 H 0.39594 0.11778 0.87093 0.0
H883 H 0.45657 0.12058 0.87006 0.0
H884 H 0.55483 0.22429 0.89043 0.0
C885 C 0.65468 0.18559 0.89682 0.0
C886 C 0.55167 0.12814 0.88948 0.0
C887 C 0.68739 0.18293 0.89591 0.0
C888 C 0.41823 0.13759 0.87978 0.0
C889 C 0.45294 0.13909 0.87933 0.0
C890 C 0.55357 0.19727 0.89037 0.0
C891 C 0.62215 0.16019 0.88712 0.0
C892 C 0.58665 0.16168 0.88868 0.0
C893 C 0.48256 0.16404 0.89069 0.0
C894 C 0.51864 0.16363 0.89068 0.0
H895 H 0.65611 0.10814 0.86698 0.0
H896 H 0.59925 0.11308 0.86824 0.0
H897 H 0.61365 0.22269 0.88862 0.0
H898 H 0.43769 0.20448 0.91215 0.0
H899 H 0.49913 0.2076 0.9112 0.0
C900 C 0.25602 0.43528 0.39998 0.0
C901 C 0.25227 0.40653 0.38827 0.0
C902 C 0.28882 0.47079 0.39963 0.0
C903 C 0.37291 0.5309 0.3709 0.0
H904 H 0.41774 0.58162 0.41637 0.0
C905 C 0.52749 0.65093 0.37594 0.0
C906 C 0.53525 0.68206 0.3869 0.0
C907 C 0.49154 0.61894 0.37591 0.0
C908 C 0.40535 0.56804 0.40354 0.0
H909 H 0.2798 0.39207 0.36716 0.0
H910 H 0.33699 0.45327 0.36678 0.0
H911 H 0.3571 0.52313 0.41669 0.0
H912 H 0.51165 0.70437 0.40635 0.0
H913 H 0.44877 0.64838 0.40634 0.0
H914 H 0.42153 0.57534 0.35779 0.0
C915 C 0.31451 0.44906 0.37595 0.0
C916 C 0.37052 0.53454 0.40371 0.0
C917 C 0.28182 0.41379 0.37629 0.0
C918 C 0.50641 0.68069 0.39779 0.0
C919 C 0.47049 0.64859 0.39786 0.0
C920 C 0.40776 0.56421 0.37074 0.0
C921 C 0.31852 0.47808 0.3876 0.0
C922 C 0.3541 0.51525 0.38741 0.0
C923 C 0.46264 0.61733 0.38691 0.0
C924 C 0.42463 0.58295 0.38707 0.0
H925 H 0.23397 0.43016 0.40962 0.0
H926 H 0.29087 0.49252 0.40874 0.0
H927 H 0.36077 0.51729 0.35804 0.0
H928 H 0.54925 0.65123 0.36745 0.0
H929 H 0.48655 0.59517 0.36749 0.0
C930 C 0.88471 0.52559 0.87593 0.0
C931 C 0.86052 0.53256 0.88665 0.0
C932 C 0.88203 0.49024 0.87619 0.0
C933 C 0.81888 0.39002 0.88883 0.0
H934 H 0.91225 0.38765 0.8882 0.0
C935 C 0.82804 0.25359 0.89948 0.0
C936 C 0.85291 0.24951 0.8878 0.0
C937 C 0.82672 0.28714 0.89954 0.0
C938 C 0.88589 0.38779 0.88823 0.0
H939 H 0.81417 0.50806 0.90585 0.0
H940 H 0.80979 0.44637 0.90655 0.0
H941 H 0.91427 0.44793 0.88785 0.0
H942 H 0.89525 0.27673 0.8668 0.0
H943 H 0.89301 0.33491 0.86689 0.0
H944 H 0.79063 0.32958 0.88935 0.0
C945 C 0.83055 0.468 0.89775 0.0
C946 C 0.88704 0.42238 0.88798 0.0
C947 C 0.83318 0.50339 0.89744 0.0
C948 C 0.87597 0.27919 0.87604 0.0
C949 C 0.8748 0.31259 0.87614 0.0
C950 C 0.81774 0.35528 0.88916 0.0
C951 C 0.85519 0.46109 0.88725 0.0
C952 C 0.85358 0.424 0.88806 0.0
C953 C 0.85056 0.31721 0.88804 0.0
C954 C 0.85126 0.35382 0.88863 0.0
H955 H 0.90589 0.54755 0.86741 0.0
H956 H 0.90099 0.48574 0.86767 0.0
H957 H 0.79255 0.3902 0.88877 0.0
H958 H 0.81045 0.23138 0.90891 0.0
H959 H 0.80794 0.28998 0.90895 0.0
C960 C 0.18844 0.38209 0.32128 0.0
C961 C 0.17196 0.34681 0.32996 0.0
C962 C 0.19168 0.38457 0.30229 0.0
C963 C 0.14683 0.33076 0.26132 0.0
H964 H 0.24146 0.39547 0.23679 0.0
C965 C 0.16407 0.31619 0.18471 0.0
C966 C 0.18747 0.34857 0.17449 0.0
C967 C 0.16258 0.31805 0.20364 0.0
C968 C 0.21464 0.37773 0.24338 0.0
H969 H 0.14626 0.28654 0.32553 0.0
H970 H 0.15138 0.29095 0.29247 0.0
H971 H 0.23858 0.39562 0.27002 0.0
H972 H 0.22727 0.40852 0.17612 0.0
H973 H 0.22378 0.41208 0.20917 0.0
H974 H 0.12245 0.31329 0.23493 0.0
C975 C 0.16188 0.31662 0.30036 0.0
C976 C 0.2131 0.37775 0.26242 0.0
C977 C 0.15919 0.31417 0.3193 0.0
C978 C 0.20913 0.383 0.18363 0.0
C979 C 0.20727 0.38498 0.2026 0.0
C980 C 0.14819 0.33112 0.24234 0.0
C981 C 0.17789 0.35177 0.29167 0.0
C982 C 0.17931 0.35379 0.27154 0.0
C983 C 0.18402 0.35248 0.21286 0.0
C984 C 0.18225 0.3541 0.23309 0.0
H985 H 0.19865 0.40775 0.32914 0.0
H986 H 0.20408 0.412 0.29587 0.0
H987 H 0.12028 0.31246 0.26805 0.0
H988 H 0.14731 0.28912 0.17813 0.0
H989 H 0.14502 0.29224 0.21105 0.0
C990 C 0.83003 0.19789 0.68368 0.0
C991 C 0.84425 0.17817 0.67394 0.0
C992 C 0.82668 0.19505 0.70263 0.0
C993 C 0.82771 0.13815 0.74212 0.0
H994 H 0.84824 0.22744 0.76947 0.0
C995 C 0.85321 0.1518 0.81979 0.0
C996 C 0.83277 0.16467 0.82995 0.0
C997 C 0.85362 0.15327 0.80078 0.0
C998 C 0.84214 0.20222 0.76199 0.0
H999 H 0.866 0.13989 0.67647 0.0
H1000 H 0.86139 0.13585 0.70955 0.0
H1001 H 0.85076 0.22979 0.73631 0.0
H1002 H 0.79739 0.18996 0.82809 0.0
H1003 H 0.79883 0.19327 0.79478 0.0
H1004 H 0.82038 0.11112 0.76798 0.0
C1005 C 0.8518 0.15276 0.70257 0.0
C1006 C 0.84339 0.20343 0.74296 0.0
C1007 C 0.85462 0.15517 0.68356 0.0
C1008 C 0.81335 0.17977 0.82066 0.0
C1009 C 0.81426 0.18178 0.80161 0.0
C1010 C 0.82701 0.13714 0.76115 0.0
C1011 C 0.83802 0.17289 0.7124 0.0
C1012 C 0.83619 0.1714 0.73272 0.0
C1013 C 0.83407 0.16815 0.79149 0.0
C1014 C 0.83425 0.16916 0.77128 0.0
H1015 H 0.82144 0.21559 0.67666 0.0
H1016 H 0.81511 0.21028 0.7096 0.0
H1017 H 0.82126 0.11269 0.73479 0.0
H1018 H 0.86836 0.13984 0.82649 0.0
H1019 H 0.86943 0.14292 0.79333 0.0
C1020 C 0.63755 0.85004 0.1863 0.0
C1021 C 0.66412 0.845 0.17644 0.0
C1022 C 0.63559 0.84666 0.20528 0.0
C1023 C 0.65835 0.80474 0.24382 0.0
H1024 H 0.65911 0.88491 0.27226 0.0
C1025 C 0.63763 0.79601 0.32199 0.0
C1026 C 0.66454 0.82746 0.33184 0.0
C1027 C 0.63557 0.79753 0.30303 0.0
C1028 C 0.65887 0.86233 0.26448 0.0
H1029 H 0.70872 0.83137 0.17874 0.0
H1030 H 0.7048 0.82485 0.21184 0.0
H1031 H 0.65898 0.88776 0.23898 0.0
H1032 H 0.70966 0.8855 0.32953 0.0
H1033 H 0.70556 0.88828 0.29643 0.0
H1034 H 0.65832 0.77934 0.26932 0.0
C1035 C 0.68567 0.83163 0.20487 0.0
C1036 C 0.65852 0.86382 0.24546 0.0
C1037 C 0.68802 0.83556 0.18593 0.0
C1038 C 0.68868 0.86075 0.32235 0.0
C1039 C 0.68623 0.86243 0.30341 0.0
C1040 C 0.65815 0.80298 0.26283 0.0
C1041 C 0.65974 0.83758 0.21476 0.0
C1042 C 0.65857 0.83519 0.23494 0.0
C1043 C 0.65997 0.83069 0.29354 0.0
C1044 C 0.65872 0.83191 0.27336 0.0
H1045 H 0.61878 0.85743 0.17943 0.0
H1046 H 0.61513 0.8511 0.21255 0.0
H1047 H 0.65819 0.78219 0.23604 0.0
H1048 H 0.61867 0.76988 0.32886 0.0
H1049 H 0.61485 0.77275 0.29577 0.0
C1050 C 0.81181 0.6283 0.68523 0.0
C1051 C 0.83137 0.66341 0.67641 0.0
C1052 C 0.81232 0.62604 0.70425 0.0
C1053 C 0.82319 0.68144 0.7451 0.0
H1054 H 0.84806 0.61344 0.77004 0.0
C1055 C 0.8552 0.69588 0.82176 0.0
C1056 C 0.84493 0.66339 0.83215 0.0
C1057 C 0.85137 0.69371 0.80284 0.0
C1058 C 0.84037 0.63214 0.76334 0.0
H1059 H 0.8671 0.7236 0.68071 0.0
H1060 H 0.86746 0.71958 0.71378 0.0
H1061 H 0.84544 0.61311 0.73679 0.0
H1062 H 0.82183 0.60293 0.8308 0.0
H1063 H 0.814 0.5989 0.79778 0.0
H1064 H 0.81735 0.70014 0.77141 0.0
C1065 C 0.85181 0.69385 0.70598 0.0
C1066 C 0.83906 0.63202 0.74428 0.0
C1067 C 0.85178 0.69608 0.68702 0.0
C1068 C 0.8302 0.62853 0.82318 0.0
C1069 C 0.82594 0.62628 0.80422 0.0
C1070 C 0.82398 0.68123 0.7641 0.0
C1071 C 0.83187 0.65888 0.71481 0.0
C1072 C 0.83107 0.65712 0.73499 0.0
C1073 C 0.83666 0.6589 0.79377 0.0
C1074 C 0.83324 0.65706 0.77351 0.0
H1075 H 0.79589 0.6026 0.67745 0.0
H1076 H 0.79665 0.59873 0.71073 0.0
H1077 H 0.81631 0.70065 0.73828 0.0
H1078 H 0.86704 0.72328 0.82818 0.0
H1079 H 0.86075 0.71959 0.79532 0.0
C1080 C 0.18342 0.81209 0.1874 0.0
C1081 C 0.16795 0.83114 0.17812 0.0
C1082 C 0.18604 0.81352 0.20643 0.0
C1083 C 0.18091 0.86688 0.24664 0.0
H1084 H 0.16561 0.77871 0.27329 0.0
C1085 C 0.15843 0.85207 0.32458 0.0
C1086 C 0.18168 0.84185 0.33412 0.0
C1087 C 0.15633 0.84981 0.30557 0.0
C1088 C 0.17009 0.80357 0.266 0.0
H1089 H 0.1427 0.8663 0.1816 0.0
H1090 H 0.14602 0.86775 0.21457 0.0
H1091 H 0.16345 0.77714 0.24007 0.0
H1092 H 0.21999 0.82009 0.33123 0.0
H1093 H 0.21563 0.81544 0.29805 0.0
H1094 H 0.18646 0.89279 0.27268 0.0
C1095 C 0.15731 0.85264 0.20727 0.0
C1096 C 0.16911 0.80283 0.24694 0.0
C1097 C 0.15521 0.85166 0.18828 0.0
C1098 C 0.20191 0.8283 0.32428 0.0
C1099 C 0.19931 0.82546 0.3053 0.0
C1100 C 0.1813 0.86738 0.26567 0.0
C1101 C 0.17276 0.83362 0.21665 0.0
C1102 C 0.1745 0.83449 0.23698 0.0
C1103 C 0.17692 0.83669 0.29574 0.0
C1104 C 0.17591 0.83576 0.27554 0.0
H1105 H 0.19366 0.79618 0.17996 0.0
H1106 H 0.19871 0.79904 0.21309 0.0
H1107 H 0.18603 0.89213 0.23953 0.0
H1108 H 0.14262 0.86276 0.33176 0.0
H1109 H 0.13863 0.85839 0.29853 0.0
C1110 C 0.38645 0.19904 0.8251 0.0
C1111 C 0.35148 0.17886 0.83397 0.0
C1112 C 0.38891 0.19699 0.80617 0.0
C1113 C 0.33482 0.14004 0.76599 0.0
H1114 H 0.40141 0.23064 0.73895 0.0
C1115 C 0.31879 0.15373 0.68923 0.0
C1116 C 0.35143 0.16689 0.67853 0.0
C1117 C 0.32123 0.15564 0.70818 0.0
C1118 C 0.38298 0.20508 0.74637 0.0
H1119 H 0.29164 0.1408 0.82988 0.0
H1120 H 0.29571 0.13803 0.79704 0.0
H1121 H 0.4011 0.23248 0.77221 0.0
H1122 H 0.41239 0.19347 0.67933 0.0
H1123 H 0.41661 0.19741 0.71262 0.0
H1124 H 0.31581 0.11309 0.74009 0.0
C1125 C 0.32149 0.15468 0.80464 0.0
C1126 C 0.38286 0.20602 0.76541 0.0
C1127 C 0.31911 0.15642 0.82353 0.0
C1128 C 0.38671 0.18296 0.6872 0.0
C1129 C 0.38918 0.18535 0.70622 0.0
C1130 C 0.33462 0.13926 0.747 0.0
C1131 C 0.35639 0.17496 0.79568 0.0
C1132 C 0.35842 0.17359 0.77547 0.0
C1133 C 0.35637 0.17117 0.71687 0.0
C1134 C 0.35837 0.17184 0.737 0.0
H1135 H 0.41197 0.21644 0.83277 0.0
H1136 H 0.41633 0.21255 0.79978 0.0
H1137 H 0.3163 0.11428 0.77324 0.0
H1138 H 0.29115 0.14117 0.68302 0.0
H1139 H 0.29555 0.14493 0.71607 0.0
C1140 C 0.28223 0.19281 0.95096 0.0
C1141 C 0.31794 0.2162 0.94322 0.0
C1142 C 0.27024 0.20479 0.96608 0.0
C1143 C 0.28619 0.29141 0.98893 0.0
H1144 H 0.23088 0.22428 0.02874 0.0
C1145 C 0.24851 0.34243 0.05509 0.0
C1146 C 0.21421 0.31781 0.06373 0.0
C1147 C 0.26034 0.33066 0.03983 0.0
C1148 C 0.24578 0.24326 0.0176 0.0
H1149 H 0.36951 0.27015 0.94579 0.0
H1150 H 0.34862 0.29083 0.97222 0.0
H1151 H 0.25428 0.20184 1.00402 0.0
H1152 H 0.16455 0.26213 0.06247 0.0
H1153 H 0.18472 0.24204 0.03565 0.0
H1154 H 0.27744 0.33275 1.00239 0.0
C1155 C 0.32976 0.26339 0.96643 0.0
C1156 C 0.25933 0.23041 1.00347 0.0
C1157 C 0.34185 0.25134 0.95137 0.0
C1158 C 0.19123 0.2818 0.05623 0.0
C1159 C 0.20297 0.27011 0.04094 0.0
C1160 C 0.27247 0.30423 1.00302 0.0
C1161 C 0.29359 0.24052 0.97377 0.0
C1162 C 0.27974 0.25434 0.98898 0.0
C1163 C 0.23809 0.29404 0.03279 0.0
C1164 C 0.25208 0.28032 0.01754 0.0
H1165 H 0.26299 0.16563 0.94503 0.0
H1166 H 0.24212 0.18659 0.97133 0.0
H1167 H 0.30127 0.31036 0.9778 0.0
H1168 H 0.26706 0.37028 0.06055 0.0
H1169 H 0.28768 0.34977 0.03401 0.0
C1170 C 0.09814 0.33775 0.44933 0.0
C1171 C 0.10416 0.3116 0.43965 0.0
C1172 C 0.07445 0.3265 0.46455 0.0
C1173 C 0.02832 0.25077 0.49894 0.0
H1174 H 0.95778 0.28741 0.5029 0.0
C1175 C 0.90999 0.19066 0.55248 0.0
C1176 C 0.90436 0.21686 0.56235 0.0
C1177 C 0.9324 0.20163 0.53683 0.0
C1178 C 0.9775 0.27717 0.50209 0.0
H1179 H 0.09067 0.25321 0.43881 0.0
H1180 H 0.04947 0.23372 0.4653 0.0
H1181 H 1.00279 0.30859 0.47779 0.0
H1182 H 0.91645 0.2748 0.56288 0.0
H1183 H 0.95566 0.29392 0.53564 0.0
H1184 H 1.00321 0.21948 0.52326 0.0
C1185 C 0.06328 0.26301 0.4612 0.0
C1186 C 1.00338 0.28938 0.48772 0.0
C1187 C 0.08695 0.27423 0.44597 0.0
C1188 C 0.92009 0.25382 0.55563 0.0
C1189 C 0.94259 0.26481 0.53996 0.0
C1190 C 1.00249 0.2386 0.51331 0.0
C1191 C 0.05622 0.28886 0.47049 0.0
C1192 C 0.02912 0.27634 0.48597 0.0
C1193 C 0.94979 0.23908 0.53064 0.0
C1194 C 0.9767 0.25159 0.51507 0.0
H1195 H 0.11093 0.36678 0.4449 0.0
H1196 H 0.07015 0.34728 0.47159 0.0
H1197 H 0.04807 0.24056 0.49815 0.0
H1198 H 0.89812 0.16188 0.55715 0.0
H1199 H 0.93665 0.18087 0.52974 0.0
C1200 C 0.73571 0.92237 0.05861 0.0
C1201 C 0.70001 0.91086 0.06616 0.0
C1202 C 0.74772 0.94465 0.0429 0.0
C1203 C 0.71344 0.97734 1.00391 0.0
H1204 H 0.81716 0.05895 1.00223 0.0
C1205 C 0.76555 0.09366 0.94915 0.0
C1206 C 0.79989 0.10329 0.94055 0.0
C1207 C 0.75412 0.07109 0.96476 0.0
C1208 C 0.78821 0.03611 1.00242 0.0
H1209 H 0.64864 0.91323 0.06274 0.0
H1210 H 0.66968 0.95227 0.03557 0.0
H1211 H 0.79521 0.01631 0.02826 0.0
H1212 H 0.8497 0.09759 0.9421 0.0
H1213 H 0.82981 0.05847 0.96936 0.0
H1214 H 0.7064 0.99747 0.97815 0.0
C1215 C 0.68828 0.94369 0.04162 0.0
C1216 C 0.77561 0.01153 0.01732 0.0
C1217 C 0.67622 0.9213 0.05729 0.0
C1218 C 0.82313 0.09089 0.94836 0.0
C1219 C 0.81176 0.06848 0.96403 0.0
C1220 C 0.72599 1.00204 0.98907 0.0
C1221 C 0.7244 0.95613 0.03436 0.0
C1222 C 0.73804 0.98181 0.01827 0.0
C1223 C 0.7768 0.05774 0.97223 0.0
C1224 C 0.76351 0.03176 0.98815 0.0
H1225 H 0.75482 0.91486 0.06503 0.0
H1226 H 0.77543 0.95307 0.03752 0.0
H1227 H 0.68452 0.95446 1.004 0.0
H1228 H 0.74687 0.10263 0.94356 0.0
H1229 H 0.72729 0.06382 0.97091 0.0
C1230 C 0.7645 0.67525 0.55819 0.0
C1231 C 0.79861 0.69978 0.56703 0.0
C1232 C 0.75327 0.68695 0.54272 0.0
C1233 C 0.788 0.75738 0.50567 0.0
H1234 H 0.68417 0.7347 0.50363 0.0
C1235 C 0.73635 0.81938 0.44948 0.0
C1236 C 0.70084 0.79521 0.44175 0.0
C1237 C 0.74809 0.80887 0.4652 0.0
C1238 C 0.71315 0.74094 0.50385 0.0
H1239 H 0.84817 0.75558 0.56607 0.0
H1240 H 0.82864 0.77579 0.53902 0.0
H1241 H 0.70558 0.71304 0.52944 0.0
H1242 H 0.64953 0.74124 0.44485 0.0
H1243 H 0.67013 0.72281 0.47201 0.0
H1244 H 0.79553 0.78487 0.47999 0.0
C1245 C 0.81062 0.74747 0.54407 0.0
C1246 C 0.72542 0.72849 0.51867 0.0
C1247 C 0.82177 0.73586 0.55963 0.0
C1248 C 0.67697 0.76074 0.45044 0.0
C1249 C 0.68878 0.75017 0.46611 0.0
C1250 C 0.77568 0.76966 0.49079 0.0
C1251 C 0.77594 0.72337 0.53561 0.0
C1252 C 0.76297 0.73649 0.51975 0.0
C1253 C 0.72471 0.77386 0.47356 0.0
C1254 C 0.73806 0.76157 0.48966 0.0
H1255 H 0.74589 0.64728 0.56348 0.0
H1256 H 0.72665 0.6675 0.53636 0.0
H1257 H 0.817 0.76368 0.50599 0.0
H1258 H 0.75549 0.84619 0.44321 0.0
H1259 H 0.77565 0.82817 0.47073 0.0
C1260 C 0.92238 0.67298 0.95084 0.0
C1261 C 0.91107 0.69646 0.94235 0.0
C1262 C 0.94474 0.68489 0.96652 0.0
C1263 C 0.01102 0.772 0.99142 0.0
H1264 H 0.99879 0.70232 0.03001 0.0
C1265 C 0.09004 0.81948 0.06041 0.0
C1266 C 0.10342 0.79687 0.06799 0.0
C1267 C 0.06755 0.8079 0.04476 0.0
C1268 C 1.00285 0.72205 0.01925 0.0
H1269 H 0.91338 0.75042 0.94421 0.0
H1270 H 0.95154 0.77072 0.97173 0.0
H1271 H 0.95587 0.6802 0.0041 0.0
H1272 H 0.10436 0.74473 0.06462 0.0
H1273 H 0.06541 0.72478 0.03731 0.0
H1274 H 0.05784 0.8139 0.00669 0.0
C1275 C 0.94386 0.74343 0.96603 0.0
C1276 C 0.97821 0.70937 0.00438 0.0
C1277 C 0.92163 0.7316 0.95031 0.0
C1278 C 0.09461 0.76292 0.05921 0.0
C1279 C 0.07197 0.75127 0.04362 0.0
C1280 C 0.03555 0.78471 0.00633 0.0
C1281 C 0.95627 0.72052 0.97417 0.0
C1282 C 0.98199 0.73415 0.99024 0.0
C1283 C 0.05772 0.77335 0.03636 0.0
C1284 C 0.03184 0.75987 0.0204 0.0
H1285 H 0.91504 0.64585 0.94505 0.0
H1286 H 0.95404 0.66661 0.97228 0.0
H1287 H 0.01529 0.79176 0.98064 0.0
H1288 H 0.09609 0.84573 0.06682 0.0
H1289 H 0.05683 0.82546 0.0396 0.0
C1290 C 0.25587 0.91629 0.45275 0.0
C1291 C 0.21918 0.90141 0.44578 0.0
C1292 C 0.2668 0.93845 0.46852 0.0
C1293 C 0.23057 0.96489 0.50886 0.0
H1294 H 0.32677 0.05772 0.50653 0.0
C1295 C 0.27488 0.08132 0.56334 0.0
C1296 C 0.3124 0.09874 0.56947 0.0
C1297 C 0.26349 0.05775 0.54806 0.0
C1298 C 0.30002 0.03175 0.50751 0.0
H1299 H 0.16467 0.89663 0.45054 0.0
H1300 H 0.18373 0.93511 0.47798 0.0
H1301 H 0.30689 0.01332 0.48125 0.0
H1302 H 0.36756 0.10569 0.56392 0.0
H1303 H 0.34769 0.06452 0.53748 0.0
H1304 H 0.22373 0.98323 0.53515 0.0
C1305 C 0.20407 0.92966 0.47127 0.0
C1306 C 0.28865 0.00623 0.49302 0.0
C1307 C 0.19318 0.90765 0.45548 0.0
C1308 C 0.33846 0.09292 0.5596 0.0
C1309 C 0.32707 0.06933 0.54435 0.0
C1310 C 0.24199 0.99036 0.52339 0.0
C1311 C 0.24126 0.94608 0.47774 0.0
C1312 C 0.25377 0.9725 0.4935 0.0
C1313 C 0.28933 0.05098 0.53853 0.0
C1314 C 0.27686 0.02416 0.5229 0.0
H1315 H 0.27665 0.91203 0.44569 0.0
H1316 H 0.29548 0.95015 0.47333 0.0
H1317 H 0.20371 0.93899 0.50974 0.0
H1318 H 0.25399 0.0851 0.5706 0.0
H1319 H 0.23434 0.04461 0.54378 0.0
loop_
_geom_bond_atom_site_label_1
_geom_bond_atom_site_label_2
_geom_bond_distance
_geom_bond_site_symmetry_2
_ccdc_geom_bond_type
Tb0 O3 2.453 . S
Tb0 O4 2.596 . S
Tb0 O5 2.374 . S
Tb0 O13 2.343 . S
Tb0 O15 2.353 . S
Tb0 O17 2.427 . S
Tb0 O18 2.513 . S
C1 O5 1.251 . S
C1 O7 1.263 . S
Tb2 O4 2.343 . S
Tb2 O7 2.353 . S
Tb2 O10 2.427 . S
Tb2 O11 2.513 . S
Tb2 O12 2.453 . S
Tb2 O13 2.596 . S
Tb2 O14 2.374 . S
O3 Tb0 2.453 . S
O3 C19 1.245 . S
O4 Tb0 2.596 . S
O4 Tb2 2.343 . S
O4 C19 1.259 . S
O5 Tb0 2.374 . S
O5 C1 1.251 . S
C6 O10 1.275 . S
C6 O11 1.246 . S
O7 C1 1.263 . S
O7 Tb2 2.353 . S
C8 O12 1.245 . S
C8 O13 1.259 . S
C9 O14 1.250 . S
C9 O15 1.263 . S
O10 Tb2 2.427 . S
O10 C6 1.275 . S
O11 Tb2 2.513 . S
O11 C6 1.246 . S
O12 Tb2 2.453 . S
O12 C8 1.245 . S
O13 Tb0 2.343 . S
O13 Tb2 2.596 . S
O13 C8 1.259 . S
O14 Tb2 2.374 . S
O14 C9 1.250 . S
O15 Tb0 2.353 . S
O15 C9 1.263 . S
C16 O17 1.275 . S
C16 O18 1.246 . S
O17 Tb0 2.427 . S
O17 C16 1.275 . S
O18 Tb0 2.513 . S
O18 C16 1.246 . S
C19 O3 1.245 . S
C19 O4 1.259 . S
Tb20 O23 2.453 . S
Tb20 O24 2.596 . S
Tb20 O25 2.374 . S
Tb20 O33 2.343 . S
Tb20 O35 2.353 . S
Tb20 O37 2.427 . S
Tb20 O38 2.513 . S
C21 O25 1.251 . S
C21 O27 1.263 . S
Tb22 O24 2.343 . S
Tb22 O27 2.353 . S
Tb22 O30 2.427 . S
Tb22 O31 2.513 . S
Tb22 O32 2.453 . S
Tb22 O33 2.596 . S
Tb22 O34 2.374 . S
O23 Tb20 2.453 . S
O23 C39 1.245 . S
O24 Tb20 2.596 . S
O24 Tb22 2.343 . S
O24 C39 1.259 . S
O25 Tb20 2.374 . S
O25 C21 1.251 . S
C26 O30 1.275 . S
C26 O31 1.246 . S
O27 C21 1.263 . S
O27 Tb22 2.353 . S
C28 O32 1.245 . S
C28 O33 1.259 . S
C29 O34 1.250 . S
C29 O35 1.263 . S
O30 Tb22 2.427 . S
O30 C26 1.275 . S
O31 Tb22 2.513 . S
O31 C26 1.246 . S
O32 Tb22 2.453 . S
O32 C28 1.245 . S
O33 Tb20 2.343 . S
O33 Tb22 2.596 . S
O33 C28 1.259 . S
O34 Tb22 2.374 . S
O34 C29 1.250 . S
O35 Tb20 2.353 . S
O35 C29 1.263 . S
C36 O37 1.275 . S
C36 O38 1.246 . S
O37 Tb20 2.427 . S
O37 C36 1.275 . S
O38 Tb20 2.513 . S
O38 C36 1.246 . S
C39 O23 1.245 . S
C39 O24 1.259 . S
Tb40 O43 2.453 . S
Tb40 O44 2.596 . S
Tb40 O45 2.374 . S
Tb40 O53 2.343 . S
Tb40 O55 2.353 . S
Tb40 O57 2.427 . S
Tb40 O58 2.513 . S
C41 O45 1.251 . S
C41 O47 1.263 . S
Tb42 O44 2.343 . S
Tb42 O47 2.353 . S
Tb42 O50 2.427 . S
Tb42 O51 2.513 . S
Tb42 O52 2.453 . S
Tb42 O53 2.596 . S
Tb42 O54 2.374 . S
O43 Tb40 2.453 . S
O43 C59 1.245 . S
O44 Tb40 2.596 . S
O44 Tb42 2.343 . S
O44 C59 1.259 . S
O45 Tb40 2.374 . S
O45 C41 1.251 . S
C46 O50 1.275 . S
C46 O51 1.246 . S
O47 C41 1.263 . S
O47 Tb42 2.353 . S
C48 O52 1.245 . S
C48 O53 1.259 . S
C49 O54 1.250 . S
C49 O55 1.263 . S
O50 Tb42 2.427 . S
O50 C46 1.275 . S
O51 Tb42 2.513 . S
O51 C46 1.246 . S
O52 Tb42 2.453 . S
O52 C48 1.245 . S
O53 Tb40 2.343 . S
O53 Tb42 2.596 . S
O53 C48 1.259 . S
O54 Tb42 2.374 . S
O54 C49 1.250 . S
O55 Tb40 2.353 . S
O55 C49 1.263 . S
C56 O57 1.275 . S
C56 O58 1.246 . S
O57 Tb40 2.427 . S
O57 C56 1.275 . S
O58 Tb40 2.513 . S
O58 C56 1.246 . S
C59 O43 1.245 . S
C59 O44 1.259 . S
Tb60 O63 2.453 . S
Tb60 O64 2.596 . S
Tb60 O65 2.374 . S
Tb60 O73 2.343 . S
Tb60 O75 2.353 . S
Tb60 O77 2.427 . S
Tb60 O78 2.513 . S
C61 O65 1.251 . S
C61 O67 1.263 . S
Tb62 O64 2.343 . S
Tb62 O67 2.353 . S
Tb62 O70 2.427 . S
Tb62 O71 2.513 . S
Tb62 O72 2.453 . S
Tb62 O73 2.596 . S
Tb62 O74 2.374 . S
O63 Tb60 2.453 . S
O63 C79 1.245 . S
O64 Tb60 2.596 . S
O64 Tb62 2.343 . S
O64 C79 1.259 . S
O65 Tb60 2.374 . S
O65 C61 1.251 . S
C66 O70 1.275 . S
C66 O71 1.246 . S
O67 C61 1.263 . S
O67 Tb62 2.353 . S
C68 O72 1.245 . S
C68 O73 1.259 . S
C69 O74 1.250 . S
C69 O75 1.263 . S
O70 Tb62 2.427 . S
O70 C66 1.275 . S
O71 Tb62 2.513 . S
O71 C66 1.246 . S
O72 Tb62 2.453 . S
O72 C68 1.245 . S
O73 Tb60 2.343 . S
O73 Tb62 2.596 . S
O73 C68 1.259 . S
O74 Tb62 2.374 . S
O74 C69 1.250 . S
O75 Tb60 2.353 . S
O75 C69 1.263 . S
C76 O77 1.275 . S
C76 O78 1.246 . S
O77 Tb60 2.427 . S
O77 C76 1.275 . S
O78 Tb60 2.513 . S
O78 C76 1.246 . S
C79 O63 1.245 . S
C79 O64 1.259 . S
Tb80 O83 2.453 . S
Tb80 O84 2.596 . S
Tb80 O85 2.374 . S
Tb80 O93 2.343 . S
Tb80 O95 2.353 . S
Tb80 O97 2.427 . S
Tb80 O98 2.513 . S
C81 O85 1.251 . S
C81 O87 1.263 . S
Tb82 O84 2.343 . S
Tb82 O87 2.353 . S
Tb82 O90 2.427 . S
Tb82 O91 2.513 . S
Tb82 O92 2.453 . S
Tb82 O93 2.596 . S
Tb82 O94 2.374 . S
O83 Tb80 2.453 . S
O83 C99 1.245 . S
O84 Tb80 2.596 . S
O84 Tb82 2.343 . S
O84 C99 1.259 . S
O85 Tb80 2.374 . S
O85 C81 1.251 . S
C86 O90 1.275 . S
C86 O91 1.246 . S
O87 C81 1.263 . S
O87 Tb82 2.353 . S
C88 O92 1.245 . S
C88 O93 1.259 . S
C89 O94 1.250 . S
C89 O95 1.263 . S
O90 Tb82 2.427 . S
O90 C86 1.275 . S
O91 Tb82 2.513 . S
O91 C86 1.246 . S
O92 Tb82 2.453 . S
O92 C88 1.245 . S
O93 Tb80 2.343 . S
O93 Tb82 2.596 . S
O93 C88 1.259 . S
O94 Tb82 2.374 . S
O94 C89 1.250 . S
O95 Tb80 2.353 . S
O95 C89 1.263 . S
C96 O97 1.275 . S
C96 O98 1.246 . S
O97 Tb80 2.427 . S
O97 C96 1.275 . S
O98 Tb80 2.513 . S
O98 C96 1.246 . S
C99 O83 1.245 . S
C99 O84 1.259 . S
Tb100 O103 2.453 . S
Tb100 O104 2.596 . S
Tb100 O105 2.374 . S
Tb100 O113 2.343 . S
Tb100 O115 2.353 . S
Tb100 O117 2.427 . S
Tb100 O118 2.513 . S
C101 O105 1.251 . S
C101 O107 1.263 . S
Tb102 O104 2.343 . S
Tb102 O107 2.353 . S
Tb102 O110 2.427 . S
Tb102 O111 2.513 . S
Tb102 O112 2.453 . S
Tb102 O113 2.596 . S
Tb102 O114 2.374 . S
O103 Tb100 2.453 . S
O103 C119 1.245 . S
O104 Tb100 2.596 . S
O104 Tb102 2.343 . S
O104 C119 1.259 . S
O105 Tb100 2.374 . S
O105 C101 1.251 . S
C106 O110 1.275 . S
C106 O111 1.246 . S
O107 C101 1.263 . S
O107 Tb102 2.353 . S
C108 O112 1.245 . S
C108 O113 1.259 . S
C109 O114 1.250 . S
C109 O115 1.263 . S
O110 Tb102 2.427 . S
O110 C106 1.275 . S
O111 Tb102 2.513 . S
O111 C106 1.246 . S
O112 Tb102 2.453 . S
O112 C108 1.245 . S
O113 Tb100 2.343 . S
O113 Tb102 2.596 . S
O113 C108 1.259 . S
O114 Tb102 2.374 . S
O114 C109 1.250 . S
O115 Tb100 2.353 . S
O115 C109 1.263 . S
C116 O117 1.275 . S
C116 O118 1.246 . S
O117 Tb100 2.427 . S
O117 C116 1.275 . S
O118 Tb100 2.513 . S
O118 C116 1.246 . S
C119 O103 1.245 . S
C119 O104 1.259 . S
Tb120 O123 2.453 . S
Tb120 O124 2.596 . S
Tb120 O125 2.374 . S
Tb120 O133 2.343 . S
Tb120 O135 2.353 . S
Tb120 O137 2.427 . S
Tb120 O138 2.513 . S
C121 O125 1.251 . S
C121 O127 1.263 . S
Tb122 O124 2.343 . S
Tb122 O127 2.353 . S
Tb122 O130 2.427 . S
Tb122 O131 2.513 . S
Tb122 O132 2.453 . S
Tb122 O133 2.596 . S
Tb122 O134 2.374 . S
O123 Tb120 2.453 . S
O123 C139 1.245 . S
O124 Tb120 2.596 . S
O124 Tb122 2.343 . S
O124 C139 1.259 . S
O125 Tb120 2.374 . S
O125 C121 1.251 . S
C126 O130 1.275 . S
C126 O131 1.246 . S
O127 C121 1.263 . S
O127 Tb122 2.353 . S
C128 O132 1.245 . S
C128 O133 1.259 . S
C129 O134 1.250 . S
C129 O135 1.263 . S
O130 Tb122 2.427 . S
O130 C126 1.275 . S
O131 Tb122 2.513 . S
O131 C126 1.246 . S
O132 Tb122 2.453 . S
O132 C128 1.245 . S
O133 Tb120 2.343 . S
O133 Tb122 2.596 . S
O133 C128 1.259 . S
O134 Tb122 2.374 . S
O134 C129 1.250 . S
O135 Tb120 2.353 . S
O135 C129 1.263 . S
C136 O137 1.275 . S
C136 O138 1.246 . S
O137 Tb120 2.427 . S
O137 C136 1.275 . S
O138 Tb120 2.513 . S
O138 C136 1.246 . S
C139 O123 1.245 . S
C139 O124 1.259 . S
Tb140 O143 2.453 . S
Tb140 O144 2.596 . S
Tb140 O145 2.374 . S
Tb140 O153 2.343 . S
Tb140 O155 2.353 . S
Tb140 O157 2.427 . S
Tb140 O158 2.513 . S
C141 O145 1.251 . S
C141 O147 1.263 . S
Tb142 O144 2.343 . S
Tb142 O147 2.353 . S
Tb142 O150 2.427 . S
Tb142 O151 2.513 . S
Tb142 O152 2.453 . S
Tb142 O153 2.596 . S
Tb142 O154 2.374 . S
O143 Tb140 2.453 . S
O143 C159 1.245 . S
O144 Tb140 2.596 . S
O144 Tb142 2.343 . S
O144 C159 1.259 . S
O145 Tb140 2.374 . S
O145 C141 1.251 . S
C146 O150 1.275 . S
C146 O151 1.246 . S
O147 C141 1.263 . S
O147 Tb142 2.353 . S
C148 O152 1.245 . S
C148 O153 1.259 . S
C149 O154 1.250 . S
C149 O155 1.263 . S
O150 Tb142 2.427 . S
O150 C146 1.275 . S
O151 Tb142 2.513 . S
O151 C146 1.246 . S
O152 Tb142 2.453 . S
O152 C148 1.245 . S
O153 Tb140 2.343 . S
O153 Tb142 2.596 . S
O153 C148 1.259 . S
O154 Tb142 2.374 . S
O154 C149 1.250 . S
O155 Tb140 2.353 . S
O155 C149 1.263 . S
C156 O157 1.275 . S
C156 O158 1.246 . S
O157 Tb140 2.427 . S
O157 C156 1.275 . S
O158 Tb140 2.513 . S
O158 C156 1.246 . S
C159 O143 1.245 . S
C159 O144 1.259 . S
Tb160 O163 2.453 . S
Tb160 O164 2.596 . S
Tb160 O165 2.374 . S
Tb160 O173 2.343 . S
Tb160 O175 2.353 . S
Tb160 O177 2.427 . S
Tb160 O178 2.513 . S
C161 O165 1.251 . S
C161 O167 1.263 . S
Tb162 O164 2.343 . S
Tb162 O167 2.353 . S
Tb162 O170 2.427 . S
Tb162 O171 2.513 . S
Tb162 O172 2.453 . S
Tb162 O173 2.596 . S
Tb162 O174 2.374 . S
O163 Tb160 2.453 . S
O163 C179 1.245 . S
O164 Tb160 2.596 . S
O164 Tb162 2.343 . S
O164 C179 1.259 . S
O165 Tb160 2.374 . S
O165 C161 1.251 . S
C166 O170 1.275 . S
C166 O171 1.246 . S
O167 C161 1.263 . S
O167 Tb162 2.353 . S
C168 O172 1.245 . S
C168 O173 1.259 . S
C169 O174 1.250 . S
C169 O175 1.263 . S
O170 Tb162 2.427 . S
O170 C166 1.275 . S
O171 Tb162 2.513 . S
O171 C166 1.246 . S
O172 Tb162 2.453 . S
O172 C168 1.245 . S
O173 Tb160 2.343 . S
O173 Tb162 2.596 . S
O173 C168 1.259 . S
O174 Tb162 2.374 . S
O174 C169 1.250 . S
O175 Tb160 2.353 . S
O175 C169 1.263 . S
C176 O177 1.275 . S
C176 O178 1.246 . S
O177 Tb160 2.427 . S
O177 C176 1.275 . S
O178 Tb160 2.513 . S
O178 C176 1.246 . S
C179 O163 1.245 . S
C179 O164 1.259 . S
Tb180 O183 2.453 . S
Tb180 O184 2.596 . S
Tb180 O185 2.374 . S
Tb180 O193 2.343 . S
Tb180 O195 2.353 . S
Tb180 O197 2.427 . S
Tb180 O198 2.513 . S
C181 O185 1.251 . S
C181 O187 1.263 . S
Tb182 O184 2.343 . S
Tb182 O187 2.353 . S
Tb182 O190 2.427 . S
Tb182 O191 2.513 . S
Tb182 O192 2.453 . S
Tb182 O193 2.596 . S
Tb182 O194 2.374 . S
O183 Tb180 2.453 . S
O183 C199 1.245 . S
O184 Tb180 2.596 . S
O184 Tb182 2.343 . S
O184 C199 1.259 . S
O185 Tb180 2.374 . S
O185 C181 1.251 . S
C186 O190 1.275 . S
C186 O191 1.246 . S
O187 C181 1.263 . S
O187 Tb182 2.353 . S
C188 O192 1.245 . S
C188 O193 1.259 . S
C189 O194 1.250 . S
C189 O195 1.263 . S
O190 Tb182 2.427 . S
O190 C186 1.275 . S
O191 Tb182 2.513 . S
O191 C186 1.246 . S
O192 Tb182 2.453 . S
O192 C188 1.245 . S
O193 Tb180 2.343 . S
O193 Tb182 2.596 . S
O193 C188 1.259 . S
O194 Tb182 2.374 . S
O194 C189 1.250 . S
O195 Tb180 2.353 . S
O195 C189 1.263 . S
C196 O197 1.275 . S
C196 O198 1.246 . S
O197 Tb180 2.427 . S
O197 C196 1.275 . S
O198 Tb180 2.513 . S
O198 C196 1.246 . S
C199 O183 1.245 . S
C199 O184 1.259 . S
Tb200 O203 2.453 . S
Tb200 O204 2.596 . S
Tb200 O205 2.374 . S
Tb200 O213 2.343 . S
Tb200 O215 2.353 . S
Tb200 O217 2.427 . S
Tb200 O218 2.513 . S
C201 O205 1.251 . S
C201 O207 1.263 . S
Tb202 O204 2.343 . S
Tb202 O207 2.353 . S
Tb202 O210 2.427 . S
Tb202 O211 2.513 . S
Tb202 O212 2.453 . S
Tb202 O213 2.596 . S
Tb202 O214 2.374 . S
O203 Tb200 2.453 . S
O203 C219 1.245 . S
O204 Tb200 2.596 . S
O204 Tb202 2.343 . S
O204 C219 1.259 . S
O205 Tb200 2.374 . S
O205 C201 1.251 . S
C206 O210 1.275 . S
C206 O211 1.246 . S
O207 C201 1.263 . S
O207 Tb202 2.353 . S
C208 O212 1.245 . S
C208 O213 1.259 . S
C209 O214 1.250 . S
C209 O215 1.263 . S
O210 Tb202 2.427 . S
O210 C206 1.275 . S
O211 Tb202 2.513 . S
O211 C206 1.246 . S
O212 Tb202 2.453 . S
O212 C208 1.245 . S
O213 Tb200 2.343 . S
O213 Tb202 2.596 . S
O213 C208 1.259 . S
O214 Tb202 2.374 . S
O214 C209 1.250 . S
O215 Tb200 2.353 . S
O215 C209 1.263 . S
C216 O217 1.275 . S
C216 O218 1.246 . S
O217 Tb200 2.427 . S
O217 C216 1.275 . S
O218 Tb200 2.513 . S
O218 C216 1.246 . S
C219 O203 1.245 . S
C219 O204 1.259 . S
Tb220 O223 2.453 . S
Tb220 O224 2.596 . S
Tb220 O225 2.374 . S
Tb220 O233 2.343 . S
Tb220 O235 2.353 . S
Tb220 O237 2.427 . S
Tb220 O238 2.513 . S
C221 O225 1.251 . S
C221 O227 1.263 . S
Tb222 O224 2.343 . S
Tb222 O227 2.353 . S
Tb222 O230 2.427 . S
Tb222 O231 2.513 . S
Tb222 O232 2.453 . S
Tb222 O233 2.596 . S
Tb222 O234 2.374 . S
O223 Tb220 2.453 . S
O223 C239 1.245 . S
O224 Tb220 2.596 . S
O224 Tb222 2.343 . S
O224 C239 1.259 . S
O225 Tb220 2.374 . S
O225 C221 1.251 . S
C226 O230 1.275 . S
C226 O231 1.246 . S
O227 C221 1.263 . S
O227 Tb222 2.353 . S
C228 O232 1.245 . S
C228 O233 1.259 . S
C229 O234 1.250 . S
C229 O235 1.263 . S
O230 Tb222 2.427 . S
O230 C226 1.275 . S
O231 Tb222 2.513 . S
O231 C226 1.246 . S
O232 Tb222 2.453 . S
O232 C228 1.245 . S
O233 Tb220 2.343 . S
O233 Tb222 2.596 . S
O233 C228 1.259 . S
O234 Tb222 2.374 . S
O234 C229 1.250 . S
O235 Tb220 2.353 . S
O235 C229 1.263 . S
C236 O237 1.275 . S
C236 O238 1.246 . S
O237 Tb220 2.427 . S
O237 C236 1.275 . S
O238 Tb220 2.513 . S
O238 C236 1.246 . S
C239 O223 1.245 . S
C239 O224 1.259 . S
C240 C241 1.349 . S
C240 C242 1.327 . S
C240 H265 0.950 . S
C241 C240 1.349 . S
C241 C257 1.349 . S
C242 C240 1.327 . S
C242 C261 1.429 1_565 S
C242 H266 0.950 . S
C243 C260 1.574 . S
C243 C262 1.368 . S
C243 H267 0.949 . S
H244 C248 0.949 . S
C245 C246 1.349 . S
C245 C247 1.327 . S
C245 H268 0.950 . S
C246 C245 1.349 . S
C246 C258 1.349 . S
C247 C245 1.327 . S
C247 C263 1.429 . S
C247 H269 0.950 . S
C248 H244 0.949 . S
C248 C256 1.574 . S
C248 C264 1.368 . S
H249 C257 0.950 . S
H250 C255 0.950 . S
H251 C256 0.949 . S
H252 C258 0.950 . S
H253 C259 0.950 . S
H254 C260 0.949 . S
C255 H250 0.950 . S
C255 C257 1.327 1_545 S
C255 C261 1.429 . S
C256 C248 1.574 . S
C256 H251 0.949 . S
C256 C262 1.368 . S
C257 C241 1.349 . S
C257 H249 0.950 . S
C257 C255 1.327 1_565 S
C258 C246 1.349 . S
C258 H252 0.950 . S
C258 C259 1.327 . S
C259 H253 0.950 . S
C259 C258 1.327 . S
C259 C263 1.429 . S
C260 C243 1.574 . S
C260 H254 0.949 . S
C260 C264 1.368 . S
C261 C242 1.429 1_545 S
C261 C255 1.429 . S
C261 C262 1.523 . S
C262 C243 1.368 . S
C262 C256 1.368 . S
C262 C261 1.523 . S
C263 C247 1.429 . S
C263 C259 1.429 . S
C263 C264 1.523 . S
C264 C248 1.368 . S
C264 C260 1.368 . S
C264 C263 1.523 . S
H265 C240 0.950 . S
H266 C242 0.950 . S
H267 C243 0.949 . S
H268 C245 0.950 . S
H269 C247 0.950 . S
C270 C271 1.349 . S
C270 C272 1.327 . S
C270 H295 0.950 . S
C271 C270 1.349 . S
C271 C287 1.349 . S
C272 C270 1.327 . S
C272 C291 1.429 . S
C272 H296 0.950 . S
C273 C290 1.574 . S
C273 C292 1.368 . S
C273 H297 0.949 . S
H274 C278 0.949 . S
C275 C276 1.349 . S
C275 C277 1.327 . S
C275 H298 0.950 . S
C276 C275 1.349 . S
C276 C288 1.349 . S
C277 C275 1.327 . S
C277 C293 1.429 1_655 S
C277 H299 0.950 . S
C278 H274 0.949 . S
C278 C286 1.574 . S
C278 C294 1.368 . S
H279 C287 0.950 . S
H280 C285 0.950 . S
H281 C286 0.949 . S
H282 C288 0.950 . S
H283 C289 0.943 1_455 S
H284 C290 0.949 . S
C285 H280 0.950 . S
C285 C287 1.327 . S
C285 C291 1.429 . S
C286 C278 1.574 . S
C286 H281 0.949 . S
C286 C292 1.368 . S
C287 C271 1.349 . S
C287 H279 0.950 . S
C287 C285 1.327 . S
C288 C276 1.349 . S
C288 H282 0.950 . S
C288 C289 1.340 . S
C289 H283 0.943 1_655 S
C289 C288 1.340 . S
C289 C293 1.423 1_655 S
C290 C273 1.574 . S
C290 H284 0.949 . S
C290 C294 1.368 . S
C291 C272 1.429 . S
C291 C285 1.429 . S
C291 C292 1.523 . S
C292 C273 1.368 . S
C292 C286 1.368 . S
C292 C291 1.523 . S
C293 C277 1.429 1_455 S
C293 C289 1.423 1_455 S
C293 C294 1.523 . S
C294 C278 1.368 . S
C294 C290 1.368 . S
C294 C293 1.523 . S
H295 C270 0.950 . S
H296 C272 0.950 . S
H297 C273 0.949 . S
H298 C275 0.950 . S
H299 C277 0.950 . S
C300 C301 1.349 . S
C300 C302 1.326 . S
C300 H325 0.950 . S
C301 C300 1.349 . S
C301 C317 1.349 . S
C302 C300 1.326 . S
C302 C321 1.428 1_565 S
C302 H326 0.952 1_565 S
C303 C320 1.574 . S
C303 C322 1.368 . S
C303 H327 0.949 . S
H304 C308 0.949 . S
C305 C306 1.349 . S
C305 C307 1.327 . S
C305 H328 0.950 . S
C306 C305 1.349 . S
C306 C318 1.349 . S
C307 C305 1.327 . S
C307 C323 1.429 1_455 S
C307 H329 0.950 . S
C308 H304 0.949 . S
C308 C316 1.574 . S
C308 C324 1.368 . S
H309 C317 0.950 . S
H310 C315 0.950 . S
H311 C316 0.949 . S
H312 C318 0.950 . S
H313 C319 0.950 . S
H314 C320 0.949 . S
C315 H310 0.950 . S
C315 C317 1.327 . S
C315 C321 1.429 1_565 S
C316 C308 1.574 . S
C316 H311 0.949 . S
C316 C322 1.368 . S
C317 C301 1.349 . S
C317 H309 0.950 . S
C317 C315 1.327 . S
C318 C306 1.349 . S
C318 H312 0.950 . S
C318 C319 1.327 1_455 S
C319 H313 0.950 . S
C319 C318 1.327 1_655 S
C319 C323 1.429 . S
C320 C303 1.574 . S
C320 H314 0.949 . S
C320 C324 1.368 . S
C321 C302 1.428 1_545 S
C321 C315 1.429 1_545 S
C321 C322 1.523 . S
C322 C303 1.368 . S
C322 C316 1.368 . S
C322 C321 1.523 . S
C323 C307 1.429 1_655 S
C323 C319 1.429 . S
C323 C324 1.523 . S
C324 C308 1.368 . S
C324 C320 1.368 . S
C324 C323 1.523 . S
H325 C300 0.950 . S
H326 C302 0.952 1_545 S
H327 C303 0.949 . S
H328 C305 0.950 . S
H329 C307 0.950 . S
C330 C331 1.349 . S
C330 C332 1.327 . S
C330 H355 0.950 . S
C331 C330 1.349 . S
C331 C347 1.349 . S
C332 C330 1.327 . S
C332 C351 1.429 . S
C332 H356 0.950 . S
C333 C350 1.574 . S
C333 C352 1.368 . S
C333 H357 0.949 . S
H334 C338 0.949 . S
C335 C336 1.349 . S
C335 C337 1.327 1_545 S
C335 H358 0.950 . S
C336 C335 1.349 . S
C336 C348 1.349 . S
C337 C335 1.327 1_565 S
C337 C353 1.429 . S
C337 H359 0.950 . S
C338 H334 0.949 . S
C338 C346 1.574 . S
C338 C354 1.368 . S
H339 C347 0.950 . S
H340 C345 0.950 . S
H341 C346 0.949 . S
H342 C348 0.950 . S
H343 C349 0.950 . S
H344 C350 0.949 . S
C345 H340 0.950 . S
C345 C347 1.327 . S
C345 C351 1.429 . S
C346 C338 1.574 . S
C346 H341 0.949 . S
C346 C352 1.368 . S
C347 C331 1.349 . S
C347 H339 0.950 . S
C347 C345 1.327 . S
C348 C336 1.349 . S
C348 H342 0.950 . S
C348 C349 1.327 . S
C349 H343 0.950 . S
C349 C348 1.327 . S
C349 C353 1.429 1_545 S
C350 C333 1.574 . S
C350 H344 0.949 . S
C350 C354 1.368 . S
C351 C332 1.429 . S
C351 C345 1.429 . S
C351 C352 1.523 . S
C352 C333 1.368 . S
C352 C346 1.368 . S
C352 C351 1.523 . S
C353 C337 1.429 . S
C353 C349 1.429 1_565 S
C353 C354 1.523 . S
C354 C338 1.368 . S
C354 C350 1.368 . S
C354 C353 1.523 . S
H355 C330 0.950 . S
H356 C332 0.950 . S
H357 C333 0.949 . S
H358 C335 0.950 . S
H359 C337 0.950 . S
C360 C361 1.349 . S
C360 C362 1.327 . S
C360 H385 0.950 . S
C361 C360 1.349 . S
C361 C377 1.349 . S
C362 C360 1.327 . S
C362 C381 1.429 1_455 S
C362 H386 0.950 . S
C363 C380 1.574 . S
C363 C382 1.368 . S
C363 H387 0.949 . S
H364 C368 0.949 . S
C365 C366 1.349 . S
C365 C367 1.327 . S
C365 H388 0.950 . S
C366 C365 1.349 . S
C366 C378 1.349 . S
C367 C365 1.327 . S
C367 C383 1.429 . S
C367 H389 0.950 . S
C368 H364 0.949 . S
C368 C376 1.574 . S
C368 C384 1.368 . S
H369 C377 0.950 . S
H370 C375 0.950 . S
H371 C376 0.949 . S
H372 C378 0.950 . S
H373 C379 0.950 . S
H374 C380 0.949 . S
C375 H370 0.950 . S
C375 C377 1.327 1_655 S
C375 C381 1.429 . S
C376 C368 1.574 . S
C376 H371 0.949 . S
C376 C382 1.368 . S
C377 C361 1.349 . S
C377 H369 0.950 . S
C377 C375 1.327 1_455 S
C378 C366 1.349 . S
C378 H372 0.950 . S
C378 C379 1.327 . S
C379 H373 0.950 . S
C379 C378 1.327 . S
C379 C383 1.429 . S
C380 C363 1.574 . S
C380 H374 0.949 . S
C380 C384 1.368 . S
C381 C362 1.429 1_655 S
C381 C375 1.429 . S
C381 C382 1.523 . S
C382 C363 1.368 . S
C382 C376 1.368 . S
C382 C381 1.523 . S
C383 C367 1.429 . S
C383 C379 1.429 . S
C383 C384 1.523 . S
C384 C368 1.368 . S
C384 C380 1.368 . S
C384 C383 1.523 . S
H385 C360 0.950 . S
H386 C362 0.950 . S
H387 C363 0.949 . S
H388 C365 0.950 . S
H389 C367 0.950 . S
C390 C391 1.349 . S
C390 C392 1.327 . S
C390 H415 0.950 . S
C391 C390 1.349 . S
C391 C407 1.349 . S
C392 C390 1.327 . S
C392 C411 1.429 1_655 S
C392 H416 0.950 . S
C393 C410 1.574 . S
C393 C412 1.368 . S
C393 H417 0.949 . S
H394 C398 0.949 . S
C395 C396 1.349 . S
C395 C397 1.327 1_545 S
C395 H418 0.950 . S
C396 C395 1.349 . S
C396 C408 1.349 . S
C397 C395 1.327 1_565 S
C397 C413 1.429 . S
C397 H419 0.950 . S
C398 H394 0.949 . S
C398 C406 1.574 . S
C398 C414 1.368 . S
H399 C407 0.950 . S
H400 C405 0.950 . S
H401 C406 0.949 . S
H402 C408 0.950 . S
H403 C409 0.950 . S
H404 C410 0.949 . S
C405 H400 0.950 . S
C405 C407 1.327 1_455 S
C405 C411 1.429 . S
C406 C398 1.574 . S
C406 H401 0.949 . S
C406 C412 1.368 . S
C407 C391 1.349 . S
C407 H399 0.950 . S
C407 C405 1.327 1_655 S
C408 C396 1.349 . S
C408 H402 0.950 . S
C408 C409 1.327 . S
C409 H403 0.950 . S
C409 C408 1.327 . S
C409 C413 1.429 1_545 S
C410 C393 1.574 . S
C410 H404 0.949 . S
C410 C414 1.368 . S
C411 C392 1.429 1_455 S
C411 C405 1.429 . S
C411 C412 1.523 . S
C412 C393 1.368 . S
C412 C406 1.368 . S
C412 C411 1.523 . S
C413 C397 1.429 . S
C413 C409 1.429 1_565 S
C413 C414 1.523 . S
C414 C398 1.368 . S
C414 C410 1.368 . S
C414 C413 1.523 . S
H415 C390 0.950 . S
H416 C392 0.950 . S
H417 C393 0.949 . S
H418 C395 0.950 . S
H419 C397 0.950 . S
C420 C421 1.349 . S
C420 C422 1.327 . S
C420 H445 0.950 . S
C421 C420 1.349 . S
C421 C437 1.349 . S
C422 C420 1.327 . S
C422 C441 1.429 1_455 S
C422 H446 0.950 . S
C423 C440 1.574 . S
C423 C442 1.368 . S
C423 H447 0.949 . S
H424 C428 0.949 . S
C425 C426 1.349 . S
C425 C427 1.327 . S
C425 H448 0.950 . S
C426 C425 1.349 . S
C426 C438 1.349 . S
C427 C425 1.327 . S
C427 C443 1.429 . S
C427 H449 0.950 . S
C428 H424 0.949 . S
C428 C436 1.574 . S
C428 C444 1.368 . S
H429 C437 0.950 . S
H430 C435 0.950 . S
H431 C436 0.949 . S
H432 C438 0.950 . S
H433 C439 0.950 . S
H434 C440 0.949 . S
C435 H430 0.950 . S
C435 C437 1.327 1_655 S
C435 C441 1.429 . S
C436 C428 1.574 . S
C436 H431 0.949 . S
C436 C442 1.368 . S
C437 C421 1.349 . S
C437 H429 0.950 . S
C437 C435 1.327 1_455 S
C438 C426 1.349 . S
C438 H432 0.950 . S
C438 C439 1.327 . S
C439 H433 0.950 . S
C439 C438 1.327 . S
C439 C443 1.429 . S
C440 C423 1.574 . S
C440 H434 0.949 . S
C440 C444 1.368 . S
C441 C422 1.429 1_655 S
C441 C435 1.429 . S
C441 C442 1.523 . S
C442 C423 1.368 . S
C442 C436 1.368 . S
C442 C441 1.523 . S
C443 C427 1.429 . S
C443 C439 1.429 . S
C443 C444 1.523 . S
C444 C428 1.368 . S
C444 C440 1.368 . S
C444 C443 1.523 . S
H445 C420 0.950 . S
H446 C422 0.950 . S
H447 C423 0.949 . S
H448 C425 0.950 . S
H449 C427 0.950 . S
C450 C451 1.349 . S
C450 C452 1.327 . S
C450 H475 0.950 . S
C451 C450 1.349 . S
C451 C467 1.349 . S
C452 C450 1.327 . S
C452 C471 1.429 1_655 S
C452 H476 0.950 . S
C453 C470 1.574 . S
C453 C472 1.368 . S
C453 H477 0.949 . S
H454 C458 0.949 . S
C455 C456 1.349 . S
C455 C457 1.327 1_545 S
C455 H478 0.950 . S
C456 C455 1.349 . S
C456 C468 1.349 . S
C457 C455 1.327 1_565 S
C457 C473 1.429 . S
C457 H479 0.950 . S
C458 H454 0.949 . S
C458 C466 1.574 . S
C458 C474 1.368 . S
H459 C467 0.950 . S
H460 C465 0.950 . S
H461 C466 0.949 . S
H462 C468 0.950 . S
H463 C469 0.950 . S
H464 C470 0.949 . S
C465 H460 0.950 . S
C465 C467 1.327 1_455 S
C465 C471 1.429 . S
C466 C458 1.574 . S
C466 H461 0.949 . S
C466 C472 1.368 . S
C467 C451 1.349 . S
C467 H459 0.950 . S
C467 C465 1.327 1_655 S
C468 C456 1.349 . S
C468 H462 0.950 . S
C468 C469 1.327 . S
C469 H463 0.950 . S
C469 C468 1.327 . S
C469 C473 1.429 1_545 S
C470 C453 1.574 . S
C470 H464 0.949 . S
C470 C474 1.368 . S
C471 C452 1.429 1_455 S
C471 C465 1.429 . S
C471 C472 1.523 . S
C472 C453 1.368 . S
C472 C466 1.368 . S
C472 C471 1.523 . S
C473 C457 1.429 . S
C473 C469 1.429 1_565 S
C473 C474 1.523 . S
C474 C458 1.368 . S
C474 C470 1.368 . S
C474 C473 1.523 . S
H475 C450 0.950 . S
H476 C452 0.950 . S
H477 C453 0.949 . S
H478 C455 0.950 . S
H479 C457 0.950 . S
C480 C481 1.349 . S
C480 C482 1.327 . S
C480 H505 0.950 . S
C481 C480 1.349 . S
C481 C497 1.349 . S
C482 C480 1.327 . S
C482 C501 1.429 . S
C482 H506 0.950 . S
C483 C500 1.574 . S
C483 C502 1.368 . S
C483 H507 0.949 . S
H484 C488 0.949 . S
C485 C486 1.349 . S
C485 C487 1.327 1_565 S
C485 H508 0.950 . S
C486 C485 1.349 . S
C486 C498 1.349 . S
C487 C485 1.327 1_545 S
C487 C503 1.429 . S
C487 H509 0.950 . S
C488 H484 0.949 . S
C488 C496 1.574 . S
C488 C504 1.368 . S
H489 C497 0.950 . S
H490 C495 0.950 . S
H491 C496 0.949 . S
H492 C498 0.950 . S
H493 C499 0.950 . S
H494 C500 0.949 . S
C495 H490 0.950 . S
C495 C497 1.327 . S
C495 C501 1.429 . S
C496 C488 1.574 . S
C496 H491 0.949 . S
C496 C502 1.368 . S
C497 C481 1.349 . S
C497 H489 0.950 . S
C497 C495 1.327 . S
C498 C486 1.349 . S
C498 H492 0.950 . S
C498 C499 1.327 . S
C499 H493 0.950 . S
C499 C498 1.327 . S
C499 C503 1.429 1_565 S
C500 C483 1.574 . S
C500 H494 0.949 . S
C500 C504 1.368 . S
C501 C482 1.429 . S
C501 C495 1.429 . S
C501 C502 1.523 . S
C502 C483 1.368 . S
C502 C496 1.368 . S
C502 C501 1.523 . S
C503 C487 1.429 . S
C503 C499 1.429 1_545 S
C503 C504 1.523 . S
C504 C488 1.368 . S
C504 C500 1.368 . S
C504 C503 1.523 . S
H505 C480 0.950 . S
H506 C482 0.950 . S
H507 C483 0.949 . S
H508 C485 0.950 . S
H509 C487 0.950 . S
C510 C511 1.349 . S
C510 C512 1.327 . S
C510 H535 0.950 . S
C511 C510 1.349 . S
C511 C527 1.349 . S
C512 C510 1.327 . S
C512 C531 1.429 . S
C512 H536 0.950 . S
C513 C530 1.574 . S
C513 C532 1.368 . S
C513 H537 0.949 . S
H514 C518 0.949 . S
C515 C516 1.349 . S
C515 C517 1.327 1_655 S
C515 H538 0.950 . S
C516 C515 1.349 . S
C516 C528 1.349 . S
C517 C515 1.327 1_455 S
C517 C533 1.429 . S
C517 H539 0.950 . S
C518 H514 0.949 . S
C518 C526 1.574 . S
C518 C534 1.368 . S
H519 C527 0.950 . S
H520 C525 0.950 . S
H521 C526 0.949 . S
H522 C528 0.950 . S
H523 C529 0.950 . S
H524 C530 0.949 . S
C525 H520 0.950 . S
C525 C527 1.327 . S
C525 C531 1.429 . S
C526 C518 1.574 . S
C526 H521 0.949 . S
C526 C532 1.368 . S
C527 C511 1.349 . S
C527 H519 0.950 . S
C527 C525 1.327 . S
C528 C516 1.349 . S
C528 H522 0.950 . S
C528 C529 1.327 . S
C529 H523 0.950 . S
C529 C528 1.327 . S
C529 C533 1.429 1_655 S
C530 C513 1.574 . S
C530 H524 0.949 . S
C530 C534 1.368 . S
C531 C512 1.429 . S
C531 C525 1.429 . S
C531 C532 1.523 . S
C532 C513 1.368 . S
C532 C526 1.368 . S
C532 C531 1.523 . S
C533 C517 1.429 . S
C533 C529 1.429 1_455 S
C533 C534 1.523 . S
C534 C518 1.368 . S
C534 C530 1.368 . S
C534 C533 1.523 . S
H535 C510 0.950 . S
H536 C512 0.950 . S
H537 C513 0.949 . S
H538 C515 0.950 . S
H539 C517 0.950 . S
C540 C541 1.349 . S
C540 C542 1.327 . S
C540 H565 0.950 . S
C541 C540 1.349 . S
C541 C557 1.349 . S
C542 C540 1.327 . S
C542 C561 1.429 1_455 S
C542 H566 0.950 . S
C543 C560 1.574 . S
C543 C562 1.368 . S
C543 H567 0.949 . S
H544 C548 0.949 . S
C545 C546 1.349 . S
C545 C547 1.327 1_565 S
C545 H568 0.950 . S
C546 C545 1.349 . S
C546 C558 1.349 . S
C547 C545 1.327 1_545 S
C547 C563 1.429 . S
C547 H569 0.950 . S
C548 H544 0.949 . S
C548 C556 1.574 . S
C548 C564 1.368 . S
H549 C557 0.950 . S
H550 C555 0.950 . S
H551 C556 0.949 . S
H552 C558 0.950 . S
H553 C559 0.950 . S
H554 C560 0.949 . S
C555 H550 0.950 . S
C555 C557 1.327 1_655 S
C555 C561 1.429 . S
C556 C548 1.574 . S
C556 H551 0.949 . S
C556 C562 1.368 . S
C557 C541 1.349 . S
C557 H549 0.950 . S
C557 C555 1.327 1_455 S
C558 C546 1.349 . S
C558 H552 0.950 . S
C558 C559 1.327 . S
C559 H553 0.950 . S
C559 C558 1.327 . S
C559 C563 1.429 1_565 S
C560 C543 1.574 . S
C560 H554 0.949 . S
C560 C564 1.368 . S
C561 C542 1.429 1_655 S
C561 C555 1.429 . S
C561 C562 1.523 . S
C562 C543 1.368 . S
C562 C556 1.368 . S
C562 C561 1.523 . S
C563 C547 1.429 . S
C563 C559 1.429 1_545 S
C563 C564 1.523 . S
C564 C548 1.368 . S
C564 C560 1.368 . S
C564 C563 1.523 . S
H565 C540 0.950 . S
H566 C542 0.950 . S
H567 C543 0.949 . S
H568 C545 0.950 . S
H569 C547 0.950 . S
C570 C571 1.349 . S
C570 C572 1.327 . S
C570 H595 0.950 . S
C571 C570 1.349 . S
C571 C587 1.349 . S
C572 C570 1.327 . S
C572 C591 1.429 . S
C572 H596 0.950 . S
C573 C590 1.574 . S
C573 C592 1.368 . S
C573 H597 0.949 . S
H574 C578 0.949 . S
C575 C576 1.349 . S
C575 C577 1.327 1_545 S
C575 H598 0.950 . S
C576 C575 1.349 . S
C576 C588 1.349 . S
C577 C575 1.327 1_565 S
C577 C593 1.429 . S
C577 H599 0.950 . S
C578 H574 0.949 . S
C578 C586 1.574 . S
C578 C594 1.368 . S
H579 C587 0.950 . S
H580 C585 0.950 . S
H581 C586 0.949 . S
H582 C588 0.950 . S
H583 C589 0.950 . S
H584 C590 0.949 . S
C585 H580 0.950 . S
C585 C587 1.327 . S
C585 C591 1.429 . S
C586 C578 1.574 . S
C586 H581 0.949 . S
C586 C592 1.368 . S
C587 C571 1.349 . S
C587 H579 0.950 . S
C587 C585 1.327 . S
C588 C576 1.349 . S
C588 H582 0.950 . S
C588 C589 1.327 . S
C589 H583 0.950 . S
C589 C588 1.327 . S
C589 C593 1.429 1_545 S
C590 C573 1.574 . S
C590 H584 0.949 . S
C590 C594 1.368 . S
C591 C572 1.429 . S
C591 C585 1.429 . S
C591 C592 1.523 . S
C592 C573 1.368 . S
C592 C586 1.368 . S
C592 C591 1.523 . S
C593 C577 1.429 . S
C593 C589 1.429 1_565 S
C593 C594 1.523 . S
C594 C578 1.368 . S
C594 C590 1.368 . S
C594 C593 1.523 . S
H595 C570 0.950 . S
H596 C572 0.950 . S
H597 C573 0.949 . S
H598 C575 0.950 . S
H599 C577 0.950 . S
C600 C601 1.349 . S
C600 C602 1.327 . S
C600 H625 0.950 . S
C601 C600 1.349 . S
C601 C617 1.349 . S
C602 C600 1.327 . S
C602 C621 1.429 . S
C602 H626 0.950 . S
C603 C620 1.574 . S
C603 C622 1.368 . S
C603 H627 0.949 . S
H604 C608 0.949 . S
C605 C606 1.349 . S
C605 C607 1.327 . S
C605 H628 0.950 . S
C606 C605 1.349 . S
C606 C618 1.349 . S
C607 C605 1.327 . S
C607 C623 1.429 . S
C607 H629 0.950 . S
C608 H604 0.949 . S
C608 C616 1.574 . S
C608 C624 1.368 . S
H609 C617 0.950 . S
H610 C615 0.950 . S
H611 C616 0.949 . S
H612 C618 0.950 . S
H613 C619 0.950 . S
H614 C620 0.949 . S
C615 H610 0.950 . S
C615 C617 1.327 . S
C615 C621 1.429 . S
C616 C608 1.574 . S
C616 H611 0.949 . S
C616 C622 1.368 . S
C617 C601 1.349 . S
C617 H609 0.950 . S
C617 C615 1.327 . S
C618 C606 1.349 . S
C618 H612 0.950 . S
C618 C619 1.327 . S
C619 H613 0.950 . S
C619 C618 1.327 . S
C619 C623 1.429 . S
C620 C603 1.574 . S
C620 H614 0.949 . S
C620 C624 1.368 . S
C621 C602 1.429 . S
C621 C615 1.429 . S
C621 C622 1.523 . S
C622 C603 1.368 . S
C622 C616 1.368 . S
C622 C621 1.523 . S
C623 C607 1.429 . S
C623 C619 1.429 . S
C623 C624 1.523 . S
C624 C608 1.368 . S
C624 C620 1.368 . S
C624 C623 1.523 . S
H625 C600 0.950 . S
H626 C602 0.950 . S
H627 C603 0.949 . S
H628 C605 0.950 . S
H629 C607 0.950 . S
C630 C631 1.349 . S
C630 C632 1.327 . S
C630 H655 0.950 . S
C631 C630 1.349 . S
C631 C647 1.349 . S
C632 C630 1.327 . S
C632 C651 1.429 . S
C632 H656 0.950 . S
C633 C650 1.574 . S
C633 C652 1.368 . S
C633 H657 0.949 . S
H634 C638 0.949 . S
C635 C636 1.349 . S
C635 C637 1.327 . S
C635 H658 0.950 . S
C636 C635 1.349 . S
C636 C648 1.349 . S
C637 C635 1.327 . S
C637 C653 1.429 . S
C637 H659 0.950 . S
C638 H634 0.949 . S
C638 C646 1.574 . S
C638 C654 1.368 . S
H639 C647 0.950 . S
H640 C645 0.950 . S
H641 C646 0.949 . S
H642 C648 0.950 . S
H643 C649 0.950 . S
H644 C650 0.949 . S
C645 H640 0.950 . S
C645 C647 1.327 . S
C645 C651 1.429 . S
C646 C638 1.574 . S
C646 H641 0.949 . S
C646 C652 1.368 . S
C647 C631 1.349 . S
C647 H639 0.950 . S
C647 C645 1.327 . S
C648 C636 1.349 . S
C648 H642 0.950 . S
C648 C649 1.327 . S
C649 H643 0.950 . S
C649 C648 1.327 . S
C649 C653 1.429 . S
C650 C633 1.574 . S
C650 H644 0.949 . S
C650 C654 1.368 . S
C651 C632 1.429 . S
C651 C645 1.429 . S
C651 C652 1.523 . S
C652 C633 1.368 . S
C652 C646 1.368 . S
C652 C651 1.523 . S
C653 C637 1.429 . S
C653 C649 1.429 . S
C653 C654 1.523 . S
C654 C638 1.368 . S
C654 C650 1.368 . S
C654 C653 1.523 . S
H655 C630 0.950 . S
H656 C632 0.950 . S
H657 C633 0.949 . S
H658 C635 0.950 . S
H659 C637 0.950 . S
C660 C661 1.349 . S
C660 C662 1.327 . S
C660 H685 0.950 . S
C661 C660 1.349 . S
C661 C677 1.349 . S
C662 C660 1.327 . S
C662 C681 1.429 . S
C662 H686 0.950 . S
C663 C680 1.574 . S
C663 C682 1.368 . S
C663 H687 0.949 . S
H664 C668 0.949 . S
C665 C666 1.349 . S
C665 C667 1.327 . S
C665 H688 0.950 . S
C666 C665 1.349 . S
C666 C678 1.349 . S
C667 C665 1.327 . S
C667 C683 1.429 . S
C667 H689 0.950 . S
C668 H664 0.949 . S
C668 C676 1.574 . S
C668 C684 1.368 . S
H669 C677 0.950 . S
H670 C675 0.950 . S
H671 C676 0.949 . S
H672 C678 0.950 . S
H673 C679 0.950 . S
H674 C680 0.949 . S
C675 H670 0.950 . S
C675 C677 1.327 . S
C675 C681 1.429 . S
C676 C668 1.574 . S
C676 H671 0.949 . S
C676 C682 1.368 . S
C677 C661 1.349 . S
C677 H669 0.950 . S
C677 C675 1.327 . S
C678 C666 1.349 . S
C678 H672 0.950 . S
C678 C679 1.327 . S
C679 H673 0.950 . S
C679 C678 1.327 . S
C679 C683 1.429 . S
C680 C663 1.574 . S
C680 H674 0.949 . S
C680 C684 1.368 . S
C681 C662 1.429 . S
C681 C675 1.429 . S
C681 C682 1.523 . S
C682 C663 1.368 . S
C682 C676 1.368 . S
C682 C681 1.523 . S
C683 C667 1.429 . S
C683 C679 1.429 . S
C683 C684 1.523 . S
C684 C668 1.368 . S
C684 C680 1.368 . S
C684 C683 1.523 . S
H685 C660 0.950 . S
H686 C662 0.950 . S
H687 C663 0.949 . S
H688 C665 0.950 . S
H689 C667 0.950 . S
C690 C691 1.349 . S
C690 C692 1.327 . S
C690 H715 0.950 . S
C691 C690 1.349 . S
C691 C707 1.349 . S
C692 C690 1.327 . S
C692 C711 1.429 . S
C692 H716 0.950 . S
C693 C710 1.574 . S
C693 C712 1.368 . S
C693 H717 0.949 . S
H694 C698 0.949 . S
C695 C696 1.349 . S
C695 C697 1.327 . S
C695 H718 0.950 . S
C696 C695 1.349 . S
C696 C708 1.349 . S
C697 C695 1.327 . S
C697 C713 1.429 . S
C697 H719 0.950 . S
C698 H694 0.949 . S
C698 C706 1.574 . S
C698 C714 1.368 . S
H699 C707 0.950 . S
H700 C705 0.950 . S
H701 C706 0.949 . S
H702 C708 0.950 . S
H703 C709 0.950 . S
H704 C710 0.949 . S
C705 H700 0.950 . S
C705 C707 1.327 . S
C705 C711 1.429 . S
C706 C698 1.574 . S
C706 H701 0.949 . S
C706 C712 1.368 . S
C707 C691 1.349 . S
C707 H699 0.950 . S
C707 C705 1.327 . S
C708 C696 1.349 . S
C708 H702 0.950 . S
C708 C709 1.327 . S
C709 H703 0.950 . S
C709 C708 1.327 . S
C709 C713 1.429 . S
C710 C693 1.574 . S
C710 H704 0.949 . S
C710 C714 1.368 . S
C711 C692 1.429 . S
C711 C705 1.429 . S
C711 C712 1.523 . S
C712 C693 1.368 . S
C712 C706 1.368 . S
C712 C711 1.523 . S
C713 C697 1.429 . S
C713 C709 1.429 . S
C713 C714 1.523 . S
C714 C698 1.368 . S
C714 C710 1.368 . S
C714 C713 1.523 . S
H715 C690 0.950 . S
H716 C692 0.950 . S
H717 C693 0.949 . S
H718 C695 0.950 . S
H719 C697 0.950 . S
C720 C721 1.349 . S
C720 C722 1.327 . S
C720 H745 0.950 . S
C721 C720 1.349 . S
C721 C737 1.349 . S
C722 C720 1.327 . S
C722 C741 1.429 . S
C722 H746 0.950 . S
C723 C740 1.574 . S
C723 C742 1.368 . S
C723 H747 0.949 . S
H724 C728 0.949 . S
C725 C726 1.349 . S
C725 C727 1.327 . S
C725 H748 0.950 . S
C726 C725 1.349 . S
C726 C738 1.349 . S
C727 C725 1.327 . S
C727 C743 1.429 . S
C727 H749 0.950 . S
C728 H724 0.949 . S
C728 C736 1.574 . S
C728 C744 1.368 . S
H729 C737 0.950 . S
H730 C735 0.950 . S
H731 C736 0.949 . S
H732 C738 0.950 . S
H733 C739 0.950 . S
H734 C740 0.949 . S
C735 H730 0.950 . S
C735 C737 1.327 . S
C735 C741 1.429 . S
C736 C728 1.574 . S
C736 H731 0.949 . S
C736 C742 1.368 . S
C737 C721 1.349 . S
C737 H729 0.950 . S
C737 C735 1.327 . S
C738 C726 1.349 . S
C738 H732 0.950 . S
C738 C739 1.327 . S
C739 H733 0.950 . S
C739 C738 1.327 . S
C739 C743 1.429 . S
C740 C723 1.574 . S
C740 H734 0.949 . S
C740 C744 1.368 . S
C741 C722 1.429 . S
C741 C735 1.429 . S
C741 C742 1.523 . S
C742 C723 1.368 . S
C742 C736 1.368 . S
C742 C741 1.523 . S
C743 C727 1.429 . S
C743 C739 1.429 . S
C743 C744 1.523 . S
C744 C728 1.368 . S
C744 C740 1.368 . S
C744 C743 1.523 . S
H745 C720 0.950 . S
H746 C722 0.950 . S
H747 C723 0.949 . S
H748 C725 0.950 . S
H749 C727 0.950 . S
C750 C751 1.349 . S
C750 C752 1.327 . S
C750 H775 0.950 . S
C751 C750 1.349 . S
C751 C767 1.349 . S
C752 C750 1.327 . S
C752 C771 1.429 . S
C752 H776 0.950 . S
C753 C770 1.574 . S
C753 C772 1.368 . S
C753 H777 0.949 . S
H754 C758 0.949 . S
C755 C756 1.349 . S
C755 C757 1.327 . S
C755 H778 0.950 . S
C756 C755 1.349 . S
C756 C768 1.349 . S
C757 C755 1.327 . S
C757 C773 1.429 . S
C757 H779 0.950 . S
C758 H754 0.949 . S
C758 C766 1.574 . S
C758 C774 1.368 . S
H759 C767 0.950 . S
H760 C765 0.950 . S
H761 C766 0.949 . S
H762 C768 0.950 . S
H763 C769 0.950 . S
H764 C770 0.949 . S
C765 H760 0.950 . S
C765 C767 1.327 . S
C765 C771 1.429 . S
C766 C758 1.574 . S
C766 H761 0.949 . S
C766 C772 1.368 . S
C767 C751 1.349 . S
C767 H759 0.950 . S
C767 C765 1.327 . S
C768 C756 1.349 . S
C768 H762 0.950 . S
C768 C769 1.327 . S
C769 H763 0.950 . S
C769 C768 1.327 . S
C769 C773 1.429 . S
C770 C753 1.574 . S
C770 H764 0.949 . S
C770 C774 1.368 . S
C771 C752 1.429 . S
C771 C765 1.429 . S
C771 C772 1.523 . S
C772 C753 1.368 . S
C772 C766 1.368 . S
C772 C771 1.523 . S
C773 C757 1.429 . S
C773 C769 1.429 . S
C773 C774 1.523 . S
C774 C758 1.368 . S
C774 C770 1.368 . S
C774 C773 1.523 . S
H775 C750 0.950 . S
H776 C752 0.950 . S
H777 C753 0.949 . S
H778 C755 0.950 . S
H779 C757 0.950 . S
C780 C781 1.349 . S
C780 C782 1.327 . S
C780 H805 0.950 . S
C781 C780 1.349 . S
C781 C797 1.349 . S
C782 C780 1.327 . S
C782 C801 1.429 . S
C782 H806 0.950 . S
C783 C800 1.574 . S
C783 C802 1.368 . S
C783 H807 0.949 . S
H784 C788 0.949 . S
C785 C786 1.349 . S
C785 C787 1.327 . S
C785 H808 0.950 . S
C786 C785 1.349 . S
C786 C798 1.349 . S
C787 C785 1.327 . S
C787 C803 1.429 . S
C787 H809 0.950 . S
C788 H784 0.949 . S
C788 C796 1.574 . S
C788 C804 1.368 . S
H789 C797 0.950 . S
H790 C795 0.950 . S
H791 C796 0.949 . S
H792 C798 0.950 . S
H793 C799 0.950 . S
H794 C800 0.949 . S
C795 H790 0.950 . S
C795 C797 1.327 . S
C795 C801 1.429 . S
C796 C788 1.574 . S
C796 H791 0.949 . S
C796 C802 1.368 . S
C797 C781 1.349 . S
C797 H789 0.950 . S
C797 C795 1.327 . S
C798 C786 1.349 . S
C798 H792 0.950 . S
C798 C799 1.327 . S
C799 H793 0.950 . S
C799 C798 1.327 . S
C799 C803 1.429 . S
C800 C783 1.574 . S
C800 H794 0.949 . S
C800 C804 1.368 . S
C801 C782 1.429 . S
C801 C795 1.429 . S
C801 C802 1.523 . S
C802 C783 1.368 . S
C802 C796 1.368 . S
C802 C801 1.523 . S
C803 C787 1.429 . S
C803 C799 1.429 . S
C803 C804 1.523 . S
C804 C788 1.368 . S
C804 C800 1.368 . S
C804 C803 1.523 . S
H805 C780 0.950 . S
H806 C782 0.950 . S
H807 C783 0.949 . S
H808 C785 0.950 . S
H809 C787 0.950 . S
C810 C811 1.349 . S
C810 C812 1.327 . S
C810 H835 0.950 . S
C811 C810 1.349 . S
C811 C827 1.349 . S
C812 C810 1.327 . S
C812 C831 1.429 . S
C812 H836 0.950 . S
C813 C830 1.574 . S
C813 C832 1.368 . S
C813 H837 0.949 . S
H814 C818 0.949 . S
C815 C816 1.349 . S
C815 C817 1.327 . S
C815 H838 0.950 . S
C816 C815 1.349 . S
C816 C828 1.349 . S
C817 C815 1.327 . S
C817 C833 1.429 . S
C817 H839 0.950 . S
C818 H814 0.949 . S
C818 C826 1.574 . S
C818 C834 1.368 . S
H819 C827 0.950 . S
H820 C825 0.950 . S
H821 C826 0.949 . S
H822 C828 0.950 . S
H823 C829 0.950 . S
H824 C830 0.949 . S
C825 H820 0.950 . S
C825 C827 1.327 . S
C825 C831 1.429 . S
C826 C818 1.574 . S
C826 H821 0.949 . S
C826 C832 1.368 . S
C827 C811 1.349 . S
C827 H819 0.950 . S
C827 C825 1.327 . S
C828 C816 1.349 . S
C828 H822 0.950 . S
C828 C829 1.327 . S
C829 H823 0.950 . S
C829 C828 1.327 . S
C829 C833 1.429 . S
C830 C813 1.574 . S
C830 H824 0.949 . S
C830 C834 1.368 . S
C831 C812 1.429 . S
C831 C825 1.429 . S
C831 C832 1.523 . S
C832 C813 1.368 . S
C832 C826 1.368 . S
C832 C831 1.523 . S
C833 C817 1.429 . S
C833 C829 1.429 . S
C833 C834 1.523 . S
C834 C818 1.368 . S
C834 C830 1.368 . S
C834 C833 1.523 . S
H835 C810 0.950 . S
H836 C812 0.950 . S
H837 C813 0.949 . S
H838 C815 0.950 . S
H839 C817 0.950 . S
C840 C841 1.349 . S
C840 C842 1.327 . S
C840 H865 0.950 . S
C841 C840 1.349 . S
C841 C857 1.349 . S
C842 C840 1.327 . S
C842 C861 1.429 . S
C842 H866 0.950 . S
C843 C860 1.574 . S
C843 C862 1.368 . S
C843 H867 0.949 . S
H844 C848 0.949 . S
C845 C846 1.349 . S
C845 C847 1.327 . S
C845 H868 0.950 . S
C846 C845 1.349 . S
C846 C858 1.349 . S
C847 C845 1.327 . S
C847 C863 1.429 . S
C847 H869 0.950 . S
C848 H844 0.949 . S
C848 C856 1.574 . S
C848 C864 1.368 . S
H849 C857 0.950 . S
H850 C855 0.950 . S
H851 C856 0.949 . S
H852 C858 0.950 . S
H853 C859 0.950 . S
H854 C860 0.949 . S
C855 H850 0.950 . S
C855 C857 1.327 . S
C855 C861 1.429 . S
C856 C848 1.574 . S
C856 H851 0.949 . S
C856 C862 1.368 . S
C857 C841 1.349 . S
C857 H849 0.950 . S
C857 C855 1.327 . S
C858 C846 1.349 . S
C858 H852 0.950 . S
C858 C859 1.327 . S
C859 H853 0.950 . S
C859 C858 1.327 . S
C859 C863 1.429 . S
C860 C843 1.574 . S
C860 H854 0.949 . S
C860 C864 1.368 . S
C861 C842 1.429 . S
C861 C855 1.429 . S
C861 C862 1.523 . S
C862 C843 1.368 . S
C862 C856 1.368 . S
C862 C861 1.523 . S
C863 C847 1.429 . S
C863 C859 1.429 . S
C863 C864 1.523 . S
C864 C848 1.368 . S
C864 C860 1.368 . S
C864 C863 1.523 . S
H865 C840 0.950 . S
H866 C842 0.950 . S
H867 C843 0.949 . S
H868 C845 0.950 . S
H869 C847 0.950 . S
C870 C871 1.349 . S
C870 C872 1.327 . S
C870 H895 0.950 . S
C871 C870 1.349 . S
C871 C887 1.349 . S
C872 C870 1.327 . S
C872 C891 1.429 . S
C872 H896 0.950 . S
C873 C890 1.574 . S
C873 C892 1.368 . S
C873 H897 0.949 . S
H874 C878 0.949 . S
C875 C876 1.349 . S
C875 C877 1.327 . S
C875 H898 0.950 . S
C876 C875 1.349 . S
C876 C888 1.349 . S
C877 C875 1.327 . S
C877 C893 1.429 . S
C877 H899 0.950 . S
C878 H874 0.949 . S
C878 C886 1.574 . S
C878 C894 1.368 . S
H879 C887 0.950 . S
H880 C885 0.950 . S
H881 C886 0.949 . S
H882 C888 0.950 . S
H883 C889 0.950 . S
H884 C890 0.949 . S
C885 H880 0.950 . S
C885 C887 1.327 . S
C885 C891 1.429 . S
C886 C878 1.574 . S
C886 H881 0.949 . S
C886 C892 1.368 . S
C887 C871 1.349 . S
C887 H879 0.950 . S
C887 C885 1.327 . S
C888 C876 1.349 . S
C888 H882 0.950 . S
C888 C889 1.327 . S
C889 H883 0.950 . S
C889 C888 1.327 . S
C889 C893 1.429 . S
C890 C873 1.574 . S
C890 H884 0.949 . S
C890 C894 1.368 . S
C891 C872 1.429 . S
C891 C885 1.429 . S
C891 C892 1.523 . S
C892 C873 1.368 . S
C892 C886 1.368 . S
C892 C891 1.523 . S
C893 C877 1.429 . S
C893 C889 1.429 . S
C893 C894 1.523 . S
C894 C878 1.368 . S
C894 C890 1.368 . S
C894 C893 1.523 . S
H895 C870 0.950 . S
H896 C872 0.950 . S
H897 C873 0.949 . S
H898 C875 0.950 . S
H899 C877 0.950 . S
C900 C901 1.349 . S
C900 C902 1.327 . S
C900 H925 0.950 . S
C901 C900 1.349 . S
C901 C917 1.349 . S
C902 C900 1.327 . S
C902 C921 1.429 . S
C902 H926 0.950 . S
C903 C920 1.574 . S
C903 C922 1.368 . S
C903 H927 0.949 . S
H904 C908 0.949 . S
C905 C906 1.349 . S
C905 C907 1.327 . S
C905 H928 0.950 . S
C906 C905 1.349 . S
C906 C918 1.349 . S
C907 C905 1.327 . S
C907 C923 1.429 . S
C907 H929 0.950 . S
C908 H904 0.949 . S
C908 C916 1.574 . S
C908 C924 1.368 . S
H909 C917 0.950 . S
H910 C915 0.950 . S
H911 C916 0.949 . S
H912 C918 0.950 . S
H913 C919 0.950 . S
H914 C920 0.949 . S
C915 H910 0.950 . S
C915 C917 1.327 . S
C915 C921 1.429 . S
C916 C908 1.574 . S
C916 H911 0.949 . S
C916 C922 1.368 . S
C917 C901 1.349 . S
C917 H909 0.950 . S
C917 C915 1.327 . S
C918 C906 1.349 . S
C918 H912 0.950 . S
C918 C919 1.327 . S
C919 H913 0.950 . S
C919 C918 1.327 . S
C919 C923 1.429 . S
C920 C903 1.574 . S
C920 H914 0.949 . S
C920 C924 1.368 . S
C921 C902 1.429 . S
C921 C915 1.429 . S
C921 C922 1.523 . S
C922 C903 1.368 . S
C922 C916 1.368 . S
C922 C921 1.523 . S
C923 C907 1.429 . S
C923 C919 1.429 . S
C923 C924 1.523 . S
C924 C908 1.368 . S
C924 C920 1.368 . S
C924 C923 1.523 . S
H925 C900 0.950 . S
H926 C902 0.950 . S
H927 C903 0.949 . S
H928 C905 0.950 . S
H929 C907 0.950 . S
C930 C931 1.349 . S
C930 C932 1.327 . S
C930 H955 0.950 . S
C931 C930 1.349 . S
C931 C947 1.349 . S
C932 C930 1.327 . S
C932 C951 1.429 . S
C932 H956 0.950 . S
C933 C950 1.574 . S
C933 C952 1.368 . S
C933 H957 0.949 . S
H934 C938 0.949 . S
C935 C936 1.349 . S
C935 C937 1.327 . S
C935 H958 0.950 . S
C936 C935 1.349 . S
C936 C948 1.349 . S
C937 C935 1.327 . S
C937 C953 1.429 . S
C937 H959 0.950 . S
C938 H934 0.949 . S
C938 C946 1.574 . S
C938 C954 1.368 . S
H939 C947 0.950 . S
H940 C945 0.950 . S
H941 C946 0.949 . S
H942 C948 0.950 . S
H943 C949 0.950 . S
H944 C950 0.949 . S
C945 H940 0.950 . S
C945 C947 1.327 . S
C945 C951 1.429 . S
C946 C938 1.574 . S
C946 H941 0.949 . S
C946 C952 1.368 . S
C947 C931 1.349 . S
C947 H939 0.950 . S
C947 C945 1.327 . S
C948 C936 1.349 . S
C948 H942 0.950 . S
C948 C949 1.327 . S
C949 H943 0.950 . S
C949 C948 1.327 . S
C949 C953 1.429 . S
C950 C933 1.574 . S
C950 H944 0.949 . S
C950 C954 1.368 . S
C951 C932 1.429 . S
C951 C945 1.429 . S
C951 C952 1.523 . S
C952 C933 1.368 . S
C952 C946 1.368 . S
C952 C951 1.523 . S
C953 C937 1.429 . S
C953 C949 1.429 . S
C953 C954 1.523 . S
C954 C938 1.368 . S
C954 C950 1.368 . S
C954 C953 1.523 . S
H955 C930 0.950 . S
H956 C932 0.950 . S
H957 C933 0.949 . S
H958 C935 0.950 . S
H959 C937 0.950 . S
C960 C961 1.349 . S
C960 C962 1.327 . S
C960 H985 0.950 . S
C961 C960 1.349 . S
C961 C977 1.349 . S
C962 C960 1.327 . S
C962 C981 1.429 . S
C962 H986 0.950 . S
C963 C980 1.574 . S
C963 C982 1.368 . S
C963 H987 0.949 . S
H964 C968 0.949 . S
C965 C966 1.349 . S
C965 C967 1.327 . S
C965 H988 0.950 . S
C966 C965 1.349 . S
C966 C978 1.349 . S
C967 C965 1.327 . S
C967 C983 1.429 . S
C967 H989 0.950 . S
C968 H964 0.949 . S
C968 C976 1.574 . S
C968 C984 1.368 . S
H969 C977 0.950 . S
H970 C975 0.950 . S
H971 C976 0.949 . S
H972 C978 0.950 . S
H973 C979 0.950 . S
H974 C980 0.949 . S
C975 H970 0.950 . S
C975 C977 1.327 . S
C975 C981 1.429 . S
C976 C968 1.574 . S
C976 H971 0.949 . S
C976 C982 1.368 . S
C977 C961 1.349 . S
C977 H969 0.950 . S
C977 C975 1.327 . S
C978 C966 1.349 . S
C978 H972 0.950 . S
C978 C979 1.327 . S
C979 H973 0.950 . S
C979 C978 1.327 . S
C979 C983 1.429 . S
C980 C963 1.574 . S
C980 H974 0.949 . S
C980 C984 1.368 . S
C981 C962 1.429 . S
C981 C975 1.429 . S
C981 C982 1.523 . S
C982 C963 1.368 . S
C982 C976 1.368 . S
C982 C981 1.523 . S
C983 C967 1.429 . S
C983 C979 1.429 . S
C983 C984 1.523 . S
C984 C968 1.368 . S
C984 C980 1.368 . S
C984 C983 1.523 . S
H985 C960 0.950 . S
H986 C962 0.950 . S
H987 C963 0.949 . S
H988 C965 0.950 . S
H989 C967 0.950 . S
C990 C991 1.349 . S
C990 C992 1.327 . S
C990 H1015 0.950 . S
C991 C990 1.349 . S
C991 C1007 1.349 . S
C992 C990 1.327 . S
C992 C1011 1.429 . S
C992 H1016 0.950 . S
C993 C1010 1.574 . S
C993 C1012 1.368 . S
C993 H1017 0.949 . S
H994 C998 0.949 . S
C995 C996 1.349 . S
C995 C997 1.327 . S
C995 H1018 0.950 . S
C996 C995 1.349 . S
C996 C1008 1.349 . S
C997 C995 1.327 . S
C997 C1013 1.429 . S
C997 H1019 0.950 . S
C998 H994 0.949 . S
C998 C1006 1.574 . S
C998 C1014 1.368 . S
H999 C1007 0.950 . S
H1000 C1005 0.950 . S
H1001 C1006 0.949 . S
H1002 C1008 0.950 . S
H1003 C1009 0.950 . S
H1004 C1010 0.949 . S
C1005 H1000 0.950 . S
C1005 C1007 1.327 . S
C1005 C1011 1.429 . S
C1006 C998 1.574 . S
C1006 H1001 0.949 . S
C1006 C1012 1.368 . S
C1007 C991 1.349 . S
C1007 H999 0.950 . S
C1007 C1005 1.327 . S
C1008 C996 1.349 . S
C1008 H1002 0.950 . S
C1008 C1009 1.327 . S
C1009 H1003 0.950 . S
C1009 C1008 1.327 . S
C1009 C1013 1.429 . S
C1010 C993 1.574 . S
C1010 H1004 0.949 . S
C1010 C1014 1.368 . S
C1011 C992 1.429 . S
C1011 C1005 1.429 . S
C1011 C1012 1.523 . S
C1012 C993 1.368 . S
C1012 C1006 1.368 . S
C1012 C1011 1.523 . S
C1013 C997 1.429 . S
C1013 C1009 1.429 . S
C1013 C1014 1.523 . S
C1014 C998 1.368 . S
C1014 C1010 1.368 . S
C1014 C1013 1.523 . S
H1015 C990 0.950 . S
H1016 C992 0.950 . S
H1017 C993 0.949 . S
H1018 C995 0.950 . S
H1019 C997 0.950 . S
C1020 C1021 1.349 . S
C1020 C1022 1.327 . S
C1020 H1045 0.950 . S
C1021 C1020 1.349 . S
C1021 C1037 1.349 . S
C1022 C1020 1.327 . S
C1022 C1041 1.429 . S
C1022 H1046 0.950 . S
C1023 C1040 1.574 . S
C1023 C1042 1.368 . S
C1023 H1047 0.949 . S
H1024 C1028 0.949 . S
C1025 C1026 1.349 . S
C1025 C1027 1.327 . S
C1025 H1048 0.950 . S
C1026 C1025 1.349 . S
C1026 C1038 1.349 . S
C1027 C1025 1.327 . S
C1027 C1043 1.429 . S
C1027 H1049 0.950 . S
C1028 H1024 0.949 . S
C1028 C1036 1.574 . S
C1028 C1044 1.368 . S
H1029 C1037 0.950 . S
H1030 C1035 0.950 . S
H1031 C1036 0.949 . S
H1032 C1038 0.950 . S
H1033 C1039 0.950 . S
H1034 C1040 0.949 . S
C1035 H1030 0.950 . S
C1035 C1037 1.327 . S
C1035 C1041 1.429 . S
C1036 C1028 1.574 . S
C1036 H1031 0.949 . S
C1036 C1042 1.368 . S
C1037 C1021 1.349 . S
C1037 H1029 0.950 . S
C1037 C1035 1.327 . S
C1038 C1026 1.349 . S
C1038 H1032 0.950 . S
C1038 C1039 1.327 . S
C1039 H1033 0.950 . S
C1039 C1038 1.327 . S
C1039 C1043 1.429 . S
C1040 C1023 1.574 . S
C1040 H1034 0.949 . S
C1040 C1044 1.368 . S
C1041 C1022 1.429 . S
C1041 C1035 1.429 . S
C1041 C1042 1.523 . S
C1042 C1023 1.368 . S
C1042 C1036 1.368 . S
C1042 C1041 1.523 . S
C1043 C1027 1.429 . S
C1043 C1039 1.429 . S
C1043 C1044 1.523 . S
C1044 C1028 1.368 . S
C1044 C1040 1.368 . S
C1044 C1043 1.523 . S
H1045 C1020 0.950 . S
H1046 C1022 0.950 . S
H1047 C1023 0.949 . S
H1048 C1025 0.950 . S
H1049 C1027 0.950 . S
C1050 C1051 1.349 . S
C1050 C1052 1.327 . S
C1050 H1075 0.950 . S
C1051 C1050 1.349 . S
C1051 C1067 1.349 . S
C1052 C1050 1.327 . S
C1052 C1071 1.429 . S
C1052 H1076 0.950 . S
C1053 C1070 1.574 . S
C1053 C1072 1.368 . S
C1053 H1077 0.949 . S
H1054 C1058 0.949 . S
C1055 C1056 1.349 . S
C1055 C1057 1.327 . S
C1055 H1078 0.950 . S
C1056 C1055 1.349 . S
C1056 C1068 1.349 . S
C1057 C1055 1.327 . S
C1057 C1073 1.429 . S
C1057 H1079 0.950 . S
C1058 H1054 0.949 . S
C1058 C1066 1.574 . S
C1058 C1074 1.368 . S
H1059 C1067 0.950 . S
H1060 C1065 0.950 . S
H1061 C1066 0.949 . S
H1062 C1068 0.950 . S
H1063 C1069 0.950 . S
H1064 C1070 0.949 . S
C1065 H1060 0.950 . S
C1065 C1067 1.327 . S
C1065 C1071 1.429 . S
C1066 C1058 1.574 . S
C1066 H1061 0.949 . S
C1066 C1072 1.368 . S
C1067 C1051 1.349 . S
C1067 H1059 0.950 . S
C1067 C1065 1.327 . S
C1068 C1056 1.349 . S
C1068 H1062 0.950 . S
C1068 C1069 1.327 . S
C1069 H1063 0.950 . S
C1069 C1068 1.327 . S
C1069 C1073 1.429 . S
C1070 C1053 1.574 . S
C1070 H1064 0.949 . S
C1070 C1074 1.368 . S
C1071 C1052 1.429 . S
C1071 C1065 1.429 . S
C1071 C1072 1.523 . S
C1072 C1053 1.368 . S
C1072 C1066 1.368 . S
C1072 C1071 1.523 . S
C1073 C1057 1.429 . S
C1073 C1069 1.429 . S
C1073 C1074 1.523 . S
C1074 C1058 1.368 . S
C1074 C1070 1.368 . S
C1074 C1073 1.523 . S
H1075 C1050 0.950 . S
H1076 C1052 0.950 . S
H1077 C1053 0.949 . S
H1078 C1055 0.950 . S
H1079 C1057 0.950 . S
C1080 C1081 1.349 . S
C1080 C1082 1.327 . S
C1080 H1105 0.950 . S
C1081 C1080 1.349 . S
C1081 C1097 1.349 . S
C1082 C1080 1.327 . S
C1082 C1101 1.429 . S
C1082 H1106 0.950 . S
C1083 C1100 1.574 . S
C1083 C1102 1.368 . S
C1083 H1107 0.949 . S
H1084 C1088 0.949 . S
C1085 C1086 1.349 . S
C1085 C1087 1.327 . S
C1085 H1108 0.950 . S
C1086 C1085 1.349 . S
C1086 C1098 1.349 . S
C1087 C1085 1.327 . S
C1087 C1103 1.429 . S
C1087 H1109 0.950 . S
C1088 H1084 0.949 . S
C1088 C1096 1.574 . S
C1088 C1104 1.368 . S
H1089 C1097 0.950 . S
H1090 C1095 0.950 . S
H1091 C1096 0.949 . S
H1092 C1098 0.950 . S
H1093 C1099 0.950 . S
H1094 C1100 0.949 . S
C1095 H1090 0.950 . S
C1095 C1097 1.327 . S
C1095 C1101 1.429 . S
C1096 C1088 1.574 . S
C1096 H1091 0.949 . S
C1096 C1102 1.368 . S
C1097 C1081 1.349 . S
C1097 H1089 0.950 . S
C1097 C1095 1.327 . S
C1098 C1086 1.349 . S
C1098 H1092 0.950 . S
C1098 C1099 1.327 . S
C1099 H1093 0.950 . S
C1099 C1098 1.327 . S
C1099 C1103 1.429 . S
C1100 C1083 1.574 . S
C1100 H1094 0.949 . S
C1100 C1104 1.368 . S
C1101 C1082 1.429 . S
C1101 C1095 1.429 . S
C1101 C1102 1.523 . S
C1102 C1083 1.368 . S
C1102 C1096 1.368 . S
C1102 C1101 1.523 . S
C1103 C1087 1.429 . S
C1103 C1099 1.429 . S
C1103 C1104 1.523 . S
C1104 C1088 1.368 . S
C1104 C1100 1.368 . S
C1104 C1103 1.523 . S
H1105 C1080 0.950 . S
H1106 C1082 0.950 . S
H1107 C1083 0.949 . S
H1108 C1085 0.950 . S
H1109 C1087 0.950 . S
C1110 C1111 1.349 . S
C1110 C1112 1.327 . S
C1110 H1135 0.950 . S
C1111 C1110 1.349 . S
C1111 C1127 1.349 . S
C1112 C1110 1.327 . S
C1112 C1131 1.429 . S
C1112 H1136 0.950 . S
C1113 C1130 1.574 . S
C1113 C1132 1.368 . S
C1113 H1137 0.949 . S
H1114 C1118 0.949 . S
C1115 C1116 1.349 . S
C1115 C1117 1.327 . S
C1115 H1138 0.950 . S
C1116 C1115 1.349 . S
C1116 C1128 1.349 . S
C1117 C1115 1.327 . S
C1117 C1133 1.429 . S
C1117 H1139 0.950 . S
C1118 H1114 0.949 . S
C1118 C1126 1.574 . S
C1118 C1134 1.368 . S
H1119 C1127 0.950 . S
H1120 C1125 0.950 . S
H1121 C1126 0.949 . S
H1122 C1128 0.950 . S
H1123 C1129 0.950 . S
H1124 C1130 0.949 . S
C1125 H1120 0.950 . S
C1125 C1127 1.327 . S
C1125 C1131 1.429 . S
C1126 C1118 1.574 . S
C1126 H1121 0.949 . S
C1126 C1132 1.368 . S
C1127 C1111 1.349 . S
C1127 H1119 0.950 . S
C1127 C1125 1.327 . S
C1128 C1116 1.349 . S
C1128 H1122 0.950 . S
C1128 C1129 1.327 . S
C1129 H1123 0.950 . S
C1129 C1128 1.327 . S
C1129 C1133 1.429 . S
C1130 C1113 1.574 . S
C1130 H1124 0.949 . S
C1130 C1134 1.368 . S
C1131 C1112 1.429 . S
C1131 C1125 1.429 . S
C1131 C1132 1.523 . S
C1132 C1113 1.368 . S
C1132 C1126 1.368 . S
C1132 C1131 1.523 . S
C1133 C1117 1.429 . S
C1133 C1129 1.429 . S
C1133 C1134 1.523 . S
C1134 C1118 1.368 . S
C1134 C1130 1.368 . S
C1134 C1133 1.523 . S
H1135 C1110 0.950 . S
H1136 C1112 0.950 . S
H1137 C1113 0.949 . S
H1138 C1115 0.950 . S
H1139 C1117 0.950 . S
C1140 C1141 1.349 . S
C1140 C1142 1.327 . S
C1140 H1165 0.950 . S
C1141 C1140 1.349 . S
C1141 C1157 1.349 . S
C1142 C1140 1.327 . S
C1142 C1161 1.429 . S
C1142 H1166 0.950 . S
C1143 C1160 1.544 1_556 S
C1143 C1162 1.368 . S
C1143 H1167 0.949 . S
H1144 C1148 0.949 . S
C1145 C1146 1.349 . S
C1145 C1147 1.327 . S
C1145 H1168 0.950 . S
C1146 C1145 1.349 . S
C1146 C1158 1.349 . S
C1147 C1145 1.327 . S
C1147 C1163 1.429 . S
C1147 H1169 0.950 . S
C1148 H1144 0.949 . S
C1148 C1156 1.545 1_554 S
C1148 C1164 1.368 . S
H1149 C1157 0.950 . S
H1150 C1155 0.950 . S
H1151 C1156 0.952 . S
H1152 C1158 0.950 . S
H1153 C1159 0.950 . S
H1154 C1160 0.952 . S
C1155 H1150 0.950 . S
C1155 C1157 1.327 . S
C1155 C1161 1.429 . S
C1156 C1148 1.545 1_556 S
C1156 H1151 0.952 . S
C1156 C1162 1.395 . S
C1157 C1141 1.349 . S
C1157 H1149 0.950 . S
C1157 C1155 1.327 . S
C1158 C1146 1.349 . S
C1158 H1152 0.950 . S
C1158 C1159 1.327 . S
C1159 H1153 0.950 . S
C1159 C1158 1.327 . S
C1159 C1163 1.429 . S
C1160 C1143 1.544 1_554 S
C1160 H1154 0.952 . S
C1160 C1164 1.396 . S
C1161 C1142 1.429 . S
C1161 C1155 1.429 . S
C1161 C1162 1.523 . S
C1162 C1143 1.368 . S
C1162 C1156 1.395 . S
C1162 C1161 1.523 . S
C1163 C1147 1.429 . S
C1163 C1159 1.429 . S
C1163 C1164 1.523 . S
C1164 C1148 1.368 . S
C1164 C1160 1.396 . S
C1164 C1163 1.523 . S
H1165 C1140 0.950 . S
H1166 C1142 0.950 . S
H1167 C1143 0.949 . S
H1168 C1145 0.950 . S
H1169 C1147 0.950 . S
C1170 C1171 1.349 . S
C1170 C1172 1.327 . S
C1170 H1195 0.950 . S
C1171 C1170 1.349 . S
C1171 C1187 1.349 . S
C1172 C1170 1.327 . S
C1172 C1191 1.429 . S
C1172 H1196 0.950 . S
C1173 C1190 1.574 1_455 S
C1173 C1192 1.368 . S
C1173 H1197 0.949 . S
H1174 C1178 0.949 . S
C1175 C1176 1.349 . S
C1175 C1177 1.327 . S
C1175 H1198 0.950 . S
C1176 C1175 1.349 . S
C1176 C1188 1.349 . S
C1177 C1175 1.327 . S
C1177 C1193 1.429 . S
C1177 H1199 0.950 . S
C1178 H1174 0.949 . S
C1178 C1186 1.574 1_655 S
C1178 C1194 1.368 . S
H1179 C1187 0.950 . S
H1180 C1185 0.950 . S
H1181 C1186 0.949 . S
H1182 C1188 0.950 . S
H1183 C1189 0.950 . S
H1184 C1190 0.949 . S
C1185 H1180 0.950 . S
C1185 C1187 1.327 . S
C1185 C1191 1.429 . S
C1186 C1178 1.574 1_455 S
C1186 H1181 0.949 . S
C1186 C1192 1.368 . S
C1187 C1171 1.349 . S
C1187 H1179 0.950 . S
C1187 C1185 1.327 . S
C1188 C1176 1.349 . S
C1188 H1182 0.950 . S
C1188 C1189 1.327 . S
C1189 H1183 0.950 . S
C1189 C1188 1.327 . S
C1189 C1193 1.429 . S
C1190 C1173 1.574 1_655 S
C1190 H1184 0.949 . S
C1190 C1194 1.368 . S
C1191 C1172 1.429 . S
C1191 C1185 1.429 . S
C1191 C1192 1.523 . S
C1192 C1173 1.368 . S
C1192 C1186 1.368 . S
C1192 C1191 1.523 . S
C1193 C1177 1.429 . S
C1193 C1189 1.429 . S
C1193 C1194 1.523 . S
C1194 C1178 1.368 . S
C1194 C1190 1.368 . S
C1194 C1193 1.523 . S
H1195 C1170 0.950 . S
H1196 C1172 0.950 . S
H1197 C1173 0.949 . S
H1198 C1175 0.950 . S
H1199 C1177 0.950 . S
C1200 C1201 1.349 . S
C1200 C1202 1.327 . S
C1200 H1225 0.950 . S
C1201 C1200 1.349 . S
C1201 C1217 1.349 . S
C1202 C1200 1.327 . S
C1202 C1221 1.429 . S
C1202 H1226 0.950 . S
C1203 C1220 1.574 . S
C1203 C1222 1.368 1_556 S
C1203 H1227 0.949 . S
H1204 C1208 0.949 . S
C1205 C1206 1.349 . S
C1205 C1207 1.327 . S
C1205 H1228 0.950 . S
C1206 C1205 1.349 . S
C1206 C1218 1.349 . S
C1207 C1205 1.327 . S
C1207 C1223 1.429 . S
C1207 H1229 0.950 . S
C1208 H1204 0.949 . S
C1208 C1216 1.574 . S
C1208 C1224 1.368 1_554 S
H1209 C1217 0.950 . S
H1210 C1215 0.950 . S
H1211 C1216 0.949 . S
H1212 C1218 0.950 . S
H1213 C1219 0.950 . S
H1214 C1220 0.949 . S
C1215 H1210 0.950 . S
C1215 C1217 1.327 . S
C1215 C1221 1.429 . S
C1216 C1208 1.574 . S
C1216 H1211 0.949 . S
C1216 C1222 1.368 1_545 S
C1217 C1201 1.349 . S
C1217 H1209 0.950 . S
C1217 C1215 1.327 . S
C1218 C1206 1.349 . S
C1218 H1212 0.950 . S
C1218 C1219 1.327 . S
C1219 H1213 0.950 . S
C1219 C1218 1.327 . S
C1219 C1223 1.429 . S
C1220 C1203 1.574 . S
C1220 H1214 0.949 . S
C1220 C1224 1.368 1_565 S
C1221 C1202 1.429 . S
C1221 C1215 1.429 . S
C1221 C1222 1.523 . S
C1222 C1203 1.368 1_554 S
C1222 C1216 1.368 1_565 S
C1222 C1221 1.523 . S
C1223 C1207 1.429 . S
C1223 C1219 1.429 . S
C1223 C1224 1.523 . S
C1224 C1208 1.368 1_556 S
C1224 C1220 1.368 1_545 S
C1224 C1223 1.523 . S
H1225 C1200 0.950 . S
H1226 C1202 0.950 . S
H1227 C1203 0.949 . S
H1228 C1205 0.950 . S
H1229 C1207 0.950 . S
C1230 C1231 1.349 . S
C1230 C1232 1.327 . S
C1230 H1255 0.950 . S
C1231 C1230 1.349 . S
C1231 C1247 1.349 . S
C1232 C1230 1.327 . S
C1232 C1251 1.429 . S
C1232 H1256 0.950 . S
C1233 C1250 1.574 . S
C1233 C1252 1.368 . S
C1233 H1257 0.949 . S
H1234 C1238 0.949 . S
C1235 C1236 1.349 . S
C1235 C1237 1.327 . S
C1235 H1258 0.950 . S
C1236 C1235 1.349 . S
C1236 C1248 1.349 . S
C1237 C1235 1.327 . S
C1237 C1253 1.429 . S
C1237 H1259 0.950 . S
C1238 H1234 0.949 . S
C1238 C1246 1.574 . S
C1238 C1254 1.368 . S
H1239 C1247 0.950 . S
H1240 C1245 0.950 . S
H1241 C1246 0.949 . S
H1242 C1248 0.950 . S
H1243 C1249 0.950 . S
H1244 C1250 0.949 . S
C1245 H1240 0.950 . S
C1245 C1247 1.327 . S
C1245 C1251 1.429 . S
C1246 C1238 1.574 . S
C1246 H1241 0.949 . S
C1246 C1252 1.368 . S
C1247 C1231 1.349 . S
C1247 H1239 0.950 . S
C1247 C1245 1.327 . S
C1248 C1236 1.349 . S
C1248 H1242 0.950 . S
C1248 C1249 1.327 . S
C1249 H1243 0.950 . S
C1249 C1248 1.327 . S
C1249 C1253 1.429 . S
C1250 C1233 1.574 . S
C1250 H1244 0.949 . S
C1250 C1254 1.368 . S
C1251 C1232 1.429 . S
C1251 C1245 1.429 . S
C1251 C1252 1.523 . S
C1252 C1233 1.368 . S
C1252 C1246 1.368 . S
C1252 C1251 1.523 . S
C1253 C1237 1.429 . S
C1253 C1249 1.429 . S
C1253 C1254 1.523 . S
C1254 C1238 1.368 . S
C1254 C1250 1.368 . S
C1254 C1253 1.523 . S
H1255 C1230 0.950 . S
H1256 C1232 0.950 . S
H1257 C1233 0.949 . S
H1258 C1235 0.950 . S
H1259 C1237 0.950 . S
C1260 C1261 1.349 . S
C1260 C1262 1.327 . S
C1260 H1285 0.950 . S
C1261 C1260 1.349 . S
C1261 C1277 1.349 . S
C1262 C1260 1.327 . S
C1262 C1281 1.429 . S
C1262 H1286 0.950 . S
C1263 C1280 1.574 1_656 S
C1263 C1282 1.368 . S
C1263 H1287 0.949 . S
H1264 C1268 0.949 . S
C1265 C1266 1.349 . S
C1265 C1267 1.327 . S
C1265 H1288 0.950 . S
C1266 C1265 1.349 . S
C1266 C1278 1.349 . S
C1267 C1265 1.327 . S
C1267 C1283 1.429 . S
C1267 H1289 0.950 . S
C1268 H1264 0.949 . S
C1268 C1276 1.574 1_454 S
C1268 C1284 1.368 . S
H1269 C1277 0.950 . S
H1270 C1275 0.950 . S
H1271 C1276 0.949 . S
H1272 C1278 0.950 . S
H1273 C1279 0.950 . S
H1274 C1280 0.949 . S
C1275 H1270 0.950 . S
C1275 C1277 1.327 . S
C1275 C1281 1.429 . S
C1276 C1268 1.574 1_656 S
C1276 H1271 0.949 . S
C1276 C1282 1.368 . S
C1277 C1261 1.349 . S
C1277 H1269 0.950 . S
C1277 C1275 1.327 . S
C1278 C1266 1.349 . S
C1278 H1272 0.950 . S
C1278 C1279 1.327 . S
C1279 H1273 0.950 . S
C1279 C1278 1.327 . S
C1279 C1283 1.429 . S
C1280 C1263 1.574 1_454 S
C1280 H1274 0.949 . S
C1280 C1284 1.368 . S
C1281 C1262 1.429 . S
C1281 C1275 1.429 . S
C1281 C1282 1.523 . S
C1282 C1263 1.368 . S
C1282 C1276 1.368 . S
C1282 C1281 1.523 . S
C1283 C1267 1.429 . S
C1283 C1279 1.429 . S
C1283 C1284 1.523 . S
C1284 C1268 1.368 . S
C1284 C1280 1.368 . S
C1284 C1283 1.523 . S
H1285 C1260 0.950 . S
H1286 C1262 0.950 . S
H1287 C1263 0.949 . S
H1288 C1265 0.950 . S
H1289 C1267 0.950 . S
C1290 C1291 1.349 . S
C1290 C1292 1.327 . S
C1290 H1315 0.950 . S
C1291 C1290 1.349 . S
C1291 C1307 1.349 . S
C1292 C1290 1.327 . S
C1292 C1311 1.429 . S
C1292 H1316 0.950 . S
C1293 C1310 1.576 1_565 S
C1293 C1312 1.368 . S
C1293 H1317 0.949 . S
H1294 C1298 0.949 . S
C1295 C1296 1.349 . S
C1295 C1297 1.327 . S
C1295 H1318 0.950 . S
C1296 C1295 1.349 . S
C1296 C1308 1.349 . S
C1297 C1295 1.327 . S
C1297 C1313 1.429 . S
C1297 H1319 0.950 . S
C1298 H1294 0.949 . S
C1298 C1306 1.572 . S
C1298 C1314 1.368 . S
H1299 C1307 0.950 . S
H1300 C1305 0.950 . S
H1301 C1306 0.944 1_565 S
H1302 C1308 0.950 . S
H1303 C1309 0.950 . S
H1304 C1310 0.941 . S
C1305 H1300 0.950 . S
C1305 C1307 1.327 . S
C1305 C1311 1.429 . S
C1306 C1298 1.572 . S
C1306 H1301 0.944 1_545 S
C1306 C1312 1.369 1_545 S
C1307 C1291 1.349 . S
C1307 H1299 0.950 . S
C1307 C1305 1.327 . S
C1308 C1296 1.349 . S
C1308 H1302 0.950 . S
C1308 C1309 1.327 . S
C1309 H1303 0.950 . S
C1309 C1308 1.327 . S
C1309 C1313 1.429 . S
C1310 C1293 1.576 1_545 S
C1310 H1304 0.941 . S
C1310 C1314 1.368 . S
C1311 C1292 1.429 . S
C1311 C1305 1.429 . S
C1311 C1312 1.523 . S
C1312 C1293 1.368 . S
C1312 C1306 1.369 1_565 S
C1312 C1311 1.523 . S
C1313 C1297 1.429 . S
C1313 C1309 1.429 . S
C1313 C1314 1.523 . S
C1314 C1298 1.368 . S
C1314 C1310 1.368 . S
C1314 C1313 1.523 . S
H1315 C1290 0.950 . S
H1316 C1292 0.950 . S
H1317 C1293 0.949 . S
H1318 C1295 0.950 . S
H1319 C1297 0.950 . S
C241 C86 1.366 . S
C246 C19 1.378 . S
C271 C106 1.366 . S
C276 C39 1.378 . S
C301 C59 1.378 . S
C306 C6 1.366 . S
C331 C79 1.378 . S
C336 C26 1.366 . S
C361 C99 1.378 . S
C366 C46 1.366 . S
C391 C66 1.366 . S
C396 C119 1.378 . S
C421 C166 1.366 . S
C426 C139 1.378 . S
C451 C159 1.378 . S
C456 C186 1.366 . S
C481 C206 1.366 . S
C486 C179 1.378 . S
C511 C199 1.378 . S
C516 C226 1.366 . S
C541 C219 1.378 . S
C546 C126 1.366 . S
C571 C146 1.366 . S
C576 C239 1.378 . S
C601 C96 1.592 . S
C606 C8 1.523 . S
C631 C28 1.523 . S
C636 C116 1.592 . S
C661 C48 1.523 . S
C666 C16 1.592 . S
C691 C68 1.523 . S
C696 C36 1.592 . S
C721 C56 1.592 . S
C726 C88 1.523 . S
C751 C76 1.592 . S
C756 C108 1.523 . S
C781 C176 1.592 . S
C786 C128 1.523 . S
C811 C148 1.523 . S
C816 C196 1.592 . S
C841 C168 1.523 . S
C846 C216 1.592 . S
C871 C236 1.592 . S
C876 C188 1.523 . S
C901 C208 1.523 . S
C906 C136 1.592 . S
C931 C156 1.592 . S
C936 C228 1.523 . S
C961 C209 1.723 . S
C966 C9 1.723 . S
C991 C29 1.723 . S
C996 C229 1.723 . S
C1021 C49 1.723 . S
C1026 C129 1.723 . S
C1051 C69 1.723 . S
C1056 C149 1.723 . S
C1081 C89 1.723 . S
C1086 C169 1.723 . S
C1111 C189 1.723 . S
C1116 C109 1.723 . S
C1141 C181 1.848 . S
C1146 C1 1.848 . S
C1171 C201 1.848 . S
C1176 C21 1.848 . S
C1201 C41 1.848 . S
C1206 C221 1.848 . S
C1231 C61 1.848 . S
C1236 C121 1.848 . S
C1261 C141 1.848 . S
C1266 C81 1.848 . S
C1291 C161 1.848 . S
C1296 C101 1.848 . S
