# Generated by pormake.
# Topology cbo, (4)-cn, num edge types: 1
# Building blocks:
#     Node 0, Type 0, BuildingBlock: GALJAG_clean_sbu_0, # of connection points: 4
#     Node 1, Type 0, BuildingBlock: GALJAG_clean_sbu_0, # of connection points: 4
#     Node 2, Type 0, BuildingBlock: GALJAG_clean_sbu_0, # of connection points: 4
#     Node 3, Type 0, BuildingBlock: GALJAG_clean_sbu_0, # of connection points: 4
#     Node 4, Type 0, BuildingBlock: GALJAG_clean_sbu_0, # of connection points: 4
#     Node 5, Type 0, BuildingBlock: GALJAG_clean_sbu_0, # of connection points: 4
#     Node 6, Type 0, BuildingBlock: GALJAG_clean_sbu_0, # of connection points: 4
#     Node 7, Type 0, BuildingBlock: GALJAG_clean_sbu_0, # of connection points: 4
#     Node 8, Type 0, BuildingBlock: GALJAG_clean_sbu_0, # of connection points: 4
#     Node 9, Type 0, BuildingBlock: GALJAG_clean_sbu_0, # of connection points: 4
#     Node 10, Type 0, BuildingBlock: GALJAG_clean_sbu_0, # of connection points: 4
#     Node 11, Type 0, BuildingBlock: GALJAG_clean_sbu_0, # of connection points: 4
#     Node 12, Type 0, BuildingBlock: GALJAG_clean_sbu_0, # of connection points: 4
#     Node 13, Type 0, BuildingBlock: GALJAG_clean_sbu_0, # of connection points: 4
#     Node 14, Type 0, BuildingBlock: GALJAG_clean_sbu_0, # of connection points: 4
#     Node 15, Type 0, BuildingBlock: GALJAG_clean_sbu_0, # of connection points: 4
#     Node 16, Type 0, BuildingBlock: GALJAG_clean_sbu_0, # of connection points: 4
#     Node 17, Type 0, BuildingBlock: GALJAG_clean_sbu_0, # of connection points: 4
#     Node 18, Type 0, BuildingBlock: GALJAG_clean_sbu_0, # of connection points: 4
#     Node 19, Type 0, BuildingBlock: GALJAG_clean_sbu_0, # of connection points: 4
#     Node 20, Type 0, BuildingBlock: GALJAG_clean_sbu_0, # of connection points: 4
#     Node 21, Type 0, BuildingBlock: GALJAG_clean_sbu_0, # of connection points: 4
#     Node 22, Type 0, BuildingBlock: GALJAG_clean_sbu_0, # of connection points: 4
#     Node 23, Type 0, BuildingBlock: GALJAG_clean_sbu_0, # of connection points: 4
#     Edge 24, Type (0, 0), BuildingBlock: KIFKEQ_clean_linker_1, # of connection points: 2
#     Edge 25, Type (0, 0), BuildingBlock: KIFKEQ_clean_linker_1, # of connection points: 2
#     Edge 26, Type (0, 0), BuildingBlock: KIFKEQ_clean_linker_1, # of connection points: 2
#     Edge 27, Type (0, 0), BuildingBlock: KIFKEQ_clean_linker_1, # of connection points: 2
#     Edge 28, Type (0, 0), BuildingBlock: KIFKEQ_clean_linker_1, # of connection points: 2
#     Edge 29, Type (0, 0), BuildingBlock: KIFKEQ_clean_linker_1, # of connection points: 2
#     Edge 30, Type (0, 0), BuildingBlock: KIFKEQ_clean_linker_1, # of connection points: 2
#     Edge 31, Type (0, 0), BuildingBlock: KIFKEQ_clean_linker_1, # of connection points: 2
#     Edge 32, Type (0, 0), BuildingBlock: KIFKEQ_clean_linker_1, # of connection points: 2
#     Edge 33, Type (0, 0), BuildingBlock: KIFKEQ_clean_linker_1, # of connection points: 2
#     Edge 34, Type (0, 0), BuildingBlock: KIFKEQ_clean_linker_1, # of connection points: 2
#     Edge 35, Type (0, 0), BuildingBlock: KIFKEQ_clean_linker_1, # of connection points: 2
#     Edge 36, Type (0, 0), BuildingBlock: KIFKEQ_clean_linker_1, # of connection points: 2
#     Edge 37, Type (0, 0), BuildingBlock: KIFKEQ_clean_linker_1, # of connection points: 2
#     Edge 38, Type (0, 0), BuildingBlock: KIFKEQ_clean_linker_1, # of connection points: 2
#     Edge 39, Type (0, 0), BuildingBlock: KIFKEQ_clean_linker_1, # of connection points: 2
#     Edge 40, Type (0, 0), BuildingBlock: KIFKEQ_clean_linker_1, # of connection points: 2
#     Edge 41, Type (0, 0), BuildingBlock: KIFKEQ_clean_linker_1, # of connection points: 2
#     Edge 42, Type (0, 0), BuildingBlock: KIFKEQ_clean_linker_1, # of connection points: 2
#     Edge 43, Type (0, 0), BuildingBlock: KIFKEQ_clean_linker_1, # of connection points: 2
#     Edge 44, Type (0, 0), BuildingBlock: KIFKEQ_clean_linker_1, # of connection points: 2
#     Edge 45, Type (0, 0), BuildingBlock: KIFKEQ_clean_linker_1, # of connection points: 2
#     Edge 46, Type (0, 0), BuildingBlock: KIFKEQ_clean_linker_1, # of connection points: 2
#     Edge 47, Type (0, 0), BuildingBlock: KIFKEQ_clean_linker_1, # of connection points: 2
#     Edge 48, Type (0, 0), BuildingBlock: KIFKEQ_clean_linker_1, # of connection points: 2
#     Edge 49, Type (0, 0), BuildingBlock: KIFKEQ_clean_linker_1, # of connection points: 2
#     Edge 50, Type (0, 0), BuildingBlock: KIFKEQ_clean_linker_1, # of connection points: 2
#     Edge 51, Type (0, 0), BuildingBlock: KIFKEQ_clean_linker_1, # of connection points: 2
#     Edge 52, Type (0, 0), BuildingBlock: KIFKEQ_clean_linker_1, # of connection points: 2
#     Edge 53, Type (0, 0), BuildingBlock: KIFKEQ_clean_linker_1, # of connection points: 2
#     Edge 54, Type (0, 0), BuildingBlock: KIFKEQ_clean_linker_1, # of connection points: 2
#     Edge 55, Type (0, 0), BuildingBlock: KIFKEQ_clean_linker_1, # of connection points: 2
#     Edge 56, Type (0, 0), BuildingBlock: KIFKEQ_clean_linker_1, # of connection points: 2
#     Edge 57, Type (0, 0), BuildingBlock: KIFKEQ_clean_linker_1, # of connection points: 2
#     Edge 58, Type (0, 0), BuildingBlock: KIFKEQ_clean_linker_1, # of connection points: 2
#     Edge 59, Type (0, 0), BuildingBlock: KIFKEQ_clean_linker_1, # of connection points: 2
#     Edge 60, Type (0, 0), BuildingBlock: KIFKEQ_clean_linker_1, # of connection points: 2
#     Edge 61, Type (0, 0), BuildingBlock: KIFKEQ_clean_linker_1, # of connection points: 2
#     Edge 62, Type (0, 0), BuildingBlock: KIFKEQ_clean_linker_1, # of connection points: 2
#     Edge 63, Type (0, 0), BuildingBlock: KIFKEQ_clean_linker_1, # of connection points: 2
#     Edge 64, Type (0, 0), BuildingBlock: KIFKEQ_clean_linker_1, # of connection points: 2
#     Edge 65, Type (0, 0), BuildingBlock: KIFKEQ_clean_linker_1, # of connection points: 2
#     Edge 66, Type (0, 0), BuildingBlock: KIFKEQ_clean_linker_1, # of connection points: 2
#     Edge 67, Type (0, 0), BuildingBlock: KIFKEQ_clean_linker_1, # of connection points: 2
#     Edge 68, Type (0, 0), BuildingBlock: KIFKEQ_clean_linker_1, # of connection points: 2
#     Edge 69, Type (0, 0), BuildingBlock: KIFKEQ_clean_linker_1, # of connection points: 2
#     Edge 70, Type (0, 0), BuildingBlock: KIFKEQ_clean_linker_1, # of connection points: 2
#     Edge 71, Type (0, 0), BuildingBlock: KIFKEQ_clean_linker_1, # of connection points: 2
# Relax obj value: 0.104
# Max RMSD: 0.140
# Mean RMSD: 0.140
data_MOF--net-cbo--node1-GALJAG_clean_sbu_0--edge1-KIFKEQ_clean_linker_1
_symmetry_space_group_name_H-M    P1
_symmetry_Int_Tables_number       1
_symmetry_cell_setting            triclinic
loop_
_symmetry_equiv_pos_as_xyz
'x, y, z'
_cell_length_a     53.448694
_cell_length_b     53.457064
_cell_length_c     53.400212
_cell_angle_alpha  90.037542
_cell_angle_beta   90.113114
_cell_angle_gamma 89.871476
loop_
_atom_site_label
_atom_site_type_symbol
_atom_site_fract_x
_atom_site_fract_y
_atom_site_fract_z
_atom_type_partial_charge
In0 In 0.07268 0.15295 0.29859 0.0
O1 O 0.04411 0.12132 0.29915 0.0
O2 O 0.03081 0.15875 0.30243 0.0
C3 C 0.1135 0.12787 0.28279 0.0
C4 C 0.08181 0.1615 0.34753 0.0
C5 C 0.07121 0.18588 0.26042 0.0
O6 O 0.09173 0.11887 0.28094 0.0
O7 O 0.11453 0.1492 0.29282 0.0
O8 O 0.07973 0.19167 0.28175 0.0
O9 O 0.06311 0.16382 0.25866 0.0
C10 C 0.02553 0.13578 0.30142 0.0
O11 O 0.07615 0.17896 0.33259 0.0
O12 O 0.0826 0.14004 0.33777 0.0
In13 In 0.41554 0.83535 0.79897 0.0
O14 O 0.41354 0.80974 0.8333 0.0
O15 O 0.4055 0.84842 0.83801 0.0
C16 C 0.41311 0.8 0.76306 0.0
C17 C 0.46299 0.85177 0.80204 0.0
C18 C 0.37654 0.86268 0.78206 0.0
O19 O 0.40285 0.79736 0.78416 0.0
O20 O 0.42513 0.82009 0.76039 0.0
O21 O 0.39893 0.86866 0.7775 0.0
O22 O 0.37408 0.84335 0.79529 0.0
C23 C 0.40728 0.82715 0.84803 0.0
O24 O 0.44453 0.86653 0.80121 0.0
O25 O 0.45748 0.82884 0.80114 0.0
In26 In 0.57478 0.33912 0.69288 0.0
O27 O 0.54483 0.36961 0.69284 0.0
O28 O 0.53358 0.33227 0.68501 0.0
C29 C 0.61211 0.36792 0.71128 0.0
C30 C 0.58482 0.32995 0.64449 0.0
C31 C 0.57618 0.30198 0.72713 0.0
O32 O 0.59033 0.36816 0.72023 0.0
O33 O 0.61486 0.35381 0.69261 0.0
O34 O 0.5867 0.30018 0.70608 0.0
O35 O 0.56444 0.32214 0.73054 0.0
C36 C 0.5272 0.35487 0.68745 0.0
O37 O 0.5845 0.31287 0.66083 0.0
O38 O 0.58009 0.35166 0.6526 0.0
In39 In 0.92034 0.65022 0.18999 0.0
O40 O 0.94767 0.61753 0.18805 0.0
O41 O 0.96257 0.65425 0.19193 0.0
C42 C 0.87999 0.6234 0.20427 0.0
C43 C 0.91708 0.66206 0.14105 0.0
C44 C 0.91788 0.68576 0.22574 0.0
O45 O 0.90193 0.61777 0.21099 0.0
O46 O 0.87857 0.64207 0.18999 0.0
O47 O 0.90694 0.68788 0.2049 0.0
O48 O 0.9304 0.66591 0.22841 0.0
C49 C 0.96689 0.63111 0.18996 0.0
O50 O 0.91941 0.67842 0.15792 0.0
O51 O 0.91654 0.63982 0.14887 0.0
In52 In 0.30112 0.0743 0.15232 0.0
O53 O 0.33166 0.08671 0.17929 0.0
O54 O 0.34243 0.07613 0.14237 0.0
C55 C 0.26256 0.07375 0.18494 0.0
C56 C 0.30467 0.02662 0.1365 0.0
C57 C 0.28907 0.11496 0.1248 0.0
O58 O 0.28496 0.07622 0.19198 0.0
O59 O 0.25978 0.07111 0.16166 0.0
O60 O 0.28332 0.09307 0.11807 0.0
O61 O 0.30124 0.11617 0.14497 0.0
C62 C 0.34916 0.08397 0.16365 0.0
O63 O 0.30022 0.04451 0.12172 0.0
O64 O 0.30726 0.03281 0.15916 0.0
In65 In 0.18602 0.9157 0.65583 0.0
O66 O 0.15547 0.90437 0.68332 0.0
O67 O 0.14475 0.91337 0.64598 0.0
C68 C 0.22624 0.91789 0.68633 0.0
C69 C 0.18286 0.96328 0.63974 0.0
C70 C 0.19696 0.8737 0.63 0.0
O71 O 0.20422 0.9161 0.69464 0.0
O72 O 0.2278 0.91913 0.66281 0.0
O73 O 0.1973 0.89507 0.61992 0.0
O74 O 0.19069 0.87364 0.65274 0.0
C75 C 0.13797 0.90654 0.66753 0.0
O76 O 0.18874 0.94546 0.62533 0.0
O77 O 0.17885 0.95705 0.66216 0.0
In78 In 0.79983 0.41581 0.84629 0.0
O79 O 0.80218 0.44361 0.87855 0.0
O80 O 0.79824 0.45797 0.84156 0.0
C81 C 0.78773 0.37478 0.87322 0.0
C82 C 0.84828 0.41228 0.8328 0.0
C83 C 0.76202 0.41436 0.81282 0.0
O84 O 0.78199 0.39659 0.88018 0.0
O85 O 0.79992 0.3738 0.8531 0.0
O86 O 0.78335 0.40529 0.80832 0.0
O87 O 0.75983 0.42441 0.83408 0.0
C88 C 0.80032 0.46263 0.86464 0.0
O89 O 0.83074 0.41321 0.817 0.0
O90 O 0.84139 0.41326 0.85535 0.0
In91 In 0.69223 0.5737 0.33568 0.0
O92 O 0.69391 0.54583 0.36796 0.0
O93 O 0.69034 0.5315 0.33098 0.0
C94 C 0.70547 0.61604 0.35949 0.0
C95 C 0.64317 0.58149 0.32684 0.0
C96 C 0.7305 0.57309 0.30297 0.0
O97 O 0.70703 0.5948 0.36976 0.0
O98 O 0.697 0.61584 0.33743 0.0
O99 O 0.70812 0.57648 0.29603 0.0
O100 O 0.73332 0.56964 0.32616 0.0
C101 C 0.69216 0.52682 0.35405 0.0
O102 O 0.65846 0.57701 0.3094 0.0
O103 O 0.65262 0.5817 0.34848 0.0
In104 In 0.15133 0.29609 0.07073 0.0
O105 O 0.12105 0.29175 0.04067 0.0
O106 O 0.1568 0.30527 0.02972 0.0
C107 C 0.12002 0.27777 0.10601 0.0
C108 C 0.16235 0.34428 0.08013 0.0
C109 C 0.19038 0.26415 0.07441 0.0
O110 O 0.12645 0.26537 0.08698 0.0
O111 O 0.12855 0.2997 0.10671 0.0
O112 O 0.18539 0.28021 0.09097 0.0
O113 O 0.17602 0.26456 0.05566 0.0
C114 C 0.13485 0.29958 0.02318 0.0
O115 O 0.17846 0.32705 0.08175 0.0
O116 O 0.14075 0.33718 0.07376 0.0
In117 In 0.65635 0.18849 0.91761 0.0
O118 O 0.62526 0.19469 0.94637 0.0
O119 O 0.65891 0.1771 0.95839 0.0
C120 C 0.63399 0.2043 0.87529 0.0
C121 C 0.66374 0.14002 0.90615 0.0
C122 C 0.69035 0.22536 0.92233 0.0
O123 O 0.62217 0.20207 0.89565 0.0
O124 O 0.65683 0.19839 0.8764 0.0
O125 O 0.69642 0.20334 0.91621 0.0
O126 O 0.66735 0.22848 0.92654 0.0
C127 C 0.63743 0.18495 0.96417 0.0
O128 O 0.68138 0.15411 0.91311 0.0
O129 O 0.64254 0.15038 0.90512 0.0
In130 In 0.83822 0.8006 0.41412 0.0
O131 O 0.81191 0.83212 0.40292 0.0
O132 O 0.84983 0.84139 0.4111 0.0
C133 C 0.803 0.76446 0.41398 0.0
C134 C 0.85381 0.80438 0.46192 0.0
C135 C 0.86644 0.78516 0.37507 0.0
O136 O 0.79821 0.7867 0.4077 0.0
O137 O 0.82528 0.76069 0.42071 0.0
O138 O 0.87015 0.77771 0.39715 0.0
O139 O 0.84899 0.80085 0.37278 0.0
C140 C 0.82837 0.84896 0.40458 0.0
O141 O 0.86868 0.8001 0.44408 0.0
O142 O 0.83118 0.8068 0.45561 0.0
In143 In 0.33142 0.69231 0.56933 0.0
O144 O 0.36331 0.69079 0.54098 0.0
O145 O 0.32602 0.69073 0.52711 0.0
C146 C 0.35716 0.70863 0.60963 0.0
C147 C 0.32465 0.64311 0.57732 0.0
C148 C 0.29505 0.72729 0.5709 0.0
O149 O 0.36218 0.71575 0.58767 0.0
O150 O 0.33945 0.69319 0.61115 0.0
O151 O 0.29127 0.70491 0.57747 0.0
O152 O 0.31687 0.7317 0.56318 0.0
C153 C 0.34906 0.6901 0.52213 0.0
O154 O 0.30661 0.65759 0.57223 0.0
O155 O 0.34581 0.65347 0.57811 0.0
In156 In 0.91451 0.83018 0.69115 0.0
O157 O 0.94206 0.86278 0.69316 0.0
O158 O 0.95667 0.82609 0.68824 0.0
C159 C 0.87919 0.85857 0.71349 0.0
C160 C 0.90625 0.82374 0.64176 0.0
C161 C 0.9097 0.78937 0.72042 0.0
O162 O 0.89994 0.85384 0.72378 0.0
O163 O 0.8766 0.84951 0.69186 0.0
O164 O 0.89332 0.79559 0.70455 0.0
O165 O 0.92871 0.80327 0.72094 0.0
C166 C 0.96117 0.84911 0.69058 0.0
O167 O 0.91158 0.80567 0.65603 0.0
O168 O 0.90544 0.84478 0.65237 0.0
In169 In 0.57183 0.16255 0.19193 0.0
O170 O 0.57367 0.18627 0.15624 0.0
O171 O 0.58178 0.14742 0.15361 0.0
C172 C 0.57248 0.20021 0.22556 0.0
C173 C 0.5251 0.14416 0.1897 0.0
C174 C 0.61089 0.13676 0.21107 0.0
O175 O 0.58428 0.20125 0.20514 0.0
O176 O 0.5599 0.18053 0.22866 0.0
O177 O 0.58849 0.13082 0.21552 0.0
O178 O 0.61343 0.15539 0.19687 0.0
C179 C 0.57985 0.16809 0.14244 0.0
O180 O 0.5441 0.13027 0.19208 0.0
O181 O 0.52971 0.16729 0.18856 0.0
In182 In 0.41637 0.64934 0.29717 0.0
O183 O 0.44727 0.62018 0.29219 0.0
O184 O 0.45726 0.65586 0.30668 0.0
C185 C 0.38392 0.61624 0.27699 0.0
C186 C 0.40518 0.66035 0.34511 0.0
C187 C 0.41013 0.68825 0.26559 0.0
O188 O 0.40214 0.62514 0.26504 0.0
O189 O 0.38264 0.62319 0.29951 0.0
O190 O 0.39326 0.68087 0.28029 0.0
O191 O 0.43054 0.6765 0.26734 0.0
C192 C 0.46438 0.63426 0.30035 0.0
O193 O 0.40369 0.67628 0.32775 0.0
O194 O 0.41235 0.63889 0.33831 0.0
In195 In 0.07215 0.34382 0.79748 0.0
O196 O 0.0448 0.37666 0.80019 0.0
O197 O 0.02984 0.34006 0.79643 0.0
C198 C 0.11465 0.36712 0.78396 0.0
C199 C 0.07968 0.33309 0.84627 0.0
C200 C 0.07182 0.31118 0.75908 0.0
O201 O 0.09341 0.37727 0.78154 0.0
O202 O 0.11433 0.34552 0.79344 0.0
O203 O 0.07479 0.30429 0.78154 0.0
O204 O 0.06853 0.33439 0.75618 0.0
C205 C 0.02554 0.36314 0.79868 0.0
O206 O 0.07418 0.31642 0.83044 0.0
O207 O 0.08108 0.35491 0.83748 0.0
In208 In 0.68969 0.91136 0.84349 0.0
O209 O 0.65845 0.90159 0.81618 0.0
O210 O 0.64869 0.90781 0.85432 0.0
C211 C 0.72856 0.91071 0.81129 0.0
C212 C 0.68598 0.95966 0.85699 0.0
C213 C 0.70291 0.87202 0.87235 0.0
O214 O 0.70697 0.90339 0.80519 0.0
O215 O 0.73036 0.91884 0.83336 0.0
O216 O 0.70631 0.89434 0.87923 0.0
O217 O 0.69232 0.8697 0.85139 0.0
C218 C 0.64139 0.9024 0.83249 0.0
O219 O 0.69077 0.94253 0.87257 0.0
O220 O 0.68309 0.95238 0.83468 0.0
In221 In 0.79925 0.07619 0.3399 0.0
O222 O 0.82944 0.08752 0.3119 0.0
O223 O 0.84095 0.0753 0.34803 0.0
C224 C 0.75933 0.07777 0.30904 0.0
C225 C 0.80063 0.02836 0.3555 0.0
C226 C 0.7887 0.11676 0.36807 0.0
O227 O 0.78152 0.07804 0.30092 0.0
O228 O 0.75744 0.07612 0.33252 0.0
O229 O 0.78406 0.0948 0.37534 0.0
O230 O 0.79924 0.1181 0.34703 0.0
C231 C 0.84735 0.08324 0.32677 0.0
O232 O 0.80239 0.04661 0.37041 0.0
O233 O 0.79793 0.03426 0.33278 0.0
In234 In 0.19228 0.56948 0.15046 0.0
O235 O 0.1898 0.54105 0.11873 0.0
O236 O 0.19123 0.52745 0.15619 0.0
C237 C 0.20404 0.61154 0.12509 0.0
C238 C 0.144 0.57607 0.16325 0.0
C239 C 0.23201 0.56755 0.18149 0.0
O240 O 0.20693 0.59002 0.11579 0.0
O241 O 0.19493 0.61172 0.14682 0.0
O242 O 0.21033 0.57314 0.18906 0.0
O243 O 0.23351 0.56268 0.15842 0.0
C244 C 0.18989 0.52233 0.13316 0.0
O245 O 0.16147 0.57681 0.17916 0.0
O246 O 0.1509 0.5719 0.14107 0.0
In247 In 0.30023 0.41775 0.65064 0.0
O248 O 0.29787 0.44669 0.61918 0.0
O249 O 0.3081 0.45914 0.65559 0.0
C250 C 0.28454 0.37735 0.62482 0.0
C251 C 0.34906 0.40849 0.65835 0.0
C252 C 0.26435 0.41804 0.68619 0.0
O253 O 0.27831 0.39934 0.61879 0.0
O254 O 0.29884 0.37584 0.64355 0.0
O255 O 0.28618 0.41007 0.69042 0.0
O256 O 0.2609 0.42622 0.66434 0.0
C257 C 0.30396 0.46481 0.63305 0.0
O258 O 0.33436 0.41411 0.676 0.0
O259 O 0.33912 0.40777 0.63688 0.0
In260 In 0.84049 0.68894 0.91919 0.0
O261 O 0.87465 0.68555 0.94472 0.0
O262 O 0.83949 0.6939 0.9614 0.0
C263 C 0.86336 0.69855 0.87517 0.0
C264 C 0.82679 0.64062 0.91587 0.0
C265 C 0.80761 0.72712 0.92108 0.0
O266 O 0.87212 0.70575 0.8959 0.0
O267 O 0.84341 0.68617 0.87672 0.0
O268 O 0.80078 0.70454 0.92218 0.0
O269 O 0.83091 0.7303 0.91924 0.0
C270 C 0.86256 0.68996 0.96452 0.0
O271 O 0.81162 0.65836 0.9121 0.0
O272 O 0.84869 0.6473 0.92156 0.0
In273 In 0.33296 0.79876 0.0727 0.0
O274 O 0.36404 0.79491 0.04355 0.0
O275 O 0.32816 0.80725 0.03141 0.0
C276 C 0.35706 0.78413 0.11453 0.0
C277 C 0.32642 0.8477 0.08225 0.0
C278 C 0.29846 0.76198 0.07135 0.0
O279 O 0.36597 0.78034 0.09295 0.0
O280 O 0.3363 0.79537 0.11486 0.0
O281 O 0.29301 0.78411 0.07762 0.0
O282 O 0.32101 0.75871 0.0653 0.0
C283 C 0.3504 0.80199 0.02556 0.0
O284 O 0.30837 0.83347 0.07676 0.0
O285 O 0.34762 0.83725 0.08264 0.0
In286 In 0.15309 0.19056 0.57376 0.0
O287 O 0.12287 0.19489 0.54368 0.0
O288 O 0.15839 0.18042 0.53289 0.0
C289 C 0.12683 0.20878 0.61286 0.0
C290 C 0.15922 0.14162 0.5841 0.0
C291 C 0.1898 0.2252 0.57382 0.0
O292 O 0.1192 0.21097 0.59055 0.0
O293 O 0.14722 0.19716 0.61524 0.0
O294 O 0.19157 0.20482 0.58556 0.0
O295 O 0.16986 0.2278 0.56146 0.0
C296 C 0.13655 0.18657 0.52628 0.0
O297 O 0.17706 0.15537 0.57708 0.0
O298 O 0.13831 0.15253 0.58567 0.0
In299 In 0.65517 0.30237 0.41863 0.0
O300 O 0.68288 0.33175 0.40507 0.0
O301 O 0.6488 0.34427 0.42143 0.0
C302 C 0.68844 0.26439 0.41858 0.0
C303 C 0.63772 0.30429 0.46586 0.0
C304 C 0.62655 0.29101 0.37839 0.0
O305 O 0.69519 0.28701 0.41825 0.0
O306 O 0.6651 0.26111 0.41913 0.0
O307 O 0.62216 0.28252 0.39996 0.0
O308 O 0.64497 0.30559 0.37724 0.0
C309 C 0.6693 0.35007 0.41133 0.0
O310 O 0.62376 0.30748 0.44703 0.0
O311 O 0.66038 0.30004 0.46083 0.0
H312 H 0.10431 0.30089 0.14881 0.0
H313 H 0.10561 0.22925 0.1114 0.0
H314 H 0.08738 0.28109 0.18631 0.0
H315 H 0.08948 0.20934 0.14895 0.0
H316 H 0.04905 0.17939 0.21497 0.0
H317 H 0.0554 0.20399 0.17713 0.0
H318 H 0.1038 0.25409 0.21827 0.0
H319 H 0.09669 0.22991 0.25628 0.0
C320 C 0.10067 0.28095 0.1485 0.0
C321 C 0.1064 0.26657 0.12724 0.0
C322 C 0.09116 0.26959 0.17004 0.0
C323 C 0.08728 0.24358 0.17077 0.0
C324 C 0.09192 0.22945 0.14902 0.0
C325 C 0.1013 0.24083 0.12747 0.0
C326 C 0.06072 0.19591 0.21599 0.0
C327 C 0.07256 0.20263 0.23851 0.0
C328 C 0.06447 0.20992 0.19428 0.0
C329 C 0.08036 0.23085 0.19453 0.0
C330 C 0.09123 0.23825 0.2174 0.0
C331 C 0.08729 0.22433 0.23919 0.0
H332 H 0.3769 0.76456 0.75878 0.0
H333 H 0.44021 0.7961 0.72007 0.0
H334 H 0.36642 0.7401 0.72186 0.0
H335 H 0.43069 0.77058 0.68343 0.0
H336 H 0.38493 0.75114 0.61316 0.0
H337 H 0.40142 0.77037 0.65102 0.0
H338 H 0.37521 0.70738 0.69445 0.0
H339 H 0.35753 0.68896 0.65663 0.0
C340 C 0.38896 0.76573 0.74255 0.0
C341 C 0.40922 0.78236 0.74218 0.0
C342 C 0.38306 0.75159 0.72135 0.0
C343 C 0.39756 0.75345 0.69943 0.0
C344 C 0.41871 0.76909 0.69969 0.0
C345 C 0.42433 0.78357 0.72075 0.0
C346 C 0.38296 0.74133 0.63078 0.0
C347 C 0.36978 0.71871 0.63203 0.0
C348 C 0.39256 0.75225 0.65254 0.0
C349 C 0.38957 0.74055 0.67598 0.0
C350 C 0.3774 0.71725 0.6769 0.0
C351 C 0.36741 0.70658 0.6552 0.0
H352 H 0.60067 0.25717 0.72437 0.0
H353 H 0.55981 0.3049 0.77527 0.0
H354 H 0.6113 0.22933 0.75902 0.0
H355 H 0.57102 0.27761 0.80997 0.0
H356 H 0.58525 0.21817 0.86763 0.0
H357 H 0.56742 0.23758 0.83017 0.0
H358 H 0.63947 0.23289 0.79382 0.0
H359 H 0.65695 0.21296 0.83079 0.0
C360 C 0.59371 0.26154 0.74291 0.0
C361 C 0.57962 0.28331 0.74718 0.0
C362 C 0.59992 0.24569 0.76278 0.0
C363 C 0.59228 0.25139 0.78734 0.0
C364 C 0.57703 0.27249 0.7913 0.0
C365 C 0.57072 0.28824 0.77142 0.0
C366 C 0.59713 0.22103 0.85148 0.0
C367 C 0.62251 0.21422 0.85217 0.0
C368 C 0.58697 0.23223 0.83008 0.0
C369 C 0.60202 0.23688 0.809 0.0
C370 C 0.62721 0.22926 0.80951 0.0
C371 C 0.63731 0.21801 0.83082 0.0
H372 H 0.88252 0.72221 0.22937 0.0
H373 H 0.94597 0.69041 0.26815 0.0
H374 H 0.87392 0.74893 0.26516 0.0
H375 H 0.9383 0.71812 0.30362 0.0
H376 H 0.89395 0.74233 0.3735 0.0
H377 H 0.90973 0.72105 0.33653 0.0
H378 H 0.88488 0.78287 0.29043 0.0
H379 H 0.86789 0.80345 0.32747 0.0
C380 C 0.89498 0.72138 0.24537 0.0
C381 C 0.91475 0.7041 0.24612 0.0
C382 C 0.89018 0.73685 0.26589 0.0
C383 C 0.90532 0.73567 0.28747 0.0
C384 C 0.92591 0.7192 0.28759 0.0
C385 C 0.93043 0.70342 0.26721 0.0
C386 C 0.89221 0.75151 0.3555 0.0
C387 C 0.8795 0.77439 0.35328 0.0
C388 C 0.9014 0.73938 0.33424 0.0
C389 C 0.89841 0.75008 0.31033 0.0
C390 C 0.88699 0.77376 0.30842 0.0
C391 C 0.87743 0.78567 0.32965 0.0
H392 H 0.26341 0.08313 0.23527 0.0
H393 H 0.21318 0.06959 0.17327 0.0
H394 H 0.22759 0.09171 0.26236 0.0
H395 H 0.17754 0.07862 0.20008 0.0
H396 H 0.11593 0.08388 0.2567 0.0
H397 H 0.15259 0.06591 0.23602 0.0
H398 H 0.19802 0.12635 0.26458 0.0
H399 H 0.16165 0.14393 0.28552 0.0
C400 C 0.24472 0.08168 0.22753 0.0
C401 C 0.24107 0.07591 0.20213 0.0
C402 C 0.22423 0.08671 0.24299 0.0
C403 C 0.19973 0.08602 0.23333 0.0
C404 C 0.19612 0.07904 0.20821 0.0
C405 C 0.21657 0.07404 0.19278 0.0
C406 C 0.13385 0.09306 0.25884 0.0
C407 C 0.13591 0.1154 0.27253 0.0
C408 C 0.1548 0.08285 0.24693 0.0
C409 C 0.17819 0.09477 0.24855 0.0
C410 C 0.18038 0.11651 0.26319 0.0
C411 C 0.15947 0.12671 0.27504 0.0
H412 H 0.32745 0.85208 0.78949 0.0
H413 H 0.37637 0.90306 0.75049 0.0
H414 H 0.29148 0.87035 0.76848 0.0
H415 H 0.3401 0.92194 0.72979 0.0
H416 H 0.27499 0.91735 0.67172 0.0
H417 H 0.31156 0.90855 0.69742 0.0
H418 H 0.2648 0.90623 0.76333 0.0
H419 H 0.22801 0.91435 0.73737 0.0
C420 C 0.33047 0.86753 0.77673 0.0
C421 C 0.35474 0.87599 0.77144 0.0
C422 C 0.30979 0.87817 0.76482 0.0
C423 C 0.31288 0.89759 0.74737 0.0
C424 C 0.33712 0.90679 0.74289 0.0
C425 C 0.35787 0.89608 0.75482 0.0
C426 C 0.27256 0.91534 0.69175 0.0
C427 C 0.24861 0.91625 0.70251 0.0
C428 C 0.29357 0.91046 0.70654 0.0
C429 C 0.29111 0.90648 0.73244 0.0
C430 C 0.26728 0.90878 0.74338 0.0
C431 C 0.24623 0.91356 0.72854 0.0
H432 H 0.75881 0.38414 0.77194 0.0
H433 H 0.71748 0.43929 0.81415 0.0
H434 H 0.72245 0.377 0.74548 0.0
H435 H 0.68134 0.43316 0.7869 0.0
H436 H 0.61359 0.38825 0.75798 0.0
H437 H 0.65026 0.40295 0.78054 0.0
H438 H 0.6953 0.39171 0.71424 0.0
H439 H 0.65868 0.37579 0.69214 0.0
C440 C 0.74206 0.39511 0.77521 0.0
C441 C 0.74086 0.41209 0.79521 0.0
C442 C 0.72122 0.39118 0.75991 0.0
C443 C 0.69881 0.40443 0.76405 0.0
C444 C 0.69807 0.42225 0.78345 0.0
C445 C 0.71881 0.42589 0.79899 0.0
C446 C 0.63126 0.3893 0.74814 0.0
C447 C 0.63336 0.38067 0.72341 0.0
C448 C 0.65233 0.39786 0.76103 0.0
C449 C 0.67591 0.39832 0.74934 0.0
C450 C 0.67761 0.39106 0.72405 0.0
C451 C 0.65659 0.38214 0.71129 0.0
H452 H 0.87802 0.58179 0.23388 0.0
H453 H 0.83136 0.63692 0.19743 0.0
H454 H 0.84127 0.56448 0.25462 0.0
H455 H 0.79485 0.62034 0.21876 0.0
H456 H 0.77982 0.57047 0.31507 0.0
H457 H 0.81543 0.57837 0.28811 0.0
H458 H 0.76564 0.58718 0.22479 0.0
H459 H 0.72977 0.58006 0.25219 0.0
C460 C 0.85987 0.59003 0.23012 0.0
C461 C 0.85757 0.61083 0.21426 0.0
C462 C 0.83883 0.58024 0.2421 0.0
C463 C 0.81511 0.5912 0.23862 0.0
C464 C 0.81272 0.61122 0.22171 0.0
C465 C 0.83371 0.62086 0.20959 0.0
C466 C 0.77647 0.57379 0.29534 0.0
C467 C 0.75201 0.57489 0.28578 0.0
C468 C 0.79694 0.57812 0.27979 0.0
C469 C 0.79345 0.5835 0.25424 0.0
C470 C 0.76897 0.58347 0.24445 0.0
C471 C 0.74844 0.57927 0.26009 0.0
H472 H 0.30476 0.16285 0.13164 0.0
H473 H 0.25264 0.11811 0.08908 0.0
H474 H 0.28552 0.20085 0.11526 0.0
H475 H 0.23269 0.15604 0.07344 0.0
H476 H 0.20521 0.22819 0.04115 0.0
H477 H 0.23387 0.19339 0.04896 0.0
H478 H 0.24714 0.22141 0.1238 0.0
H479 H 0.21931 0.25644 0.11564 0.0
C480 C 0.28935 0.16117 0.11855 0.0
C481 C 0.27999 0.13758 0.11183 0.0
C482 C 0.27821 0.18293 0.10928 0.0
C483 C 0.25727 0.18155 0.09335 0.0
C484 C 0.2489 0.15786 0.08549 0.0
C485 C 0.26024 0.13608 0.09455 0.0
C486 C 0.21464 0.22709 0.05909 0.0
C487 C 0.20991 0.2449 0.07785 0.0
C488 C 0.23093 0.20709 0.06363 0.0
C489 C 0.2427 0.20445 0.08707 0.0
C490 C 0.23874 0.22297 0.10539 0.0
C491 C 0.22261 0.243 0.10079 0.0
H492 H 0.79309 0.32654 0.85795 0.0
H493 H 0.76188 0.37179 0.91724 0.0
H494 H 0.77284 0.28976 0.87514 0.0
H495 H 0.74223 0.33469 0.93513 0.0
H496 H 0.67991 0.27455 0.92994 0.0
H497 H 0.70733 0.30997 0.92293 0.0
H498 H 0.76867 0.25942 0.90748 0.0
H499 H 0.74077 0.22383 0.91367 0.0
C500 C 0.78236 0.3285 0.87503 0.0
C501 C 0.77876 0.35208 0.88606 0.0
C502 C 0.77088 0.30734 0.88504 0.0
C503 C 0.75568 0.30925 0.90643 0.0
C504 C 0.75341 0.33264 0.91836 0.0
C505 C 0.76477 0.35387 0.90821 0.0
C506 C 0.69935 0.27097 0.92544 0.0
C507 C 0.70813 0.24644 0.92203 0.0
C508 C 0.71518 0.29132 0.9216 0.0
C509 C 0.74022 0.2876 0.91443 0.0
C510 C 0.74937 0.26296 0.91254 0.0
C511 C 0.73345 0.24257 0.91622 0.0
H512 H 0.81041 0.71531 0.42473 0.0
H513 H 0.75464 0.7672 0.39739 0.0
H514 H 0.78281 0.68051 0.41523 0.0
H515 H 0.72659 0.73226 0.38842 0.0
H516 H 0.70674 0.66281 0.3395 0.0
H517 H 0.72671 0.69977 0.35693 0.0
H518 H 0.7445 0.65862 0.42433 0.0
H519 H 0.72502 0.62133 0.40651 0.0
C520 C 0.79202 0.7193 0.41716 0.0
C521 C 0.78478 0.74393 0.41153 0.0
C522 C 0.77609 0.69935 0.41188 0.0
C523 C 0.75253 0.70358 0.40092 0.0
C524 C 0.74477 0.72837 0.39651 0.0
C525 C 0.76077 0.74836 0.40176 0.0
C526 C 0.71461 0.66175 0.35818 0.0
C527 C 0.71461 0.63913 0.37153 0.0
C528 C 0.72589 0.68301 0.36827 0.0
C529 C 0.73735 0.68212 0.39197 0.0
C530 C 0.73618 0.6598 0.40586 0.0
C531 C 0.72494 0.63849 0.39571 0.0
H532 H 0.21399 0.86895 0.58192 0.0
H533 H 0.19949 0.82669 0.64924 0.0
H534 H 0.23323 0.83201 0.56296 0.0
H535 H 0.21923 0.79015 0.63071 0.0
H536 H 0.24753 0.72344 0.58952 0.0
H537 H 0.21886 0.75771 0.59947 0.0
H538 H 0.27226 0.8107 0.57012 0.0
H539 H 0.30041 0.77656 0.55963 0.0
C540 C 0.21463 0.85169 0.59253 0.0
C541 C 0.20549 0.85076 0.61714 0.0
C542 C 0.22575 0.83057 0.58174 0.0
C543 C 0.228 0.80816 0.5954 0.0
C544 C 0.21759 0.80696 0.61952 0.0
C545 C 0.20643 0.828 0.63024 0.0
C546 C 0.25288 0.7424 0.5848 0.0
C547 C 0.27629 0.74736 0.57403 0.0
C548 C 0.23653 0.76203 0.5906 0.0
C549 C 0.24332 0.78699 0.58579 0.0
C550 C 0.26624 0.79173 0.57383 0.0
C551 C 0.2825 0.77214 0.56799 0.0
H552 H 0.90162 0.73107 0.86696 0.0
H553 H 0.8491 0.68314 0.82857 0.0
H554 H 0.91521 0.74806 0.82703 0.0
H555 H 0.86329 0.69951 0.7884 0.0
H556 H 0.86632 0.7648 0.73076 0.0
H557 H 0.85793 0.73809 0.76664 0.0
H558 H 0.93588 0.742 0.78808 0.0
H559 H 0.94399 0.76954 0.75263 0.0
C560 C 0.8934 0.72377 0.84993 0.0
C561 C 0.87413 0.70601 0.85088 0.0
C562 C 0.90129 0.73337 0.82696 0.0
C563 C 0.89022 0.72528 0.80443 0.0
C564 C 0.87189 0.70648 0.80539 0.0
C565 C 0.86387 0.69701 0.82839 0.0
C566 C 0.88173 0.75954 0.74287 0.0
C567 C 0.90571 0.76949 0.73913 0.0
C568 C 0.87698 0.74411 0.76341 0.0
C569 C 0.89618 0.73813 0.78049 0.0
C570 C 0.92055 0.74669 0.77563 0.0
C571 C 0.92524 0.76232 0.75524 0.0
H572 H 0.54255 0.20734 0.26617 0.0
H573 H 0.60921 0.23508 0.23025 0.0
H574 H 0.55072 0.23407 0.30226 0.0
H575 H 0.61826 0.26076 0.26672 0.0
H576 H 0.62757 0.3116 0.33169 0.0
H577 H 0.60963 0.29441 0.29335 0.0
H578 H 0.5786 0.23307 0.33592 0.0
H579 H 0.59543 0.25102 0.37416 0.0
C580 C 0.55884 0.21936 0.26594 0.0
C581 C 0.57537 0.21902 0.24555 0.0
C582 C 0.56366 0.23454 0.28669 0.0
C583 C 0.58539 0.24933 0.28771 0.0
C584 C 0.60118 0.24991 0.26662 0.0
C585 C 0.5961 0.23505 0.2457 0.0
C586 C 0.61648 0.2947 0.33282 0.0
C587 C 0.61302 0.28252 0.35584 0.0
C588 C 0.60635 0.28473 0.31083 0.0
C589 C 0.59288 0.26213 0.31136 0.0
C590 C 0.58851 0.25066 0.33468 0.0
C591 C 0.59832 0.26085 0.35668 0.0
H592 H 0.44294 0.70666 0.23098 0.0
H593 H 0.36632 0.71231 0.25596 0.0
H594 H 0.43333 0.73416 0.19569 0.0
H595 H 0.3565 0.73895 0.22049 0.0
H596 H 0.34575 0.79702 0.16243 0.0
H597 H 0.36185 0.77835 0.20082 0.0
H598 H 0.41047 0.73062 0.15713 0.0
H599 H 0.39499 0.75007 0.11878 0.0
C600 C 0.42413 0.71401 0.22907 0.0
C601 C 0.40535 0.70727 0.24613 0.0
C602 C 0.41857 0.7296 0.20877 0.0
C603 C 0.39411 0.73866 0.20512 0.0
C604 C 0.37563 0.73267 0.22285 0.0
C605 C 0.38122 0.71723 0.24315 0.0
C606 C 0.36015 0.78279 0.16108 0.0
C607 C 0.36895 0.77478 0.13765 0.0
C608 C 0.36929 0.77199 0.18307 0.0
C609 C 0.38721 0.75272 0.18209 0.0
C610 C 0.39686 0.74557 0.15863 0.0
C611 C 0.3879 0.75659 0.13663 0.0
H612 H 0.14044 0.20574 0.66178 0.0
H613 H 0.08468 0.23805 0.61281 0.0
H614 H 0.12275 0.2283 0.69706 0.0
H615 H 0.06645 0.26034 0.64844 0.0
H616 H 0.07 0.32276 0.70945 0.0
H617 H 0.07921 0.29538 0.67421 0.0
H618 H 0.08769 0.23295 0.72493 0.0
H619 H 0.07911 0.26059 0.76032 0.0
C620 C 0.1241 0.21736 0.65864 0.0
C621 C 0.11406 0.2203 0.6345 0.0
C622 C 0.11382 0.23016 0.67894 0.0
C623 C 0.0932 0.2462 0.6756 0.0
C624 C 0.08253 0.24837 0.65158 0.0
C625 C 0.09286 0.23552 0.63121 0.0
C626 C 0.0735 0.30311 0.71305 0.0
C627 C 0.07411 0.29386 0.73766 0.0
C628 C 0.0786 0.28737 0.69281 0.0
C629 C 0.08437 0.26199 0.69674 0.0
C630 C 0.08373 0.2525 0.7213 0.0
C631 C 0.07869 0.26828 0.74156 0.0
H632 H 0.73105 0.88613 0.76665 0.0
H633 H 0.77559 0.92892 0.81882 0.0
H634 H 0.76826 0.87734 0.74195 0.0
H635 H 0.81277 0.92097 0.79361 0.0
H636 H 0.87596 0.87018 0.76311 0.0
H637 H 0.83962 0.88644 0.7853 0.0
H638 H 0.79975 0.89321 0.71508 0.0
H639 H 0.83581 0.87601 0.69309 0.0
C640 C 0.74874 0.89409 0.77254 0.0
C641 C 0.75047 0.90805 0.79473 0.0
C642 C 0.77009 0.88918 0.7583 0.0
C643 C 0.79361 0.89834 0.76583 0.0
C644 C 0.79507 0.91324 0.7875 0.0
C645 C 0.77374 0.91795 0.80186 0.0
C646 C 0.85953 0.87548 0.75241 0.0
C647 C 0.85861 0.87164 0.72643 0.0
C648 C 0.83871 0.88493 0.7651 0.0
C649 C 0.81662 0.89097 0.75202 0.0
C650 C 0.81624 0.88827 0.72582 0.0
C651 C 0.83696 0.87858 0.71319 0.0
H652 H 0.66013 0.14796 0.20513 0.0
H653 H 0.61055 0.09684 0.24309 0.0
H654 H 0.69574 0.12974 0.22694 0.0
H655 H 0.64639 0.07807 0.26456 0.0
H656 H 0.71055 0.08039 0.32324 0.0
H657 H 0.67457 0.09109 0.29741 0.0
H658 H 0.72205 0.09333 0.23202 0.0
H659 H 0.75828 0.08322 0.25813 0.0
C660 C 0.6569 0.13254 0.21787 0.0
C661 C 0.63254 0.12395 0.22257 0.0
C662 C 0.67735 0.12195 0.23024 0.0
C663 C 0.67393 0.10247 0.24756 0.0
C664 C 0.64962 0.09328 0.25158 0.0
C665 C 0.62911 0.10393 0.23921 0.0
C666 C 0.71326 0.08285 0.30329 0.0
C667 C 0.73725 0.08118 0.29272 0.0
C668 C 0.69259 0.08882 0.28844 0.0
C669 C 0.69543 0.0932 0.26265 0.0
C670 C 0.7193 0.09045 0.25189 0.0
C671 C 0.74002 0.08452 0.2668 0.0
H672 H 0.34304 0.59467 0.29869 0.0
H673 H 0.37919 0.60593 0.22734 0.0
H674 H 0.30671 0.57696 0.27736 0.0
H675 H 0.34274 0.58925 0.20599 0.0
H676 H 0.27867 0.54972 0.17136 0.0
H677 H 0.3165 0.55507 0.19635 0.0
H678 H 0.27344 0.59375 0.25295 0.0
H679 H 0.23555 0.5874 0.22839 0.0
C680 C 0.34335 0.59303 0.27848 0.0
C681 C 0.36385 0.60183 0.26466 0.0
C682 C 0.32247 0.58309 0.26623 0.0
C683 C 0.32161 0.58194 0.23991 0.0
C684 C 0.34277 0.58952 0.22626 0.0
C685 C 0.36368 0.59924 0.23851 0.0
C686 C 0.27729 0.55901 0.18933 0.0
C687 C 0.25425 0.56836 0.19785 0.0
C688 C 0.29897 0.5622 0.20361 0.0
C689 C 0.29813 0.57511 0.22656 0.0
C690 C 0.27481 0.58345 0.23554 0.0
C691 C 0.25308 0.57998 0.22139 0.0
H692 H 0.2666 0.40056 0.73428 0.0
H693 H 0.21552 0.43049 0.67908 0.0
H694 H 0.23147 0.3925 0.76233 0.0
H695 H 0.18048 0.42175 0.70657 0.0
H696 H 0.12075 0.41374 0.76386 0.0
H697 H 0.15841 0.43062 0.74437 0.0
H698 H 0.19831 0.3626 0.76275 0.0
H699 H 0.16106 0.34624 0.78287 0.0
C700 C 0.2479 0.40565 0.72827 0.0
C701 C 0.24376 0.41594 0.70443 0.0
C702 C 0.22777 0.40092 0.74425 0.0
C703 C 0.2031 0.40626 0.73663 0.0
C704 C 0.1992 0.41767 0.71323 0.0
C705 C 0.2193 0.42252 0.69735 0.0
C706 C 0.13772 0.40262 0.76405 0.0
C707 C 0.13793 0.3786 0.77465 0.0
C708 C 0.15926 0.41221 0.7528 0.0
C709 C 0.18136 0.39788 0.75177 0.0
C710 C 0.18178 0.37431 0.76344 0.0
C711 C 0.16033 0.36482 0.77481 0.0
H712 H 0.81854 0.77675 0.92013 0.0
H713 H 0.7565 0.7251 0.92039 0.0
H714 H 0.78968 0.81147 0.91406 0.0
H715 H 0.72743 0.76003 0.91467 0.0
H716 H 0.69633 0.8228 0.86139 0.0
H717 H 0.7191 0.78741 0.87882 0.0
H718 H 0.75559 0.83665 0.93162 0.0
H719 H 0.73298 0.87227 0.91381 0.0
C720 C 0.79867 0.77288 0.91932 0.0
C721 C 0.78978 0.74821 0.92044 0.0
C722 C 0.78209 0.79281 0.91607 0.0
C723 C 0.75626 0.78849 0.91382 0.0
C724 C 0.74726 0.7639 0.91609 0.0
C725 C 0.76388 0.74393 0.91943 0.0
C726 C 0.70883 0.82601 0.87705 0.0
C727 C 0.71315 0.85032 0.88603 0.0
C728 C 0.72177 0.80569 0.88716 0.0
C729 C 0.73933 0.80927 0.90645 0.0
C730 C 0.74243 0.83338 0.91652 0.0
C731 C 0.7294 0.85374 0.90643 0.0
H732 H 0.22517 0.61628 0.07871 0.0
H733 H 0.20248 0.65892 0.14356 0.0
H734 H 0.24386 0.65383 0.06066 0.0
H735 H 0.22171 0.69611 0.12603 0.0
H736 H 0.24945 0.7635 0.08602 0.0
H737 H 0.22212 0.72788 0.09433 0.0
H738 H 0.28069 0.67748 0.07024 0.0
H739 H 0.30752 0.71295 0.0613 0.0
C740 C 0.22394 0.63373 0.08896 0.0
C741 C 0.21261 0.63463 0.11264 0.0
C742 C 0.23474 0.65521 0.0787 0.0
C743 C 0.2345 0.67796 0.09198 0.0
C744 C 0.22201 0.67904 0.11511 0.0
C745 C 0.21114 0.65763 0.12528 0.0
C746 C 0.25624 0.74481 0.08207 0.0
C747 C 0.28068 0.74098 0.07324 0.0
C748 C 0.24066 0.7244 0.08696 0.0
C749 C 0.24927 0.69978 0.08318 0.0
C750 C 0.27329 0.69613 0.0731 0.0
C751 C 0.28878 0.7165 0.06815 0.0
H752 H 0.24275 0.37417 0.59578 0.0
H753 H 0.30343 0.33007 0.62596 0.0
H754 H 0.22294 0.33635 0.58007 0.0
H755 H 0.28451 0.29224 0.60901 0.0
H756 H 0.22551 0.2299 0.6098 0.0
H757 H 0.25111 0.26632 0.6186 0.0
H758 H 0.22176 0.30273 0.55237 0.0
H759 H 0.19503 0.26663 0.54453 0.0
C760 C 0.25215 0.35639 0.59848 0.0
C761 C 0.27444 0.35496 0.61229 0.0
C762 C 0.24089 0.33465 0.58933 0.0
C763 C 0.25196 0.31105 0.59341 0.0
C764 C 0.27508 0.30994 0.60603 0.0
C765 C 0.28605 0.33163 0.6156 0.0
C766 C 0.22482 0.24556 0.59694 0.0
C767 C 0.20815 0.24557 0.57663 0.0
C768 C 0.23965 0.26646 0.60187 0.0
C769 C 0.23845 0.28771 0.58633 0.0
C770 C 0.22277 0.28701 0.56512 0.0
C771 C 0.2076 0.26625 0.56046 0.0
H772 H 0.73932 0.26628 0.41321 0.0
H773 H 0.67754 0.21482 0.42027 0.0
H774 H 0.76782 0.23103 0.40651 0.0
H775 H 0.70573 0.17983 0.41318 0.0
H776 H 0.7616 0.11873 0.41135 0.0
H777 H 0.74068 0.15534 0.42906 0.0
H778 H 0.77381 0.20181 0.3719 0.0
H779 H 0.79506 0.16543 0.35461 0.0
C780 C 0.7319 0.24744 0.41361 0.0
C781 C 0.7062 0.24328 0.41704 0.0
C782 C 0.74818 0.22729 0.4097 0.0
C783 C 0.73904 0.20264 0.40925 0.0
C784 C 0.71348 0.19853 0.41377 0.0
C785 C 0.69725 0.21862 0.41761 0.0
C786 C 0.76483 0.13688 0.40294 0.0
C787 C 0.77969 0.1392 0.38142 0.0
C788 C 0.75276 0.1578 0.41299 0.0
C789 C 0.75532 0.18142 0.40169 0.0
C790 C 0.77157 0.18395 0.38119 0.0
C791 C 0.78363 0.16305 0.37117 0.0
H792 H 0.16067 0.1634 0.48798 0.0
H793 H 0.09273 0.20357 0.5057 0.0
H794 H 0.14628 0.158 0.445 0.0
H795 H 0.07831 0.19815 0.46242 0.0
H796 H 0.07851 0.20512 0.37436 0.0
H797 H 0.09088 0.21186 0.41809 0.0
H798 H 0.11157 0.13397 0.42419 0.0
H799 H 0.09929 0.12723 0.38078 0.0
C800 C 0.14267 0.17112 0.48266 0.0
C801 C 0.12778 0.18384 0.50019 0.0
C802 C 0.13439 0.16792 0.45809 0.0
C803 C 0.11113 0.17754 0.45044 0.0
C804 C 0.09637 0.19065 0.46783 0.0
C805 C 0.10456 0.19363 0.49257 0.0
C806 C 0.08558 0.18946 0.38513 0.0
C807 C 0.08805 0.16569 0.37415 0.0
C808 C 0.09254 0.19328 0.41014 0.0
C809 C 0.10234 0.17346 0.42443 0.0
C810 C 0.10439 0.14965 0.41351 0.0
C811 C 0.09724 0.14578 0.38868 0.0
H812 H 0.3262 0.82324 0.9862 0.0
H813 H 0.39543 0.78656 0.00656 0.0
H814 H 0.34149 0.82873 0.94363 0.0
H815 H 0.41074 0.79203 0.96364 0.0
H816 H 0.41209 0.78396 0.87526 0.0
H817 H 0.39943 0.77714 0.91885 0.0
H818 H 0.37611 0.85434 0.92411 0.0
H819 H 0.3887 0.86119 0.88086 0.0
C820 C 0.34467 0.81629 0.98155 0.0
C821 C 0.35968 0.80456 -0.0003 0.0
C822 C 0.35346 0.81954 0.95722 0.0
C823 C 0.37734 0.81093 0.95044 0.0
C824 C 0.39221 0.79874 0.96841 0.0
C825 C 0.38351 0.79573 0.99293 0.0
C826 C 0.40442 0.79947 0.88584 0.0
C827 C 0.40124 0.82305 0.87466 0.0
C828 C 0.3973 0.79559 0.91074 0.0
C829 C 0.38663 0.81518 0.9247 0.0
C830 C 0.38399 0.83885 0.91364 0.0
C831 C 0.3913 0.84277 0.88893 0.0
H832 H 0.59251 0.32201 0.48162 0.0
H833 H 0.6623 0.29111 0.50855 0.0
H834 H 0.57823 0.32713 0.52483 0.0
H835 H 0.64797 0.29613 0.55166 0.0
H836 H 0.60277 0.28671 0.62414 0.0
H837 H 0.61424 0.27911 0.58049 0.0
H838 H 0.59191 0.35444 0.56151 0.0
H839 H 0.58051 0.36211 0.60514 0.0
C840 C 0.60469 0.31616 0.49676 0.0
C841 C 0.62852 0.30623 0.49179 0.0
C842 C 0.59657 0.31919 0.52144 0.0
C843 C 0.61202 0.31204 0.54152 0.0
C844 C 0.63561 0.30159 0.5365 0.0
C845 C 0.64385 0.29885 0.51186 0.0
C846 C 0.6002 0.30159 0.61061 0.0
C847 C 0.59084 0.32502 0.618 0.0
C848 C 0.60685 0.29727 0.5857 0.0
C849 C 0.60396 0.3162 0.56769 0.0
C850 C 0.5941 0.33946 0.57499 0.0
C851 C 0.58773 0.34388 0.59996 0.0
H852 H 0.91915 0.63039 0.10119 0.0
H853 H 0.90722 0.70791 0.12087 0.0
H854 H 0.90953 0.63996 0.05752 0.0
H855 H 0.8974 0.71742 0.07711 0.0
H856 H 0.843 0.70791 0.0079 0.0
H857 H 0.86016 0.70361 0.05006 0.0
H858 H 0.925 0.66585 0.02002 0.0
H859 H 0.90792 0.67036 0.97765 0.0
C860 C 0.91476 0.64952 0.09611 0.0
C861 C 0.91373 0.66838 0.1144 0.0
C862 C 0.90942 0.65501 0.07111 0.0
C863 C 0.90267 0.6794 0.06402 0.0
C864 C 0.90243 0.69844 0.08217 0.0
C865 C 0.9081 0.693 0.10713 0.0
C866 C 0.86106 0.69897 0.01027 0.0
C867 C 0.87408 0.68933 0.98959 0.0
C868 C 0.87095 0.69667 0.03436 0.0
C869 C 0.89387 0.68438 0.03823 0.0
C870 C 0.90723 0.67531 0.01749 0.0
C871 C 0.89751 0.67795 0.99331 0.0
H872 H 0.39073 0.07278 0.13636 0.0
H873 H 0.36646 0.11042 0.20372 0.0
H874 H 0.43372 0.08611 0.14449 0.0
H875 H 0.40944 0.12391 0.21169 0.0
H876 H 0.48138 0.17015 0.19306 0.0
H877 H 0.43891 0.15395 0.18854 0.0
H878 H 0.46851 0.07956 0.17735 0.0
H879 H 0.51107 0.09572 0.1821 0.0
C880 C 0.39463 0.08375 0.15297 0.0
C881 C 0.3753 0.09064 0.16938 0.0
C882 C 0.41921 0.09126 0.15767 0.0
C883 C 0.42481 0.10607 0.17867 0.0
C884 C 0.40554 0.11264 0.19528 0.0
C885 C 0.38102 0.10483 0.19077 0.0
C886 C 0.47881 0.15032 0.18978 0.0
C887 C 0.49948 0.13418 0.18788 0.0
C888 C 0.45453 0.14105 0.18734 0.0
C889 C 0.4505 0.11553 0.18261 0.0
C890 C 0.47116 0.09934 0.18086 0.0
C891 C 0.49545 0.10856 0.18366 0.0
H892 H 0.00459 0.82299 0.69529 0.0
H893 H 0.97557 0.89768 0.68432 0.0
H894 H 0.04723 0.83896 0.69225 0.0
H895 H 0.01839 0.91363 0.68099 0.0
H896 H 0.09667 0.91842 0.64012 0.0
H897 H 0.0534 0.90629 0.64828 0.0
H898 H 0.07678 0.86891 0.71608 0.0
H899 H 0.12012 0.88128 0.70808 0.0
C900 C 0.00735 0.84284 0.69236 0.0
C901 C 0.98683 0.85911 0.68993 0.0
C902 C 0.03173 0.85198 0.69079 0.0
C903 C 0.03602 0.8775 0.68641 0.0
C904 C 0.01551 0.89385 0.68428 0.0
C905 C 0.99109 0.88475 0.68625 0.0
C906 C 0.09252 0.90782 0.65689 0.0
C907 C 0.11171 0.90067 0.67342 0.0
C908 C 0.06778 0.90103 0.66162 0.0
C909 C 0.06184 0.88666 0.68277 0.0
C910 C 0.08095 0.8799 0.69957 0.0
C911 C 0.10567 0.88703 0.69504 0.0
H912 H 0.98229 0.3397 0.78597 0.0
H913 H 0.01107 0.40912 0.81567 0.0
H914 H 0.9396 0.35488 0.79189 0.0
H915 H 0.9682 0.42421 0.82188 0.0
H916 H 0.88945 0.41785 0.86239 0.0
H917 H 0.93295 0.40893 0.85145 0.0
H918 H 0.91013 0.38988 0.77623 0.0
H919 H 0.8666 0.39904 0.78705 0.0
C920 C 0.97946 0.35829 0.79356 0.0
C921 C -7e-05 0.37321 0.80047 0.0
C922 C 0.95506 0.36702 0.7968 0.0
C923 C 0.95068 0.39069 0.80735 0.0
C924 C 0.97114 0.40584 0.8138 0.0
C925 C -0.0044 0.39726 0.81018 0.0
C926 C 0.89378 0.41205 0.84344 0.0
C927 C 0.87469 0.40898 0.8256 0.0
C928 C 0.91865 0.40711 0.83715 0.0
C929 C 0.92481 0.39868 0.81303 0.0
C930 C 0.9058 0.39624 0.79499 0.0
C931 C 0.88096 0.40154 0.80117 0.0
H932 H 0.50214 0.65876 0.32399 0.0
H933 H 0.48571 0.59114 0.2828 0.0
H934 H 0.54521 0.64477 0.32978 0.0
H935 H 0.52904 0.57718 0.28856 0.0
H936 H 0.61711 0.57886 0.28272 0.0
H937 H 0.5734 0.59089 0.2755 0.0
H938 H 0.56576 0.60939 0.35384 0.0
H939 H 0.60917 0.59739 0.36109 0.0
C940 C 0.50777 0.64095 0.31609 0.0
C941 C 0.49059 0.62599 0.30301 0.0
C942 C 0.53237 0.6329 0.31952 0.0
C943 C 0.54037 0.60985 0.30972 0.0
C944 C 0.52334 0.59508 0.29619 0.0
C945 C 0.49858 0.60302 0.293 0.0
C946 C 0.606 0.58534 0.29838 0.0
C947 C 0.61654 0.5873 0.32243 0.0
C948 C 0.58103 0.59212 0.29427 0.0
C949 C 0.56633 0.60123 0.31409 0.0
C950 C 0.57678 0.60273 0.33818 0.0
C951 C 0.60159 0.59574 0.34233 0.0
H952 H 0.13313 0.38507 0.07101 0.0
H953 H 0.20439 0.36286 0.10232 0.0
H954 H 0.14165 0.42851 0.08234 0.0
H955 H 0.21282 0.40636 0.11378 0.0
H956 H 0.19779 0.47953 0.15957 0.0
H957 H 0.19281 0.43652 0.14503 0.0
H958 H 0.17238 0.46354 0.07158 0.0
H959 H 0.17751 0.50669 0.08608 0.0
C960 C 0.15066 0.38951 0.08018 0.0
C961 C 0.16807 0.37063 0.08589 0.0
C962 C 0.15559 0.41436 0.08652 0.0
C963 C 0.17786 0.42072 0.09895 0.0
C964 C 0.19542 0.40188 0.10436 0.0
C965 C 0.19064 0.37706 0.09773 0.0
C966 C 0.19239 0.47628 0.14028 0.0
C967 C 0.18796 0.4964 0.12396 0.0
C968 C 0.1897 0.45169 0.13194 0.0
C969 C 0.18221 0.44677 0.1072 0.0
C970 C 0.17802 0.46688 0.09079 0.0
C971 C 0.18105 0.4915 0.09905 0.0
H972 H 0.66871 -0.00185 0.82842 0.0
H973 H 0.69787 0.98092 0.90195 0.0
H974 H 0.66391 0.04192 0.84059 0.0
H975 H 0.69315 0.02485 0.91406 0.0
H976 H 0.70551 0.11135 0.91347 0.0
H977 H 0.71154 0.06746 0.90171 0.0
H978 H 0.63651 0.06534 0.87166 0.0
H979 H 0.63042 0.10902 0.88346 0.0
C980 C 0.67416 0.00374 0.84715 0.0
C981 C 0.6836 0.98616 0.86428 0.0
C982 C 0.67131 0.02875 0.85413 0.0
C983 C 0.67811 0.03669 0.87826 0.0
C984 C 0.68793 0.0192 0.89528 0.0
C985 C 0.6905 0.9941 0.8884 0.0
C986 C 0.69034 0.10146 0.90438 0.0
C987 C 0.66752 0.11355 0.89935 0.0
C988 C 0.69375 0.07637 0.89777 0.0
C989 C 0.67451 0.0631 0.88573 0.0
C990 C 0.65172 0.07523 0.8807 0.0
C991 C 0.64821 0.10017 0.88757 0.0
H992 H 0.79127 0.98635 0.32818 0.0
H993 H 0.81478 0.01128 0.40151 0.0
H994 H 0.79677 0.94289 0.34125 0.0
H995 H 0.82035 0.96778 0.41453 0.0
H996 H 0.85852 0.88918 0.41291 0.0
H997 H 0.85024 0.93283 0.40209 0.0
H998 H 0.7781 0.91203 0.37219 0.0
H999 H 0.7863 0.86835 0.38307 0.0
C1000 C 0.79746 0.98252 0.34712 0.0
C1001 C 0.80265 0.00215 0.36382 0.0
C1002 C 0.80049 0.95768 0.35463 0.0
C1003 C 0.80904 0.95203 0.37887 0.0
C1004 C 0.81394 0.97166 0.39566 0.0
C1005 C 0.81063 -0.0035 0.38825 0.0
C1006 C 0.84085 0.89396 0.40413 0.0
C1007 C 0.82307 0.87541 0.39877 0.0
C1008 C 0.83607 0.91893 0.39808 0.0
C1009 C 0.81354 0.92575 0.38631 0.0
C1010 C 0.79569 0.90721 0.38109 0.0
C1011 C 0.80035 0.88228 0.38741 0.0
H1012 H 0.32486 0.50421 0.65733 0.0
H1013 H 0.28855 0.4837 0.58796 0.0
H1014 H 0.32952 0.54697 0.64223 0.0
H1015 H 0.29309 0.52679 0.57289 0.0
H1016 H 0.28208 0.61494 0.57319 0.0
H1017 H 0.2767 0.57106 0.58542 0.0
H1018 H 0.35449 0.56742 0.60709 0.0
H1019 H 0.35994 0.61096 0.59484 0.0
C1020 C 0.31783 0.50887 0.63887 0.0
C1021 C 0.30641 0.49065 0.62378 0.0
C1022 C 0.32061 0.5333 0.6302 0.0
C1023 C 0.31175 0.54009 0.60638 0.0
C1024 C 0.29997 0.522 0.59138 0.0
C1025 C 0.29749 0.49739 0.59994 0.0
C1026 C 0.29803 0.60466 0.5804 0.0
C1027 C 0.32139 0.61636 0.58319 0.0
C1028 C 0.29498 0.57959 0.58727 0.0
C1029 C 0.31515 0.566 0.59734 0.0
C1030 C 0.33857 0.57759 0.59965 0.0
C1031 C 0.34169 0.60247 0.59253 0.0
H1032 H 0.89926 0.79146 0.48154 0.0
H1033 H 0.82718 0.82229 0.50139 0.0
H1034 H 0.91302 0.7956 0.52515 0.0
H1035 H 0.84102 0.82662 0.54476 0.0
H1036 H 0.88645 0.85859 0.61049 0.0
H1037 H 0.87445 0.85338 0.56673 0.0
H1038 H 0.90045 0.77688 0.56858 0.0
H1039 H 0.91233 0.78198 0.61268 0.0
C1040 C 0.8864 0.79912 0.49521 0.0
C1041 C 0.86219 0.80661 0.48813 0.0
C1042 C 0.89422 0.80135 0.52011 0.0
C1043 C 0.87808 0.81149 0.5382 0.0
C1044 C 0.85388 0.81895 0.53109 0.0
C1045 C 0.84595 0.81638 0.50633 0.0
C1046 C 0.88972 0.84068 0.60156 0.0
C1047 C 0.90024 0.82064 0.61498 0.0
C1048 C 0.88274 0.83769 0.57658 0.0
C1049 C 0.88643 0.81471 0.56441 0.0
C1050 C 0.89753 0.79481 0.57758 0.0
C1051 C 0.90422 0.7977 0.60276 0.0
H1052 H 0.65863 0.16036 0.00329 0.0
H1053 H 0.59404 0.20472 0.98298 0.0
H1054 H 0.64282 0.1566 0.04582 0.0
H1055 H 0.57809 0.20084 0.02581 0.0
H1056 H 0.57771 0.21047 0.11366 0.0
H1057 H 0.59013 0.21475 0.06973 0.0
H1058 H 0.60703 0.13575 0.06684 0.0
H1059 H 0.59487 0.1315 0.11053 0.0
C1060 C 0.64101 0.16928 0.00792 0.0
C1061 C 0.62752 0.18279 0.98983 0.0
C1062 C 0.63189 0.167 0.03224 0.0
C1063 C 0.60916 0.17831 0.03907 0.0
C1064 C 0.59573 0.19204 0.02106 0.0
C1065 C 0.60478 0.19416 -0.00343 0.0
C1066 C 0.5839 0.19403 0.10353 0.0
C1067 C 0.58553 0.1707 0.11554 0.0
C1068 C 0.59088 0.19645 0.07841 0.0
C1069 C 0.59974 0.17562 0.06499 0.0
C1070 C 0.60064 0.1522 0.07685 0.0
C1071 C 0.59357 0.14976 0.10184 0.0
H1072 H 0.38122 0.70187 0.36263 0.0
H1073 H 0.41407 0.63191 0.38653 0.0
H1074 H 0.3687 0.7107 0.40578 0.0
H1075 H 0.4017 0.64086 0.42966 0.0
H1076 H 0.39652 0.67875 0.50712 0.0
H1077 H 0.41141 0.67283 0.46421 0.0
H1078 H 0.33767 0.69048 0.43606 0.0
H1079 H 0.32272 0.6962 0.47888 0.0
C1080 C 0.38589 0.68848 0.37713 0.0
C1081 C 0.39853 0.66617 0.37126 0.0
C1082 C 0.37866 0.69349 0.40175 0.0
C1083 C 0.38425 0.67646 0.42099 0.0
C1084 C 0.39736 0.6544 0.4152 0.0
C1085 C 0.4043 0.64923 0.39053 0.0
C1086 C 0.38356 0.68151 0.49175 0.0
C1087 C 0.35846 0.68786 0.49629 0.0
C1088 C 0.39204 0.67802 0.46725 0.0
C1089 C 0.37566 0.68119 0.44689 0.0
C1090 C 0.35072 0.68813 0.45143 0.0
C1091 C 0.34216 0.69128 0.47591 0.0
H1092 H 0.15923 0.32265 0.98516 0.0
H1093 H 0.09045 0.28416 0.00266 0.0
H1094 H 0.1443 0.33003 0.94269 0.0
H1095 H 0.07551 0.29152 0.9598 0.0
H1096 H 0.07543 0.28835 0.8709 0.0
H1097 H 0.08768 0.27923 0.91424 0.0
H1098 H 0.10917 0.35639 0.92436 0.0
H1099 H 0.09695 0.36553 0.88137 0.0
C1100 C 0.14096 0.31566 0.97989 0.0
C1101 C 0.12595 0.30291 -0.00277 0.0
C1102 C 0.13238 0.32 0.95562 0.0
C1103 C 0.1087 0.3115 0.94807 0.0
C1104 C 0.09387 0.2982 0.96518 0.0
C1105 C 0.10237 0.29408 0.98965 0.0
C1106 C 0.08259 0.30335 0.88249 0.0
C1107 C 0.08539 0.3276 0.87274 0.0
C1108 C 0.08949 0.29816 0.90726 0.0
C1109 C 0.09955 0.31708 0.9225 0.0
C1110 C 0.10177 0.3414 0.91289 0.0
C1111 C 0.09467 0.34663 0.88831 0.0
H1112 H 0.62281 0.88088 0.79009 0.0
H1113 H 0.60056 0.91112 0.86173 0.0
H1114 H 0.5793 0.86977 0.78123 0.0
H1115 H 0.55704 0.90023 0.85271 0.0
H1116 H 0.47912 0.89848 0.81479 0.0
H1117 H 0.52238 0.91218 0.82099 0.0
H1118 H 0.54869 0.83838 0.80113 0.0
H1119 H 0.50554 0.8246 0.79517 0.0
C1120 C 0.60859 0.88532 0.80384 0.0
C1121 C 0.61502 0.89677 0.82663 0.0
C1122 C 0.58377 0.87889 0.7988 0.0
C1123 C 0.5649 0.88416 0.8163 0.0
C1124 C 0.57124 0.89616 0.83883 0.0
C1125 C 0.59611 0.90225 0.84403 0.0
C1126 C 0.49417 0.88526 0.81161 0.0
C1127 C 0.48903 0.86048 0.80457 0.0
C1128 C 0.51886 0.89306 0.81526 0.0
C1129 C 0.5388 0.87631 0.81153 0.0
C1130 C 0.53365 0.8517 0.80393 0.0
C1131 C 0.50898 0.84381 0.80065 0.0
H1132 H 0.88879 0.0685 0.3525 0.0
H1133 H 0.86524 0.10964 0.28692 0.0
H1134 H 0.93223 0.07966 0.34408 0.0
H1135 H 0.9088 0.12093 0.27858 0.0
H1136 H 0.98281 0.16336 0.29834 0.0
H1137 H 0.93978 0.14867 0.302 0.0
H1138 H 0.96651 0.07298 0.31154 0.0
H1139 H 0.00969 0.08766 0.30775 0.0
C1140 C 0.89295 0.07973 0.33616 0.0
C1141 C 0.87368 0.08832 0.32042 0.0
C1142 C 0.9178 0.08599 0.33128 0.0
C1143 C 0.92381 0.10121 0.31074 0.0
C1144 C 0.9046 0.10932 0.29466 0.0
C1145 C 0.87975 0.10279 0.29936 0.0
C1146 C 0.9795 0.14357 0.30109 0.0
C1147 C -0.00044 0.12665 0.30287 0.0
C1148 C 0.95488 0.13515 0.303 0.0
C1149 C 0.94987 0.1097 0.307 0.0
C1150 C 0.96991 0.09272 0.30857 0.0
C1151 C 0.99456 0.1011 0.30634 0.0
H1152 H 0.12548 0.5951 0.20691 0.0
H1153 H 0.10309 0.56816 0.13396 0.0
H1154 H 0.082 0.60633 0.216 0.0
H1155 H 0.05974 0.57925 0.1431 0.0
H1156 H 0.98131 0.58395 0.17668 0.0
H1157 H 0.02407 0.56802 0.17264 0.0
H1158 H 0.05286 0.63934 0.19731 0.0
H1159 H 0.01021 0.6553 0.20123 0.0
C1160 C 0.11123 0.59132 0.19297 0.0
C1161 C 0.11762 0.58091 0.16969 0.0
C1162 C 0.08643 0.59782 0.19813 0.0
C1163 C 0.06759 0.59368 0.18023 0.0
C1164 C 0.07388 0.58243 0.15732 0.0
C1165 C 0.09869 0.57623 0.15204 0.0
C1166 C -0.00321 0.59612 0.18145 0.0
C1167 C 0.9925 0.62089 0.18913 0.0
C1168 C 0.0212 0.58704 0.17906 0.0
C1169 C 0.04171 0.60247 0.18466 0.0
C1170 C 0.03737 0.62697 0.19312 0.0
C1171 C 0.01299 0.63615 0.19519 0.0
H1172 H 0.38146 0.38763 0.62508 0.0
H1173 H 0.3765 0.41508 0.70104 0.0
H1174 H 0.42488 0.37535 0.6324 0.0
H1175 H 0.42012 0.40291 0.70827 0.0
H1176 H 0.5072 0.40054 0.69884 0.0
H1177 H 0.4641 0.41461 0.69188 0.0
H1178 H 0.44575 0.34251 0.66042 0.0
H1179 H 0.48864 0.32837 0.66751 0.0
C1180 C 0.38971 0.39119 0.64329 0.0
C1181 C 0.37562 0.40223 0.66253 0.0
C1182 C 0.41449 0.38405 0.64749 0.0
C1183 C 0.42574 0.38811 0.67092 0.0
C1184 C 0.41187 0.39971 0.69 0.0
C1185 C 0.38694 0.40656 0.6859 0.0
C1186 C 0.49392 0.38772 0.69049 0.0
C1187 C 0.50122 0.36338 0.6837 0.0
C1188 C 0.4693 0.39573 0.68661 0.0
C1189 C 0.45171 0.37965 0.67553 0.0
C1190 C 0.45904 0.35534 0.66876 0.0
C1191 C 0.48352 0.34723 0.67294 0.0
H1192 H 0.78374 0.62196 0.89575 0.0
H1193 H 0.85478 0.59962 0.92746 0.0
H1194 H 0.77458 0.57828 0.88573 0.0
H1195 H 0.84563 0.55605 0.91743 0.0
H1196 H 0.81234 0.4777 0.91201 0.0
H1197 H 0.81604 0.52067 0.92738 0.0
H1198 H 0.79396 0.54845 0.85467 0.0
H1199 H 0.79027 0.50563 0.83932 0.0
C1200 C 0.79723 0.60769 0.90087 0.0
C1201 C 0.82004 0.61415 0.91221 0.0
C1202 C 0.79204 0.58275 0.89504 0.0
C1203 C 0.80946 0.56385 0.9007 0.0
C1204 C 0.83178 0.57022 0.91304 0.0
C1205 C 0.83707 0.59516 0.91864 0.0
C1206 C 0.80808 0.49301 0.89941 0.0
C1207 C 0.80116 0.48839 0.87445 0.0
C1208 C 0.81026 0.51754 0.90818 0.0
C1209 C 0.80527 0.53783 0.89221 0.0
C1210 C 0.79764 0.53315 0.86747 0.0
C1211 C 0.79572 0.50866 0.85864 0.0
H1212 H 0.28451 0.87653 0.07622 0.0
H1213 H 0.36079 0.87884 0.10308 0.0
H1214 H 0.27886 0.92032 0.08865 0.0
H1215 H 0.35502 0.92237 0.11563 0.0
H1216 H 0.32283 0.98713 0.16301 0.0
H1217 H 0.32786 0.94398 0.14886 0.0
H1218 H 0.29704 0.96385 0.07675 0.0
H1219 H 0.29218 0.00722 0.09082 0.0
C1220 C 0.30005 0.88641 0.08469 0.0
C1221 C 0.32306 0.87431 0.08875 0.0
C1222 C 0.29684 0.91143 0.09168 0.0
C1223 C 0.31648 0.92459 0.10318 0.0
C1224 C 0.33953 0.91254 0.10701 0.0
C1225 C 0.34284 0.88769 0.09972 0.0
C1226 C 0.31709 0.98229 0.14415 0.0
C1227 C 0.30717 0.0005 0.12798 0.0
C1228 C 0.32008 0.95765 0.13604 0.0
C1229 C 0.3129 0.95068 0.11171 0.0
C1230 C 0.3026 0.96877 0.09564 0.0
C1231 C 0.29993 0.99354 0.10365 0.0
H1232 H 0.19559 0.9826 0.59413 0.0
H1233 H 0.16379 0.00268 0.66572 0.0
H1234 H 0.18995 0.02571 0.57966 0.0
H1235 H 0.15812 0.04559 0.65124 0.0
H1236 H 0.12531 0.11072 0.60602 0.0
H1237 H 0.13137 0.0673 0.6188 0.0
H1238 H 0.20685 0.06909 0.59019 0.0
H1239 H 0.20083 0.11265 0.5774 0.0
C1240 C 0.18746 -0.00378 0.60675 0.0
C1241 C 0.18011 0.98932 0.63102 0.0
C1242 C 0.18432 0.02086 0.59851 0.0
C1243 C 0.1735 0.03891 0.61431 0.0
C1244 C 0.16625 0.03198 0.63859 0.0
C1245 C 0.16963 0.00746 0.64691 0.0
C1246 C 0.14315 0.10182 0.60235 0.0
C1247 C 0.16263 0.11506 0.59079 0.0
C1248 C 0.14666 0.07703 0.60978 0.0
C1249 C 0.16961 0.06491 0.60558 0.0
C1250 C 0.18892 0.07797 0.59351 0.0
C1251 C 0.18551 0.10288 0.58631 0.0
H1252 H 0.7077 0.3669 0.38232 0.0
H1253 H 0.64578 0.39218 0.42774 0.0
H1254 H 0.71614 0.41014 0.37004 0.0
H1255 H 0.65421 0.43529 0.41546 0.0
H1256 H 0.68913 0.51215 0.4029 0.0
H1257 H 0.68664 0.46935 0.41892 0.0
H1258 H 0.69201 0.44083 0.34342 0.0
H1259 H 0.6945 0.48348 0.32743 0.0
C1260 C 0.69611 0.38172 0.3899 0.0
C1261 C 0.67599 0.37622 0.40584 0.0
C1262 C 0.70086 0.4064 0.3828 0.0
C1263 C 0.68575 0.426 0.39173 0.0
C1264 C 0.66628 0.42056 0.40847 0.0
C1265 C 0.66137 0.39589 0.41537 0.0
C1266 C 0.68995 0.49671 0.38978 0.0
C1267 C 0.69186 0.50109 0.36393 0.0
C1268 C 0.68847 0.47227 0.39893 0.0
C1269 C 0.68916 0.45183 0.3824 0.0
C1270 C 0.69173 0.45624 0.35661 0.0
C1271 C 0.69296 0.48064 0.34745 0.0
loop_
_geom_bond_atom_site_label_1
_geom_bond_atom_site_label_2
_geom_bond_distance
_geom_bond_site_symmetry_2
_ccdc_geom_bond_type
In0 O1 2.294 . S
In0 O2 2.326 . S
In0 O6 2.266 . S
In0 O7 2.326 . S
In0 O8 2.266 . S
In0 O9 2.326 . S
In0 O11 2.294 . S
In0 O12 2.326 . S
O1 In0 2.294 . S
O1 C10 1.240 . S
O2 In0 2.326 . S
O2 C10 1.252 . S
C3 O6 1.252 . S
C3 O7 1.260 . S
C4 O11 1.240 . S
C4 O12 1.252 . S
C5 O8 1.252 . S
C5 O9 1.260 . S
O6 In0 2.266 . S
O6 C3 1.252 . S
O7 In0 2.326 . S
O7 C3 1.260 . S
O8 In0 2.266 . S
O8 C5 1.252 . S
O9 In0 2.326 . S
O9 C5 1.260 . S
C10 O1 1.240 . S
C10 O2 1.252 . S
O11 In0 2.294 . S
O11 C4 1.240 . S
O12 In0 2.326 . S
O12 C4 1.252 . S
In13 O14 2.294 . S
In13 O15 2.326 . S
In13 O19 2.266 . S
In13 O20 2.326 . S
In13 O21 2.266 . S
In13 O22 2.326 . S
In13 O24 2.294 . S
In13 O25 2.326 . S
O14 In13 2.294 . S
O14 C23 1.240 . S
O15 In13 2.326 . S
O15 C23 1.252 . S
C16 O19 1.252 . S
C16 O20 1.260 . S
C17 O24 1.240 . S
C17 O25 1.252 . S
C18 O21 1.252 . S
C18 O22 1.260 . S
O19 In13 2.266 . S
O19 C16 1.252 . S
O20 In13 2.326 . S
O20 C16 1.260 . S
O21 In13 2.266 . S
O21 C18 1.252 . S
O22 In13 2.326 . S
O22 C18 1.260 . S
C23 O14 1.240 . S
C23 O15 1.252 . S
O24 In13 2.294 . S
O24 C17 1.240 . S
O25 In13 2.326 . S
O25 C17 1.252 . S
In26 O27 2.294 . S
In26 O28 2.326 . S
In26 O32 2.266 . S
In26 O33 2.326 . S
In26 O34 2.266 . S
In26 O35 2.326 . S
In26 O37 2.294 . S
In26 O38 2.326 . S
O27 In26 2.294 . S
O27 C36 1.240 . S
O28 In26 2.326 . S
O28 C36 1.252 . S
C29 O32 1.252 . S
C29 O33 1.260 . S
C30 O37 1.240 . S
C30 O38 1.252 . S
C31 O34 1.252 . S
C31 O35 1.260 . S
O32 In26 2.266 . S
O32 C29 1.252 . S
O33 In26 2.326 . S
O33 C29 1.260 . S
O34 In26 2.266 . S
O34 C31 1.252 . S
O35 In26 2.326 . S
O35 C31 1.260 . S
C36 O27 1.240 . S
C36 O28 1.252 . S
O37 In26 2.294 . S
O37 C30 1.240 . S
O38 In26 2.326 . S
O38 C30 1.252 . S
In39 O40 2.294 . S
In39 O41 2.326 . S
In39 O45 2.266 . S
In39 O46 2.326 . S
In39 O47 2.266 . S
In39 O48 2.326 . S
In39 O50 2.294 . S
In39 O51 2.326 . S
O40 In39 2.294 . S
O40 C49 1.240 . S
O41 In39 2.326 . S
O41 C49 1.252 . S
C42 O45 1.252 . S
C42 O46 1.260 . S
C43 O50 1.240 . S
C43 O51 1.252 . S
C44 O47 1.252 . S
C44 O48 1.260 . S
O45 In39 2.266 . S
O45 C42 1.252 . S
O46 In39 2.326 . S
O46 C42 1.260 . S
O47 In39 2.266 . S
O47 C44 1.252 . S
O48 In39 2.326 . S
O48 C44 1.260 . S
C49 O40 1.240 . S
C49 O41 1.252 . S
O50 In39 2.294 . S
O50 C43 1.240 . S
O51 In39 2.326 . S
O51 C43 1.252 . S
In52 O53 2.294 . S
In52 O54 2.326 . S
In52 O58 2.266 . S
In52 O59 2.326 . S
In52 O60 2.266 . S
In52 O61 2.326 . S
In52 O63 2.294 . S
In52 O64 2.326 . S
O53 In52 2.294 . S
O53 C62 1.240 . S
O54 In52 2.326 . S
O54 C62 1.252 . S
C55 O58 1.252 . S
C55 O59 1.260 . S
C56 O63 1.240 . S
C56 O64 1.252 . S
C57 O60 1.252 . S
C57 O61 1.260 . S
O58 In52 2.266 . S
O58 C55 1.252 . S
O59 In52 2.326 . S
O59 C55 1.260 . S
O60 In52 2.266 . S
O60 C57 1.252 . S
O61 In52 2.326 . S
O61 C57 1.260 . S
C62 O53 1.240 . S
C62 O54 1.252 . S
O63 In52 2.294 . S
O63 C56 1.240 . S
O64 In52 2.326 . S
O64 C56 1.252 . S
In65 O66 2.294 . S
In65 O67 2.326 . S
In65 O71 2.266 . S
In65 O72 2.326 . S
In65 O73 2.266 . S
In65 O74 2.326 . S
In65 O76 2.294 . S
In65 O77 2.326 . S
O66 In65 2.294 . S
O66 C75 1.240 . S
O67 In65 2.326 . S
O67 C75 1.252 . S
C68 O71 1.252 . S
C68 O72 1.260 . S
C69 O76 1.240 . S
C69 O77 1.252 . S
C70 O73 1.252 . S
C70 O74 1.260 . S
O71 In65 2.266 . S
O71 C68 1.252 . S
O72 In65 2.326 . S
O72 C68 1.260 . S
O73 In65 2.266 . S
O73 C70 1.252 . S
O74 In65 2.326 . S
O74 C70 1.260 . S
C75 O66 1.240 . S
C75 O67 1.252 . S
O76 In65 2.294 . S
O76 C69 1.240 . S
O77 In65 2.326 . S
O77 C69 1.252 . S
In78 O79 2.294 . S
In78 O80 2.326 . S
In78 O84 2.266 . S
In78 O85 2.326 . S
In78 O86 2.266 . S
In78 O87 2.326 . S
In78 O89 2.294 . S
In78 O90 2.326 . S
O79 In78 2.294 . S
O79 C88 1.240 . S
O80 In78 2.326 . S
O80 C88 1.252 . S
C81 O84 1.252 . S
C81 O85 1.260 . S
C82 O89 1.240 . S
C82 O90 1.252 . S
C83 O86 1.252 . S
C83 O87 1.260 . S
O84 In78 2.266 . S
O84 C81 1.252 . S
O85 In78 2.326 . S
O85 C81 1.260 . S
O86 In78 2.266 . S
O86 C83 1.252 . S
O87 In78 2.326 . S
O87 C83 1.260 . S
C88 O79 1.240 . S
C88 O80 1.252 . S
O89 In78 2.294 . S
O89 C82 1.240 . S
O90 In78 2.326 . S
O90 C82 1.252 . S
In91 O92 2.294 . S
In91 O93 2.326 . S
In91 O97 2.266 . S
In91 O98 2.326 . S
In91 O99 2.266 . S
In91 O100 2.326 . S
In91 O102 2.294 . S
In91 O103 2.326 . S
O92 In91 2.294 . S
O92 C101 1.240 . S
O93 In91 2.326 . S
O93 C101 1.252 . S
C94 O97 1.252 . S
C94 O98 1.260 . S
C95 O102 1.240 . S
C95 O103 1.252 . S
C96 O99 1.252 . S
C96 O100 1.260 . S
O97 In91 2.266 . S
O97 C94 1.252 . S
O98 In91 2.326 . S
O98 C94 1.260 . S
O99 In91 2.266 . S
O99 C96 1.252 . S
O100 In91 2.326 . S
O100 C96 1.260 . S
C101 O92 1.240 . S
C101 O93 1.252 . S
O102 In91 2.294 . S
O102 C95 1.240 . S
O103 In91 2.326 . S
O103 C95 1.252 . S
In104 O105 2.294 . S
In104 O106 2.326 . S
In104 O110 2.266 . S
In104 O111 2.326 . S
In104 O112 2.266 . S
In104 O113 2.326 . S
In104 O115 2.294 . S
In104 O116 2.326 . S
O105 In104 2.294 . S
O105 C114 1.240 . S
O106 In104 2.326 . S
O106 C114 1.252 . S
C107 O110 1.252 . S
C107 O111 1.260 . S
C108 O115 1.240 . S
C108 O116 1.252 . S
C109 O112 1.252 . S
C109 O113 1.260 . S
O110 In104 2.266 . S
O110 C107 1.252 . S
O111 In104 2.326 . S
O111 C107 1.260 . S
O112 In104 2.266 . S
O112 C109 1.252 . S
O113 In104 2.326 . S
O113 C109 1.260 . S
C114 O105 1.240 . S
C114 O106 1.252 . S
O115 In104 2.294 . S
O115 C108 1.240 . S
O116 In104 2.326 . S
O116 C108 1.252 . S
In117 O118 2.294 . S
In117 O119 2.326 . S
In117 O123 2.266 . S
In117 O124 2.326 . S
In117 O125 2.266 . S
In117 O126 2.326 . S
In117 O128 2.294 . S
In117 O129 2.326 . S
O118 In117 2.294 . S
O118 C127 1.240 . S
O119 In117 2.326 . S
O119 C127 1.252 . S
C120 O123 1.252 . S
C120 O124 1.260 . S
C121 O128 1.240 . S
C121 O129 1.252 . S
C122 O125 1.252 . S
C122 O126 1.260 . S
O123 In117 2.266 . S
O123 C120 1.252 . S
O124 In117 2.326 . S
O124 C120 1.260 . S
O125 In117 2.266 . S
O125 C122 1.252 . S
O126 In117 2.326 . S
O126 C122 1.260 . S
C127 O118 1.240 . S
C127 O119 1.252 . S
O128 In117 2.294 . S
O128 C121 1.240 . S
O129 In117 2.326 . S
O129 C121 1.252 . S
In130 O131 2.294 . S
In130 O132 2.326 . S
In130 O136 2.266 . S
In130 O137 2.326 . S
In130 O138 2.266 . S
In130 O139 2.326 . S
In130 O141 2.294 . S
In130 O142 2.326 . S
O131 In130 2.294 . S
O131 C140 1.240 . S
O132 In130 2.326 . S
O132 C140 1.252 . S
C133 O136 1.252 . S
C133 O137 1.260 . S
C134 O141 1.240 . S
C134 O142 1.252 . S
C135 O138 1.252 . S
C135 O139 1.260 . S
O136 In130 2.266 . S
O136 C133 1.252 . S
O137 In130 2.326 . S
O137 C133 1.260 . S
O138 In130 2.266 . S
O138 C135 1.252 . S
O139 In130 2.326 . S
O139 C135 1.260 . S
C140 O131 1.240 . S
C140 O132 1.252 . S
O141 In130 2.294 . S
O141 C134 1.240 . S
O142 In130 2.326 . S
O142 C134 1.252 . S
In143 O144 2.294 . S
In143 O145 2.326 . S
In143 O149 2.266 . S
In143 O150 2.326 . S
In143 O151 2.266 . S
In143 O152 2.326 . S
In143 O154 2.294 . S
In143 O155 2.326 . S
O144 In143 2.294 . S
O144 C153 1.240 . S
O145 In143 2.326 . S
O145 C153 1.252 . S
C146 O149 1.252 . S
C146 O150 1.260 . S
C147 O154 1.240 . S
C147 O155 1.252 . S
C148 O151 1.252 . S
C148 O152 1.260 . S
O149 In143 2.266 . S
O149 C146 1.252 . S
O150 In143 2.326 . S
O150 C146 1.260 . S
O151 In143 2.266 . S
O151 C148 1.252 . S
O152 In143 2.326 . S
O152 C148 1.260 . S
C153 O144 1.240 . S
C153 O145 1.252 . S
O154 In143 2.294 . S
O154 C147 1.240 . S
O155 In143 2.326 . S
O155 C147 1.252 . S
In156 O157 2.294 . S
In156 O158 2.326 . S
In156 O162 2.266 . S
In156 O163 2.326 . S
In156 O164 2.266 . S
In156 O165 2.326 . S
In156 O167 2.294 . S
In156 O168 2.326 . S
O157 In156 2.294 . S
O157 C166 1.240 . S
O158 In156 2.326 . S
O158 C166 1.252 . S
C159 O162 1.252 . S
C159 O163 1.260 . S
C160 O167 1.240 . S
C160 O168 1.252 . S
C161 O164 1.252 . S
C161 O165 1.260 . S
O162 In156 2.266 . S
O162 C159 1.252 . S
O163 In156 2.326 . S
O163 C159 1.260 . S
O164 In156 2.266 . S
O164 C161 1.252 . S
O165 In156 2.326 . S
O165 C161 1.260 . S
C166 O157 1.240 . S
C166 O158 1.252 . S
O167 In156 2.294 . S
O167 C160 1.240 . S
O168 In156 2.326 . S
O168 C160 1.252 . S
In169 O170 2.294 . S
In169 O171 2.326 . S
In169 O175 2.266 . S
In169 O176 2.326 . S
In169 O177 2.266 . S
In169 O178 2.326 . S
In169 O180 2.294 . S
In169 O181 2.326 . S
O170 In169 2.294 . S
O170 C179 1.240 . S
O171 In169 2.326 . S
O171 C179 1.252 . S
C172 O175 1.252 . S
C172 O176 1.260 . S
C173 O180 1.240 . S
C173 O181 1.252 . S
C174 O177 1.252 . S
C174 O178 1.260 . S
O175 In169 2.266 . S
O175 C172 1.252 . S
O176 In169 2.326 . S
O176 C172 1.260 . S
O177 In169 2.266 . S
O177 C174 1.252 . S
O178 In169 2.326 . S
O178 C174 1.260 . S
C179 O170 1.240 . S
C179 O171 1.252 . S
O180 In169 2.294 . S
O180 C173 1.240 . S
O181 In169 2.326 . S
O181 C173 1.252 . S
In182 O183 2.294 . S
In182 O184 2.326 . S
In182 O188 2.266 . S
In182 O189 2.326 . S
In182 O190 2.266 . S
In182 O191 2.326 . S
In182 O193 2.294 . S
In182 O194 2.326 . S
O183 In182 2.294 . S
O183 C192 1.240 . S
O184 In182 2.326 . S
O184 C192 1.252 . S
C185 O188 1.252 . S
C185 O189 1.260 . S
C186 O193 1.240 . S
C186 O194 1.252 . S
C187 O190 1.252 . S
C187 O191 1.260 . S
O188 In182 2.266 . S
O188 C185 1.252 . S
O189 In182 2.326 . S
O189 C185 1.260 . S
O190 In182 2.266 . S
O190 C187 1.252 . S
O191 In182 2.326 . S
O191 C187 1.260 . S
C192 O183 1.240 . S
C192 O184 1.252 . S
O193 In182 2.294 . S
O193 C186 1.240 . S
O194 In182 2.326 . S
O194 C186 1.252 . S
In195 O196 2.294 . S
In195 O197 2.326 . S
In195 O201 2.266 . S
In195 O202 2.326 . S
In195 O203 2.266 . S
In195 O204 2.326 . S
In195 O206 2.294 . S
In195 O207 2.326 . S
O196 In195 2.294 . S
O196 C205 1.240 . S
O197 In195 2.326 . S
O197 C205 1.252 . S
C198 O201 1.252 . S
C198 O202 1.260 . S
C199 O206 1.240 . S
C199 O207 1.252 . S
C200 O203 1.252 . S
C200 O204 1.260 . S
O201 In195 2.266 . S
O201 C198 1.252 . S
O202 In195 2.326 . S
O202 C198 1.260 . S
O203 In195 2.266 . S
O203 C200 1.252 . S
O204 In195 2.326 . S
O204 C200 1.260 . S
C205 O196 1.240 . S
C205 O197 1.252 . S
O206 In195 2.294 . S
O206 C199 1.240 . S
O207 In195 2.326 . S
O207 C199 1.252 . S
In208 O209 2.294 . S
In208 O210 2.326 . S
In208 O214 2.266 . S
In208 O215 2.326 . S
In208 O216 2.266 . S
In208 O217 2.326 . S
In208 O219 2.294 . S
In208 O220 2.326 . S
O209 In208 2.294 . S
O209 C218 1.240 . S
O210 In208 2.326 . S
O210 C218 1.252 . S
C211 O214 1.252 . S
C211 O215 1.260 . S
C212 O219 1.240 . S
C212 O220 1.252 . S
C213 O216 1.252 . S
C213 O217 1.260 . S
O214 In208 2.266 . S
O214 C211 1.252 . S
O215 In208 2.326 . S
O215 C211 1.260 . S
O216 In208 2.266 . S
O216 C213 1.252 . S
O217 In208 2.326 . S
O217 C213 1.260 . S
C218 O209 1.240 . S
C218 O210 1.252 . S
O219 In208 2.294 . S
O219 C212 1.240 . S
O220 In208 2.326 . S
O220 C212 1.252 . S
In221 O222 2.294 . S
In221 O223 2.326 . S
In221 O227 2.266 . S
In221 O228 2.326 . S
In221 O229 2.266 . S
In221 O230 2.326 . S
In221 O232 2.294 . S
In221 O233 2.326 . S
O222 In221 2.294 . S
O222 C231 1.240 . S
O223 In221 2.326 . S
O223 C231 1.252 . S
C224 O227 1.252 . S
C224 O228 1.260 . S
C225 O232 1.240 . S
C225 O233 1.252 . S
C226 O229 1.252 . S
C226 O230 1.260 . S
O227 In221 2.266 . S
O227 C224 1.252 . S
O228 In221 2.326 . S
O228 C224 1.260 . S
O229 In221 2.266 . S
O229 C226 1.252 . S
O230 In221 2.326 . S
O230 C226 1.260 . S
C231 O222 1.240 . S
C231 O223 1.252 . S
O232 In221 2.294 . S
O232 C225 1.240 . S
O233 In221 2.326 . S
O233 C225 1.252 . S
In234 O235 2.294 . S
In234 O236 2.326 . S
In234 O240 2.266 . S
In234 O241 2.326 . S
In234 O242 2.266 . S
In234 O243 2.326 . S
In234 O245 2.294 . S
In234 O246 2.326 . S
O235 In234 2.294 . S
O235 C244 1.240 . S
O236 In234 2.326 . S
O236 C244 1.252 . S
C237 O240 1.252 . S
C237 O241 1.260 . S
C238 O245 1.240 . S
C238 O246 1.252 . S
C239 O242 1.252 . S
C239 O243 1.260 . S
O240 In234 2.266 . S
O240 C237 1.252 . S
O241 In234 2.326 . S
O241 C237 1.260 . S
O242 In234 2.266 . S
O242 C239 1.252 . S
O243 In234 2.326 . S
O243 C239 1.260 . S
C244 O235 1.240 . S
C244 O236 1.252 . S
O245 In234 2.294 . S
O245 C238 1.240 . S
O246 In234 2.326 . S
O246 C238 1.252 . S
In247 O248 2.294 . S
In247 O249 2.326 . S
In247 O253 2.266 . S
In247 O254 2.326 . S
In247 O255 2.266 . S
In247 O256 2.326 . S
In247 O258 2.294 . S
In247 O259 2.326 . S
O248 In247 2.294 . S
O248 C257 1.240 . S
O249 In247 2.326 . S
O249 C257 1.252 . S
C250 O253 1.252 . S
C250 O254 1.260 . S
C251 O258 1.240 . S
C251 O259 1.252 . S
C252 O255 1.252 . S
C252 O256 1.260 . S
O253 In247 2.266 . S
O253 C250 1.252 . S
O254 In247 2.326 . S
O254 C250 1.260 . S
O255 In247 2.266 . S
O255 C252 1.252 . S
O256 In247 2.326 . S
O256 C252 1.260 . S
C257 O248 1.240 . S
C257 O249 1.252 . S
O258 In247 2.294 . S
O258 C251 1.240 . S
O259 In247 2.326 . S
O259 C251 1.252 . S
In260 O261 2.294 . S
In260 O262 2.326 . S
In260 O266 2.266 . S
In260 O267 2.326 . S
In260 O268 2.266 . S
In260 O269 2.326 . S
In260 O271 2.294 . S
In260 O272 2.326 . S
O261 In260 2.294 . S
O261 C270 1.240 . S
O262 In260 2.326 . S
O262 C270 1.252 . S
C263 O266 1.252 . S
C263 O267 1.260 . S
C264 O271 1.240 . S
C264 O272 1.252 . S
C265 O268 1.252 . S
C265 O269 1.260 . S
O266 In260 2.266 . S
O266 C263 1.252 . S
O267 In260 2.326 . S
O267 C263 1.260 . S
O268 In260 2.266 . S
O268 C265 1.252 . S
O269 In260 2.326 . S
O269 C265 1.260 . S
C270 O261 1.240 . S
C270 O262 1.252 . S
O271 In260 2.294 . S
O271 C264 1.240 . S
O272 In260 2.326 . S
O272 C264 1.252 . S
In273 O274 2.294 . S
In273 O275 2.326 . S
In273 O279 2.266 . S
In273 O280 2.326 . S
In273 O281 2.266 . S
In273 O282 2.326 . S
In273 O284 2.294 . S
In273 O285 2.326 . S
O274 In273 2.294 . S
O274 C283 1.240 . S
O275 In273 2.326 . S
O275 C283 1.252 . S
C276 O279 1.252 . S
C276 O280 1.260 . S
C277 O284 1.240 . S
C277 O285 1.252 . S
C278 O281 1.252 . S
C278 O282 1.260 . S
O279 In273 2.266 . S
O279 C276 1.252 . S
O280 In273 2.326 . S
O280 C276 1.260 . S
O281 In273 2.266 . S
O281 C278 1.252 . S
O282 In273 2.326 . S
O282 C278 1.260 . S
C283 O274 1.240 . S
C283 O275 1.252 . S
O284 In273 2.294 . S
O284 C277 1.240 . S
O285 In273 2.326 . S
O285 C277 1.252 . S
In286 O287 2.294 . S
In286 O288 2.326 . S
In286 O292 2.266 . S
In286 O293 2.326 . S
In286 O294 2.266 . S
In286 O295 2.326 . S
In286 O297 2.294 . S
In286 O298 2.326 . S
O287 In286 2.294 . S
O287 C296 1.240 . S
O288 In286 2.326 . S
O288 C296 1.252 . S
C289 O292 1.252 . S
C289 O293 1.260 . S
C290 O297 1.240 . S
C290 O298 1.252 . S
C291 O294 1.252 . S
C291 O295 1.260 . S
O292 In286 2.266 . S
O292 C289 1.252 . S
O293 In286 2.326 . S
O293 C289 1.260 . S
O294 In286 2.266 . S
O294 C291 1.252 . S
O295 In286 2.326 . S
O295 C291 1.260 . S
C296 O287 1.240 . S
C296 O288 1.252 . S
O297 In286 2.294 . S
O297 C290 1.240 . S
O298 In286 2.326 . S
O298 C290 1.252 . S
In299 O300 2.294 . S
In299 O301 2.326 . S
In299 O305 2.266 . S
In299 O306 2.326 . S
In299 O307 2.266 . S
In299 O308 2.326 . S
In299 O310 2.294 . S
In299 O311 2.326 . S
O300 In299 2.294 . S
O300 C309 1.240 . S
O301 In299 2.326 . S
O301 C309 1.252 . S
C302 O305 1.252 . S
C302 O306 1.260 . S
C303 O310 1.240 . S
C303 O311 1.252 . S
C304 O307 1.252 . S
C304 O308 1.260 . S
O305 In299 2.266 . S
O305 C302 1.252 . S
O306 In299 2.326 . S
O306 C302 1.260 . S
O307 In299 2.266 . S
O307 C304 1.252 . S
O308 In299 2.326 . S
O308 C304 1.260 . S
C309 O300 1.240 . S
C309 O301 1.252 . S
O310 In299 2.294 . S
O310 C303 1.240 . S
O311 In299 2.326 . S
O311 C303 1.252 . S
H312 C320 0.950 . S
H313 C325 0.950 . S
H314 C322 0.950 . S
H315 C324 0.950 . S
H316 C326 0.950 . S
H317 C328 0.950 . S
H318 C330 0.950 . S
H319 C331 0.950 . S
C320 H312 0.950 . S
C320 C321 1.386 . S
C320 C322 1.391 . S
C321 C320 1.386 . S
C321 C325 1.393 . S
C322 H314 0.950 . S
C322 C320 1.391 . S
C322 C323 1.400 . S
C323 C322 1.400 . S
C323 C324 1.398 . S
C323 C329 1.491 . S
C324 H315 0.950 . S
C324 C323 1.398 . S
C324 C325 1.391 . S
C325 H313 0.950 . S
C325 C321 1.393 . S
C325 C324 1.391 . S
C326 H316 0.950 . S
C326 C327 1.386 . S
C326 C328 1.391 . S
C327 C326 1.386 . S
C327 C331 1.393 . S
C328 H317 0.950 . S
C328 C326 1.391 . S
C328 C329 1.400 . S
C329 C323 1.491 . S
C329 C328 1.400 . S
C329 C330 1.398 . S
C330 H318 0.950 . S
C330 C329 1.398 . S
C330 C331 1.391 . S
C331 H319 0.950 . S
C331 C327 1.393 . S
C331 C330 1.391 . S
H332 C340 0.950 . S
H333 C345 0.950 . S
H334 C342 0.950 . S
H335 C344 0.950 . S
H336 C346 0.950 . S
H337 C348 0.950 . S
H338 C350 0.950 . S
H339 C351 0.950 . S
C340 H332 0.950 . S
C340 C341 1.386 . S
C340 C342 1.391 . S
C341 C340 1.386 . S
C341 C345 1.393 . S
C342 H334 0.950 . S
C342 C340 1.391 . S
C342 C343 1.400 . S
C343 C342 1.400 . S
C343 C344 1.398 . S
C343 C349 1.491 . S
C344 H335 0.950 . S
C344 C343 1.398 . S
C344 C345 1.391 . S
C345 H333 0.950 . S
C345 C341 1.393 . S
C345 C344 1.391 . S
C346 H336 0.950 . S
C346 C347 1.386 . S
C346 C348 1.391 . S
C347 C346 1.386 . S
C347 C351 1.393 . S
C348 H337 0.950 . S
C348 C346 1.391 . S
C348 C349 1.400 . S
C349 C343 1.491 . S
C349 C348 1.400 . S
C349 C350 1.398 . S
C350 H338 0.950 . S
C350 C349 1.398 . S
C350 C351 1.391 . S
C351 H339 0.950 . S
C351 C347 1.393 . S
C351 C350 1.391 . S
H352 C360 0.950 . S
H353 C365 0.950 . S
H354 C362 0.950 . S
H355 C364 0.950 . S
H356 C366 0.950 . S
H357 C368 0.950 . S
H358 C370 0.950 . S
H359 C371 0.950 . S
C360 H352 0.950 . S
C360 C361 1.386 . S
C360 C362 1.391 . S
C361 C360 1.386 . S
C361 C365 1.393 . S
C362 H354 0.950 . S
C362 C360 1.391 . S
C362 C363 1.400 . S
C363 C362 1.400 . S
C363 C364 1.398 . S
C363 C369 1.491 . S
C364 H355 0.950 . S
C364 C363 1.398 . S
C364 C365 1.391 . S
C365 H353 0.950 . S
C365 C361 1.393 . S
C365 C364 1.391 . S
C366 H356 0.950 . S
C366 C367 1.386 . S
C366 C368 1.391 . S
C367 C366 1.386 . S
C367 C371 1.393 . S
C368 H357 0.950 . S
C368 C366 1.391 . S
C368 C369 1.400 . S
C369 C363 1.491 . S
C369 C368 1.400 . S
C369 C370 1.398 . S
C370 H358 0.950 . S
C370 C369 1.398 . S
C370 C371 1.391 . S
C371 H359 0.950 . S
C371 C367 1.393 . S
C371 C370 1.391 . S
H372 C380 0.950 . S
H373 C385 0.950 . S
H374 C382 0.950 . S
H375 C384 0.950 . S
H376 C386 0.950 . S
H377 C388 0.950 . S
H378 C390 0.950 . S
H379 C391 0.950 . S
C380 H372 0.950 . S
C380 C381 1.386 . S
C380 C382 1.391 . S
C381 C380 1.386 . S
C381 C385 1.393 . S
C382 H374 0.950 . S
C382 C380 1.391 . S
C382 C383 1.400 . S
C383 C382 1.400 . S
C383 C384 1.398 . S
C383 C389 1.491 . S
C384 H375 0.950 . S
C384 C383 1.398 . S
C384 C385 1.391 . S
C385 H373 0.950 . S
C385 C381 1.393 . S
C385 C384 1.391 . S
C386 H376 0.950 . S
C386 C387 1.386 . S
C386 C388 1.391 . S
C387 C386 1.386 . S
C387 C391 1.393 . S
C388 H377 0.950 . S
C388 C386 1.391 . S
C388 C389 1.400 . S
C389 C383 1.491 . S
C389 C388 1.400 . S
C389 C390 1.398 . S
C390 H378 0.950 . S
C390 C389 1.398 . S
C390 C391 1.391 . S
C391 H379 0.950 . S
C391 C387 1.393 . S
C391 C390 1.391 . S
H392 C400 0.950 . S
H393 C405 0.950 . S
H394 C402 0.950 . S
H395 C404 0.950 . S
H396 C406 0.950 . S
H397 C408 0.950 . S
H398 C410 0.950 . S
H399 C411 0.950 . S
C400 H392 0.950 . S
C400 C401 1.386 . S
C400 C402 1.391 . S
C401 C400 1.386 . S
C401 C405 1.393 . S
C402 H394 0.950 . S
C402 C400 1.391 . S
C402 C403 1.400 . S
C403 C402 1.400 . S
C403 C404 1.398 . S
C403 C409 1.491 . S
C404 H395 0.950 . S
C404 C403 1.398 . S
C404 C405 1.391 . S
C405 H393 0.950 . S
C405 C401 1.393 . S
C405 C404 1.391 . S
C406 H396 0.950 . S
C406 C407 1.386 . S
C406 C408 1.391 . S
C407 C406 1.386 . S
C407 C411 1.393 . S
C408 H397 0.950 . S
C408 C406 1.391 . S
C408 C409 1.400 . S
C409 C403 1.491 . S
C409 C408 1.400 . S
C409 C410 1.398 . S
C410 H398 0.950 . S
C410 C409 1.398 . S
C410 C411 1.391 . S
C411 H399 0.950 . S
C411 C407 1.393 . S
C411 C410 1.391 . S
H412 C420 0.950 . S
H413 C425 0.950 . S
H414 C422 0.950 . S
H415 C424 0.950 . S
H416 C426 0.950 . S
H417 C428 0.950 . S
H418 C430 0.950 . S
H419 C431 0.950 . S
C420 H412 0.950 . S
C420 C421 1.386 . S
C420 C422 1.391 . S
C421 C420 1.386 . S
C421 C425 1.393 . S
C422 H414 0.950 . S
C422 C420 1.391 . S
C422 C423 1.400 . S
C423 C422 1.400 . S
C423 C424 1.398 . S
C423 C429 1.491 . S
C424 H415 0.950 . S
C424 C423 1.398 . S
C424 C425 1.391 . S
C425 H413 0.950 . S
C425 C421 1.393 . S
C425 C424 1.391 . S
C426 H416 0.950 . S
C426 C427 1.386 . S
C426 C428 1.391 . S
C427 C426 1.386 . S
C427 C431 1.393 . S
C428 H417 0.950 . S
C428 C426 1.391 . S
C428 C429 1.400 . S
C429 C423 1.491 . S
C429 C428 1.400 . S
C429 C430 1.398 . S
C430 H418 0.950 . S
C430 C429 1.398 . S
C430 C431 1.391 . S
C431 H419 0.950 . S
C431 C427 1.393 . S
C431 C430 1.391 . S
H432 C440 0.950 . S
H433 C445 0.950 . S
H434 C442 0.950 . S
H435 C444 0.950 . S
H436 C446 0.950 . S
H437 C448 0.950 . S
H438 C450 0.950 . S
H439 C451 0.950 . S
C440 H432 0.950 . S
C440 C441 1.386 . S
C440 C442 1.391 . S
C441 C440 1.386 . S
C441 C445 1.393 . S
C442 H434 0.950 . S
C442 C440 1.391 . S
C442 C443 1.400 . S
C443 C442 1.400 . S
C443 C444 1.398 . S
C443 C449 1.491 . S
C444 H435 0.950 . S
C444 C443 1.398 . S
C444 C445 1.391 . S
C445 H433 0.950 . S
C445 C441 1.393 . S
C445 C444 1.391 . S
C446 H436 0.950 . S
C446 C447 1.386 . S
C446 C448 1.391 . S
C447 C446 1.386 . S
C447 C451 1.393 . S
C448 H437 0.950 . S
C448 C446 1.391 . S
C448 C449 1.400 . S
C449 C443 1.491 . S
C449 C448 1.400 . S
C449 C450 1.398 . S
C450 H438 0.950 . S
C450 C449 1.398 . S
C450 C451 1.391 . S
C451 H439 0.950 . S
C451 C447 1.393 . S
C451 C450 1.391 . S
H452 C460 0.950 . S
H453 C465 0.950 . S
H454 C462 0.950 . S
H455 C464 0.950 . S
H456 C466 0.950 . S
H457 C468 0.950 . S
H458 C470 0.950 . S
H459 C471 0.950 . S
C460 H452 0.950 . S
C460 C461 1.386 . S
C460 C462 1.391 . S
C461 C460 1.386 . S
C461 C465 1.393 . S
C462 H454 0.950 . S
C462 C460 1.391 . S
C462 C463 1.400 . S
C463 C462 1.400 . S
C463 C464 1.398 . S
C463 C469 1.491 . S
C464 H455 0.950 . S
C464 C463 1.398 . S
C464 C465 1.391 . S
C465 H453 0.950 . S
C465 C461 1.393 . S
C465 C464 1.391 . S
C466 H456 0.950 . S
C466 C467 1.386 . S
C466 C468 1.391 . S
C467 C466 1.386 . S
C467 C471 1.393 . S
C468 H457 0.950 . S
C468 C466 1.391 . S
C468 C469 1.400 . S
C469 C463 1.491 . S
C469 C468 1.400 . S
C469 C470 1.398 . S
C470 H458 0.950 . S
C470 C469 1.398 . S
C470 C471 1.391 . S
C471 H459 0.950 . S
C471 C467 1.393 . S
C471 C470 1.391 . S
H472 C480 0.950 . S
H473 C485 0.950 . S
H474 C482 0.950 . S
H475 C484 0.950 . S
H476 C486 0.950 . S
H477 C488 0.950 . S
H478 C490 0.950 . S
H479 C491 0.950 . S
C480 H472 0.950 . S
C480 C481 1.386 . S
C480 C482 1.391 . S
C481 C480 1.386 . S
C481 C485 1.393 . S
C482 H474 0.950 . S
C482 C480 1.391 . S
C482 C483 1.400 . S
C483 C482 1.400 . S
C483 C484 1.398 . S
C483 C489 1.491 . S
C484 H475 0.950 . S
C484 C483 1.398 . S
C484 C485 1.391 . S
C485 H473 0.950 . S
C485 C481 1.393 . S
C485 C484 1.391 . S
C486 H476 0.950 . S
C486 C487 1.386 . S
C486 C488 1.391 . S
C487 C486 1.386 . S
C487 C491 1.393 . S
C488 H477 0.950 . S
C488 C486 1.391 . S
C488 C489 1.400 . S
C489 C483 1.491 . S
C489 C488 1.400 . S
C489 C490 1.398 . S
C490 H478 0.950 . S
C490 C489 1.398 . S
C490 C491 1.391 . S
C491 H479 0.950 . S
C491 C487 1.393 . S
C491 C490 1.391 . S
H492 C500 0.950 . S
H493 C505 0.950 . S
H494 C502 0.950 . S
H495 C504 0.950 . S
H496 C506 0.950 . S
H497 C508 0.950 . S
H498 C510 0.950 . S
H499 C511 0.950 . S
C500 H492 0.950 . S
C500 C501 1.386 . S
C500 C502 1.391 . S
C501 C500 1.386 . S
C501 C505 1.393 . S
C502 H494 0.950 . S
C502 C500 1.391 . S
C502 C503 1.400 . S
C503 C502 1.400 . S
C503 C504 1.398 . S
C503 C509 1.491 . S
C504 H495 0.950 . S
C504 C503 1.398 . S
C504 C505 1.391 . S
C505 H493 0.950 . S
C505 C501 1.393 . S
C505 C504 1.391 . S
C506 H496 0.950 . S
C506 C507 1.386 . S
C506 C508 1.391 . S
C507 C506 1.386 . S
C507 C511 1.393 . S
C508 H497 0.950 . S
C508 C506 1.391 . S
C508 C509 1.400 . S
C509 C503 1.491 . S
C509 C508 1.400 . S
C509 C510 1.398 . S
C510 H498 0.950 . S
C510 C509 1.398 . S
C510 C511 1.391 . S
C511 H499 0.950 . S
C511 C507 1.393 . S
C511 C510 1.391 . S
H512 C520 0.950 . S
H513 C525 0.950 . S
H514 C522 0.950 . S
H515 C524 0.950 . S
H516 C526 0.950 . S
H517 C528 0.950 . S
H518 C530 0.950 . S
H519 C531 0.950 . S
C520 H512 0.950 . S
C520 C521 1.386 . S
C520 C522 1.391 . S
C521 C520 1.386 . S
C521 C525 1.393 . S
C522 H514 0.950 . S
C522 C520 1.391 . S
C522 C523 1.400 . S
C523 C522 1.400 . S
C523 C524 1.398 . S
C523 C529 1.491 . S
C524 H515 0.950 . S
C524 C523 1.398 . S
C524 C525 1.391 . S
C525 H513 0.950 . S
C525 C521 1.393 . S
C525 C524 1.391 . S
C526 H516 0.950 . S
C526 C527 1.386 . S
C526 C528 1.391 . S
C527 C526 1.386 . S
C527 C531 1.393 . S
C528 H517 0.950 . S
C528 C526 1.391 . S
C528 C529 1.400 . S
C529 C523 1.491 . S
C529 C528 1.400 . S
C529 C530 1.398 . S
C530 H518 0.950 . S
C530 C529 1.398 . S
C530 C531 1.391 . S
C531 H519 0.950 . S
C531 C527 1.393 . S
C531 C530 1.391 . S
H532 C540 0.950 . S
H533 C545 0.950 . S
H534 C542 0.950 . S
H535 C544 0.950 . S
H536 C546 0.950 . S
H537 C548 0.950 . S
H538 C550 0.950 . S
H539 C551 0.950 . S
C540 H532 0.950 . S
C540 C541 1.386 . S
C540 C542 1.391 . S
C541 C540 1.386 . S
C541 C545 1.393 . S
C542 H534 0.950 . S
C542 C540 1.391 . S
C542 C543 1.400 . S
C543 C542 1.400 . S
C543 C544 1.398 . S
C543 C549 1.491 . S
C544 H535 0.950 . S
C544 C543 1.398 . S
C544 C545 1.391 . S
C545 H533 0.950 . S
C545 C541 1.393 . S
C545 C544 1.391 . S
C546 H536 0.950 . S
C546 C547 1.386 . S
C546 C548 1.391 . S
C547 C546 1.386 . S
C547 C551 1.393 . S
C548 H537 0.950 . S
C548 C546 1.391 . S
C548 C549 1.400 . S
C549 C543 1.491 . S
C549 C548 1.400 . S
C549 C550 1.398 . S
C550 H538 0.950 . S
C550 C549 1.398 . S
C550 C551 1.391 . S
C551 H539 0.950 . S
C551 C547 1.393 . S
C551 C550 1.391 . S
H552 C560 0.950 . S
H553 C565 0.950 . S
H554 C562 0.950 . S
H555 C564 0.950 . S
H556 C566 0.950 . S
H557 C568 0.950 . S
H558 C570 0.950 . S
H559 C571 0.950 . S
C560 H552 0.950 . S
C560 C561 1.386 . S
C560 C562 1.391 . S
C561 C560 1.386 . S
C561 C565 1.393 . S
C562 H554 0.950 . S
C562 C560 1.391 . S
C562 C563 1.400 . S
C563 C562 1.400 . S
C563 C564 1.398 . S
C563 C569 1.491 . S
C564 H555 0.950 . S
C564 C563 1.398 . S
C564 C565 1.391 . S
C565 H553 0.950 . S
C565 C561 1.393 . S
C565 C564 1.391 . S
C566 H556 0.950 . S
C566 C567 1.386 . S
C566 C568 1.391 . S
C567 C566 1.386 . S
C567 C571 1.393 . S
C568 H557 0.950 . S
C568 C566 1.391 . S
C568 C569 1.400 . S
C569 C563 1.491 . S
C569 C568 1.400 . S
C569 C570 1.398 . S
C570 H558 0.950 . S
C570 C569 1.398 . S
C570 C571 1.391 . S
C571 H559 0.950 . S
C571 C567 1.393 . S
C571 C570 1.391 . S
H572 C580 0.950 . S
H573 C585 0.950 . S
H574 C582 0.950 . S
H575 C584 0.950 . S
H576 C586 0.950 . S
H577 C588 0.950 . S
H578 C590 0.950 . S
H579 C591 0.950 . S
C580 H572 0.950 . S
C580 C581 1.386 . S
C580 C582 1.391 . S
C581 C580 1.386 . S
C581 C585 1.393 . S
C582 H574 0.950 . S
C582 C580 1.391 . S
C582 C583 1.400 . S
C583 C582 1.400 . S
C583 C584 1.398 . S
C583 C589 1.491 . S
C584 H575 0.950 . S
C584 C583 1.398 . S
C584 C585 1.391 . S
C585 H573 0.950 . S
C585 C581 1.393 . S
C585 C584 1.391 . S
C586 H576 0.950 . S
C586 C587 1.386 . S
C586 C588 1.391 . S
C587 C586 1.386 . S
C587 C591 1.393 . S
C588 H577 0.950 . S
C588 C586 1.391 . S
C588 C589 1.400 . S
C589 C583 1.491 . S
C589 C588 1.400 . S
C589 C590 1.398 . S
C590 H578 0.950 . S
C590 C589 1.398 . S
C590 C591 1.391 . S
C591 H579 0.950 . S
C591 C587 1.393 . S
C591 C590 1.391 . S
H592 C600 0.950 . S
H593 C605 0.950 . S
H594 C602 0.950 . S
H595 C604 0.950 . S
H596 C606 0.950 . S
H597 C608 0.950 . S
H598 C610 0.950 . S
H599 C611 0.950 . S
C600 H592 0.950 . S
C600 C601 1.386 . S
C600 C602 1.391 . S
C601 C600 1.386 . S
C601 C605 1.393 . S
C602 H594 0.950 . S
C602 C600 1.391 . S
C602 C603 1.400 . S
C603 C602 1.400 . S
C603 C604 1.398 . S
C603 C609 1.491 . S
C604 H595 0.950 . S
C604 C603 1.398 . S
C604 C605 1.391 . S
C605 H593 0.950 . S
C605 C601 1.393 . S
C605 C604 1.391 . S
C606 H596 0.950 . S
C606 C607 1.386 . S
C606 C608 1.391 . S
C607 C606 1.386 . S
C607 C611 1.393 . S
C608 H597 0.950 . S
C608 C606 1.391 . S
C608 C609 1.400 . S
C609 C603 1.491 . S
C609 C608 1.400 . S
C609 C610 1.398 . S
C610 H598 0.950 . S
C610 C609 1.398 . S
C610 C611 1.391 . S
C611 H599 0.950 . S
C611 C607 1.393 . S
C611 C610 1.391 . S
H612 C620 0.950 . S
H613 C625 0.950 . S
H614 C622 0.950 . S
H615 C624 0.950 . S
H616 C626 0.950 . S
H617 C628 0.950 . S
H618 C630 0.950 . S
H619 C631 0.950 . S
C620 H612 0.950 . S
C620 C621 1.386 . S
C620 C622 1.391 . S
C621 C620 1.386 . S
C621 C625 1.393 . S
C622 H614 0.950 . S
C622 C620 1.391 . S
C622 C623 1.400 . S
C623 C622 1.400 . S
C623 C624 1.398 . S
C623 C629 1.491 . S
C624 H615 0.950 . S
C624 C623 1.398 . S
C624 C625 1.391 . S
C625 H613 0.950 . S
C625 C621 1.393 . S
C625 C624 1.391 . S
C626 H616 0.950 . S
C626 C627 1.386 . S
C626 C628 1.391 . S
C627 C626 1.386 . S
C627 C631 1.393 . S
C628 H617 0.950 . S
C628 C626 1.391 . S
C628 C629 1.400 . S
C629 C623 1.491 . S
C629 C628 1.400 . S
C629 C630 1.398 . S
C630 H618 0.950 . S
C630 C629 1.398 . S
C630 C631 1.391 . S
C631 H619 0.950 . S
C631 C627 1.393 . S
C631 C630 1.391 . S
H632 C640 0.950 . S
H633 C645 0.950 . S
H634 C642 0.950 . S
H635 C644 0.950 . S
H636 C646 0.950 . S
H637 C648 0.950 . S
H638 C650 0.950 . S
H639 C651 0.950 . S
C640 H632 0.950 . S
C640 C641 1.386 . S
C640 C642 1.391 . S
C641 C640 1.386 . S
C641 C645 1.393 . S
C642 H634 0.950 . S
C642 C640 1.391 . S
C642 C643 1.400 . S
C643 C642 1.400 . S
C643 C644 1.398 . S
C643 C649 1.491 . S
C644 H635 0.950 . S
C644 C643 1.398 . S
C644 C645 1.391 . S
C645 H633 0.950 . S
C645 C641 1.393 . S
C645 C644 1.391 . S
C646 H636 0.950 . S
C646 C647 1.386 . S
C646 C648 1.391 . S
C647 C646 1.386 . S
C647 C651 1.393 . S
C648 H637 0.950 . S
C648 C646 1.391 . S
C648 C649 1.400 . S
C649 C643 1.491 . S
C649 C648 1.400 . S
C649 C650 1.398 . S
C650 H638 0.950 . S
C650 C649 1.398 . S
C650 C651 1.391 . S
C651 H639 0.950 . S
C651 C647 1.393 . S
C651 C650 1.391 . S
H652 C660 0.950 . S
H653 C665 0.950 . S
H654 C662 0.950 . S
H655 C664 0.950 . S
H656 C666 0.950 . S
H657 C668 0.950 . S
H658 C670 0.950 . S
H659 C671 0.950 . S
C660 H652 0.950 . S
C660 C661 1.386 . S
C660 C662 1.391 . S
C661 C660 1.386 . S
C661 C665 1.393 . S
C662 H654 0.950 . S
C662 C660 1.391 . S
C662 C663 1.400 . S
C663 C662 1.400 . S
C663 C664 1.398 . S
C663 C669 1.491 . S
C664 H655 0.950 . S
C664 C663 1.398 . S
C664 C665 1.391 . S
C665 H653 0.950 . S
C665 C661 1.393 . S
C665 C664 1.391 . S
C666 H656 0.950 . S
C666 C667 1.386 . S
C666 C668 1.391 . S
C667 C666 1.386 . S
C667 C671 1.393 . S
C668 H657 0.950 . S
C668 C666 1.391 . S
C668 C669 1.400 . S
C669 C663 1.491 . S
C669 C668 1.400 . S
C669 C670 1.398 . S
C670 H658 0.950 . S
C670 C669 1.398 . S
C670 C671 1.391 . S
C671 H659 0.950 . S
C671 C667 1.393 . S
C671 C670 1.391 . S
H672 C680 0.950 . S
H673 C685 0.950 . S
H674 C682 0.950 . S
H675 C684 0.950 . S
H676 C686 0.950 . S
H677 C688 0.950 . S
H678 C690 0.950 . S
H679 C691 0.950 . S
C680 H672 0.950 . S
C680 C681 1.386 . S
C680 C682 1.391 . S
C681 C680 1.386 . S
C681 C685 1.393 . S
C682 H674 0.950 . S
C682 C680 1.391 . S
C682 C683 1.400 . S
C683 C682 1.400 . S
C683 C684 1.398 . S
C683 C689 1.491 . S
C684 H675 0.950 . S
C684 C683 1.398 . S
C684 C685 1.391 . S
C685 H673 0.950 . S
C685 C681 1.393 . S
C685 C684 1.391 . S
C686 H676 0.950 . S
C686 C687 1.386 . S
C686 C688 1.391 . S
C687 C686 1.386 . S
C687 C691 1.393 . S
C688 H677 0.950 . S
C688 C686 1.391 . S
C688 C689 1.400 . S
C689 C683 1.491 . S
C689 C688 1.400 . S
C689 C690 1.398 . S
C690 H678 0.950 . S
C690 C689 1.398 . S
C690 C691 1.391 . S
C691 H679 0.950 . S
C691 C687 1.393 . S
C691 C690 1.391 . S
H692 C700 0.950 . S
H693 C705 0.950 . S
H694 C702 0.950 . S
H695 C704 0.950 . S
H696 C706 0.950 . S
H697 C708 0.950 . S
H698 C710 0.950 . S
H699 C711 0.950 . S
C700 H692 0.950 . S
C700 C701 1.386 . S
C700 C702 1.391 . S
C701 C700 1.386 . S
C701 C705 1.393 . S
C702 H694 0.950 . S
C702 C700 1.391 . S
C702 C703 1.400 . S
C703 C702 1.400 . S
C703 C704 1.398 . S
C703 C709 1.491 . S
C704 H695 0.950 . S
C704 C703 1.398 . S
C704 C705 1.391 . S
C705 H693 0.950 . S
C705 C701 1.393 . S
C705 C704 1.391 . S
C706 H696 0.950 . S
C706 C707 1.386 . S
C706 C708 1.391 . S
C707 C706 1.386 . S
C707 C711 1.393 . S
C708 H697 0.950 . S
C708 C706 1.391 . S
C708 C709 1.400 . S
C709 C703 1.491 . S
C709 C708 1.400 . S
C709 C710 1.398 . S
C710 H698 0.950 . S
C710 C709 1.398 . S
C710 C711 1.391 . S
C711 H699 0.950 . S
C711 C707 1.393 . S
C711 C710 1.391 . S
H712 C720 0.950 . S
H713 C725 0.950 . S
H714 C722 0.950 . S
H715 C724 0.950 . S
H716 C726 0.950 . S
H717 C728 0.950 . S
H718 C730 0.950 . S
H719 C731 0.950 . S
C720 H712 0.950 . S
C720 C721 1.386 . S
C720 C722 1.391 . S
C721 C720 1.386 . S
C721 C725 1.393 . S
C722 H714 0.950 . S
C722 C720 1.391 . S
C722 C723 1.400 . S
C723 C722 1.400 . S
C723 C724 1.398 . S
C723 C729 1.491 . S
C724 H715 0.950 . S
C724 C723 1.398 . S
C724 C725 1.391 . S
C725 H713 0.950 . S
C725 C721 1.393 . S
C725 C724 1.391 . S
C726 H716 0.950 . S
C726 C727 1.386 . S
C726 C728 1.391 . S
C727 C726 1.386 . S
C727 C731 1.393 . S
C728 H717 0.950 . S
C728 C726 1.391 . S
C728 C729 1.400 . S
C729 C723 1.491 . S
C729 C728 1.400 . S
C729 C730 1.398 . S
C730 H718 0.950 . S
C730 C729 1.398 . S
C730 C731 1.391 . S
C731 H719 0.950 . S
C731 C727 1.393 . S
C731 C730 1.391 . S
H732 C740 0.950 . S
H733 C745 0.950 . S
H734 C742 0.950 . S
H735 C744 0.950 . S
H736 C746 0.950 . S
H737 C748 0.950 . S
H738 C750 0.950 . S
H739 C751 0.950 . S
C740 H732 0.950 . S
C740 C741 1.386 . S
C740 C742 1.391 . S
C741 C740 1.386 . S
C741 C745 1.393 . S
C742 H734 0.950 . S
C742 C740 1.391 . S
C742 C743 1.400 . S
C743 C742 1.400 . S
C743 C744 1.398 . S
C743 C749 1.491 . S
C744 H735 0.950 . S
C744 C743 1.398 . S
C744 C745 1.391 . S
C745 H733 0.950 . S
C745 C741 1.393 . S
C745 C744 1.391 . S
C746 H736 0.950 . S
C746 C747 1.386 . S
C746 C748 1.391 . S
C747 C746 1.386 . S
C747 C751 1.393 . S
C748 H737 0.950 . S
C748 C746 1.391 . S
C748 C749 1.400 . S
C749 C743 1.491 . S
C749 C748 1.400 . S
C749 C750 1.398 . S
C750 H738 0.950 . S
C750 C749 1.398 . S
C750 C751 1.391 . S
C751 H739 0.950 . S
C751 C747 1.393 . S
C751 C750 1.391 . S
H752 C760 0.950 . S
H753 C765 0.950 . S
H754 C762 0.950 . S
H755 C764 0.950 . S
H756 C766 0.950 . S
H757 C768 0.950 . S
H758 C770 0.950 . S
H759 C771 0.950 . S
C760 H752 0.950 . S
C760 C761 1.386 . S
C760 C762 1.391 . S
C761 C760 1.386 . S
C761 C765 1.393 . S
C762 H754 0.950 . S
C762 C760 1.391 . S
C762 C763 1.400 . S
C763 C762 1.400 . S
C763 C764 1.398 . S
C763 C769 1.491 . S
C764 H755 0.950 . S
C764 C763 1.398 . S
C764 C765 1.391 . S
C765 H753 0.950 . S
C765 C761 1.393 . S
C765 C764 1.391 . S
C766 H756 0.950 . S
C766 C767 1.386 . S
C766 C768 1.391 . S
C767 C766 1.386 . S
C767 C771 1.393 . S
C768 H757 0.950 . S
C768 C766 1.391 . S
C768 C769 1.400 . S
C769 C763 1.491 . S
C769 C768 1.400 . S
C769 C770 1.398 . S
C770 H758 0.950 . S
C770 C769 1.398 . S
C770 C771 1.391 . S
C771 H759 0.950 . S
C771 C767 1.393 . S
C771 C770 1.391 . S
H772 C780 0.950 . S
H773 C785 0.950 . S
H774 C782 0.950 . S
H775 C784 0.950 . S
H776 C786 0.950 . S
H777 C788 0.950 . S
H778 C790 0.950 . S
H779 C791 0.950 . S
C780 H772 0.950 . S
C780 C781 1.386 . S
C780 C782 1.391 . S
C781 C780 1.386 . S
C781 C785 1.393 . S
C782 H774 0.950 . S
C782 C780 1.391 . S
C782 C783 1.400 . S
C783 C782 1.400 . S
C783 C784 1.398 . S
C783 C789 1.491 . S
C784 H775 0.950 . S
C784 C783 1.398 . S
C784 C785 1.391 . S
C785 H773 0.950 . S
C785 C781 1.393 . S
C785 C784 1.391 . S
C786 H776 0.950 . S
C786 C787 1.386 . S
C786 C788 1.391 . S
C787 C786 1.386 . S
C787 C791 1.393 . S
C788 H777 0.950 . S
C788 C786 1.391 . S
C788 C789 1.400 . S
C789 C783 1.491 . S
C789 C788 1.400 . S
C789 C790 1.398 . S
C790 H778 0.950 . S
C790 C789 1.398 . S
C790 C791 1.391 . S
C791 H779 0.950 . S
C791 C787 1.393 . S
C791 C790 1.391 . S
H792 C800 0.950 . S
H793 C805 0.950 . S
H794 C802 0.950 . S
H795 C804 0.950 . S
H796 C806 0.950 . S
H797 C808 0.950 . S
H798 C810 0.950 . S
H799 C811 0.950 . S
C800 H792 0.950 . S
C800 C801 1.386 . S
C800 C802 1.391 . S
C801 C800 1.386 . S
C801 C805 1.393 . S
C802 H794 0.950 . S
C802 C800 1.391 . S
C802 C803 1.400 . S
C803 C802 1.400 . S
C803 C804 1.398 . S
C803 C809 1.491 . S
C804 H795 0.950 . S
C804 C803 1.398 . S
C804 C805 1.391 . S
C805 H793 0.950 . S
C805 C801 1.393 . S
C805 C804 1.391 . S
C806 H796 0.950 . S
C806 C807 1.386 . S
C806 C808 1.391 . S
C807 C806 1.386 . S
C807 C811 1.393 . S
C808 H797 0.950 . S
C808 C806 1.391 . S
C808 C809 1.400 . S
C809 C803 1.491 . S
C809 C808 1.400 . S
C809 C810 1.398 . S
C810 H798 0.950 . S
C810 C809 1.398 . S
C810 C811 1.391 . S
C811 H799 0.950 . S
C811 C807 1.393 . S
C811 C810 1.391 . S
H812 C820 0.950 . S
H813 C825 0.950 . S
H814 C822 0.950 . S
H815 C824 0.950 . S
H816 C826 0.950 . S
H817 C828 0.950 . S
H818 C830 0.950 . S
H819 C831 0.950 . S
C820 H812 0.950 . S
C820 C821 1.386 . S
C820 C822 1.391 1_554 S
C821 C820 1.386 . S
C821 C825 1.393 . S
C822 H814 0.950 . S
C822 C820 1.391 1_556 S
C822 C823 1.400 . S
C823 C822 1.400 . S
C823 C824 1.398 . S
C823 C829 1.491 . S
C824 H815 0.950 . S
C824 C823 1.398 . S
C824 C825 1.391 1_556 S
C825 H813 0.950 . S
C825 C821 1.393 . S
C825 C824 1.391 1_554 S
C826 H816 0.950 . S
C826 C827 1.386 . S
C826 C828 1.391 . S
C827 C826 1.386 . S
C827 C831 1.393 . S
C828 H817 0.950 . S
C828 C826 1.391 . S
C828 C829 1.400 . S
C829 C823 1.491 . S
C829 C828 1.400 . S
C829 C830 1.398 . S
C830 H818 0.950 . S
C830 C829 1.398 . S
C830 C831 1.391 . S
C831 H819 0.950 . S
C831 C827 1.393 . S
C831 C830 1.391 . S
H832 C840 0.950 . S
H833 C845 0.950 . S
H834 C842 0.950 . S
H835 C844 0.950 . S
H836 C846 0.950 . S
H837 C848 0.950 . S
H838 C850 0.950 . S
H839 C851 0.950 . S
C840 H832 0.950 . S
C840 C841 1.386 . S
C840 C842 1.391 . S
C841 C840 1.386 . S
C841 C845 1.393 . S
C842 H834 0.950 . S
C842 C840 1.391 . S
C842 C843 1.400 . S
C843 C842 1.400 . S
C843 C844 1.398 . S
C843 C849 1.491 . S
C844 H835 0.950 . S
C844 C843 1.398 . S
C844 C845 1.391 . S
C845 H833 0.950 . S
C845 C841 1.393 . S
C845 C844 1.391 . S
C846 H836 0.950 . S
C846 C847 1.386 . S
C846 C848 1.391 . S
C847 C846 1.386 . S
C847 C851 1.393 . S
C848 H837 0.950 . S
C848 C846 1.391 . S
C848 C849 1.400 . S
C849 C843 1.491 . S
C849 C848 1.400 . S
C849 C850 1.398 . S
C850 H838 0.950 . S
C850 C849 1.398 . S
C850 C851 1.391 . S
C851 H839 0.950 . S
C851 C847 1.393 . S
C851 C850 1.391 . S
H852 C860 0.950 . S
H853 C865 0.950 . S
H854 C862 0.950 . S
H855 C864 0.950 . S
H856 C866 0.950 . S
H857 C868 0.950 . S
H858 C870 0.950 . S
H859 C871 0.950 . S
C860 H852 0.950 . S
C860 C861 1.386 . S
C860 C862 1.391 . S
C861 C860 1.386 . S
C861 C865 1.393 . S
C862 H854 0.950 . S
C862 C860 1.391 . S
C862 C863 1.400 . S
C863 C862 1.400 . S
C863 C864 1.398 . S
C863 C869 1.491 . S
C864 H855 0.950 . S
C864 C863 1.398 . S
C864 C865 1.391 . S
C865 H853 0.950 . S
C865 C861 1.393 . S
C865 C864 1.391 . S
C866 H856 0.950 . S
C866 C867 1.386 . S
C866 C868 1.391 1_556 S
C867 C866 1.386 . S
C867 C871 1.393 . S
C868 H857 0.950 . S
C868 C866 1.391 1_554 S
C868 C869 1.400 . S
C869 C863 1.491 . S
C869 C868 1.400 . S
C869 C870 1.398 . S
C870 H858 0.950 . S
C870 C869 1.398 . S
C870 C871 1.391 1_554 S
C871 H859 0.950 . S
C871 C867 1.393 . S
C871 C870 1.391 1_556 S
H872 C880 0.950 . S
H873 C885 0.950 . S
H874 C882 0.950 . S
H875 C884 0.950 . S
H876 C886 0.950 . S
H877 C888 0.950 . S
H878 C890 0.950 . S
H879 C891 0.950 . S
C880 H872 0.950 . S
C880 C881 1.386 . S
C880 C882 1.391 . S
C881 C880 1.386 . S
C881 C885 1.393 . S
C882 H874 0.950 . S
C882 C880 1.391 . S
C882 C883 1.400 . S
C883 C882 1.400 . S
C883 C884 1.398 . S
C883 C889 1.491 . S
C884 H875 0.950 . S
C884 C883 1.398 . S
C884 C885 1.391 . S
C885 H873 0.950 . S
C885 C881 1.393 . S
C885 C884 1.391 . S
C886 H876 0.950 . S
C886 C887 1.386 . S
C886 C888 1.391 . S
C887 C886 1.386 . S
C887 C891 1.393 . S
C888 H877 0.950 . S
C888 C886 1.391 . S
C888 C889 1.400 . S
C889 C883 1.491 . S
C889 C888 1.400 . S
C889 C890 1.398 . S
C890 H878 0.950 . S
C890 C889 1.398 . S
C890 C891 1.391 . S
C891 H879 0.950 . S
C891 C887 1.393 . S
C891 C890 1.391 . S
H892 C900 0.950 . S
H893 C905 0.950 . S
H894 C902 0.950 . S
H895 C904 0.950 . S
H896 C906 0.950 . S
H897 C908 0.950 . S
H898 C910 0.950 . S
H899 C911 0.950 . S
C900 H892 0.950 . S
C900 C901 1.386 . S
C900 C902 1.391 1_655 S
C901 C900 1.386 . S
C901 C905 1.393 . S
C902 H894 0.950 . S
C902 C900 1.391 1_455 S
C902 C903 1.400 . S
C903 C902 1.400 . S
C903 C904 1.398 . S
C903 C909 1.491 . S
C904 H895 0.950 . S
C904 C903 1.398 . S
C904 C905 1.391 1_455 S
C905 H893 0.950 . S
C905 C901 1.393 . S
C905 C904 1.391 1_655 S
C906 H896 0.950 . S
C906 C907 1.386 . S
C906 C908 1.391 . S
C907 C906 1.386 . S
C907 C911 1.393 . S
C908 H897 0.950 . S
C908 C906 1.391 . S
C908 C909 1.400 . S
C909 C903 1.491 . S
C909 C908 1.400 . S
C909 C910 1.398 . S
C910 H898 0.950 . S
C910 C909 1.398 . S
C910 C911 1.391 . S
C911 H899 0.950 . S
C911 C907 1.393 . S
C911 C910 1.391 . S
H912 C920 0.950 . S
H913 C925 0.950 . S
H914 C922 0.950 . S
H915 C924 0.950 . S
H916 C926 0.950 . S
H917 C928 0.950 . S
H918 C930 0.950 . S
H919 C931 0.950 . S
C920 H912 0.950 . S
C920 C921 1.386 . S
C920 C922 1.391 1_455 S
C921 C920 1.386 . S
C921 C925 1.393 . S
C922 H914 0.950 . S
C922 C920 1.391 1_655 S
C922 C923 1.400 . S
C923 C922 1.400 . S
C923 C924 1.398 . S
C923 C929 1.491 . S
C924 H915 0.950 . S
C924 C923 1.398 . S
C924 C925 1.391 1_655 S
C925 H913 0.950 . S
C925 C921 1.393 . S
C925 C924 1.391 1_455 S
C926 H916 0.950 . S
C926 C927 1.386 . S
C926 C928 1.391 . S
C927 C926 1.386 . S
C927 C931 1.393 . S
C928 H917 0.950 . S
C928 C926 1.391 . S
C928 C929 1.400 . S
C929 C923 1.491 . S
C929 C928 1.400 . S
C929 C930 1.398 . S
C930 H918 0.950 . S
C930 C929 1.398 . S
C930 C931 1.391 . S
C931 H919 0.950 . S
C931 C927 1.393 . S
C931 C930 1.391 . S
H932 C940 0.950 . S
H933 C945 0.950 . S
H934 C942 0.950 . S
H935 C944 0.950 . S
H936 C946 0.950 . S
H937 C948 0.950 . S
H938 C950 0.950 . S
H939 C951 0.950 . S
C940 H932 0.950 . S
C940 C941 1.386 . S
C940 C942 1.391 . S
C941 C940 1.386 . S
C941 C945 1.393 . S
C942 H934 0.950 . S
C942 C940 1.391 . S
C942 C943 1.400 . S
C943 C942 1.400 . S
C943 C944 1.398 . S
C943 C949 1.491 . S
C944 H935 0.950 . S
C944 C943 1.398 . S
C944 C945 1.391 . S
C945 H933 0.950 . S
C945 C941 1.393 . S
C945 C944 1.391 . S
C946 H936 0.950 . S
C946 C947 1.386 . S
C946 C948 1.391 . S
C947 C946 1.386 . S
C947 C951 1.393 . S
C948 H937 0.950 . S
C948 C946 1.391 . S
C948 C949 1.400 . S
C949 C943 1.491 . S
C949 C948 1.400 . S
C949 C950 1.398 . S
C950 H938 0.950 . S
C950 C949 1.398 . S
C950 C951 1.391 . S
C951 H939 0.950 . S
C951 C947 1.393 . S
C951 C950 1.391 . S
H952 C960 0.950 . S
H953 C965 0.950 . S
H954 C962 0.950 . S
H955 C964 0.950 . S
H956 C966 0.950 . S
H957 C968 0.950 . S
H958 C970 0.950 . S
H959 C971 0.950 . S
C960 H952 0.950 . S
C960 C961 1.386 . S
C960 C962 1.391 . S
C961 C960 1.386 . S
C961 C965 1.393 . S
C962 H954 0.950 . S
C962 C960 1.391 . S
C962 C963 1.400 . S
C963 C962 1.400 . S
C963 C964 1.398 . S
C963 C969 1.491 . S
C964 H955 0.950 . S
C964 C963 1.398 . S
C964 C965 1.391 . S
C965 H953 0.950 . S
C965 C961 1.393 . S
C965 C964 1.391 . S
C966 H956 0.950 . S
C966 C967 1.386 . S
C966 C968 1.391 . S
C967 C966 1.386 . S
C967 C971 1.393 . S
C968 H957 0.950 . S
C968 C966 1.391 . S
C968 C969 1.400 . S
C969 C963 1.491 . S
C969 C968 1.400 . S
C969 C970 1.398 . S
C970 H958 0.950 . S
C970 C969 1.398 . S
C970 C971 1.391 . S
C971 H959 0.950 . S
C971 C967 1.393 . S
C971 C970 1.391 . S
H972 C980 0.950 . S
H973 C985 0.950 . S
H974 C982 0.950 . S
H975 C984 0.950 . S
H976 C986 0.950 . S
H977 C988 0.950 . S
H978 C990 0.950 . S
H979 C991 0.950 . S
C980 H972 0.950 . S
C980 C981 1.386 . S
C980 C982 1.391 1_565 S
C981 C980 1.386 . S
C981 C985 1.393 . S
C982 H974 0.950 . S
C982 C980 1.391 1_545 S
C982 C983 1.400 . S
C983 C982 1.400 . S
C983 C984 1.398 . S
C983 C989 1.491 . S
C984 H975 0.950 . S
C984 C983 1.398 . S
C984 C985 1.391 1_545 S
C985 H973 0.950 . S
C985 C981 1.393 . S
C985 C984 1.391 1_565 S
C986 H976 0.950 . S
C986 C987 1.386 . S
C986 C988 1.391 . S
C987 C986 1.386 . S
C987 C991 1.393 . S
C988 H977 0.950 . S
C988 C986 1.391 . S
C988 C989 1.400 . S
C989 C983 1.491 . S
C989 C988 1.400 . S
C989 C990 1.398 . S
C990 H978 0.950 . S
C990 C989 1.398 . S
C990 C991 1.391 . S
C991 H979 0.950 . S
C991 C987 1.393 . S
C991 C990 1.391 . S
H992 C1000 0.950 . S
H993 C1005 0.950 . S
H994 C1002 0.950 . S
H995 C1004 0.950 . S
H996 C1006 0.950 . S
H997 C1008 0.950 . S
H998 C1010 0.950 . S
H999 C1011 0.950 . S
C1000 H992 0.950 . S
C1000 C1001 1.386 . S
C1000 C1002 1.391 1_545 S
C1001 C1000 1.386 . S
C1001 C1005 1.393 . S
C1002 H994 0.950 . S
C1002 C1000 1.391 1_565 S
C1002 C1003 1.400 . S
C1003 C1002 1.400 . S
C1003 C1004 1.398 . S
C1003 C1009 1.491 . S
C1004 H995 0.950 . S
C1004 C1003 1.398 . S
C1004 C1005 1.391 1_565 S
C1005 H993 0.950 . S
C1005 C1001 1.393 . S
C1005 C1004 1.391 1_545 S
C1006 H996 0.950 . S
C1006 C1007 1.386 . S
C1006 C1008 1.391 . S
C1007 C1006 1.386 . S
C1007 C1011 1.393 . S
C1008 H997 0.950 . S
C1008 C1006 1.391 . S
C1008 C1009 1.400 . S
C1009 C1003 1.491 . S
C1009 C1008 1.400 . S
C1009 C1010 1.398 . S
C1010 H998 0.950 . S
C1010 C1009 1.398 . S
C1010 C1011 1.391 . S
C1011 H999 0.950 . S
C1011 C1007 1.393 . S
C1011 C1010 1.391 . S
H1012 C1020 0.950 . S
H1013 C1025 0.950 . S
H1014 C1022 0.950 . S
H1015 C1024 0.950 . S
H1016 C1026 0.950 . S
H1017 C1028 0.950 . S
H1018 C1030 0.950 . S
H1019 C1031 0.950 . S
C1020 H1012 0.950 . S
C1020 C1021 1.386 . S
C1020 C1022 1.391 . S
C1021 C1020 1.386 . S
C1021 C1025 1.393 . S
C1022 H1014 0.950 . S
C1022 C1020 1.391 . S
C1022 C1023 1.400 . S
C1023 C1022 1.400 . S
C1023 C1024 1.398 . S
C1023 C1029 1.491 . S
C1024 H1015 0.950 . S
C1024 C1023 1.398 . S
C1024 C1025 1.391 . S
C1025 H1013 0.950 . S
C1025 C1021 1.393 . S
C1025 C1024 1.391 . S
C1026 H1016 0.950 . S
C1026 C1027 1.386 . S
C1026 C1028 1.391 . S
C1027 C1026 1.386 . S
C1027 C1031 1.393 . S
C1028 H1017 0.950 . S
C1028 C1026 1.391 . S
C1028 C1029 1.400 . S
C1029 C1023 1.491 . S
C1029 C1028 1.400 . S
C1029 C1030 1.398 . S
C1030 H1018 0.950 . S
C1030 C1029 1.398 . S
C1030 C1031 1.391 . S
C1031 H1019 0.950 . S
C1031 C1027 1.393 . S
C1031 C1030 1.391 . S
H1032 C1040 0.950 . S
H1033 C1045 0.950 . S
H1034 C1042 0.950 . S
H1035 C1044 0.950 . S
H1036 C1046 0.950 . S
H1037 C1048 0.950 . S
H1038 C1050 0.950 . S
H1039 C1051 0.950 . S
C1040 H1032 0.950 . S
C1040 C1041 1.386 . S
C1040 C1042 1.391 . S
C1041 C1040 1.386 . S
C1041 C1045 1.393 . S
C1042 H1034 0.950 . S
C1042 C1040 1.391 . S
C1042 C1043 1.400 . S
C1043 C1042 1.400 . S
C1043 C1044 1.398 . S
C1043 C1049 1.491 . S
C1044 H1035 0.950 . S
C1044 C1043 1.398 . S
C1044 C1045 1.391 . S
C1045 H1033 0.950 . S
C1045 C1041 1.393 . S
C1045 C1044 1.391 . S
C1046 H1036 0.950 . S
C1046 C1047 1.386 . S
C1046 C1048 1.391 . S
C1047 C1046 1.386 . S
C1047 C1051 1.393 . S
C1048 H1037 0.950 . S
C1048 C1046 1.391 . S
C1048 C1049 1.400 . S
C1049 C1043 1.491 . S
C1049 C1048 1.400 . S
C1049 C1050 1.398 . S
C1050 H1038 0.950 . S
C1050 C1049 1.398 . S
C1050 C1051 1.391 . S
C1051 H1039 0.950 . S
C1051 C1047 1.393 . S
C1051 C1050 1.391 . S
H1052 C1060 0.950 . S
H1053 C1065 0.950 . S
H1054 C1062 0.950 . S
H1055 C1064 0.950 . S
H1056 C1066 0.950 . S
H1057 C1068 0.950 . S
H1058 C1070 0.950 . S
H1059 C1071 0.950 . S
C1060 H1052 0.950 . S
C1060 C1061 1.386 . S
C1060 C1062 1.391 1_556 S
C1061 C1060 1.386 . S
C1061 C1065 1.393 . S
C1062 H1054 0.950 . S
C1062 C1060 1.391 1_554 S
C1062 C1063 1.400 . S
C1063 C1062 1.400 . S
C1063 C1064 1.398 . S
C1063 C1069 1.491 . S
C1064 H1055 0.950 . S
C1064 C1063 1.398 . S
C1064 C1065 1.391 1_554 S
C1065 H1053 0.950 . S
C1065 C1061 1.393 . S
C1065 C1064 1.391 1_556 S
C1066 H1056 0.950 . S
C1066 C1067 1.386 . S
C1066 C1068 1.391 . S
C1067 C1066 1.386 . S
C1067 C1071 1.393 . S
C1068 H1057 0.950 . S
C1068 C1066 1.391 . S
C1068 C1069 1.400 . S
C1069 C1063 1.491 . S
C1069 C1068 1.400 . S
C1069 C1070 1.398 . S
C1070 H1058 0.950 . S
C1070 C1069 1.398 . S
C1070 C1071 1.391 . S
C1071 H1059 0.950 . S
C1071 C1067 1.393 . S
C1071 C1070 1.391 . S
H1072 C1080 0.950 . S
H1073 C1085 0.950 . S
H1074 C1082 0.950 . S
H1075 C1084 0.950 . S
H1076 C1086 0.950 . S
H1077 C1088 0.950 . S
H1078 C1090 0.950 . S
H1079 C1091 0.950 . S
C1080 H1072 0.950 . S
C1080 C1081 1.386 . S
C1080 C1082 1.391 . S
C1081 C1080 1.386 . S
C1081 C1085 1.393 . S
C1082 H1074 0.950 . S
C1082 C1080 1.391 . S
C1082 C1083 1.400 . S
C1083 C1082 1.400 . S
C1083 C1084 1.398 . S
C1083 C1089 1.491 . S
C1084 H1075 0.950 . S
C1084 C1083 1.398 . S
C1084 C1085 1.391 . S
C1085 H1073 0.950 . S
C1085 C1081 1.393 . S
C1085 C1084 1.391 . S
C1086 H1076 0.950 . S
C1086 C1087 1.386 . S
C1086 C1088 1.391 . S
C1087 C1086 1.386 . S
C1087 C1091 1.393 . S
C1088 H1077 0.950 . S
C1088 C1086 1.391 . S
C1088 C1089 1.400 . S
C1089 C1083 1.491 . S
C1089 C1088 1.400 . S
C1089 C1090 1.398 . S
C1090 H1078 0.950 . S
C1090 C1089 1.398 . S
C1090 C1091 1.391 . S
C1091 H1079 0.950 . S
C1091 C1087 1.393 . S
C1091 C1090 1.391 . S
H1092 C1100 0.950 . S
H1093 C1105 0.950 . S
H1094 C1102 0.950 . S
H1095 C1104 0.950 . S
H1096 C1106 0.950 . S
H1097 C1108 0.950 . S
H1098 C1110 0.950 . S
H1099 C1111 0.950 . S
C1100 H1092 0.950 . S
C1100 C1101 1.386 . S
C1100 C1102 1.391 1_554 S
C1101 C1100 1.386 . S
C1101 C1105 1.393 . S
C1102 H1094 0.950 . S
C1102 C1100 1.391 1_556 S
C1102 C1103 1.400 . S
C1103 C1102 1.400 . S
C1103 C1104 1.398 . S
C1103 C1109 1.491 . S
C1104 H1095 0.950 . S
C1104 C1103 1.398 . S
C1104 C1105 1.391 1_556 S
C1105 H1093 0.950 . S
C1105 C1101 1.393 . S
C1105 C1104 1.391 1_554 S
C1106 H1096 0.950 . S
C1106 C1107 1.386 . S
C1106 C1108 1.391 . S
C1107 C1106 1.386 . S
C1107 C1111 1.393 . S
C1108 H1097 0.950 . S
C1108 C1106 1.391 . S
C1108 C1109 1.400 . S
C1109 C1103 1.491 . S
C1109 C1108 1.400 . S
C1109 C1110 1.398 . S
C1110 H1098 0.950 . S
C1110 C1109 1.398 . S
C1110 C1111 1.391 . S
C1111 H1099 0.950 . S
C1111 C1107 1.393 . S
C1111 C1110 1.391 . S
H1112 C1120 0.950 . S
H1113 C1125 0.950 . S
H1114 C1122 0.950 . S
H1115 C1124 0.950 . S
H1116 C1126 0.950 . S
H1117 C1128 0.950 . S
H1118 C1130 0.950 . S
H1119 C1131 0.950 . S
C1120 H1112 0.950 . S
C1120 C1121 1.386 . S
C1120 C1122 1.391 . S
C1121 C1120 1.386 . S
C1121 C1125 1.393 . S
C1122 H1114 0.950 . S
C1122 C1120 1.391 . S
C1122 C1123 1.400 . S
C1123 C1122 1.400 . S
C1123 C1124 1.398 . S
C1123 C1129 1.491 . S
C1124 H1115 0.950 . S
C1124 C1123 1.398 . S
C1124 C1125 1.391 . S
C1125 H1113 0.950 . S
C1125 C1121 1.393 . S
C1125 C1124 1.391 . S
C1126 H1116 0.950 . S
C1126 C1127 1.386 . S
C1126 C1128 1.391 . S
C1127 C1126 1.386 . S
C1127 C1131 1.393 . S
C1128 H1117 0.950 . S
C1128 C1126 1.391 . S
C1128 C1129 1.400 . S
C1129 C1123 1.491 . S
C1129 C1128 1.400 . S
C1129 C1130 1.398 . S
C1130 H1118 0.950 . S
C1130 C1129 1.398 . S
C1130 C1131 1.391 . S
C1131 H1119 0.950 . S
C1131 C1127 1.393 . S
C1131 C1130 1.391 . S
H1132 C1140 0.950 . S
H1133 C1145 0.950 . S
H1134 C1142 0.950 . S
H1135 C1144 0.950 . S
H1136 C1146 0.950 . S
H1137 C1148 0.950 . S
H1138 C1150 0.950 . S
H1139 C1151 0.950 . S
C1140 H1132 0.950 . S
C1140 C1141 1.386 . S
C1140 C1142 1.391 . S
C1141 C1140 1.386 . S
C1141 C1145 1.393 . S
C1142 H1134 0.950 . S
C1142 C1140 1.391 . S
C1142 C1143 1.400 . S
C1143 C1142 1.400 . S
C1143 C1144 1.398 . S
C1143 C1149 1.491 . S
C1144 H1135 0.950 . S
C1144 C1143 1.398 . S
C1144 C1145 1.391 . S
C1145 H1133 0.950 . S
C1145 C1141 1.393 . S
C1145 C1144 1.391 . S
C1146 H1136 0.950 . S
C1146 C1147 1.386 . S
C1146 C1148 1.391 1_455 S
C1147 C1146 1.386 . S
C1147 C1151 1.393 . S
C1148 H1137 0.950 . S
C1148 C1146 1.391 1_655 S
C1148 C1149 1.400 . S
C1149 C1143 1.491 . S
C1149 C1148 1.400 . S
C1149 C1150 1.398 . S
C1150 H1138 0.950 . S
C1150 C1149 1.398 . S
C1150 C1151 1.391 1_655 S
C1151 H1139 0.950 . S
C1151 C1147 1.393 . S
C1151 C1150 1.391 1_455 S
H1152 C1160 0.950 . S
H1153 C1165 0.950 . S
H1154 C1162 0.950 . S
H1155 C1164 0.950 . S
H1156 C1166 0.950 . S
H1157 C1168 0.950 . S
H1158 C1170 0.950 . S
H1159 C1171 0.950 . S
C1160 H1152 0.950 . S
C1160 C1161 1.386 . S
C1160 C1162 1.391 . S
C1161 C1160 1.386 . S
C1161 C1165 1.393 . S
C1162 H1154 0.950 . S
C1162 C1160 1.391 . S
C1162 C1163 1.400 . S
C1163 C1162 1.400 . S
C1163 C1164 1.398 . S
C1163 C1169 1.491 . S
C1164 H1155 0.950 . S
C1164 C1163 1.398 . S
C1164 C1165 1.391 . S
C1165 H1153 0.950 . S
C1165 C1161 1.393 . S
C1165 C1164 1.391 . S
C1166 H1156 0.950 . S
C1166 C1167 1.386 . S
C1166 C1168 1.391 1_655 S
C1167 C1166 1.386 . S
C1167 C1171 1.393 . S
C1168 H1157 0.950 . S
C1168 C1166 1.391 1_455 S
C1168 C1169 1.400 . S
C1169 C1163 1.491 . S
C1169 C1168 1.400 . S
C1169 C1170 1.398 . S
C1170 H1158 0.950 . S
C1170 C1169 1.398 . S
C1170 C1171 1.391 1_455 S
C1171 H1159 0.950 . S
C1171 C1167 1.393 . S
C1171 C1170 1.391 1_655 S
H1172 C1180 0.950 . S
H1173 C1185 0.950 . S
H1174 C1182 0.950 . S
H1175 C1184 0.950 . S
H1176 C1186 0.950 . S
H1177 C1188 0.950 . S
H1178 C1190 0.950 . S
H1179 C1191 0.950 . S
C1180 H1172 0.950 . S
C1180 C1181 1.386 . S
C1180 C1182 1.391 . S
C1181 C1180 1.386 . S
C1181 C1185 1.393 . S
C1182 H1174 0.950 . S
C1182 C1180 1.391 . S
C1182 C1183 1.400 . S
C1183 C1182 1.400 . S
C1183 C1184 1.398 . S
C1183 C1189 1.491 . S
C1184 H1175 0.950 . S
C1184 C1183 1.398 . S
C1184 C1185 1.391 . S
C1185 H1173 0.950 . S
C1185 C1181 1.393 . S
C1185 C1184 1.391 . S
C1186 H1176 0.950 . S
C1186 C1187 1.386 . S
C1186 C1188 1.391 . S
C1187 C1186 1.386 . S
C1187 C1191 1.393 . S
C1188 H1177 0.950 . S
C1188 C1186 1.391 . S
C1188 C1189 1.400 . S
C1189 C1183 1.491 . S
C1189 C1188 1.400 . S
C1189 C1190 1.398 . S
C1190 H1178 0.950 . S
C1190 C1189 1.398 . S
C1190 C1191 1.391 . S
C1191 H1179 0.950 . S
C1191 C1187 1.393 . S
C1191 C1190 1.391 . S
H1192 C1200 0.950 . S
H1193 C1205 0.950 . S
H1194 C1202 0.950 . S
H1195 C1204 0.950 . S
H1196 C1206 0.950 . S
H1197 C1208 0.950 . S
H1198 C1210 0.950 . S
H1199 C1211 0.950 . S
C1200 H1192 0.950 . S
C1200 C1201 1.386 . S
C1200 C1202 1.391 . S
C1201 C1200 1.386 . S
C1201 C1205 1.393 . S
C1202 H1194 0.950 . S
C1202 C1200 1.391 . S
C1202 C1203 1.400 . S
C1203 C1202 1.400 . S
C1203 C1204 1.398 . S
C1203 C1209 1.491 . S
C1204 H1195 0.950 . S
C1204 C1203 1.398 . S
C1204 C1205 1.391 . S
C1205 H1193 0.950 . S
C1205 C1201 1.393 . S
C1205 C1204 1.391 . S
C1206 H1196 0.950 . S
C1206 C1207 1.386 . S
C1206 C1208 1.391 . S
C1207 C1206 1.386 . S
C1207 C1211 1.393 . S
C1208 H1197 0.950 . S
C1208 C1206 1.391 . S
C1208 C1209 1.400 . S
C1209 C1203 1.491 . S
C1209 C1208 1.400 . S
C1209 C1210 1.398 . S
C1210 H1198 0.950 . S
C1210 C1209 1.398 . S
C1210 C1211 1.391 . S
C1211 H1199 0.950 . S
C1211 C1207 1.393 . S
C1211 C1210 1.391 . S
H1212 C1220 0.950 . S
H1213 C1225 0.950 . S
H1214 C1222 0.950 . S
H1215 C1224 0.950 . S
H1216 C1226 0.950 . S
H1217 C1228 0.950 . S
H1218 C1230 0.950 . S
H1219 C1231 0.950 . S
C1220 H1212 0.950 . S
C1220 C1221 1.386 . S
C1220 C1222 1.391 . S
C1221 C1220 1.386 . S
C1221 C1225 1.393 . S
C1222 H1214 0.950 . S
C1222 C1220 1.391 . S
C1222 C1223 1.400 . S
C1223 C1222 1.400 . S
C1223 C1224 1.398 . S
C1223 C1229 1.491 . S
C1224 H1215 0.950 . S
C1224 C1223 1.398 . S
C1224 C1225 1.391 . S
C1225 H1213 0.950 . S
C1225 C1221 1.393 . S
C1225 C1224 1.391 . S
C1226 H1216 0.950 . S
C1226 C1227 1.386 . S
C1226 C1228 1.391 1_545 S
C1227 C1226 1.386 . S
C1227 C1231 1.393 . S
C1228 H1217 0.950 . S
C1228 C1226 1.391 1_565 S
C1228 C1229 1.400 . S
C1229 C1223 1.491 . S
C1229 C1228 1.400 . S
C1229 C1230 1.398 . S
C1230 H1218 0.950 . S
C1230 C1229 1.398 . S
C1230 C1231 1.391 1_565 S
C1231 H1219 0.950 . S
C1231 C1227 1.393 . S
C1231 C1230 1.391 1_545 S
H1232 C1240 0.950 . S
H1233 C1245 0.950 . S
H1234 C1242 0.950 . S
H1235 C1244 0.950 . S
H1236 C1246 0.950 . S
H1237 C1248 0.950 . S
H1238 C1250 0.950 . S
H1239 C1251 0.950 . S
C1240 H1232 0.950 . S
C1240 C1241 1.386 . S
C1240 C1242 1.391 1_565 S
C1241 C1240 1.386 . S
C1241 C1245 1.393 . S
C1242 H1234 0.950 . S
C1242 C1240 1.391 1_545 S
C1242 C1243 1.400 . S
C1243 C1242 1.400 . S
C1243 C1244 1.398 . S
C1243 C1249 1.491 . S
C1244 H1235 0.950 . S
C1244 C1243 1.398 . S
C1244 C1245 1.391 1_545 S
C1245 H1233 0.950 . S
C1245 C1241 1.393 . S
C1245 C1244 1.391 1_565 S
C1246 H1236 0.950 . S
C1246 C1247 1.386 . S
C1246 C1248 1.391 . S
C1247 C1246 1.386 . S
C1247 C1251 1.393 . S
C1248 H1237 0.950 . S
C1248 C1246 1.391 . S
C1248 C1249 1.400 . S
C1249 C1243 1.491 . S
C1249 C1248 1.400 . S
C1249 C1250 1.398 . S
C1250 H1238 0.950 . S
C1250 C1249 1.398 . S
C1250 C1251 1.391 . S
C1251 H1239 0.950 . S
C1251 C1247 1.393 . S
C1251 C1250 1.391 . S
H1252 C1260 0.950 . S
H1253 C1265 0.950 . S
H1254 C1262 0.950 . S
H1255 C1264 0.950 . S
H1256 C1266 0.950 . S
H1257 C1268 0.950 . S
H1258 C1270 0.950 . S
H1259 C1271 0.950 . S
C1260 H1252 0.950 . S
C1260 C1261 1.386 . S
C1260 C1262 1.391 . S
C1261 C1260 1.386 . S
C1261 C1265 1.393 . S
C1262 H1254 0.950 . S
C1262 C1260 1.391 . S
C1262 C1263 1.400 . S
C1263 C1262 1.400 . S
C1263 C1264 1.398 . S
C1263 C1269 1.491 . S
C1264 H1255 0.950 . S
C1264 C1263 1.398 . S
C1264 C1265 1.391 . S
C1265 H1253 0.950 . S
C1265 C1261 1.393 . S
C1265 C1264 1.391 . S
C1266 H1256 0.950 . S
C1266 C1267 1.386 . S
C1266 C1268 1.391 . S
C1267 C1266 1.386 . S
C1267 C1271 1.393 . S
C1268 H1257 0.950 . S
C1268 C1266 1.391 . S
C1268 C1269 1.400 . S
C1269 C1263 1.491 . S
C1269 C1268 1.400 . S
C1269 C1270 1.398 . S
C1270 H1258 0.950 . S
C1270 C1269 1.398 . S
C1270 C1271 1.391 . S
C1271 H1259 0.950 . S
C1271 C1267 1.393 . S
C1271 C1270 1.391 . S
C321 C107 1.162 . S
C327 C5 1.163 . S
C341 C16 1.164 . S
C347 C146 1.159 . S
C361 C31 1.165 . S
C367 C120 1.156 . S
C381 C44 1.163 . S
C387 C135 1.163 . S
C401 C55 1.165 . S
C407 C3 1.161 . S
C421 C18 1.159 . S
C427 C68 1.166 . S
C441 C83 1.164 . S
C447 C29 1.161 . S
C461 C42 1.151 . S
C467 C96 1.169 . S
C481 C57 1.164 . S
C487 C109 1.163 . S
C501 C81 1.161 . S
C507 C122 1.165 . S
C521 C133 1.173 . S
C527 C94 1.140 . S
C541 C70 1.142 . S
C547 C148 1.173 . S
C561 C263 1.155 . S
C567 C161 1.166 . S
C581 C172 1.164 . S
C587 C304 1.160 . S
C601 C187 1.163 . S
C607 C276 1.162 . S
C621 C289 1.140 . S
C627 C200 1.173 . S
C641 C211 1.170 . S
C647 C159 1.146 . S
C661 C174 1.143 . S
C667 C224 1.173 . S
C681 C185 1.144 . S
C687 C239 1.170 . S
C701 C252 1.171 . S
C707 C198 1.144 . S
C721 C265 1.163 . S
C727 C213 1.164 . S
C741 C237 1.159 . S
C747 C278 1.166 . S
C761 C250 1.153 . S
C767 C291 1.166 . S
C781 C302 1.172 . S
C787 C226 1.142 . S
C801 C296 1.484 . S
C807 C4 1.481 . S
C821 C283 1.484 . S
C827 C23 1.482 . S
C841 C303 1.484 . S
C847 C30 1.485 . S
C861 C43 1.484 . S
C867 C270 1.485 . S
C881 C62 1.484 . S
C887 C173 1.484 . S
C901 C166 1.481 . S
C907 C75 1.481 . S
C921 C205 1.483 . S
C927 C82 1.481 . S
C941 C192 1.483 . S
C947 C95 1.481 . S
C961 C108 1.485 . S
C967 C244 1.484 . S
C981 C212 1.485 . S
C987 C121 1.483 . S
C1001 C225 1.483 . S
C1007 C140 1.481 . S
C1021 C257 1.485 . S
C1027 C147 1.483 . S
C1041 C134 1.484 . S
C1047 C160 1.482 . S
C1061 C127 1.482 . S
C1067 C179 1.484 . S
C1081 C186 1.484 . S
C1087 C153 1.484 . S
C1101 C114 1.481 . S
C1107 C199 1.483 . S
C1121 C218 1.484 . S
C1127 C17 1.485 . S
C1141 C231 1.480 . S
C1147 C10 1.482 . S
C1161 C238 1.484 . S
C1167 C49 1.484 . S
C1181 C251 1.483 . S
C1187 C36 1.481 . S
C1201 C264 1.485 . S
C1207 C88 1.483 . S
C1221 C277 1.483 . S
C1227 C56 1.485 . S
C1241 C69 1.482 . S
C1247 C290 1.480 . S
C1261 C309 1.484 . S
C1267 C101 1.484 . S
