# Generated by pormake.
# Topology smk, (6)-cn, num edge types: 1
# Building blocks:
#     Node 0, Type 0, BuildingBlock: OJICUG_clean_sbu_0, # of connection points: 6
#     Node 1, Type 0, BuildingBlock: OJICUG_clean_sbu_0, # of connection points: 6
#     Node 2, Type 0, BuildingBlock: OJICUG_clean_sbu_0, # of connection points: 6
#     Node 3, Type 0, BuildingBlock: OJICUG_clean_sbu_0, # of connection points: 6
#     Node 4, Type 0, BuildingBlock: OJICUG_clean_sbu_0, # of connection points: 6
#     Node 5, Type 0, BuildingBlock: OJICUG_clean_sbu_0, # of connection points: 6
#     Edge 6, Type (0, 0), BuildingBlock: MIFKUJ_clean_linker_0, # of connection points: 2
#     Edge 7, Type (0, 0), BuildingBlock: MIFKUJ_clean_linker_0, # of connection points: 2
#     Edge 8, Type (0, 0), BuildingBlock: MIFKUJ_clean_linker_0, # of connection points: 2
#     Edge 9, Type (0, 0), BuildingBlock: MIFKUJ_clean_linker_0, # of connection points: 2
#     Edge 10, Type (0, 0), BuildingBlock: MIFKUJ_clean_linker_0, # of connection points: 2
#     Edge 11, Type (0, 0), BuildingBlock: MIFKUJ_clean_linker_0, # of connection points: 2
#     Edge 12, Type (0, 0), BuildingBlock: MIFKUJ_clean_linker_0, # of connection points: 2
#     Edge 13, Type (0, 0), BuildingBlock: MIFKUJ_clean_linker_0, # of connection points: 2
#     Edge 14, Type (0, 0), BuildingBlock: MIFKUJ_clean_linker_0, # of connection points: 2
#     Edge 15, Type (0, 0), BuildingBlock: MIFKUJ_clean_linker_0, # of connection points: 2
#     Edge 16, Type (0, 0), BuildingBlock: MIFKUJ_clean_linker_0, # of connection points: 2
#     Edge 17, Type (0, 0), BuildingBlock: MIFKUJ_clean_linker_0, # of connection points: 2
#     Edge 18, Type (0, 0), BuildingBlock: MIFKUJ_clean_linker_0, # of connection points: 2
#     Edge 19, Type (0, 0), BuildingBlock: MIFKUJ_clean_linker_0, # of connection points: 2
#     Edge 20, Type (0, 0), BuildingBlock: MIFKUJ_clean_linker_0, # of connection points: 2
#     Edge 21, Type (0, 0), BuildingBlock: MIFKUJ_clean_linker_0, # of connection points: 2
#     Edge 22, Type (0, 0), BuildingBlock: MIFKUJ_clean_linker_0, # of connection points: 2
#     Edge 23, Type (0, 0), BuildingBlock: MIFKUJ_clean_linker_0, # of connection points: 2
# Relax obj value: 0.194
# Max RMSD: 0.221
# Mean RMSD: 0.221
data_MOF--net-smk--node1-OJICUG_clean_sbu_0--edge1-MIFKUJ_clean_linker_0
_symmetry_space_group_name_H-M    P1
_symmetry_Int_Tables_number       1
_symmetry_cell_setting            triclinic
loop_
_symmetry_equiv_pos_as_xyz
'x, y, z'
_cell_length_a     55.816468
_cell_length_b     55.808519
_cell_length_c     20.114192
_cell_angle_alpha  90.033829
_cell_angle_beta   89.987264
_cell_angle_gamma 119.95815
loop_
_atom_site_label
_atom_site_type_symbol
_atom_site_fract_x
_atom_site_fract_y
_atom_site_fract_z
_atom_type_partial_charge
Sc0 Sc 0.44032 0.20219 0.50398 0.0
Sc1 Sc 0.3773 0.18864 0.57429 0.0
Sc2 Sc 0.43977 0.23636 0.64826 0.0
O3 O 0.4191 0.20902 0.57535 0.0
C4 C 0.47716 0.20824 0.62699 0.0
C5 C 0.38939 0.14142 0.53344 0.0
C6 C 0.3912 0.19058 0.7304 0.0
C7 C 0.39216 0.2 0.41879 0.0
C8 C 0.47639 0.2679 0.5256 0.0
C9 C 0.38942 0.24699 0.61967 0.0
O10 O 0.46491 0.19516 0.57461 0.0
O11 O 0.37555 0.1494 0.568 0.0
O12 O 0.41708 0.20633 0.723 0.0
O13 O 0.41775 0.2086 0.42681 0.0
O14 O 0.46395 0.2683 0.57814 0.0
O15 O 0.37644 0.22668 0.58027 0.0
O16 O 0.47154 0.24554 0.4969 0.0
O17 O 0.37472 0.19006 0.46623 0.0
O18 O 0.41075 0.25115 0.65194 0.0
O19 O 0.41166 0.15814 0.50336 0.0
O20 O 0.47163 0.2253 0.65523 0.0
O21 O 0.37408 0.18447 0.68255 0.0
Sc22 Sc 0.23909 0.44834 0.70426 0.0
Sc23 Sc 0.19279 0.38566 0.78004 0.0
Sc24 Sc 0.2012 0.44827 0.84308 0.0
O25 O 0.21105 0.42747 0.77619 0.0
C26 C 0.26715 0.4854 0.83112 0.0
C27 C 0.25292 0.40085 0.74381 0.0
C28 C 0.19747 0.4005 0.9354 0.0
C29 C 0.19635 0.39732 0.62285 0.0
C30 C 0.20924 0.48446 0.71542 0.0
C31 C 0.14269 0.39627 0.80274 0.0
O32 O 0.26878 0.4749 0.77631 0.0
O33 O 0.23198 0.38729 0.78096 0.0
O34 O 0.2032 0.42526 0.92577 0.0
O35 O 0.21115 0.42339 0.62808 0.0
O36 O 0.19749 0.47409 0.77026 0.0
O37 O 0.15256 0.38179 0.7793 0.0
O38 O 0.22559 0.47797 0.68735 0.0
O39 O 0.19046 0.381 0.67218 0.0
O40 O 0.15752 0.41972 0.83045 0.0
O41 O 0.25659 0.42146 0.70907 0.0
O42 O 0.24426 0.47882 0.85971 0.0
O43 O 0.19228 0.38351 0.88797 0.0
Sc44 Sc 0.79038 0.24291 0.83532 0.0
Sc45 Sc 0.7988 0.18833 0.89738 0.0
Sc46 Sc 0.75143 0.20445 0.97267 0.0
O47 O 0.78024 0.21188 0.90177 0.0
C48 C 0.7821 0.27043 0.96499 0.0
C49 C 0.84898 0.24898 0.86893 0.0
C50 C 0.79567 0.19676 0.05467 0.0
C51 C 0.79233 0.19731 0.74281 0.0
C52 C 0.72469 0.21499 0.84437 0.0
C53 C 0.73745 0.14306 0.93447 0.0
O54 O 0.79234 0.27175 0.90799 0.0
O55 O 0.83915 0.22403 0.88749 0.0
O56 O 0.77744 0.20396 0.05011 0.0
O57 O 0.78993 0.21844 0.7532 0.0
O58 O 0.72286 0.20413 0.90103 0.0
O59 O 0.76047 0.15028 0.90655 0.0
O60 O 0.74759 0.22988 0.81463 0.0
O61 O 0.79531 0.18372 0.78977 0.0
O62 O 0.7317 0.1602 0.96129 0.0
O63 O 0.83406 0.25899 0.8498 0.0
O64 O 0.76699 0.24767 0.99476 0.0
O65 O 0.80476 0.18965 0.00467 0.0
Sc66 Sc 0.55163 0.79503 0.01612 0.0
Sc67 Sc 0.61603 0.80878 0.08109 0.0
Sc68 Sc 0.55358 0.75633 0.1509 0.0
O69 O 0.57381 0.78669 0.08263 0.0
C70 C 0.51574 0.78437 0.14634 0.0
C71 C 0.60075 0.85555 0.05225 0.0
C72 C 0.60282 0.80241 0.23726 0.0
C73 C 0.60105 0.80083 0.92567 0.0
C74 C 0.51639 0.72897 0.02352 0.0
C75 C 0.60482 0.74829 0.11247 0.0
O76 O 0.52499 0.7962 0.09086 0.0
O77 O 0.617 0.8477 0.07465 0.0
O78 O 0.5783 0.78239 0.2305 0.0
O79 O 0.57622 0.79512 0.9345 0.0
O80 O 0.52673 0.72723 0.07827 0.0
O81 O 0.61962 0.77231 0.08804 0.0
O82 O 0.52293 0.75196 0.99605 0.0
O83 O 0.61815 0.80679 0.97337 0.0
O84 O 0.58103 0.74003 0.13742 0.0
O85 O 0.57704 0.83896 0.0285 0.0
O86 O 0.52333 0.76862 0.17317 0.0
O87 O 0.61929 0.81359 0.18851 0.0
Sc88 Sc 0.75379 0.54792 0.20942 0.0
Sc89 Sc 0.80661 0.61062 0.27647 0.0
Sc90 Sc 0.79063 0.54671 0.34965 0.0
O91 O 0.7837 0.56846 0.27852 0.0
C92 C 0.72479 0.51306 0.33976 0.0
C93 C 0.74649 0.60007 0.24243 0.0
C94 C 0.79808 0.59849 0.43306 0.0
C95 C 0.8002 0.5959 0.12084 0.0
C96 C 0.77982 0.50851 0.22294 0.0
C97 C 0.85192 0.59383 0.31083 0.0
O98 O 0.72412 0.5218 0.28194 0.0
O99 O 0.77064 0.61491 0.26629 0.0
O100 O 0.79177 0.57336 0.42746 0.0
O101 O 0.77981 0.57172 0.12903 0.0
O102 O 0.78993 0.51731 0.28022 0.0
O103 O 0.8446 0.61014 0.28605 0.0
O104 O 0.76643 0.51765 0.19075 0.0
O105 O 0.8119 0.61259 0.16897 0.0
O106 O 0.83491 0.57059 0.33641 0.0
O107 O 0.73778 0.57581 0.21977 0.0
O108 O 0.74721 0.52006 0.37067 0.0
O109 O 0.80465 0.61482 0.38361 0.0
Sc110 Sc 0.20381 0.75268 0.32538 0.0
Sc111 Sc 0.18751 0.80064 0.39479 0.0
Sc112 Sc 0.23734 0.78871 0.47051 0.0
O113 O 0.20957 0.78066 0.39685 0.0
C114 C 0.21048 0.72328 0.45305 0.0
C115 C 0.14216 0.73954 0.35902 0.0
C116 C 0.19076 0.79179 0.55163 0.0
C117 C 0.19759 0.79643 0.23913 0.0
C118 C 0.26935 0.78337 0.34605 0.0
C119 C 0.24691 0.84882 0.43281 0.0
O120 O 0.20076 0.72254 0.3956 0.0
O121 O 0.1492 0.76227 0.38863 0.0
O122 O 0.20864 0.78422 0.54649 0.0
O123 O 0.20648 0.77965 0.24639 0.0
O124 O 0.26907 0.79364 0.40225 0.0
O125 O 0.22459 0.84013 0.40003 0.0
O126 O 0.24746 0.76781 0.31337 0.0
O127 O 0.18848 0.80437 0.28729 0.0
O128 O 0.25314 0.83286 0.46431 0.0
O129 O 0.15938 0.73412 0.33097 0.0
O130 O 0.22457 0.74559 0.48557 0.0
O131 O 0.18274 0.80025 0.5023 0.0
H132 H 0.33952 0.16882 0.36828 0.0
H133 H 0.32594 0.16307 0.2507 0.0
H134 H 0.40947 0.2236 0.19643 0.0
H135 H 0.423 0.22971 0.31282 0.0
H136 H 0.37374 0.22929 0.12007 0.0
H137 H 0.38671 0.15364 0.19726 0.0
H138 H 0.37623 0.11322 0.2671 0.0
H139 H 0.29231 0.0716 0.19729 0.0
H140 H 0.30225 0.11196 0.1276 0.0
H141 H 0.42146 0.19414 0.84001 0.0
H142 H 0.40717 0.18971 0.9557 0.0
H143 H 0.32367 0.1636 0.89482 0.0
H144 H 0.33788 0.16851 0.77758 0.0
H145 H 0.34449 0.13652 0.02545 0.0
H146 H 0.33603 0.2134 0.93414 0.0
H147 H 0.35218 0.25343 0.85878 0.0
H148 H 0.43164 0.29261 0.95409 0.0
H149 H 0.41609 0.25255 0.02913 0.0
C150 C 0.35481 0.18134 0.33135 0.0
C151 C 0.38242 0.19952 0.34991 0.0
C152 C 0.34705 0.17791 0.26416 0.0
C153 C 0.36677 0.19263 0.21463 0.0
C154 C 0.39387 0.21198 0.23362 0.0
C155 C 0.40162 0.21535 0.30034 0.0
C156 C 0.36037 0.18668 0.14274 0.0
C157 C 0.36682 0.20887 0.0996 0.0
C158 C 0.35112 0.16 0.11565 0.0
C159 C 0.34512 0.1359 0.15792 0.0
C160 C 0.36597 0.13596 0.19727 0.0
C161 C 0.36014 0.11305 0.23671 0.0
C162 C 0.33362 0.08988 0.23663 0.0
C163 C 0.31284 0.08958 0.19729 0.0
C164 C 0.31855 0.11246 0.15784 0.0
C165 C 0.3999 0.18696 0.85074 0.0
C166 C 0.38091 0.18207 0.79929 0.0
C167 C 0.39178 0.18435 0.91705 0.0
C168 C 0.36449 0.1766 0.93351 0.0
C169 C 0.34486 0.16965 0.88277 0.0
C170 C 0.35303 0.17243 0.81592 0.0
C171 C 0.35808 0.17913 0.00358 0.0
C172 C 0.34985 0.15652 0.04627 0.0
C173 C 0.3658 0.20541 0.0304 0.0
C174 C 0.37495 0.22991 0.98688 0.0
C175 C 0.357 0.23048 0.93869 0.0
C176 C 0.36603 0.25317 0.89608 0.0
C177 C 0.39293 0.27553 0.90158 0.0
C178 C 0.41081 0.27528 0.94987 0.0
C179 C 0.40188 0.2526 0.99249 0.0
H180 H 0.3999 0.29306 0.86849 0.0
H181 H 0.32919 0.0721 0.2668 0.0
H182 H 0.19105 0.34934 0.57217 0.0
H183 H 0.18461 0.33528 0.45459 0.0
H184 H 0.1764 0.40599 0.40452 0.0
H185 H 0.18315 0.42024 0.52087 0.0
H186 H 0.13863 0.35695 0.33711 0.0
H187 H 0.2374 0.41109 0.39345 0.0
H188 H 0.27808 0.41812 0.45757 0.0
H189 H 0.26722 0.34096 0.38471 0.0
H190 H 0.22617 0.3333 0.32095 0.0
H191 H 0.19423 0.4268 0.04592 0.0
H192 H 0.18702 0.41086 0.16027 0.0
H193 H 0.187 0.3367 0.10034 0.0
H194 H 0.19384 0.35237 0.98374 0.0
H195 H 0.22282 0.37005 0.22088 0.0
H196 H 0.12804 0.31801 0.15341 0.0
H197 H 0.08485 0.30791 0.0968 0.0
H198 H 0.08756 0.37846 0.19007 0.0
H199 H 0.13044 0.38851 0.24881 0.0
C200 C 0.1872 0.36145 0.53614 0.0
C201 C 0.18768 0.38592 0.55535 0.0
C202 C 0.18369 0.35349 0.46914 0.0
C203 C 0.18022 0.36972 0.42101 0.0
C204 C 0.17902 0.39318 0.44095 0.0
C205 C 0.18295 0.40134 0.50735 0.0
C206 C 0.18 0.36407 0.34907 0.0
C207 C 0.15691 0.35947 0.31173 0.0
C208 C 0.20354 0.3665 0.31614 0.0
C209 C 0.22856 0.37146 0.35315 0.0
C210 C 0.24359 0.39555 0.39147 0.0
C211 C 0.26672 0.39965 0.4277 0.0
C212 C 0.27517 0.37995 0.42541 0.0
C213 C 0.2606 0.35617 0.38658 0.0
C214 C 0.23741 0.35194 0.35039 0.0
C215 C 0.19287 0.40713 0.0565 0.0
C216 C 0.1947 0.39091 0.00533 0.0
C217 C 0.18857 0.39799 0.12208 0.0
C218 C 0.18625 0.37254 0.13854 0.0
C219 C 0.18862 0.35637 0.08833 0.0
C220 C 0.19255 0.36537 0.02192 0.0
C221 C 0.18174 0.36384 0.20906 0.0
C222 C 0.20408 0.3662 0.24627 0.0
C223 C 0.15744 0.3591 0.24216 0.0
C224 C 0.13247 0.35408 0.20503 0.0
C225 C 0.11952 0.33148 0.16139 0.0
C226 C 0.09502 0.32569 0.12924 0.0
C227 C 0.08355 0.34265 0.13939 0.0
C228 C 0.09648 0.36536 0.18218 0.0
C229 C 0.12077 0.37099 0.2153 0.0
H230 H 0.06461 0.33816 0.11425 0.0
H231 H 0.29305 0.38314 0.45359 0.0
H232 H 0.80248 0.23043 0.1585 0.0
H233 H 0.81064 0.22415 0.27449 0.0
H234 H 0.81693 0.15258 0.22148 0.0
H235 H 0.80899 0.15904 0.104 0.0
H236 H 0.77926 0.14298 0.32609 0.0
H237 H 0.87302 0.20521 0.2788 0.0
H238 H 0.91321 0.24622 0.23088 0.0
H239 H 0.89496 0.29932 0.34862 0.0
H240 H 0.85439 0.25866 0.39652 0.0
H241 H 0.80052 0.15568 0.69242 0.0
H242 H 0.80795 0.14839 0.57507 0.0
H243 H 0.79605 0.21613 0.51776 0.0
H244 H 0.78817 0.22325 0.63262 0.0
H245 H 0.84671 0.21891 0.47035 0.0
H246 H 0.74652 0.15591 0.49052 0.0
H247 H 0.70571 0.11496 0.53685 0.0
H248 H 0.73739 0.0631 0.46955 0.0
H249 H 0.77862 0.10387 0.42362 0.0
C250 C 0.80617 0.21368 0.17124 0.0
C251 C 0.80516 0.19526 0.12229 0.0
C252 C 0.81091 0.21014 0.23754 0.0
C253 C 0.81452 0.18797 0.2566 0.0
C254 C 0.81431 0.16989 0.20768 0.0
C255 C 0.81 0.17372 0.14071 0.0
C256 C 0.81624 0.18302 0.32845 0.0
C257 C 0.79453 0.15918 0.35767 0.0
C258 C 0.83612 0.20415 0.36962 0.0
C259 C 0.86058 0.22881 0.34121 0.0
C260 C 0.87746 0.22563 0.2942 0.0
C261 C 0.90033 0.24883 0.26706 0.0
C262 C 0.90663 0.27536 0.28668 0.0
C263 C 0.89007 0.27875 0.33353 0.0
C264 C 0.86716 0.25562 0.36081 0.0
C265 C 0.79914 0.16876 0.65464 0.0
C266 C 0.79393 0.19018 0.67232 0.0
C267 C 0.80348 0.16461 0.58779 0.0
C268 C 0.80289 0.18199 0.5381 0.0
C269 C 0.7969 0.20272 0.5555 0.0
C270 C 0.79229 0.20665 0.6215 0.0
C271 C 0.80899 0.17965 0.46753 0.0
C272 C 0.83216 0.20221 0.4387 0.0
C273 C 0.79054 0.15735 0.4269 0.0
C274 C 0.76582 0.13295 0.45462 0.0
C275 C 0.74493 0.13582 0.48629 0.0
C276 C 0.72169 0.11263 0.5123 0.0
C277 C 0.71902 0.08646 0.50641 0.0
C278 C 0.73954 0.0834 0.47428 0.0
C279 C 0.76284 0.10653 0.44826 0.0
H280 H 0.701 0.06853 0.52654 0.0
H281 H 0.92435 0.2933 0.2656 0.0
H282 H 0.65569 0.82569 0.28698 0.0
H283 H 0.66948 0.83488 0.40464 0.0
H284 H 0.58523 0.80911 0.45879 0.0
H285 H 0.57146 0.79993 0.34264 0.0
H286 H 0.62258 0.85498 0.52829 0.0
H287 H 0.60901 0.76423 0.46281 0.0
H288 H 0.62056 0.73394 0.39742 0.0
H289 H 0.70375 0.77751 0.4719 0.0
H290 H 0.69275 0.80831 0.53705 0.0
H291 H 0.56893 0.78292 0.81474 0.0
H292 H 0.58375 0.79198 0.69952 0.0
H293 H 0.66907 0.8317 0.76086 0.0
H294 H 0.65441 0.823 0.87802 0.0
H295 H 0.64876 0.7914 0.63641 0.0
H296 H 0.65692 0.87495 0.72378 0.0
H297 H 0.64216 0.9021 0.79158 0.0
H298 H 0.56771 0.87087 0.67642 0.0
H299 H 0.5818 0.84314 0.60866 0.0
C300 C 0.64031 0.82255 0.32402 0.0
C301 C 0.61246 0.81191 0.30578 0.0
C302 C 0.64817 0.82766 0.39109 0.0
C303 C 0.62832 0.82248 0.44041 0.0
C304 C 0.60089 0.81329 0.42159 0.0
C305 C 0.59302 0.80792 0.35516 0.0
C306 C 0.63497 0.82457 0.51226 0.0
C307 C 0.62873 0.84141 0.5519 0.0
C308 C 0.64366 0.80734 0.543 0.0
C309 C 0.65018 0.7888 0.50399 0.0
C310 C 0.62982 0.76749 0.46476 0.0
C311 C 0.63626 0.75021 0.42783 0.0
C312 C 0.6629 0.75386 0.4303 0.0
C313 C 0.68314 0.77476 0.46987 0.0
C314 C 0.67683 0.79213 0.50678 0.0
C315 C 0.59089 0.79331 0.80425 0.0
C316 C 0.61049 0.80258 0.85594 0.0
C317 C 0.59929 0.79841 0.73817 0.0
C318 C 0.62745 0.81277 0.72196 0.0
C319 C 0.64722 0.82062 0.77269 0.0
C320 C 0.63879 0.81562 0.83946 0.0
C321 C 0.63533 0.82104 0.65197 0.0
C322 C 0.64399 0.80599 0.61276 0.0
C323 C 0.62881 0.83988 0.62141 0.0
C324 C 0.6204 0.85688 0.66128 0.0
C325 C 0.63732 0.87373 0.71318 0.0
C326 C 0.62908 0.88924 0.75158 0.0
C327 C 0.60401 0.8882 0.73835 0.0
C328 C 0.58714 0.87167 0.68658 0.0
C329 C 0.59527 0.85608 0.64809 0.0
H330 H 0.59765 0.90021 0.76816 0.0
H331 H 0.66784 0.74045 0.40172 0.0
H332 H 0.83222 0.65068 0.48275 0.0
H333 H 0.83825 0.66459 0.60049 0.0
H334 H 0.77237 0.58326 0.65397 0.0
H335 H 0.76638 0.56938 0.53766 0.0
H336 H 0.77033 0.62364 0.72659 0.0
H337 H 0.83882 0.59819 0.65667 0.0
H338 H 0.87824 0.60424 0.5886 0.0
H339 H 0.92733 0.68737 0.66089 0.0
H340 H 0.88802 0.68188 0.72874 0.0
H341 H 0.78449 0.56395 0.00945 0.0
H342 H 0.79102 0.57913 0.89443 0.0
H343 H 0.84121 0.6639 0.9569 0.0
H344 H 0.8344 0.64891 0.07389 0.0
H345 H 0.85777 0.63909 0.82951 0.0
H346 H 0.78979 0.65857 0.92078 0.0
H347 H 0.74963 0.64854 0.99107 0.0
H348 H 0.69903 0.57456 0.87916 0.0
H349 H 0.73902 0.58389 0.80895 0.0
C350 C 0.81864 0.63606 0.51962 0.0
C351 C 0.79897 0.60889 0.50119 0.0
C352 C 0.8222 0.64396 0.58678 0.0
C353 C 0.8059 0.62487 0.63603 0.0
C354 C 0.78516 0.59835 0.61691 0.0
C355 C 0.78184 0.5904 0.55038 0.0
C356 C 0.81147 0.63101 0.70801 0.0
C357 C 0.78961 0.62749 0.74904 0.0
C358 C 0.83681 0.63657 0.73739 0.0
C359 C 0.86042 0.63977 0.69698 0.0
C360 C 0.85796 0.61782 0.65761 0.0
C361 C 0.88028 0.62114 0.61915 0.0
C362 C 0.90525 0.64621 0.62023 0.0
C363 C 0.90796 0.66799 0.65995 0.0
C364 C 0.88567 0.6648 0.6984 0.0
C365 C 0.79725 0.58585 0.99926 0.0
C366 C 0.8086 0.60524 0.05126 0.0
C367 C 0.80099 0.59445 0.93327 0.0
C368 C 0.81631 0.62259 0.91743 0.0
C369 C 0.82927 0.64206 0.96844 0.0
C370 C 0.82537 0.63344 0.03512 0.0
C371 C 0.81636 0.63094 0.84761 0.0
C372 C 0.83904 0.63674 0.80703 0.0
C373 C 0.79175 0.6274 0.81849 0.0
C374 C 0.76746 0.62188 0.85981 0.0
C375 C 0.77015 0.64006 0.91146 0.0
C376 C 0.74741 0.63451 0.95126 0.0
C377 C 0.7218 0.61091 0.93964 0.0
C378 C 0.71888 0.59284 0.88809 0.0
C379 C 0.74157 0.59827 0.84822 0.0
H380 H 0.70423 0.60664 0.97052 0.0
H381 H 0.92251 0.64874 0.59044 0.0
H382 H 0.23031 0.8016 0.13345 0.0
H383 H 0.22288 0.80852 0.01697 0.0
H384 H 0.15211 0.81574 0.07231 0.0
H385 H 0.15974 0.80931 0.18962 0.0
H386 H 0.14175 0.7753 0.97215 0.0
H387 H 0.2033 0.87068 0.01436 0.0
H388 H 0.24539 0.9112 0.05746 0.0
H389 H 0.2955 0.89299 0.92832 0.0
H390 H 0.25375 0.85211 0.88512 0.0
H391 H 0.1785 0.82992 0.60232 0.0
H392 H 0.17159 0.83665 0.72011 0.0
H393 H 0.17521 0.76346 0.77099 0.0
H394 H 0.18257 0.75696 0.65423 0.0
H395 H 0.21124 0.84489 0.81867 0.0
H396 H 0.13268 0.73289 0.90325 0.0
H397 H 0.09098 0.69205 0.85975 0.0
H398 H 0.07404 0.7443 0.73523 0.0
H399 H 0.11539 0.7855 0.77869 0.0
C400 C 0.2135 0.80522 0.12102 0.0
C401 C 0.1956 0.8049 0.17061 0.0
C402 C 0.20931 0.80924 0.0545 0.0
C403 C 0.18696 0.81266 0.03613 0.0
C404 C 0.16952 0.81322 0.08563 0.0
C405 C 0.17401 0.80971 0.15254 0.0
C406 C 0.18075 0.81319 0.9647 0.0
C407 C 0.15671 0.79071 0.93855 0.0
C408 C 0.20013 0.83354 0.9212 0.0
C409 C 0.22535 0.85823 0.94668 0.0
C410 C 0.2233 0.87519 0.99545 0.0
C411 C 0.24711 0.89825 0.01986 0.0
C412 C 0.2731 0.90465 0.99569 0.0
C413 C 0.27534 0.88802 0.94697 0.0
C414 C 0.2516 0.86492 0.92242 0.0
C415 C 0.17706 0.8149 0.63852 0.0
C416 C 0.18111 0.79294 0.6193 0.0
C417 C 0.1733 0.81886 0.70569 0.0
C418 C 0.17283 0.80052 0.75413 0.0
C419 C 0.17524 0.77771 0.73435 0.0
C420 C 0.17951 0.77404 0.66767 0.0
C421 C 0.17279 0.80639 0.82599 0.0
C422 C 0.19583 0.82992 0.85226 0.0
C423 C 0.1525 0.78699 0.86958 0.0
C424 C 0.12726 0.76231 0.84407 0.0
C425 C 0.11997 0.73571 0.86694 0.0
C426 C 0.0964 0.71248 0.8422 0.0
C427 C 0.0799 0.71557 0.79466 0.0
C428 C 0.08688 0.74192 0.77191 0.0
C429 C 0.11041 0.76522 0.79652 0.0
H430 H 0.06169 0.69756 0.7755 0.0
H431 H 0.29151 0.92251 0.01466 0.0
H432 H 0.40826 0.11576 0.44971 0.0
H433 H 0.3875 0.06623 0.42885 0.0
H434 H 0.32537 0.04949 0.57754 0.0
H435 H 0.34563 0.09896 0.59809 0.0
H436 H 0.37724 0.02172 0.50124 0.0
H437 H 0.26344 -0.00191 0.52111 0.0
H438 H 0.23692 0.02206 0.50343 0.0
H439 H 0.2986 0.0779 0.36655 0.0
H440 H 0.32526 0.05399 0.38266 0.0
H441 H 0.28432 0.8776 0.53051 0.0
H442 H 0.31227 0.92776 0.54219 0.0
H443 H 0.28072 0.93819 0.35502 0.0
H444 H 0.25185 0.88808 0.34455 0.0
H445 H 0.27791 0.97042 0.43952 0.0
H446 H 0.34925 0.95181 0.37613 0.0
H447 H 0.37724 0.92889 0.38038 0.0
H448 H 0.40321 0.95918 0.57882 0.0
H449 H 0.37506 0.98196 0.57612 0.0
C450 C 0.39032 0.10157 0.47848 0.0
C451 C 0.37842 0.11138 0.52508 0.0
C452 C 0.37856 0.07325 0.46658 0.0
C453 C 0.35471 0.05427 0.50098 0.0
C454 C 0.34353 0.06388 0.54967 0.0
C455 C 0.35516 0.09217 0.56138 0.0
C456 C 0.34067 0.02455 0.48375 0.0
C457 C 0.35553 0.01042 0.48773 0.0
C458 C 0.31258 0.0101 0.4642 0.0
C459 C 0.29646 0.02438 0.45357 0.0
C460 C 0.27127 0.0154 0.48701 0.0
C461 C 0.25622 0.02898 0.47728 0.0
C462 C 0.2661 0.05153 0.434 0.0
C463 C 0.29101 0.06048 0.40016 0.0
C464 C 0.3061 0.04693 0.40962 0.0
C465 C 0.28362 0.8906 0.49147 0.0
C466 C 0.26584 0.87896 0.43675 0.0
C467 C 0.2997 0.91928 0.49804 0.0
C468 C 0.29881 0.93679 0.44919 0.0
C469 C 0.28168 0.92512 0.39349 0.0
C470 C 0.26522 0.89648 0.38751 0.0
C471 C 0.31428 0.96724 0.45819 0.0
C472 C 0.29966 0.98158 0.45277 0.0
C473 C 0.34278 0.98198 0.47437 0.0
C474 C 0.35986 0.96841 0.47609 0.0
C475 C 0.36078 0.95343 0.42085 0.0
C476 C 0.3767 0.94048 0.42296 0.0
C477 C 0.39195 0.94253 0.47988 0.0
C478 C 0.39137 0.95759 0.53477 0.0
C479 C 0.37546 0.97055 0.53295 0.0
H480 H 0.40426 0.93249 0.48142 0.0
H481 H 0.25444 0.06203 0.42662 0.0
H482 H 0.36129 0.26183 0.53331 0.0
H483 H 0.34228 0.29234 0.55641 0.0
H484 H 0.37295 0.30372 0.75741 0.0
H485 H 0.39268 0.27406 0.73435 0.0
H486 H 0.31009 0.28381 0.72568 0.0
H487 H 0.40638 0.35408 0.68656 0.0
H488 H 0.44899 0.37572 0.61925 0.0
H489 H 0.40532 0.38782 0.45897 0.0
H490 H 0.36231 0.36581 0.52502 0.0
H491 H 0.26978 0.37711 0.8373 0.0
H492 H 0.29787 0.35526 0.8191 0.0
H493 H 0.30556 0.37731 0.6112 0.0
H494 H 0.27907 0.40068 0.63032 0.0
H495 H 0.35062 0.38064 0.64682 0.0
H496 H 0.25567 0.31133 0.67348 0.0
H497 H 0.21013 0.28679 0.72843 0.0
H498 H 0.24642 0.26881 0.89552 0.0
H499 H 0.29227 0.29358 0.8419 0.0
C500 C 0.36412 0.27103 0.58218 0.0
C501 C 0.37852 0.26576 0.63196 0.0
C502 C 0.35338 0.28843 0.59518 0.0
C503 C 0.35646 0.30024 0.65838 0.0
C504 C 0.37063 0.29487 0.70824 0.0
C505 C 0.38191 0.27804 0.69489 0.0
C506 C 0.3438 0.31725 0.67344 0.0
C507 C 0.31905 0.30512 0.70943 0.0
C508 C 0.35518 0.34459 0.64986 0.0
C509 C 0.38107 0.358 0.61042 0.0
C510 C 0.40579 0.36108 0.6367 0.0
C511 C 0.43003 0.37348 0.59885 0.0
C512 C 0.42985 0.38306 0.53479 0.0
C513 C 0.40543 0.38035 0.50855 0.0
C514 C 0.38112 0.36793 0.54619 0.0
C515 C 0.27791 0.37764 0.78808 0.0
C516 C 0.27223 0.3904 0.73516 0.0
C517 C 0.29376 0.36501 0.77754 0.0
C518 C 0.3032 0.36396 0.71336 0.0
C519 C 0.29849 0.37777 0.6611 0.0
C520 C 0.28333 0.39109 0.67205 0.0
C521 C 0.31671 0.34735 0.69989 0.0
C522 C 0.34158 0.35941 0.66374 0.0
C523 C 0.305 0.31958 0.72174 0.0
C524 C 0.27744 0.30456 0.75399 0.0
C525 C 0.25397 0.3023 0.72213 0.0
C526 C 0.2281 0.28833 0.75301 0.0
C527 C 0.2254 0.27632 0.81551 0.0
C528 C 0.24855 0.27817 0.84716 0.0
C529 C 0.27448 0.29216 0.81654 0.0
H530 H 0.20535 0.26551 0.83934 0.0
H531 H 0.44863 0.39266 0.50556 0.0
H532 H 0.87993 0.3053 0.88023 0.0
H533 H 0.93024 0.33397 0.86954 0.0
H534 H 0.93596 0.26065 0.83405 0.0
H535 H 0.8862 0.23204 0.84829 0.0
H536 H 0.97536 0.29184 0.90857 0.0
H537 H 0.93891 0.30653 0.70628 0.0
H538 H 0.9105 0.31933 0.63731 0.0
H539 H 0.95287 0.4015 0.71832 0.0
H540 H 0.98132 0.38907 0.78842 0.0
H541 H 0.10374 0.34607 0.75332 0.0
H542 H 0.05363 0.32522 0.75917 0.0
H543 H 0.0627 0.39928 0.85007 0.0
H544 H 0.11302 0.42057 0.84442 0.0
H545 H 0.0171 0.37133 0.75257 0.0
H546 H 0.05792 0.35315 0.94521 0.0
H547 H 0.08886 0.33788 0.99157 0.0
H548 H 0.03682 0.25639 0.91272 0.0
H549 H 0.00649 0.27169 0.862 0.0
C550 C 0.89205 0.2954 0.8706 0.0
C551 C 0.87925 0.2665 0.86517 0.0
C552 C 0.92073 0.31177 0.86406 0.0
C553 C 0.93687 0.29951 0.8499 0.0
C554 C 0.92402 0.27061 0.8452 0.0
C555 C 0.89555 0.25426 0.85332 0.0
C556 C 0.96715 0.31651 0.83967 0.0
C557 C 0.98436 0.30908 0.87406 0.0
C558 C 0.97906 0.33924 0.79521 0.0
C559 C 0.962 0.34678 0.75315 0.0
C560 C 0.94202 0.32726 0.70975 0.0
C561 C 0.92594 0.33446 0.6704 0.0
C562 C 0.92982 0.36118 0.67359 0.0
C563 C 0.94985 0.38079 0.71601 0.0
C564 C 0.96597 0.37369 0.75553 0.0
C565 C 0.09519 0.35816 0.77377 0.0
C566 C 0.11243 0.38482 0.79963 0.0
C567 C 0.06655 0.34623 0.77669 0.0
C568 C 0.05466 0.36068 0.80565 0.0
C569 C 0.07164 0.3879 0.82756 0.0
C570 C 0.10036 0.39988 0.82481 0.0
C571 C 0.02481 0.34613 0.8203 0.0
C572 C 0.00788 0.35418 0.7873 0.0
C573 C 0.01299 0.3234 0.86446 0.0
C574 C 0.03006 0.31367 0.89921 0.0
C575 C 0.05314 0.33202 0.93735 0.0
C576 C 0.07063 0.32336 0.96427 0.0
C577 C 0.06474 0.29612 0.95545 0.0
C578 C 0.04136 0.27749 0.91952 0.0
C579 C 0.0241 0.2862 0.8913 0.0
H580 H 0.07832 0.28946 0.97635 0.0
H581 H 0.91735 0.36672 0.64308 0.0
H582 H 0.65367 0.89837 0.06259 0.0
H583 H 0.66972 0.9475 0.05183 0.0
H584 H 0.58546 0.92972 0.02991 0.0
H585 H 0.56924 0.88023 0.03834 0.0
H586 H 0.61542 0.96493 0.9404 0.0
H587 H 0.62378 0.96138 0.17273 0.0
H588 H 0.63593 0.94915 0.28034 0.0
H589 H 0.7221 0.99546 0.22979 0.0
H590 H 0.71048 0.00764 0.12141 0.0
H591 H 0.68249 0.1179 0.96823 0.0
H592 H 0.65184 0.06874 0.99395 0.0
H593 H 0.71746 0.05213 0.94638 0.0
H594 H 0.74795 0.1007 0.91938 0.0
H595 H 0.68837 0.03595 0.08493 0.0
H596 H 0.67495 0.0307 0.84173 0.0
H597 H 0.6604 0.04358 0.73837 0.0
H598 H 0.57952 0.01482 0.82039 0.0
H599 H 0.59376 0.00213 0.92466 0.0
C600 C 0.63849 0.90488 0.05632 0.0
C601 C 0.6102 0.88541 0.05124 0.0
C602 C 0.64768 0.93303 0.05056 0.0
C603 C 0.62875 0.94236 0.04115 0.0
C604 C 0.60042 0.923 0.03732 0.0
C605 C 0.59121 0.89475 0.04217 0.0
C606 C 0.63897 0.97219 0.0308 0.0
C607 C 0.63089 0.98043 0.97297 0.0
C608 C 0.65902 0.99253 0.0734 0.0
C609 C 0.66622 0.98532 0.13868 0.0
C610 C 0.64532 0.96881 0.18432 0.0
C611 C 0.65211 0.9619 0.24552 0.0
C612 C 0.67977 0.97149 0.26186 0.0
C613 C 0.70069 0.98805 0.21707 0.0
C614 C 0.69401 0.99501 0.15577 0.0
C615 C 0.69023 0.10367 0.96229 0.0
C616 C 0.71768 0.1132 0.94199 0.0
C617 C 0.67273 0.0757 0.97701 0.0
C618 C 0.68262 0.05712 0.97234 0.0
C619 C 0.70963 0.06636 0.95032 0.0
C620 C 0.72694 0.09409 0.9346 0.0
C621 C 0.66561 0.02819 0.99363 0.0
C622 C 0.67239 0.02029 0.05361 0.0
C623 C 0.64402 0.00829 0.95391 0.0
C624 C 0.63553 0.01584 0.89123 0.0
C625 C 0.65417 0.02741 0.83798 0.0
C626 C 0.64596 0.0346 0.77917 0.0
C627 C 0.61909 0.03012 0.77291 0.0
C628 C 0.60035 0.01835 0.82537 0.0
C629 C 0.60847 0.01114 0.8843 0.0
H630 H 0.61276 0.03569 0.72734 0.0
H631 H 0.68498 0.96612 0.30926 0.0
H632 H 0.761 0.65425 0.25767 0.0
H633 H 0.7324 0.67514 0.23875 0.0
H634 H 0.66229 0.59475 0.19643 0.0
H635 H 0.69111 0.57366 0.21334 0.0
H636 H 0.66559 0.62957 0.10661 0.0
H637 H 0.66705 0.63046 0.34201 0.0
H638 H 0.68644 0.63855 0.45525 0.0
H639 H 0.73216 0.72598 0.4184 0.0
H640 H 0.71345 0.7184 0.3045 0.0
H641 H 0.57736 0.69199 0.12657 0.0
H642 H 0.59782 0.66271 0.14785 0.0
H643 H 0.67944 0.73414 0.13417 0.0
H644 H 0.65936 0.76344 0.11156 0.0
H645 H 0.66432 0.6992 0.25778 0.0
H646 H 0.66451 0.69525 0.01617 0.0
H647 H 0.64228 0.6854 0.9059 0.0
H648 H 0.58898 0.60062 0.96163 0.0
H649 H 0.61064 0.6101 0.07268 0.0
C650 C 0.73942 0.6409 0.2452 0.0
C651 C 0.72835 0.61226 0.23705 0.0
C652 C 0.72303 0.65289 0.23465 0.0
C653 C 0.69508 0.63648 0.21704 0.0
C654 C 0.6838 0.60781 0.21008 0.0
C655 C 0.70028 0.59579 0.21992 0.0
C656 C 0.67828 0.64964 0.20223 0.0
C657 C 0.66488 0.64438 0.14035 0.0
C658 C 0.67748 0.66913 0.24595 0.0
C659 C 0.689 0.67381 0.31438 0.0
C660 C 0.68145 0.65139 0.35778 0.0
C661 C 0.69229 0.6559 0.42216 0.0
C662 C 0.71058 0.68275 0.44395 0.0
C663 C 0.71803 0.70518 0.40143 0.0
C664 C 0.70729 0.70079 0.33695 0.0
C665 C 0.59967 0.70136 0.12713 0.0
C666 C 0.61677 0.73001 0.11753 0.0
C667 C 0.61126 0.68464 0.1392 0.0
C668 C 0.64004 0.69642 0.14274 0.0
C669 C 0.65715 0.72481 0.13159 0.0
C670 C 0.64564 0.74144 0.11834 0.0
C671 C 0.65247 0.67956 0.16201 0.0
C672 C 0.66488 0.68411 0.22475 0.0
C673 C 0.65195 0.65914 0.11969 0.0
C674 C 0.63893 0.65347 0.05301 0.0
C675 C 0.64783 0.67459 0.00519 0.0
C676 C 0.63539 0.66906 0.94247 0.0
C677 C 0.61416 0.64243 0.92685 0.0
C678 C 0.60538 0.62126 0.97385 0.0
C679 C 0.61774 0.62669 0.03666 0.0
H680 H 0.60456 0.63818 0.87826 0.0
H681 H 0.71893 0.68619 0.49383 0.0
H682 H 0.89483 0.64546 0.28583 0.0
H683 H 0.94389 0.66099 0.28763 0.0
H684 H 0.92622 0.5785 0.33696 0.0
H685 H 0.87656 0.56272 0.337 0.0
H686 H 0.96774 0.61539 0.41069 0.0
H687 H 0.94929 0.60414 0.18124 0.0
H688 H 0.92968 0.60684 0.07359 0.0
H689 H 0.97712 0.69551 0.08045 0.0
H690 H -0.0033 0.6934 0.18866 0.0
H691 H 0.11843 0.68374 0.33847 0.0
H692 H 0.06893 0.65015 0.32591 0.0
H693 H 0.04979 0.71531 0.35481 0.0
H694 H 0.09887 0.74883 0.3688 0.0
H695 H 0.02792 0.67554 0.22907 0.0
H696 H 0.03513 0.68194 0.47595 0.0
H697 H 0.05589 0.67725 0.57994 0.0
H698 H 0.03108 0.59321 0.52977 0.0
H699 H 0.01034 0.59753 0.42517 0.0
C700 C 0.90122 0.63047 0.29664 0.0
C701 C 0.88172 0.60279 0.31087 0.0
C702 C 0.92935 0.63938 0.29732 0.0
C703 C 0.9387 0.62076 0.31096 0.0
C704 C 0.9194 0.59313 0.3258 0.0
C705 C 0.89108 0.58418 0.32575 0.0
C706 C 0.9688 0.63097 0.31182 0.0
C707 C 0.98084 0.62794 0.37023 0.0
C708 C 0.98598 0.64709 0.25877 0.0
C709 C 0.97442 0.64859 0.19332 0.0
C710 C 0.95543 0.62423 0.16002 0.0
C711 C 0.94432 0.62566 0.09885 0.0
C712 C 0.95213 0.65133 0.07022 0.0
C713 C 0.9711 0.67564 0.10267 0.0
C714 C 0.98226 0.67433 0.16388 0.0
C715 C 0.10362 0.69084 0.3425 0.0
C716 C 0.11247 0.71891 0.35453 0.0
C717 C 0.07548 0.67167 0.33542 0.0
C718 C 0.056 0.68045 0.33931 0.0
C719 C 0.06471 0.70832 0.35168 0.0
C720 C 0.0927 0.72736 0.35993 0.0
C721 C 0.02641 0.66101 0.32878 0.0
C722 C 0.01463 0.66228 0.26843 0.0
C723 C 0.00958 0.64287 0.37923 0.0
C724 C 0.02145 0.64013 0.44263 0.0
C725 C 0.03426 0.66253 0.48697 0.0
C726 C 0.04597 0.65992 0.54603 0.0
C727 C 0.04487 0.63497 0.56136 0.0
C728 C 0.03193 0.61253 0.5178 0.0
C729 C 0.02016 0.61503 0.4587 0.0
H730 H 0.05399 0.63301 0.60705 0.0
H731 H 0.9435 0.65239 0.02287 0.0
H732 H 0.51767 0.27582 0.43977 0.0
H733 H 0.55846 0.3196 0.41019 0.0
H734 H 0.52728 0.36386 0.52364 0.0
H735 H 0.48675 0.32009 0.55507 0.0
H736 H 0.56868 0.36436 0.34666 0.0
H737 H 0.58049 0.4189 0.59957 0.0
H738 H 0.56845 0.40659 0.71751 0.0
H739 H 0.56889 0.33062 0.68746 0.0
H740 H 0.58128 0.34265 0.56965 0.0
H741 H 0.67288 0.5019 0.30597 0.0
H742 H 0.62905 0.46266 0.34186 0.0
H743 H 0.67272 0.4368 0.47406 0.0
H744 H 0.7167 0.47643 0.43956 0.0
H745 H 0.62538 0.42711 0.52898 0.0
H746 H 0.654 0.40894 0.31974 0.0
H747 H 0.66939 0.41806 0.20292 0.0
H748 H 0.59376 0.41533 0.1476 0.0
H749 H 0.57809 0.40659 0.26435 0.0
C750 C 0.51929 0.29487 0.45779 0.0
C751 C 0.4991 0.29446 0.50037 0.0
C752 C 0.54264 0.31989 0.44082 0.0
C753 C 0.54616 0.34495 0.46573 0.0
C754 C 0.52528 0.34471 0.50512 0.0
C755 C 0.50207 0.31968 0.52277 0.0
C756 C 0.57217 0.37113 0.45253 0.0
C757 C 0.58098 0.37814 0.38651 0.0
C758 C 0.58857 0.38881 0.50465 0.0
C759 C 0.58151 0.38156 0.57566 0.0
C760 C 0.57811 0.39962 0.61823 0.0
C761 C 0.57121 0.39268 0.68503 0.0
C762 C 0.56781 0.36779 0.7099 0.0
C763 C 0.57142 0.34984 0.66809 0.0
C764 C 0.57836 0.3567 0.60128 0.0
C765 C 0.67316 0.48811 0.34346 0.0
C766 C 0.69829 0.49203 0.36925 0.0
C767 C 0.64809 0.46567 0.36378 0.0
C768 C 0.6477 0.44649 0.40942 0.0
C769 C 0.67259 0.45131 0.43849 0.0
C770 C 0.69771 0.47396 0.4187 0.0
C771 C 0.62165 0.42045 0.42312 0.0
C772 C 0.61289 0.41345 0.48916 0.0
C773 C 0.60573 0.4023 0.37119 0.0
C774 C 0.61501 0.4074 0.30087 0.0
C775 C 0.64074 0.41049 0.28274 0.0
C776 C 0.6495 0.41556 0.21654 0.0
C777 C 0.63259 0.41735 0.1679 0.0
C778 C 0.60685 0.41399 0.18535 0.0
C779 C 0.59802 0.40896 0.25152 0.0
H780 H 0.6394 0.42128 0.11667 0.0
H781 H 0.56244 0.36245 0.76161 0.0
H782 H 0.22081 0.50453 0.58813 0.0
H783 H 0.21704 0.54307 0.54232 0.0
H784 H 0.18548 0.55294 0.73005 0.0
H785 H 0.18821 0.51388 0.77532 0.0
H786 H 0.15937 0.56154 0.63538 0.0
H787 H 0.25453 0.59479 0.68505 0.0
H788 H 0.29928 0.59602 0.68303 0.0
H789 H 0.30307 0.6057 0.47082 0.0
H790 H 0.25818 0.60431 0.47157 0.0
H791 H 0.21074 0.71006 0.58419 0.0
H792 H 0.20611 0.66692 0.62868 0.0
H793 H 0.19774 0.63507 0.42959 0.0
H794 H 0.20155 0.67751 0.38481 0.0
H795 H 0.24329 0.63826 0.53131 0.0
H796 H 0.14538 0.60496 0.4893 0.0
H797 H 0.10285 0.60771 0.50169 0.0
H798 H 0.10728 0.60228 0.71383 0.0
H799 H 0.15012 0.59997 0.70269 0.0
C800 C 0.21285 0.51476 0.61944 0.0
C801 C 0.20504 0.50628 0.68551 0.0
C802 C 0.2108 0.53686 0.59331 0.0
C803 C 0.20152 0.55127 0.63321 0.0
C804 C 0.19276 0.54219 0.69836 0.0
C805 C 0.1944 0.51986 0.7242 0.0
C806 C 0.20191 0.57643 0.60801 0.0
C807 C 0.17781 0.57837 0.61312 0.0
C808 C 0.22596 0.59851 0.57908 0.0
C809 C 0.25287 0.59916 0.5783 0.0
C810 C 0.2648 0.59696 0.6379 0.0
C811 C 0.29022 0.59772 0.63699 0.0
C812 C 0.30397 0.60083 0.57678 0.0
C813 C 0.29237 0.60324 0.51739 0.0
C814 C 0.26696 0.60251 0.51804 0.0
C815 C 0.20766 0.69374 0.55005 0.0
C816 C 0.20647 0.69711 0.48109 0.0
C817 C 0.20494 0.66918 0.57547 0.0
C818 C 0.2015 0.64799 0.53217 0.0
C819 C 0.20023 0.65125 0.46353 0.0
C820 C 0.20235 0.67545 0.4382 0.0
C821 C 0.20079 0.62298 0.558 0.0
C822 C 0.2249 0.62126 0.55333 0.0
C823 C 0.17699 0.60148 0.58854 0.0
C824 C 0.15115 0.60266 0.5952 0.0
C825 C 0.13747 0.60468 0.53862 0.0
C826 C 0.11326 0.60608 0.5454 0.0
C827 C 0.10242 0.60527 0.60851 0.0
C828 C 0.11572 0.60296 0.66497 0.0
C829 C 0.13996 0.60159 0.65845 0.0
H830 H 0.08367 0.60633 0.61366 0.0
H831 H 0.32367 0.60146 0.57614 0.0
H832 H 0.71892 0.24891 0.75591 0.0
H833 H 0.67568 0.24518 0.71689 0.0
H834 H 0.62931 0.1682 0.82318 0.0
H835 H 0.67237 0.17233 0.8643 0.0
H836 H 0.63314 0.21086 0.64568 0.0
H837 H 0.57129 0.16334 0.88792 0.0
H838 H 0.57988 0.16201 0.00782 0.0
H839 H 0.65547 0.23964 0.99212 0.0
H840 H 0.64712 0.24175 0.87243 0.0
H841 H 0.49346 0.17157 0.58709 0.0
H842 H 0.53438 0.1699 0.62328 0.0
H843 H 0.55443 0.23672 0.76068 0.0
H844 H 0.51336 0.23818 0.72606 0.0
H845 H 0.56397 0.19973 0.81606 0.0
H846 H 0.58615 0.24868 0.60934 0.0
H847 H 0.57989 0.25564 0.49095 0.0
H848 H 0.58821 0.18555 0.43847 0.0
H849 H 0.59413 0.17793 0.55675 0.0
C850 C 0.69951 0.23105 0.77031 0.0
C851 C 0.69897 0.2111 0.81381 0.0
C852 C 0.67482 0.22893 0.74797 0.0
C853 C 0.64927 0.2067 0.76825 0.0
C854 C 0.64878 0.18588 0.80831 0.0
C855 C 0.67339 0.18823 0.83156 0.0
C856 C 0.6232 0.20597 0.7501 0.0
C857 C 0.61797 0.20832 0.68289 0.0
C858 C 0.60365 0.20323 0.79883 0.0
C859 C 0.6087 0.20252 0.87105 0.0
C860 C 0.58968 0.1802 0.91013 0.0
C861 C 0.59451 0.17932 0.97805 0.0
C862 C 0.61825 0.20072 0.00751 0.0
C863 C 0.63714 0.2231 0.96918 0.0
C864 C 0.63237 0.22414 0.90129 0.0
C865 C 0.5064 0.18573 0.62552 0.0
C866 C 0.50022 0.20516 0.65329 0.0
C867 C 0.52984 0.18482 0.6459 0.0
C868 C 0.54767 0.20351 0.69381 0.0
C869 C 0.54097 0.22215 0.72351 0.0
C870 C 0.51747 0.22296 0.70354 0.0
C871 C 0.5738 0.20434 0.71164 0.0
C872 C 0.57904 0.20204 0.77881 0.0
C873 C 0.59371 0.20797 0.66311 0.0
C874 C 0.5903 0.21257 0.59194 0.0
C875 C 0.58644 0.23463 0.5726 0.0
C876 C 0.58298 0.23871 0.50551 0.0
C877 C 0.58358 0.221 0.45723 0.0
C878 C 0.58771 0.19922 0.47594 0.0
C879 C 0.59113 0.19502 0.54298 0.0
H880 H 0.5809 0.2242 0.40532 0.0
H881 H 0.62199 0.19998 0.06006 0.0
H882 H 0.48059 0.72374 0.92392 0.0
H883 H 0.43892 0.68148 0.88947 0.0
H884 H 0.45947 0.63373 0.02222 0.0
H885 H 0.5009 0.67579 0.0577 0.0
H886 H 0.42648 0.63265 0.83465 0.0
H887 H 0.40114 0.58683 0.10148 0.0
H888 H 0.40977 0.60346 0.2175 0.0
H889 H 0.41851 0.68102 0.15519 0.0
H890 H 0.40951 0.6647 0.03906 0.0
H891 H 0.31953 0.49522 0.80995 0.0
H892 H 0.36272 0.5358 0.84398 0.0
H893 H 0.31672 0.56757 0.94765 0.0
H894 H 0.27337 0.52656 0.91545 0.0
H895 H 0.36109 0.57876 0.01558 0.0
H896 H 0.34121 0.58834 0.78986 0.0
H897 H 0.32987 0.57429 0.67267 0.0
H898 H 0.40688 0.57551 0.64867 0.0
H899 H 0.41835 0.58873 0.76637 0.0
C900 C 0.47652 0.7042 0.94499 0.0
C901 C 0.49387 0.7032 0.99432 0.0
C902 C 0.45269 0.68008 0.92521 0.0
C903 C 0.44587 0.65462 0.95436 0.0
C904 C 0.46411 0.65329 1.00017 0.0
C905 C 0.48782 0.67736 0.02023 0.0
C906 C 0.41893 0.62973 0.94008 0.0
C907 C 0.4122 0.62079 0.87411 0.0
C908 C 0.39999 0.6148 0.99155 0.0
C909 C 0.40494 0.62462 0.06149 0.0
C910 C 0.40478 0.60738 0.11261 0.0
C911 C 0.40975 0.61676 0.17838 0.0
C912 C 0.41477 0.64331 0.19367 0.0
C913 C 0.41472 0.6605 0.14326 0.0
C914 C 0.40971 0.6512 0.07746 0.0
C915 C 0.31861 0.51067 0.84077 0.0
C916 C 0.29306 0.50787 0.85948 0.0
C917 C 0.3433 0.53389 0.85991 0.0
C918 C 0.3429 0.555 0.89691 0.0
C919 C 0.31748 0.55157 0.91874 0.0
C920 C 0.29273 0.52812 0.90037 0.0
C921 C 0.36889 0.58117 0.91021 0.0
C922 C 0.3754 0.59047 0.97604 0.0
C923 C 0.38722 0.59689 0.8583 0.0
C924 C 0.38053 0.58929 0.78719 0.0
C925 C 0.35565 0.58542 0.75977 0.0
C926 C 0.3492 0.57763 0.69322 0.0
C927 C 0.36765 0.57407 0.65322 0.0
C928 C 0.39259 0.57827 0.67972 0.0
C929 C 0.39906 0.58587 0.7464 0.0
H930 H 0.36262 0.56808 0.60167 0.0
H931 H 0.41865 0.65055 0.2446 0.0
H932 H 0.79029 0.47238 0.28977 0.0
H933 H 0.79359 0.43367 0.24496 0.0
H934 H 0.78016 0.45442 0.04697 0.0
H935 H 0.77565 0.49277 0.09219 0.0
H936 H 0.75102 0.40176 0.06229 0.0
H937 H 0.84543 0.46748 0.10376 0.0
H938 H 0.88583 0.50164 0.1677 0.0
H939 H 0.87384 0.43898 0.30906 0.0
H940 H 0.8331 0.4045 0.24649 0.0
H941 H 0.79806 0.31924 0.9018 0.0
H942 H 0.80061 0.36091 0.94757 0.0
H943 H 0.77837 0.32281 0.14102 0.0
H944 H 0.77512 0.28044 0.09534 0.0
H945 H 0.82726 0.38467 0.12466 0.0
H946 H 0.72974 0.32022 0.08057 0.0
H947 H 0.69174 0.2873 0.00878 0.0
H948 H 0.71353 0.35061 0.86169 0.0
H949 H 0.752 0.38387 0.93243 0.0
C950 C 0.78825 0.46889 0.23657 0.0
C951 C 0.78286 0.48575 0.19442 0.0
C952 C 0.79028 0.44678 0.21095 0.0
C953 C 0.7877 0.44141 0.1424 0.0
C954 C 0.78234 0.45822 0.10004 0.0
C955 C 0.77981 0.48014 0.12587 0.0
C956 C 0.78953 0.41758 0.11568 0.0
C957 C 0.76794 0.39835 0.0753 0.0
C958 C 0.81143 0.41281 0.13308 0.0
C959 C 0.83605 0.43345 0.17069 0.0
C960 C 0.85128 0.46102 0.14873 0.0
C961 C 0.87426 0.48044 0.1847 0.0
C962 C 0.88236 0.4725 0.24249 0.0
C963 C 0.86753 0.4451 0.26432 0.0
C964 C 0.84451 0.4256 0.22858 0.0
C965 C 0.79404 0.31973 0.95432 0.0
C966 C 0.78626 0.29645 0.99495 0.0
C967 C 0.79549 0.34357 0.98024 0.0
C968 C 0.78961 0.34476 0.04738 0.0
C969 C 0.78301 0.32213 0.08898 0.0
C970 C 0.78106 0.29798 0.0628 0.0
C971 C 0.78868 0.36909 0.07257 0.0
C972 C 0.81046 0.38834 0.11209 0.0
C973 C 0.76729 0.37419 0.05349 0.0
C974 C 0.7439 0.35442 0.01144 0.0
C975 C 0.72657 0.32706 0.03267 0.0
C976 C 0.70492 0.30834 0.99221 0.0
C977 C 0.70025 0.3168 0.93056 0.0
C978 C 0.71718 0.34406 0.9094 0.0
C979 C 0.7389 0.36286 0.94969 0.0
H980 H 0.68348 0.30225 0.89928 0.0
H981 H 0.90015 0.48757 0.27027 0.0
H982 H 0.47596 0.74929 0.23335 0.0
H983 H 0.43552 0.75169 0.27116 0.0
H984 H 0.46576 0.82965 0.16965 0.0
H985 H 0.50572 0.82701 0.13021 0.0
H986 H 0.42475 0.78517 0.34238 0.0
H987 H 0.41302 0.83179 0.0951 0.0
H988 H 0.42482 0.83289 0.97646 0.0
H989 H 0.42393 0.75591 0.99849 0.0
H990 H 0.41174 0.75417 0.11693 0.0
H991 H 0.32133 0.8208 0.38968 0.0
H992 H 0.36489 0.82374 0.35731 0.0
H993 H 0.32147 0.75804 0.21506 0.0
H994 H 0.27796 0.75543 0.24578 0.0
H995 H 0.36848 0.79495 0.16473 0.0
H996 H 0.33919 0.74545 0.36994 0.0
H997 H 0.32397 0.73759 0.48694 0.0
H998 H 0.40058 0.80837 0.5463 0.0
H999 H 0.41611 0.81686 0.42945 0.0
C1000 C 0.4742 0.76715 0.22004 0.0
C1001 C 0.49377 0.78776 0.17806 0.0
C1002 C 0.4511 0.7685 0.24167 0.0
C1003 C 0.44737 0.79056 0.222 0.0
C1004 C 0.46792 0.81212 0.18407 0.0
C1005 C 0.49076 0.81061 0.16173 0.0
C1006 C 0.42123 0.79019 0.23733 0.0
C1007 C 0.41249 0.78742 0.30364 0.0
C1008 C 0.40488 0.79239 0.1865 0.0
C1009 C 0.41176 0.79302 0.11502 0.0
C1010 C 0.41523 0.81505 0.07452 0.0
C1011 C 0.422 0.81579 0.00733 0.0
C1012 C 0.42521 0.79453 0.98001 0.0
C1013 C 0.42153 0.77242 0.01976 0.0
C1014 C 0.41472 0.77156 0.08693 0.0
C1015 C 0.32108 0.8072 0.35091 0.0
C1016 C 0.29611 0.7877 0.32073 0.0
C1017 C 0.34598 0.80881 0.33274 0.0
C1018 C 0.34632 0.7907 0.28482 0.0
C1019 C 0.32166 0.77214 0.25238 0.0
C1020 C 0.29679 0.77069 0.27002 0.0
C1021 C 0.37216 0.79038 0.26996 0.0
C1022 C 0.38083 0.79295 0.20363 0.0
C1023 C 0.38792 0.78704 0.32055 0.0
C1024 C 0.37869 0.78196 0.39088 0.0
C1025 C 0.3527 0.75946 0.40789 0.0
C1026 C 0.34403 0.75487 0.47418 0.0
C1027 C 0.36126 0.77251 0.524 0.0
C1028 C 0.38724 0.79474 0.50764 0.0
C1029 C 0.39599 0.79945 0.44139 0.0
H1030 H 0.35452 0.76893 0.57531 0.0
H1031 H 0.43049 0.79517 0.92801 0.0
loop_
_geom_bond_atom_site_label_1
_geom_bond_atom_site_label_2
_geom_bond_distance
_geom_bond_site_symmetry_2
_ccdc_geom_bond_type
Sc0 O3 2.025 . S
Sc0 O10 2.105 . S
Sc0 O13 2.105 . S
Sc0 O16 2.105 . S
Sc0 O19 2.105 . S
Sc1 O3 2.025 . S
Sc1 O11 2.105 . S
Sc1 O15 2.105 . S
Sc1 O17 2.105 . S
Sc1 O21 2.105 . S
Sc2 O3 2.025 . S
Sc2 O12 2.105 . S
Sc2 O14 2.105 . S
Sc2 O18 2.105 . S
Sc2 O20 2.105 . S
O3 Sc0 2.025 . S
O3 Sc1 2.025 . S
O3 Sc2 2.025 . S
C4 O10 1.268 . S
C4 O20 1.268 . S
C5 O11 1.268 . S
C5 O19 1.268 . S
C6 O12 1.268 . S
C6 O21 1.268 . S
C7 O13 1.268 . S
C7 O17 1.268 . S
C8 O14 1.268 . S
C8 O16 1.268 . S
C9 O15 1.268 . S
C9 O18 1.268 . S
O10 Sc0 2.105 . S
O10 C4 1.268 . S
O11 Sc1 2.105 . S
O11 C5 1.268 . S
O12 Sc2 2.105 . S
O12 C6 1.268 . S
O13 Sc0 2.105 . S
O13 C7 1.268 . S
O14 Sc2 2.105 . S
O14 C8 1.268 . S
O15 Sc1 2.105 . S
O15 C9 1.268 . S
O16 Sc0 2.105 . S
O16 C8 1.268 . S
O17 Sc1 2.105 . S
O17 C7 1.268 . S
O18 Sc2 2.105 . S
O18 C9 1.268 . S
O19 Sc0 2.105 . S
O19 C5 1.268 . S
O20 Sc2 2.105 . S
O20 C4 1.268 . S
O21 Sc1 2.105 . S
O21 C6 1.268 . S
Sc22 O25 2.025 . S
Sc22 O32 2.105 . S
Sc22 O35 2.105 . S
Sc22 O38 2.105 . S
Sc22 O41 2.105 . S
Sc23 O25 2.025 . S
Sc23 O33 2.105 . S
Sc23 O37 2.105 . S
Sc23 O39 2.105 . S
Sc23 O43 2.105 . S
Sc24 O25 2.025 . S
Sc24 O34 2.105 . S
Sc24 O36 2.105 . S
Sc24 O40 2.105 . S
Sc24 O42 2.105 . S
O25 Sc22 2.025 . S
O25 Sc23 2.025 . S
O25 Sc24 2.025 . S
C26 O32 1.268 . S
C26 O42 1.268 . S
C27 O33 1.268 . S
C27 O41 1.268 . S
C28 O34 1.268 . S
C28 O43 1.268 . S
C29 O35 1.268 . S
C29 O39 1.268 . S
C30 O36 1.268 . S
C30 O38 1.268 . S
C31 O37 1.268 . S
C31 O40 1.268 . S
O32 Sc22 2.105 . S
O32 C26 1.268 . S
O33 Sc23 2.105 . S
O33 C27 1.268 . S
O34 Sc24 2.105 . S
O34 C28 1.268 . S
O35 Sc22 2.105 . S
O35 C29 1.268 . S
O36 Sc24 2.105 . S
O36 C30 1.268 . S
O37 Sc23 2.105 . S
O37 C31 1.268 . S
O38 Sc22 2.105 . S
O38 C30 1.268 . S
O39 Sc23 2.105 . S
O39 C29 1.268 . S
O40 Sc24 2.105 . S
O40 C31 1.268 . S
O41 Sc22 2.105 . S
O41 C27 1.268 . S
O42 Sc24 2.105 . S
O42 C26 1.268 . S
O43 Sc23 2.105 . S
O43 C28 1.268 . S
Sc44 O47 2.025 . S
Sc44 O54 2.105 . S
Sc44 O57 2.105 . S
Sc44 O60 2.105 . S
Sc44 O63 2.105 . S
Sc45 O47 2.025 . S
Sc45 O55 2.105 . S
Sc45 O59 2.105 . S
Sc45 O61 2.105 . S
Sc45 O65 2.105 1_556 S
Sc46 O47 2.025 . S
Sc46 O56 2.105 1_556 S
Sc46 O58 2.105 . S
Sc46 O62 2.105 . S
Sc46 O64 2.105 1_556 S
O47 Sc44 2.025 . S
O47 Sc45 2.025 . S
O47 Sc46 2.025 . S
C48 O54 1.268 . S
C48 O64 1.268 1_556 S
C49 O55 1.268 . S
C49 O63 1.268 . S
C50 O56 1.268 . S
C50 O65 1.268 . S
C51 O57 1.268 . S
C51 O61 1.268 . S
C52 O58 1.268 . S
C52 O60 1.268 . S
C53 O59 1.268 . S
C53 O62 1.268 . S
O54 Sc44 2.105 . S
O54 C48 1.268 . S
O55 Sc45 2.105 . S
O55 C49 1.268 . S
O56 Sc46 2.105 1_554 S
O56 C50 1.268 . S
O57 Sc44 2.105 . S
O57 C51 1.268 . S
O58 Sc46 2.105 . S
O58 C52 1.268 . S
O59 Sc45 2.105 . S
O59 C53 1.268 . S
O60 Sc44 2.105 . S
O60 C52 1.268 . S
O61 Sc45 2.105 . S
O61 C51 1.268 . S
O62 Sc46 2.105 . S
O62 C53 1.268 . S
O63 Sc44 2.105 . S
O63 C49 1.268 . S
O64 Sc46 2.105 1_554 S
O64 C48 1.268 1_554 S
O65 Sc45 2.105 1_554 S
O65 C50 1.268 . S
Sc66 O69 2.025 . S
Sc66 O76 2.105 . S
Sc66 O79 2.105 1_554 S
Sc66 O82 2.105 1_554 S
Sc66 O85 2.105 . S
Sc67 O69 2.025 . S
Sc67 O77 2.105 . S
Sc67 O81 2.105 . S
Sc67 O83 2.105 1_554 S
Sc67 O87 2.105 . S
Sc68 O69 2.025 . S
Sc68 O78 2.105 . S
Sc68 O80 2.105 . S
Sc68 O84 2.105 . S
Sc68 O86 2.105 . S
O69 Sc66 2.025 . S
O69 Sc67 2.025 . S
O69 Sc68 2.025 . S
C70 O76 1.268 . S
C70 O86 1.268 . S
C71 O77 1.268 . S
C71 O85 1.268 . S
C72 O78 1.268 . S
C72 O87 1.268 . S
C73 O79 1.268 . S
C73 O83 1.268 . S
C74 O80 1.268 . S
C74 O82 1.268 1_554 S
C75 O81 1.268 . S
C75 O84 1.268 . S
O76 Sc66 2.105 . S
O76 C70 1.268 . S
O77 Sc67 2.105 . S
O77 C71 1.268 . S
O78 Sc68 2.105 . S
O78 C72 1.268 . S
O79 Sc66 2.105 1_556 S
O79 C73 1.268 . S
O80 Sc68 2.105 . S
O80 C74 1.268 . S
O81 Sc67 2.105 . S
O81 C75 1.268 . S
O82 Sc66 2.105 1_556 S
O82 C74 1.268 1_556 S
O83 Sc67 2.105 1_556 S
O83 C73 1.268 . S
O84 Sc68 2.105 . S
O84 C75 1.268 . S
O85 Sc66 2.105 . S
O85 C71 1.268 . S
O86 Sc68 2.105 . S
O86 C70 1.268 . S
O87 Sc67 2.105 . S
O87 C72 1.268 . S
Sc88 O91 2.025 . S
Sc88 O98 2.105 . S
Sc88 O101 2.105 . S
Sc88 O104 2.105 . S
Sc88 O107 2.105 . S
Sc89 O91 2.025 . S
Sc89 O99 2.105 . S
Sc89 O103 2.105 . S
Sc89 O105 2.105 . S
Sc89 O109 2.105 . S
Sc90 O91 2.025 . S
Sc90 O100 2.105 . S
Sc90 O102 2.105 . S
Sc90 O106 2.105 . S
Sc90 O108 2.105 . S
O91 Sc88 2.025 . S
O91 Sc89 2.025 . S
O91 Sc90 2.025 . S
C92 O98 1.268 . S
C92 O108 1.268 . S
C93 O99 1.268 . S
C93 O107 1.268 . S
C94 O100 1.268 . S
C94 O109 1.268 . S
C95 O101 1.268 . S
C95 O105 1.268 . S
C96 O102 1.268 . S
C96 O104 1.268 . S
C97 O103 1.268 . S
C97 O106 1.268 . S
O98 Sc88 2.105 . S
O98 C92 1.268 . S
O99 Sc89 2.105 . S
O99 C93 1.268 . S
O100 Sc90 2.105 . S
O100 C94 1.268 . S
O101 Sc88 2.105 . S
O101 C95 1.268 . S
O102 Sc90 2.105 . S
O102 C96 1.268 . S
O103 Sc89 2.105 . S
O103 C97 1.268 . S
O104 Sc88 2.105 . S
O104 C96 1.268 . S
O105 Sc89 2.105 . S
O105 C95 1.268 . S
O106 Sc90 2.105 . S
O106 C97 1.268 . S
O107 Sc88 2.105 . S
O107 C93 1.268 . S
O108 Sc90 2.105 . S
O108 C92 1.268 . S
O109 Sc89 2.105 . S
O109 C94 1.268 . S
Sc110 O113 2.025 . S
Sc110 O120 2.105 . S
Sc110 O123 2.105 . S
Sc110 O126 2.105 . S
Sc110 O129 2.105 . S
Sc111 O113 2.025 . S
Sc111 O121 2.105 . S
Sc111 O125 2.105 . S
Sc111 O127 2.105 . S
Sc111 O131 2.105 . S
Sc112 O113 2.025 . S
Sc112 O122 2.105 . S
Sc112 O124 2.105 . S
Sc112 O128 2.105 . S
Sc112 O130 2.105 . S
O113 Sc110 2.025 . S
O113 Sc111 2.025 . S
O113 Sc112 2.025 . S
C114 O120 1.268 . S
C114 O130 1.268 . S
C115 O121 1.268 . S
C115 O129 1.268 . S
C116 O122 1.268 . S
C116 O131 1.268 . S
C117 O123 1.268 . S
C117 O127 1.268 . S
C118 O124 1.268 . S
C118 O126 1.268 . S
C119 O125 1.268 . S
C119 O128 1.268 . S
O120 Sc110 2.105 . S
O120 C114 1.268 . S
O121 Sc111 2.105 . S
O121 C115 1.268 . S
O122 Sc112 2.105 . S
O122 C116 1.268 . S
O123 Sc110 2.105 . S
O123 C117 1.268 . S
O124 Sc112 2.105 . S
O124 C118 1.268 . S
O125 Sc111 2.105 . S
O125 C119 1.268 . S
O126 Sc110 2.105 . S
O126 C118 1.268 . S
O127 Sc111 2.105 . S
O127 C117 1.268 . S
O128 Sc112 2.105 . S
O128 C119 1.268 . S
O129 Sc110 2.105 . S
O129 C115 1.268 . S
O130 Sc112 2.105 . S
O130 C114 1.268 . S
O131 Sc111 2.105 . S
O131 C116 1.268 . S
H132 C150 0.951 . S
H133 C152 0.951 . S
H134 C154 0.950 . S
H135 C155 0.950 . S
H136 C157 0.950 . S
H137 C160 0.950 . S
H138 C161 0.950 . S
H139 C163 0.950 . S
H140 C164 0.950 . S
H141 C165 0.951 . S
H142 C167 0.951 . S
H143 C169 0.950 . S
H144 C170 0.950 . S
H145 C172 0.950 . S
H146 C175 0.950 . S
H147 C176 0.950 . S
H148 C178 0.950 . S
H149 C179 0.950 . S
C150 H132 0.951 . S
C150 C151 1.366 . S
C150 C152 1.388 . S
C151 C150 1.366 . S
C151 C155 1.385 . S
C152 H133 0.951 . S
C152 C150 1.388 . S
C152 C153 1.366 . S
C153 C152 1.366 . S
C153 C154 1.414 . S
C153 C156 1.499 . S
C154 H134 0.950 . S
C154 C153 1.414 . S
C154 C155 1.374 . S
C155 H135 0.950 . S
C155 C151 1.385 . S
C155 C154 1.374 . S
C156 C153 1.499 . S
C156 C157 1.373 . S
C156 C158 1.389 . S
C157 H136 0.950 . S
C157 C156 1.373 . S
C157 C173 1.377 . S
C158 C156 1.389 . S
C158 C159 1.524 . S
C158 C172 1.377 . S
C159 C158 1.524 . S
C159 C160 1.397 . S
C159 C164 1.363 . S
C160 H137 0.950 . S
C160 C159 1.397 . S
C160 C161 1.334 . S
C161 H138 0.950 . S
C161 C160 1.334 . S
C161 C162 1.287 . S
C162 C161 1.287 . S
C162 C163 1.524 . S
C162 H181 0.913 . S
C163 H139 0.950 . S
C163 C162 1.524 . S
C163 C164 1.415 . S
C164 H140 0.950 . S
C164 C159 1.363 . S
C164 C163 1.415 . S
C165 H141 0.951 . S
C165 C166 1.366 . S
C165 C167 1.388 . S
C166 C165 1.366 . S
C166 C170 1.385 . S
C167 H142 0.951 . S
C167 C165 1.388 . S
C167 C168 1.366 . S
C168 C167 1.366 . S
C168 C169 1.414 . S
C168 C171 1.499 1_556 S
C169 H143 0.950 . S
C169 C168 1.414 . S
C169 C170 1.374 . S
C170 H144 0.950 . S
C170 C166 1.385 . S
C170 C169 1.374 . S
C171 C168 1.499 1_554 S
C171 C172 1.373 . S
C171 C173 1.389 . S
C172 H145 0.950 . S
C172 C158 1.377 . S
C172 C171 1.373 . S
C173 C157 1.377 . S
C173 C171 1.389 . S
C173 C174 1.524 . S
C174 C173 1.524 . S
C174 C175 1.397 1_554 S
C174 C179 1.363 . S
C175 H146 0.950 . S
C175 C174 1.397 1_556 S
C175 C176 1.334 . S
C176 H147 0.950 . S
C176 C175 1.334 . S
C176 C177 1.287 . S
C177 C176 1.287 . S
C177 C178 1.524 1_556 S
C177 H180 0.999 . S
C178 H148 0.950 . S
C178 C177 1.524 1_554 S
C178 C179 1.415 . S
C179 H149 0.950 . S
C179 C174 1.363 . S
C179 C178 1.415 . S
H180 C177 0.999 . S
H181 C162 0.913 . S
H182 C200 0.951 . S
H183 C202 0.951 . S
H184 C204 0.950 . S
H185 C205 0.950 . S
H186 C207 0.950 . S
H187 C210 0.950 . S
H188 C211 0.950 . S
H189 C213 0.950 . S
H190 C214 0.950 . S
H191 C215 0.952 1_556 S
H192 C217 0.951 . S
H193 C219 0.950 . S
H194 C220 0.950 1_556 S
H195 C222 0.950 . S
H196 C225 0.950 . S
H197 C226 0.950 . S
H198 C228 0.950 . S
H199 C229 0.950 . S
C200 H182 0.951 . S
C200 C201 1.366 . S
C200 C202 1.388 . S
C201 C200 1.366 . S
C201 C205 1.385 . S
C202 H183 0.951 . S
C202 C200 1.388 . S
C202 C203 1.366 . S
C203 C202 1.366 . S
C203 C204 1.414 . S
C203 C206 1.499 . S
C204 H184 0.950 . S
C204 C203 1.414 . S
C204 C205 1.374 . S
C205 H185 0.950 . S
C205 C201 1.385 . S
C205 C204 1.374 . S
C206 C203 1.499 . S
C206 C207 1.373 . S
C206 C208 1.389 . S
C207 H186 0.950 . S
C207 C206 1.373 . S
C207 C223 1.377 . S
C208 C206 1.389 . S
C208 C209 1.524 . S
C208 C222 1.377 . S
C209 C208 1.524 . S
C209 C210 1.397 . S
C209 C214 1.363 . S
C210 H187 0.950 . S
C210 C209 1.397 . S
C210 C211 1.334 . S
C211 H188 0.950 . S
C211 C210 1.334 . S
C211 C212 1.287 . S
C212 C211 1.287 . S
C212 C213 1.524 . S
C212 H231 0.913 . S
C213 H189 0.950 . S
C213 C212 1.524 . S
C213 C214 1.415 . S
C214 H190 0.950 . S
C214 C209 1.363 . S
C214 C213 1.415 . S
C215 H191 0.952 1_554 S
C215 C216 1.367 1_554 S
C215 C217 1.386 . S
C216 C215 1.367 1_556 S
C216 C220 1.385 1_556 S
C217 H192 0.951 . S
C217 C215 1.386 . S
C217 C218 1.366 . S
C218 C217 1.366 . S
C218 C219 1.414 . S
C218 C221 1.499 . S
C219 H193 0.950 . S
C219 C218 1.414 . S
C219 C220 1.374 . S
C220 H194 0.950 1_554 S
C220 C216 1.385 1_554 S
C220 C219 1.374 . S
C221 C218 1.499 . S
C221 C222 1.373 . S
C221 C223 1.389 . S
C222 H195 0.950 . S
C222 C208 1.377 . S
C222 C221 1.373 . S
C223 C207 1.377 . S
C223 C221 1.389 . S
C223 C224 1.524 . S
C224 C223 1.524 . S
C224 C225 1.397 . S
C224 C229 1.363 . S
C225 H196 0.950 . S
C225 C224 1.397 . S
C225 C226 1.334 . S
C226 H197 0.950 . S
C226 C225 1.334 . S
C226 C227 1.287 . S
C227 C226 1.287 . S
C227 C228 1.524 . S
C227 H230 0.999 . S
C228 H198 0.950 . S
C228 C227 1.524 . S
C228 C229 1.415 . S
C229 H199 0.950 . S
C229 C224 1.363 . S
C229 C228 1.415 . S
H230 C227 0.999 . S
H231 C212 0.913 . S
H232 C250 0.951 . S
H233 C252 0.951 . S
H234 C254 0.950 . S
H235 C255 0.950 . S
H236 C257 0.950 . S
H237 C260 0.950 . S
H238 C261 0.950 . S
H239 C263 0.950 . S
H240 C264 0.950 . S
H241 C265 0.951 . S
H242 C267 0.951 . S
H243 C269 0.950 . S
H244 C270 0.950 . S
H245 C272 0.950 . S
H246 C275 0.950 . S
H247 C276 0.950 . S
H248 C278 0.950 . S
H249 C279 0.950 . S
C250 H232 0.951 . S
C250 C251 1.366 . S
C250 C252 1.388 . S
C251 C250 1.366 . S
C251 C255 1.385 . S
C252 H233 0.951 . S
C252 C250 1.388 . S
C252 C253 1.366 . S
C253 C252 1.366 . S
C253 C254 1.414 . S
C253 C256 1.499 . S
C254 H234 0.950 . S
C254 C253 1.414 . S
C254 C255 1.374 . S
C255 H235 0.950 . S
C255 C251 1.385 . S
C255 C254 1.374 . S
C256 C253 1.499 . S
C256 C257 1.373 . S
C256 C258 1.389 . S
C257 H236 0.950 . S
C257 C256 1.373 . S
C257 C273 1.377 . S
C258 C256 1.389 . S
C258 C259 1.524 . S
C258 C272 1.377 . S
C259 C258 1.524 . S
C259 C260 1.397 . S
C259 C264 1.363 . S
C260 H237 0.950 . S
C260 C259 1.397 . S
C260 C261 1.334 . S
C261 H238 0.950 . S
C261 C260 1.334 . S
C261 C262 1.287 . S
C262 C261 1.287 . S
C262 C263 1.524 . S
C262 H281 0.913 . S
C263 H239 0.950 . S
C263 C262 1.524 . S
C263 C264 1.415 . S
C264 H240 0.950 . S
C264 C259 1.363 . S
C264 C263 1.415 . S
C265 H241 0.951 . S
C265 C266 1.366 . S
C265 C267 1.388 . S
C266 C265 1.366 . S
C266 C270 1.385 . S
C267 H242 0.951 . S
C267 C265 1.388 . S
C267 C268 1.366 . S
C268 C267 1.366 . S
C268 C269 1.414 . S
C268 C271 1.499 . S
C269 H243 0.950 . S
C269 C268 1.414 . S
C269 C270 1.374 . S
C270 H244 0.950 . S
C270 C266 1.385 . S
C270 C269 1.374 . S
C271 C268 1.499 . S
C271 C272 1.373 . S
C271 C273 1.389 . S
C272 H245 0.950 . S
C272 C258 1.377 . S
C272 C271 1.373 . S
C273 C257 1.377 . S
C273 C271 1.389 . S
C273 C274 1.524 . S
C274 C273 1.524 . S
C274 C275 1.397 . S
C274 C279 1.363 . S
C275 H246 0.950 . S
C275 C274 1.397 . S
C275 C276 1.334 . S
C276 H247 0.950 . S
C276 C275 1.334 . S
C276 C277 1.287 . S
C277 C276 1.287 . S
C277 C278 1.524 . S
C277 H280 0.999 . S
C278 H248 0.950 . S
C278 C277 1.524 . S
C278 C279 1.415 . S
C279 H249 0.950 . S
C279 C274 1.363 . S
C279 C278 1.415 . S
H280 C277 0.999 . S
H281 C262 0.913 . S
H282 C300 0.951 . S
H283 C302 0.951 . S
H284 C304 0.950 . S
H285 C305 0.950 . S
H286 C307 0.950 . S
H287 C310 0.950 . S
H288 C311 0.950 . S
H289 C313 0.950 . S
H290 C314 0.950 . S
H291 C315 0.951 . S
H292 C317 0.951 . S
H293 C319 0.950 . S
H294 C320 0.950 . S
H295 C322 0.950 . S
H296 C325 0.950 . S
H297 C326 0.950 . S
H298 C328 0.950 . S
H299 C329 0.950 . S
C300 H282 0.951 . S
C300 C301 1.366 . S
C300 C302 1.388 . S
C301 C300 1.366 . S
C301 C305 1.385 . S
C302 H283 0.951 . S
C302 C300 1.388 . S
C302 C303 1.366 . S
C303 C302 1.366 . S
C303 C304 1.414 . S
C303 C306 1.499 . S
C304 H284 0.950 . S
C304 C303 1.414 . S
C304 C305 1.374 . S
C305 H285 0.950 . S
C305 C301 1.385 . S
C305 C304 1.374 . S
C306 C303 1.499 . S
C306 C307 1.373 . S
C306 C308 1.389 . S
C307 H286 0.950 . S
C307 C306 1.373 . S
C307 C323 1.377 . S
C308 C306 1.389 . S
C308 C309 1.524 . S
C308 C322 1.377 . S
C309 C308 1.524 . S
C309 C310 1.397 . S
C309 C314 1.363 . S
C310 H287 0.950 . S
C310 C309 1.397 . S
C310 C311 1.334 . S
C311 H288 0.950 . S
C311 C310 1.334 . S
C311 C312 1.287 . S
C312 C311 1.287 . S
C312 C313 1.524 . S
C312 H331 0.913 . S
C313 H289 0.950 . S
C313 C312 1.524 . S
C313 C314 1.415 . S
C314 H290 0.950 . S
C314 C309 1.363 . S
C314 C313 1.415 . S
C315 H291 0.951 . S
C315 C316 1.366 . S
C315 C317 1.388 . S
C316 C315 1.366 . S
C316 C320 1.385 . S
C317 H292 0.951 . S
C317 C315 1.388 . S
C317 C318 1.366 . S
C318 C317 1.366 . S
C318 C319 1.414 . S
C318 C321 1.499 . S
C319 H293 0.950 . S
C319 C318 1.414 . S
C319 C320 1.374 . S
C320 H294 0.950 . S
C320 C316 1.385 . S
C320 C319 1.374 . S
C321 C318 1.499 . S
C321 C322 1.373 . S
C321 C323 1.389 . S
C322 H295 0.950 . S
C322 C308 1.377 . S
C322 C321 1.373 . S
C323 C307 1.377 . S
C323 C321 1.389 . S
C323 C324 1.524 . S
C324 C323 1.524 . S
C324 C325 1.397 . S
C324 C329 1.363 . S
C325 H296 0.950 . S
C325 C324 1.397 . S
C325 C326 1.334 . S
C326 H297 0.950 . S
C326 C325 1.334 . S
C326 C327 1.287 . S
C327 C326 1.287 . S
C327 C328 1.524 . S
C327 H330 0.999 . S
C328 H298 0.950 . S
C328 C327 1.524 . S
C328 C329 1.415 . S
C329 H299 0.950 . S
C329 C324 1.363 . S
C329 C328 1.415 . S
H330 C327 0.999 . S
H331 C312 0.913 . S
H332 C350 0.951 . S
H333 C352 0.951 . S
H334 C354 0.950 . S
H335 C355 0.950 . S
H336 C357 0.950 . S
H337 C360 0.950 . S
H338 C361 0.950 . S
H339 C363 0.950 . S
H340 C364 0.950 . S
H341 C365 0.951 1_554 S
H342 C367 0.951 . S
H343 C369 0.950 . S
H344 C370 0.950 1_554 S
H345 C372 0.950 . S
H346 C375 0.950 . S
H347 C376 0.950 . S
H348 C378 0.950 . S
H349 C379 0.950 . S
C350 H332 0.951 . S
C350 C351 1.366 . S
C350 C352 1.388 . S
C351 C350 1.366 . S
C351 C355 1.385 . S
C352 H333 0.951 . S
C352 C350 1.388 . S
C352 C353 1.366 . S
C353 C352 1.366 . S
C353 C354 1.414 . S
C353 C356 1.499 . S
C354 H334 0.950 . S
C354 C353 1.414 . S
C354 C355 1.374 . S
C355 H335 0.950 . S
C355 C351 1.385 . S
C355 C354 1.374 . S
C356 C353 1.499 . S
C356 C357 1.373 . S
C356 C358 1.389 . S
C357 H336 0.950 . S
C357 C356 1.373 . S
C357 C373 1.377 . S
C358 C356 1.389 . S
C358 C359 1.524 . S
C358 C372 1.377 . S
C359 C358 1.524 . S
C359 C360 1.397 . S
C359 C364 1.363 . S
C360 H337 0.950 . S
C360 C359 1.397 . S
C360 C361 1.334 . S
C361 H338 0.950 . S
C361 C360 1.334 . S
C361 C362 1.287 . S
C362 C361 1.287 . S
C362 C363 1.524 . S
C362 H381 0.913 . S
C363 H339 0.950 . S
C363 C362 1.524 . S
C363 C364 1.415 . S
C364 H340 0.950 . S
C364 C359 1.363 . S
C364 C363 1.415 . S
C365 H341 0.951 1_556 S
C365 C366 1.366 1_556 S
C365 C367 1.388 . S
C366 C365 1.366 1_554 S
C366 C370 1.385 1_554 S
C367 H342 0.951 . S
C367 C365 1.388 . S
C367 C368 1.366 . S
C368 C367 1.366 . S
C368 C369 1.414 . S
C368 C371 1.499 . S
C369 H343 0.950 . S
C369 C368 1.414 . S
C369 C370 1.374 . S
C370 H344 0.950 1_556 S
C370 C366 1.385 1_556 S
C370 C369 1.374 . S
C371 C368 1.499 . S
C371 C372 1.373 . S
C371 C373 1.389 . S
C372 H345 0.950 . S
C372 C358 1.377 . S
C372 C371 1.373 . S
C373 C357 1.377 . S
C373 C371 1.389 . S
C373 C374 1.524 . S
C374 C373 1.524 . S
C374 C375 1.397 . S
C374 C379 1.363 . S
C375 H346 0.950 . S
C375 C374 1.397 . S
C375 C376 1.334 . S
C376 H347 0.950 . S
C376 C375 1.334 . S
C376 C377 1.287 . S
C377 C376 1.287 . S
C377 C378 1.524 . S
C377 H380 0.999 . S
C378 H348 0.950 . S
C378 C377 1.524 . S
C378 C379 1.415 . S
C379 H349 0.950 . S
C379 C374 1.363 . S
C379 C378 1.415 . S
H380 C377 0.999 . S
H381 C362 0.913 . S
H382 C400 0.951 . S
H383 C402 0.951 . S
H384 C404 0.950 . S
H385 C405 0.950 . S
H386 C407 0.950 . S
H387 C410 0.950 . S
H388 C411 0.950 . S
H389 C413 0.950 . S
H390 C414 0.950 . S
H391 C415 0.951 . S
H392 C417 0.951 . S
H393 C419 0.950 . S
H394 C420 0.950 . S
H395 C422 0.950 . S
H396 C425 0.950 . S
H397 C426 0.950 . S
H398 C428 0.950 . S
H399 C429 0.950 . S
C400 H382 0.951 . S
C400 C401 1.366 . S
C400 C402 1.388 . S
C401 C400 1.366 . S
C401 C405 1.385 . S
C402 H383 0.951 . S
C402 C400 1.388 . S
C402 C403 1.366 . S
C403 C402 1.366 . S
C403 C404 1.414 . S
C403 C406 1.499 1_554 S
C404 H384 0.950 . S
C404 C403 1.414 . S
C404 C405 1.374 . S
C405 H385 0.950 . S
C405 C401 1.385 . S
C405 C404 1.374 . S
C406 C403 1.499 1_556 S
C406 C407 1.373 . S
C406 C408 1.389 . S
C407 H386 0.950 . S
C407 C406 1.373 . S
C407 C423 1.377 . S
C408 C406 1.389 . S
C408 C409 1.524 . S
C408 C422 1.377 . S
C409 C408 1.524 . S
C409 C410 1.397 1_556 S
C409 C414 1.363 . S
C410 H387 0.950 . S
C410 C409 1.397 1_554 S
C410 C411 1.334 . S
C411 H388 0.950 . S
C411 C410 1.334 . S
C411 C412 1.287 . S
C412 C411 1.287 . S
C412 C413 1.524 1_554 S
C412 H431 0.913 . S
C413 H389 0.950 . S
C413 C412 1.524 1_556 S
C413 C414 1.415 . S
C414 H390 0.950 . S
C414 C409 1.363 . S
C414 C413 1.415 . S
C415 H391 0.951 . S
C415 C416 1.366 . S
C415 C417 1.388 . S
C416 C415 1.366 . S
C416 C420 1.385 . S
C417 H392 0.951 . S
C417 C415 1.388 . S
C417 C418 1.366 . S
C418 C417 1.366 . S
C418 C419 1.414 . S
C418 C421 1.499 . S
C419 H393 0.950 . S
C419 C418 1.414 . S
C419 C420 1.374 . S
C420 H394 0.950 . S
C420 C416 1.385 . S
C420 C419 1.374 . S
C421 C418 1.499 . S
C421 C422 1.373 . S
C421 C423 1.389 . S
C422 H395 0.950 . S
C422 C408 1.377 . S
C422 C421 1.373 . S
C423 C407 1.377 . S
C423 C421 1.389 . S
C423 C424 1.524 . S
C424 C423 1.524 . S
C424 C425 1.397 . S
C424 C429 1.363 . S
C425 H396 0.950 . S
C425 C424 1.397 . S
C425 C426 1.334 . S
C426 H397 0.950 . S
C426 C425 1.334 . S
C426 C427 1.287 . S
C427 C426 1.287 . S
C427 C428 1.524 . S
C427 H430 0.999 . S
C428 H398 0.950 . S
C428 C427 1.524 . S
C428 C429 1.415 . S
C429 H399 0.950 . S
C429 C424 1.363 . S
C429 C428 1.415 . S
H430 C427 0.999 . S
H431 C412 0.913 . S
H432 C450 0.951 . S
H433 C452 0.951 . S
H434 C454 0.950 . S
H435 C455 0.950 . S
H436 C457 0.950 . S
H437 C460 0.950 . S
H438 C461 0.950 . S
H439 C463 0.950 . S
H440 C464 0.950 . S
H441 C465 0.951 . S
H442 C467 0.951 . S
H443 C469 0.950 . S
H444 C470 0.950 . S
H445 C472 0.950 . S
H446 C475 0.950 . S
H447 C476 0.950 . S
H448 C478 0.950 . S
H449 C479 0.950 . S
C450 H432 0.951 . S
C450 C451 1.366 . S
C450 C452 1.388 . S
C451 C450 1.366 . S
C451 C455 1.385 . S
C452 H433 0.951 . S
C452 C450 1.388 . S
C452 C453 1.366 . S
C453 C452 1.366 . S
C453 C454 1.414 . S
C453 C456 1.499 . S
C454 H434 0.950 . S
C454 C453 1.414 . S
C454 C455 1.374 . S
C455 H435 0.950 . S
C455 C451 1.385 . S
C455 C454 1.374 . S
C456 C453 1.499 . S
C456 C457 1.373 . S
C456 C458 1.389 . S
C457 H436 0.950 . S
C457 C456 1.373 . S
C457 C473 1.377 1_545 S
C458 C456 1.389 . S
C458 C459 1.524 . S
C458 C472 1.377 1_545 S
C459 C458 1.524 . S
C459 C460 1.397 . S
C459 C464 1.363 . S
C460 H437 0.950 . S
C460 C459 1.397 . S
C460 C461 1.334 . S
C461 H438 0.950 . S
C461 C460 1.334 . S
C461 C462 1.287 . S
C462 C461 1.287 . S
C462 C463 1.524 . S
C462 H481 0.913 . S
C463 H439 0.950 . S
C463 C462 1.524 . S
C463 C464 1.415 . S
C464 H440 0.950 . S
C464 C459 1.363 . S
C464 C463 1.415 . S
C465 H441 0.951 . S
C465 C466 1.366 . S
C465 C467 1.388 . S
C466 C465 1.366 . S
C466 C470 1.385 . S
C467 H442 0.951 . S
C467 C465 1.388 . S
C467 C468 1.366 . S
C468 C467 1.366 . S
C468 C469 1.414 . S
C468 C471 1.499 . S
C469 H443 0.950 . S
C469 C468 1.414 . S
C469 C470 1.374 . S
C470 H444 0.950 . S
C470 C466 1.385 . S
C470 C469 1.374 . S
C471 C468 1.499 . S
C471 C472 1.373 . S
C471 C473 1.389 . S
C472 H445 0.950 . S
C472 C458 1.377 1_565 S
C472 C471 1.373 . S
C473 C457 1.377 1_565 S
C473 C471 1.389 . S
C473 C474 1.524 . S
C474 C473 1.524 . S
C474 C475 1.397 . S
C474 C479 1.363 . S
C475 H446 0.950 . S
C475 C474 1.397 . S
C475 C476 1.334 . S
C476 H447 0.950 . S
C476 C475 1.334 . S
C476 C477 1.287 . S
C477 C476 1.287 . S
C477 C478 1.524 . S
C477 H480 0.999 . S
C478 H448 0.950 . S
C478 C477 1.524 . S
C478 C479 1.415 . S
C479 H449 0.950 . S
C479 C474 1.363 . S
C479 C478 1.415 . S
H480 C477 0.999 . S
H481 C462 0.913 . S
H482 C500 0.951 . S
H483 C502 0.951 . S
H484 C504 0.950 . S
H485 C505 0.950 . S
H486 C507 0.950 . S
H487 C510 0.950 . S
H488 C511 0.950 . S
H489 C513 0.950 . S
H490 C514 0.950 . S
H491 C515 0.951 . S
H492 C517 0.951 . S
H493 C519 0.950 . S
H494 C520 0.950 . S
H495 C522 0.950 . S
H496 C525 0.950 . S
H497 C526 0.950 . S
H498 C528 0.950 . S
H499 C529 0.950 . S
C500 H482 0.951 . S
C500 C501 1.366 . S
C500 C502 1.388 . S
C501 C500 1.366 . S
C501 C505 1.385 . S
C502 H483 0.951 . S
C502 C500 1.388 . S
C502 C503 1.366 . S
C503 C502 1.366 . S
C503 C504 1.414 . S
C503 C506 1.499 . S
C504 H484 0.950 . S
C504 C503 1.414 . S
C504 C505 1.374 . S
C505 H485 0.950 . S
C505 C501 1.385 . S
C505 C504 1.374 . S
C506 C503 1.499 . S
C506 C507 1.373 . S
C506 C508 1.389 . S
C507 H486 0.950 . S
C507 C506 1.373 . S
C507 C523 1.377 . S
C508 C506 1.389 . S
C508 C509 1.524 . S
C508 C522 1.377 . S
C509 C508 1.524 . S
C509 C510 1.397 . S
C509 C514 1.363 . S
C510 H487 0.950 . S
C510 C509 1.397 . S
C510 C511 1.334 . S
C511 H488 0.950 . S
C511 C510 1.334 . S
C511 C512 1.287 . S
C512 C511 1.287 . S
C512 C513 1.524 . S
C512 H531 0.913 . S
C513 H489 0.950 . S
C513 C512 1.524 . S
C513 C514 1.415 . S
C514 H490 0.950 . S
C514 C509 1.363 . S
C514 C513 1.415 . S
C515 H491 0.951 . S
C515 C516 1.366 . S
C515 C517 1.388 . S
C516 C515 1.366 . S
C516 C520 1.385 . S
C517 H492 0.951 . S
C517 C515 1.388 . S
C517 C518 1.366 . S
C518 C517 1.366 . S
C518 C519 1.414 . S
C518 C521 1.499 . S
C519 H493 0.950 . S
C519 C518 1.414 . S
C519 C520 1.374 . S
C520 H494 0.950 . S
C520 C516 1.385 . S
C520 C519 1.374 . S
C521 C518 1.499 . S
C521 C522 1.373 . S
C521 C523 1.389 . S
C522 H495 0.950 . S
C522 C508 1.377 . S
C522 C521 1.373 . S
C523 C507 1.377 . S
C523 C521 1.389 . S
C523 C524 1.524 . S
C524 C523 1.524 . S
C524 C525 1.397 . S
C524 C529 1.363 . S
C525 H496 0.950 . S
C525 C524 1.397 . S
C525 C526 1.334 . S
C526 H497 0.950 . S
C526 C525 1.334 . S
C526 C527 1.287 . S
C527 C526 1.287 . S
C527 C528 1.524 . S
C527 H530 0.999 . S
C528 H498 0.950 . S
C528 C527 1.524 . S
C528 C529 1.415 . S
C529 H499 0.950 . S
C529 C524 1.363 . S
C529 C528 1.415 . S
H530 C527 0.999 . S
H531 C512 0.913 . S
H532 C550 0.951 . S
H533 C552 0.951 . S
H534 C554 0.950 . S
H535 C555 0.950 . S
H536 C557 0.950 . S
H537 C560 0.950 . S
H538 C561 0.950 . S
H539 C563 0.950 . S
H540 C564 0.950 . S
H541 C565 0.951 . S
H542 C567 0.951 . S
H543 C569 0.950 . S
H544 C570 0.950 . S
H545 C572 0.950 . S
H546 C575 0.950 . S
H547 C576 0.943 1_554 S
H548 C578 0.950 . S
H549 C579 0.950 . S
C550 H532 0.951 . S
C550 C551 1.366 . S
C550 C552 1.388 . S
C551 C550 1.366 . S
C551 C555 1.385 . S
C552 H533 0.951 . S
C552 C550 1.388 . S
C552 C553 1.366 . S
C553 C552 1.366 . S
C553 C554 1.414 . S
C553 C556 1.499 . S
C554 H534 0.950 . S
C554 C553 1.414 . S
C554 C555 1.374 . S
C555 H535 0.950 . S
C555 C551 1.385 . S
C555 C554 1.374 . S
C556 C553 1.499 . S
C556 C557 1.373 . S
C556 C558 1.389 . S
C557 H536 0.950 . S
C557 C556 1.373 . S
C557 C573 1.377 1_655 S
C558 C556 1.389 . S
C558 C559 1.524 . S
C558 C572 1.377 1_655 S
C559 C558 1.524 . S
C559 C560 1.397 . S
C559 C564 1.363 . S
C560 H537 0.950 . S
C560 C559 1.397 . S
C560 C561 1.334 . S
C561 H538 0.950 . S
C561 C560 1.334 . S
C561 C562 1.287 . S
C562 C561 1.287 . S
C562 C563 1.524 . S
C562 H581 0.913 . S
C563 H539 0.950 . S
C563 C562 1.524 . S
C563 C564 1.415 . S
C564 H540 0.950 . S
C564 C559 1.363 . S
C564 C563 1.415 . S
C565 H541 0.951 . S
C565 C566 1.366 . S
C565 C567 1.388 . S
C566 C565 1.366 . S
C566 C570 1.385 . S
C567 H542 0.951 . S
C567 C565 1.388 . S
C567 C568 1.366 . S
C568 C567 1.366 . S
C568 C569 1.414 . S
C568 C571 1.499 . S
C569 H543 0.950 . S
C569 C568 1.414 . S
C569 C570 1.374 . S
C570 H544 0.950 . S
C570 C566 1.385 . S
C570 C569 1.374 . S
C571 C568 1.499 . S
C571 C572 1.373 . S
C571 C573 1.389 . S
C572 H545 0.950 . S
C572 C558 1.377 1_455 S
C572 C571 1.373 . S
C573 C557 1.377 1_455 S
C573 C571 1.389 . S
C573 C574 1.524 . S
C574 C573 1.524 . S
C574 C575 1.397 . S
C574 C579 1.363 . S
C575 H546 0.950 . S
C575 C574 1.397 . S
C575 C576 1.334 . S
C576 H547 0.943 1_556 S
C576 C575 1.334 . S
C576 C577 1.287 . S
C577 C576 1.287 . S
C577 C578 1.524 . S
C577 H580 0.999 . S
C578 H548 0.950 . S
C578 C577 1.524 . S
C578 C579 1.415 . S
C579 H549 0.950 . S
C579 C574 1.363 . S
C579 C578 1.415 . S
H580 C577 0.999 . S
H581 C562 0.913 . S
H582 C600 0.951 1_556 S
H583 C602 0.951 1_556 S
H584 C604 0.950 . S
H585 C605 0.950 . S
H586 C607 0.950 . S
H587 C610 0.950 . S
H588 C611 0.950 . S
H589 C613 0.950 . S
H590 C614 0.950 1_556 S
H591 C615 0.951 1_554 S
H592 C617 0.951 1_554 S
H593 C619 0.950 . S
H594 C620 0.950 . S
H595 C622 0.950 . S
H596 C625 0.950 . S
H597 C626 0.950 . S
H598 C628 0.950 . S
H599 C629 0.950 1_554 S
C600 H582 0.951 1_554 S
C600 C601 1.366 . S
C600 C602 1.388 . S
C601 C600 1.366 . S
C601 C605 1.385 . S
C602 H583 0.951 1_554 S
C602 C600 1.388 . S
C602 C603 1.366 . S
C603 C602 1.366 . S
C603 C604 1.414 . S
C603 C606 1.499 . S
C604 H584 0.950 . S
C604 C603 1.414 . S
C604 C605 1.374 . S
C605 H585 0.950 . S
C605 C601 1.385 . S
C605 C604 1.374 . S
C606 C603 1.499 . S
C606 C607 1.373 1_554 S
C606 C608 1.389 . S
C607 H586 0.950 . S
C607 C606 1.373 1_556 S
C607 C623 1.377 1_565 S
C608 C606 1.389 . S
C608 C609 1.524 . S
C608 C622 1.377 1_565 S
C609 C608 1.524 . S
C609 C610 1.397 . S
C609 C614 1.363 . S
C610 H587 0.950 . S
C610 C609 1.397 . S
C610 C611 1.334 . S
C611 H588 0.950 . S
C611 C610 1.334 . S
C611 C612 1.287 . S
C612 C611 1.287 . S
C612 C613 1.524 . S
C612 H631 0.913 . S
C613 H589 0.950 . S
C613 C612 1.524 . S
C613 C614 1.415 . S
C614 H590 0.950 1_554 S
C614 C609 1.363 . S
C614 C613 1.415 . S
C615 H591 0.951 1_556 S
C615 C616 1.366 . S
C615 C617 1.388 . S
C616 C615 1.366 . S
C616 C620 1.385 . S
C617 H592 0.951 1_556 S
C617 C615 1.388 . S
C617 C618 1.366 . S
C618 C617 1.366 . S
C618 C619 1.414 . S
C618 C621 1.499 . S
C619 H593 0.950 . S
C619 C618 1.414 . S
C619 C620 1.374 . S
C620 H594 0.950 . S
C620 C616 1.385 . S
C620 C619 1.374 . S
C621 C618 1.499 . S
C621 C622 1.373 1_556 S
C621 C623 1.389 . S
C622 H595 0.950 . S
C622 C608 1.377 1_545 S
C622 C621 1.373 1_554 S
C623 C607 1.377 1_545 S
C623 C621 1.389 . S
C623 C624 1.524 . S
C624 C623 1.524 . S
C624 C625 1.397 . S
C624 C629 1.363 . S
C625 H596 0.950 . S
C625 C624 1.397 . S
C625 C626 1.334 . S
C626 H597 0.950 . S
C626 C625 1.334 . S
C626 C627 1.287 . S
C627 C626 1.287 . S
C627 C628 1.524 . S
C627 H630 0.999 . S
C628 H598 0.950 . S
C628 C627 1.524 . S
C628 C629 1.415 . S
C629 H599 0.950 1_556 S
C629 C624 1.363 . S
C629 C628 1.415 . S
H630 C627 0.999 . S
H631 C612 0.913 . S
H632 C650 0.951 . S
H633 C652 0.951 . S
H634 C654 0.950 . S
H635 C655 0.950 . S
H636 C657 0.950 . S
H637 C660 0.950 . S
H638 C661 0.950 . S
H639 C663 0.950 . S
H640 C664 0.950 . S
H641 C665 0.951 . S
H642 C667 0.951 . S
H643 C669 0.950 . S
H644 C670 0.950 . S
H645 C672 0.950 . S
H646 C675 0.950 1_554 S
H647 C676 0.950 . S
H648 C678 0.950 . S
H649 C679 0.950 . S
C650 H632 0.951 . S
C650 C651 1.366 . S
C650 C652 1.388 . S
C651 C650 1.366 . S
C651 C655 1.385 . S
C652 H633 0.951 . S
C652 C650 1.388 . S
C652 C653 1.366 . S
C653 C652 1.366 . S
C653 C654 1.414 . S
C653 C656 1.499 . S
C654 H634 0.950 . S
C654 C653 1.414 . S
C654 C655 1.374 . S
C655 H635 0.950 . S
C655 C651 1.385 . S
C655 C654 1.374 . S
C656 C653 1.499 . S
C656 C657 1.373 . S
C656 C658 1.389 . S
C657 H636 0.950 . S
C657 C656 1.373 . S
C657 C673 1.377 . S
C658 C656 1.389 . S
C658 C659 1.524 . S
C658 C672 1.377 . S
C659 C658 1.524 . S
C659 C660 1.397 . S
C659 C664 1.363 . S
C660 H637 0.950 . S
C660 C659 1.397 . S
C660 C661 1.334 . S
C661 H638 0.950 . S
C661 C660 1.334 . S
C661 C662 1.287 . S
C662 C661 1.287 . S
C662 C663 1.524 . S
C662 H681 0.913 . S
C663 H639 0.950 . S
C663 C662 1.524 . S
C663 C664 1.415 . S
C664 H640 0.950 . S
C664 C659 1.363 . S
C664 C663 1.415 . S
C665 H641 0.951 . S
C665 C666 1.366 . S
C665 C667 1.388 . S
C666 C665 1.366 . S
C666 C670 1.385 . S
C667 H642 0.951 . S
C667 C665 1.388 . S
C667 C668 1.366 . S
C668 C667 1.366 . S
C668 C669 1.414 . S
C668 C671 1.499 . S
C669 H643 0.950 . S
C669 C668 1.414 . S
C669 C670 1.374 . S
C670 H644 0.950 . S
C670 C666 1.385 . S
C670 C669 1.374 . S
C671 C668 1.499 . S
C671 C672 1.373 . S
C671 C673 1.389 . S
C672 H645 0.950 . S
C672 C658 1.377 . S
C672 C671 1.373 . S
C673 C657 1.377 . S
C673 C671 1.389 . S
C673 C674 1.524 . S
C674 C673 1.524 . S
C674 C675 1.397 1_554 S
C674 C679 1.363 . S
C675 H646 0.950 1_556 S
C675 C674 1.397 1_556 S
C675 C676 1.334 . S
C676 H647 0.950 . S
C676 C675 1.334 . S
C676 C677 1.287 . S
C677 C676 1.287 . S
C677 C678 1.524 . S
C677 H680 0.999 . S
C678 H648 0.950 . S
C678 C677 1.524 . S
C678 C679 1.415 1_556 S
C679 H649 0.950 . S
C679 C674 1.363 . S
C679 C678 1.415 1_554 S
H680 C677 0.999 . S
H681 C662 0.913 . S
H682 C700 0.951 . S
H683 C702 0.951 . S
H684 C704 0.950 . S
H685 C705 0.950 . S
H686 C707 0.950 . S
H687 C710 0.950 . S
H688 C711 0.950 . S
H689 C713 0.950 . S
H690 C714 0.950 1_455 S
H691 C715 0.951 . S
H692 C717 0.951 . S
H693 C719 0.950 . S
H694 C720 0.950 . S
H695 C722 0.950 . S
H696 C725 0.950 . S
H697 C726 0.950 . S
H698 C728 0.950 . S
H699 C729 0.950 1_655 S
C700 H682 0.951 . S
C700 C701 1.366 . S
C700 C702 1.388 . S
C701 C700 1.366 . S
C701 C705 1.385 . S
C702 H683 0.951 . S
C702 C700 1.388 . S
C702 C703 1.366 . S
C703 C702 1.366 . S
C703 C704 1.414 . S
C703 C706 1.499 . S
C704 H684 0.950 . S
C704 C703 1.414 . S
C704 C705 1.374 . S
C705 H685 0.950 . S
C705 C701 1.385 . S
C705 C704 1.374 . S
C706 C703 1.499 . S
C706 C707 1.373 . S
C706 C708 1.389 . S
C707 H686 0.950 . S
C707 C706 1.373 . S
C707 C723 1.377 1_655 S
C708 C706 1.389 . S
C708 C709 1.524 . S
C708 C722 1.377 1_655 S
C709 C708 1.524 . S
C709 C710 1.397 . S
C709 C714 1.363 . S
C710 H687 0.950 . S
C710 C709 1.397 . S
C710 C711 1.334 . S
C711 H688 0.950 . S
C711 C710 1.334 . S
C711 C712 1.287 . S
C712 C711 1.287 . S
C712 C713 1.524 . S
C712 H731 0.913 . S
C713 H689 0.950 . S
C713 C712 1.524 . S
C713 C714 1.415 . S
C714 H690 0.950 1_655 S
C714 C709 1.363 . S
C714 C713 1.415 . S
C715 H691 0.951 . S
C715 C716 1.366 . S
C715 C717 1.388 . S
C716 C715 1.366 . S
C716 C720 1.385 . S
C717 H692 0.951 . S
C717 C715 1.388 . S
C717 C718 1.366 . S
C718 C717 1.366 . S
C718 C719 1.414 . S
C718 C721 1.499 . S
C719 H693 0.950 . S
C719 C718 1.414 . S
C719 C720 1.374 . S
C720 H694 0.950 . S
C720 C716 1.385 . S
C720 C719 1.374 . S
C721 C718 1.499 . S
C721 C722 1.373 . S
C721 C723 1.389 . S
C722 H695 0.950 . S
C722 C708 1.377 1_455 S
C722 C721 1.373 . S
C723 C707 1.377 1_455 S
C723 C721 1.389 . S
C723 C724 1.524 . S
C724 C723 1.524 . S
C724 C725 1.397 . S
C724 C729 1.363 . S
C725 H696 0.950 . S
C725 C724 1.397 . S
C725 C726 1.334 . S
C726 H697 0.950 . S
C726 C725 1.334 . S
C726 C727 1.287 . S
C727 C726 1.287 . S
C727 C728 1.524 . S
C727 H730 0.999 . S
C728 H698 0.950 . S
C728 C727 1.524 . S
C728 C729 1.415 . S
C729 H699 0.950 1_455 S
C729 C724 1.363 . S
C729 C728 1.415 . S
H730 C727 0.999 . S
H731 C712 0.913 . S
H732 C750 0.951 . S
H733 C752 0.951 . S
H734 C754 0.950 . S
H735 C755 0.950 . S
H736 C757 0.950 . S
H737 C760 0.950 . S
H738 C761 0.950 . S
H739 C763 0.950 . S
H740 C764 0.950 . S
H741 C765 0.951 . S
H742 C767 0.951 . S
H743 C769 0.950 . S
H744 C770 0.950 . S
H745 C772 0.950 . S
H746 C775 0.950 . S
H747 C776 0.950 . S
H748 C778 0.950 . S
H749 C779 0.950 . S
C750 H732 0.951 . S
C750 C751 1.366 . S
C750 C752 1.388 . S
C751 C750 1.366 . S
C751 C755 1.385 . S
C752 H733 0.951 . S
C752 C750 1.388 . S
C752 C753 1.366 . S
C753 C752 1.366 . S
C753 C754 1.414 . S
C753 C756 1.499 . S
C754 H734 0.950 . S
C754 C753 1.414 . S
C754 C755 1.374 . S
C755 H735 0.950 . S
C755 C751 1.385 . S
C755 C754 1.374 . S
C756 C753 1.499 . S
C756 C757 1.373 . S
C756 C758 1.389 . S
C757 H736 0.950 . S
C757 C756 1.373 . S
C757 C773 1.377 . S
C758 C756 1.389 . S
C758 C759 1.524 . S
C758 C772 1.377 . S
C759 C758 1.524 . S
C759 C760 1.397 . S
C759 C764 1.363 . S
C760 H737 0.950 . S
C760 C759 1.397 . S
C760 C761 1.334 . S
C761 H738 0.950 . S
C761 C760 1.334 . S
C761 C762 1.287 . S
C762 C761 1.287 . S
C762 C763 1.524 . S
C762 H781 0.913 . S
C763 H739 0.950 . S
C763 C762 1.524 . S
C763 C764 1.415 . S
C764 H740 0.950 . S
C764 C759 1.363 . S
C764 C763 1.415 . S
C765 H741 0.951 . S
C765 C766 1.366 . S
C765 C767 1.388 . S
C766 C765 1.366 . S
C766 C770 1.385 . S
C767 H742 0.951 . S
C767 C765 1.388 . S
C767 C768 1.366 . S
C768 C767 1.366 . S
C768 C769 1.414 . S
C768 C771 1.499 . S
C769 H743 0.950 . S
C769 C768 1.414 . S
C769 C770 1.374 . S
C770 H744 0.950 . S
C770 C766 1.385 . S
C770 C769 1.374 . S
C771 C768 1.499 . S
C771 C772 1.373 . S
C771 C773 1.389 . S
C772 H745 0.950 . S
C772 C758 1.377 . S
C772 C771 1.373 . S
C773 C757 1.377 . S
C773 C771 1.389 . S
C773 C774 1.524 . S
C774 C773 1.524 . S
C774 C775 1.397 . S
C774 C779 1.363 . S
C775 H746 0.950 . S
C775 C774 1.397 . S
C775 C776 1.334 . S
C776 H747 0.950 . S
C776 C775 1.334 . S
C776 C777 1.287 . S
C777 C776 1.287 . S
C777 C778 1.524 . S
C777 H780 0.999 . S
C778 H748 0.950 . S
C778 C777 1.524 . S
C778 C779 1.415 . S
C779 H749 0.950 . S
C779 C774 1.363 . S
C779 C778 1.415 . S
H780 C777 0.999 . S
H781 C762 0.913 . S
H782 C800 0.951 . S
H783 C802 0.951 . S
H784 C804 0.950 . S
H785 C805 0.950 . S
H786 C807 0.950 . S
H787 C810 0.950 . S
H788 C811 0.950 . S
H789 C813 0.950 . S
H790 C814 0.950 . S
H791 C815 0.951 . S
H792 C817 0.951 . S
H793 C819 0.950 . S
H794 C820 0.950 . S
H795 C822 0.950 . S
H796 C825 0.950 . S
H797 C826 0.950 . S
H798 C828 0.950 . S
H799 C829 0.950 . S
C800 H782 0.951 . S
C800 C801 1.366 . S
C800 C802 1.388 . S
C801 C800 1.366 . S
C801 C805 1.385 . S
C802 H783 0.951 . S
C802 C800 1.388 . S
C802 C803 1.366 . S
C803 C802 1.366 . S
C803 C804 1.414 . S
C803 C806 1.499 . S
C804 H784 0.950 . S
C804 C803 1.414 . S
C804 C805 1.374 . S
C805 H785 0.950 . S
C805 C801 1.385 . S
C805 C804 1.374 . S
C806 C803 1.499 . S
C806 C807 1.373 . S
C806 C808 1.389 . S
C807 H786 0.950 . S
C807 C806 1.373 . S
C807 C823 1.377 . S
C808 C806 1.389 . S
C808 C809 1.524 . S
C808 C822 1.377 . S
C809 C808 1.524 . S
C809 C810 1.397 . S
C809 C814 1.363 . S
C810 H787 0.950 . S
C810 C809 1.397 . S
C810 C811 1.334 . S
C811 H788 0.950 . S
C811 C810 1.334 . S
C811 C812 1.287 . S
C812 C811 1.287 . S
C812 C813 1.524 . S
C812 H831 0.913 . S
C813 H789 0.950 . S
C813 C812 1.524 . S
C813 C814 1.415 . S
C814 H790 0.950 . S
C814 C809 1.363 . S
C814 C813 1.415 . S
C815 H791 0.951 . S
C815 C816 1.366 . S
C815 C817 1.388 . S
C816 C815 1.366 . S
C816 C820 1.385 . S
C817 H792 0.951 . S
C817 C815 1.388 . S
C817 C818 1.366 . S
C818 C817 1.366 . S
C818 C819 1.414 . S
C818 C821 1.499 . S
C819 H793 0.950 . S
C819 C818 1.414 . S
C819 C820 1.374 . S
C820 H794 0.950 . S
C820 C816 1.385 . S
C820 C819 1.374 . S
C821 C818 1.499 . S
C821 C822 1.373 . S
C821 C823 1.389 . S
C822 H795 0.950 . S
C822 C808 1.377 . S
C822 C821 1.373 . S
C823 C807 1.377 . S
C823 C821 1.389 . S
C823 C824 1.524 . S
C824 C823 1.524 . S
C824 C825 1.397 . S
C824 C829 1.363 . S
C825 H796 0.950 . S
C825 C824 1.397 . S
C825 C826 1.334 . S
C826 H797 0.950 . S
C826 C825 1.334 . S
C826 C827 1.287 . S
C827 C826 1.287 . S
C827 C828 1.524 . S
C827 H830 0.999 . S
C828 H798 0.950 . S
C828 C827 1.524 . S
C828 C829 1.415 . S
C829 H799 0.950 . S
C829 C824 1.363 . S
C829 C828 1.415 . S
H830 C827 0.999 . S
H831 C812 0.913 . S
H832 C850 0.951 . S
H833 C852 0.951 . S
H834 C854 0.950 . S
H835 C855 0.950 . S
H836 C857 0.950 . S
H837 C860 0.950 . S
H838 C861 0.950 1_554 S
H839 C863 0.950 1_554 S
H840 C864 0.950 . S
H841 C865 0.951 . S
H842 C867 0.951 . S
H843 C869 0.950 . S
H844 C870 0.950 . S
H845 C872 0.950 . S
H846 C875 0.950 . S
H847 C876 0.950 . S
H848 C878 0.950 . S
H849 C879 0.950 . S
C850 H832 0.951 . S
C850 C851 1.366 . S
C850 C852 1.388 . S
C851 C850 1.366 . S
C851 C855 1.385 . S
C852 H833 0.951 . S
C852 C850 1.388 . S
C852 C853 1.366 . S
C853 C852 1.366 . S
C853 C854 1.414 . S
C853 C856 1.499 . S
C854 H834 0.950 . S
C854 C853 1.414 . S
C854 C855 1.374 . S
C855 H835 0.950 . S
C855 C851 1.385 . S
C855 C854 1.374 . S
C856 C853 1.499 . S
C856 C857 1.373 . S
C856 C858 1.389 . S
C857 H836 0.950 . S
C857 C856 1.373 . S
C857 C873 1.377 . S
C858 C856 1.389 . S
C858 C859 1.524 . S
C858 C872 1.377 . S
C859 C858 1.524 . S
C859 C860 1.397 . S
C859 C864 1.363 . S
C860 H837 0.950 . S
C860 C859 1.397 . S
C860 C861 1.334 . S
C861 H838 0.950 1_556 S
C861 C860 1.334 . S
C861 C862 1.287 1_556 S
C862 C861 1.287 1_554 S
C862 C863 1.524 1_554 S
C862 H881 0.913 . S
C863 H839 0.950 1_556 S
C863 C862 1.524 1_556 S
C863 C864 1.415 . S
C864 H840 0.950 . S
C864 C859 1.363 . S
C864 C863 1.415 . S
C865 H841 0.951 . S
C865 C866 1.366 . S
C865 C867 1.388 . S
C866 C865 1.366 . S
C866 C870 1.385 . S
C867 H842 0.951 . S
C867 C865 1.388 . S
C867 C868 1.366 . S
C868 C867 1.366 . S
C868 C869 1.414 . S
C868 C871 1.499 . S
C869 H843 0.950 . S
C869 C868 1.414 . S
C869 C870 1.374 . S
C870 H844 0.950 . S
C870 C866 1.385 . S
C870 C869 1.374 . S
C871 C868 1.499 . S
C871 C872 1.373 . S
C871 C873 1.389 . S
C872 H845 0.950 . S
C872 C858 1.377 . S
C872 C871 1.373 . S
C873 C857 1.377 . S
C873 C871 1.389 . S
C873 C874 1.524 . S
C874 C873 1.524 . S
C874 C875 1.397 . S
C874 C879 1.363 . S
C875 H846 0.950 . S
C875 C874 1.397 . S
C875 C876 1.334 . S
C876 H847 0.950 . S
C876 C875 1.334 . S
C876 C877 1.287 . S
C877 C876 1.287 . S
C877 C878 1.524 . S
C877 H880 0.999 . S
C878 H848 0.950 . S
C878 C877 1.524 . S
C878 C879 1.415 . S
C879 H849 0.950 . S
C879 C874 1.363 . S
C879 C878 1.415 . S
H880 C877 0.999 . S
H881 C862 0.913 . S
H882 C900 0.951 1_554 S
H883 C902 0.951 . S
H884 C904 0.950 . S
H885 C905 0.950 . S
H886 C907 0.950 . S
H887 C910 0.950 . S
H888 C911 0.950 . S
H889 C913 0.950 . S
H890 C914 0.950 . S
H891 C915 0.951 . S
H892 C917 0.951 . S
H893 C919 0.950 . S
H894 C920 0.950 . S
H895 C922 0.950 . S
H896 C925 0.950 . S
H897 C926 0.950 . S
H898 C928 0.950 . S
H899 C929 0.950 . S
C900 H882 0.951 1_556 S
C900 C901 1.366 . S
C900 C902 1.388 . S
C901 C900 1.366 . S
C901 C905 1.385 . S
C902 H883 0.951 . S
C902 C900 1.388 . S
C902 C903 1.366 . S
C903 C902 1.366 . S
C903 C904 1.414 . S
C903 C906 1.499 . S
C904 H884 0.950 . S
C904 C903 1.414 . S
C904 C905 1.374 . S
C905 H885 0.950 . S
C905 C901 1.385 . S
C905 C904 1.374 . S
C906 C903 1.499 . S
C906 C907 1.373 . S
C906 C908 1.389 . S
C907 H886 0.950 . S
C907 C906 1.373 . S
C907 C923 1.377 . S
C908 C906 1.389 . S
C908 C909 1.524 1_556 S
C908 C922 1.377 . S
C909 C908 1.524 1_554 S
C909 C910 1.397 . S
C909 C914 1.363 . S
C910 H887 0.950 . S
C910 C909 1.397 . S
C910 C911 1.334 . S
C911 H888 0.950 . S
C911 C910 1.334 . S
C911 C912 1.287 . S
C912 C911 1.287 . S
C912 C913 1.524 . S
C912 H931 0.913 . S
C913 H889 0.950 . S
C913 C912 1.524 . S
C913 C914 1.415 . S
C914 H890 0.950 . S
C914 C909 1.363 . S
C914 C913 1.415 . S
C915 H891 0.951 . S
C915 C916 1.366 . S
C915 C917 1.388 . S
C916 C915 1.366 . S
C916 C920 1.385 . S
C917 H892 0.951 . S
C917 C915 1.388 . S
C917 C918 1.366 . S
C918 C917 1.366 . S
C918 C919 1.414 . S
C918 C921 1.499 . S
C919 H893 0.950 . S
C919 C918 1.414 . S
C919 C920 1.374 . S
C920 H894 0.950 . S
C920 C916 1.385 . S
C920 C919 1.374 . S
C921 C918 1.499 . S
C921 C922 1.373 . S
C921 C923 1.389 . S
C922 H895 0.950 . S
C922 C908 1.377 . S
C922 C921 1.373 . S
C923 C907 1.377 . S
C923 C921 1.389 . S
C923 C924 1.524 . S
C924 C923 1.524 . S
C924 C925 1.397 . S
C924 C929 1.363 . S
C925 H896 0.950 . S
C925 C924 1.397 . S
C925 C926 1.334 . S
C926 H897 0.950 . S
C926 C925 1.334 . S
C926 C927 1.287 . S
C927 C926 1.287 . S
C927 C928 1.524 . S
C927 H930 0.999 . S
C928 H898 0.950 . S
C928 C927 1.524 . S
C928 C929 1.415 . S
C929 H899 0.950 . S
C929 C924 1.363 . S
C929 C928 1.415 . S
H930 C927 0.999 . S
H931 C912 0.913 . S
H932 C950 0.951 . S
H933 C952 0.951 . S
H934 C954 0.950 . S
H935 C955 0.950 . S
H936 C957 0.950 . S
H937 C960 0.950 . S
H938 C961 0.950 . S
H939 C963 0.950 . S
H940 C964 0.950 . S
H941 C965 0.951 . S
H942 C967 0.951 . S
H943 C969 0.950 . S
H944 C970 0.950 . S
H945 C972 0.950 . S
H946 C975 0.950 . S
H947 C976 0.950 . S
H948 C978 0.950 . S
H949 C979 0.950 . S
C950 H932 0.951 . S
C950 C951 1.366 . S
C950 C952 1.388 . S
C951 C950 1.366 . S
C951 C955 1.385 . S
C952 H933 0.951 . S
C952 C950 1.388 . S
C952 C953 1.366 . S
C953 C952 1.366 . S
C953 C954 1.414 . S
C953 C956 1.499 . S
C954 H934 0.950 . S
C954 C953 1.414 . S
C954 C955 1.374 . S
C955 H935 0.950 . S
C955 C951 1.385 . S
C955 C954 1.374 . S
C956 C953 1.499 . S
C956 C957 1.373 . S
C956 C958 1.389 . S
C957 H936 0.950 . S
C957 C956 1.373 . S
C957 C973 1.377 . S
C958 C956 1.389 . S
C958 C959 1.524 . S
C958 C972 1.377 . S
C959 C958 1.524 . S
C959 C960 1.397 . S
C959 C964 1.363 . S
C960 H937 0.950 . S
C960 C959 1.397 . S
C960 C961 1.334 . S
C961 H938 0.950 . S
C961 C960 1.334 . S
C961 C962 1.287 . S
C962 C961 1.287 . S
C962 C963 1.524 . S
C962 H981 0.913 . S
C963 H939 0.950 . S
C963 C962 1.524 . S
C963 C964 1.415 . S
C964 H940 0.950 . S
C964 C959 1.363 . S
C964 C963 1.415 . S
C965 H941 0.951 . S
C965 C966 1.366 1_556 S
C965 C967 1.388 . S
C966 C965 1.366 1_554 S
C966 C970 1.385 . S
C967 H942 0.951 . S
C967 C965 1.388 . S
C967 C968 1.366 1_556 S
C968 C967 1.366 1_554 S
C968 C969 1.414 . S
C968 C971 1.499 . S
C969 H943 0.950 . S
C969 C968 1.414 . S
C969 C970 1.374 . S
C970 H944 0.950 . S
C970 C966 1.385 . S
C970 C969 1.374 . S
C971 C968 1.499 . S
C971 C972 1.373 . S
C971 C973 1.389 . S
C972 H945 0.950 . S
C972 C958 1.377 . S
C972 C971 1.373 . S
C973 C957 1.377 . S
C973 C971 1.389 . S
C973 C974 1.524 1_554 S
C974 C973 1.524 1_556 S
C974 C975 1.397 1_556 S
C974 C979 1.363 . S
C975 H946 0.950 . S
C975 C974 1.397 1_554 S
C975 C976 1.334 1_554 S
C976 H947 0.950 . S
C976 C975 1.334 1_556 S
C976 C977 1.287 . S
C977 C976 1.287 . S
C977 C978 1.524 . S
C977 H980 0.999 . S
C978 H948 0.950 . S
C978 C977 1.524 . S
C978 C979 1.415 . S
C979 H949 0.950 . S
C979 C974 1.363 . S
C979 C978 1.415 . S
H980 C977 0.999 . S
H981 C962 0.913 . S
H982 C1000 0.951 . S
H983 C1002 0.951 . S
H984 C1004 0.950 . S
H985 C1005 0.950 . S
H986 C1007 0.950 . S
H987 C1010 0.950 . S
H988 C1011 0.950 . S
H989 C1013 0.950 . S
H990 C1014 0.950 . S
H991 C1015 0.951 . S
H992 C1017 0.951 . S
H993 C1019 0.950 . S
H994 C1020 0.950 . S
H995 C1022 0.950 . S
H996 C1025 0.950 . S
H997 C1026 0.950 . S
H998 C1028 0.950 . S
H999 C1029 0.950 . S
C1000 H982 0.951 . S
C1000 C1001 1.366 . S
C1000 C1002 1.388 . S
C1001 C1000 1.366 . S
C1001 C1005 1.385 . S
C1002 H983 0.951 . S
C1002 C1000 1.388 . S
C1002 C1003 1.366 . S
C1003 C1002 1.366 . S
C1003 C1004 1.414 . S
C1003 C1006 1.499 . S
C1004 H984 0.950 . S
C1004 C1003 1.414 . S
C1004 C1005 1.374 . S
C1005 H985 0.950 . S
C1005 C1001 1.385 . S
C1005 C1004 1.374 . S
C1006 C1003 1.499 . S
C1006 C1007 1.373 . S
C1006 C1008 1.389 . S
C1007 H986 0.950 . S
C1007 C1006 1.373 . S
C1007 C1023 1.377 . S
C1008 C1006 1.389 . S
C1008 C1009 1.524 . S
C1008 C1022 1.377 . S
C1009 C1008 1.524 . S
C1009 C1010 1.397 . S
C1009 C1014 1.363 . S
C1010 H987 0.950 . S
C1010 C1009 1.397 . S
C1010 C1011 1.334 . S
C1011 H988 0.950 . S
C1011 C1010 1.334 . S
C1011 C1012 1.287 1_554 S
C1012 C1011 1.287 1_556 S
C1012 C1013 1.524 . S
C1012 H1031 0.913 . S
C1013 H989 0.950 . S
C1013 C1012 1.524 . S
C1013 C1014 1.415 1_556 S
C1014 H990 0.950 . S
C1014 C1009 1.363 . S
C1014 C1013 1.415 1_554 S
C1015 H991 0.951 . S
C1015 C1016 1.366 . S
C1015 C1017 1.388 . S
C1016 C1015 1.366 . S
C1016 C1020 1.385 . S
C1017 H992 0.951 . S
C1017 C1015 1.388 . S
C1017 C1018 1.366 . S
C1018 C1017 1.366 . S
C1018 C1019 1.414 . S
C1018 C1021 1.499 . S
C1019 H993 0.950 . S
C1019 C1018 1.414 . S
C1019 C1020 1.374 . S
C1020 H994 0.950 . S
C1020 C1016 1.385 . S
C1020 C1019 1.374 . S
C1021 C1018 1.499 . S
C1021 C1022 1.373 . S
C1021 C1023 1.389 . S
C1022 H995 0.950 . S
C1022 C1008 1.377 . S
C1022 C1021 1.373 . S
C1023 C1007 1.377 . S
C1023 C1021 1.389 . S
C1023 C1024 1.524 . S
C1024 C1023 1.524 . S
C1024 C1025 1.397 . S
C1024 C1029 1.363 . S
C1025 H996 0.950 . S
C1025 C1024 1.397 . S
C1025 C1026 1.334 . S
C1026 H997 0.950 . S
C1026 C1025 1.334 . S
C1026 C1027 1.287 . S
C1027 C1026 1.287 . S
C1027 C1028 1.524 . S
C1027 H1030 0.999 . S
C1028 H998 0.950 . S
C1028 C1027 1.524 . S
C1028 C1029 1.415 . S
C1029 H999 0.950 . S
C1029 C1024 1.363 . S
C1029 C1028 1.415 . S
H1030 C1027 0.999 . S
H1031 C1012 0.913 . S
C151 C7 1.407 . S
C166 C6 1.408 . S
C201 C29 1.408 . S
C216 C28 1.407 . S
C251 C50 1.407 . S
C266 C51 1.407 . S
C301 C72 1.407 . S
C316 C73 1.408 . S
C351 C94 1.408 . S
C366 C95 1.407 . S
C401 C117 1.406 . S
C416 C116 1.407 . S
C451 C5 1.695 . S
C466 C119 1.695 . S
C501 C9 1.694 . S
C516 C27 1.694 . S
C551 C49 1.695 . S
C566 C31 1.695 . S
C601 C71 1.694 . S
C616 C53 1.694 . S
C651 C93 1.694 . S
C666 C75 1.694 . S
C701 C97 1.694 . S
C716 C115 1.694 . S
C751 C8 1.188 . S
C766 C92 1.188 . S
C801 C30 1.188 . S
C816 C114 1.187 . S
C851 C52 1.188 . S
C866 C4 1.188 . S
C901 C74 1.188 1_556 S
C916 C26 1.188 . S
C951 C96 1.187 . S
C966 C48 1.188 1_554 S
C1001 C70 1.188 . S
C1016 C118 1.188 . S
