# Generated by pormake.
# Topology smu, (6)-cn, num edge types: 1
# Building blocks:
#     Node 0, Type 0, BuildingBlock: MIFKUJ_clean_sbu_0, # of connection points: 6
#     Node 1, Type 0, BuildingBlock: MIFKUJ_clean_sbu_0, # of connection points: 6
#     Node 2, Type 0, BuildingBlock: MIFKUJ_clean_sbu_0, # of connection points: 6
#     Node 3, Type 0, BuildingBlock: MIFKUJ_clean_sbu_0, # of connection points: 6
#     Node 4, Type 0, BuildingBlock: MIFKUJ_clean_sbu_0, # of connection points: 6
#     Node 5, Type 0, BuildingBlock: MIFKUJ_clean_sbu_0, # of connection points: 6
#     Edge 6, Type (0, 0), BuildingBlock: FUNLAD_clean_linker_1, # of connection points: 2
#     Edge 7, Type (0, 0), BuildingBlock: FUNLAD_clean_linker_1, # of connection points: 2
#     Edge 8, Type (0, 0), BuildingBlock: FUNLAD_clean_linker_1, # of connection points: 2
#     Edge 9, Type (0, 0), BuildingBlock: FUNLAD_clean_linker_1, # of connection points: 2
#     Edge 10, Type (0, 0), BuildingBlock: FUNLAD_clean_linker_1, # of connection points: 2
#     Edge 11, Type (0, 0), BuildingBlock: FUNLAD_clean_linker_1, # of connection points: 2
#     Edge 12, Type (0, 0), BuildingBlock: FUNLAD_clean_linker_1, # of connection points: 2
#     Edge 13, Type (0, 0), BuildingBlock: FUNLAD_clean_linker_1, # of connection points: 2
#     Edge 14, Type (0, 0), BuildingBlock: FUNLAD_clean_linker_1, # of connection points: 2
#     Edge 15, Type (0, 0), BuildingBlock: FUNLAD_clean_linker_1, # of connection points: 2
#     Edge 16, Type (0, 0), BuildingBlock: FUNLAD_clean_linker_1, # of connection points: 2
#     Edge 17, Type (0, 0), BuildingBlock: FUNLAD_clean_linker_1, # of connection points: 2
#     Edge 18, Type (0, 0), BuildingBlock: FUNLAD_clean_linker_1, # of connection points: 2
#     Edge 19, Type (0, 0), BuildingBlock: FUNLAD_clean_linker_1, # of connection points: 2
#     Edge 20, Type (0, 0), BuildingBlock: FUNLAD_clean_linker_1, # of connection points: 2
#     Edge 21, Type (0, 0), BuildingBlock: FUNLAD_clean_linker_1, # of connection points: 2
#     Edge 22, Type (0, 0), BuildingBlock: FUNLAD_clean_linker_1, # of connection points: 2
#     Edge 23, Type (0, 0), BuildingBlock: FUNLAD_clean_linker_1, # of connection points: 2
# Relax obj value: 0.230
# Max RMSD: 0.292
# Mean RMSD: 0.292
data_MOF--net-smu--node1-MIFKUJ_clean_sbu_0--edge1-FUNLAD_clean_linker_1
_symmetry_space_group_name_H-M    P1
_symmetry_Int_Tables_number       1
_symmetry_cell_setting            triclinic
loop_
_symmetry_equiv_pos_as_xyz
'x, y, z'
_cell_length_a     35.040909
_cell_length_b     35.108848
_cell_length_c     28.331319
_cell_angle_alpha  89.99158
_cell_angle_beta   90.034059
_cell_angle_gamma 120.02468
loop_
_atom_site_label
_atom_site_type_symbol
_atom_site_fract_x
_atom_site_fract_y
_atom_site_fract_z
_atom_type_partial_charge
Zn0 Zn 0.27975 0.05269 0.24311 0.0
Zn1 Zn 0.3982 0.11732 0.23688 0.0
C2 C 0.24866 0.1089 0.27181 0.0
O3 O 0.22875 0.07631 0.30197 0.0
C4 C 0.47704 0.11125 0.23516 0.0
O5 O 0.44852 0.06886 0.23633 0.0
O6 O 0.2164 0.00413 0.24396 0.0
O7 O 0.30187 0.04291 0.18163 0.0
O8 O 0.37453 0.08497 0.17558 0.0
C9 C 0.18882 0.00567 0.21601 0.0
O10 O 0.20206 0.03879 0.18657 0.0
O11 O 0.27707 0.10904 0.24379 0.0
C12 C 0.41934 0.20048 0.27025 0.0
O13 O 0.44262 0.1902 0.29844 0.0
O14 O 0.39345 0.17212 0.24064 0.0
O15 O 0.37885 0.08186 0.29696 0.0
O16 O 0.30588 0.04324 0.30189 0.0
O17 O 0.46325 0.13851 0.23434 0.0
C18 C 0.3375 0.05665 0.15868 0.0
C19 C 0.34386 0.05543 0.31884 0.0
Zn20 Zn 0.7716 0.73464 0.2409 0.0
Zn21 Zn 0.71362 0.61111 0.26008 0.0
C22 C 0.86078 0.7774 0.26671 0.0
O23 O 0.84566 0.79645 0.29506 0.0
C24 C 0.6264 0.53337 0.2646 0.0
O25 O 0.61266 0.56071 0.25287 0.0
O26 O 0.7724 0.79219 0.23254 0.0
O27 O 0.73619 0.69864 0.18659 0.0
O28 O 0.69855 0.6262 0.19649 0.0
C29 C 0.8023 0.82606 0.2118 0.0
O30 O 0.83609 0.82525 0.19284 0.0
O31 O 0.8341 0.7467 0.23972 0.0
C32 C 0.77579 0.58607 0.28565 0.0
O33 O 0.74571 0.56583 0.31837 0.0
O34 O 0.7713 0.61127 0.25678 0.0
O35 O 0.70968 0.64266 0.31797 0.0
O36 O 0.74493 0.71467 0.30435 0.0
O37 O 0.66735 0.54758 0.26973 0.0
C38 C 0.70975 0.66022 0.17153 0.0
C39 C 0.72302 0.68197 0.33118 0.0
Zn40 Zn 0.95722 0.23219 0.23419 0.0
Zn41 Zn 0.89366 0.29116 0.23995 0.0
C42 C 0.9023 0.14852 0.26924 0.0
O43 O 0.93109 0.1671 0.30346 0.0
C44 C 0.89892 0.37604 0.24964 0.0
O45 O 0.94145 0.39088 0.25342 0.0
O46 O 0.00929 0.22191 0.23345 0.0
O47 O 0.96357 0.26733 0.17671 0.0
O48 O 0.92843 0.30537 0.17988 0.0
C49 C 0.00791 0.1896 0.21158 0.0
O50 O 0.97248 0.16277 0.18752 0.0
O51 O 0.90355 0.17187 0.23432 0.0
C52 C 0.80853 0.2265 0.26575 0.0
O53 O 0.81789 0.25636 0.29859 0.0
O54 O 0.83827 0.23201 0.23643 0.0
O55 O 0.92737 0.29992 0.30004 0.0
O56 O 0.96414 0.26376 0.29431 0.0
O57 O 0.87271 0.3352 0.24336 0.0
C58 C 0.95329 0.29418 0.15886 0.0
C59 C 0.95323 0.28795 0.31702 0.0
Zn60 Zn 0.08877 0.37646 0.73439 0.0
Zn61 Zn 0.08408 0.28413 0.74227 0.0
C62 C 0.1792 0.41714 0.76177 0.0
O63 O 0.1666 0.43894 0.78928 0.0
C64 C 0.00775 0.20289 0.71851 0.0
O65 O 0.03773 0.1994 0.69409 0.0
O66 O 0.09448 0.43604 0.728 0.0
O67 O 0.05693 0.34161 0.67878 0.0
O68 O 0.09888 0.3114 0.67688 0.0
C69 C 0.12199 0.46304 0.69846 0.0
O70 O 0.14437 0.4507 0.67158 0.0
O71 O 0.15094 0.38669 0.73562 0.0
C72 C 0.10613 0.2249 0.78477 0.0
O73 O 0.07924 0.22476 0.81709 0.0
O74 O 0.11492 0.24946 0.74874 0.0
O75 O 0.09736 0.31825 0.80377 0.0
O76 O 0.05817 0.35089 0.79411 0.0
O77 O 0.01903 0.23796 0.74174 0.0
C78 C 0.0745 0.32332 0.65602 0.0
C79 C 0.07453 0.33383 0.82077 0.0
Zn80 Zn 0.28797 0.88121 0.73377 0.0
Zn81 Zn 0.20914 0.92361 0.74255 0.0
C82 C 0.23701 0.79057 0.75129 0.0
O83 O 0.27175 0.80101 0.77768 0.0
C84 C 0.22854 0.01286 0.74447 0.0
O85 O 0.26883 0.02082 0.73687 0.0
O86 O 0.3415 0.87391 0.73199 0.0
O87 O 0.29328 0.91714 0.67607 0.0
O88 O 0.24264 0.93727 0.68175 0.0
C89 C 0.37953 0.90557 0.72153 0.0
O90 O 0.38431 0.94394 0.71005 0.0
O91 O 0.23472 0.82067 0.72886 0.0
C92 C 0.12082 0.86832 0.76833 0.0
O93 O 0.13524 0.8961 0.80389 0.0
O94 O 0.14831 0.87027 0.73781 0.0
O95 O 0.24128 0.92854 0.80284 0.0
O96 O 0.29074 0.90674 0.79806 0.0
O97 O 0.19724 0.9734 0.74808 0.0
C98 C 0.27302 0.93562 0.65919 0.0
C99 C 0.27123 0.92298 0.82112 0.0
Zn100 Zn 0.59703 0.71188 0.75778 0.0
Zn101 Zn 0.71455 0.79057 0.75177 0.0
C102 C 0.57815 0.77501 0.79535 0.0
O103 O 0.56862 0.74894 0.83202 0.0
C104 C 0.79437 0.78853 0.7336 0.0
O105 O 0.78928 0.80095 0.69143 0.0
O106 O 0.53381 0.66477 0.76789 0.0
O107 O 0.6156 0.70283 0.69504 0.0
O108 O 0.68627 0.7549 0.69205 0.0
C109 C 0.5161 0.62567 0.7523 0.0
O110 O 0.53961 0.61315 0.72756 0.0
O111 O 0.5955 0.76828 0.75926 0.0
C112 C 0.77407 0.87975 0.76954 0.0
O113 O 0.78143 0.86013 0.80491 0.0
O114 O 0.74393 0.85655 0.73988 0.0
O115 O 0.681 0.77636 0.81374 0.0
O116 O 0.63135 0.70584 0.81014 0.0
O117 O 0.7656 0.78054 0.76518 0.0
C118 C 0.65186 0.72351 0.6731 0.0
C119 C 0.66223 0.73815 0.83178 0.0
H120 H 0.29655 0.91727 0.89054 0.0
C121 C 0.28279 0.93433 0.87115 0.0
H122 H 0.26319 0.98203 0.87304 0.0
H123 H 0.22288 0.98477 0.08599 0.0
H124 H 0.15237 0.9618 0.04943 0.0
H125 H 0.14038 0.94249 0.96494 0.0
H126 H 0.19918 0.94682 0.91642 0.0
C127 C 0.27679 0.96501 0.89282 0.0
C128 C 0.28402 0.97385 0.94453 0.0
C129 C 0.24868 0.96953 0.97291 0.0
C130 C 0.25509 0.97901 0.02206 0.0
C131 C 0.21977 0.97667 0.04886 0.0
C132 C 0.17898 0.96369 0.02827 0.0
C133 C 0.17227 0.95292 0.98071 0.0
C134 C 0.20651 0.95576 0.95319 0.0
H135 H 0.36037 0.06464 0.08504 0.0
C136 C 0.33546 0.04207 0.10957 0.0
H137 H 0.27861 0.9804 0.11947 0.0
H138 H 0.36155 0.9936 0.9 0.0
H139 H 0.42974 0.00872 0.93776 0.0
H140 H 0.43642 0.01177 0.02455 0.0
H141 H 0.37551 0.00169 0.07383 0.0
C142 C 0.30304 0.00279 0.09443 0.0
C143 C 0.29631 0.99092 0.04329 0.0
C144 C 0.33083 0.99269 0.01536 0.0
C145 C 0.32553 0.98667 0.96562 0.0
C146 C 0.36246 0.99429 0.93812 0.0
C147 C 0.40205 0.00353 0.95934 0.0
C148 C 0.40591 0.00554 0.00816 0.0
C149 C 0.37083 0.00019 0.03602 0.0
H150 H 0.62455 0.68005 0.61141 0.0
C151 C 0.65379 0.70888 0.62497 0.0
H152 H 0.71986 0.75723 0.61121 0.0
H153 H 0.75264 0.6474 0.45719 0.0
H154 H 0.80188 0.65184 0.51995 0.0
H155 H 0.80046 0.6828 0.59767 0.0
H156 H 0.75013 0.70982 0.61302 0.0
C157 C 0.6899 0.72918 0.59782 0.0
C158 C 0.69101 0.71129 0.55059 0.0
C159 C 0.72027 0.69508 0.54252 0.0
C160 C 0.72072 0.67672 0.49794 0.0
C161 C 0.75076 0.66144 0.4905 0.0
C162 C 0.77918 0.66374 0.52623 0.0
C163 C 0.77839 0.68119 0.56998 0.0
C164 C 0.74933 0.69665 0.57828 0.0
H165 H 0.72335 0.7252 0.38722 0.0
C166 C 0.71395 0.69131 0.37913 0.0
H167 H 0.68881 0.62727 0.40712 0.0
H168 H 0.63455 0.7443 0.55202 0.0
H169 H 0.58339 0.73703 0.49035 0.0
H170 H 0.57984 0.69937 0.41557 0.0
H171 H 0.62821 0.6696 0.40178 0.0
C172 C 0.69656 0.66094 0.41333 0.0
C173 C 0.69188 0.67457 0.46164 0.0
C174 C 0.66176 0.68963 0.47012 0.0
C175 C 0.66219 0.7092 0.51414 0.0
C176 C 0.6341 0.72705 0.52024 0.0
C177 C 0.60482 0.72348 0.48491 0.0
C178 C 0.60295 0.70246 0.44274 0.0
C179 C 0.63107 0.68575 0.43519 0.0
H180 H 0.95618 0.33025 0.09393 0.0
C181 C 0.96915 0.31149 0.11133 0.0
H182 H 0.00972 0.28304 0.10495 0.0
H183 H 0.98295 0.25936 0.88503 0.0
H184 H 0.93696 0.1842 0.9116 0.0
H185 H 0.92253 0.16714 0.99644 0.0
H186 H 0.95379 0.22522 0.05503 0.0
C187 C 0.99738 0.30273 0.08848 0.0
C188 C 0.00718 0.31352 0.03796 0.0
C189 C 0.9892 0.27895 0.00443 0.0
C190 C 0.9981 0.28864 0.95577 0.0
C191 C 0.9784 0.25374 0.92266 0.0
C192 C 0.95161 0.21043 0.9374 0.0
C193 C 0.94345 0.20084 0.98513 0.0
C194 C 0.96174 0.23455 0.0184 0.0
H195 H 0.07839 0.3131 0.893 0.0
C196 C 0.06522 0.32953 0.87146 0.0
H197 H 0.02566 0.35952 0.87046 0.0
H198 H 0.04773 0.38718 0.09374 0.0
H199 H 0.09314 0.46248 0.06689 0.0
H200 H 0.10809 0.47932 0.98206 0.0
H201 H 0.07783 0.42087 0.92361 0.0
C202 C 0.03865 0.34237 0.89096 0.0
C203 C 0.02589 0.33275 0.9411 0.0
C204 C 0.04301 0.3674 0.97446 0.0
C205 C 0.03393 0.35775 0.02318 0.0
C206 C 0.05277 0.39275 0.05614 0.0
C207 C 0.07911 0.43611 0.04122 0.0
C208 C 0.08757 0.44559 0.99347 0.0
C209 C 0.06998 0.41175 0.96031 0.0
H210 H 0.38088 0.05101 0.37976 0.0
C211 C 0.348 0.03988 0.36594 0.0
H212 H 0.27957 0.00156 0.37893 0.0
H213 H 0.28875 0.88152 0.53747 0.0
H214 H 0.2635 0.83069 0.47147 0.0
H215 H 0.2631 0.8566 0.39062 0.0
H216 H 0.28774 0.9335 0.37531 0.0
C217 C 0.31269 0.01395 0.39262 0.0
C218 C 0.31724 0.99961 0.44069 0.0
C219 C 0.30344 0.95473 0.44894 0.0
C220 C 0.30416 0.9399 0.49547 0.0
C221 C 0.28924 0.89467 0.50281 0.0
C222 C 0.27464 0.86512 0.46522 0.0
C223 C 0.27438 0.87969 0.41971 0.0
C224 C 0.28853 0.92391 0.41144 0.0
H225 H 0.26528 0.97061 0.59894 0.0
C226 C 0.28361 0.95517 0.61162 0.0
H227 H 0.33069 0.93659 0.59404 0.0
H228 H 0.34506 0.08794 0.4377 0.0
H229 H 0.3742 0.13929 0.50294 0.0
H230 H 0.38016 0.11427 0.58257 0.0
H231 H 0.35619 0.03743 0.59748 0.0
C232 C 0.31316 0.95331 0.58296 0.0
C233 C 0.31867 0.97002 0.53366 0.0
C234 C 0.33492 0.01537 0.525 0.0
C235 C 0.3333 0.03008 0.47865 0.0
C236 C 0.34702 0.0751 0.47173 0.0
C237 C 0.36362 0.10496 0.50898 0.0
C238 C 0.36683 0.09086 0.55384 0.0
C239 C 0.35269 0.04663 0.56197 0.0
H240 H 0.69679 0.7614 0.89983 0.0
C241 C 0.67354 0.73232 0.8802 0.0
H242 H 0.63276 0.66307 0.88133 0.0
H243 H 0.7773 0.71278 0.05778 0.0
H244 H 0.83252 0.73458 0.99632 0.0
H245 H 0.81264 0.73347 0.91256 0.0
H246 H 0.73754 0.71094 0.88989 0.0
C247 C 0.65658 0.69239 0.90018 0.0
C248 C 0.66761 0.68747 0.94957 0.0
C249 C 0.71146 0.69962 0.96197 0.0
C250 C 0.7227 0.69944 0.01009 0.0
C251 C 0.76692 0.71243 0.02172 0.0
C252 C 0.79893 0.72484 0.98678 0.0
C253 C 0.78776 0.72427 0.93965 0.0
C254 C 0.74457 0.71163 0.92716 0.0
H255 H 0.67163 0.62207 0.10916 0.0
C256 C 0.69249 0.65503 0.12307 0.0
H257 H 0.72503 0.72328 0.10883 0.0
H258 H 0.5796 0.65792 0.93685 0.0
H259 H 0.52389 0.63382 -0.002 0.0
H260 H 0.54351 0.6341 0.08169 0.0
H261 H 0.61884 0.65825 0.10467 0.0
C262 C 0.70309 0.69024 0.09573 0.0
C263 C 0.68987 0.6861 0.04546 0.0
C264 C 0.64556 0.67176 0.03283 0.0
C265 C 0.63435 0.67212 0.98466 0.0
C266 C 0.58998 0.65824 0.97289 0.0
C267 C 0.55765 0.6444 0.00765 0.0
C268 C 0.56868 0.64452 0.05476 0.0
C269 C 0.61209 0.65825 0.06744 0.0
H270 H 0.95817 0.31955 0.3858 0.0
C271 C 0.96996 0.30137 0.3652 0.0
H272 H 0.00927 0.27115 0.36486 0.0
H273 H 0.08129 0.40411 0.55165 0.0
H274 H 0.11085 0.46391 0.49491 0.0
H275 H 0.09581 0.44906 0.40978 0.0
H276 H 0.05094 0.37437 0.38099 0.0
C277 C 0.9981 0.29035 0.3845 0.0
C278 C 0.01058 0.2994 0.43476 0.0
C279 C 0.03738 0.34324 0.45068 0.0
C280 C 0.04655 0.35171 0.49952 0.0
C281 C 0.07322 0.3958 0.51481 0.0
C282 C 0.0905 0.43043 0.48263 0.0
C283 C 0.08198 0.42208 0.43472 0.0
C284 C 0.05591 0.37906 0.4187 0.0
H285 H 0.08136 0.29929 0.58639 0.0
C286 C 0.06607 0.31513 0.60534 0.0
H287 H 0.02419 0.3423 0.6008 0.0
H288 H 0.95984 0.21133 0.41493 0.0
H289 H 0.93083 0.15153 0.47155 0.0
H290 H 0.94567 0.16634 0.55669 0.0
H291 H 0.98976 0.24095 0.58559 0.0
C292 C 0.0389 0.32549 0.58271 0.0
C293 C 0.02956 0.31626 0.53191 0.0
C294 C 0.00334 0.27232 0.51592 0.0
C295 C 0.99424 0.26386 0.46706 0.0
C296 C 0.96786 0.21972 0.45174 0.0
C297 C 0.95089 0.18503 0.48388 0.0
C298 C 0.95929 0.19336 0.53179 0.0
C299 C 0.98496 0.23641 0.54786 0.0
H300 H 0.54674 0.16322 0.23863 0.0
C301 C 0.52481 0.12779 0.2373 0.0
H302 H 0.52038 0.06552 0.23928 0.0
H303 H 0.73015 0.22314 0.19461 0.0
H304 H 0.70226 0.23228 0.11994 0.0
H305 H 0.62314 0.1882 0.10062 0.0
H306 H 0.57134 0.1354 0.1567 0.0
C307 C 0.54189 0.101 0.23914 0.0
C308 C 0.59018 0.11938 0.24572 0.0
C309 C 0.62041 0.148 0.21143 0.0
C310 C 0.66633 0.17162 0.2216 0.0
C311 C 0.69523 0.20276 0.1882 0.0
C312 C 0.6796 0.20859 0.14515 0.0
C313 C 0.63505 0.18391 0.13435 0.0
C314 C 0.60565 0.15396 0.16697 0.0
H315 H 0.7555 0.16837 0.22906 0.0
C316 C 0.76242 0.192 0.2572 0.0
H317 H 0.73555 0.21653 0.30738 0.0
H318 H 0.54151 0.06307 0.31693 0.0
H319 H 0.56978 0.0496 0.38933 0.0
H320 H 0.6497 0.08788 0.40533 0.0
H321 H 0.70186 0.14015 0.34904 0.0
C322 C 0.72898 0.19317 0.27905 0.0
C323 C 0.68208 0.16456 0.26507 0.0
C324 C 0.65211 0.13329 0.29765 0.0
C325 C 0.60608 0.11076 0.28808 0.0
C326 C 0.57683 0.08079 0.32207 0.0
C327 C 0.59262 0.07275 0.36384 0.0
C328 C 0.63761 0.09434 0.37288 0.0
C329 C 0.66716 0.12434 0.34035 0.0
H330 H 0.60874 0.46512 0.28029 0.0
C331 C 0.59526 0.48602 0.27062 0.0
H332 H 0.53713 0.48751 0.25336 0.0
H333 H 0.4805 0.28499 0.19621 0.0
H334 H 0.50666 0.31902 0.11999 0.0
H335 H 0.53945 0.39916 0.10989 0.0
H336 H 0.54679 0.4458 0.17662 0.0
C337 C 0.55169 0.46774 0.26355 0.0
C338 C 0.52291 0.4193 0.26768 0.0
C339 C 0.51663 0.39221 0.22807 0.0
C340 C 0.49621 0.34582 0.23368 0.0
C341 C 0.49382 0.32009 0.19402 0.0
C342 C 0.50913 0.3393 0.14993 0.0
C343 C 0.5277 0.38442 0.14425 0.0
C344 C 0.53175 0.41078 0.1828 0.0
H345 H 0.40843 0.25383 0.24438 0.0
C346 C 0.42878 0.24635 0.26718 0.0
H347 H 0.48553 0.27191 0.31018 0.0
H348 H 0.52551 0.46197 0.3492 0.0
H349 H 0.49638 0.42822 0.4255 0.0
H350 H 0.4589 0.34761 0.43519 0.0
H351 H 0.45045 0.30024 0.36879 0.0
C352 C 0.46521 0.27925 0.28717 0.0
C353 C 0.48044 0.32659 0.27881 0.0
C354 C 0.48422 0.35369 0.31772 0.0
C355 C 0.50557 0.40011 0.31215 0.0
C356 C 0.50969 0.42651 0.35172 0.0
C357 C 0.49302 0.40756 0.3956 0.0
C358 C 0.47193 0.36217 0.40106 0.0
C359 C 0.46745 0.33538 0.36271 0.0
H360 H 0.84522 0.39135 0.25193 0.0
C361 C 0.88082 0.40582 0.25388 0.0
H362 H 0.94173 0.46426 0.26421 0.0
H363 H 0.78578 0.5161 0.21017 0.0
H364 H 0.78514 0.48657 0.13293 0.0
H365 H 0.83234 0.45472 0.11544 0.0
H366 H 0.87966 0.45128 0.17582 0.0
C367 C 0.90622 0.4494 0.26073 0.0
C368 C 0.8859 0.47751 0.26777 0.0
C369 C 0.86061 0.48191 0.23131 0.0
C370 C 0.83538 0.50264 0.24068 0.0
C371 C 0.80741 0.5029 0.20467 0.0
C372 C 0.80642 0.48569 0.16009 0.0
C373 C 0.83284 0.46759 0.1503 0.0
C374 C 0.85962 0.46556 0.18536 0.0
H375 H 0.83528 0.59221 0.25102 0.0
C376 C 0.81018 0.57421 0.27754 0.0
H377 H 0.7829 0.52059 0.32489 0.0
H378 H 0.93448 0.47857 0.34408 0.0
H379 H 0.93953 0.51284 0.41989 0.0
H380 H 0.89886 0.55215 0.43493 0.0
H381 H 0.85261 0.55716 0.37428 0.0
C382 C 0.80775 0.53855 0.29815 0.0
C383 C 0.83768 0.52136 0.28581 0.0
C384 C 0.86551 0.51971 0.32112 0.0
C385 C 0.88951 0.49763 0.31219 0.0
C386 C 0.91589 0.49531 0.34872 0.0
C387 C 0.91908 0.51483 0.39245 0.0
C388 C 0.89615 0.53691 0.40094 0.0
C389 C 0.86961 0.53941 0.36586 0.0
H390 H 0.16436 0.53299 0.68151 0.0
C391 C 0.13398 0.5096 0.69912 0.0
H392 H 0.08074 0.50092 0.74144 0.0
H393 H 0.19019 0.68591 0.84066 0.0
H394 H 0.16534 0.6351 0.90667 0.0
H395 H 0.12426 0.55491 0.89337 0.0
H396 H 0.10726 0.52508 0.81425 0.0
C397 C 0.11082 0.52417 0.72333 0.0
C398 C 0.12922 0.57217 0.73141 0.0
C399 C 0.13879 0.58892 0.77811 0.0
C400 C 0.16343 0.63511 0.78579 0.0
C401 C 0.17237 0.65107 0.83278 0.0
C402 C 0.15817 0.62229 0.87102 0.0
C403 C 0.13498 0.57716 0.86353 0.0
C404 C 0.12539 0.56048 0.81776 0.0
H405 H 0.17246 0.73647 0.72686 0.0
C406 C 0.20316 0.74413 0.74423 0.0
H407 H 0.24181 0.71935 0.77327 0.0
H408 H 0.10581 0.55127 0.63892 0.0
H409 H 0.13198 0.6017 0.57242 0.0
H410 H 0.18235 0.68113 0.58473 0.0
H411 H 0.20561 0.71071 0.66326 0.0
C412 C 0.21124 0.71168 0.7556 0.0
C413 C 0.17925 0.66438 0.74686 0.0
C414 C 0.16781 0.64768 0.70016 0.0
C415 C 0.14127 0.60159 0.69269 0.0
C416 C 0.12784 0.58579 0.64617 0.0
C417 C 0.14233 0.61438 0.60778 0.0
C418 C 0.1705 0.65911 0.61475 0.0
C419 C 0.18332 0.67573 0.66025 0.0
H420 H 0.44982 0.92668 0.7106 0.0
C421 C 0.41846 0.89988 0.72299 0.0
H422 H 0.38484 0.83576 0.75152 0.0
H423 H 0.51264 0.77114 0.68498 0.0
H424 H 0.45177 0.73172 0.63093 0.0
H425 H 0.39207 0.74938 0.62534 0.0
H426 H 0.39281 0.80642 0.6742 0.0
C427 C 0.41622 0.86311 0.74 0.0
C428 C 0.45503 0.85658 0.7401 0.0
C429 C 0.45474 0.82392 0.71047 0.0
C430 C 0.48961 0.81437 0.71307 0.0
C431 C 0.48754 0.78045 0.6841 0.0
C432 C 0.45267 0.7574 0.65288 0.0
C433 C 0.41903 0.76729 0.64977 0.0
C434 C 0.41984 0.80007 0.67814 0.0
H435 H 0.53937 0.80381 0.82223 0.0
C436 C 0.55886 0.80384 0.79236 0.0
H437 H 0.57597 0.82212 0.72124 0.0
H438 H 0.46541 0.92047 0.80314 0.0
H439 H 0.52827 0.96265 0.85423 0.0
H440 H 0.59118 0.94954 0.85459 0.0
H441 H 0.59114 0.89347 0.80432 0.0
C442 C 0.55806 0.82344 0.75191 0.0
C443 C 0.52498 0.83781 0.74512 0.0
C444 C 0.52645 0.87209 0.77294 0.0
C445 C 0.491 0.88091 0.77119 0.0
C446 C 0.49208 0.91342 0.80165 0.0
C447 C 0.5279 0.93774 0.8314 0.0
C448 C 0.56326 0.93027 0.83172 0.0
C449 C 0.56271 0.89785 0.80293 0.0
H450 H 0.2354 0.41228 0.7335 0.0
C451 C 0.22631 0.43128 0.75645 0.0
H452 H 0.24928 0.48806 0.79889 0.0
H453 H 0.44321 0.52774 0.82858 0.0
H454 H 0.41222 0.49863 0.90577 0.0
H455 H 0.33211 0.46337 0.91956 0.0
H456 H 0.28249 0.45695 0.85626 0.0
C457 C 0.25793 0.46903 0.77548 0.0
C458 C 0.30557 0.48658 0.76564 0.0
C459 C 0.33408 0.49001 0.80297 0.0
C460 C 0.38028 0.51058 0.79514 0.0
C461 C 0.40795 0.51317 0.83291 0.0
C462 C 0.39057 0.49637 0.87729 0.0
C463 C 0.34546 0.47649 0.88504 0.0
C464 C 0.31737 0.47315 0.84844 0.0
H465 H 0.45149 0.60787 0.7826 0.0
C466 C 0.46889 0.59559 0.76134 0.0
H467 H 0.46263 0.5424 0.72035 0.0
H468 H 0.26074 0.48763 0.68631 0.0
H469 H 0.29179 0.51488 0.60908 0.0
H470 H 0.37159 0.54772 0.59499 0.0
H471 H 0.42086 0.55388 0.65845 0.0
C472 C 0.44646 0.55484 0.74323 0.0
C473 C 0.39792 0.52797 0.75006 0.0
C474 C 0.36931 0.52277 0.71216 0.0
C475 C 0.32313 0.50276 0.72006 0.0
C476 C 0.29579 0.50091 0.68219 0.0
C477 C 0.31326 0.51681 0.63761 0.0
C478 C 0.35819 0.53538 0.6297 0.0
C479 C 0.38609 0.53866 0.66644 0.0
H480 H 0.25097 0.16851 0.24218 0.0
C481 C 0.23193 0.13957 0.26398 0.0
H482 H 0.17212 0.10002 0.3 0.0
H483 H 0.09221 0.22006 0.32618 0.0
H484 H 0.11421 0.21639 0.40627 0.0
H485 H 0.16277 0.18597 0.42323 0.0
H486 H 0.18921 0.15855 0.36005 0.0
C487 C 0.19118 0.12907 0.27833 0.0
C488 C 0.16961 0.15522 0.26617 0.0
C489 C 0.15569 0.17267 0.30319 0.0
C490 C 0.12853 0.19119 0.29325 0.0
C491 C 0.11353 0.20639 0.33137 0.0
C492 C 0.12585 0.20442 0.37765 0.0
C493 C 0.15312 0.18723 0.38721 0.0
C494 C 0.16792 0.17145 0.35061 0.0
H495 H 0.03746 0.14748 0.20382 0.0
C496 C 0.0438 0.1794 0.21631 0.0
H497 H 0.08911 0.23874 0.24976 0.0
H498 H 0.18752 0.12236 0.18609 0.0
H499 H 0.17112 0.13215 0.10566 0.0
H500 H 0.13216 0.17271 0.08804 0.0
H501 H 0.10806 0.20237 0.15126 0.0
C502 C 0.0828 0.20704 0.23659 0.0
C503 C 0.11601 0.1931 0.24605 0.0
C504 C 0.13305 0.1791 0.20865 0.0
C505 C 0.15836 0.15853 0.21872 0.0
C506 C 0.17063 0.14063 0.18074 0.0
C507 C 0.16106 0.14567 0.13421 0.0
C508 C 0.13893 0.16829 0.1243 0.0
C509 C 0.12497 0.18483 0.16093 0.0
H510 H 0.9202 0.77597 0.24306 0.0
C511 C 0.90857 0.79554 0.26117 0.0
H512 H 0.92561 0.85678 0.29183 0.0
H513 H 0.12447 0.93444 0.33423 0.0
H514 H 0.09386 0.9205 0.41308 0.0
H515 H 0.01354 0.87682 0.42567 0.0
H516 H 0.96332 0.84729 0.35932 0.0
C517 C 0.93727 0.83716 0.27389 0.0
C518 C 0.98557 0.85807 0.26563 0.0
C519 C 0.0146 0.87385 0.30485 0.0
C520 C 0.06096 0.89809 0.29762 0.0
C521 C 0.08902 0.91508 0.33748 0.0
C522 C 0.07189 0.90741 0.38307 0.0
C523 C 0.02667 0.88288 0.39016 0.0
C524 C 0.99822 0.86625 0.35169 0.0
H525 H 0.11851 0.98052 0.20168 0.0
C526 C 0.14159 0.97301 0.21917 0.0
H527 H 0.14933 0.92798 0.26166 0.0
H528 H 0.93974 0.83688 0.18163 0.0
H529 H 0.97046 0.84552 0.10332 0.0
H530 H 0.05069 0.87887 0.09175 0.0
H531 H 0.10065 0.90511 0.15861 0.0
C532 C 0.12641 0.9354 0.24369 0.0
C533 C 0.07825 0.90568 0.25114 0.0
C534 C 0.04932 0.88726 0.21207 0.0
C535 C 0.00291 0.86506 0.21909 0.0
C536 C 0.97506 0.8514 0.1789 0.0
C537 C 0.99231 0.85656 0.13355 0.0
C538 C 0.03747 0.87554 0.127 0.0
C539 C 0.06579 0.89079 0.16566 0.0
H540 H 0.88595 0.08269 0.29249 0.0
C541 C 0.8778 0.1002 0.26638 0.0
H542 H 0.84418 0.09546 0.20309 0.0
H543 H 0.86233 0.93653 0.12624 0.0
H544 H 0.89329 0.99023 0.06322 0.0
H545 H 0.90107 0.06368 0.07195 0.0
H546 H 0.87729 0.08359 0.14314 0.0
C547 C 0.85158 0.07795 0.22984 0.0
C548 C 0.8397 0.03132 0.22118 0.0
C549 C 0.85418 0.02043 0.17916 0.0
C550 C 0.85091 0.97853 0.17464 0.0
C551 C 0.86496 0.96822 0.13203 0.0
C552 C 0.88268 0.99868 0.09547 0.0
C553 C 0.88699 0.03999 0.10036 0.0
C554 C 0.87309 0.05097 0.1416 0.0
H555 H 0.76797 0.86402 0.21845 0.0
C556 C 0.79981 0.86668 0.2121 0.0
H557 H 0.86797 0.90927 0.20281 0.0
H558 H 0.79736 0.03675 0.29958 0.0
H559 H 0.76904 0.98454 0.3645 0.0
H560 H 0.77375 0.91675 0.36233 0.0
H561 H 0.80493 0.89993 0.29489 0.0
C562 C 0.83609 0.90654 0.20911 0.0
C563 C 0.83442 0.94807 0.21254 0.0
C564 C 0.81861 0.95848 0.25399 0.0
C565 C 0.81923 0.99922 0.2571 0.0
C566 C 0.79994 0.00737 0.29689 0.0
C567 C 0.78332 0.97759 0.33415 0.0
C568 C 0.78574 0.93932 0.3328 0.0
C569 C 0.8033 0.92981 0.29343 0.0
H570 H 0.1124 0.17204 0.81914 0.0
C571 C 0.12212 0.19349 0.78845 0.0
H572 H 0.15376 0.20851 0.72205 0.0
H573 H 0.22382 0.08618 0.83249 0.0
H574 H 0.26117 0.14753 0.88657 0.0
H575 H 0.25198 0.21256 0.8799 0.0
H576 H 0.20462 0.21614 0.81969 0.0
C577 C 0.14551 0.18866 0.75389 0.0
C578 C 0.15507 0.15201 0.7551 0.0
C579 C 0.18449 0.15147 0.78913 0.0
C580 C 0.19149 0.115 0.79148 0.0
C581 C 0.21883 0.11394 0.82772 0.0
C582 C 0.24023 0.14881 0.85926 0.0
C583 C 0.23492 0.18534 0.85562 0.0
C584 C 0.20743 0.18685 0.82104 0.0
H585 H 0.24686 0.08267 0.74067 0.0
C586 C 0.21986 0.04961 0.74762 0.0
H587 H 0.15228 0.01025 0.76436 0.0
H588 H 0.0953 0.14213 0.68676 0.0
H589 H 0.05919 0.08151 0.63161 0.0
H590 H 0.07442 0.02009 0.63293 0.0
H591 H 0.12543 0.0187 0.68974 0.0
C592 C 0.17978 0.04325 0.75845 0.0
C593 C 0.17078 0.08029 0.75823 0.0
C594 C 0.14153 0.08095 0.72409 0.0
C595 C 0.13345 0.11674 0.72271 0.0
C596 C 0.10323 0.1161 0.68897 0.0
C597 C 0.0822 0.08146 0.6571 0.0
C598 C 0.09075 0.04688 0.65786 0.0
C599 C 0.12011 0.0465 0.69076 0.0
H600 H 0.06269 0.82448 0.72489 0.0
C601 C 0.07314 0.84286 0.75778 0.0
H602 H 0.05442 0.86771 0.81561 0.0
H603 H 0.9083 0.88579 0.70825 0.0
H604 H 0.96701 0.96179 0.71217 0.0
H605 H 0.0411 0.98081 0.74017 0.0
H606 H 0.05718 0.92403 0.76378 0.0
C607 C 0.04373 0.84763 0.78387 0.0
C608 C 0.99922 0.83508 0.76526 0.0
C609 C 0.99059 0.86874 0.75073 0.0
C610 C 0.94796 0.85773 0.73424 0.0
C611 C 0.94018 0.89213 0.72058 0.0
C612 C 0.97358 0.93598 0.72272 0.0
C613 C 0.01531 0.94669 0.73842 0.0
C614 C 0.02398 0.91367 0.75213 0.0
H615 H 0.83996 0.7827 0.783 0.0
C616 C 0.83567 0.78949 0.74654 0.0
H617 H 0.86594 0.81101 0.67996 0.0
H618 H 0.00428 0.7629 0.79198 0.0
H619 H 0.94582 0.68662 0.78686 0.0
H620 H 0.87254 0.66735 0.7557 0.0
H621 H 0.8571 0.72423 0.72988 0.0
C622 C 0.86924 0.80241 0.71599 0.0
C623 C 0.91392 0.81308 0.73234 0.0
C624 C 0.92267 0.77937 0.74624 0.0
C625 C 0.9653 0.79042 0.7631 0.0
C626 C 0.97279 0.75625 0.77804 0.0
C627 C 0.93949 0.71236 0.7754 0.0
C628 C 0.8982 0.70152 0.75794 0.0
C629 C 0.8897 0.73448 0.74343 0.0
H630 H 0.93671 0.17044 0.73645 0.0
C631 C 0.96245 0.16509 0.72221 0.0
H632 H 0.97943 0.11908 0.69696 0.0
H633 H 0.79518 0.98766 0.81397 0.0
H634 H 0.82833 0.03398 0.88278 0.0
H635 H 0.90044 0.1021 0.877 0.0
H636 H 0.93885 0.12519 0.80249 0.0
C637 C 0.95355 0.12409 0.71147 0.0
C638 C 0.90901 0.08415 0.71636 0.0
C639 C 0.88847 0.07003 0.76118 0.0
C640 C 0.84864 0.02894 0.76543 0.0
C641 C 0.82684 0.01722 0.80959 0.0
C642 C 0.84529 0.04366 0.84921 0.0
C643 C 0.88576 0.08213 0.84588 0.0
C644 C 0.90731 0.09524 0.80257 0.0
H645 H 0.83412 0.94219 0.78419 0.0
C646 C 0.80419 0.92736 0.76306 0.0
H647 H 0.76768 0.93832 0.71108 0.0
H648 H 0.93549 0.1042 0.62448 0.0
H649 H 0.90268 0.05703 0.55637 0.0
H650 H 0.8376 0.98301 0.56513 0.0
H651 H 0.80448 0.95602 0.64179 0.0
C652 C 0.79717 0.95277 0.73283 0.0
C653 C 0.83166 1.00009 0.72607 0.0
C654 C 0.85073 0.01524 0.68091 0.0
C655 C 0.88903 0.0575 0.67602 0.0
C656 C 0.90706 0.07201 0.63039 0.0
C657 C 0.88846 0.04534 0.59095 0.0
C658 C 0.85177 0.00371 0.59588 0.0
C659 C 0.83306 0.98862 0.64021 0.0
loop_
_geom_bond_atom_site_label_1
_geom_bond_atom_site_label_2
_geom_bond_distance
_geom_bond_site_symmetry_2
_ccdc_geom_bond_type
Zn0 O6 1.969 1_545 S
Zn0 O7 1.965 . S
Zn0 O11 2.024 . S
Zn0 O16 1.969 . S
Zn1 O8 1.969 . S
Zn1 O14 1.969 . S
Zn1 O15 1.965 . S
Zn1 O17 2.024 . S
C2 O3 1.229 . S
C2 O11 1.058 . S
O3 C2 1.229 . S
C4 O5 1.229 . S
C4 O17 1.058 . S
O5 C4 1.229 . S
O6 Zn0 1.969 1_565 S
O6 C9 1.267 . S
O7 Zn0 1.965 . S
O7 C18 1.260 . S
O8 Zn1 1.969 . S
O8 C18 1.258 . S
C9 O6 1.267 . S
C9 O10 1.228 . S
O10 C9 1.228 . S
O11 Zn0 2.024 . S
O11 C2 1.058 . S
C12 O13 1.228 . S
C12 O14 1.267 . S
O13 C12 1.228 . S
O14 Zn1 1.969 . S
O14 C12 1.267 . S
O15 Zn1 1.965 . S
O15 C19 1.260 . S
O16 Zn0 1.969 . S
O16 C19 1.258 . S
O17 Zn1 2.024 . S
O17 C4 1.058 . S
C18 O7 1.260 . S
C18 O8 1.258 . S
C19 O15 1.260 . S
C19 O16 1.258 . S
Zn20 O26 1.969 . S
Zn20 O27 1.965 . S
Zn20 O31 2.024 . S
Zn20 O36 1.969 . S
Zn21 O28 1.969 . S
Zn21 O34 1.969 . S
Zn21 O35 1.965 . S
Zn21 O37 2.024 . S
C22 O23 1.229 . S
C22 O31 1.058 . S
O23 C22 1.229 . S
C24 O25 1.229 . S
C24 O37 1.058 . S
O25 C24 1.229 . S
O26 Zn20 1.969 . S
O26 C29 1.267 . S
O27 Zn20 1.965 . S
O27 C38 1.260 . S
O28 Zn21 1.969 . S
O28 C38 1.258 . S
C29 O26 1.267 . S
C29 O30 1.228 . S
O30 C29 1.228 . S
O31 Zn20 2.024 . S
O31 C22 1.058 . S
C32 O33 1.228 . S
C32 O34 1.267 . S
O33 C32 1.228 . S
O34 Zn21 1.969 . S
O34 C32 1.267 . S
O35 Zn21 1.965 . S
O35 C39 1.260 . S
O36 Zn20 1.969 . S
O36 C39 1.258 . S
O37 Zn21 2.024 . S
O37 C24 1.058 . S
C38 O27 1.260 . S
C38 O28 1.258 . S
C39 O35 1.260 . S
C39 O36 1.258 . S
Zn40 O46 1.969 1_655 S
Zn40 O47 1.965 . S
Zn40 O51 2.024 . S
Zn40 O56 1.969 . S
Zn41 O48 1.969 . S
Zn41 O54 1.969 . S
Zn41 O55 1.965 . S
Zn41 O57 2.024 . S
C42 O43 1.229 . S
C42 O51 1.058 . S
O43 C42 1.229 . S
C44 O45 1.229 . S
C44 O57 1.058 . S
O45 C44 1.229 . S
O46 Zn40 1.969 1_455 S
O46 C49 1.267 . S
O47 Zn40 1.965 . S
O47 C58 1.260 . S
O48 Zn41 1.969 . S
O48 C58 1.258 . S
C49 O46 1.267 . S
C49 O50 1.228 . S
O50 C49 1.228 . S
O51 Zn40 2.024 . S
O51 C42 1.058 . S
C52 O53 1.228 . S
C52 O54 1.267 . S
O53 C52 1.228 . S
O54 Zn41 1.969 . S
O54 C52 1.267 . S
O55 Zn41 1.965 . S
O55 C59 1.260 . S
O56 Zn40 1.969 . S
O56 C59 1.258 . S
O57 Zn41 2.024 . S
O57 C44 1.058 . S
C58 O47 1.260 . S
C58 O48 1.258 . S
C59 O55 1.260 . S
C59 O56 1.258 . S
Zn60 O66 1.969 . S
Zn60 O67 1.965 . S
Zn60 O71 2.024 . S
Zn60 O76 1.969 . S
Zn61 O68 1.969 . S
Zn61 O74 1.969 . S
Zn61 O75 1.965 . S
Zn61 O77 2.024 . S
C62 O63 1.229 . S
C62 O71 1.058 . S
O63 C62 1.229 . S
C64 O65 1.229 1_655 S
C64 O77 1.058 1_655 S
O65 C64 1.229 1_455 S
O66 Zn60 1.969 . S
O66 C69 1.267 . S
O67 Zn60 1.965 . S
O67 C78 1.260 . S
O68 Zn61 1.969 . S
O68 C78 1.258 . S
C69 O66 1.267 . S
C69 O70 1.228 . S
O70 C69 1.228 . S
O71 Zn60 2.024 . S
O71 C62 1.058 . S
C72 O73 1.228 . S
C72 O74 1.267 . S
O73 C72 1.228 . S
O74 Zn61 1.969 . S
O74 C72 1.267 . S
O75 Zn61 1.965 . S
O75 C79 1.260 . S
O76 Zn60 1.969 . S
O76 C79 1.258 . S
O77 Zn61 2.024 . S
O77 C64 1.058 1_455 S
C78 O67 1.260 . S
C78 O68 1.258 . S
C79 O75 1.260 . S
C79 O76 1.258 . S
Zn80 O86 1.969 . S
Zn80 O87 1.965 . S
Zn80 O91 2.024 . S
Zn80 O96 1.969 . S
Zn81 O88 1.969 . S
Zn81 O94 1.969 . S
Zn81 O95 1.965 . S
Zn81 O97 2.024 . S
C82 O83 1.229 . S
C82 O91 1.058 . S
O83 C82 1.229 . S
C84 O85 1.229 1_545 S
C84 O97 1.058 1_545 S
O85 C84 1.229 1_565 S
O86 Zn80 1.969 . S
O86 C89 1.267 . S
O87 Zn80 1.965 . S
O87 C98 1.260 . S
O88 Zn81 1.969 . S
O88 C98 1.258 . S
C89 O86 1.267 . S
C89 O90 1.228 . S
O90 C89 1.228 . S
O91 Zn80 2.024 . S
O91 C82 1.058 . S
C92 O93 1.228 . S
C92 O94 1.267 . S
O93 C92 1.228 . S
O94 Zn81 1.969 . S
O94 C92 1.267 . S
O95 Zn81 1.965 . S
O95 C99 1.260 . S
O96 Zn80 1.969 . S
O96 C99 1.258 . S
O97 Zn81 2.024 . S
O97 C84 1.058 1_565 S
C98 O87 1.260 . S
C98 O88 1.258 . S
C99 O95 1.260 . S
C99 O96 1.258 . S
Zn100 O106 1.969 . S
Zn100 O107 1.965 . S
Zn100 O111 2.024 . S
Zn100 O116 1.969 . S
Zn101 O108 1.969 . S
Zn101 O114 1.969 . S
Zn101 O115 1.965 . S
Zn101 O117 2.024 . S
C102 O103 1.229 . S
C102 O111 1.058 . S
O103 C102 1.229 . S
C104 O105 1.229 . S
C104 O117 1.058 . S
O105 C104 1.229 . S
O106 Zn100 1.969 . S
O106 C109 1.267 . S
O107 Zn100 1.965 . S
O107 C118 1.260 . S
O108 Zn101 1.969 . S
O108 C118 1.258 . S
C109 O106 1.267 . S
C109 O110 1.228 . S
O110 C109 1.228 . S
O111 Zn100 2.024 . S
O111 C102 1.058 . S
C112 O113 1.228 . S
C112 O114 1.267 . S
O113 C112 1.228 . S
O114 Zn101 1.969 . S
O114 C112 1.267 . S
O115 Zn101 1.965 . S
O115 C119 1.260 . S
O116 Zn100 1.969 . S
O116 C119 1.258 . S
O117 Zn101 2.024 . S
O117 C104 1.058 . S
C118 O107 1.260 . S
C118 O108 1.258 . S
C119 O115 1.260 . S
C119 O116 1.258 . S
H120 C121 0.951 . S
C121 H120 0.951 . S
C121 C127 1.265 . S
H122 C127 0.950 . S
H123 C131 0.949 1_545 S
H124 C132 0.950 . S
H125 C133 0.951 . S
H126 C134 0.951 . S
C127 C121 1.265 . S
C127 H122 0.950 . S
C127 C128 1.478 . S
C128 C127 1.478 . S
C128 C129 1.397 . S
C128 C145 1.394 . S
C129 C128 1.397 . S
C129 C130 1.438 1_556 S
C129 C134 1.429 . S
C130 C129 1.438 1_554 S
C130 C131 1.428 . S
C130 C143 1.394 1_565 S
C131 H123 0.949 1_565 S
C131 C130 1.428 . S
C131 C132 1.345 . S
C132 H124 0.950 . S
C132 C131 1.345 . S
C132 C133 1.424 . S
C133 H125 0.951 . S
C133 C132 1.424 . S
C133 C134 1.347 1_554 S
C134 H126 0.951 . S
C134 C129 1.429 . S
C134 C133 1.347 1_556 S
H135 C136 0.951 . S
C136 H135 0.951 . S
C136 C142 1.265 . S
H137 C142 0.950 . S
H138 C146 0.949 . S
H139 C147 0.950 . S
H140 C148 0.951 . S
H141 C149 0.951 . S
C142 C136 1.265 . S
C142 H137 0.950 . S
C142 C143 1.478 . S
C143 C130 1.394 1_545 S
C143 C142 1.478 . S
C143 C144 1.397 . S
C144 C143 1.397 . S
C144 C145 1.438 1_544 S
C144 C149 1.429 . S
C145 C128 1.394 . S
C145 C144 1.438 1_566 S
C145 C146 1.428 . S
C146 H138 0.949 . S
C146 C145 1.428 . S
C146 C147 1.345 1_565 S
C147 H139 0.950 . S
C147 C146 1.345 1_545 S
C147 C148 1.424 . S
C148 H140 0.951 . S
C148 C147 1.424 . S
C148 C149 1.347 1_556 S
C149 H141 0.951 . S
C149 C144 1.429 . S
C149 C148 1.347 1_554 S
H150 C151 0.951 . S
C151 H150 0.951 . S
C151 C157 1.265 . S
H152 C157 0.950 . S
H153 C161 0.949 . S
H154 C162 0.950 . S
H155 C163 0.951 . S
H156 C164 0.951 . S
C157 C151 1.265 . S
C157 H152 0.950 . S
C157 C158 1.478 . S
C158 C157 1.478 . S
C158 C159 1.397 . S
C158 C175 1.394 . S
C159 C158 1.397 . S
C159 C160 1.438 . S
C159 C164 1.429 . S
C160 C159 1.438 . S
C160 C161 1.428 . S
C160 C173 1.394 . S
C161 H153 0.949 . S
C161 C160 1.428 . S
C161 C162 1.345 . S
C162 H154 0.950 . S
C162 C161 1.345 . S
C162 C163 1.424 . S
C163 H155 0.951 . S
C163 C162 1.424 . S
C163 C164 1.347 . S
C164 H156 0.951 . S
C164 C159 1.429 . S
C164 C163 1.347 . S
H165 C166 0.951 . S
C166 H165 0.951 . S
C166 C172 1.265 . S
H167 C172 0.950 . S
H168 C176 0.949 . S
H169 C177 0.950 . S
H170 C178 0.951 . S
H171 C179 0.951 . S
C172 C166 1.265 . S
C172 H167 0.950 . S
C172 C173 1.478 . S
C173 C160 1.394 . S
C173 C172 1.478 . S
C173 C174 1.397 . S
C174 C173 1.397 . S
C174 C175 1.438 . S
C174 C179 1.429 . S
C175 C158 1.394 . S
C175 C174 1.438 . S
C175 C176 1.428 . S
C176 H168 0.949 . S
C176 C175 1.428 . S
C176 C177 1.345 . S
C177 H169 0.950 . S
C177 C176 1.345 . S
C177 C178 1.424 . S
C178 H170 0.951 . S
C178 C177 1.424 . S
C178 C179 1.347 . S
C179 H171 0.951 . S
C179 C174 1.429 . S
C179 C178 1.347 . S
H180 C181 0.951 . S
C181 H180 0.951 . S
C181 C187 1.265 . S
H182 C187 0.950 . S
H183 C191 0.949 1_455 S
H184 C192 0.950 . S
H185 C193 0.951 . S
H186 C194 0.951 . S
C187 C181 1.265 . S
C187 H182 0.950 . S
C187 C188 1.478 . S
C188 C187 1.478 . S
C188 C189 1.397 . S
C188 C205 1.394 1_655 S
C189 C188 1.397 . S
C189 C190 1.438 1_554 S
C189 C194 1.429 . S
C190 C189 1.438 1_556 S
C190 C191 1.428 . S
C190 C203 1.394 1_655 S
C191 H183 0.949 1_655 S
C191 C190 1.428 . S
C191 C192 1.345 . S
C192 H184 0.950 . S
C192 C191 1.345 . S
C192 C193 1.424 . S
C193 H185 0.951 . S
C193 C192 1.424 . S
C193 C194 1.347 1_556 S
C194 H186 0.951 . S
C194 C189 1.429 . S
C194 C193 1.347 1_554 S
H195 C196 0.951 . S
C196 H195 0.951 . S
C196 C202 1.265 . S
H197 C202 0.950 . S
H198 C206 0.949 . S
H199 C207 0.950 . S
H200 C208 0.951 . S
H201 C209 0.951 . S
C202 C196 1.265 . S
C202 H197 0.950 . S
C202 C203 1.478 . S
C203 C190 1.394 1_455 S
C203 C202 1.478 . S
C203 C204 1.397 . S
C204 C203 1.397 . S
C204 C205 1.438 1_556 S
C204 C209 1.429 . S
C205 C188 1.394 1_455 S
C205 C204 1.438 1_554 S
C205 C206 1.428 . S
C206 H198 0.949 . S
C206 C205 1.428 . S
C206 C207 1.345 . S
C207 H199 0.950 . S
C207 C206 1.345 . S
C207 C208 1.424 . S
C208 H200 0.951 . S
C208 C207 1.424 . S
C208 C209 1.347 1_554 S
C209 H201 0.951 . S
C209 C204 1.429 . S
C209 C208 1.347 1_556 S
H210 C211 0.951 . S
C211 H210 0.951 . S
C211 C217 1.265 . S
H212 C217 0.950 . S
H213 C221 0.949 . S
H214 C222 0.950 . S
H215 C223 0.951 . S
H216 C224 0.951 . S
C217 C211 1.265 . S
C217 H212 0.950 . S
C217 C218 1.478 . S
C218 C217 1.478 . S
C218 C219 1.397 1_545 S
C218 C235 1.394 . S
C219 C218 1.397 1_565 S
C219 C220 1.438 . S
C219 C224 1.429 . S
C220 C219 1.438 . S
C220 C221 1.428 . S
C220 C233 1.394 . S
C221 H213 0.949 . S
C221 C220 1.428 . S
C221 C222 1.345 . S
C222 H214 0.950 . S
C222 C221 1.345 . S
C222 C223 1.424 . S
C223 H215 0.951 . S
C223 C222 1.424 . S
C223 C224 1.347 . S
C224 H216 0.951 . S
C224 C219 1.429 . S
C224 C223 1.347 . S
H225 C226 0.951 . S
C226 H225 0.951 . S
C226 C232 1.265 . S
H227 C232 0.950 . S
H228 C236 0.949 . S
H229 C237 0.950 . S
H230 C238 0.951 . S
H231 C239 0.951 . S
C232 C226 1.265 . S
C232 H227 0.950 . S
C232 C233 1.478 . S
C233 C220 1.394 . S
C233 C232 1.478 . S
C233 C234 1.397 1_565 S
C234 C233 1.397 1_545 S
C234 C235 1.438 . S
C234 C239 1.429 . S
C235 C218 1.394 . S
C235 C234 1.438 . S
C235 C236 1.428 . S
C236 H228 0.949 . S
C236 C235 1.428 . S
C236 C237 1.345 . S
C237 H229 0.950 . S
C237 C236 1.345 . S
C237 C238 1.424 . S
C238 H230 0.951 . S
C238 C237 1.424 . S
C238 C239 1.347 . S
C239 H231 0.951 . S
C239 C234 1.429 . S
C239 C238 1.347 . S
H240 C241 0.951 . S
C241 H240 0.951 . S
C241 C247 1.265 . S
H242 C247 0.950 . S
H243 C251 0.949 . S
H244 C252 0.950 . S
H245 C253 0.951 . S
H246 C254 0.951 . S
C247 C241 1.265 . S
C247 H242 0.950 . S
C247 C248 1.478 . S
C248 C247 1.478 . S
C248 C249 1.397 . S
C248 C265 1.394 . S
C249 C248 1.397 . S
C249 C250 1.438 1_556 S
C249 C254 1.429 . S
C250 C249 1.438 1_554 S
C250 C251 1.428 . S
C250 C263 1.394 . S
C251 H243 0.949 . S
C251 C250 1.428 . S
C251 C252 1.345 . S
C252 H244 0.950 . S
C252 C251 1.345 . S
C252 C253 1.424 1_554 S
C253 H245 0.951 . S
C253 C252 1.424 1_556 S
C253 C254 1.347 . S
C254 H246 0.951 . S
C254 C249 1.429 . S
C254 C253 1.347 . S
H255 C256 0.951 . S
C256 H255 0.951 . S
C256 C262 1.265 . S
H257 C262 0.950 . S
H258 C266 0.949 . S
H259 C267 0.950 . S
H260 C268 0.951 . S
H261 C269 0.951 . S
C262 C256 1.265 . S
C262 H257 0.950 . S
C262 C263 1.478 . S
C263 C250 1.394 . S
C263 C262 1.478 . S
C263 C264 1.397 . S
C264 C263 1.397 . S
C264 C265 1.438 1_554 S
C264 C269 1.429 . S
C265 C248 1.394 . S
C265 C264 1.438 1_556 S
C265 C266 1.428 . S
C266 H258 0.949 . S
C266 C265 1.428 . S
C266 C267 1.345 . S
C267 H259 0.950 . S
C267 C266 1.345 . S
C267 C268 1.424 1_556 S
C268 H260 0.951 . S
C268 C267 1.424 1_554 S
C268 C269 1.347 . S
C269 H261 0.951 . S
C269 C264 1.429 . S
C269 C268 1.347 . S
H270 C271 0.951 . S
C271 H270 0.951 . S
C271 C277 1.265 . S
H272 C277 0.950 . S
H273 C281 0.949 . S
H274 C282 0.950 . S
H275 C283 0.951 . S
H276 C284 0.951 . S
C277 C271 1.265 . S
C277 H272 0.950 . S
C277 C278 1.478 . S
C278 C277 1.478 . S
C278 C279 1.397 1_655 S
C278 C295 1.394 . S
C279 C278 1.397 1_455 S
C279 C280 1.438 . S
C279 C284 1.429 . S
C280 C279 1.438 . S
C280 C281 1.428 . S
C280 C293 1.394 . S
C281 H273 0.949 . S
C281 C280 1.428 . S
C281 C282 1.345 . S
C282 H274 0.950 . S
C282 C281 1.345 . S
C282 C283 1.424 . S
C283 H275 0.951 . S
C283 C282 1.424 . S
C283 C284 1.347 . S
C284 H276 0.951 . S
C284 C279 1.429 . S
C284 C283 1.347 . S
H285 C286 0.951 . S
C286 H285 0.951 . S
C286 C292 1.265 . S
H287 C292 0.950 . S
H288 C296 0.949 . S
H289 C297 0.950 . S
H290 C298 0.951 . S
H291 C299 0.951 . S
C292 C286 1.265 . S
C292 H287 0.950 . S
C292 C293 1.478 . S
C293 C280 1.394 . S
C293 C292 1.478 . S
C293 C294 1.397 1_455 S
C294 C293 1.397 1_655 S
C294 C295 1.438 . S
C294 C299 1.429 . S
C295 C278 1.394 . S
C295 C294 1.438 . S
C295 C296 1.428 . S
C296 H288 0.949 . S
C296 C295 1.428 . S
C296 C297 1.345 . S
C297 H289 0.950 . S
C297 C296 1.345 . S
C297 C298 1.424 . S
C298 H290 0.951 . S
C298 C297 1.424 . S
C298 C299 1.347 . S
C299 H291 0.951 . S
C299 C294 1.429 . S
C299 C298 1.347 . S
H300 C301 0.951 . S
C301 H300 0.951 . S
C301 C307 1.265 . S
H302 C307 0.950 . S
H303 C311 0.949 . S
H304 C312 0.950 . S
H305 C313 0.951 . S
H306 C314 0.951 . S
C307 C301 1.265 . S
C307 H302 0.950 . S
C307 C308 1.478 . S
C308 C307 1.478 . S
C308 C309 1.397 . S
C308 C325 1.394 . S
C309 C308 1.397 . S
C309 C310 1.438 . S
C309 C314 1.429 . S
C310 C309 1.438 . S
C310 C311 1.428 . S
C310 C323 1.394 . S
C311 H303 0.949 . S
C311 C310 1.428 . S
C311 C312 1.345 . S
C312 H304 0.950 . S
C312 C311 1.345 . S
C312 C313 1.424 . S
C313 H305 0.951 . S
C313 C312 1.424 . S
C313 C314 1.347 . S
C314 H306 0.951 . S
C314 C309 1.429 . S
C314 C313 1.347 . S
H315 C316 0.951 . S
C316 H315 0.951 . S
C316 C322 1.265 . S
H317 C322 0.950 . S
H318 C326 0.949 . S
H319 C327 0.950 . S
H320 C328 0.951 . S
H321 C329 0.951 . S
C322 C316 1.265 . S
C322 H317 0.950 . S
C322 C323 1.478 . S
C323 C310 1.394 . S
C323 C322 1.478 . S
C323 C324 1.397 . S
C324 C323 1.397 . S
C324 C325 1.438 . S
C324 C329 1.429 . S
C325 C308 1.394 . S
C325 C324 1.438 . S
C325 C326 1.428 . S
C326 H318 0.949 . S
C326 C325 1.428 . S
C326 C327 1.345 . S
C327 H319 0.950 . S
C327 C326 1.345 . S
C327 C328 1.424 . S
C328 H320 0.951 . S
C328 C327 1.424 . S
C328 C329 1.347 . S
C329 H321 0.951 . S
C329 C324 1.429 . S
C329 C328 1.347 . S
H330 C331 0.951 . S
C331 H330 0.951 . S
C331 C337 1.265 . S
H332 C337 0.950 . S
H333 C341 0.949 . S
H334 C342 0.950 . S
H335 C343 0.951 . S
H336 C344 0.951 . S
C337 C331 1.265 . S
C337 H332 0.950 . S
C337 C338 1.478 . S
C338 C337 1.478 . S
C338 C339 1.397 . S
C338 C355 1.394 . S
C339 C338 1.397 . S
C339 C340 1.438 . S
C339 C344 1.429 . S
C340 C339 1.438 . S
C340 C341 1.428 . S
C340 C353 1.394 . S
C341 H333 0.949 . S
C341 C340 1.428 . S
C341 C342 1.345 . S
C342 H334 0.950 . S
C342 C341 1.345 . S
C342 C343 1.424 . S
C343 H335 0.951 . S
C343 C342 1.424 . S
C343 C344 1.347 . S
C344 H336 0.951 . S
C344 C339 1.429 . S
C344 C343 1.347 . S
H345 C346 0.951 . S
C346 H345 0.951 . S
C346 C352 1.265 . S
H347 C352 0.950 . S
H348 C356 0.949 . S
H349 C357 0.950 . S
H350 C358 0.951 . S
H351 C359 0.951 . S
C352 C346 1.265 . S
C352 H347 0.950 . S
C352 C353 1.478 . S
C353 C340 1.394 . S
C353 C352 1.478 . S
C353 C354 1.397 . S
C354 C353 1.397 . S
C354 C355 1.438 . S
C354 C359 1.429 . S
C355 C338 1.394 . S
C355 C354 1.438 . S
C355 C356 1.428 . S
C356 H348 0.949 . S
C356 C355 1.428 . S
C356 C357 1.345 . S
C357 H349 0.950 . S
C357 C356 1.345 . S
C357 C358 1.424 . S
C358 H350 0.951 . S
C358 C357 1.424 . S
C358 C359 1.347 . S
C359 H351 0.951 . S
C359 C354 1.429 . S
C359 C358 1.347 . S
H360 C361 0.951 . S
C361 H360 0.951 . S
C361 C367 1.265 . S
H362 C367 0.950 . S
H363 C371 0.949 . S
H364 C372 0.950 . S
H365 C373 0.951 . S
H366 C374 0.951 . S
C367 C361 1.265 . S
C367 H362 0.950 . S
C367 C368 1.478 . S
C368 C367 1.478 . S
C368 C369 1.397 . S
C368 C385 1.394 . S
C369 C368 1.397 . S
C369 C370 1.438 . S
C369 C374 1.429 . S
C370 C369 1.438 . S
C370 C371 1.428 . S
C370 C383 1.394 . S
C371 H363 0.949 . S
C371 C370 1.428 . S
C371 C372 1.345 . S
C372 H364 0.950 . S
C372 C371 1.345 . S
C372 C373 1.424 . S
C373 H365 0.951 . S
C373 C372 1.424 . S
C373 C374 1.347 . S
C374 H366 0.951 . S
C374 C369 1.429 . S
C374 C373 1.347 . S
H375 C376 0.951 . S
C376 H375 0.951 . S
C376 C382 1.265 . S
H377 C382 0.950 . S
H378 C386 0.949 . S
H379 C387 0.950 . S
H380 C388 0.951 . S
H381 C389 0.951 . S
C382 C376 1.265 . S
C382 H377 0.950 . S
C382 C383 1.478 . S
C383 C370 1.394 . S
C383 C382 1.478 . S
C383 C384 1.397 . S
C384 C383 1.397 . S
C384 C385 1.438 . S
C384 C389 1.429 . S
C385 C368 1.394 . S
C385 C384 1.438 . S
C385 C386 1.428 . S
C386 H378 0.949 . S
C386 C385 1.428 . S
C386 C387 1.345 . S
C387 H379 0.950 . S
C387 C386 1.345 . S
C387 C388 1.424 . S
C388 H380 0.951 . S
C388 C387 1.424 . S
C388 C389 1.347 . S
C389 H381 0.951 . S
C389 C384 1.429 . S
C389 C388 1.347 . S
H390 C391 0.951 . S
C391 H390 0.951 . S
C391 C397 1.265 . S
H392 C397 0.950 . S
H393 C401 0.949 . S
H394 C402 0.950 . S
H395 C403 0.951 . S
H396 C404 0.951 . S
C397 C391 1.265 . S
C397 H392 0.950 . S
C397 C398 1.478 . S
C398 C397 1.478 . S
C398 C399 1.397 . S
C398 C415 1.394 . S
C399 C398 1.397 . S
C399 C400 1.438 . S
C399 C404 1.429 . S
C400 C399 1.438 . S
C400 C401 1.428 . S
C400 C413 1.394 . S
C401 H393 0.949 . S
C401 C400 1.428 . S
C401 C402 1.345 . S
C402 H394 0.950 . S
C402 C401 1.345 . S
C402 C403 1.424 . S
C403 H395 0.951 . S
C403 C402 1.424 . S
C403 C404 1.347 . S
C404 H396 0.951 . S
C404 C399 1.429 . S
C404 C403 1.347 . S
H405 C406 0.951 . S
C406 H405 0.951 . S
C406 C412 1.265 . S
H407 C412 0.950 . S
H408 C416 0.949 . S
H409 C417 0.950 . S
H410 C418 0.951 . S
H411 C419 0.951 . S
C412 C406 1.265 . S
C412 H407 0.950 . S
C412 C413 1.478 . S
C413 C400 1.394 . S
C413 C412 1.478 . S
C413 C414 1.397 . S
C414 C413 1.397 . S
C414 C415 1.438 . S
C414 C419 1.429 . S
C415 C398 1.394 . S
C415 C414 1.438 . S
C415 C416 1.428 . S
C416 H408 0.949 . S
C416 C415 1.428 . S
C416 C417 1.345 . S
C417 H409 0.950 . S
C417 C416 1.345 . S
C417 C418 1.424 . S
C418 H410 0.951 . S
C418 C417 1.424 . S
C418 C419 1.347 . S
C419 H411 0.951 . S
C419 C414 1.429 . S
C419 C418 1.347 . S
H420 C421 0.951 . S
C421 H420 0.951 . S
C421 C427 1.265 . S
H422 C427 0.950 . S
H423 C431 0.949 . S
H424 C432 0.950 . S
H425 C433 0.951 . S
H426 C434 0.951 . S
C427 C421 1.265 . S
C427 H422 0.950 . S
C427 C428 1.478 . S
C428 C427 1.478 . S
C428 C429 1.397 . S
C428 C445 1.394 . S
C429 C428 1.397 . S
C429 C430 1.438 . S
C429 C434 1.429 . S
C430 C429 1.438 . S
C430 C431 1.428 . S
C430 C443 1.394 . S
C431 H423 0.949 . S
C431 C430 1.428 . S
C431 C432 1.345 . S
C432 H424 0.950 . S
C432 C431 1.345 . S
C432 C433 1.424 . S
C433 H425 0.951 . S
C433 C432 1.424 . S
C433 C434 1.347 . S
C434 H426 0.951 . S
C434 C429 1.429 . S
C434 C433 1.347 . S
H435 C436 0.951 . S
C436 H435 0.951 . S
C436 C442 1.265 . S
H437 C442 0.950 . S
H438 C446 0.949 . S
H439 C447 0.950 . S
H440 C448 0.951 . S
H441 C449 0.951 . S
C442 C436 1.265 . S
C442 H437 0.950 . S
C442 C443 1.478 . S
C443 C430 1.394 . S
C443 C442 1.478 . S
C443 C444 1.397 . S
C444 C443 1.397 . S
C444 C445 1.438 . S
C444 C449 1.429 . S
C445 C428 1.394 . S
C445 C444 1.438 . S
C445 C446 1.428 . S
C446 H438 0.949 . S
C446 C445 1.428 . S
C446 C447 1.345 . S
C447 H439 0.950 . S
C447 C446 1.345 . S
C447 C448 1.424 . S
C448 H440 0.951 . S
C448 C447 1.424 . S
C448 C449 1.347 . S
C449 H441 0.951 . S
C449 C444 1.429 . S
C449 C448 1.347 . S
H450 C451 0.951 . S
C451 H450 0.951 . S
C451 C457 1.265 . S
H452 C457 0.950 . S
H453 C461 0.949 . S
H454 C462 0.950 . S
H455 C463 0.951 . S
H456 C464 0.951 . S
C457 C451 1.265 . S
C457 H452 0.950 . S
C457 C458 1.478 . S
C458 C457 1.478 . S
C458 C459 1.397 . S
C458 C475 1.394 . S
C459 C458 1.397 . S
C459 C460 1.438 . S
C459 C464 1.429 . S
C460 C459 1.438 . S
C460 C461 1.428 . S
C460 C473 1.394 . S
C461 H453 0.949 . S
C461 C460 1.428 . S
C461 C462 1.345 . S
C462 H454 0.950 . S
C462 C461 1.345 . S
C462 C463 1.424 . S
C463 H455 0.951 . S
C463 C462 1.424 . S
C463 C464 1.347 . S
C464 H456 0.951 . S
C464 C459 1.429 . S
C464 C463 1.347 . S
H465 C466 0.951 . S
C466 H465 0.951 . S
C466 C472 1.265 . S
H467 C472 0.950 . S
H468 C476 0.949 . S
H469 C477 0.950 . S
H470 C478 0.951 . S
H471 C479 0.951 . S
C472 C466 1.265 . S
C472 H467 0.950 . S
C472 C473 1.478 . S
C473 C460 1.394 . S
C473 C472 1.478 . S
C473 C474 1.397 . S
C474 C473 1.397 . S
C474 C475 1.438 . S
C474 C479 1.429 . S
C475 C458 1.394 . S
C475 C474 1.438 . S
C475 C476 1.428 . S
C476 H468 0.949 . S
C476 C475 1.428 . S
C476 C477 1.345 . S
C477 H469 0.950 . S
C477 C476 1.345 . S
C477 C478 1.424 . S
C478 H470 0.951 . S
C478 C477 1.424 . S
C478 C479 1.347 . S
C479 H471 0.951 . S
C479 C474 1.429 . S
C479 C478 1.347 . S
H480 C481 0.951 . S
C481 H480 0.951 . S
C481 C487 1.265 . S
H482 C487 0.950 . S
H483 C491 0.949 . S
H484 C492 0.950 . S
H485 C493 0.951 . S
H486 C494 0.951 . S
C487 C481 1.265 . S
C487 H482 0.950 . S
C487 C488 1.478 . S
C488 C487 1.478 . S
C488 C489 1.397 . S
C488 C505 1.394 . S
C489 C488 1.397 . S
C489 C490 1.438 . S
C489 C494 1.429 . S
C490 C489 1.438 . S
C490 C491 1.428 . S
C490 C503 1.394 . S
C491 H483 0.949 . S
C491 C490 1.428 . S
C491 C492 1.345 . S
C492 H484 0.950 . S
C492 C491 1.345 . S
C492 C493 1.424 . S
C493 H485 0.951 . S
C493 C492 1.424 . S
C493 C494 1.347 . S
C494 H486 0.951 . S
C494 C489 1.429 . S
C494 C493 1.347 . S
H495 C496 0.951 . S
C496 H495 0.951 . S
C496 C502 1.265 . S
H497 C502 0.950 . S
H498 C506 0.949 . S
H499 C507 0.950 . S
H500 C508 0.951 . S
H501 C509 0.951 . S
C502 C496 1.265 . S
C502 H497 0.950 . S
C502 C503 1.478 . S
C503 C490 1.394 . S
C503 C502 1.478 . S
C503 C504 1.397 . S
C504 C503 1.397 . S
C504 C505 1.438 . S
C504 C509 1.429 . S
C505 C488 1.394 . S
C505 C504 1.438 . S
C505 C506 1.428 . S
C506 H498 0.949 . S
C506 C505 1.428 . S
C506 C507 1.345 . S
C507 H499 0.950 . S
C507 C506 1.345 . S
C507 C508 1.424 . S
C508 H500 0.951 . S
C508 C507 1.424 . S
C508 C509 1.347 . S
C509 H501 0.951 . S
C509 C504 1.429 . S
C509 C508 1.347 . S
H510 C511 0.951 . S
C511 H510 0.951 . S
C511 C517 1.265 . S
H512 C517 0.950 . S
H513 C521 0.949 . S
H514 C522 0.950 . S
H515 C523 0.951 . S
H516 C524 0.951 1_655 S
C517 C511 1.265 . S
C517 H512 0.950 . S
C517 C518 1.462 1_655 S
C518 C517 1.462 1_455 S
C518 C519 1.404 . S
C518 C535 1.403 . S
C519 C518 1.404 . S
C519 C520 1.438 . S
C519 C524 1.429 . S
C520 C519 1.438 . S
C520 C521 1.428 . S
C520 C533 1.394 . S
C521 H513 0.949 . S
C521 C520 1.428 . S
C521 C522 1.345 . S
C522 H514 0.950 . S
C522 C521 1.345 . S
C522 C523 1.424 . S
C523 H515 0.951 . S
C523 C522 1.424 . S
C523 C524 1.347 . S
C524 H516 0.951 1_455 S
C524 C519 1.429 . S
C524 C523 1.347 . S
H525 C526 0.951 . S
C526 H525 0.951 . S
C526 C532 1.265 . S
H527 C532 0.950 . S
H528 C536 0.949 . S
H529 C537 0.950 1_655 S
H530 C538 0.951 . S
H531 C539 0.951 . S
C532 C526 1.265 . S
C532 H527 0.950 . S
C532 C533 1.478 . S
C533 C520 1.394 . S
C533 C532 1.478 . S
C533 C534 1.397 . S
C534 C533 1.397 . S
C534 C535 1.438 . S
C534 C539 1.429 . S
C535 C518 1.403 . S
C535 C534 1.438 . S
C535 C536 1.428 1_455 S
C536 H528 0.949 . S
C536 C535 1.428 1_655 S
C536 C537 1.345 1_655 S
C537 H529 0.950 1_455 S
C537 C536 1.345 1_455 S
C537 C538 1.424 . S
C538 H530 0.951 . S
C538 C537 1.424 . S
C538 C539 1.347 . S
C539 H531 0.951 . S
C539 C534 1.429 . S
C539 C538 1.347 . S
H540 C541 0.951 . S
C541 H540 0.951 . S
C541 C547 1.265 . S
H542 C547 0.950 . S
H543 C551 0.949 . S
H544 C552 0.950 . S
H545 C553 0.951 . S
H546 C554 0.951 1_545 S
C547 C541 1.265 . S
C547 H542 0.950 . S
C547 C548 1.478 1_545 S
C548 C547 1.478 1_565 S
C548 C549 1.397 . S
C548 C565 1.394 . S
C549 C548 1.397 . S
C549 C550 1.438 . S
C549 C554 1.429 . S
C550 C549 1.438 . S
C550 C551 1.428 . S
C550 C563 1.394 . S
C551 H543 0.949 . S
C551 C550 1.428 . S
C551 C552 1.345 . S
C552 H544 0.950 . S
C552 C551 1.345 . S
C552 C553 1.424 . S
C553 H545 0.951 . S
C553 C552 1.424 . S
C553 C554 1.347 . S
C554 H546 0.951 1_565 S
C554 C549 1.429 . S
C554 C553 1.347 . S
H555 C556 0.951 . S
C556 H555 0.951 . S
C556 C562 1.265 . S
H557 C562 0.950 . S
H558 C566 0.949 . S
H559 C567 0.951 . S
H560 C568 0.951 . S
H561 C569 0.951 . S
C562 C556 1.265 . S
C562 H557 0.950 . S
C562 C563 1.478 . S
C563 C550 1.394 . S
C563 C562 1.478 . S
C563 C564 1.397 . S
C564 C563 1.397 . S
C564 C565 1.438 . S
C564 C569 1.429 . S
C565 C548 1.394 . S
C565 C564 1.438 . S
C565 C566 1.428 1_565 S
C566 H558 0.949 . S
C566 C565 1.428 1_545 S
C566 C567 1.345 1_545 S
C567 H559 0.951 . S
C567 C566 1.345 1_565 S
C567 C568 1.424 . S
C568 H560 0.951 . S
C568 C567 1.424 . S
C568 C569 1.347 . S
C569 H561 0.951 . S
C569 C564 1.429 . S
C569 C568 1.347 . S
H570 C571 0.951 . S
C571 H570 0.951 . S
C571 C577 1.265 . S
H572 C577 0.950 . S
H573 C581 0.949 . S
H574 C582 0.950 . S
H575 C583 0.951 . S
H576 C584 0.951 . S
C577 C571 1.265 . S
C577 H572 0.950 . S
C577 C578 1.478 . S
C578 C577 1.478 . S
C578 C579 1.397 . S
C578 C595 1.394 . S
C579 C578 1.397 . S
C579 C580 1.438 . S
C579 C584 1.429 . S
C580 C579 1.438 . S
C580 C581 1.428 . S
C580 C593 1.394 . S
C581 H573 0.949 . S
C581 C580 1.428 . S
C581 C582 1.345 . S
C582 H574 0.950 . S
C582 C581 1.345 . S
C582 C583 1.424 . S
C583 H575 0.951 . S
C583 C582 1.424 . S
C583 C584 1.347 . S
C584 H576 0.951 . S
C584 C579 1.429 . S
C584 C583 1.347 . S
H585 C586 0.951 . S
C586 H585 0.951 . S
C586 C592 1.265 . S
H587 C592 0.950 . S
H588 C596 0.949 . S
H589 C597 0.950 . S
H590 C598 0.951 . S
H591 C599 0.951 . S
C592 C586 1.265 . S
C592 H587 0.950 . S
C592 C593 1.478 . S
C593 C580 1.394 . S
C593 C592 1.478 . S
C593 C594 1.397 . S
C594 C593 1.397 . S
C594 C595 1.438 . S
C594 C599 1.429 . S
C595 C578 1.394 . S
C595 C594 1.438 . S
C595 C596 1.428 . S
C596 H588 0.949 . S
C596 C595 1.428 . S
C596 C597 1.345 . S
C597 H589 0.950 . S
C597 C596 1.345 . S
C597 C598 1.424 . S
C598 H590 0.951 . S
C598 C597 1.424 . S
C598 C599 1.347 . S
C599 H591 0.951 . S
C599 C594 1.429 . S
C599 C598 1.347 . S
H600 C601 0.951 . S
C601 H600 0.951 . S
C601 C607 1.265 . S
H602 C607 0.950 . S
H603 C611 0.949 . S
H604 C612 0.950 . S
H605 C613 0.951 . S
H606 C614 0.951 1_455 S
C607 C601 1.265 . S
C607 H602 0.950 . S
C607 C608 1.478 1_455 S
C608 C607 1.478 1_655 S
C608 C609 1.397 . S
C608 C625 1.394 . S
C609 C608 1.397 . S
C609 C610 1.438 . S
C609 C614 1.429 . S
C610 C609 1.438 . S
C610 C611 1.428 . S
C610 C623 1.394 . S
C611 H603 0.949 . S
C611 C610 1.428 . S
C611 C612 1.345 . S
C612 H604 0.950 . S
C612 C611 1.345 . S
C612 C613 1.424 . S
C613 H605 0.951 . S
C613 C612 1.424 . S
C613 C614 1.347 . S
C614 H606 0.951 1_655 S
C614 C609 1.429 . S
C614 C613 1.347 . S
H615 C616 0.951 . S
C616 H615 0.951 . S
C616 C622 1.265 . S
H617 C622 0.950 . S
H618 C626 0.949 1_455 S
H619 C627 0.950 . S
H620 C628 0.951 . S
H621 C629 0.951 . S
C622 C616 1.265 . S
C622 H617 0.950 . S
C622 C623 1.478 . S
C623 C610 1.394 . S
C623 C622 1.478 . S
C623 C624 1.397 . S
C624 C623 1.397 . S
C624 C625 1.438 . S
C624 C629 1.429 . S
C625 C608 1.394 . S
C625 C624 1.438 . S
C625 C626 1.428 . S
C626 H618 0.949 1_655 S
C626 C625 1.428 . S
C626 C627 1.345 . S
C627 H619 0.950 . S
C627 C626 1.345 . S
C627 C628 1.424 . S
C628 H620 0.951 . S
C628 C627 1.424 . S
C628 C629 1.347 . S
C629 H621 0.951 . S
C629 C624 1.429 . S
C629 C628 1.347 . S
H630 C631 0.951 . S
C631 H630 0.951 . S
C631 C637 1.265 . S
H632 C637 0.950 . S
H633 C641 0.949 1_565 S
H634 C642 0.950 . S
H635 C643 0.951 . S
H636 C644 0.951 . S
C637 C631 1.265 . S
C637 H632 0.950 . S
C637 C638 1.478 . S
C638 C637 1.478 . S
C638 C639 1.397 . S
C638 C655 1.394 . S
C639 C638 1.397 . S
C639 C640 1.438 . S
C639 C644 1.429 . S
C640 C639 1.438 . S
C640 C641 1.428 . S
C640 C653 1.394 . S
C641 H633 0.949 1_545 S
C641 C640 1.428 . S
C641 C642 1.345 . S
C642 H634 0.950 . S
C642 C641 1.345 . S
C642 C643 1.424 . S
C643 H635 0.951 . S
C643 C642 1.424 . S
C643 C644 1.347 . S
C644 H636 0.951 . S
C644 C639 1.429 . S
C644 C643 1.347 . S
H645 C646 0.951 . S
C646 H645 0.951 . S
C646 C652 1.265 . S
H647 C652 0.950 . S
H648 C656 0.949 . S
H649 C657 0.950 . S
H650 C658 0.951 . S
H651 C659 0.951 1_565 S
C652 C646 1.265 . S
C652 H647 0.950 . S
C652 C653 1.478 1_565 S
C653 C640 1.394 . S
C653 C652 1.478 1_545 S
C653 C654 1.397 . S
C654 C653 1.397 . S
C654 C655 1.438 . S
C654 C659 1.429 . S
C655 C638 1.394 . S
C655 C654 1.438 . S
C655 C656 1.428 . S
C656 H648 0.949 . S
C656 C655 1.428 . S
C656 C657 1.345 . S
C657 H649 0.950 . S
C657 C656 1.345 . S
C657 C658 1.424 . S
C658 H650 0.951 . S
C658 C657 1.424 . S
C658 C659 1.347 . S
C659 H651 0.951 1_545 S
C659 C654 1.429 . S
C659 C658 1.347 . S
C121 C99 2.178 . S
C136 C18 2.150 . S
C151 C118 2.057 . S
C166 C39 2.133 . S
C181 C58 2.107 . S
C196 C79 2.195 . S
C211 C19 2.201 . S
C226 C98 2.091 . S
C241 C119 2.188 . S
C256 C38 2.150 . S
C271 C59 2.215 . S
C286 C78 2.135 . S
C301 C4 1.348 . S
C316 C52 1.655 . S
C331 C24 1.316 . S
C346 C12 1.656 . S
C361 C44 1.314 . S
C376 C32 1.656 . S
C391 C69 1.425 . S
C406 C82 1.666 . S
C421 C89 1.565 . S
C436 C102 1.621 . S
C451 C62 1.667 . S
C466 C109 1.427 . S
C481 C2 1.000 . S
C496 C49 0.786 . S
C511 C22 1.000 . S
C526 C9 0.781 . S
C541 C42 0.927 . S
C556 C29 1.015 . S
C571 C72 0.954 . S
C586 C84 0.997 . S
C601 C92 0.967 . S
C616 C104 0.747 . S
C631 C64 0.995 . S
C646 C112 0.954 . S
