# Generated by pormake.
# Topology umd, (4)-cn, num edge types: 1
# Building blocks:
#     Node 0, Type 0, BuildingBlock: MUDLON_clean_sbu_0, # of connection points: 4
#     Node 1, Type 0, BuildingBlock: MUDLON_clean_sbu_0, # of connection points: 4
#     Node 2, Type 0, BuildingBlock: MUDLON_clean_sbu_0, # of connection points: 4
#     Node 3, Type 0, BuildingBlock: MUDLON_clean_sbu_0, # of connection points: 4
#     Node 4, Type 0, BuildingBlock: MUDLON_clean_sbu_0, # of connection points: 4
#     Node 5, Type 0, BuildingBlock: MUDLON_clean_sbu_0, # of connection points: 4
#     Node 6, Type 0, BuildingBlock: MUDLON_clean_sbu_0, # of connection points: 4
#     Node 7, Type 0, BuildingBlock: MUDLON_clean_sbu_0, # of connection points: 4
#     Node 8, Type 0, BuildingBlock: MUDLON_clean_sbu_0, # of connection points: 4
#     Node 9, Type 0, BuildingBlock: MUDLON_clean_sbu_0, # of connection points: 4
#     Node 10, Type 0, BuildingBlock: MUDLON_clean_sbu_0, # of connection points: 4
#     Node 11, Type 0, BuildingBlock: MUDLON_clean_sbu_0, # of connection points: 4
#     Node 12, Type 0, BuildingBlock: MUDLON_clean_sbu_0, # of connection points: 4
#     Node 13, Type 0, BuildingBlock: MUDLON_clean_sbu_0, # of connection points: 4
#     Node 14, Type 0, BuildingBlock: MUDLON_clean_sbu_0, # of connection points: 4
#     Node 15, Type 0, BuildingBlock: MUDLON_clean_sbu_0, # of connection points: 4
#     Edge 16, Type (0, 0), BuildingBlock: AJUNOK_clean_linker_0, # of connection points: 2
#     Edge 17, Type (0, 0), BuildingBlock: AJUNOK_clean_linker_0, # of connection points: 2
#     Edge 18, Type (0, 0), BuildingBlock: AJUNOK_clean_linker_0, # of connection points: 2
#     Edge 19, Type (0, 0), BuildingBlock: AJUNOK_clean_linker_0, # of connection points: 2
#     Edge 20, Type (0, 0), BuildingBlock: AJUNOK_clean_linker_0, # of connection points: 2
#     Edge 21, Type (0, 0), BuildingBlock: AJUNOK_clean_linker_0, # of connection points: 2
#     Edge 22, Type (0, 0), BuildingBlock: AJUNOK_clean_linker_0, # of connection points: 2
#     Edge 23, Type (0, 0), BuildingBlock: AJUNOK_clean_linker_0, # of connection points: 2
#     Edge 24, Type (0, 0), BuildingBlock: AJUNOK_clean_linker_0, # of connection points: 2
#     Edge 25, Type (0, 0), BuildingBlock: AJUNOK_clean_linker_0, # of connection points: 2
#     Edge 26, Type (0, 0), BuildingBlock: AJUNOK_clean_linker_0, # of connection points: 2
#     Edge 27, Type (0, 0), BuildingBlock: AJUNOK_clean_linker_0, # of connection points: 2
#     Edge 28, Type (0, 0), BuildingBlock: AJUNOK_clean_linker_0, # of connection points: 2
#     Edge 29, Type (0, 0), BuildingBlock: AJUNOK_clean_linker_0, # of connection points: 2
#     Edge 30, Type (0, 0), BuildingBlock: AJUNOK_clean_linker_0, # of connection points: 2
#     Edge 31, Type (0, 0), BuildingBlock: AJUNOK_clean_linker_0, # of connection points: 2
#     Edge 32, Type (0, 0), BuildingBlock: AJUNOK_clean_linker_0, # of connection points: 2
#     Edge 33, Type (0, 0), BuildingBlock: AJUNOK_clean_linker_0, # of connection points: 2
#     Edge 34, Type (0, 0), BuildingBlock: AJUNOK_clean_linker_0, # of connection points: 2
#     Edge 35, Type (0, 0), BuildingBlock: AJUNOK_clean_linker_0, # of connection points: 2
#     Edge 36, Type (0, 0), BuildingBlock: AJUNOK_clean_linker_0, # of connection points: 2
#     Edge 37, Type (0, 0), BuildingBlock: AJUNOK_clean_linker_0, # of connection points: 2
#     Edge 38, Type (0, 0), BuildingBlock: AJUNOK_clean_linker_0, # of connection points: 2
#     Edge 39, Type (0, 0), BuildingBlock: AJUNOK_clean_linker_0, # of connection points: 2
#     Edge 40, Type (0, 0), BuildingBlock: AJUNOK_clean_linker_0, # of connection points: 2
#     Edge 41, Type (0, 0), BuildingBlock: AJUNOK_clean_linker_0, # of connection points: 2
#     Edge 42, Type (0, 0), BuildingBlock: AJUNOK_clean_linker_0, # of connection points: 2
#     Edge 43, Type (0, 0), BuildingBlock: AJUNOK_clean_linker_0, # of connection points: 2
#     Edge 44, Type (0, 0), BuildingBlock: AJUNOK_clean_linker_0, # of connection points: 2
#     Edge 45, Type (0, 0), BuildingBlock: AJUNOK_clean_linker_0, # of connection points: 2
#     Edge 46, Type (0, 0), BuildingBlock: AJUNOK_clean_linker_0, # of connection points: 2
#     Edge 47, Type (0, 0), BuildingBlock: AJUNOK_clean_linker_0, # of connection points: 2
# Relax obj value: 0.014
# Max RMSD: 0.191
# Mean RMSD: 0.191
data_MOF--net-umd--node1-MUDLON_clean_sbu_0--edge1-AJUNOK_clean_linker_0
_symmetry_space_group_name_H-M    P1
_symmetry_Int_Tables_number       1
_symmetry_cell_setting            triclinic
loop_
_symmetry_equiv_pos_as_xyz
'x, y, z'
_cell_length_a     30.528297
_cell_length_b     30.520253
_cell_length_c     44.030347
_cell_angle_alpha  90.339618
_cell_angle_beta   89.988636
_cell_angle_gamma 89.811658
loop_
_atom_site_label
_atom_site_type_symbol
_atom_site_fract_x
_atom_site_fract_y
_atom_site_fract_z
_atom_type_partial_charge
Mg0 Mg 0.19005 0.455 0.1621 0.0
C1 C 0.18821 0.49047 0.09771 0.0
O2 O 0.14582 0.48758 0.10227 0.0
C3 C 0.21507 0.46889 0.2269 0.0
O4 O 0.21163 0.42605 0.22549 0.0
C5 C 0.2622 0.39492 0.15779 0.0
O6 O 0.27745 0.43459 0.15334 0.0
O7 O 0.22157 0.39078 0.16344 0.0
O8 O 0.2141 0.48245 0.1196 0.0
O9 O 0.11875 0.45595 0.16218 0.0
C10 C 0.10127 0.49367 0.16531 0.0
O11 O 0.12707 0.52787 0.16798 0.0
O12 O 0.20953 0.49084 0.2027 0.0
Mg13 Mg 0.56583 0.1878 0.65951 0.0
C14 C 0.52071 0.1972 0.59813 0.0
O15 O 0.50548 0.15851 0.60547 0.0
C16 C 0.55152 0.20944 0.72466 0.0
O17 O 0.59408 0.20342 0.7234 0.0
C18 C 0.65592 0.22539 0.64522 0.0
O19 O 0.64237 0.22034 0.61711 0.0
O20 O 0.63215 0.21122 0.66672 0.0
O21 O 0.54399 0.21792 0.61735 0.0
O22 O 0.55993 0.11692 0.65552 0.0
C23 C 0.52302 0.10095 0.66301 0.0
O24 O 0.49235 0.12784 0.67275 0.0
O25 O 0.52947 0.2066 0.70018 0.0
Mg26 Mg 0.8252 0.56551 0.1595 0.0
C27 C 0.82278 0.51609 0.09903 0.0
O28 O 0.86168 0.50332 0.10814 0.0
C29 C 0.80343 0.55242 0.22441 0.0
O30 O 0.81042 0.59479 0.22307 0.0
C31 C 0.78265 0.6531 0.14253 0.0
O32 O 0.78779 0.63767 0.11483 0.0
O33 O 0.79831 0.63145 0.16464 0.0
O34 O 0.79962 0.5397 0.11676 0.0
O35 O 0.89654 0.56076 0.15908 0.0
C36 C 0.91219 0.52353 0.16641 0.0
O37 O 0.88483 0.49232 0.174 0.0
O38 O 0.80534 0.53005 0.19994 0.0
Mg39 Mg 0.44576 0.82528 0.64857 0.0
C40 C 0.47704 0.82748 0.58501 0.0
O41 O 0.46047 0.86684 0.58908 0.0
C42 C 0.50206 0.80602 0.70452 0.0
O43 O 0.53085 0.82912 0.68938 0.0
C44 C 0.3544 0.79279 0.66308 0.0
O45 O 0.36963 0.79612 0.69091 0.0
O46 O 0.37816 0.80586 0.64127 0.0
O47 O 0.47823 0.80137 0.60744 0.0
O48 O 0.45373 0.89607 0.65271 0.0
C49 C 0.49094 0.91344 0.64792 0.0
O50 O 0.52369 0.88819 0.63937 0.0
O51 O 0.46562 0.79715 0.69199 0.0
Mg52 Mg 0.19539 0.57212 0.41045 0.0
C53 C 0.1991 0.52664 0.47171 0.0
O54 O 0.15977 0.51421 0.46333 0.0
C55 C 0.20703 0.55606 0.34463 0.0
O56 O 0.18651 0.59397 0.34555 0.0
C57 C 0.2547 0.64595 0.39601 0.0
O58 O 0.27424 0.61251 0.3828 0.0
O59 O 0.21798 0.63981 0.40893 0.0
O60 O 0.22239 0.54801 0.45302 0.0
O61 O 0.12436 0.56466 0.41115 0.0
C62 C 0.10946 0.52751 0.40287 0.0
O63 O 0.13743 0.49706 0.39431 0.0
O64 O 0.21734 0.53798 0.36961 0.0
Mg65 Mg 0.45439 0.18406 0.90853 0.0
C66 C 0.47717 0.2249 0.9696 0.0
O67 O 0.4451 0.2514 0.96191 0.0
C68 C 0.4676 0.19848 0.84282 0.0
O69 O 0.4291 0.17938 0.84383 0.0
C70 C 0.38344 0.24976 0.89783 0.0
O71 O 0.41596 0.26606 0.88204 0.0
O72 O 0.38939 0.21395 0.91192 0.0
O73 O 0.48977 0.19599 0.95059 0.0
O74 O 0.45459 0.11328 0.90373 0.0
C75 C 0.49283 0.09653 0.90427 0.0
O76 O 0.52646 0.12282 0.90792 0.0
O77 O 0.48717 0.20663 0.86773 0.0
Mg78 Mg 0.83287 0.45649 0.40827 0.0
C79 C 0.78941 0.47835 0.46879 0.0
O80 O 0.76342 0.44624 0.46042 0.0
C81 C 0.81732 0.46932 0.34243 0.0
O82 O 0.83556 0.43027 0.34323 0.0
C83 C 0.76744 0.38569 0.39733 0.0
O84 O 0.75024 0.41868 0.38244 0.0
O85 O 0.80383 0.39125 0.41087 0.0
O86 O 0.81863 0.49124 0.45035 0.0
O87 O 0.90397 0.4571 0.40531 0.0
C88 C 0.92106 0.49489 0.4083 0.0
O89 O 0.89497 0.52861 0.41293 0.0
O90 O 0.81045 0.48935 0.36742 0.0
Mg91 Mg 0.57419 0.82351 0.89453 0.0
C92 C 0.52137 0.81549 0.95308 0.0
O93 O 0.51298 0.85677 0.9472 0.0
C94 C 0.52145 0.79399 0.83585 0.0
O95 O 0.48652 0.78924 0.85294 0.0
C96 C 0.64348 0.76036 0.90485 0.0
O97 O 0.6065 0.7391 0.90839 0.0
O98 O 0.64173 0.80098 0.89862 0.0
O99 O 0.5416 0.79265 0.93323 0.0
O100 O 0.56559 0.8942 0.89811 0.0
C101 C 0.52852 0.90946 0.89004 0.0
O102 O 0.49892 0.88209 0.87965 0.0
O103 O 0.55734 0.80554 0.84805 0.0
Mg104 Mg 0.82816 0.54806 0.9088 0.0
C105 C 0.78913 0.5254 0.96992 0.0
O106 O 0.75966 0.55392 0.96086 0.0
C107 C 0.80288 0.53408 0.84433 0.0
O108 O 0.80446 0.57702 0.84615 0.0
C109 C 0.79644 0.64657 0.90261 0.0
O110 O 0.83342 0.65568 0.88881 0.0
O111 O 0.78947 0.60782 0.91185 0.0
O112 O 0.81917 0.51387 0.9515 0.0
O113 O 0.8986 0.55452 0.9049 0.0
C114 C 0.91791 0.51752 0.90332 0.0
O115 O 0.89384 0.4819 0.90383 0.0
O116 O 0.80899 0.51195 0.86836 0.0
Mg117 Mg 0.46305 0.83238 0.39504 0.0
C118 C 0.48142 0.78863 0.45677 0.0
O119 O 0.45458 0.75834 0.44665 0.0
C120 C 0.47666 0.80602 0.33084 0.0
O121 O 0.43385 0.80545 0.33361 0.0
C122 C 0.36979 0.79546 0.41079 0.0
O123 O 0.37267 0.8171 0.43659 0.0
O124 O 0.40046 0.7987 0.39141 0.0
O125 O 0.49298 0.81919 0.43898 0.0
O126 O 0.46166 0.9035 0.3938 0.0
C127 C 0.50005 0.91978 0.3941 0.0
O128 O 0.53361 0.89272 0.39454 0.0
O129 O 0.49971 0.81439 0.35428 0.0
Mg130 Mg 0.19589 0.4611 0.90679 0.0
C131 C 0.23442 0.4783 0.97049 0.0
O132 O 0.26461 0.45011 0.96186 0.0
C133 C 0.21421 0.47937 0.84317 0.0
O134 O 0.2048 0.43741 0.84379 0.0
C135 C 0.23629 0.36736 0.91852 0.0
O136 O 0.21517 0.36694 0.94452 0.0
O137 O 0.23188 0.39996 0.90095 0.0
O138 O 0.20559 0.49031 0.95142 0.0
O139 O 0.12514 0.45833 0.90262 0.0
C140 C 0.10803 0.49646 0.9021 0.0
O141 O 0.13422 0.53047 0.90359 0.0
O142 O 0.21507 0.50045 0.86819 0.0
Mg143 Mg 0.55681 0.19864 0.40681 0.0
C144 C 0.54007 0.23675 0.47033 0.0
O145 O 0.57127 0.26394 0.46244 0.0
C146 C 0.5417 0.21865 0.34322 0.0
O147 O 0.58386 0.21048 0.34525 0.0
C148 C 0.65172 0.23808 0.41799 0.0
O149 O 0.65516 0.21409 0.44255 0.0
O150 O 0.61723 0.23571 0.40192 0.0
O151 O 0.52606 0.20934 0.45081 0.0
O152 O 0.56149 0.12791 0.40238 0.0
C153 C 0.52419 0.10936 0.40153 0.0
O154 O 0.48897 0.13412 0.40336 0.0
O155 O 0.5187 0.21726 0.36732 0.0
Mg156 Mg 0.82358 0.45101 0.65689 0.0
C157 C 0.81817 0.50086 0.59746 0.0
O158 O 0.85783 0.51245 0.60565 0.0
C159 C 0.81529 0.45874 0.72319 0.0
O160 O 0.8399 0.42377 0.71923 0.0
C161 C 0.77139 0.3704 0.67019 0.0
O162 O 0.75303 0.39871 0.68885 0.0
O163 O 0.80418 0.3824 0.65452 0.0
O164 O 0.79513 0.47874 0.61589 0.0
O165 O 0.89412 0.46063 0.65599 0.0
C166 C 0.90813 0.49751 0.66548 0.0
O167 O 0.87953 0.52653 0.67533 0.0
O168 O 0.80152 0.47894 0.69983 0.0
Mg169 Mg 0.55918 0.8276 0.14248 0.0
C170 C 0.54573 0.78322 0.08081 0.0
O171 O 0.58379 0.76558 0.08753 0.0
C172 C 0.54676 0.82376 0.20879 0.0
O173 O 0.58003 0.85054 0.20545 0.0
C174 C 0.63904 0.77493 0.15992 0.0
O175 O 0.61088 0.76194 0.18047 0.0
O176 O 0.62716 0.80386 0.14084 0.0
O177 O 0.52638 0.8064 0.10085 0.0
O178 O 0.54922 0.8985 0.1421 0.0
C179 C 0.51025 0.90938 0.13486 0.0
O180 O 0.4819 0.87822 0.1289 0.0
O181 O 0.52952 0.80706 0.18508 0.0
Mg182 Mg 0.18264 0.57383 0.66094 0.0
C183 C 0.229 0.54941 0.60047 0.0
O184 O 0.2601 0.57576 0.61003 0.0
C185 C 0.20732 0.56278 0.72498 0.0
O186 O 0.19711 0.60452 0.72315 0.0
C187 C 0.21733 0.66517 0.64166 0.0
O188 O 0.20219 0.65501 0.61461 0.0
O189 O 0.21146 0.63877 0.66349 0.0
O190 O 0.19651 0.54193 0.6177 0.0
O191 O 0.1118 0.57246 0.6643 0.0
C192 C 0.09548 0.53455 0.66025 0.0
O193 O 0.12223 0.50167 0.65457 0.0
O194 O 0.20568 0.53951 0.70091 0.0
Mg195 Mg 0.45488 0.18698 0.15832 0.0
C196 C 0.50511 0.19216 0.09731 0.0
O197 O 0.52154 0.15402 0.10513 0.0
C198 C 0.46405 0.21005 0.22312 0.0
O199 O 0.42276 0.19842 0.22093 0.0
C200 C 0.395 0.258 0.15631 0.0
O201 O 0.43513 0.27297 0.15367 0.0
O202 O 0.3899 0.21693 0.15972 0.0
O203 O 0.48083 0.21269 0.11604 0.0
O204 O 0.46146 0.11587 0.15824 0.0
C205 C 0.45123 0.0914 0.13591 0.0
O206 O 0.43187 0.10885 0.11222 0.0
O207 O 0.48742 0.20979 0.19918 0.0
C208 C 0.03522 0.54253 0.16379 0.0
C209 C 0.05293 0.49987 0.16529 0.0
C210 C 0.98984 0.54985 0.1639 0.0
C211 C 0.96015 0.51486 0.16582 0.0
H212 H 0.05655 0.57074 0.16242 0.0
H213 H 0.97801 0.5833 0.16278 0.0
S214 S 0.98937 0.39664 0.16975 0.0
N215 N 0.03696 0.42202 0.16833 0.0
N216 N 0.95181 0.43562 0.16874 0.0
C217 C 0.97736 0.47195 0.16722 0.0
C218 C 0.02363 0.4645 0.16688 0.0
C219 C 0.53848 0.97999 0.64423 0.0
C220 C 0.49785 0.96134 0.65198 0.0
C221 C 0.54636 0.02495 0.64798 0.0
C222 C 0.51398 0.05327 0.65971 0.0
H223 H 0.5646 0.95978 0.63507 0.0
H224 H 0.57814 0.03752 0.64153 0.0
S225 S 0.40204 0.02097 0.68406 0.0
N226 N 0.42488 0.97484 0.67227 0.0
N227 N 0.43957 0.05912 0.6794 0.0
C228 C 0.47318 0.03505 0.6677 0.0
C229 C 0.46515 0.98923 0.6638 0.0
C230 C 0.03188 0.55126 0.41223 0.0
C231 C 0.06165 0.51807 0.40383 0.0
C232 C 0.98672 0.54327 0.41357 0.0
C233 C 0.96925 0.50169 0.4067 0.0
H234 H 0.04343 0.58384 0.41783 0.0
H235 H 0.9654 0.57011 0.4202 0.0
S236 S 0.03292 0.40332 0.38328 0.0
N237 N 0.0702 0.44171 0.38836 0.0
N238 N 0.98543 0.42685 0.39101 0.0
C239 C 0.99857 0.46811 0.39828 0.0
C240 C 0.04466 0.47626 0.39679 0.0
C241 C 0.55145 0.98653 0.90149 0.0
C242 C 0.5182 0.9569 0.89344 0.0
C243 C 0.54273 0.03138 0.90495 0.0
C244 C 0.50031 0.04862 0.90071 0.0
H245 H 0.58468 0.97512 0.90505 0.0
H246 H 0.56968 0.05266 0.9111 0.0
S247 S 0.40125 0.98502 0.87982 0.0
N248 N 0.44076 0.94808 0.88152 0.0
N249 N 0.4245 0.03233 0.88815 0.0
C250 C 0.4666 0.01939 0.89282 0.0
C251 C 0.47551 0.97362 0.88913 0.0
C252 C 0.98606 0.47172 0.9026 0.0
C253 C 0.96641 0.51359 0.90194 0.0
C254 C 0.03168 0.46648 0.90224 0.0
C255 C 0.05973 0.50286 0.90117 0.0
H256 H 0.9661 0.4425 0.90373 0.0
H257 H 0.04497 0.43356 0.90314 0.0
S258 S 0.02504 0.61971 0.89771 0.0
N259 N 0.9787 0.59213 0.8992 0.0
N260 N 0.06435 0.58249 0.89843 0.0
C261 C 0.04056 0.54499 0.89996 0.0
C262 C 0.994 0.55029 0.90036 0.0
C263 C 0.47733 0.04224 0.39902 0.0
C264 C 0.51949 0.06098 0.39894 0.0
C265 C 0.47134 0.99678 0.39711 0.0
C266 C 0.50726 0.96797 0.39507 0.0
H267 H 0.44843 0.06278 0.40075 0.0
H268 H 0.43822 0.9842 0.39752 0.0
S269 S 0.62467 1.00018 0.39307 0.0
N270 N 0.59783 0.04703 0.39601 0.0
N271 N 0.58681 0.96172 0.3924 0.0
C272 C 0.54969 0.98626 0.39461 0.0
C273 C 0.55575 0.03264 0.39656 0.0
C274 C 0.98606 0.47591 0.65556 0.0
C275 C 0.95561 0.50815 0.66453 0.0
C276 C 0.03098 0.48493 0.65428 0.0
C277 C 0.04752 0.52667 0.66178 0.0
H278 H 0.97524 0.44324 0.6495 0.0
H279 H 0.05287 0.45879 0.64722 0.0
S280 S 0.98174 0.62293 0.6866 0.0
N281 N 0.94533 0.58384 0.68104 0.0
N282 N 0.02972 0.60069 0.67852 0.0
C283 C 0.0175 0.55934 0.67073 0.0
C284 C 0.97163 0.55011 0.67214 0.0
C285 C 0.50083 0.03094 0.15358 0.0
C286 C 0.46538 0.04476 0.13542 0.0
C287 C 0.51604 0.98744 0.15272 0.0
C288 C 0.49584 0.95587 0.1341 0.0
H289 H 0.51741 0.05404 0.16836 0.0
H290 H 0.54324 0.97833 0.16719 0.0
S291 S 0.40214 0.97502 0.08196 0.0
N292 N 0.41101 0.02326 0.09792 0.0
N293 N 0.43888 0.94155 0.09672 0.0
C294 C 0.46039 0.96922 0.11583 0.0
C295 C 0.44537 0.01361 0.11636 0.0
C296 C 0.2065 0.557 0.28784 0.0
C297 C 0.21459 0.53396 0.31491 0.0
C298 C 0.20877 0.5362 0.25942 0.0
C299 C 0.21893 0.49135 0.25683 0.0
H300 H 0.19725 0.59128 0.28855 0.0
H301 H 0.20085 0.55519 0.23944 0.0
S302 S 0.2472 0.41697 0.32044 0.0
N303 N 0.23645 0.4644 0.33708 0.0
N304 N 0.24062 0.42526 0.28371 0.0
C305 C 0.22911 0.46832 0.28358 0.0
C306 C 0.22701 0.48961 0.31258 0.0
C307 C 0.48489 0.2023 0.75742 0.0
C308 C 0.52947 0.21296 0.75463 0.0
C309 C 0.46492 0.19923 0.786 0.0
C310 C 0.4886 0.20696 0.81298 0.0
H311 H 0.46561 0.19445 0.73748 0.0
H312 H 0.43085 0.18952 0.78689 0.0
S313 S 0.60499 0.24125 0.81788 0.0
N314 N 0.59581 0.23514 0.78116 0.0
N315 N 0.55828 0.22948 0.8348 0.0
C316 C 0.5326 0.22005 0.81042 0.0
C317 C 0.55301 0.22298 0.78129 0.0
C318 C 0.81101 0.48598 0.25708 0.0
C319 C 0.80049 0.53068 0.2544 0.0
C320 C 0.81488 0.46623 0.28563 0.0
C321 C 0.80812 0.49024 0.31268 0.0
H322 H 0.81819 0.46644 0.23707 0.0
H323 H 0.82446 0.43205 0.2864 0.0
S324 S 0.77438 0.60707 0.31789 0.0
N325 N 0.77937 0.5975 0.28112 0.0
N326 N 0.7865 0.56038 0.33471 0.0
C327 C 0.79513 0.53438 0.31025 0.0
C328 C 0.79139 0.55457 0.28115 0.0
C329 C 0.47746 0.78488 0.78791 0.0
C330 C 0.51831 0.79132 0.80207 0.0
C331 C 0.47288 0.78745 0.75622 0.0
C332 C 0.50891 0.79684 0.73734 0.0
H333 H 0.4484 0.77922 0.80142 0.0
H334 H 0.44041 0.78387 0.74662 0.0
S335 S 0.62409 0.8109 0.76249 0.0
N336 N 0.59642 0.80326 0.7942 0.0
N337 N 0.58755 0.80847 0.73493 0.0
C338 C 0.55032 0.80104 0.75102 0.0
C339 C 0.55508 0.79817 0.78325 0.0
C340 C 0.79251 0.53805 0.78802 0.0
C341 C 0.80027 0.51249 0.81404 0.0
C342 C 0.79553 0.52001 0.75873 0.0
C343 C 0.80679 0.47575 0.75426 0.0
H344 H 0.78528 0.5727 0.79016 0.0
H345 H 0.79072 0.54141 0.73946 0.0
S346 S 0.82541 0.39335 0.81469 0.0
N347 N 0.81596 0.43951 0.83331 0.0
N348 N 0.82181 0.40573 0.77833 0.0
C349 C 0.81246 0.44925 0.78005 0.0
C350 C 0.80909 0.46755 0.80991 0.0
C351 C 0.53757 0.82365 0.29488 0.0
C352 C 0.49652 0.80436 0.30007 0.0
C353 C 0.55388 0.82865 0.26534 0.0
C354 C 0.53003 0.81425 0.23976 0.0
H355 H 0.55649 0.83673 0.31365 0.0
H356 H 0.58511 0.84489 0.26259 0.0
S357 S 0.423 0.75695 0.24132 0.0
N358 N 0.43394 0.76741 0.27735 0.0
N359 N 0.46472 0.77663 0.22189 0.0
C360 C 0.49 0.79277 0.24474 0.0
C361 C 0.47323 0.78791 0.27485 0.0
C362 C 0.21674 0.4767 0.78646 0.0
C363 C 0.21844 0.50172 0.81344 0.0
C364 C 0.21514 0.49664 0.75791 0.0
C365 C 0.21507 0.5425 0.7551 0.0
H366 H 0.21529 0.44127 0.7873 0.0
H367 H 0.21231 0.47584 0.73799 0.0
S368 S 0.22449 0.62299 0.81845 0.0
N369 N 0.22384 0.57486 0.83533 0.0
N370 N 0.221 0.61244 0.78172 0.0
C371 C 0.2192 0.56794 0.78179 0.0
C372 C 0.22088 0.54756 0.81092 0.0
C373 C 0.47653 0.21417 0.3089 0.0
C374 C 0.52127 0.22319 0.31287 0.0
C375 C 0.45804 0.21175 0.2798 0.0
C376 C 0.48353 0.21835 0.25351 0.0
H377 H 0.45597 0.20698 0.32828 0.0
H378 H 0.42377 0.20308 0.27798 0.0
S379 S 0.60092 0.24966 0.25193 0.0
N380 N 0.58959 0.24367 0.28832 0.0
N381 N 0.55489 0.23906 0.23369 0.0
C382 C 0.52771 0.23011 0.2573 0.0
C383 C 0.54655 0.23254 0.28695 0.0
C384 C 0.1884 0.50863 1.01276 0.0
C385 C 0.22789 0.48879 1.00325 0.0
C386 C 0.1771 0.51136 0.04355 0.0
C387 C 0.20499 0.49496 0.06622 0.0
H388 H 0.16474 0.52011 0.99627 0.0
H389 H 0.14536 0.5249 0.0495 0.0
S390 S 0.31499 0.44557 0.0539 0.0
N391 N 0.29705 0.45659 1.01939 0.0
N392 N 0.27597 0.46217 0.07729 0.0
C393 C 0.24609 0.47813 0.05729 0.0
C394 C 0.25747 0.47493 1.02582 0.0
C395 C 0.551 0.25567 0.52527 0.0
C396 C 0.52791 0.23202 0.50289 0.0
C397 C 0.54633 0.24611 0.55621 0.0
C398 C 0.51842 0.21242 0.56612 0.0
H399 H 0.57462 0.28035 0.51885 0.0
H400 H 0.5666 0.2638 0.57229 0.0
S401 S 0.44469 0.14598 0.51723 0.0
N402 N 0.47163 0.1773 0.49323 0.0
N403 N 0.463 0.15933 0.55131 0.0
C404 C 0.49255 0.19089 0.54421 0.0
C405 C 0.49723 0.20069 0.51266 0.0
C406 C 0.77375 0.53413 0.05519 0.0
C407 C 0.80973 0.51049 0.06668 0.0
C408 C 0.76554 0.53623 1.02391 0.0
C409 C 0.79295 0.51479 1.00276 0.0
H410 H 0.75299 0.55317 0.07027 0.0
H411 H 0.7388 0.55681 1.01627 0.0
S412 S 0.88665 0.44178 1.02139 0.0
N413 N 0.86937 0.46017 0.05464 0.0
N414 N 0.85399 0.46416 0.99591 0.0
C415 C 0.82681 0.48801 1.01409 0.0
C416 C 0.83519 0.48587 0.046 0.0
C417 C 0.50205 0.84404 0.5326 0.0
C418 C 0.4875 0.81292 0.55368 0.0
C419 C 0.5034 0.83453 0.50145 0.0
C420 C 0.48932 0.79373 0.48999 0.0
H421 H 0.51063 0.8768 0.54009 0.0
H422 H 0.51294 0.86052 0.48619 0.0
S423 S 0.45317 0.69909 0.53623 0.0
N424 N 0.46297 0.73816 0.56142 0.0
N425 N 0.46468 0.72032 0.50275 0.0
C426 C 0.47756 0.76124 0.51108 0.0
C427 C 0.47686 0.77081 0.54295 0.0
C428 C 0.24645 0.55093 0.51517 0.0
C429 C 0.21209 0.52445 0.50423 0.0
C430 C 0.25369 0.55651 0.54642 0.0
C431 C 0.22689 0.53582 0.56801 0.0
H432 H 0.26643 0.56957 0.49958 0.0
H433 H 0.2789 0.57921 0.5536 0.0
S434 S 0.13808 0.45633 0.55123 0.0
N435 N 0.15512 0.47241 0.51752 0.0
N436 N 0.16872 0.48278 0.57614 0.0
C437 C 0.1949 0.5063 0.55736 0.0
C438 C 0.18752 0.50065 0.52553 0.0
C439 C 0.5161 0.18572 1.01162 0.0
C440 C 0.49194 0.22239 1.00175 0.0
C441 C 0.52299 0.1778 0.0426 0.0
C442 C 0.50613 0.20627 0.06501 0.0
H443 H 0.52774 0.16146 0.99544 0.0
H444 H 0.53957 0.14779 0.04895 0.0
S445 S 0.44801 0.31146 0.05099 0.0
N446 N 0.45655 0.2907 1.01679 0.0
N447 N 0.46968 0.27605 0.07491 0.0
C448 C 0.48534 0.24511 0.05536 0.0
C449 C 0.4782 0.25309 1.02378 0.0
C450 C 0.76405 0.47156 0.52265 0.0
C451 C 0.7909 0.49249 0.50118 0.0
C452 C 0.77086 0.47717 0.55392 0.0
C453 C 0.80491 0.50384 0.56504 0.0
H454 H 0.73908 0.44867 0.51537 0.0
H455 H 0.75095 0.45822 0.56937 0.0
S456 S 0.87868 0.5729 0.51853 0.0
N457 N 0.84856 0.54624 0.49342 0.0
N458 N 0.86142 0.55658 0.55213 0.0
C459 C 0.82935 0.52808 0.5439 0.0
C460 C 0.82233 0.52248 0.51201 0.0
C461 C 0.55392 0.7599 1.0264 0.0
C462 C 0.53101 0.78441 0.04854 0.0
C463 C 0.54773 0.76738 0.99527 0.0
C464 C 0.51865 0.79998 0.98498 0.0
H465 H 0.57868 0.73638 0.03311 0.0
H466 H 0.56826 0.74958 0.97932 0.0
S467 S 0.44459 0.86745 0.03317 0.0
N468 N 0.47321 0.83817 0.0576 0.0
N469 N 0.46211 0.85246 0.99919 0.0
C470 C 0.49269 0.82191 1.0067 0.0
C471 C 0.49869 0.81406 0.03843 0.0
C472 C 0.33389 0.3636 0.14219 0.0
C473 C 0.29278 0.35709 0.15581 0.0
C474 C 0.36567 0.33068 0.14175 0.0
C475 C 0.358 0.28953 0.15486 0.0
H476 H 0.34209 0.39477 0.13204 0.0
H477 H 0.39693 0.338 0.1313 0.0
S478 S 0.2549 0.25436 0.19191 0.0
N479 N 0.24513 0.30544 0.18157 0.0
N480 N 0.30539 0.2431 0.18069 0.0
C481 C 0.31645 0.28164 0.16753 0.0
C482 C 0.28375 0.31551 0.16802 0.0
C483 C 0.723 0.31005 0.68753 0.0
C484 C 0.7496 0.32781 0.66468 0.0
C485 C 0.69527 0.27459 0.68157 0.0
C486 C 0.69238 0.25593 0.6523 0.0
H487 H 0.72224 0.3248 0.70998 0.0
H488 H 0.67404 0.26359 0.6997 0.0
S489 S 0.75932 0.28691 0.58542 0.0
N490 N 0.77482 0.32127 0.61244 0.0
N491 N 0.72212 0.25496 0.60102 0.0
C492 C 0.72103 0.27145 0.62975 0.0
C493 C 0.7498 0.30729 0.63598 0.0
C494 C 0.7338 0.71343 0.12352 0.0
C495 C 0.75203 0.69041 0.14819 0.0
C496 C 0.69916 0.74332 0.12766 0.0
C497 C 0.68111 0.75095 0.1566 0.0
H498 H 0.74502 0.70696 0.10058 0.0
H499 H 0.68475 0.75847 0.10782 0.0
S500 S 0.72088 0.70454 0.2293 0.0
N501 N 0.75248 0.68173 0.20318 0.0
N502 N 0.68713 0.73716 0.21073 0.0
C503 C 0.7009 0.73056 0.18168 0.0
C504 C 0.73645 0.70056 0.17756 0.0
C505 C 0.26011 0.71459 0.67597 0.0
C506 C 0.2467 0.70342 0.64632 0.0
C507 C 0.29306 0.74554 0.68118 0.0
C508 C 0.31426 0.76663 0.65697 0.0
H509 H 0.24625 0.69808 0.69543 0.0
H510 H 0.30325 0.75139 0.70441 0.0
S511 S 0.2874 0.75361 0.57508 0.0
N512 N 0.25417 0.71934 0.59247 0.0
N513 N 0.31615 0.77752 0.60222 0.0
C514 C 0.29914 0.75805 0.62726 0.0
C515 C 0.26537 0.7265 0.62195 0.0
C516 C 0.33797 0.73423 0.38008 0.0
C517 C 0.33517 0.76191 0.40575 0.0
C518 C 0.3103 0.69812 0.37654 0.0
C519 C 0.27809 0.68834 0.39824 0.0
H520 H 0.363 0.73924 0.36301 0.0
H521 H 0.31509 0.67692 0.35698 0.0
S522 S 0.25365 0.75268 0.46802 0.0
N523 N 0.29505 0.77875 0.4522 0.0
N524 N 0.24258 0.71099 0.44524 0.0
C525 C 0.2729 0.71712 0.42308 0.0
C526 C 0.30155 0.75383 0.42692 0.0
C527 C 0.31777 0.27354 0.92816 0.0
C528 C 0.34228 0.27522 0.90113 0.0
C529 C 0.28227 0.30217 0.93318 0.0
C530 C 0.26978 0.33326 0.91124 0.0
H531 H 0.32732 0.25141 0.94615 0.0
H532 H 0.26562 0.30095 0.95488 0.0
S533 S 0.31944 0.34581 0.83464 0.0
N534 N 0.34887 0.30706 0.85092 0.0
N535 N 0.28211 0.3602 0.85993 0.0
C536 C 0.29243 0.33313 0.8833 0.0
C537 C 0.32869 0.30433 0.87838 0.0
C538 C 0.71751 0.2835 0.43198 0.0
C539 C 0.68512 0.27186 0.41063 0.0
C540 C 0.7457 0.3191 0.42694 0.0
C541 C 0.74229 0.3445 0.40047 0.0
H542 H 0.72011 0.26611 0.45328 0.0
H543 H 0.76889 0.32798 0.44453 0.0
S544 S 0.66781 0.3239 0.33538 0.0
N545 N 0.65506 0.28586 0.36031 0.0
N546 N 0.7074 0.35275 0.35124 0.0
C547 C 0.71183 0.33173 0.37823 0.0
C548 C 0.68345 0.29542 0.38318 0.0
C549 C 0.72236 0.66802 0.92144 0.0
C550 C 0.76056 0.67948 0.90546 0.0
C551 C 0.68564 0.6954 0.922 0.0
C552 C 0.68534 0.73576 0.9068 0.0
H553 H 0.72009 0.63692 0.93306 0.0
H554 H 0.6568 0.68422 0.93398 0.0
S555 S 0.77799 0.78348 0.86381 0.0
N556 N 0.79679 0.73571 0.87562 0.0
N557 N 0.7274 0.78747 0.8769 0.0
C558 C 0.72393 0.74898 0.89203 0.0
C559 C 0.76158 0.72079 0.89129 0.0
loop_
_geom_bond_atom_site_label_1
_geom_bond_atom_site_label_2
_geom_bond_distance
_geom_bond_site_symmetry_2
_ccdc_geom_bond_type
Mg0 O7 2.141 . S
Mg0 O8 2.048 . S
Mg0 O9 2.048 . S
Mg0 O12 2.141 . S
C1 O2 1.313 . S
C1 O8 1.195 . S
O2 C1 1.313 . S
C3 O4 1.245 . S
C3 O12 1.289 . S
O4 C3 1.245 . S
C5 O6 1.245 . S
C5 O7 1.289 . S
O6 C5 1.245 . S
O7 Mg0 2.141 . S
O7 C5 1.289 . S
O8 Mg0 2.048 . S
O8 C1 1.195 . S
O9 Mg0 2.048 . S
O9 C10 1.195 . S
C10 O9 1.195 . S
C10 O11 1.313 . S
O11 C10 1.313 . S
O12 Mg0 2.141 . S
O12 C3 1.289 . S
Mg13 O20 2.141 . S
Mg13 O21 2.048 . S
Mg13 O22 2.048 . S
Mg13 O25 2.141 . S
C14 O15 1.313 . S
C14 O21 1.195 . S
O15 C14 1.313 . S
C16 O17 1.245 . S
C16 O25 1.289 . S
O17 C16 1.245 . S
C18 O19 1.245 . S
C18 O20 1.289 . S
O19 C18 1.245 . S
O20 Mg13 2.141 . S
O20 C18 1.289 . S
O21 Mg13 2.048 . S
O21 C14 1.195 . S
O22 Mg13 2.048 . S
O22 C23 1.195 . S
C23 O22 1.195 . S
C23 O24 1.313 . S
O24 C23 1.313 . S
O25 Mg13 2.141 . S
O25 C16 1.289 . S
Mg26 O33 2.141 . S
Mg26 O34 2.048 . S
Mg26 O35 2.048 . S
Mg26 O38 2.141 . S
C27 O28 1.313 . S
C27 O34 1.195 . S
O28 C27 1.313 . S
C29 O30 1.245 . S
C29 O38 1.289 . S
O30 C29 1.245 . S
C31 O32 1.245 . S
C31 O33 1.289 . S
O32 C31 1.245 . S
O33 Mg26 2.141 . S
O33 C31 1.289 . S
O34 Mg26 2.048 . S
O34 C27 1.195 . S
O35 Mg26 2.048 . S
O35 C36 1.195 . S
C36 O35 1.195 . S
C36 O37 1.313 . S
O37 C36 1.313 . S
O38 Mg26 2.141 . S
O38 C29 1.289 . S
Mg39 O46 2.141 . S
Mg39 O47 2.048 . S
Mg39 O48 2.048 . S
Mg39 O51 2.141 . S
C40 O41 1.313 . S
C40 O47 1.195 . S
O41 C40 1.313 . S
C42 O43 1.245 . S
C42 O51 1.289 . S
O43 C42 1.245 . S
C44 O45 1.245 . S
C44 O46 1.289 . S
O45 C44 1.245 . S
O46 Mg39 2.141 . S
O46 C44 1.289 . S
O47 Mg39 2.048 . S
O47 C40 1.195 . S
O48 Mg39 2.048 . S
O48 C49 1.195 . S
C49 O48 1.195 . S
C49 O50 1.313 . S
O50 C49 1.313 . S
O51 Mg39 2.141 . S
O51 C42 1.289 . S
Mg52 O59 2.141 . S
Mg52 O60 2.048 . S
Mg52 O61 2.048 . S
Mg52 O64 2.141 . S
C53 O54 1.313 . S
C53 O60 1.195 . S
O54 C53 1.313 . S
C55 O56 1.245 . S
C55 O64 1.289 . S
O56 C55 1.245 . S
C57 O58 1.245 . S
C57 O59 1.289 . S
O58 C57 1.245 . S
O59 Mg52 2.141 . S
O59 C57 1.289 . S
O60 Mg52 2.048 . S
O60 C53 1.195 . S
O61 Mg52 2.048 . S
O61 C62 1.195 . S
C62 O61 1.195 . S
C62 O63 1.313 . S
O63 C62 1.313 . S
O64 Mg52 2.141 . S
O64 C55 1.289 . S
Mg65 O72 2.141 . S
Mg65 O73 2.048 . S
Mg65 O74 2.048 . S
Mg65 O77 2.141 . S
C66 O67 1.313 . S
C66 O73 1.195 . S
O67 C66 1.313 . S
C68 O69 1.245 . S
C68 O77 1.289 . S
O69 C68 1.245 . S
C70 O71 1.245 . S
C70 O72 1.289 . S
O71 C70 1.245 . S
O72 Mg65 2.141 . S
O72 C70 1.289 . S
O73 Mg65 2.048 . S
O73 C66 1.195 . S
O74 Mg65 2.048 . S
O74 C75 1.195 . S
C75 O74 1.195 . S
C75 O76 1.313 . S
O76 C75 1.313 . S
O77 Mg65 2.141 . S
O77 C68 1.289 . S
Mg78 O85 2.141 . S
Mg78 O86 2.048 . S
Mg78 O87 2.048 . S
Mg78 O90 2.141 . S
C79 O80 1.313 . S
C79 O86 1.195 . S
O80 C79 1.313 . S
C81 O82 1.245 . S
C81 O90 1.289 . S
O82 C81 1.245 . S
C83 O84 1.245 . S
C83 O85 1.289 . S
O84 C83 1.245 . S
O85 Mg78 2.141 . S
O85 C83 1.289 . S
O86 Mg78 2.048 . S
O86 C79 1.195 . S
O87 Mg78 2.048 . S
O87 C88 1.195 . S
C88 O87 1.195 . S
C88 O89 1.313 . S
O89 C88 1.313 . S
O90 Mg78 2.141 . S
O90 C81 1.289 . S
Mg91 O98 2.141 . S
Mg91 O99 2.048 . S
Mg91 O100 2.048 . S
Mg91 O103 2.141 . S
C92 O93 1.313 . S
C92 O99 1.195 . S
O93 C92 1.313 . S
C94 O95 1.245 . S
C94 O103 1.289 . S
O95 C94 1.245 . S
C96 O97 1.245 . S
C96 O98 1.289 . S
O97 C96 1.245 . S
O98 Mg91 2.141 . S
O98 C96 1.289 . S
O99 Mg91 2.048 . S
O99 C92 1.195 . S
O100 Mg91 2.048 . S
O100 C101 1.195 . S
C101 O100 1.195 . S
C101 O102 1.313 . S
O102 C101 1.313 . S
O103 Mg91 2.141 . S
O103 C94 1.289 . S
Mg104 O111 2.141 . S
Mg104 O112 2.048 . S
Mg104 O113 2.048 . S
Mg104 O116 2.141 . S
C105 O106 1.313 . S
C105 O112 1.195 . S
O106 C105 1.313 . S
C107 O108 1.245 . S
C107 O116 1.289 . S
O108 C107 1.245 . S
C109 O110 1.245 . S
C109 O111 1.289 . S
O110 C109 1.245 . S
O111 Mg104 2.141 . S
O111 C109 1.289 . S
O112 Mg104 2.048 . S
O112 C105 1.195 . S
O113 Mg104 2.048 . S
O113 C114 1.195 . S
C114 O113 1.195 . S
C114 O115 1.313 . S
O115 C114 1.313 . S
O116 Mg104 2.141 . S
O116 C107 1.289 . S
Mg117 O124 2.141 . S
Mg117 O125 2.048 . S
Mg117 O126 2.048 . S
Mg117 O129 2.141 . S
C118 O119 1.313 . S
C118 O125 1.195 . S
O119 C118 1.313 . S
C120 O121 1.245 . S
C120 O129 1.289 . S
O121 C120 1.245 . S
C122 O123 1.245 . S
C122 O124 1.289 . S
O123 C122 1.245 . S
O124 Mg117 2.141 . S
O124 C122 1.289 . S
O125 Mg117 2.048 . S
O125 C118 1.195 . S
O126 Mg117 2.048 . S
O126 C127 1.195 . S
C127 O126 1.195 . S
C127 O128 1.313 . S
O128 C127 1.313 . S
O129 Mg117 2.141 . S
O129 C120 1.289 . S
Mg130 O137 2.141 . S
Mg130 O138 2.048 . S
Mg130 O139 2.048 . S
Mg130 O142 2.141 . S
C131 O132 1.313 . S
C131 O138 1.195 . S
O132 C131 1.313 . S
C133 O134 1.245 . S
C133 O142 1.289 . S
O134 C133 1.245 . S
C135 O136 1.245 . S
C135 O137 1.289 . S
O136 C135 1.245 . S
O137 Mg130 2.141 . S
O137 C135 1.289 . S
O138 Mg130 2.048 . S
O138 C131 1.195 . S
O139 Mg130 2.048 . S
O139 C140 1.195 . S
C140 O139 1.195 . S
C140 O141 1.313 . S
O141 C140 1.313 . S
O142 Mg130 2.141 . S
O142 C133 1.289 . S
Mg143 O150 2.141 . S
Mg143 O151 2.048 . S
Mg143 O152 2.048 . S
Mg143 O155 2.141 . S
C144 O145 1.313 . S
C144 O151 1.195 . S
O145 C144 1.313 . S
C146 O147 1.245 . S
C146 O155 1.289 . S
O147 C146 1.245 . S
C148 O149 1.245 . S
C148 O150 1.289 . S
O149 C148 1.245 . S
O150 Mg143 2.141 . S
O150 C148 1.289 . S
O151 Mg143 2.048 . S
O151 C144 1.195 . S
O152 Mg143 2.048 . S
O152 C153 1.195 . S
C153 O152 1.195 . S
C153 O154 1.313 . S
O154 C153 1.313 . S
O155 Mg143 2.141 . S
O155 C146 1.289 . S
Mg156 O163 2.141 . S
Mg156 O164 2.048 . S
Mg156 O165 2.048 . S
Mg156 O168 2.141 . S
C157 O158 1.313 . S
C157 O164 1.195 . S
O158 C157 1.313 . S
C159 O160 1.245 . S
C159 O168 1.289 . S
O160 C159 1.245 . S
C161 O162 1.245 . S
C161 O163 1.289 . S
O162 C161 1.245 . S
O163 Mg156 2.141 . S
O163 C161 1.289 . S
O164 Mg156 2.048 . S
O164 C157 1.195 . S
O165 Mg156 2.048 . S
O165 C166 1.195 . S
C166 O165 1.195 . S
C166 O167 1.313 . S
O167 C166 1.313 . S
O168 Mg156 2.141 . S
O168 C159 1.289 . S
Mg169 O176 2.141 . S
Mg169 O177 2.048 . S
Mg169 O178 2.048 . S
Mg169 O181 2.141 . S
C170 O171 1.313 . S
C170 O177 1.195 . S
O171 C170 1.313 . S
C172 O173 1.245 . S
C172 O181 1.289 . S
O173 C172 1.245 . S
C174 O175 1.245 . S
C174 O176 1.289 . S
O175 C174 1.245 . S
O176 Mg169 2.141 . S
O176 C174 1.289 . S
O177 Mg169 2.048 . S
O177 C170 1.195 . S
O178 Mg169 2.048 . S
O178 C179 1.195 . S
C179 O178 1.195 . S
C179 O180 1.313 . S
O180 C179 1.313 . S
O181 Mg169 2.141 . S
O181 C172 1.289 . S
Mg182 O189 2.141 . S
Mg182 O190 2.048 . S
Mg182 O191 2.048 . S
Mg182 O194 2.141 . S
C183 O184 1.313 . S
C183 O190 1.195 . S
O184 C183 1.313 . S
C185 O186 1.245 . S
C185 O194 1.289 . S
O186 C185 1.245 . S
C187 O188 1.245 . S
C187 O189 1.289 . S
O188 C187 1.245 . S
O189 Mg182 2.141 . S
O189 C187 1.289 . S
O190 Mg182 2.048 . S
O190 C183 1.195 . S
O191 Mg182 2.048 . S
O191 C192 1.195 . S
C192 O191 1.195 . S
C192 O193 1.313 . S
O193 C192 1.313 . S
O194 Mg182 2.141 . S
O194 C185 1.289 . S
Mg195 O202 2.141 . S
Mg195 O203 2.048 . S
Mg195 O204 2.048 . S
Mg195 O207 2.141 . S
C196 O197 1.313 . S
C196 O203 1.195 . S
O197 C196 1.313 . S
C198 O199 1.245 . S
C198 O207 1.289 . S
O199 C198 1.245 . S
C200 O201 1.245 . S
C200 O202 1.289 . S
O201 C200 1.245 . S
O202 Mg195 2.141 . S
O202 C200 1.289 . S
O203 Mg195 2.048 . S
O203 C196 1.195 . S
O204 Mg195 2.048 . S
O204 C205 1.195 . S
C205 O204 1.195 . S
C205 O206 1.313 . S
O206 C205 1.313 . S
O207 Mg195 2.141 . S
O207 C198 1.289 . S
C208 C209 1.369 . S
C208 C210 1.419 1_455 S
C208 H212 0.930 . S
C209 C208 1.369 . S
C209 C218 1.429 . S
C210 C208 1.419 1_655 S
C210 C211 1.363 . S
C210 H213 0.929 . S
C211 C210 1.363 . S
C211 C217 1.428 . S
H212 C208 0.930 . S
H213 C210 0.929 . S
S214 N215 1.613 . S
S214 N216 1.610 1_455 S
N215 S214 1.613 . S
N215 C218 1.350 . S
N216 S214 1.610 1_655 S
N216 C217 1.351 . S
C217 C211 1.428 . S
C217 N216 1.351 . S
C217 C218 1.434 1_655 S
C218 C209 1.429 . S
C218 N215 1.350 . S
C218 C217 1.434 1_455 S
C219 C220 1.369 . S
C219 C221 1.419 1_565 S
C219 H223 0.930 . S
C220 C219 1.369 . S
C220 C229 1.429 . S
C221 C219 1.419 1_545 S
C221 C222 1.363 . S
C221 H224 0.929 . S
C222 C221 1.363 . S
C222 C228 1.428 . S
H223 C219 0.930 . S
H224 C221 0.929 . S
S225 N226 1.613 . S
S225 N227 1.610 1_565 S
N226 S225 1.613 . S
N226 C229 1.350 . S
N227 S225 1.610 1_545 S
N227 C228 1.351 . S
C228 C222 1.428 . S
C228 N227 1.351 . S
C228 C229 1.434 1_545 S
C229 C220 1.429 . S
C229 N226 1.350 . S
C229 C228 1.434 1_565 S
C230 C231 1.369 . S
C230 C232 1.419 1_455 S
C230 H234 0.930 . S
C231 C230 1.369 . S
C231 C240 1.429 . S
C232 C230 1.419 1_655 S
C232 C233 1.363 . S
C232 H235 0.929 . S
C233 C232 1.363 . S
C233 C239 1.428 . S
H234 C230 0.930 . S
H235 C232 0.929 . S
S236 N237 1.613 1_655 S
S236 N238 1.610 . S
N237 S236 1.613 1_455 S
N237 C240 1.350 . S
N238 S236 1.610 . S
N238 C239 1.351 . S
C239 C233 1.428 . S
C239 N238 1.351 . S
C239 C240 1.434 1_655 S
C240 C231 1.429 . S
C240 N237 1.350 . S
C240 C239 1.434 1_455 S
C241 C242 1.369 . S
C241 C243 1.419 1_565 S
C241 H245 0.930 . S
C242 C241 1.369 . S
C242 C251 1.429 . S
C243 C241 1.419 1_545 S
C243 C244 1.363 . S
C243 H246 0.929 . S
C244 C243 1.363 . S
C244 C250 1.428 . S
H245 C241 0.930 . S
H246 C243 0.929 . S
S247 N248 1.613 1_545 S
S247 N249 1.610 . S
N248 S247 1.613 1_565 S
N248 C251 1.350 . S
N249 S247 1.610 . S
N249 C250 1.351 . S
C250 C244 1.428 . S
C250 N249 1.351 . S
C250 C251 1.434 1_545 S
C251 C242 1.429 . S
C251 N248 1.350 . S
C251 C250 1.434 1_565 S
C252 C253 1.369 . S
C252 C254 1.419 1_655 S
C252 H256 0.930 . S
C253 C252 1.369 . S
C253 C262 1.429 . S
C254 C252 1.419 1_455 S
C254 C255 1.363 . S
C254 H257 0.929 . S
C255 C254 1.363 . S
C255 C261 1.428 . S
H256 C252 0.930 . S
H257 C254 0.929 . S
S258 N259 1.613 1_455 S
S258 N260 1.610 . S
N259 S258 1.613 1_655 S
N259 C262 1.350 . S
N260 S258 1.610 . S
N260 C261 1.351 . S
C261 C255 1.428 . S
C261 N260 1.351 . S
C261 C262 1.434 1_455 S
C262 C253 1.429 . S
C262 N259 1.350 . S
C262 C261 1.434 1_655 S
C263 C264 1.369 . S
C263 C265 1.419 1_545 S
C263 H267 0.930 . S
C264 C263 1.369 . S
C264 C273 1.429 . S
C265 C263 1.419 1_565 S
C265 C266 1.363 . S
C265 H268 0.929 . S
C266 C265 1.363 . S
C266 C272 1.428 . S
H267 C263 0.930 . S
H268 C265 0.929 . S
S269 N270 1.613 1_565 S
S269 N271 1.610 . S
N270 S269 1.613 1_545 S
N270 C273 1.350 . S
N271 S269 1.610 . S
N271 C272 1.351 . S
C272 C266 1.428 . S
C272 N271 1.351 . S
C272 C273 1.434 1_565 S
C273 C264 1.429 . S
C273 N270 1.350 . S
C273 C272 1.434 1_545 S
C274 C275 1.369 . S
C274 C276 1.419 1_655 S
C274 H278 0.930 . S
C275 C274 1.369 . S
C275 C284 1.429 . S
C276 C274 1.419 1_455 S
C276 C277 1.363 . S
C276 H279 0.929 . S
C277 C276 1.363 . S
C277 C283 1.428 . S
H278 C274 0.930 . S
H279 C276 0.929 . S
S280 N281 1.613 1_455 S
S280 N282 1.610 . S
N281 S280 1.613 1_655 S
N281 C284 1.350 . S
N282 S280 1.610 . S
N282 C283 1.351 . S
C283 C277 1.428 . S
C283 N282 1.351 . S
C283 C284 1.434 1_455 S
C284 C275 1.429 . S
C284 N281 1.350 . S
C284 C283 1.434 1_655 S
C285 C286 1.369 . S
C285 C287 1.419 1_545 S
C285 H289 0.930 . S
C286 C285 1.369 . S
C286 C295 1.429 . S
C287 C285 1.419 1_565 S
C287 C288 1.363 . S
C287 H290 0.929 . S
C288 C287 1.363 . S
C288 C294 1.428 . S
H289 C285 0.930 . S
H290 C287 0.929 . S
S291 N292 1.627 . S
S291 N293 1.596 1_545 S
N292 S291 1.627 . S
N292 C295 1.350 . S
N293 S291 1.596 1_565 S
N293 C294 1.351 . S
C294 C288 1.428 . S
C294 N293 1.351 . S
C294 C295 1.434 1_565 S
C295 C286 1.429 . S
C295 N292 1.350 . S
C295 C294 1.434 1_545 S
C296 C297 1.369 . S
C296 C298 1.419 . S
C296 H300 0.930 . S
C297 C296 1.369 . S
C297 C306 1.429 . S
C298 C296 1.419 . S
C298 C299 1.363 . S
C298 H301 0.929 . S
C299 C298 1.363 . S
C299 C305 1.428 . S
H300 C296 0.930 . S
H301 C298 0.929 . S
S302 N303 1.613 . S
S302 N304 1.610 . S
N303 S302 1.613 . S
N303 C306 1.350 . S
N304 S302 1.610 . S
N304 C305 1.351 . S
C305 C299 1.428 . S
C305 N304 1.351 . S
C305 C306 1.434 . S
C306 C297 1.429 . S
C306 N303 1.350 . S
C306 C305 1.434 . S
C307 C308 1.369 . S
C307 C309 1.419 . S
C307 H311 0.930 . S
C308 C307 1.369 . S
C308 C317 1.429 . S
C309 C307 1.419 . S
C309 C310 1.363 . S
C309 H312 0.929 . S
C310 C309 1.363 . S
C310 C316 1.428 . S
H311 C307 0.930 . S
H312 C309 0.929 . S
S313 N314 1.613 . S
S313 N315 1.610 . S
N314 S313 1.613 . S
N314 C317 1.350 . S
N315 S313 1.610 . S
N315 C316 1.351 . S
C316 C310 1.428 . S
C316 N315 1.351 . S
C316 C317 1.434 . S
C317 C308 1.429 . S
C317 N314 1.350 . S
C317 C316 1.434 . S
C318 C319 1.369 . S
C318 C320 1.419 . S
C318 H322 0.930 . S
C319 C318 1.369 . S
C319 C328 1.429 . S
C320 C318 1.419 . S
C320 C321 1.363 . S
C320 H323 0.929 . S
C321 C320 1.363 . S
C321 C327 1.428 . S
H322 C318 0.930 . S
H323 C320 0.929 . S
S324 N325 1.613 . S
S324 N326 1.610 . S
N325 S324 1.613 . S
N325 C328 1.350 . S
N326 S324 1.610 . S
N326 C327 1.351 . S
C327 C321 1.428 . S
C327 N326 1.351 . S
C327 C328 1.434 . S
C328 C319 1.429 . S
C328 N325 1.350 . S
C328 C327 1.434 . S
C329 C330 1.369 . S
C329 C331 1.419 . S
C329 H333 0.930 . S
C330 C329 1.369 . S
C330 C339 1.429 . S
C331 C329 1.419 . S
C331 C332 1.363 . S
C331 H334 0.929 . S
C332 C331 1.363 . S
C332 C338 1.428 . S
H333 C329 0.930 . S
H334 C331 0.929 . S
S335 N336 1.613 . S
S335 N337 1.610 . S
N336 S335 1.613 . S
N336 C339 1.350 . S
N337 S335 1.610 . S
N337 C338 1.351 . S
C338 C332 1.428 . S
C338 N337 1.351 . S
C338 C339 1.434 . S
C339 C330 1.429 . S
C339 N336 1.350 . S
C339 C338 1.434 . S
C340 C341 1.369 . S
C340 C342 1.419 . S
C340 H344 0.930 . S
C341 C340 1.369 . S
C341 C350 1.429 . S
C342 C340 1.419 . S
C342 C343 1.363 . S
C342 H345 0.929 . S
C343 C342 1.363 . S
C343 C349 1.428 . S
H344 C340 0.930 . S
H345 C342 0.929 . S
S346 N347 1.613 . S
S346 N348 1.610 . S
N347 S346 1.613 . S
N347 C350 1.350 . S
N348 S346 1.610 . S
N348 C349 1.351 . S
C349 C343 1.428 . S
C349 N348 1.351 . S
C349 C350 1.434 . S
C350 C341 1.429 . S
C350 N347 1.350 . S
C350 C349 1.434 . S
C351 C352 1.369 . S
C351 C353 1.419 . S
C351 H355 0.930 . S
C352 C351 1.369 . S
C352 C361 1.429 . S
C353 C351 1.419 . S
C353 C354 1.363 . S
C353 H356 0.929 . S
C354 C353 1.363 . S
C354 C360 1.428 . S
H355 C351 0.930 . S
H356 C353 0.929 . S
S357 N358 1.613 . S
S357 N359 1.610 . S
N358 S357 1.613 . S
N358 C361 1.350 . S
N359 S357 1.610 . S
N359 C360 1.351 . S
C360 C354 1.428 . S
C360 N359 1.351 . S
C360 C361 1.434 . S
C361 C352 1.429 . S
C361 N358 1.350 . S
C361 C360 1.434 . S
C362 C363 1.369 . S
C362 C364 1.419 . S
C362 H366 0.930 . S
C363 C362 1.369 . S
C363 C372 1.429 . S
C364 C362 1.419 . S
C364 C365 1.363 . S
C364 H367 0.929 . S
C365 C364 1.363 . S
C365 C371 1.428 . S
H366 C362 0.930 . S
H367 C364 0.929 . S
S368 N369 1.613 . S
S368 N370 1.610 . S
N369 S368 1.613 . S
N369 C372 1.350 . S
N370 S368 1.610 . S
N370 C371 1.351 . S
C371 C365 1.428 . S
C371 N370 1.351 . S
C371 C372 1.434 . S
C372 C363 1.429 . S
C372 N369 1.350 . S
C372 C371 1.434 . S
C373 C374 1.369 . S
C373 C375 1.419 . S
C373 H377 0.930 . S
C374 C373 1.369 . S
C374 C383 1.429 . S
C375 C373 1.419 . S
C375 C376 1.363 . S
C375 H378 0.929 . S
C376 C375 1.363 . S
C376 C382 1.428 . S
H377 C373 0.930 . S
H378 C375 0.929 . S
S379 N380 1.613 . S
S379 N381 1.610 . S
N380 S379 1.613 . S
N380 C383 1.350 . S
N381 S379 1.610 . S
N381 C382 1.351 . S
C382 C376 1.428 . S
C382 N381 1.351 . S
C382 C383 1.434 . S
C383 C374 1.429 . S
C383 N380 1.350 . S
C383 C382 1.434 . S
C384 C385 1.369 . S
C384 C386 1.419 1_556 S
C384 H388 0.930 . S
C385 C384 1.369 . S
C385 C394 1.429 . S
C386 C384 1.419 1_554 S
C386 C387 1.363 . S
C386 H389 0.929 . S
C387 C386 1.363 . S
C387 C393 1.428 . S
H388 C384 0.930 . S
H389 C386 0.929 . S
S390 N391 1.616 1_554 S
S390 N392 1.607 . S
N391 S390 1.616 1_556 S
N391 C394 1.350 . S
N392 S390 1.607 . S
N392 C393 1.351 . S
C393 C387 1.428 . S
C393 N392 1.351 . S
C393 C394 1.434 1_554 S
C394 C385 1.429 . S
C394 N391 1.350 . S
C394 C393 1.434 1_556 S
C395 C396 1.369 . S
C395 C397 1.419 . S
C395 H399 0.930 . S
C396 C395 1.369 . S
C396 C405 1.429 . S
C397 C395 1.419 . S
C397 C398 1.363 . S
C397 H400 0.929 . S
C398 C397 1.363 . S
C398 C404 1.428 . S
H399 C395 0.930 . S
H400 C397 0.929 . S
S401 N402 1.613 . S
S401 N403 1.610 . S
N402 S401 1.613 . S
N402 C405 1.350 . S
N403 S401 1.610 . S
N403 C404 1.351 . S
C404 C398 1.428 . S
C404 N403 1.351 . S
C404 C405 1.434 . S
C405 C396 1.429 . S
C405 N402 1.350 . S
C405 C404 1.434 . S
C406 C407 1.369 . S
C406 C408 1.419 1_554 S
C406 H410 0.930 . S
C407 C406 1.369 . S
C407 C416 1.429 . S
C408 C406 1.419 1_556 S
C408 C409 1.363 . S
C408 H411 0.929 . S
C409 C408 1.363 . S
C409 C415 1.428 . S
H410 C406 0.930 . S
H411 C408 0.929 . S
S412 N413 1.616 1_556 S
S412 N414 1.607 . S
N413 S412 1.616 1_554 S
N413 C416 1.350 . S
N414 S412 1.607 . S
N414 C415 1.351 . S
C415 C409 1.428 . S
C415 N414 1.351 . S
C415 C416 1.434 1_556 S
C416 C407 1.429 . S
C416 N413 1.350 . S
C416 C415 1.434 1_554 S
C417 C418 1.369 . S
C417 C419 1.419 . S
C417 H421 0.930 . S
C418 C417 1.369 . S
C418 C427 1.429 . S
C419 C417 1.419 . S
C419 C420 1.363 . S
C419 H422 0.929 . S
C420 C419 1.363 . S
C420 C426 1.428 . S
H421 C417 0.930 . S
H422 C419 0.929 . S
S423 N424 1.613 . S
S423 N425 1.610 . S
N424 S423 1.613 . S
N424 C427 1.350 . S
N425 S423 1.610 . S
N425 C426 1.351 . S
C426 C420 1.428 . S
C426 N425 1.351 . S
C426 C427 1.434 . S
C427 C418 1.429 . S
C427 N424 1.350 . S
C427 C426 1.434 . S
C428 C429 1.369 . S
C428 C430 1.419 . S
C428 H432 0.930 . S
C429 C428 1.369 . S
C429 C438 1.429 . S
C430 C428 1.419 . S
C430 C431 1.363 . S
C430 H433 0.929 . S
C431 C430 1.363 . S
C431 C437 1.428 . S
H432 C428 0.930 . S
H433 C430 0.929 . S
S434 N435 1.613 . S
S434 N436 1.610 . S
N435 S434 1.613 . S
N435 C438 1.350 . S
N436 S434 1.610 . S
N436 C437 1.351 . S
C437 C431 1.428 . S
C437 N436 1.351 . S
C437 C438 1.434 . S
C438 C429 1.429 . S
C438 N435 1.350 . S
C438 C437 1.434 . S
C439 C440 1.369 . S
C439 C441 1.419 1_556 S
C439 H443 0.930 . S
C440 C439 1.369 . S
C440 C449 1.429 . S
C441 C439 1.419 1_554 S
C441 C442 1.363 . S
C441 H444 0.929 . S
C442 C441 1.363 . S
C442 C448 1.428 . S
H443 C439 0.930 . S
H444 C441 0.929 . S
S445 N446 1.616 1_554 S
S445 N447 1.607 . S
N446 S445 1.616 1_556 S
N446 C449 1.350 . S
N447 S445 1.607 . S
N447 C448 1.351 . S
C448 C442 1.428 . S
C448 N447 1.351 . S
C448 C449 1.434 1_554 S
C449 C440 1.429 . S
C449 N446 1.350 . S
C449 C448 1.434 1_556 S
C450 C451 1.369 . S
C450 C452 1.419 . S
C450 H454 0.930 . S
C451 C450 1.369 . S
C451 C460 1.429 . S
C452 C450 1.419 . S
C452 C453 1.363 . S
C452 H455 0.929 . S
C453 C452 1.363 . S
C453 C459 1.428 . S
H454 C450 0.930 . S
H455 C452 0.929 . S
S456 N457 1.613 . S
S456 N458 1.610 . S
N457 S456 1.613 . S
N457 C460 1.350 . S
N458 S456 1.610 . S
N458 C459 1.351 . S
C459 C453 1.428 . S
C459 N458 1.351 . S
C459 C460 1.434 . S
C460 C451 1.429 . S
C460 N457 1.350 . S
C460 C459 1.434 . S
C461 C462 1.369 . S
C461 C463 1.419 1_554 S
C461 H465 0.930 . S
C462 C461 1.369 . S
C462 C471 1.429 . S
C463 C461 1.419 1_556 S
C463 C464 1.363 . S
C463 H466 0.929 . S
C464 C463 1.363 . S
C464 C470 1.428 . S
H465 C461 0.930 . S
H466 C463 0.929 . S
S467 N468 1.616 1_556 S
S467 N469 1.607 . S
N468 S467 1.616 1_554 S
N468 C471 1.350 . S
N469 S467 1.607 . S
N469 C470 1.351 . S
C470 C464 1.428 . S
C470 N469 1.351 . S
C470 C471 1.434 1_556 S
C471 C462 1.429 . S
C471 N468 1.350 . S
C471 C470 1.434 1_554 S
C472 C473 1.369 . S
C472 C474 1.419 . S
C472 H476 0.930 . S
C473 C472 1.369 . S
C473 C482 1.429 . S
C474 C472 1.419 . S
C474 C475 1.363 . S
C474 H477 0.929 . S
C475 C474 1.363 . S
C475 C481 1.428 . S
H476 C472 0.930 . S
H477 C474 0.929 . S
S478 N479 1.613 . S
S478 N480 1.610 . S
N479 S478 1.613 . S
N479 C482 1.350 . S
N480 S478 1.610 . S
N480 C481 1.351 . S
C481 C475 1.428 . S
C481 N480 1.351 . S
C481 C482 1.434 . S
C482 C473 1.429 . S
C482 N479 1.350 . S
C482 C481 1.434 . S
C483 C484 1.369 . S
C483 C485 1.419 . S
C483 H487 0.930 . S
C484 C483 1.369 . S
C484 C493 1.429 . S
C485 C483 1.419 . S
C485 C486 1.363 . S
C485 H488 0.929 . S
C486 C485 1.363 . S
C486 C492 1.428 . S
H487 C483 0.930 . S
H488 C485 0.929 . S
S489 N490 1.613 . S
S489 N491 1.610 . S
N490 S489 1.613 . S
N490 C493 1.350 . S
N491 S489 1.610 . S
N491 C492 1.351 . S
C492 C486 1.428 . S
C492 N491 1.351 . S
C492 C493 1.434 . S
C493 C484 1.429 . S
C493 N490 1.350 . S
C493 C492 1.434 . S
C494 C495 1.369 . S
C494 C496 1.419 . S
C494 H498 0.930 . S
C495 C494 1.369 . S
C495 C504 1.429 . S
C496 C494 1.419 . S
C496 C497 1.363 . S
C496 H499 0.929 . S
C497 C496 1.363 . S
C497 C503 1.428 . S
H498 C494 0.930 . S
H499 C496 0.929 . S
S500 N501 1.613 . S
S500 N502 1.610 . S
N501 S500 1.613 . S
N501 C504 1.350 . S
N502 S500 1.610 . S
N502 C503 1.351 . S
C503 C497 1.428 . S
C503 N502 1.351 . S
C503 C504 1.434 . S
C504 C495 1.429 . S
C504 N501 1.350 . S
C504 C503 1.434 . S
C505 C506 1.369 . S
C505 C507 1.419 . S
C505 H509 0.930 . S
C506 C505 1.369 . S
C506 C515 1.429 . S
C507 C505 1.419 . S
C507 C508 1.363 . S
C507 H510 0.929 . S
C508 C507 1.363 . S
C508 C514 1.428 . S
H509 C505 0.930 . S
H510 C507 0.929 . S
S511 N512 1.613 . S
S511 N513 1.610 . S
N512 S511 1.613 . S
N512 C515 1.350 . S
N513 S511 1.610 . S
N513 C514 1.351 . S
C514 C508 1.428 . S
C514 N513 1.351 . S
C514 C515 1.434 . S
C515 C506 1.429 . S
C515 N512 1.350 . S
C515 C514 1.434 . S
C516 C517 1.369 . S
C516 C518 1.419 . S
C516 H520 0.930 . S
C517 C516 1.369 . S
C517 C526 1.429 . S
C518 C516 1.419 . S
C518 C519 1.363 . S
C518 H521 0.929 . S
C519 C518 1.363 . S
C519 C525 1.428 . S
H520 C516 0.930 . S
H521 C518 0.929 . S
S522 N523 1.613 . S
S522 N524 1.610 . S
N523 S522 1.613 . S
N523 C526 1.350 . S
N524 S522 1.610 . S
N524 C525 1.351 . S
C525 C519 1.428 . S
C525 N524 1.351 . S
C525 C526 1.434 . S
C526 C517 1.429 . S
C526 N523 1.350 . S
C526 C525 1.434 . S
C527 C528 1.369 . S
C527 C529 1.419 . S
C527 H531 0.930 . S
C528 C527 1.369 . S
C528 C537 1.429 . S
C529 C527 1.419 . S
C529 C530 1.363 . S
C529 H532 0.929 . S
C530 C529 1.363 . S
C530 C536 1.428 . S
H531 C527 0.930 . S
H532 C529 0.929 . S
S533 N534 1.613 . S
S533 N535 1.610 . S
N534 S533 1.613 . S
N534 C537 1.350 . S
N535 S533 1.610 . S
N535 C536 1.351 . S
C536 C530 1.428 . S
C536 N535 1.351 . S
C536 C537 1.434 . S
C537 C528 1.429 . S
C537 N534 1.350 . S
C537 C536 1.434 . S
C538 C539 1.369 . S
C538 C540 1.419 . S
C538 H542 0.930 . S
C539 C538 1.369 . S
C539 C548 1.429 . S
C540 C538 1.419 . S
C540 C541 1.363 . S
C540 H543 0.929 . S
C541 C540 1.363 . S
C541 C547 1.428 . S
H542 C538 0.930 . S
H543 C540 0.929 . S
S544 N545 1.613 . S
S544 N546 1.610 . S
N545 S544 1.613 . S
N545 C548 1.350 . S
N546 S544 1.610 . S
N546 C547 1.351 . S
C547 C541 1.428 . S
C547 N546 1.351 . S
C547 C548 1.434 . S
C548 C539 1.429 . S
C548 N545 1.350 . S
C548 C547 1.434 . S
C549 C550 1.369 . S
C549 C551 1.419 . S
C549 H553 0.930 . S
C550 C549 1.369 . S
C550 C559 1.429 . S
C551 C549 1.419 . S
C551 C552 1.363 . S
C551 H554 0.929 . S
C552 C551 1.363 . S
C552 C558 1.428 . S
H553 C549 0.930 . S
H554 C551 0.929 . S
S555 N556 1.613 . S
S555 N557 1.610 . S
N556 S555 1.613 . S
N556 C559 1.350 . S
N557 S555 1.610 . S
N557 C558 1.351 . S
C558 C552 1.428 . S
C558 N557 1.351 . S
C558 C559 1.434 . S
C559 C550 1.429 . S
C559 N556 1.350 . S
C559 C558 1.434 . S
C209 C10 1.934 . S
C211 C36 1.937 . S
C220 C49 1.934 . S
C222 C23 1.937 . S
C231 C62 1.939 . S
C233 C88 1.934 . S
C242 C101 1.937 . S
C244 C75 1.934 . S
C253 C114 1.828 . S
C255 C140 1.821 . S
C264 C153 1.828 . S
C266 C127 1.821 . S
C275 C166 1.830 . S
C277 C192 1.821 . S
C286 C205 1.822 . S
C288 C179 1.826 . S
C297 C55 1.524 . S
C299 C3 1.518 . S
C308 C16 1.517 . S
C310 C68 1.523 . S
C319 C29 1.517 . S
C321 C81 1.524 . S
C330 C94 1.524 . S
C332 C42 1.519 . S
C341 C107 1.562 . S
C343 C159 1.562 . S
C352 C120 1.563 . S
C354 C172 1.563 . S
C363 C133 1.562 . S
C365 C185 1.562 . S
C374 C146 1.562 . S
C376 C198 1.562 . S
C385 C131 1.529 . S
C387 C1 1.520 . S
C396 C144 1.530 . S
C398 C14 1.517 . S
C407 C27 1.516 . S
C409 C105 1.530 . S
C418 C40 1.520 . S
C420 C118 1.530 . S
C429 C53 1.516 . S
C431 C183 1.530 . S
C440 C66 1.516 . S
C442 C196 1.531 . S
C451 C79 1.520 . S
C453 C157 1.529 . S
C462 C170 1.531 . S
C464 C92 1.516 . S
C473 C5 1.790 . S
C475 C200 1.729 . S
C484 C161 1.734 . S
C486 C18 1.791 . S
C495 C31 1.790 . S
C497 C174 1.729 . S
C506 C187 1.728 . S
C508 C44 1.790 . S
C517 C122 1.728 . S
C519 C57 1.790 . S
C528 C70 1.791 . S
C530 C135 1.733 . S
C539 C148 1.732 . S
C541 C83 1.791 . S
C550 C109 1.726 . S
C552 C96 1.790 . S
