# Generated by pormake.
# Topology snk, (6)-cn, num edge types: 1
# Building blocks:
#     Node 0, Type 0, BuildingBlock: KUMBOL_clean_sbu_0, # of connection points: 6
#     Node 1, Type 0, BuildingBlock: KUMBOL_clean_sbu_0, # of connection points: 6
#     Node 2, Type 0, BuildingBlock: KUMBOL_clean_sbu_0, # of connection points: 6
#     Node 3, Type 0, BuildingBlock: KUMBOL_clean_sbu_0, # of connection points: 6
#     Node 4, Type 0, BuildingBlock: KUMBOL_clean_sbu_0, # of connection points: 6
#     Node 5, Type 0, BuildingBlock: KUMBOL_clean_sbu_0, # of connection points: 6
#     Node 6, Type 0, BuildingBlock: KUMBOL_clean_sbu_0, # of connection points: 6
#     Node 7, Type 0, BuildingBlock: KUMBOL_clean_sbu_0, # of connection points: 6
#     Edge 8, Type (0, 0), BuildingBlock: UVAHIK_clean_linker_0, # of connection points: 2
#     Edge 9, Type (0, 0), BuildingBlock: UVAHIK_clean_linker_0, # of connection points: 2
#     Edge 10, Type (0, 0), BuildingBlock: UVAHIK_clean_linker_0, # of connection points: 2
#     Edge 11, Type (0, 0), BuildingBlock: UVAHIK_clean_linker_0, # of connection points: 2
#     Edge 12, Type (0, 0), BuildingBlock: UVAHIK_clean_linker_0, # of connection points: 2
#     Edge 13, Type (0, 0), BuildingBlock: UVAHIK_clean_linker_0, # of connection points: 2
#     Edge 14, Type (0, 0), BuildingBlock: UVAHIK_clean_linker_0, # of connection points: 2
#     Edge 15, Type (0, 0), BuildingBlock: UVAHIK_clean_linker_0, # of connection points: 2
#     Edge 16, Type (0, 0), BuildingBlock: UVAHIK_clean_linker_0, # of connection points: 2
#     Edge 17, Type (0, 0), BuildingBlock: UVAHIK_clean_linker_0, # of connection points: 2
#     Edge 18, Type (0, 0), BuildingBlock: UVAHIK_clean_linker_0, # of connection points: 2
#     Edge 19, Type (0, 0), BuildingBlock: UVAHIK_clean_linker_0, # of connection points: 2
#     Edge 20, Type (0, 0), BuildingBlock: UVAHIK_clean_linker_0, # of connection points: 2
#     Edge 21, Type (0, 0), BuildingBlock: UVAHIK_clean_linker_0, # of connection points: 2
#     Edge 22, Type (0, 0), BuildingBlock: UVAHIK_clean_linker_0, # of connection points: 2
#     Edge 23, Type (0, 0), BuildingBlock: UVAHIK_clean_linker_0, # of connection points: 2
#     Edge 24, Type (0, 0), BuildingBlock: UVAHIK_clean_linker_0, # of connection points: 2
#     Edge 25, Type (0, 0), BuildingBlock: UVAHIK_clean_linker_0, # of connection points: 2
#     Edge 26, Type (0, 0), BuildingBlock: UVAHIK_clean_linker_0, # of connection points: 2
#     Edge 27, Type (0, 0), BuildingBlock: UVAHIK_clean_linker_0, # of connection points: 2
#     Edge 28, Type (0, 0), BuildingBlock: UVAHIK_clean_linker_0, # of connection points: 2
#     Edge 29, Type (0, 0), BuildingBlock: UVAHIK_clean_linker_0, # of connection points: 2
#     Edge 30, Type (0, 0), BuildingBlock: UVAHIK_clean_linker_0, # of connection points: 2
#     Edge 31, Type (0, 0), BuildingBlock: UVAHIK_clean_linker_0, # of connection points: 2
# Relax obj value: 0.014
# Max RMSD: 0.071
# Mean RMSD: 0.068
data_MOF--net-snk--node1-KUMBOL_clean_sbu_0--edge1-UVAHIK_clean_linker_0
_symmetry_space_group_name_H-M    P1
_symmetry_Int_Tables_number       1
_symmetry_cell_setting            triclinic
loop_
_symmetry_equiv_pos_as_xyz
'x, y, z'
_cell_length_a     49.924322
_cell_length_b     49.8749
_cell_length_c     29.063963
_cell_angle_alpha  87.697417
_cell_angle_beta   87.878268
_cell_angle_gamma 90.027073
loop_
_atom_site_label
_atom_site_type_symbol
_atom_site_fract_x
_atom_site_fract_y
_atom_site_fract_z
_atom_type_partial_charge
Gd0 Gd 0.00607 0.02669 0.56943 0.0
Gd1 Gd 0.99962 0.98096 0.47316 0.0
C2 C 0.95066 0.9034 0.487 0.0
C3 C 0.9854 0.86932 0.48415 0.0
C4 C 0.99723 0.91664 0.47717 0.0
C5 C 0.97054 0.92353 0.48226 0.0
C6 C 0.00497 0.88946 0.47709 0.0
C7 C 0.95828 0.87628 0.48908 0.0
C8 C 0.92371 0.91111 0.48818 0.0
C9 C 0.9172 0.93825 0.4831 0.0
N10 N 0.96393 0.94992 0.47977 0.0
C11 C 0.93766 0.95746 0.47831 0.0
H12 H 0.93225 0.97832 0.47468 0.0
C13 C 0.04171 0.93079 0.45907 0.0
N14 N 0.01551 0.9366 0.46984 0.0
C15 C 0.05043 0.90414 0.45904 0.0
C16 C 0.03203 0.88337 0.46864 0.0
H17 H 0.05606 0.94677 0.45196 0.0
H18 H 0.94331 0.86054 0.4933 0.0
H19 H 0.07344 0.0292 0.56798 0.0
H20 H 0.90783 0.89629 0.49196 0.0
H21 H 0.89642 0.94443 0.48313 0.0
H22 H 0.99096 0.84832 0.48465 0.0
H23 H 0.94971 0.061 0.59063 0.0
H24 H 0.09802 0.11119 0.55049 0.0
H25 H 0.10934 0.06303 0.55945 0.0
H26 H 0.01498 0.15932 0.5577 0.0
H27 H 0.07131 0.89964 0.45166 0.0
H28 H 0.0388 0.86274 0.46839 0.0
H29 H 0.06261 0.147 0.54907 0.0
H30 H 0.93454 0.10816 0.59085 0.0
N31 N 0.04182 0.05767 0.56279 0.0
C32 C 0.08211 0.09639 0.55431 0.0
C33 C 0.08857 0.06924 0.55946 0.0
C34 C 0.05518 0.10416 0.55546 0.0
C35 C 0.03526 0.08407 0.56024 0.0
C36 C 0.06808 0.05008 0.56429 0.0
N37 N 0.99027 0.07108 0.57269 0.0
C38 C 0.00859 0.09101 0.56531 0.0
C39 C 0.95542 0.10362 0.58347 0.0
C40 C 0.97385 0.12434 0.5738 0.0
C41 C 0.96408 0.07695 0.58348 0.0
C42 C 1.0009 0.1182 0.56535 0.0
H43 H 0.96712 0.14499 0.57402 0.0
O44 O 0.98773 0.02636 0.63854 0.0
O45 O 0.98788 0.98902 0.54584 0.0
O46 O 0.96665 0.01261 0.47542 0.0
O47 O 0.98481 0.04873 0.51221 0.0
O48 O 0.96368 0.01217 0.58699 0.0
O49 O 0.03019 0.01874 0.62922 0.0
O50 O 0.01793 0.98132 0.40403 0.0
O51 O 0.01779 0.01859 0.49679 0.0
O52 O 0.03899 0.99498 0.56724 0.0
O53 O 0.02082 0.95889 0.5304 0.0
O54 O 0.042 0.99555 0.45556 0.0
O55 O 0.97546 0.98891 0.41342 0.0
C56 C 0.96494 0.99009 0.56559 0.0
C57 C 0.0205 0.1383 0.55824 0.0
C58 C 0.04761 0.13129 0.55332 0.0
C59 C 0.01033 0.02235 0.65875 0.0
C60 C 0.01564 0.03972 0.69731 0.0
C61 C 0.02464 0.06612 0.68861 0.0
C62 C 0.01141 0.03002 0.74324 0.0
C63 C 0.01603 0.04669 0.78032 0.0
C64 C 0.02939 0.08266 0.72499 0.0
C65 C 0.02515 0.07309 0.77046 0.0
C66 C 0.96729 0.03845 0.48467 0.0
C67 C 0.04073 0.01761 0.47703 0.0
C68 C 0.99531 0.98531 0.38385 0.0
C69 C 0.98999 0.96795 0.34529 0.0
C70 C 0.98099 0.94155 0.354 0.0
C71 C 0.99421 0.97765 0.29937 0.0
C72 C 0.98958 0.96097 0.26228 0.0
C73 C 0.97623 0.92501 0.31763 0.0
C74 C 0.98046 0.93457 0.27216 0.0
C75 C 0.03831 0.96914 0.55801 0.0
H76 H 0.02804 0.07395 0.65375 0.0
H77 H 0.00418 0.00969 0.74997 0.0
H78 H 0.03645 0.10298 0.71791 0.0
H79 H 0.02937 0.08632 0.79796 0.0
H80 H 0.9776 0.93372 0.38886 0.0
H81 H 1.00144 0.99797 0.29262 0.0
H82 H 0.96917 0.90468 0.32472 0.0
H83 H 0.97623 0.92135 0.24466 0.0
Gd84 Gd 0.23234 0.76112 0.82303 0.0
Gd85 Gd 0.27681 0.74979 0.7191 0.0
C86 C 0.34809 0.69254 0.72438 0.0
C87 C 0.38588 0.72326 0.71495 0.0
C88 C 0.34027 0.74027 0.7143 0.0
C89 C 0.33039 0.71453 0.72155 0.0
C90 C 0.36811 0.74492 0.70988 0.0
C91 C 0.37588 0.6971 0.72222 0.0
C92 C 0.33731 0.6666 0.72782 0.0
C93 C 0.30961 0.66311 0.7266 0.0
N94 N 0.30344 0.71086 0.7229 0.0
C95 C 0.29289 0.68557 0.72353 0.0
H96 H 0.27152 0.68255 0.72288 0.0
C97 C 0.33119 0.78599 0.69667 0.0
N98 N 0.32253 0.76065 0.70921 0.0
C99 C 0.35863 0.79165 0.69211 0.0
C100 C 0.3772 0.77109 0.69929 0.0
H101 H 0.31689 0.80196 0.69144 0.0
H102 H 0.38979 0.68049 0.72487 0.0
H103 H 0.23864 0.82825 0.81857 0.0
H104 H 0.3502 0.64917 0.73027 0.0
H105 H 0.30108 0.64312 0.7283 0.0
H106 H 0.40736 0.72644 0.71214 0.0
H107 H 0.19155 0.70997 0.85319 0.0
H108 H 0.16051 0.86281 0.81001 0.0
H109 H 0.2097 0.86812 0.81245 0.0
H110 H 0.10217 0.78649 0.82935 0.0
H111 H 0.36543 0.81186 0.68316 0.0
H112 H 0.39844 0.77551 0.69561 0.0
H113 H 0.12044 0.83209 0.81551 0.0
H114 H 0.14285 0.70086 0.86216 0.0
N115 N 0.2063 0.80043 0.81847 0.0
C116 C 0.17313 0.84519 0.81276 0.0
C117 C 0.20087 0.84827 0.81426 0.0
C118 C 0.16195 0.81943 0.81641 0.0
C119 C 0.1793 0.79718 0.81965 0.0
C120 C 0.21724 0.82556 0.81772 0.0
N121 N 0.18646 0.75106 0.83322 0.0
C122 C 0.16903 0.77163 0.82738 0.0
C123 C 0.14994 0.72084 0.85215 0.0
C124 C 0.13167 0.74154 0.8439 0.0
C125 C 0.17746 0.72605 0.84717 0.0
C126 C 0.14113 0.76744 0.83208 0.0
H127 H 0.11037 0.73748 0.84789 0.0
O128 O 0.23126 0.74299 0.89243 0.0
O129 O 0.26658 0.73905 0.79251 0.0
O130 O 0.24159 0.72111 0.72656 0.0
O131 O 0.20788 0.74196 0.77011 0.0
O132 O 0.24275 0.71752 0.83974 0.0
O133 O 0.24321 0.78453 0.88095 0.0
O134 O 0.27775 0.76785 0.64966 0.0
O135 O 0.24239 0.77166 0.74953 0.0
O136 O 0.2682 0.78929 0.81627 0.0
O137 O 0.30134 0.76756 0.77293 0.0
O138 O 0.26632 0.79342 0.70289 0.0
O139 O 0.26584 0.72631 0.66135 0.0
C140 C 0.264 0.71654 0.81334 0.0
C141 C 0.12369 0.78932 0.82639 0.0
C142 C 0.13409 0.81529 0.81852 0.0
C143 C 0.23756 0.76525 0.91147 0.0
C144 C 0.22076 0.77257 0.95181 0.0
C145 C 0.19581 0.78485 0.94585 0.0
C146 C 0.22956 0.76711 0.99669 0.0
C147 C 0.21344 0.77379 0.0355 0.0
C148 C 0.17981 0.79158 0.98396 0.0
C149 C 0.18849 0.78614 0.02845 0.0
C150 C 0.2161 0.72474 0.73915 0.0
C151 C 0.24493 0.79423 0.72897 0.0
C152 C 0.27138 0.74557 0.63075 0.0
C153 C 0.28802 0.73821 0.59025 0.0
C154 C 0.31302 0.72599 0.59596 0.0
C155 C 0.27899 0.74353 0.54548 0.0
C156 C 0.29495 0.73677 0.50652 0.0
C157 C 0.32884 0.71914 0.5577 0.0
C158 C 0.31994 0.72445 0.51332 0.0
C159 C 0.29364 0.78476 0.80418 0.0
H160 H 0.18872 0.78932 0.91181 0.0
H161 H 0.24875 0.75739 1.00129 0.0
H162 H 0.16062 0.80116 0.979 0.0
H163 H 0.1758 0.79197 0.05737 0.0
H164 H 0.32029 0.72164 0.62992 0.0
H165 H 0.25978 0.75322 0.54106 0.0
H166 H 0.34806 0.70959 0.56247 0.0
H167 H 0.3325 0.71855 0.48429 0.0
Gd168 Gd 0.49421 0.02451 0.9656 0.0
Gd169 Gd 0.51293 0.98498 0.07184 0.0
C170 C 0.57478 0.91776 0.06462 0.0
C171 C 0.54746 0.87818 0.08326 0.0
C172 C 0.52724 0.92252 0.08171 0.0
C173 C 0.55176 0.93397 0.0691 0.0
C174 C 0.52491 0.89458 0.09013 0.0
C175 C 0.57236 0.88976 0.07046 0.0
C176 C 0.59966 0.93025 0.056 0.0
C177 C 0.60123 0.95823 0.05388 0.0
N178 N 0.55341 0.9611 0.06429 0.0
C179 C 0.57782 0.97343 0.05869 0.0
H180 H 0.57934 0.99502 0.05667 0.0
C181 C 0.4822 0.92907 0.10682 0.0
N182 N 0.50595 0.93896 0.08835 0.0
C183 C 0.47886 0.90146 0.11566 0.0
C184 C 0.50019 0.88409 0.10663 0.0
H185 H 0.46563 0.94247 0.11346 0.0
H186 H 0.58976 0.87696 0.06652 0.0
H187 H 0.42774 0.01331 0.98194 0.0
H188 H 0.61781 0.91853 0.05217 0.0
H189 H 0.62044 0.9681 0.04823 0.0
H190 H 0.54602 0.85662 0.08902 0.0
H191 H 0.53897 0.06765 0.91818 0.0
H192 H 0.38798 0.08894 0.98873 0.0
H193 H 0.38634 0.03934 0.99196 0.0
H194 H 0.45814 0.15226 0.94937 0.0
H195 H 0.45983 0.89361 0.12925 0.0
H196 H 0.49758 0.86272 0.11358 0.0
H197 H 0.4151 0.13108 0.9739 0.0
H198 H 0.54375 0.1166 0.90218 0.0
N199 N 0.45317 0.04768 0.97417 0.0
C200 C 0.40633 0.07759 0.98424 0.0
C201 C 0.40532 0.04961 0.98594 0.0
C202 C 0.43089 0.09058 0.975 0.0
C203 C 0.45418 0.07484 0.96962 0.0
C204 C 0.42899 0.03489 0.98024 0.0
N205 N 0.4996 0.07064 0.94776 0.0
C206 C 0.47826 0.08673 0.95596 0.0
C207 C 0.52527 0.1085 0.91764 0.0
C208 C 0.50403 0.12558 0.92875 0.0
C209 C 0.5225 0.08085 0.92663 0.0
C210 C 0.47991 0.1147 0.9472 0.0
H211 H 0.50614 0.14697 0.92149 0.0
O212 O 0.50927 0.02364 0.8944 0.0
O213 O 0.51919 0.99228 0.99635 0.0
O214 O 0.5388 0.02208 0.05899 0.0
O215 O 0.51696 0.05224 1.00863 0.0
O216 O 0.53742 0.01567 0.94439 0.0
O217 O 0.46912 0.00971 0.91266 0.0
O218 O 0.49758 0.98512 0.14291 0.0
O219 O 0.48846 0.0177 0.04138 0.0
O220 O 0.46817 0.98775 0.98124 0.0
O221 O 0.49282 0.95715 0.02541 0.0
O222 O 0.46974 0.99405 0.09256 0.0
O223 O 0.5382 0.99834 0.12563 0.0
C224 C 0.54059 0.99535 0.97244 0.0
C225 C 0.4572 0.13068 0.95531 0.0
C226 C 0.4327 0.11863 0.96924 0.0
C227 C 0.48656 0.01555 0.87922 0.0
C228 C 0.47648 0.03082 0.83895 0.0
C229 C 0.45972 0.05306 0.84506 0.0
C230 C 0.48396 0.02348 0.794 0.0
C231 C 0.47482 0.03834 0.7553 0.0
C232 C 0.45056 0.06779 0.80705 0.0
C233 C 0.458 0.06055 0.76251 0.0
C234 C 0.53499 0.04625 0.03961 0.0
C235 C 0.46702 0.01477 0.06521 0.0
C236 C 0.52042 0.99259 0.15864 0.0
C237 C 0.52994 0.97694 0.19896 0.0
C238 C 0.5465 0.95454 0.19298 0.0
C239 C 0.52229 0.98424 0.24386 0.0
C240 C 0.53106 0.96919 0.28264 0.0
C241 C 0.55526 0.93959 0.23107 0.0
C242 C 0.54765 0.9468 0.27555 0.0
C243 C 0.47358 0.96306 0.99672 0.0
H244 H 0.45362 0.05901 0.87917 0.0
H245 H 0.49714 0.00647 0.78926 0.0
H246 H 0.43755 0.08486 0.81212 0.0
H247 H 0.45025 0.07214 0.73365 0.0
H248 H 0.5528 0.94866 0.15895 0.0
H249 H 0.5093 1.00141 0.24849 0.0
H250 H 0.56812 0.9224 0.22609 0.0
H251 H 0.55514 0.93506 0.30446 0.0
Gd252 Gd 0.23091 0.24973 0.22061 0.0
Gd253 Gd 0.27546 0.25689 0.3184 0.0
C254 C 0.35149 0.30803 0.30541 0.0
C255 C 0.38647 0.27419 0.30806 0.0
C256 C 0.33955 0.26102 0.3145 0.0
C257 C 0.33193 0.28758 0.30968 0.0
C258 C 0.3669 0.25403 0.31476 0.0
C259 C 0.37878 0.30116 0.30343 0.0
C260 C 0.34305 0.33479 0.3046 0.0
C261 C 0.31576 0.34056 0.30956 0.0
N262 N 0.30539 0.2935 0.31212 0.0
C263 C 0.29713 0.31956 0.31388 0.0
H264 H 0.27613 0.3244 0.31749 0.0
C265 C 0.32665 0.21608 0.33264 0.0
N266 N 0.32014 0.24214 0.32171 0.0
C267 C 0.3535 0.2081 0.33273 0.0
C268 C 0.37373 0.2271 0.32318 0.0
H269 H 0.31105 0.20131 0.33973 0.0
H270 H 0.39408 0.31657 0.29956 0.0
H271 H 0.22825 0.1823 0.22604 0.0
H272 H 0.35742 0.35109 0.30118 0.0
H273 H 0.30905 0.36118 0.3098 0.0
H274 H 0.4076 0.26921 0.30769 0.0
H275 H 0.19748 0.30501 0.18918 0.0
H276 H 0.14616 0.15796 0.23993 0.0
H277 H 0.19434 0.14648 0.23468 0.0
H278 H 0.09849 0.24079 0.22102 0.0
H279 H 0.35858 0.18732 0.34015 0.0
H280 H 0.39452 0.22089 0.32355 0.0
H281 H 0.11046 0.19343 0.23582 0.0
H282 H 0.15062 0.3199 0.1814 0.0
N283 N 0.19981 0.21407 0.22806 0.0
C284 C 0.161 0.17384 0.23627 0.0
C285 C 0.18816 0.16728 0.23315 0.0
C286 C 0.1533 0.20079 0.23284 0.0
C287 C 0.17345 0.22067 0.22833 0.0
C288 C 0.20737 0.18774 0.22828 0.0
N289 N 0.1868 0.26527 0.21216 0.0
C290 C 0.16671 0.24719 0.21999 0.0
C291 C 0.15485 0.29942 0.19253 0.0
C292 C 0.13387 0.28139 0.2029 0.0
C293 C 0.18137 0.29091 0.19691 0.0
C294 C 0.13966 0.25477 0.21602 0.0
H295 H 0.11335 0.288 0.19936 0.0
O296 O 0.23297 0.2668 0.15043 0.0
O297 O 0.26797 0.26841 0.24545 0.0
O298 O 0.24297 0.289 0.31661 0.0
O299 O 0.20785 0.27265 0.27456 0.0
O300 O 0.24541 0.29215 0.20246 0.0
O301 O 0.23994 0.22441 0.16293 0.0
O302 O 0.27624 0.23836 0.38739 0.0
O303 O 0.238 0.23858 0.29421 0.0
O304 O 0.26252 0.21681 0.2254 0.0
O305 O 0.29813 0.23609 0.26163 0.0
O306 O 0.26106 0.21444 0.33601 0.0
O307 O 0.26706 0.28062 0.37831 0.0
C308 C 0.26703 0.29127 0.22522 0.0
C309 C 0.11941 0.23533 0.22337 0.0
C310 C 0.12623 0.20837 0.2318 0.0
C311 C 0.23697 0.24371 0.13193 0.0
C312 C 0.21997 0.23769 0.09319 0.0
C313 C 0.19356 0.22876 0.10162 0.0
C314 C 0.23013 0.24078 0.04742 0.0
C315 C 0.21399 0.23478 1.01026 0.0
C316 C 0.17742 0.22303 0.06516 0.0
C317 C 0.18748 0.226 1.01983 0.0
C318 C 0.2175 0.28901 0.30483 0.0
C319 C 0.239 0.2157 0.31444 0.0
C320 C 0.27159 0.26082 0.4077 0.0
C321 C 0.28901 0.26676 0.44589 0.0
C322 C 0.31547 0.27538 0.43679 0.0
C323 C 0.27918 0.2639 0.49187 0.0
C324 C 0.29568 0.2698 0.5286 0.0
C325 C 0.33194 0.28109 0.47283 0.0
C326 C 0.32219 0.27835 0.51839 0.0
C327 C 0.28831 0.21809 0.23459 0.0
H328 H 0.18539 0.22617 0.13634 0.0
H329 H 0.25064 0.24744 0.04087 0.0
H330 H 0.15701 0.21627 0.07206 0.0
H331 H 0.17436 0.2217 0.9922 0.0
H332 H 0.32341 0.27771 0.40189 0.0
H333 H 0.25864 0.25746 0.49892 0.0
H334 H 0.35238 0.28763 0.46543 0.0
H335 H 0.33557 0.28259 0.54568 0.0
Gd336 Gd 0.73104 0.25989 0.32261 0.0
Gd337 Gd 0.77492 0.24687 0.2185 0.0
C338 C 0.84378 0.18683 0.22592 0.0
C339 C 0.88278 0.21592 0.21531 0.0
C340 C 0.83791 0.23476 0.21414 0.0
C341 C 0.82699 0.20949 0.22233 0.0
C342 C 0.8659 0.23822 0.20936 0.0
C343 C 0.87173 0.19026 0.22363 0.0
C344 C 0.83196 0.16137 0.23017 0.0
C345 C 0.80414 0.15897 0.22893 0.0
N346 N 0.79991 0.20692 0.22375 0.0
C347 C 0.78834 0.18206 0.22512 0.0
H348 H 0.76686 0.17989 0.22453 0.0
C349 C 0.83065 0.28054 0.19407 0.0
N350 N 0.82101 0.25578 0.20817 0.0
C351 C 0.85828 0.28502 0.18903 0.0
C352 C 0.87602 0.26385 0.19733 0.0
H353 H 0.81697 0.29697 0.18798 0.0
H354 H 0.88496 0.17312 0.22689 0.0
H355 H 0.74046 0.32693 0.3168 0.0
H356 H 0.84414 0.14345 0.23321 0.0
H357 H 0.79482 0.13934 0.23124 0.0
H358 H 0.90437 0.2182 0.21228 0.0
H359 H 0.68787 0.21174 0.35732 0.0
H360 H 0.66417 0.36497 0.30573 0.0
H361 H 0.71352 0.36798 0.309 0.0
H362 H 0.60221 0.29172 0.32711 0.0
H363 H 0.86588 0.30479 0.17889 0.0
H364 H 0.89741 0.26735 0.1933 0.0
H365 H 0.62269 0.33624 0.31141 0.0
H366 H 0.63876 0.205 0.3662 0.0
N367 N 0.7069 0.3005 0.31695 0.0
C368 C 0.67592 0.3468 0.30926 0.0
C369 C 0.70375 0.34857 0.31123 0.0
C370 C 0.66353 0.32162 0.31356 0.0
C371 C 0.67978 0.29859 0.31786 0.0
C372 C 0.71899 0.32513 0.31565 0.0
N373 N 0.6847 0.25243 0.33372 0.0
C374 C 0.66828 0.27368 0.3265 0.0
C375 C 0.64678 0.2244 0.35471 0.0
C376 C 0.62952 0.2457 0.34462 0.0
C377 C 0.67452 0.22827 0.3498 0.0
C378 C 0.64021 0.27089 0.33123 0.0
H379 H 0.60805 0.2427 0.34867 0.0
O380 O 0.72949 0.24196 0.39218 0.0
O381 O 0.7647 0.23694 0.29216 0.0
O382 O 0.73848 0.21973 0.22432 0.0
O383 O 0.70577 0.2396 0.27216 0.0
O384 O 0.74042 0.21609 0.3396 0.0
O385 O 0.7433 0.28283 0.38019 0.0
O386 O 0.77646 0.26493 0.14905 0.0
O387 O 0.74085 0.26949 0.24857 0.0
O388 O 0.7675 0.28712 0.31489 0.0
O389 O 0.80016 0.26504 0.27103 0.0
O390 O 0.76552 0.29064 0.20198 0.0
O391 O 0.76405 0.22351 0.16059 0.0
C392 C 0.76165 0.21455 0.31323 0.0
C393 C 0.62385 0.29349 0.32423 0.0
C394 C 0.6355 0.31884 0.31534 0.0
C395 C 0.73688 0.26394 0.41094 0.0
C396 C 0.72055 0.27215 0.45122 0.0
C397 C 0.69617 0.28554 0.44517 0.0
C398 C 0.72923 0.26648 0.49611 0.0
C399 C 0.71354 0.27406 0.53487 0.0
C400 C 0.6806 0.29316 0.48324 0.0
C401 C 0.68915 0.2875 0.52775 0.0
C402 C 0.71343 0.22309 0.23973 0.0
C403 C 0.74401 0.29192 0.2277 0.0
C404 C 0.76994 0.24272 0.13006 0.0
C405 C 0.78663 0.23518 0.08974 0.0
C406 C 0.81124 0.22223 0.09569 0.0
C407 C 0.77796 0.24097 0.04488 0.0
C408 C 0.79388 0.23393 1.00605 0.0
C409 C 0.82706 0.21517 0.05756 0.0
C410 C 0.81851 0.22092 1.01308 0.0
C411 C 0.79278 0.28254 0.30198 0.0
H412 H 0.6892 0.29019 0.41108 0.0
H413 H 0.74796 0.25592 0.50078 0.0
H414 H 0.66186 0.30358 0.47822 0.0
H415 H 0.67682 0.29402 0.55663 0.0
H416 H 0.8182 0.21747 0.12974 0.0
H417 H 0.75903 0.25118 0.04031 0.0
H418 H 0.84599 0.20507 0.06251 0.0
H419 H 0.83103 0.21479 0.98416 0.0
Gd420 Gd 0.72956 0.75068 0.7217 0.0
Gd421 Gd 0.77516 0.75733 0.81842 0.0
C422 C 0.85289 0.80595 0.8052 0.0
C423 C 0.88675 0.771 0.80842 0.0
C424 C 0.83942 0.75939 0.81484 0.0
C425 C 0.83268 0.78614 0.80964 0.0
C426 C 0.86653 0.7515 0.81525 0.0
C427 C 0.87994 0.79819 0.80345 0.0
C428 C 0.84532 0.83297 0.80404 0.0
C429 C 0.81824 0.83962 0.8088 0.0
N430 N 0.80635 0.7929 0.81187 0.0
C431 C 0.79895 0.81923 0.81329 0.0
H432 H 0.77814 0.82473 0.81674 0.0
C433 C 0.82505 0.71492 0.83307 0.0
N434 N 0.81938 0.74119 0.82211 0.0
C435 C 0.85162 0.70606 0.83334 0.0
C436 C 0.87246 0.72437 0.82384 0.0
H437 H 0.809 0.70065 0.84012 0.0
H438 H 0.89574 0.8131 0.79949 0.0
H439 H 0.72651 0.68329 0.7231 0.0
H440 H 0.86021 0.8488 0.8005 0.0
H441 H 0.81218 0.86045 0.80876 0.0
H442 H 0.9077 0.76533 0.80818 0.0
H443 H 0.69579 0.80744 0.70023 0.0
H444 H 0.6444 0.65929 0.73893 0.0
H445 H 0.69243 0.64761 0.7308 0.0
H446 H 0.597 0.74282 0.73144 0.0
H447 H 0.85599 0.68512 0.84085 0.0
H448 H 0.89303 0.71749 0.82433 0.0
H449 H 0.60891 0.69503 0.73996 0.0
H450 H 0.64882 0.82302 0.69944 0.0
N451 N 0.69832 0.71515 0.72803 0.0
C452 C 0.65931 0.67511 0.73553 0.0
C453 C 0.68639 0.66844 0.73083 0.0
C454 C 0.65177 0.70213 0.73446 0.0
C455 C 0.672 0.72193 0.73019 0.0
C456 C 0.7057 0.68882 0.72651 0.0
N457 N 0.68535 0.76688 0.71797 0.0
C458 C 0.66529 0.74869 0.72507 0.0
C459 C 0.65317 0.80207 0.70684 0.0
C460 C 0.6323 0.78376 0.71615 0.0
C461 C 0.67972 0.79317 0.70715 0.0
C462 C 0.6382 0.75661 0.72462 0.0
H463 H 0.61173 0.79067 0.71563 0.0
O464 O 0.72975 0.76863 0.65221 0.0
O465 O 0.76715 0.76885 0.74553 0.0
O466 O 0.74372 0.7905 0.81497 0.0
O467 O 0.70757 0.77207 0.77866 0.0
O468 O 0.74445 0.79294 0.70321 0.0
O469 O 0.73809 0.72631 0.66258 0.0
O470 O 0.77492 0.73931 0.88785 0.0
O471 O 0.73763 0.73914 0.79452 0.0
O472 O 0.76095 0.71747 0.72521 0.0
O473 O 0.79711 0.73587 0.76155 0.0
O474 O 0.76025 0.71507 0.83696 0.0
O475 O 0.76684 0.7817 0.87762 0.0
C476 C 0.76637 0.79168 0.72515 0.0
C477 C 0.61795 0.73713 0.73126 0.0
C478 C 0.62472 0.70992 0.73613 0.0
C479 C 0.73424 0.74595 0.63256 0.0
C480 C 0.71715 0.74002 0.59389 0.0
C481 C 0.69052 0.7318 0.60236 0.0
C482 C 0.72745 0.74256 0.54811 0.0
C483 C 0.71124 0.7367 0.51094 0.0
C484 C 0.67435 0.72611 0.5659 0.0
C485 C 0.68455 0.72851 0.52057 0.0
C486 C 0.71789 0.78982 0.80572 0.0
C487 C 0.73837 0.71631 0.81493 0.0
C488 C 0.77063 0.76201 0.90758 0.0
C489 C 0.78788 0.76776 0.94613 0.0
C490 C 0.81445 0.77611 0.93745 0.0
C491 C 0.7778 0.76487 0.99201 0.0
C492 C 0.79418 0.77052 0.02906 0.0
C493 C 0.83079 0.78158 0.9738 0.0
C494 C 0.82081 0.77883 1.01923 0.0
C495 C 0.78678 0.71813 0.73451 0.0
H496 H 0.6822 0.72979 0.6371 0.0
H497 H 0.74811 0.74873 0.54157 0.0
H498 H 0.65377 0.71987 0.57279 0.0
H499 H 0.67138 0.72431 0.49296 0.0
H500 H 0.82259 0.77841 0.90263 0.0
H501 H 0.75719 0.75859 0.99872 0.0
H502 H 0.85132 0.78792 0.96673 0.0
H503 H 0.83411 0.78287 0.04674 0.0
Gd504 Gd 0.50681 0.52598 0.06779 0.0
Gd505 Gd 0.49963 0.48039 0.97144 0.0
C506 C 0.45001 0.40326 0.98572 0.0
C507 C 0.48444 0.36889 0.98243 0.0
C508 C 0.49667 0.4161 0.97541 0.0
C509 C 0.47006 0.42322 0.98078 0.0
C510 C 0.50416 0.38886 0.97518 0.0
C511 C 0.45739 0.37608 0.98768 0.0
C512 C 0.42314 0.41122 0.98722 0.0
C513 C 0.41685 0.43842 0.98227 0.0
N514 N 0.46367 0.44967 0.97841 0.0
C515 C 0.43746 0.45745 0.97727 0.0
H516 H 0.43223 0.47836 0.97373 0.0
C517 C 0.54121 0.42987 0.95673 0.0
N518 N 0.5151 0.43591 0.96787 0.0
C519 C 0.54968 0.40315 0.95656 0.0
C520 C 0.53114 0.38254 0.96638 0.0
H521 H 0.55566 0.44575 0.94946 0.0
H522 H 0.4423 0.36047 0.99205 0.0
H523 H 0.5742 0.52825 0.06543 0.0
H524 H 0.40713 0.39653 0.99117 0.0
H525 H 0.39612 0.44478 0.98256 0.0
H526 H 0.48981 0.34783 0.98283 0.0
H527 H 0.45062 0.56047 0.08957 0.0
H528 H 0.59902 0.61016 0.04803 0.0
H529 H 0.61019 0.56195 0.05659 0.0
H530 H 0.51618 0.65858 0.05634 0.0
H531 H 0.5705 0.39848 0.94889 0.0
H532 H 0.53772 0.36185 0.966 0.0
H533 H 0.56374 0.6461 0.04717 0.0
H534 H 0.43563 0.60768 0.09006 0.0
N535 N 0.54266 0.55683 0.06086 0.0
C536 C 0.58307 0.59542 0.052 0.0
C537 C 0.58945 0.56824 0.05692 0.0
C538 C 0.55617 0.60328 0.05354 0.0
C539 C 0.53618 0.58326 0.0585 0.0
C540 C 0.5689 0.54915 0.06194 0.0
N541 N 0.49118 0.57042 0.07133 0.0
C542 C 0.50955 0.59029 0.06384 0.0
C543 C 0.45647 0.60307 0.08249 0.0
C544 C 0.47496 0.62374 0.07273 0.0
C545 C 0.46504 0.57638 0.08235 0.0
C546 C 0.50196 0.61751 0.06402 0.0
H547 H 0.4683 0.64441 0.07307 0.0
O548 O 0.48885 0.52578 0.13717 0.0
O549 O 0.4883 0.48843 0.04431 0.0
O550 O 0.46692 0.51232 0.97421 0.0
O551 O 0.48559 0.54824 1.01078 0.0
O552 O 0.4644 0.51164 0.08583 0.0
O553 O 0.53117 0.51762 0.12713 0.0
O554 O 0.51752 0.48038 0.90204 0.0
O555 O 0.51815 0.51783 0.99503 0.0
O556 O 0.53961 0.4942 0.06484 0.0
O557 O 0.52112 0.45818 0.02826 0.0
O558 O 0.54199 0.49485 0.95311 0.0
O559 O 0.47529 0.48894 0.91214 0.0
C560 C 0.46545 0.48958 0.06435 0.0
C561 C 0.52162 0.63755 0.05678 0.0
C562 C 0.54869 0.63044 0.05156 0.0
C563 C 0.51152 0.52142 0.157 0.0
C564 C 0.51732 0.53863 0.19554 0.0
C565 C 0.52581 0.56519 0.18683 0.0
C566 C 0.51437 0.52852 0.24145 0.0
C567 C 0.52009 0.54485 0.2785 0.0
C568 C 0.53134 0.58149 0.22317 0.0
C569 C 0.52852 0.57148 0.26862 0.0
C570 C 0.4679 0.53816 0.98335 0.0
C571 C 0.54096 0.51685 0.97481 0.0
C572 C 0.49488 0.48497 0.88224 0.0
C573 C 0.48887 0.46786 0.84367 0.0
C574 C 0.4804 0.44129 0.85232 0.0
C575 C 0.49159 0.47809 0.79781 0.0
C576 C 0.48566 0.46187 0.76073 0.0
C577 C 0.47466 0.4251 0.81594 0.0
C578 C 0.47724 0.43523 0.77053 0.0
C579 C 0.53882 0.46837 0.05556 0.0
H580 H 0.52818 0.57335 0.15198 0.0
H581 H 0.508 0.50791 0.24819 0.0
H582 H 0.53778 0.60202 0.21608 0.0
H583 H 0.53262 0.58475 0.29611 0.0
H584 H 0.47822 0.43304 0.88713 0.0
H585 H 0.49795 0.49871 0.79114 0.0
H586 H 0.46822 0.40456 0.82297 0.0
H587 H 0.47298 0.42204 0.74301 0.0
Gd588 Gd 0.99356 0.52298 0.47546 0.0
Gd589 Gd 0.00893 0.4803 0.57998 0.0
C590 C 0.06851 0.41087 0.57575 0.0
C591 C 0.03945 0.37221 0.59137 0.0
C592 C 0.02082 0.41725 0.58904 0.0
C593 C 0.046 0.42787 0.57892 0.0
C594 C 0.01731 0.38935 0.59647 0.0
C595 C 0.06501 0.38295 0.58097 0.0
C596 C 0.09391 0.42248 0.56846 0.0
C597 C 0.09643 0.45038 0.56606 0.0
N598 N 0.04865 0.45494 0.57451 0.0
C599 C 0.07352 0.4664 0.56983 0.0
H600 H 0.07587 0.4879 0.56785 0.0
C601 C 0.97535 0.42519 0.6097 0.0
N602 N 0.99996 0.43439 0.59408 0.0
C603 C 0.97081 0.39766 0.61734 0.0
C604 C 0.9918 0.37962 0.61011 0.0
H605 H 0.95905 0.43909 0.61506 0.0
H606 H 0.08202 0.36956 0.57815 0.0
H607 H 0.92665 0.51534 0.48554 0.0
H608 H 0.11169 0.41013 0.56556 0.0
H609 H 0.11602 0.45958 0.56119 0.0
H610 H 0.03712 0.35068 0.59648 0.0
H611 H 0.04286 0.56429 0.43816 0.0
H612 H 0.89083 0.59301 0.49212 0.0
H613 H 0.88643 0.54359 0.49298 0.0
H614 H 0.96534 0.65267 0.46281 0.0
H615 H 0.95114 0.39039 0.62869 0.0
H616 H 0.98827 0.35831 0.61617 0.0
H617 H 0.92056 0.63368 0.48179 0.0
H618 H 0.05063 0.61304 0.42477 0.0
N619 N 0.95387 0.54831 0.48172 0.0
C620 C 0.90862 0.5807 0.48881 0.0
C621 C 0.90605 0.55282 0.48918 0.0
C622 C 0.93405 0.59236 0.48252 0.0
C623 C 0.95654 0.5754 0.47865 0.0
C624 C 0.92898 0.53684 0.48497 0.0
N625 N 1.00237 0.56894 0.46167 0.0
C626 C 0.98164 0.58607 0.46813 0.0
C627 C 0.03117 0.60574 0.43723 0.0
C628 C 0.01038 0.62378 0.44617 0.0
C629 C 0.02671 0.57818 0.44473 0.0
C630 C 0.9851 0.61401 0.46109 0.0
H631 H 0.01386 0.6451 0.44025 0.0
O632 O 0.0097 0.52327 0.40482 0.0
O633 O 0.01702 0.4892 0.50512 0.0
O634 O 0.03659 0.51605 0.56801 0.0
O635 O 0.01389 0.5489 0.52517 0.0
O636 O 0.03678 0.51333 0.45585 0.0
O637 O 0.96876 0.51066 0.42021 0.0
O638 O 0.99256 0.48046 0.65046 0.0
O639 O 0.98554 0.51396 0.55009 0.0
O640 O 0.96611 0.48677 0.48662 0.0
O641 O 0.98913 0.45444 0.53016 0.0
O642 O 0.96558 0.48995 0.59919 0.0
O643 O 0.03363 0.49268 0.63528 0.0
C644 C 0.03883 0.4921 0.48223 0.0
C645 C 0.96305 0.63112 0.4675 0.0
C646 C 0.93755 0.62031 0.47829 0.0
C647 C 0.98703 0.51624 0.38798 0.0
C648 C 0.97825 0.5323 0.34757 0.0
C649 C 0.96466 0.55658 0.35344 0.0
C650 C 0.98341 0.52337 0.30274 0.0
C651 C 0.97484 0.53856 0.26394 0.0
C652 C 0.95633 0.5718 0.31533 0.0
C653 C 0.96134 0.56292 0.27093 0.0
C654 C 0.03207 0.54138 0.55506 0.0
C655 C 0.96362 0.51106 0.57251 0.0
C656 C 0.01522 0.48744 0.66742 0.0
C657 C 0.02375 0.47156 0.7082 0.0
C658 C 0.03708 0.44709 0.70291 0.0
C659 C 0.01867 0.48087 0.7528 0.0
C660 C 0.02708 0.46587 0.79191 0.0
C661 C 0.04521 0.43204 0.74133 0.0
C662 C 0.04028 0.44129 0.7855 0.0
C663 C 0.97082 0.46156 0.50034 0.0
H664 H 0.96041 0.56378 0.38742 0.0
H665 H 0.9937 0.50447 0.29819 0.0
H666 H 0.94595 0.59058 0.32023 0.0
H667 H 0.95491 0.57534 0.24198 0.0
H668 H 0.04129 0.43962 0.66914 0.0
H669 H 0.00859 0.49992 0.75692 0.0
H670 H 0.05539 0.41311 0.73686 0.0
H671 H 0.04657 0.42901 0.81472 0.0
C672 C 0.05006 0.06665 0.45571 0.0
C673 C 0.05928 0.04032 0.46421 0.0
C674 C 0.06788 0.0871 0.43925 0.0
C675 C 0.13393 0.09624 0.37635 0.0
H676 H 0.13225 0.16826 0.42169 0.0
C677 C 0.22164 0.16996 0.33698 0.0
C678 C 0.21627 0.19722 0.32755 0.0
C679 C 0.20115 0.15215 0.35208 0.0
C680 C 0.1328 0.14836 0.40814 0.0
H681 H 0.09419 0.01473 0.46101 0.0
H682 H 0.12515 0.05006 0.433 0.0
H683 H 0.09916 0.13497 0.45158 0.0
H684 H 0.18528 0.22753 0.32926 0.0
H685 H 0.14915 0.19632 0.35528 0.0
H686 H 0.16742 0.10934 0.33306 0.0
C687 C 0.10426 0.05515 0.43889 0.0
C688 C 0.1138 0.12921 0.42537 0.0
C689 C 0.08654 0.03487 0.45534 0.0
C690 C 0.18991 0.20648 0.33505 0.0
C691 C 0.16929 0.18861 0.35053 0.0
C692 C 0.1528 0.11529 0.35916 0.0
C693 C 0.09523 0.08155 0.43006 0.0
C694 C 0.11436 0.10271 0.41025 0.0
C695 C 0.17458 0.16108 0.359 0.0
C696 C 0.1529 0.14154 0.37527 0.0
H697 H 0.02901 0.07133 0.46095 0.0
H698 H 0.06007 0.10707 0.43255 0.0
H699 H 0.13469 0.07632 0.36286 0.0
H700 H 0.24185 0.16233 0.33253 0.0
H701 H 0.2063 0.13134 0.35915 0.0
C702 C 0.08199 0.96145 0.59639 0.0
C703 C 0.05857 0.95101 0.57849 0.0
C704 C 0.10138 0.94433 0.61484 0.0
C705 C 0.12393 0.87309 0.61606 0.0
H706 H 0.16534 0.89495 0.71854 0.0
C707 C 0.19685 0.8019 0.711 0.0
C708 C 0.2226 0.81226 0.71697 0.0
C709 C 0.1762 0.81871 0.69632 0.0
C710 C 0.15399 0.88868 0.68978 0.0
H711 H 0.03683 0.91435 0.56713 0.0
H712 H 0.0702 0.88455 0.60036 0.0
H713 H 0.13006 0.92424 0.68947 0.0
H714 H 0.24731 0.84795 0.7107 0.0
H715 H 0.21096 0.87764 0.68579 0.0
H716 H 0.14764 0.83728 0.61718 0.0
C717 C 0.07406 0.90594 0.59902 0.0
C718 C 0.13384 0.90548 0.6729 0.0
C719 C 0.0548 0.92306 0.5801 0.0
C720 C 0.22747 0.83965 0.7072 0.0
C721 C 0.2067 0.85658 0.69313 0.0
C722 C 0.14383 0.85617 0.63334 0.0
C723 C 0.09772 0.91631 0.61643 0.0
C724 C 0.11865 0.89804 0.63552 0.0
C725 C 0.18091 0.84622 0.68723 0.0
C726 C 0.1592 0.86387 0.67011 0.0
H727 H 0.08562 0.98287 0.59546 0.0
H728 H 0.11949 0.95313 0.62706 0.0
H729 H 0.1131 0.8668 0.58675 0.0
H730 H 0.19272 0.78074 0.71683 0.0
H731 H 0.15652 0.8102 0.69209 0.0
C732 C 0.34177 0.79332 0.81805 0.0
C733 C 0.3146 0.79913 0.82744 0.0
C734 C 0.36172 0.80691 0.83981 0.0
C735 C 0.37606 0.84479 0.93992 0.0
H736 H 0.42527 0.88592 0.85809 0.0
C737 C 0.43633 0.94659 0.95077 0.0
C738 C 0.45737 0.941 0.98046 0.0
C739 C 0.42157 0.92577 0.93385 0.0
C740 C 0.41189 0.87416 0.88116 0.0
H741 H 0.28702 0.82292 0.86851 0.0
H742 H 0.32211 0.84644 0.90702 0.0
H743 H 0.39406 0.85445 0.82589 0.0
H744 H 0.47973 0.90916 1.01488 0.0
H745 H 0.45275 0.87278 0.98685 0.0
H746 H 0.39362 0.86511 0.99508 0.0
C747 C 0.32775 0.83143 0.88254 0.0
C748 C 0.3942 0.85623 0.86292 0.0
C749 C 0.30776 0.81814 0.86024 0.0
C750 C 0.46323 0.91417 0.99307 0.0
C751 C 0.44805 0.89336 0.97682 0.0
C752 C 0.39411 0.86241 0.95825 0.0
C753 C 0.35481 0.82609 0.87201 0.0
C754 C 0.37573 0.84201 0.8921 0.0
C755 C 0.42737 0.89915 0.94685 0.0
C756 C 0.41155 0.87763 0.92874 0.0
H757 H 0.34775 0.77828 0.79394 0.0
H758 H 0.38255 0.80249 0.83147 0.0
H759 H 0.36194 0.83385 0.96284 0.0
H760 H 0.43131 0.96698 0.94019 0.0
H761 H 0.40549 0.93044 0.91081 0.0
C762 C 0.42219 0.03077 0.09266 0.0
C763 C 0.44866 0.03667 0.07775 0.0
C764 C 0.40497 0.05124 0.10675 0.0
C765 C 0.40435 0.1161 0.15875 0.0
H766 H 0.334 0.12487 0.10807 0.0
C767 C 0.33458 0.20301 0.21145 0.0
C768 C 0.30685 0.19808 0.21476 0.0
C769 C 0.35213 0.1841 0.19281 0.0
C770 C 0.35339 0.1225 0.1232 0.0
H771 H 0.47853 0.06816 0.06868 0.0
H772 H 0.44854 0.10393 0.09406 0.0
H773 H 0.36403 0.09016 0.07955 0.0
H774 H 0.27582 0.16929 0.20151 0.0
H775 H 0.30633 0.13595 0.17067 0.0
H776 H 0.39362 0.14754 0.20368 0.0
C777 C 0.44092 0.0836 0.09368 0.0
C778 C 0.37063 0.1027 0.10656 0.0
C779 C 0.45798 0.06321 0.0788 0.0
C780 C 0.29705 0.17381 0.19911 0.0
C781 C 0.31461 0.15472 0.18108 0.0
C782 C 0.38697 0.13561 0.17596 0.0
C783 C 0.41423 0.07782 0.10762 0.0
C784 C 0.39623 0.09929 0.12425 0.0
C785 C 0.34243 0.15959 0.17754 0.0
C786 C 0.36119 0.13908 0.15852 0.0
H787 H 0.41476 0.01035 0.09296 0.0
H788 H 0.38458 0.04621 0.11788 0.0
H789 H 0.42391 0.11368 0.1733 0.0
H790 H 0.34276 0.22166 0.22277 0.0
H791 H 0.37328 0.18891 0.18994 0.0
C792 C 0.91909 0.97294 0.58732 0.0
C793 C 0.94633 0.96743 0.57837 0.0
C794 C 0.90132 0.95268 0.60367 0.0
C795 C 0.89149 0.8787 0.61611 0.0
H796 H 0.83827 0.89816 0.70939 0.0
C797 C 0.81538 0.80103 0.70472 0.0
C798 C 0.7891 0.8103 0.71309 0.0
C799 C 0.836 0.81899 0.68968 0.0
C800 C 0.85276 0.89234 0.68301 0.0
H801 H 0.97652 0.93633 0.58143 0.0
H802 H 0.94536 0.90062 0.60956 0.0
H803 H 0.87105 0.93124 0.67988 0.0
H804 H 0.76364 0.84533 0.71006 0.0
H805 H 0.7992 0.8765 0.68417 0.0
H806 H 0.87285 0.83976 0.61908 0.0
C807 C 0.93762 0.92063 0.60303 0.0
C808 C 0.87166 0.91141 0.66601 0.0
C809 C 0.95549 0.94106 0.58671 0.0
C810 C 0.78381 0.8377 0.705 0.0
C811 C 0.80431 0.8556 0.6903 0.0
C812 C 0.87243 0.85955 0.6331 0.0
C813 C 0.91028 0.92623 0.61225 0.0
C814 C 0.8911 0.90507 0.63181 0.0
C815 C 0.8308 0.84663 0.68244 0.0
C816 C 0.85248 0.86621 0.66634 0.0
H817 H 0.9115 0.99312 0.58179 0.0
H818 H 0.88044 0.95781 0.60964 0.0
H819 H 0.90602 0.87306 0.58965 0.0
H820 H 0.81993 0.77989 0.70936 0.0
H821 H 0.85607 0.81124 0.68422 0.0
C822 C 0.92342 0.04605 0.4469 0.0
C823 C 0.94693 0.05653 0.46439 0.0
C824 C 0.90392 0.06312 0.42868 0.0
C825 C 0.88144 0.13441 0.42735 0.0
H826 H 0.83964 0.11251 0.32537 0.0
C827 C 0.80956 0.20607 0.33145 0.0
C828 C 0.78362 0.19615 0.32556 0.0
C829 C 0.82989 0.18897 0.34643 0.0
C830 C 0.85109 0.11879 0.35402 0.0
H831 H 0.96873 0.09322 0.47528 0.0
H832 H 0.93518 0.12295 0.44242 0.0
H833 H 0.87481 0.08308 0.35445 0.0
H834 H 0.75828 0.16092 0.33241 0.0
H835 H 0.79411 0.1307 0.35788 0.0
H836 H 0.85798 0.17038 0.42604 0.0
C837 C 0.93133 0.10156 0.44392 0.0
C838 C 0.87118 0.1019 0.37089 0.0
C839 C 0.95068 0.08448 0.46262 0.0
C840 C 0.77827 0.16889 0.3358 0.0
C841 C 0.79873 0.15166 0.3502 0.0
C842 C 0.86161 0.1514 0.41006 0.0
C843 C 0.90757 0.09115 0.42692 0.0
C844 C 0.88655 0.1094 0.40802 0.0
C845 C 0.8247 0.1616 0.35598 0.0
C846 C 0.84613 0.1437 0.37343 0.0
H847 H 0.91979 0.02463 0.44799 0.0
H848 H 0.88575 0.05429 0.41677 0.0
H849 H 0.89239 0.14073 0.45651 0.0
H850 H 0.81409 0.22712 0.3254 0.0
H851 H 0.84972 0.19717 0.35057 0.0
C852 C 0.69304 0.20975 0.16817 0.0
C853 C 0.69268 0.20895 0.21641 0.0
C854 C 0.67326 0.19658 0.14525 0.0
C855 C 0.60679 0.16404 0.16269 0.0
H856 H 0.63168 0.12215 0.05994 0.0
C857 C 0.55367 0.07045 0.10352 0.0
C858 C 0.55088 0.06817 0.05606 0.0
C859 C 0.56838 0.09153 0.1198 0.0
C860 C 0.62439 0.13412 0.08805 0.0
H861 H 0.67206 0.19384 0.27884 0.0
H862 H 0.63773 0.17008 0.23903 0.0
H863 H 0.66263 0.15219 0.09506 0.0
H864 H 0.56152 0.08526 0.98827 0.0
H865 H 0.58751 0.12229 1.01671 0.0
H866 H 0.56885 0.14467 0.15689 0.0
C867 C 0.65268 0.18157 0.21876 0.0
C868 C 0.64204 0.15136 0.10811 0.0
C869 C 0.67231 0.19506 0.24163 0.0
C870 C 0.56297 0.08708 0.02498 0.0
C871 C 0.57795 0.10803 0.0412 0.0
C872 C 0.58921 0.14655 0.14289 0.0
C873 C 0.65308 0.18208 0.17032 0.0
C874 C 0.63355 0.16609 0.14618 0.0
C875 C 0.58074 0.11035 0.08872 0.0
C876 C 0.59808 0.13115 0.10601 0.0
H877 H 0.70844 0.22083 0.1482 0.0
H878 H 0.67384 0.19768 0.10793 0.0
H879 H 0.59958 0.17554 0.19144 0.0
H880 H 0.5443 0.05605 0.12801 0.0
H881 H 0.57065 0.09275 0.15659 0.0
C882 C 0.67204 0.80624 0.82903 0.0
C883 C 0.69991 0.81042 0.8253 0.0
C884 C 0.6551 0.82581 0.84736 0.0
C885 C 0.62839 0.86516 0.91497 0.0
H886 H 0.63448 0.93771 0.86256 0.0
C887 C 0.58597 0.98005 0.94654 0.0
C888 C 0.55948 0.97372 0.96062 0.0
C889 C 0.60363 0.95993 0.93251 0.0
C890 C 0.63276 0.91773 0.87834 0.0
H891 H 0.73179 0.83853 0.8376 0.0
H892 H 0.70213 0.87286 0.86861 0.0
H893 H 0.66436 0.90296 0.8343 0.0
H894 H 0.53009 0.94176 0.9681 0.0
H895 H 0.56046 0.90678 0.94266 0.0
H896 H 0.5974 0.87991 0.96004 0.0
C897 C 0.69347 0.85434 0.8577 0.0
C898 C 0.64982 0.89777 0.86182 0.0
C899 C 0.71044 0.83461 0.84014 0.0
C900 C 0.55067 0.94706 0.95904 0.0
C901 C 0.56818 0.92698 0.9444 0.0
C902 C 0.61161 0.88523 0.93213 0.0
C903 C 0.66565 0.85013 0.86158 0.0
C904 C 0.6477 0.87127 0.87974 0.0
C905 C 0.59494 0.9331 0.93085 0.0
C906 C 0.61342 0.91179 0.91381 0.0
H907 H 0.6633 0.78777 0.81806 0.0
H908 H 0.63369 0.82213 0.8497 0.0
H909 H 0.62655 0.84493 0.92974 0.0
H910 H 0.59309 1.00056 0.9469 0.0
H911 H 0.62413 0.96547 0.92311 0.0
C912 C 0.55022 0.56592 0.95384 0.0
C913 C 0.55948 0.53956 0.96186 0.0
C914 C 0.56796 0.58642 0.93738 0.0
C915 C 0.63365 0.59601 0.87361 0.0
H916 H 0.6323 0.66756 0.92096 0.0
C917 C 0.72111 0.67019 0.83454 0.0
C918 C 0.71569 0.69758 0.82668 0.0
C919 C 0.7007 0.65216 0.84914 0.0
C920 C 0.63276 0.6478 0.90682 0.0
H921 H 0.59435 0.51396 0.95767 0.0
H922 H 0.62519 0.5494 0.92959 0.0
H923 H 0.5994 0.63405 0.95057 0.0
H924 H 0.68473 0.72784 0.83068 0.0
H925 H 0.64874 0.69627 0.85569 0.0
H926 H 0.66684 0.60949 0.82996 0.0
C927 C 0.60433 0.55447 0.93593 0.0
C928 C 0.61385 0.62853 0.92391 0.0
C929 C 0.58668 0.53413 0.95241 0.0
C930 C 0.68937 0.70671 0.83514 0.0
C931 C 0.66884 0.68862 0.8501 0.0
C932 C 0.65241 0.6152 0.85652 0.0
C933 C 0.59527 0.58091 0.9277 0.0
C934 C 0.6143 0.60219 0.90806 0.0
C935 C 0.67418 0.66099 0.85716 0.0
C936 C 0.65263 0.64129 0.87333 0.0
H937 H 0.5292 0.57059 0.95948 0.0
H938 H 0.56013 0.60643 0.93113 0.0
H939 H 0.6343 0.57622 0.85961 0.0
H940 H 0.74131 0.66266 0.82939 0.0
H941 H 0.70591 0.63127 0.85512 0.0
C942 C 0.6961 0.30079 0.20983 0.0
C943 C 0.72218 0.31042 0.21514 0.0
C944 C 0.67594 0.31806 0.19455 0.0
C945 C 0.66647 0.38401 0.13267 0.0
H946 H 0.59277 0.37476 0.17747 0.0
C947 C 0.55534 0.42229 0.07803 0.0
C948 C 0.55927 0.45026 0.0755 0.0
C949 C 0.57478 0.40526 0.09669 0.0
C950 C 0.61326 0.37744 0.1645 0.0
H951 H 0.74798 0.34525 0.20736 0.0
H952 H 0.71268 0.37579 0.18232 0.0
H953 H 0.62761 0.34561 0.2086 0.0
H954 H 0.58675 0.48218 0.09054 0.0
H955 H 0.62079 0.45241 0.12228 0.0
H956 H 0.65208 0.41631 0.08949 0.0
C957 C 0.70768 0.35487 0.18937 0.0
C958 C 0.63324 0.36069 0.18216 0.0
C959 C 0.72789 0.33749 0.20411 0.0
C960 C 0.58304 0.46077 0.09201 0.0
C961 C 0.60262 0.44373 0.11001 0.0
C962 C 0.64656 0.40098 0.11559 0.0
C963 C 0.68144 0.34537 0.18402 0.0
C964 C 0.66014 0.36365 0.1663 0.0
C965 C 0.5987 0.41581 0.11257 0.0
C966 C 0.61974 0.39781 0.13115 0.0
H967 H 0.69136 0.27981 0.21661 0.0
H968 H 0.65621 0.3098 0.18998 0.0
H969 H 0.68676 0.38661 0.11879 0.0
H970 H 0.53718 0.41355 0.06585 0.0
H971 H 0.57132 0.38379 0.09799 0.0
C972 C 0.96014 0.41312 0.49249 0.0
C973 C 0.95509 0.44023 0.48066 0.0
C974 C 0.94543 0.39291 0.47347 0.0
C975 C 0.90922 0.37649 0.37422 0.0
H976 H 0.86312 0.33166 0.45572 0.0
C977 C 0.84105 0.29243 0.3131 0.0
C978 C 0.81387 0.29764 0.3236 0.0
C979 C 0.86101 0.30689 0.33332 0.0
C980 C 0.87619 0.34387 0.43282 0.0
H981 H 0.93118 0.46734 0.43854 0.0
H982 H 0.90602 0.43179 0.40445 0.0
H983 H 0.8943 0.36312 0.48847 0.0
H984 H 0.78634 0.32133 0.36503 0.0
H985 H 0.82141 0.34609 0.40114 0.0
H986 H 0.89083 0.35756 0.31856 0.0
C987 C 0.92118 0.42644 0.42892 0.0
C988 C 0.89394 0.36165 0.4514 0.0
C989 C 0.93548 0.44669 0.44861 0.0
C990 C 0.80706 0.31695 0.3559 0.0
C991 C 0.82705 0.33101 0.37677 0.0
C992 C 0.89184 0.35835 0.35567 0.0
C993 C 0.926 0.39952 0.44148 0.0
C994 C 0.91 0.37848 0.42211 0.0
C995 C 0.85406 0.32621 0.36522 0.0
C996 C 0.8748 0.34247 0.3849 0.0
H997 H 0.97557 0.40741 0.5161 0.0
H998 H 0.94941 0.37214 0.48327 0.0
H999 H 0.9216 0.38938 0.35129 0.0
H1000 H 0.847 0.27716 0.28943 0.0
H1001 H 0.88185 0.30293 0.32428 0.0
C1002 C 0.83265 0.70141 0.71208 0.0
C1003 C 0.80473 0.69744 0.71513 0.0
C1004 C 0.84958 0.68169 0.69424 0.0
C1005 C 0.85408 0.60957 0.67963 0.0
H1006 H 0.90872 0.62714 0.5849 0.0
C1007 C 0.91811 0.52695 0.59627 0.0
C1008 C 0.94498 0.53287 0.58432 0.0
C1009 C 0.90057 0.54725 0.60996 0.0
C1010 C 0.89385 0.6219 0.61185 0.0
H1011 H 0.77277 0.66962 0.70192 0.0
H1012 H 0.80239 0.63507 0.67162 0.0
H1013 H 0.87945 0.6624 0.61391 0.0
H1014 H 0.97514 0.56417 0.58035 0.0
H1015 H 0.9449 0.59947 0.60512 0.0
H1016 H 0.86884 0.56939 0.67909 0.0
C1017 C 0.8111 0.6535 0.6828 0.0
C1018 C 0.87702 0.64212 0.62827 0.0
C1019 C 0.79414 0.67336 0.69994 0.0
C1020 C 0.95429 0.55923 0.58779 0.0
C1021 C 0.93687 0.57949 0.60202 0.0
C1022 C 0.87115 0.58945 0.6638 0.0
C1023 C 0.83898 0.65746 0.67975 0.0
C1024 C 0.85693 0.63613 0.66225 0.0
C1025 C 0.90973 0.5738 0.61331 0.0
C1026 C 0.89128 0.59529 0.62962 0.0
H1027 H 0.84143 0.7198 0.72329 0.0
H1028 H 0.87102 0.68519 0.69256 0.0
H1029 H 0.83896 0.60446 0.70623 0.0
H1030 H 0.9106 0.50665 0.59445 0.0
H1031 H 0.87978 0.54207 0.61768 0.0
C1032 C 0.2844 0.33728 0.20469 0.0
C1033 C 0.28975 0.30991 0.21301 0.0
C1034 C 0.30488 0.35519 0.18991 0.0
C1035 C 0.37293 0.35916 0.13258 0.0
H1036 H 0.37165 0.43084 0.17939 0.0
C1037 C 0.45593 0.44056 0.08545 0.0
C1038 C 0.44681 0.46697 0.07735 0.0
C1039 C 0.43807 0.42017 0.10193 0.0
C1040 C 0.37223 0.41102 0.16549 0.0
H1041 H 0.32063 0.27954 0.20943 0.0
H1042 H 0.35671 0.3109 0.18411 0.0
H1043 H 0.33889 0.39778 0.20902 0.0
H1044 H 0.41207 0.49276 0.08136 0.0
H1045 H 0.38103 0.4575 0.10944 0.0
H1046 H 0.40643 0.37266 0.08893 0.0
C1047 C 0.33663 0.31863 0.18954 0.0
C1048 C 0.35334 0.39195 0.18257 0.0
C1049 C 0.31604 0.30067 0.20468 0.0
C1050 C 0.41963 0.47255 0.08671 0.0
C1051 C 0.40187 0.45232 0.10319 0.0
C1052 C 0.39195 0.37831 0.11548 0.0
C1053 C 0.33138 0.34625 0.18213 0.0
C1054 C 0.35303 0.36583 0.16591 0.0
C1055 C 0.41078 0.42583 0.11153 0.0
C1056 C 0.39161 0.40468 0.13118 0.0
H1057 H 0.26422 0.34488 0.20969 0.0
H1058 H 0.29975 0.37607 0.18365 0.0
H1059 H 0.37332 0.33937 0.11857 0.0
H1060 H 0.47692 0.43578 0.07986 0.0
H1061 H 0.44578 0.40013 0.10826 0.0
C1062 C 0.452 0.58443 0.96122 0.0
C1063 C 0.44785 0.55653 0.96289 0.0
C1064 C 0.43298 0.6018 0.94227 0.0
C1065 C 0.37326 0.60314 0.86829 0.0
H1066 H 0.36049 0.67153 0.924 0.0
C1067 C 0.28083 0.67068 0.83361 0.0
C1068 C 0.2861 0.69806 0.82446 0.0
C1069 C 0.30131 0.65333 0.84742 0.0
C1070 C 0.36402 0.65259 0.90782 0.0
H1071 H 0.42037 0.52503 0.946 0.0
H1072 H 0.38689 0.55523 0.91431 0.0
H1073 H 0.39447 0.64143 0.95461 0.0
H1074 H 0.31648 0.72906 0.82536 0.0
H1075 H 0.3522 0.69887 0.84948 0.0
H1076 H 0.34204 0.61423 0.82242 0.0
C1077 C 0.40512 0.56378 0.92653 0.0
C1078 C 0.3836 0.63533 0.92522 0.0
C1079 C 0.42429 0.5464 0.94503 0.0
C1080 C 0.31202 0.70794 0.83061 0.0
C1081 C 0.3324 0.6907 0.845 0.0
C1082 C 0.35343 0.62029 0.85128 0.0
C1083 C 0.40917 0.59175 0.92489 0.0
C1084 C 0.38851 0.61032 0.90575 0.0
C1085 C 0.32725 0.66323 0.85366 0.0
C1086 C 0.34861 0.64518 0.87091 0.0
H1087 H 0.4701 0.5929 0.97414 0.0
H1088 H 0.43713 0.62313 0.94088 0.0
H1089 H 0.37676 0.58433 0.85175 0.0
H1090 H 0.26085 0.66274 0.82999 0.0
H1091 H 0.29671 0.63231 0.85443 0.0
C1092 C 0.20398 0.68952 0.68536 0.0
C1093 C 0.19594 0.70824 0.71788 0.0
C1094 C 0.18511 0.67352 0.66567 0.0
C1095 C 0.11222 0.6651 0.65057 0.0
H1096 H 0.1341 0.59164 0.63221 0.0
C1097 C 0.04693 0.58907 0.56007 0.0
C1098 C 0.04872 0.562 0.57481 0.0
C1099 C 0.06375 0.60816 0.57766 0.0
C1100 C 0.12746 0.61196 0.63775 0.0
H1101 H 0.16161 0.72601 0.75307 0.0
H1102 H 0.12883 0.69668 0.7213 0.0
H1103 H 0.1653 0.62258 0.66291 0.0
H1104 H 0.06805 0.53409 0.62242 0.0
H1105 H 0.09592 0.56739 0.65493 0.0
H1106 H 0.07371 0.65381 0.62794 0.0
C1107 C 0.14968 0.69472 0.71034 0.0
C1108 C 0.14559 0.62989 0.6545 0.0
C1109 C 0.16855 0.71118 0.72928 0.0
C1110 C 0.0665 0.55465 0.6094 0.0
C1111 C 0.08271 0.57376 0.62786 0.0
C1112 C 0.09381 0.64693 0.63465 0.0
C1113 C 0.15783 0.67548 0.67875 0.0
C1114 C 0.13827 0.65669 0.66083 0.0
C1115 C 0.08209 0.60058 0.6113 0.0
C1116 C 0.10128 0.62015 0.62813 0.0
H1117 H 0.22487 0.68705 0.67508 0.0
H1118 H 0.19198 0.65946 0.64037 0.0
H1119 H 0.10606 0.68571 0.65463 0.0
H1120 H 0.03281 0.59555 0.53466 0.0
H1121 H 0.06277 0.62866 0.56411 0.0
C1122 C 0.20791 0.32523 0.3609 0.0
C1123 C 0.19908 0.30873 0.32636 0.0
C1124 C 0.19064 0.34391 0.38099 0.0
C1125 C 0.11791 0.36436 0.38831 0.0
H1126 H 0.14817 0.42877 0.43547 0.0
C1127 C 0.0494 0.44347 0.47197 0.0
C1128 C 0.0576 0.4704 0.46992 0.0
C1129 C 0.06692 0.42325 0.45792 0.0
C1130 C 0.13917 0.41119 0.42179 0.0
H1131 H 0.16461 0.29842 0.28755 0.0
H1132 H 0.13552 0.33238 0.31868 0.0
H1133 H 0.17756 0.39568 0.40248 0.0
H1134 H 0.08976 0.49761 0.4481 0.0
H1135 H 0.11974 0.46285 0.42065 0.0
H1136 H 0.07946 0.38089 0.40376 0.0
C1137 C 0.15544 0.3305 0.33183 0.0
C1138 C 0.15624 0.3917 0.40363 0.0
C1139 C 0.17245 0.31124 0.3129 0.0
C1140 C 0.08322 0.47688 0.45135 0.0
C1141 C 0.10052 0.45678 0.43603 0.0
C1142 C 0.10082 0.38422 0.40508 0.0
C1143 C 0.16419 0.34718 0.36634 0.0
C1144 C 0.14593 0.3679 0.38654 0.0
C1145 C 0.09275 0.42955 0.43929 0.0
C1146 C 0.11112 0.40802 0.42215 0.0
H1147 H 0.22815 0.32363 0.37287 0.0
H1148 H 0.19816 0.35559 0.40832 0.0
H1149 H 0.1089 0.34621 0.37675 0.0
H1150 H 0.02944 0.43789 0.48441 0.0
H1151 H 0.06004 0.4027 0.46202 0.0
C1152 C 1.0001 0.05384 0.86211 0.0
C1153 C 0.01165 0.0369 0.82928 0.0
C1154 C 0.99753 0.04554 0.90862 0.0
C1155 C 0.99733 0.9853 0.98802 0.0
H1156 H 0.01297 0.03698 0.07962 0.0
C1157 C 0.00548 0.95382 0.18049 0.0
C1158 C 0.99395 0.97076 0.21333 0.0
C1159 C 0.00804 0.96212 0.13398 0.0
C1160 C 0.00823 0.02236 0.05458 0.0
H1161 H 0.02914 0.99765 0.81987 0.0
H1162 H 0.02465 0.98311 0.9011 0.0
H1163 H 0.01606 0.05046 0.99804 0.0
H1164 H 0.97645 0.01001 0.22274 0.0
H1165 H 0.98092 0.02455 0.14151 0.0
H1166 H 0.98951 0.9572 0.04456 0.0
C1167 C 0.01736 1.0028 0.89073 0.0
C1168 C 0.00999 0.03009 1.00769 0.0
C1169 C 0.01992 0.01112 0.84409 0.0
C1170 C 0.98567 0.99654 0.19852 0.0
C1171 C 0.98822 0.00486 0.15187 0.0
C1172 C 0.99557 0.97756 0.03491 0.0
C1173 C 0.00641 0.02003 0.92373 0.0
C1174 C 0.00455 0.01168 0.97373 0.0
C1175 C 0.99916 0.98762 0.11888 0.0
C1176 C 1.00102 0.99597 0.06887 0.0
H1177 H 0.99301 0.07363 0.85185 0.0
H1178 H 0.98845 0.05914 0.93275 0.0
H1179 H 0.9926 0.97067 0.96298 0.0
H1180 H 0.01258 0.93403 0.19074 0.0
H1181 H 0.01712 0.94852 0.10984 0.0
C1182 C 0.304 0.75158 0.42367 0.0
C1183 C 0.28578 0.74221 0.45878 0.0
C1184 C 0.29604 0.75514 0.37822 0.0
C1185 C 0.23635 0.76294 0.30668 0.0
H1186 H 0.28526 0.74057 0.20879 0.0
C1187 C 0.20409 0.75891 0.11827 0.0
C1188 C 0.22242 0.76828 0.08334 0.0
C1189 C 0.21191 0.75527 0.16379 0.0
C1190 C 0.27147 0.7472 0.23563 0.0
H1191 H 0.24469 0.72961 0.47347 0.0
H1192 H 0.23073 0.73584 0.39407 0.0
H1193 H 0.2983 0.73575 0.2887 0.0
H1194 H 0.26357 0.78084 0.06907 0.0
H1195 H 0.27728 0.77446 0.14856 0.0
H1196 H 0.20952 0.77439 0.25359 0.0
C1197 C 0.25118 0.74067 0.40184 0.0
C1198 C 0.27895 0.74444 0.28152 0.0
C1199 C 0.25917 0.73711 0.44741 0.0
C1200 C 0.249 0.77332 0.09497 0.0
C1201 C 0.25685 0.76968 0.1406 0.0
C1202 C 0.22887 0.76569 0.26078 0.0
C1203 C 0.26961 0.74944 0.36655 0.0
C1204 C 0.26151 0.75231 0.31767 0.0
C1205 C 0.23832 0.76087 0.17571 0.0
C1206 C 0.24633 0.75786 0.22462 0.0
H1207 H 0.32452 0.75621 0.43132 0.0
H1208 H 0.31062 0.76249 0.35221 0.0
H1209 H 0.22256 0.76957 0.33352 0.0
H1210 H 0.18358 0.75433 0.11042 0.0
H1211 H 0.19725 0.74791 0.18967 0.0
C1212 C 0.48868 0.05085 0.67315 0.0
C1213 C 0.48242 0.03085 0.70739 0.0
C1214 C 0.49414 0.04416 0.6275 0.0
C1215 C 0.51336 0.98755 0.5542 0.0
H1216 H 0.4837 0.03271 0.457 0.0
C1217 C 0.51691 0.95674 0.3647 0.0
C1218 C 0.52338 0.97671 0.33051 0.0
C1219 C 0.51143 0.96345 0.41034 0.0
C1220 C 0.49238 0.02004 0.48365 0.0
H1221 H 0.47738 0.98802 0.72034 0.0
H1222 H 0.48691 0.97629 0.6406 0.0
H1223 H 0.47582 0.04392 0.53724 0.0
H1224 H 0.52873 0.01952 0.31766 0.0
H1225 H 0.51911 0.03127 0.39737 0.0
H1226 H 0.52989 0.96366 0.5006 0.0
C1227 C 0.48785 0.99718 0.6492 0.0
C1228 C 0.48788 0.02648 0.52974 0.0
C1229 C 0.4824 0.00389 0.69497 0.0
C1230 C 0.52355 0.00366 0.34297 0.0
C1231 C 0.51806 0.01039 0.38873 0.0
C1232 C 0.51784 0.98111 0.50811 0.0
C1233 C 0.4935 0.01727 0.61475 0.0
C1234 C 0.49833 0.01034 0.56565 0.0
C1235 C 0.51223 0.99032 0.42312 0.0
C1236 C 0.5074 0.99725 0.47221 0.0
H1237 H 0.48939 0.07178 0.68165 0.0
H1238 H 0.49898 0.06011 0.60217 0.0
H1239 H 0.52205 0.97489 0.58084 0.0
H1240 H 0.51607 0.93582 0.35619 0.0
H1241 H 0.50646 0.94752 0.43565 0.0
C1242 C 0.2178 0.21847 0.92955 0.0
C1243 C 0.22433 0.23768 0.9615 0.0
C1244 C 0.22579 0.2219 0.88309 0.0
C1245 C 0.27345 0.25888 0.80283 0.0
H1246 H 0.22215 0.24149 0.71147 0.0
C1247 C 0.29255 0.28613 0.60938 0.0
C1248 C 0.28567 0.26697 0.57756 0.0
C1249 C 0.28469 0.2828 0.65594 0.0
C1250 C 0.23684 0.24617 0.73647 0.0
H1251 H 0.24492 0.27538 0.96951 0.0
H1252 H 0.25896 0.28139 0.88828 0.0
H1253 H 0.20999 0.23504 0.79316 0.0
H1254 H 0.26475 0.22942 0.56992 0.0
H1255 H 0.251 0.22357 0.65125 0.0
H1256 H 0.30031 0.26998 0.74612 0.0
C1257 C 0.24777 0.26353 0.89934 0.0
C1258 C 0.22987 0.24246 0.78339 0.0
C1259 C 0.23975 0.26008 0.94595 0.0
C1260 C 0.27015 0.2447 0.59336 0.0
C1261 C 0.2623 0.24134 0.64004 0.0
C1262 C 0.28043 0.26257 0.75589 0.0
C1263 C 0.2406 0.24464 0.8672 0.0
C1264 C 0.24809 0.24872 0.81721 0.0
C1265 C 0.26972 0.26022 0.67204 0.0
C1266 C 0.26221 0.25628 0.72206 0.0
H1267 H 0.20641 0.2007 0.94047 0.0
H1268 H 0.22042 0.20664 0.85959 0.0
H1269 H 0.28812 0.26356 0.82785 0.0
H1270 H 0.30405 0.30379 0.59828 0.0
H1271 H 0.29028 0.29804 0.67932 0.0
C1272 C 0.80358 0.24853 0.92323 0.0
C1273 C 0.785 0.23973 0.95822 0.0
C1274 C 0.79579 0.25244 0.87774 0.0
C1275 C 0.7365 0.26263 0.80602 0.0
H1276 H 0.78437 0.23834 0.70817 0.0
C1277 C 0.70375 0.25983 0.6178 0.0
C1278 C 0.72239 0.26832 0.58272 0.0
C1279 C 0.71153 0.25594 0.66331 0.0
C1280 C 0.77089 0.24552 0.73499 0.0
H1281 H 0.74348 0.22852 0.9726 0.0
H1282 H 0.72984 0.23542 0.89316 0.0
H1283 H 0.7973 0.23302 0.78808 0.0
H1284 H 0.76401 0.27905 0.56816 0.0
H1285 H 0.77763 0.27228 0.64764 0.0
H1286 H 0.7101 0.27518 0.75294 0.0
C1287 C 0.75044 0.23951 0.90106 0.0
C1288 C 0.77831 0.24247 0.78088 0.0
C1289 C 0.75825 0.23558 0.94666 0.0
C1290 C 0.74919 0.27223 0.5942 0.0
C1291 C 0.75699 0.26836 0.63982 0.0
C1292 C 0.72909 0.2657 0.76012 0.0
C1293 C 0.76919 0.24771 0.86591 0.0
C1294 C 0.76122 0.251 0.81702 0.0
C1295 C 0.73818 0.26043 0.67507 0.0
C1296 C 0.74617 0.25717 0.72397 0.0
H1297 H 0.82423 0.25244 0.93101 0.0
H1298 H 0.81064 0.25931 0.85181 0.0
H1299 H 0.72301 0.26979 0.83286 0.0
H1300 H 0.68304 0.25612 0.61008 0.0
H1301 H 0.69662 0.24927 0.68929 0.0
C1302 C 0.71473 0.72011 0.43028 0.0
C1303 C 0.72168 0.73923 0.46214 0.0
C1304 C 0.72284 0.72326 0.38379 0.0
C1305 C 0.77132 0.75931 0.30336 0.0
H1306 H 0.72001 0.74238 0.21176 0.0
C1307 C 0.791 0.78664 0.11003 0.0
C1308 C 0.78396 0.76768 0.07796 0.0
C1309 C 0.78303 0.78326 0.15655 0.0
C1310 C 0.73471 0.74692 0.23681 0.0
H1311 H 0.74311 0.77648 0.46986 0.0
H1312 H 0.75732 0.78201 0.38866 0.0
H1313 H 0.70766 0.73611 0.29341 0.0
H1314 H 0.76259 0.73043 0.06992 0.0
H1315 H 0.74864 0.72449 0.15118 0.0
H1316 H 0.79837 0.77013 0.24676 0.0
C1317 C 0.74573 0.76441 0.39979 0.0
C1318 C 0.72763 0.74331 0.28374 0.0
C1319 C 0.73761 0.76124 0.44642 0.0
C1320 C 0.76814 0.74556 0.09353 0.0
C1321 C 0.76017 0.74216 0.14019 0.0
C1322 C 0.7784 0.76292 0.25643 0.0
C1323 C 0.73818 0.74562 0.36774 0.0
C1324 C 0.74583 0.74945 0.31769 0.0
C1325 C 0.76778 0.76082 0.17244 0.0
C1326 C 0.76019 0.75682 0.22248 0.0
H1327 H 0.70293 0.70262 0.44129 0.0
H1328 H 0.71714 0.70806 0.36041 0.0
H1329 H 0.78601 0.76386 0.32842 0.0
H1330 H 0.80272 0.8042 0.09915 0.0
H1331 H 0.78877 0.79836 0.18008 0.0
C1332 C 0.51042 0.48806 0.69619 0.0
C1333 C 0.48833 0.47225 0.71183 0.0
C1334 C 0.51369 0.49616 0.64953 0.0
C1335 C 0.49259 0.47818 0.53336 0.0
H1336 H 0.51977 0.54886 0.49624 0.0
C1337 C 0.49506 0.51882 0.34294 0.0
C1338 C 0.51721 0.53459 0.32744 0.0
C1339 C 0.49163 0.51082 0.38962 0.0
C1340 C 0.51246 0.52891 0.50594 0.0
H1341 H 0.4517 0.45367 0.69076 0.0
H1342 H 0.45731 0.46782 0.60983 0.0
H1343 H 0.51344 0.53648 0.57791 0.0
H1344 H 0.55376 0.55321 0.34878 0.0
H1345 H 0.54787 0.53921 0.42973 0.0
H1346 H 0.49163 0.4706 0.46139 0.0
C1347 C 0.47249 0.47345 0.63331 0.0
C1348 C 0.50881 0.52181 0.55289 0.0
C1349 C 0.46925 0.46537 0.67984 0.0
C1350 C 0.53617 0.54154 0.3596 0.0
C1351 C 0.53276 0.53354 0.40613 0.0
C1352 C 0.49624 0.48527 0.48641 0.0
C1353 C 0.49492 0.48868 0.61735 0.0
C1354 C 0.49882 0.49635 0.56728 0.0
C1355 C 0.51029 0.51834 0.42195 0.0
C1356 C 0.50626 0.51073 0.47202 0.0
H1357 H 0.52565 0.4935 0.71973 0.0
H1358 H 0.53134 0.50766 0.63849 0.0
H1359 H 0.48528 0.45822 0.54306 0.0
H1360 H 0.47993 0.51333 0.31926 0.0
H1361 H 0.47394 0.49934 0.40054 0.0
C1362 C 0.99738 0.48657 0.85299 0.0
C1363 C 0.02216 0.47541 0.83946 0.0
C1364 C 0.99234 0.49375 0.89865 0.0
C1365 C 0.01567 0.47969 1.017 0.0
H1366 H 0.97562 0.5438 0.04575 0.0
C1367 C 0.00474 0.51845 0.20251 0.0
C1368 C 0.97988 0.52941 0.21615 0.0
C1369 C 0.00986 0.5115 0.15675 0.0
C1370 C 0.98657 0.52564 0.03838 0.0
H1371 H 0.06152 0.46429 0.86297 0.0
H1372 H 0.05282 0.47687 0.94219 0.0
H1373 H 0.98465 0.53321 0.96549 0.0
H1374 H 0.94052 0.54049 0.19264 0.0
H1375 H 0.94937 0.52832 0.11323 0.0
H1376 H 0.01759 0.47212 0.08988 0.0
C1377 C 0.037 0.47949 0.91791 0.0
C1378 C 0.99176 0.51958 0.99228 0.0
C1379 C 0.04201 0.47232 0.87239 0.0
C1380 C 0.96007 0.53261 0.18317 0.0
C1381 C 0.96517 0.52567 0.13754 0.0
C1382 C 0.01049 0.48576 0.06309 0.0
C1383 C 0.01199 0.48998 0.93185 0.0
C1384 C 0.00639 0.49653 0.98095 0.0
C1385 C 0.99022 0.5153 0.12355 0.0
C1386 C 0.99585 0.50881 0.07442 0.0
H1387 H 0.98157 0.48899 0.82864 0.0
H1388 H 0.97277 0.50155 0.90821 0.0
H1389 H 0.02661 0.46152 1.00965 0.0
H1390 H 0.02054 0.51597 0.22686 0.0
H1391 H 0.02947 0.5038 0.14714 0.0
loop_
_geom_bond_atom_site_label_1
_geom_bond_atom_site_label_2
_geom_bond_distance
_geom_bond_site_symmetry_2
_ccdc_geom_bond_type
Gd0 N31 2.657 . S
Gd0 N37 2.601 . S
Gd0 O44 2.547 1_455 S
Gd0 O45 2.607 1_445 S
Gd0 O47 2.432 1_455 S
Gd0 O48 2.547 1_445 S
Gd0 O49 2.411 . S
Gd0 O51 2.360 . S
Gd0 O52 2.321 1_545 S
Gd0 C59 2.829 1_455 S
Gd1 N10 2.657 1_455 S
Gd1 N14 2.601 1_455 S
Gd1 O45 2.360 1_455 S
Gd1 O46 2.321 1_465 S
Gd1 O50 2.547 . S
Gd1 O51 2.607 1_565 S
Gd1 O53 2.432 . S
Gd1 O54 2.547 1_565 S
Gd1 O55 2.411 1_455 S
Gd1 C68 2.829 . S
C2 C5 1.417 . S
C2 C7 1.431 . S
C2 C8 1.412 . S
C3 C6 1.437 . S
C3 C7 1.317 . S
C3 H22 0.929 . S
C4 C5 1.426 . S
C4 C6 1.413 . S
C4 N14 1.359 . S
C5 C2 1.417 . S
C5 C4 1.426 . S
C5 N10 1.350 . S
C6 C3 1.437 . S
C6 C4 1.413 . S
C6 C16 1.420 . S
C7 C2 1.431 . S
C7 C3 1.317 . S
C7 H18 0.930 . S
C8 C2 1.412 . S
C8 C9 1.355 . S
C8 H20 0.930 . S
C9 C8 1.355 . S
C9 C11 1.402 . S
C9 H21 0.930 . S
N10 Gd1 2.657 1_655 S
N10 C5 1.350 . S
N10 C11 1.307 . S
C11 C9 1.402 . S
C11 N10 1.307 . S
C11 H12 0.930 . S
H12 C11 0.930 . S
C13 N14 1.334 1_455 S
C13 C15 1.394 . S
C13 H17 0.930 . S
N14 Gd1 2.601 1_655 S
N14 C4 1.359 . S
N14 C13 1.334 1_655 S
C15 C13 1.394 . S
C15 C16 1.331 1_455 S
C15 H27 0.930 . S
C16 C6 1.420 . S
C16 C15 1.331 1_655 S
C16 H28 0.929 . S
H17 C13 0.930 . S
H18 C7 0.930 . S
H19 C36 0.930 . S
H20 C8 0.930 . S
H21 C9 0.930 . S
H22 C3 0.929 . S
H23 C41 0.930 . S
H24 C32 0.930 . S
H25 C33 0.930 . S
H26 C57 0.929 . S
H27 C15 0.930 . S
H28 C16 0.929 . S
H29 C58 0.930 . S
H30 C39 0.930 . S
N31 Gd0 2.657 . S
N31 C35 1.350 . S
N31 C36 1.307 . S
C32 H24 0.930 . S
C32 C33 1.355 . S
C32 C34 1.412 . S
C33 H25 0.930 . S
C33 C32 1.355 . S
C33 C36 1.402 . S
C34 C32 1.412 . S
C34 C35 1.417 . S
C34 C58 1.431 . S
C35 N31 1.350 . S
C35 C34 1.417 . S
C35 C38 1.426 . S
C36 H19 0.930 . S
C36 N31 1.307 . S
C36 C33 1.402 . S
N37 Gd0 2.601 . S
N37 C38 1.359 . S
N37 C41 1.334 1_455 S
C38 C35 1.426 . S
C38 N37 1.359 . S
C38 C42 1.413 . S
C39 H30 0.930 . S
C39 C40 1.322 1_655 S
C39 C41 1.394 . S
C40 C39 1.322 1_455 S
C40 C42 1.429 . S
C40 H43 0.929 . S
C41 H23 0.930 . S
C41 N37 1.334 1_655 S
C41 C39 1.394 . S
C42 C38 1.413 . S
C42 C40 1.429 . S
C42 C57 1.437 . S
H43 C40 0.929 . S
O44 Gd0 2.547 1_655 S
O44 C59 1.258 . S
O45 Gd0 2.607 1_665 S
O45 Gd1 2.360 1_655 S
O45 C56 1.284 . S
O46 Gd1 2.321 1_645 S
O46 C66 1.254 . S
O47 Gd0 2.432 1_655 S
O47 C66 1.268 . S
O48 Gd0 2.547 1_665 S
O48 C56 1.250 . S
O49 Gd0 2.411 . S
O49 C59 1.252 1_455 S
O50 Gd1 2.547 . S
O50 C68 1.258 . S
O51 Gd0 2.360 . S
O51 Gd1 2.607 1_545 S
O51 C67 1.284 . S
O52 Gd0 2.321 1_565 S
O52 C75 1.254 . S
O53 Gd1 2.432 . S
O53 C75 1.268 . S
O54 Gd1 2.547 1_545 S
O54 C67 1.250 . S
O55 Gd1 2.411 1_655 S
O55 C68 1.252 1_655 S
C56 O45 1.284 . S
C56 O48 1.250 . S
C57 H26 0.929 . S
C57 C42 1.437 . S
C57 C58 1.317 . S
C58 H29 0.930 . S
C58 C34 1.431 . S
C58 C57 1.317 . S
C59 Gd0 2.829 1_655 S
C59 O44 1.258 . S
C59 O49 1.252 1_655 S
C59 C60 1.497 . S
C60 C59 1.497 . S
C60 C61 1.395 . S
C60 C62 1.380 . S
C61 C60 1.395 . S
C61 C64 1.398 . S
C61 H76 0.930 . S
C62 C60 1.380 . S
C62 C63 1.391 . S
C62 H77 0.930 1_645 S
C63 C62 1.391 . S
C63 C65 1.387 . S
C64 C61 1.398 . S
C64 C65 1.380 . S
C64 H78 0.930 . S
C65 C63 1.387 . S
C65 C64 1.380 . S
C65 H79 0.930 . S
C66 O46 1.254 . S
C66 O47 1.268 . S
C67 O51 1.284 . S
C67 O54 1.250 . S
C68 Gd1 2.829 . S
C68 O50 1.258 . S
C68 O55 1.252 1_455 S
C68 C69 1.497 . S
C69 C68 1.497 . S
C69 C70 1.395 . S
C69 C71 1.380 . S
C70 C69 1.395 . S
C70 C73 1.398 . S
C70 H80 0.930 . S
C71 C69 1.380 . S
C71 C72 1.391 . S
C71 H81 0.930 1_465 S
C72 C71 1.391 . S
C72 C74 1.387 . S
C73 C70 1.398 . S
C73 C74 1.380 . S
C73 H82 0.930 . S
C74 C72 1.387 . S
C74 C73 1.380 . S
C74 H83 0.930 . S
C75 O52 1.254 . S
C75 O53 1.268 . S
H76 C61 0.930 . S
H77 C62 0.930 1_465 S
H78 C64 0.930 . S
H79 C65 0.930 . S
H80 C70 0.930 . S
H81 C71 0.930 1_645 S
H82 C73 0.930 . S
H83 C74 0.930 . S
Gd84 N115 2.661 . S
Gd84 N121 2.601 . S
Gd84 O128 2.545 . S
Gd84 O129 2.606 . S
Gd84 O131 2.429 . S
Gd84 O132 2.545 . S
Gd84 O133 2.412 . S
Gd84 O135 2.362 . S
Gd84 O136 2.324 . S
Gd84 C143 2.828 . S
Gd85 N94 2.661 . S
Gd85 N98 2.601 . S
Gd85 O129 2.362 . S
Gd85 O130 2.324 . S
Gd85 O134 2.545 . S
Gd85 O135 2.606 . S
Gd85 O137 2.429 . S
Gd85 O138 2.545 . S
Gd85 O139 2.412 . S
Gd85 C152 2.828 . S
C86 C89 1.417 . S
C86 C91 1.431 . S
C86 C92 1.412 . S
C87 C90 1.437 . S
C87 C91 1.317 . S
C87 H106 0.929 . S
C88 C89 1.426 . S
C88 C90 1.413 . S
C88 N98 1.359 . S
C89 C86 1.417 . S
C89 C88 1.426 . S
C89 N94 1.350 . S
C90 C87 1.437 . S
C90 C88 1.413 . S
C90 C100 1.391 . S
C91 C86 1.431 . S
C91 C87 1.317 . S
C91 H102 0.930 . S
C92 C86 1.412 . S
C92 C93 1.355 . S
C92 H104 0.930 . S
C93 C92 1.355 . S
C93 C95 1.402 . S
C93 H105 0.930 . S
N94 Gd85 2.661 . S
N94 C89 1.350 . S
N94 C95 1.307 . S
C95 C93 1.402 . S
C95 N94 1.307 . S
C95 H96 0.930 . S
H96 C95 0.930 . S
C97 N98 1.334 . S
C97 C99 1.394 . S
C97 H101 0.930 . S
N98 Gd85 2.601 . S
N98 C88 1.359 . S
N98 C97 1.334 . S
C99 C97 1.394 . S
C99 C100 1.359 . S
C99 H111 0.930 . S
C100 C90 1.391 . S
C100 C99 1.359 . S
C100 H112 0.929 . S
H101 C97 0.930 . S
H102 C91 0.930 . S
H103 C120 0.930 . S
H104 C92 0.930 . S
H105 C93 0.930 . S
H106 C87 0.929 . S
H107 C125 0.930 . S
H108 C116 0.930 . S
H109 C117 0.930 . S
H110 C141 0.929 . S
H111 C99 0.930 . S
H112 C100 0.929 . S
H113 C142 0.930 . S
H114 C123 0.930 . S
N115 Gd84 2.661 . S
N115 C119 1.350 . S
N115 C120 1.307 . S
C116 H108 0.930 . S
C116 C117 1.355 . S
C116 C118 1.412 . S
C117 H109 0.930 . S
C117 C116 1.355 . S
C117 C120 1.402 . S
C118 C116 1.412 . S
C118 C119 1.417 . S
C118 C142 1.431 . S
C119 N115 1.350 . S
C119 C118 1.417 . S
C119 C122 1.426 . S
C120 H103 0.930 . S
C120 N115 1.307 . S
C120 C117 1.402 . S
N121 Gd84 2.601 . S
N121 C122 1.359 . S
N121 C125 1.334 . S
C122 C119 1.426 . S
C122 N121 1.359 . S
C122 C126 1.413 . S
C123 H114 0.930 . S
C123 C124 1.359 . S
C123 C125 1.394 . S
C124 C123 1.359 . S
C124 C126 1.391 . S
C124 H127 0.929 . S
C125 H107 0.930 . S
C125 N121 1.334 . S
C125 C123 1.394 . S
C126 C122 1.413 . S
C126 C124 1.391 . S
C126 C141 1.437 . S
H127 C124 0.929 . S
O128 Gd84 2.545 . S
O128 C143 1.258 . S
O129 Gd84 2.606 . S
O129 Gd85 2.362 . S
O129 C140 1.284 . S
O130 Gd85 2.324 . S
O130 C150 1.254 . S
O131 Gd84 2.429 . S
O131 C150 1.268 . S
O132 Gd84 2.545 . S
O132 C140 1.250 . S
O133 Gd84 2.412 . S
O133 C143 1.252 . S
O134 Gd85 2.545 . S
O134 C152 1.258 . S
O135 Gd84 2.362 . S
O135 Gd85 2.606 . S
O135 C151 1.284 . S
O136 Gd84 2.324 . S
O136 C159 1.254 . S
O137 Gd85 2.429 . S
O137 C159 1.268 . S
O138 Gd85 2.545 . S
O138 C151 1.250 . S
O139 Gd85 2.412 . S
O139 C152 1.252 . S
C140 O129 1.284 . S
C140 O132 1.250 . S
C141 H110 0.929 . S
C141 C126 1.437 . S
C141 C142 1.317 . S
C142 H113 0.930 . S
C142 C118 1.431 . S
C142 C141 1.317 . S
C143 Gd84 2.828 . S
C143 O128 1.258 . S
C143 O133 1.252 . S
C143 C144 1.497 . S
C144 C143 1.497 . S
C144 C145 1.395 . S
C144 C146 1.380 . S
C145 C144 1.395 . S
C145 C148 1.398 1_556 S
C145 H160 0.930 . S
C146 C144 1.380 . S
C146 C147 1.391 1_556 S
C146 H161 0.930 . S
C147 C146 1.391 1_554 S
C147 C149 1.387 . S
C148 C145 1.398 1_554 S
C148 C149 1.380 . S
C148 H162 0.930 . S
C149 C147 1.387 . S
C149 C148 1.380 . S
C149 H163 0.930 . S
C150 O130 1.254 . S
C150 O131 1.268 . S
C151 O135 1.284 . S
C151 O138 1.250 . S
C152 Gd85 2.828 . S
C152 O134 1.258 . S
C152 O139 1.252 . S
C152 C153 1.497 . S
C153 C152 1.497 . S
C153 C154 1.395 . S
C153 C155 1.380 . S
C154 C153 1.395 . S
C154 C157 1.398 . S
C154 H164 0.930 . S
C155 C153 1.380 . S
C155 C156 1.391 . S
C155 H165 0.930 . S
C156 C155 1.391 . S
C156 C158 1.387 . S
C157 C154 1.398 . S
C157 C158 1.380 . S
C157 H166 0.930 . S
C158 C156 1.387 . S
C158 C157 1.380 . S
C158 H167 0.930 . S
C159 O136 1.254 . S
C159 O137 1.268 . S
H160 C145 0.930 . S
H161 C146 0.930 . S
H162 C148 0.930 . S
H163 C149 0.930 . S
H164 C154 0.930 . S
H165 C155 0.930 . S
H166 C157 0.930 . S
H167 C158 0.930 . S
Gd168 N199 2.661 . S
Gd168 N205 2.601 . S
Gd168 O212 2.545 . S
Gd168 O213 2.606 1_545 S
Gd168 O215 2.429 . S
Gd168 O216 2.545 1_545 S
Gd168 O217 2.412 . S
Gd168 O219 2.362 1_556 S
Gd168 O220 2.324 1_545 S
Gd168 C227 2.828 . S
Gd169 N178 2.661 . S
Gd169 N182 2.601 . S
Gd169 O213 2.362 1_554 S
Gd169 O214 2.324 1_565 S
Gd169 O218 2.545 . S
Gd169 O219 2.606 1_565 S
Gd169 O221 2.429 . S
Gd169 O222 2.545 1_565 S
Gd169 O223 2.412 . S
Gd169 C236 2.828 . S
C170 C173 1.417 . S
C170 C175 1.431 . S
C170 C176 1.412 . S
C171 C174 1.437 . S
C171 C175 1.317 . S
C171 H190 0.929 . S
C172 C173 1.426 . S
C172 C174 1.413 . S
C172 N182 1.359 . S
C173 C170 1.417 . S
C173 C172 1.426 . S
C173 N178 1.350 . S
C174 C171 1.437 . S
C174 C172 1.413 . S
C174 C184 1.391 . S
C175 C170 1.431 . S
C175 C171 1.317 . S
C175 H186 0.930 . S
C176 C170 1.412 . S
C176 C177 1.355 . S
C176 H188 0.930 . S
C177 C176 1.355 . S
C177 C179 1.402 . S
C177 H189 0.930 . S
N178 Gd169 2.661 . S
N178 C173 1.350 . S
N178 C179 1.307 . S
C179 C177 1.402 . S
C179 N178 1.307 . S
C179 H180 0.930 . S
H180 C179 0.930 . S
C181 N182 1.334 . S
C181 C183 1.394 . S
C181 H185 0.930 . S
N182 Gd169 2.601 . S
N182 C172 1.359 . S
N182 C181 1.334 . S
C183 C181 1.394 . S
C183 C184 1.359 . S
C183 H195 0.930 . S
C184 C174 1.391 . S
C184 C183 1.359 . S
C184 H196 0.929 . S
H185 C181 0.930 . S
H186 C175 0.930 . S
H187 C204 0.930 . S
H188 C176 0.930 . S
H189 C177 0.930 . S
H190 C171 0.929 . S
H191 C209 0.930 . S
H192 C200 0.930 . S
H193 C201 0.930 . S
H194 C225 0.929 . S
H195 C183 0.930 . S
H196 C184 0.929 . S
H197 C226 0.930 . S
H198 C207 0.930 . S
N199 Gd168 2.661 . S
N199 C203 1.350 . S
N199 C204 1.307 . S
C200 H192 0.930 . S
C200 C201 1.355 . S
C200 C202 1.412 . S
C201 H193 0.930 . S
C201 C200 1.355 . S
C201 C204 1.402 . S
C202 C200 1.412 . S
C202 C203 1.417 . S
C202 C226 1.431 . S
C203 N199 1.350 . S
C203 C202 1.417 . S
C203 C206 1.426 . S
C204 H187 0.930 . S
C204 N199 1.307 . S
C204 C201 1.402 . S
N205 Gd168 2.601 . S
N205 C206 1.359 . S
N205 C209 1.334 . S
C206 C203 1.426 . S
C206 N205 1.359 . S
C206 C210 1.413 . S
C207 H198 0.930 . S
C207 C208 1.359 . S
C207 C209 1.394 . S
C208 C207 1.359 . S
C208 C210 1.391 . S
C208 H211 0.929 . S
C209 H191 0.930 . S
C209 N205 1.334 . S
C209 C207 1.394 . S
C210 C206 1.413 . S
C210 C208 1.391 . S
C210 C225 1.437 . S
H211 C208 0.929 . S
O212 Gd168 2.545 . S
O212 C227 1.258 . S
O213 Gd168 2.606 1_565 S
O213 Gd169 2.362 1_556 S
O213 C224 1.284 . S
O214 Gd169 2.324 1_545 S
O214 C234 1.254 . S
O215 Gd168 2.429 . S
O215 C234 1.268 1_556 S
O216 Gd168 2.545 1_565 S
O216 C224 1.250 . S
O217 Gd168 2.412 . S
O217 C227 1.252 . S
O218 Gd169 2.545 . S
O218 C236 1.258 . S
O219 Gd168 2.362 1_554 S
O219 Gd169 2.606 1_545 S
O219 C235 1.284 . S
O220 Gd168 2.324 1_565 S
O220 C243 1.254 . S
O221 Gd169 2.429 . S
O221 C243 1.268 1_554 S
O222 Gd169 2.545 1_545 S
O222 C235 1.250 . S
O223 Gd169 2.412 . S
O223 C236 1.252 . S
C224 O213 1.284 . S
C224 O216 1.250 . S
C225 H194 0.929 . S
C225 C210 1.437 . S
C225 C226 1.317 . S
C226 H197 0.930 . S
C226 C202 1.431 . S
C226 C225 1.317 . S
C227 Gd168 2.828 . S
C227 O212 1.258 . S
C227 O217 1.252 . S
C227 C228 1.497 . S
C228 C227 1.497 . S
C228 C229 1.395 . S
C228 C230 1.380 . S
C229 C228 1.395 . S
C229 C232 1.398 . S
C229 H244 0.930 . S
C230 C228 1.380 . S
C230 C231 1.391 . S
C230 H245 0.930 1_545 S
C231 C230 1.391 . S
C231 C233 1.387 . S
C232 C229 1.398 . S
C232 C233 1.380 . S
C232 H246 0.930 . S
C233 C231 1.387 . S
C233 C232 1.380 . S
C233 H247 0.930 . S
C234 O214 1.254 . S
C234 O215 1.268 1_554 S
C235 O219 1.284 . S
C235 O222 1.250 . S
C236 Gd169 2.828 . S
C236 O218 1.258 . S
C236 O223 1.252 . S
C236 C237 1.497 . S
C237 C236 1.497 . S
C237 C238 1.395 . S
C237 C239 1.380 . S
C238 C237 1.395 . S
C238 C241 1.398 . S
C238 H248 0.930 . S
C239 C237 1.380 . S
C239 C240 1.391 . S
C239 H249 0.930 1_565 S
C240 C239 1.391 . S
C240 C242 1.387 . S
C241 C238 1.398 . S
C241 C242 1.380 . S
C241 H250 0.930 . S
C242 C240 1.387 . S
C242 C241 1.380 . S
C242 H251 0.930 . S
C243 O220 1.254 . S
C243 O221 1.268 1_556 S
H244 C229 0.930 . S
H245 C230 0.930 1_565 S
H246 C232 0.930 . S
H247 C233 0.930 . S
H248 C238 0.930 . S
H249 C239 0.930 1_545 S
H250 C241 0.930 . S
H251 C242 0.930 . S
Gd252 N283 2.661 . S
Gd252 N289 2.601 . S
Gd252 O296 2.545 . S
Gd252 O297 2.606 . S
Gd252 O299 2.429 . S
Gd252 O300 2.545 . S
Gd252 O301 2.412 . S
Gd252 O303 2.362 . S
Gd252 O304 2.324 . S
Gd252 C311 2.828 . S
Gd253 N262 2.661 . S
Gd253 N266 2.601 . S
Gd253 O297 2.362 . S
Gd253 O298 2.324 . S
Gd253 O302 2.545 . S
Gd253 O303 2.606 . S
Gd253 O305 2.429 . S
Gd253 O306 2.545 . S
Gd253 O307 2.412 . S
Gd253 C320 2.828 . S
C254 C257 1.417 . S
C254 C259 1.431 . S
C254 C260 1.412 . S
C255 C258 1.437 . S
C255 C259 1.317 . S
C255 H274 0.929 . S
C256 C257 1.426 . S
C256 C258 1.413 . S
C256 N266 1.359 . S
C257 C254 1.417 . S
C257 C256 1.426 . S
C257 N262 1.350 . S
C258 C255 1.437 . S
C258 C256 1.413 . S
C258 C268 1.391 . S
C259 C254 1.431 . S
C259 C255 1.317 . S
C259 H270 0.930 . S
C260 C254 1.412 . S
C260 C261 1.355 . S
C260 H272 0.930 . S
C261 C260 1.355 . S
C261 C263 1.402 . S
C261 H273 0.930 . S
N262 Gd253 2.661 . S
N262 C257 1.350 . S
N262 C263 1.307 . S
C263 C261 1.402 . S
C263 N262 1.307 . S
C263 H264 0.930 . S
H264 C263 0.930 . S
C265 N266 1.334 . S
C265 C267 1.394 . S
C265 H269 0.930 . S
N266 Gd253 2.601 . S
N266 C256 1.359 . S
N266 C265 1.334 . S
C267 C265 1.394 . S
C267 C268 1.359 . S
C267 H279 0.930 . S
C268 C258 1.391 . S
C268 C267 1.359 . S
C268 H280 0.929 . S
H269 C265 0.930 . S
H270 C259 0.930 . S
H271 C288 0.930 . S
H272 C260 0.930 . S
H273 C261 0.930 . S
H274 C255 0.929 . S
H275 C293 0.930 . S
H276 C284 0.930 . S
H277 C285 0.930 . S
H278 C309 0.929 . S
H279 C267 0.930 . S
H280 C268 0.929 . S
H281 C310 0.930 . S
H282 C291 0.930 . S
N283 Gd252 2.661 . S
N283 C287 1.350 . S
N283 C288 1.307 . S
C284 H276 0.930 . S
C284 C285 1.355 . S
C284 C286 1.412 . S
C285 H277 0.930 . S
C285 C284 1.355 . S
C285 C288 1.402 . S
C286 C284 1.412 . S
C286 C287 1.417 . S
C286 C310 1.431 . S
C287 N283 1.350 . S
C287 C286 1.417 . S
C287 C290 1.426 . S
C288 H271 0.930 . S
C288 N283 1.307 . S
C288 C285 1.402 . S
N289 Gd252 2.601 . S
N289 C290 1.359 . S
N289 C293 1.334 . S
C290 C287 1.426 . S
C290 N289 1.359 . S
C290 C294 1.413 . S
C291 H282 0.930 . S
C291 C292 1.359 . S
C291 C293 1.394 . S
C292 C291 1.359 . S
C292 C294 1.391 . S
C292 H295 0.929 . S
C293 H275 0.930 . S
C293 N289 1.334 . S
C293 C291 1.394 . S
C294 C290 1.413 . S
C294 C292 1.391 . S
C294 C309 1.437 . S
H295 C292 0.929 . S
O296 Gd252 2.545 . S
O296 C311 1.258 . S
O297 Gd252 2.606 . S
O297 Gd253 2.362 . S
O297 C308 1.284 . S
O298 Gd253 2.324 . S
O298 C318 1.254 . S
O299 Gd252 2.429 . S
O299 C318 1.268 . S
O300 Gd252 2.545 . S
O300 C308 1.250 . S
O301 Gd252 2.412 . S
O301 C311 1.252 . S
O302 Gd253 2.545 . S
O302 C320 1.258 . S
O303 Gd252 2.362 . S
O303 Gd253 2.606 . S
O303 C319 1.284 . S
O304 Gd252 2.324 . S
O304 C327 1.254 . S
O305 Gd253 2.429 . S
O305 C327 1.268 . S
O306 Gd253 2.545 . S
O306 C319 1.250 . S
O307 Gd253 2.412 . S
O307 C320 1.252 . S
C308 O297 1.284 . S
C308 O300 1.250 . S
C309 H278 0.929 . S
C309 C294 1.437 . S
C309 C310 1.317 . S
C310 H281 0.930 . S
C310 C286 1.431 . S
C310 C309 1.317 . S
C311 Gd252 2.828 . S
C311 O296 1.258 . S
C311 O301 1.252 . S
C311 C312 1.497 . S
C312 C311 1.497 . S
C312 C313 1.395 . S
C312 C314 1.380 . S
C313 C312 1.395 . S
C313 C316 1.398 1_554 S
C313 H328 0.930 . S
C314 C312 1.380 . S
C314 C315 1.391 1_554 S
C314 H329 0.930 . S
C315 C314 1.391 1_556 S
C315 C317 1.387 . S
C316 C313 1.398 1_556 S
C316 C317 1.380 . S
C316 H330 0.930 . S
C317 C315 1.387 . S
C317 C316 1.380 . S
C317 H331 0.930 . S
C318 O298 1.254 . S
C318 O299 1.268 . S
C319 O303 1.284 . S
C319 O306 1.250 . S
C320 Gd253 2.828 . S
C320 O302 1.258 . S
C320 O307 1.252 . S
C320 C321 1.497 . S
C321 C320 1.497 . S
C321 C322 1.395 . S
C321 C323 1.380 . S
C322 C321 1.395 . S
C322 C325 1.398 . S
C322 H332 0.930 . S
C323 C321 1.380 . S
C323 C324 1.391 . S
C323 H333 0.930 . S
C324 C323 1.391 . S
C324 C326 1.387 . S
C325 C322 1.398 . S
C325 C326 1.380 . S
C325 H334 0.930 . S
C326 C324 1.387 . S
C326 C325 1.380 . S
C326 H335 0.930 . S
C327 O304 1.254 . S
C327 O305 1.268 . S
H328 C313 0.930 . S
H329 C314 0.930 . S
H330 C316 0.930 . S
H331 C317 0.930 . S
H332 C322 0.930 . S
H333 C323 0.930 . S
H334 C325 0.930 . S
H335 C326 0.930 . S
Gd336 N367 2.661 . S
Gd336 N373 2.601 . S
Gd336 O380 2.545 . S
Gd336 O381 2.606 . S
Gd336 O383 2.429 . S
Gd336 O384 2.545 . S
Gd336 O385 2.412 . S
Gd336 O387 2.362 . S
Gd336 O388 2.324 . S
Gd336 C395 2.828 . S
Gd337 N346 2.661 . S
Gd337 N350 2.601 . S
Gd337 O381 2.362 . S
Gd337 O382 2.324 . S
Gd337 O386 2.545 . S
Gd337 O387 2.606 . S
Gd337 O389 2.429 . S
Gd337 O390 2.545 . S
Gd337 O391 2.412 . S
Gd337 C404 2.828 . S
C338 C341 1.417 . S
C338 C343 1.431 . S
C338 C344 1.412 . S
C339 C342 1.437 . S
C339 C343 1.317 . S
C339 H358 0.929 . S
C340 C341 1.426 . S
C340 C342 1.413 . S
C340 N350 1.359 . S
C341 C338 1.417 . S
C341 C340 1.426 . S
C341 N346 1.350 . S
C342 C339 1.437 . S
C342 C340 1.413 . S
C342 C352 1.391 . S
C343 C338 1.431 . S
C343 C339 1.317 . S
C343 H354 0.930 . S
C344 C338 1.412 . S
C344 C345 1.355 . S
C344 H356 0.930 . S
C345 C344 1.355 . S
C345 C347 1.402 . S
C345 H357 0.930 . S
N346 Gd337 2.661 . S
N346 C341 1.350 . S
N346 C347 1.307 . S
C347 C345 1.402 . S
C347 N346 1.307 . S
C347 H348 0.930 . S
H348 C347 0.930 . S
C349 N350 1.334 . S
C349 C351 1.394 . S
C349 H353 0.930 . S
N350 Gd337 2.601 . S
N350 C340 1.359 . S
N350 C349 1.334 . S
C351 C349 1.394 . S
C351 C352 1.359 . S
C351 H363 0.930 . S
C352 C342 1.391 . S
C352 C351 1.359 . S
C352 H364 0.929 . S
H353 C349 0.930 . S
H354 C343 0.930 . S
H355 C372 0.930 . S
H356 C344 0.930 . S
H357 C345 0.930 . S
H358 C339 0.929 . S
H359 C377 0.930 . S
H360 C368 0.930 . S
H361 C369 0.930 . S
H362 C393 0.929 . S
H363 C351 0.930 . S
H364 C352 0.929 . S
H365 C394 0.930 . S
H366 C375 0.930 . S
N367 Gd336 2.661 . S
N367 C371 1.350 . S
N367 C372 1.307 . S
C368 H360 0.930 . S
C368 C369 1.355 . S
C368 C370 1.412 . S
C369 H361 0.930 . S
C369 C368 1.355 . S
C369 C372 1.402 . S
C370 C368 1.412 . S
C370 C371 1.417 . S
C370 C394 1.431 . S
C371 N367 1.350 . S
C371 C370 1.417 . S
C371 C374 1.426 . S
C372 H355 0.930 . S
C372 N367 1.307 . S
C372 C369 1.402 . S
N373 Gd336 2.601 . S
N373 C374 1.359 . S
N373 C377 1.334 . S
C374 C371 1.426 . S
C374 N373 1.359 . S
C374 C378 1.413 . S
C375 H366 0.930 . S
C375 C376 1.359 . S
C375 C377 1.394 . S
C376 C375 1.359 . S
C376 C378 1.391 . S
C376 H379 0.929 . S
C377 H359 0.930 . S
C377 N373 1.334 . S
C377 C375 1.394 . S
C378 C374 1.413 . S
C378 C376 1.391 . S
C378 C393 1.437 . S
H379 C376 0.929 . S
O380 Gd336 2.545 . S
O380 C395 1.258 . S
O381 Gd336 2.606 . S
O381 Gd337 2.362 . S
O381 C392 1.284 . S
O382 Gd337 2.324 . S
O382 C402 1.254 . S
O383 Gd336 2.429 . S
O383 C402 1.268 . S
O384 Gd336 2.545 . S
O384 C392 1.250 . S
O385 Gd336 2.412 . S
O385 C395 1.252 . S
O386 Gd337 2.545 . S
O386 C404 1.258 . S
O387 Gd336 2.362 . S
O387 Gd337 2.606 . S
O387 C403 1.284 . S
O388 Gd336 2.324 . S
O388 C411 1.254 . S
O389 Gd337 2.429 . S
O389 C411 1.268 . S
O390 Gd337 2.545 . S
O390 C403 1.250 . S
O391 Gd337 2.412 . S
O391 C404 1.252 . S
C392 O381 1.284 . S
C392 O384 1.250 . S
C393 H362 0.929 . S
C393 C378 1.437 . S
C393 C394 1.317 . S
C394 H365 0.930 . S
C394 C370 1.431 . S
C394 C393 1.317 . S
C395 Gd336 2.828 . S
C395 O380 1.258 . S
C395 O385 1.252 . S
C395 C396 1.497 . S
C396 C395 1.497 . S
C396 C397 1.395 . S
C396 C398 1.380 . S
C397 C396 1.395 . S
C397 C400 1.398 . S
C397 H412 0.930 . S
C398 C396 1.380 . S
C398 C399 1.391 . S
C398 H413 0.930 . S
C399 C398 1.391 . S
C399 C401 1.387 . S
C400 C397 1.398 . S
C400 C401 1.380 . S
C400 H414 0.930 . S
C401 C399 1.387 . S
C401 C400 1.380 . S
C401 H415 0.930 . S
C402 O382 1.254 . S
C402 O383 1.268 . S
C403 O387 1.284 . S
C403 O390 1.250 . S
C404 Gd337 2.828 . S
C404 O386 1.258 . S
C404 O391 1.252 . S
C404 C405 1.497 . S
C405 C404 1.497 . S
C405 C406 1.395 . S
C405 C407 1.380 . S
C406 C405 1.395 . S
C406 C409 1.398 1_554 S
C406 H416 0.930 . S
C407 C405 1.380 . S
C407 C408 1.391 1_554 S
C407 H417 0.930 . S
C408 C407 1.391 1_556 S
C408 C410 1.387 . S
C409 C406 1.398 1_556 S
C409 C410 1.380 . S
C409 H418 0.930 . S
C410 C408 1.387 . S
C410 C409 1.380 . S
C410 H419 0.930 . S
C411 O388 1.254 . S
C411 O389 1.268 . S
H412 C397 0.930 . S
H413 C398 0.930 . S
H414 C400 0.930 . S
H415 C401 0.930 . S
H416 C406 0.930 . S
H417 C407 0.930 . S
H418 C409 0.930 . S
H419 C410 0.930 . S
Gd420 N451 2.661 . S
Gd420 N457 2.601 . S
Gd420 O464 2.545 . S
Gd420 O465 2.606 . S
Gd420 O467 2.429 . S
Gd420 O468 2.545 . S
Gd420 O469 2.412 . S
Gd420 O471 2.362 . S
Gd420 O472 2.324 . S
Gd420 C479 2.828 . S
Gd421 N430 2.661 . S
Gd421 N434 2.601 . S
Gd421 O465 2.362 . S
Gd421 O466 2.324 . S
Gd421 O470 2.545 . S
Gd421 O471 2.606 . S
Gd421 O473 2.429 . S
Gd421 O474 2.545 . S
Gd421 O475 2.412 . S
Gd421 C488 2.828 . S
C422 C425 1.417 . S
C422 C427 1.431 . S
C422 C428 1.412 . S
C423 C426 1.437 . S
C423 C427 1.317 . S
C423 H442 0.929 . S
C424 C425 1.426 . S
C424 C426 1.413 . S
C424 N434 1.359 . S
C425 C422 1.417 . S
C425 C424 1.426 . S
C425 N430 1.350 . S
C426 C423 1.437 . S
C426 C424 1.413 . S
C426 C436 1.391 . S
C427 C422 1.431 . S
C427 C423 1.317 . S
C427 H438 0.930 . S
C428 C422 1.412 . S
C428 C429 1.355 . S
C428 H440 0.930 . S
C429 C428 1.355 . S
C429 C431 1.402 . S
C429 H441 0.930 . S
N430 Gd421 2.661 . S
N430 C425 1.350 . S
N430 C431 1.307 . S
C431 C429 1.402 . S
C431 N430 1.307 . S
C431 H432 0.930 . S
H432 C431 0.930 . S
C433 N434 1.334 . S
C433 C435 1.394 . S
C433 H437 0.930 . S
N434 Gd421 2.601 . S
N434 C424 1.359 . S
N434 C433 1.334 . S
C435 C433 1.394 . S
C435 C436 1.359 . S
C435 H447 0.930 . S
C436 C426 1.391 . S
C436 C435 1.359 . S
C436 H448 0.929 . S
H437 C433 0.930 . S
H438 C427 0.930 . S
H439 C456 0.930 . S
H440 C428 0.930 . S
H441 C429 0.930 . S
H442 C423 0.929 . S
H443 C461 0.930 . S
H444 C452 0.930 . S
H445 C453 0.930 . S
H446 C477 0.929 . S
H447 C435 0.930 . S
H448 C436 0.929 . S
H449 C478 0.930 . S
H450 C459 0.930 . S
N451 Gd420 2.661 . S
N451 C455 1.350 . S
N451 C456 1.307 . S
C452 H444 0.930 . S
C452 C453 1.355 . S
C452 C454 1.412 . S
C453 H445 0.930 . S
C453 C452 1.355 . S
C453 C456 1.402 . S
C454 C452 1.412 . S
C454 C455 1.417 . S
C454 C478 1.431 . S
C455 N451 1.350 . S
C455 C454 1.417 . S
C455 C458 1.426 . S
C456 H439 0.930 . S
C456 N451 1.307 . S
C456 C453 1.402 . S
N457 Gd420 2.601 . S
N457 C458 1.359 . S
N457 C461 1.334 . S
C458 C455 1.426 . S
C458 N457 1.359 . S
C458 C462 1.413 . S
C459 H450 0.930 . S
C459 C460 1.359 . S
C459 C461 1.394 . S
C460 C459 1.359 . S
C460 C462 1.391 . S
C460 H463 0.929 . S
C461 H443 0.930 . S
C461 N457 1.334 . S
C461 C459 1.394 . S
C462 C458 1.413 . S
C462 C460 1.391 . S
C462 C477 1.437 . S
H463 C460 0.929 . S
O464 Gd420 2.545 . S
O464 C479 1.258 . S
O465 Gd420 2.606 . S
O465 Gd421 2.362 . S
O465 C476 1.284 . S
O466 Gd421 2.324 . S
O466 C486 1.254 . S
O467 Gd420 2.429 . S
O467 C486 1.268 . S
O468 Gd420 2.545 . S
O468 C476 1.250 . S
O469 Gd420 2.412 . S
O469 C479 1.252 . S
O470 Gd421 2.545 . S
O470 C488 1.258 . S
O471 Gd420 2.362 . S
O471 Gd421 2.606 . S
O471 C487 1.284 . S
O472 Gd420 2.324 . S
O472 C495 1.254 . S
O473 Gd421 2.429 . S
O473 C495 1.268 . S
O474 Gd421 2.545 . S
O474 C487 1.250 . S
O475 Gd421 2.412 . S
O475 C488 1.252 . S
C476 O465 1.284 . S
C476 O468 1.250 . S
C477 H446 0.929 . S
C477 C462 1.437 . S
C477 C478 1.317 . S
C478 H449 0.930 . S
C478 C454 1.431 . S
C478 C477 1.317 . S
C479 Gd420 2.828 . S
C479 O464 1.258 . S
C479 O469 1.252 . S
C479 C480 1.497 . S
C480 C479 1.497 . S
C480 C481 1.395 . S
C480 C482 1.380 . S
C481 C480 1.395 . S
C481 C484 1.398 . S
C481 H496 0.930 . S
C482 C480 1.380 . S
C482 C483 1.391 . S
C482 H497 0.930 . S
C483 C482 1.391 . S
C483 C485 1.387 . S
C484 C481 1.398 . S
C484 C485 1.380 . S
C484 H498 0.930 . S
C485 C483 1.387 . S
C485 C484 1.380 . S
C485 H499 0.930 . S
C486 O466 1.254 . S
C486 O467 1.268 . S
C487 O471 1.284 . S
C487 O474 1.250 . S
C488 Gd421 2.828 . S
C488 O470 1.258 . S
C488 O475 1.252 . S
C488 C489 1.497 . S
C489 C488 1.497 . S
C489 C490 1.395 . S
C489 C491 1.380 . S
C490 C489 1.395 . S
C490 C493 1.398 1_556 S
C490 H500 0.930 . S
C491 C489 1.380 . S
C491 C492 1.391 1_556 S
C491 H501 0.930 . S
C492 C491 1.391 1_554 S
C492 C494 1.387 . S
C493 C490 1.398 1_554 S
C493 C494 1.380 . S
C493 H502 0.930 . S
C494 C492 1.387 . S
C494 C493 1.380 . S
C494 H503 0.930 . S
C495 O472 1.254 . S
C495 O473 1.268 . S
H496 C481 0.930 . S
H497 C482 0.930 . S
H498 C484 0.930 . S
H499 C485 0.930 . S
H500 C490 0.930 . S
H501 C491 0.930 . S
H502 C493 0.930 . S
H503 C494 0.930 . S
Gd504 N535 2.661 . S
Gd504 N541 2.601 . S
Gd504 O548 2.545 . S
Gd504 O549 2.606 . S
Gd504 O551 2.429 . S
Gd504 O552 2.545 . S
Gd504 O553 2.412 . S
Gd504 O555 2.362 1_554 S
Gd504 O556 2.324 . S
Gd504 C563 2.828 . S
Gd505 N514 2.661 . S
Gd505 N518 2.601 . S
Gd505 O549 2.362 1_556 S
Gd505 O550 2.324 . S
Gd505 O554 2.545 . S
Gd505 O555 2.606 . S
Gd505 O557 2.429 . S
Gd505 O558 2.545 . S
Gd505 O559 2.412 . S
Gd505 C572 2.828 . S
C506 C509 1.417 . S
C506 C511 1.431 . S
C506 C512 1.412 . S
C507 C510 1.437 . S
C507 C511 1.317 . S
C507 H526 0.929 . S
C508 C509 1.426 . S
C508 C510 1.413 . S
C508 N518 1.359 . S
C509 C506 1.417 . S
C509 C508 1.426 . S
C509 N514 1.350 . S
C510 C507 1.437 . S
C510 C508 1.413 . S
C510 C520 1.391 . S
C511 C506 1.431 . S
C511 C507 1.317 . S
C511 H522 0.930 . S
C512 C506 1.412 . S
C512 C513 1.355 . S
C512 H524 0.930 . S
C513 C512 1.355 . S
C513 C515 1.402 . S
C513 H525 0.930 . S
N514 Gd505 2.661 . S
N514 C509 1.350 . S
N514 C515 1.307 . S
C515 C513 1.402 . S
C515 N514 1.307 . S
C515 H516 0.930 . S
H516 C515 0.930 . S
C517 N518 1.334 . S
C517 C519 1.394 . S
C517 H521 0.930 . S
N518 Gd505 2.601 . S
N518 C508 1.359 . S
N518 C517 1.334 . S
C519 C517 1.394 . S
C519 C520 1.359 . S
C519 H531 0.930 . S
C520 C510 1.391 . S
C520 C519 1.359 . S
C520 H532 0.929 . S
H521 C517 0.930 . S
H522 C511 0.930 . S
H523 C540 0.930 . S
H524 C512 0.930 . S
H525 C513 0.930 . S
H526 C507 0.929 . S
H527 C545 0.930 . S
H528 C536 0.930 . S
H529 C537 0.930 . S
H530 C561 0.929 . S
H531 C519 0.930 . S
H532 C520 0.929 . S
H533 C562 0.930 . S
H534 C543 0.930 . S
N535 Gd504 2.661 . S
N535 C539 1.350 . S
N535 C540 1.307 . S
C536 H528 0.930 . S
C536 C537 1.355 . S
C536 C538 1.412 . S
C537 H529 0.930 . S
C537 C536 1.355 . S
C537 C540 1.402 . S
C538 C536 1.412 . S
C538 C539 1.417 . S
C538 C562 1.431 . S
C539 N535 1.350 . S
C539 C538 1.417 . S
C539 C542 1.426 . S
C540 H523 0.930 . S
C540 N535 1.307 . S
C540 C537 1.402 . S
N541 Gd504 2.601 . S
N541 C542 1.359 . S
N541 C545 1.334 . S
C542 C539 1.426 . S
C542 N541 1.359 . S
C542 C546 1.413 . S
C543 H534 0.930 . S
C543 C544 1.359 . S
C543 C545 1.394 . S
C544 C543 1.359 . S
C544 C546 1.391 . S
C544 H547 0.929 . S
C545 H527 0.930 . S
C545 N541 1.334 . S
C545 C543 1.394 . S
C546 C542 1.413 . S
C546 C544 1.391 . S
C546 C561 1.437 . S
H547 C544 0.929 . S
O548 Gd504 2.545 . S
O548 C563 1.258 . S
O549 Gd504 2.606 . S
O549 Gd505 2.362 1_554 S
O549 C560 1.284 . S
O550 Gd505 2.324 . S
O550 C570 1.254 . S
O551 Gd504 2.429 . S
O551 C570 1.268 1_554 S
O552 Gd504 2.545 . S
O552 C560 1.250 . S
O553 Gd504 2.412 . S
O553 C563 1.252 . S
O554 Gd505 2.545 . S
O554 C572 1.258 . S
O555 Gd504 2.362 1_556 S
O555 Gd505 2.606 . S
O555 C571 1.284 . S
O556 Gd504 2.324 . S
O556 C579 1.254 . S
O557 Gd505 2.429 . S
O557 C579 1.268 1_556 S
O558 Gd505 2.545 . S
O558 C571 1.250 . S
O559 Gd505 2.412 . S
O559 C572 1.252 . S
C560 O549 1.284 . S
C560 O552 1.250 . S
C561 H530 0.929 . S
C561 C546 1.437 . S
C561 C562 1.317 . S
C562 H533 0.930 . S
C562 C538 1.431 . S
C562 C561 1.317 . S
C563 Gd504 2.828 . S
C563 O548 1.258 . S
C563 O553 1.252 . S
C563 C564 1.497 . S
C564 C563 1.497 . S
C564 C565 1.395 . S
C564 C566 1.380 . S
C565 C564 1.395 . S
C565 C568 1.398 . S
C565 H580 0.930 . S
C566 C564 1.380 . S
C566 C567 1.391 . S
C566 H581 0.930 . S
C567 C566 1.391 . S
C567 C569 1.387 . S
C568 C565 1.398 . S
C568 C569 1.380 . S
C568 H582 0.930 . S
C569 C567 1.387 . S
C569 C568 1.380 . S
C569 H583 0.930 . S
C570 O550 1.254 . S
C570 O551 1.268 1_556 S
C571 O555 1.284 . S
C571 O558 1.250 . S
C572 Gd505 2.828 . S
C572 O554 1.258 . S
C572 O559 1.252 . S
C572 C573 1.497 . S
C573 C572 1.497 . S
C573 C574 1.395 . S
C573 C575 1.380 . S
C574 C573 1.395 . S
C574 C577 1.398 . S
C574 H584 0.930 . S
C575 C573 1.380 . S
C575 C576 1.391 . S
C575 H585 0.930 . S
C576 C575 1.391 . S
C576 C578 1.387 . S
C577 C574 1.398 . S
C577 C578 1.380 . S
C577 H586 0.930 . S
C578 C576 1.387 . S
C578 C577 1.380 . S
C578 H587 0.930 . S
C579 O556 1.254 . S
C579 O557 1.268 1_554 S
H580 C565 0.930 . S
H581 C566 0.930 . S
H582 C568 0.930 . S
H583 C569 0.930 . S
H584 C574 0.930 . S
H585 C575 0.930 . S
H586 C577 0.930 . S
H587 C578 0.930 . S
Gd588 N619 2.657 1_455 S
Gd588 N625 2.601 1_455 S
Gd588 O632 2.547 . S
Gd588 O633 2.607 . S
Gd588 O635 2.432 . S
Gd588 O636 2.547 . S
Gd588 O637 2.411 1_455 S
Gd588 O639 2.360 1_455 S
Gd588 O640 2.321 1_455 S
Gd588 C647 2.829 . S
Gd589 N598 2.657 . S
Gd589 N602 2.601 . S
Gd589 O633 2.360 . S
Gd589 O634 2.321 . S
Gd589 O638 2.547 1_455 S
Gd589 O639 2.607 1_455 S
Gd589 O641 2.432 1_455 S
Gd589 O642 2.547 1_455 S
Gd589 O643 2.411 . S
Gd589 C656 2.829 1_455 S
C590 C593 1.417 . S
C590 C595 1.431 . S
C590 C596 1.412 . S
C591 C594 1.437 . S
C591 C595 1.317 . S
C591 H610 0.929 . S
C592 C593 1.426 . S
C592 C594 1.413 . S
C592 N602 1.359 . S
C593 C590 1.417 . S
C593 C592 1.426 . S
C593 N598 1.350 . S
C594 C591 1.437 . S
C594 C592 1.413 . S
C594 C604 1.430 . S
C595 C590 1.431 . S
C595 C591 1.317 . S
C595 H606 0.930 . S
C596 C590 1.412 . S
C596 C597 1.355 . S
C596 H608 0.930 . S
C597 C596 1.355 . S
C597 C599 1.402 . S
C597 H609 0.930 . S
N598 Gd589 2.657 . S
N598 C593 1.350 . S
N598 C599 1.307 . S
C599 C597 1.402 . S
C599 N598 1.307 . S
C599 H600 0.930 . S
H600 C599 0.930 . S
C601 N602 1.334 1_655 S
C601 C603 1.394 . S
C601 H605 0.930 . S
N602 Gd589 2.601 . S
N602 C592 1.359 . S
N602 C601 1.334 1_455 S
C603 C601 1.394 . S
C603 C604 1.322 1_655 S
C603 H615 0.930 . S
C604 C594 1.430 . S
C604 C603 1.322 1_455 S
C604 H616 0.929 . S
H605 C601 0.930 . S
H606 C595 0.930 . S
H607 C624 0.930 . S
H608 C596 0.930 . S
H609 C597 0.930 . S
H610 C591 0.929 . S
H611 C629 0.930 . S
H612 C620 0.930 . S
H613 C621 0.930 . S
H614 C645 0.929 . S
H615 C603 0.930 . S
H616 C604 0.929 . S
H617 C646 0.930 . S
H618 C627 0.930 . S
N619 Gd588 2.657 1_655 S
N619 C623 1.350 . S
N619 C624 1.307 . S
C620 H612 0.930 . S
C620 C621 1.355 . S
C620 C622 1.412 . S
C621 H613 0.930 . S
C621 C620 1.355 . S
C621 C624 1.402 . S
C622 C620 1.412 . S
C622 C623 1.417 . S
C622 C646 1.431 . S
C623 N619 1.350 . S
C623 C622 1.417 . S
C623 C626 1.426 . S
C624 H607 0.930 . S
C624 N619 1.307 . S
C624 C621 1.402 . S
N625 Gd588 2.601 1_655 S
N625 C626 1.359 . S
N625 C629 1.334 1_655 S
C626 C623 1.426 . S
C626 N625 1.359 . S
C626 C630 1.413 . S
C627 H618 0.930 . S
C627 C628 1.330 1_455 S
C627 C629 1.394 . S
C628 C627 1.330 1_655 S
C628 C630 1.421 . S
C628 H631 0.929 . S
C629 H611 0.930 . S
C629 N625 1.334 1_455 S
C629 C627 1.394 . S
C630 C626 1.413 . S
C630 C628 1.421 . S
C630 C645 1.437 . S
H631 C628 0.929 . S
O632 Gd588 2.547 . S
O632 C647 1.258 . S
O633 Gd588 2.607 . S
O633 Gd589 2.360 . S
O633 C644 1.284 . S
O634 Gd589 2.321 . S
O634 C654 1.254 . S
O635 Gd588 2.432 . S
O635 C654 1.268 . S
O636 Gd588 2.547 . S
O636 C644 1.250 . S
O637 Gd588 2.411 1_655 S
O637 C647 1.252 1_655 S
O638 Gd589 2.547 1_655 S
O638 C656 1.258 . S
O639 Gd588 2.360 1_655 S
O639 Gd589 2.607 1_655 S
O639 C655 1.284 . S
O640 Gd588 2.321 1_655 S
O640 C663 1.254 . S
O641 Gd589 2.432 1_655 S
O641 C663 1.268 . S
O642 Gd589 2.547 1_655 S
O642 C655 1.250 . S
O643 Gd589 2.411 . S
O643 C656 1.252 1_455 S
C644 O633 1.284 . S
C644 O636 1.250 . S
C645 H614 0.929 . S
C645 C630 1.437 . S
C645 C646 1.317 . S
C646 H617 0.930 . S
C646 C622 1.431 . S
C646 C645 1.317 . S
C647 Gd588 2.829 . S
C647 O632 1.258 . S
C647 O637 1.252 1_455 S
C647 C648 1.497 . S
C648 C647 1.497 . S
C648 C649 1.395 . S
C648 C650 1.380 . S
C649 C648 1.395 . S
C649 C652 1.398 . S
C649 H664 0.930 . S
C650 C648 1.380 . S
C650 C651 1.391 . S
C650 H665 0.930 1_455 S
C651 C650 1.391 . S
C651 C653 1.387 . S
C652 C649 1.398 . S
C652 C653 1.380 . S
C652 H666 0.930 . S
C653 C651 1.387 . S
C653 C652 1.380 . S
C653 H667 0.930 . S
C654 O634 1.254 . S
C654 O635 1.268 . S
C655 O639 1.284 . S
C655 O642 1.250 . S
C656 Gd589 2.829 1_655 S
C656 O638 1.258 . S
C656 O643 1.252 1_655 S
C656 C657 1.497 . S
C657 C656 1.497 . S
C657 C658 1.395 . S
C657 C659 1.380 . S
C658 C657 1.395 . S
C658 C661 1.398 . S
C658 H668 0.930 . S
C659 C657 1.380 . S
C659 C660 1.391 . S
C659 H669 0.930 1_655 S
C660 C659 1.391 . S
C660 C662 1.387 . S
C661 C658 1.398 . S
C661 C662 1.380 . S
C661 H670 0.930 . S
C662 C660 1.387 . S
C662 C661 1.380 . S
C662 H671 0.930 . S
C663 O640 1.254 . S
C663 O641 1.268 . S
H664 C649 0.930 . S
H665 C650 0.930 1_655 S
H666 C652 0.930 . S
H667 C653 0.930 . S
H668 C658 0.930 . S
H669 C659 0.930 1_455 S
H670 C661 0.930 . S
H671 C662 0.930 . S
C672 C673 1.349 . S
C672 C674 1.327 . S
C672 H697 0.950 . S
C673 C672 1.349 . S
C673 C689 1.349 . S
C674 C672 1.327 . S
C674 C693 1.429 . S
C674 H698 0.950 . S
C675 C692 1.574 . S
C675 C694 1.368 . S
C675 H699 0.949 . S
H676 C680 0.949 . S
C677 C678 1.349 . S
C677 C679 1.327 . S
C677 H700 0.950 . S
C678 C677 1.349 . S
C678 C690 1.349 . S
C679 C677 1.327 . S
C679 C695 1.429 . S
C679 H701 0.950 . S
C680 H676 0.949 . S
C680 C688 1.574 . S
C680 C696 1.368 . S
H681 C689 0.950 . S
H682 C687 0.950 . S
H683 C688 0.949 . S
H684 C690 0.950 . S
H685 C691 0.950 . S
H686 C692 0.949 . S
C687 H682 0.950 . S
C687 C689 1.327 . S
C687 C693 1.429 . S
C688 C680 1.574 . S
C688 H683 0.949 . S
C688 C694 1.368 . S
C689 C673 1.349 . S
C689 H681 0.950 . S
C689 C687 1.327 . S
C690 C678 1.349 . S
C690 H684 0.950 . S
C690 C691 1.327 . S
C691 H685 0.950 . S
C691 C690 1.327 . S
C691 C695 1.429 . S
C692 C675 1.574 . S
C692 H686 0.949 . S
C692 C696 1.368 . S
C693 C674 1.429 . S
C693 C687 1.429 . S
C693 C694 1.523 . S
C694 C675 1.368 . S
C694 C688 1.368 . S
C694 C693 1.523 . S
C695 C679 1.429 . S
C695 C691 1.429 . S
C695 C696 1.523 . S
C696 C680 1.368 . S
C696 C692 1.368 . S
C696 C695 1.523 . S
H697 C672 0.950 . S
H698 C674 0.950 . S
H699 C675 0.949 . S
H700 C677 0.950 . S
H701 C679 0.950 . S
C702 C703 1.349 . S
C702 C704 1.327 . S
C702 H727 0.950 . S
C703 C702 1.349 . S
C703 C719 1.349 . S
C704 C702 1.327 . S
C704 C723 1.429 . S
C704 H728 0.950 . S
C705 C722 1.574 . S
C705 C724 1.368 . S
C705 H729 0.949 . S
H706 C710 0.949 . S
C707 C708 1.349 . S
C707 C709 1.327 . S
C707 H730 0.950 . S
C708 C707 1.349 . S
C708 C720 1.349 . S
C709 C707 1.327 . S
C709 C725 1.429 . S
C709 H731 0.950 . S
C710 H706 0.949 . S
C710 C718 1.574 . S
C710 C726 1.368 . S
H711 C719 0.950 . S
H712 C717 0.950 . S
H713 C718 0.949 . S
H714 C720 0.950 . S
H715 C721 0.950 . S
H716 C722 0.949 . S
C717 H712 0.950 . S
C717 C719 1.327 . S
C717 C723 1.429 . S
C718 C710 1.574 . S
C718 H713 0.949 . S
C718 C724 1.368 . S
C719 C703 1.349 . S
C719 H711 0.950 . S
C719 C717 1.327 . S
C720 C708 1.349 . S
C720 H714 0.950 . S
C720 C721 1.327 . S
C721 H715 0.950 . S
C721 C720 1.327 . S
C721 C725 1.429 . S
C722 C705 1.574 . S
C722 H716 0.949 . S
C722 C726 1.368 . S
C723 C704 1.429 . S
C723 C717 1.429 . S
C723 C724 1.523 . S
C724 C705 1.368 . S
C724 C718 1.368 . S
C724 C723 1.523 . S
C725 C709 1.429 . S
C725 C721 1.429 . S
C725 C726 1.523 . S
C726 C710 1.368 . S
C726 C722 1.368 . S
C726 C725 1.523 . S
H727 C702 0.950 . S
H728 C704 0.950 . S
H729 C705 0.949 . S
H730 C707 0.950 . S
H731 C709 0.950 . S
C732 C733 1.349 . S
C732 C734 1.327 . S
C732 H757 0.950 . S
C733 C732 1.349 . S
C733 C749 1.349 . S
C734 C732 1.327 . S
C734 C753 1.429 . S
C734 H758 0.950 . S
C735 C752 1.574 . S
C735 C754 1.368 . S
C735 H759 0.949 . S
H736 C740 0.949 . S
C737 C738 1.349 . S
C737 C739 1.327 . S
C737 H760 0.950 . S
C738 C737 1.349 . S
C738 C750 1.349 . S
C739 C737 1.327 . S
C739 C755 1.429 . S
C739 H761 0.950 . S
C740 H736 0.949 . S
C740 C748 1.574 . S
C740 C756 1.368 . S
H741 C749 0.950 . S
H742 C747 0.950 . S
H743 C748 0.949 . S
H744 C750 0.950 . S
H745 C751 0.950 . S
H746 C752 0.949 . S
C747 H742 0.950 . S
C747 C749 1.327 . S
C747 C753 1.429 . S
C748 C740 1.574 . S
C748 H743 0.949 . S
C748 C754 1.368 . S
C749 C733 1.349 . S
C749 H741 0.950 . S
C749 C747 1.327 . S
C750 C738 1.349 . S
C750 H744 0.950 . S
C750 C751 1.327 . S
C751 H745 0.950 . S
C751 C750 1.327 . S
C751 C755 1.429 . S
C752 C735 1.574 . S
C752 H746 0.949 . S
C752 C756 1.368 . S
C753 C734 1.429 . S
C753 C747 1.429 . S
C753 C754 1.523 . S
C754 C735 1.368 . S
C754 C748 1.368 . S
C754 C753 1.523 . S
C755 C739 1.429 . S
C755 C751 1.429 . S
C755 C756 1.523 . S
C756 C740 1.368 . S
C756 C752 1.368 . S
C756 C755 1.523 . S
H757 C732 0.950 . S
H758 C734 0.950 . S
H759 C735 0.949 . S
H760 C737 0.950 . S
H761 C739 0.950 . S
C762 C763 1.349 . S
C762 C764 1.327 . S
C762 H787 0.950 . S
C763 C762 1.349 . S
C763 C779 1.349 . S
C764 C762 1.327 . S
C764 C783 1.429 . S
C764 H788 0.950 . S
C765 C782 1.574 . S
C765 C784 1.368 . S
C765 H789 0.949 . S
H766 C770 0.949 . S
C767 C768 1.349 . S
C767 C769 1.327 . S
C767 H790 0.950 . S
C768 C767 1.349 . S
C768 C780 1.349 . S
C769 C767 1.327 . S
C769 C785 1.429 . S
C769 H791 0.950 . S
C770 H766 0.949 . S
C770 C778 1.574 . S
C770 C786 1.368 . S
H771 C779 0.950 . S
H772 C777 0.950 . S
H773 C778 0.949 . S
H774 C780 0.950 . S
H775 C781 0.950 . S
H776 C782 0.949 . S
C777 H772 0.950 . S
C777 C779 1.327 . S
C777 C783 1.429 . S
C778 C770 1.574 . S
C778 H773 0.949 . S
C778 C784 1.368 . S
C779 C763 1.349 . S
C779 H771 0.950 . S
C779 C777 1.327 . S
C780 C768 1.349 . S
C780 H774 0.950 . S
C780 C781 1.327 . S
C781 H775 0.950 . S
C781 C780 1.327 . S
C781 C785 1.429 . S
C782 C765 1.574 . S
C782 H776 0.949 . S
C782 C786 1.368 . S
C783 C764 1.429 . S
C783 C777 1.429 . S
C783 C784 1.523 . S
C784 C765 1.368 . S
C784 C778 1.368 . S
C784 C783 1.523 . S
C785 C769 1.429 . S
C785 C781 1.429 . S
C785 C786 1.523 . S
C786 C770 1.368 . S
C786 C782 1.368 . S
C786 C785 1.523 . S
H787 C762 0.950 . S
H788 C764 0.950 . S
H789 C765 0.949 . S
H790 C767 0.950 . S
H791 C769 0.950 . S
C792 C793 1.349 . S
C792 C794 1.327 . S
C792 H817 0.950 . S
C793 C792 1.349 . S
C793 C809 1.349 . S
C794 C792 1.327 . S
C794 C813 1.429 . S
C794 H818 0.950 . S
C795 C812 1.574 . S
C795 C814 1.368 . S
C795 H819 0.949 . S
H796 C800 0.949 . S
C797 C798 1.349 . S
C797 C799 1.327 . S
C797 H820 0.950 . S
C798 C797 1.349 . S
C798 C810 1.349 . S
C799 C797 1.327 . S
C799 C815 1.429 . S
C799 H821 0.950 . S
C800 H796 0.949 . S
C800 C808 1.574 . S
C800 C816 1.368 . S
H801 C809 0.950 . S
H802 C807 0.950 . S
H803 C808 0.949 . S
H804 C810 0.950 . S
H805 C811 0.950 . S
H806 C812 0.949 . S
C807 H802 0.950 . S
C807 C809 1.327 . S
C807 C813 1.429 . S
C808 C800 1.574 . S
C808 H803 0.949 . S
C808 C814 1.368 . S
C809 C793 1.349 . S
C809 H801 0.950 . S
C809 C807 1.327 . S
C810 C798 1.349 . S
C810 H804 0.950 . S
C810 C811 1.327 . S
C811 H805 0.950 . S
C811 C810 1.327 . S
C811 C815 1.429 . S
C812 C795 1.574 . S
C812 H806 0.949 . S
C812 C816 1.368 . S
C813 C794 1.429 . S
C813 C807 1.429 . S
C813 C814 1.523 . S
C814 C795 1.368 . S
C814 C808 1.368 . S
C814 C813 1.523 . S
C815 C799 1.429 . S
C815 C811 1.429 . S
C815 C816 1.523 . S
C816 C800 1.368 . S
C816 C812 1.368 . S
C816 C815 1.523 . S
H817 C792 0.950 . S
H818 C794 0.950 . S
H819 C795 0.949 . S
H820 C797 0.950 . S
H821 C799 0.950 . S
C822 C823 1.349 . S
C822 C824 1.327 . S
C822 H847 0.950 . S
C823 C822 1.349 . S
C823 C839 1.349 . S
C824 C822 1.327 . S
C824 C843 1.429 . S
C824 H848 0.950 . S
C825 C842 1.574 . S
C825 C844 1.368 . S
C825 H849 0.949 . S
H826 C830 0.949 . S
C827 C828 1.349 . S
C827 C829 1.327 . S
C827 H850 0.950 . S
C828 C827 1.349 . S
C828 C840 1.349 . S
C829 C827 1.327 . S
C829 C845 1.429 . S
C829 H851 0.950 . S
C830 H826 0.949 . S
C830 C838 1.574 . S
C830 C846 1.368 . S
H831 C839 0.950 . S
H832 C837 0.950 . S
H833 C838 0.949 . S
H834 C840 0.950 . S
H835 C841 0.950 . S
H836 C842 0.949 . S
C837 H832 0.950 . S
C837 C839 1.327 . S
C837 C843 1.429 . S
C838 C830 1.574 . S
C838 H833 0.949 . S
C838 C844 1.368 . S
C839 C823 1.349 . S
C839 H831 0.950 . S
C839 C837 1.327 . S
C840 C828 1.349 . S
C840 H834 0.950 . S
C840 C841 1.327 . S
C841 H835 0.950 . S
C841 C840 1.327 . S
C841 C845 1.429 . S
C842 C825 1.574 . S
C842 H836 0.949 . S
C842 C846 1.368 . S
C843 C824 1.429 . S
C843 C837 1.429 . S
C843 C844 1.523 . S
C844 C825 1.368 . S
C844 C838 1.368 . S
C844 C843 1.523 . S
C845 C829 1.429 . S
C845 C841 1.429 . S
C845 C846 1.523 . S
C846 C830 1.368 . S
C846 C842 1.368 . S
C846 C845 1.523 . S
H847 C822 0.950 . S
H848 C824 0.950 . S
H849 C825 0.949 . S
H850 C827 0.950 . S
H851 C829 0.950 . S
C852 C853 1.349 . S
C852 C854 1.327 . S
C852 H877 0.950 . S
C853 C852 1.349 . S
C853 C869 1.349 . S
C854 C852 1.327 . S
C854 C873 1.429 . S
C854 H878 0.950 . S
C855 C872 1.574 . S
C855 C874 1.368 . S
C855 H879 0.949 . S
H856 C860 0.949 . S
C857 C858 1.349 . S
C857 C859 1.327 . S
C857 H880 0.950 . S
C858 C857 1.349 . S
C858 C870 1.349 . S
C859 C857 1.327 . S
C859 C875 1.429 . S
C859 H881 0.950 . S
C860 H856 0.949 . S
C860 C868 1.574 . S
C860 C876 1.368 . S
H861 C869 0.950 . S
H862 C867 0.950 . S
H863 C868 0.949 . S
H864 C870 0.950 1_556 S
H865 C871 0.950 . S
H866 C872 0.949 . S
C867 H862 0.950 . S
C867 C869 1.327 . S
C867 C873 1.429 . S
C868 C860 1.574 . S
C868 H863 0.949 . S
C868 C874 1.368 . S
C869 C853 1.349 . S
C869 H861 0.950 . S
C869 C867 1.327 . S
C870 C858 1.349 . S
C870 H864 0.950 1_554 S
C870 C871 1.327 . S
C871 H865 0.950 . S
C871 C870 1.327 . S
C871 C875 1.429 . S
C872 C855 1.574 . S
C872 H866 0.949 . S
C872 C876 1.368 . S
C873 C854 1.429 . S
C873 C867 1.429 . S
C873 C874 1.523 . S
C874 C855 1.368 . S
C874 C868 1.368 . S
C874 C873 1.523 . S
C875 C859 1.429 . S
C875 C871 1.429 . S
C875 C876 1.523 . S
C876 C860 1.368 . S
C876 C872 1.368 . S
C876 C875 1.523 . S
H877 C852 0.950 . S
H878 C854 0.950 . S
H879 C855 0.949 . S
H880 C857 0.950 . S
H881 C859 0.950 . S
C882 C883 1.349 . S
C882 C884 1.327 . S
C882 H907 0.950 . S
C883 C882 1.349 . S
C883 C899 1.349 . S
C884 C882 1.327 . S
C884 C903 1.429 . S
C884 H908 0.950 . S
C885 C902 1.574 . S
C885 C904 1.368 . S
C885 H909 0.949 . S
H886 C890 0.949 . S
C887 C888 1.349 . S
C887 C889 1.327 . S
C887 H910 0.942 1_556 S
C888 C887 1.349 . S
C888 C900 1.349 . S
C889 C887 1.327 . S
C889 C905 1.429 . S
C889 H911 0.950 . S
C890 H886 0.949 . S
C890 C898 1.574 . S
C890 C906 1.368 . S
H891 C899 0.950 . S
H892 C897 0.950 . S
H893 C898 0.949 . S
H894 C900 0.950 . S
H895 C901 0.950 . S
H896 C902 0.949 . S
C897 H892 0.950 . S
C897 C899 1.327 . S
C897 C903 1.429 . S
C898 C890 1.574 . S
C898 H893 0.949 . S
C898 C904 1.368 . S
C899 C883 1.349 . S
C899 H891 0.950 . S
C899 C897 1.327 . S
C900 C888 1.349 . S
C900 H894 0.950 . S
C900 C901 1.327 . S
C901 H895 0.950 . S
C901 C900 1.327 . S
C901 C905 1.429 . S
C902 C885 1.574 . S
C902 H896 0.949 . S
C902 C906 1.368 . S
C903 C884 1.429 . S
C903 C897 1.429 . S
C903 C904 1.523 . S
C904 C885 1.368 . S
C904 C898 1.368 . S
C904 C903 1.523 . S
C905 C889 1.429 . S
C905 C901 1.429 . S
C905 C906 1.523 . S
C906 C890 1.368 . S
C906 C902 1.368 . S
C906 C905 1.523 . S
H907 C882 0.950 . S
H908 C884 0.950 . S
H909 C885 0.949 . S
H910 C887 0.942 1_554 S
H911 C889 0.950 . S
C912 C913 1.349 . S
C912 C914 1.327 . S
C912 H937 0.950 . S
C913 C912 1.349 . S
C913 C929 1.349 . S
C914 C912 1.327 . S
C914 C933 1.429 . S
C914 H938 0.950 . S
C915 C932 1.574 . S
C915 C934 1.368 . S
C915 H939 0.949 . S
H916 C920 0.949 . S
C917 C918 1.349 . S
C917 C919 1.327 . S
C917 H940 0.950 . S
C918 C917 1.349 . S
C918 C930 1.349 . S
C919 C917 1.327 . S
C919 C935 1.429 . S
C919 H941 0.950 . S
C920 H916 0.949 . S
C920 C928 1.574 . S
C920 C936 1.368 . S
H921 C929 0.950 . S
H922 C927 0.950 . S
H923 C928 0.949 . S
H924 C930 0.950 . S
H925 C931 0.950 . S
H926 C932 0.949 . S
C927 H922 0.950 . S
C927 C929 1.327 . S
C927 C933 1.429 . S
C928 C920 1.574 . S
C928 H923 0.949 . S
C928 C934 1.368 . S
C929 C913 1.349 . S
C929 H921 0.950 . S
C929 C927 1.327 . S
C930 C918 1.349 . S
C930 H924 0.950 . S
C930 C931 1.327 . S
C931 H925 0.950 . S
C931 C930 1.327 . S
C931 C935 1.429 . S
C932 C915 1.574 . S
C932 H926 0.949 . S
C932 C936 1.368 . S
C933 C914 1.429 . S
C933 C927 1.429 . S
C933 C934 1.523 . S
C934 C915 1.368 . S
C934 C928 1.368 . S
C934 C933 1.523 . S
C935 C919 1.429 . S
C935 C931 1.429 . S
C935 C936 1.523 . S
C936 C920 1.368 . S
C936 C932 1.368 . S
C936 C935 1.523 . S
H937 C912 0.950 . S
H938 C914 0.950 . S
H939 C915 0.949 . S
H940 C917 0.950 . S
H941 C919 0.950 . S
C942 C943 1.349 . S
C942 C944 1.327 . S
C942 H967 0.950 . S
C943 C942 1.349 . S
C943 C959 1.349 . S
C944 C942 1.327 . S
C944 C963 1.429 . S
C944 H968 0.950 . S
C945 C962 1.574 . S
C945 C964 1.368 . S
C945 H969 0.949 . S
H946 C950 0.949 . S
C947 C948 1.349 . S
C947 C949 1.327 . S
C947 H970 0.950 . S
C948 C947 1.349 . S
C948 C960 1.349 . S
C949 C947 1.327 . S
C949 C965 1.429 . S
C949 H971 0.950 . S
C950 H946 0.949 . S
C950 C958 1.574 . S
C950 C966 1.368 . S
H951 C959 0.950 . S
H952 C957 0.950 . S
H953 C958 0.949 . S
H954 C960 0.950 . S
H955 C961 0.950 . S
H956 C962 0.949 . S
C957 H952 0.950 . S
C957 C959 1.327 . S
C957 C963 1.429 . S
C958 C950 1.574 . S
C958 H953 0.949 . S
C958 C964 1.368 . S
C959 C943 1.349 . S
C959 H951 0.950 . S
C959 C957 1.327 . S
C960 C948 1.349 . S
C960 H954 0.950 . S
C960 C961 1.327 . S
C961 H955 0.950 . S
C961 C960 1.327 . S
C961 C965 1.429 . S
C962 C945 1.574 . S
C962 H956 0.949 . S
C962 C966 1.368 . S
C963 C944 1.429 . S
C963 C957 1.429 . S
C963 C964 1.523 . S
C964 C945 1.368 . S
C964 C958 1.368 . S
C964 C963 1.523 . S
C965 C949 1.429 . S
C965 C961 1.429 . S
C965 C966 1.523 . S
C966 C950 1.368 . S
C966 C962 1.368 . S
C966 C965 1.523 . S
H967 C942 0.950 . S
H968 C944 0.950 . S
H969 C945 0.949 . S
H970 C947 0.950 . S
H971 C949 0.950 . S
C972 C973 1.349 . S
C972 C974 1.327 . S
C972 H997 0.950 . S
C973 C972 1.349 . S
C973 C989 1.349 . S
C974 C972 1.327 . S
C974 C993 1.429 . S
C974 H998 0.950 . S
C975 C992 1.574 . S
C975 C994 1.368 . S
C975 H999 0.949 . S
H976 C980 0.949 . S
C977 C978 1.349 . S
C977 C979 1.327 . S
C977 H1000 0.950 . S
C978 C977 1.349 . S
C978 C990 1.349 . S
C979 C977 1.327 . S
C979 C995 1.429 . S
C979 H1001 0.950 . S
C980 H976 0.949 . S
C980 C988 1.574 . S
C980 C996 1.368 . S
H981 C989 0.950 . S
H982 C987 0.950 . S
H983 C988 0.949 . S
H984 C990 0.950 . S
H985 C991 0.950 . S
H986 C992 0.949 . S
C987 H982 0.950 . S
C987 C989 1.327 . S
C987 C993 1.429 . S
C988 C980 1.574 . S
C988 H983 0.949 . S
C988 C994 1.368 . S
C989 C973 1.349 . S
C989 H981 0.950 . S
C989 C987 1.327 . S
C990 C978 1.349 . S
C990 H984 0.950 . S
C990 C991 1.327 . S
C991 H985 0.950 . S
C991 C990 1.327 . S
C991 C995 1.429 . S
C992 C975 1.574 . S
C992 H986 0.949 . S
C992 C996 1.368 . S
C993 C974 1.429 . S
C993 C987 1.429 . S
C993 C994 1.523 . S
C994 C975 1.368 . S
C994 C988 1.368 . S
C994 C993 1.523 . S
C995 C979 1.429 . S
C995 C991 1.429 . S
C995 C996 1.523 . S
C996 C980 1.368 . S
C996 C992 1.368 . S
C996 C995 1.523 . S
H997 C972 0.950 . S
H998 C974 0.950 . S
H999 C975 0.949 . S
H1000 C977 0.950 . S
H1001 C979 0.950 . S
C1002 C1003 1.349 . S
C1002 C1004 1.327 . S
C1002 H1027 0.950 . S
C1003 C1002 1.349 . S
C1003 C1019 1.349 . S
C1004 C1002 1.327 . S
C1004 C1023 1.429 . S
C1004 H1028 0.950 . S
C1005 C1022 1.574 . S
C1005 C1024 1.368 . S
C1005 H1029 0.949 . S
H1006 C1010 0.949 . S
C1007 C1008 1.349 . S
C1007 C1009 1.327 . S
C1007 H1030 0.950 . S
C1008 C1007 1.349 . S
C1008 C1020 1.349 . S
C1009 C1007 1.327 . S
C1009 C1025 1.429 . S
C1009 H1031 0.950 . S
C1010 H1006 0.949 . S
C1010 C1018 1.574 . S
C1010 C1026 1.368 . S
H1011 C1019 0.950 . S
H1012 C1017 0.950 . S
H1013 C1018 0.949 . S
H1014 C1020 0.950 . S
H1015 C1021 0.950 . S
H1016 C1022 0.949 . S
C1017 H1012 0.950 . S
C1017 C1019 1.327 . S
C1017 C1023 1.429 . S
C1018 C1010 1.574 . S
C1018 H1013 0.949 . S
C1018 C1024 1.368 . S
C1019 C1003 1.349 . S
C1019 H1011 0.950 . S
C1019 C1017 1.327 . S
C1020 C1008 1.349 . S
C1020 H1014 0.950 . S
C1020 C1021 1.327 . S
C1021 H1015 0.950 . S
C1021 C1020 1.327 . S
C1021 C1025 1.429 . S
C1022 C1005 1.574 . S
C1022 H1016 0.949 . S
C1022 C1026 1.368 . S
C1023 C1004 1.429 . S
C1023 C1017 1.429 . S
C1023 C1024 1.523 . S
C1024 C1005 1.368 . S
C1024 C1018 1.368 . S
C1024 C1023 1.523 . S
C1025 C1009 1.429 . S
C1025 C1021 1.429 . S
C1025 C1026 1.523 . S
C1026 C1010 1.368 . S
C1026 C1022 1.368 . S
C1026 C1025 1.523 . S
H1027 C1002 0.950 . S
H1028 C1004 0.950 . S
H1029 C1005 0.949 . S
H1030 C1007 0.950 . S
H1031 C1009 0.950 . S
C1032 C1033 1.349 . S
C1032 C1034 1.327 . S
C1032 H1057 0.950 . S
C1033 C1032 1.349 . S
C1033 C1049 1.349 . S
C1034 C1032 1.327 . S
C1034 C1053 1.429 . S
C1034 H1058 0.950 . S
C1035 C1052 1.574 . S
C1035 C1054 1.368 . S
C1035 H1059 0.949 . S
H1036 C1040 0.949 . S
C1037 C1038 1.349 . S
C1037 C1039 1.327 . S
C1037 H1060 0.950 . S
C1038 C1037 1.349 . S
C1038 C1050 1.349 . S
C1039 C1037 1.327 . S
C1039 C1055 1.429 . S
C1039 H1061 0.950 . S
C1040 H1036 0.949 . S
C1040 C1048 1.574 . S
C1040 C1056 1.368 . S
H1041 C1049 0.950 . S
H1042 C1047 0.950 . S
H1043 C1048 0.949 . S
H1044 C1050 0.950 . S
H1045 C1051 0.950 . S
H1046 C1052 0.949 . S
C1047 H1042 0.950 . S
C1047 C1049 1.327 . S
C1047 C1053 1.429 . S
C1048 C1040 1.574 . S
C1048 H1043 0.949 . S
C1048 C1054 1.368 . S
C1049 C1033 1.349 . S
C1049 H1041 0.950 . S
C1049 C1047 1.327 . S
C1050 C1038 1.349 . S
C1050 H1044 0.950 . S
C1050 C1051 1.327 . S
C1051 H1045 0.950 . S
C1051 C1050 1.327 . S
C1051 C1055 1.429 . S
C1052 C1035 1.574 . S
C1052 H1046 0.949 . S
C1052 C1056 1.368 . S
C1053 C1034 1.429 . S
C1053 C1047 1.429 . S
C1053 C1054 1.523 . S
C1054 C1035 1.368 . S
C1054 C1048 1.368 . S
C1054 C1053 1.523 . S
C1055 C1039 1.429 . S
C1055 C1051 1.429 . S
C1055 C1056 1.523 . S
C1056 C1040 1.368 . S
C1056 C1052 1.368 . S
C1056 C1055 1.523 . S
H1057 C1032 0.950 . S
H1058 C1034 0.950 . S
H1059 C1035 0.949 . S
H1060 C1037 0.950 . S
H1061 C1039 0.950 . S
C1062 C1063 1.349 . S
C1062 C1064 1.327 . S
C1062 H1087 0.950 . S
C1063 C1062 1.349 . S
C1063 C1079 1.349 . S
C1064 C1062 1.327 . S
C1064 C1083 1.429 . S
C1064 H1088 0.950 . S
C1065 C1082 1.574 . S
C1065 C1084 1.368 . S
C1065 H1089 0.949 . S
H1066 C1070 0.949 . S
C1067 C1068 1.349 . S
C1067 C1069 1.327 . S
C1067 H1090 0.950 . S
C1068 C1067 1.349 . S
C1068 C1080 1.349 . S
C1069 C1067 1.327 . S
C1069 C1085 1.429 . S
C1069 H1091 0.950 . S
C1070 H1066 0.949 . S
C1070 C1078 1.574 . S
C1070 C1086 1.368 . S
H1071 C1079 0.950 . S
H1072 C1077 0.950 . S
H1073 C1078 0.949 . S
H1074 C1080 0.950 . S
H1075 C1081 0.950 . S
H1076 C1082 0.949 . S
C1077 H1072 0.950 . S
C1077 C1079 1.327 . S
C1077 C1083 1.429 . S
C1078 C1070 1.574 . S
C1078 H1073 0.949 . S
C1078 C1084 1.368 . S
C1079 C1063 1.349 . S
C1079 H1071 0.950 . S
C1079 C1077 1.327 . S
C1080 C1068 1.349 . S
C1080 H1074 0.950 . S
C1080 C1081 1.327 . S
C1081 H1075 0.950 . S
C1081 C1080 1.327 . S
C1081 C1085 1.429 . S
C1082 C1065 1.574 . S
C1082 H1076 0.949 . S
C1082 C1086 1.368 . S
C1083 C1064 1.429 . S
C1083 C1077 1.429 . S
C1083 C1084 1.523 . S
C1084 C1065 1.368 . S
C1084 C1078 1.368 . S
C1084 C1083 1.523 . S
C1085 C1069 1.429 . S
C1085 C1081 1.429 . S
C1085 C1086 1.523 . S
C1086 C1070 1.368 . S
C1086 C1082 1.368 . S
C1086 C1085 1.523 . S
H1087 C1062 0.950 . S
H1088 C1064 0.950 . S
H1089 C1065 0.949 . S
H1090 C1067 0.950 . S
H1091 C1069 0.950 . S
C1092 C1093 1.349 . S
C1092 C1094 1.327 . S
C1092 H1117 0.950 . S
C1093 C1092 1.349 . S
C1093 C1109 1.349 . S
C1094 C1092 1.327 . S
C1094 C1113 1.429 . S
C1094 H1118 0.950 . S
C1095 C1112 1.574 . S
C1095 C1114 1.368 . S
C1095 H1119 0.949 . S
H1096 C1100 0.949 . S
C1097 C1098 1.349 . S
C1097 C1099 1.327 . S
C1097 H1120 0.950 . S
C1098 C1097 1.349 . S
C1098 C1110 1.349 . S
C1099 C1097 1.327 . S
C1099 C1115 1.429 . S
C1099 H1121 0.950 . S
C1100 H1096 0.949 . S
C1100 C1108 1.574 . S
C1100 C1116 1.368 . S
H1101 C1109 0.950 . S
H1102 C1107 0.950 . S
H1103 C1108 0.949 . S
H1104 C1110 0.950 . S
H1105 C1111 0.950 . S
H1106 C1112 0.949 . S
C1107 H1102 0.950 . S
C1107 C1109 1.327 . S
C1107 C1113 1.429 . S
C1108 C1100 1.574 . S
C1108 H1103 0.949 . S
C1108 C1114 1.368 . S
C1109 C1093 1.349 . S
C1109 H1101 0.950 . S
C1109 C1107 1.327 . S
C1110 C1098 1.349 . S
C1110 H1104 0.950 . S
C1110 C1111 1.327 . S
C1111 H1105 0.950 . S
C1111 C1110 1.327 . S
C1111 C1115 1.429 . S
C1112 C1095 1.574 . S
C1112 H1106 0.949 . S
C1112 C1116 1.368 . S
C1113 C1094 1.429 . S
C1113 C1107 1.429 . S
C1113 C1114 1.523 . S
C1114 C1095 1.368 . S
C1114 C1108 1.368 . S
C1114 C1113 1.523 . S
C1115 C1099 1.429 . S
C1115 C1111 1.429 . S
C1115 C1116 1.523 . S
C1116 C1100 1.368 . S
C1116 C1112 1.368 . S
C1116 C1115 1.523 . S
H1117 C1092 0.950 . S
H1118 C1094 0.950 . S
H1119 C1095 0.949 . S
H1120 C1097 0.950 . S
H1121 C1099 0.950 . S
C1122 C1123 1.349 . S
C1122 C1124 1.327 . S
C1122 H1147 0.950 . S
C1123 C1122 1.349 . S
C1123 C1139 1.349 . S
C1124 C1122 1.327 . S
C1124 C1143 1.429 . S
C1124 H1148 0.950 . S
C1125 C1142 1.574 . S
C1125 C1144 1.368 . S
C1125 H1149 0.949 . S
H1126 C1130 0.949 . S
C1127 C1128 1.349 . S
C1127 C1129 1.327 . S
C1127 H1150 0.950 . S
C1128 C1127 1.349 . S
C1128 C1140 1.349 . S
C1129 C1127 1.327 . S
C1129 C1145 1.429 . S
C1129 H1151 0.950 . S
C1130 H1126 0.949 . S
C1130 C1138 1.574 . S
C1130 C1146 1.368 . S
H1131 C1139 0.950 . S
H1132 C1137 0.950 . S
H1133 C1138 0.949 . S
H1134 C1140 0.950 . S
H1135 C1141 0.950 . S
H1136 C1142 0.949 . S
C1137 H1132 0.950 . S
C1137 C1139 1.327 . S
C1137 C1143 1.429 . S
C1138 C1130 1.574 . S
C1138 H1133 0.949 . S
C1138 C1144 1.368 . S
C1139 C1123 1.349 . S
C1139 H1131 0.950 . S
C1139 C1137 1.327 . S
C1140 C1128 1.349 . S
C1140 H1134 0.950 . S
C1140 C1141 1.327 . S
C1141 H1135 0.950 . S
C1141 C1140 1.327 . S
C1141 C1145 1.429 . S
C1142 C1125 1.574 . S
C1142 H1136 0.949 . S
C1142 C1146 1.368 . S
C1143 C1124 1.429 . S
C1143 C1137 1.429 . S
C1143 C1144 1.523 . S
C1144 C1125 1.368 . S
C1144 C1138 1.368 . S
C1144 C1143 1.523 . S
C1145 C1129 1.429 . S
C1145 C1141 1.429 . S
C1145 C1146 1.523 . S
C1146 C1130 1.368 . S
C1146 C1142 1.368 . S
C1146 C1145 1.523 . S
H1147 C1122 0.950 . S
H1148 C1124 0.950 . S
H1149 C1125 0.949 . S
H1150 C1127 0.950 . S
H1151 C1129 0.950 . S
C1152 C1153 1.349 1_545 S
C1152 C1154 1.327 . S
C1152 H1177 0.950 . S
C1153 C1152 1.349 1_565 S
C1153 C1169 1.349 1_655 S
C1154 C1152 1.327 . S
C1154 C1173 1.429 1_545 S
C1154 H1178 0.950 . S
C1155 C1172 1.574 1_556 S
C1155 C1174 1.355 1_455 S
C1155 H1179 0.949 . S
H1156 C1160 0.949 . S
C1157 C1158 1.349 1_565 S
C1157 C1159 1.327 . S
C1157 H1180 0.950 . S
C1158 C1157 1.349 1_545 S
C1158 C1170 1.349 1_455 S
C1159 C1157 1.327 . S
C1159 C1175 1.429 1_565 S
C1159 H1181 0.950 . S
C1160 H1156 0.949 . S
C1160 C1168 1.574 1_554 S
C1160 C1176 1.350 1_655 S
H1161 C1169 0.950 . S
H1162 C1167 0.950 . S
H1163 C1168 0.949 . S
H1164 C1170 0.950 . S
H1165 C1171 0.950 . S
H1166 C1172 0.949 . S
C1167 H1162 0.950 . S
C1167 C1169 1.327 . S
C1167 C1173 1.429 1_455 S
C1168 C1160 1.574 1_556 S
C1168 H1163 0.949 . S
C1168 C1174 1.381 1_545 S
C1169 C1153 1.349 1_455 S
C1169 H1161 0.950 . S
C1169 C1167 1.327 . S
C1170 C1158 1.349 1_655 S
C1170 H1164 0.950 . S
C1170 C1171 1.327 . S
C1171 H1165 0.950 . S
C1171 C1170 1.327 . S
C1171 C1175 1.429 1_655 S
C1172 C1155 1.574 1_554 S
C1172 H1166 0.949 . S
C1172 C1176 1.387 1_565 S
C1173 C1154 1.429 1_565 S
C1173 C1167 1.429 1_655 S
C1173 C1174 1.523 . S
C1174 C1155 1.355 1_655 S
C1174 C1168 1.381 1_565 S
C1174 C1173 1.523 . S
C1175 C1159 1.429 1_545 S
C1175 C1171 1.429 1_455 S
C1175 C1176 1.524 . S
C1176 C1160 1.350 1_455 S
C1176 C1172 1.387 1_545 S
C1176 C1175 1.524 . S
H1177 C1152 0.950 . S
H1178 C1154 0.950 . S
H1179 C1155 0.949 . S
H1180 C1157 0.950 . S
H1181 C1159 0.950 . S
C1182 C1183 1.349 . S
C1182 C1184 1.327 . S
C1182 H1207 0.950 . S
C1183 C1182 1.349 . S
C1183 C1199 1.349 . S
C1184 C1182 1.327 . S
C1184 C1203 1.429 . S
C1184 H1208 0.950 . S
C1185 C1202 1.574 . S
C1185 C1204 1.368 . S
C1185 H1209 0.949 . S
H1186 C1190 0.949 . S
C1187 C1188 1.349 . S
C1187 C1189 1.327 . S
C1187 H1210 0.950 . S
C1188 C1187 1.349 . S
C1188 C1200 1.349 . S
C1189 C1187 1.327 . S
C1189 C1205 1.429 . S
C1189 H1211 0.950 . S
C1190 H1186 0.949 . S
C1190 C1198 1.574 . S
C1190 C1206 1.368 . S
H1191 C1199 0.950 . S
H1192 C1197 0.950 . S
H1193 C1198 0.949 . S
H1194 C1200 0.950 . S
H1195 C1201 0.950 . S
H1196 C1202 0.949 . S
C1197 H1192 0.950 . S
C1197 C1199 1.327 . S
C1197 C1203 1.429 . S
C1198 C1190 1.574 . S
C1198 H1193 0.949 . S
C1198 C1204 1.368 . S
C1199 C1183 1.349 . S
C1199 H1191 0.950 . S
C1199 C1197 1.327 . S
C1200 C1188 1.349 . S
C1200 H1194 0.950 . S
C1200 C1201 1.327 . S
C1201 H1195 0.950 . S
C1201 C1200 1.327 . S
C1201 C1205 1.429 . S
C1202 C1185 1.574 . S
C1202 H1196 0.949 . S
C1202 C1206 1.368 . S
C1203 C1184 1.429 . S
C1203 C1197 1.429 . S
C1203 C1204 1.523 . S
C1204 C1185 1.368 . S
C1204 C1198 1.368 . S
C1204 C1203 1.523 . S
C1205 C1189 1.429 . S
C1205 C1201 1.429 . S
C1205 C1206 1.523 . S
C1206 C1190 1.368 . S
C1206 C1202 1.368 . S
C1206 C1205 1.523 . S
H1207 C1182 0.950 . S
H1208 C1184 0.950 . S
H1209 C1185 0.949 . S
H1210 C1187 0.950 . S
H1211 C1189 0.950 . S
C1212 C1213 1.349 1_545 S
C1212 C1214 1.327 . S
C1212 H1237 0.950 . S
C1213 C1212 1.349 1_565 S
C1213 C1229 1.349 . S
C1214 C1212 1.327 . S
C1214 C1233 1.429 1_545 S
C1214 H1238 0.950 . S
C1215 C1232 1.574 . S
C1215 C1234 1.368 . S
C1215 H1239 0.949 . S
H1216 C1220 0.949 . S
C1217 C1218 1.349 1_565 S
C1217 C1219 1.327 . S
C1217 H1240 0.950 . S
C1218 C1217 1.349 1_545 S
C1218 C1230 1.349 . S
C1219 C1217 1.327 . S
C1219 C1235 1.429 1_565 S
C1219 H1241 0.950 . S
C1220 H1216 0.949 . S
C1220 C1228 1.574 . S
C1220 C1236 1.368 . S
H1221 C1229 0.950 . S
H1222 C1227 0.950 . S
H1223 C1228 0.949 . S
H1224 C1230 0.950 . S
H1225 C1231 0.950 . S
H1226 C1232 0.949 . S
C1227 H1222 0.950 . S
C1227 C1229 1.327 . S
C1227 C1233 1.429 . S
C1228 C1220 1.574 . S
C1228 H1223 0.949 . S
C1228 C1234 1.368 1_545 S
C1229 C1213 1.349 . S
C1229 H1221 0.950 . S
C1229 C1227 1.327 . S
C1230 C1218 1.349 . S
C1230 H1224 0.950 . S
C1230 C1231 1.327 . S
C1231 H1225 0.950 . S
C1231 C1230 1.327 . S
C1231 C1235 1.429 . S
C1232 C1215 1.574 . S
C1232 H1226 0.949 . S
C1232 C1236 1.368 1_565 S
C1233 C1214 1.429 1_565 S
C1233 C1227 1.429 . S
C1233 C1234 1.523 . S
C1234 C1215 1.368 . S
C1234 C1228 1.368 1_565 S
C1234 C1233 1.523 . S
C1235 C1219 1.429 1_545 S
C1235 C1231 1.429 . S
C1235 C1236 1.523 . S
C1236 C1220 1.368 . S
C1236 C1232 1.368 1_545 S
C1236 C1235 1.523 . S
H1237 C1212 0.950 . S
H1238 C1214 0.950 . S
H1239 C1215 0.949 . S
H1240 C1217 0.950 . S
H1241 C1219 0.950 . S
C1242 C1243 1.349 . S
C1242 C1244 1.327 . S
C1242 H1267 0.950 . S
C1243 C1242 1.349 . S
C1243 C1259 1.349 . S
C1244 C1242 1.327 . S
C1244 C1263 1.429 . S
C1244 H1268 0.950 . S
C1245 C1262 1.574 . S
C1245 C1264 1.368 . S
C1245 H1269 0.949 . S
H1246 C1250 0.949 . S
C1247 C1248 1.349 . S
C1247 C1249 1.327 . S
C1247 H1270 0.950 . S
C1248 C1247 1.349 . S
C1248 C1260 1.349 . S
C1249 C1247 1.327 . S
C1249 C1265 1.429 . S
C1249 H1271 0.950 . S
C1250 H1246 0.949 . S
C1250 C1258 1.574 . S
C1250 C1266 1.368 . S
H1251 C1259 0.950 . S
H1252 C1257 0.950 . S
H1253 C1258 0.949 . S
H1254 C1260 0.950 . S
H1255 C1261 0.950 . S
H1256 C1262 0.949 . S
C1257 H1252 0.950 . S
C1257 C1259 1.327 . S
C1257 C1263 1.429 . S
C1258 C1250 1.574 . S
C1258 H1253 0.949 . S
C1258 C1264 1.368 . S
C1259 C1243 1.349 . S
C1259 H1251 0.950 . S
C1259 C1257 1.327 . S
C1260 C1248 1.349 . S
C1260 H1254 0.950 . S
C1260 C1261 1.327 . S
C1261 H1255 0.950 . S
C1261 C1260 1.327 . S
C1261 C1265 1.429 . S
C1262 C1245 1.574 . S
C1262 H1256 0.949 . S
C1262 C1266 1.368 . S
C1263 C1244 1.429 . S
C1263 C1257 1.429 . S
C1263 C1264 1.523 . S
C1264 C1245 1.368 . S
C1264 C1258 1.368 . S
C1264 C1263 1.523 . S
C1265 C1249 1.429 . S
C1265 C1261 1.429 . S
C1265 C1266 1.523 . S
C1266 C1250 1.368 . S
C1266 C1262 1.368 . S
C1266 C1265 1.523 . S
H1267 C1242 0.950 . S
H1268 C1244 0.950 . S
H1269 C1245 0.949 . S
H1270 C1247 0.950 . S
H1271 C1249 0.950 . S
C1272 C1273 1.349 . S
C1272 C1274 1.327 . S
C1272 H1297 0.950 . S
C1273 C1272 1.349 . S
C1273 C1289 1.349 . S
C1274 C1272 1.327 . S
C1274 C1293 1.429 . S
C1274 H1298 0.950 . S
C1275 C1292 1.574 . S
C1275 C1294 1.368 . S
C1275 H1299 0.949 . S
H1276 C1280 0.949 . S
C1277 C1278 1.349 . S
C1277 C1279 1.327 . S
C1277 H1300 0.950 . S
C1278 C1277 1.349 . S
C1278 C1290 1.349 . S
C1279 C1277 1.327 . S
C1279 C1295 1.429 . S
C1279 H1301 0.950 . S
C1280 H1276 0.949 . S
C1280 C1288 1.574 . S
C1280 C1296 1.368 . S
H1281 C1289 0.950 . S
H1282 C1287 0.950 . S
H1283 C1288 0.949 . S
H1284 C1290 0.950 . S
H1285 C1291 0.950 . S
H1286 C1292 0.949 . S
C1287 H1282 0.950 . S
C1287 C1289 1.327 . S
C1287 C1293 1.429 . S
C1288 C1280 1.574 . S
C1288 H1283 0.949 . S
C1288 C1294 1.368 . S
C1289 C1273 1.349 . S
C1289 H1281 0.950 . S
C1289 C1287 1.327 . S
C1290 C1278 1.349 . S
C1290 H1284 0.950 . S
C1290 C1291 1.327 . S
C1291 H1285 0.950 . S
C1291 C1290 1.327 . S
C1291 C1295 1.429 . S
C1292 C1275 1.574 . S
C1292 H1286 0.949 . S
C1292 C1296 1.368 . S
C1293 C1274 1.429 . S
C1293 C1287 1.429 . S
C1293 C1294 1.523 . S
C1294 C1275 1.368 . S
C1294 C1288 1.368 . S
C1294 C1293 1.523 . S
C1295 C1279 1.429 . S
C1295 C1291 1.429 . S
C1295 C1296 1.523 . S
C1296 C1280 1.368 . S
C1296 C1292 1.368 . S
C1296 C1295 1.523 . S
H1297 C1272 0.950 . S
H1298 C1274 0.950 . S
H1299 C1275 0.949 . S
H1300 C1277 0.950 . S
H1301 C1279 0.950 . S
C1302 C1303 1.349 . S
C1302 C1304 1.327 . S
C1302 H1327 0.950 . S
C1303 C1302 1.349 . S
C1303 C1319 1.349 . S
C1304 C1302 1.327 . S
C1304 C1323 1.429 . S
C1304 H1328 0.950 . S
C1305 C1322 1.574 . S
C1305 C1324 1.368 . S
C1305 H1329 0.949 . S
H1306 C1310 0.949 . S
C1307 C1308 1.349 . S
C1307 C1309 1.327 . S
C1307 H1330 0.950 . S
C1308 C1307 1.349 . S
C1308 C1320 1.349 . S
C1309 C1307 1.327 . S
C1309 C1325 1.429 . S
C1309 H1331 0.950 . S
C1310 H1306 0.949 . S
C1310 C1318 1.574 . S
C1310 C1326 1.368 . S
H1311 C1319 0.950 . S
H1312 C1317 0.950 . S
H1313 C1318 0.949 . S
H1314 C1320 0.950 . S
H1315 C1321 0.950 . S
H1316 C1322 0.949 . S
C1317 H1312 0.950 . S
C1317 C1319 1.327 . S
C1317 C1323 1.429 . S
C1318 C1310 1.574 . S
C1318 H1313 0.949 . S
C1318 C1324 1.368 . S
C1319 C1303 1.349 . S
C1319 H1311 0.950 . S
C1319 C1317 1.327 . S
C1320 C1308 1.349 . S
C1320 H1314 0.950 . S
C1320 C1321 1.327 . S
C1321 H1315 0.950 . S
C1321 C1320 1.327 . S
C1321 C1325 1.429 . S
C1322 C1305 1.574 . S
C1322 H1316 0.949 . S
C1322 C1326 1.368 . S
C1323 C1304 1.429 . S
C1323 C1317 1.429 . S
C1323 C1324 1.523 . S
C1324 C1305 1.368 . S
C1324 C1318 1.368 . S
C1324 C1323 1.523 . S
C1325 C1309 1.429 . S
C1325 C1321 1.429 . S
C1325 C1326 1.523 . S
C1326 C1310 1.368 . S
C1326 C1322 1.368 . S
C1326 C1325 1.523 . S
H1327 C1302 0.950 . S
H1328 C1304 0.950 . S
H1329 C1305 0.949 . S
H1330 C1307 0.950 . S
H1331 C1309 0.950 . S
C1332 C1333 1.349 . S
C1332 C1334 1.327 . S
C1332 H1357 0.950 . S
C1333 C1332 1.349 . S
C1333 C1349 1.349 . S
C1334 C1332 1.327 . S
C1334 C1353 1.429 . S
C1334 H1358 0.950 . S
C1335 C1352 1.574 . S
C1335 C1354 1.368 . S
C1335 H1359 0.949 . S
H1336 C1340 0.949 . S
C1337 C1338 1.349 . S
C1337 C1339 1.327 . S
C1337 H1360 0.950 . S
C1338 C1337 1.349 . S
C1338 C1350 1.349 . S
C1339 C1337 1.327 . S
C1339 C1355 1.429 . S
C1339 H1361 0.950 . S
C1340 H1336 0.949 . S
C1340 C1348 1.574 . S
C1340 C1356 1.368 . S
H1341 C1349 0.950 . S
H1342 C1347 0.950 . S
H1343 C1348 0.949 . S
H1344 C1350 0.950 . S
H1345 C1351 0.950 . S
H1346 C1352 0.949 . S
C1347 H1342 0.950 . S
C1347 C1349 1.327 . S
C1347 C1353 1.429 . S
C1348 C1340 1.574 . S
C1348 H1343 0.949 . S
C1348 C1354 1.368 . S
C1349 C1333 1.349 . S
C1349 H1341 0.950 . S
C1349 C1347 1.327 . S
C1350 C1338 1.349 . S
C1350 H1344 0.950 . S
C1350 C1351 1.327 . S
C1351 H1345 0.950 . S
C1351 C1350 1.327 . S
C1351 C1355 1.429 . S
C1352 C1335 1.574 . S
C1352 H1346 0.949 . S
C1352 C1356 1.368 . S
C1353 C1334 1.429 . S
C1353 C1347 1.429 . S
C1353 C1354 1.523 . S
C1354 C1335 1.368 . S
C1354 C1348 1.368 . S
C1354 C1353 1.523 . S
C1355 C1339 1.429 . S
C1355 C1351 1.429 . S
C1355 C1356 1.523 . S
C1356 C1340 1.368 . S
C1356 C1352 1.368 . S
C1356 C1355 1.523 . S
H1357 C1332 0.950 . S
H1358 C1334 0.950 . S
H1359 C1335 0.949 . S
H1360 C1337 0.950 . S
H1361 C1339 0.950 . S
C1362 C1363 1.349 . S
C1362 C1364 1.327 . S
C1362 H1387 0.950 . S
C1363 C1362 1.349 . S
C1363 C1379 1.349 1_655 S
C1364 C1362 1.327 . S
C1364 C1383 1.429 . S
C1364 H1388 0.950 . S
C1365 C1382 1.574 1_556 S
C1365 C1384 1.351 1_455 S
C1365 H1389 0.949 . S
H1366 C1370 0.949 . S
C1367 C1368 1.349 . S
C1367 C1369 1.327 . S
C1367 H1390 0.950 . S
C1368 C1367 1.349 . S
C1368 C1380 1.349 1_455 S
C1369 C1367 1.327 . S
C1369 C1385 1.429 . S
C1369 H1391 0.950 . S
C1370 H1366 0.949 . S
C1370 C1378 1.574 1_554 S
C1370 C1386 1.343 1_655 S
H1371 C1379 0.950 . S
H1372 C1377 0.950 . S
H1373 C1378 0.949 . S
H1374 C1380 0.950 . S
H1375 C1381 0.950 . S
H1376 C1382 0.949 . S
C1377 H1372 0.950 . S
C1377 C1379 1.327 . S
C1377 C1383 1.429 1_455 S
C1378 C1370 1.574 1_556 S
C1378 H1373 0.949 . S
C1378 C1384 1.386 . S
C1379 C1363 1.349 1_455 S
C1379 H1371 0.950 . S
C1379 C1377 1.327 . S
C1380 C1368 1.349 1_655 S
C1380 H1374 0.950 . S
C1380 C1381 1.327 . S
C1381 H1375 0.950 . S
C1381 C1380 1.327 . S
C1381 C1385 1.429 1_655 S
C1382 C1365 1.574 1_554 S
C1382 H1376 0.949 . S
C1382 C1386 1.393 . S
C1383 C1364 1.429 . S
C1383 C1377 1.429 1_655 S
C1383 C1384 1.523 . S
C1384 C1365 1.351 1_655 S
C1384 C1378 1.386 . S
C1384 C1383 1.523 . S
C1385 C1369 1.429 . S
C1385 C1381 1.429 1_455 S
C1385 C1386 1.524 . S
C1386 C1370 1.343 1_455 S
C1386 C1382 1.393 . S
C1386 C1385 1.524 . S
H1387 C1362 0.950 . S
H1388 C1364 0.950 . S
H1389 C1365 0.949 . S
H1390 C1367 0.950 . S
H1391 C1369 0.950 . S
C673 C67 1.614 . S
C678 C319 1.607 . S
C703 C75 1.471 . S
C708 C151 1.454 . S
C733 C159 1.311 . S
C738 C243 1.317 . S
C763 C235 1.456 . S
C768 C327 1.467 . S
C793 C56 1.614 . S
C798 C476 1.621 . S
C823 C66 1.471 . S
C828 C392 1.457 . S
C853 C402 1.311 . S
C858 C234 1.306 . S
C883 C486 1.471 . S
C888 C224 1.460 . S
C913 C571 1.614 . S
C918 C487 1.615 . S
C943 C403 1.456 . S
C948 C579 1.470 . S
C973 C663 1.311 . S
C978 C411 1.315 . S
C1003 C495 1.471 . S
C1008 C655 1.458 . S
C1033 C308 1.614 . S
C1038 C560 1.613 . S
C1063 C570 1.471 . S
C1068 C140 1.456 . S
C1093 C150 1.311 . S
C1098 C654 1.309 . S
C1123 C318 1.471 . S
C1128 C644 1.453 . S
C1153 C63 1.536 1_565 S
C1158 C72 1.536 1_545 S
C1183 C156 1.534 . S
C1188 C147 1.534 . S
C1213 C231 1.534 1_565 S
C1218 C240 1.534 1_545 S
C1243 C315 1.536 . S
C1248 C324 1.536 . S
C1273 C408 1.534 . S
C1278 C399 1.534 . S
C1303 C483 1.536 . S
C1308 C492 1.536 . S
C1333 C576 1.536 . S
C1338 C567 1.536 . S
C1363 C660 1.534 . S
C1368 C651 1.534 . S
