# Generated by pormake.
# Topology noo, (5)-cn, num edge types: 1
# Building blocks:
#     Node 0, Type 0, BuildingBlock: XOMCOT_clean_sbu_0, # of connection points: 5
#     Node 1, Type 0, BuildingBlock: XOMCOT_clean_sbu_0, # of connection points: 5
#     Node 2, Type 0, BuildingBlock: XOMCOT_clean_sbu_0, # of connection points: 5
#     Node 3, Type 0, BuildingBlock: XOMCOT_clean_sbu_0, # of connection points: 5
#     Node 4, Type 0, BuildingBlock: XOMCOT_clean_sbu_0, # of connection points: 5
#     Node 5, Type 0, BuildingBlock: XOMCOT_clean_sbu_0, # of connection points: 5
#     Node 6, Type 0, BuildingBlock: XOMCOT_clean_sbu_0, # of connection points: 5
#     Node 7, Type 0, BuildingBlock: XOMCOT_clean_sbu_0, # of connection points: 5
#     Edge 8, Type (0, 0), BuildingBlock: XUDNAN_clean_linker_2, # of connection points: 2
#     Edge 9, Type (0, 0), BuildingBlock: XUDNAN_clean_linker_2, # of connection points: 2
#     Edge 10, Type (0, 0), BuildingBlock: XUDNAN_clean_linker_2, # of connection points: 2
#     Edge 11, Type (0, 0), BuildingBlock: XUDNAN_clean_linker_2, # of connection points: 2
#     Edge 12, Type (0, 0), BuildingBlock: XUDNAN_clean_linker_2, # of connection points: 2
#     Edge 13, Type (0, 0), BuildingBlock: XUDNAN_clean_linker_2, # of connection points: 2
#     Edge 14, Type (0, 0), BuildingBlock: XUDNAN_clean_linker_2, # of connection points: 2
#     Edge 15, Type (0, 0), BuildingBlock: XUDNAN_clean_linker_2, # of connection points: 2
#     Edge 16, Type (0, 0), BuildingBlock: XUDNAN_clean_linker_2, # of connection points: 2
#     Edge 17, Type (0, 0), BuildingBlock: XUDNAN_clean_linker_2, # of connection points: 2
#     Edge 18, Type (0, 0), BuildingBlock: XUDNAN_clean_linker_2, # of connection points: 2
#     Edge 19, Type (0, 0), BuildingBlock: XUDNAN_clean_linker_2, # of connection points: 2
#     Edge 20, Type (0, 0), BuildingBlock: XUDNAN_clean_linker_2, # of connection points: 2
#     Edge 21, Type (0, 0), BuildingBlock: XUDNAN_clean_linker_2, # of connection points: 2
#     Edge 22, Type (0, 0), BuildingBlock: XUDNAN_clean_linker_2, # of connection points: 2
#     Edge 23, Type (0, 0), BuildingBlock: XUDNAN_clean_linker_2, # of connection points: 2
#     Edge 24, Type (0, 0), BuildingBlock: XUDNAN_clean_linker_2, # of connection points: 2
#     Edge 25, Type (0, 0), BuildingBlock: XUDNAN_clean_linker_2, # of connection points: 2
#     Edge 26, Type (0, 0), BuildingBlock: XUDNAN_clean_linker_2, # of connection points: 2
#     Edge 27, Type (0, 0), BuildingBlock: XUDNAN_clean_linker_2, # of connection points: 2
# Relax obj value: 0.061
# Max RMSD: 0.110
# Mean RMSD: 0.110
data_MOF--net-noo--node1-XOMCOT_clean_sbu_0--edge1-XUDNAN_clean_linker_2
_symmetry_space_group_name_H-M    P1
_symmetry_Int_Tables_number       1
_symmetry_cell_setting            triclinic
loop_
_symmetry_equiv_pos_as_xyz
'x, y, z'
_cell_length_a     39.234239
_cell_length_b     39.263882
_cell_length_c     29.905682
_cell_angle_alpha  90.13707
_cell_angle_beta   89.888559
_cell_angle_gamma 89.882812
loop_
_atom_site_label
_atom_site_type_symbol
_atom_site_fract_x
_atom_site_fract_y
_atom_site_fract_z
_atom_type_partial_charge
Co0 Co 0.43625 0.23084 0.06224 0.0
C1 C 0.47238 0.16286 0.05564 0.0
C2 C 0.4947 0.19647 0.10386 0.0
C3 C 0.51123 0.16553 0.10606 0.0
N4 N 0.47009 0.19493 0.07242 0.0
N5 N 0.49719 0.14449 0.07568 0.0
H6 H 0.45593 0.15238 0.03041 0.0
H7 H 0.49984 0.21847 0.12459 0.0
C8 C 0.50256 0.25688 0.02592 0.0
O9 O 0.50768 0.22677 1.00785 0.0
N10 N 0.40222 0.26629 0.05313 0.0
C11 C 0.36847 0.26077 0.04914 0.0
C12 C 0.35225 0.29133 0.0419 0.0
C13 C 0.40613 0.30032 0.04766 0.0
N14 N 0.37584 0.31624 0.04088 0.0
C15 C 0.40833 0.18743 0.9944 0.0
C16 C 0.42222 0.22934 0.92267 0.0
C17 C 0.40288 0.19983 0.91551 0.0
C18 C 0.39647 0.17847 0.95193 0.0
C19 C 0.43428 0.237 0.9656 0.0
N20 N 0.42772 0.21591 1.0009 0.0
H21 H 0.40098 0.17181 0.02245 0.0
H22 H 0.44709 0.26097 0.97064 0.0
H23 H 0.35642 0.23605 0.05053 0.0
H24 H 0.43048 0.31318 0.04852 0.0
O25 O 0.40268 0.20323 0.09383 0.0
O26 O 0.4367 0.24113 0.12532 0.0
O27 O 0.47405 0.26353 0.04493 0.0
C28 C 0.41285 0.21851 0.13009 0.0
H29 H 0.53189 0.15894 0.12839 0.0
H30 H 0.32521 0.29478 0.03636 0.0
H31 H 0.42718 0.24689 0.89554 0.0
H32 H 0.3808 0.15596 0.94813 0.0
Co33 Co 0.80948 0.4341 0.05685 0.0
C34 C 0.87657 0.47146 0.05651 0.0
C35 C 0.85237 0.47247 0.12071 0.0
C36 C 0.88354 0.48833 0.12422 0.0
N37 N 0.84808 0.46117 0.07837 0.0
N38 N 0.8987 0.48763 0.08382 0.0
H39 H 0.88173 0.46702 0.02159 0.0
H40 H 0.83434 0.46918 0.14771 0.0
C41 C 0.75345 0.4874 0.03931 0.0
O42 O 0.73547 0.4664 0.01466 0.0
N43 N 0.77129 0.40645 0.03575 0.0
C44 C 0.77267 0.38503 1.00045 0.0
C45 C 0.74252 0.36771 0.99711 0.0
C46 C 0.74011 0.40096 0.05425 0.0
N47 N 0.72187 0.37753 0.03083 0.0
C48 C 0.85295 0.41626 0.98356 0.0
C49 C 0.8216 0.45412 0.91781 0.0
C50 C 0.84805 0.43173 0.90543 0.0
C51 C 0.8642 0.41333 0.93944 0.0
C52 C 0.81137 0.4567 0.96272 0.0
N53 N 0.82651 0.43737 0.99507 0.0
H54 H 0.86583 0.40136 0.00862 0.0
H55 H 0.79072 0.4736 0.97057 0.0
H56 H 0.7943 0.3814 0.97864 0.0
H57 H 0.73113 0.41359 0.08426 0.0
O58 O 0.83279 0.39267 0.07398 0.0
O59 O 0.7987 0.42201 0.11851 0.0
O60 O 0.78265 0.47847 0.05443 0.0
C61 C 0.81949 0.39641 0.11344 0.0
H62 H 0.8942 0.49955 0.15417 0.0
H63 H 0.73626 0.34936 0.97137 0.0
H64 H 0.80809 0.46884 0.89292 0.0
H65 H 0.88544 0.39654 0.93221 0.0
Co66 Co 0.60111 0.80828 0.05974 0.0
C67 C 0.5772 0.88053 0.06064 0.0
C68 C 0.55579 0.85138 0.11438 0.0
C69 C 0.54395 0.8844 0.11766 0.0
N70 N 0.57668 0.84895 0.0787 0.0
N71 N 0.5573 0.90262 0.08373 0.0
H72 H 0.59204 0.88744 0.03155 0.0
H73 H 0.54956 0.83052 0.13649 0.0
C74 C 0.54501 0.75914 0.03211 0.0
O75 O 0.5635 0.74837 0.99832 0.0
N76 N 0.62585 0.76698 0.04063 0.0
C77 C 0.63489 0.75846 0.99832 0.0
C78 C 0.64965 0.72682 0.99802 0.0
C79 C 0.63595 0.73984 0.06558 0.0
N80 N 0.65035 0.71498 0.04011 0.0
C81 C 0.62841 0.83789 0.98026 0.0
C82 C 0.57059 0.83477 0.92795 0.0
C83 C 0.60114 0.84637 0.90879 0.0
C84 C 0.62996 0.84879 0.93598 0.0
C85 C 0.5699 0.82481 0.97301 0.0
N86 N 0.59909 0.82462 0.99791 0.0
H87 H 0.65154 0.83858 0.99961 0.0
H88 H 0.54591 0.81725 0.98746 0.0
H89 H 0.62978 0.77291 0.96853 0.0
H90 H 0.63206 0.7378 0.1013 0.0
O91 O 0.64355 0.82952 0.07718 0.0
O92 O 0.6114 0.7987 0.12217 0.0
O93 O 0.55581 0.78328 0.05715 0.0
C94 C 0.63835 0.81758 0.11704 0.0
H95 H 0.5263 0.89409 0.1425 0.0
H96 H 0.65904 0.71337 0.96883 0.0
H97 H 0.54751 0.83331 0.90823 0.0
H98 H 0.65408 0.85748 0.92255 0.0
Co99 Co 0.23124 0.59385 0.03511 0.0
C100 C 0.15993 0.56962 0.04209 0.0
C101 C 0.19464 0.53692 0.07722 0.0
C102 C 0.16201 0.52461 0.08279 0.0
N103 N 0.19326 0.56509 0.05169 0.0
N104 N 0.14027 0.54513 0.06053 0.0
H105 H 0.15018 0.59066 0.02261 0.0
H106 H 0.21776 0.52621 0.091 0.0
C107 C 0.28239 0.54581 0.99096 0.0
O108 O 0.29225 0.56978 0.96341 0.0
N109 N 0.26987 0.62325 0.01855 0.0
C110 C 0.27553 0.63833 0.97854 0.0
C111 C 0.3062 0.65495 0.9794 0.0
C112 C 0.2977 0.63155 0.04333 0.0
N113 N 0.32025 0.65073 0.01996 0.0
C114 C 0.19634 0.63031 0.96612 0.0
C115 C 0.19109 0.5775 0.90528 0.0
C116 C 0.17787 0.60958 0.89373 0.0
C117 C 0.18053 0.63607 0.92498 0.0
C118 C 0.20731 0.57293 0.94667 0.0
N119 N 0.21061 0.59945 0.97603 0.0
H120 H 0.19807 0.65113 0.98965 0.0
H121 H 0.21656 0.54789 0.95525 0.0
H122 H 0.25993 0.63608 0.94912 0.0
H123 H 0.30197 0.62298 0.07721 0.0
O124 O 0.20932 0.6316 0.06652 0.0
O125 O 0.24518 0.59493 0.09698 0.0
O126 O 0.25772 0.55117 0.01811 0.0
C127 C 0.2248 0.62077 0.10227 0.0
H128 H 0.15488 0.50201 0.10121 0.0
H129 H 0.31753 0.66886 0.95192 0.0
H130 H 0.18917 0.55618 0.88239 0.0
H131 H 0.17007 0.66104 0.91794 0.0
Co132 Co 0.93965 0.30135 0.46324 0.0
C133 C 0.96357 0.37192 0.44761 0.0
C134 C 1.00588 0.33823 0.45769 0.0
C135 C 0.01814 0.37096 0.45288 0.0
N136 N 0.97158 0.33877 0.45435 0.0
N137 N 0.99151 0.39209 0.4464 0.0
H138 H 0.93773 0.38132 0.4447 0.0
H139 H 0.02118 0.31587 0.46369 0.0
C140 C 0.98216 0.24727 0.51234 0.0
O141 O 0.95695 0.24017 0.53974 0.0
N142 N 0.9065 0.2646 0.47208 0.0
C143 C 0.87302 0.26935 0.48057 0.0
C144 C 0.85687 0.23841 0.48229 0.0
C145 C 0.90986 0.23031 0.46735 0.0
N146 N 0.87996 0.21374 0.47431 0.0
C147 C 0.90143 0.3395 0.52775 0.0
C148 C 0.94569 0.33364 0.59897 0.0
C149 C 0.91588 0.353 0.60432 0.0
C150 C 0.89377 0.35589 0.56795 0.0
C151 C 0.95276 0.31804 0.55761 0.0
N152 N 0.93009 0.31996 0.52293 0.0
H153 H 0.88445 0.3436 0.50006 0.0
H154 H 0.97709 0.30573 0.55342 0.0
H155 H 0.86055 0.29364 0.48438 0.0
H156 H 0.93349 0.21769 0.45858 0.0
O157 O 0.90558 0.32607 0.42876 0.0
O158 O 0.94253 0.28944 0.40038 0.0
O159 O 0.97897 0.27116 0.48359 0.0
C160 C 0.91743 0.31047 0.39365 0.0
H161 H 0.04464 0.37855 0.4535 0.0
H162 H 0.83017 0.23437 0.48973 0.0
H163 H 0.96402 0.33174 0.6259 0.0
H164 H 0.87073 0.37104 0.57039 0.0
Co165 Co 0.72855 0.93872 0.4661 0.0
C166 C 0.66143 0.97673 0.47054 0.0
C167 C 0.68685 0.98375 0.4079 0.0
C168 C 0.65511 0.99874 0.40551 0.0
N169 N 0.69082 0.96908 0.44842 0.0
N170 N 0.63902 0.99414 0.44483 0.0
H171 H 0.6557 0.96911 0.50432 0.0
H172 H 0.70521 0.98288 0.38095 0.0
C173 C 0.78329 0.98391 0.50748 0.0
O174 O 0.79645 0.95764 0.52834 0.0
N175 N 0.76565 0.90774 0.48275 0.0
C176 C 0.76429 0.88297 0.51394 0.0
C177 C 0.79521 0.86649 0.51562 0.0
C178 C 0.79733 0.9049 0.46463 0.0
N179 N 0.81613 0.8803 0.48484 0.0
C180 C 0.67884 0.90959 0.52382 0.0
C181 C 0.70349 0.93252 0.60478 0.0
C182 C 0.67572 0.90982 0.60486 0.0
C183 C 0.66285 0.89956 0.56322 0.0
C184 C 0.7181 0.94311 0.56412 0.0
N185 N 0.70636 0.93088 0.52415 0.0
H186 H 0.66837 0.90061 0.49266 0.0
H187 H 0.73929 0.96029 0.56544 0.0
H188 H 0.74233 0.87671 0.53407 0.0
H189 H 0.80675 0.92116 0.4382 0.0
O190 O 0.70782 0.90167 0.4327 0.0
O191 O 0.74511 0.93791 0.4048 0.0
O192 O 0.75501 0.9809 0.48633 0.0
C193 C 0.72521 0.91189 0.39831 0.0
H194 H 0.64452 1.01164 0.37674 0.0
H195 H 0.80157 0.8454 0.53732 0.0
H196 H 0.71463 0.94142 0.63573 0.0
H197 H 0.64049 0.88362 0.56057 0.0
Co198 Co 0.09382 0.72222 0.44509 0.0
C199 C 0.06016 0.65349 0.43846 0.0
C200 C 0.02719 0.69472 0.41958 0.0
C201 C 1.00992 0.66471 0.41409 0.0
N202 N 0.05865 0.68797 0.43516 0.0
N203 N 0.03056 0.63855 0.4254 0.0
H204 H 0.08267 0.63968 0.44887 0.0
H205 H 0.01739 0.71971 0.41168 0.0
C206 C 0.04358 0.77506 0.48361 0.0
O207 O 0.05727 0.774 0.52361 0.0
N208 N 0.12941 0.75725 0.45323 0.0
C209 C 0.16331 0.75201 0.44817 0.0
C210 C 0.18048 0.78196 0.45452 0.0
C211 C 0.12675 0.79131 0.46133 0.0
N212 N 0.15768 0.80681 0.46292 0.0
C213 C 0.12576 0.70603 0.52847 0.0
C214 C 0.06771 0.69051 0.57648 0.0
C215 C 0.09962 0.68639 0.5971 0.0
C216 C 0.12877 0.69455 0.57239 0.0
C217 C 0.06578 0.70273 0.53236 0.0
N218 N 0.09467 0.71091 0.50898 0.0
H219 H 0.14883 0.7094 0.50965 0.0
H220 H 0.04104 0.70523 0.51687 0.0
H221 H 0.17533 0.72793 0.44043 0.0
H222 H 0.10297 0.80476 0.4656 0.0
O223 O 0.12776 0.68981 0.42528 0.0
O224 O 0.10023 0.72533 0.38064 0.0
O225 O 0.05646 0.75792 0.45128 0.0
C226 C 0.12285 0.70121 0.38497 0.0
H227 H 0.98396 0.66255 0.40233 0.0
H228 H 0.20779 0.78531 0.45197 0.0
H229 H 0.04446 0.68417 0.59416 0.0
H230 H 0.15398 0.69058 0.58616 0.0
Co231 Co 0.3022 0.09439 0.47115 0.0
C232 C 0.37279 0.0639 0.47807 0.0
C233 C 0.34083 0.03757 0.43155 0.0
C234 C 0.37324 0.024 0.42888 0.0
N235 N 0.34031 0.0626 0.46256 0.0
N236 N 0.39333 0.04059 0.45817 0.0
H237 H 0.38215 0.08239 0.50157 0.0
H238 H 0.31931 0.03048 0.41101 0.0
C239 C 0.27485 0.02587 0.49751 0.0
O240 O 0.30361 0.02057 0.51885 0.0
N241 N 0.26462 0.12667 0.47863 0.0
C242 C 0.26843 0.16059 0.48395 0.0
C243 C 0.23689 0.17554 0.48797 0.0
C244 C 0.23044 0.12143 0.48047 0.0
N245 N 0.21296 0.15106 0.48588 0.0
C246 C 0.33831 0.1184 0.54769 0.0
C247 C 0.29191 0.09873 0.6121 0.0
C248 C 0.3202 0.1182 0.62475 0.0
C249 C 0.34365 0.12771 0.59206 0.0
C250 C 0.28765 0.0895 0.56698 0.0
N251 N 0.3111 0.09884 0.53531 0.0
H252 H 0.35546 0.12866 0.52305 0.0
H253 H 0.26448 0.07669 0.55742 0.0
H254 H 0.29256 0.17377 0.48537 0.0
H255 H 0.21852 0.09669 0.47772 0.0
O256 O 0.3311 0.13073 0.4503 0.0
O257 O 0.29908 0.09904 0.40615 0.0
O258 O 0.26944 0.05468 0.47877 0.0
C259 C 0.32086 0.12386 0.4101 0.0
H260 H 0.38148 1.00382 0.4066 0.0
H261 H 0.23193 0.2024 0.49322 0.0
H262 H 0.27256 0.09208 0.63641 0.0
H263 H 0.36512 0.14384 0.60041 0.0
H264 H 0.54791 0.95462 0.14271 0.0
H265 H 0.55046 0.93038 1.00133 0.0
H266 H 0.53524 0.99009 0.98348 0.0
H267 H 0.47747 1.01245 0.14029 0.0
H268 H 0.49526 0.04139 0.18085 0.0
H269 H 0.50644 0.9969 0.18231 0.0
H270 H 0.57045 1.01249 0.1773 0.0
H271 H 0.55947 0.05705 0.17597 0.0
H272 H 0.58525 0.03887 0.132 0.0
H273 H 0.51603 0.05199 0.98162 0.0
H274 H 0.50015 0.11226 0.9956 0.0
H275 H 0.51364 0.09689 0.13785 0.0
C276 C 0.54527 0.96195 0.10802 0.0
C277 C 0.55023 0.93785 0.07335 0.0
C278 C 0.54701 0.94848 0.02833 0.0
C279 C 0.53818 0.98228 0.01794 0.0
C280 C 0.53316 1.00534 0.05293 0.0
C281 C 0.53708 0.99572 0.09707 0.0
C282 C 0.53105 0.02558 0.12841 0.0
C283 C 0.50075 0.01866 0.15981 0.0
C284 C 0.56349 0.03399 0.15498 0.0
C285 C 0.52272 0.05344 0.0951 0.0
C286 C 0.52372 0.04119 0.05174 0.0
C287 C 0.51554 0.0619 0.01542 0.0
C288 C 0.5064 0.09601 0.02362 0.0
C289 C 0.50599 0.10927 0.06768 0.0
C290 C 0.51431 0.08757 0.10376 0.0
H291 H 0.95477 0.48713 0.13701 0.0
H292 H 0.91901 0.51527 1.00511 0.0
H293 H 0.977 0.53504 0.98536 0.0
H294 H 1.01441 0.55694 0.15201 0.0
H295 H 0.04562 0.53085 0.17992 0.0
H296 H 1.00101 0.52055 0.18417 0.0
H297 H 1.01348 0.45979 0.15426 0.0
H298 H 0.0581 0.46991 0.14985 0.0
H299 H 0.0353 0.45464 0.10155 0.0
H300 H 0.03925 0.55191 0.98034 0.0
H301 H 0.10133 0.56098 0.98868 0.0
H302 H 0.0967 0.51987 0.12295 0.0
C303 C 0.95906 0.49789 0.1042 0.0
C304 C 0.93231 0.49991 0.07266 0.0
C305 C 0.93914 0.51338 0.02968 0.0
C306 C 0.97194 0.52482 0.01829 0.0
C307 C 0.99776 0.52235 0.05012 0.0
C308 C 0.99173 0.509 0.09212 0.0
C309 C 0.02417 0.50771 0.11954 0.0
C310 C 0.02111 0.53037 0.16138 0.0
C311 C 0.03329 0.47082 0.13202 0.0
C312 C 0.04946 0.52228 0.08638 0.0
C313 C 0.03368 0.53096 0.04672 0.0
C314 C 0.05184 0.54518 0.01125 0.0
C315 C 0.08704 0.55041 0.01635 0.0
C316 C 0.10386 0.54106 0.05638 0.0
C317 C 0.08463 0.52692 0.0918 0.0
H318 H 0.03604 0.43848 0.48165 0.0
H319 H 0.94984 0.42796 0.39214 0.0
H320 H 0.95219 0.48952 0.37584 0.0
H321 H 1.01058 0.52027 0.52729 0.0
H322 H 0.05342 0.53645 0.5314 0.0
H323 H 0.04575 0.49133 0.53538 0.0
H324 H 0.08819 0.48058 0.47044 0.0
H325 H 0.09588 0.52569 0.46613 0.0
H326 H 0.08195 0.502 0.41782 0.0
H327 H 0.96466 0.55111 0.36714 0.0
H328 H 0.98278 0.6106 0.37093 0.0
H329 H 0.05941 0.58406 0.46969 0.0
C330 C 0.0178 0.44919 0.45847 0.0
C331 C 0.99273 0.42834 0.43803 0.0
C332 C 0.969 0.4434 0.40843 0.0
C333 C 0.97031 0.47832 0.39876 0.0
C334 C 0.99531 0.49809 0.41929 0.0
C335 C 0.01843 0.48428 0.44892 0.0
C336 C 0.04189 0.51176 0.46746 0.0
C337 C 0.03765 0.51515 0.51841 0.0
C338 C 0.07919 0.50457 0.45469 0.0
C339 C 0.02837 0.54311 0.44343 0.0
C340 C 1.00171 0.53434 0.41558 0.0
C341 C 0.98519 0.55836 0.38931 0.0
C342 C 0.99562 0.59236 0.39207 0.0
C343 C 0.02215 0.60265 0.4214 0.0
C344 C 0.03906 0.57733 0.44699 0.0
H345 H 0.5849 0.99637 0.38781 0.0
H346 H 0.61352 1.01169 0.52632 0.0
H347 H 0.55364 0.02604 0.54491 0.0
H348 H 0.52226 0.06408 0.38132 0.0
H349 H 0.49374 0.04006 0.34621 0.0
H350 H 0.53893 0.03207 0.34385 0.0
H351 H 0.52835 0.96832 0.36094 0.0
H352 H 0.48314 0.97612 0.36347 0.0
H353 H 0.50455 0.9567 0.41022 0.0
H354 H 0.4901 0.03979 0.54784 0.0
H355 H 0.42826 0.04843 0.53576 0.0
H356 H 0.44087 0.02209 0.39586 0.0
C357 C 0.57869 1.00315 0.42196 0.0
C358 C 0.6041 1.00315 0.45558 0.0
C359 C 0.59459 1.01139 0.50006 0.0
C360 C 0.56063 0.01972 0.51086 0.0
C361 C 0.53624 0.01941 0.47692 0.0
C362 C 0.54484 1.01111 0.43339 0.0
C363 C 0.51367 1.01154 0.40337 0.0
C364 C 0.51738 0.03855 0.36651 0.0
C365 C 0.50704 0.97606 0.38333 0.0
C366 C 0.48614 0.0214 0.43672 0.0
C367 C 0.4997 0.02615 0.47889 0.0
C368 C 0.47927 0.03601 0.51495 0.0
C369 C 0.44417 0.041 0.50777 0.0
C370 C 0.42958 0.03578 0.46498 0.0
C371 C 0.45107 0.02582 0.42911 0.0
H372 H 0.26391 0.48599 0.03292 0.0
H373 H 0.3444 0.53121 0.95308 0.0
H374 H 0.37791 0.47814 0.95913 0.0
H375 H 0.31768 0.43913 0.10779 0.0
H376 H 0.29011 0.40251 0.11018 0.0
H377 H 0.27241 0.4441 0.09975 0.0
H378 H 0.24472 0.42192 0.02675 0.0
H379 H 0.26214 0.38021 0.0371 0.0
H380 H 0.27099 0.40148 0.98503 0.0
H381 H 0.40381 0.42014 0.97614 0.0
H382 H 0.4172 0.36054 0.9969 0.0
H383 H 0.31931 0.35271 0.06354 0.0
C384 C 0.28853 0.48472 0.01655 0.0
C385 C 0.30145 0.51294 0.99252 0.0
C386 C 0.33377 0.51002 0.9715 0.0
C387 C 0.35314 0.47997 0.97494 0.0
C388 C 0.33982 0.45279 0.99922 0.0
C389 C 0.30807 0.45475 0.01922 0.0
C390 C 0.29925 0.42162 0.04249 0.0
C391 C 0.2946 0.42719 0.09305 0.0
C392 C 0.26739 0.40535 0.02158 0.0
C393 C 0.331 0.40076 0.03256 0.0
C394 C 0.35427 0.41926 1.00793 0.0
C395 C 0.38568 0.4054 0.9953 0.0
C396 C 0.39321 0.3716 1.0075 0.0
C397 C 0.36932 0.35184 0.03169 0.0
C398 C 0.33797 0.36696 0.04461 0.0
H399 H 0.56892 0.24746 0.99915 0.0
H400 H 0.5016 0.32221 0.06004 0.0
H401 H 0.55054 0.36118 0.07015 0.0
H402 H 0.63974 0.26168 0.07117 0.0
H403 H 0.67117 0.25569 0.02781 0.0
H404 H 0.63066 0.23441 0.02411 0.0
H405 H 0.62023 0.26126 0.94622 0.0
H406 H 0.66086 0.28234 0.94949 0.0
H407 H 0.62268 0.30684 0.93991 0.0
H408 H 0.60866 0.3918 0.07494 0.0
H409 H 0.66864 0.41151 0.06977 0.0
H410 H 0.69666 0.31551 1.00776 0.0
C411 C 0.56425 0.27216 0.01417 0.0
C412 C 0.53121 0.28172 0.02858 0.0
C413 C 0.52656 0.31425 0.04851 0.0
C414 C 0.55428 0.33655 0.05455 0.0
C415 C 0.58663 0.32602 0.04062 0.0
C416 C 0.59158 0.2946 0.02062 0.0
C417 C 0.62874 0.28898 0.00891 0.0
C418 C 0.64343 0.25838 0.03454 0.0
C419 C 0.63339 0.28461 0.95812 0.0
C420 C 0.64401 0.32215 0.0252 0.0
C421 C 0.6195 0.34327 0.04357 0.0
C422 C 0.62798 0.37537 0.06057 0.0
C423 C 0.66218 0.3863 0.05785 0.0
C424 C 0.68749 0.36527 0.03812 0.0
C425 C 0.67803 0.33256 0.0224 0.0
H426 H 0.64256 0.65532 0.99604 0.0
H427 H 0.69004 0.70088 0.11215 0.0
H428 H 0.72076 0.64657 0.1267 0.0
H429 H 0.6327 0.56918 0.04365 0.0
H430 H 0.64119 0.5488 0.99071 0.0
H431 H 0.62142 0.59025 0.99226 0.0
H432 H 0.66911 0.61366 0.94086 0.0
H433 H 0.68926 0.57245 0.93959 0.0
H434 H 0.71302 0.60924 0.95758 0.0
H435 H 0.75115 0.58874 0.1226 0.0
H436 H 0.77351 0.53113 0.10589 0.0
H437 H 0.70379 0.52297 0.99398 0.0
C438 C 0.65902 0.65364 0.02497 0.0
C439 C 0.664 0.68227 0.05304 0.0
C440 C 0.68563 0.67913 0.09061 0.0
C441 C 0.70331 0.64847 0.09884 0.0
C442 C 0.69859 0.62104 0.06958 0.0
C443 C 0.67639 0.62321 0.0339 0.0
C444 C 0.6761 0.59047 1.00686 0.0
C445 C 0.64075 0.57368 0.00849 0.0
C446 C 0.68756 0.59686 0.95836 0.0
C447 C 0.70224 0.56963 0.03216 0.0
C448 C 0.71506 0.5877 0.06814 0.0
C449 C 0.74085 0.57427 0.09493 0.0
C450 C 0.75354 0.54155 0.08499 0.0
C451 C 0.7403 0.52233 0.04877 0.0
C452 C 0.71421 0.53674 0.02221 0.0
H453 H 0.37721 0.65465 0.96913 0.0
H454 H 0.33719 0.67756 0.10086 0.0
H455 H 0.39131 0.70698 0.12 0.0
H456 H 0.46558 0.6397 1.00409 0.0
H457 H 0.48281 0.6584 0.95395 0.0
H458 H 0.44191 0.63765 0.95255 0.0
H459 H 0.41468 0.69262 0.92063 0.0
H460 H 0.45537 0.71364 0.92234 0.0
H461 H 0.41924 0.73216 0.95078 0.0
H462 H 0.44855 0.73877 0.12117 0.0
H463 H 0.50495 0.76492 0.10736 0.0
H464 H 0.50744 0.71896 0.97532 0.0
C465 C 0.37997 0.66557 1.00219 0.0
C466 C 0.35297 0.66398 0.03353 0.0
C467 C 0.35766 0.67827 0.07657 0.0
C468 C 0.38822 0.69518 0.08752 0.0
C469 C 0.41401 0.69708 0.05527 0.0
C470 C 0.41031 0.68209 0.01372 0.0
C471 C 0.44144 0.68786 0.98464 0.0
C472 C 0.45897 0.65388 0.97315 0.0
C473 C 0.43211 0.70776 0.9421 0.0
C474 C 0.46312 0.70911 0.01584 0.0
C475 C 0.44691 0.7143 0.0564 0.0
C476 C 0.46155 0.73445 0.08971 0.0
C477 C 0.49357 0.74935 0.08147 0.0
C478 C 0.51083 0.74389 0.04034 0.0
C479 C 0.4952 0.72341 1.00729 0.0
H480 H 0.76371 0.04691 0.47367 0.0
H481 H 0.8478 0.99481 0.53864 0.0
H482 H 0.88251 0.04679 0.53337 0.0
H483 H 0.81453 0.09656 0.39716 0.0
H484 H 0.78829 0.13415 0.40164 0.0
H485 H 0.76976 0.09267 0.40981 0.0
H486 H 0.74748 0.11119 0.48776 0.0
H487 H 0.76563 0.15281 0.47963 0.0
H488 H 0.77695 0.12821 0.52822 0.0
H489 H 0.9092 0.10444 0.51952 0.0
H490 H 0.92304 0.16501 0.50525 0.0
H491 H 0.8217 0.18042 0.45136 0.0
C492 C 0.78936 0.04647 0.48698 0.0
C493 C 0.80285 0.01652 0.50659 0.0
C494 C 0.83662 0.01726 0.52359 0.0
C495 C 0.85673 0.0467 0.52055 0.0
C496 C 0.84287 0.07557 0.50062 0.0
C497 C 0.80981 0.07587 0.4846 0.0
C498 C 0.80082 0.11066 0.46589 0.0
C499 C 0.79288 0.10836 0.41564 0.0
C500 C 0.77096 0.12666 0.49194 0.0
C501 C 0.83385 0.12982 0.47415 0.0
C502 C 0.85796 0.109 0.49367 0.0
C503 C 0.89047 0.12099 0.50428 0.0
C504 C 0.89825 0.15536 0.49573 0.0
C505 C 0.87353 0.17752 0.47725 0.0
C506 C 0.8411 0.16422 0.46579 0.0
H507 H 0.99509 0.79546 0.54497 0.0
H508 H 0.02011 0.79978 0.40378 0.0
H509 H 0.96622 0.83052 0.38922 0.0
H510 H 0.90723 0.77825 0.52954 0.0
H511 H 0.89314 0.80309 0.57687 0.0
H512 H 0.93504 0.78433 0.5768 0.0
H513 H 0.96177 0.84368 0.59075 0.0
H514 H 0.9199 0.86263 0.59096 0.0
H515 H 0.95212 0.87823 0.55321 0.0
H516 H 0.90809 0.85981 0.38982 0.0
H517 H 0.84975 0.88137 0.40513 0.0
H518 H 0.86185 0.85576 0.54511 0.0
C519 C 0.98953 0.80342 0.51111 0.0
C520 C 1.01213 0.79553 0.4756 0.0
C521 C 1.00337 0.80566 0.4316 0.0
C522 C 0.9728 0.82323 0.423 0.0
C523 C 0.9509 0.8303 0.45865 0.0
C524 C 0.95882 0.82053 0.50182 0.0
C525 C 0.92994 0.82917 0.53374 0.0
C526 C 0.91549 0.79678 0.5555 0.0
C527 C 0.94164 0.85496 0.56926 0.0
C528 C 0.90445 0.84505 0.50181 0.0
C529 C 0.91714 0.84591 0.45872 0.0
C530 C 0.89798 0.85929 0.42351 0.0
C531 C 0.86491 0.87165 0.43249 0.0
C532 C 0.85105 0.87015 0.47621 0.0
C533 C 0.87146 0.85694 0.51122 0.0
H534 H 0.28321 0.95883 0.521 0.0
H535 H 0.20956 0.02853 0.46339 0.0
H536 H 0.16932 0.98065 0.45283 0.0
H537 H 0.26794 0.89083 0.44657 0.0
H538 H 0.27371 0.85803 0.48795 0.0
H539 H 0.29519 0.89821 0.49407 0.0
H540 H 0.26819 0.90603 0.5726 0.0
H541 H 0.2466 0.86582 0.56671 0.0
H542 H 0.22253 0.9039 0.57882 0.0
H543 H 0.1377 0.92318 0.44583 0.0
H544 H 0.11988 0.86267 0.44013 0.0
H545 H 0.21489 0.83183 0.50177 0.0
C546 C 0.25844 0.96425 0.50674 0.0
C547 C 0.24957 0.99765 0.49334 0.0
C548 C 0.21701 1.00328 0.47414 0.0
C549 C 0.19391 0.97618 0.46807 0.0
C550 C 0.20367 0.94349 0.48128 0.0
C551 C 0.23526 0.93754 0.5002 0.0
C552 C 0.24054 0.89999 0.50951 0.0
C553 C 0.27115 0.88595 0.48293 0.0
C554 C 0.2447 0.89357 0.55991 0.0
C555 C 0.20724 0.88554 0.49238 0.0
C556 C 0.18602 0.91091 0.47661 0.0
C557 C 0.15415 0.90321 0.45832 0.0
C558 C 0.1441 0.86876 0.45542 0.0
C559 C 0.16598 0.84236 0.47024 0.0
C560 C 0.19766 0.85125 0.48963 0.0
H561 H 0.04229 0.25936 0.46726 0.0
H562 H 0.99523 0.1886 0.55977 0.0
H563 H 0.04808 0.15404 0.5598 0.0
H564 H 0.08984 0.19761 0.40308 0.0
H565 H 0.12636 0.2249 0.39635 0.0
H566 H 0.08447 0.24321 0.4025 0.0
H567 H 0.10524 0.27894 0.47006 0.0
H568 H 0.14724 0.26099 0.46387 0.0
H569 H 0.12521 0.25779 0.51664 0.0
H570 H 0.1072 0.12654 0.54848 0.0
H571 H 0.16787 0.11252 0.53279 0.0
H572 H 0.1761 0.20286 0.45079 0.0
C573 C 0.04297 0.23671 0.48772 0.0
C574 C 1.01439 0.22691 0.51363 0.0
C575 C 0.01669 0.19686 0.53974 0.0
C576 C 0.04661 0.17693 0.53979 0.0
C577 C 0.07425 0.18735 0.51374 0.0
C578 C 0.0727 0.21678 0.48853 0.0
C579 C 0.10618 0.22326 0.46464 0.0
C580 C 0.10141 0.22217 0.41362 0.0
C581 C 0.12189 0.25725 0.47973 0.0
C582 C 0.12705 0.19315 0.4807 0.0
C583 C 0.10811 0.17232 0.5084 0.0
C584 C 0.12217 0.14278 0.52688 0.0
C585 C 0.15656 0.13483 0.51759 0.0
C586 C 0.17668 0.1566 0.49068 0.0
C587 C 0.16139 0.18585 0.47169 0.0
H588 H 0.37178 0.16445 0.15494 0.0
H589 H 0.42283 0.25423 0.20679 0.0
H590 H 0.40235 0.24071 0.28249 0.0
H591 H 0.29723 0.16867 0.22892 0.0
H592 H 0.2949 0.12318 0.2362 0.0
H593 H 0.31192 0.14058 0.18513 0.0
H594 H 0.36756 0.10608 0.19637 0.0
H595 H 0.35074 0.0886 0.24747 0.0
H596 H 0.39099 0.11065 0.24783 0.0
H597 H 0.37912 0.21702 0.35247 0.0
H598 H 0.35429 0.18404 0.41414 0.0
H599 H 0.31748 0.10867 0.3194 0.0
C600 C 0.37826 0.18143 0.1822 0.0
C601 C 0.39883 0.21051 0.17489 0.0
C602 C 0.40715 0.23185 0.21149 0.0
C603 C 0.39556 0.22443 0.25467 0.0
C604 C 0.37568 0.19551 0.26089 0.0
C605 C 0.36701 0.17426 0.22585 0.0
C606 C 0.34634 0.14409 0.24251 0.0
C607 C 0.31046 0.14415 0.22196 0.0
C608 C 0.36503 0.11036 0.23298 0.0
C609 C 0.34504 0.15168 0.29237 0.0
C610 C 0.3621 0.18158 0.30193 0.0
C611 C 0.36552 0.19367 0.34544 0.0
C612 C 0.35135 0.17465 0.38028 0.0
C613 C 0.33385 0.1438 0.37167 0.0
C614 C 0.33041 0.13233 0.32698 0.0
H615 H 0.81337 0.40976 0.20366 0.0
H616 H 0.85395 0.3362 0.10894 0.0
H617 H 0.88095 0.30474 0.17083 0.0
H618 H 0.88623 0.4136 0.2716 0.0
H619 H 0.86362 0.41753 0.32388 0.0
H620 H 0.84433 0.43251 0.273 0.0
H621 H 0.79175 0.39418 0.28716 0.0
H622 H 0.81074 0.37931 0.33838 0.0
H623 H 0.79773 0.34918 0.2962 0.0
H624 H 0.90776 0.28403 0.24176 0.0
H625 H 0.93045 0.27402 0.31757 0.0
H626 H 0.87264 0.36061 0.36716 0.0
C627 C 0.82716 0.38652 0.19613 0.0
C628 C 0.83124 0.37523 0.15145 0.0
C629 C 0.85027 0.34521 0.14288 0.0
C630 C 0.86575 0.32717 0.17784 0.0
C631 C 0.86202 0.33942 0.22134 0.0
C632 C 0.84299 0.36824 0.23073 0.0
C633 C 0.84462 0.37694 0.2802 0.0
C634 C 0.86065 0.41224 0.28758 0.0
C635 C 0.80909 0.37476 0.30175 0.0
C636 C 0.86784 0.34876 0.29696 0.0
C637 C 0.87752 0.32739 0.26242 0.0
C638 C 0.90003 0.30037 0.26917 0.0
C639 C 0.91289 0.29495 0.31235 0.0
C640 C 0.90321 0.31637 0.34837 0.0
C641 C 0.88025 0.34355 0.34043 0.0
H642 H 0.67551 0.86722 0.37136 0.0
H643 H 0.7641 0.92226 0.32356 0.0
H644 H 0.75435 0.89956 0.24749 0.0
H645 H 0.68518 0.79171 0.2991 0.0
H646 H 0.63992 0.7877 0.29028 0.0
H647 H 0.65571 0.80561 0.34177 0.0
H648 H 0.61942 0.85989 0.32884 0.0
H649 H 0.60352 0.84217 0.27742 0.0
H650 H 0.62413 0.88315 0.2773 0.0
H651 H 0.73263 0.87433 0.17571 0.0
H652 H 0.69985 0.84974 0.11316 0.0
H653 H 0.62494 0.81117 0.20708 0.0
C654 C 0.69324 0.87398 0.34506 0.0
C655 C 0.72078 0.8963 0.35348 0.0
C656 C 0.74296 0.90509 0.31796 0.0
C657 C 0.73766 0.89224 0.27465 0.0
C658 C 0.71003 0.87064 0.26734 0.0
C659 C 0.68817 0.86156 0.30155 0.0
C660 C 0.6591 0.8398 0.28418 0.0
C661 C 0.66005 0.80408 0.30508 0.0
C662 C 0.62451 0.85731 0.29242 0.0
C663 C 0.66772 0.83848 0.23473 0.0
C664 C 0.69737 0.85621 0.22583 0.0
C665 C 0.7096 0.86008 0.18237 0.0
C666 C 0.69078 0.846 0.14702 0.0
C667 C 0.65999 0.82825 0.1552 0.0
C668 C 0.64869 0.82403 0.19979 0.0
H669 H 0.11184 0.70992 0.29416 0.0
H670 H 0.18057 0.66298 0.38956 0.0
H671 H 0.21581 0.64106 0.32758 0.0
H672 H 0.11468 0.64136 0.21444 0.0
H673 H 0.113 0.66859 0.16605 0.0
H674 H 0.09392 0.6823 0.21789 0.0
H675 H 0.13045 0.73716 0.2161 0.0
H676 H 0.14979 0.7235 0.16436 0.0
H677 H 0.17617 0.73376 0.21178 0.0
H678 H 0.24311 0.62302 0.25616 0.0
H679 H 0.25897 0.6069 0.17922 0.0
H680 H 0.17262 0.6641 0.1283 0.0
C681 C 0.13443 0.69522 0.30192 0.0
C682 C 0.14349 0.68828 0.34682 0.0
C683 C 0.17303 0.6686 0.35554 0.0
C684 C 0.19335 0.65615 0.32052 0.0
C685 C 0.1838 0.66337 0.27673 0.0
C686 C 0.15494 0.68221 0.26716 0.0
C687 C 0.14973 0.68478 0.2169 0.0
C688 C 0.11582 0.66827 0.20301 0.0
C689 C 0.15165 0.72202 0.20138 0.0
C690 C 0.18005 0.66431 0.19989 0.0
C691 C 0.19946 0.65248 0.23511 0.0
C692 C 0.2282 0.63224 0.22828 0.0
C693 C 0.23703 0.62325 0.18436 0.0
C694 C 0.21721 0.63434 0.14762 0.0
C695 C 0.18859 0.6556 0.15559 0.0
H696 H 0.62981 0.90207 0.86737 0.0
H697 H 0.58077 0.8053 0.84048 0.0
H698 H 0.59323 0.81191 0.75994 0.0
H699 H 0.60007 0.94459 0.76367 0.0
H700 H 0.63922 0.96802 0.75711 0.0
H701 H 0.62445 0.95669 0.81219 0.0
H702 H 0.68219 0.92696 0.82775 0.0
H703 H 0.69696 0.93775 0.77254 0.0
H704 H 0.69695 0.89394 0.7904 0.0
H705 H 0.61767 0.82516 0.6849 0.0
H706 H 0.64488 0.84747 0.61752 0.0
H707 H 0.67331 0.93928 0.69017 0.0
C708 C 0.62119 0.88262 0.84432 0.0
C709 C 0.60419 0.85318 0.86008 0.0
C710 C 0.59337 0.82821 0.82904 0.0
C711 C 0.60057 0.83165 0.7833 0.0
C712 C 0.6181 0.86051 0.76901 0.0
C713 C 0.62762 0.88596 0.79836 0.0
C714 C 0.64638 0.91427 0.77407 0.0
C715 C 0.62633 0.94788 0.77693 0.0
C716 C 0.68278 0.91846 0.79228 0.0
C717 C 0.6467 0.90029 0.72668 0.0
C718 C 0.63045 0.86915 0.72477 0.0
C719 C 0.62948 0.85004 0.68564 0.0
C720 C 0.64488 0.86329 0.64717 0.0
C721 C 0.66055 0.89594 0.64729 0.0
C722 C 0.66155 0.91444 0.68814 0.0
H723 H 0.1413 0.7085 0.66493 0.0
H724 H 0.06711 0.63062 0.63238 0.0
H725 H 0.07816 0.60271 0.70514 0.0
H726 H 0.20129 0.65471 0.71753 0.0
H727 H 0.2129 0.68496 0.76026 0.0
H728 H 0.19773 0.69976 0.70694 0.0
H729 H 0.15017 0.73455 0.7464 0.0
H730 H 0.16538 0.72008 0.7999 0.0
H731 H 0.12152 0.7134 0.78443 0.0
H732 H 0.10113 0.58079 0.77957 0.0
H733 H 0.12997 0.56985 0.85179 0.0
H734 H 0.18796 0.66295 0.83602 0.0
C735 C 0.12713 0.68573 0.67328 0.0
C736 C 0.10329 0.67176 0.64289 0.0
C737 C 0.08517 0.64204 0.65526 0.0
C738 C 0.09148 0.62588 0.69641 0.0
C739 C 0.11571 0.63994 0.72513 0.0
C740 C 0.13287 0.66951 0.71431 0.0
C741 C 0.15784 0.67937 0.75074 0.0
C742 C 0.19461 0.67971 0.73278 0.0
C743 C 0.14813 0.7139 0.7716 0.0
C744 C 0.15247 0.6505 0.78354 0.0
C745 C 0.1282 0.62788 0.76813 0.0
C746 C 0.11992 0.59855 0.79207 0.0
C747 C 0.13659 0.5924 0.83291 0.0
C748 C 0.16109 0.61559 0.84969 0.0
C749 C 0.16902 0.64497 0.82442 0.0
H750 H 0.35299 0.09107 0.69756 0.0
H751 H 0.29732 0.17971 0.65192 0.0
H752 H 0.31129 0.20989 0.72229 0.0
H753 H 0.32931 0.09955 0.81776 0.0
H754 H 0.37061 0.08546 0.83655 0.0
H755 H 0.35372 0.06999 0.78433 0.0
H756 H 0.40808 0.09087 0.7436 0.0
H757 H 0.42492 0.10686 0.7955 0.0
H758 H 0.42041 0.13495 0.74828 0.0
H759 H 0.33624 0.23237 0.7935 0.0
H760 H 0.36551 0.24389 0.86506 0.0
H761 H 0.40355 0.14012 0.86683 0.0
C762 C 0.34295 0.11643 0.70323 0.0
C763 C 0.32353 0.13301 0.67001 0.0
C764 C 0.31163 0.16654 0.67757 0.0
C765 C 0.31963 0.18387 0.71724 0.0
C766 C 0.33944 0.16721 0.74908 0.0
C767 C 0.3505 0.13404 0.74294 0.0
C768 C 0.37233 0.1225 0.78198 0.0
C769 C 0.35548 0.0926 0.80662 0.0
C770 C 0.40858 0.11326 0.76639 0.0
C771 C 0.3723 0.15452 0.81054 0.0
C772 C 0.35332 0.18004 0.79075 0.0
C773 C 0.35082 0.21246 0.80959 0.0
C774 C 0.36776 0.21886 0.85002 0.0
C775 C 0.38675 0.19293 0.87146 0.0
C776 C 0.38895 0.16033 0.85135 0.0
H777 H 0.91298 0.32746 0.68991 0.0
H778 H 0.90045 0.42034 0.61357 0.0
H779 H 0.88342 0.4511 0.68233 0.0
H780 H 0.84039 0.34005 0.75969 0.0
H781 H 0.85972 0.32238 0.80913 0.0
H782 H 0.87339 0.30825 0.75465 0.0
H783 H 0.93571 0.32422 0.77395 0.0
H784 H 0.92222 0.33831 0.82858 0.0
H785 H 0.94529 0.36687 0.79246 0.0
H786 H 0.86632 0.47148 0.75925 0.0
H787 H 0.84976 0.47976 0.83816 0.0
H788 H 0.8701 0.37273 0.86368 0.0
C789 C 0.90719 0.35439 0.68795 0.0
C790 C 0.90821 0.37162 0.64652 0.0
C791 C 0.89979 0.40671 0.64501 0.0
C792 C 0.89017 0.42439 0.68388 0.0
C793 C 0.88884 0.4066 0.7241 0.0
C794 C 0.89706 0.37237 0.72644 0.0
C795 C 0.89192 0.35892 0.77347 0.0
C796 C 0.86474 0.33074 0.77426 0.0
C797 C 0.9258 0.34634 0.79328 0.0
C798 C 0.87944 0.39086 0.79708 0.0
C799 C 0.87808 0.41813 0.76811 0.0
C800 C 0.86722 0.45025 0.78224 0.0
C801 C 0.85756 0.45464 0.82717 0.0
C802 C 0.85849 0.427 0.85761 0.0
C803 C 0.86958 0.39468 0.84188 0.0
loop_
_geom_bond_atom_site_label_1
_geom_bond_atom_site_label_2
_geom_bond_distance
_geom_bond_site_symmetry_2
_ccdc_geom_bond_type
Co0 N4 2.148 . S
Co0 N10 2.128 . S
Co0 N20 2.194 1_554 S
Co0 O25 2.351 . S
Co0 O26 2.155 . S
Co0 O27 2.096 . S
C1 N4 1.301 . S
C1 N5 1.328 . S
C1 H6 0.930 . S
C2 C3 1.333 . S
C2 N4 1.317 . S
C2 H7 0.930 . S
C3 C2 1.333 . S
C3 N5 1.350 . S
C3 H29 0.931 . S
N4 Co0 2.148 . S
N4 C1 1.301 . S
N4 C2 1.317 . S
N5 C1 1.328 . S
N5 C3 1.350 . S
H6 C1 0.930 . S
H7 C2 0.930 . S
C8 O9 1.224 1_554 S
C8 O27 1.247 . S
O9 C8 1.224 1_556 S
N10 Co0 2.128 . S
N10 C11 1.355 . S
N10 C13 1.311 . S
C11 N10 1.355 . S
C11 C12 1.363 . S
C11 H23 0.929 . S
C12 C11 1.363 . S
C12 N14 1.375 . S
C12 H30 0.931 . S
C13 N10 1.311 . S
C13 N14 1.347 . S
C13 H24 0.929 . S
N14 C12 1.375 . S
N14 C13 1.347 . S
C15 C18 1.365 . S
C15 N20 1.328 . S
C15 H21 0.929 1_556 S
C16 C17 1.362 . S
C16 C19 1.378 . S
C16 H31 0.929 . S
C17 C16 1.362 . S
C17 C18 1.366 . S
C18 C15 1.365 . S
C18 C17 1.366 . S
C18 H32 0.930 . S
C19 C16 1.378 . S
C19 N20 1.315 . S
C19 H22 0.930 . S
N20 Co0 2.194 1_556 S
N20 C15 1.328 . S
N20 C19 1.315 . S
H21 C15 0.929 1_554 S
H22 C19 0.930 . S
H23 C11 0.929 . S
H24 C13 0.929 . S
O25 Co0 2.351 . S
O25 C28 1.244 . S
O26 Co0 2.155 . S
O26 C28 1.240 . S
O27 Co0 2.096 . S
O27 C8 1.247 . S
C28 O25 1.244 . S
C28 O26 1.240 . S
H29 C3 0.931 . S
H30 C12 0.931 . S
H31 C16 0.929 . S
H32 C18 0.930 . S
Co33 N37 2.148 . S
Co33 N43 2.128 . S
Co33 N53 2.194 1_554 S
Co33 O58 2.351 . S
Co33 O59 2.155 . S
Co33 O60 2.096 . S
C34 N37 1.301 . S
C34 N38 1.328 . S
C34 H39 0.930 . S
C35 C36 1.333 . S
C35 N37 1.317 . S
C35 H40 0.930 . S
C36 C35 1.333 . S
C36 N38 1.350 . S
C36 H62 0.931 . S
N37 Co33 2.148 . S
N37 C34 1.301 . S
N37 C35 1.317 . S
N38 C34 1.328 . S
N38 C36 1.350 . S
H39 C34 0.930 . S
H40 C35 0.930 . S
C41 O42 1.224 1_554 S
C41 O60 1.247 . S
O42 C41 1.224 1_556 S
N43 Co33 2.128 . S
N43 C44 1.355 . S
N43 C46 1.311 . S
C44 N43 1.355 . S
C44 C45 1.363 . S
C44 H56 0.929 . S
C45 C44 1.363 . S
C45 N47 1.375 . S
C45 H63 0.931 . S
C46 N43 1.311 . S
C46 N47 1.347 . S
C46 H57 0.929 . S
N47 C45 1.375 . S
N47 C46 1.347 . S
C48 C51 1.365 . S
C48 N53 1.328 . S
C48 H54 0.929 1_556 S
C49 C50 1.362 . S
C49 C52 1.378 . S
C49 H64 0.929 . S
C50 C49 1.362 . S
C50 C51 1.366 . S
C51 C48 1.365 . S
C51 C50 1.366 . S
C51 H65 0.930 . S
C52 C49 1.378 . S
C52 N53 1.315 . S
C52 H55 0.930 . S
N53 Co33 2.194 1_556 S
N53 C48 1.328 . S
N53 C52 1.315 . S
H54 C48 0.929 1_554 S
H55 C52 0.930 . S
H56 C44 0.929 . S
H57 C46 0.929 . S
O58 Co33 2.351 . S
O58 C61 1.244 . S
O59 Co33 2.155 . S
O59 C61 1.240 . S
O60 Co33 2.096 . S
O60 C41 1.247 . S
C61 O58 1.244 . S
C61 O59 1.240 . S
H62 C36 0.931 . S
H63 C45 0.931 . S
H64 C49 0.929 . S
H65 C51 0.930 . S
Co66 N70 2.148 . S
Co66 N76 2.128 . S
Co66 N86 2.194 1_554 S
Co66 O91 2.351 . S
Co66 O92 2.155 . S
Co66 O93 2.096 . S
C67 N70 1.301 . S
C67 N71 1.328 . S
C67 H72 0.930 . S
C68 C69 1.333 . S
C68 N70 1.317 . S
C68 H73 0.930 . S
C69 C68 1.333 . S
C69 N71 1.350 . S
C69 H95 0.931 . S
N70 Co66 2.148 . S
N70 C67 1.301 . S
N70 C68 1.317 . S
N71 C67 1.328 . S
N71 C69 1.350 . S
H72 C67 0.930 . S
H73 C68 0.930 . S
C74 O75 1.224 1_554 S
C74 O93 1.247 . S
O75 C74 1.224 1_556 S
N76 Co66 2.128 . S
N76 C77 1.355 . S
N76 C79 1.311 . S
C77 N76 1.355 . S
C77 C78 1.363 . S
C77 H89 0.929 . S
C78 C77 1.363 . S
C78 N80 1.375 . S
C78 H96 0.931 . S
C79 N76 1.311 . S
C79 N80 1.347 . S
C79 H90 0.929 . S
N80 C78 1.375 . S
N80 C79 1.347 . S
C81 C84 1.365 . S
C81 N86 1.328 . S
C81 H87 0.929 1_556 S
C82 C83 1.362 . S
C82 C85 1.378 . S
C82 H97 0.929 . S
C83 C82 1.362 . S
C83 C84 1.366 . S
C84 C81 1.365 . S
C84 C83 1.366 . S
C84 H98 0.930 . S
C85 C82 1.378 . S
C85 N86 1.315 . S
C85 H88 0.930 . S
N86 Co66 2.194 1_556 S
N86 C81 1.328 . S
N86 C85 1.315 . S
H87 C81 0.929 1_554 S
H88 C85 0.930 . S
H89 C77 0.929 . S
H90 C79 0.929 . S
O91 Co66 2.351 . S
O91 C94 1.244 . S
O92 Co66 2.155 . S
O92 C94 1.240 . S
O93 Co66 2.096 . S
O93 C74 1.247 . S
C94 O91 1.244 . S
C94 O92 1.240 . S
H95 C69 0.931 . S
H96 C78 0.931 . S
H97 C82 0.929 . S
H98 C84 0.930 . S
Co99 N103 2.148 . S
Co99 N109 2.128 . S
Co99 N119 2.194 1_554 S
Co99 O124 2.351 . S
Co99 O125 2.155 . S
Co99 O126 2.096 . S
C100 N103 1.301 . S
C100 N104 1.328 . S
C100 H105 0.930 . S
C101 C102 1.333 . S
C101 N103 1.317 . S
C101 H106 0.930 . S
C102 C101 1.333 . S
C102 N104 1.350 . S
C102 H128 0.931 . S
N103 Co99 2.148 . S
N103 C100 1.301 . S
N103 C101 1.317 . S
N104 C100 1.328 . S
N104 C102 1.350 . S
H105 C100 0.930 . S
H106 C101 0.930 . S
C107 O108 1.224 1_554 S
C107 O126 1.247 . S
O108 C107 1.224 1_556 S
N109 Co99 2.128 . S
N109 C110 1.355 . S
N109 C112 1.311 . S
C110 N109 1.355 . S
C110 C111 1.363 . S
C110 H122 0.929 . S
C111 C110 1.363 . S
C111 N113 1.375 . S
C111 H129 0.931 . S
C112 N109 1.311 . S
C112 N113 1.347 . S
C112 H123 0.929 . S
N113 C111 1.375 . S
N113 C112 1.347 . S
C114 C117 1.365 . S
C114 N119 1.328 . S
C114 H120 0.929 1_556 S
C115 C116 1.362 . S
C115 C118 1.378 . S
C115 H130 0.929 . S
C116 C115 1.362 . S
C116 C117 1.366 . S
C117 C114 1.365 . S
C117 C116 1.366 . S
C117 H131 0.930 . S
C118 C115 1.378 . S
C118 N119 1.315 . S
C118 H121 0.930 . S
N119 Co99 2.194 1_556 S
N119 C114 1.328 . S
N119 C118 1.315 . S
H120 C114 0.929 1_554 S
H121 C118 0.930 . S
H122 C110 0.929 . S
H123 C112 0.929 . S
O124 Co99 2.351 . S
O124 C127 1.244 . S
O125 Co99 2.155 . S
O125 C127 1.240 . S
O126 Co99 2.096 . S
O126 C107 1.247 . S
C127 O124 1.244 . S
C127 O125 1.240 . S
H128 C102 0.931 . S
H129 C111 0.931 . S
H130 C115 0.929 . S
H131 C117 0.930 . S
Co132 N136 2.148 . S
Co132 N142 2.128 . S
Co132 N152 2.194 . S
Co132 O157 2.351 . S
Co132 O158 2.155 . S
Co132 O159 2.096 . S
C133 N136 1.301 . S
C133 N137 1.328 . S
C133 H138 0.930 . S
C134 C135 1.324 1_655 S
C134 N136 1.317 . S
C134 H139 0.930 1_655 S
C135 C134 1.324 1_455 S
C135 N137 1.329 1_455 S
C135 H161 0.957 . S
N136 Co132 2.148 . S
N136 C133 1.301 . S
N136 C134 1.317 . S
N137 C133 1.328 . S
N137 C135 1.329 1_655 S
H138 C133 0.930 . S
H139 C134 0.930 1_455 S
C140 O141 1.224 . S
C140 O159 1.247 . S
O141 C140 1.224 . S
N142 Co132 2.128 . S
N142 C143 1.355 . S
N142 C145 1.311 . S
C143 N142 1.355 . S
C143 C144 1.363 . S
C143 H155 0.929 . S
C144 C143 1.363 . S
C144 N146 1.375 . S
C144 H162 0.931 . S
C145 N142 1.311 . S
C145 N146 1.347 . S
C145 H156 0.929 . S
N146 C144 1.375 . S
N146 C145 1.347 . S
C147 C150 1.365 . S
C147 N152 1.328 . S
C147 H153 0.929 . S
C148 C149 1.362 . S
C148 C151 1.378 . S
C148 H163 0.929 . S
C149 C148 1.362 . S
C149 C150 1.366 . S
C150 C147 1.365 . S
C150 C149 1.366 . S
C150 H164 0.930 . S
C151 C148 1.378 . S
C151 N152 1.315 . S
C151 H154 0.930 . S
N152 Co132 2.194 . S
N152 C147 1.328 . S
N152 C151 1.315 . S
H153 C147 0.929 . S
H154 C151 0.930 . S
H155 C143 0.929 . S
H156 C145 0.929 . S
O157 Co132 2.351 . S
O157 C160 1.244 . S
O158 Co132 2.155 . S
O158 C160 1.240 . S
O159 Co132 2.096 . S
O159 C140 1.247 . S
C160 O157 1.244 . S
C160 O158 1.240 . S
H161 C135 0.957 . S
H162 C144 0.931 . S
H163 C148 0.929 . S
H164 C150 0.930 . S
Co165 N169 2.148 . S
Co165 N175 2.128 . S
Co165 N185 2.194 . S
Co165 O190 2.351 . S
Co165 O191 2.155 . S
Co165 O192 2.096 . S
C166 N169 1.301 . S
C166 N170 1.328 . S
C166 H171 0.930 . S
C167 C168 1.324 1_565 S
C167 N169 1.317 . S
C167 H172 0.930 1_565 S
C168 C167 1.324 1_545 S
C168 N170 1.329 1_545 S
C168 H194 0.957 . S
N169 Co165 2.148 . S
N169 C166 1.301 . S
N169 C167 1.317 . S
N170 C166 1.328 . S
N170 C168 1.329 1_565 S
H171 C166 0.930 . S
H172 C167 0.930 1_545 S
C173 O174 1.224 . S
C173 O192 1.247 . S
O174 C173 1.224 . S
N175 Co165 2.128 . S
N175 C176 1.355 . S
N175 C178 1.311 . S
C176 N175 1.355 . S
C176 C177 1.363 . S
C176 H188 0.929 . S
C177 C176 1.363 . S
C177 N179 1.375 . S
C177 H195 0.931 . S
C178 N175 1.311 . S
C178 N179 1.347 . S
C178 H189 0.929 . S
N179 C177 1.375 . S
N179 C178 1.347 . S
C180 C183 1.365 . S
C180 N185 1.328 . S
C180 H186 0.929 . S
C181 C182 1.362 . S
C181 C184 1.378 . S
C181 H196 0.929 . S
C182 C181 1.362 . S
C182 C183 1.366 . S
C183 C180 1.365 . S
C183 C182 1.366 . S
C183 H197 0.930 . S
C184 C181 1.378 . S
C184 N185 1.315 . S
C184 H187 0.930 . S
N185 Co165 2.194 . S
N185 C180 1.328 . S
N185 C184 1.315 . S
H186 C180 0.929 . S
H187 C184 0.930 . S
H188 C176 0.929 . S
H189 C178 0.929 . S
O190 Co165 2.351 . S
O190 C193 1.244 . S
O191 Co165 2.155 . S
O191 C193 1.240 . S
O192 Co165 2.096 . S
O192 C173 1.247 . S
C193 O190 1.244 . S
C193 O191 1.240 . S
H194 C168 0.957 . S
H195 C177 0.931 . S
H196 C181 0.929 . S
H197 C183 0.930 . S
Co198 N202 2.148 . S
Co198 N208 2.128 . S
Co198 N218 2.194 . S
Co198 O223 2.351 . S
Co198 O224 2.155 . S
Co198 O225 2.096 . S
C199 N202 1.301 . S
C199 N203 1.328 . S
C199 H204 0.930 . S
C200 C201 1.324 1_455 S
C200 N202 1.317 . S
C200 H205 0.930 1_455 S
C201 C200 1.324 1_655 S
C201 N203 1.329 1_655 S
C201 H227 0.957 . S
N202 Co198 2.148 . S
N202 C199 1.301 . S
N202 C200 1.317 . S
N203 C199 1.328 . S
N203 C201 1.329 1_455 S
H204 C199 0.930 . S
H205 C200 0.930 1_655 S
C206 O207 1.224 . S
C206 O225 1.247 . S
O207 C206 1.224 . S
N208 Co198 2.128 . S
N208 C209 1.355 . S
N208 C211 1.311 . S
C209 N208 1.355 . S
C209 C210 1.363 . S
C209 H221 0.929 . S
C210 C209 1.363 . S
C210 N212 1.375 . S
C210 H228 0.931 . S
C211 N208 1.311 . S
C211 N212 1.347 . S
C211 H222 0.929 . S
N212 C210 1.375 . S
N212 C211 1.347 . S
C213 C216 1.365 . S
C213 N218 1.328 . S
C213 H219 0.929 . S
C214 C215 1.362 . S
C214 C217 1.378 . S
C214 H229 0.929 . S
C215 C214 1.362 . S
C215 C216 1.366 . S
C216 C213 1.365 . S
C216 C215 1.366 . S
C216 H230 0.930 . S
C217 C214 1.378 . S
C217 N218 1.315 . S
C217 H220 0.930 . S
N218 Co198 2.194 . S
N218 C213 1.328 . S
N218 C217 1.315 . S
H219 C213 0.929 . S
H220 C217 0.930 . S
H221 C209 0.929 . S
H222 C211 0.929 . S
O223 Co198 2.351 . S
O223 C226 1.244 . S
O224 Co198 2.155 . S
O224 C226 1.240 . S
O225 Co198 2.096 . S
O225 C206 1.247 . S
C226 O223 1.244 . S
C226 O224 1.240 . S
H227 C201 0.957 . S
H228 C210 0.931 . S
H229 C214 0.929 . S
H230 C216 0.930 . S
Co231 N235 2.148 . S
Co231 N241 2.128 . S
Co231 N251 2.194 . S
Co231 O256 2.351 . S
Co231 O257 2.155 . S
Co231 O258 2.096 . S
C232 N235 1.301 . S
C232 N236 1.328 . S
C232 H237 0.930 . S
C233 C234 1.324 1_545 S
C233 N235 1.317 . S
C233 H238 0.930 1_545 S
C234 C233 1.324 1_565 S
C234 N236 1.329 1_565 S
C234 H260 0.957 . S
N235 Co231 2.148 . S
N235 C232 1.301 . S
N235 C233 1.317 . S
N236 C232 1.328 . S
N236 C234 1.329 1_545 S
H237 C232 0.930 . S
H238 C233 0.930 1_565 S
C239 O240 1.224 . S
C239 O258 1.247 . S
O240 C239 1.224 . S
N241 Co231 2.128 . S
N241 C242 1.355 . S
N241 C244 1.311 . S
C242 N241 1.355 . S
C242 C243 1.363 . S
C242 H254 0.929 . S
C243 C242 1.363 . S
C243 N245 1.375 . S
C243 H261 0.931 . S
C244 N241 1.311 . S
C244 N245 1.347 . S
C244 H255 0.929 . S
N245 C243 1.375 . S
N245 C244 1.347 . S
C246 C249 1.365 . S
C246 N251 1.328 . S
C246 H252 0.929 . S
C247 C248 1.362 . S
C247 C250 1.378 . S
C247 H262 0.929 . S
C248 C247 1.362 . S
C248 C249 1.366 . S
C249 C246 1.365 . S
C249 C248 1.366 . S
C249 H263 0.930 . S
C250 C247 1.378 . S
C250 N251 1.315 . S
C250 H253 0.930 . S
N251 Co231 2.194 . S
N251 C246 1.328 . S
N251 C250 1.315 . S
H252 C246 0.929 . S
H253 C250 0.930 . S
H254 C242 0.929 . S
H255 C244 0.929 . S
O256 Co231 2.351 . S
O256 C259 1.244 . S
O257 Co231 2.155 . S
O257 C259 1.240 . S
O258 Co231 2.096 . S
O258 C239 1.247 . S
C259 O256 1.244 . S
C259 O257 1.240 . S
H260 C234 0.957 . S
H261 C243 0.931 . S
H262 C247 0.929 . S
H263 C249 0.930 . S
H264 C276 0.930 . S
H265 C278 0.930 1_556 S
H266 C279 0.930 . S
H267 C283 0.959 . S
H268 C283 0.959 . S
H269 C283 0.961 1_565 S
H270 C284 0.960 1_565 S
H271 C284 0.961 . S
H272 C284 0.959 . S
H273 C287 0.929 . S
H274 C288 0.931 1_556 S
H275 C290 0.930 . S
C276 H264 0.930 . S
C276 C277 1.399 . S
C276 C281 1.399 . S
C277 C276 1.399 . S
C277 C278 1.376 . S
C278 H265 0.930 1_554 S
C278 C277 1.376 . S
C278 C279 1.388 1_554 S
C279 H266 0.930 . S
C279 C278 1.388 1_556 S
C279 C280 1.390 1_556 S
C280 C279 1.390 1_554 S
C280 C281 1.394 . S
C280 C286 1.465 1_565 S
C281 C276 1.399 . S
C281 C280 1.394 . S
C281 C282 1.516 1_565 S
C282 C281 1.516 1_545 S
C282 C283 1.502 . S
C282 C284 1.561 . S
C282 C285 1.526 . S
C283 H267 0.959 . S
C283 H268 0.959 . S
C283 H269 0.961 1_545 S
C283 C282 1.502 . S
C284 H270 0.960 1_545 S
C284 H271 0.961 . S
C284 H272 0.959 . S
C284 C282 1.561 . S
C285 C282 1.526 . S
C285 C286 1.396 . S
C285 C290 1.390 . S
C286 C280 1.465 1_545 S
C286 C285 1.396 . S
C286 C287 1.399 1_554 S
C287 H273 0.929 . S
C287 C286 1.399 1_556 S
C287 C288 1.385 1_556 S
C288 H274 0.931 1_554 S
C288 C287 1.385 1_554 S
C288 C289 1.389 . S
C289 C288 1.389 . S
C289 C290 1.387 . S
C290 H275 0.930 . S
C290 C285 1.390 . S
C290 C289 1.387 . S
H291 C303 0.930 . S
H292 C305 0.930 1_556 S
H293 C306 0.930 . S
H294 C310 0.959 . S
H295 C310 0.959 1_455 S
H296 C310 0.961 . S
H297 C311 0.960 1_655 S
H298 C311 0.961 . S
H299 C311 0.959 . S
H300 C314 0.929 . S
H301 C315 0.931 1_556 S
H302 C317 0.930 . S
C303 H291 0.930 . S
C303 C304 1.399 . S
C303 C308 1.399 . S
C304 C303 1.399 . S
C304 C305 1.376 . S
C305 H292 0.930 1_554 S
C305 C304 1.376 . S
C305 C306 1.388 1_554 S
C306 H293 0.930 . S
C306 C305 1.388 1_556 S
C306 C307 1.390 1_556 S
C307 C306 1.390 1_554 S
C307 C308 1.394 . S
C307 C313 1.465 1_655 S
C308 C303 1.399 . S
C308 C307 1.394 . S
C308 C309 1.516 . S
C309 C308 1.516 . S
C309 C310 1.502 . S
C309 C311 1.561 1_655 S
C309 C312 1.526 1_655 S
C310 H294 0.959 . S
C310 H295 0.959 1_655 S
C310 H296 0.961 . S
C310 C309 1.502 . S
C311 H297 0.960 1_455 S
C311 H298 0.961 . S
C311 H299 0.959 . S
C311 C309 1.561 1_455 S
C312 C309 1.526 1_455 S
C312 C313 1.396 . S
C312 C317 1.390 . S
C313 C307 1.465 1_455 S
C313 C312 1.396 . S
C313 C314 1.399 1_554 S
C314 H300 0.929 . S
C314 C313 1.399 1_556 S
C314 C315 1.385 1_556 S
C315 H301 0.931 1_554 S
C315 C314 1.385 1_554 S
C315 C316 1.389 . S
C316 C315 1.389 . S
C316 C317 1.387 . S
C317 H302 0.930 . S
C317 C312 1.390 . S
C317 C316 1.387 . S
H318 C330 0.930 . S
H319 C332 0.930 . S
H320 C333 0.930 1_455 S
H321 C337 0.959 . S
H322 C337 0.959 . S
H323 C337 0.961 . S
H324 C338 0.960 . S
H325 C338 0.961 . S
H326 C338 0.959 . S
H327 C341 0.929 . S
H328 C342 0.931 . S
H329 C344 0.930 . S
C330 H318 0.930 . S
C330 C331 1.399 . S
C330 C335 1.399 . S
C331 C330 1.399 . S
C331 C332 1.376 . S
C332 H319 0.930 . S
C332 C331 1.376 . S
C332 C333 1.388 . S
C333 H320 0.930 1_655 S
C333 C332 1.388 . S
C333 C334 1.389 1_655 S
C334 C333 1.389 1_455 S
C334 C335 1.393 1_455 S
C334 C340 1.466 . S
C335 C330 1.399 . S
C335 C334 1.393 1_655 S
C335 C336 1.516 1_655 S
C336 C335 1.516 1_455 S
C336 C337 1.502 1_455 S
C336 C338 1.561 . S
C336 C339 1.526 . S
C337 H321 0.959 . S
C337 H322 0.959 . S
C337 H323 0.961 . S
C337 C336 1.502 1_655 S
C338 H324 0.960 . S
C338 H325 0.961 . S
C338 H326 0.959 . S
C338 C336 1.561 . S
C339 C336 1.526 . S
C339 C340 1.396 . S
C339 C344 1.390 . S
C340 C334 1.466 . S
C340 C339 1.396 . S
C340 C341 1.399 . S
C341 H327 0.929 . S
C341 C340 1.399 . S
C341 C342 1.385 . S
C342 H328 0.931 . S
C342 C341 1.385 . S
C342 C343 1.389 . S
C343 C342 1.389 . S
C343 C344 1.387 . S
C344 H329 0.930 . S
C344 C339 1.390 . S
C344 C343 1.387 . S
H345 C357 0.930 . S
H346 C359 0.930 . S
H347 C360 0.930 . S
H348 C364 0.959 . S
H349 C364 0.959 . S
H350 C364 0.961 . S
H351 C365 0.960 . S
H352 C365 0.961 . S
H353 C365 0.959 . S
H354 C368 0.929 . S
H355 C369 0.931 . S
H356 C371 0.930 . S
C357 H345 0.930 . S
C357 C358 1.399 . S
C357 C362 1.399 . S
C358 C357 1.399 . S
C358 C359 1.376 . S
C359 H346 0.930 . S
C359 C358 1.376 . S
C359 C360 1.388 . S
C360 H347 0.930 . S
C360 C359 1.388 . S
C360 C361 1.390 . S
C361 C360 1.390 . S
C361 C362 1.394 . S
C361 C367 1.465 . S
C362 C357 1.399 . S
C362 C361 1.394 . S
C362 C363 1.516 1_565 S
C363 C362 1.516 1_545 S
C363 C364 1.502 . S
C363 C365 1.561 1_545 S
C363 C366 1.526 . S
C364 H348 0.959 . S
C364 H349 0.959 . S
C364 H350 0.961 . S
C364 C363 1.502 . S
C365 H351 0.960 . S
C365 H352 0.961 . S
C365 H353 0.959 . S
C365 C363 1.561 1_565 S
C366 C363 1.526 . S
C366 C367 1.396 1_545 S
C366 C371 1.390 . S
C367 C361 1.465 . S
C367 C366 1.396 1_565 S
C367 C368 1.399 . S
C368 H354 0.929 . S
C368 C367 1.399 . S
C368 C369 1.385 1_565 S
C369 H355 0.931 . S
C369 C368 1.385 1_545 S
C369 C370 1.389 . S
C370 C369 1.389 . S
C370 C371 1.387 . S
C371 H356 0.930 . S
C371 C366 1.390 . S
C371 C370 1.387 . S
H372 C384 0.930 . S
H373 C386 0.930 . S
H374 C387 0.930 . S
H375 C391 0.959 . S
H376 C391 0.959 . S
H377 C391 0.961 . S
H378 C392 0.960 . S
H379 C392 0.961 . S
H380 C392 0.959 . S
H381 C395 0.929 . S
H382 C396 0.931 . S
H383 C398 0.930 . S
C384 H372 0.930 . S
C384 C385 1.399 . S
C384 C389 1.399 . S
C385 C384 1.399 . S
C385 C386 1.376 1_554 S
C386 H373 0.930 . S
C386 C385 1.376 1_556 S
C386 C387 1.388 . S
C387 H374 0.930 . S
C387 C386 1.388 . S
C387 C388 1.390 1_556 S
C388 C387 1.390 1_554 S
C388 C389 1.394 . S
C388 C394 1.465 . S
C389 C384 1.399 . S
C389 C388 1.394 . S
C389 C390 1.516 . S
C390 C389 1.516 . S
C390 C391 1.502 . S
C390 C392 1.561 . S
C390 C393 1.526 . S
C391 H375 0.959 . S
C391 H376 0.959 . S
C391 H377 0.961 . S
C391 C390 1.502 . S
C392 H378 0.960 . S
C392 H379 0.961 . S
C392 H380 0.959 . S
C392 C390 1.561 . S
C393 C390 1.526 . S
C393 C394 1.396 . S
C393 C398 1.390 . S
C394 C388 1.465 . S
C394 C393 1.396 . S
C394 C395 1.399 1_554 S
C395 H381 0.929 . S
C395 C394 1.399 1_556 S
C395 C396 1.385 . S
C396 H382 0.931 . S
C396 C395 1.385 . S
C396 C397 1.389 1_556 S
C397 C396 1.389 1_554 S
C397 C398 1.387 . S
C398 H383 0.930 . S
C398 C393 1.390 . S
C398 C397 1.387 . S
H399 C411 0.930 1_556 S
H400 C413 0.930 . S
H401 C414 0.930 . S
H402 C418 0.959 1_554 S
H403 C418 0.959 . S
H404 C418 0.961 . S
H405 C419 0.960 . S
H406 C419 0.961 . S
H407 C419 0.959 . S
H408 C422 0.929 . S
H409 C423 0.931 . S
H410 C425 0.930 1_556 S
C411 H399 0.930 1_554 S
C411 C412 1.399 . S
C411 C416 1.399 . S
C412 C411 1.399 . S
C412 C413 1.376 . S
C413 H400 0.930 . S
C413 C412 1.376 . S
C413 C414 1.388 . S
C414 H401 0.930 . S
C414 C413 1.388 . S
C414 C415 1.390 . S
C415 C414 1.390 . S
C415 C416 1.394 . S
C415 C421 1.465 . S
C416 C411 1.399 . S
C416 C415 1.394 . S
C416 C417 1.516 1_554 S
C417 C416 1.516 1_556 S
C417 C418 1.502 . S
C417 C419 1.561 . S
C417 C420 1.526 1_556 S
C418 H402 0.959 1_556 S
C418 H403 0.959 . S
C418 H404 0.961 . S
C418 C417 1.502 . S
C419 H405 0.960 . S
C419 H406 0.961 . S
C419 H407 0.959 . S
C419 C417 1.561 . S
C420 C417 1.526 1_554 S
C420 C421 1.396 . S
C420 C425 1.390 . S
C421 C415 1.465 . S
C421 C420 1.396 . S
C421 C422 1.399 . S
C422 H408 0.929 . S
C422 C421 1.399 . S
C422 C423 1.385 . S
C423 H409 0.931 . S
C423 C422 1.385 . S
C423 C424 1.389 . S
C424 C423 1.389 . S
C424 C425 1.387 . S
C425 H410 0.930 1_554 S
C425 C420 1.390 . S
C425 C424 1.387 . S
H426 C438 0.930 1_556 S
H427 C440 0.930 . S
H428 C441 0.930 . S
H429 C445 0.959 . S
H430 C445 0.959 . S
H431 C445 0.961 . S
H432 C446 0.960 . S
H433 C446 0.961 . S
H434 C446 0.959 . S
H435 C449 0.929 . S
H436 C450 0.931 . S
H437 C452 0.930 1_556 S
C438 H426 0.930 1_554 S
C438 C439 1.399 . S
C438 C443 1.399 . S
C439 C438 1.399 . S
C439 C440 1.376 . S
C440 H427 0.930 . S
C440 C439 1.376 . S
C440 C441 1.388 . S
C441 H428 0.930 . S
C441 C440 1.388 . S
C441 C442 1.390 . S
C442 C441 1.390 . S
C442 C443 1.394 . S
C442 C448 1.465 . S
C443 C438 1.399 . S
C443 C442 1.394 . S
C443 C444 1.516 1_554 S
C444 C443 1.516 1_556 S
C444 C445 1.502 . S
C444 C446 1.561 . S
C444 C447 1.526 1_556 S
C445 H429 0.959 . S
C445 H430 0.959 . S
C445 H431 0.961 . S
C445 C444 1.502 . S
C446 H432 0.960 . S
C446 H433 0.961 . S
C446 H434 0.959 . S
C446 C444 1.561 . S
C447 C444 1.526 1_554 S
C447 C448 1.396 . S
C447 C452 1.390 . S
C448 C442 1.465 . S
C448 C447 1.396 . S
C448 C449 1.399 . S
C449 H435 0.929 . S
C449 C448 1.399 . S
C449 C450 1.385 . S
C450 H436 0.931 . S
C450 C449 1.385 . S
C450 C451 1.389 . S
C451 C450 1.389 . S
C451 C452 1.387 . S
C452 H437 0.930 1_554 S
C452 C447 1.390 . S
C452 C451 1.387 . S
H453 C465 0.930 1_556 S
H454 C467 0.930 . S
H455 C468 0.930 . S
H456 C472 0.959 . S
H457 C472 0.959 . S
H458 C472 0.961 . S
H459 C473 0.960 . S
H460 C473 0.961 . S
H461 C473 0.959 . S
H462 C476 0.929 . S
H463 C477 0.931 . S
H464 C479 0.930 1_556 S
C465 H453 0.930 1_554 S
C465 C466 1.399 . S
C465 C470 1.399 . S
C466 C465 1.399 . S
C466 C467 1.376 . S
C467 H454 0.930 . S
C467 C466 1.376 . S
C467 C468 1.388 . S
C468 H455 0.930 . S
C468 C467 1.388 . S
C468 C469 1.390 . S
C469 C468 1.390 . S
C469 C470 1.394 . S
C469 C475 1.465 . S
C470 C465 1.399 . S
C470 C469 1.394 . S
C470 C471 1.516 1_554 S
C471 C470 1.516 1_556 S
C471 C472 1.502 . S
C471 C473 1.561 . S
C471 C474 1.526 1_556 S
C472 H456 0.959 . S
C472 H457 0.959 . S
C472 H458 0.961 . S
C472 C471 1.502 . S
C473 H459 0.960 . S
C473 H460 0.961 . S
C473 H461 0.959 . S
C473 C471 1.561 . S
C474 C471 1.526 1_554 S
C474 C475 1.396 . S
C474 C479 1.390 . S
C475 C469 1.465 . S
C475 C474 1.396 . S
C475 C476 1.399 . S
C476 H462 0.929 . S
C476 C475 1.399 . S
C476 C477 1.385 . S
C477 H463 0.931 . S
C477 C476 1.385 . S
C477 C478 1.389 . S
C478 C477 1.389 . S
C478 C479 1.387 . S
C479 H464 0.930 1_554 S
C479 C474 1.390 . S
C479 C478 1.387 . S
H480 C492 0.930 . S
H481 C494 0.930 . S
H482 C495 0.930 . S
H483 C499 0.959 . S
H484 C499 0.959 . S
H485 C499 0.961 . S
H486 C500 0.960 . S
H487 C500 0.961 . S
H488 C500 0.959 . S
H489 C503 0.929 . S
H490 C504 0.931 . S
H491 C506 0.930 . S
C492 H480 0.930 . S
C492 C493 1.399 . S
C492 C497 1.399 . S
C493 C492 1.399 . S
C493 C494 1.376 . S
C494 H481 0.930 . S
C494 C493 1.376 . S
C494 C495 1.388 . S
C495 H482 0.930 . S
C495 C494 1.388 . S
C495 C496 1.390 . S
C496 C495 1.390 . S
C496 C497 1.394 . S
C496 C502 1.465 . S
C497 C492 1.399 . S
C497 C496 1.394 . S
C497 C498 1.516 . S
C498 C497 1.516 . S
C498 C499 1.502 . S
C498 C500 1.561 . S
C498 C501 1.526 . S
C499 H483 0.959 . S
C499 H484 0.959 . S
C499 H485 0.961 . S
C499 C498 1.502 . S
C500 H486 0.960 . S
C500 H487 0.961 . S
C500 H488 0.959 . S
C500 C498 1.561 . S
C501 C498 1.526 . S
C501 C502 1.396 . S
C501 C506 1.390 . S
C502 C496 1.465 . S
C502 C501 1.396 . S
C502 C503 1.399 . S
C503 H489 0.929 . S
C503 C502 1.399 . S
C503 C504 1.385 . S
C504 H490 0.931 . S
C504 C503 1.385 . S
C504 C505 1.389 . S
C505 C504 1.389 . S
C505 C506 1.387 . S
C506 H491 0.930 . S
C506 C501 1.390 . S
C506 C505 1.387 . S
H507 C519 0.930 . S
H508 C521 0.930 1_455 S
H509 C522 0.930 . S
H510 C526 0.959 . S
H511 C526 0.959 . S
H512 C526 0.961 . S
H513 C527 0.960 . S
H514 C527 0.961 . S
H515 C527 0.959 . S
H516 C530 0.929 . S
H517 C531 0.931 . S
H518 C533 0.930 . S
C519 H507 0.930 . S
C519 C520 1.399 . S
C519 C524 1.399 . S
C520 C519 1.399 . S
C520 C521 1.376 . S
C521 H508 0.930 1_655 S
C521 C520 1.376 . S
C521 C522 1.388 . S
C522 H509 0.930 . S
C522 C521 1.388 . S
C522 C523 1.390 . S
C523 C522 1.390 . S
C523 C524 1.394 . S
C523 C529 1.465 . S
C524 C519 1.399 . S
C524 C523 1.394 . S
C524 C525 1.516 . S
C525 C524 1.516 . S
C525 C526 1.502 . S
C525 C527 1.561 . S
C525 C528 1.526 . S
C526 H510 0.959 . S
C526 H511 0.959 . S
C526 H512 0.961 . S
C526 C525 1.502 . S
C527 H513 0.960 . S
C527 H514 0.961 . S
C527 H515 0.959 . S
C527 C525 1.561 . S
C528 C525 1.526 . S
C528 C529 1.396 . S
C528 C533 1.390 . S
C529 C523 1.465 . S
C529 C528 1.396 . S
C529 C530 1.399 . S
C530 H516 0.929 . S
C530 C529 1.399 . S
C530 C531 1.385 . S
C531 H517 0.931 . S
C531 C530 1.385 . S
C531 C532 1.389 . S
C532 C531 1.389 . S
C532 C533 1.387 . S
C533 H518 0.930 . S
C533 C528 1.390 . S
C533 C532 1.387 . S
H534 C546 0.930 . S
H535 C548 0.930 1_545 S
H536 C549 0.930 . S
H537 C553 0.959 . S
H538 C553 0.959 . S
H539 C553 0.961 . S
H540 C554 0.960 . S
H541 C554 0.961 . S
H542 C554 0.959 . S
H543 C557 0.929 . S
H544 C558 0.931 . S
H545 C560 0.930 . S
C546 H534 0.930 . S
C546 C547 1.399 . S
C546 C551 1.399 . S
C547 C546 1.399 . S
C547 C548 1.376 . S
C548 H535 0.930 1_565 S
C548 C547 1.376 . S
C548 C549 1.388 . S
C549 H536 0.930 . S
C549 C548 1.388 . S
C549 C550 1.390 . S
C550 C549 1.390 . S
C550 C551 1.394 . S
C550 C556 1.465 . S
C551 C546 1.399 . S
C551 C550 1.394 . S
C551 C552 1.516 . S
C552 C551 1.516 . S
C552 C553 1.502 . S
C552 C554 1.561 . S
C552 C555 1.526 . S
C553 H537 0.959 . S
C553 H538 0.959 . S
C553 H539 0.961 . S
C553 C552 1.502 . S
C554 H540 0.960 . S
C554 H541 0.961 . S
C554 H542 0.959 . S
C554 C552 1.561 . S
C555 C552 1.526 . S
C555 C556 1.396 . S
C555 C560 1.390 . S
C556 C550 1.465 . S
C556 C555 1.396 . S
C556 C557 1.399 . S
C557 H543 0.929 . S
C557 C556 1.399 . S
C557 C558 1.385 . S
C558 H544 0.931 . S
C558 C557 1.385 . S
C558 C559 1.389 . S
C559 C558 1.389 . S
C559 C560 1.387 . S
C560 H545 0.930 . S
C560 C555 1.390 . S
C560 C559 1.387 . S
H561 C573 0.930 . S
H562 C575 0.930 . S
H563 C576 0.930 . S
H564 C580 0.959 . S
H565 C580 0.959 . S
H566 C580 0.961 . S
H567 C581 0.960 . S
H568 C581 0.961 . S
H569 C581 0.959 . S
H570 C584 0.929 . S
H571 C585 0.931 . S
H572 C587 0.930 . S
C573 H561 0.930 . S
C573 C574 1.399 . S
C573 C578 1.399 . S
C574 C573 1.399 . S
C574 C575 1.376 . S
C575 H562 0.930 . S
C575 C574 1.376 . S
C575 C576 1.388 . S
C576 H563 0.930 . S
C576 C575 1.388 . S
C576 C577 1.390 . S
C577 C576 1.390 . S
C577 C578 1.394 . S
C577 C583 1.465 . S
C578 C573 1.399 . S
C578 C577 1.394 . S
C578 C579 1.516 . S
C579 C578 1.516 . S
C579 C580 1.502 . S
C579 C581 1.561 . S
C579 C582 1.526 . S
C580 H564 0.959 . S
C580 H565 0.959 . S
C580 H566 0.961 . S
C580 C579 1.502 . S
C581 H567 0.960 . S
C581 H568 0.961 . S
C581 H569 0.959 . S
C581 C579 1.561 . S
C582 C579 1.526 . S
C582 C583 1.396 . S
C582 C587 1.390 . S
C583 C577 1.465 . S
C583 C582 1.396 . S
C583 C584 1.399 . S
C584 H570 0.929 . S
C584 C583 1.399 . S
C584 C585 1.385 . S
C585 H571 0.931 . S
C585 C584 1.385 . S
C585 C586 1.389 . S
C586 C585 1.389 . S
C586 C587 1.387 . S
C587 H572 0.930 . S
C587 C582 1.390 . S
C587 C586 1.387 . S
H588 C600 0.930 . S
H589 C602 0.930 . S
H590 C603 0.930 . S
H591 C607 0.959 . S
H592 C607 0.959 . S
H593 C607 0.961 . S
H594 C608 0.960 . S
H595 C608 0.961 . S
H596 C608 0.959 . S
H597 C611 0.929 . S
H598 C612 0.931 . S
H599 C614 0.930 . S
C600 H588 0.930 . S
C600 C601 1.399 . S
C600 C605 1.399 . S
C601 C600 1.399 . S
C601 C602 1.376 . S
C602 H589 0.930 . S
C602 C601 1.376 . S
C602 C603 1.388 . S
C603 H590 0.930 . S
C603 C602 1.388 . S
C603 C604 1.390 . S
C604 C603 1.390 . S
C604 C605 1.394 . S
C604 C610 1.465 . S
C605 C600 1.399 . S
C605 C604 1.394 . S
C605 C606 1.516 . S
C606 C605 1.516 . S
C606 C607 1.502 . S
C606 C608 1.561 . S
C606 C609 1.526 . S
C607 H591 0.959 . S
C607 H592 0.959 . S
C607 H593 0.961 . S
C607 C606 1.502 . S
C608 H594 0.960 . S
C608 H595 0.961 . S
C608 H596 0.959 . S
C608 C606 1.561 . S
C609 C606 1.526 . S
C609 C610 1.396 . S
C609 C614 1.390 . S
C610 C604 1.465 . S
C610 C609 1.396 . S
C610 C611 1.399 . S
C611 H597 0.929 . S
C611 C610 1.399 . S
C611 C612 1.385 . S
C612 H598 0.931 . S
C612 C611 1.385 . S
C612 C613 1.389 . S
C613 C612 1.389 . S
C613 C614 1.387 . S
C614 H599 0.930 . S
C614 C609 1.390 . S
C614 C613 1.387 . S
H615 C627 0.930 . S
H616 C629 0.930 . S
H617 C630 0.930 . S
H618 C634 0.959 . S
H619 C634 0.959 . S
H620 C634 0.961 . S
H621 C635 0.960 . S
H622 C635 0.961 . S
H623 C635 0.959 . S
H624 C638 0.929 . S
H625 C639 0.931 . S
H626 C641 0.930 . S
C627 H615 0.930 . S
C627 C628 1.399 . S
C627 C632 1.399 . S
C628 C627 1.399 . S
C628 C629 1.376 . S
C629 H616 0.930 . S
C629 C628 1.376 . S
C629 C630 1.388 . S
C630 H617 0.930 . S
C630 C629 1.388 . S
C630 C631 1.390 . S
C631 C630 1.390 . S
C631 C632 1.394 . S
C631 C637 1.465 . S
C632 C627 1.399 . S
C632 C631 1.394 . S
C632 C633 1.516 . S
C633 C632 1.516 . S
C633 C634 1.502 . S
C633 C635 1.561 . S
C633 C636 1.526 . S
C634 H618 0.959 . S
C634 H619 0.959 . S
C634 H620 0.961 . S
C634 C633 1.502 . S
C635 H621 0.960 . S
C635 H622 0.961 . S
C635 H623 0.959 . S
C635 C633 1.561 . S
C636 C633 1.526 . S
C636 C637 1.396 . S
C636 C641 1.390 . S
C637 C631 1.465 . S
C637 C636 1.396 . S
C637 C638 1.399 . S
C638 H624 0.929 . S
C638 C637 1.399 . S
C638 C639 1.385 . S
C639 H625 0.931 . S
C639 C638 1.385 . S
C639 C640 1.389 . S
C640 C639 1.389 . S
C640 C641 1.387 . S
C641 H626 0.930 . S
C641 C636 1.390 . S
C641 C640 1.387 . S
H642 C654 0.930 . S
H643 C656 0.930 . S
H644 C657 0.930 . S
H645 C661 0.959 . S
H646 C661 0.959 . S
H647 C661 0.961 . S
H648 C662 0.960 . S
H649 C662 0.961 . S
H650 C662 0.959 . S
H651 C665 0.929 . S
H652 C666 0.931 . S
H653 C668 0.930 . S
C654 H642 0.930 . S
C654 C655 1.399 . S
C654 C659 1.399 . S
C655 C654 1.399 . S
C655 C656 1.376 . S
C656 H643 0.930 . S
C656 C655 1.376 . S
C656 C657 1.388 . S
C657 H644 0.930 . S
C657 C656 1.388 . S
C657 C658 1.390 . S
C658 C657 1.390 . S
C658 C659 1.394 . S
C658 C664 1.465 . S
C659 C654 1.399 . S
C659 C658 1.394 . S
C659 C660 1.516 . S
C660 C659 1.516 . S
C660 C661 1.502 . S
C660 C662 1.561 . S
C660 C663 1.526 . S
C661 H645 0.959 . S
C661 H646 0.959 . S
C661 H647 0.961 . S
C661 C660 1.502 . S
C662 H648 0.960 . S
C662 H649 0.961 . S
C662 H650 0.959 . S
C662 C660 1.561 . S
C663 C660 1.526 . S
C663 C664 1.396 . S
C663 C668 1.390 . S
C664 C658 1.465 . S
C664 C663 1.396 . S
C664 C665 1.399 . S
C665 H651 0.929 . S
C665 C664 1.399 . S
C665 C666 1.385 . S
C666 H652 0.931 . S
C666 C665 1.385 . S
C666 C667 1.389 . S
C667 C666 1.389 . S
C667 C668 1.387 . S
C668 H653 0.930 . S
C668 C663 1.390 . S
C668 C667 1.387 . S
H669 C681 0.930 . S
H670 C683 0.930 . S
H671 C684 0.930 . S
H672 C688 0.959 . S
H673 C688 0.959 . S
H674 C688 0.961 . S
H675 C689 0.960 . S
H676 C689 0.961 . S
H677 C689 0.959 . S
H678 C692 0.929 . S
H679 C693 0.931 . S
H680 C695 0.930 . S
C681 H669 0.930 . S
C681 C682 1.399 . S
C681 C686 1.399 . S
C682 C681 1.399 . S
C682 C683 1.376 . S
C683 H670 0.930 . S
C683 C682 1.376 . S
C683 C684 1.388 . S
C684 H671 0.930 . S
C684 C683 1.388 . S
C684 C685 1.390 . S
C685 C684 1.390 . S
C685 C686 1.394 . S
C685 C691 1.465 . S
C686 C681 1.399 . S
C686 C685 1.394 . S
C686 C687 1.516 . S
C687 C686 1.516 . S
C687 C688 1.502 . S
C687 C689 1.561 . S
C687 C690 1.526 . S
C688 H672 0.959 . S
C688 H673 0.959 . S
C688 H674 0.961 . S
C688 C687 1.502 . S
C689 H675 0.960 . S
C689 H676 0.961 . S
C689 H677 0.959 . S
C689 C687 1.561 . S
C690 C687 1.526 . S
C690 C691 1.396 . S
C690 C695 1.390 . S
C691 C685 1.465 . S
C691 C690 1.396 . S
C691 C692 1.399 . S
C692 H678 0.929 . S
C692 C691 1.399 . S
C692 C693 1.385 . S
C693 H679 0.931 . S
C693 C692 1.385 . S
C693 C694 1.389 . S
C694 C693 1.389 . S
C694 C695 1.387 . S
C695 H680 0.930 . S
C695 C690 1.390 . S
C695 C694 1.387 . S
H696 C708 0.930 . S
H697 C710 0.930 . S
H698 C711 0.930 . S
H699 C715 0.959 . S
H700 C715 0.959 . S
H701 C715 0.961 . S
H702 C716 0.960 . S
H703 C716 0.961 . S
H704 C716 0.959 . S
H705 C719 0.929 . S
H706 C720 0.931 . S
H707 C722 0.930 . S
C708 H696 0.930 . S
C708 C709 1.399 . S
C708 C713 1.399 . S
C709 C708 1.399 . S
C709 C710 1.376 . S
C710 H697 0.930 . S
C710 C709 1.376 . S
C710 C711 1.388 . S
C711 H698 0.930 . S
C711 C710 1.388 . S
C711 C712 1.390 . S
C712 C711 1.390 . S
C712 C713 1.394 . S
C712 C718 1.465 . S
C713 C708 1.399 . S
C713 C712 1.394 . S
C713 C714 1.516 . S
C714 C713 1.516 . S
C714 C715 1.502 . S
C714 C716 1.561 . S
C714 C717 1.526 . S
C715 H699 0.959 . S
C715 H700 0.959 . S
C715 H701 0.961 . S
C715 C714 1.502 . S
C716 H702 0.960 . S
C716 H703 0.961 . S
C716 H704 0.959 . S
C716 C714 1.561 . S
C717 C714 1.526 . S
C717 C718 1.396 . S
C717 C722 1.390 . S
C718 C712 1.465 . S
C718 C717 1.396 . S
C718 C719 1.399 . S
C719 H705 0.929 . S
C719 C718 1.399 . S
C719 C720 1.385 . S
C720 H706 0.931 . S
C720 C719 1.385 . S
C720 C721 1.389 . S
C721 C720 1.389 . S
C721 C722 1.387 . S
C722 H707 0.930 . S
C722 C717 1.390 . S
C722 C721 1.387 . S
H723 C735 0.930 . S
H724 C737 0.930 . S
H725 C738 0.930 . S
H726 C742 0.959 . S
H727 C742 0.959 . S
H728 C742 0.961 . S
H729 C743 0.960 . S
H730 C743 0.961 . S
H731 C743 0.959 . S
H732 C746 0.929 . S
H733 C747 0.931 . S
H734 C749 0.930 . S
C735 H723 0.930 . S
C735 C736 1.399 . S
C735 C740 1.399 . S
C736 C735 1.399 . S
C736 C737 1.376 . S
C737 H724 0.930 . S
C737 C736 1.376 . S
C737 C738 1.388 . S
C738 H725 0.930 . S
C738 C737 1.388 . S
C738 C739 1.390 . S
C739 C738 1.390 . S
C739 C740 1.394 . S
C739 C745 1.465 . S
C740 C735 1.399 . S
C740 C739 1.394 . S
C740 C741 1.516 . S
C741 C740 1.516 . S
C741 C742 1.502 . S
C741 C743 1.561 . S
C741 C744 1.526 . S
C742 H726 0.959 . S
C742 H727 0.959 . S
C742 H728 0.961 . S
C742 C741 1.502 . S
C743 H729 0.960 . S
C743 H730 0.961 . S
C743 H731 0.959 . S
C743 C741 1.561 . S
C744 C741 1.526 . S
C744 C745 1.396 . S
C744 C749 1.390 . S
C745 C739 1.465 . S
C745 C744 1.396 . S
C745 C746 1.399 . S
C746 H732 0.929 . S
C746 C745 1.399 . S
C746 C747 1.385 . S
C747 H733 0.931 . S
C747 C746 1.385 . S
C747 C748 1.389 . S
C748 C747 1.389 . S
C748 C749 1.387 . S
C749 H734 0.930 . S
C749 C744 1.390 . S
C749 C748 1.387 . S
H750 C762 0.930 . S
H751 C764 0.930 . S
H752 C765 0.930 . S
H753 C769 0.959 . S
H754 C769 0.959 . S
H755 C769 0.961 . S
H756 C770 0.960 . S
H757 C770 0.961 . S
H758 C770 0.959 . S
H759 C773 0.929 . S
H760 C774 0.931 . S
H761 C776 0.930 . S
C762 H750 0.930 . S
C762 C763 1.399 . S
C762 C767 1.399 . S
C763 C762 1.399 . S
C763 C764 1.376 . S
C764 H751 0.930 . S
C764 C763 1.376 . S
C764 C765 1.388 . S
C765 H752 0.930 . S
C765 C764 1.388 . S
C765 C766 1.390 . S
C766 C765 1.390 . S
C766 C767 1.394 . S
C766 C772 1.465 . S
C767 C762 1.399 . S
C767 C766 1.394 . S
C767 C768 1.516 . S
C768 C767 1.516 . S
C768 C769 1.502 . S
C768 C770 1.561 . S
C768 C771 1.526 . S
C769 H753 0.959 . S
C769 H754 0.959 . S
C769 H755 0.961 . S
C769 C768 1.502 . S
C770 H756 0.960 . S
C770 H757 0.961 . S
C770 H758 0.959 . S
C770 C768 1.561 . S
C771 C768 1.526 . S
C771 C772 1.396 . S
C771 C776 1.390 . S
C772 C766 1.465 . S
C772 C771 1.396 . S
C772 C773 1.399 . S
C773 H759 0.929 . S
C773 C772 1.399 . S
C773 C774 1.385 . S
C774 H760 0.931 . S
C774 C773 1.385 . S
C774 C775 1.389 . S
C775 C774 1.389 . S
C775 C776 1.387 . S
C776 H761 0.930 . S
C776 C771 1.390 . S
C776 C775 1.387 . S
H777 C789 0.930 . S
H778 C791 0.930 . S
H779 C792 0.930 . S
H780 C796 0.959 . S
H781 C796 0.959 . S
H782 C796 0.961 . S
H783 C797 0.960 . S
H784 C797 0.961 . S
H785 C797 0.959 . S
H786 C800 0.929 . S
H787 C801 0.931 . S
H788 C803 0.930 . S
C789 H777 0.930 . S
C789 C790 1.399 . S
C789 C794 1.399 . S
C790 C789 1.399 . S
C790 C791 1.376 . S
C791 H778 0.930 . S
C791 C790 1.376 . S
C791 C792 1.388 . S
C792 H779 0.930 . S
C792 C791 1.388 . S
C792 C793 1.390 . S
C793 C792 1.390 . S
C793 C794 1.394 . S
C793 C799 1.465 . S
C794 C789 1.399 . S
C794 C793 1.394 . S
C794 C795 1.516 . S
C795 C794 1.516 . S
C795 C796 1.502 . S
C795 C797 1.561 . S
C795 C798 1.526 . S
C796 H780 0.959 . S
C796 H781 0.959 . S
C796 H782 0.961 . S
C796 C795 1.502 . S
C797 H783 0.960 . S
C797 H784 0.961 . S
C797 H785 0.959 . S
C797 C795 1.561 . S
C798 C795 1.526 . S
C798 C799 1.396 . S
C798 C803 1.390 . S
C799 C793 1.465 . S
C799 C798 1.396 . S
C799 C800 1.399 . S
C800 H786 0.929 . S
C800 C799 1.399 . S
C800 C801 1.385 . S
C801 H787 0.931 . S
C801 C800 1.385 . S
C801 C802 1.389 . S
C802 C801 1.389 . S
C802 C803 1.387 . S
C803 H788 0.930 . S
C803 C798 1.390 . S
C803 C802 1.387 . S
C277 N71 1.526 . S
C289 N5 1.536 . S
C304 N38 1.540 . S
C316 N104 1.522 . S
C331 N137 1.527 . S
C343 N203 1.538 . S
C358 N170 1.538 . S
C370 N236 1.524 . S
C385 C107 1.588 . S
C397 N14 1.533 . S
C412 C8 1.598 . S
C424 N47 1.558 . S
C439 N80 1.501 . S
C451 C41 1.595 . S
C466 N113 1.522 . S
C478 C74 1.598 . S
C493 C173 1.587 1_545 S
C505 N146 1.517 . S
C520 C206 1.598 1_655 S
C532 N179 1.551 . S
C547 C239 1.598 1_565 S
C559 N212 1.552 . S
C574 C140 1.589 1_455 S
C586 N245 1.499 . S
C601 C28 1.346 . S
C613 C259 1.370 . S
C628 C61 1.369 . S
C640 C160 1.349 . S
C655 C193 1.354 . S
C667 C94 1.364 . S
C682 C226 1.370 . S
C694 C127 1.347 . S
C709 C83 1.464 . S
C721 C182 1.464 . S
C736 C215 1.431 . S
C748 C116 1.433 . S
C763 C248 1.459 . S
C775 C17 1.457 . S
C790 C149 1.440 . S
C802 C50 1.438 . S
