# Generated by pormake.
# Topology hal, (4)-cn, num edge types: 1
# Building blocks:
#     Node 0, Type 0, BuildingBlock: QUQFOY_clean_sbu_3, # of connection points: 4
#     Node 1, Type 0, BuildingBlock: QUQFOY_clean_sbu_3, # of connection points: 4
#     Node 2, Type 0, BuildingBlock: QUQFOY_clean_sbu_3, # of connection points: 4
#     Node 3, Type 0, BuildingBlock: QUQFOY_clean_sbu_3, # of connection points: 4
#     Node 4, Type 0, BuildingBlock: QUQFOY_clean_sbu_3, # of connection points: 4
#     Node 5, Type 0, BuildingBlock: QUQFOY_clean_sbu_3, # of connection points: 4
#     Node 6, Type 0, BuildingBlock: QUQFOY_clean_sbu_3, # of connection points: 4
#     Node 7, Type 0, BuildingBlock: QUQFOY_clean_sbu_3, # of connection points: 4
#     Node 8, Type 0, BuildingBlock: QUQFOY_clean_sbu_3, # of connection points: 4
#     Node 9, Type 0, BuildingBlock: QUQFOY_clean_sbu_3, # of connection points: 4
#     Node 10, Type 0, BuildingBlock: QUQFOY_clean_sbu_3, # of connection points: 4
#     Node 11, Type 0, BuildingBlock: QUQFOY_clean_sbu_3, # of connection points: 4
#     Node 12, Type 0, BuildingBlock: QUQFOY_clean_sbu_3, # of connection points: 4
#     Node 13, Type 0, BuildingBlock: QUQFOY_clean_sbu_3, # of connection points: 4
#     Node 14, Type 0, BuildingBlock: QUQFOY_clean_sbu_3, # of connection points: 4
#     Node 15, Type 0, BuildingBlock: QUQFOY_clean_sbu_3, # of connection points: 4
#     Node 16, Type 0, BuildingBlock: QUQFOY_clean_sbu_3, # of connection points: 4
#     Node 17, Type 0, BuildingBlock: QUQFOY_clean_sbu_3, # of connection points: 4
#     Node 18, Type 0, BuildingBlock: QUQFOY_clean_sbu_3, # of connection points: 4
#     Node 19, Type 0, BuildingBlock: QUQFOY_clean_sbu_3, # of connection points: 4
#     Node 20, Type 0, BuildingBlock: QUQFOY_clean_sbu_3, # of connection points: 4
#     Node 21, Type 0, BuildingBlock: QUQFOY_clean_sbu_3, # of connection points: 4
#     Node 22, Type 0, BuildingBlock: QUQFOY_clean_sbu_3, # of connection points: 4
#     Node 23, Type 0, BuildingBlock: QUQFOY_clean_sbu_3, # of connection points: 4
#     Node 24, Type 0, BuildingBlock: QUQFOY_clean_sbu_3, # of connection points: 4
#     Node 25, Type 0, BuildingBlock: QUQFOY_clean_sbu_3, # of connection points: 4
#     Node 26, Type 0, BuildingBlock: QUQFOY_clean_sbu_3, # of connection points: 4
#     Node 27, Type 0, BuildingBlock: QUQFOY_clean_sbu_3, # of connection points: 4
#     Node 28, Type 0, BuildingBlock: QUQFOY_clean_sbu_3, # of connection points: 4
#     Node 29, Type 0, BuildingBlock: QUQFOY_clean_sbu_3, # of connection points: 4
#     Node 30, Type 0, BuildingBlock: QUQFOY_clean_sbu_3, # of connection points: 4
#     Node 31, Type 0, BuildingBlock: QUQFOY_clean_sbu_3, # of connection points: 4
#     Node 32, Type 0, BuildingBlock: QUQFOY_clean_sbu_3, # of connection points: 4
#     Node 33, Type 0, BuildingBlock: QUQFOY_clean_sbu_3, # of connection points: 4
#     Node 34, Type 0, BuildingBlock: QUQFOY_clean_sbu_3, # of connection points: 4
#     Node 35, Type 0, BuildingBlock: QUQFOY_clean_sbu_3, # of connection points: 4
#     Node 36, Type 0, BuildingBlock: QUQFOY_clean_sbu_3, # of connection points: 4
#     Node 37, Type 0, BuildingBlock: QUQFOY_clean_sbu_3, # of connection points: 4
#     Node 38, Type 0, BuildingBlock: QUQFOY_clean_sbu_3, # of connection points: 4
#     Node 39, Type 0, BuildingBlock: QUQFOY_clean_sbu_3, # of connection points: 4
#     Node 40, Type 0, BuildingBlock: QUQFOY_clean_sbu_3, # of connection points: 4
#     Node 41, Type 0, BuildingBlock: QUQFOY_clean_sbu_3, # of connection points: 4
#     Node 42, Type 0, BuildingBlock: QUQFOY_clean_sbu_3, # of connection points: 4
#     Node 43, Type 0, BuildingBlock: QUQFOY_clean_sbu_3, # of connection points: 4
#     Node 44, Type 0, BuildingBlock: QUQFOY_clean_sbu_3, # of connection points: 4
#     Node 45, Type 0, BuildingBlock: QUQFOY_clean_sbu_3, # of connection points: 4
#     Node 46, Type 0, BuildingBlock: QUQFOY_clean_sbu_3, # of connection points: 4
#     Node 47, Type 0, BuildingBlock: QUQFOY_clean_sbu_3, # of connection points: 4
#     Node 48, Type 0, BuildingBlock: QUQFOY_clean_sbu_3, # of connection points: 4
#     Node 49, Type 0, BuildingBlock: QUQFOY_clean_sbu_3, # of connection points: 4
#     Node 50, Type 0, BuildingBlock: QUQFOY_clean_sbu_3, # of connection points: 4
#     Node 51, Type 0, BuildingBlock: QUQFOY_clean_sbu_3, # of connection points: 4
#     Node 52, Type 0, BuildingBlock: QUQFOY_clean_sbu_3, # of connection points: 4
#     Node 53, Type 0, BuildingBlock: QUQFOY_clean_sbu_3, # of connection points: 4
#     Node 54, Type 0, BuildingBlock: QUQFOY_clean_sbu_3, # of connection points: 4
#     Node 55, Type 0, BuildingBlock: QUQFOY_clean_sbu_3, # of connection points: 4
#     Node 56, Type 0, BuildingBlock: QUQFOY_clean_sbu_3, # of connection points: 4
#     Node 57, Type 0, BuildingBlock: QUQFOY_clean_sbu_3, # of connection points: 4
#     Node 58, Type 0, BuildingBlock: QUQFOY_clean_sbu_3, # of connection points: 4
#     Node 59, Type 0, BuildingBlock: QUQFOY_clean_sbu_3, # of connection points: 4
#     Node 60, Type 0, BuildingBlock: QUQFOY_clean_sbu_3, # of connection points: 4
#     Node 61, Type 0, BuildingBlock: QUQFOY_clean_sbu_3, # of connection points: 4
#     Node 62, Type 0, BuildingBlock: QUQFOY_clean_sbu_3, # of connection points: 4
#     Node 63, Type 0, BuildingBlock: QUQFOY_clean_sbu_3, # of connection points: 4
#     Node 64, Type 0, BuildingBlock: QUQFOY_clean_sbu_3, # of connection points: 4
#     Node 65, Type 0, BuildingBlock: QUQFOY_clean_sbu_3, # of connection points: 4
#     Node 66, Type 0, BuildingBlock: QUQFOY_clean_sbu_3, # of connection points: 4
#     Node 67, Type 0, BuildingBlock: QUQFOY_clean_sbu_3, # of connection points: 4
#     Node 68, Type 0, BuildingBlock: QUQFOY_clean_sbu_3, # of connection points: 4
#     Node 69, Type 0, BuildingBlock: QUQFOY_clean_sbu_3, # of connection points: 4
#     Node 70, Type 0, BuildingBlock: QUQFOY_clean_sbu_3, # of connection points: 4
#     Node 71, Type 0, BuildingBlock: QUQFOY_clean_sbu_3, # of connection points: 4
#     Node 72, Type 0, BuildingBlock: QUQFOY_clean_sbu_3, # of connection points: 4
#     Node 73, Type 0, BuildingBlock: QUQFOY_clean_sbu_3, # of connection points: 4
#     Node 74, Type 0, BuildingBlock: QUQFOY_clean_sbu_3, # of connection points: 4
#     Node 75, Type 0, BuildingBlock: QUQFOY_clean_sbu_3, # of connection points: 4
#     Node 76, Type 0, BuildingBlock: QUQFOY_clean_sbu_3, # of connection points: 4
#     Node 77, Type 0, BuildingBlock: QUQFOY_clean_sbu_3, # of connection points: 4
#     Node 78, Type 0, BuildingBlock: QUQFOY_clean_sbu_3, # of connection points: 4
#     Node 79, Type 0, BuildingBlock: QUQFOY_clean_sbu_3, # of connection points: 4
#     Node 80, Type 0, BuildingBlock: QUQFOY_clean_sbu_3, # of connection points: 4
#     Node 81, Type 0, BuildingBlock: QUQFOY_clean_sbu_3, # of connection points: 4
#     Node 82, Type 0, BuildingBlock: QUQFOY_clean_sbu_3, # of connection points: 4
#     Node 83, Type 0, BuildingBlock: QUQFOY_clean_sbu_3, # of connection points: 4
#     Node 84, Type 0, BuildingBlock: QUQFOY_clean_sbu_3, # of connection points: 4
#     Node 85, Type 0, BuildingBlock: QUQFOY_clean_sbu_3, # of connection points: 4
#     Node 86, Type 0, BuildingBlock: QUQFOY_clean_sbu_3, # of connection points: 4
#     Node 87, Type 0, BuildingBlock: QUQFOY_clean_sbu_3, # of connection points: 4
#     Node 88, Type 0, BuildingBlock: QUQFOY_clean_sbu_3, # of connection points: 4
#     Node 89, Type 0, BuildingBlock: QUQFOY_clean_sbu_3, # of connection points: 4
#     Node 90, Type 0, BuildingBlock: QUQFOY_clean_sbu_3, # of connection points: 4
#     Node 91, Type 0, BuildingBlock: QUQFOY_clean_sbu_3, # of connection points: 4
#     Node 92, Type 0, BuildingBlock: QUQFOY_clean_sbu_3, # of connection points: 4
#     Node 93, Type 0, BuildingBlock: QUQFOY_clean_sbu_3, # of connection points: 4
#     Node 94, Type 0, BuildingBlock: QUQFOY_clean_sbu_3, # of connection points: 4
#     Node 95, Type 0, BuildingBlock: QUQFOY_clean_sbu_3, # of connection points: 4
#     Edge 96, Type (0, 0), None
#     Edge 97, Type (0, 0), None
#     Edge 98, Type (0, 0), None
#     Edge 99, Type (0, 0), None
#     Edge 100, Type (0, 0), None
#     Edge 101, Type (0, 0), None
#     Edge 102, Type (0, 0), None
#     Edge 103, Type (0, 0), None
#     Edge 104, Type (0, 0), None
#     Edge 105, Type (0, 0), None
#     Edge 106, Type (0, 0), None
#     Edge 107, Type (0, 0), None
#     Edge 108, Type (0, 0), None
#     Edge 109, Type (0, 0), None
#     Edge 110, Type (0, 0), None
#     Edge 111, Type (0, 0), None
#     Edge 112, Type (0, 0), None
#     Edge 113, Type (0, 0), None
#     Edge 114, Type (0, 0), None
#     Edge 115, Type (0, 0), None
#     Edge 116, Type (0, 0), None
#     Edge 117, Type (0, 0), None
#     Edge 118, Type (0, 0), None
#     Edge 119, Type (0, 0), None
#     Edge 120, Type (0, 0), None
#     Edge 121, Type (0, 0), None
#     Edge 122, Type (0, 0), None
#     Edge 123, Type (0, 0), None
#     Edge 124, Type (0, 0), None
#     Edge 125, Type (0, 0), None
#     Edge 126, Type (0, 0), None
#     Edge 127, Type (0, 0), None
#     Edge 128, Type (0, 0), None
#     Edge 129, Type (0, 0), None
#     Edge 130, Type (0, 0), None
#     Edge 131, Type (0, 0), None
#     Edge 132, Type (0, 0), None
#     Edge 133, Type (0, 0), None
#     Edge 134, Type (0, 0), None
#     Edge 135, Type (0, 0), None
#     Edge 136, Type (0, 0), None
#     Edge 137, Type (0, 0), None
#     Edge 138, Type (0, 0), None
#     Edge 139, Type (0, 0), None
#     Edge 140, Type (0, 0), None
#     Edge 141, Type (0, 0), None
#     Edge 142, Type (0, 0), None
#     Edge 143, Type (0, 0), None
#     Edge 144, Type (0, 0), None
#     Edge 145, Type (0, 0), None
#     Edge 146, Type (0, 0), None
#     Edge 147, Type (0, 0), None
#     Edge 148, Type (0, 0), None
#     Edge 149, Type (0, 0), None
#     Edge 150, Type (0, 0), None
#     Edge 151, Type (0, 0), None
#     Edge 152, Type (0, 0), None
#     Edge 153, Type (0, 0), None
#     Edge 154, Type (0, 0), None
#     Edge 155, Type (0, 0), None
#     Edge 156, Type (0, 0), None
#     Edge 157, Type (0, 0), None
#     Edge 158, Type (0, 0), None
#     Edge 159, Type (0, 0), None
#     Edge 160, Type (0, 0), None
#     Edge 161, Type (0, 0), None
#     Edge 162, Type (0, 0), None
#     Edge 163, Type (0, 0), None
#     Edge 164, Type (0, 0), None
#     Edge 165, Type (0, 0), None
#     Edge 166, Type (0, 0), None
#     Edge 167, Type (0, 0), None
#     Edge 168, Type (0, 0), None
#     Edge 169, Type (0, 0), None
#     Edge 170, Type (0, 0), None
#     Edge 171, Type (0, 0), None
#     Edge 172, Type (0, 0), None
#     Edge 173, Type (0, 0), None
#     Edge 174, Type (0, 0), None
#     Edge 175, Type (0, 0), None
#     Edge 176, Type (0, 0), None
#     Edge 177, Type (0, 0), None
#     Edge 178, Type (0, 0), None
#     Edge 179, Type (0, 0), None
#     Edge 180, Type (0, 0), None
#     Edge 181, Type (0, 0), None
#     Edge 182, Type (0, 0), None
#     Edge 183, Type (0, 0), None
#     Edge 184, Type (0, 0), None
#     Edge 185, Type (0, 0), None
#     Edge 186, Type (0, 0), None
#     Edge 187, Type (0, 0), None
#     Edge 188, Type (0, 0), None
#     Edge 189, Type (0, 0), None
#     Edge 190, Type (0, 0), None
#     Edge 191, Type (0, 0), None
#     Edge 192, Type (0, 0), None
#     Edge 193, Type (0, 0), None
#     Edge 194, Type (0, 0), None
#     Edge 195, Type (0, 0), None
#     Edge 196, Type (0, 0), None
#     Edge 197, Type (0, 0), None
#     Edge 198, Type (0, 0), None
#     Edge 199, Type (0, 0), None
#     Edge 200, Type (0, 0), None
#     Edge 201, Type (0, 0), None
#     Edge 202, Type (0, 0), None
#     Edge 203, Type (0, 0), None
#     Edge 204, Type (0, 0), None
#     Edge 205, Type (0, 0), None
#     Edge 206, Type (0, 0), None
#     Edge 207, Type (0, 0), None
#     Edge 208, Type (0, 0), None
#     Edge 209, Type (0, 0), None
#     Edge 210, Type (0, 0), None
#     Edge 211, Type (0, 0), None
#     Edge 212, Type (0, 0), None
#     Edge 213, Type (0, 0), None
#     Edge 214, Type (0, 0), None
#     Edge 215, Type (0, 0), None
#     Edge 216, Type (0, 0), None
#     Edge 217, Type (0, 0), None
#     Edge 218, Type (0, 0), None
#     Edge 219, Type (0, 0), None
#     Edge 220, Type (0, 0), None
#     Edge 221, Type (0, 0), None
#     Edge 222, Type (0, 0), None
#     Edge 223, Type (0, 0), None
#     Edge 224, Type (0, 0), None
#     Edge 225, Type (0, 0), None
#     Edge 226, Type (0, 0), None
#     Edge 227, Type (0, 0), None
#     Edge 228, Type (0, 0), None
#     Edge 229, Type (0, 0), None
#     Edge 230, Type (0, 0), None
#     Edge 231, Type (0, 0), None
#     Edge 232, Type (0, 0), None
#     Edge 233, Type (0, 0), None
#     Edge 234, Type (0, 0), None
#     Edge 235, Type (0, 0), None
#     Edge 236, Type (0, 0), None
#     Edge 237, Type (0, 0), None
#     Edge 238, Type (0, 0), None
#     Edge 239, Type (0, 0), None
#     Edge 240, Type (0, 0), None
#     Edge 241, Type (0, 0), None
#     Edge 242, Type (0, 0), None
#     Edge 243, Type (0, 0), None
#     Edge 244, Type (0, 0), None
#     Edge 245, Type (0, 0), None
#     Edge 246, Type (0, 0), None
#     Edge 247, Type (0, 0), None
#     Edge 248, Type (0, 0), None
#     Edge 249, Type (0, 0), None
#     Edge 250, Type (0, 0), None
#     Edge 251, Type (0, 0), None
#     Edge 252, Type (0, 0), None
#     Edge 253, Type (0, 0), None
#     Edge 254, Type (0, 0), None
#     Edge 255, Type (0, 0), None
#     Edge 256, Type (0, 0), None
#     Edge 257, Type (0, 0), None
#     Edge 258, Type (0, 0), None
#     Edge 259, Type (0, 0), None
#     Edge 260, Type (0, 0), None
#     Edge 261, Type (0, 0), None
#     Edge 262, Type (0, 0), None
#     Edge 263, Type (0, 0), None
#     Edge 264, Type (0, 0), None
#     Edge 265, Type (0, 0), None
#     Edge 266, Type (0, 0), None
#     Edge 267, Type (0, 0), None
#     Edge 268, Type (0, 0), None
#     Edge 269, Type (0, 0), None
#     Edge 270, Type (0, 0), None
#     Edge 271, Type (0, 0), None
#     Edge 272, Type (0, 0), None
#     Edge 273, Type (0, 0), None
#     Edge 274, Type (0, 0), None
#     Edge 275, Type (0, 0), None
#     Edge 276, Type (0, 0), None
#     Edge 277, Type (0, 0), None
#     Edge 278, Type (0, 0), None
#     Edge 279, Type (0, 0), None
#     Edge 280, Type (0, 0), None
#     Edge 281, Type (0, 0), None
#     Edge 282, Type (0, 0), None
#     Edge 283, Type (0, 0), None
#     Edge 284, Type (0, 0), None
#     Edge 285, Type (0, 0), None
#     Edge 286, Type (0, 0), None
#     Edge 287, Type (0, 0), None
# Relax obj value: 0.324
# Max RMSD: 0.268
# Mean RMSD: 0.268
data_MOF--net-hal--node1-QUQFOY_clean_sbu_3--edge1-none
_symmetry_space_group_name_H-M    P1
_symmetry_Int_Tables_number       1
_symmetry_cell_setting            triclinic
loop_
_symmetry_equiv_pos_as_xyz
'x, y, z'
_cell_length_a     45.05168
_cell_length_b     45.052162
_cell_length_c     45.052215
_cell_angle_alpha  90.0
_cell_angle_beta   90.0
_cell_angle_gamma 90.0
loop_
_atom_site_label
_atom_site_type_symbol
_atom_site_fract_x
_atom_site_fract_y
_atom_site_fract_z
_atom_type_partial_charge
C0 C 0.09108 0.18037 0.30349 0.0
O1 O 0.09762 0.19598 0.28099 0.0
Cd2 Cd 0.07457 0.19082 0.23447 0.0
O3 O 0.06844 0.16313 0.30314 0.0
Cd4 Cd 0.02916 0.15187 0.26396 0.0
C5 C 0.08363 0.11436 0.2328 0.0
O6 O 0.02379 0.20136 0.24324 0.0
O7 O 0.02234 0.16638 0.21102 0.0
O8 O -0.01646 0.15304 0.29365 0.0
C9 C 0.01888 0.19376 0.21674 0.0
O10 O 0.08954 0.13984 0.22198 0.0
C11 C -0.02888 0.13196 0.27953 0.0
O12 O 0.06256 0.11122 0.25125 0.0
O13 O -0.01302 0.11805 0.26089 0.0
C14 C 0.72936 0.09107 0.30351 0.0
O15 O 0.71375 0.09761 0.28102 0.0
Cd16 Cd 0.7189 0.07457 0.23449 0.0
O17 O 0.7466 0.06843 0.30315 0.0
Cd18 Cd 0.75786 0.02915 0.26396 0.0
C19 C 0.79536 0.08364 0.23281 0.0
O20 O 0.70837 0.02379 0.24324 0.0
O21 O 0.74335 0.02233 0.21103 0.0
O22 O 0.7567 -0.01647 0.29365 0.0
C23 C 0.71597 0.01887 0.21674 0.0
O24 O 0.76988 0.08954 0.22199 0.0
C25 C 0.77777 -0.02888 0.27953 0.0
O26 O 0.79851 0.06256 0.25125 0.0
O27 O 0.79168 -0.01302 0.26089 0.0
C28 C 0.81865 0.72935 0.30349 0.0
O29 O 0.81211 0.71375 0.28099 0.0
Cd30 Cd 0.83517 0.7189 0.23447 0.0
O31 O 0.84129 0.74659 0.30314 0.0
Cd32 Cd 0.88058 0.75785 0.26396 0.0
C33 C 0.8261 0.79536 0.2328 0.0
O34 O 0.88594 0.70836 0.24324 0.0
O35 O 0.8874 0.74334 0.21102 0.0
O36 O 0.92619 0.75669 0.29365 0.0
C37 C 0.89085 0.71597 0.21674 0.0
O38 O 0.8202 0.76988 0.22198 0.0
C39 C 0.93861 0.77776 0.27953 0.0
O40 O 0.84717 0.79851 0.25125 0.0
O41 O 0.92275 0.79167 0.26089 0.0
C42 C 0.18037 0.81866 0.30351 0.0
O43 O 0.19599 0.81211 0.28102 0.0
Cd44 Cd 0.19083 0.83515 0.23449 0.0
O45 O 0.16313 0.84129 0.30315 0.0
Cd46 Cd 0.15188 0.88057 0.26396 0.0
C47 C 0.11437 0.82609 0.23281 0.0
O48 O 0.20137 0.88593 0.24324 0.0
O49 O 0.16639 0.8874 0.21103 0.0
O50 O 0.15304 0.92619 0.29365 0.0
C51 C 0.19376 0.89085 0.21674 0.0
O52 O 0.13985 0.82018 0.22199 0.0
C53 C 0.13196 0.93861 0.27953 0.0
O54 O 0.11122 0.84716 0.25125 0.0
O55 O 0.11805 0.92275 0.26089 0.0
C56 C 0.09108 0.72935 0.60623 0.0
O57 O 0.09762 0.71375 0.62873 0.0
Cd58 Cd 0.07457 0.7189 0.67525 0.0
O59 O 0.06844 0.74659 0.60658 0.0
Cd60 Cd 0.02916 0.75785 0.64576 0.0
C61 C 0.08363 0.79536 0.67692 0.0
O62 O 0.02379 0.70836 0.66648 0.0
O63 O 0.02234 0.74334 0.6987 0.0
O64 O -0.01646 0.75669 0.61607 0.0
C65 C 0.01888 0.71597 0.69298 0.0
O66 O 0.08954 0.76988 0.68775 0.0
C67 C -0.02888 0.77776 0.6302 0.0
O68 O 0.06256 0.79851 0.65847 0.0
O69 O -0.01302 0.79167 0.64883 0.0
C70 C 0.18037 0.09107 0.60621 0.0
O71 O 0.19599 0.09761 0.6287 0.0
Cd72 Cd 0.19083 0.07457 0.67524 0.0
O73 O 0.16313 0.06843 0.60657 0.0
Cd74 Cd 0.15188 0.02915 0.64576 0.0
C75 C 0.11437 0.08364 0.67692 0.0
O76 O 0.20137 0.02379 0.66648 0.0
O77 O 0.16639 0.02233 0.6987 0.0
O78 O 0.15304 -0.01647 0.61607 0.0
C79 C 0.19376 0.01887 0.69298 0.0
O80 O 0.13985 0.08954 0.68773 0.0
C81 C 0.13196 -0.02888 0.63019 0.0
O82 O 0.11122 0.06256 0.65847 0.0
O83 O 0.11805 -0.01302 0.64883 0.0
C84 C 0.81865 0.18037 0.60623 0.0
O85 O 0.81211 0.19598 0.62873 0.0
Cd86 Cd 0.83517 0.19082 0.67525 0.0
O87 O 0.84129 0.16313 0.60658 0.0
Cd88 Cd 0.88058 0.15187 0.64576 0.0
C89 C 0.8261 0.11436 0.67692 0.0
O90 O 0.88594 0.20136 0.66648 0.0
O91 O 0.8874 0.16638 0.6987 0.0
O92 O 0.92619 0.15304 0.61607 0.0
C93 C 0.89085 0.19376 0.69298 0.0
O94 O 0.8202 0.13984 0.68775 0.0
C95 C 0.93861 0.13196 0.6302 0.0
O96 O 0.84717 0.11122 0.65847 0.0
O97 O 0.92275 0.11805 0.64883 0.0
C98 C 0.72936 0.81866 0.60621 0.0
O99 O 0.71375 0.81211 0.6287 0.0
Cd100 Cd 0.7189 0.83515 0.67524 0.0
O101 O 0.7466 0.84129 0.60657 0.0
Cd102 Cd 0.75786 0.88057 0.64576 0.0
C103 C 0.79536 0.82609 0.67692 0.0
O104 O 0.70837 0.88593 0.66648 0.0
O105 O 0.74335 0.8874 0.6987 0.0
O106 O 0.7567 0.92619 0.61607 0.0
C107 C 0.71597 0.89085 0.69298 0.0
O108 O 0.76988 0.82018 0.68773 0.0
C109 C 0.77777 0.93861 0.63019 0.0
O110 O 0.79851 0.84716 0.65847 0.0
O111 O 0.79168 0.92275 0.64883 0.0
C112 C 0.30349 0.09108 0.18037 0.0
O113 O 0.28099 0.09762 0.19598 0.0
Cd114 Cd 0.23447 0.07456 0.19082 0.0
O115 O 0.30314 0.06843 0.16313 0.0
Cd116 Cd 0.26396 0.02915 0.15187 0.0
C117 C 0.2328 0.08363 0.11436 0.0
O118 O 0.24324 0.02379 0.20136 0.0
O119 O 0.21102 0.02233 0.16638 0.0
O120 O 0.29365 -0.01647 0.15304 0.0
C121 C 0.21674 0.01887 0.19375 0.0
O122 O 0.22198 0.08953 0.13984 0.0
C123 C 0.27953 -0.02889 0.13196 0.0
O124 O 0.25125 0.06256 0.11122 0.0
O125 O 0.26089 -0.01303 0.11805 0.0
C126 C 0.81865 0.30349 0.18037 0.0
O127 O 0.81211 0.28099 0.19598 0.0
Cd128 Cd 0.83517 0.23447 0.19082 0.0
O129 O 0.84129 0.30314 0.16313 0.0
Cd130 Cd 0.88058 0.26396 0.15187 0.0
C131 C 0.8261 0.2328 0.11436 0.0
O132 O 0.88595 0.24324 0.20136 0.0
O133 O 0.8874 0.21102 0.16638 0.0
O134 O 0.92619 0.29365 0.15303 0.0
C135 C 0.89085 0.21674 0.19375 0.0
O136 O 0.8202 0.22198 0.13984 0.0
C137 C 0.93861 0.27953 0.13196 0.0
O138 O 0.84717 0.25125 0.11122 0.0
O139 O 0.92275 0.26089 0.11805 0.0
C140 C 0.60624 0.81865 0.18037 0.0
O141 O 0.62874 0.81211 0.19598 0.0
Cd142 Cd 0.67526 0.83516 0.19082 0.0
O143 O 0.60659 0.84129 0.16313 0.0
Cd144 Cd 0.64577 0.88057 0.15187 0.0
C145 C 0.67693 0.82609 0.11436 0.0
O146 O 0.66649 0.88594 0.20136 0.0
O147 O 0.69871 0.8874 0.16638 0.0
O148 O 0.61608 0.92619 0.15304 0.0
C149 C 0.693 0.89085 0.19375 0.0
O150 O 0.68775 0.82019 0.13984 0.0
C151 C 0.6302 0.93861 0.13196 0.0
O152 O 0.65848 0.84717 0.11122 0.0
O153 O 0.64884 0.92275 0.11805 0.0
C154 C 0.09108 0.60624 0.18037 0.0
O155 O 0.09762 0.62873 0.19598 0.0
Cd156 Cd 0.07456 0.67526 0.19082 0.0
O157 O 0.06844 0.60658 0.16313 0.0
Cd158 Cd 0.02916 0.64576 0.15187 0.0
C159 C 0.08363 0.67692 0.11436 0.0
O160 O 0.02379 0.66648 0.20136 0.0
O161 O 0.02234 0.6987 0.16638 0.0
O162 O -0.01646 0.61607 0.15303 0.0
C163 C 0.01888 0.69298 0.19375 0.0
O164 O 0.08953 0.68775 0.13984 0.0
C165 C -0.02888 0.6302 0.13196 0.0
O166 O 0.06256 0.65847 0.11122 0.0
O167 O -0.01302 0.64883 0.11805 0.0
C168 C 0.30349 0.81865 0.72935 0.0
O169 O 0.28099 0.81211 0.71374 0.0
Cd170 Cd 0.23447 0.83516 0.7189 0.0
O171 O 0.30314 0.84129 0.74659 0.0
Cd172 Cd 0.26396 0.88057 0.75785 0.0
C173 C 0.2328 0.82609 0.79536 0.0
O174 O 0.24324 0.88594 0.70836 0.0
O175 O 0.21102 0.8874 0.74334 0.0
O176 O 0.29365 0.92619 0.75669 0.0
C177 C 0.21674 0.89085 0.71597 0.0
O178 O 0.22198 0.82019 0.76988 0.0
C179 C 0.27953 0.93861 0.77776 0.0
O180 O 0.25125 0.84717 0.79851 0.0
O181 O 0.26089 0.92275 0.79167 0.0
C182 C 0.09108 0.30349 0.72935 0.0
O183 O 0.09762 0.28099 0.71375 0.0
Cd184 Cd 0.07456 0.23447 0.7189 0.0
O185 O 0.06844 0.30314 0.74659 0.0
Cd186 Cd 0.02916 0.26396 0.75785 0.0
C187 C 0.08363 0.2328 0.79536 0.0
O188 O 0.02379 0.24324 0.70836 0.0
O189 O 0.02234 0.21102 0.74334 0.0
O190 O -0.01646 0.29365 0.75669 0.0
C191 C 0.01888 0.21674 0.71597 0.0
O192 O 0.08953 0.22198 0.76988 0.0
C193 C -0.02888 0.27953 0.77776 0.0
O194 O 0.06256 0.25125 0.79851 0.0
O195 O -0.01302 0.26089 0.79167 0.0
C196 C 0.60624 0.09108 0.72935 0.0
O197 O 0.62874 0.09762 0.71374 0.0
Cd198 Cd 0.67526 0.07456 0.7189 0.0
O199 O 0.60659 0.06843 0.74659 0.0
Cd200 Cd 0.64577 0.02915 0.75785 0.0
C201 C 0.67693 0.08363 0.79536 0.0
O202 O 0.66649 0.02379 0.70836 0.0
O203 O 0.69871 0.02233 0.74334 0.0
O204 O 0.61608 -0.01647 0.75669 0.0
C205 C 0.693 0.01887 0.71597 0.0
O206 O 0.68775 0.08953 0.76988 0.0
C207 C 0.6302 -0.02889 0.77776 0.0
O208 O 0.65848 0.06256 0.79851 0.0
O209 O 0.64884 -0.01303 0.79167 0.0
C210 C 0.81865 0.60624 0.72935 0.0
O211 O 0.81211 0.62873 0.71375 0.0
Cd212 Cd 0.83517 0.67526 0.7189 0.0
O213 O 0.84129 0.60658 0.74659 0.0
Cd214 Cd 0.88058 0.64576 0.75785 0.0
C215 C 0.8261 0.67692 0.79536 0.0
O216 O 0.88595 0.66648 0.70836 0.0
O217 O 0.8874 0.6987 0.74334 0.0
O218 O 0.92619 0.61607 0.75669 0.0
C219 C 0.89085 0.69298 0.71597 0.0
O220 O 0.8202 0.68775 0.76988 0.0
C221 C 0.93861 0.6302 0.77776 0.0
O222 O 0.84717 0.65847 0.79851 0.0
O223 O 0.92275 0.64883 0.79167 0.0
C224 C 0.18037 0.30351 0.09107 0.0
O225 O 0.19599 0.28102 0.09761 0.0
Cd226 Cd 0.19083 0.23448 0.07457 0.0
O227 O 0.16313 0.30315 0.06843 0.0
Cd228 Cd 0.15188 0.26396 0.02915 0.0
C229 C 0.11437 0.23281 0.08364 0.0
O230 O 0.20137 0.24324 0.02379 0.0
O231 O 0.16639 0.21102 0.02232 0.0
O232 O 0.15304 0.29365 -0.01647 0.0
C233 C 0.19376 0.21674 0.01887 0.0
O234 O 0.13985 0.22199 0.08954 0.0
C235 C 0.13197 0.27953 -0.02888 0.0
O236 O 0.11122 0.25125 0.06256 0.0
O237 O 0.11805 0.26089 -0.01302 0.0
C238 C 0.18037 0.60622 0.81866 0.0
O239 O 0.19599 0.6287 0.81211 0.0
Cd240 Cd 0.19083 0.67524 0.83515 0.0
O241 O 0.16313 0.60657 0.84129 0.0
Cd242 Cd 0.15188 0.64576 0.88057 0.0
C243 C 0.11437 0.67692 0.82609 0.0
O244 O 0.20137 0.66649 0.88593 0.0
O245 O 0.16639 0.6987 0.8874 0.0
O246 O 0.15304 0.61608 0.92619 0.0
C247 C 0.19376 0.69299 0.89085 0.0
O248 O 0.13985 0.68773 0.82018 0.0
C249 C 0.13197 0.6302 0.93861 0.0
O250 O 0.11122 0.65848 0.84716 0.0
O251 O 0.11805 0.64883 0.92275 0.0
C252 C 0.30351 0.18036 0.81866 0.0
O253 O 0.28102 0.19598 0.81211 0.0
Cd254 Cd 0.23449 0.19083 0.83515 0.0
O255 O 0.30315 0.16312 0.84129 0.0
Cd256 Cd 0.26396 0.15187 0.88057 0.0
C257 C 0.23281 0.11437 0.82608 0.0
O258 O 0.24324 0.20136 0.88593 0.0
O259 O 0.21103 0.16638 0.8874 0.0
O260 O 0.29365 0.15303 0.92619 0.0
C261 C 0.21674 0.19375 0.89085 0.0
O262 O 0.222 0.13985 0.82018 0.0
C263 C 0.27953 0.13196 0.93861 0.0
O264 O 0.25125 0.11122 0.84716 0.0
O265 O 0.2609 0.11804 0.92275 0.0
C266 C 0.72936 0.30351 0.81866 0.0
O267 O 0.71374 0.28102 0.81211 0.0
Cd268 Cd 0.7189 0.23448 0.83515 0.0
O269 O 0.7466 0.30315 0.84129 0.0
Cd270 Cd 0.75786 0.26396 0.88057 0.0
C271 C 0.79536 0.23281 0.82609 0.0
O272 O 0.70837 0.24324 0.88593 0.0
O273 O 0.74335 0.21102 0.8874 0.0
O274 O 0.75669 0.29365 0.92619 0.0
C275 C 0.71597 0.21674 0.89085 0.0
O276 O 0.76988 0.22199 0.82018 0.0
C277 C 0.77777 0.27953 0.93861 0.0
O278 O 0.79851 0.25125 0.84716 0.0
O279 O 0.79168 0.26089 0.92275 0.0
C280 C 0.60622 0.72936 0.81866 0.0
O281 O 0.62871 0.71374 0.81211 0.0
Cd282 Cd 0.67524 0.7189 0.83515 0.0
O283 O 0.60658 0.7466 0.84129 0.0
Cd284 Cd 0.64577 0.75785 0.88057 0.0
C285 C 0.67692 0.79535 0.82608 0.0
O286 O 0.66649 0.70836 0.88593 0.0
O287 O 0.69871 0.74334 0.8874 0.0
O288 O 0.61608 0.75669 0.92619 0.0
C289 C 0.69299 0.71597 0.89085 0.0
O290 O 0.68774 0.76988 0.82018 0.0
C291 C 0.6302 0.77776 0.93861 0.0
O292 O 0.65848 0.79851 0.84716 0.0
O293 O 0.64884 0.79168 0.92275 0.0
C294 C 0.72936 0.60622 0.09107 0.0
O295 O 0.71374 0.6287 0.09761 0.0
Cd296 Cd 0.7189 0.67524 0.07457 0.0
O297 O 0.7466 0.60657 0.06843 0.0
Cd298 Cd 0.75786 0.64576 0.02915 0.0
C299 C 0.79536 0.67692 0.08364 0.0
O300 O 0.70837 0.66649 0.02379 0.0
O301 O 0.74335 0.6987 0.02232 0.0
O302 O 0.75669 0.61608 -0.01647 0.0
C303 C 0.71597 0.69299 0.01887 0.0
O304 O 0.76988 0.68773 0.08954 0.0
C305 C 0.77777 0.6302 -0.02888 0.0
O306 O 0.79851 0.65848 0.06256 0.0
O307 O 0.79168 0.64883 -0.01302 0.0
C308 C 0.30351 0.72936 0.09107 0.0
O309 O 0.28102 0.71374 0.09761 0.0
Cd310 Cd 0.23449 0.7189 0.07457 0.0
O311 O 0.30315 0.7466 0.06843 0.0
Cd312 Cd 0.26396 0.75785 0.02915 0.0
C313 C 0.23281 0.79535 0.08364 0.0
O314 O 0.24324 0.70836 0.02379 0.0
O315 O 0.21103 0.74334 0.02232 0.0
O316 O 0.29365 0.75669 -0.01647 0.0
C317 C 0.21674 0.71597 0.01887 0.0
O318 O 0.222 0.76988 0.08954 0.0
C319 C 0.27953 0.77776 -0.02888 0.0
O320 O 0.25125 0.79851 0.06256 0.0
O321 O 0.2609 0.79168 -0.01302 0.0
C322 C 0.60622 0.18036 0.09107 0.0
O323 O 0.62871 0.19598 0.09761 0.0
Cd324 Cd 0.67524 0.19083 0.07457 0.0
O325 O 0.60658 0.16312 0.06843 0.0
Cd326 Cd 0.64577 0.15187 0.02915 0.0
C327 C 0.67692 0.11437 0.08364 0.0
O328 O 0.66649 0.20136 0.02379 0.0
O329 O 0.69871 0.16638 0.02232 0.0
O330 O 0.61608 0.15303 -0.01647 0.0
C331 C 0.69299 0.19375 0.01887 0.0
O332 O 0.68774 0.13985 0.08954 0.0
C333 C 0.6302 0.13196 -0.02888 0.0
O334 O 0.65848 0.11122 0.06256 0.0
O335 O 0.64884 0.11804 -0.01302 0.0
C336 C 0.81868 0.8035 0.68038 0.0
O337 O 0.81214 0.781 0.69598 0.0
Cd338 Cd 0.8352 0.73448 0.69081 0.0
O339 O 0.84131 0.80315 0.66313 0.0
Cd340 Cd 0.88059 0.76397 0.65187 0.0
C341 C 0.82611 0.73282 0.61436 0.0
O342 O 0.88598 0.74326 0.70136 0.0
O343 O 0.88736 0.71103 0.66637 0.0
O344 O 0.92621 0.79366 0.65302 0.0
C345 C 0.89083 0.71675 0.69374 0.0
O346 O 0.82022 0.72199 0.63984 0.0
C347 C 0.93862 0.77951 0.63196 0.0
O348 O 0.84718 0.75127 0.61121 0.0
O349 O 0.92276 0.76087 0.61804 0.0
C350 C 0.10622 0.81868 0.68038 0.0
O351 O 0.12872 0.81214 0.69599 0.0
Cd352 Cd 0.17524 0.83521 0.69082 0.0
O353 O 0.10657 0.84131 0.66313 0.0
Cd354 Cd 0.14575 0.88058 0.65187 0.0
C355 C 0.17691 0.82611 0.61437 0.0
O356 O 0.16646 0.88599 0.70136 0.0
O357 O 0.19869 0.88735 0.66638 0.0
O358 O 0.11607 0.9262 0.65302 0.0
C359 C 0.19297 0.89083 0.69374 0.0
O360 O 0.18774 0.82023 0.63984 0.0
C361 C 0.13021 0.93862 0.63196 0.0
O362 O 0.15845 0.84717 0.61121 0.0
O363 O 0.14885 0.92276 0.61804 0.0
C364 C 0.09106 0.10623 0.68038 0.0
O365 O 0.0976 0.12872 0.69598 0.0
Cd366 Cd 0.07453 0.17524 0.69081 0.0
O367 O 0.06842 0.10657 0.66313 0.0
Cd368 Cd 0.02915 0.14575 0.65187 0.0
C369 C 0.08362 0.17691 0.61436 0.0
O370 O 0.02375 0.16646 0.70136 0.0
O371 O 0.02237 0.19869 0.66637 0.0
O372 O -0.01647 0.11607 0.65302 0.0
C373 C 0.0189 0.19298 0.69374 0.0
O374 O 0.08952 0.18773 0.63984 0.0
C375 C -0.02889 0.13021 0.63196 0.0
O376 O 0.06256 0.15845 0.61121 0.0
O377 O -0.01303 0.14885 0.61804 0.0
C378 C 0.80351 0.09105 0.68038 0.0
O379 O 0.78102 0.09758 0.69599 0.0
Cd380 Cd 0.7345 0.07451 0.69082 0.0
O381 O 0.80317 0.06841 0.66313 0.0
Cd382 Cd 0.76398 0.02914 0.65187 0.0
C383 C 0.73282 0.08361 0.61437 0.0
O384 O 0.74327 0.02373 0.70136 0.0
O385 O 0.71104 0.02237 0.66638 0.0
O386 O 0.79367 -0.01648 0.65302 0.0
C387 C 0.71676 0.01889 0.69374 0.0
O388 O 0.72199 0.0895 0.63984 0.0
C389 C 0.77952 -0.02889 0.63196 0.0
O390 O 0.75128 0.06255 0.61121 0.0
O391 O 0.76088 -0.01304 0.61804 0.0
C392 C 0.81868 0.10623 0.22935 0.0
O393 O 0.81214 0.12872 0.21374 0.0
Cd394 Cd 0.8352 0.17524 0.21891 0.0
O395 O 0.84131 0.10657 0.24659 0.0
Cd396 Cd 0.88059 0.14575 0.25785 0.0
C397 C 0.82611 0.17691 0.29536 0.0
O398 O 0.88598 0.16646 0.20836 0.0
O399 O 0.88736 0.19869 0.24335 0.0
O400 O 0.92621 0.11607 0.2567 0.0
C401 C 0.89083 0.19298 0.21598 0.0
O402 O 0.82022 0.18773 0.26988 0.0
C403 C 0.93862 0.13021 0.27776 0.0
O404 O 0.84718 0.15845 0.29851 0.0
O405 O 0.92276 0.14885 0.29168 0.0
C406 C 0.80351 0.81868 0.22934 0.0
O407 O 0.78102 0.81214 0.21374 0.0
Cd408 Cd 0.7345 0.83521 0.21891 0.0
O409 O 0.80317 0.84131 0.24659 0.0
Cd410 Cd 0.76398 0.88058 0.25785 0.0
C411 C 0.73282 0.82611 0.29536 0.0
O412 O 0.74327 0.88599 0.20836 0.0
O413 O 0.71104 0.88735 0.24335 0.0
O414 O 0.79367 0.9262 0.2567 0.0
C415 C 0.71676 0.89083 0.21598 0.0
O416 O 0.72199 0.82023 0.26988 0.0
C417 C 0.77952 0.93862 0.27777 0.0
O418 O 0.75128 0.84717 0.29851 0.0
O419 O 0.76088 0.92276 0.29168 0.0
C420 C 0.09106 0.8035 0.22935 0.0
O421 O 0.0976 0.781 0.21374 0.0
Cd422 Cd 0.07453 0.73448 0.21891 0.0
O423 O 0.06842 0.80315 0.24659 0.0
Cd424 Cd 0.02915 0.76397 0.25785 0.0
C425 C 0.08362 0.73282 0.29536 0.0
O426 O 0.02375 0.74326 0.20836 0.0
O427 O 0.02237 0.71103 0.24335 0.0
O428 O -0.01647 0.79366 0.2567 0.0
C429 C 0.0189 0.71675 0.21598 0.0
O430 O 0.08952 0.72199 0.26988 0.0
C431 C -0.02889 0.77951 0.27776 0.0
O432 O 0.06256 0.75127 0.29851 0.0
O433 O -0.01303 0.76087 0.29168 0.0
C434 C 0.10622 0.09105 0.22934 0.0
O435 O 0.12872 0.09758 0.21374 0.0
Cd436 Cd 0.17524 0.07451 0.21891 0.0
O437 O 0.10657 0.06841 0.24659 0.0
Cd438 Cd 0.14575 0.02914 0.25785 0.0
C439 C 0.17691 0.08361 0.29536 0.0
O440 O 0.16646 0.02373 0.20836 0.0
O441 O 0.19869 0.02237 0.24335 0.0
O442 O 0.11607 -0.01648 0.2567 0.0
C443 C 0.19297 0.01889 0.21598 0.0
O444 O 0.18774 0.0895 0.26988 0.0
C445 C 0.13021 -0.02889 0.27777 0.0
O446 O 0.15845 0.06255 0.29851 0.0
O447 O 0.14885 -0.01304 0.29168 0.0
C448 C 0.68038 0.81867 0.8035 0.0
O449 O 0.69599 0.81213 0.781 0.0
Cd450 Cd 0.69082 0.8352 0.73448 0.0
O451 O 0.66314 0.84131 0.80315 0.0
Cd452 Cd 0.65187 0.88058 0.76397 0.0
C453 C 0.61437 0.8261 0.73282 0.0
O454 O 0.70137 0.88598 0.74326 0.0
O455 O 0.66638 0.88735 0.71103 0.0
O456 O 0.65303 0.9262 0.79365 0.0
C457 C 0.69375 0.89083 0.71675 0.0
O458 O 0.63984 0.82021 0.72199 0.0
C459 C 0.63196 0.93862 0.77951 0.0
O460 O 0.61122 0.84717 0.75127 0.0
O461 O 0.61805 0.92276 0.76087 0.0
C462 C 0.09106 0.68038 0.8035 0.0
O463 O 0.0976 0.69599 0.781 0.0
Cd464 Cd 0.07453 0.69081 0.73448 0.0
O465 O 0.06842 0.66313 0.80315 0.0
Cd466 Cd 0.02915 0.65187 0.76397 0.0
C467 C 0.08362 0.61436 0.73282 0.0
O468 O 0.02375 0.70136 0.74326 0.0
O469 O 0.02237 0.66637 0.71103 0.0
O470 O -0.01647 0.65302 0.79366 0.0
C471 C 0.0189 0.69374 0.71675 0.0
O472 O 0.08952 0.63984 0.72199 0.0
C473 C -0.02889 0.63196 0.77951 0.0
O474 O 0.06256 0.61121 0.75127 0.0
O475 O -0.01303 0.61804 0.76087 0.0
C476 C 0.22935 0.09105 0.8035 0.0
O477 O 0.21374 0.09759 0.781 0.0
Cd478 Cd 0.21891 0.07452 0.73448 0.0
O479 O 0.2466 0.06842 0.80315 0.0
Cd480 Cd 0.25786 0.02914 0.76397 0.0
C481 C 0.29537 0.08362 0.73282 0.0
O482 O 0.20837 0.02374 0.74326 0.0
O483 O 0.24335 0.02237 0.71103 0.0
O484 O 0.25671 -0.01648 0.79365 0.0
C485 C 0.21598 0.0189 0.71675 0.0
O486 O 0.26989 0.08951 0.72199 0.0
C487 C 0.27777 -0.02889 0.77951 0.0
O488 O 0.29852 0.06255 0.75127 0.0
O489 O 0.29168 -0.01304 0.76087 0.0
C490 C 0.81868 0.22935 0.8035 0.0
O491 O 0.81214 0.21374 0.781 0.0
Cd492 Cd 0.8352 0.21891 0.73448 0.0
O493 O 0.84131 0.24659 0.80315 0.0
Cd494 Cd 0.88059 0.25786 0.76397 0.0
C495 C 0.82611 0.29536 0.73282 0.0
O496 O 0.88598 0.20836 0.74326 0.0
O497 O 0.88736 0.24335 0.71103 0.0
O498 O 0.92621 0.2567 0.79366 0.0
C499 C 0.89083 0.21598 0.71675 0.0
O500 O 0.82022 0.26989 0.72199 0.0
C501 C 0.93862 0.27776 0.77951 0.0
O502 O 0.84718 0.29851 0.75127 0.0
O503 O 0.92276 0.29168 0.76087 0.0
C504 C 0.68038 0.09105 0.10623 0.0
O505 O 0.69599 0.09759 0.12872 0.0
Cd506 Cd 0.69082 0.07452 0.17524 0.0
O507 O 0.66314 0.06842 0.10657 0.0
Cd508 Cd 0.65187 0.02914 0.14575 0.0
C509 C 0.61437 0.08362 0.17691 0.0
O510 O 0.70137 0.02374 0.16647 0.0
O511 O 0.66638 0.02237 0.1987 0.0
O512 O 0.65303 -0.01648 0.11607 0.0
C513 C 0.69375 0.0189 0.19298 0.0
O514 O 0.63984 0.08951 0.18774 0.0
C515 C 0.63196 -0.02889 0.13021 0.0
O516 O 0.61122 0.06255 0.15845 0.0
O517 O 0.61805 -0.01304 0.14885 0.0
C518 C 0.81868 0.68038 0.10623 0.0
O519 O 0.81214 0.69599 0.12872 0.0
Cd520 Cd 0.8352 0.69081 0.17524 0.0
O521 O 0.84131 0.66313 0.10657 0.0
Cd522 Cd 0.88059 0.65187 0.14575 0.0
C523 C 0.82611 0.61436 0.1769 0.0
O524 O 0.88598 0.70136 0.16646 0.0
O525 O 0.88736 0.66637 0.19869 0.0
O526 O 0.92621 0.65302 0.11607 0.0
C527 C 0.89083 0.69374 0.19297 0.0
O528 O 0.82022 0.63984 0.18773 0.0
C529 C 0.93862 0.63196 0.13021 0.0
O530 O 0.84718 0.61121 0.15845 0.0
O531 O 0.92276 0.61804 0.14885 0.0
C532 C 0.22935 0.81867 0.10623 0.0
O533 O 0.21374 0.81213 0.12872 0.0
Cd534 Cd 0.21891 0.8352 0.17524 0.0
O535 O 0.2466 0.84131 0.10657 0.0
Cd536 Cd 0.25786 0.88058 0.14575 0.0
C537 C 0.29537 0.8261 0.17691 0.0
O538 O 0.20837 0.88598 0.16647 0.0
O539 O 0.24335 0.88735 0.1987 0.0
O540 O 0.25671 0.9262 0.11607 0.0
C541 C 0.21598 0.89083 0.19298 0.0
O542 O 0.26989 0.82021 0.18774 0.0
C543 C 0.27777 0.93862 0.13021 0.0
O544 O 0.29852 0.84717 0.15845 0.0
O545 O 0.29168 0.92276 0.14885 0.0
C546 C 0.09106 0.22935 0.10623 0.0
O547 O 0.0976 0.21374 0.12872 0.0
Cd548 Cd 0.07453 0.21891 0.17524 0.0
O549 O 0.06842 0.24659 0.10657 0.0
Cd550 Cd 0.02915 0.25786 0.14575 0.0
C551 C 0.08362 0.29536 0.1769 0.0
O552 O 0.02375 0.20836 0.16646 0.0
O553 O 0.02237 0.24335 0.19869 0.0
O554 O -0.01647 0.2567 0.11607 0.0
C555 C 0.0189 0.21598 0.19297 0.0
O556 O 0.08952 0.26989 0.18773 0.0
C557 C -0.02889 0.27776 0.13021 0.0
O558 O 0.06256 0.29851 0.15845 0.0
O559 O -0.01303 0.29168 0.14885 0.0
C560 C 0.80351 0.68038 0.81868 0.0
O561 O 0.78101 0.69599 0.81214 0.0
Cd562 Cd 0.7345 0.69082 0.83521 0.0
O563 O 0.80317 0.66313 0.84131 0.0
Cd564 Cd 0.76398 0.65187 0.88058 0.0
C565 C 0.73282 0.61437 0.82611 0.0
O566 O 0.74327 0.70136 0.88599 0.0
O567 O 0.71104 0.66638 0.88735 0.0
O568 O 0.79366 0.65302 0.9262 0.0
C569 C 0.71676 0.69375 0.89083 0.0
O570 O 0.72199 0.63984 0.82023 0.0
C571 C 0.77952 0.63196 0.93862 0.0
O572 O 0.75128 0.61121 0.84717 0.0
O573 O 0.76088 0.61805 0.92276 0.0
C574 C 0.80351 0.22934 0.09105 0.0
O575 O 0.78101 0.21373 0.09758 0.0
Cd576 Cd 0.7345 0.21891 0.07451 0.0
O577 O 0.80317 0.24659 0.06841 0.0
Cd578 Cd 0.76398 0.25785 0.02914 0.0
C579 C 0.73282 0.29536 0.08361 0.0
O580 O 0.74327 0.20836 0.02373 0.0
O581 O 0.71104 0.24335 0.02238 0.0
O582 O 0.79366 0.2567 -0.01648 0.0
C583 C 0.71676 0.21598 0.01889 0.0
O584 O 0.72199 0.26988 0.0895 0.0
C585 C 0.77952 0.27776 -0.02889 0.0
O586 O 0.75128 0.29851 0.06255 0.0
O587 O 0.76088 0.29168 -0.01304 0.0
C588 C 0.68039 0.8035 0.09105 0.0
O589 O 0.696 0.78101 0.09758 0.0
Cd590 Cd 0.69082 0.73449 0.07451 0.0
O591 O 0.66314 0.80316 0.06841 0.0
Cd592 Cd 0.65188 0.76398 0.02914 0.0
C593 C 0.61437 0.73282 0.08361 0.0
O594 O 0.70137 0.74326 0.02373 0.0
O595 O 0.66638 0.71103 0.02237 0.0
O596 O 0.65302 0.79366 -0.01648 0.0
C597 C 0.69375 0.71675 0.01889 0.0
O598 O 0.63985 0.72199 0.0895 0.0
C599 C 0.63196 0.77952 -0.02889 0.0
O600 O 0.61122 0.75128 0.06255 0.0
O601 O 0.61805 0.76088 -0.01304 0.0
C602 C 0.10622 0.68038 0.09105 0.0
O603 O 0.12872 0.69599 0.09758 0.0
Cd604 Cd 0.17524 0.69082 0.07451 0.0
O605 O 0.10657 0.66313 0.06841 0.0
Cd606 Cd 0.14575 0.65187 0.02914 0.0
C607 C 0.17691 0.61437 0.08361 0.0
O608 O 0.16646 0.70136 0.02373 0.0
O609 O 0.19869 0.66638 0.02238 0.0
O610 O 0.11607 0.65302 -0.01648 0.0
C611 C 0.19298 0.69375 0.01889 0.0
O612 O 0.18774 0.63984 0.0895 0.0
C613 C 0.13021 0.63196 -0.02889 0.0
O614 O 0.15845 0.61121 0.06255 0.0
O615 O 0.14885 0.61805 -0.01304 0.0
C616 C 0.22935 0.10622 0.09105 0.0
O617 O 0.21374 0.12871 0.09758 0.0
Cd618 Cd 0.21891 0.17523 0.07451 0.0
O619 O 0.2466 0.10656 0.06841 0.0
Cd620 Cd 0.25786 0.14575 0.02914 0.0
C621 C 0.29536 0.1769 0.08361 0.0
O622 O 0.20836 0.16646 0.02373 0.0
O623 O 0.24335 0.19869 0.02237 0.0
O624 O 0.25671 0.11606 -0.01648 0.0
C625 C 0.21598 0.19297 0.01889 0.0
O626 O 0.26988 0.18773 0.0895 0.0
C627 C 0.27777 0.13021 -0.02889 0.0
O628 O 0.29852 0.15845 0.06255 0.0
O629 O 0.29168 0.14885 -0.01304 0.0
C630 C 0.10622 0.22934 0.81868 0.0
O631 O 0.12872 0.21373 0.81214 0.0
Cd632 Cd 0.17524 0.21891 0.83521 0.0
O633 O 0.10657 0.24659 0.84131 0.0
Cd634 Cd 0.14575 0.25785 0.88058 0.0
C635 C 0.17691 0.29536 0.82611 0.0
O636 O 0.16646 0.20836 0.88599 0.0
O637 O 0.19869 0.24335 0.88735 0.0
O638 O 0.11607 0.2567 0.9262 0.0
C639 C 0.19298 0.21598 0.89083 0.0
O640 O 0.18774 0.26988 0.82023 0.0
C641 C 0.13021 0.27776 0.93862 0.0
O642 O 0.15845 0.29851 0.84717 0.0
O643 O 0.14885 0.29168 0.92276 0.0
C644 C 0.68039 0.10622 0.81868 0.0
O645 O 0.696 0.12871 0.81214 0.0
Cd646 Cd 0.69082 0.17523 0.83521 0.0
O647 O 0.66314 0.10656 0.84131 0.0
Cd648 Cd 0.65188 0.14575 0.88058 0.0
C649 C 0.61437 0.1769 0.82611 0.0
O650 O 0.70137 0.16646 0.88599 0.0
O651 O 0.66638 0.19869 0.88735 0.0
O652 O 0.65302 0.11606 0.9262 0.0
C653 C 0.69375 0.19297 0.89083 0.0
O654 O 0.63985 0.18773 0.82023 0.0
C655 C 0.63196 0.13021 0.93862 0.0
O656 O 0.61122 0.15845 0.84717 0.0
O657 O 0.61805 0.14885 0.92276 0.0
C658 C 0.22935 0.8035 0.81868 0.0
O659 O 0.21374 0.78101 0.81214 0.0
Cd660 Cd 0.21891 0.73449 0.83521 0.0
O661 O 0.2466 0.80316 0.84131 0.0
Cd662 Cd 0.25786 0.76398 0.88058 0.0
C663 C 0.29536 0.73282 0.82611 0.0
O664 O 0.20836 0.74326 0.88599 0.0
O665 O 0.24335 0.71103 0.88735 0.0
O666 O 0.25671 0.79366 0.9262 0.0
C667 C 0.21598 0.71675 0.89083 0.0
O668 O 0.26988 0.72199 0.82023 0.0
C669 C 0.27777 0.77952 0.93862 0.0
O670 O 0.29852 0.75128 0.84717 0.0
O671 O 0.29168 0.76088 0.92276 0.0
C672 C 0.72935 0.59106 0.80351 0.0
O673 O 0.71373 0.59761 0.78103 0.0
Cd674 Cd 0.71888 0.57458 0.73449 0.0
O675 O 0.7466 0.56843 0.80315 0.0
Cd676 Cd 0.75785 0.52915 0.76396 0.0
C677 C 0.79534 0.58364 0.7328 0.0
O678 O 0.70836 0.5238 0.74324 0.0
O679 O 0.74335 0.52231 0.71102 0.0
O680 O 0.75669 0.48353 0.79365 0.0
C681 C 0.71597 0.51887 0.71674 0.0
O682 O 0.76986 0.58955 0.722 0.0
C683 C 0.77777 0.47111 0.77953 0.0
O684 O 0.7985 0.56256 0.75124 0.0
O685 O 0.79168 0.48698 0.7609 0.0
C686 C 0.18038 0.31866 0.80351 0.0
O687 O 0.196 0.31212 0.78103 0.0
Cd688 Cd 0.19085 0.33514 0.73449 0.0
O689 O 0.16313 0.3413 0.80315 0.0
Cd690 Cd 0.15188 0.38057 0.76396 0.0
C691 C 0.11439 0.32609 0.7328 0.0
O692 O 0.20137 0.38592 0.74324 0.0
O693 O 0.16639 0.38741 0.71102 0.0
O694 O 0.15304 0.42619 0.79365 0.0
C695 C 0.19376 0.39086 0.71674 0.0
O696 O 0.13987 0.32017 0.722 0.0
C697 C 0.13197 0.43861 0.77953 0.0
O698 O 0.11123 0.34716 0.75124 0.0
O699 O 0.11805 0.42275 0.7609 0.0
C700 C 0.18038 0.59106 0.10621 0.0
O701 O 0.196 0.59761 0.12869 0.0
Cd702 Cd 0.19085 0.57458 0.17523 0.0
O703 O 0.16313 0.56843 0.10657 0.0
Cd704 Cd 0.15188 0.52915 0.14576 0.0
C705 C 0.11439 0.58364 0.17692 0.0
O706 O 0.20137 0.5238 0.16649 0.0
O707 O 0.16639 0.52231 0.1987 0.0
O708 O 0.15304 0.48353 0.11607 0.0
C709 C 0.19376 0.51887 0.19298 0.0
O710 O 0.13987 0.58955 0.18773 0.0
C711 C 0.13197 0.47111 0.13019 0.0
O712 O 0.11123 0.56256 0.15848 0.0
O713 O 0.11805 0.48698 0.14883 0.0
C714 C 0.72935 0.31866 0.10621 0.0
O715 O 0.71373 0.31212 0.12869 0.0
Cd716 Cd 0.71888 0.33514 0.17523 0.0
O717 O 0.7466 0.3413 0.10657 0.0
Cd718 Cd 0.75785 0.38057 0.14576 0.0
C719 C 0.79534 0.32609 0.17692 0.0
O720 O 0.70836 0.38592 0.16649 0.0
O721 O 0.74335 0.38741 0.1987 0.0
O722 O 0.75669 0.42619 0.11607 0.0
C723 C 0.71597 0.39086 0.19298 0.0
O724 O 0.76986 0.32017 0.18773 0.0
C725 C 0.77777 0.43861 0.13019 0.0
O726 O 0.7985 0.34716 0.15848 0.0
O727 O 0.79168 0.42275 0.14883 0.0
C728 C 0.30351 0.59107 0.68036 0.0
O729 O 0.28102 0.59761 0.69598 0.0
Cd730 Cd 0.23449 0.57457 0.69082 0.0
O731 O 0.30315 0.56843 0.66312 0.0
Cd732 Cd 0.26396 0.52915 0.65187 0.0
C733 C 0.23281 0.58364 0.61437 0.0
O734 O 0.24324 0.52379 0.70136 0.0
O735 O 0.21102 0.52233 0.66638 0.0
O736 O 0.29365 0.48354 0.65303 0.0
C737 C 0.21674 0.51888 0.69375 0.0
O738 O 0.22199 0.58954 0.63984 0.0
C739 C 0.27953 0.47112 0.63196 0.0
O740 O 0.25125 0.56256 0.61121 0.0
O741 O 0.26089 0.48698 0.61804 0.0
C742 C 0.60622 0.31865 0.68036 0.0
O743 O 0.62871 0.31211 0.69598 0.0
Cd744 Cd 0.67524 0.33515 0.69082 0.0
O745 O 0.60658 0.34129 0.66312 0.0
Cd746 Cd 0.64577 0.38057 0.65187 0.0
C747 C 0.67692 0.32609 0.61437 0.0
O748 O 0.66649 0.38593 0.70136 0.0
O749 O 0.69871 0.38739 0.66638 0.0
O750 O 0.61608 0.42619 0.65303 0.0
C751 C 0.69299 0.39085 0.69375 0.0
O752 O 0.68774 0.32018 0.63984 0.0
C753 C 0.6302 0.43861 0.63196 0.0
O754 O 0.65848 0.34716 0.61121 0.0
O755 O 0.64884 0.42274 0.61804 0.0
C756 C 0.30351 0.31865 0.22936 0.0
O757 O 0.28102 0.31211 0.21375 0.0
Cd758 Cd 0.23449 0.33515 0.2189 0.0
O759 O 0.30315 0.34129 0.2466 0.0
Cd760 Cd 0.26396 0.38057 0.25785 0.0
C761 C 0.23281 0.32609 0.29536 0.0
O762 O 0.24324 0.38593 0.20836 0.0
O763 O 0.21102 0.38739 0.24334 0.0
O764 O 0.29365 0.42619 0.25669 0.0
C765 C 0.21674 0.39085 0.21597 0.0
O766 O 0.22199 0.32018 0.26988 0.0
C767 C 0.27953 0.43861 0.27776 0.0
O768 O 0.25125 0.34716 0.29851 0.0
O769 O 0.26089 0.42274 0.29168 0.0
C770 C 0.60622 0.59107 0.22936 0.0
O771 O 0.62871 0.59761 0.21375 0.0
Cd772 Cd 0.67524 0.57457 0.2189 0.0
O773 O 0.60658 0.56843 0.2466 0.0
Cd774 Cd 0.64577 0.52915 0.25785 0.0
C775 C 0.67692 0.58364 0.29536 0.0
O776 O 0.66649 0.52379 0.20836 0.0
O777 O 0.69871 0.52233 0.24334 0.0
O778 O 0.61608 0.48354 0.25669 0.0
C779 C 0.69299 0.51888 0.21597 0.0
O780 O 0.68774 0.58954 0.26988 0.0
C781 C 0.6302 0.47112 0.27776 0.0
O782 O 0.65848 0.56256 0.29851 0.0
O783 O 0.64884 0.48698 0.29168 0.0
C784 C 0.18038 0.80352 0.59106 0.0
O785 O 0.196 0.78103 0.59761 0.0
Cd786 Cd 0.19085 0.73449 0.57457 0.0
O787 O 0.16313 0.80316 0.56842 0.0
Cd788 Cd 0.15188 0.76396 0.52915 0.0
C789 C 0.11439 0.7328 0.58364 0.0
O790 O 0.20137 0.74324 0.52379 0.0
O791 O 0.16639 0.71103 0.52231 0.0
O792 O 0.15304 0.79365 0.48353 0.0
C793 C 0.19376 0.71674 0.51887 0.0
O794 O 0.13987 0.722 0.58955 0.0
C795 C 0.13196 0.77953 0.47111 0.0
O796 O 0.11123 0.75125 0.56256 0.0
O797 O 0.11805 0.7609 0.48698 0.0
C798 C 0.18038 0.10621 0.31866 0.0
O799 O 0.196 0.12869 0.31212 0.0
Cd800 Cd 0.19085 0.17523 0.33515 0.0
O801 O 0.16313 0.10657 0.3413 0.0
Cd802 Cd 0.15188 0.14576 0.38057 0.0
C803 C 0.11439 0.17692 0.32609 0.0
O804 O 0.20137 0.16648 0.38593 0.0
O805 O 0.16639 0.19869 0.38741 0.0
O806 O 0.15304 0.11607 0.42619 0.0
C807 C 0.19376 0.19298 0.39085 0.0
O808 O 0.13987 0.18773 0.32018 0.0
C809 C 0.13196 0.13019 0.43861 0.0
O810 O 0.11123 0.15848 0.34716 0.0
O811 O 0.11805 0.14883 0.42275 0.0
C812 C 0.30349 0.68037 0.31865 0.0
O813 O 0.28099 0.69598 0.31211 0.0
Cd814 Cd 0.23447 0.69082 0.33516 0.0
O815 O 0.30314 0.66313 0.34129 0.0
Cd816 Cd 0.26396 0.65187 0.38057 0.0
C817 C 0.2328 0.61436 0.32609 0.0
O818 O 0.24324 0.70136 0.38594 0.0
O819 O 0.21102 0.66638 0.38739 0.0
O820 O 0.29365 0.65303 0.42619 0.0
C821 C 0.21674 0.69375 0.39085 0.0
O822 O 0.22198 0.63984 0.32019 0.0
C823 C 0.27953 0.63196 0.43861 0.0
O824 O 0.25125 0.61121 0.34716 0.0
O825 O 0.26089 0.61805 0.42275 0.0
C826 C 0.72936 0.80352 0.31866 0.0
O827 O 0.71374 0.78103 0.31212 0.0
Cd828 Cd 0.71888 0.73449 0.33515 0.0
O829 O 0.7466 0.80316 0.3413 0.0
Cd830 Cd 0.75786 0.76396 0.38057 0.0
C831 C 0.79534 0.7328 0.32609 0.0
O832 O 0.70837 0.74324 0.38593 0.0
O833 O 0.74335 0.71103 0.38741 0.0
O834 O 0.75669 0.79365 0.42619 0.0
C835 C 0.71597 0.71674 0.39085 0.0
O836 O 0.76986 0.722 0.32018 0.0
C837 C 0.77777 0.77953 0.43861 0.0
O838 O 0.79851 0.75125 0.34716 0.0
O839 O 0.79168 0.7609 0.42275 0.0
C840 C 0.60625 0.22935 0.31865 0.0
O841 O 0.62874 0.21375 0.31211 0.0
Cd842 Cd 0.67526 0.21891 0.33516 0.0
O843 O 0.60659 0.24659 0.34129 0.0
Cd844 Cd 0.64577 0.25785 0.38057 0.0
C845 C 0.67693 0.29536 0.32609 0.0
O846 O 0.66649 0.20836 0.38594 0.0
O847 O 0.69871 0.24334 0.38739 0.0
O848 O 0.61608 0.25669 0.42619 0.0
C849 C 0.693 0.21597 0.39085 0.0
O850 O 0.68776 0.26989 0.32019 0.0
C851 C 0.6302 0.27776 0.43861 0.0
O852 O 0.65848 0.29851 0.34716 0.0
O853 O 0.64884 0.29168 0.42275 0.0
C854 C 0.72936 0.10621 0.59106 0.0
O855 O 0.71374 0.12869 0.59761 0.0
Cd856 Cd 0.71888 0.17523 0.57457 0.0
O857 O 0.7466 0.10657 0.56842 0.0
Cd858 Cd 0.75786 0.14576 0.52915 0.0
C859 C 0.79534 0.17692 0.58364 0.0
O860 O 0.70837 0.16648 0.52379 0.0
O861 O 0.74335 0.19869 0.52231 0.0
O862 O 0.75669 0.11607 0.48353 0.0
C863 C 0.71597 0.19298 0.51887 0.0
O864 O 0.76986 0.18773 0.58955 0.0
C865 C 0.77777 0.13019 0.47111 0.0
O866 O 0.79851 0.15848 0.56256 0.0
O867 O 0.79168 0.14883 0.48698 0.0
C868 C 0.30349 0.22935 0.59108 0.0
O869 O 0.28099 0.21375 0.59761 0.0
Cd870 Cd 0.23447 0.21891 0.57456 0.0
O871 O 0.30314 0.24659 0.56843 0.0
Cd872 Cd 0.26396 0.25785 0.52915 0.0
C873 C 0.2328 0.29536 0.58363 0.0
O874 O 0.24324 0.20836 0.52378 0.0
O875 O 0.21102 0.24334 0.52233 0.0
O876 O 0.29365 0.25669 0.48354 0.0
C877 C 0.21674 0.21597 0.51887 0.0
O878 O 0.22198 0.26989 0.58953 0.0
C879 C 0.27953 0.27776 0.47112 0.0
O880 O 0.25125 0.29851 0.56256 0.0
O881 O 0.26089 0.29168 0.48698 0.0
C882 C 0.60625 0.68037 0.59108 0.0
O883 O 0.62874 0.69598 0.59761 0.0
Cd884 Cd 0.67526 0.69082 0.57456 0.0
O885 O 0.60659 0.66313 0.56843 0.0
Cd886 Cd 0.64577 0.65187 0.52915 0.0
C887 C 0.67693 0.61436 0.58363 0.0
O888 O 0.66649 0.70136 0.52378 0.0
O889 O 0.69871 0.66638 0.52233 0.0
O890 O 0.61608 0.65303 0.48354 0.0
C891 C 0.693 0.69375 0.51887 0.0
O892 O 0.68776 0.63984 0.58953 0.0
C893 C 0.6302 0.63196 0.47112 0.0
O894 O 0.65848 0.61121 0.56256 0.0
O895 O 0.64884 0.61805 0.48698 0.0
C896 C 0.10622 0.31867 0.18036 0.0
O897 O 0.12871 0.31213 0.19597 0.0
Cd898 Cd 0.17524 0.3352 0.19082 0.0
O899 O 0.10656 0.34131 0.16312 0.0
Cd900 Cd 0.14575 0.38058 0.15187 0.0
C901 C 0.17692 0.32611 0.11437 0.0
O902 O 0.16646 0.38598 0.20136 0.0
O903 O 0.1987 0.38735 0.16638 0.0
O904 O 0.11607 0.4262 0.15302 0.0
C905 C 0.19298 0.39083 0.19375 0.0
O906 O 0.18775 0.32022 0.13985 0.0
C907 C 0.13022 0.43862 0.13196 0.0
O908 O 0.15846 0.34717 0.11121 0.0
O909 O 0.14885 0.42276 0.11804 0.0
C910 C 0.80351 0.59105 0.18036 0.0
O911 O 0.78102 0.59759 0.19597 0.0
Cd912 Cd 0.7345 0.57453 0.19082 0.0
O913 O 0.80317 0.56841 0.16312 0.0
Cd914 Cd 0.76398 0.52914 0.15187 0.0
C915 C 0.73281 0.58361 0.11437 0.0
O916 O 0.74327 0.52374 0.20136 0.0
O917 O 0.71104 0.52237 0.16638 0.0
O918 O 0.79366 0.48352 0.15302 0.0
C919 C 0.71676 0.5189 0.19375 0.0
O920 O 0.72198 0.5895 0.13985 0.0
C921 C 0.77952 0.47111 0.13196 0.0
O922 O 0.75128 0.56255 0.11121 0.0
O923 O 0.76088 0.48697 0.11804 0.0
C924 C 0.80351 0.31867 0.72936 0.0
O925 O 0.78102 0.31213 0.71375 0.0
Cd926 Cd 0.7345 0.3352 0.7189 0.0
O927 O 0.80317 0.34131 0.7466 0.0
Cd928 Cd 0.76398 0.38058 0.75785 0.0
C929 C 0.73281 0.32611 0.79535 0.0
O930 O 0.74327 0.38598 0.70836 0.0
O931 O 0.71104 0.38735 0.74335 0.0
O932 O 0.79366 0.4262 0.7567 0.0
C933 C 0.71676 0.39083 0.71598 0.0
O934 O 0.72198 0.32022 0.76988 0.0
C935 C 0.77952 0.43862 0.77777 0.0
O936 O 0.75128 0.34717 0.79851 0.0
O937 O 0.76088 0.42276 0.79168 0.0
C938 C 0.10622 0.59105 0.72936 0.0
O939 O 0.12871 0.59759 0.71375 0.0
Cd940 Cd 0.17524 0.57453 0.7189 0.0
O941 O 0.10656 0.56841 0.7466 0.0
Cd942 Cd 0.14575 0.52914 0.75785 0.0
C943 C 0.17692 0.58361 0.79535 0.0
O944 O 0.16646 0.52374 0.70836 0.0
O945 O 0.1987 0.52237 0.74335 0.0
O946 O 0.11607 0.48352 0.7567 0.0
C947 C 0.19298 0.5189 0.71598 0.0
O948 O 0.18775 0.5895 0.76988 0.0
C949 C 0.13022 0.47111 0.77777 0.0
O950 O 0.15846 0.56255 0.79851 0.0
O951 O 0.14885 0.48697 0.79168 0.0
C952 C 0.68039 0.31868 0.3035 0.0
O953 O 0.696 0.31214 0.28101 0.0
Cd954 Cd 0.69082 0.33521 0.23449 0.0
O955 O 0.66314 0.34131 0.30316 0.0
Cd956 Cd 0.65188 0.38059 0.26398 0.0
C957 C 0.61437 0.32611 0.23282 0.0
O958 O 0.70137 0.386 0.24326 0.0
O959 O 0.66638 0.38735 0.21103 0.0
O960 O 0.65303 0.42621 0.29366 0.0
C961 C 0.69375 0.39083 0.21675 0.0
O962 O 0.63985 0.32023 0.22199 0.0
C963 C 0.63196 0.43862 0.27952 0.0
O964 O 0.61122 0.34717 0.25128 0.0
O965 O 0.61805 0.42276 0.26088 0.0
C966 C 0.22935 0.59104 0.3035 0.0
O967 O 0.21374 0.59758 0.28101 0.0
Cd968 Cd 0.21891 0.57451 0.23449 0.0
O969 O 0.24659 0.56841 0.30316 0.0
Cd970 Cd 0.25786 0.52914 0.26398 0.0
C971 C 0.29536 0.58361 0.23282 0.0
O972 O 0.20836 0.52373 0.24326 0.0
O973 O 0.24335 0.52238 0.21103 0.0
O974 O 0.25671 0.48352 0.29366 0.0
C975 C 0.21598 0.51889 0.21675 0.0
O976 O 0.26988 0.58949 0.22199 0.0
C977 C 0.27777 0.4711 0.27952 0.0
O978 O 0.29852 0.56255 0.25128 0.0
O979 O 0.29168 0.48696 0.26088 0.0
C980 C 0.68039 0.59104 0.60622 0.0
O981 O 0.696 0.59758 0.62871 0.0
Cd982 Cd 0.69082 0.57451 0.67523 0.0
O983 O 0.66314 0.56841 0.60656 0.0
Cd984 Cd 0.65188 0.52914 0.64575 0.0
C985 C 0.61437 0.58361 0.6769 0.0
O986 O 0.70137 0.52373 0.66646 0.0
O987 O 0.66638 0.52238 0.69869 0.0
O988 O 0.65303 0.48352 0.61606 0.0
C989 C 0.69375 0.51889 0.69297 0.0
O990 O 0.63985 0.58949 0.68773 0.0
C991 C 0.63196 0.4711 0.63021 0.0
O992 O 0.61122 0.56255 0.65844 0.0
O993 O 0.61805 0.48696 0.64884 0.0
C994 C 0.22935 0.31868 0.60622 0.0
O995 O 0.21374 0.31214 0.62871 0.0
Cd996 Cd 0.21891 0.33521 0.67523 0.0
O997 O 0.24659 0.34131 0.60656 0.0
Cd998 Cd 0.25786 0.38059 0.64575 0.0
C999 C 0.29536 0.32611 0.6769 0.0
O1000 O 0.20836 0.386 0.66646 0.0
O1001 O 0.24335 0.38735 0.69869 0.0
O1002 O 0.25671 0.42621 0.61606 0.0
C1003 C 0.21598 0.39083 0.69297 0.0
O1004 O 0.26988 0.32023 0.68773 0.0
C1005 C 0.27777 0.43862 0.63021 0.0
O1006 O 0.29852 0.34717 0.65844 0.0
O1007 O 0.29168 0.42276 0.64884 0.0
C1008 C 0.80351 0.18036 0.31867 0.0
O1009 O 0.78102 0.19597 0.31213 0.0
Cd1010 Cd 0.7345 0.19082 0.3352 0.0
O1011 O 0.80317 0.16312 0.34131 0.0
Cd1012 Cd 0.76398 0.15187 0.38058 0.0
C1013 C 0.73282 0.11437 0.32611 0.0
O1014 O 0.74327 0.20136 0.38598 0.0
O1015 O 0.71104 0.16638 0.38736 0.0
O1016 O 0.79367 0.15302 0.4262 0.0
C1017 C 0.71676 0.19375 0.39083 0.0
O1018 O 0.72199 0.13985 0.32022 0.0
C1019 C 0.77952 0.13196 0.43861 0.0
O1020 O 0.75128 0.11121 0.34717 0.0
O1021 O 0.76088 0.11804 0.42276 0.0
C1022 C 0.80351 0.72936 0.59105 0.0
O1023 O 0.78102 0.71375 0.59759 0.0
Cd1024 Cd 0.7345 0.7189 0.57453 0.0
O1025 O 0.80317 0.7466 0.56841 0.0
Cd1026 Cd 0.76398 0.75786 0.52914 0.0
C1027 C 0.73282 0.79535 0.58361 0.0
O1028 O 0.74327 0.70836 0.52375 0.0
O1029 O 0.71104 0.74335 0.52236 0.0
O1030 O 0.79367 0.75671 0.48352 0.0
C1031 C 0.71676 0.71598 0.51889 0.0
O1032 O 0.72199 0.76988 0.5895 0.0
C1033 C 0.77952 0.77777 0.47111 0.0
O1034 O 0.75128 0.79851 0.56255 0.0
O1035 O 0.76088 0.79168 0.48697 0.0
C1036 C 0.68038 0.3035 0.59105 0.0
O1037 O 0.69599 0.281 0.59759 0.0
Cd1038 Cd 0.69082 0.23448 0.57452 0.0
O1039 O 0.66314 0.30315 0.56842 0.0
Cd1040 Cd 0.65188 0.26397 0.52914 0.0
C1041 C 0.61437 0.23282 0.58362 0.0
O1042 O 0.70137 0.24326 0.52374 0.0
O1043 O 0.66638 0.21103 0.52237 0.0
O1044 O 0.65303 0.29366 0.48352 0.0
C1045 C 0.69375 0.21674 0.51889 0.0
O1046 O 0.63984 0.22199 0.58951 0.0
C1047 C 0.63197 0.27951 0.47111 0.0
O1048 O 0.61122 0.25127 0.56255 0.0
O1049 O 0.61805 0.26087 0.48696 0.0
C1050 C 0.10622 0.18036 0.59105 0.0
O1051 O 0.12871 0.19597 0.59759 0.0
Cd1052 Cd 0.17524 0.19082 0.57453 0.0
O1053 O 0.10656 0.16312 0.56841 0.0
Cd1054 Cd 0.14575 0.15187 0.52914 0.0
C1055 C 0.17692 0.11437 0.58361 0.0
O1056 O 0.16646 0.20136 0.52375 0.0
O1057 O 0.19869 0.16638 0.52236 0.0
O1058 O 0.11607 0.15302 0.48352 0.0
C1059 C 0.19297 0.19375 0.51889 0.0
O1060 O 0.18775 0.13985 0.5895 0.0
C1061 C 0.13021 0.13196 0.47111 0.0
O1062 O 0.15845 0.11121 0.56255 0.0
O1063 O 0.14885 0.11804 0.48697 0.0
C1064 C 0.22935 0.60623 0.59105 0.0
O1065 O 0.21374 0.62872 0.59759 0.0
Cd1066 Cd 0.21891 0.67524 0.57452 0.0
O1067 O 0.2466 0.60657 0.56842 0.0
Cd1068 Cd 0.25786 0.64575 0.52914 0.0
C1069 C 0.29537 0.67691 0.58362 0.0
O1070 O 0.20837 0.66647 0.52374 0.0
O1071 O 0.24335 0.6987 0.52237 0.0
O1072 O 0.2567 0.61607 0.48352 0.0
C1073 C 0.21598 0.69298 0.51889 0.0
O1074 O 0.26989 0.68773 0.58951 0.0
C1075 C 0.27777 0.63021 0.47111 0.0
O1076 O 0.29852 0.65845 0.56255 0.0
O1077 O 0.29168 0.64885 0.48696 0.0
C1078 C 0.10622 0.72936 0.31867 0.0
O1079 O 0.12871 0.71375 0.31213 0.0
Cd1080 Cd 0.17524 0.7189 0.3352 0.0
O1081 O 0.10656 0.7466 0.34131 0.0
Cd1082 Cd 0.14575 0.75786 0.38058 0.0
C1083 C 0.17692 0.79535 0.32611 0.0
O1084 O 0.16646 0.70836 0.38598 0.0
O1085 O 0.19869 0.74335 0.38736 0.0
O1086 O 0.11607 0.75671 0.4262 0.0
C1087 C 0.19297 0.71598 0.39083 0.0
O1088 O 0.18775 0.76988 0.32022 0.0
C1089 C 0.13021 0.77777 0.43861 0.0
O1090 O 0.15845 0.79851 0.34717 0.0
O1091 O 0.14885 0.79168 0.42276 0.0
C1092 C 0.68038 0.60623 0.31867 0.0
O1093 O 0.69599 0.62872 0.31214 0.0
Cd1094 Cd 0.69082 0.67524 0.3352 0.0
O1095 O 0.66314 0.60657 0.34131 0.0
Cd1096 Cd 0.65188 0.64575 0.38058 0.0
C1097 C 0.61437 0.67691 0.32611 0.0
O1098 O 0.70137 0.66647 0.38598 0.0
O1099 O 0.66638 0.6987 0.38735 0.0
O1100 O 0.65303 0.61607 0.4262 0.0
C1101 C 0.69375 0.69298 0.39083 0.0
O1102 O 0.63984 0.68773 0.32022 0.0
C1103 C 0.63197 0.63021 0.43862 0.0
O1104 O 0.61122 0.65845 0.34717 0.0
O1105 O 0.61805 0.64885 0.42276 0.0
C1106 C 0.22935 0.3035 0.31867 0.0
O1107 O 0.21374 0.281 0.31214 0.0
Cd1108 Cd 0.21891 0.23448 0.3352 0.0
O1109 O 0.2466 0.30315 0.34131 0.0
Cd1110 Cd 0.25786 0.26397 0.38058 0.0
C1111 C 0.29537 0.23282 0.32611 0.0
O1112 O 0.20837 0.24326 0.38598 0.0
O1113 O 0.24335 0.21103 0.38735 0.0
O1114 O 0.2567 0.29366 0.4262 0.0
C1115 C 0.21598 0.21674 0.39083 0.0
O1116 O 0.26989 0.22199 0.32022 0.0
C1117 C 0.27777 0.27951 0.43862 0.0
O1118 O 0.29852 0.25127 0.34717 0.0
O1119 O 0.29168 0.26087 0.42276 0.0
C1120 C 0.59106 0.18037 0.80351 0.0
O1121 O 0.59761 0.19599 0.78103 0.0
Cd1122 Cd 0.57458 0.19084 0.73449 0.0
O1123 O 0.56843 0.16312 0.80315 0.0
Cd1124 Cd 0.52916 0.15187 0.76396 0.0
C1125 C 0.58364 0.11438 0.7328 0.0
O1126 O 0.5238 0.20136 0.74323 0.0
O1127 O 0.52232 0.16638 0.71102 0.0
O1128 O 0.48354 0.15304 0.79365 0.0
C1129 C 0.51888 0.19375 0.71673 0.0
O1130 O 0.58956 0.13987 0.72199 0.0
C1131 C 0.47112 0.13196 0.77953 0.0
O1132 O 0.56257 0.11122 0.75124 0.0
O1133 O 0.48698 0.11805 0.76089 0.0
C1134 C 0.31867 0.72935 0.80351 0.0
O1135 O 0.31212 0.71373 0.78103 0.0
Cd1136 Cd 0.33515 0.71888 0.73449 0.0
O1137 O 0.3413 0.7466 0.80315 0.0
Cd1138 Cd 0.38058 0.75785 0.76396 0.0
C1139 C 0.32609 0.79534 0.7328 0.0
O1140 O 0.38593 0.70836 0.74323 0.0
O1141 O 0.38741 0.74334 0.71102 0.0
O1142 O 0.42619 0.75669 0.79365 0.0
C1143 C 0.39086 0.71597 0.71673 0.0
O1144 O 0.32018 0.76986 0.72199 0.0
C1145 C 0.43861 0.77776 0.77953 0.0
O1146 O 0.34716 0.7985 0.75124 0.0
O1147 O 0.42275 0.79168 0.76089 0.0
C1148 C 0.59106 0.72935 0.10621 0.0
O1149 O 0.59761 0.71373 0.12869 0.0
Cd1150 Cd 0.57458 0.71888 0.17523 0.0
O1151 O 0.56843 0.7466 0.10657 0.0
Cd1152 Cd 0.52916 0.75785 0.14576 0.0
C1153 C 0.58364 0.79534 0.17692 0.0
O1154 O 0.5238 0.70836 0.16649 0.0
O1155 O 0.52232 0.74334 0.1987 0.0
O1156 O 0.48354 0.75669 0.11608 0.0
C1157 C 0.51888 0.71597 0.19299 0.0
O1158 O 0.58956 0.76986 0.18773 0.0
C1159 C 0.47112 0.77776 0.1302 0.0
O1160 O 0.56257 0.7985 0.15848 0.0
O1161 O 0.48698 0.79168 0.14883 0.0
C1162 C 0.31867 0.18037 0.10621 0.0
O1163 O 0.31212 0.19599 0.12869 0.0
Cd1164 Cd 0.33515 0.19084 0.17523 0.0
O1165 O 0.3413 0.16312 0.10657 0.0
Cd1166 Cd 0.38058 0.15187 0.14576 0.0
C1167 C 0.32609 0.11438 0.17692 0.0
O1168 O 0.38593 0.20136 0.16649 0.0
O1169 O 0.38741 0.16638 0.1987 0.0
O1170 O 0.42619 0.15304 0.11608 0.0
C1171 C 0.39086 0.19375 0.19299 0.0
O1172 O 0.32018 0.13987 0.18773 0.0
C1173 C 0.43861 0.13196 0.1302 0.0
O1174 O 0.34716 0.11122 0.15848 0.0
O1175 O 0.42275 0.11805 0.14883 0.0
C1176 C 0.31867 0.30351 0.68037 0.0
O1177 O 0.31212 0.28103 0.69599 0.0
Cd1178 Cd 0.33515 0.23449 0.69084 0.0
O1179 O 0.3413 0.30315 0.66312 0.0
Cd1180 Cd 0.38058 0.26396 0.65187 0.0
C1181 C 0.32609 0.2328 0.61438 0.0
O1182 O 0.38593 0.24324 0.70136 0.0
O1183 O 0.38741 0.21102 0.66638 0.0
O1184 O 0.42619 0.29365 0.65303 0.0
C1185 C 0.39086 0.21674 0.69375 0.0
O1186 O 0.32018 0.222 0.63987 0.0
C1187 C 0.43861 0.27953 0.63196 0.0
O1188 O 0.34716 0.25125 0.61122 0.0
O1189 O 0.42275 0.26089 0.61804 0.0
C1190 C 0.59106 0.60621 0.68037 0.0
O1191 O 0.59761 0.62869 0.69599 0.0
Cd1192 Cd 0.57458 0.67523 0.69084 0.0
O1193 O 0.56843 0.60657 0.66312 0.0
Cd1194 Cd 0.52916 0.64576 0.65187 0.0
C1195 C 0.58365 0.67692 0.61438 0.0
O1196 O 0.5238 0.66649 0.70136 0.0
O1197 O 0.52232 0.6987 0.66638 0.0
O1198 O 0.48354 0.61608 0.65303 0.0
C1199 C 0.51888 0.69299 0.69375 0.0
O1200 O 0.58956 0.68773 0.63987 0.0
C1201 C 0.47112 0.6302 0.63196 0.0
O1202 O 0.56257 0.65848 0.61122 0.0
O1203 O 0.48698 0.64883 0.61804 0.0
C1204 C 0.59106 0.30351 0.22935 0.0
O1205 O 0.59761 0.28103 0.21373 0.0
Cd1206 Cd 0.57458 0.23449 0.21888 0.0
O1207 O 0.56843 0.30315 0.2466 0.0
Cd1208 Cd 0.52916 0.26396 0.25785 0.0
C1209 C 0.58365 0.2328 0.29534 0.0
O1210 O 0.5238 0.24324 0.20836 0.0
O1211 O 0.52232 0.21102 0.24334 0.0
O1212 O 0.48354 0.29365 0.25669 0.0
C1213 C 0.51888 0.21674 0.21597 0.0
O1214 O 0.58956 0.222 0.26986 0.0
C1215 C 0.47112 0.27953 0.27776 0.0
O1216 O 0.56257 0.25125 0.2985 0.0
O1217 O 0.48698 0.26089 0.29168 0.0
C1218 C 0.31867 0.60621 0.22935 0.0
O1219 O 0.31212 0.62869 0.21373 0.0
Cd1220 Cd 0.33515 0.67523 0.21888 0.0
O1221 O 0.3413 0.60657 0.2466 0.0
Cd1222 Cd 0.38058 0.64576 0.25785 0.0
C1223 C 0.32609 0.67692 0.29534 0.0
O1224 O 0.38593 0.66649 0.20836 0.0
O1225 O 0.38741 0.6987 0.24334 0.0
O1226 O 0.42619 0.61608 0.25669 0.0
C1227 C 0.39086 0.69299 0.21597 0.0
O1228 O 0.32018 0.68773 0.26986 0.0
C1229 C 0.43861 0.6302 0.27776 0.0
O1230 O 0.34716 0.65848 0.2985 0.0
O1231 O 0.42275 0.64883 0.29168 0.0
C1232 C 0.31868 0.80351 0.18037 0.0
O1233 O 0.31214 0.78102 0.19598 0.0
Cd1234 Cd 0.3352 0.73449 0.19082 0.0
O1235 O 0.34132 0.80316 0.16312 0.0
Cd1236 Cd 0.38059 0.76397 0.15187 0.0
C1237 C 0.32612 0.73281 0.11437 0.0
O1238 O 0.38599 0.74326 0.20136 0.0
O1239 O 0.38736 0.71103 0.16638 0.0
O1240 O 0.42621 0.79366 0.15302 0.0
C1241 C 0.39083 0.71675 0.19375 0.0
O1242 O 0.32023 0.72198 0.13985 0.0
C1243 C 0.43862 0.77951 0.13196 0.0
O1244 O 0.34717 0.75128 0.11121 0.0
O1245 O 0.42276 0.76088 0.11805 0.0
C1246 C 0.59105 0.10621 0.18037 0.0
O1247 O 0.5976 0.12871 0.19598 0.0
Cd1248 Cd 0.57453 0.17523 0.19082 0.0
O1249 O 0.56842 0.10656 0.16312 0.0
Cd1250 Cd 0.52915 0.14575 0.15187 0.0
C1251 C 0.58362 0.17691 0.11437 0.0
O1252 O 0.52375 0.16646 0.20136 0.0
O1253 O 0.52238 0.19869 0.16638 0.0
O1254 O 0.48352 0.11606 0.15302 0.0
C1255 C 0.5189 0.19297 0.19375 0.0
O1256 O 0.58951 0.18774 0.13985 0.0
C1257 C 0.47111 0.13021 0.13196 0.0
O1258 O 0.56256 0.15845 0.11121 0.0
O1259 O 0.48697 0.14885 0.11805 0.0
C1260 C 0.31868 0.10621 0.72936 0.0
O1261 O 0.31214 0.12871 0.71375 0.0
Cd1262 Cd 0.3352 0.17523 0.7189 0.0
O1263 O 0.34132 0.10656 0.7466 0.0
Cd1264 Cd 0.38059 0.14575 0.75785 0.0
C1265 C 0.32612 0.17691 0.79535 0.0
O1266 O 0.38599 0.16646 0.70836 0.0
O1267 O 0.38736 0.19869 0.74335 0.0
O1268 O 0.42621 0.11606 0.7567 0.0
C1269 C 0.39083 0.19297 0.71598 0.0
O1270 O 0.32023 0.18774 0.76988 0.0
C1271 C 0.43862 0.13021 0.77776 0.0
O1272 O 0.34717 0.15845 0.79851 0.0
O1273 O 0.42276 0.14885 0.79168 0.0
C1274 C 0.59105 0.80351 0.72936 0.0
O1275 O 0.5976 0.78102 0.71375 0.0
Cd1276 Cd 0.57453 0.73449 0.7189 0.0
O1277 O 0.56842 0.80316 0.7466 0.0
Cd1278 Cd 0.52915 0.76397 0.75785 0.0
C1279 C 0.58362 0.73281 0.79535 0.0
O1280 O 0.52375 0.74326 0.70836 0.0
O1281 O 0.52238 0.71103 0.74335 0.0
O1282 O 0.48352 0.79366 0.7567 0.0
C1283 C 0.5189 0.71675 0.71598 0.0
O1284 O 0.58951 0.72198 0.76988 0.0
C1285 C 0.47111 0.77951 0.77776 0.0
O1286 O 0.56256 0.75128 0.79851 0.0
O1287 O 0.48697 0.76088 0.79168 0.0
C1288 C 0.59105 0.68037 0.30351 0.0
O1289 O 0.5976 0.69598 0.28102 0.0
Cd1290 Cd 0.57453 0.69082 0.2345 0.0
O1291 O 0.56842 0.66312 0.30317 0.0
Cd1292 Cd 0.52915 0.65187 0.26398 0.0
C1293 C 0.58362 0.61437 0.23281 0.0
O1294 O 0.52375 0.70136 0.24326 0.0
O1295 O 0.52238 0.66638 0.21104 0.0
O1296 O 0.48353 0.65302 0.29366 0.0
C1297 C 0.5189 0.69375 0.21675 0.0
O1298 O 0.58951 0.63985 0.22198 0.0
C1299 C 0.47111 0.63196 0.27952 0.0
O1300 O 0.56256 0.61121 0.25128 0.0
O1301 O 0.48697 0.61804 0.26088 0.0
C1302 C 0.31868 0.22936 0.30351 0.0
O1303 O 0.31214 0.21375 0.28102 0.0
Cd1304 Cd 0.3352 0.2189 0.2345 0.0
O1305 O 0.34131 0.2466 0.30317 0.0
Cd1306 Cd 0.38059 0.25785 0.26398 0.0
C1307 C 0.32612 0.29535 0.23281 0.0
O1308 O 0.38598 0.20836 0.24326 0.0
O1309 O 0.38736 0.24335 0.21104 0.0
O1310 O 0.42621 0.2567 0.29366 0.0
C1311 C 0.39083 0.21598 0.21675 0.0
O1312 O 0.32022 0.26988 0.22198 0.0
C1313 C 0.43862 0.27776 0.27952 0.0
O1314 O 0.34717 0.29851 0.25128 0.0
O1315 O 0.42276 0.29168 0.26088 0.0
C1316 C 0.31868 0.68037 0.60621 0.0
O1317 O 0.31214 0.69598 0.6287 0.0
Cd1318 Cd 0.3352 0.69082 0.67523 0.0
O1319 O 0.34131 0.66312 0.60656 0.0
Cd1320 Cd 0.38059 0.65187 0.64575 0.0
C1321 C 0.32612 0.61437 0.67691 0.0
O1322 O 0.38598 0.70136 0.66646 0.0
O1323 O 0.38736 0.66638 0.69869 0.0
O1324 O 0.42621 0.65302 0.61606 0.0
C1325 C 0.39083 0.69375 0.69297 0.0
O1326 O 0.32022 0.63985 0.68774 0.0
C1327 C 0.43862 0.63196 0.63021 0.0
O1328 O 0.34717 0.61121 0.65845 0.0
O1329 O 0.42276 0.61804 0.64884 0.0
C1330 C 0.59105 0.22936 0.60621 0.0
O1331 O 0.5976 0.21375 0.6287 0.0
Cd1332 Cd 0.57453 0.2189 0.67523 0.0
O1333 O 0.56842 0.2466 0.60656 0.0
Cd1334 Cd 0.52915 0.25785 0.64575 0.0
C1335 C 0.58362 0.29535 0.67691 0.0
O1336 O 0.52375 0.20836 0.66646 0.0
O1337 O 0.52238 0.24335 0.69869 0.0
O1338 O 0.48353 0.2567 0.61606 0.0
C1339 C 0.5189 0.21598 0.69297 0.0
O1340 O 0.58951 0.26988 0.68774 0.0
C1341 C 0.47111 0.27776 0.63021 0.0
O1342 O 0.56256 0.29851 0.65845 0.0
O1343 O 0.48697 0.29168 0.64884 0.0
loop_
_geom_bond_atom_site_label_1
_geom_bond_atom_site_label_2
_geom_bond_distance
_geom_bond_site_symmetry_2
_ccdc_geom_bond_type
C0 O1 1.306 . S
C0 O3 1.160 . S
O1 C0 1.306 . S
O1 Cd2 2.228 . S
Cd2 O1 2.228 . S
Cd2 O6 2.273 . S
Cd2 O10 2.277 . S
O3 C0 1.160 . S
O3 Cd4 2.203 . S
Cd4 O3 2.203 . S
Cd4 O6 2.411 . S
Cd4 O7 2.333 . S
Cd4 O8 2.352 . S
Cd4 O12 2.277 . S
Cd4 O13 2.356 . S
C5 O10 1.209 . S
C5 O12 1.226 . S
O6 Cd2 2.273 . S
O6 Cd4 2.411 . S
O6 C9 1.320 . S
O7 Cd4 2.333 . S
O7 C9 1.214 . S
O8 Cd4 2.352 . S
O8 C11 1.258 . S
C9 O6 1.320 . S
C9 O7 1.214 . S
O10 Cd2 2.277 . S
O10 C5 1.209 . S
C11 O8 1.258 . S
C11 O13 1.282 . S
O12 Cd4 2.277 . S
O12 C5 1.226 . S
O13 Cd4 2.356 . S
O13 C11 1.282 . S
C14 O15 1.306 . S
C14 O17 1.160 . S
O15 C14 1.306 . S
O15 Cd16 2.228 . S
Cd16 O15 2.228 . S
Cd16 O20 2.273 . S
Cd16 O24 2.277 . S
O17 C14 1.160 . S
O17 Cd18 2.203 . S
Cd18 O17 2.203 . S
Cd18 O20 2.411 . S
Cd18 O21 2.333 . S
Cd18 O22 2.352 . S
Cd18 O26 2.277 . S
Cd18 O27 2.356 . S
C19 O24 1.209 . S
C19 O26 1.226 . S
O20 Cd16 2.273 . S
O20 Cd18 2.411 . S
O20 C23 1.320 . S
O21 Cd18 2.333 . S
O21 C23 1.214 . S
O22 Cd18 2.352 . S
O22 C25 1.258 . S
C23 O20 1.320 . S
C23 O21 1.214 . S
O24 Cd16 2.277 . S
O24 C19 1.209 . S
C25 O22 1.258 . S
C25 O27 1.282 . S
O26 Cd18 2.277 . S
O26 C19 1.226 . S
O27 Cd18 2.356 . S
O27 C25 1.282 . S
C28 O29 1.306 . S
C28 O31 1.160 . S
O29 C28 1.306 . S
O29 Cd30 2.228 . S
Cd30 O29 2.228 . S
Cd30 O34 2.273 . S
Cd30 O38 2.277 . S
O31 C28 1.160 . S
O31 Cd32 2.203 . S
Cd32 O31 2.203 . S
Cd32 O34 2.411 . S
Cd32 O35 2.333 . S
Cd32 O36 2.352 . S
Cd32 O40 2.277 . S
Cd32 O41 2.356 . S
C33 O38 1.209 . S
C33 O40 1.226 . S
O34 Cd30 2.273 . S
O34 Cd32 2.411 . S
O34 C37 1.320 . S
O35 Cd32 2.333 . S
O35 C37 1.214 . S
O36 Cd32 2.352 . S
O36 C39 1.258 . S
C37 O34 1.320 . S
C37 O35 1.214 . S
O38 Cd30 2.277 . S
O38 C33 1.209 . S
C39 O36 1.258 . S
C39 O41 1.282 . S
O40 Cd32 2.277 . S
O40 C33 1.226 . S
O41 Cd32 2.356 . S
O41 C39 1.282 . S
C42 O43 1.306 . S
C42 O45 1.160 . S
O43 C42 1.306 . S
O43 Cd44 2.228 . S
Cd44 O43 2.228 . S
Cd44 O48 2.273 . S
Cd44 O52 2.277 . S
O45 C42 1.160 . S
O45 Cd46 2.203 . S
Cd46 O45 2.203 . S
Cd46 O48 2.411 . S
Cd46 O49 2.333 . S
Cd46 O50 2.352 . S
Cd46 O54 2.277 . S
Cd46 O55 2.356 . S
C47 O52 1.209 . S
C47 O54 1.226 . S
O48 Cd44 2.273 . S
O48 Cd46 2.411 . S
O48 C51 1.320 . S
O49 Cd46 2.333 . S
O49 C51 1.214 . S
O50 Cd46 2.352 . S
O50 C53 1.258 . S
C51 O48 1.320 . S
C51 O49 1.214 . S
O52 Cd44 2.277 . S
O52 C47 1.209 . S
C53 O50 1.258 . S
C53 O55 1.282 . S
O54 Cd46 2.277 . S
O54 C47 1.226 . S
O55 Cd46 2.356 . S
O55 C53 1.282 . S
C56 O57 1.306 . S
C56 O59 1.160 . S
O57 C56 1.306 . S
O57 Cd58 2.228 . S
Cd58 O57 2.228 . S
Cd58 O62 2.273 . S
Cd58 O66 2.277 . S
O59 C56 1.160 . S
O59 Cd60 2.203 . S
Cd60 O59 2.203 . S
Cd60 O62 2.411 . S
Cd60 O63 2.333 . S
Cd60 O64 2.352 . S
Cd60 O68 2.277 . S
Cd60 O69 2.356 . S
C61 O66 1.209 . S
C61 O68 1.226 . S
O62 Cd58 2.273 . S
O62 Cd60 2.411 . S
O62 C65 1.320 . S
O63 Cd60 2.333 . S
O63 C65 1.214 . S
O64 Cd60 2.352 . S
O64 C67 1.258 . S
C65 O62 1.320 . S
C65 O63 1.214 . S
O66 Cd58 2.277 . S
O66 C61 1.209 . S
C67 O64 1.258 . S
C67 O69 1.282 . S
O68 Cd60 2.277 . S
O68 C61 1.226 . S
O69 Cd60 2.356 . S
O69 C67 1.282 . S
C70 O71 1.306 . S
C70 O73 1.160 . S
O71 C70 1.306 . S
O71 Cd72 2.228 . S
Cd72 O71 2.228 . S
Cd72 O76 2.273 . S
Cd72 O80 2.277 . S
O73 C70 1.160 . S
O73 Cd74 2.203 . S
Cd74 O73 2.203 . S
Cd74 O76 2.411 . S
Cd74 O77 2.333 . S
Cd74 O78 2.352 . S
Cd74 O82 2.277 . S
Cd74 O83 2.356 . S
C75 O80 1.209 . S
C75 O82 1.226 . S
O76 Cd72 2.273 . S
O76 Cd74 2.411 . S
O76 C79 1.320 . S
O77 Cd74 2.333 . S
O77 C79 1.214 . S
O78 Cd74 2.352 . S
O78 C81 1.258 . S
C79 O76 1.320 . S
C79 O77 1.214 . S
O80 Cd72 2.277 . S
O80 C75 1.209 . S
C81 O78 1.258 . S
C81 O83 1.282 . S
O82 Cd74 2.277 . S
O82 C75 1.226 . S
O83 Cd74 2.356 . S
O83 C81 1.282 . S
C84 O85 1.306 . S
C84 O87 1.160 . S
O85 C84 1.306 . S
O85 Cd86 2.228 . S
Cd86 O85 2.228 . S
Cd86 O90 2.273 . S
Cd86 O94 2.277 . S
O87 C84 1.160 . S
O87 Cd88 2.203 . S
Cd88 O87 2.203 . S
Cd88 O90 2.411 . S
Cd88 O91 2.333 . S
Cd88 O92 2.352 . S
Cd88 O96 2.277 . S
Cd88 O97 2.356 . S
C89 O94 1.209 . S
C89 O96 1.226 . S
O90 Cd86 2.273 . S
O90 Cd88 2.411 . S
O90 C93 1.320 . S
O91 Cd88 2.333 . S
O91 C93 1.214 . S
O92 Cd88 2.352 . S
O92 C95 1.258 . S
C93 O90 1.320 . S
C93 O91 1.214 . S
O94 Cd86 2.277 . S
O94 C89 1.209 . S
C95 O92 1.258 . S
C95 O97 1.282 . S
O96 Cd88 2.277 . S
O96 C89 1.226 . S
O97 Cd88 2.356 . S
O97 C95 1.282 . S
C98 O99 1.306 . S
C98 O101 1.160 . S
O99 C98 1.306 . S
O99 Cd100 2.228 . S
Cd100 O99 2.228 . S
Cd100 O104 2.273 . S
Cd100 O108 2.277 . S
O101 C98 1.160 . S
O101 Cd102 2.203 . S
Cd102 O101 2.203 . S
Cd102 O104 2.411 . S
Cd102 O105 2.333 . S
Cd102 O106 2.352 . S
Cd102 O110 2.277 . S
Cd102 O111 2.356 . S
C103 O108 1.209 . S
C103 O110 1.226 . S
O104 Cd100 2.273 . S
O104 Cd102 2.411 . S
O104 C107 1.320 . S
O105 Cd102 2.333 . S
O105 C107 1.214 . S
O106 Cd102 2.352 . S
O106 C109 1.258 . S
C107 O104 1.320 . S
C107 O105 1.214 . S
O108 Cd100 2.277 . S
O108 C103 1.209 . S
C109 O106 1.258 . S
C109 O111 1.282 . S
O110 Cd102 2.277 . S
O110 C103 1.226 . S
O111 Cd102 2.356 . S
O111 C109 1.282 . S
C112 O113 1.306 . S
C112 O115 1.160 . S
O113 C112 1.306 . S
O113 Cd114 2.228 . S
Cd114 O113 2.228 . S
Cd114 O118 2.273 . S
Cd114 O122 2.277 . S
O115 C112 1.160 . S
O115 Cd116 2.203 . S
Cd116 O115 2.203 . S
Cd116 O118 2.411 . S
Cd116 O119 2.333 . S
Cd116 O120 2.352 . S
Cd116 O124 2.277 . S
Cd116 O125 2.356 . S
C117 O122 1.209 . S
C117 O124 1.226 . S
O118 Cd114 2.273 . S
O118 Cd116 2.411 . S
O118 C121 1.320 . S
O119 Cd116 2.333 . S
O119 C121 1.214 . S
O120 Cd116 2.352 . S
O120 C123 1.258 . S
C121 O118 1.320 . S
C121 O119 1.214 . S
O122 Cd114 2.277 . S
O122 C117 1.209 . S
C123 O120 1.258 . S
C123 O125 1.282 . S
O124 Cd116 2.277 . S
O124 C117 1.226 . S
O125 Cd116 2.356 . S
O125 C123 1.282 . S
C126 O127 1.306 . S
C126 O129 1.160 . S
O127 C126 1.306 . S
O127 Cd128 2.228 . S
Cd128 O127 2.228 . S
Cd128 O132 2.273 . S
Cd128 O136 2.277 . S
O129 C126 1.160 . S
O129 Cd130 2.203 . S
Cd130 O129 2.203 . S
Cd130 O132 2.411 . S
Cd130 O133 2.333 . S
Cd130 O134 2.352 . S
Cd130 O138 2.277 . S
Cd130 O139 2.356 . S
C131 O136 1.209 . S
C131 O138 1.226 . S
O132 Cd128 2.273 . S
O132 Cd130 2.411 . S
O132 C135 1.320 . S
O133 Cd130 2.333 . S
O133 C135 1.214 . S
O134 Cd130 2.352 . S
O134 C137 1.258 . S
C135 O132 1.320 . S
C135 O133 1.214 . S
O136 Cd128 2.277 . S
O136 C131 1.209 . S
C137 O134 1.258 . S
C137 O139 1.282 . S
O138 Cd130 2.277 . S
O138 C131 1.226 . S
O139 Cd130 2.356 . S
O139 C137 1.282 . S
C140 O141 1.306 . S
C140 O143 1.160 . S
O141 C140 1.306 . S
O141 Cd142 2.228 . S
Cd142 O141 2.228 . S
Cd142 O146 2.273 . S
Cd142 O150 2.277 . S
O143 C140 1.160 . S
O143 Cd144 2.203 . S
Cd144 O143 2.203 . S
Cd144 O146 2.411 . S
Cd144 O147 2.333 . S
Cd144 O148 2.352 . S
Cd144 O152 2.277 . S
Cd144 O153 2.356 . S
C145 O150 1.209 . S
C145 O152 1.226 . S
O146 Cd142 2.273 . S
O146 Cd144 2.411 . S
O146 C149 1.320 . S
O147 Cd144 2.333 . S
O147 C149 1.214 . S
O148 Cd144 2.352 . S
O148 C151 1.258 . S
C149 O146 1.320 . S
C149 O147 1.214 . S
O150 Cd142 2.277 . S
O150 C145 1.209 . S
C151 O148 1.258 . S
C151 O153 1.282 . S
O152 Cd144 2.277 . S
O152 C145 1.226 . S
O153 Cd144 2.356 . S
O153 C151 1.282 . S
C154 O155 1.306 . S
C154 O157 1.160 . S
O155 C154 1.306 . S
O155 Cd156 2.228 . S
Cd156 O155 2.228 . S
Cd156 O160 2.273 . S
Cd156 O164 2.277 . S
O157 C154 1.160 . S
O157 Cd158 2.203 . S
Cd158 O157 2.203 . S
Cd158 O160 2.411 . S
Cd158 O161 2.333 . S
Cd158 O162 2.352 . S
Cd158 O166 2.277 . S
Cd158 O167 2.356 . S
C159 O164 1.209 . S
C159 O166 1.226 . S
O160 Cd156 2.273 . S
O160 Cd158 2.411 . S
O160 C163 1.320 . S
O161 Cd158 2.333 . S
O161 C163 1.214 . S
O162 Cd158 2.352 . S
O162 C165 1.258 . S
C163 O160 1.320 . S
C163 O161 1.214 . S
O164 Cd156 2.277 . S
O164 C159 1.209 . S
C165 O162 1.258 . S
C165 O167 1.282 . S
O166 Cd158 2.277 . S
O166 C159 1.226 . S
O167 Cd158 2.356 . S
O167 C165 1.282 . S
C168 O169 1.306 . S
C168 O171 1.160 . S
O169 C168 1.306 . S
O169 Cd170 2.228 . S
Cd170 O169 2.228 . S
Cd170 O174 2.273 . S
Cd170 O178 2.277 . S
O171 C168 1.160 . S
O171 Cd172 2.203 . S
Cd172 O171 2.203 . S
Cd172 O174 2.411 . S
Cd172 O175 2.333 . S
Cd172 O176 2.352 . S
Cd172 O180 2.277 . S
Cd172 O181 2.356 . S
C173 O178 1.209 . S
C173 O180 1.226 . S
O174 Cd170 2.273 . S
O174 Cd172 2.411 . S
O174 C177 1.320 . S
O175 Cd172 2.333 . S
O175 C177 1.214 . S
O176 Cd172 2.352 . S
O176 C179 1.258 . S
C177 O174 1.320 . S
C177 O175 1.214 . S
O178 Cd170 2.277 . S
O178 C173 1.209 . S
C179 O176 1.258 . S
C179 O181 1.282 . S
O180 Cd172 2.277 . S
O180 C173 1.226 . S
O181 Cd172 2.356 . S
O181 C179 1.282 . S
C182 O183 1.306 . S
C182 O185 1.160 . S
O183 C182 1.306 . S
O183 Cd184 2.228 . S
Cd184 O183 2.228 . S
Cd184 O188 2.273 . S
Cd184 O192 2.277 . S
O185 C182 1.160 . S
O185 Cd186 2.203 . S
Cd186 O185 2.203 . S
Cd186 O188 2.411 . S
Cd186 O189 2.333 . S
Cd186 O190 2.352 . S
Cd186 O194 2.277 . S
Cd186 O195 2.356 . S
C187 O192 1.209 . S
C187 O194 1.226 . S
O188 Cd184 2.273 . S
O188 Cd186 2.411 . S
O188 C191 1.320 . S
O189 Cd186 2.333 . S
O189 C191 1.214 . S
O190 Cd186 2.352 . S
O190 C193 1.258 . S
C191 O188 1.320 . S
C191 O189 1.214 . S
O192 Cd184 2.277 . S
O192 C187 1.209 . S
C193 O190 1.258 . S
C193 O195 1.282 . S
O194 Cd186 2.277 . S
O194 C187 1.226 . S
O195 Cd186 2.356 . S
O195 C193 1.282 . S
C196 O197 1.306 . S
C196 O199 1.160 . S
O197 C196 1.306 . S
O197 Cd198 2.228 . S
Cd198 O197 2.228 . S
Cd198 O202 2.273 . S
Cd198 O206 2.277 . S
O199 C196 1.160 . S
O199 Cd200 2.203 . S
Cd200 O199 2.203 . S
Cd200 O202 2.411 . S
Cd200 O203 2.333 . S
Cd200 O204 2.352 . S
Cd200 O208 2.277 . S
Cd200 O209 2.356 . S
C201 O206 1.209 . S
C201 O208 1.226 . S
O202 Cd198 2.273 . S
O202 Cd200 2.411 . S
O202 C205 1.320 . S
O203 Cd200 2.333 . S
O203 C205 1.214 . S
O204 Cd200 2.352 . S
O204 C207 1.258 . S
C205 O202 1.320 . S
C205 O203 1.214 . S
O206 Cd198 2.277 . S
O206 C201 1.209 . S
C207 O204 1.258 . S
C207 O209 1.282 . S
O208 Cd200 2.277 . S
O208 C201 1.226 . S
O209 Cd200 2.356 . S
O209 C207 1.282 . S
C210 O211 1.306 . S
C210 O213 1.160 . S
O211 C210 1.306 . S
O211 Cd212 2.228 . S
Cd212 O211 2.228 . S
Cd212 O216 2.273 . S
Cd212 O220 2.277 . S
O213 C210 1.160 . S
O213 Cd214 2.203 . S
Cd214 O213 2.203 . S
Cd214 O216 2.411 . S
Cd214 O217 2.333 . S
Cd214 O218 2.352 . S
Cd214 O222 2.277 . S
Cd214 O223 2.356 . S
C215 O220 1.209 . S
C215 O222 1.226 . S
O216 Cd212 2.273 . S
O216 Cd214 2.411 . S
O216 C219 1.320 . S
O217 Cd214 2.333 . S
O217 C219 1.214 . S
O218 Cd214 2.352 . S
O218 C221 1.258 . S
C219 O216 1.320 . S
C219 O217 1.214 . S
O220 Cd212 2.277 . S
O220 C215 1.209 . S
C221 O218 1.258 . S
C221 O223 1.282 . S
O222 Cd214 2.277 . S
O222 C215 1.226 . S
O223 Cd214 2.356 . S
O223 C221 1.282 . S
C224 O225 1.306 . S
C224 O227 1.160 . S
O225 C224 1.306 . S
O225 Cd226 2.228 . S
Cd226 O225 2.228 . S
Cd226 O230 2.273 . S
Cd226 O234 2.277 . S
O227 C224 1.160 . S
O227 Cd228 2.203 . S
Cd228 O227 2.203 . S
Cd228 O230 2.411 . S
Cd228 O231 2.333 . S
Cd228 O232 2.352 . S
Cd228 O236 2.277 . S
Cd228 O237 2.356 . S
C229 O234 1.209 . S
C229 O236 1.226 . S
O230 Cd226 2.273 . S
O230 Cd228 2.411 . S
O230 C233 1.320 . S
O231 Cd228 2.333 . S
O231 C233 1.214 . S
O232 Cd228 2.352 . S
O232 C235 1.258 . S
C233 O230 1.320 . S
C233 O231 1.214 . S
O234 Cd226 2.277 . S
O234 C229 1.209 . S
C235 O232 1.258 . S
C235 O237 1.282 . S
O236 Cd228 2.277 . S
O236 C229 1.226 . S
O237 Cd228 2.356 . S
O237 C235 1.282 . S
C238 O239 1.306 . S
C238 O241 1.160 . S
O239 C238 1.306 . S
O239 Cd240 2.228 . S
Cd240 O239 2.228 . S
Cd240 O244 2.273 . S
Cd240 O248 2.277 . S
O241 C238 1.160 . S
O241 Cd242 2.203 . S
Cd242 O241 2.203 . S
Cd242 O244 2.411 . S
Cd242 O245 2.333 . S
Cd242 O246 2.352 . S
Cd242 O250 2.277 . S
Cd242 O251 2.356 . S
C243 O248 1.209 . S
C243 O250 1.226 . S
O244 Cd240 2.273 . S
O244 Cd242 2.411 . S
O244 C247 1.320 . S
O245 Cd242 2.333 . S
O245 C247 1.214 . S
O246 Cd242 2.352 . S
O246 C249 1.258 . S
C247 O244 1.320 . S
C247 O245 1.214 . S
O248 Cd240 2.277 . S
O248 C243 1.209 . S
C249 O246 1.258 . S
C249 O251 1.282 . S
O250 Cd242 2.277 . S
O250 C243 1.226 . S
O251 Cd242 2.356 . S
O251 C249 1.282 . S
C252 O253 1.306 . S
C252 O255 1.160 . S
O253 C252 1.306 . S
O253 Cd254 2.228 . S
Cd254 O253 2.228 . S
Cd254 O258 2.273 . S
Cd254 O262 2.277 . S
O255 C252 1.160 . S
O255 Cd256 2.203 . S
Cd256 O255 2.203 . S
Cd256 O258 2.411 . S
Cd256 O259 2.333 . S
Cd256 O260 2.352 . S
Cd256 O264 2.277 . S
Cd256 O265 2.356 . S
C257 O262 1.209 . S
C257 O264 1.226 . S
O258 Cd254 2.273 . S
O258 Cd256 2.411 . S
O258 C261 1.320 . S
O259 Cd256 2.333 . S
O259 C261 1.214 . S
O260 Cd256 2.352 . S
O260 C263 1.258 . S
C261 O258 1.320 . S
C261 O259 1.214 . S
O262 Cd254 2.277 . S
O262 C257 1.209 . S
C263 O260 1.258 . S
C263 O265 1.282 . S
O264 Cd256 2.277 . S
O264 C257 1.226 . S
O265 Cd256 2.356 . S
O265 C263 1.282 . S
C266 O267 1.306 . S
C266 O269 1.160 . S
O267 C266 1.306 . S
O267 Cd268 2.228 . S
Cd268 O267 2.228 . S
Cd268 O272 2.273 . S
Cd268 O276 2.277 . S
O269 C266 1.160 . S
O269 Cd270 2.203 . S
Cd270 O269 2.203 . S
Cd270 O272 2.411 . S
Cd270 O273 2.333 . S
Cd270 O274 2.352 . S
Cd270 O278 2.277 . S
Cd270 O279 2.356 . S
C271 O276 1.209 . S
C271 O278 1.226 . S
O272 Cd268 2.273 . S
O272 Cd270 2.411 . S
O272 C275 1.320 . S
O273 Cd270 2.333 . S
O273 C275 1.214 . S
O274 Cd270 2.352 . S
O274 C277 1.258 . S
C275 O272 1.320 . S
C275 O273 1.214 . S
O276 Cd268 2.277 . S
O276 C271 1.209 . S
C277 O274 1.258 . S
C277 O279 1.282 . S
O278 Cd270 2.277 . S
O278 C271 1.226 . S
O279 Cd270 2.356 . S
O279 C277 1.282 . S
C280 O281 1.306 . S
C280 O283 1.160 . S
O281 C280 1.306 . S
O281 Cd282 2.228 . S
Cd282 O281 2.228 . S
Cd282 O286 2.273 . S
Cd282 O290 2.277 . S
O283 C280 1.160 . S
O283 Cd284 2.203 . S
Cd284 O283 2.203 . S
Cd284 O286 2.411 . S
Cd284 O287 2.333 . S
Cd284 O288 2.352 . S
Cd284 O292 2.277 . S
Cd284 O293 2.356 . S
C285 O290 1.209 . S
C285 O292 1.226 . S
O286 Cd282 2.273 . S
O286 Cd284 2.411 . S
O286 C289 1.320 . S
O287 Cd284 2.333 . S
O287 C289 1.214 . S
O288 Cd284 2.352 . S
O288 C291 1.258 . S
C289 O286 1.320 . S
C289 O287 1.214 . S
O290 Cd282 2.277 . S
O290 C285 1.209 . S
C291 O288 1.258 . S
C291 O293 1.282 . S
O292 Cd284 2.277 . S
O292 C285 1.226 . S
O293 Cd284 2.356 . S
O293 C291 1.282 . S
C294 O295 1.306 . S
C294 O297 1.160 . S
O295 C294 1.306 . S
O295 Cd296 2.228 . S
Cd296 O295 2.228 . S
Cd296 O300 2.273 . S
Cd296 O304 2.277 . S
O297 C294 1.160 . S
O297 Cd298 2.203 . S
Cd298 O297 2.203 . S
Cd298 O300 2.411 . S
Cd298 O301 2.333 . S
Cd298 O302 2.352 . S
Cd298 O306 2.277 . S
Cd298 O307 2.356 . S
C299 O304 1.209 . S
C299 O306 1.226 . S
O300 Cd296 2.273 . S
O300 Cd298 2.411 . S
O300 C303 1.320 . S
O301 Cd298 2.333 . S
O301 C303 1.214 . S
O302 Cd298 2.352 . S
O302 C305 1.258 . S
C303 O300 1.320 . S
C303 O301 1.214 . S
O304 Cd296 2.277 . S
O304 C299 1.209 . S
C305 O302 1.258 . S
C305 O307 1.282 . S
O306 Cd298 2.277 . S
O306 C299 1.226 . S
O307 Cd298 2.356 . S
O307 C305 1.282 . S
C308 O309 1.306 . S
C308 O311 1.160 . S
O309 C308 1.306 . S
O309 Cd310 2.228 . S
Cd310 O309 2.228 . S
Cd310 O314 2.273 . S
Cd310 O318 2.277 . S
O311 C308 1.160 . S
O311 Cd312 2.203 . S
Cd312 O311 2.203 . S
Cd312 O314 2.411 . S
Cd312 O315 2.333 . S
Cd312 O316 2.352 . S
Cd312 O320 2.277 . S
Cd312 O321 2.356 . S
C313 O318 1.209 . S
C313 O320 1.226 . S
O314 Cd310 2.273 . S
O314 Cd312 2.411 . S
O314 C317 1.320 . S
O315 Cd312 2.333 . S
O315 C317 1.214 . S
O316 Cd312 2.352 . S
O316 C319 1.258 . S
C317 O314 1.320 . S
C317 O315 1.214 . S
O318 Cd310 2.277 . S
O318 C313 1.209 . S
C319 O316 1.258 . S
C319 O321 1.282 . S
O320 Cd312 2.277 . S
O320 C313 1.226 . S
O321 Cd312 2.356 . S
O321 C319 1.282 . S
C322 O323 1.306 . S
C322 O325 1.160 . S
O323 C322 1.306 . S
O323 Cd324 2.228 . S
Cd324 O323 2.228 . S
Cd324 O328 2.273 . S
Cd324 O332 2.277 . S
O325 C322 1.160 . S
O325 Cd326 2.203 . S
Cd326 O325 2.203 . S
Cd326 O328 2.411 . S
Cd326 O329 2.333 . S
Cd326 O330 2.352 . S
Cd326 O334 2.277 . S
Cd326 O335 2.356 . S
C327 O332 1.209 . S
C327 O334 1.226 . S
O328 Cd324 2.273 . S
O328 Cd326 2.411 . S
O328 C331 1.320 . S
O329 Cd326 2.333 . S
O329 C331 1.214 . S
O330 Cd326 2.352 . S
O330 C333 1.258 . S
C331 O328 1.320 . S
C331 O329 1.214 . S
O332 Cd324 2.277 . S
O332 C327 1.209 . S
C333 O330 1.258 . S
C333 O335 1.282 . S
O334 Cd326 2.277 . S
O334 C327 1.226 . S
O335 Cd326 2.356 . S
O335 C333 1.282 . S
C336 O337 1.306 . S
C336 O339 1.160 . S
O337 C336 1.306 . S
O337 Cd338 2.228 . S
Cd338 O337 2.228 . S
Cd338 O342 2.273 . S
Cd338 O346 2.277 . S
O339 C336 1.160 . S
O339 Cd340 2.203 . S
Cd340 O339 2.203 . S
Cd340 O342 2.411 . S
Cd340 O343 2.333 . S
Cd340 O344 2.352 . S
Cd340 O348 2.277 . S
Cd340 O349 2.356 . S
C341 O346 1.209 . S
C341 O348 1.226 . S
O342 Cd338 2.273 . S
O342 Cd340 2.411 . S
O342 C345 1.320 . S
O343 Cd340 2.333 . S
O343 C345 1.214 . S
O344 Cd340 2.352 . S
O344 C347 1.258 . S
C345 O342 1.320 . S
C345 O343 1.214 . S
O346 Cd338 2.277 . S
O346 C341 1.209 . S
C347 O344 1.258 . S
C347 O349 1.282 . S
O348 Cd340 2.277 . S
O348 C341 1.226 . S
O349 Cd340 2.356 . S
O349 C347 1.282 . S
C350 O351 1.306 . S
C350 O353 1.160 . S
O351 C350 1.306 . S
O351 Cd352 2.228 . S
Cd352 O351 2.228 . S
Cd352 O356 2.273 . S
Cd352 O360 2.277 . S
O353 C350 1.160 . S
O353 Cd354 2.203 . S
Cd354 O353 2.203 . S
Cd354 O356 2.411 . S
Cd354 O357 2.333 . S
Cd354 O358 2.352 . S
Cd354 O362 2.277 . S
Cd354 O363 2.356 . S
C355 O360 1.209 . S
C355 O362 1.226 . S
O356 Cd352 2.273 . S
O356 Cd354 2.411 . S
O356 C359 1.320 . S
O357 Cd354 2.333 . S
O357 C359 1.214 . S
O358 Cd354 2.352 . S
O358 C361 1.258 . S
C359 O356 1.320 . S
C359 O357 1.214 . S
O360 Cd352 2.277 . S
O360 C355 1.209 . S
C361 O358 1.258 . S
C361 O363 1.282 . S
O362 Cd354 2.277 . S
O362 C355 1.226 . S
O363 Cd354 2.356 . S
O363 C361 1.282 . S
C364 O365 1.306 . S
C364 O367 1.160 . S
O365 C364 1.306 . S
O365 Cd366 2.228 . S
Cd366 O365 2.228 . S
Cd366 O370 2.273 . S
Cd366 O374 2.277 . S
O367 C364 1.160 . S
O367 Cd368 2.203 . S
Cd368 O367 2.203 . S
Cd368 O370 2.411 . S
Cd368 O371 2.333 . S
Cd368 O372 2.352 . S
Cd368 O376 2.277 . S
Cd368 O377 2.356 . S
C369 O374 1.209 . S
C369 O376 1.226 . S
O370 Cd366 2.273 . S
O370 Cd368 2.411 . S
O370 C373 1.320 . S
O371 Cd368 2.333 . S
O371 C373 1.214 . S
O372 Cd368 2.352 . S
O372 C375 1.258 . S
C373 O370 1.320 . S
C373 O371 1.214 . S
O374 Cd366 2.277 . S
O374 C369 1.209 . S
C375 O372 1.258 . S
C375 O377 1.282 . S
O376 Cd368 2.277 . S
O376 C369 1.226 . S
O377 Cd368 2.356 . S
O377 C375 1.282 . S
C378 O379 1.306 . S
C378 O381 1.160 . S
O379 C378 1.306 . S
O379 Cd380 2.228 . S
Cd380 O379 2.228 . S
Cd380 O384 2.273 . S
Cd380 O388 2.277 . S
O381 C378 1.160 . S
O381 Cd382 2.203 . S
Cd382 O381 2.203 . S
Cd382 O384 2.411 . S
Cd382 O385 2.333 . S
Cd382 O386 2.352 . S
Cd382 O390 2.277 . S
Cd382 O391 2.356 . S
C383 O388 1.209 . S
C383 O390 1.226 . S
O384 Cd380 2.273 . S
O384 Cd382 2.411 . S
O384 C387 1.320 . S
O385 Cd382 2.333 . S
O385 C387 1.214 . S
O386 Cd382 2.352 . S
O386 C389 1.258 . S
C387 O384 1.320 . S
C387 O385 1.214 . S
O388 Cd380 2.277 . S
O388 C383 1.209 . S
C389 O386 1.258 . S
C389 O391 1.282 . S
O390 Cd382 2.277 . S
O390 C383 1.226 . S
O391 Cd382 2.356 . S
O391 C389 1.282 . S
C392 O393 1.306 . S
C392 O395 1.160 . S
O393 C392 1.306 . S
O393 Cd394 2.228 . S
Cd394 O393 2.228 . S
Cd394 O398 2.273 . S
Cd394 O402 2.277 . S
O395 C392 1.160 . S
O395 Cd396 2.203 . S
Cd396 O395 2.203 . S
Cd396 O398 2.411 . S
Cd396 O399 2.333 . S
Cd396 O400 2.352 . S
Cd396 O404 2.277 . S
Cd396 O405 2.356 . S
C397 O402 1.209 . S
C397 O404 1.226 . S
O398 Cd394 2.273 . S
O398 Cd396 2.411 . S
O398 C401 1.320 . S
O399 Cd396 2.333 . S
O399 C401 1.214 . S
O400 Cd396 2.352 . S
O400 C403 1.258 . S
C401 O398 1.320 . S
C401 O399 1.214 . S
O402 Cd394 2.277 . S
O402 C397 1.209 . S
C403 O400 1.258 . S
C403 O405 1.282 . S
O404 Cd396 2.277 . S
O404 C397 1.226 . S
O405 Cd396 2.356 . S
O405 C403 1.282 . S
C406 O407 1.306 . S
C406 O409 1.160 . S
O407 C406 1.306 . S
O407 Cd408 2.228 . S
Cd408 O407 2.228 . S
Cd408 O412 2.273 . S
Cd408 O416 2.277 . S
O409 C406 1.160 . S
O409 Cd410 2.203 . S
Cd410 O409 2.203 . S
Cd410 O412 2.411 . S
Cd410 O413 2.333 . S
Cd410 O414 2.352 . S
Cd410 O418 2.277 . S
Cd410 O419 2.356 . S
C411 O416 1.209 . S
C411 O418 1.226 . S
O412 Cd408 2.273 . S
O412 Cd410 2.411 . S
O412 C415 1.320 . S
O413 Cd410 2.333 . S
O413 C415 1.214 . S
O414 Cd410 2.352 . S
O414 C417 1.258 . S
C415 O412 1.320 . S
C415 O413 1.214 . S
O416 Cd408 2.277 . S
O416 C411 1.209 . S
C417 O414 1.258 . S
C417 O419 1.282 . S
O418 Cd410 2.277 . S
O418 C411 1.226 . S
O419 Cd410 2.356 . S
O419 C417 1.282 . S
C420 O421 1.306 . S
C420 O423 1.160 . S
O421 C420 1.306 . S
O421 Cd422 2.228 . S
Cd422 O421 2.228 . S
Cd422 O426 2.273 . S
Cd422 O430 2.277 . S
O423 C420 1.160 . S
O423 Cd424 2.203 . S
Cd424 O423 2.203 . S
Cd424 O426 2.411 . S
Cd424 O427 2.333 . S
Cd424 O428 2.352 . S
Cd424 O432 2.277 . S
Cd424 O433 2.356 . S
C425 O430 1.209 . S
C425 O432 1.226 . S
O426 Cd422 2.273 . S
O426 Cd424 2.411 . S
O426 C429 1.320 . S
O427 Cd424 2.333 . S
O427 C429 1.214 . S
O428 Cd424 2.352 . S
O428 C431 1.258 . S
C429 O426 1.320 . S
C429 O427 1.214 . S
O430 Cd422 2.277 . S
O430 C425 1.209 . S
C431 O428 1.258 . S
C431 O433 1.282 . S
O432 Cd424 2.277 . S
O432 C425 1.226 . S
O433 Cd424 2.356 . S
O433 C431 1.282 . S
C434 O435 1.306 . S
C434 O437 1.160 . S
O435 C434 1.306 . S
O435 Cd436 2.228 . S
Cd436 O435 2.228 . S
Cd436 O440 2.273 . S
Cd436 O444 2.277 . S
O437 C434 1.160 . S
O437 Cd438 2.203 . S
Cd438 O437 2.203 . S
Cd438 O440 2.411 . S
Cd438 O441 2.333 . S
Cd438 O442 2.352 . S
Cd438 O446 2.277 . S
Cd438 O447 2.356 . S
C439 O444 1.209 . S
C439 O446 1.226 . S
O440 Cd436 2.273 . S
O440 Cd438 2.411 . S
O440 C443 1.320 . S
O441 Cd438 2.333 . S
O441 C443 1.214 . S
O442 Cd438 2.352 . S
O442 C445 1.258 . S
C443 O440 1.320 . S
C443 O441 1.214 . S
O444 Cd436 2.277 . S
O444 C439 1.209 . S
C445 O442 1.258 . S
C445 O447 1.282 . S
O446 Cd438 2.277 . S
O446 C439 1.226 . S
O447 Cd438 2.356 . S
O447 C445 1.282 . S
C448 O449 1.306 . S
C448 O451 1.160 . S
O449 C448 1.306 . S
O449 Cd450 2.228 . S
Cd450 O449 2.228 . S
Cd450 O454 2.273 . S
Cd450 O458 2.277 . S
O451 C448 1.160 . S
O451 Cd452 2.203 . S
Cd452 O451 2.203 . S
Cd452 O454 2.411 . S
Cd452 O455 2.333 . S
Cd452 O456 2.352 . S
Cd452 O460 2.277 . S
Cd452 O461 2.356 . S
C453 O458 1.209 . S
C453 O460 1.226 . S
O454 Cd450 2.273 . S
O454 Cd452 2.411 . S
O454 C457 1.320 . S
O455 Cd452 2.333 . S
O455 C457 1.214 . S
O456 Cd452 2.352 . S
O456 C459 1.258 . S
C457 O454 1.320 . S
C457 O455 1.214 . S
O458 Cd450 2.277 . S
O458 C453 1.209 . S
C459 O456 1.258 . S
C459 O461 1.282 . S
O460 Cd452 2.277 . S
O460 C453 1.226 . S
O461 Cd452 2.356 . S
O461 C459 1.282 . S
C462 O463 1.306 . S
C462 O465 1.160 . S
O463 C462 1.306 . S
O463 Cd464 2.228 . S
Cd464 O463 2.228 . S
Cd464 O468 2.273 . S
Cd464 O472 2.277 . S
O465 C462 1.160 . S
O465 Cd466 2.203 . S
Cd466 O465 2.203 . S
Cd466 O468 2.411 . S
Cd466 O469 2.333 . S
Cd466 O470 2.352 . S
Cd466 O474 2.277 . S
Cd466 O475 2.356 . S
C467 O472 1.209 . S
C467 O474 1.226 . S
O468 Cd464 2.273 . S
O468 Cd466 2.411 . S
O468 C471 1.320 . S
O469 Cd466 2.333 . S
O469 C471 1.214 . S
O470 Cd466 2.352 . S
O470 C473 1.258 . S
C471 O468 1.320 . S
C471 O469 1.214 . S
O472 Cd464 2.277 . S
O472 C467 1.209 . S
C473 O470 1.258 . S
C473 O475 1.282 . S
O474 Cd466 2.277 . S
O474 C467 1.226 . S
O475 Cd466 2.356 . S
O475 C473 1.282 . S
C476 O477 1.306 . S
C476 O479 1.160 . S
O477 C476 1.306 . S
O477 Cd478 2.228 . S
Cd478 O477 2.228 . S
Cd478 O482 2.273 . S
Cd478 O486 2.277 . S
O479 C476 1.160 . S
O479 Cd480 2.203 . S
Cd480 O479 2.203 . S
Cd480 O482 2.411 . S
Cd480 O483 2.333 . S
Cd480 O484 2.352 . S
Cd480 O488 2.277 . S
Cd480 O489 2.356 . S
C481 O486 1.209 . S
C481 O488 1.226 . S
O482 Cd478 2.273 . S
O482 Cd480 2.411 . S
O482 C485 1.320 . S
O483 Cd480 2.333 . S
O483 C485 1.214 . S
O484 Cd480 2.352 . S
O484 C487 1.258 . S
C485 O482 1.320 . S
C485 O483 1.214 . S
O486 Cd478 2.277 . S
O486 C481 1.209 . S
C487 O484 1.258 . S
C487 O489 1.282 . S
O488 Cd480 2.277 . S
O488 C481 1.226 . S
O489 Cd480 2.356 . S
O489 C487 1.282 . S
C490 O491 1.306 . S
C490 O493 1.160 . S
O491 C490 1.306 . S
O491 Cd492 2.228 . S
Cd492 O491 2.228 . S
Cd492 O496 2.273 . S
Cd492 O500 2.277 . S
O493 C490 1.160 . S
O493 Cd494 2.203 . S
Cd494 O493 2.203 . S
Cd494 O496 2.411 . S
Cd494 O497 2.333 . S
Cd494 O498 2.352 . S
Cd494 O502 2.277 . S
Cd494 O503 2.356 . S
C495 O500 1.209 . S
C495 O502 1.226 . S
O496 Cd492 2.273 . S
O496 Cd494 2.411 . S
O496 C499 1.320 . S
O497 Cd494 2.333 . S
O497 C499 1.214 . S
O498 Cd494 2.352 . S
O498 C501 1.258 . S
C499 O496 1.320 . S
C499 O497 1.214 . S
O500 Cd492 2.277 . S
O500 C495 1.209 . S
C501 O498 1.258 . S
C501 O503 1.282 . S
O502 Cd494 2.277 . S
O502 C495 1.226 . S
O503 Cd494 2.356 . S
O503 C501 1.282 . S
C504 O505 1.306 . S
C504 O507 1.160 . S
O505 C504 1.306 . S
O505 Cd506 2.228 . S
Cd506 O505 2.228 . S
Cd506 O510 2.273 . S
Cd506 O514 2.277 . S
O507 C504 1.160 . S
O507 Cd508 2.203 . S
Cd508 O507 2.203 . S
Cd508 O510 2.411 . S
Cd508 O511 2.333 . S
Cd508 O512 2.352 . S
Cd508 O516 2.277 . S
Cd508 O517 2.356 . S
C509 O514 1.209 . S
C509 O516 1.226 . S
O510 Cd506 2.273 . S
O510 Cd508 2.411 . S
O510 C513 1.320 . S
O511 Cd508 2.333 . S
O511 C513 1.214 . S
O512 Cd508 2.352 . S
O512 C515 1.258 . S
C513 O510 1.320 . S
C513 O511 1.214 . S
O514 Cd506 2.277 . S
O514 C509 1.209 . S
C515 O512 1.258 . S
C515 O517 1.282 . S
O516 Cd508 2.277 . S
O516 C509 1.226 . S
O517 Cd508 2.356 . S
O517 C515 1.282 . S
C518 O519 1.306 . S
C518 O521 1.160 . S
O519 C518 1.306 . S
O519 Cd520 2.228 . S
Cd520 O519 2.228 . S
Cd520 O524 2.273 . S
Cd520 O528 2.277 . S
O521 C518 1.160 . S
O521 Cd522 2.203 . S
Cd522 O521 2.203 . S
Cd522 O524 2.411 . S
Cd522 O525 2.333 . S
Cd522 O526 2.352 . S
Cd522 O530 2.277 . S
Cd522 O531 2.356 . S
C523 O528 1.209 . S
C523 O530 1.226 . S
O524 Cd520 2.273 . S
O524 Cd522 2.411 . S
O524 C527 1.320 . S
O525 Cd522 2.333 . S
O525 C527 1.214 . S
O526 Cd522 2.352 . S
O526 C529 1.258 . S
C527 O524 1.320 . S
C527 O525 1.214 . S
O528 Cd520 2.277 . S
O528 C523 1.209 . S
C529 O526 1.258 . S
C529 O531 1.282 . S
O530 Cd522 2.277 . S
O530 C523 1.226 . S
O531 Cd522 2.356 . S
O531 C529 1.282 . S
C532 O533 1.306 . S
C532 O535 1.160 . S
O533 C532 1.306 . S
O533 Cd534 2.228 . S
Cd534 O533 2.228 . S
Cd534 O538 2.273 . S
Cd534 O542 2.277 . S
O535 C532 1.160 . S
O535 Cd536 2.203 . S
Cd536 O535 2.203 . S
Cd536 O538 2.411 . S
Cd536 O539 2.333 . S
Cd536 O540 2.352 . S
Cd536 O544 2.277 . S
Cd536 O545 2.356 . S
C537 O542 1.209 . S
C537 O544 1.226 . S
O538 Cd534 2.273 . S
O538 Cd536 2.411 . S
O538 C541 1.320 . S
O539 Cd536 2.333 . S
O539 C541 1.214 . S
O540 Cd536 2.352 . S
O540 C543 1.258 . S
C541 O538 1.320 . S
C541 O539 1.214 . S
O542 Cd534 2.277 . S
O542 C537 1.209 . S
C543 O540 1.258 . S
C543 O545 1.282 . S
O544 Cd536 2.277 . S
O544 C537 1.226 . S
O545 Cd536 2.356 . S
O545 C543 1.282 . S
C546 O547 1.306 . S
C546 O549 1.160 . S
O547 C546 1.306 . S
O547 Cd548 2.228 . S
Cd548 O547 2.228 . S
Cd548 O552 2.273 . S
Cd548 O556 2.277 . S
O549 C546 1.160 . S
O549 Cd550 2.203 . S
Cd550 O549 2.203 . S
Cd550 O552 2.411 . S
Cd550 O553 2.333 . S
Cd550 O554 2.352 . S
Cd550 O558 2.277 . S
Cd550 O559 2.356 . S
C551 O556 1.209 . S
C551 O558 1.226 . S
O552 Cd548 2.273 . S
O552 Cd550 2.411 . S
O552 C555 1.320 . S
O553 Cd550 2.333 . S
O553 C555 1.214 . S
O554 Cd550 2.352 . S
O554 C557 1.258 . S
C555 O552 1.320 . S
C555 O553 1.214 . S
O556 Cd548 2.277 . S
O556 C551 1.209 . S
C557 O554 1.258 . S
C557 O559 1.282 . S
O558 Cd550 2.277 . S
O558 C551 1.226 . S
O559 Cd550 2.356 . S
O559 C557 1.282 . S
C560 O561 1.306 . S
C560 O563 1.160 . S
O561 C560 1.306 . S
O561 Cd562 2.228 . S
Cd562 O561 2.228 . S
Cd562 O566 2.273 . S
Cd562 O570 2.277 . S
O563 C560 1.160 . S
O563 Cd564 2.203 . S
Cd564 O563 2.203 . S
Cd564 O566 2.411 . S
Cd564 O567 2.333 . S
Cd564 O568 2.352 . S
Cd564 O572 2.277 . S
Cd564 O573 2.356 . S
C565 O570 1.209 . S
C565 O572 1.226 . S
O566 Cd562 2.273 . S
O566 Cd564 2.411 . S
O566 C569 1.320 . S
O567 Cd564 2.333 . S
O567 C569 1.214 . S
O568 Cd564 2.352 . S
O568 C571 1.258 . S
C569 O566 1.320 . S
C569 O567 1.214 . S
O570 Cd562 2.277 . S
O570 C565 1.209 . S
C571 O568 1.258 . S
C571 O573 1.282 . S
O572 Cd564 2.277 . S
O572 C565 1.226 . S
O573 Cd564 2.356 . S
O573 C571 1.282 . S
C574 O575 1.306 . S
C574 O577 1.160 . S
O575 C574 1.306 . S
O575 Cd576 2.228 . S
Cd576 O575 2.228 . S
Cd576 O580 2.273 . S
Cd576 O584 2.277 . S
O577 C574 1.160 . S
O577 Cd578 2.203 . S
Cd578 O577 2.203 . S
Cd578 O580 2.411 . S
Cd578 O581 2.333 . S
Cd578 O582 2.352 . S
Cd578 O586 2.277 . S
Cd578 O587 2.356 . S
C579 O584 1.209 . S
C579 O586 1.226 . S
O580 Cd576 2.273 . S
O580 Cd578 2.411 . S
O580 C583 1.320 . S
O581 Cd578 2.333 . S
O581 C583 1.214 . S
O582 Cd578 2.352 . S
O582 C585 1.258 . S
C583 O580 1.320 . S
C583 O581 1.214 . S
O584 Cd576 2.277 . S
O584 C579 1.209 . S
C585 O582 1.258 . S
C585 O587 1.282 . S
O586 Cd578 2.277 . S
O586 C579 1.226 . S
O587 Cd578 2.356 . S
O587 C585 1.282 . S
C588 O589 1.306 . S
C588 O591 1.160 . S
O589 C588 1.306 . S
O589 Cd590 2.228 . S
Cd590 O589 2.228 . S
Cd590 O594 2.273 . S
Cd590 O598 2.277 . S
O591 C588 1.160 . S
O591 Cd592 2.203 . S
Cd592 O591 2.203 . S
Cd592 O594 2.411 . S
Cd592 O595 2.333 . S
Cd592 O596 2.352 . S
Cd592 O600 2.277 . S
Cd592 O601 2.356 . S
C593 O598 1.209 . S
C593 O600 1.226 . S
O594 Cd590 2.273 . S
O594 Cd592 2.411 . S
O594 C597 1.320 . S
O595 Cd592 2.333 . S
O595 C597 1.214 . S
O596 Cd592 2.352 . S
O596 C599 1.258 . S
C597 O594 1.320 . S
C597 O595 1.214 . S
O598 Cd590 2.277 . S
O598 C593 1.209 . S
C599 O596 1.258 . S
C599 O601 1.282 . S
O600 Cd592 2.277 . S
O600 C593 1.226 . S
O601 Cd592 2.356 . S
O601 C599 1.282 . S
C602 O603 1.306 . S
C602 O605 1.160 . S
O603 C602 1.306 . S
O603 Cd604 2.228 . S
Cd604 O603 2.228 . S
Cd604 O608 2.273 . S
Cd604 O612 2.277 . S
O605 C602 1.160 . S
O605 Cd606 2.203 . S
Cd606 O605 2.203 . S
Cd606 O608 2.411 . S
Cd606 O609 2.333 . S
Cd606 O610 2.352 . S
Cd606 O614 2.277 . S
Cd606 O615 2.356 . S
C607 O612 1.209 . S
C607 O614 1.226 . S
O608 Cd604 2.273 . S
O608 Cd606 2.411 . S
O608 C611 1.320 . S
O609 Cd606 2.333 . S
O609 C611 1.214 . S
O610 Cd606 2.352 . S
O610 C613 1.258 . S
C611 O608 1.320 . S
C611 O609 1.214 . S
O612 Cd604 2.277 . S
O612 C607 1.209 . S
C613 O610 1.258 . S
C613 O615 1.282 . S
O614 Cd606 2.277 . S
O614 C607 1.226 . S
O615 Cd606 2.356 . S
O615 C613 1.282 . S
C616 O617 1.306 . S
C616 O619 1.160 . S
O617 C616 1.306 . S
O617 Cd618 2.228 . S
Cd618 O617 2.228 . S
Cd618 O622 2.273 . S
Cd618 O626 2.277 . S
O619 C616 1.160 . S
O619 Cd620 2.203 . S
Cd620 O619 2.203 . S
Cd620 O622 2.411 . S
Cd620 O623 2.333 . S
Cd620 O624 2.352 . S
Cd620 O628 2.277 . S
Cd620 O629 2.356 . S
C621 O626 1.209 . S
C621 O628 1.226 . S
O622 Cd618 2.273 . S
O622 Cd620 2.411 . S
O622 C625 1.320 . S
O623 Cd620 2.333 . S
O623 C625 1.214 . S
O624 Cd620 2.352 . S
O624 C627 1.258 . S
C625 O622 1.320 . S
C625 O623 1.214 . S
O626 Cd618 2.277 . S
O626 C621 1.209 . S
C627 O624 1.258 . S
C627 O629 1.282 . S
O628 Cd620 2.277 . S
O628 C621 1.226 . S
O629 Cd620 2.356 . S
O629 C627 1.282 . S
C630 O631 1.306 . S
C630 O633 1.160 . S
O631 C630 1.306 . S
O631 Cd632 2.228 . S
Cd632 O631 2.228 . S
Cd632 O636 2.273 . S
Cd632 O640 2.277 . S
O633 C630 1.160 . S
O633 Cd634 2.203 . S
Cd634 O633 2.203 . S
Cd634 O636 2.411 . S
Cd634 O637 2.333 . S
Cd634 O638 2.352 . S
Cd634 O642 2.277 . S
Cd634 O643 2.356 . S
C635 O640 1.209 . S
C635 O642 1.226 . S
O636 Cd632 2.273 . S
O636 Cd634 2.411 . S
O636 C639 1.320 . S
O637 Cd634 2.333 . S
O637 C639 1.214 . S
O638 Cd634 2.352 . S
O638 C641 1.258 . S
C639 O636 1.320 . S
C639 O637 1.214 . S
O640 Cd632 2.277 . S
O640 C635 1.209 . S
C641 O638 1.258 . S
C641 O643 1.282 . S
O642 Cd634 2.277 . S
O642 C635 1.226 . S
O643 Cd634 2.356 . S
O643 C641 1.282 . S
C644 O645 1.306 . S
C644 O647 1.160 . S
O645 C644 1.306 . S
O645 Cd646 2.228 . S
Cd646 O645 2.228 . S
Cd646 O650 2.273 . S
Cd646 O654 2.277 . S
O647 C644 1.160 . S
O647 Cd648 2.203 . S
Cd648 O647 2.203 . S
Cd648 O650 2.411 . S
Cd648 O651 2.333 . S
Cd648 O652 2.352 . S
Cd648 O656 2.277 . S
Cd648 O657 2.356 . S
C649 O654 1.209 . S
C649 O656 1.226 . S
O650 Cd646 2.273 . S
O650 Cd648 2.411 . S
O650 C653 1.320 . S
O651 Cd648 2.333 . S
O651 C653 1.214 . S
O652 Cd648 2.352 . S
O652 C655 1.258 . S
C653 O650 1.320 . S
C653 O651 1.214 . S
O654 Cd646 2.277 . S
O654 C649 1.209 . S
C655 O652 1.258 . S
C655 O657 1.282 . S
O656 Cd648 2.277 . S
O656 C649 1.226 . S
O657 Cd648 2.356 . S
O657 C655 1.282 . S
C658 O659 1.306 . S
C658 O661 1.160 . S
O659 C658 1.306 . S
O659 Cd660 2.228 . S
Cd660 O659 2.228 . S
Cd660 O664 2.273 . S
Cd660 O668 2.277 . S
O661 C658 1.160 . S
O661 Cd662 2.203 . S
Cd662 O661 2.203 . S
Cd662 O664 2.411 . S
Cd662 O665 2.333 . S
Cd662 O666 2.352 . S
Cd662 O670 2.277 . S
Cd662 O671 2.356 . S
C663 O668 1.209 . S
C663 O670 1.226 . S
O664 Cd660 2.273 . S
O664 Cd662 2.411 . S
O664 C667 1.320 . S
O665 Cd662 2.333 . S
O665 C667 1.214 . S
O666 Cd662 2.352 . S
O666 C669 1.258 . S
C667 O664 1.320 . S
C667 O665 1.214 . S
O668 Cd660 2.277 . S
O668 C663 1.209 . S
C669 O666 1.258 . S
C669 O671 1.282 . S
O670 Cd662 2.277 . S
O670 C663 1.226 . S
O671 Cd662 2.356 . S
O671 C669 1.282 . S
C672 O673 1.306 . S
C672 O675 1.160 . S
O673 C672 1.306 . S
O673 Cd674 2.228 . S
Cd674 O673 2.228 . S
Cd674 O678 2.273 . S
Cd674 O682 2.277 . S
O675 C672 1.160 . S
O675 Cd676 2.203 . S
Cd676 O675 2.203 . S
Cd676 O678 2.411 . S
Cd676 O679 2.333 . S
Cd676 O680 2.352 . S
Cd676 O684 2.277 . S
Cd676 O685 2.356 . S
C677 O682 1.209 . S
C677 O684 1.226 . S
O678 Cd674 2.273 . S
O678 Cd676 2.411 . S
O678 C681 1.320 . S
O679 Cd676 2.333 . S
O679 C681 1.214 . S
O680 Cd676 2.352 . S
O680 C683 1.258 . S
C681 O678 1.320 . S
C681 O679 1.214 . S
O682 Cd674 2.277 . S
O682 C677 1.209 . S
C683 O680 1.258 . S
C683 O685 1.282 . S
O684 Cd676 2.277 . S
O684 C677 1.226 . S
O685 Cd676 2.356 . S
O685 C683 1.282 . S
C686 O687 1.306 . S
C686 O689 1.160 . S
O687 C686 1.306 . S
O687 Cd688 2.228 . S
Cd688 O687 2.228 . S
Cd688 O692 2.273 . S
Cd688 O696 2.277 . S
O689 C686 1.160 . S
O689 Cd690 2.203 . S
Cd690 O689 2.203 . S
Cd690 O692 2.411 . S
Cd690 O693 2.333 . S
Cd690 O694 2.352 . S
Cd690 O698 2.277 . S
Cd690 O699 2.356 . S
C691 O696 1.209 . S
C691 O698 1.226 . S
O692 Cd688 2.273 . S
O692 Cd690 2.411 . S
O692 C695 1.320 . S
O693 Cd690 2.333 . S
O693 C695 1.214 . S
O694 Cd690 2.352 . S
O694 C697 1.258 . S
C695 O692 1.320 . S
C695 O693 1.214 . S
O696 Cd688 2.277 . S
O696 C691 1.209 . S
C697 O694 1.258 . S
C697 O699 1.282 . S
O698 Cd690 2.277 . S
O698 C691 1.226 . S
O699 Cd690 2.356 . S
O699 C697 1.282 . S
C700 O701 1.306 . S
C700 O703 1.160 . S
O701 C700 1.306 . S
O701 Cd702 2.228 . S
Cd702 O701 2.228 . S
Cd702 O706 2.273 . S
Cd702 O710 2.277 . S
O703 C700 1.160 . S
O703 Cd704 2.203 . S
Cd704 O703 2.203 . S
Cd704 O706 2.411 . S
Cd704 O707 2.333 . S
Cd704 O708 2.352 . S
Cd704 O712 2.277 . S
Cd704 O713 2.356 . S
C705 O710 1.209 . S
C705 O712 1.226 . S
O706 Cd702 2.273 . S
O706 Cd704 2.411 . S
O706 C709 1.320 . S
O707 Cd704 2.333 . S
O707 C709 1.214 . S
O708 Cd704 2.352 . S
O708 C711 1.258 . S
C709 O706 1.320 . S
C709 O707 1.214 . S
O710 Cd702 2.277 . S
O710 C705 1.209 . S
C711 O708 1.258 . S
C711 O713 1.282 . S
O712 Cd704 2.277 . S
O712 C705 1.226 . S
O713 Cd704 2.356 . S
O713 C711 1.282 . S
C714 O715 1.306 . S
C714 O717 1.160 . S
O715 C714 1.306 . S
O715 Cd716 2.228 . S
Cd716 O715 2.228 . S
Cd716 O720 2.273 . S
Cd716 O724 2.277 . S
O717 C714 1.160 . S
O717 Cd718 2.203 . S
Cd718 O717 2.203 . S
Cd718 O720 2.411 . S
Cd718 O721 2.333 . S
Cd718 O722 2.352 . S
Cd718 O726 2.277 . S
Cd718 O727 2.356 . S
C719 O724 1.209 . S
C719 O726 1.226 . S
O720 Cd716 2.273 . S
O720 Cd718 2.411 . S
O720 C723 1.320 . S
O721 Cd718 2.333 . S
O721 C723 1.214 . S
O722 Cd718 2.352 . S
O722 C725 1.258 . S
C723 O720 1.320 . S
C723 O721 1.214 . S
O724 Cd716 2.277 . S
O724 C719 1.209 . S
C725 O722 1.258 . S
C725 O727 1.282 . S
O726 Cd718 2.277 . S
O726 C719 1.226 . S
O727 Cd718 2.356 . S
O727 C725 1.282 . S
C728 O729 1.306 . S
C728 O731 1.160 . S
O729 C728 1.306 . S
O729 Cd730 2.228 . S
Cd730 O729 2.228 . S
Cd730 O734 2.273 . S
Cd730 O738 2.277 . S
O731 C728 1.160 . S
O731 Cd732 2.203 . S
Cd732 O731 2.203 . S
Cd732 O734 2.411 . S
Cd732 O735 2.333 . S
Cd732 O736 2.352 . S
Cd732 O740 2.277 . S
Cd732 O741 2.356 . S
C733 O738 1.209 . S
C733 O740 1.226 . S
O734 Cd730 2.273 . S
O734 Cd732 2.411 . S
O734 C737 1.320 . S
O735 Cd732 2.333 . S
O735 C737 1.214 . S
O736 Cd732 2.352 . S
O736 C739 1.258 . S
C737 O734 1.320 . S
C737 O735 1.214 . S
O738 Cd730 2.277 . S
O738 C733 1.209 . S
C739 O736 1.258 . S
C739 O741 1.282 . S
O740 Cd732 2.277 . S
O740 C733 1.226 . S
O741 Cd732 2.356 . S
O741 C739 1.282 . S
C742 O743 1.306 . S
C742 O745 1.160 . S
O743 C742 1.306 . S
O743 Cd744 2.228 . S
Cd744 O743 2.228 . S
Cd744 O748 2.273 . S
Cd744 O752 2.277 . S
O745 C742 1.160 . S
O745 Cd746 2.203 . S
Cd746 O745 2.203 . S
Cd746 O748 2.411 . S
Cd746 O749 2.333 . S
Cd746 O750 2.352 . S
Cd746 O754 2.277 . S
Cd746 O755 2.356 . S
C747 O752 1.209 . S
C747 O754 1.226 . S
O748 Cd744 2.273 . S
O748 Cd746 2.411 . S
O748 C751 1.320 . S
O749 Cd746 2.333 . S
O749 C751 1.214 . S
O750 Cd746 2.352 . S
O750 C753 1.258 . S
C751 O748 1.320 . S
C751 O749 1.214 . S
O752 Cd744 2.277 . S
O752 C747 1.209 . S
C753 O750 1.258 . S
C753 O755 1.282 . S
O754 Cd746 2.277 . S
O754 C747 1.226 . S
O755 Cd746 2.356 . S
O755 C753 1.282 . S
C756 O757 1.306 . S
C756 O759 1.160 . S
O757 C756 1.306 . S
O757 Cd758 2.228 . S
Cd758 O757 2.228 . S
Cd758 O762 2.273 . S
Cd758 O766 2.277 . S
O759 C756 1.160 . S
O759 Cd760 2.203 . S
Cd760 O759 2.203 . S
Cd760 O762 2.411 . S
Cd760 O763 2.333 . S
Cd760 O764 2.352 . S
Cd760 O768 2.277 . S
Cd760 O769 2.356 . S
C761 O766 1.209 . S
C761 O768 1.226 . S
O762 Cd758 2.273 . S
O762 Cd760 2.411 . S
O762 C765 1.320 . S
O763 Cd760 2.333 . S
O763 C765 1.214 . S
O764 Cd760 2.352 . S
O764 C767 1.258 . S
C765 O762 1.320 . S
C765 O763 1.214 . S
O766 Cd758 2.277 . S
O766 C761 1.209 . S
C767 O764 1.258 . S
C767 O769 1.282 . S
O768 Cd760 2.277 . S
O768 C761 1.226 . S
O769 Cd760 2.356 . S
O769 C767 1.282 . S
C770 O771 1.306 . S
C770 O773 1.160 . S
O771 C770 1.306 . S
O771 Cd772 2.228 . S
Cd772 O771 2.228 . S
Cd772 O776 2.273 . S
Cd772 O780 2.277 . S
O773 C770 1.160 . S
O773 Cd774 2.203 . S
Cd774 O773 2.203 . S
Cd774 O776 2.411 . S
Cd774 O777 2.333 . S
Cd774 O778 2.352 . S
Cd774 O782 2.277 . S
Cd774 O783 2.356 . S
C775 O780 1.209 . S
C775 O782 1.226 . S
O776 Cd772 2.273 . S
O776 Cd774 2.411 . S
O776 C779 1.320 . S
O777 Cd774 2.333 . S
O777 C779 1.214 . S
O778 Cd774 2.352 . S
O778 C781 1.258 . S
C779 O776 1.320 . S
C779 O777 1.214 . S
O780 Cd772 2.277 . S
O780 C775 1.209 . S
C781 O778 1.258 . S
C781 O783 1.282 . S
O782 Cd774 2.277 . S
O782 C775 1.226 . S
O783 Cd774 2.356 . S
O783 C781 1.282 . S
C784 O785 1.306 . S
C784 O787 1.160 . S
O785 C784 1.306 . S
O785 Cd786 2.228 . S
Cd786 O785 2.228 . S
Cd786 O790 2.273 . S
Cd786 O794 2.277 . S
O787 C784 1.160 . S
O787 Cd788 2.203 . S
Cd788 O787 2.203 . S
Cd788 O790 2.411 . S
Cd788 O791 2.333 . S
Cd788 O792 2.352 . S
Cd788 O796 2.277 . S
Cd788 O797 2.356 . S
C789 O794 1.209 . S
C789 O796 1.226 . S
O790 Cd786 2.273 . S
O790 Cd788 2.411 . S
O790 C793 1.320 . S
O791 Cd788 2.333 . S
O791 C793 1.214 . S
O792 Cd788 2.352 . S
O792 C795 1.258 . S
C793 O790 1.320 . S
C793 O791 1.214 . S
O794 Cd786 2.277 . S
O794 C789 1.209 . S
C795 O792 1.258 . S
C795 O797 1.282 . S
O796 Cd788 2.277 . S
O796 C789 1.226 . S
O797 Cd788 2.356 . S
O797 C795 1.282 . S
C798 O799 1.306 . S
C798 O801 1.160 . S
O799 C798 1.306 . S
O799 Cd800 2.228 . S
Cd800 O799 2.228 . S
Cd800 O804 2.273 . S
Cd800 O808 2.277 . S
O801 C798 1.160 . S
O801 Cd802 2.203 . S
Cd802 O801 2.203 . S
Cd802 O804 2.411 . S
Cd802 O805 2.333 . S
Cd802 O806 2.352 . S
Cd802 O810 2.277 . S
Cd802 O811 2.356 . S
C803 O808 1.209 . S
C803 O810 1.226 . S
O804 Cd800 2.273 . S
O804 Cd802 2.411 . S
O804 C807 1.320 . S
O805 Cd802 2.333 . S
O805 C807 1.214 . S
O806 Cd802 2.352 . S
O806 C809 1.258 . S
C807 O804 1.320 . S
C807 O805 1.214 . S
O808 Cd800 2.277 . S
O808 C803 1.209 . S
C809 O806 1.258 . S
C809 O811 1.282 . S
O810 Cd802 2.277 . S
O810 C803 1.226 . S
O811 Cd802 2.356 . S
O811 C809 1.282 . S
C812 O813 1.306 . S
C812 O815 1.160 . S
O813 C812 1.306 . S
O813 Cd814 2.228 . S
Cd814 O813 2.228 . S
Cd814 O818 2.273 . S
Cd814 O822 2.277 . S
O815 C812 1.160 . S
O815 Cd816 2.203 . S
Cd816 O815 2.203 . S
Cd816 O818 2.411 . S
Cd816 O819 2.333 . S
Cd816 O820 2.352 . S
Cd816 O824 2.277 . S
Cd816 O825 2.356 . S
C817 O822 1.209 . S
C817 O824 1.226 . S
O818 Cd814 2.273 . S
O818 Cd816 2.411 . S
O818 C821 1.320 . S
O819 Cd816 2.333 . S
O819 C821 1.214 . S
O820 Cd816 2.352 . S
O820 C823 1.258 . S
C821 O818 1.320 . S
C821 O819 1.214 . S
O822 Cd814 2.277 . S
O822 C817 1.209 . S
C823 O820 1.258 . S
C823 O825 1.282 . S
O824 Cd816 2.277 . S
O824 C817 1.226 . S
O825 Cd816 2.356 . S
O825 C823 1.282 . S
C826 O827 1.306 . S
C826 O829 1.160 . S
O827 C826 1.306 . S
O827 Cd828 2.228 . S
Cd828 O827 2.228 . S
Cd828 O832 2.273 . S
Cd828 O836 2.277 . S
O829 C826 1.160 . S
O829 Cd830 2.203 . S
Cd830 O829 2.203 . S
Cd830 O832 2.411 . S
Cd830 O833 2.333 . S
Cd830 O834 2.352 . S
Cd830 O838 2.277 . S
Cd830 O839 2.356 . S
C831 O836 1.209 . S
C831 O838 1.226 . S
O832 Cd828 2.273 . S
O832 Cd830 2.411 . S
O832 C835 1.320 . S
O833 Cd830 2.333 . S
O833 C835 1.214 . S
O834 Cd830 2.352 . S
O834 C837 1.258 . S
C835 O832 1.320 . S
C835 O833 1.214 . S
O836 Cd828 2.277 . S
O836 C831 1.209 . S
C837 O834 1.258 . S
C837 O839 1.282 . S
O838 Cd830 2.277 . S
O838 C831 1.226 . S
O839 Cd830 2.356 . S
O839 C837 1.282 . S
C840 O841 1.306 . S
C840 O843 1.160 . S
O841 C840 1.306 . S
O841 Cd842 2.228 . S
Cd842 O841 2.228 . S
Cd842 O846 2.273 . S
Cd842 O850 2.277 . S
O843 C840 1.160 . S
O843 Cd844 2.203 . S
Cd844 O843 2.203 . S
Cd844 O846 2.411 . S
Cd844 O847 2.333 . S
Cd844 O848 2.352 . S
Cd844 O852 2.277 . S
Cd844 O853 2.356 . S
C845 O850 1.209 . S
C845 O852 1.226 . S
O846 Cd842 2.273 . S
O846 Cd844 2.411 . S
O846 C849 1.320 . S
O847 Cd844 2.333 . S
O847 C849 1.214 . S
O848 Cd844 2.352 . S
O848 C851 1.258 . S
C849 O846 1.320 . S
C849 O847 1.214 . S
O850 Cd842 2.277 . S
O850 C845 1.209 . S
C851 O848 1.258 . S
C851 O853 1.282 . S
O852 Cd844 2.277 . S
O852 C845 1.226 . S
O853 Cd844 2.356 . S
O853 C851 1.282 . S
C854 O855 1.306 . S
C854 O857 1.160 . S
O855 C854 1.306 . S
O855 Cd856 2.228 . S
Cd856 O855 2.228 . S
Cd856 O860 2.273 . S
Cd856 O864 2.277 . S
O857 C854 1.160 . S
O857 Cd858 2.203 . S
Cd858 O857 2.203 . S
Cd858 O860 2.411 . S
Cd858 O861 2.333 . S
Cd858 O862 2.352 . S
Cd858 O866 2.277 . S
Cd858 O867 2.356 . S
C859 O864 1.209 . S
C859 O866 1.226 . S
O860 Cd856 2.273 . S
O860 Cd858 2.411 . S
O860 C863 1.320 . S
O861 Cd858 2.333 . S
O861 C863 1.214 . S
O862 Cd858 2.352 . S
O862 C865 1.258 . S
C863 O860 1.320 . S
C863 O861 1.214 . S
O864 Cd856 2.277 . S
O864 C859 1.209 . S
C865 O862 1.258 . S
C865 O867 1.282 . S
O866 Cd858 2.277 . S
O866 C859 1.226 . S
O867 Cd858 2.356 . S
O867 C865 1.282 . S
C868 O869 1.306 . S
C868 O871 1.160 . S
O869 C868 1.306 . S
O869 Cd870 2.228 . S
Cd870 O869 2.228 . S
Cd870 O874 2.273 . S
Cd870 O878 2.277 . S
O871 C868 1.160 . S
O871 Cd872 2.203 . S
Cd872 O871 2.203 . S
Cd872 O874 2.411 . S
Cd872 O875 2.333 . S
Cd872 O876 2.352 . S
Cd872 O880 2.277 . S
Cd872 O881 2.356 . S
C873 O878 1.209 . S
C873 O880 1.226 . S
O874 Cd870 2.273 . S
O874 Cd872 2.411 . S
O874 C877 1.320 . S
O875 Cd872 2.333 . S
O875 C877 1.214 . S
O876 Cd872 2.352 . S
O876 C879 1.258 . S
C877 O874 1.320 . S
C877 O875 1.214 . S
O878 Cd870 2.277 . S
O878 C873 1.209 . S
C879 O876 1.258 . S
C879 O881 1.282 . S
O880 Cd872 2.277 . S
O880 C873 1.226 . S
O881 Cd872 2.356 . S
O881 C879 1.282 . S
C882 O883 1.306 . S
C882 O885 1.160 . S
O883 C882 1.306 . S
O883 Cd884 2.228 . S
Cd884 O883 2.228 . S
Cd884 O888 2.273 . S
Cd884 O892 2.277 . S
O885 C882 1.160 . S
O885 Cd886 2.203 . S
Cd886 O885 2.203 . S
Cd886 O888 2.411 . S
Cd886 O889 2.333 . S
Cd886 O890 2.352 . S
Cd886 O894 2.277 . S
Cd886 O895 2.356 . S
C887 O892 1.209 . S
C887 O894 1.226 . S
O888 Cd884 2.273 . S
O888 Cd886 2.411 . S
O888 C891 1.320 . S
O889 Cd886 2.333 . S
O889 C891 1.214 . S
O890 Cd886 2.352 . S
O890 C893 1.258 . S
C891 O888 1.320 . S
C891 O889 1.214 . S
O892 Cd884 2.277 . S
O892 C887 1.209 . S
C893 O890 1.258 . S
C893 O895 1.282 . S
O894 Cd886 2.277 . S
O894 C887 1.226 . S
O895 Cd886 2.356 . S
O895 C893 1.282 . S
C896 O897 1.306 . S
C896 O899 1.160 . S
O897 C896 1.306 . S
O897 Cd898 2.228 . S
Cd898 O897 2.228 . S
Cd898 O902 2.273 . S
Cd898 O906 2.277 . S
O899 C896 1.160 . S
O899 Cd900 2.203 . S
Cd900 O899 2.203 . S
Cd900 O902 2.411 . S
Cd900 O903 2.333 . S
Cd900 O904 2.352 . S
Cd900 O908 2.277 . S
Cd900 O909 2.356 . S
C901 O906 1.209 . S
C901 O908 1.226 . S
O902 Cd898 2.273 . S
O902 Cd900 2.411 . S
O902 C905 1.320 . S
O903 Cd900 2.333 . S
O903 C905 1.214 . S
O904 Cd900 2.352 . S
O904 C907 1.258 . S
C905 O902 1.320 . S
C905 O903 1.214 . S
O906 Cd898 2.277 . S
O906 C901 1.209 . S
C907 O904 1.258 . S
C907 O909 1.282 . S
O908 Cd900 2.277 . S
O908 C901 1.226 . S
O909 Cd900 2.356 . S
O909 C907 1.282 . S
C910 O911 1.306 . S
C910 O913 1.160 . S
O911 C910 1.306 . S
O911 Cd912 2.228 . S
Cd912 O911 2.228 . S
Cd912 O916 2.273 . S
Cd912 O920 2.277 . S
O913 C910 1.160 . S
O913 Cd914 2.203 . S
Cd914 O913 2.203 . S
Cd914 O916 2.411 . S
Cd914 O917 2.333 . S
Cd914 O918 2.352 . S
Cd914 O922 2.277 . S
Cd914 O923 2.356 . S
C915 O920 1.209 . S
C915 O922 1.226 . S
O916 Cd912 2.273 . S
O916 Cd914 2.411 . S
O916 C919 1.320 . S
O917 Cd914 2.333 . S
O917 C919 1.214 . S
O918 Cd914 2.352 . S
O918 C921 1.258 . S
C919 O916 1.320 . S
C919 O917 1.214 . S
O920 Cd912 2.277 . S
O920 C915 1.209 . S
C921 O918 1.258 . S
C921 O923 1.282 . S
O922 Cd914 2.277 . S
O922 C915 1.226 . S
O923 Cd914 2.356 . S
O923 C921 1.282 . S
C924 O925 1.306 . S
C924 O927 1.160 . S
O925 C924 1.306 . S
O925 Cd926 2.228 . S
Cd926 O925 2.228 . S
Cd926 O930 2.273 . S
Cd926 O934 2.277 . S
O927 C924 1.160 . S
O927 Cd928 2.203 . S
Cd928 O927 2.203 . S
Cd928 O930 2.411 . S
Cd928 O931 2.333 . S
Cd928 O932 2.352 . S
Cd928 O936 2.277 . S
Cd928 O937 2.356 . S
C929 O934 1.209 . S
C929 O936 1.226 . S
O930 Cd926 2.273 . S
O930 Cd928 2.411 . S
O930 C933 1.320 . S
O931 Cd928 2.333 . S
O931 C933 1.214 . S
O932 Cd928 2.352 . S
O932 C935 1.258 . S
C933 O930 1.320 . S
C933 O931 1.214 . S
O934 Cd926 2.277 . S
O934 C929 1.209 . S
C935 O932 1.258 . S
C935 O937 1.282 . S
O936 Cd928 2.277 . S
O936 C929 1.226 . S
O937 Cd928 2.356 . S
O937 C935 1.282 . S
C938 O939 1.306 . S
C938 O941 1.160 . S
O939 C938 1.306 . S
O939 Cd940 2.228 . S
Cd940 O939 2.228 . S
Cd940 O944 2.273 . S
Cd940 O948 2.277 . S
O941 C938 1.160 . S
O941 Cd942 2.203 . S
Cd942 O941 2.203 . S
Cd942 O944 2.411 . S
Cd942 O945 2.333 . S
Cd942 O946 2.352 . S
Cd942 O950 2.277 . S
Cd942 O951 2.356 . S
C943 O948 1.209 . S
C943 O950 1.226 . S
O944 Cd940 2.273 . S
O944 Cd942 2.411 . S
O944 C947 1.320 . S
O945 Cd942 2.333 . S
O945 C947 1.214 . S
O946 Cd942 2.352 . S
O946 C949 1.258 . S
C947 O944 1.320 . S
C947 O945 1.214 . S
O948 Cd940 2.277 . S
O948 C943 1.209 . S
C949 O946 1.258 . S
C949 O951 1.282 . S
O950 Cd942 2.277 . S
O950 C943 1.226 . S
O951 Cd942 2.356 . S
O951 C949 1.282 . S
C952 O953 1.306 . S
C952 O955 1.160 . S
O953 C952 1.306 . S
O953 Cd954 2.228 . S
Cd954 O953 2.228 . S
Cd954 O958 2.273 . S
Cd954 O962 2.277 . S
O955 C952 1.160 . S
O955 Cd956 2.203 . S
Cd956 O955 2.203 . S
Cd956 O958 2.411 . S
Cd956 O959 2.333 . S
Cd956 O960 2.352 . S
Cd956 O964 2.277 . S
Cd956 O965 2.356 . S
C957 O962 1.209 . S
C957 O964 1.226 . S
O958 Cd954 2.273 . S
O958 Cd956 2.411 . S
O958 C961 1.320 . S
O959 Cd956 2.333 . S
O959 C961 1.214 . S
O960 Cd956 2.352 . S
O960 C963 1.258 . S
C961 O958 1.320 . S
C961 O959 1.214 . S
O962 Cd954 2.277 . S
O962 C957 1.209 . S
C963 O960 1.258 . S
C963 O965 1.282 . S
O964 Cd956 2.277 . S
O964 C957 1.226 . S
O965 Cd956 2.356 . S
O965 C963 1.282 . S
C966 O967 1.306 . S
C966 O969 1.160 . S
O967 C966 1.306 . S
O967 Cd968 2.228 . S
Cd968 O967 2.228 . S
Cd968 O972 2.273 . S
Cd968 O976 2.277 . S
O969 C966 1.160 . S
O969 Cd970 2.203 . S
Cd970 O969 2.203 . S
Cd970 O972 2.411 . S
Cd970 O973 2.333 . S
Cd970 O974 2.352 . S
Cd970 O978 2.277 . S
Cd970 O979 2.356 . S
C971 O976 1.209 . S
C971 O978 1.226 . S
O972 Cd968 2.273 . S
O972 Cd970 2.411 . S
O972 C975 1.320 . S
O973 Cd970 2.333 . S
O973 C975 1.214 . S
O974 Cd970 2.352 . S
O974 C977 1.258 . S
C975 O972 1.320 . S
C975 O973 1.214 . S
O976 Cd968 2.277 . S
O976 C971 1.209 . S
C977 O974 1.258 . S
C977 O979 1.282 . S
O978 Cd970 2.277 . S
O978 C971 1.226 . S
O979 Cd970 2.356 . S
O979 C977 1.282 . S
C980 O981 1.306 . S
C980 O983 1.160 . S
O981 C980 1.306 . S
O981 Cd982 2.228 . S
Cd982 O981 2.228 . S
Cd982 O986 2.273 . S
Cd982 O990 2.277 . S
O983 C980 1.160 . S
O983 Cd984 2.203 . S
Cd984 O983 2.203 . S
Cd984 O986 2.411 . S
Cd984 O987 2.333 . S
Cd984 O988 2.352 . S
Cd984 O992 2.277 . S
Cd984 O993 2.356 . S
C985 O990 1.209 . S
C985 O992 1.226 . S
O986 Cd982 2.273 . S
O986 Cd984 2.411 . S
O986 C989 1.320 . S
O987 Cd984 2.333 . S
O987 C989 1.214 . S
O988 Cd984 2.352 . S
O988 C991 1.258 . S
C989 O986 1.320 . S
C989 O987 1.214 . S
O990 Cd982 2.277 . S
O990 C985 1.209 . S
C991 O988 1.258 . S
C991 O993 1.282 . S
O992 Cd984 2.277 . S
O992 C985 1.226 . S
O993 Cd984 2.356 . S
O993 C991 1.282 . S
C994 O995 1.306 . S
C994 O997 1.160 . S
O995 C994 1.306 . S
O995 Cd996 2.228 . S
Cd996 O995 2.228 . S
Cd996 O1000 2.273 . S
Cd996 O1004 2.277 . S
O997 C994 1.160 . S
O997 Cd998 2.203 . S
Cd998 O997 2.203 . S
Cd998 O1000 2.411 . S
Cd998 O1001 2.333 . S
Cd998 O1002 2.352 . S
Cd998 O1006 2.277 . S
Cd998 O1007 2.356 . S
C999 O1004 1.209 . S
C999 O1006 1.226 . S
O1000 Cd996 2.273 . S
O1000 Cd998 2.411 . S
O1000 C1003 1.320 . S
O1001 Cd998 2.333 . S
O1001 C1003 1.214 . S
O1002 Cd998 2.352 . S
O1002 C1005 1.258 . S
C1003 O1000 1.320 . S
C1003 O1001 1.214 . S
O1004 Cd996 2.277 . S
O1004 C999 1.209 . S
C1005 O1002 1.258 . S
C1005 O1007 1.282 . S
O1006 Cd998 2.277 . S
O1006 C999 1.226 . S
O1007 Cd998 2.356 . S
O1007 C1005 1.282 . S
C1008 O1009 1.306 . S
C1008 O1011 1.160 . S
O1009 C1008 1.306 . S
O1009 Cd1010 2.228 . S
Cd1010 O1009 2.228 . S
Cd1010 O1014 2.273 . S
Cd1010 O1018 2.277 . S
O1011 C1008 1.160 . S
O1011 Cd1012 2.203 . S
Cd1012 O1011 2.203 . S
Cd1012 O1014 2.411 . S
Cd1012 O1015 2.333 . S
Cd1012 O1016 2.352 . S
Cd1012 O1020 2.277 . S
Cd1012 O1021 2.356 . S
C1013 O1018 1.209 . S
C1013 O1020 1.226 . S
O1014 Cd1010 2.273 . S
O1014 Cd1012 2.411 . S
O1014 C1017 1.320 . S
O1015 Cd1012 2.333 . S
O1015 C1017 1.214 . S
O1016 Cd1012 2.352 . S
O1016 C1019 1.258 . S
C1017 O1014 1.320 . S
C1017 O1015 1.214 . S
O1018 Cd1010 2.277 . S
O1018 C1013 1.209 . S
C1019 O1016 1.258 . S
C1019 O1021 1.282 . S
O1020 Cd1012 2.277 . S
O1020 C1013 1.226 . S
O1021 Cd1012 2.356 . S
O1021 C1019 1.282 . S
C1022 O1023 1.306 . S
C1022 O1025 1.160 . S
O1023 C1022 1.306 . S
O1023 Cd1024 2.228 . S
Cd1024 O1023 2.228 . S
Cd1024 O1028 2.273 . S
Cd1024 O1032 2.277 . S
O1025 C1022 1.160 . S
O1025 Cd1026 2.203 . S
Cd1026 O1025 2.203 . S
Cd1026 O1028 2.411 . S
Cd1026 O1029 2.333 . S
Cd1026 O1030 2.352 . S
Cd1026 O1034 2.277 . S
Cd1026 O1035 2.356 . S
C1027 O1032 1.209 . S
C1027 O1034 1.226 . S
O1028 Cd1024 2.273 . S
O1028 Cd1026 2.411 . S
O1028 C1031 1.320 . S
O1029 Cd1026 2.333 . S
O1029 C1031 1.214 . S
O1030 Cd1026 2.352 . S
O1030 C1033 1.258 . S
C1031 O1028 1.320 . S
C1031 O1029 1.214 . S
O1032 Cd1024 2.277 . S
O1032 C1027 1.209 . S
C1033 O1030 1.258 . S
C1033 O1035 1.282 . S
O1034 Cd1026 2.277 . S
O1034 C1027 1.226 . S
O1035 Cd1026 2.356 . S
O1035 C1033 1.282 . S
C1036 O1037 1.306 . S
C1036 O1039 1.160 . S
O1037 C1036 1.306 . S
O1037 Cd1038 2.228 . S
Cd1038 O1037 2.228 . S
Cd1038 O1042 2.273 . S
Cd1038 O1046 2.277 . S
O1039 C1036 1.160 . S
O1039 Cd1040 2.203 . S
Cd1040 O1039 2.203 . S
Cd1040 O1042 2.411 . S
Cd1040 O1043 2.333 . S
Cd1040 O1044 2.352 . S
Cd1040 O1048 2.277 . S
Cd1040 O1049 2.356 . S
C1041 O1046 1.209 . S
C1041 O1048 1.226 . S
O1042 Cd1038 2.273 . S
O1042 Cd1040 2.411 . S
O1042 C1045 1.320 . S
O1043 Cd1040 2.333 . S
O1043 C1045 1.214 . S
O1044 Cd1040 2.352 . S
O1044 C1047 1.258 . S
C1045 O1042 1.320 . S
C1045 O1043 1.214 . S
O1046 Cd1038 2.277 . S
O1046 C1041 1.209 . S
C1047 O1044 1.258 . S
C1047 O1049 1.282 . S
O1048 Cd1040 2.277 . S
O1048 C1041 1.226 . S
O1049 Cd1040 2.356 . S
O1049 C1047 1.282 . S
C1050 O1051 1.306 . S
C1050 O1053 1.160 . S
O1051 C1050 1.306 . S
O1051 Cd1052 2.228 . S
Cd1052 O1051 2.228 . S
Cd1052 O1056 2.273 . S
Cd1052 O1060 2.277 . S
O1053 C1050 1.160 . S
O1053 Cd1054 2.203 . S
Cd1054 O1053 2.203 . S
Cd1054 O1056 2.411 . S
Cd1054 O1057 2.333 . S
Cd1054 O1058 2.352 . S
Cd1054 O1062 2.277 . S
Cd1054 O1063 2.356 . S
C1055 O1060 1.209 . S
C1055 O1062 1.226 . S
O1056 Cd1052 2.273 . S
O1056 Cd1054 2.411 . S
O1056 C1059 1.320 . S
O1057 Cd1054 2.333 . S
O1057 C1059 1.214 . S
O1058 Cd1054 2.352 . S
O1058 C1061 1.258 . S
C1059 O1056 1.320 . S
C1059 O1057 1.214 . S
O1060 Cd1052 2.277 . S
O1060 C1055 1.209 . S
C1061 O1058 1.258 . S
C1061 O1063 1.282 . S
O1062 Cd1054 2.277 . S
O1062 C1055 1.226 . S
O1063 Cd1054 2.356 . S
O1063 C1061 1.282 . S
C1064 O1065 1.306 . S
C1064 O1067 1.160 . S
O1065 C1064 1.306 . S
O1065 Cd1066 2.228 . S
Cd1066 O1065 2.228 . S
Cd1066 O1070 2.273 . S
Cd1066 O1074 2.277 . S
O1067 C1064 1.160 . S
O1067 Cd1068 2.203 . S
Cd1068 O1067 2.203 . S
Cd1068 O1070 2.411 . S
Cd1068 O1071 2.333 . S
Cd1068 O1072 2.352 . S
Cd1068 O1076 2.277 . S
Cd1068 O1077 2.356 . S
C1069 O1074 1.209 . S
C1069 O1076 1.226 . S
O1070 Cd1066 2.273 . S
O1070 Cd1068 2.411 . S
O1070 C1073 1.320 . S
O1071 Cd1068 2.333 . S
O1071 C1073 1.214 . S
O1072 Cd1068 2.352 . S
O1072 C1075 1.258 . S
C1073 O1070 1.320 . S
C1073 O1071 1.214 . S
O1074 Cd1066 2.277 . S
O1074 C1069 1.209 . S
C1075 O1072 1.258 . S
C1075 O1077 1.282 . S
O1076 Cd1068 2.277 . S
O1076 C1069 1.226 . S
O1077 Cd1068 2.356 . S
O1077 C1075 1.282 . S
C1078 O1079 1.306 . S
C1078 O1081 1.160 . S
O1079 C1078 1.306 . S
O1079 Cd1080 2.228 . S
Cd1080 O1079 2.228 . S
Cd1080 O1084 2.273 . S
Cd1080 O1088 2.277 . S
O1081 C1078 1.160 . S
O1081 Cd1082 2.203 . S
Cd1082 O1081 2.203 . S
Cd1082 O1084 2.411 . S
Cd1082 O1085 2.333 . S
Cd1082 O1086 2.352 . S
Cd1082 O1090 2.277 . S
Cd1082 O1091 2.356 . S
C1083 O1088 1.209 . S
C1083 O1090 1.226 . S
O1084 Cd1080 2.273 . S
O1084 Cd1082 2.411 . S
O1084 C1087 1.320 . S
O1085 Cd1082 2.333 . S
O1085 C1087 1.214 . S
O1086 Cd1082 2.352 . S
O1086 C1089 1.258 . S
C1087 O1084 1.320 . S
C1087 O1085 1.214 . S
O1088 Cd1080 2.277 . S
O1088 C1083 1.209 . S
C1089 O1086 1.258 . S
C1089 O1091 1.282 . S
O1090 Cd1082 2.277 . S
O1090 C1083 1.226 . S
O1091 Cd1082 2.356 . S
O1091 C1089 1.282 . S
C1092 O1093 1.306 . S
C1092 O1095 1.160 . S
O1093 C1092 1.306 . S
O1093 Cd1094 2.228 . S
Cd1094 O1093 2.228 . S
Cd1094 O1098 2.273 . S
Cd1094 O1102 2.277 . S
O1095 C1092 1.160 . S
O1095 Cd1096 2.203 . S
Cd1096 O1095 2.203 . S
Cd1096 O1098 2.411 . S
Cd1096 O1099 2.333 . S
Cd1096 O1100 2.352 . S
Cd1096 O1104 2.277 . S
Cd1096 O1105 2.356 . S
C1097 O1102 1.209 . S
C1097 O1104 1.226 . S
O1098 Cd1094 2.273 . S
O1098 Cd1096 2.411 . S
O1098 C1101 1.320 . S
O1099 Cd1096 2.333 . S
O1099 C1101 1.214 . S
O1100 Cd1096 2.352 . S
O1100 C1103 1.258 . S
C1101 O1098 1.320 . S
C1101 O1099 1.214 . S
O1102 Cd1094 2.277 . S
O1102 C1097 1.209 . S
C1103 O1100 1.258 . S
C1103 O1105 1.282 . S
O1104 Cd1096 2.277 . S
O1104 C1097 1.226 . S
O1105 Cd1096 2.356 . S
O1105 C1103 1.282 . S
C1106 O1107 1.306 . S
C1106 O1109 1.160 . S
O1107 C1106 1.306 . S
O1107 Cd1108 2.228 . S
Cd1108 O1107 2.228 . S
Cd1108 O1112 2.273 . S
Cd1108 O1116 2.277 . S
O1109 C1106 1.160 . S
O1109 Cd1110 2.203 . S
Cd1110 O1109 2.203 . S
Cd1110 O1112 2.411 . S
Cd1110 O1113 2.333 . S
Cd1110 O1114 2.352 . S
Cd1110 O1118 2.277 . S
Cd1110 O1119 2.356 . S
C1111 O1116 1.209 . S
C1111 O1118 1.226 . S
O1112 Cd1108 2.273 . S
O1112 Cd1110 2.411 . S
O1112 C1115 1.320 . S
O1113 Cd1110 2.333 . S
O1113 C1115 1.214 . S
O1114 Cd1110 2.352 . S
O1114 C1117 1.258 . S
C1115 O1112 1.320 . S
C1115 O1113 1.214 . S
O1116 Cd1108 2.277 . S
O1116 C1111 1.209 . S
C1117 O1114 1.258 . S
C1117 O1119 1.282 . S
O1118 Cd1110 2.277 . S
O1118 C1111 1.226 . S
O1119 Cd1110 2.356 . S
O1119 C1117 1.282 . S
C1120 O1121 1.306 . S
C1120 O1123 1.160 . S
O1121 C1120 1.306 . S
O1121 Cd1122 2.228 . S
Cd1122 O1121 2.228 . S
Cd1122 O1126 2.273 . S
Cd1122 O1130 2.277 . S
O1123 C1120 1.160 . S
O1123 Cd1124 2.203 . S
Cd1124 O1123 2.203 . S
Cd1124 O1126 2.411 . S
Cd1124 O1127 2.333 . S
Cd1124 O1128 2.352 . S
Cd1124 O1132 2.277 . S
Cd1124 O1133 2.356 . S
C1125 O1130 1.209 . S
C1125 O1132 1.226 . S
O1126 Cd1122 2.273 . S
O1126 Cd1124 2.411 . S
O1126 C1129 1.320 . S
O1127 Cd1124 2.333 . S
O1127 C1129 1.214 . S
O1128 Cd1124 2.352 . S
O1128 C1131 1.258 . S
C1129 O1126 1.320 . S
C1129 O1127 1.214 . S
O1130 Cd1122 2.277 . S
O1130 C1125 1.209 . S
C1131 O1128 1.258 . S
C1131 O1133 1.282 . S
O1132 Cd1124 2.277 . S
O1132 C1125 1.226 . S
O1133 Cd1124 2.356 . S
O1133 C1131 1.282 . S
C1134 O1135 1.306 . S
C1134 O1137 1.160 . S
O1135 C1134 1.306 . S
O1135 Cd1136 2.228 . S
Cd1136 O1135 2.228 . S
Cd1136 O1140 2.273 . S
Cd1136 O1144 2.277 . S
O1137 C1134 1.160 . S
O1137 Cd1138 2.203 . S
Cd1138 O1137 2.203 . S
Cd1138 O1140 2.411 . S
Cd1138 O1141 2.333 . S
Cd1138 O1142 2.352 . S
Cd1138 O1146 2.277 . S
Cd1138 O1147 2.356 . S
C1139 O1144 1.209 . S
C1139 O1146 1.226 . S
O1140 Cd1136 2.273 . S
O1140 Cd1138 2.411 . S
O1140 C1143 1.320 . S
O1141 Cd1138 2.333 . S
O1141 C1143 1.214 . S
O1142 Cd1138 2.352 . S
O1142 C1145 1.258 . S
C1143 O1140 1.320 . S
C1143 O1141 1.214 . S
O1144 Cd1136 2.277 . S
O1144 C1139 1.209 . S
C1145 O1142 1.258 . S
C1145 O1147 1.282 . S
O1146 Cd1138 2.277 . S
O1146 C1139 1.226 . S
O1147 Cd1138 2.356 . S
O1147 C1145 1.282 . S
C1148 O1149 1.306 . S
C1148 O1151 1.160 . S
O1149 C1148 1.306 . S
O1149 Cd1150 2.228 . S
Cd1150 O1149 2.228 . S
Cd1150 O1154 2.273 . S
Cd1150 O1158 2.277 . S
O1151 C1148 1.160 . S
O1151 Cd1152 2.203 . S
Cd1152 O1151 2.203 . S
Cd1152 O1154 2.411 . S
Cd1152 O1155 2.333 . S
Cd1152 O1156 2.352 . S
Cd1152 O1160 2.277 . S
Cd1152 O1161 2.356 . S
C1153 O1158 1.209 . S
C1153 O1160 1.226 . S
O1154 Cd1150 2.273 . S
O1154 Cd1152 2.411 . S
O1154 C1157 1.320 . S
O1155 Cd1152 2.333 . S
O1155 C1157 1.214 . S
O1156 Cd1152 2.352 . S
O1156 C1159 1.258 . S
C1157 O1154 1.320 . S
C1157 O1155 1.214 . S
O1158 Cd1150 2.277 . S
O1158 C1153 1.209 . S
C1159 O1156 1.258 . S
C1159 O1161 1.282 . S
O1160 Cd1152 2.277 . S
O1160 C1153 1.226 . S
O1161 Cd1152 2.356 . S
O1161 C1159 1.282 . S
C1162 O1163 1.306 . S
C1162 O1165 1.160 . S
O1163 C1162 1.306 . S
O1163 Cd1164 2.228 . S
Cd1164 O1163 2.228 . S
Cd1164 O1168 2.273 . S
Cd1164 O1172 2.277 . S
O1165 C1162 1.160 . S
O1165 Cd1166 2.203 . S
Cd1166 O1165 2.203 . S
Cd1166 O1168 2.411 . S
Cd1166 O1169 2.333 . S
Cd1166 O1170 2.352 . S
Cd1166 O1174 2.277 . S
Cd1166 O1175 2.356 . S
C1167 O1172 1.209 . S
C1167 O1174 1.226 . S
O1168 Cd1164 2.273 . S
O1168 Cd1166 2.411 . S
O1168 C1171 1.320 . S
O1169 Cd1166 2.333 . S
O1169 C1171 1.214 . S
O1170 Cd1166 2.352 . S
O1170 C1173 1.258 . S
C1171 O1168 1.320 . S
C1171 O1169 1.214 . S
O1172 Cd1164 2.277 . S
O1172 C1167 1.209 . S
C1173 O1170 1.258 . S
C1173 O1175 1.282 . S
O1174 Cd1166 2.277 . S
O1174 C1167 1.226 . S
O1175 Cd1166 2.356 . S
O1175 C1173 1.282 . S
C1176 O1177 1.306 . S
C1176 O1179 1.160 . S
O1177 C1176 1.306 . S
O1177 Cd1178 2.228 . S
Cd1178 O1177 2.228 . S
Cd1178 O1182 2.273 . S
Cd1178 O1186 2.277 . S
O1179 C1176 1.160 . S
O1179 Cd1180 2.203 . S
Cd1180 O1179 2.203 . S
Cd1180 O1182 2.411 . S
Cd1180 O1183 2.333 . S
Cd1180 O1184 2.352 . S
Cd1180 O1188 2.277 . S
Cd1180 O1189 2.356 . S
C1181 O1186 1.209 . S
C1181 O1188 1.226 . S
O1182 Cd1178 2.273 . S
O1182 Cd1180 2.411 . S
O1182 C1185 1.320 . S
O1183 Cd1180 2.333 . S
O1183 C1185 1.214 . S
O1184 Cd1180 2.352 . S
O1184 C1187 1.258 . S
C1185 O1182 1.320 . S
C1185 O1183 1.214 . S
O1186 Cd1178 2.277 . S
O1186 C1181 1.209 . S
C1187 O1184 1.258 . S
C1187 O1189 1.282 . S
O1188 Cd1180 2.277 . S
O1188 C1181 1.226 . S
O1189 Cd1180 2.356 . S
O1189 C1187 1.282 . S
C1190 O1191 1.306 . S
C1190 O1193 1.160 . S
O1191 C1190 1.306 . S
O1191 Cd1192 2.228 . S
Cd1192 O1191 2.228 . S
Cd1192 O1196 2.273 . S
Cd1192 O1200 2.277 . S
O1193 C1190 1.160 . S
O1193 Cd1194 2.203 . S
Cd1194 O1193 2.203 . S
Cd1194 O1196 2.411 . S
Cd1194 O1197 2.333 . S
Cd1194 O1198 2.352 . S
Cd1194 O1202 2.277 . S
Cd1194 O1203 2.356 . S
C1195 O1200 1.209 . S
C1195 O1202 1.226 . S
O1196 Cd1192 2.273 . S
O1196 Cd1194 2.411 . S
O1196 C1199 1.320 . S
O1197 Cd1194 2.333 . S
O1197 C1199 1.214 . S
O1198 Cd1194 2.352 . S
O1198 C1201 1.258 . S
C1199 O1196 1.320 . S
C1199 O1197 1.214 . S
O1200 Cd1192 2.277 . S
O1200 C1195 1.209 . S
C1201 O1198 1.258 . S
C1201 O1203 1.282 . S
O1202 Cd1194 2.277 . S
O1202 C1195 1.226 . S
O1203 Cd1194 2.356 . S
O1203 C1201 1.282 . S
C1204 O1205 1.306 . S
C1204 O1207 1.160 . S
O1205 C1204 1.306 . S
O1205 Cd1206 2.228 . S
Cd1206 O1205 2.228 . S
Cd1206 O1210 2.273 . S
Cd1206 O1214 2.277 . S
O1207 C1204 1.160 . S
O1207 Cd1208 2.203 . S
Cd1208 O1207 2.203 . S
Cd1208 O1210 2.411 . S
Cd1208 O1211 2.333 . S
Cd1208 O1212 2.352 . S
Cd1208 O1216 2.277 . S
Cd1208 O1217 2.356 . S
C1209 O1214 1.209 . S
C1209 O1216 1.226 . S
O1210 Cd1206 2.273 . S
O1210 Cd1208 2.411 . S
O1210 C1213 1.320 . S
O1211 Cd1208 2.333 . S
O1211 C1213 1.214 . S
O1212 Cd1208 2.352 . S
O1212 C1215 1.258 . S
C1213 O1210 1.320 . S
C1213 O1211 1.214 . S
O1214 Cd1206 2.277 . S
O1214 C1209 1.209 . S
C1215 O1212 1.258 . S
C1215 O1217 1.282 . S
O1216 Cd1208 2.277 . S
O1216 C1209 1.226 . S
O1217 Cd1208 2.356 . S
O1217 C1215 1.282 . S
C1218 O1219 1.306 . S
C1218 O1221 1.160 . S
O1219 C1218 1.306 . S
O1219 Cd1220 2.228 . S
Cd1220 O1219 2.228 . S
Cd1220 O1224 2.273 . S
Cd1220 O1228 2.277 . S
O1221 C1218 1.160 . S
O1221 Cd1222 2.203 . S
Cd1222 O1221 2.203 . S
Cd1222 O1224 2.411 . S
Cd1222 O1225 2.333 . S
Cd1222 O1226 2.352 . S
Cd1222 O1230 2.277 . S
Cd1222 O1231 2.356 . S
C1223 O1228 1.209 . S
C1223 O1230 1.226 . S
O1224 Cd1220 2.273 . S
O1224 Cd1222 2.411 . S
O1224 C1227 1.320 . S
O1225 Cd1222 2.333 . S
O1225 C1227 1.214 . S
O1226 Cd1222 2.352 . S
O1226 C1229 1.258 . S
C1227 O1224 1.320 . S
C1227 O1225 1.214 . S
O1228 Cd1220 2.277 . S
O1228 C1223 1.209 . S
C1229 O1226 1.258 . S
C1229 O1231 1.282 . S
O1230 Cd1222 2.277 . S
O1230 C1223 1.226 . S
O1231 Cd1222 2.356 . S
O1231 C1229 1.282 . S
C1232 O1233 1.306 . S
C1232 O1235 1.160 . S
O1233 C1232 1.306 . S
O1233 Cd1234 2.228 . S
Cd1234 O1233 2.228 . S
Cd1234 O1238 2.273 . S
Cd1234 O1242 2.277 . S
O1235 C1232 1.160 . S
O1235 Cd1236 2.203 . S
Cd1236 O1235 2.203 . S
Cd1236 O1238 2.411 . S
Cd1236 O1239 2.333 . S
Cd1236 O1240 2.352 . S
Cd1236 O1244 2.277 . S
Cd1236 O1245 2.356 . S
C1237 O1242 1.209 . S
C1237 O1244 1.226 . S
O1238 Cd1234 2.273 . S
O1238 Cd1236 2.411 . S
O1238 C1241 1.320 . S
O1239 Cd1236 2.333 . S
O1239 C1241 1.214 . S
O1240 Cd1236 2.352 . S
O1240 C1243 1.258 . S
C1241 O1238 1.320 . S
C1241 O1239 1.214 . S
O1242 Cd1234 2.277 . S
O1242 C1237 1.209 . S
C1243 O1240 1.258 . S
C1243 O1245 1.282 . S
O1244 Cd1236 2.277 . S
O1244 C1237 1.226 . S
O1245 Cd1236 2.356 . S
O1245 C1243 1.282 . S
C1246 O1247 1.306 . S
C1246 O1249 1.160 . S
O1247 C1246 1.306 . S
O1247 Cd1248 2.228 . S
Cd1248 O1247 2.228 . S
Cd1248 O1252 2.273 . S
Cd1248 O1256 2.277 . S
O1249 C1246 1.160 . S
O1249 Cd1250 2.203 . S
Cd1250 O1249 2.203 . S
Cd1250 O1252 2.411 . S
Cd1250 O1253 2.333 . S
Cd1250 O1254 2.352 . S
Cd1250 O1258 2.277 . S
Cd1250 O1259 2.356 . S
C1251 O1256 1.209 . S
C1251 O1258 1.226 . S
O1252 Cd1248 2.273 . S
O1252 Cd1250 2.411 . S
O1252 C1255 1.320 . S
O1253 Cd1250 2.333 . S
O1253 C1255 1.214 . S
O1254 Cd1250 2.352 . S
O1254 C1257 1.258 . S
C1255 O1252 1.320 . S
C1255 O1253 1.214 . S
O1256 Cd1248 2.277 . S
O1256 C1251 1.209 . S
C1257 O1254 1.258 . S
C1257 O1259 1.282 . S
O1258 Cd1250 2.277 . S
O1258 C1251 1.226 . S
O1259 Cd1250 2.356 . S
O1259 C1257 1.282 . S
C1260 O1261 1.306 . S
C1260 O1263 1.160 . S
O1261 C1260 1.306 . S
O1261 Cd1262 2.228 . S
Cd1262 O1261 2.228 . S
Cd1262 O1266 2.273 . S
Cd1262 O1270 2.277 . S
O1263 C1260 1.160 . S
O1263 Cd1264 2.203 . S
Cd1264 O1263 2.203 . S
Cd1264 O1266 2.411 . S
Cd1264 O1267 2.333 . S
Cd1264 O1268 2.352 . S
Cd1264 O1272 2.277 . S
Cd1264 O1273 2.356 . S
C1265 O1270 1.209 . S
C1265 O1272 1.226 . S
O1266 Cd1262 2.273 . S
O1266 Cd1264 2.411 . S
O1266 C1269 1.320 . S
O1267 Cd1264 2.333 . S
O1267 C1269 1.214 . S
O1268 Cd1264 2.352 . S
O1268 C1271 1.258 . S
C1269 O1266 1.320 . S
C1269 O1267 1.214 . S
O1270 Cd1262 2.277 . S
O1270 C1265 1.209 . S
C1271 O1268 1.258 . S
C1271 O1273 1.282 . S
O1272 Cd1264 2.277 . S
O1272 C1265 1.226 . S
O1273 Cd1264 2.356 . S
O1273 C1271 1.282 . S
C1274 O1275 1.306 . S
C1274 O1277 1.160 . S
O1275 C1274 1.306 . S
O1275 Cd1276 2.228 . S
Cd1276 O1275 2.228 . S
Cd1276 O1280 2.273 . S
Cd1276 O1284 2.277 . S
O1277 C1274 1.160 . S
O1277 Cd1278 2.203 . S
Cd1278 O1277 2.203 . S
Cd1278 O1280 2.411 . S
Cd1278 O1281 2.333 . S
Cd1278 O1282 2.352 . S
Cd1278 O1286 2.277 . S
Cd1278 O1287 2.356 . S
C1279 O1284 1.209 . S
C1279 O1286 1.226 . S
O1280 Cd1276 2.273 . S
O1280 Cd1278 2.411 . S
O1280 C1283 1.320 . S
O1281 Cd1278 2.333 . S
O1281 C1283 1.214 . S
O1282 Cd1278 2.352 . S
O1282 C1285 1.258 . S
C1283 O1280 1.320 . S
C1283 O1281 1.214 . S
O1284 Cd1276 2.277 . S
O1284 C1279 1.209 . S
C1285 O1282 1.258 . S
C1285 O1287 1.282 . S
O1286 Cd1278 2.277 . S
O1286 C1279 1.226 . S
O1287 Cd1278 2.356 . S
O1287 C1285 1.282 . S
C1288 O1289 1.306 . S
C1288 O1291 1.160 . S
O1289 C1288 1.306 . S
O1289 Cd1290 2.228 . S
Cd1290 O1289 2.228 . S
Cd1290 O1294 2.273 . S
Cd1290 O1298 2.277 . S
O1291 C1288 1.160 . S
O1291 Cd1292 2.203 . S
Cd1292 O1291 2.203 . S
Cd1292 O1294 2.411 . S
Cd1292 O1295 2.333 . S
Cd1292 O1296 2.352 . S
Cd1292 O1300 2.277 . S
Cd1292 O1301 2.356 . S
C1293 O1298 1.209 . S
C1293 O1300 1.226 . S
O1294 Cd1290 2.273 . S
O1294 Cd1292 2.411 . S
O1294 C1297 1.320 . S
O1295 Cd1292 2.333 . S
O1295 C1297 1.214 . S
O1296 Cd1292 2.352 . S
O1296 C1299 1.258 . S
C1297 O1294 1.320 . S
C1297 O1295 1.214 . S
O1298 Cd1290 2.277 . S
O1298 C1293 1.209 . S
C1299 O1296 1.258 . S
C1299 O1301 1.282 . S
O1300 Cd1292 2.277 . S
O1300 C1293 1.226 . S
O1301 Cd1292 2.356 . S
O1301 C1299 1.282 . S
C1302 O1303 1.306 . S
C1302 O1305 1.160 . S
O1303 C1302 1.306 . S
O1303 Cd1304 2.228 . S
Cd1304 O1303 2.228 . S
Cd1304 O1308 2.273 . S
Cd1304 O1312 2.277 . S
O1305 C1302 1.160 . S
O1305 Cd1306 2.203 . S
Cd1306 O1305 2.203 . S
Cd1306 O1308 2.411 . S
Cd1306 O1309 2.333 . S
Cd1306 O1310 2.352 . S
Cd1306 O1314 2.277 . S
Cd1306 O1315 2.356 . S
C1307 O1312 1.209 . S
C1307 O1314 1.226 . S
O1308 Cd1304 2.273 . S
O1308 Cd1306 2.411 . S
O1308 C1311 1.320 . S
O1309 Cd1306 2.333 . S
O1309 C1311 1.214 . S
O1310 Cd1306 2.352 . S
O1310 C1313 1.258 . S
C1311 O1308 1.320 . S
C1311 O1309 1.214 . S
O1312 Cd1304 2.277 . S
O1312 C1307 1.209 . S
C1313 O1310 1.258 . S
C1313 O1315 1.282 . S
O1314 Cd1306 2.277 . S
O1314 C1307 1.226 . S
O1315 Cd1306 2.356 . S
O1315 C1313 1.282 . S
C1316 O1317 1.306 . S
C1316 O1319 1.160 . S
O1317 C1316 1.306 . S
O1317 Cd1318 2.228 . S
Cd1318 O1317 2.228 . S
Cd1318 O1322 2.273 . S
Cd1318 O1326 2.277 . S
O1319 C1316 1.160 . S
O1319 Cd1320 2.203 . S
Cd1320 O1319 2.203 . S
Cd1320 O1322 2.411 . S
Cd1320 O1323 2.333 . S
Cd1320 O1324 2.352 . S
Cd1320 O1328 2.277 . S
Cd1320 O1329 2.356 . S
C1321 O1326 1.209 . S
C1321 O1328 1.226 . S
O1322 Cd1318 2.273 . S
O1322 Cd1320 2.411 . S
O1322 C1325 1.320 . S
O1323 Cd1320 2.333 . S
O1323 C1325 1.214 . S
O1324 Cd1320 2.352 . S
O1324 C1327 1.258 . S
C1325 O1322 1.320 . S
C1325 O1323 1.214 . S
O1326 Cd1318 2.277 . S
O1326 C1321 1.209 . S
C1327 O1324 1.258 . S
C1327 O1329 1.282 . S
O1328 Cd1320 2.277 . S
O1328 C1321 1.226 . S
O1329 Cd1320 2.356 . S
O1329 C1327 1.282 . S
C1330 O1331 1.306 . S
C1330 O1333 1.160 . S
O1331 C1330 1.306 . S
O1331 Cd1332 2.228 . S
Cd1332 O1331 2.228 . S
Cd1332 O1336 2.273 . S
Cd1332 O1340 2.277 . S
O1333 C1330 1.160 . S
O1333 Cd1334 2.203 . S
Cd1334 O1333 2.203 . S
Cd1334 O1336 2.411 . S
Cd1334 O1337 2.333 . S
Cd1334 O1338 2.352 . S
Cd1334 O1342 2.277 . S
Cd1334 O1343 2.356 . S
C1335 O1340 1.209 . S
C1335 O1342 1.226 . S
O1336 Cd1332 2.273 . S
O1336 Cd1334 2.411 . S
O1336 C1339 1.320 . S
O1337 Cd1334 2.333 . S
O1337 C1339 1.214 . S
O1338 Cd1334 2.352 . S
O1338 C1341 1.258 . S
C1339 O1336 1.320 . S
C1339 O1337 1.214 . S
O1340 Cd1332 2.277 . S
O1340 C1335 1.209 . S
C1341 O1338 1.258 . S
C1341 O1343 1.282 . S
O1342 Cd1334 2.277 . S
O1342 C1335 1.226 . S
O1343 Cd1334 2.356 . S
O1343 C1341 1.282 . S
C555 C9 1.830 . S
C513 C23 1.830 . S
C527 C37 1.830 . S
C541 C51 1.830 . S
C471 C65 1.830 . S
C485 C79 1.830 . S
C93 C499 1.830 . S
C457 C107 1.830 . S
C121 C443 1.830 . S
C135 C401 1.830 . S
C149 C415 1.830 . S
C163 C429 1.830 . S
C359 C177 1.830 . S
C373 C191 1.830 . S
C387 C205 1.830 . S
C345 C219 1.830 . S
C233 C625 1.830 . S
C247 C667 1.830 . S
C639 C261 1.830 . S
C653 C275 1.830 . S
C569 C289 1.830 . S
C597 C303 1.830 . S
C317 C611 1.830 . S
C583 C331 1.830 . S
C989 C681 1.830 . S
C695 C1003 1.830 . S
C709 C975 1.830 . S
C723 C961 1.830 . S
C737 C947 1.830 . S
C751 C933 1.830 . S
C905 C765 1.830 . S
C919 C779 1.830 . S
C793 C1073 1.830 . S
C807 C1115 1.830 . S
C1087 C821 1.830 . S
C835 C1101 1.830 . S
C849 C1017 1.830 . S
C863 C1045 1.830 . S
C1059 C877 1.830 . S
C1031 C891 1.830 . S
C1129 C1339 1.830 . S
C1325 C1143 1.830 . S
C1297 C1157 1.830 . S
C1311 C1171 1.830 . S
C1269 C1185 1.830 . S
C1199 C1283 1.830 . S
C1255 C1213 1.830 . S
C1241 C1227 1.830 . S
C5 C434 1.356 . S
C19 C392 1.356 . S
C33 C406 1.356 . S
C47 C420 1.356 . S
C61 C350 1.356 . S
C75 C364 1.356 . S
C378 C89 1.356 . S
C103 C336 1.356 . S
C117 C616 1.356 . S
C574 C131 1.356 . S
C145 C588 1.356 . S
C159 C602 1.356 . S
C658 C173 1.356 . S
C630 C187 1.356 . S
C644 C201 1.356 . S
C215 C560 1.356 . S
C229 C546 1.356 . S
C243 C462 1.356 . S
C257 C476 1.356 . S
C271 C490 1.356 . S
C285 C448 1.356 . S
C299 C518 1.356 . S
C532 C313 1.356 . S
C327 C504 1.356 . S
C467 C938 1.356 . S
C210 C677 1.356 . S
C495 C924 1.356 . S
C691 C182 1.356 . S
C551 C896 1.356 . S
C705 C154 1.356 . S
C910 C523 1.356 . S
C719 C126 1.356 . S
C1064 C733 1.356 . S
C341 C1022 1.356 . S
C1036 C747 1.356 . S
C1050 C369 1.356 . S
C1106 C761 1.356 . S
C425 C1078 1.356 . S
C775 C1092 1.356 . S
C397 C1008 1.356 . S
C789 C56 1.356 . S
C803 C0 1.356 . S
C966 C817 1.356 . S
C831 C28 1.356 . S
C845 C952 1.356 . S
C84 C859 1.356 . S
C873 C994 1.356 . S
C980 C887 1.356 . S
C196 C1125 1.356 . S
C1260 C481 1.356 . S
C1139 C168 1.356 . S
C453 C1274 1.356 . S
C140 C1153 1.356 . S
C1246 C509 1.356 . S
C112 C1167 1.356 . S
C1232 C537 1.356 . S
C854 C383 1.356 . S
C1181 C868 1.356 . S
C784 C355 1.356 . S
C1195 C882 1.356 . S
C826 C411 1.356 . S
C1209 C840 1.356 . S
C439 C798 1.356 . S
C812 C1223 1.356 . S
C1330 C1041 1.356 . S
C1288 C1097 1.356 . S
C1013 C14 1.356 . S
C1302 C1111 1.356 . S
C42 C1083 1.356 . S
C1069 C1316 1.356 . S
C1027 C98 1.356 . S
C1055 C70 1.356 . S
C1293 C770 1.356 . S
C1218 C971 1.356 . S
C1307 C756 1.356 . S
C957 C1204 1.356 . S
C1335 C742 1.356 . S
C985 C1190 1.356 . S
C1321 C728 1.356 . S
C999 C1176 1.356 . S
C915 C294 1.356 . S
C308 C1237 1.356 . S
C901 C224 1.356 . S
C1251 C322 1.356 . S
C929 C266 1.356 . S
C280 C1279 1.356 . S
C238 C943 1.356 . S
C252 C1265 1.356 . S
C1148 C593 1.356 . S
C649 C1120 1.356 . S
C672 C565 1.356 . S
C663 C1134 1.356 . S
C686 C635 1.356 . S
C1162 C621 1.356 . S
C714 C579 1.356 . S
C700 C607 1.356 . S
C403 C11 1.271 1_655 S
C25 C417 1.271 1_545 S
C431 C39 1.271 1_455 S
C53 C445 1.271 1_565 S
C347 C67 1.271 1_655 S
C361 C81 1.271 1_565 S
C95 C375 1.271 1_655 S
C109 C389 1.271 1_565 S
C543 C123 1.271 1_565 S
C137 C557 1.271 1_655 S
C151 C515 1.271 1_565 S
C529 C165 1.271 1_655 S
C179 C487 1.271 1_565 S
C501 C193 1.271 1_655 S
C459 C207 1.271 1_565 S
C473 C221 1.271 1_455 S
C235 C641 1.271 1_554 S
C613 C249 1.271 1_554 S
C627 C263 1.271 1_554 S
C585 C277 1.271 1_554 S
C291 C599 1.271 1_556 S
C305 C571 1.271 1_554 S
C669 C319 1.271 1_556 S
C333 C655 1.271 1_554 S
C683 C935 1.271 . S
C949 C697 1.271 . S
C907 C711 1.271 . S
C921 C725 1.271 . S
C739 C1005 1.271 . S
C991 C753 1.271 . S
C767 C977 1.271 . S
C781 C963 1.271 . S
C1089 C795 1.271 . S
C809 C1061 1.271 . S
C1075 C823 1.271 . S
C1033 C837 1.271 . S
C1047 C851 1.271 . S
C1019 C865 1.271 . S
C1117 C879 1.271 . S
C1103 C893 1.271 . S
C1131 C1271 1.271 . S
C1285 C1145 1.271 . S
C1159 C1243 1.271 . S
C1257 C1173 1.271 . S
C1187 C1341 1.271 . S
C1201 C1327 1.271 . S
C1313 C1215 1.271 . S
C1229 C1299 1.271 . S
