# Generated by pormake.
# Topology fnh, (5)-cn, num edge types: 1
# Building blocks:
#     Node 0, Type 0, BuildingBlock: XOMCOT_clean_sbu_1, # of connection points: 5
#     Node 1, Type 0, BuildingBlock: XOMCOT_clean_sbu_1, # of connection points: 5
#     Node 2, Type 0, BuildingBlock: XOMCOT_clean_sbu_1, # of connection points: 5
#     Node 3, Type 0, BuildingBlock: XOMCOT_clean_sbu_1, # of connection points: 5
#     Node 4, Type 0, BuildingBlock: XOMCOT_clean_sbu_1, # of connection points: 5
#     Node 5, Type 0, BuildingBlock: XOMCOT_clean_sbu_1, # of connection points: 5
#     Node 6, Type 0, BuildingBlock: XOMCOT_clean_sbu_1, # of connection points: 5
#     Node 7, Type 0, BuildingBlock: XOMCOT_clean_sbu_1, # of connection points: 5
#     Node 8, Type 0, BuildingBlock: XOMCOT_clean_sbu_1, # of connection points: 5
#     Node 9, Type 0, BuildingBlock: XOMCOT_clean_sbu_1, # of connection points: 5
#     Node 10, Type 0, BuildingBlock: XOMCOT_clean_sbu_1, # of connection points: 5
#     Node 11, Type 0, BuildingBlock: XOMCOT_clean_sbu_1, # of connection points: 5
#     Node 12, Type 0, BuildingBlock: XOMCOT_clean_sbu_1, # of connection points: 5
#     Node 13, Type 0, BuildingBlock: XOMCOT_clean_sbu_1, # of connection points: 5
#     Node 14, Type 0, BuildingBlock: XOMCOT_clean_sbu_1, # of connection points: 5
#     Node 15, Type 0, BuildingBlock: XOMCOT_clean_sbu_1, # of connection points: 5
#     Node 16, Type 0, BuildingBlock: XOMCOT_clean_sbu_1, # of connection points: 5
#     Node 17, Type 0, BuildingBlock: XOMCOT_clean_sbu_1, # of connection points: 5
#     Edge 18, Type (0, 0), BuildingBlock: UVAHIK_clean_linker_0, # of connection points: 2
#     Edge 19, Type (0, 0), BuildingBlock: UVAHIK_clean_linker_0, # of connection points: 2
#     Edge 20, Type (0, 0), BuildingBlock: UVAHIK_clean_linker_0, # of connection points: 2
#     Edge 21, Type (0, 0), BuildingBlock: UVAHIK_clean_linker_0, # of connection points: 2
#     Edge 22, Type (0, 0), BuildingBlock: UVAHIK_clean_linker_0, # of connection points: 2
#     Edge 23, Type (0, 0), BuildingBlock: UVAHIK_clean_linker_0, # of connection points: 2
#     Edge 24, Type (0, 0), BuildingBlock: UVAHIK_clean_linker_0, # of connection points: 2
#     Edge 25, Type (0, 0), BuildingBlock: UVAHIK_clean_linker_0, # of connection points: 2
#     Edge 26, Type (0, 0), BuildingBlock: UVAHIK_clean_linker_0, # of connection points: 2
#     Edge 27, Type (0, 0), BuildingBlock: UVAHIK_clean_linker_0, # of connection points: 2
#     Edge 28, Type (0, 0), BuildingBlock: UVAHIK_clean_linker_0, # of connection points: 2
#     Edge 29, Type (0, 0), BuildingBlock: UVAHIK_clean_linker_0, # of connection points: 2
#     Edge 30, Type (0, 0), BuildingBlock: UVAHIK_clean_linker_0, # of connection points: 2
#     Edge 31, Type (0, 0), BuildingBlock: UVAHIK_clean_linker_0, # of connection points: 2
#     Edge 32, Type (0, 0), BuildingBlock: UVAHIK_clean_linker_0, # of connection points: 2
#     Edge 33, Type (0, 0), BuildingBlock: UVAHIK_clean_linker_0, # of connection points: 2
#     Edge 34, Type (0, 0), BuildingBlock: UVAHIK_clean_linker_0, # of connection points: 2
#     Edge 35, Type (0, 0), BuildingBlock: UVAHIK_clean_linker_0, # of connection points: 2
#     Edge 36, Type (0, 0), BuildingBlock: UVAHIK_clean_linker_0, # of connection points: 2
#     Edge 37, Type (0, 0), BuildingBlock: UVAHIK_clean_linker_0, # of connection points: 2
#     Edge 38, Type (0, 0), BuildingBlock: UVAHIK_clean_linker_0, # of connection points: 2
#     Edge 39, Type (0, 0), BuildingBlock: UVAHIK_clean_linker_0, # of connection points: 2
#     Edge 40, Type (0, 0), BuildingBlock: UVAHIK_clean_linker_0, # of connection points: 2
#     Edge 41, Type (0, 0), BuildingBlock: UVAHIK_clean_linker_0, # of connection points: 2
#     Edge 42, Type (0, 0), BuildingBlock: UVAHIK_clean_linker_0, # of connection points: 2
#     Edge 43, Type (0, 0), BuildingBlock: UVAHIK_clean_linker_0, # of connection points: 2
#     Edge 44, Type (0, 0), BuildingBlock: UVAHIK_clean_linker_0, # of connection points: 2
#     Edge 45, Type (0, 0), BuildingBlock: UVAHIK_clean_linker_0, # of connection points: 2
#     Edge 46, Type (0, 0), BuildingBlock: UVAHIK_clean_linker_0, # of connection points: 2
#     Edge 47, Type (0, 0), BuildingBlock: UVAHIK_clean_linker_0, # of connection points: 2
#     Edge 48, Type (0, 0), BuildingBlock: UVAHIK_clean_linker_0, # of connection points: 2
#     Edge 49, Type (0, 0), BuildingBlock: UVAHIK_clean_linker_0, # of connection points: 2
#     Edge 50, Type (0, 0), BuildingBlock: UVAHIK_clean_linker_0, # of connection points: 2
#     Edge 51, Type (0, 0), BuildingBlock: UVAHIK_clean_linker_0, # of connection points: 2
#     Edge 52, Type (0, 0), BuildingBlock: UVAHIK_clean_linker_0, # of connection points: 2
#     Edge 53, Type (0, 0), BuildingBlock: UVAHIK_clean_linker_0, # of connection points: 2
#     Edge 54, Type (0, 0), BuildingBlock: UVAHIK_clean_linker_0, # of connection points: 2
#     Edge 55, Type (0, 0), BuildingBlock: UVAHIK_clean_linker_0, # of connection points: 2
#     Edge 56, Type (0, 0), BuildingBlock: UVAHIK_clean_linker_0, # of connection points: 2
#     Edge 57, Type (0, 0), BuildingBlock: UVAHIK_clean_linker_0, # of connection points: 2
#     Edge 58, Type (0, 0), BuildingBlock: UVAHIK_clean_linker_0, # of connection points: 2
#     Edge 59, Type (0, 0), BuildingBlock: UVAHIK_clean_linker_0, # of connection points: 2
#     Edge 60, Type (0, 0), BuildingBlock: UVAHIK_clean_linker_0, # of connection points: 2
#     Edge 61, Type (0, 0), BuildingBlock: UVAHIK_clean_linker_0, # of connection points: 2
#     Edge 62, Type (0, 0), BuildingBlock: UVAHIK_clean_linker_0, # of connection points: 2
# Relax obj value: 0.147
# Max RMSD: 0.171
# Mean RMSD: 0.171
data_MOF--net-fnh--node1-XOMCOT_clean_sbu_1--edge1-UVAHIK_clean_linker_0
_symmetry_space_group_name_H-M    P1
_symmetry_Int_Tables_number       1
_symmetry_cell_setting            triclinic
loop_
_symmetry_equiv_pos_as_xyz
'x, y, z'
_cell_length_a     86.652699
_cell_length_b     86.847187
_cell_length_c     29.906836
_cell_angle_alpha  89.714991
_cell_angle_beta   90.261962
_cell_angle_gamma 119.91939
loop_
_atom_site_label
_atom_site_type_symbol
_atom_site_fract_x
_atom_site_fract_y
_atom_site_fract_z
_atom_type_partial_charge
C0 C 0.0869 0.20158 0.24605 0.0
C1 C 0.07487 0.20125 0.27639 0.0
N2 N 0.07822 0.19622 0.31625 0.0
N3 N 0.09767 0.19678 0.26694 0.0
C4 C 0.09207 0.19356 0.30957 0.0
H5 H 0.08804 0.20544 0.21126 0.0
Co6 Co 0.11686 0.19711 0.24126 0.0
C7 C 0.13475 0.18663 0.31328 0.0
O8 O 0.14952 0.20024 0.29829 0.0
N9 N 0.13637 0.19744 0.21372 0.0
C10 C 0.16324 0.20499 0.18775 0.0
C11 C 0.15172 0.21103 0.19746 0.0
C12 C 0.13861 0.18316 0.21131 0.0
N13 N 0.155 0.18754 0.19709 0.0
O14 O 0.10011 0.17517 0.20733 0.0
H15 H 0.15487 0.22464 0.19397 0.0
H16 H 0.12884 0.17002 0.2228 0.0
O17 O 0.11982 0.18332 0.29487 0.0
C18 C 0.09812 0.17875 0.16649 0.0
O19 O 0.10857 0.19504 0.1521 0.0
N20 N 0.13165 0.21984 0.26821 0.0
C21 C 0.1508 0.25583 0.29392 0.0
C22 C 0.14583 0.24211 0.32562 0.0
C23 C 0.13597 0.22419 0.31224 0.0
C24 C 0.13507 0.233 0.23807 0.0
C25 C 0.14496 0.25094 0.24976 0.0
H26 H 0.13154 0.21399 0.33759 0.0
H27 H 0.13016 0.22949 0.20418 0.0
H28 H 0.09847 0.19008 0.33567 0.0
H29 H 0.06455 0.20452 0.26971 0.0
H30 H 0.17669 0.21283 0.17519 0.0
H31 H 0.1495 0.24516 0.36045 0.0
H32 H 0.14766 0.26092 0.22441 0.0
C33 C 0.8489 0.89382 0.25376 0.0
C34 C 0.84766 0.88105 0.28298 0.0
N35 N 0.8446 0.8852 0.32406 0.0
N36 N 0.84681 0.90604 0.27641 0.0
C37 C 0.8444 0.90055 0.31931 0.0
H38 H 0.84998 0.89347 0.21787 0.0
Co39 Co 0.84242 0.92245 0.24923 0.0
C40 C 0.85352 0.95341 0.31496 0.0
O41 O 0.83996 0.95463 0.29946 0.0
N42 N 0.83752 0.93851 0.21971 0.0
C43 C 0.82322 0.95086 0.1875 0.0
C44 C 0.82152 0.93549 0.20478 0.0
C45 C 0.84889 0.95567 0.20932 0.0
N46 N 0.84042 0.96362 0.1907 0.0
O47 O 0.86417 0.93007 0.2115 0.0
H48 H 0.80919 0.92305 0.20657 0.0
H49 H 0.86302 0.96226 0.21646 0.0
O50 O 0.8562 0.94102 0.29934 0.0
C51 C 0.86043 0.9243 0.17093 0.0
O52 O 0.84371 0.9169 0.15815 0.0
N53 N 0.82 0.91224 0.27982 0.0
C54 C 0.78391 0.89311 0.30544 0.0
C55 C 0.7967 0.90701 0.33205 0.0
C56 C 0.81474 0.91618 0.31917 0.0
C57 C 0.80796 0.89801 0.25545 0.0
C58 C 0.78997 0.88848 0.26718 0.0
H59 H 0.82424 0.92612 0.34138 0.0
H60 H 0.8123 0.89452 0.2252 0.0
H61 H 0.84111 0.90686 0.34578 0.0
H62 H 0.84825 0.86927 0.27434 0.0
H63 H 0.81247 0.95254 0.17456 0.0
H64 H 0.79284 0.91065 0.36287 0.0
H65 H 0.7808 0.87789 0.24542 0.0
C66 C 0.1418 0.94264 0.26809 0.0
C67 C 0.15196 0.95461 0.30043 0.0
N68 N 0.1409 0.95608 0.32945 0.0
N69 N 0.12448 0.93666 0.27671 0.0
C70 C 0.12431 0.94516 0.31397 0.0
H71 H 0.14665 0.93815 0.24069 0.0
Co72 Co 0.10612 0.91946 0.24394 0.0
C73 C 0.07919 0.90307 0.32303 0.0
O74 O 0.08112 0.88904 0.32382 0.0
N75 N 0.08804 0.90234 0.20865 0.0
C76 C 0.06726 0.87734 0.177 0.0
C77 C 0.07472 0.88561 0.21693 0.0
C78 C 0.08824 0.90394 0.16382 0.0
N79 N 0.07585 0.88903 0.14398 0.0
O80 O 0.10303 0.93851 0.21349 0.0
H81 H 0.0713 0.87924 0.24912 0.0
H82 H 0.09812 0.91532 0.14554 0.0
O83 O 0.08787 0.91554 0.29387 0.0
C84 C 0.11494 0.94736 0.18345 0.0
O85 O 0.12732 0.94317 0.17633 0.0
N86 N 0.1117 0.9021 0.26802 0.0
C87 C 0.12735 0.88135 0.29228 0.0
C88 C 0.12442 0.89149 0.32417 0.0
C89 C 0.11689 0.90194 0.31131 0.0
C90 C 0.11472 0.89251 0.23661 0.0
C91 C 0.12219 0.88195 0.248 0.0
H92 H 0.11561 0.91022 0.33615 0.0
H93 H 0.11219 0.89367 0.20171 0.0
H94 H 0.11225 0.94276 0.33056 0.0
H95 H 0.16633 0.96147 0.30264 0.0
H96 H 0.05678 0.86372 0.17243 0.0
H97 H 0.12817 0.89163 0.3588 0.0
H98 H 0.1247 0.875 0.22161 0.0
C99 C 0.21928 0.08862 0.75303 0.0
C100 C 0.21653 0.07409 0.72869 0.0
N101 N 0.2011 0.06804 0.70602 0.0
N102 N 0.20576 0.09173 0.74515 0.0
C103 C 0.19487 0.07901 0.71663 0.0
H104 H 0.23016 0.09618 0.77592 0.0
Co105 Co 0.20225 0.10805 0.77448 0.0
C106 C 0.19151 0.12482 0.70046 0.0
O107 O 0.20411 0.14009 0.71611 0.0
N108 N 0.19856 0.12396 0.80728 0.0
C109 C 0.18383 0.13445 0.84547 0.0
C110 C 0.18547 0.12811 0.80471 0.0
C111 C 0.20433 0.12758 0.84986 0.0
N112 N 0.1957 0.13396 0.87373 0.0
O113 O 0.18066 0.08819 0.80406 0.0
H114 H 0.17614 0.12469 0.77742 0.0
H115 H 0.21285 0.12321 0.865 0.0
O116 O 0.1884 0.11031 0.72065 0.0
C117 C 0.18526 0.0828 0.83933 0.0
O118 O 0.20235 0.09025 0.84824 0.0
N119 N 0.22474 0.12658 0.75099 0.0
C120 C 0.2606 0.14837 0.72417 0.0
C121 C 0.24714 0.13835 0.69282 0.0
C122 C 0.2294 0.12747 0.70689 0.0
C123 C 0.23774 0.13625 0.78163 0.0
C124 C 0.25549 0.14731 0.76902 0.0
H125 H 0.21958 0.11905 0.68252 0.0
H126 H 0.23486 0.13463 0.81673 0.0
H127 H 0.18253 0.07775 0.70439 0.0
H128 H 0.22495 0.06818 0.7287 0.0
H129 H 0.17362 0.13755 0.85469 0.0
H130 H 0.25031 0.13855 0.65778 0.0
H131 H 0.26531 0.15416 0.79492 0.0
C132 C 0.94975 0.13988 0.75018 0.0
C133 C 0.96281 0.15296 0.72455 0.0
N134 N 0.96902 0.14525 0.69647 0.0
N135 N 0.94765 0.12403 0.73795 0.0
C136 C 0.95965 0.12767 0.70539 0.0
H137 H 0.94221 0.14172 0.77624 0.0
Co138 Co 0.93177 0.10343 0.76598 0.0
C139 C 0.91622 0.07746 0.688 0.0
O140 O 0.90064 0.07508 0.70021 0.0
N141 N 0.91612 0.0832 0.79783 0.0
C142 C 0.89975 0.05681 0.83033 0.0
C143 C 0.90809 0.06545 0.79135 0.0
C144 C 0.91313 0.08491 0.84113 0.0
N145 N 0.90312 0.06922 0.86143 0.0
O146 O 0.9522 0.10225 0.79483 0.0
H147 H 0.90903 0.05897 0.76168 0.0
H148 H 0.91846 0.09756 0.8579 0.0
O149 O 0.93023 0.08814 0.71108 0.0
C150 C 0.95777 0.11205 0.83021 0.0
O151 O 0.95008 0.12131 0.8405 0.0
N152 N 0.91264 0.10688 0.74347 0.0
C153 C 0.89057 0.12118 0.72018 0.0
C154 C 0.90112 0.11901 0.68794 0.0
C155 C 0.91216 0.11206 0.7003 0.0
C156 C 0.90212 0.10857 0.77476 0.0
C157 C 0.89091 0.11532 0.76379 0.0
H158 H 0.92108 0.11178 0.67557 0.0
H159 H 0.90311 0.10588 0.8094 0.0
H160 H 0.96135 0.11764 0.68838 0.0
H161 H 0.96755 0.16706 0.72684 0.0
H162 H 0.89269 0.04261 0.83612 0.0
H163 H 0.90164 0.12357 0.65392 0.0
H164 H 0.883 0.11651 0.79003 0.0
C165 C 0.89641 0.83411 0.77465 0.0
C166 C 0.88279 0.83304 0.74882 0.0
N167 N 0.88671 0.83231 0.70559 0.0
N168 N 0.90893 0.83428 0.74785 0.0
C169 C 0.90272 0.83319 0.70601 0.0
H170 H 0.89687 0.83418 0.81077 0.0
Co171 Co 0.92817 0.83298 0.7684 0.0
C172 C 0.95425 0.84286 0.69062 0.0
O173 O 0.9564 0.82958 0.70363 0.0
N174 N 0.94747 0.83144 0.79111 0.0
C175 C 0.96485 0.82117 0.81572 0.0
C176 C 0.94765 0.81695 0.80712 0.0
C177 C 0.96469 0.84451 0.79229 0.0
N178 N 0.97553 0.83843 0.80584 0.0
O179 O 0.93571 0.85549 0.80216 0.0
H180 H 0.9362 0.80399 0.8121 0.0
H181 H 0.96925 0.85802 0.78144 0.0
O182 O 0.94316 0.84602 0.71224 0.0
C183 C 0.93204 0.8529 0.84424 0.0
O184 O 0.92709 0.83703 0.8605 0.0
N185 N 0.91815 0.80981 0.74193 0.0
C186 C 0.89898 0.77336 0.72011 0.0
C187 C 0.90922 0.78627 0.68779 0.0
C188 C 0.91831 0.80445 0.69902 0.0
C189 C 0.90736 0.79751 0.77269 0.0
C190 C 0.89798 0.77935 0.76289 0.0
H191 H 0.92492 0.81399 0.67269 0.0
H192 H 0.90636 0.80187 0.80583 0.0
H193 H 0.90947 0.83224 0.67673 0.0
H194 H 0.8709 0.83268 0.76111 0.0
H195 H 0.96916 0.81229 0.82884 0.0
H196 H 0.9098 0.78241 0.65374 0.0
H197 H 0.89021 0.77008 0.78906 0.0
C198 C 0.74675 0.53389 0.60708 0.0
C199 C 0.73438 0.53268 0.63767 0.0
N200 N 0.73224 0.52039 0.66845 0.0
N201 N 0.7525 0.52263 0.61917 0.0
C202 C 0.7431 0.51428 0.65595 0.0
H203 H 0.75219 0.54329 0.57975 0.0
Co204 Co 0.77176 0.52231 0.59459 0.0
C205 C 0.78256 0.51129 0.68386 0.0
O206 O 0.79405 0.5279 0.69302 0.0
N207 N 0.79113 0.5219 0.56882 0.0
C208 C 0.81775 0.52466 0.55807 0.0
C209 C 0.80539 0.52259 0.58936 0.0
C210 C 0.79514 0.52346 0.52489 0.0
N211 N 0.81136 0.52541 0.51759 0.0
O212 O 0.75479 0.50059 0.56048 0.0
H213 H 0.80741 0.52258 0.62479 0.0
H214 H 0.78686 0.52433 0.49902 0.0
O215 O 0.77325 0.50747 0.64738 0.0
C216 C 0.74942 0.50458 0.52418 0.0
O217 O 0.75616 0.52147 0.5142 0.0
N218 N 0.78755 0.54538 0.6214 0.0
C219 C 0.80705 0.58189 0.6447 0.0
C220 C 0.7944 0.56916 0.67397 0.0
C221 C 0.78463 0.55115 0.66145 0.0
C222 C 0.79949 0.55778 0.59229 0.0
C223 C 0.80949 0.5758 0.60344 0.0
H224 H 0.77449 0.54193 0.68399 0.0
H225 H 0.80072 0.5541 0.55872 0.0
H226 H 0.74537 0.50514 0.67574 0.0
H227 H 0.72824 0.54089 0.63872 0.0
H228 H 0.83057 0.52583 0.56475 0.0
H229 H 0.79181 0.57306 0.70613 0.0
H230 H 0.81841 0.58502 0.57861 0.0
C231 C 0.49986 0.22455 0.59234 0.0
C232 C 0.49911 0.21207 0.6222 0.0
N233 N 0.50634 0.22037 0.66107 0.0
N234 N 0.50747 0.24052 0.61255 0.0
C235 C 0.51124 0.23756 0.65429 0.0
H236 H 0.49502 0.22217 0.55824 0.0
Co237 Co 0.51057 0.26116 0.58746 0.0
C238 C 0.52267 0.28822 0.66236 0.0
O239 O 0.51092 0.29236 0.64746 0.0
N240 N 0.51394 0.28219 0.56117 0.0
C241 C 0.52764 0.31083 0.54256 0.0
C242 C 0.5298 0.29747 0.56067 0.0
C243 C 0.50251 0.28646 0.54143 0.0
N244 N 0.51047 0.30381 0.53079 0.0
O245 O 0.53231 0.26413 0.55667 0.0
H246 H 0.5421 0.29888 0.57374 0.0
H247 H 0.48861 0.27731 0.53506 0.0
O248 O 0.52423 0.27581 0.64267 0.0
C249 C 0.52878 0.2591 0.51557 0.0
O250 O 0.51291 0.25486 0.50031 0.0
N251 N 0.48789 0.25558 0.61117 0.0
C252 C 0.4514 0.23941 0.63314 0.0
C253 C 0.46469 0.2471 0.66634 0.0
C254 C 0.48282 0.25472 0.65485 0.0
C255 C 0.47511 0.24767 0.57901 0.0
C256 C 0.45699 0.23993 0.58892 0.0
H257 H 0.49255 0.25904 0.68141 0.0
H258 H 0.47905 0.24697 0.54514 0.0
H259 H 0.51698 0.24767 0.67979 0.0
H260 H 0.49379 0.19807 0.61575 0.0
H261 H 0.5379 0.32453 0.53753 0.0
H262 H 0.46109 0.24647 0.7012 0.0
H263 H 0.44743 0.23415 0.56195 0.0
C264 C 0.80631 0.28015 0.59199 0.0
C265 C 0.81764 0.29027 0.62578 0.0
N266 N 0.80838 0.2857 0.66431 0.0
N267 N 0.79008 0.26934 0.60939 0.0
C268 C 0.79174 0.27302 0.6534 0.0
H269 H 0.80974 0.28033 0.5572 0.0
Co270 Co 0.77098 0.2519 0.57899 0.0
C271 C 0.74095 0.23427 0.6465 0.0
O272 O 0.73771 0.21914 0.62867 0.0
N273 N 0.7516 0.23433 0.54715 0.0
C274 C 0.72423 0.21883 0.51909 0.0
C275 C 0.7358 0.23378 0.54252 0.0
C276 C 0.74954 0.21999 0.52448 0.0
N277 N 0.73296 0.21025 0.50807 0.0
O278 O 0.76794 0.27059 0.54741 0.0
H279 H 0.73281 0.24353 0.55601 0.0
H280 H 0.75981 0.2166 0.51969 0.0
O281 O 0.75401 0.24889 0.63092 0.0
C282 C 0.77412 0.27286 0.50725 0.0
O283 O 0.7798 0.26221 0.49348 0.0
N284 N 0.77677 0.23497 0.60352 0.0
C285 C 0.79255 0.21436 0.62691 0.0
C286 C 0.7829 0.2182 0.65847 0.0
C287 C 0.77535 0.22875 0.64634 0.0
C288 C 0.78686 0.23212 0.57345 0.0
C289 C 0.7945 0.22167 0.58397 0.0
H290 H 0.76903 0.23236 0.67196 0.0
H291 H 0.78927 0.23833 0.54082 0.0
H292 H 0.7812 0.26602 0.67742 0.0
H293 H 0.83158 0.30013 0.62229 0.0
H294 H 0.71064 0.21479 0.50981 0.0
H295 H 0.78135 0.21326 0.69242 0.0
H296 H 0.80241 0.21987 0.55885 0.0
C297 C 0.88105 0.4113 0.08882 0.0
C298 C 0.87997 0.39589 0.07385 0.0
N299 N 0.86436 0.38644 0.05213 0.0
N300 N 0.86635 0.41173 0.07602 0.0
C301 C 0.85617 0.39619 0.05495 0.0
H302 H 0.89195 0.42165 0.10762 0.0
Co303 Co 0.86242 0.43008 0.09051 0.0
C304 C 0.84446 0.42281 0.99315 0.0
O305 O 0.85071 0.41317 0.9757 0.0
N306 N 0.85894 0.44877 0.10575 0.0
C307 C 0.85871 0.47413 0.0999 0.0
C308 C 0.85914 0.46082 0.07671 0.0
C309 C 0.8587 0.45519 0.14647 0.0
N310 N 0.85862 0.47069 0.14386 0.0
O311 O 0.84084 0.41272 0.12448 0.0
H312 H 0.86059 0.46059 0.04089 0.0
H313 H 0.85966 0.44916 0.17728 0.0
O314 O 0.84845 0.42816 0.03386 0.0
C315 C 0.84513 0.41023 0.16412 0.0
O316 O 0.86188 0.41991 0.17623 0.0
N317 N 0.88463 0.44663 0.06391 0.0
C318 C 0.92075 0.46829 0.0408 0.0
C319 C 0.9081 0.45708 1.00908 0.0
C320 C 0.89011 0.44633 0.0213 0.0
C321 C 0.8967 0.45761 0.09484 0.0
C322 C 0.91465 0.4686 0.08399 0.0
H323 H 0.88093 0.4372 0.99714 0.0
H324 H 0.89254 0.45723 0.12905 0.0
H325 H 0.84316 0.39227 0.0413 0.0
H326 H 0.89003 0.3921 0.0782 0.0
H327 H 0.85891 0.48564 0.0853 0.0
H328 H 0.9121 0.45632 0.97529 0.0
H329 H 0.92382 0.47662 0.11007 0.0
C330 C 0.61055 0.47021 0.08709 0.0
C331 C 0.62692 0.48243 0.07062 0.0
N332 N 0.63621 0.47408 0.06261 0.0
N333 N 0.60932 0.45412 0.08853 0.0
C334 C 0.62534 0.45701 0.07483 0.0
H335 H 0.60018 0.47293 0.09703 0.0
Co336 Co 0.59039 0.4335 0.11087 0.0
C337 C 0.59554 0.42025 0.01734 0.0
O338 O 0.60581 0.43635 1.00162 0.0
N339 N 0.57137 0.41327 0.13446 0.0
C340 C 0.54425 0.38986 0.14124 0.0
C341 C 0.55764 0.40013 0.11176 0.0
C342 C 0.56612 0.41072 0.17745 0.0
N343 N 0.54962 0.39665 0.18243 0.0
O344 O 0.60771 0.42929 0.1459 0.0
H345 H 0.55678 0.39887 0.07577 0.0
H346 H 0.5736 0.41982 0.20405 0.0
O347 O 0.58977 0.41832 0.05782 0.0
C348 C 0.61229 0.4383 0.18254 0.0
O349 O 0.60477 0.44784 0.1916 0.0
N350 N 0.57391 0.43925 0.08321 0.0
C351 C 0.55195 0.45317 0.05725 0.0
C352 C 0.56028 0.44793 0.0252 0.0
C353 C 0.57115 0.44094 0.03883 0.0
C354 C 0.56576 0.44411 0.1146 0.0
C355 C 0.5547 0.4509 0.10249 0.0
H356 H 0.57768 0.43752 0.01356 0.0
H357 H 0.56843 0.44336 0.14965 0.0
H358 H 0.62877 0.44663 0.07305 0.0
H359 H 0.63128 0.49621 0.06327 0.0
H360 H 0.53134 0.37869 0.13287 0.0
H361 H 0.55854 0.44936 0.98984 0.0
H362 H 0.54894 0.45503 0.1286 0.0
C363 C 0.56322 0.15354 0.10874 0.0
C364 C 0.55001 0.15345 0.08302 0.0
N365 N 0.55777 0.16465 0.04844 0.0
N366 N 0.57914 0.16457 0.09006 0.0
C367 C 0.57545 0.17126 0.05351 0.0
H368 H 0.5614 0.14601 0.1391 0.0
Co369 Co 0.60031 0.16821 0.11314 0.0
C370 C 0.62732 0.18139 0.03794 0.0
O371 O 0.63259 0.17062 0.05361 0.0
N372 N 0.6217 0.17191 0.13829 0.0
C373 C 0.64964 0.18592 0.16287 0.0
C374 C 0.63651 0.18796 0.14264 0.0
C375 C 0.6261 0.16038 0.15669 0.0
N376 N 0.64305 0.16852 0.17165 0.0
O377 O 0.60313 0.1898 0.14421 0.0
H378 H 0.63766 0.20039 0.13182 0.0
H379 H 0.61718 0.14629 0.15944 0.0
O380 O 0.61421 0.18192 0.05713 0.0
C381 C 0.59799 0.1862 0.18522 0.0
O382 O 0.59361 0.17029 0.20023 0.0
N383 N 0.59493 0.14573 0.08892 0.0
C384 C 0.57816 0.10951 0.06541 0.0
C385 C 0.58641 0.12292 0.03283 0.0
C386 C 0.5943 0.14096 0.04507 0.0
C387 C 0.58677 0.1328 0.1206 0.0
C388 C 0.57856 0.11477 0.10982 0.0
H389 H 0.59891 0.15083 0.0189 0.0
H390 H 0.58608 0.13655 0.15467 0.0
H391 H 0.58543 0.18056 0.03069 0.0
H392 H 0.53585 0.14596 0.08952 0.0
H393 H 0.66279 0.19652 0.17188 0.0
H394 H 0.58591 0.11949 0.99789 0.0
H395 H 0.57226 0.10499 0.13613 0.0
C396 C 0.4234 0.87466 0.91466 0.0
C397 C 0.40782 0.87272 0.93149 0.0
N398 N 0.40133 0.85927 0.96132 0.0
N399 N 0.42674 0.86259 0.93403 0.0
C400 C 0.41303 0.85328 0.96203 0.0
H401 H 0.43187 0.88432 0.89001 0.0
Co402 Co 0.44607 0.86032 0.91974 0.0
C403 C 0.45003 0.84748 0.01477 0.0
O404 O 0.46059 0.86379 0.02818 0.0
N405 N 0.46559 0.85804 0.90373 0.0
C406 C 0.49133 0.85824 0.90438 0.0
C407 C 0.47808 0.85773 0.9303 0.0
C408 C 0.47158 0.85878 0.86185 0.0
N409 N 0.4873 0.85908 0.86128 0.0
O410 O 0.42969 0.83915 0.88284 0.0
H411 H 0.47832 0.85815 0.96624 0.0
H412 H 0.46512 0.86026 0.83252 0.0
O413 O 0.44326 0.84465 0.9749 0.0
C414 C 0.42682 0.84375 0.84395 0.0
O415 O 0.43578 0.86069 0.83339 0.0
N416 N 0.4616 0.88284 0.9491 0.0
C417 C 0.4817 0.91909 0.97452 0.0
C418 C 0.46679 0.9068 0.99932 0.0
C419 C 0.45675 0.88899 0.98552 0.0
C420 C 0.47585 0.89476 0.92426 0.0
C421 C 0.48609 0.91264 0.93655 0.0
H422 H 0.44479 0.88022 1.00388 0.0
H423 H 0.47888 0.89087 0.89281 0.0
H424 H 0.4119 0.84264 0.98323 0.0
H425 H 0.40177 0.8806 0.92243 0.0
H426 H 0.50318 0.85839 0.91654 0.0
H427 H 0.46261 0.91091 0.02881 0.0
H428 H 0.49685 0.9215 0.91475 0.0
C429 C 0.17061 0.55719 0.92598 0.0
C430 C 0.17098 0.54609 0.95837 0.0
N431 N 0.17433 0.55454 0.9979 0.0
N432 N 0.17371 0.57246 0.94527 0.0
C433 C 0.17596 0.5705 0.98903 0.0
H434 H 0.16769 0.55415 0.89088 0.0
Co435 Co 0.17185 0.59011 0.91671 0.0
C436 C 0.18164 0.61946 0.98488 0.0
O437 O 0.16796 0.6203 0.96862 0.0
N438 N 0.16984 0.60791 0.88628 0.0
C439 C 0.1598 0.62445 0.85467 0.0
C440 C 0.15533 0.60765 0.86847 0.0
C441 C 0.1831 0.62484 0.88092 0.0
N442 N 0.17721 0.63524 0.86307 0.0
O443 O 0.19406 0.59627 0.88308 0.0
H444 H 0.14216 0.59625 0.86626 0.0
H445 H 0.1966 0.62967 0.89249 0.0
O446 O 0.18515 0.60779 0.96836 0.0
C447 C 0.19042 0.59003 0.84297 0.0
O448 O 0.17381 0.58292 0.82947 0.0
N449 N 0.14892 0.5812 0.94348 0.0
C450 C 0.1126 0.56238 0.96726 0.0
C451 C 0.12572 0.57364 0.99805 0.0
C452 C 0.14386 0.58258 0.98591 0.0
C453 C 0.13645 0.5695 0.91443 0.0
C454 C 0.11836 0.56032 0.9251 0.0
H455 H 0.15366 0.59011 1.01111 0.0
H456 H 0.14063 0.56752 0.88197 0.0
H457 H 0.17785 0.58017 0.01427 0.0
H458 H 0.16878 0.53281 0.95335 0.0
H459 H 0.15094 0.62846 0.83974 0.0
H460 H 0.12207 0.57513 0.03166 0.0
H461 H 0.10895 0.5518 0.90003 0.0
C462 C 0.47122 0.61463 0.91645 0.0
C463 C 0.48291 0.62499 0.94937 0.0
N464 N 0.47401 0.62079 0.98842 0.0
N465 N 0.45515 0.60405 0.93494 0.0
C466 C 0.45724 0.60809 0.97871 0.0
H467 H 0.47431 0.61445 0.88153 0.0
Co468 Co 0.43588 0.58635 0.90586 0.0
C469 C 0.40605 0.56948 0.97437 0.0
O470 O 0.40233 0.55408 0.95739 0.0
N471 N 0.41642 0.56848 0.87504 0.0
C472 C 0.38919 0.55238 0.84659 0.0
C473 C 0.40038 0.56741 0.87036 0.0
C474 C 0.41488 0.55442 0.85208 0.0
N475 N 0.3984 0.54431 0.83545 0.0
O476 O 0.43266 0.60476 0.87357 0.0
H477 H 0.39703 0.57692 0.88371 0.0
H478 H 0.42551 0.55159 0.84675 0.0
O479 O 0.41923 0.58384 0.95803 0.0
C480 C 0.43868 0.60688 0.83329 0.0
O481 O 0.44412 0.59606 0.81937 0.0
N482 N 0.44181 0.56969 0.93131 0.0
C483 C 0.45837 0.54993 0.95621 0.0
C484 C 0.44821 0.55337 0.98708 0.0
C485 C 0.44031 0.56355 0.97424 0.0
C486 C 0.45212 0.56696 0.90168 0.0
C487 C 0.46007 0.55688 0.91288 0.0
H488 H 0.43381 0.56709 0.99953 0.0
H489 H 0.45443 0.57298 0.86883 0.0
H490 H 0.44693 0.6013 1.00343 0.0
H491 H 0.49683 0.63473 0.94499 0.0
H492 H 0.37557 0.54804 0.83685 0.0
H493 H 0.44696 0.5489 0.02141 0.0
H494 H 0.46766 0.55472 0.88751 0.0
C495 C 0.54574 0.74284 0.42626 0.0
C496 C 0.54414 0.72772 0.40748 0.0
N497 N 0.53102 0.72182 0.37678 0.0
N498 N 0.53384 0.74651 0.40703 0.0
C499 C 0.52488 0.73337 0.37739 0.0
H500 H 0.5552 0.75091 0.45173 0.0
Co501 Co 0.53185 0.7659 0.4222 0.0
C502 C 0.52059 0.77133 0.32666 0.0
O503 O 0.5372 0.78155 0.31481 0.0
N504 N 0.5298 0.78541 0.43924 0.0
C505 C 0.53071 0.81143 0.44017 0.0
C506 C 0.52959 0.79813 0.41346 0.0
C507 C 0.53096 0.79125 0.48144 0.0
N508 N 0.53178 0.80716 0.48291 0.0
O509 O 0.51006 0.74947 0.45703 0.0
H510 H 0.52978 0.79854 0.37751 0.0
H511 H 0.53259 0.78465 0.51025 0.0
O512 O 0.517 0.76413 0.36607 0.0
C513 C 0.51393 0.746 0.49614 0.0
O514 O 0.53074 0.75436 0.50832 0.0
N515 N 0.55494 0.78146 0.39469 0.0
C516 C 0.59163 0.80096 0.3724 0.0
C517 C 0.57954 0.78622 0.34702 0.0
C518 C 0.56145 0.77655 0.35905 0.0
C519 C 0.56671 0.79565 0.41995 0.0
C520 C 0.58481 0.80565 0.40904 0.0
H521 H 0.55277 0.7648 0.34002 0.0
H522 H 0.56257 0.79881 0.45078 0.0
H523 H 0.51452 0.73263 0.35562 0.0
H524 H 0.55209 0.72164 0.41549 0.0
H525 H 0.53124 0.82353 0.42879 0.0
H526 H 0.58403 0.7819 0.3185 0.0
H527 H 0.59355 0.81641 0.43096 0.0
C528 C 0.28878 0.80559 0.41444 0.0
C529 C 0.29846 0.81656 0.37974 0.0
N530 N 0.29735 0.80629 0.34489 0.0
N531 N 0.28164 0.78857 0.40133 0.0
C532 C 0.28718 0.78939 0.35898 0.0
H533 H 0.28654 0.80972 0.44667 0.0
Co534 Co 0.26579 0.76953 0.43484 0.0
C535 C 0.24637 0.74024 0.36677 0.0
O536 O 0.2317 0.73777 0.38606 0.0
N537 N 0.25024 0.7506 0.47099 0.0
C538 C 0.24053 0.72567 0.51042 0.0
C539 C 0.24753 0.73385 0.47026 0.0
C540 C 0.24514 0.75232 0.51237 0.0
N541 N 0.23921 0.73742 0.53686 0.0
O542 O 0.28588 0.76752 0.46174 0.0
H543 H 0.25224 0.7285 0.44462 0.0
H544 H 0.24809 0.76485 0.52686 0.0
O545 O 0.26154 0.75221 0.38283 0.0
C546 C 0.29101 0.77627 0.49876 0.0
O547 O 0.28293 0.78486 0.5117 0.0
N548 N 0.24725 0.77401 0.41405 0.0
C549 C 0.22585 0.78907 0.39102 0.0
C550 C 0.23203 0.78191 0.35816 0.0
C551 C 0.243 0.77483 0.37019 0.0
C552 C 0.24153 0.78118 0.446 0.0
C553 C 0.23065 0.78836 0.43552 0.0
H554 H 0.24879 0.77094 0.3438 0.0
H555 H 0.24646 0.78266 0.47964 0.0
H556 H 0.28311 0.77789 0.33801 0.0
H557 H 0.30553 0.83094 0.37996 0.0
H558 H 0.23814 0.7127 0.52075 0.0
H559 H 0.22924 0.78265 0.32313 0.0
H560 H 0.2265 0.79385 0.46225 0.0
C561 C 0.23053 0.4877 0.44208 0.0
C562 C 0.21688 0.48783 0.41897 0.0
N563 N 0.22407 0.50009 0.38628 0.0
N564 N 0.24616 0.49963 0.42352 0.0
C565 C 0.24186 0.5071 0.38979 0.0
H566 H 0.22921 0.47951 0.47076 0.0
Co567 Co 0.26769 0.50379 0.44494 0.0
C568 C 0.29402 0.51683 0.36875 0.0
O569 O 0.29937 0.50616 0.38465 0.0
N570 N 0.28954 0.50807 0.46881 0.0
C571 C 0.31762 0.52266 0.49251 0.0
C572 C 0.304 0.52433 0.4739 0.0
C573 C 0.29472 0.49678 0.48486 0.0
N574 N 0.31173 0.50525 0.49934 0.0
O575 O 0.2703 0.52533 0.47572 0.0
H576 H 0.3046 0.53668 0.46464 0.0
H577 H 0.28638 0.48258 0.48595 0.0
O578 O 0.28094 0.51739 0.38807 0.0
C579 C 0.26556 0.52201 0.51703 0.0
O580 O 0.26186 0.50642 0.53301 0.0
N581 N 0.26251 0.48138 0.42068 0.0
C582 C 0.2461 0.44515 0.39683 0.0
C583 C 0.25293 0.45864 0.36404 0.0
C584 C 0.26077 0.47664 0.37657 0.0
C585 C 0.25552 0.46841 0.45261 0.0
C586 C 0.24778 0.45043 0.44171 0.0
H587 H 0.26438 0.48651 0.3506 0.0
H588 H 0.25554 0.47207 0.48716 0.0
H589 H 0.25151 0.51733 0.36801 0.0
H590 H 0.2028 0.47977 0.42602 0.0
H591 H 0.33063 0.53347 0.50166 0.0
H592 H 0.25142 0.45533 0.32884 0.0
H593 H 0.24284 0.44075 0.46855 0.0
C594 C 0.21218 0.14132 0.9448 0.0
C595 C 0.19603 0.13499 0.92154 0.0
C596 C 0.2125 0.14163 0.99145 0.0
C597 C 0.18362 0.12584 0.09181 0.0
H598 H 0.21043 0.17517 0.12739 0.0
C599 C 0.15212 0.15895 0.17643 0.0
C600 C 0.1624 0.17609 0.19366 0.0
C601 C 0.16017 0.1491 0.16483 0.0
C602 C 0.20325 0.16116 0.11943 0.0
H603 H 0.16746 0.12311 0.9284 0.0
H604 H 0.16797 0.12402 1.00979 0.0
H605 H 0.21807 0.16598 0.05924 0.0
H606 H 0.18834 0.19542 0.21905 0.0
H607 H 0.20248 0.17804 0.19988 0.0
H608 H 0.16797 0.1213 0.15061 0.0
C609 C 0.18039 0.12856 0.99212 0.0
C610 C 0.20767 0.1559 0.07991 0.0
C611 C 0.18012 0.12845 0.94558 0.0
C612 C 0.18035 0.18241 0.2043 0.0
C613 C 0.18836 0.17241 0.19357 0.0
C614 C 0.17934 0.13105 0.13177 0.0
C615 C 0.1966 0.13537 0.01549 0.0
C616 C 0.19687 0.13859 0.06392 0.0
C617 C 0.17865 0.1562 0.17079 0.0
C618 C 0.18799 0.14912 0.14353 0.0
H619 H 0.22458 0.14627 0.92674 0.0
H620 H 0.22516 0.1471 1.00872 0.0
H621 H 0.17542 0.11226 0.08058 0.0
H622 H 0.1382 0.1538 0.16842 0.0
H623 H 0.15216 0.13674 0.14719 0.0
C624 C 0.91094 0.07761 0.94017 0.0
C625 C 0.89853 0.06663 0.90784 0.0
C626 C 0.90674 0.07482 0.98552 0.0
C627 C 0.86994 0.05258 0.06503 0.0
H628 H 0.89817 0.03441 0.12063 0.0
C629 C 0.86396 0.99523 0.19593 0.0
C630 C 0.8479 0.98188 0.17731 0.0
C631 C 0.87168 0.01272 0.18031 0.0
C632 C 0.89044 0.04001 0.10689 0.0
H633 H 0.87191 0.04474 0.89681 0.0
H634 H 0.8644 0.03982 0.97635 0.0
H635 H 0.90969 0.05369 0.05567 0.0
H636 H 0.82704 0.97664 0.12918 0.0
H637 H 0.84033 1.00669 0.10211 0.0
H638 H 0.85015 0.03788 0.11433 0.0
C639 C 0.87734 0.05064 0.96657 0.0
C640 C 0.89704 0.05101 0.06948 0.0
C641 C 0.88167 0.05322 0.92131 0.0
C642 C 0.83928 0.98655 0.14466 0.0
C643 C 0.84688 1.00393 0.12935 0.0
C644 C 0.86346 0.04182 0.10286 0.0
C645 C 0.88994 0.06125 0.99901 0.0
C646 C 0.88621 0.05615 0.04637 0.0
C647 C 0.86339 0.01713 0.14608 0.0
C648 C 0.87299 0.03416 0.12154 0.0
H649 H 0.92408 0.08797 0.93037 0.0
H650 H 0.91671 0.08295 1.01005 0.0
H651 H 0.86153 0.0567 0.04798 0.0
H652 H 0.87071 0.99214 0.22195 0.0
H653 H 0.8844 0.02265 0.19383 0.0
C654 C 0.07344 0.87127 0.07797 0.0
C655 C 0.07369 0.8861 0.09687 0.0
C656 C 0.07145 0.86859 0.03184 0.0
C657 C 0.06677 0.88909 0.92478 0.0
H658 H 0.03181 0.84008 0.90005 0.0
C659 C 1.00289 0.8653 0.82932 0.0
C660 C 0.99449 0.84816 0.81115 0.0
C661 C 0.02027 0.87278 0.84566 0.0
C662 C 0.04197 0.85378 0.90554 0.0
H663 H 0.07275 0.91007 0.08355 0.0
H664 H 0.06782 0.90485 1.00362 0.0
H665 H 0.04814 0.84728 0.96907 0.0
H666 H 0.9983 0.82663 0.78878 0.0
H667 H 0.02868 0.83966 0.81739 0.0
H668 H 0.05881 0.89553 0.86266 0.0
C669 C 0.06994 0.89559 0.02338 0.0
C670 C 0.05144 0.85797 0.9455 0.0
C671 C 0.07245 0.89849 0.06925 0.0
C672 C 1.00443 0.83966 0.80395 0.0
C673 C 0.02181 0.84717 0.81991 0.0
C674 C 0.05698 0.8849 0.88502 0.0
C675 C 0.06909 0.88042 1.00407 0.0
C676 C 0.06319 0.87578 0.95686 0.0
C677 C 0.02939 0.86318 0.84379 0.0
C678 C 0.04382 0.86729 0.87629 0.0
H679 H 0.07488 0.86186 0.09893 0.0
H680 H 0.07133 0.85701 0.01819 0.0
H681 H 0.07622 0.90289 0.93166 0.0
H682 H 0.99549 0.87213 0.83487 0.0
H683 H 0.02574 0.88513 0.86403 0.0
C684 C 0.88553 0.91779 0.15311 0.0
C685 C 0.87322 0.92298 0.13913 0.0
C686 C 0.89427 0.91261 0.12159 0.0
C687 C 0.90428 0.91327 0.99763 0.0
H688 H 0.90854 0.87209 0.02663 0.0
C689 C 0.9222 0.87564 0.86104 0.0
C690 C 0.93033 0.8658 0.87472 0.0
C691 C 0.91695 0.88425 0.89277 0.0
C692 C 0.90786 0.88382 0.01771 0.0
H693 H 0.86108 0.92717 0.08037 0.0
H694 H 0.8764 0.91872 0.02623 0.0
H695 H 0.89738 0.88435 0.08238 0.0
H696 H 0.93985 0.85811 0.9329 0.0
H697 H 0.93176 0.8736 0.98709 0.0
H698 H 0.91478 0.9128 0.93297 0.0
C699 C 0.87946 0.91861 0.06132 0.0
C700 C 0.90133 0.8909 0.05018 0.0
C701 C 0.87061 0.92353 0.09266 0.0
C702 C 0.93372 0.86558 0.9208 0.0
C703 C 0.92873 0.8743 0.95226 0.0
C704 C 0.91095 0.90627 0.96521 0.0
C705 C 0.89117 0.91263 0.07499 0.0
C706 C 0.89928 0.90572 0.04083 0.0
C707 C 0.91972 0.88341 0.93933 0.0
C708 C 0.91284 0.89132 0.97437 0.0
H709 H 0.88766 0.91679 0.18846 0.0
H710 H 0.90327 0.90829 0.13389 0.0
H711 H 0.90319 0.92479 0.98876 0.0
H712 H 0.91893 0.8758 0.82611 0.0
H713 H 0.90999 0.89089 0.88071 0.0
C714 C 0.15804 0.05286 0.86128 0.0
C715 C 0.17264 0.06948 0.87299 0.0
C716 C 0.14885 0.03953 0.89427 0.0
C717 C 0.14325 0.03245 0.02036 0.0
H718 H 0.12851 0.98351 0.99286 0.0
C719 C 0.12744 0.9794 0.16119 0.0
C720 C 0.11509 0.96136 0.15338 0.0
C721 C 0.13201 0.99235 0.12729 0.0
C722 C 0.13226 0.99704 1.00135 0.0
H723 H 0.18849 0.08503 0.92922 0.0
H724 H 0.17272 0.06241 0.9856 0.0
H725 H 0.14033 1.00595 0.93371 0.0
H726 H 0.09825 0.94295 0.10259 0.0
H727 H 0.10565 0.96539 0.04402 0.0
H728 H 0.1354 0.02367 0.08796 0.0
C729 C 0.16807 0.0594 0.95138 0.0
C730 C 0.1391 1.01004 0.96702 0.0
C731 C 0.17725 0.0725 0.91868 0.0
C732 C 0.10726 0.95677 0.11057 0.0
C733 C 0.11187 0.9697 0.0765 0.0
C734 C 0.13642 0.01949 0.0546 0.0
C735 C 0.15385 0.04248 0.94004 0.0
C736 C 0.14501 0.0281 0.97588 0.0
C737 C 0.12467 0.98775 0.08377 0.0
C738 C 0.13097 1.00151 0.0461 0.0
H739 H 0.15424 0.04985 0.8265 0.0
H740 H 0.13793 0.02682 0.88374 0.0
H741 H 0.14717 0.04601 0.02903 0.0
H742 H 0.13437 0.98338 0.19296 0.0
H743 H 0.14211 1.00588 0.13473 0.0
C744 C 0.96848 0.11299 0.90881 0.0
C745 C 0.97164 0.11296 0.86258 0.0
C746 C 0.98198 0.11732 0.94083 0.0
C747 C 0.03143 0.14293 0.95479 0.0
H748 H 0.02134 0.12062 0.07174 0.0
C749 C 0.08781 0.16675 0.08904 0.0
C750 C 0.08377 0.16613 0.13485 0.0
C751 C 0.07438 0.15841 0.05642 0.0
C752 C 0.02451 0.12728 0.03963 0.0
H753 H 0.99206 0.1177 0.81432 0.0
H754 H 1.01583 0.12536 0.87023 0.0
H755 H 0.99823 0.10952 0.01433 0.0
H756 H 0.06194 0.15594 0.18172 0.0
H757 H 0.03841 0.14159 0.12516 0.0
H758 H 0.05743 0.16106 0.98008 0.0
C759 C 1.00264 0.12181 0.88175 0.0
C760 C 1.01112 0.12077 1.00625 0.0
C761 C 0.98891 0.11713 0.8495 0.0
C762 C 0.06568 0.15635 0.14705 0.0
C763 C 0.05211 0.14817 0.11416 0.0
C764 C 0.04476 0.14955 0.98825 0.0
C765 C 0.99948 0.12222 0.92812 0.0
C766 C 1.01425 0.12849 0.96311 0.0
C767 C 0.05614 0.14937 0.06785 0.0
C768 C 0.04167 0.14192 0.0316 0.0
H769 H 0.95552 0.11025 0.92036 0.0
H770 H 0.97881 0.11762 0.97568 0.0
H771 H 0.03447 0.14957 0.92263 0.0
H772 H 0.10153 0.17424 0.07807 0.0
H773 H 0.07846 0.15938 0.02192 0.0
C774 C 0.81067 0.52117 0.43615 0.0
C775 C 0.82039 0.5283 0.47567 0.0
C776 C 0.81947 0.522 0.39655 0.0
C777 C 0.85826 0.52014 0.36472 0.0
H778 H 0.84239 0.5224 0.24465 0.0
C779 C 0.86525 0.49998 0.1729 0.0
C780 C 0.85939 0.48185 0.18018 0.0
C781 C 0.86509 0.51056 0.20755 0.0
C782 C 0.84725 0.52209 0.2779 0.0
H783 H 0.84693 0.54353 0.50387 0.0
H784 H 0.86229 0.54465 0.4348 0.0
H785 H 0.83334 0.53412 0.30722 0.0
H786 H 0.84923 0.46083 0.23005 0.0
H787 H 0.84928 0.47941 0.29059 0.0
H788 H 0.87124 0.50714 0.33581 0.0
C789 C 0.84789 0.53824 0.43466 0.0
C790 C 0.842 0.52868 0.31358 0.0
C791 C 0.83909 0.53744 0.47418 0.0
C792 C 0.85401 0.47473 0.22329 0.0
C793 C 0.85406 0.48537 0.25801 0.0
C794 C 0.86336 0.51342 0.32915 0.0
C795 C 0.83812 0.52999 0.39595 0.0
C796 C 0.84691 0.52713 0.35743 0.0
C797 C 0.85935 0.50328 0.2502 0.0
C798 C 0.8573 0.51372 0.28581 0.0
H799 H 0.79626 0.51405 0.43636 0.0
H800 H 0.81161 0.51534 0.36724 0.0
H801 H 0.86211 0.51865 0.39826 0.0
H802 H 0.86991 0.50606 0.14047 0.0
H803 H 0.86929 0.52438 0.20096 0.0
C804 C 0.54798 0.39273 0.26386 0.0
C805 C 0.53943 0.39112 0.2229 0.0
C806 C 0.53814 0.38665 0.30307 0.0
C807 C 0.51638 0.37666 0.38565 0.0
H808 H 0.4759 0.32922 0.37393 0.0
C809 C 0.50488 0.32873 0.52371 0.0
C810 C 0.50285 0.31276 0.50729 0.0
C811 C 0.50058 0.33924 0.49682 0.0
C812 C 0.48718 0.34246 0.37797 0.0
H813 H 0.51403 0.38297 0.19089 0.0
H814 H 0.4967 0.37248 0.25979 0.0
H815 H 0.48732 0.34803 0.30839 0.0
H816 H 0.4935 0.2943 0.4523 0.0
H817 H 0.48727 0.31296 0.40381 0.0
H818 H 0.5179 0.37047 0.45356 0.0
C819 C 0.51099 0.37809 0.26149 0.0
C820 C 0.49357 0.35342 0.34033 0.0
C821 C 0.52088 0.384 0.22205 0.0
C822 C 0.49515 0.30666 0.46527 0.0
C823 C 0.49141 0.31739 0.43775 0.0
C824 C 0.51037 0.36554 0.4229 0.0
C825 C 0.51948 0.37903 0.3024 0.0
C826 C 0.5091 0.37013 0.34324 0.0
C827 C 0.49498 0.3343 0.45227 0.0
C828 C 0.49658 0.34778 0.41871 0.0
H829 H 0.56224 0.39805 0.26529 0.0
H830 H 0.54518 0.38718 0.33355 0.0
H831 H 0.52785 0.38981 0.38941 0.0
H832 H 0.51053 0.33339 0.55661 0.0
H833 H 0.50283 0.35178 0.51 0.0
C834 C 0.73423 0.19611 0.43879 0.0
C835 C 0.72631 0.19493 0.48024 0.0
C836 C 0.7255 0.18271 0.40718 0.0
C837 C 0.67884 0.15172 0.38068 0.0
H838 H 0.70051 0.1502 0.26896 0.0
C839 C 0.64154 0.14531 0.22263 0.0
C840 C 0.65163 0.16068 0.19669 0.0
C841 C 0.6499 0.13967 0.25331 0.0
C842 C 0.69418 0.15017 0.30014 0.0
H843 H 0.70455 0.17827 0.52414 0.0
H844 H 0.68967 0.15414 0.47016 0.0
H845 H 0.71791 0.15776 0.33798 0.0
H846 H 0.67844 0.18073 0.17839 0.0
H847 H 0.69297 0.17138 0.23296 0.0
H848 H 0.65551 0.14513 0.34294 0.0
C849 C 0.70214 0.16571 0.46079 0.0
C850 C 0.70416 0.15461 0.33966 0.0
C851 C 0.71062 0.1794 0.49182 0.0
C852 C 0.67029 0.16917 0.19882 0.0
C853 C 0.67863 0.16356 0.22955 0.0
C854 C 0.66885 0.14706 0.34147 0.0
C855 C 0.70882 0.16774 0.41698 0.0
C856 C 0.69701 0.15679 0.37976 0.0
C857 C 0.66847 0.14934 0.25878 0.0
C858 C 0.6768 0.14751 0.30033 0.0
H859 H 0.74638 0.20808 0.42956 0.0
H860 H 0.73112 0.18497 0.37395 0.0
H861 H 0.67269 0.15319 0.41052 0.0
H862 H 0.62715 0.13835 0.22175 0.0
H863 H 0.64174 0.12854 0.27505 0.0
C864 C 0.58975 0.21016 0.20266 0.0
C865 C 0.59569 0.19848 0.21669 0.0
C866 C 0.58463 0.21891 0.2343 0.0
C867 C 0.58732 0.23041 0.35766 0.0
H868 H 0.54487 0.23311 0.33308 0.0
C869 C 0.55118 0.24888 0.49735 0.0
C870 C 0.54104 0.25673 0.4842 0.0
C871 C 0.55938 0.24336 0.46504 0.0
C872 C 0.55695 0.23285 0.34069 0.0
H873 H 0.60139 0.18752 0.27559 0.0
H874 H 0.59293 0.20273 0.32971 0.0
H875 H 0.55653 0.22171 0.27634 0.0
H876 H 0.53242 0.26559 0.4264 0.0
H877 H 0.54713 0.25698 0.37124 0.0
H878 H 0.58777 0.24155 0.42201 0.0
C879 C 0.59215 0.20529 0.29455 0.0
C880 C 0.56369 0.2262 0.30768 0.0
C881 C 0.59701 0.19645 0.26318 0.0
C882 C 0.54009 0.25961 0.43808 0.0
C883 C 0.54838 0.25434 0.40607 0.0
C884 C 0.58066 0.23718 0.39062 0.0
C885 C 0.58552 0.21645 0.28097 0.0
C886 C 0.57895 0.22471 0.31549 0.0
C887 C 0.55779 0.2456 0.41852 0.0
C888 C 0.56526 0.23852 0.383 0.0
H889 H 0.58827 0.21191 0.16733 0.0
H890 H 0.57978 0.22748 0.22209 0.0
H891 H 0.59922 0.22978 0.36527 0.0
H892 H 0.55196 0.24608 0.53235 0.0
H893 H 0.56633 0.23664 0.47667 0.0
C894 C 0.82097 0.37877 0.18609 0.0
C895 C 0.83259 0.39667 0.19733 0.0
C896 C 0.81251 0.36564 0.21984 0.0
C897 C 0.81635 0.35836 0.34444 0.0
H898 H 0.77191 0.31467 0.32544 0.0
C899 C 0.78298 0.30502 0.48775 0.0
C900 C 0.77596 0.28714 0.47512 0.0
C901 C 0.78824 0.31862 0.455 0.0
C902 C 0.7844 0.32674 0.3315 0.0
H903 H 0.84366 0.41468 0.25326 0.0
H904 H 0.82847 0.39246 0.31102 0.0
H905 H 0.78376 0.33722 0.26668 0.0
H906 H 0.76857 0.26976 0.41771 0.0
H907 H 0.77715 0.29299 0.36161 0.0
H908 H 0.81693 0.34785 0.4093 0.0
C909 C 0.82622 0.38813 0.27656 0.0
C910 C 0.79131 0.33979 0.29736 0.0
C911 C 0.83479 0.40108 0.24309 0.0
C912 C 0.7737 0.2833 0.42898 0.0
C913 C 0.77867 0.29674 0.39651 0.0
C914 C 0.80937 0.34539 0.37865 0.0
C915 C 0.8153 0.36999 0.26597 0.0
C916 C 0.80751 0.3559 0.3029 0.0
C917 C 0.78644 0.31475 0.40862 0.0
C918 C 0.79331 0.32923 0.37287 0.0
H919 H 0.81924 0.37472 0.15138 0.0
H920 H 0.80439 0.35195 0.20955 0.0
H921 H 0.82903 0.37019 0.35051 0.0
H922 H 0.7853 0.30863 0.52275 0.0
H923 H 0.794 0.33224 0.4661 0.0
C924 C 0.62232 0.43897 0.26179 0.0
C925 C 0.62576 0.43896 0.21575 0.0
C926 C 0.63563 0.44316 0.2943 0.0
C927 C 0.68501 0.46838 0.30973 0.0
H928 H 0.67421 0.4458 0.42634 0.0
C929 C 0.74043 0.4921 0.4468 0.0
C930 C 0.73587 0.49139 0.49221 0.0
C931 C 0.72733 0.48368 0.41341 0.0
C932 C 0.67758 0.45253 0.39433 0.0
H933 H 0.64637 0.4435 0.16829 0.0
H934 H 0.66977 0.45088 0.22503 0.0
H935 H 0.65139 0.43495 0.36826 0.0
H936 H 0.71356 0.48129 0.53754 0.0
H937 H 0.69066 0.46677 0.47983 0.0
H938 H 0.71092 0.48635 0.33583 0.0
C939 C 0.65655 0.44746 0.23604 0.0
C940 C 0.66435 0.44617 0.36058 0.0
C941 C 0.64304 0.44294 0.20334 0.0
C942 C 0.71768 0.4816 0.50325 0.0
C943 C 0.70447 0.47334 0.46967 0.0
C944 C 0.69818 0.47486 0.34358 0.0
C945 C 0.65315 0.4479 0.28222 0.0
C946 C 0.66774 0.45401 0.31759 0.0
C947 C 0.70897 0.47456 0.42374 0.0
C948 C 0.6948 0.46714 0.38684 0.0
H949 H 0.6093 0.43628 0.27276 0.0
H950 H 0.63231 0.44347 0.32902 0.0
H951 H 0.68824 0.47508 0.27765 0.0
H952 H 0.75425 0.49983 0.43679 0.0
H953 H 0.73174 0.48474 0.37918 0.0
C954 C 0.54292 0.83658 0.51769 0.0
C955 C 0.5348 0.818 0.52169 0.0
C956 C 0.54504 0.84699 0.55509 0.0
C957 C 0.54271 0.84606 0.67861 0.0
H958 H 0.51894 0.8735 0.6619 0.0
C959 C 0.49009 0.85595 0.78038 0.0
C960 C 0.498 0.86097 0.82283 0.0
C961 C 0.50025 0.85702 0.74339 0.0
C962 C 0.52591 0.86617 0.66695 0.0
H963 H 0.52313 0.79587 0.56822 0.0
H964 H 0.52678 0.81397 0.63335 0.0
H965 H 0.52769 0.86291 0.59681 0.0
H966 H 0.52304 0.87196 0.85918 0.0
H967 H 0.54066 0.87321 0.79448 0.0
H968 H 0.53962 0.84813 0.74879 0.0
C969 C 0.53176 0.82053 0.60145 0.0
C970 C 0.53104 0.86023 0.62978 0.0
C971 C 0.52955 0.81013 0.56408 0.0
C972 C 0.51643 0.8676 0.82718 0.0
C973 C 0.52659 0.86852 0.79015 0.0
C974 C 0.53763 0.85206 0.7158 0.0
C975 C 0.53921 0.839 0.59714 0.0
C976 C 0.5386 0.84932 0.63539 0.0
C977 C 0.51851 0.86302 0.74809 0.0
C978 C 0.52832 0.86132 0.71013 0.0
H979 H 0.54752 0.84311 0.48566 0.0
H980 H 0.5509 0.86122 0.55102 0.0
H981 H 0.54875 0.83786 0.68367 0.0
H982 H 0.47593 0.85059 0.77585 0.0
H983 H 0.49362 0.85231 0.71146 0.0
C984 C 0.20486 0.66193 0.84042 0.0
C985 C 0.18724 0.65402 0.85538 0.0
C986 C 0.21365 0.67956 0.82608 0.0
C987 C 0.20043 0.70822 0.77049 0.0
H988 H 0.25134 0.73503 0.75009 0.0
C989 C 0.22756 0.74382 0.60489 0.0
C990 C 0.23669 0.73622 0.58432 0.0
C991 C 0.2247 0.74219 0.65105 0.0
C992 C 0.23712 0.72798 0.75612 0.0
H993 H 0.16571 0.65872 0.87277 0.0
H994 H 0.18114 0.6897 0.8483 0.0
H995 H 0.23985 0.71614 0.81631 0.0
H996 H 0.25127 0.7223 0.59566 0.0
H997 H 0.24611 0.71918 0.67589 0.0
H998 H 0.19762 0.719 0.70878 0.0
C999 C 0.18801 0.68219 0.84628 0.0
C1000 C 0.23053 0.71712 0.79385 0.0
C1001 C 0.17915 0.66446 0.86001 0.0
C1002 C 0.24379 0.72786 0.6107 0.0
C1003 C 0.24117 0.72644 0.65672 0.0
C1004 C 0.20703 0.71918 0.73306 0.0
C1005 C 0.205 0.68965 0.82692 0.0
C1006 C 0.21207 0.70602 0.79934 0.0
C1007 C 0.23125 0.73322 0.67723 0.0
C1008 C 0.22532 0.72802 0.72382 0.0
H1009 H 0.21137 0.65412 0.83677 0.0
H1010 H 0.22663 0.68472 0.81092 0.0
H1011 H 0.18613 0.69995 0.77354 0.0
H1012 H 0.22216 0.75049 0.58501 0.0
H1013 H 0.21693 0.74744 0.66608 0.0
C1014 C 0.33956 0.50683 0.52557 0.0
C1015 C 0.3209 0.4975 0.52223 0.0
C1016 C 0.34822 0.50099 0.55466 0.0
C1017 C 0.33788 0.48125 0.66296 0.0
H1018 H 0.38783 0.49505 0.66134 0.0
C1019 C 0.40104 0.53155 0.76523 0.0
C1020 C 0.39253 0.52946 0.80625 0.0
C1021 C 0.39324 0.51841 0.73266 0.0
C1022 C 0.37383 0.49104 0.6625 0.0
H1023 H 0.29692 0.4735 0.5431 0.0
H1024 H 0.31206 0.46333 0.59327 0.0
H1025 H 0.37119 0.48821 0.59123 0.0
H1026 H 0.37073 0.51152 0.84844 0.0
H1027 H 0.35753 0.48784 0.79278 0.0
H1028 H 0.34061 0.48592 0.7327 0.0
C1029 C 0.31996 0.47529 0.57383 0.0
C1030 C 0.36429 0.48699 0.62232 0.0
C1031 C 0.31128 0.48117 0.54492 0.0
C1032 C 0.37722 0.51336 0.81641 0.0
C1033 C 0.3697 0.49992 0.78442 0.0
C1034 C 0.34743 0.48558 0.70283 0.0
C1035 C 0.33838 0.48568 0.58093 0.0
C1036 C 0.34655 0.48327 0.62201 0.0
C1037 C 0.37692 0.50277 0.74102 0.0
C1038 C 0.36587 0.49186 0.70272 0.0
H1039 H 0.34741 0.51916 0.50755 0.0
H1040 H 0.36244 0.50936 0.5594 0.0
H1041 H 0.32421 0.47842 0.66405 0.0
H1042 H 0.41292 0.54396 0.75714 0.0
H1043 H 0.39927 0.52134 0.69985 0.0
C1044 C 0.20101 0.58966 0.76508 0.0
C1045 C 0.20337 0.58886 0.81157 0.0
C1046 C 0.21013 0.58506 0.73388 0.0
C1047 C 0.23217 0.55763 0.72254 0.0
H1048 H 0.2466 0.58053 0.60662 0.0
C1049 C 0.2659 0.5337 0.59395 0.0
C1050 C 0.26288 0.53422 0.54776 0.0
C1051 C 0.26051 0.54207 0.62537 0.0
C1052 C 0.24249 0.57374 0.63849 0.0
H1053 H 0.21764 0.58258 0.86119 0.0
H1054 H 0.23372 0.57457 0.8068 0.0
H1055 H 0.23459 0.59208 0.66252 0.0
H1056 H 0.25182 0.54444 0.49881 0.0
H1057 H 0.24212 0.55891 0.55345 0.0
H1058 H 0.2395 0.53899 0.69849 0.0
C1059 C 0.22471 0.57886 0.7944 0.0
C1060 C 0.23559 0.58048 0.67095 0.0
C1061 C 0.21569 0.58374 0.82581 0.0
C1062 C 0.25473 0.544 0.53389 0.0
C1063 C 0.24907 0.55226 0.5656 0.0
C1064 C 0.23892 0.55081 0.69003 0.0
C1065 C 0.22187 0.57914 0.74775 0.0
C1066 C 0.23024 0.57254 0.71367 0.0
C1067 C 0.25148 0.55112 0.61223 0.0
C1068 C 0.24427 0.55869 0.64718 0.0
H1069 H 0.1915 0.5933 0.75262 0.0
H1070 H 0.20728 0.58535 0.69871 0.0
H1071 H 0.22794 0.5508 0.75435 0.0
H1072 H 0.27213 0.52634 0.60616 0.0
H1073 H 0.26331 0.54119 0.66028 0.0
C1074 C 0.48895 0.71481 0.51659 0.0
C1075 C 0.50078 0.73258 0.52856 0.0
C1076 C 0.48004 0.70156 0.54978 0.0
C1077 C 0.4829 0.6934 0.67422 0.0
H1078 H 0.43825 0.65022 0.65272 0.0
C1079 C 0.448 0.63923 0.81489 0.0
C1080 C 0.44093 0.62142 0.80155 0.0
C1081 C 0.45363 0.65306 0.78272 0.0
C1082 C 0.45079 0.66214 0.65947 0.0
H1083 H 0.51182 0.75024 0.58513 0.0
H1084 H 0.49582 0.72781 0.64199 0.0
H1085 H 0.45074 0.67316 0.595 0.0
H1086 H 0.43381 0.60441 0.74344 0.0
H1087 H 0.44301 0.62805 0.68827 0.0
H1088 H 0.48289 0.68235 0.73874 0.0
C1089 C 0.49372 0.72368 0.60737 0.0
C1090 C 0.45807 0.67542 0.62594 0.0
C1091 C 0.50274 0.73676 0.57444 0.0
C1092 C 0.43897 0.61788 0.75524 0.0
C1093 C 0.4443 0.63156 0.72332 0.0
C1094 C 0.47555 0.6802 0.70783 0.0
C1095 C 0.48258 0.70564 0.59607 0.0
C1096 C 0.47436 0.69135 0.6324 0.0
C1097 C 0.45214 0.6495 0.73619 0.0
C1098 C 0.4594 0.66422 0.70112 0.0
H1099 H 0.48743 0.71094 0.48177 0.0
H1100 H 0.47179 0.68796 0.53895 0.0
H1101 H 0.49564 0.70507 0.68098 0.0
H1102 H 0.45008 0.64259 0.85006 0.0
H1103 H 0.45942 0.66661 0.79437 0.0
C1104 C 0.39603 0.81808 0.82186 0.0
C1105 C 0.41339 0.83137 0.8102 0.0
C1106 C 0.38271 0.80944 0.7886 0.0
C1107 C 0.37585 0.802 0.66316 0.0
H1108 H 0.32862 0.79408 0.68743 0.0
C1109 C 0.32313 0.78613 0.51957 0.0
C1110 C 0.30486 0.77664 0.52993 0.0
C1111 C 0.33623 0.79076 0.55338 0.0
C1112 C 0.34159 0.79583 0.67981 0.0
H1113 H 0.43022 0.84543 0.75379 0.0
H1114 H 0.40755 0.83039 0.69676 0.0
H1115 H 0.35095 0.80494 0.74655 0.0
H1116 H 0.28624 0.76437 0.58429 0.0
H1117 H 0.30866 0.77144 0.64216 0.0
H1118 H 0.36657 0.79293 0.59645 0.0
C1119 C 0.40399 0.82644 0.73127 0.0
C1120 C 0.35455 0.80216 0.71419 0.0
C1121 C 0.41711 0.83515 0.7643 0.0
C1122 C 0.30015 0.77138 0.57476 0.0
C1123 C 0.31315 0.77582 0.60835 0.0
C1124 C 0.36287 0.79556 0.62883 0.0
C1125 C 0.38638 0.81366 0.74258 0.0
C1126 C 0.37203 0.80556 0.70654 0.0
C1127 C 0.33152 0.78609 0.59882 0.0
C1128 C 0.34545 0.79244 0.63619 0.0
H1129 H 0.39248 0.81501 0.85675 0.0
H1130 H 0.36943 0.79961 0.79908 0.0
H1131 H 0.38897 0.8041 0.65556 0.0
H1132 H 0.32732 0.79098 0.48584 0.0
H1133 H 0.35007 0.79881 0.544 0.0
C1134 C 0.22193 0.4133 0.41064 0.0
C1135 C 0.23648 0.42571 0.38487 0.0
C1136 C 0.2132 0.39511 0.40081 0.0
C1137 C 0.2052 0.36279 0.31046 0.0
H1138 H 0.19138 0.32902 0.40826 0.0
C1139 C 0.17495 0.28731 0.27755 0.0
C1140 C 0.16154 0.27511 0.30629 0.0
C1141 C 0.18448 0.3055 0.28751 0.0
C1142 C 0.19488 0.33818 0.38045 0.0
H1143 H 0.2529 0.42827 0.32766 0.0
H1144 H 0.23747 0.39654 0.31012 0.0
H1145 H 0.20698 0.36077 0.42393 0.0
H1146 H 0.14779 0.27275 0.36847 0.0
H1147 H 0.16415 0.30444 0.38563 0.0
H1148 H 0.19287 0.34027 0.26696 0.0
C1149 C 0.23286 0.40101 0.33813 0.0
C1150 C 0.20392 0.35648 0.38949 0.0
C1151 C 0.24171 0.41927 0.34817 0.0
C1152 C 0.15814 0.28166 0.34576 0.0
C1153 C 0.16759 0.29993 0.3556 0.0
C1154 C 0.19605 0.34448 0.30141 0.0
C1155 C 0.21856 0.38863 0.36458 0.0
C1156 C 0.2092 0.36908 0.35466 0.0
C1157 C 0.18085 0.31219 0.32646 0.0
C1158 C 0.19072 0.33183 0.33624 0.0
H1159 H 0.21705 0.41763 0.43836 0.0
H1160 H 0.20202 0.38611 0.42138 0.0
H1161 H 0.2088 0.37202 0.28277 0.0
H1162 H 0.17818 0.28276 0.24723 0.0
H1163 H 0.19481 0.3143 0.26464 0.0
C1164 C 0.75367 0.86521 0.30911 0.0
C1165 C 0.76439 0.8836 0.31657 0.0
C1166 C 0.73522 0.85648 0.31622 0.0
C1167 C 0.69711 0.86486 0.3247 0.0
H1168 H 0.67222 0.81692 0.37225 0.0
C1169 C 0.62173 0.82918 0.37013 0.0
C1170 C 0.61131 0.81073 0.36296 0.0
C1171 C 0.64028 0.83814 0.3642 0.0
C1172 C 0.67886 0.83021 0.35833 0.0
H1173 H 0.76381 0.90708 0.33825 0.0
H1174 H 0.73169 0.89184 0.35131 0.0
H1175 H 0.70448 0.83225 0.36431 0.0
H1176 H 0.61264 0.78741 0.34337 0.0
H1177 H 0.64476 0.80303 0.33196 0.0
H1178 H 0.67148 0.86279 0.31853 0.0
C1179 C 0.73757 0.88417 0.33935 0.0
C1180 C 0.69747 0.83907 0.35385 0.0
C1181 C 0.75608 0.89291 0.33239 0.0
C1182 C 0.62006 0.80162 0.34881 0.0
C1183 C 0.63862 0.81058 0.34289 0.0
C1184 C 0.67849 0.85599 0.32912 0.0
C1185 C 0.72681 0.86583 0.33101 0.0
C1186 C 0.70692 0.85653 0.33686 0.0
C1187 C 0.64908 0.82898 0.35086 0.0
C1188 C 0.66903 0.83849 0.34593 0.0
H1189 H 0.75953 0.85748 0.29747 0.0
H1190 H 0.72748 0.84241 0.30903 0.0
H1191 H 0.70378 0.87816 0.3108 0.0
H1192 H 0.61557 0.83678 0.38054 0.0
H1193 H 0.64776 0.85225 0.37109 0.0
C1194 C 0.21884 0.81383 0.40196 0.0
C1195 C 0.21552 0.79827 0.3793 0.0
C1196 C 0.20905 0.82231 0.3923 0.0
C1197 C 0.17912 0.82555 0.30654 0.0
H1198 H 0.16759 0.84734 0.40393 0.0
C1199 C 0.13203 0.85491 0.28239 0.0
C1200 C 0.13654 0.871 0.30414 0.0
C1201 C 0.14121 0.84572 0.29165 0.0
C1202 C 0.17082 0.84152 0.37615 0.0
H1203 H 0.19919 0.7797 0.32792 0.0
H1204 H 0.18198 0.7944 0.31123 0.0
H1205 H 0.18415 0.83203 0.41908 0.0
H1206 H 0.15456 0.88985 0.35302 0.0
H1207 H 0.17033 0.8738 0.36942 0.0
H1208 H 0.16567 0.83501 0.26368 0.0
C1209 C 0.19236 0.80017 0.33635 0.0
C1210 C 0.1804 0.83269 0.38486 0.0
C1211 C 0.20224 0.79168 0.34596 0.0
C1212 C 0.15039 0.8774 0.33603 0.0
C1213 C 0.15952 0.86816 0.34541 0.0
C1214 C 0.16948 0.83434 0.29786 0.0
C1215 C 0.19551 0.81558 0.35962 0.0
C1216 C 0.18483 0.82464 0.35019 0.0
C1217 C 0.15518 0.85223 0.32315 0.0
C1218 C 0.16524 0.84255 0.3325 0.0
H1219 H 0.22924 0.81966 0.42703 0.0
H1220 H 0.2123 0.83436 0.41026 0.0
H1221 H 0.18242 0.8198 0.27872 0.0
H1222 H 0.12129 0.84929 0.25822 0.0
H1223 H 0.1372 0.83336 0.27435 0.0
C1224 C 0.42503 0.237 0.67624 0.0
C1225 C 0.43186 0.23018 0.64414 0.0
C1226 C 0.40662 0.22862 0.68477 0.0
C1227 C 0.36243 0.19627 0.63434 0.0
H1228 H 0.34472 0.1943 0.75416 0.0
C1229 C 0.28728 0.15247 0.67955 0.0
C1230 C 0.27997 0.15888 0.71146 0.0
C1231 C 0.30566 0.16158 0.67058 0.0
C1232 C 0.34938 0.19489 0.72032 0.0
H1233 H 0.4244 0.20851 0.59751 0.0
H1234 H 0.39265 0.194 0.61237 0.0
H1235 H 0.37673 0.20914 0.74109 0.0
H1236 H 0.28655 0.18056 0.75745 0.0
H1237 H 0.31837 0.19635 0.74182 0.0
H1238 H 0.33509 0.18195 0.61361 0.0
C1239 C 0.40139 0.20613 0.63019 0.0
C1240 C 0.36784 0.20345 0.7128 0.0
C1241 C 0.41973 0.21449 0.62165 0.0
C1242 C 0.29161 0.17495 0.73324 0.0
C1243 C 0.30997 0.18404 0.72433 0.0
C1244 C 0.34398 0.18769 0.64187 0.0
C1245 C 0.39446 0.21311 0.66156 0.0
C1246 C 0.3747 0.20424 0.66969 0.0
C1247 C 0.31735 0.17741 0.69322 0.0
C1248 C 0.33712 0.18681 0.68501 0.0
H1249 H 0.43387 0.24909 0.69406 0.0
H1250 H 0.40189 0.23456 0.70889 0.0
H1251 H 0.36706 0.19684 0.60049 0.0
H1252 H 0.2789 0.14004 0.6625 0.0
H1253 H 0.31076 0.15588 0.64677 0.0
C1254 C 0.8714 0.1282 0.66849 0.0
C1255 C 0.88021 0.13047 0.70972 0.0
C1256 C 0.86166 0.13689 0.65949 0.0
C1257 C 0.85614 0.17497 0.6978 0.0
H1258 H 0.81166 0.15082 0.63225 0.0
C1259 C 0.80968 0.20529 0.67997 0.0
C1260 C 0.80124 0.20353 0.63841 0.0
C1261 C 0.81885 0.19605 0.68911 0.0
C1262 C 0.82414 0.15789 0.65023 0.0
H1263 H 0.88593 0.14434 0.77317 0.0
H1264 H 0.86881 0.15897 0.75802 0.0
H1265 H 0.82865 0.13578 0.64597 0.0
H1266 H 0.79544 0.18996 0.57461 0.0
H1267 H 0.8115 0.17418 0.59019 0.0
H1268 H 0.85167 0.19707 0.70205 0.0
C1269 C 0.86944 0.15057 0.73234 0.0
C1270 C 0.83395 0.14922 0.65807 0.0
C1271 C 0.87911 0.14189 0.74133 0.0
C1272 C 0.80192 0.1919 0.6068 0.0
C1273 C 0.81102 0.18264 0.61596 0.0
C1274 C 0.84634 0.18362 0.68999 0.0
C1275 C 0.86052 0.14824 0.6913 0.0
C1276 C 0.85012 0.15759 0.68208 0.0
C1277 C 0.81981 0.18467 0.6571 0.0
C1278 C 0.83015 0.17525 0.66608 0.0
H1279 H 0.87183 0.11952 0.64328 0.0
H1280 H 0.85518 0.13486 0.62727 0.0
H1281 H 0.86865 0.18207 0.71569 0.0
H1282 H 0.80962 0.21419 0.70512 0.0
H1283 H 0.8252 0.19784 0.72143 0.0
C1284 C 0.87212 0.74254 0.72735 0.0
C1285 C 0.88921 0.75382 0.70974 0.0
C1286 C 0.86334 0.72413 0.72004 0.0
C1287 C 0.86377 0.689 0.64841 0.0
H1288 H 0.83488 0.65771 0.74403 0.0
C1289 C 0.83453 0.6125 0.64033 0.0
C1290 C 0.81694 0.60144 0.65539 0.0
C1291 C 0.84339 0.63093 0.64746 0.0
C1292 C 0.84273 0.66621 0.71673 0.0
H1293 H 0.91028 0.75429 0.67002 0.0
H1294 H 0.89512 0.72224 0.65761 0.0
H1295 H 0.85005 0.68977 0.75449 0.0
H1296 H 0.79512 0.60154 0.69039 0.0
H1297 H 0.81062 0.63353 0.70327 0.0
H1298 H 0.85654 0.66536 0.61086 0.0
C1299 C 0.88833 0.72764 0.67664 0.0
C1300 C 0.85146 0.68471 0.72268 0.0
C1301 C 0.89709 0.74611 0.68377 0.0
C1302 C 0.8087 0.60944 0.6788 0.0
C1303 C 0.81762 0.62789 0.6861 0.0
C1304 C 0.8551 0.67049 0.64254 0.0
C1305 C 0.87135 0.7163 0.69501 0.0
C1306 C 0.8621 0.69645 0.68859 0.0
C1307 C 0.83505 0.63897 0.67012 0.0
C1308 C 0.84441 0.65878 0.67658 0.0
H1309 H 0.86542 0.74794 0.74676 0.0
H1310 H 0.85015 0.71606 0.73389 0.0
H1311 H 0.87155 0.69746 0.62098 0.0
H1312 H 0.84154 0.60693 0.62296 0.0
H1313 H 0.85691 0.63888 0.63541 0.0
C1314 C 0.08187 0.53524 0.96245 0.0
C1315 C 0.09308 0.5526 0.97846 0.0
C1316 C 0.06344 0.52649 0.96968 0.0
C1317 C 0.028 0.52674 0.0395 0.0
H1318 H 0.99721 0.49885 0.94205 0.0
C1319 C 0.95111 0.49587 0.04845 0.0
C1320 C 0.94031 0.47881 0.03032 0.0
C1321 C 0.9696 0.50519 0.04157 0.0
C1322 C 1.00554 0.50638 0.96991 0.0
H1323 H 0.09338 0.57405 0.01586 0.0
H1324 H 0.06123 0.55875 0.0287 0.0
H1325 H 0.02939 0.51417 0.93262 0.0
H1326 H 0.94083 0.45832 0.99034 0.0
H1327 H 0.97293 0.47445 0.97843 0.0
H1328 H 1.00414 0.51886 0.0769 0.0
C1329 C 0.06677 0.55188 1.01058 0.0
C1330 C 0.0241 0.51522 0.96448 0.0
C1331 C 0.08527 0.56068 1.00327 0.0
C1332 C 0.94858 0.47151 1.0043 0.0
C1333 C 0.96709 0.48081 0.99751 0.0
C1334 C 1.00941 0.51785 0.04499 0.0
C1335 C 0.05552 0.53473 0.99332 0.0
C1336 C 0.03565 0.5255 0.99922 0.0
C1337 C 0.97795 0.49775 0.01638 0.0
C1338 C 0.99786 0.50748 1.01032 0.0
H1339 H 0.08733 0.52833 0.94417 0.0
H1340 H 0.05538 0.51315 0.9568 0.0
H1341 H 0.03637 0.53431 0.06727 0.0
H1342 H 0.94526 0.50209 0.0681 0.0
H1343 H 0.97733 0.51831 0.05591 0.0
C1344 C 0.46011 0.52535 0.99885 0.0
C1345 C 0.46772 0.53982 0.96883 0.0
C1346 C 0.46867 0.51555 1.00871 0.0
C1347 C 0.50245 0.5052 0.96324 0.0
H1348 H 0.50413 0.48976 0.08399 0.0
C1349 C 0.54684 0.47462 1.01027 0.0
C1350 C 0.54113 0.46168 0.04431 0.0
C1351 C 0.53743 0.48356 1.00067 0.0
C1352 C 0.5036 0.49368 0.04986 0.0
H1353 H 0.49103 0.55569 0.92769 0.0
H1354 H 0.50557 0.53857 0.94417 0.0
H1355 H 0.4886 0.50618 0.06896 0.0
H1356 H 0.52049 0.44762 0.09366 0.0
H1357 H 0.50393 0.4628 0.07641 0.0
H1358 H 0.51723 0.49258 0.94385 0.0
C1359 C 0.4928 0.53453 0.95945 0.0
C1360 C 0.49468 0.50318 0.04128 0.0
C1361 C 0.48436 0.54437 0.94989 0.0
C1362 C 0.52547 0.45767 0.06766 0.0
C1363 C 0.51599 0.46649 0.05785 0.0
C1364 C 0.51125 0.49558 0.97172 0.0
C1365 C 0.48505 0.51987 0.9887 0.0
C1366 C 0.49408 0.50921 0.99788 0.0
C1367 C 0.5219 0.47977 0.02455 0.0
C1368 C 0.51209 0.48973 0.01524 0.0
H1369 H 0.44731 0.52128 0.01396 0.0
H1370 H 0.46221 0.5043 0.03123 0.0
H1371 H 0.50205 0.50932 0.92923 0.0
H1372 H 0.55895 0.47828 0.99197 0.0
H1373 H 0.54267 0.49382 0.97525 0.0
C1374 C 0.57567 0.08265 0.02547 0.0
C1375 C 0.56822 0.09016 0.05354 0.0
C1376 C 0.56658 0.06427 0.01681 0.0
C1377 C 0.52857 0.02105 0.06 0.0
H1378 H 0.53433 1.00261 0.94744 0.0
C1379 C 0.48359 0.94718 1.00603 0.0
C1380 C 0.492 0.93859 0.98618 0.0
C1381 C 0.49305 0.96552 0.01482 0.0
C1382 C 0.53266 1.00752 0.97922 0.0
H1383 H 0.54493 0.08425 0.09268 0.0
H1384 H 0.5289 0.05264 0.07654 0.0
H1385 H 0.55011 0.0346 0.96017 0.0
H1386 H 0.51748 0.94305 0.96162 0.0
H1387 H 0.53365 0.9749 0.97571 0.0
H1388 H 0.51072 0.9939 0.07838 0.0
C1389 C 0.54206 0.06063 0.06247 0.0
C1390 C 0.54181 0.02596 0.9867 0.0
C1391 C 0.55124 0.07889 0.07158 0.0
C1392 C 0.51028 0.94903 0.97593 0.0
C1393 C 0.51965 0.96739 0.98415 0.0
C1394 C 0.51924 1.00265 0.05225 0.0
C1395 C 0.54964 0.05288 0.03545 0.0
C1396 C 0.53994 0.03309 0.02725 0.0
C1397 C 0.51118 0.97593 1.00356 0.0
C1398 C 0.52116 0.9956 1.01179 0.0
H1399 H 0.58876 0.0909 1.01121 0.0
H1400 H 0.5731 0.05897 0.99629 0.0
H1401 H 0.52698 0.02575 0.09214 0.0
H1402 H 0.46953 0.93989 0.01379 0.0
H1403 H 0.48602 0.97164 0.02943 0.0
C1404 C 0.12289 0.1648 0.3806 0.0
C1405 C 0.13667 0.17595 0.35103 0.0
C1406 C 0.12627 0.15643 0.41747 0.0
C1407 C 0.16106 0.14539 0.4609 0.0
H1408 H 0.1394 0.14068 0.57686 0.0
C1409 C 0.1931 0.13672 0.62301 0.0
C1410 C 0.18249 0.12544 0.65775 0.0
C1411 C 0.18554 0.14021 0.58532 0.0
C1412 C 0.14546 0.14168 0.54462 0.0
H1413 H 0.1648 0.18647 0.33777 0.0
H1414 H 0.17052 0.17252 0.40034 0.0
H1415 H 0.1297 0.15153 0.51262 0.0
H1416 H 0.15524 0.10913 0.67963 0.0
H1417 H 0.14188 0.11533 0.61363 0.0
H1418 H 0.17711 0.13604 0.49272 0.0
C1419 C 0.15701 0.16981 0.39551 0.0
C1420 C 0.13985 0.14793 0.50748 0.0
C1421 C 0.15369 0.17809 0.3593 0.0
C1422 C 0.16386 0.11757 0.65321 0.0
C1423 C 0.15622 0.12135 0.61554 0.0
C1424 C 0.16673 0.13933 0.49784 0.0
C1425 C 0.14347 0.15879 0.42562 0.0
C1426 C 0.14784 0.1503 0.46496 0.0
C1427 C 0.16697 0.13286 0.58093 0.0
C1428 C 0.15934 0.13766 0.54071 0.0
H1429 H 0.10963 0.16284 0.37586 0.0
H1430 H 0.11535 0.14803 0.43946 0.0
H1431 H 0.16728 0.14634 0.42893 0.0
H1432 H 0.20748 0.14327 0.62546 0.0
H1433 H 0.19442 0.14929 0.56019 0.0
C1434 C 0.90754 0.06837 0.60818 0.0
C1435 C 0.9164 0.06752 0.64693 0.0
C1436 C 0.90382 0.05665 0.5721 0.0
C1437 C 0.89704 1.0117 0.5422 0.0
H1438 H 0.89766 0.02815 0.42132 0.0
C1439 C 0.87411 0.96327 0.38473 0.0
C1440 C 0.86465 0.96658 0.35106 0.0
C1441 C 0.88248 0.97547 0.42054 0.0
C1442 C 0.89711 0.02309 0.45476 0.0
H1443 H 0.92796 0.05303 0.67776 0.0
H1444 H 0.92155 0.03248 0.61458 0.0
H1445 H 0.90831 0.04925 0.48257 0.0
H1446 H 0.85723 0.98587 0.32915 0.0
H1447 H 0.87131 1.00645 0.38987 0.0
H1448 H 0.88549 0.9854 0.51406 0.0
C1449 C 0.91762 0.04249 0.61197 0.0
C1450 C 0.90335 0.03537 0.49031 0.0
C1451 C 0.92161 0.05451 0.64807 0.0
C1452 C 0.8643 0.98263 0.35403 0.0
C1453 C 0.87262 0.9947 0.38919 0.0
C1454 C 0.89067 0.99932 0.50645 0.0
C1455 C 0.90846 0.04321 0.57335 0.0
C1456 C 0.90318 0.02996 0.53497 0.0
C1457 C 0.88184 0.99145 0.42356 0.0
C1458 C 0.89023 1.00471 0.46196 0.0
H1459 H 0.90288 0.07785 0.60637 0.0
H1460 H 0.89654 0.05769 0.54383 0.0
H1461 H 0.89652 1.0068 0.57583 0.0
H1462 H 0.87461 0.95107 0.38418 0.0
H1463 H 0.88946 0.97234 0.44587 0.0
C1464 C 0.05035 0.90123 0.34891 0.0
C1465 C 0.06744 0.90394 0.35874 0.0
C1466 C 0.03764 0.89725 0.38321 0.0
C1467 C 0.03194 0.89673 0.50929 0.0
H1468 H 0.9835 0.86001 0.48418 0.0
C1469 C 0.97538 0.871 0.64659 0.0
C1470 C 0.96395 0.85245 0.64861 0.0
C1471 C 0.98727 0.87899 0.61015 0.0
C1472 C 0.99694 0.87028 0.4921 0.0
H1473 H 0.08436 0.90456 0.41288 0.0
H1474 H 0.06272 0.89827 0.47224 0.0
H1475 H 1.00559 0.87098 0.42447 0.0
H1476 H 0.95606 0.82801 0.6129 0.0
H1477 H 0.97603 0.84172 0.54982 0.0
H1478 H 0.02331 0.89574 0.57721 0.0
C1479 C 0.059 0.89936 0.43827 0.0
C1480 C 1.00969 0.87677 0.45739 0.0
C1481 C 0.07155 0.90309 0.40403 0.0
C1482 C 0.96438 0.84234 0.61237 0.0
C1483 C 0.97596 0.85028 0.57591 0.0
C1484 C 1.01912 0.89036 0.54395 0.0
C1485 C 0.04159 0.8959 0.4286 0.0
C1486 C 0.02755 0.88996 0.4653 0.0
C1487 C 0.98795 0.86873 0.57427 0.0
C1488 C 1.0014 0.87679 0.53628 0.0
H1489 H 0.04646 0.90121 0.31444 0.0
H1490 H 0.02454 0.89486 0.37394 0.0
H1491 H 0.04539 0.90698 0.51718 0.0
H1492 H 0.9758 0.87922 0.6742 0.0
H1493 H 0.99612 0.89323 0.61041 0.0
C1494 C 0.85756 0.82437 0.67173 0.0
C1495 C 0.87591 0.83056 0.66716 0.0
C1496 C 0.84738 0.82378 0.63481 0.0
C1497 C 0.83664 0.84073 0.55986 0.0
H1498 H 0.84568 0.82909 0.44144 0.0
C1499 C 0.84481 0.88236 0.40591 0.0
C1500 C 0.84042 0.87443 0.36357 0.0
C1501 C 0.84207 0.87201 0.444 0.0
C1502 C 0.84255 0.83201 0.47423 0.0
H1503 H 0.89772 0.84046 0.61971 0.0
H1504 H 0.87998 0.83923 0.55564 0.0
H1505 H 0.85423 0.81831 0.50687 0.0
H1506 H 0.82824 0.84934 0.32808 0.0
H1507 H 0.82363 0.83126 0.39467 0.0
H1508 H 0.82585 0.85527 0.52713 0.0
C1509 C 0.87344 0.83466 0.58769 0.0
C1510 C 0.84758 0.82595 0.51163 0.0
C1511 C 0.88364 0.83542 0.62455 0.0
C1512 C 0.83225 0.85586 0.36022 0.0
C1513 C 0.82945 0.84549 0.3983 0.0
C1514 C 0.83161 0.84683 0.52239 0.0
C1515 C 0.85531 0.82914 0.59262 0.0
C1516 C 0.84553 0.83106 0.5546 0.0
C1517 C 0.83481 0.85353 0.4404 0.0
C1518 C 0.8354 0.84329 0.47928 0.0
H1519 H 0.85104 0.82013 0.7038 0.0
H1520 H 0.83339 0.81943 0.63931 0.0
H1521 H 0.8349 0.84485 0.59271 0.0
H1522 H 0.85113 0.89664 0.40936 0.0
H1523 H 0.84661 0.87864 0.47592 0.0
C1524 C 0.16185 0.9706 0.39189 0.0
C1525 C 0.14558 0.96582 0.37066 0.0
C1526 C 0.16612 0.97952 0.43258 0.0
C1527 C 0.15497 1.00725 0.50214 0.0
H1528 H 0.18105 0.99742 0.59296 0.0
C1529 C 0.17456 0.04449 0.66808 0.0
C1530 C 0.19298 0.05312 0.67636 0.0
C1531 C 0.16694 0.0312 0.63596 0.0
C1532 C 0.17371 1.0002 0.56786 0.0
H1533 H 0.12113 0.96689 0.37542 0.0
H1534 H 0.1283 0.98186 0.44714 0.0
H1535 H 0.17096 0.97924 0.52544 0.0
H1536 H 0.21768 0.05395 0.65912 0.0
H1537 H 0.20428 0.03055 0.60327 0.0
H1538 H 0.15781 0.02826 0.54444 0.0
C1539 C 0.13787 0.97892 0.43197 0.0
C1540 C 0.16803 0.98992 0.52922 0.0
C1541 C 0.13368 0.97017 0.39105 0.0
C1542 C 0.20346 0.04749 0.65371 0.0
C1543 C 0.1958 0.0341 0.6218 0.0
C1544 C 0.16046 0.01738 0.54093 0.0
C1545 C 0.15414 0.98371 0.45309 0.0
C1546 C 0.1589 0.99358 0.49564 0.0
C1547 C 0.17758 0.02621 0.61194 0.0
C1548 C 0.17012 0.01412 0.57368 0.0
H1549 H 0.17125 0.96728 0.37751 0.0
H1550 H 0.17891 0.98331 0.44768 0.0
H1551 H 0.14821 1.01058 0.47658 0.0
H1552 H 0.16605 0.04817 0.68587 0.0
H1553 H 0.1528 0.02509 0.62917 0.0
C1554 C 0.99341 0.14701 0.6508 0.0
C1555 C 0.98259 0.15403 0.66334 0.0
C1556 C 1.00619 0.15526 0.61755 0.0
C1557 C 1.01468 0.18229 0.5182 0.0
H1558 H 0.0613 0.18638 0.52403 0.0
C1559 C 0.06181 0.20523 0.36695 0.0
C1560 C 0.0694 0.19459 0.35791 0.0
C1561 C 0.05328 0.20359 0.4076 0.0
C1562 C 0.04832 0.18531 0.52198 0.0
H1563 H 0.97675 0.17527 0.65151 0.0
H1564 H 0.99916 0.18973 0.59339 0.0
H1565 H 0.04252 0.17741 0.59056 0.0
H1566 H 0.07398 0.17386 0.38392 0.0
H1567 H 0.05894 0.17081 0.4545 0.0
H1568 H 0.02008 0.18943 0.44927 0.0
C1569 C 0.99772 0.17785 0.60932 0.0
C1570 C 0.03762 0.18021 0.55996 0.0
C1571 C 0.98501 0.16965 0.64271 0.0
C1572 C 0.06846 0.18241 0.39028 0.0
C1573 C 0.05992 0.18073 0.43077 0.0
C1574 C 0.02534 0.18732 0.48018 0.0
C1575 C 1.00828 0.17062 0.59616 0.0
C1576 C 0.02055 0.17824 0.55803 0.0
C1577 C 0.05219 0.19125 0.43976 0.0
C1578 C 0.04206 0.18842 0.48144 0.0
H1579 H 0.99196 0.13512 0.66661 0.0
H1580 H 1.01405 0.14931 0.60762 0.0
H1581 H 1.00148 0.18069 0.51575 0.0
H1582 H 0.06261 0.21493 0.34283 0.0
H1583 H 0.04756 0.21197 0.41387 0.0
C1584 C 0.78396 0.50084 0.76119 0.0
C1585 C 0.78275 0.49768 0.71481 0.0
C1586 C 0.78848 0.49119 0.79118 0.0
C1587 C 0.79563 0.45166 0.80237 0.0
H1588 H 0.8241 0.4782 0.90433 0.0
C1589 C 0.83317 0.4257 0.91672 0.0
C1590 C 0.83506 0.42959 0.9629 0.0
C1591 C 0.82565 0.43292 0.88728 0.0
C1592 C 0.81596 0.4704 0.87652 0.0
H1593 H 0.78524 0.48145 0.66399 0.0
H1594 H 0.79327 0.46458 0.71611 0.0
H1595 H 0.81319 0.49211 0.85212 0.0
H1596 H 0.82955 0.44385 0.01378 0.0
H1597 H 0.81663 0.45651 0.96275 0.0
H1598 H 0.79881 0.43004 0.82664 0.0
C1599 C 0.79034 0.47437 0.72966 0.0
C1600 C 0.80958 0.47844 0.84621 0.0
C1601 C 0.78558 0.48398 0.69951 0.0
C1602 C 0.8287 0.44069 0.9786 0.0
C1603 C 0.82127 0.44803 0.94904 0.0
C1604 C 0.80211 0.44363 0.83264 0.0
C1605 C 0.79238 0.47815 0.77609 0.0
C1606 C 0.79919 0.46925 0.8085 0.0
C1607 C 0.81973 0.44442 0.90265 0.0
C1608 C 0.81241 0.45284 0.87042 0.0
H1609 H 0.78201 0.51136 0.7743 0.0
H1610 H 0.78926 0.49432 0.82639 0.0
H1611 H 0.78757 0.44389 0.77443 0.0
H1612 H 0.83785 0.41727 0.90285 0.0
H1613 H 0.82497 0.42983 0.85205 0.0
C1614 C 0.59639 0.40762 0.94179 0.0
C1615 C 0.58924 0.40477 0.98535 0.0
C1616 C 0.59007 0.39387 0.91002 0.0
C1617 C 0.551 0.3491 0.88205 0.0
H1618 H 0.58348 0.3484 0.79452 0.0
C1619 C 0.52607 0.29345 0.74552 0.0
C1620 C 0.53342 0.29823 0.70237 0.0
C1621 C 0.53358 0.30521 0.78198 0.0
C1622 C 0.57407 0.34839 0.81822 0.0
H1623 H 0.5697 0.38453 0.02902 0.0
H1624 H 0.55867 0.36052 0.97373 0.0
H1625 H 0.59478 0.37061 0.8535 0.0
H1626 H 0.55428 0.31947 0.6639 0.0
H1627 H 0.56753 0.33984 0.72687 0.0
H1628 H 0.53024 0.32699 0.84642 0.0
C1629 C 0.56916 0.3736 0.96399 0.0
C1630 C 0.58062 0.36127 0.85243 0.0
C1631 C 0.5756 0.38742 0.99605 0.0
C1632 C 0.54868 0.31503 0.69694 0.0
C1633 C 0.55622 0.32681 0.73333 0.0
C1634 C 0.54442 0.33622 0.84773 0.0
C1635 C 0.57624 0.37658 0.92018 0.0
C1636 C 0.56922 0.36203 0.88487 0.0
C1637 C 0.5486 0.32233 0.77652 0.0
C1638 C 0.55579 0.33566 0.81478 0.0
H1639 H 0.60685 0.42068 0.93172 0.0
H1640 H 0.59583 0.39703 0.87688 0.0
H1641 H 0.54161 0.3492 0.90565 0.0
H1642 H 0.51398 0.28087 0.75071 0.0
H1643 H 0.52732 0.30094 0.81438 0.0
C1644 C 0.65366 0.20673 0.99981 0.0
C1645 C 0.63651 0.19174 0.99665 0.0
C1646 C 0.66464 0.21382 0.96178 0.0
C1647 C 0.66481 0.21078 0.83478 0.0
H1648 H 0.71564 0.23065 0.8513 0.0
C1649 C 0.71163 0.21875 0.68679 0.0
C1650 C 0.72915 0.23329 0.68472 0.0
C1651 C 0.70062 0.21584 0.72394 0.0
C1652 C 0.70152 0.22538 0.84587 0.0
H1653 H 0.61776 0.17224 0.95059 0.0
H1654 H 0.63662 0.18438 0.88457 0.0
H1655 H 0.69603 0.22156 0.91623 0.0
H1656 H 0.74862 0.25631 0.72131 0.0
H1657 H 0.72936 0.25122 0.78678 0.0
H1658 H 0.67029 0.21419 0.76436 0.0
C1659 C 0.64158 0.1912 0.91605 0.0
C1660 C 0.69013 0.22013 0.88346 0.0
C1661 C 0.63058 0.18421 0.95409 0.0
C1662 C 0.73518 0.24509 0.72123 0.0
C1663 C 0.72415 0.24202 0.75908 0.0
C1664 C 0.67617 0.21591 0.79729 0.0
C1665 C 0.65904 0.20596 0.91914 0.0
C1666 C 0.67147 0.21253 0.87879 0.0
C1667 C 0.70665 0.22722 0.7612 0.0
C1668 C 0.69474 0.22313 0.80195 0.0
H1669 H 0.65891 0.21255 0.03222 0.0
H1670 H 0.67774 0.2253 0.96622 0.0
H1671 H 0.65072 0.20546 0.82899 0.0
H1672 H 0.70641 0.20927 0.65962 0.0
H1673 H 0.68747 0.20419 0.72393 0.0
C1674 C 0.53234 0.15567 0.99724 0.0
C1675 C 0.54904 0.16872 0.01334 0.0
C1676 C 0.52413 0.15955 0.96217 0.0
C1677 C 0.52395 0.19672 0.904 0.0
H1678 H 0.51014 0.16673 0.79877 0.0
C1679 C 0.5223 0.22329 0.73145 0.0
C1680 C 0.5084 0.21277 0.70185 0.0
C1681 C 0.52406 0.21634 0.77184 0.0
C1682 C 0.51357 0.17503 0.82821 0.0
H1683 H 0.57003 0.19611 1.00658 0.0
H1684 H 0.55573 0.20294 0.94536 0.0
H1685 H 0.51881 0.15733 0.86701 0.0
H1686 H 0.48552 0.18662 0.69112 0.0
H1687 H 0.48873 0.17431 0.76216 0.0
H1688 H 0.51922 0.21465 0.8651 0.0
C1689 C 0.54897 0.18973 0.95982 0.0
C1690 C 0.51854 0.16966 0.86718 0.0
C1691 C 0.55724 0.18579 0.99443 0.0
C1692 C 0.49644 0.19499 0.71318 0.0
C1693 C 0.49823 0.18798 0.7538 0.0
C1694 C 0.51892 0.20203 0.86524 0.0
C1695 C 0.5324 0.17663 0.94321 0.0
C1696 C 0.52434 0.18077 0.90482 0.0
C1697 C 0.51198 0.19868 0.78364 0.0
C1698 C 0.51431 0.19155 0.82651 0.0
H1699 H 0.52583 0.14237 1.01111 0.0
H1700 H 0.51134 0.14925 0.94986 0.0
H1701 H 0.52807 0.20534 0.93293 0.0
H1702 H 0.53197 0.2369 0.72321 0.0
H1703 H 0.5351 0.22476 0.79361 0.0
C1704 C 0.84101 0.36 0.01299 0.0
C1705 C 0.85895 0.37087 0.02517 0.0
C1706 C 0.83622 0.34678 0.98082 0.0
C1707 C 0.85569 0.33925 0.88214 0.0
H1708 H 0.81107 0.2947 0.87649 0.0
C1709 C 0.83265 0.2985 0.72008 0.0
C1710 C 0.81481 0.29238 0.70839 0.0
C1711 C 0.83881 0.30503 0.76295 0.0
C1712 C 0.82358 0.30712 0.87762 0.0
H1713 H 0.88574 0.37538 0.01542 0.0
H1714 H 0.8773 0.35216 0.96015 0.0
H1715 H 0.82038 0.31107 0.94687 0.0
H1716 H 0.78946 0.28834 0.73224 0.0
H1717 H 0.80023 0.3 0.8066 0.0
H1718 H 0.85858 0.33583 0.81266 0.0
C1719 C 0.867 0.35408 0.97495 0.0
C1720 C 0.82891 0.31644 0.91788 0.0
C1721 C 0.87179 0.36731 1.007 0.0
C1722 C 0.80322 0.29274 0.74048 0.0
C1723 C 0.80937 0.29933 0.78318 0.0
C1724 C 0.85035 0.32999 0.84194 0.0
C1725 C 0.84929 0.34415 0.96033 0.0
C1726 C 0.84481 0.33281 0.9202 0.0
C1727 C 0.82726 0.30566 0.79482 0.0
C1728 C 0.83402 0.31406 0.83894 0.0
H1729 H 0.83074 0.36213 0.02701 0.0
H1730 H 0.82245 0.33936 0.97014 0.0
H1731 H 0.86789 0.35198 0.88267 0.0
H1732 H 0.84179 0.29809 0.69623 0.0
H1733 H 0.85263 0.30964 0.7711 0.0
C1734 C 0.65617 0.46983 1.01198 0.0
C1735 C 0.65256 0.48114 0.03784 0.0
C1736 C 0.66979 0.47685 0.98047 0.0
C1737 C 0.68874 0.51409 0.9056 0.0
H1738 H 0.71725 0.49375 0.86595 0.0
C1739 C 0.71685 0.50085 0.73214 0.0
C1740 C 0.72398 0.51752 0.71142 0.0
C1741 C 0.71092 0.49853 0.77618 0.0
C1742 C 0.70929 0.49951 0.87655 0.0
H1743 H 0.6619 0.50868 0.05483 0.0
H1744 H 0.68548 0.52092 0.99888 0.0
H1745 H 0.7038 0.48643 0.94021 0.0
H1746 H 0.73045 0.54486 0.72016 0.0
H1747 H 0.72008 0.54086 0.7973 0.0
H1748 H 0.69334 0.52639 0.8413 0.0
C1749 C 0.67755 0.50664 1.0027 0.0
C1750 C 0.70175 0.49544 0.91912 0.0
C1751 C 0.66399 0.49961 0.0345 0.0
C1752 C 0.72468 0.53178 0.73512 0.0
C1753 C 0.71886 0.5295 0.77934 0.0
C1754 C 0.69617 0.51807 0.86295 0.0
C1755 C 0.68003 0.49529 0.97412 0.0
C1756 C 0.69101 0.50231 0.9335 0.0
C1757 C 0.71214 0.5129 0.80051 0.0
C1758 C 0.70608 0.51039 0.84751 0.0
H1759 H 0.64768 0.45556 0.01344 0.0
H1760 H 0.67133 0.46778 0.95866 0.0
H1761 H 0.68028 0.51936 0.91556 0.0
H1762 H 0.7161 0.48966 0.71434 0.0
H1763 H 0.70536 0.48545 0.79116 0.0
C1764 C 0.49459 0.7766 0.31237 0.0
C1765 C 0.50692 0.77186 0.29645 0.0
C1766 C 0.48533 0.78186 0.28246 0.0
C1767 C 0.47347 0.78222 0.16062 0.0
H1768 H 0.47178 0.82442 0.19302 0.0
C1769 C 0.4562 0.82219 0.02904 0.0
C1770 C 0.44964 0.83318 0.04405 0.0
C1771 C 0.46085 0.81267 0.0597 0.0
C1772 C 0.47169 0.8124 0.18325 0.0
H1773 H 0.51861 0.76849 0.23616 0.0
H1774 H 0.50219 0.7769 0.18451 0.0
H1775 H 0.48311 0.81123 0.24624 0.0
H1776 H 0.44228 0.84211 0.10334 0.0
H1777 H 0.44906 0.82485 0.15599 0.0
H1778 H 0.46197 0.78327 0.09773 0.0
C1779 C 0.49957 0.77663 0.21995 0.0
C1780 C 0.47833 0.8048 0.2142 0.0
C1781 C 0.50899 0.77169 0.24975 0.0
C1782 C 0.44703 0.8336 0.09036 0.0
C1783 C 0.45135 0.82391 0.12085 0.0
C1784 C 0.46662 0.7897 0.12977 0.0
C1785 C 0.48793 0.78232 0.23565 0.0
C1786 C 0.47952 0.78965 0.20344 0.0
C1787 C 0.45899 0.81372 0.1065 0.0
C1788 C 0.46569 0.80507 0.1402 0.0
H1789 H 0.49294 0.77736 0.34802 0.0
H1790 H 0.4764 0.78597 0.29615 0.0
H1791 H 0.47394 0.77047 0.15086 0.0
H1792 H 0.45895 0.82194 0.99383 0.0
H1793 H 0.46679 0.80525 0.04655 0.0
C1794 C 0.2304 0.72702 0.29482 0.0
C1795 C 0.24425 0.72993 0.32451 0.0
C1796 C 0.22582 0.71536 0.25845 0.0
C1797 C 0.23961 0.68802 0.18818 0.0
H1798 H 0.18939 0.66356 0.15838 0.0
C1799 C 0.2045 0.63066 0.05005 0.0
C1800 C 0.19178 0.63195 0.02303 0.0
C1801 C 0.21252 0.64219 0.08719 0.0
C1802 C 0.20351 0.67029 0.16579 0.0
H1803 H 0.26448 0.72285 0.33779 0.0
H1804 H 0.25632 0.70209 0.2744 0.0
H1805 H 0.2002 0.68405 0.2206 0.0
H1806 H 0.17838 0.64728 0.01397 0.0
H1807 H 0.19194 0.66669 0.07706 0.0
H1808 H 0.24257 0.67368 0.13301 0.0
C1809 C 0.24909 0.70914 0.27901 0.0
C1810 C 0.20983 0.68229 0.20173 0.0
C1811 C 0.25387 0.72114 0.31548 0.0
C1812 C 0.18782 0.64543 0.03382 0.0
C1813 C 0.19563 0.6567 0.07055 0.0
C1814 C 0.23319 0.67578 0.15211 0.0
C1815 C 0.23462 0.70567 0.25037 0.0
C1816 C 0.22808 0.6918 0.21321 0.0
C1817 C 0.2079 0.65521 0.09855 0.0
C1818 C 0.21503 0.66698 0.13965 0.0
H1819 H 0.22275 0.73363 0.3002 0.0
H1820 H 0.21511 0.71385 0.23683 0.0
H1821 H 0.25373 0.69489 0.19551 0.0
H1822 H 0.20798 0.62054 0.04313 0.0
H1823 H 0.22192 0.64057 0.10777 0.0
C1824 C 0.29592 0.52344 0.28557 0.0
C1825 C 0.30372 0.52764 0.3284 0.0
C1826 C 0.3065 0.53009 0.24661 0.0
C1827 C 0.35212 0.564 0.20386 0.0
H1828 H 0.34146 0.52992 0.10918 0.0
C1829 C 0.40145 0.57819 0.05285 0.0
C1830 C 0.39449 0.56912 1.0123 0.0
C1831 C 0.39032 0.57465 0.09071 0.0
C1832 C 0.34462 0.53991 0.13451 0.0
H1833 H 0.32882 0.54227 0.36335 0.0
H1834 H 0.34704 0.55433 0.29623 0.0
H1835 H 0.32211 0.52169 0.17385 0.0
H1836 H 0.37016 0.54984 0.97969 0.0
H1837 H 0.35089 0.54453 0.04338 0.0
H1838 H 0.37456 0.5823 0.16438 0.0
C1839 C 0.33278 0.54603 0.2923 0.0
C1840 C 0.33337 0.53506 0.17214 0.0
C1841 C 0.32226 0.53917 0.33104 0.0
C1842 C 0.37605 0.5571 1.01026 0.0
C1843 C 0.36496 0.55381 0.04748 0.0
C1844 C 0.36329 0.56895 0.16585 0.0
C1845 C 0.32521 0.54124 0.24921 0.0
C1846 C 0.33689 0.54695 0.20772 0.0
C1847 C 0.37184 0.56206 0.0891 0.0
C1848 C 0.35982 0.557 0.13022 0.0
H1849 H 0.2818 0.51417 0.28208 0.0
H1850 H 0.30003 0.52612 0.2143 0.0
H1851 H 0.35535 0.57367 0.23016 0.0
H1852 H 0.41562 0.58729 0.05608 0.0
H1853 H 0.39644 0.58133 0.12169 0.0
C1854 C 0.19826 0.49129 0.33679 0.0
C1855 C 0.21469 0.5045 0.35379 0.0
C1856 C 0.18967 0.49537 0.30315 0.0
C1857 C 0.1877 0.53208 0.2474 0.0
H1858 H 0.17834 0.504 0.1398 0.0
C1859 C 0.1865 0.5593 0.07413 0.0
C1860 C 0.17516 0.54775 0.04109 0.0
C1861 C 0.18762 0.55276 0.11589 0.0
C1862 C 0.18043 0.51174 0.1698 0.0
H1863 H 0.23463 0.53241 0.3509 0.0
H1864 H 0.21961 0.5396 0.292 0.0
H1865 H 0.18657 0.49469 0.20838 0.0
H1866 H 0.15554 0.52046 0.02611 0.0
H1867 H 0.15729 0.50896 0.09948 0.0
H1868 H 0.18188 0.54933 0.20873 0.0
C1869 C 0.21339 0.52611 0.30466 0.0
C1870 C 0.18518 0.50641 0.20903 0.0
C1871 C 0.22208 0.52198 0.33787 0.0
C1872 C 0.16463 0.52958 0.05082 0.0
C1873 C 0.16561 0.52303 0.0928 0.0
C1874 C 0.18276 0.53732 0.20829 0.0
C1875 C 0.19728 0.51278 0.28653 0.0
C1876 C 0.18939 0.51684 0.2477 0.0
C1877 C 0.17727 0.53454 0.12561 0.0
C1878 C 0.17966 0.52753 0.1687 0.0
H1879 H 0.19237 0.4777 0.34843 0.0
H1880 H 0.17724 0.4849 0.2896 0.0
H1881 H 0.19068 0.54019 0.27709 0.0
H1882 H 0.19489 0.57334 0.06725 0.0
H1883 H 0.19703 0.56194 0.14002 0.0
C1884 C 0.53854 0.7031 0.33056 0.0
C1885 C 0.52585 0.70729 0.34648 0.0
C1886 C 0.53395 0.69021 0.29766 0.0
C1887 C 0.49616 0.65318 0.23976 0.0
H1888 H 0.52603 0.67121 0.13448 0.0
C1889 C 0.46968 0.62872 0.06423 0.0
C1890 C 0.48088 0.62779 0.03195 0.0
C1891 C 0.47622 0.63555 0.10649 0.0
C1892 C 0.51776 0.66574 0.16384 0.0
H1893 H 0.49825 0.70064 0.3427 0.0
H1894 H 0.49018 0.67811 0.28495 0.0
H1895 H 0.53559 0.6879 0.20391 0.0
H1896 H 0.50755 0.63275 0.01883 0.0
H1897 H 0.51907 0.6447 0.09308 0.0
H1898 H 0.47809 0.63124 0.19939 0.0
C1899 C 0.50366 0.68477 0.29796 0.0
C1900 C 0.52323 0.67532 0.2036 0.0
C1901 C 0.5083 0.69778 0.33054 0.0
C1902 C 0.49872 0.6336 0.04292 0.0
C1903 C 0.50527 0.64036 0.0854 0.0
C1904 C 0.49074 0.64351 0.2001 0.0
C1905 C 0.51655 0.68117 0.28051 0.0
C1906 C 0.51221 0.66941 0.24143 0.0
C1907 C 0.4941 0.64151 0.11752 0.0
C1908 C 0.50119 0.65003 0.16131 0.0
H1909 H 0.5522 0.71033 0.34208 0.0
H1910 H 0.5441 0.68761 0.28477 0.0
H1911 H 0.48756 0.64826 0.26873 0.0
H1912 H 0.45594 0.62457 0.05646 0.0
H1913 H 0.46737 0.63666 0.13005 0.0
C1914 C 0.30707 0.82816 0.28331 0.0
C1915 C 0.30439 0.81196 0.30072 0.0
C1916 C 0.31376 0.83351 0.24019 0.0
C1917 C 0.34045 0.84624 0.16409 0.0
H1918 H 0.32739 0.81227 0.06751 0.0
C1919 C 0.38013 0.86537 1.00134 0.0
C1920 C 0.38597 0.85349 0.98929 0.0
C1921 C 0.36645 0.86036 0.03229 0.0
C1922 C 0.33111 0.82191 0.09412 0.0
H1923 H 0.30673 0.78872 0.28683 0.0
H1924 H 0.3185 0.79807 0.21184 0.0
H1925 H 0.3102 0.80346 0.13673 0.0
H1926 H 0.38117 0.82664 0.99768 0.0
H1927 H 0.35763 0.81803 0.05263 0.0
H1928 H 0.36181 0.86445 0.12249 0.0
C1929 C 0.31506 0.80647 0.23107 0.0
C1930 C 0.32131 0.81688 0.13365 0.0
C1931 C 0.3084 0.80115 0.27409 0.0
C1932 C 0.3772 0.83619 1.00696 0.0
C1933 C 0.36353 0.83118 0.03792 0.0
C1934 C 0.35025 0.85127 0.1246 0.0
C1935 C 0.31787 0.82272 0.21376 0.0
C1936 C 0.32626 0.82883 0.1695 0.0
C1937 C 0.35834 0.84337 0.05174 0.0
C1938 C 0.34602 0.83897 0.08981 0.0
H1939 H 0.30381 0.83662 0.30278 0.0
H1940 H 0.31571 0.84606 0.22751 0.0
H1941 H 0.34468 0.85568 0.19132 0.0
H1942 H 0.38665 0.87882 0.98847 0.0
H1943 H 0.36259 0.86996 0.04205 0.0
loop_
_geom_bond_atom_site_label_1
_geom_bond_atom_site_label_2
_geom_bond_distance
_geom_bond_site_symmetry_2
_ccdc_geom_bond_type
C0 C1 1.351 . S
C0 N3 1.368 . S
C0 H5 0.931 . S
C1 C0 1.351 . S
C1 N2 1.373 . S
C1 H29 0.930 . S
N2 C1 1.373 . S
N2 C4 1.340 . S
N3 C0 1.368 . S
N3 C4 1.321 . S
N3 Co6 2.135 . S
C4 N2 1.340 . S
C4 N3 1.321 . S
C4 H28 0.930 . S
H5 C0 0.931 . S
Co6 N3 2.135 . S
Co6 N9 2.121 . S
Co6 O14 2.055 . S
Co6 O17 2.039 . S
Co6 N20 2.140 . S
C7 O8 1.227 . S
C7 O17 1.265 . S
O8 C7 1.227 . S
N9 Co6 2.121 . S
N9 C11 1.375 . S
N9 C12 1.313 . S
C10 C11 1.338 . S
C10 N13 1.377 . S
C10 H30 0.930 . S
C11 N9 1.375 . S
C11 C10 1.338 . S
C11 H15 0.931 . S
C12 N9 1.313 . S
C12 N13 1.344 . S
C12 H16 0.930 . S
N13 C10 1.377 . S
N13 C12 1.344 . S
O14 Co6 2.055 . S
O14 C18 1.253 . S
H15 C11 0.931 . S
H16 C12 0.930 . S
O17 Co6 2.039 . S
O17 C7 1.265 . S
C18 O14 1.253 . S
C18 O19 1.227 . S
O19 C18 1.227 . S
N20 Co6 2.140 . S
N20 C23 1.346 . S
N20 C24 1.345 . S
C21 C22 1.387 . S
C21 C25 1.391 . S
C22 C21 1.387 . S
C22 C23 1.369 . S
C22 H31 0.929 . S
C23 N20 1.346 . S
C23 C22 1.369 . S
C23 H26 0.928 . S
C24 N20 1.345 . S
C24 C25 1.371 . S
C24 H27 0.931 . S
C25 C21 1.391 . S
C25 C24 1.371 . S
C25 H32 0.930 . S
H26 C23 0.928 . S
H27 C24 0.931 . S
H28 C4 0.930 . S
H29 C1 0.930 . S
H30 C10 0.930 . S
H31 C22 0.929 . S
H32 C25 0.930 . S
C33 C34 1.351 . S
C33 N36 1.368 . S
C33 H38 0.931 . S
C34 C33 1.351 . S
C34 N35 1.373 . S
C34 H62 0.930 . S
N35 C34 1.373 . S
N35 C37 1.340 . S
N36 C33 1.368 . S
N36 C37 1.321 . S
N36 Co39 2.135 . S
C37 N35 1.340 . S
C37 N36 1.321 . S
C37 H61 0.930 . S
H38 C33 0.931 . S
Co39 N36 2.135 . S
Co39 N42 2.121 . S
Co39 O47 2.055 . S
Co39 O50 2.039 . S
Co39 N53 2.140 . S
C40 O41 1.227 . S
C40 O50 1.265 . S
O41 C40 1.227 . S
N42 Co39 2.121 . S
N42 C44 1.375 . S
N42 C45 1.313 . S
C43 C44 1.338 . S
C43 N46 1.377 . S
C43 H63 0.930 . S
C44 N42 1.375 . S
C44 C43 1.338 . S
C44 H48 0.931 . S
C45 N42 1.313 . S
C45 N46 1.344 . S
C45 H49 0.930 . S
N46 C43 1.377 . S
N46 C45 1.344 . S
O47 Co39 2.055 . S
O47 C51 1.253 . S
H48 C44 0.931 . S
H49 C45 0.930 . S
O50 Co39 2.039 . S
O50 C40 1.265 . S
C51 O47 1.253 . S
C51 O52 1.227 . S
O52 C51 1.227 . S
N53 Co39 2.140 . S
N53 C56 1.346 . S
N53 C57 1.345 . S
C54 C55 1.387 . S
C54 C58 1.391 . S
C55 C54 1.387 . S
C55 C56 1.369 . S
C55 H64 0.929 . S
C56 N53 1.346 . S
C56 C55 1.369 . S
C56 H59 0.928 . S
C57 N53 1.345 . S
C57 C58 1.371 . S
C57 H60 0.931 . S
C58 C54 1.391 . S
C58 C57 1.371 . S
C58 H65 0.930 . S
H59 C56 0.928 . S
H60 C57 0.931 . S
H61 C37 0.930 . S
H62 C34 0.930 . S
H63 C43 0.930 . S
H64 C55 0.929 . S
H65 C58 0.930 . S
C66 C67 1.351 . S
C66 N69 1.368 . S
C66 H71 0.931 . S
C67 C66 1.351 . S
C67 N68 1.373 . S
C67 H95 0.930 . S
N68 C67 1.373 . S
N68 C70 1.340 . S
N69 C66 1.368 . S
N69 C70 1.321 . S
N69 Co72 2.135 . S
C70 N68 1.340 . S
C70 N69 1.321 . S
C70 H94 0.930 . S
H71 C66 0.931 . S
Co72 N69 2.135 . S
Co72 N75 2.121 . S
Co72 O80 2.055 . S
Co72 O83 2.039 . S
Co72 N86 2.140 . S
C73 O74 1.227 . S
C73 O83 1.265 . S
O74 C73 1.227 . S
N75 Co72 2.121 . S
N75 C77 1.375 . S
N75 C78 1.313 . S
C76 C77 1.338 . S
C76 N79 1.377 . S
C76 H96 0.930 . S
C77 N75 1.375 . S
C77 C76 1.338 . S
C77 H81 0.931 . S
C78 N75 1.313 . S
C78 N79 1.344 . S
C78 H82 0.930 . S
N79 C76 1.377 . S
N79 C78 1.344 . S
O80 Co72 2.055 . S
O80 C84 1.253 . S
H81 C77 0.931 . S
H82 C78 0.930 . S
O83 Co72 2.039 . S
O83 C73 1.265 . S
C84 O80 1.253 . S
C84 O85 1.227 . S
O85 C84 1.227 . S
N86 Co72 2.140 . S
N86 C89 1.346 . S
N86 C90 1.345 . S
C87 C88 1.387 . S
C87 C91 1.391 . S
C88 C87 1.387 . S
C88 C89 1.369 . S
C88 H97 0.929 . S
C89 N86 1.346 . S
C89 C88 1.369 . S
C89 H92 0.928 . S
C90 N86 1.345 . S
C90 C91 1.371 . S
C90 H93 0.931 . S
C91 C87 1.391 . S
C91 C90 1.371 . S
C91 H98 0.930 . S
H92 C89 0.928 . S
H93 C90 0.931 . S
H94 C70 0.930 . S
H95 C67 0.930 . S
H96 C76 0.930 . S
H97 C88 0.929 . S
H98 C91 0.930 . S
C99 C100 1.351 . S
C99 N102 1.368 . S
C99 H104 0.931 . S
C100 C99 1.351 . S
C100 N101 1.373 . S
C100 H128 0.930 . S
N101 C100 1.373 . S
N101 C103 1.340 . S
N102 C99 1.368 . S
N102 C103 1.321 . S
N102 Co105 2.135 . S
C103 N101 1.340 . S
C103 N102 1.321 . S
C103 H127 0.930 . S
H104 C99 0.931 . S
Co105 N102 2.135 . S
Co105 N108 2.121 . S
Co105 O113 2.055 . S
Co105 O116 2.039 . S
Co105 N119 2.140 . S
C106 O107 1.227 . S
C106 O116 1.265 . S
O107 C106 1.227 . S
N108 Co105 2.121 . S
N108 C110 1.375 . S
N108 C111 1.313 . S
C109 C110 1.338 . S
C109 N112 1.377 . S
C109 H129 0.930 . S
C110 N108 1.375 . S
C110 C109 1.338 . S
C110 H114 0.931 . S
C111 N108 1.313 . S
C111 N112 1.344 . S
C111 H115 0.930 . S
N112 C109 1.377 . S
N112 C111 1.344 . S
O113 Co105 2.055 . S
O113 C117 1.253 . S
H114 C110 0.931 . S
H115 C111 0.930 . S
O116 Co105 2.039 . S
O116 C106 1.265 . S
C117 O113 1.253 . S
C117 O118 1.227 . S
O118 C117 1.227 . S
N119 Co105 2.140 . S
N119 C122 1.346 . S
N119 C123 1.345 . S
C120 C121 1.387 . S
C120 C124 1.391 . S
C121 C120 1.387 . S
C121 C122 1.369 . S
C121 H130 0.929 . S
C122 N119 1.346 . S
C122 C121 1.369 . S
C122 H125 0.928 . S
C123 N119 1.345 . S
C123 C124 1.371 . S
C123 H126 0.931 . S
C124 C120 1.391 . S
C124 C123 1.371 . S
C124 H131 0.930 . S
H125 C122 0.928 . S
H126 C123 0.931 . S
H127 C103 0.930 . S
H128 C100 0.930 . S
H129 C109 0.930 . S
H130 C121 0.929 . S
H131 C124 0.930 . S
C132 C133 1.351 . S
C132 N135 1.368 . S
C132 H137 0.931 . S
C133 C132 1.351 . S
C133 N134 1.373 . S
C133 H161 0.930 . S
N134 C133 1.373 . S
N134 C136 1.340 . S
N135 C132 1.368 . S
N135 C136 1.321 . S
N135 Co138 2.135 . S
C136 N134 1.340 . S
C136 N135 1.321 . S
C136 H160 0.930 . S
H137 C132 0.931 . S
Co138 N135 2.135 . S
Co138 N141 2.121 . S
Co138 O146 2.055 . S
Co138 O149 2.039 . S
Co138 N152 2.140 . S
C139 O140 1.227 . S
C139 O149 1.265 . S
O140 C139 1.227 . S
N141 Co138 2.121 . S
N141 C143 1.375 . S
N141 C144 1.313 . S
C142 C143 1.338 . S
C142 N145 1.377 . S
C142 H162 0.930 . S
C143 N141 1.375 . S
C143 C142 1.338 . S
C143 H147 0.931 . S
C144 N141 1.313 . S
C144 N145 1.344 . S
C144 H148 0.930 . S
N145 C142 1.377 . S
N145 C144 1.344 . S
O146 Co138 2.055 . S
O146 C150 1.253 . S
H147 C143 0.931 . S
H148 C144 0.930 . S
O149 Co138 2.039 . S
O149 C139 1.265 . S
C150 O146 1.253 . S
C150 O151 1.227 . S
O151 C150 1.227 . S
N152 Co138 2.140 . S
N152 C155 1.346 . S
N152 C156 1.345 . S
C153 C154 1.387 . S
C153 C157 1.391 . S
C154 C153 1.387 . S
C154 C155 1.369 . S
C154 H163 0.929 . S
C155 N152 1.346 . S
C155 C154 1.369 . S
C155 H158 0.928 . S
C156 N152 1.345 . S
C156 C157 1.371 . S
C156 H159 0.931 . S
C157 C153 1.391 . S
C157 C156 1.371 . S
C157 H164 0.930 . S
H158 C155 0.928 . S
H159 C156 0.931 . S
H160 C136 0.930 . S
H161 C133 0.930 . S
H162 C142 0.930 . S
H163 C154 0.929 . S
H164 C157 0.930 . S
C165 C166 1.351 . S
C165 N168 1.368 . S
C165 H170 0.931 . S
C166 C165 1.351 . S
C166 N167 1.373 . S
C166 H194 0.930 . S
N167 C166 1.373 . S
N167 C169 1.340 . S
N168 C165 1.368 . S
N168 C169 1.321 . S
N168 Co171 2.135 . S
C169 N167 1.340 . S
C169 N168 1.321 . S
C169 H193 0.930 . S
H170 C165 0.931 . S
Co171 N168 2.135 . S
Co171 N174 2.121 . S
Co171 O179 2.055 . S
Co171 O182 2.039 . S
Co171 N185 2.140 . S
C172 O173 1.227 . S
C172 O182 1.265 . S
O173 C172 1.227 . S
N174 Co171 2.121 . S
N174 C176 1.375 . S
N174 C177 1.313 . S
C175 C176 1.338 . S
C175 N178 1.377 . S
C175 H195 0.930 . S
C176 N174 1.375 . S
C176 C175 1.338 . S
C176 H180 0.931 . S
C177 N174 1.313 . S
C177 N178 1.344 . S
C177 H181 0.930 . S
N178 C175 1.377 . S
N178 C177 1.344 . S
O179 Co171 2.055 . S
O179 C183 1.253 . S
H180 C176 0.931 . S
H181 C177 0.930 . S
O182 Co171 2.039 . S
O182 C172 1.265 . S
C183 O179 1.253 . S
C183 O184 1.227 . S
O184 C183 1.227 . S
N185 Co171 2.140 . S
N185 C188 1.346 . S
N185 C189 1.345 . S
C186 C187 1.387 . S
C186 C190 1.391 . S
C187 C186 1.387 . S
C187 C188 1.369 . S
C187 H196 0.929 . S
C188 N185 1.346 . S
C188 C187 1.369 . S
C188 H191 0.928 . S
C189 N185 1.345 . S
C189 C190 1.371 . S
C189 H192 0.931 . S
C190 C186 1.391 . S
C190 C189 1.371 . S
C190 H197 0.930 . S
H191 C188 0.928 . S
H192 C189 0.931 . S
H193 C169 0.930 . S
H194 C166 0.930 . S
H195 C175 0.930 . S
H196 C187 0.929 . S
H197 C190 0.930 . S
C198 C199 1.351 . S
C198 N201 1.368 . S
C198 H203 0.931 . S
C199 C198 1.351 . S
C199 N200 1.373 . S
C199 H227 0.930 . S
N200 C199 1.373 . S
N200 C202 1.340 . S
N201 C198 1.368 . S
N201 C202 1.321 . S
N201 Co204 2.135 . S
C202 N200 1.340 . S
C202 N201 1.321 . S
C202 H226 0.930 . S
H203 C198 0.931 . S
Co204 N201 2.135 . S
Co204 N207 2.121 . S
Co204 O212 2.055 . S
Co204 O215 2.039 . S
Co204 N218 2.140 . S
C205 O206 1.227 . S
C205 O215 1.265 . S
O206 C205 1.227 . S
N207 Co204 2.121 . S
N207 C209 1.375 . S
N207 C210 1.313 . S
C208 C209 1.338 . S
C208 N211 1.377 . S
C208 H228 0.930 . S
C209 N207 1.375 . S
C209 C208 1.338 . S
C209 H213 0.931 . S
C210 N207 1.313 . S
C210 N211 1.344 . S
C210 H214 0.930 . S
N211 C208 1.377 . S
N211 C210 1.344 . S
O212 Co204 2.055 . S
O212 C216 1.253 . S
H213 C209 0.931 . S
H214 C210 0.930 . S
O215 Co204 2.039 . S
O215 C205 1.265 . S
C216 O212 1.253 . S
C216 O217 1.227 . S
O217 C216 1.227 . S
N218 Co204 2.140 . S
N218 C221 1.346 . S
N218 C222 1.345 . S
C219 C220 1.387 . S
C219 C223 1.391 . S
C220 C219 1.387 . S
C220 C221 1.369 . S
C220 H229 0.929 . S
C221 N218 1.346 . S
C221 C220 1.369 . S
C221 H224 0.928 . S
C222 N218 1.345 . S
C222 C223 1.371 . S
C222 H225 0.931 . S
C223 C219 1.391 . S
C223 C222 1.371 . S
C223 H230 0.930 . S
H224 C221 0.928 . S
H225 C222 0.931 . S
H226 C202 0.930 . S
H227 C199 0.930 . S
H228 C208 0.930 . S
H229 C220 0.929 . S
H230 C223 0.930 . S
C231 C232 1.351 . S
C231 N234 1.368 . S
C231 H236 0.931 . S
C232 C231 1.351 . S
C232 N233 1.373 . S
C232 H260 0.930 . S
N233 C232 1.373 . S
N233 C235 1.340 . S
N234 C231 1.368 . S
N234 C235 1.321 . S
N234 Co237 2.135 . S
C235 N233 1.340 . S
C235 N234 1.321 . S
C235 H259 0.930 . S
H236 C231 0.931 . S
Co237 N234 2.135 . S
Co237 N240 2.121 . S
Co237 O245 2.055 . S
Co237 O248 2.039 . S
Co237 N251 2.140 . S
C238 O239 1.227 . S
C238 O248 1.265 . S
O239 C238 1.227 . S
N240 Co237 2.121 . S
N240 C242 1.375 . S
N240 C243 1.313 . S
C241 C242 1.338 . S
C241 N244 1.377 . S
C241 H261 0.930 . S
C242 N240 1.375 . S
C242 C241 1.338 . S
C242 H246 0.931 . S
C243 N240 1.313 . S
C243 N244 1.344 . S
C243 H247 0.930 . S
N244 C241 1.377 . S
N244 C243 1.344 . S
O245 Co237 2.055 . S
O245 C249 1.253 . S
H246 C242 0.931 . S
H247 C243 0.930 . S
O248 Co237 2.039 . S
O248 C238 1.265 . S
C249 O245 1.253 . S
C249 O250 1.227 . S
O250 C249 1.227 . S
N251 Co237 2.140 . S
N251 C254 1.346 . S
N251 C255 1.345 . S
C252 C253 1.387 . S
C252 C256 1.391 . S
C253 C252 1.387 . S
C253 C254 1.369 . S
C253 H262 0.929 . S
C254 N251 1.346 . S
C254 C253 1.369 . S
C254 H257 0.928 . S
C255 N251 1.345 . S
C255 C256 1.371 . S
C255 H258 0.931 . S
C256 C252 1.391 . S
C256 C255 1.371 . S
C256 H263 0.930 . S
H257 C254 0.928 . S
H258 C255 0.931 . S
H259 C235 0.930 . S
H260 C232 0.930 . S
H261 C241 0.930 . S
H262 C253 0.929 . S
H263 C256 0.930 . S
C264 C265 1.351 . S
C264 N267 1.368 . S
C264 H269 0.931 . S
C265 C264 1.351 . S
C265 N266 1.373 . S
C265 H293 0.930 . S
N266 C265 1.373 . S
N266 C268 1.340 . S
N267 C264 1.368 . S
N267 C268 1.321 . S
N267 Co270 2.135 . S
C268 N266 1.340 . S
C268 N267 1.321 . S
C268 H292 0.930 . S
H269 C264 0.931 . S
Co270 N267 2.135 . S
Co270 N273 2.121 . S
Co270 O278 2.055 . S
Co270 O281 2.039 . S
Co270 N284 2.140 . S
C271 O272 1.227 . S
C271 O281 1.265 . S
O272 C271 1.227 . S
N273 Co270 2.121 . S
N273 C275 1.375 . S
N273 C276 1.313 . S
C274 C275 1.338 . S
C274 N277 1.377 . S
C274 H294 0.930 . S
C275 N273 1.375 . S
C275 C274 1.338 . S
C275 H279 0.931 . S
C276 N273 1.313 . S
C276 N277 1.344 . S
C276 H280 0.930 . S
N277 C274 1.377 . S
N277 C276 1.344 . S
O278 Co270 2.055 . S
O278 C282 1.253 . S
H279 C275 0.931 . S
H280 C276 0.930 . S
O281 Co270 2.039 . S
O281 C271 1.265 . S
C282 O278 1.253 . S
C282 O283 1.227 . S
O283 C282 1.227 . S
N284 Co270 2.140 . S
N284 C287 1.346 . S
N284 C288 1.345 . S
C285 C286 1.387 . S
C285 C289 1.391 . S
C286 C285 1.387 . S
C286 C287 1.369 . S
C286 H295 0.929 . S
C287 N284 1.346 . S
C287 C286 1.369 . S
C287 H290 0.928 . S
C288 N284 1.345 . S
C288 C289 1.371 . S
C288 H291 0.931 . S
C289 C285 1.391 . S
C289 C288 1.371 . S
C289 H296 0.930 . S
H290 C287 0.928 . S
H291 C288 0.931 . S
H292 C268 0.930 . S
H293 C265 0.930 . S
H294 C274 0.930 . S
H295 C286 0.929 . S
H296 C289 0.930 . S
C297 C298 1.351 . S
C297 N300 1.368 . S
C297 H302 0.931 . S
C298 C297 1.351 . S
C298 N299 1.373 1_554 S
C298 H326 0.930 . S
N299 C298 1.373 1_556 S
N299 C301 1.340 . S
N300 C297 1.368 . S
N300 C301 1.321 1_554 S
N300 Co303 2.135 . S
C301 N299 1.340 . S
C301 N300 1.321 1_556 S
C301 H325 0.930 . S
H302 C297 0.931 . S
Co303 N300 2.135 . S
Co303 N306 2.121 . S
Co303 O311 2.055 . S
Co303 O314 2.039 . S
Co303 N317 2.140 . S
C304 O305 1.227 1_554 S
C304 O314 1.265 . S
O305 C304 1.227 1_556 S
N306 Co303 2.121 . S
N306 C308 1.375 . S
N306 C309 1.313 . S
C307 C308 1.338 . S
C307 N310 1.377 . S
C307 H327 0.930 . S
C308 N306 1.375 . S
C308 C307 1.338 . S
C308 H312 0.931 . S
C309 N306 1.313 . S
C309 N310 1.344 . S
C309 H313 0.930 . S
N310 C307 1.377 . S
N310 C309 1.344 . S
O311 Co303 2.055 . S
O311 C315 1.253 . S
H312 C308 0.931 . S
H313 C309 0.930 . S
O314 Co303 2.039 . S
O314 C304 1.265 . S
C315 O311 1.253 . S
C315 O316 1.227 . S
O316 C315 1.227 . S
N317 Co303 2.140 . S
N317 C320 1.346 . S
N317 C321 1.345 . S
C318 C319 1.387 . S
C318 C322 1.391 . S
C319 C318 1.387 . S
C319 C320 1.369 . S
C319 H328 0.929 1_554 S
C320 N317 1.346 . S
C320 C319 1.369 . S
C320 H323 0.928 . S
C321 N317 1.345 . S
C321 C322 1.371 . S
C321 H324 0.931 . S
C322 C318 1.391 . S
C322 C321 1.371 . S
C322 H329 0.930 . S
H323 C320 0.928 . S
H324 C321 0.931 . S
H325 C301 0.930 . S
H326 C298 0.930 . S
H327 C307 0.930 . S
H328 C319 0.929 1_556 S
H329 C322 0.930 . S
C330 C331 1.351 . S
C330 N333 1.368 . S
C330 H335 0.931 . S
C331 C330 1.351 . S
C331 N332 1.373 1_554 S
C331 H359 0.930 . S
N332 C331 1.373 1_556 S
N332 C334 1.340 . S
N333 C330 1.368 . S
N333 C334 1.321 1_554 S
N333 Co336 2.135 . S
C334 N332 1.340 . S
C334 N333 1.321 1_556 S
C334 H358 0.930 . S
H335 C330 0.931 . S
Co336 N333 2.135 . S
Co336 N339 2.121 . S
Co336 O344 2.055 . S
Co336 O347 2.039 . S
Co336 N350 2.140 . S
C337 O338 1.227 1_554 S
C337 O347 1.265 . S
O338 C337 1.227 1_556 S
N339 Co336 2.121 . S
N339 C341 1.375 . S
N339 C342 1.313 . S
C340 C341 1.338 . S
C340 N343 1.377 . S
C340 H360 0.930 . S
C341 N339 1.375 . S
C341 C340 1.338 . S
C341 H345 0.931 . S
C342 N339 1.313 . S
C342 N343 1.344 . S
C342 H346 0.930 . S
N343 C340 1.377 . S
N343 C342 1.344 . S
O344 Co336 2.055 . S
O344 C348 1.253 . S
H345 C341 0.931 . S
H346 C342 0.930 . S
O347 Co336 2.039 . S
O347 C337 1.265 . S
C348 O344 1.253 . S
C348 O349 1.227 . S
O349 C348 1.227 . S
N350 Co336 2.140 . S
N350 C353 1.346 . S
N350 C354 1.345 . S
C351 C352 1.387 . S
C351 C355 1.391 . S
C352 C351 1.387 . S
C352 C353 1.369 . S
C352 H361 0.929 1_554 S
C353 N350 1.346 . S
C353 C352 1.369 . S
C353 H356 0.928 . S
C354 N350 1.345 . S
C354 C355 1.371 . S
C354 H357 0.931 . S
C355 C351 1.391 . S
C355 C354 1.371 . S
C355 H362 0.930 . S
H356 C353 0.928 . S
H357 C354 0.931 . S
H358 C334 0.930 . S
H359 C331 0.930 . S
H360 C340 0.930 . S
H361 C352 0.929 1_556 S
H362 C355 0.930 . S
C363 C364 1.351 . S
C363 N366 1.368 . S
C363 H368 0.931 . S
C364 C363 1.351 . S
C364 N365 1.373 1_554 S
C364 H392 0.930 . S
N365 C364 1.373 1_556 S
N365 C367 1.340 . S
N366 C363 1.368 . S
N366 C367 1.321 1_554 S
N366 Co369 2.135 . S
C367 N365 1.340 . S
C367 N366 1.321 1_556 S
C367 H391 0.930 . S
H368 C363 0.931 . S
Co369 N366 2.135 . S
Co369 N372 2.121 . S
Co369 O377 2.055 . S
Co369 O380 2.039 . S
Co369 N383 2.140 . S
C370 O371 1.227 1_554 S
C370 O380 1.265 . S
O371 C370 1.227 1_556 S
N372 Co369 2.121 . S
N372 C374 1.375 . S
N372 C375 1.313 . S
C373 C374 1.338 . S
C373 N376 1.377 . S
C373 H393 0.930 . S
C374 N372 1.375 . S
C374 C373 1.338 . S
C374 H378 0.931 . S
C375 N372 1.313 . S
C375 N376 1.344 . S
C375 H379 0.930 . S
N376 C373 1.377 . S
N376 C375 1.344 . S
O377 Co369 2.055 . S
O377 C381 1.253 . S
H378 C374 0.931 . S
H379 C375 0.930 . S
O380 Co369 2.039 . S
O380 C370 1.265 . S
C381 O377 1.253 . S
C381 O382 1.227 . S
O382 C381 1.227 . S
N383 Co369 2.140 . S
N383 C386 1.346 . S
N383 C387 1.345 . S
C384 C385 1.387 . S
C384 C388 1.391 . S
C385 C384 1.387 . S
C385 C386 1.369 . S
C385 H394 0.929 1_554 S
C386 N383 1.346 . S
C386 C385 1.369 . S
C386 H389 0.928 . S
C387 N383 1.345 . S
C387 C388 1.371 . S
C387 H390 0.931 . S
C388 C384 1.391 . S
C388 C387 1.371 . S
C388 H395 0.930 . S
H389 C386 0.928 . S
H390 C387 0.931 . S
H391 C367 0.930 . S
H392 C364 0.930 . S
H393 C373 0.930 . S
H394 C385 0.929 1_556 S
H395 C388 0.930 . S
C396 C397 1.351 . S
C396 N399 1.368 . S
C396 H401 0.931 . S
C397 C396 1.351 . S
C397 N398 1.373 1_556 S
C397 H425 0.930 . S
N398 C397 1.373 1_554 S
N398 C400 1.340 . S
N399 C396 1.368 . S
N399 C400 1.321 1_556 S
N399 Co402 2.135 . S
C400 N398 1.340 . S
C400 N399 1.321 1_554 S
C400 H424 0.930 . S
H401 C396 0.931 . S
Co402 N399 2.135 . S
Co402 N405 2.121 . S
Co402 O410 2.055 . S
Co402 O413 2.039 . S
Co402 N416 2.140 . S
C403 O404 1.227 1_556 S
C403 O413 1.265 . S
O404 C403 1.227 1_554 S
N405 Co402 2.121 . S
N405 C407 1.375 . S
N405 C408 1.313 . S
C406 C407 1.338 . S
C406 N409 1.377 . S
C406 H426 0.930 . S
C407 N405 1.375 . S
C407 C406 1.338 . S
C407 H411 0.931 . S
C408 N405 1.313 . S
C408 N409 1.344 . S
C408 H412 0.930 . S
N409 C406 1.377 . S
N409 C408 1.344 . S
O410 Co402 2.055 . S
O410 C414 1.253 . S
H411 C407 0.931 . S
H412 C408 0.930 . S
O413 Co402 2.039 . S
O413 C403 1.265 . S
C414 O410 1.253 . S
C414 O415 1.227 . S
O415 C414 1.227 . S
N416 Co402 2.140 . S
N416 C419 1.346 . S
N416 C420 1.345 . S
C417 C418 1.387 . S
C417 C421 1.391 . S
C418 C417 1.387 . S
C418 C419 1.369 . S
C418 H427 0.929 1_556 S
C419 N416 1.346 . S
C419 C418 1.369 . S
C419 H422 0.928 . S
C420 N416 1.345 . S
C420 C421 1.371 . S
C420 H423 0.931 . S
C421 C417 1.391 . S
C421 C420 1.371 . S
C421 H428 0.930 . S
H422 C419 0.928 . S
H423 C420 0.931 . S
H424 C400 0.930 . S
H425 C397 0.930 . S
H426 C406 0.930 . S
H427 C418 0.929 1_554 S
H428 C421 0.930 . S
C429 C430 1.351 . S
C429 N432 1.368 . S
C429 H434 0.931 . S
C430 C429 1.351 . S
C430 N431 1.373 1_556 S
C430 H458 0.930 . S
N431 C430 1.373 1_554 S
N431 C433 1.340 . S
N432 C429 1.368 . S
N432 C433 1.321 1_556 S
N432 Co435 2.135 . S
C433 N431 1.340 . S
C433 N432 1.321 1_554 S
C433 H457 0.930 . S
H434 C429 0.931 . S
Co435 N432 2.135 . S
Co435 N438 2.121 . S
Co435 O443 2.055 . S
Co435 O446 2.039 . S
Co435 N449 2.140 . S
C436 O437 1.227 1_556 S
C436 O446 1.265 . S
O437 C436 1.227 1_554 S
N438 Co435 2.121 . S
N438 C440 1.375 . S
N438 C441 1.313 . S
C439 C440 1.338 . S
C439 N442 1.377 . S
C439 H459 0.930 . S
C440 N438 1.375 . S
C440 C439 1.338 . S
C440 H444 0.931 . S
C441 N438 1.313 . S
C441 N442 1.344 . S
C441 H445 0.930 . S
N442 C439 1.377 . S
N442 C441 1.344 . S
O443 Co435 2.055 . S
O443 C447 1.253 . S
H444 C440 0.931 . S
H445 C441 0.930 . S
O446 Co435 2.039 . S
O446 C436 1.265 . S
C447 O443 1.253 . S
C447 O448 1.227 . S
O448 C447 1.227 . S
N449 Co435 2.140 . S
N449 C452 1.346 . S
N449 C453 1.345 . S
C450 C451 1.387 . S
C450 C454 1.391 . S
C451 C450 1.387 . S
C451 C452 1.369 . S
C451 H460 0.929 1_556 S
C452 N449 1.346 . S
C452 C451 1.369 . S
C452 H455 0.928 . S
C453 N449 1.345 . S
C453 C454 1.371 . S
C453 H456 0.931 . S
C454 C450 1.391 . S
C454 C453 1.371 . S
C454 H461 0.930 . S
H455 C452 0.928 . S
H456 C453 0.931 . S
H457 C433 0.930 . S
H458 C430 0.930 . S
H459 C439 0.930 . S
H460 C451 0.929 1_554 S
H461 C454 0.930 . S
C462 C463 1.351 . S
C462 N465 1.368 . S
C462 H467 0.931 . S
C463 C462 1.351 . S
C463 N464 1.373 1_556 S
C463 H491 0.930 . S
N464 C463 1.373 1_554 S
N464 C466 1.340 . S
N465 C462 1.368 . S
N465 C466 1.321 1_556 S
N465 Co468 2.135 . S
C466 N464 1.340 . S
C466 N465 1.321 1_554 S
C466 H490 0.930 . S
H467 C462 0.931 . S
Co468 N465 2.135 . S
Co468 N471 2.121 . S
Co468 O476 2.055 . S
Co468 O479 2.039 . S
Co468 N482 2.140 . S
C469 O470 1.227 1_556 S
C469 O479 1.265 . S
O470 C469 1.227 1_554 S
N471 Co468 2.121 . S
N471 C473 1.375 . S
N471 C474 1.313 . S
C472 C473 1.338 . S
C472 N475 1.377 . S
C472 H492 0.930 . S
C473 N471 1.375 . S
C473 C472 1.338 . S
C473 H477 0.931 . S
C474 N471 1.313 . S
C474 N475 1.344 . S
C474 H478 0.930 . S
N475 C472 1.377 . S
N475 C474 1.344 . S
O476 Co468 2.055 . S
O476 C480 1.253 . S
H477 C473 0.931 . S
H478 C474 0.930 . S
O479 Co468 2.039 . S
O479 C469 1.265 . S
C480 O476 1.253 . S
C480 O481 1.227 . S
O481 C480 1.227 . S
N482 Co468 2.140 . S
N482 C485 1.346 . S
N482 C486 1.345 . S
C483 C484 1.387 . S
C483 C487 1.391 . S
C484 C483 1.387 . S
C484 C485 1.369 . S
C484 H493 0.929 1_556 S
C485 N482 1.346 . S
C485 C484 1.369 . S
C485 H488 0.928 . S
C486 N482 1.345 . S
C486 C487 1.371 . S
C486 H489 0.931 . S
C487 C483 1.391 . S
C487 C486 1.371 . S
C487 H494 0.930 . S
H488 C485 0.928 . S
H489 C486 0.931 . S
H490 C466 0.930 . S
H491 C463 0.930 . S
H492 C472 0.930 . S
H493 C484 0.929 1_554 S
H494 C487 0.930 . S
C495 C496 1.351 . S
C495 N498 1.368 . S
C495 H500 0.931 . S
C496 C495 1.351 . S
C496 N497 1.373 . S
C496 H524 0.930 . S
N497 C496 1.373 . S
N497 C499 1.340 . S
N498 C495 1.368 . S
N498 C499 1.321 . S
N498 Co501 2.135 . S
C499 N497 1.340 . S
C499 N498 1.321 . S
C499 H523 0.930 . S
H500 C495 0.931 . S
Co501 N498 2.135 . S
Co501 N504 2.121 . S
Co501 O509 2.055 . S
Co501 O512 2.039 . S
Co501 N515 2.140 . S
C502 O503 1.227 . S
C502 O512 1.265 . S
O503 C502 1.227 . S
N504 Co501 2.121 . S
N504 C506 1.375 . S
N504 C507 1.313 . S
C505 C506 1.338 . S
C505 N508 1.377 . S
C505 H525 0.930 . S
C506 N504 1.375 . S
C506 C505 1.338 . S
C506 H510 0.931 . S
C507 N504 1.313 . S
C507 N508 1.344 . S
C507 H511 0.930 . S
N508 C505 1.377 . S
N508 C507 1.344 . S
O509 Co501 2.055 . S
O509 C513 1.253 . S
H510 C506 0.931 . S
H511 C507 0.930 . S
O512 Co501 2.039 . S
O512 C502 1.265 . S
C513 O509 1.253 . S
C513 O514 1.227 . S
O514 C513 1.227 . S
N515 Co501 2.140 . S
N515 C518 1.346 . S
N515 C519 1.345 . S
C516 C517 1.387 . S
C516 C520 1.391 . S
C517 C516 1.387 . S
C517 C518 1.369 . S
C517 H526 0.929 . S
C518 N515 1.346 . S
C518 C517 1.369 . S
C518 H521 0.928 . S
C519 N515 1.345 . S
C519 C520 1.371 . S
C519 H522 0.931 . S
C520 C516 1.391 . S
C520 C519 1.371 . S
C520 H527 0.930 . S
H521 C518 0.928 . S
H522 C519 0.931 . S
H523 C499 0.930 . S
H524 C496 0.930 . S
H525 C505 0.930 . S
H526 C517 0.929 . S
H527 C520 0.930 . S
C528 C529 1.351 . S
C528 N531 1.368 . S
C528 H533 0.931 . S
C529 C528 1.351 . S
C529 N530 1.373 . S
C529 H557 0.930 . S
N530 C529 1.373 . S
N530 C532 1.340 . S
N531 C528 1.368 . S
N531 C532 1.321 . S
N531 Co534 2.135 . S
C532 N530 1.340 . S
C532 N531 1.321 . S
C532 H556 0.930 . S
H533 C528 0.931 . S
Co534 N531 2.135 . S
Co534 N537 2.121 . S
Co534 O542 2.055 . S
Co534 O545 2.039 . S
Co534 N548 2.140 . S
C535 O536 1.227 . S
C535 O545 1.265 . S
O536 C535 1.227 . S
N537 Co534 2.121 . S
N537 C539 1.375 . S
N537 C540 1.313 . S
C538 C539 1.338 . S
C538 N541 1.377 . S
C538 H558 0.930 . S
C539 N537 1.375 . S
C539 C538 1.338 . S
C539 H543 0.931 . S
C540 N537 1.313 . S
C540 N541 1.344 . S
C540 H544 0.930 . S
N541 C538 1.377 . S
N541 C540 1.344 . S
O542 Co534 2.055 . S
O542 C546 1.253 . S
H543 C539 0.931 . S
H544 C540 0.930 . S
O545 Co534 2.039 . S
O545 C535 1.265 . S
C546 O542 1.253 . S
C546 O547 1.227 . S
O547 C546 1.227 . S
N548 Co534 2.140 . S
N548 C551 1.346 . S
N548 C552 1.345 . S
C549 C550 1.387 . S
C549 C553 1.391 . S
C550 C549 1.387 . S
C550 C551 1.369 . S
C550 H559 0.929 . S
C551 N548 1.346 . S
C551 C550 1.369 . S
C551 H554 0.928 . S
C552 N548 1.345 . S
C552 C553 1.371 . S
C552 H555 0.931 . S
C553 C549 1.391 . S
C553 C552 1.371 . S
C553 H560 0.930 . S
H554 C551 0.928 . S
H555 C552 0.931 . S
H556 C532 0.930 . S
H557 C529 0.930 . S
H558 C538 0.930 . S
H559 C550 0.929 . S
H560 C553 0.930 . S
C561 C562 1.351 . S
C561 N564 1.368 . S
C561 H566 0.931 . S
C562 C561 1.351 . S
C562 N563 1.373 . S
C562 H590 0.930 . S
N563 C562 1.373 . S
N563 C565 1.340 . S
N564 C561 1.368 . S
N564 C565 1.321 . S
N564 Co567 2.135 . S
C565 N563 1.340 . S
C565 N564 1.321 . S
C565 H589 0.930 . S
H566 C561 0.931 . S
Co567 N564 2.135 . S
Co567 N570 2.121 . S
Co567 O575 2.055 . S
Co567 O578 2.039 . S
Co567 N581 2.140 . S
C568 O569 1.227 . S
C568 O578 1.265 . S
O569 C568 1.227 . S
N570 Co567 2.121 . S
N570 C572 1.375 . S
N570 C573 1.313 . S
C571 C572 1.338 . S
C571 N574 1.377 . S
C571 H591 0.930 . S
C572 N570 1.375 . S
C572 C571 1.338 . S
C572 H576 0.931 . S
C573 N570 1.313 . S
C573 N574 1.344 . S
C573 H577 0.930 . S
N574 C571 1.377 . S
N574 C573 1.344 . S
O575 Co567 2.055 . S
O575 C579 1.253 . S
H576 C572 0.931 . S
H577 C573 0.930 . S
O578 Co567 2.039 . S
O578 C568 1.265 . S
C579 O575 1.253 . S
C579 O580 1.227 . S
O580 C579 1.227 . S
N581 Co567 2.140 . S
N581 C584 1.346 . S
N581 C585 1.345 . S
C582 C583 1.387 . S
C582 C586 1.391 . S
C583 C582 1.387 . S
C583 C584 1.369 . S
C583 H592 0.929 . S
C584 N581 1.346 . S
C584 C583 1.369 . S
C584 H587 0.928 . S
C585 N581 1.345 . S
C585 C586 1.371 . S
C585 H588 0.931 . S
C586 C582 1.391 . S
C586 C585 1.371 . S
C586 H593 0.930 . S
H587 C584 0.928 . S
H588 C585 0.931 . S
H589 C565 0.930 . S
H590 C562 0.930 . S
H591 C571 0.930 . S
H592 C583 0.929 . S
H593 C586 0.930 . S
C594 C595 1.349 . S
C594 C596 1.327 . S
C594 H619 0.950 . S
C595 C594 1.349 . S
C595 C611 1.349 . S
C596 C594 1.327 . S
C596 C615 1.429 . S
C596 H620 0.950 . S
C597 C614 1.574 . S
C597 C616 1.368 1_554 S
C597 H621 0.949 . S
H598 C602 0.949 . S
C599 C600 1.349 . S
C599 C601 1.327 . S
C599 H622 0.950 . S
C600 C599 1.349 . S
C600 C612 1.349 . S
C601 C599 1.327 . S
C601 C617 1.429 . S
C601 H623 0.950 . S
C602 H598 0.949 . S
C602 C610 1.574 . S
C602 C618 1.368 1_556 S
H603 C611 0.950 . S
H604 C609 0.950 . S
H605 C610 0.949 . S
H606 C612 0.950 . S
H607 C613 0.950 . S
H608 C614 0.949 . S
C609 H604 0.950 . S
C609 C611 1.327 . S
C609 C615 1.429 . S
C610 C602 1.574 . S
C610 H605 0.949 . S
C610 C616 1.368 . S
C611 C595 1.349 . S
C611 H603 0.950 . S
C611 C609 1.327 . S
C612 C600 1.349 . S
C612 H606 0.950 . S
C612 C613 1.327 . S
C613 H607 0.950 . S
C613 C612 1.327 . S
C613 C617 1.429 . S
C614 C597 1.574 . S
C614 H608 0.949 . S
C614 C618 1.368 . S
C615 C596 1.429 . S
C615 C609 1.429 . S
C615 C616 1.523 . S
C616 C597 1.368 1_556 S
C616 C610 1.368 . S
C616 C615 1.523 . S
C617 C601 1.429 . S
C617 C613 1.429 . S
C617 C618 1.523 . S
C618 C602 1.368 1_554 S
C618 C614 1.368 . S
C618 C617 1.523 . S
H619 C594 0.950 . S
H620 C596 0.950 . S
H621 C597 0.949 . S
H622 C599 0.950 . S
H623 C601 0.950 . S
C624 C625 1.349 . S
C624 C626 1.327 . S
C624 H649 0.950 . S
C625 C624 1.349 . S
C625 C641 1.349 . S
C626 C624 1.327 . S
C626 C645 1.429 . S
C626 H650 0.950 . S
C627 C644 1.574 . S
C627 C646 1.368 1_554 S
C627 H651 0.949 . S
H628 C632 0.949 . S
C629 C630 1.349 . S
C629 C631 1.327 . S
C629 H652 0.950 . S
C630 C629 1.349 . S
C630 C642 1.349 . S
C631 C629 1.327 . S
C631 C647 1.429 . S
C631 H653 0.950 . S
C632 H628 0.949 . S
C632 C640 1.574 . S
C632 C648 1.368 1_556 S
H633 C641 0.950 . S
H634 C639 0.950 . S
H635 C640 0.949 . S
H636 C642 0.950 . S
H637 C643 0.950 . S
H638 C644 0.949 . S
C639 H634 0.950 . S
C639 C641 1.327 . S
C639 C645 1.429 . S
C640 C632 1.574 . S
C640 H635 0.949 . S
C640 C646 1.368 1_565 S
C641 C625 1.349 . S
C641 H633 0.950 . S
C641 C639 1.327 . S
C642 C630 1.349 . S
C642 H636 0.950 . S
C642 C643 1.327 . S
C643 H637 0.950 . S
C643 C642 1.327 . S
C643 C647 1.429 . S
C644 C627 1.574 . S
C644 H638 0.949 . S
C644 C648 1.368 1_545 S
C645 C626 1.429 . S
C645 C639 1.429 . S
C645 C646 1.523 . S
C646 C627 1.368 1_556 S
C646 C640 1.368 1_545 S
C646 C645 1.523 . S
C647 C631 1.429 . S
C647 C643 1.429 . S
C647 C648 1.523 . S
C648 C632 1.368 1_554 S
C648 C644 1.368 1_565 S
C648 C647 1.523 . S
H649 C624 0.950 . S
H650 C626 0.950 . S
H651 C627 0.949 . S
H652 C629 0.950 . S
H653 C631 0.950 . S
C654 C655 1.349 . S
C654 C656 1.327 . S
C654 H679 0.950 . S
C655 C654 1.349 . S
C655 C671 1.349 . S
C656 C654 1.327 . S
C656 C675 1.429 . S
C656 H680 0.950 . S
C657 C674 1.574 . S
C657 C676 1.368 1_556 S
C657 H681 0.949 . S
H658 C662 0.949 . S
C659 C660 1.349 . S
C659 C661 1.327 . S
C659 H682 0.950 . S
C660 C659 1.349 . S
C660 C672 1.349 . S
C661 C659 1.327 . S
C661 C677 1.429 . S
C661 H683 0.950 . S
C662 H658 0.949 . S
C662 C670 1.574 . S
C662 C678 1.368 1_554 S
H663 C671 0.950 . S
H664 C669 0.950 . S
H665 C670 0.949 . S
H666 C672 0.950 . S
H667 C673 0.950 . S
H668 C674 0.949 . S
C669 H664 0.950 . S
C669 C671 1.327 . S
C669 C675 1.429 . S
C670 C662 1.574 . S
C670 H665 0.949 . S
C670 C676 1.368 1_655 S
C671 C655 1.349 . S
C671 H663 0.950 . S
C671 C669 1.327 . S
C672 C660 1.349 . S
C672 H666 0.950 . S
C672 C673 1.327 . S
C673 H667 0.950 . S
C673 C672 1.327 . S
C673 C677 1.429 . S
C674 C657 1.574 . S
C674 H668 0.949 . S
C674 C678 1.368 1_455 S
C675 C656 1.429 . S
C675 C669 1.429 . S
C675 C676 1.523 . S
C676 C657 1.368 1_554 S
C676 C670 1.368 1_455 S
C676 C675 1.523 . S
C677 C661 1.429 . S
C677 C673 1.429 . S
C677 C678 1.523 . S
C678 C662 1.368 1_556 S
C678 C674 1.368 1_655 S
C678 C677 1.523 . S
H679 C654 0.950 . S
H680 C656 0.950 . S
H681 C657 0.949 . S
H682 C659 0.950 . S
H683 C661 0.950 . S
C684 C685 1.349 . S
C684 C686 1.327 . S
C684 H709 0.950 . S
C685 C684 1.349 . S
C685 C701 1.349 . S
C686 C684 1.327 . S
C686 C705 1.429 . S
C686 H710 0.950 . S
C687 C704 1.574 1_554 S
C687 C706 1.368 . S
C687 H711 0.949 . S
H688 C692 0.949 . S
C689 C690 1.349 . S
C689 C691 1.327 . S
C689 H712 0.950 . S
C690 C689 1.349 . S
C690 C702 1.349 . S
C691 C689 1.327 . S
C691 C707 1.429 . S
C691 H713 0.950 . S
C692 H688 0.949 . S
C692 C700 1.574 1_556 S
C692 C708 1.368 . S
H693 C701 0.950 . S
H694 C699 0.950 . S
H695 C700 0.949 . S
H696 C702 0.950 . S
H697 C703 0.950 . S
H698 C704 0.949 . S
C699 H694 0.950 . S
C699 C701 1.327 . S
C699 C705 1.429 . S
C700 C692 1.574 1_554 S
C700 H695 0.949 . S
C700 C706 1.368 . S
C701 C685 1.349 . S
C701 H693 0.950 . S
C701 C699 1.327 . S
C702 C690 1.349 . S
C702 H696 0.950 . S
C702 C703 1.327 . S
C703 H697 0.950 . S
C703 C702 1.327 . S
C703 C707 1.429 . S
C704 C687 1.574 1_556 S
C704 H698 0.949 . S
C704 C708 1.368 . S
C705 C686 1.429 . S
C705 C699 1.429 . S
C705 C706 1.523 . S
C706 C687 1.368 . S
C706 C700 1.368 . S
C706 C705 1.523 . S
C707 C691 1.429 . S
C707 C703 1.429 . S
C707 C708 1.523 . S
C708 C692 1.368 . S
C708 C704 1.368 . S
C708 C707 1.523 . S
H709 C684 0.950 . S
H710 C686 0.950 . S
H711 C687 0.949 . S
H712 C689 0.950 . S
H713 C691 0.950 . S
C714 C715 1.349 . S
C714 C716 1.327 . S
C714 H739 0.950 . S
C715 C714 1.349 . S
C715 C731 1.349 . S
C716 C714 1.327 . S
C716 C735 1.429 . S
C716 H740 0.950 . S
C717 C734 1.574 . S
C717 C736 1.368 1_554 S
C717 H741 0.949 . S
H718 C722 0.949 . S
C719 C720 1.349 . S
C719 C721 1.327 . S
C719 H742 0.950 . S
C720 C719 1.349 . S
C720 C732 1.349 . S
C721 C719 1.327 . S
C721 C737 1.429 . S
C721 H743 0.950 . S
C722 H718 0.949 . S
C722 C730 1.574 . S
C722 C738 1.368 1_556 S
H723 C731 0.950 . S
H724 C729 0.950 . S
H725 C730 0.949 . S
H726 C732 0.950 . S
H727 C733 0.950 . S
H728 C734 0.949 . S
C729 H724 0.950 . S
C729 C731 1.327 . S
C729 C735 1.429 . S
C730 C722 1.574 . S
C730 H725 0.949 . S
C730 C736 1.368 1_565 S
C731 C715 1.349 . S
C731 H723 0.950 . S
C731 C729 1.327 . S
C732 C720 1.349 . S
C732 H726 0.950 . S
C732 C733 1.327 . S
C733 H727 0.950 . S
C733 C732 1.327 . S
C733 C737 1.429 . S
C734 C717 1.574 . S
C734 H728 0.949 . S
C734 C738 1.368 1_545 S
C735 C716 1.429 . S
C735 C729 1.429 . S
C735 C736 1.523 . S
C736 C717 1.368 1_556 S
C736 C730 1.368 1_545 S
C736 C735 1.523 . S
C737 C721 1.429 . S
C737 C733 1.429 . S
C737 C738 1.523 . S
C738 C722 1.368 1_554 S
C738 C734 1.368 1_565 S
C738 C737 1.523 . S
H739 C714 0.950 . S
H740 C716 0.950 . S
H741 C717 0.949 . S
H742 C719 0.950 . S
H743 C721 0.950 . S
C744 C745 1.349 . S
C744 C746 1.327 . S
C744 H769 0.950 . S
C745 C744 1.349 . S
C745 C761 1.349 . S
C746 C744 1.327 . S
C746 C765 1.429 . S
C746 H770 0.950 . S
C747 C764 1.574 1_656 S
C747 C766 1.368 . S
C747 H771 0.949 . S
H748 C752 0.949 . S
C749 C750 1.349 . S
C749 C751 1.327 . S
C749 H772 0.950 . S
C750 C749 1.349 . S
C750 C762 1.349 . S
C751 C749 1.327 . S
C751 C767 1.429 . S
C751 H773 0.950 . S
C752 H748 0.949 . S
C752 C760 1.574 1_454 S
C752 C768 1.368 . S
H753 C761 0.950 . S
H754 C759 0.950 . S
H755 C760 0.949 . S
H756 C762 0.950 . S
H757 C763 0.950 . S
H758 C764 0.949 . S
C759 H754 0.950 . S
C759 C761 1.327 . S
C759 C765 1.429 . S
C760 C752 1.574 1_656 S
C760 H755 0.949 . S
C760 C766 1.368 . S
C761 C745 1.349 . S
C761 H753 0.950 . S
C761 C759 1.327 . S
C762 C750 1.349 . S
C762 H756 0.950 . S
C762 C763 1.327 . S
C763 H757 0.950 . S
C763 C762 1.327 . S
C763 C767 1.429 . S
C764 C747 1.574 1_454 S
C764 H758 0.949 . S
C764 C768 1.368 . S
C765 C746 1.429 . S
C765 C759 1.429 . S
C765 C766 1.523 . S
C766 C747 1.368 . S
C766 C760 1.368 . S
C766 C765 1.523 . S
C767 C751 1.429 . S
C767 C763 1.429 . S
C767 C768 1.523 . S
C768 C752 1.368 . S
C768 C764 1.368 . S
C768 C767 1.523 . S
H769 C744 0.950 . S
H770 C746 0.950 . S
H771 C747 0.949 . S
H772 C749 0.950 . S
H773 C751 0.950 . S
C774 C775 1.349 . S
C774 C776 1.327 . S
C774 H799 0.950 . S
C775 C774 1.349 . S
C775 C791 1.349 . S
C776 C774 1.327 . S
C776 C795 1.429 . S
C776 H800 0.950 . S
C777 C794 1.574 . S
C777 C796 1.368 . S
C777 H801 0.949 . S
H778 C782 0.949 . S
C779 C780 1.349 . S
C779 C781 1.327 . S
C779 H802 0.950 . S
C780 C779 1.349 . S
C780 C792 1.349 . S
C781 C779 1.327 . S
C781 C797 1.429 . S
C781 H803 0.950 . S
C782 H778 0.949 . S
C782 C790 1.574 . S
C782 C798 1.368 . S
H783 C791 0.950 . S
H784 C789 0.950 . S
H785 C790 0.949 . S
H786 C792 0.950 . S
H787 C793 0.950 . S
H788 C794 0.949 . S
C789 H784 0.950 . S
C789 C791 1.327 . S
C789 C795 1.429 . S
C790 C782 1.574 . S
C790 H785 0.949 . S
C790 C796 1.368 . S
C791 C775 1.349 . S
C791 H783 0.950 . S
C791 C789 1.327 . S
C792 C780 1.349 . S
C792 H786 0.950 . S
C792 C793 1.327 . S
C793 H787 0.950 . S
C793 C792 1.327 . S
C793 C797 1.429 . S
C794 C777 1.574 . S
C794 H788 0.949 . S
C794 C798 1.368 . S
C795 C776 1.429 . S
C795 C789 1.429 . S
C795 C796 1.523 . S
C796 C777 1.368 . S
C796 C790 1.368 . S
C796 C795 1.523 . S
C797 C781 1.429 . S
C797 C793 1.429 . S
C797 C798 1.523 . S
C798 C782 1.368 . S
C798 C794 1.368 . S
C798 C797 1.523 . S
H799 C774 0.950 . S
H800 C776 0.950 . S
H801 C777 0.949 . S
H802 C779 0.950 . S
H803 C781 0.950 . S
C804 C805 1.349 . S
C804 C806 1.327 . S
C804 H829 0.950 . S
C805 C804 1.349 . S
C805 C821 1.349 . S
C806 C804 1.327 . S
C806 C825 1.429 . S
C806 H830 0.950 . S
C807 C824 1.574 . S
C807 C826 1.368 . S
C807 H831 0.949 . S
H808 C812 0.949 . S
C809 C810 1.349 . S
C809 C811 1.327 . S
C809 H832 0.950 . S
C810 C809 1.349 . S
C810 C822 1.349 . S
C811 C809 1.327 . S
C811 C827 1.429 . S
C811 H833 0.950 . S
C812 H808 0.949 . S
C812 C820 1.574 . S
C812 C828 1.368 . S
H813 C821 0.950 . S
H814 C819 0.950 . S
H815 C820 0.949 . S
H816 C822 0.950 . S
H817 C823 0.950 . S
H818 C824 0.949 . S
C819 H814 0.950 . S
C819 C821 1.327 . S
C819 C825 1.429 . S
C820 C812 1.574 . S
C820 H815 0.949 . S
C820 C826 1.368 . S
C821 C805 1.349 . S
C821 H813 0.950 . S
C821 C819 1.327 . S
C822 C810 1.349 . S
C822 H816 0.950 . S
C822 C823 1.327 . S
C823 H817 0.950 . S
C823 C822 1.327 . S
C823 C827 1.429 . S
C824 C807 1.574 . S
C824 H818 0.949 . S
C824 C828 1.368 . S
C825 C806 1.429 . S
C825 C819 1.429 . S
C825 C826 1.523 . S
C826 C807 1.368 . S
C826 C820 1.368 . S
C826 C825 1.523 . S
C827 C811 1.429 . S
C827 C823 1.429 . S
C827 C828 1.523 . S
C828 C812 1.368 . S
C828 C824 1.368 . S
C828 C827 1.523 . S
H829 C804 0.950 . S
H830 C806 0.950 . S
H831 C807 0.949 . S
H832 C809 0.950 . S
H833 C811 0.950 . S
C834 C835 1.349 . S
C834 C836 1.327 . S
C834 H859 0.950 . S
C835 C834 1.349 . S
C835 C851 1.349 . S
C836 C834 1.327 . S
C836 C855 1.429 . S
C836 H860 0.950 . S
C837 C854 1.574 . S
C837 C856 1.368 . S
C837 H861 0.949 . S
H838 C842 0.949 . S
C839 C840 1.349 . S
C839 C841 1.327 . S
C839 H862 0.950 . S
C840 C839 1.349 . S
C840 C852 1.349 . S
C841 C839 1.327 . S
C841 C857 1.429 . S
C841 H863 0.950 . S
C842 H838 0.949 . S
C842 C850 1.574 . S
C842 C858 1.368 . S
H843 C851 0.950 . S
H844 C849 0.950 . S
H845 C850 0.949 . S
H846 C852 0.950 . S
H847 C853 0.950 . S
H848 C854 0.949 . S
C849 H844 0.950 . S
C849 C851 1.327 . S
C849 C855 1.429 . S
C850 C842 1.574 . S
C850 H845 0.949 . S
C850 C856 1.368 . S
C851 C835 1.349 . S
C851 H843 0.950 . S
C851 C849 1.327 . S
C852 C840 1.349 . S
C852 H846 0.950 . S
C852 C853 1.327 . S
C853 H847 0.950 . S
C853 C852 1.327 . S
C853 C857 1.429 . S
C854 C837 1.574 . S
C854 H848 0.949 . S
C854 C858 1.368 . S
C855 C836 1.429 . S
C855 C849 1.429 . S
C855 C856 1.523 . S
C856 C837 1.368 . S
C856 C850 1.368 . S
C856 C855 1.523 . S
C857 C841 1.429 . S
C857 C853 1.429 . S
C857 C858 1.523 . S
C858 C842 1.368 . S
C858 C854 1.368 . S
C858 C857 1.523 . S
H859 C834 0.950 . S
H860 C836 0.950 . S
H861 C837 0.949 . S
H862 C839 0.950 . S
H863 C841 0.950 . S
C864 C865 1.349 . S
C864 C866 1.327 . S
C864 H889 0.950 . S
C865 C864 1.349 . S
C865 C881 1.349 . S
C866 C864 1.327 . S
C866 C885 1.429 . S
C866 H890 0.950 . S
C867 C884 1.574 . S
C867 C886 1.368 . S
C867 H891 0.949 . S
H868 C872 0.949 . S
C869 C870 1.349 . S
C869 C871 1.327 . S
C869 H892 0.950 . S
C870 C869 1.349 . S
C870 C882 1.349 . S
C871 C869 1.327 . S
C871 C887 1.429 . S
C871 H893 0.950 . S
C872 H868 0.949 . S
C872 C880 1.574 . S
C872 C888 1.368 . S
H873 C881 0.950 . S
H874 C879 0.950 . S
H875 C880 0.949 . S
H876 C882 0.950 . S
H877 C883 0.950 . S
H878 C884 0.949 . S
C879 H874 0.950 . S
C879 C881 1.327 . S
C879 C885 1.429 . S
C880 C872 1.574 . S
C880 H875 0.949 . S
C880 C886 1.368 . S
C881 C865 1.349 . S
C881 H873 0.950 . S
C881 C879 1.327 . S
C882 C870 1.349 . S
C882 H876 0.950 . S
C882 C883 1.327 . S
C883 H877 0.950 . S
C883 C882 1.327 . S
C883 C887 1.429 . S
C884 C867 1.574 . S
C884 H878 0.949 . S
C884 C888 1.368 . S
C885 C866 1.429 . S
C885 C879 1.429 . S
C885 C886 1.523 . S
C886 C867 1.368 . S
C886 C880 1.368 . S
C886 C885 1.523 . S
C887 C871 1.429 . S
C887 C883 1.429 . S
C887 C888 1.523 . S
C888 C872 1.368 . S
C888 C884 1.368 . S
C888 C887 1.523 . S
H889 C864 0.950 . S
H890 C866 0.950 . S
H891 C867 0.949 . S
H892 C869 0.950 . S
H893 C871 0.950 . S
C894 C895 1.349 . S
C894 C896 1.327 . S
C894 H919 0.950 . S
C895 C894 1.349 . S
C895 C911 1.349 . S
C896 C894 1.327 . S
C896 C915 1.429 . S
C896 H920 0.950 . S
C897 C914 1.574 . S
C897 C916 1.368 . S
C897 H921 0.949 . S
H898 C902 0.949 . S
C899 C900 1.349 . S
C899 C901 1.327 . S
C899 H922 0.950 . S
C900 C899 1.349 . S
C900 C912 1.349 . S
C901 C899 1.327 . S
C901 C917 1.429 . S
C901 H923 0.950 . S
C902 H898 0.949 . S
C902 C910 1.574 . S
C902 C918 1.368 . S
H903 C911 0.950 . S
H904 C909 0.950 . S
H905 C910 0.949 . S
H906 C912 0.950 . S
H907 C913 0.950 . S
H908 C914 0.949 . S
C909 H904 0.950 . S
C909 C911 1.327 . S
C909 C915 1.429 . S
C910 C902 1.574 . S
C910 H905 0.949 . S
C910 C916 1.368 . S
C911 C895 1.349 . S
C911 H903 0.950 . S
C911 C909 1.327 . S
C912 C900 1.349 . S
C912 H906 0.950 . S
C912 C913 1.327 . S
C913 H907 0.950 . S
C913 C912 1.327 . S
C913 C917 1.429 . S
C914 C897 1.574 . S
C914 H908 0.949 . S
C914 C918 1.368 . S
C915 C896 1.429 . S
C915 C909 1.429 . S
C915 C916 1.523 . S
C916 C897 1.368 . S
C916 C910 1.368 . S
C916 C915 1.523 . S
C917 C901 1.429 . S
C917 C913 1.429 . S
C917 C918 1.523 . S
C918 C902 1.368 . S
C918 C914 1.368 . S
C918 C917 1.523 . S
H919 C894 0.950 . S
H920 C896 0.950 . S
H921 C897 0.949 . S
H922 C899 0.950 . S
H923 C901 0.950 . S
C924 C925 1.349 . S
C924 C926 1.327 . S
C924 H949 0.950 . S
C925 C924 1.349 . S
C925 C941 1.349 . S
C926 C924 1.327 . S
C926 C945 1.429 . S
C926 H950 0.950 . S
C927 C944 1.574 . S
C927 C946 1.368 . S
C927 H951 0.949 . S
H928 C932 0.949 . S
C929 C930 1.349 . S
C929 C931 1.327 . S
C929 H952 0.950 . S
C930 C929 1.349 . S
C930 C942 1.349 . S
C931 C929 1.327 . S
C931 C947 1.429 . S
C931 H953 0.950 . S
C932 H928 0.949 . S
C932 C940 1.574 . S
C932 C948 1.368 . S
H933 C941 0.950 . S
H934 C939 0.950 . S
H935 C940 0.949 . S
H936 C942 0.950 . S
H937 C943 0.950 . S
H938 C944 0.949 . S
C939 H934 0.950 . S
C939 C941 1.327 . S
C939 C945 1.429 . S
C940 C932 1.574 . S
C940 H935 0.949 . S
C940 C946 1.368 . S
C941 C925 1.349 . S
C941 H933 0.950 . S
C941 C939 1.327 . S
C942 C930 1.349 . S
C942 H936 0.950 . S
C942 C943 1.327 . S
C943 H937 0.950 . S
C943 C942 1.327 . S
C943 C947 1.429 . S
C944 C927 1.574 . S
C944 H938 0.949 . S
C944 C948 1.368 . S
C945 C926 1.429 . S
C945 C939 1.429 . S
C945 C946 1.523 . S
C946 C927 1.368 . S
C946 C940 1.368 . S
C946 C945 1.523 . S
C947 C931 1.429 . S
C947 C943 1.429 . S
C947 C948 1.523 . S
C948 C932 1.368 . S
C948 C944 1.368 . S
C948 C947 1.523 . S
H949 C924 0.950 . S
H950 C926 0.950 . S
H951 C927 0.949 . S
H952 C929 0.950 . S
H953 C931 0.950 . S
C954 C955 1.349 . S
C954 C956 1.327 . S
C954 H979 0.950 . S
C955 C954 1.349 . S
C955 C971 1.349 . S
C956 C954 1.327 . S
C956 C975 1.429 . S
C956 H980 0.950 . S
C957 C974 1.574 . S
C957 C976 1.368 . S
C957 H981 0.949 . S
H958 C962 0.949 . S
C959 C960 1.349 . S
C959 C961 1.327 . S
C959 H982 0.950 . S
C960 C959 1.349 . S
C960 C972 1.349 . S
C961 C959 1.327 . S
C961 C977 1.429 . S
C961 H983 0.950 . S
C962 H958 0.949 . S
C962 C970 1.574 . S
C962 C978 1.368 . S
H963 C971 0.950 . S
H964 C969 0.950 . S
H965 C970 0.949 . S
H966 C972 0.950 . S
H967 C973 0.950 . S
H968 C974 0.949 . S
C969 H964 0.950 . S
C969 C971 1.327 . S
C969 C975 1.429 . S
C970 C962 1.574 . S
C970 H965 0.949 . S
C970 C976 1.368 . S
C971 C955 1.349 . S
C971 H963 0.950 . S
C971 C969 1.327 . S
C972 C960 1.349 . S
C972 H966 0.950 . S
C972 C973 1.327 . S
C973 H967 0.950 . S
C973 C972 1.327 . S
C973 C977 1.429 . S
C974 C957 1.574 . S
C974 H968 0.949 . S
C974 C978 1.368 . S
C975 C956 1.429 . S
C975 C969 1.429 . S
C975 C976 1.523 . S
C976 C957 1.368 . S
C976 C970 1.368 . S
C976 C975 1.523 . S
C977 C961 1.429 . S
C977 C973 1.429 . S
C977 C978 1.523 . S
C978 C962 1.368 . S
C978 C974 1.368 . S
C978 C977 1.523 . S
H979 C954 0.950 . S
H980 C956 0.950 . S
H981 C957 0.949 . S
H982 C959 0.950 . S
H983 C961 0.950 . S
C984 C985 1.349 . S
C984 C986 1.327 . S
C984 H1009 0.950 . S
C985 C984 1.349 . S
C985 C1001 1.349 . S
C986 C984 1.327 . S
C986 C1005 1.429 . S
C986 H1010 0.950 . S
C987 C1004 1.574 . S
C987 C1006 1.368 . S
C987 H1011 0.949 . S
H988 C992 0.949 . S
C989 C990 1.349 . S
C989 C991 1.327 . S
C989 H1012 0.950 . S
C990 C989 1.349 . S
C990 C1002 1.349 . S
C991 C989 1.327 . S
C991 C1007 1.429 . S
C991 H1013 0.950 . S
C992 H988 0.949 . S
C992 C1000 1.574 . S
C992 C1008 1.368 . S
H993 C1001 0.950 . S
H994 C999 0.950 . S
H995 C1000 0.949 . S
H996 C1002 0.950 . S
H997 C1003 0.950 . S
H998 C1004 0.949 . S
C999 H994 0.950 . S
C999 C1001 1.327 . S
C999 C1005 1.429 . S
C1000 C992 1.574 . S
C1000 H995 0.949 . S
C1000 C1006 1.368 . S
C1001 C985 1.349 . S
C1001 H993 0.950 . S
C1001 C999 1.327 . S
C1002 C990 1.349 . S
C1002 H996 0.950 . S
C1002 C1003 1.327 . S
C1003 H997 0.950 . S
C1003 C1002 1.327 . S
C1003 C1007 1.429 . S
C1004 C987 1.574 . S
C1004 H998 0.949 . S
C1004 C1008 1.368 . S
C1005 C986 1.429 . S
C1005 C999 1.429 . S
C1005 C1006 1.523 . S
C1006 C987 1.368 . S
C1006 C1000 1.368 . S
C1006 C1005 1.523 . S
C1007 C991 1.429 . S
C1007 C1003 1.429 . S
C1007 C1008 1.523 . S
C1008 C992 1.368 . S
C1008 C1004 1.368 . S
C1008 C1007 1.523 . S
H1009 C984 0.950 . S
H1010 C986 0.950 . S
H1011 C987 0.949 . S
H1012 C989 0.950 . S
H1013 C991 0.950 . S
C1014 C1015 1.349 . S
C1014 C1016 1.327 . S
C1014 H1039 0.950 . S
C1015 C1014 1.349 . S
C1015 C1031 1.349 . S
C1016 C1014 1.327 . S
C1016 C1035 1.429 . S
C1016 H1040 0.950 . S
C1017 C1034 1.574 . S
C1017 C1036 1.368 . S
C1017 H1041 0.949 . S
H1018 C1022 0.949 . S
C1019 C1020 1.349 . S
C1019 C1021 1.327 . S
C1019 H1042 0.950 . S
C1020 C1019 1.349 . S
C1020 C1032 1.349 . S
C1021 C1019 1.327 . S
C1021 C1037 1.429 . S
C1021 H1043 0.950 . S
C1022 H1018 0.949 . S
C1022 C1030 1.574 . S
C1022 C1038 1.368 . S
H1023 C1031 0.950 . S
H1024 C1029 0.950 . S
H1025 C1030 0.949 . S
H1026 C1032 0.950 . S
H1027 C1033 0.950 . S
H1028 C1034 0.949 . S
C1029 H1024 0.950 . S
C1029 C1031 1.327 . S
C1029 C1035 1.429 . S
C1030 C1022 1.574 . S
C1030 H1025 0.949 . S
C1030 C1036 1.368 . S
C1031 C1015 1.349 . S
C1031 H1023 0.950 . S
C1031 C1029 1.327 . S
C1032 C1020 1.349 . S
C1032 H1026 0.950 . S
C1032 C1033 1.327 . S
C1033 H1027 0.950 . S
C1033 C1032 1.327 . S
C1033 C1037 1.429 . S
C1034 C1017 1.574 . S
C1034 H1028 0.949 . S
C1034 C1038 1.368 . S
C1035 C1016 1.429 . S
C1035 C1029 1.429 . S
C1035 C1036 1.523 . S
C1036 C1017 1.368 . S
C1036 C1030 1.368 . S
C1036 C1035 1.523 . S
C1037 C1021 1.429 . S
C1037 C1033 1.429 . S
C1037 C1038 1.523 . S
C1038 C1022 1.368 . S
C1038 C1034 1.368 . S
C1038 C1037 1.523 . S
H1039 C1014 0.950 . S
H1040 C1016 0.950 . S
H1041 C1017 0.949 . S
H1042 C1019 0.950 . S
H1043 C1021 0.950 . S
C1044 C1045 1.349 . S
C1044 C1046 1.327 . S
C1044 H1069 0.950 . S
C1045 C1044 1.349 . S
C1045 C1061 1.349 . S
C1046 C1044 1.327 . S
C1046 C1065 1.429 . S
C1046 H1070 0.950 . S
C1047 C1064 1.574 . S
C1047 C1066 1.368 . S
C1047 H1071 0.949 . S
H1048 C1052 0.949 . S
C1049 C1050 1.349 . S
C1049 C1051 1.327 . S
C1049 H1072 0.950 . S
C1050 C1049 1.349 . S
C1050 C1062 1.349 . S
C1051 C1049 1.327 . S
C1051 C1067 1.429 . S
C1051 H1073 0.950 . S
C1052 H1048 0.949 . S
C1052 C1060 1.574 . S
C1052 C1068 1.368 . S
H1053 C1061 0.950 . S
H1054 C1059 0.950 . S
H1055 C1060 0.949 . S
H1056 C1062 0.950 . S
H1057 C1063 0.950 . S
H1058 C1064 0.949 . S
C1059 H1054 0.950 . S
C1059 C1061 1.327 . S
C1059 C1065 1.429 . S
C1060 C1052 1.574 . S
C1060 H1055 0.949 . S
C1060 C1066 1.368 . S
C1061 C1045 1.349 . S
C1061 H1053 0.950 . S
C1061 C1059 1.327 . S
C1062 C1050 1.349 . S
C1062 H1056 0.950 . S
C1062 C1063 1.327 . S
C1063 H1057 0.950 . S
C1063 C1062 1.327 . S
C1063 C1067 1.429 . S
C1064 C1047 1.574 . S
C1064 H1058 0.949 . S
C1064 C1068 1.368 . S
C1065 C1046 1.429 . S
C1065 C1059 1.429 . S
C1065 C1066 1.523 . S
C1066 C1047 1.368 . S
C1066 C1060 1.368 . S
C1066 C1065 1.523 . S
C1067 C1051 1.429 . S
C1067 C1063 1.429 . S
C1067 C1068 1.523 . S
C1068 C1052 1.368 . S
C1068 C1064 1.368 . S
C1068 C1067 1.523 . S
H1069 C1044 0.950 . S
H1070 C1046 0.950 . S
H1071 C1047 0.949 . S
H1072 C1049 0.950 . S
H1073 C1051 0.950 . S
C1074 C1075 1.349 . S
C1074 C1076 1.327 . S
C1074 H1099 0.950 . S
C1075 C1074 1.349 . S
C1075 C1091 1.349 . S
C1076 C1074 1.327 . S
C1076 C1095 1.429 . S
C1076 H1100 0.950 . S
C1077 C1094 1.574 . S
C1077 C1096 1.368 . S
C1077 H1101 0.949 . S
H1078 C1082 0.949 . S
C1079 C1080 1.349 . S
C1079 C1081 1.327 . S
C1079 H1102 0.950 . S
C1080 C1079 1.349 . S
C1080 C1092 1.349 . S
C1081 C1079 1.327 . S
C1081 C1097 1.429 . S
C1081 H1103 0.950 . S
C1082 H1078 0.949 . S
C1082 C1090 1.574 . S
C1082 C1098 1.368 . S
H1083 C1091 0.950 . S
H1084 C1089 0.950 . S
H1085 C1090 0.949 . S
H1086 C1092 0.950 . S
H1087 C1093 0.950 . S
H1088 C1094 0.949 . S
C1089 H1084 0.950 . S
C1089 C1091 1.327 . S
C1089 C1095 1.429 . S
C1090 C1082 1.574 . S
C1090 H1085 0.949 . S
C1090 C1096 1.368 . S
C1091 C1075 1.349 . S
C1091 H1083 0.950 . S
C1091 C1089 1.327 . S
C1092 C1080 1.349 . S
C1092 H1086 0.950 . S
C1092 C1093 1.327 . S
C1093 H1087 0.950 . S
C1093 C1092 1.327 . S
C1093 C1097 1.429 . S
C1094 C1077 1.574 . S
C1094 H1088 0.949 . S
C1094 C1098 1.368 . S
C1095 C1076 1.429 . S
C1095 C1089 1.429 . S
C1095 C1096 1.523 . S
C1096 C1077 1.368 . S
C1096 C1090 1.368 . S
C1096 C1095 1.523 . S
C1097 C1081 1.429 . S
C1097 C1093 1.429 . S
C1097 C1098 1.523 . S
C1098 C1082 1.368 . S
C1098 C1094 1.368 . S
C1098 C1097 1.523 . S
H1099 C1074 0.950 . S
H1100 C1076 0.950 . S
H1101 C1077 0.949 . S
H1102 C1079 0.950 . S
H1103 C1081 0.950 . S
C1104 C1105 1.349 . S
C1104 C1106 1.327 . S
C1104 H1129 0.950 . S
C1105 C1104 1.349 . S
C1105 C1121 1.349 . S
C1106 C1104 1.327 . S
C1106 C1125 1.429 . S
C1106 H1130 0.950 . S
C1107 C1124 1.574 . S
C1107 C1126 1.368 . S
C1107 H1131 0.949 . S
H1108 C1112 0.949 . S
C1109 C1110 1.349 . S
C1109 C1111 1.327 . S
C1109 H1132 0.950 . S
C1110 C1109 1.349 . S
C1110 C1122 1.349 . S
C1111 C1109 1.327 . S
C1111 C1127 1.429 . S
C1111 H1133 0.950 . S
C1112 H1108 0.949 . S
C1112 C1120 1.574 . S
C1112 C1128 1.368 . S
H1113 C1121 0.950 . S
H1114 C1119 0.950 . S
H1115 C1120 0.949 . S
H1116 C1122 0.950 . S
H1117 C1123 0.950 . S
H1118 C1124 0.949 . S
C1119 H1114 0.950 . S
C1119 C1121 1.327 . S
C1119 C1125 1.429 . S
C1120 C1112 1.574 . S
C1120 H1115 0.949 . S
C1120 C1126 1.368 . S
C1121 C1105 1.349 . S
C1121 H1113 0.950 . S
C1121 C1119 1.327 . S
C1122 C1110 1.349 . S
C1122 H1116 0.950 . S
C1122 C1123 1.327 . S
C1123 H1117 0.950 . S
C1123 C1122 1.327 . S
C1123 C1127 1.429 . S
C1124 C1107 1.574 . S
C1124 H1118 0.949 . S
C1124 C1128 1.368 . S
C1125 C1106 1.429 . S
C1125 C1119 1.429 . S
C1125 C1126 1.523 . S
C1126 C1107 1.368 . S
C1126 C1120 1.368 . S
C1126 C1125 1.523 . S
C1127 C1111 1.429 . S
C1127 C1123 1.429 . S
C1127 C1128 1.523 . S
C1128 C1112 1.368 . S
C1128 C1124 1.368 . S
C1128 C1127 1.523 . S
H1129 C1104 0.950 . S
H1130 C1106 0.950 . S
H1131 C1107 0.949 . S
H1132 C1109 0.950 . S
H1133 C1111 0.950 . S
C1134 C1135 1.349 . S
C1134 C1136 1.327 . S
C1134 H1159 0.950 . S
C1135 C1134 1.349 . S
C1135 C1151 1.349 . S
C1136 C1134 1.327 . S
C1136 C1155 1.429 . S
C1136 H1160 0.950 . S
C1137 C1154 1.574 . S
C1137 C1156 1.368 . S
C1137 H1161 0.949 . S
H1138 C1142 0.949 . S
C1139 C1140 1.349 . S
C1139 C1141 1.327 . S
C1139 H1162 0.950 . S
C1140 C1139 1.349 . S
C1140 C1152 1.349 . S
C1141 C1139 1.327 . S
C1141 C1157 1.429 . S
C1141 H1163 0.950 . S
C1142 H1138 0.949 . S
C1142 C1150 1.574 . S
C1142 C1158 1.368 . S
H1143 C1151 0.950 . S
H1144 C1149 0.950 . S
H1145 C1150 0.949 . S
H1146 C1152 0.950 . S
H1147 C1153 0.950 . S
H1148 C1154 0.949 . S
C1149 H1144 0.950 . S
C1149 C1151 1.327 . S
C1149 C1155 1.429 . S
C1150 C1142 1.574 . S
C1150 H1145 0.949 . S
C1150 C1156 1.368 . S
C1151 C1135 1.349 . S
C1151 H1143 0.950 . S
C1151 C1149 1.327 . S
C1152 C1140 1.349 . S
C1152 H1146 0.950 . S
C1152 C1153 1.327 . S
C1153 H1147 0.950 . S
C1153 C1152 1.327 . S
C1153 C1157 1.429 . S
C1154 C1137 1.574 . S
C1154 H1148 0.949 . S
C1154 C1158 1.368 . S
C1155 C1136 1.429 . S
C1155 C1149 1.429 . S
C1155 C1156 1.523 . S
C1156 C1137 1.368 . S
C1156 C1150 1.368 . S
C1156 C1155 1.523 . S
C1157 C1141 1.429 . S
C1157 C1153 1.429 . S
C1157 C1158 1.523 . S
C1158 C1142 1.368 . S
C1158 C1154 1.368 . S
C1158 C1157 1.523 . S
H1159 C1134 0.950 . S
H1160 C1136 0.950 . S
H1161 C1137 0.949 . S
H1162 C1139 0.950 . S
H1163 C1141 0.950 . S
C1164 C1165 1.349 . S
C1164 C1166 1.327 . S
C1164 H1189 0.950 . S
C1165 C1164 1.349 . S
C1165 C1181 1.349 . S
C1166 C1164 1.327 . S
C1166 C1185 1.429 . S
C1166 H1190 0.950 . S
C1167 C1184 1.574 . S
C1167 C1186 1.368 . S
C1167 H1191 0.949 . S
H1168 C1172 0.949 . S
C1169 C1170 1.349 . S
C1169 C1171 1.327 . S
C1169 H1192 0.950 . S
C1170 C1169 1.349 . S
C1170 C1182 1.349 . S
C1171 C1169 1.327 . S
C1171 C1187 1.429 . S
C1171 H1193 0.950 . S
C1172 H1168 0.949 . S
C1172 C1180 1.574 . S
C1172 C1188 1.368 . S
H1173 C1181 0.950 . S
H1174 C1179 0.950 . S
H1175 C1180 0.949 . S
H1176 C1182 0.950 . S
H1177 C1183 0.950 . S
H1178 C1184 0.949 . S
C1179 H1174 0.950 . S
C1179 C1181 1.327 . S
C1179 C1185 1.429 . S
C1180 C1172 1.574 . S
C1180 H1175 0.949 . S
C1180 C1186 1.368 . S
C1181 C1165 1.349 . S
C1181 H1173 0.950 . S
C1181 C1179 1.327 . S
C1182 C1170 1.349 . S
C1182 H1176 0.950 . S
C1182 C1183 1.327 . S
C1183 H1177 0.950 . S
C1183 C1182 1.327 . S
C1183 C1187 1.429 . S
C1184 C1167 1.574 . S
C1184 H1178 0.949 . S
C1184 C1188 1.368 . S
C1185 C1166 1.429 . S
C1185 C1179 1.429 . S
C1185 C1186 1.523 . S
C1186 C1167 1.368 . S
C1186 C1180 1.368 . S
C1186 C1185 1.523 . S
C1187 C1171 1.429 . S
C1187 C1183 1.429 . S
C1187 C1188 1.523 . S
C1188 C1172 1.368 . S
C1188 C1184 1.368 . S
C1188 C1187 1.523 . S
H1189 C1164 0.950 . S
H1190 C1166 0.950 . S
H1191 C1167 0.949 . S
H1192 C1169 0.950 . S
H1193 C1171 0.950 . S
C1194 C1195 1.349 . S
C1194 C1196 1.327 . S
C1194 H1219 0.950 . S
C1195 C1194 1.349 . S
C1195 C1211 1.349 . S
C1196 C1194 1.327 . S
C1196 C1215 1.429 . S
C1196 H1220 0.950 . S
C1197 C1214 1.574 . S
C1197 C1216 1.368 . S
C1197 H1221 0.949 . S
H1198 C1202 0.949 . S
C1199 C1200 1.349 . S
C1199 C1201 1.327 . S
C1199 H1222 0.950 . S
C1200 C1199 1.349 . S
C1200 C1212 1.349 . S
C1201 C1199 1.327 . S
C1201 C1217 1.429 . S
C1201 H1223 0.950 . S
C1202 H1198 0.949 . S
C1202 C1210 1.574 . S
C1202 C1218 1.368 . S
H1203 C1211 0.950 . S
H1204 C1209 0.950 . S
H1205 C1210 0.949 . S
H1206 C1212 0.950 . S
H1207 C1213 0.950 . S
H1208 C1214 0.949 . S
C1209 H1204 0.950 . S
C1209 C1211 1.327 . S
C1209 C1215 1.429 . S
C1210 C1202 1.574 . S
C1210 H1205 0.949 . S
C1210 C1216 1.368 . S
C1211 C1195 1.349 . S
C1211 H1203 0.950 . S
C1211 C1209 1.327 . S
C1212 C1200 1.349 . S
C1212 H1206 0.950 . S
C1212 C1213 1.327 . S
C1213 H1207 0.950 . S
C1213 C1212 1.327 . S
C1213 C1217 1.429 . S
C1214 C1197 1.574 . S
C1214 H1208 0.949 . S
C1214 C1218 1.368 . S
C1215 C1196 1.429 . S
C1215 C1209 1.429 . S
C1215 C1216 1.523 . S
C1216 C1197 1.368 . S
C1216 C1210 1.368 . S
C1216 C1215 1.523 . S
C1217 C1201 1.429 . S
C1217 C1213 1.429 . S
C1217 C1218 1.523 . S
C1218 C1202 1.368 . S
C1218 C1214 1.368 . S
C1218 C1217 1.523 . S
H1219 C1194 0.950 . S
H1220 C1196 0.950 . S
H1221 C1197 0.949 . S
H1222 C1199 0.950 . S
H1223 C1201 0.950 . S
C1224 C1225 1.349 . S
C1224 C1226 1.327 . S
C1224 H1249 0.950 . S
C1225 C1224 1.349 . S
C1225 C1241 1.349 . S
C1226 C1224 1.327 . S
C1226 C1245 1.429 . S
C1226 H1250 0.950 . S
C1227 C1244 1.574 . S
C1227 C1246 1.368 . S
C1227 H1251 0.949 . S
H1228 C1232 0.949 . S
C1229 C1230 1.349 . S
C1229 C1231 1.327 . S
C1229 H1252 0.950 . S
C1230 C1229 1.349 . S
C1230 C1242 1.349 . S
C1231 C1229 1.327 . S
C1231 C1247 1.429 . S
C1231 H1253 0.950 . S
C1232 H1228 0.949 . S
C1232 C1240 1.574 . S
C1232 C1248 1.368 . S
H1233 C1241 0.950 . S
H1234 C1239 0.950 . S
H1235 C1240 0.949 . S
H1236 C1242 0.950 . S
H1237 C1243 0.950 . S
H1238 C1244 0.949 . S
C1239 H1234 0.950 . S
C1239 C1241 1.327 . S
C1239 C1245 1.429 . S
C1240 C1232 1.574 . S
C1240 H1235 0.949 . S
C1240 C1246 1.368 . S
C1241 C1225 1.349 . S
C1241 H1233 0.950 . S
C1241 C1239 1.327 . S
C1242 C1230 1.349 . S
C1242 H1236 0.950 . S
C1242 C1243 1.327 . S
C1243 H1237 0.950 . S
C1243 C1242 1.327 . S
C1243 C1247 1.429 . S
C1244 C1227 1.574 . S
C1244 H1238 0.949 . S
C1244 C1248 1.368 . S
C1245 C1226 1.429 . S
C1245 C1239 1.429 . S
C1245 C1246 1.523 . S
C1246 C1227 1.368 . S
C1246 C1240 1.368 . S
C1246 C1245 1.523 . S
C1247 C1231 1.429 . S
C1247 C1243 1.429 . S
C1247 C1248 1.523 . S
C1248 C1232 1.368 . S
C1248 C1244 1.368 . S
C1248 C1247 1.523 . S
H1249 C1224 0.950 . S
H1250 C1226 0.950 . S
H1251 C1227 0.949 . S
H1252 C1229 0.950 . S
H1253 C1231 0.950 . S
C1254 C1255 1.349 . S
C1254 C1256 1.327 . S
C1254 H1279 0.950 . S
C1255 C1254 1.349 . S
C1255 C1271 1.349 . S
C1256 C1254 1.327 . S
C1256 C1275 1.429 . S
C1256 H1280 0.950 . S
C1257 C1274 1.574 . S
C1257 C1276 1.368 . S
C1257 H1281 0.949 . S
H1258 C1262 0.949 . S
C1259 C1260 1.349 . S
C1259 C1261 1.327 . S
C1259 H1282 0.950 . S
C1260 C1259 1.349 . S
C1260 C1272 1.349 . S
C1261 C1259 1.327 . S
C1261 C1277 1.429 . S
C1261 H1283 0.950 . S
C1262 H1258 0.949 . S
C1262 C1270 1.574 . S
C1262 C1278 1.368 . S
H1263 C1271 0.950 . S
H1264 C1269 0.950 . S
H1265 C1270 0.949 . S
H1266 C1272 0.950 . S
H1267 C1273 0.950 . S
H1268 C1274 0.949 . S
C1269 H1264 0.950 . S
C1269 C1271 1.327 . S
C1269 C1275 1.429 . S
C1270 C1262 1.574 . S
C1270 H1265 0.949 . S
C1270 C1276 1.368 . S
C1271 C1255 1.349 . S
C1271 H1263 0.950 . S
C1271 C1269 1.327 . S
C1272 C1260 1.349 . S
C1272 H1266 0.950 . S
C1272 C1273 1.327 . S
C1273 H1267 0.950 . S
C1273 C1272 1.327 . S
C1273 C1277 1.429 . S
C1274 C1257 1.574 . S
C1274 H1268 0.949 . S
C1274 C1278 1.368 . S
C1275 C1256 1.429 . S
C1275 C1269 1.429 . S
C1275 C1276 1.523 . S
C1276 C1257 1.368 . S
C1276 C1270 1.368 . S
C1276 C1275 1.523 . S
C1277 C1261 1.429 . S
C1277 C1273 1.429 . S
C1277 C1278 1.523 . S
C1278 C1262 1.368 . S
C1278 C1274 1.368 . S
C1278 C1277 1.523 . S
H1279 C1254 0.950 . S
H1280 C1256 0.950 . S
H1281 C1257 0.949 . S
H1282 C1259 0.950 . S
H1283 C1261 0.950 . S
C1284 C1285 1.349 . S
C1284 C1286 1.327 . S
C1284 H1309 0.950 . S
C1285 C1284 1.349 . S
C1285 C1301 1.349 . S
C1286 C1284 1.327 . S
C1286 C1305 1.429 . S
C1286 H1310 0.950 . S
C1287 C1304 1.574 . S
C1287 C1306 1.368 . S
C1287 H1311 0.949 . S
H1288 C1292 0.949 . S
C1289 C1290 1.349 . S
C1289 C1291 1.327 . S
C1289 H1312 0.950 . S
C1290 C1289 1.349 . S
C1290 C1302 1.349 . S
C1291 C1289 1.327 . S
C1291 C1307 1.429 . S
C1291 H1313 0.950 . S
C1292 H1288 0.949 . S
C1292 C1300 1.574 . S
C1292 C1308 1.368 . S
H1293 C1301 0.950 . S
H1294 C1299 0.950 . S
H1295 C1300 0.949 . S
H1296 C1302 0.950 . S
H1297 C1303 0.950 . S
H1298 C1304 0.949 . S
C1299 H1294 0.950 . S
C1299 C1301 1.327 . S
C1299 C1305 1.429 . S
C1300 C1292 1.574 . S
C1300 H1295 0.949 . S
C1300 C1306 1.368 . S
C1301 C1285 1.349 . S
C1301 H1293 0.950 . S
C1301 C1299 1.327 . S
C1302 C1290 1.349 . S
C1302 H1296 0.950 . S
C1302 C1303 1.327 . S
C1303 H1297 0.950 . S
C1303 C1302 1.327 . S
C1303 C1307 1.429 . S
C1304 C1287 1.574 . S
C1304 H1298 0.949 . S
C1304 C1308 1.368 . S
C1305 C1286 1.429 . S
C1305 C1299 1.429 . S
C1305 C1306 1.523 . S
C1306 C1287 1.368 . S
C1306 C1300 1.368 . S
C1306 C1305 1.523 . S
C1307 C1291 1.429 . S
C1307 C1303 1.429 . S
C1307 C1308 1.523 . S
C1308 C1292 1.368 . S
C1308 C1304 1.368 . S
C1308 C1307 1.523 . S
H1309 C1284 0.950 . S
H1310 C1286 0.950 . S
H1311 C1287 0.949 . S
H1312 C1289 0.950 . S
H1313 C1291 0.950 . S
C1314 C1315 1.349 . S
C1314 C1316 1.327 . S
C1314 H1339 0.950 . S
C1315 C1314 1.349 . S
C1315 C1331 1.349 . S
C1316 C1314 1.327 . S
C1316 C1335 1.429 . S
C1316 H1340 0.950 . S
C1317 C1334 1.574 1_455 S
C1317 C1336 1.368 1_554 S
C1317 H1341 0.949 . S
H1318 C1322 0.949 . S
C1319 C1320 1.349 . S
C1319 C1321 1.327 . S
C1319 H1342 0.950 . S
C1320 C1319 1.349 . S
C1320 C1332 1.349 . S
C1321 C1319 1.327 . S
C1321 C1337 1.429 . S
C1321 H1343 0.950 . S
C1322 H1318 0.949 . S
C1322 C1330 1.574 1_655 S
C1322 C1338 1.368 1_556 S
H1323 C1331 0.950 1_554 S
H1324 C1329 0.950 . S
H1325 C1330 0.949 . S
H1326 C1332 0.950 1_556 S
H1327 C1333 0.950 . S
H1328 C1334 0.949 . S
C1329 H1324 0.950 . S
C1329 C1331 1.327 1_554 S
C1329 C1335 1.429 1_554 S
C1330 C1322 1.574 1_455 S
C1330 H1325 0.949 . S
C1330 C1336 1.368 . S
C1331 C1315 1.349 . S
C1331 H1323 0.950 1_556 S
C1331 C1329 1.327 1_556 S
C1332 C1320 1.349 . S
C1332 H1326 0.950 1_554 S
C1332 C1333 1.327 1_554 S
C1333 H1327 0.950 . S
C1333 C1332 1.327 1_556 S
C1333 C1337 1.429 1_556 S
C1334 C1317 1.574 1_655 S
C1334 H1328 0.949 . S
C1334 C1338 1.368 . S
C1335 C1316 1.429 . S
C1335 C1329 1.429 1_556 S
C1335 C1336 1.523 . S
C1336 C1317 1.368 1_556 S
C1336 C1330 1.368 . S
C1336 C1335 1.523 . S
C1337 C1321 1.429 . S
C1337 C1333 1.429 1_554 S
C1337 C1338 1.523 . S
C1338 C1322 1.368 1_554 S
C1338 C1334 1.368 . S
C1338 C1337 1.523 . S
H1339 C1314 0.950 . S
H1340 C1316 0.950 . S
H1341 C1317 0.949 . S
H1342 C1319 0.950 . S
H1343 C1321 0.950 . S
C1344 C1345 1.349 . S
C1344 C1346 1.327 . S
C1344 H1369 0.952 . S
C1345 C1344 1.349 . S
C1345 C1361 1.349 . S
C1346 C1344 1.327 . S
C1346 C1365 1.429 . S
C1346 H1370 0.950 1_556 S
C1347 C1364 1.574 . S
C1347 C1366 1.368 . S
C1347 H1371 0.949 . S
H1348 C1352 0.949 . S
C1349 C1350 1.349 . S
C1349 C1351 1.327 . S
C1349 H1372 0.952 . S
C1350 C1349 1.349 . S
C1350 C1362 1.349 . S
C1351 C1349 1.327 . S
C1351 C1367 1.429 . S
C1351 H1373 0.950 1_554 S
C1352 H1348 0.949 . S
C1352 C1360 1.574 . S
C1352 C1368 1.368 . S
H1353 C1361 0.950 . S
H1354 C1359 0.950 . S
H1355 C1360 0.949 . S
H1356 C1362 0.950 . S
H1357 C1363 0.950 . S
H1358 C1364 0.949 . S
C1359 H1354 0.950 . S
C1359 C1361 1.327 . S
C1359 C1365 1.429 . S
C1360 C1352 1.574 . S
C1360 H1355 0.949 . S
C1360 C1366 1.368 1_554 S
C1361 C1345 1.349 . S
C1361 H1353 0.950 . S
C1361 C1359 1.327 . S
C1362 C1350 1.349 . S
C1362 H1356 0.950 . S
C1362 C1363 1.327 . S
C1363 H1357 0.950 . S
C1363 C1362 1.327 . S
C1363 C1367 1.429 . S
C1364 C1347 1.574 . S
C1364 H1358 0.949 . S
C1364 C1368 1.368 1_556 S
C1365 C1346 1.429 . S
C1365 C1359 1.429 . S
C1365 C1366 1.523 . S
C1366 C1347 1.368 . S
C1366 C1360 1.368 1_556 S
C1366 C1365 1.523 . S
C1367 C1351 1.429 . S
C1367 C1363 1.429 . S
C1367 C1368 1.523 . S
C1368 C1352 1.368 . S
C1368 C1364 1.368 1_554 S
C1368 C1367 1.523 . S
H1369 C1344 0.952 . S
H1370 C1346 0.950 1_554 S
H1371 C1347 0.949 . S
H1372 C1349 0.952 . S
H1373 C1351 0.950 1_556 S
C1374 C1375 1.349 . S
C1374 C1376 1.334 . S
C1374 H1399 0.950 1_554 S
C1375 C1374 1.349 . S
C1375 C1391 1.349 . S
C1376 C1374 1.334 . S
C1376 C1395 1.441 . S
C1376 H1400 0.930 1_554 S
C1377 C1394 1.574 1_545 S
C1377 C1396 1.368 . S
C1377 H1401 0.949 . S
H1378 C1382 0.949 . S
C1379 C1380 1.349 . S
C1379 C1381 1.334 . S
C1379 H1402 0.950 1_556 S
C1380 C1379 1.349 . S
C1380 C1392 1.349 . S
C1381 C1379 1.334 . S
C1381 C1397 1.441 . S
C1381 H1403 0.930 1_556 S
C1382 H1378 0.949 . S
C1382 C1390 1.574 1_565 S
C1382 C1398 1.368 . S
H1383 C1391 0.950 . S
H1384 C1389 0.950 . S
H1385 C1390 0.949 . S
H1386 C1392 0.950 . S
H1387 C1393 0.950 . S
H1388 C1394 0.949 . S
C1389 H1384 0.950 . S
C1389 C1391 1.327 . S
C1389 C1395 1.429 . S
C1390 C1382 1.574 1_545 S
C1390 H1385 0.949 . S
C1390 C1396 1.368 1_556 S
C1391 C1375 1.349 . S
C1391 H1383 0.950 . S
C1391 C1389 1.327 . S
C1392 C1380 1.349 . S
C1392 H1386 0.950 . S
C1392 C1393 1.327 . S
C1393 H1387 0.950 . S
C1393 C1392 1.327 . S
C1393 C1397 1.429 . S
C1394 C1377 1.574 1_565 S
C1394 H1388 0.949 . S
C1394 C1398 1.368 1_554 S
C1395 C1376 1.441 . S
C1395 C1389 1.429 . S
C1395 C1396 1.523 . S
C1396 C1377 1.368 . S
C1396 C1390 1.368 1_554 S
C1396 C1395 1.523 . S
C1397 C1381 1.441 . S
C1397 C1393 1.429 . S
C1397 C1398 1.523 . S
C1398 C1382 1.368 . S
C1398 C1394 1.368 1_556 S
C1398 C1397 1.523 . S
H1399 C1374 0.950 1_556 S
H1400 C1376 0.930 1_556 S
H1401 C1377 0.949 . S
H1402 C1379 0.950 1_554 S
H1403 C1381 0.930 1_554 S
C1404 C1405 1.349 . S
C1404 C1406 1.327 . S
C1404 H1429 0.950 . S
C1405 C1404 1.349 . S
C1405 C1421 1.349 . S
C1406 C1404 1.327 . S
C1406 C1425 1.429 . S
C1406 H1430 0.950 . S
C1407 C1424 1.574 . S
C1407 C1426 1.368 . S
C1407 H1431 0.949 . S
H1408 C1412 0.949 . S
C1409 C1410 1.349 . S
C1409 C1411 1.327 . S
C1409 H1432 0.950 . S
C1410 C1409 1.349 . S
C1410 C1422 1.349 . S
C1411 C1409 1.327 . S
C1411 C1427 1.429 . S
C1411 H1433 0.950 . S
C1412 H1408 0.949 . S
C1412 C1420 1.574 . S
C1412 C1428 1.368 . S
H1413 C1421 0.950 . S
H1414 C1419 0.950 . S
H1415 C1420 0.949 . S
H1416 C1422 0.950 . S
H1417 C1423 0.950 . S
H1418 C1424 0.949 . S
C1419 H1414 0.950 . S
C1419 C1421 1.327 . S
C1419 C1425 1.429 . S
C1420 C1412 1.574 . S
C1420 H1415 0.949 . S
C1420 C1426 1.368 . S
C1421 C1405 1.349 . S
C1421 H1413 0.950 . S
C1421 C1419 1.327 . S
C1422 C1410 1.349 . S
C1422 H1416 0.950 . S
C1422 C1423 1.327 . S
C1423 H1417 0.950 . S
C1423 C1422 1.327 . S
C1423 C1427 1.429 . S
C1424 C1407 1.574 . S
C1424 H1418 0.949 . S
C1424 C1428 1.368 . S
C1425 C1406 1.429 . S
C1425 C1419 1.429 . S
C1425 C1426 1.523 . S
C1426 C1407 1.368 . S
C1426 C1420 1.368 . S
C1426 C1425 1.523 . S
C1427 C1411 1.429 . S
C1427 C1423 1.429 . S
C1427 C1428 1.523 . S
C1428 C1412 1.368 . S
C1428 C1424 1.368 . S
C1428 C1427 1.523 . S
H1429 C1404 0.950 . S
H1430 C1406 0.950 . S
H1431 C1407 0.949 . S
H1432 C1409 0.950 . S
H1433 C1411 0.950 . S
C1434 C1435 1.349 . S
C1434 C1436 1.327 . S
C1434 H1459 0.950 . S
C1435 C1434 1.349 . S
C1435 C1451 1.349 . S
C1436 C1434 1.327 . S
C1436 C1455 1.429 . S
C1436 H1460 0.950 . S
C1437 C1454 1.574 . S
C1437 C1456 1.368 1_565 S
C1437 H1461 0.949 . S
H1438 C1442 0.949 . S
C1439 C1440 1.349 . S
C1439 C1441 1.327 . S
C1439 H1462 0.950 . S
C1440 C1439 1.349 . S
C1440 C1452 1.349 . S
C1441 C1439 1.327 . S
C1441 C1457 1.429 . S
C1441 H1463 0.950 . S
C1442 H1438 0.949 . S
C1442 C1450 1.574 . S
C1442 C1458 1.368 1_545 S
H1443 C1451 0.950 . S
H1444 C1449 0.950 . S
H1445 C1450 0.949 . S
H1446 C1452 0.950 . S
H1447 C1453 0.950 . S
H1448 C1454 0.949 . S
C1449 H1444 0.950 . S
C1449 C1451 1.327 . S
C1449 C1455 1.429 . S
C1450 C1442 1.574 . S
C1450 H1445 0.949 . S
C1450 C1456 1.368 . S
C1451 C1435 1.349 . S
C1451 H1443 0.950 . S
C1451 C1449 1.327 . S
C1452 C1440 1.349 . S
C1452 H1446 0.950 . S
C1452 C1453 1.327 . S
C1453 H1447 0.950 . S
C1453 C1452 1.327 . S
C1453 C1457 1.429 . S
C1454 C1437 1.574 . S
C1454 H1448 0.949 . S
C1454 C1458 1.368 . S
C1455 C1436 1.429 . S
C1455 C1449 1.429 . S
C1455 C1456 1.523 . S
C1456 C1437 1.368 1_545 S
C1456 C1450 1.368 . S
C1456 C1455 1.523 . S
C1457 C1441 1.429 . S
C1457 C1453 1.429 . S
C1457 C1458 1.523 . S
C1458 C1442 1.368 1_565 S
C1458 C1454 1.368 . S
C1458 C1457 1.523 . S
H1459 C1434 0.950 . S
H1460 C1436 0.950 . S
H1461 C1437 0.949 . S
H1462 C1439 0.950 . S
H1463 C1441 0.950 . S
C1464 C1465 1.349 . S
C1464 C1466 1.327 . S
C1464 H1489 0.950 . S
C1465 C1464 1.349 . S
C1465 C1481 1.349 . S
C1466 C1464 1.327 . S
C1466 C1485 1.429 . S
C1466 H1490 0.950 . S
C1467 C1484 1.574 1_455 S
C1467 C1486 1.368 . S
C1467 H1491 0.949 . S
H1468 C1472 0.949 . S
C1469 C1470 1.349 . S
C1469 C1471 1.327 . S
C1469 H1492 0.950 . S
C1470 C1469 1.349 . S
C1470 C1482 1.349 . S
C1471 C1469 1.327 . S
C1471 C1487 1.429 . S
C1471 H1493 0.950 . S
C1472 H1468 0.949 . S
C1472 C1480 1.574 1_655 S
C1472 C1488 1.368 . S
H1473 C1481 0.950 . S
H1474 C1479 0.950 . S
H1475 C1480 0.949 . S
H1476 C1482 0.950 . S
H1477 C1483 0.950 . S
H1478 C1484 0.949 . S
C1479 H1474 0.950 . S
C1479 C1481 1.327 . S
C1479 C1485 1.429 . S
C1480 C1472 1.574 1_455 S
C1480 H1475 0.949 . S
C1480 C1486 1.368 . S
C1481 C1465 1.349 . S
C1481 H1473 0.950 . S
C1481 C1479 1.327 . S
C1482 C1470 1.349 . S
C1482 H1476 0.950 . S
C1482 C1483 1.327 . S
C1483 H1477 0.950 . S
C1483 C1482 1.327 . S
C1483 C1487 1.429 . S
C1484 C1467 1.574 1_655 S
C1484 H1478 0.949 . S
C1484 C1488 1.368 . S
C1485 C1466 1.429 . S
C1485 C1479 1.429 . S
C1485 C1486 1.523 . S
C1486 C1467 1.368 . S
C1486 C1480 1.368 . S
C1486 C1485 1.523 . S
C1487 C1471 1.429 . S
C1487 C1483 1.429 . S
C1487 C1488 1.523 . S
C1488 C1472 1.368 . S
C1488 C1484 1.368 . S
C1488 C1487 1.523 . S
H1489 C1464 0.950 . S
H1490 C1466 0.950 . S
H1491 C1467 0.949 . S
H1492 C1469 0.950 . S
H1493 C1471 0.950 . S
C1494 C1495 1.349 . S
C1494 C1496 1.327 . S
C1494 H1519 0.950 . S
C1495 C1494 1.349 . S
C1495 C1511 1.349 . S
C1496 C1494 1.327 . S
C1496 C1515 1.429 . S
C1496 H1520 0.950 . S
C1497 C1514 1.574 . S
C1497 C1516 1.368 . S
C1497 H1521 0.949 . S
H1498 C1502 0.949 . S
C1499 C1500 1.349 . S
C1499 C1501 1.327 . S
C1499 H1522 0.950 . S
C1500 C1499 1.349 . S
C1500 C1512 1.349 . S
C1501 C1499 1.327 . S
C1501 C1517 1.429 . S
C1501 H1523 0.950 . S
C1502 H1498 0.949 . S
C1502 C1510 1.574 . S
C1502 C1518 1.368 . S
H1503 C1511 0.950 . S
H1504 C1509 0.950 . S
H1505 C1510 0.949 . S
H1506 C1512 0.950 . S
H1507 C1513 0.950 . S
H1508 C1514 0.949 . S
C1509 H1504 0.950 . S
C1509 C1511 1.327 . S
C1509 C1515 1.429 . S
C1510 C1502 1.574 . S
C1510 H1505 0.949 . S
C1510 C1516 1.368 . S
C1511 C1495 1.349 . S
C1511 H1503 0.950 . S
C1511 C1509 1.327 . S
C1512 C1500 1.349 . S
C1512 H1506 0.950 . S
C1512 C1513 1.327 . S
C1513 H1507 0.950 . S
C1513 C1512 1.327 . S
C1513 C1517 1.429 . S
C1514 C1497 1.574 . S
C1514 H1508 0.949 . S
C1514 C1518 1.368 . S
C1515 C1496 1.429 . S
C1515 C1509 1.429 . S
C1515 C1516 1.523 . S
C1516 C1497 1.368 . S
C1516 C1510 1.368 . S
C1516 C1515 1.523 . S
C1517 C1501 1.429 . S
C1517 C1513 1.429 . S
C1517 C1518 1.523 . S
C1518 C1502 1.368 . S
C1518 C1514 1.368 . S
C1518 C1517 1.523 . S
H1519 C1494 0.950 . S
H1520 C1496 0.950 . S
H1521 C1497 0.949 . S
H1522 C1499 0.950 . S
H1523 C1501 0.950 . S
C1524 C1525 1.349 . S
C1524 C1526 1.327 . S
C1524 H1549 0.950 . S
C1525 C1524 1.349 . S
C1525 C1541 1.349 . S
C1526 C1524 1.327 . S
C1526 C1545 1.429 . S
C1526 H1550 0.950 . S
C1527 C1544 1.578 . S
C1527 C1546 1.362 1_545 S
C1527 H1551 0.949 1_545 S
H1528 C1532 0.949 1_545 S
C1529 C1530 1.349 . S
C1529 C1531 1.327 . S
C1529 H1552 0.950 . S
C1530 C1529 1.349 . S
C1530 C1542 1.349 . S
C1531 C1529 1.327 . S
C1531 C1547 1.429 . S
C1531 H1553 0.950 . S
C1532 H1528 0.949 1_565 S
C1532 C1540 1.578 . S
C1532 C1548 1.362 1_565 S
H1533 C1541 0.950 . S
H1534 C1539 0.950 . S
H1535 C1540 0.949 . S
H1536 C1542 0.950 . S
H1537 C1543 0.950 . S
H1538 C1544 0.949 . S
C1539 H1534 0.950 . S
C1539 C1541 1.327 . S
C1539 C1545 1.429 . S
C1540 C1532 1.578 . S
C1540 H1535 0.949 . S
C1540 C1546 1.368 . S
C1541 C1525 1.349 . S
C1541 H1533 0.950 . S
C1541 C1539 1.327 . S
C1542 C1530 1.349 . S
C1542 H1536 0.950 . S
C1542 C1543 1.327 . S
C1543 H1537 0.950 . S
C1543 C1542 1.327 . S
C1543 C1547 1.429 . S
C1544 C1527 1.578 . S
C1544 H1538 0.949 . S
C1544 C1548 1.368 . S
C1545 C1526 1.429 . S
C1545 C1539 1.429 . S
C1545 C1546 1.523 . S
C1546 C1527 1.362 1_565 S
C1546 C1540 1.368 . S
C1546 C1545 1.523 . S
C1547 C1531 1.429 . S
C1547 C1543 1.429 . S
C1547 C1548 1.523 . S
C1548 C1532 1.362 1_545 S
C1548 C1544 1.368 . S
C1548 C1547 1.523 . S
H1549 C1524 0.950 . S
H1550 C1526 0.950 . S
H1551 C1527 0.949 1_565 S
H1552 C1529 0.950 . S
H1553 C1531 0.950 . S
C1554 C1555 1.349 . S
C1554 C1556 1.327 . S
C1554 H1579 0.950 . S
C1555 C1554 1.349 . S
C1555 C1571 1.349 . S
C1556 C1554 1.327 . S
C1556 C1575 1.429 . S
C1556 H1580 0.950 . S
C1557 C1574 1.621 . S
C1557 C1576 1.368 . S
C1557 H1581 0.949 . S
H1558 C1562 0.949 . S
C1559 C1560 1.349 . S
C1559 C1561 1.327 . S
C1559 H1582 0.950 . S
C1560 C1559 1.349 . S
C1560 C1572 1.349 . S
C1561 C1559 1.327 . S
C1561 C1577 1.429 . S
C1561 H1583 0.950 . S
C1562 H1558 0.949 . S
C1562 C1570 1.621 . S
C1562 C1578 1.368 . S
H1563 C1571 0.950 . S
H1564 C1569 0.950 . S
H1565 C1570 0.971 . S
H1566 C1572 0.950 . S
H1567 C1573 0.950 . S
H1568 C1574 0.971 . S
C1569 H1564 0.950 . S
C1569 C1571 1.327 . S
C1569 C1575 1.429 . S
C1570 C1562 1.621 . S
C1570 H1565 0.971 . S
C1570 C1576 1.301 1_455 S
C1571 C1555 1.349 . S
C1571 H1563 0.950 . S
C1571 C1569 1.327 . S
C1572 C1560 1.349 . S
C1572 H1566 0.950 . S
C1572 C1573 1.327 . S
C1573 H1567 0.950 . S
C1573 C1572 1.327 . S
C1573 C1577 1.429 . S
C1574 C1557 1.621 . S
C1574 H1568 0.971 . S
C1574 C1578 1.301 1_655 S
C1575 C1556 1.429 . S
C1575 C1569 1.429 . S
C1575 C1576 1.523 . S
C1576 C1557 1.368 . S
C1576 C1570 1.301 1_655 S
C1576 C1575 1.523 . S
C1577 C1561 1.429 . S
C1577 C1573 1.429 . S
C1577 C1578 1.523 . S
C1578 C1562 1.368 . S
C1578 C1574 1.301 1_455 S
C1578 C1577 1.523 . S
H1579 C1554 0.950 . S
H1580 C1556 0.950 . S
H1581 C1557 0.949 . S
H1582 C1559 0.950 . S
H1583 C1561 0.950 . S
C1584 C1585 1.349 . S
C1584 C1586 1.327 . S
C1584 H1609 0.950 . S
C1585 C1584 1.349 . S
C1585 C1601 1.349 . S
C1586 C1584 1.327 . S
C1586 C1605 1.429 . S
C1586 H1610 0.950 . S
C1587 C1604 1.574 . S
C1587 C1606 1.368 . S
C1587 H1611 0.949 . S
H1588 C1592 0.949 . S
C1589 C1590 1.349 . S
C1589 C1591 1.327 . S
C1589 H1612 0.950 . S
C1590 C1589 1.349 . S
C1590 C1602 1.349 . S
C1591 C1589 1.327 . S
C1591 C1607 1.429 . S
C1591 H1613 0.950 . S
C1592 H1588 0.949 . S
C1592 C1600 1.574 . S
C1592 C1608 1.368 . S
H1593 C1601 0.950 . S
H1594 C1599 0.950 . S
H1595 C1600 0.949 . S
H1596 C1602 0.950 1_554 S
H1597 C1603 0.950 . S
H1598 C1604 0.949 . S
C1599 H1594 0.950 . S
C1599 C1601 1.327 . S
C1599 C1605 1.429 . S
C1600 C1592 1.574 . S
C1600 H1595 0.949 . S
C1600 C1606 1.368 . S
C1601 C1585 1.349 . S
C1601 H1593 0.950 . S
C1601 C1599 1.327 . S
C1602 C1590 1.349 . S
C1602 H1596 0.950 1_556 S
C1602 C1603 1.327 . S
C1603 H1597 0.950 . S
C1603 C1602 1.327 . S
C1603 C1607 1.429 . S
C1604 C1587 1.574 . S
C1604 H1598 0.949 . S
C1604 C1608 1.368 . S
C1605 C1586 1.429 . S
C1605 C1599 1.429 . S
C1605 C1606 1.523 . S
C1606 C1587 1.368 . S
C1606 C1600 1.368 . S
C1606 C1605 1.523 . S
C1607 C1591 1.429 . S
C1607 C1603 1.429 . S
C1607 C1608 1.523 . S
C1608 C1592 1.368 . S
C1608 C1604 1.368 . S
C1608 C1607 1.523 . S
H1609 C1584 0.950 . S
H1610 C1586 0.950 . S
H1611 C1587 0.949 . S
H1612 C1589 0.950 . S
H1613 C1591 0.950 . S
C1614 C1615 1.349 . S
C1614 C1616 1.327 . S
C1614 H1639 0.950 . S
C1615 C1614 1.349 . S
C1615 C1631 1.349 . S
C1616 C1614 1.327 . S
C1616 C1635 1.429 . S
C1616 H1640 0.950 . S
C1617 C1634 1.574 . S
C1617 C1636 1.368 . S
C1617 H1641 0.949 . S
H1618 C1622 0.949 . S
C1619 C1620 1.349 . S
C1619 C1621 1.327 . S
C1619 H1642 0.950 . S
C1620 C1619 1.349 . S
C1620 C1632 1.349 . S
C1621 C1619 1.327 . S
C1621 C1637 1.429 . S
C1621 H1643 0.950 . S
C1622 H1618 0.949 . S
C1622 C1630 1.574 . S
C1622 C1638 1.368 . S
H1623 C1631 0.950 1_554 S
H1624 C1629 0.950 . S
H1625 C1630 0.949 . S
H1626 C1632 0.950 . S
H1627 C1633 0.950 . S
H1628 C1634 0.949 . S
C1629 H1624 0.950 . S
C1629 C1631 1.327 . S
C1629 C1635 1.429 . S
C1630 C1622 1.574 . S
C1630 H1625 0.949 . S
C1630 C1636 1.368 . S
C1631 C1615 1.349 . S
C1631 H1623 0.950 1_556 S
C1631 C1629 1.327 . S
C1632 C1620 1.349 . S
C1632 H1626 0.950 . S
C1632 C1633 1.327 . S
C1633 H1627 0.950 . S
C1633 C1632 1.327 . S
C1633 C1637 1.429 . S
C1634 C1617 1.574 . S
C1634 H1628 0.949 . S
C1634 C1638 1.368 . S
C1635 C1616 1.429 . S
C1635 C1629 1.429 . S
C1635 C1636 1.523 . S
C1636 C1617 1.368 . S
C1636 C1630 1.368 . S
C1636 C1635 1.523 . S
C1637 C1621 1.429 . S
C1637 C1633 1.429 . S
C1637 C1638 1.523 . S
C1638 C1622 1.368 . S
C1638 C1634 1.368 . S
C1638 C1637 1.523 . S
H1639 C1614 0.950 . S
H1640 C1616 0.950 . S
H1641 C1617 0.949 . S
H1642 C1619 0.950 . S
H1643 C1621 0.950 . S
C1644 C1645 1.349 . S
C1644 C1646 1.327 . S
C1644 H1669 0.950 1_556 S
C1645 C1644 1.349 . S
C1645 C1661 1.349 . S
C1646 C1644 1.327 . S
C1646 C1665 1.429 . S
C1646 H1670 0.950 . S
C1647 C1664 1.574 . S
C1647 C1666 1.368 . S
C1647 H1671 0.949 . S
H1648 C1652 0.949 . S
C1649 C1650 1.349 . S
C1649 C1651 1.327 . S
C1649 H1672 0.950 . S
C1650 C1649 1.349 . S
C1650 C1662 1.349 . S
C1651 C1649 1.327 . S
C1651 C1667 1.429 . S
C1651 H1673 0.950 . S
C1652 H1648 0.949 . S
C1652 C1660 1.574 . S
C1652 C1668 1.368 . S
H1653 C1661 0.950 . S
H1654 C1659 0.950 . S
H1655 C1660 0.949 . S
H1656 C1662 0.950 . S
H1657 C1663 0.950 . S
H1658 C1664 0.949 . S
C1659 H1654 0.950 . S
C1659 C1661 1.327 . S
C1659 C1665 1.429 . S
C1660 C1652 1.574 . S
C1660 H1655 0.949 . S
C1660 C1666 1.368 . S
C1661 C1645 1.349 . S
C1661 H1653 0.950 . S
C1661 C1659 1.327 . S
C1662 C1650 1.349 . S
C1662 H1656 0.950 . S
C1662 C1663 1.327 . S
C1663 H1657 0.950 . S
C1663 C1662 1.327 . S
C1663 C1667 1.429 . S
C1664 C1647 1.574 . S
C1664 H1658 0.949 . S
C1664 C1668 1.368 . S
C1665 C1646 1.429 . S
C1665 C1659 1.429 . S
C1665 C1666 1.523 . S
C1666 C1647 1.368 . S
C1666 C1660 1.368 . S
C1666 C1665 1.523 . S
C1667 C1651 1.429 . S
C1667 C1663 1.429 . S
C1667 C1668 1.523 . S
C1668 C1652 1.368 . S
C1668 C1664 1.368 . S
C1668 C1667 1.523 . S
H1669 C1644 0.950 1_554 S
H1670 C1646 0.950 . S
H1671 C1647 0.949 . S
H1672 C1649 0.950 . S
H1673 C1651 0.950 . S
C1674 C1675 1.349 . S
C1674 C1676 1.327 . S
C1674 H1699 0.950 . S
C1675 C1674 1.349 . S
C1675 C1691 1.349 . S
C1676 C1674 1.327 . S
C1676 C1695 1.429 . S
C1676 H1700 0.950 . S
C1677 C1694 1.574 . S
C1677 C1696 1.368 . S
C1677 H1701 0.949 . S
H1678 C1682 0.949 . S
C1679 C1680 1.349 . S
C1679 C1681 1.327 . S
C1679 H1702 0.950 . S
C1680 C1679 1.349 . S
C1680 C1692 1.349 . S
C1681 C1679 1.327 . S
C1681 C1697 1.429 . S
C1681 H1703 0.950 . S
C1682 H1678 0.949 . S
C1682 C1690 1.574 . S
C1682 C1698 1.368 . S
H1683 C1691 0.950 . S
H1684 C1689 0.950 . S
H1685 C1690 0.949 . S
H1686 C1692 0.950 . S
H1687 C1693 0.950 . S
H1688 C1694 0.949 . S
C1689 H1684 0.950 . S
C1689 C1691 1.327 . S
C1689 C1695 1.429 . S
C1690 C1682 1.574 . S
C1690 H1685 0.949 . S
C1690 C1696 1.368 . S
C1691 C1675 1.349 . S
C1691 H1683 0.950 . S
C1691 C1689 1.327 . S
C1692 C1680 1.349 . S
C1692 H1686 0.950 . S
C1692 C1693 1.327 . S
C1693 H1687 0.950 . S
C1693 C1692 1.327 . S
C1693 C1697 1.429 . S
C1694 C1677 1.574 . S
C1694 H1688 0.949 . S
C1694 C1698 1.368 . S
C1695 C1676 1.429 . S
C1695 C1689 1.429 . S
C1695 C1696 1.523 . S
C1696 C1677 1.368 . S
C1696 C1690 1.368 . S
C1696 C1695 1.523 . S
C1697 C1681 1.429 . S
C1697 C1693 1.429 . S
C1697 C1698 1.523 . S
C1698 C1682 1.368 . S
C1698 C1694 1.368 . S
C1698 C1697 1.523 . S
H1699 C1674 0.950 . S
H1700 C1676 0.950 . S
H1701 C1677 0.949 . S
H1702 C1679 0.950 . S
H1703 C1681 0.950 . S
C1704 C1705 1.349 . S
C1704 C1706 1.327 . S
C1704 H1729 0.950 . S
C1705 C1704 1.349 . S
C1705 C1721 1.349 . S
C1706 C1704 1.327 . S
C1706 C1725 1.429 . S
C1706 H1730 0.950 . S
C1707 C1724 1.574 . S
C1707 C1726 1.368 . S
C1707 H1731 0.949 . S
H1708 C1712 0.949 . S
C1709 C1710 1.349 . S
C1709 C1711 1.327 . S
C1709 H1732 0.950 . S
C1710 C1709 1.349 . S
C1710 C1722 1.349 . S
C1711 C1709 1.327 . S
C1711 C1727 1.429 . S
C1711 H1733 0.950 . S
C1712 H1708 0.949 . S
C1712 C1720 1.574 . S
C1712 C1728 1.368 . S
H1713 C1721 0.950 . S
H1714 C1719 0.950 . S
H1715 C1720 0.949 . S
H1716 C1722 0.950 . S
H1717 C1723 0.950 . S
H1718 C1724 0.949 . S
C1719 H1714 0.950 . S
C1719 C1721 1.327 . S
C1719 C1725 1.429 . S
C1720 C1712 1.574 . S
C1720 H1715 0.949 . S
C1720 C1726 1.368 . S
C1721 C1705 1.349 . S
C1721 H1713 0.950 . S
C1721 C1719 1.327 . S
C1722 C1710 1.349 . S
C1722 H1716 0.950 . S
C1722 C1723 1.327 . S
C1723 H1717 0.950 . S
C1723 C1722 1.327 . S
C1723 C1727 1.429 . S
C1724 C1707 1.574 . S
C1724 H1718 0.949 . S
C1724 C1728 1.368 . S
C1725 C1706 1.429 . S
C1725 C1719 1.429 . S
C1725 C1726 1.523 . S
C1726 C1707 1.368 . S
C1726 C1720 1.368 . S
C1726 C1725 1.523 . S
C1727 C1711 1.429 . S
C1727 C1723 1.429 . S
C1727 C1728 1.523 . S
C1728 C1712 1.368 . S
C1728 C1724 1.368 . S
C1728 C1727 1.523 . S
H1729 C1704 0.950 . S
H1730 C1706 0.950 . S
H1731 C1707 0.949 . S
H1732 C1709 0.950 . S
H1733 C1711 0.950 . S
C1734 C1735 1.349 . S
C1734 C1736 1.327 . S
C1734 H1759 0.950 . S
C1735 C1734 1.349 . S
C1735 C1751 1.349 . S
C1736 C1734 1.327 . S
C1736 C1755 1.429 . S
C1736 H1760 0.950 . S
C1737 C1754 1.574 . S
C1737 C1756 1.368 . S
C1737 H1761 0.949 . S
H1738 C1742 0.949 . S
C1739 C1740 1.349 . S
C1739 C1741 1.327 . S
C1739 H1762 0.950 . S
C1740 C1739 1.349 . S
C1740 C1752 1.349 . S
C1741 C1739 1.327 . S
C1741 C1757 1.429 . S
C1741 H1763 0.950 . S
C1742 H1738 0.949 . S
C1742 C1750 1.574 . S
C1742 C1758 1.368 . S
H1743 C1751 0.950 . S
H1744 C1749 0.950 . S
H1745 C1750 0.949 . S
H1746 C1752 0.950 . S
H1747 C1753 0.950 . S
H1748 C1754 0.949 . S
C1749 H1744 0.950 . S
C1749 C1751 1.327 . S
C1749 C1755 1.429 . S
C1750 C1742 1.574 . S
C1750 H1745 0.949 . S
C1750 C1756 1.368 . S
C1751 C1735 1.349 . S
C1751 H1743 0.950 . S
C1751 C1749 1.327 . S
C1752 C1740 1.349 . S
C1752 H1746 0.950 . S
C1752 C1753 1.327 . S
C1753 H1747 0.950 . S
C1753 C1752 1.327 . S
C1753 C1757 1.429 . S
C1754 C1737 1.574 . S
C1754 H1748 0.949 . S
C1754 C1758 1.368 . S
C1755 C1736 1.429 . S
C1755 C1749 1.429 . S
C1755 C1756 1.523 . S
C1756 C1737 1.368 . S
C1756 C1750 1.368 . S
C1756 C1755 1.523 . S
C1757 C1741 1.429 . S
C1757 C1753 1.429 . S
C1757 C1758 1.523 . S
C1758 C1742 1.368 . S
C1758 C1754 1.368 . S
C1758 C1757 1.523 . S
H1759 C1734 0.950 . S
H1760 C1736 0.950 . S
H1761 C1737 0.949 . S
H1762 C1739 0.950 . S
H1763 C1741 0.950 . S
C1764 C1765 1.349 . S
C1764 C1766 1.327 . S
C1764 H1789 0.950 . S
C1765 C1764 1.349 . S
C1765 C1781 1.349 . S
C1766 C1764 1.327 . S
C1766 C1785 1.429 . S
C1766 H1790 0.950 . S
C1767 C1784 1.574 . S
C1767 C1786 1.368 . S
C1767 H1791 0.949 . S
H1768 C1772 0.949 . S
C1769 C1770 1.349 . S
C1769 C1771 1.327 . S
C1769 H1792 0.950 . S
C1770 C1769 1.349 . S
C1770 C1782 1.349 . S
C1771 C1769 1.327 . S
C1771 C1787 1.429 . S
C1771 H1793 0.950 . S
C1772 H1768 0.949 . S
C1772 C1780 1.574 . S
C1772 C1788 1.368 . S
H1773 C1781 0.950 . S
H1774 C1779 0.950 . S
H1775 C1780 0.949 . S
H1776 C1782 0.950 . S
H1777 C1783 0.950 . S
H1778 C1784 0.949 . S
C1779 H1774 0.950 . S
C1779 C1781 1.327 . S
C1779 C1785 1.429 . S
C1780 C1772 1.574 . S
C1780 H1775 0.949 . S
C1780 C1786 1.368 . S
C1781 C1765 1.349 . S
C1781 H1773 0.950 . S
C1781 C1779 1.327 . S
C1782 C1770 1.349 . S
C1782 H1776 0.950 . S
C1782 C1783 1.327 . S
C1783 H1777 0.950 . S
C1783 C1782 1.327 . S
C1783 C1787 1.429 . S
C1784 C1767 1.574 . S
C1784 H1778 0.949 . S
C1784 C1788 1.368 . S
C1785 C1766 1.429 . S
C1785 C1779 1.429 . S
C1785 C1786 1.523 . S
C1786 C1767 1.368 . S
C1786 C1780 1.368 . S
C1786 C1785 1.523 . S
C1787 C1771 1.429 . S
C1787 C1783 1.429 . S
C1787 C1788 1.523 . S
C1788 C1772 1.368 . S
C1788 C1784 1.368 . S
C1788 C1787 1.523 . S
H1789 C1764 0.950 . S
H1790 C1766 0.950 . S
H1791 C1767 0.949 . S
H1792 C1769 0.950 . S
H1793 C1771 0.950 . S
C1794 C1795 1.349 . S
C1794 C1796 1.327 . S
C1794 H1819 0.950 . S
C1795 C1794 1.349 . S
C1795 C1811 1.349 . S
C1796 C1794 1.327 . S
C1796 C1815 1.429 . S
C1796 H1820 0.950 . S
C1797 C1814 1.574 . S
C1797 C1816 1.368 . S
C1797 H1821 0.949 . S
H1798 C1802 0.949 . S
C1799 C1800 1.349 . S
C1799 C1801 1.327 . S
C1799 H1822 0.950 . S
C1800 C1799 1.349 . S
C1800 C1812 1.349 . S
C1801 C1799 1.327 . S
C1801 C1817 1.429 . S
C1801 H1823 0.950 . S
C1802 H1798 0.949 . S
C1802 C1810 1.574 . S
C1802 C1818 1.368 . S
H1803 C1811 0.950 . S
H1804 C1809 0.950 . S
H1805 C1810 0.949 . S
H1806 C1812 0.950 1_556 S
H1807 C1813 0.950 . S
H1808 C1814 0.949 . S
C1809 H1804 0.950 . S
C1809 C1811 1.327 . S
C1809 C1815 1.429 . S
C1810 C1802 1.574 . S
C1810 H1805 0.949 . S
C1810 C1816 1.368 . S
C1811 C1795 1.349 . S
C1811 H1803 0.950 . S
C1811 C1809 1.327 . S
C1812 C1800 1.349 . S
C1812 H1806 0.950 1_554 S
C1812 C1813 1.327 . S
C1813 H1807 0.950 . S
C1813 C1812 1.327 . S
C1813 C1817 1.429 . S
C1814 C1797 1.574 . S
C1814 H1808 0.949 . S
C1814 C1818 1.368 . S
C1815 C1796 1.429 . S
C1815 C1809 1.429 . S
C1815 C1816 1.523 . S
C1816 C1797 1.368 . S
C1816 C1810 1.368 . S
C1816 C1815 1.523 . S
C1817 C1801 1.429 . S
C1817 C1813 1.429 . S
C1817 C1818 1.523 . S
C1818 C1802 1.368 . S
C1818 C1814 1.368 . S
C1818 C1817 1.523 . S
H1819 C1794 0.950 . S
H1820 C1796 0.950 . S
H1821 C1797 0.949 . S
H1822 C1799 0.950 . S
H1823 C1801 0.950 . S
C1824 C1825 1.349 . S
C1824 C1826 1.327 . S
C1824 H1849 0.950 . S
C1825 C1824 1.349 . S
C1825 C1841 1.349 . S
C1826 C1824 1.327 . S
C1826 C1845 1.429 . S
C1826 H1850 0.950 . S
C1827 C1844 1.574 . S
C1827 C1846 1.368 . S
C1827 H1851 0.949 . S
H1828 C1832 0.949 . S
C1829 C1830 1.349 . S
C1829 C1831 1.327 . S
C1829 H1852 0.950 . S
C1830 C1829 1.349 . S
C1830 C1842 1.349 . S
C1831 C1829 1.327 . S
C1831 C1847 1.429 . S
C1831 H1853 0.950 . S
C1832 H1828 0.949 . S
C1832 C1840 1.574 . S
C1832 C1848 1.368 . S
H1833 C1841 0.950 . S
H1834 C1839 0.950 . S
H1835 C1840 0.949 . S
H1836 C1842 0.950 1_556 S
H1837 C1843 0.950 . S
H1838 C1844 0.949 . S
C1839 H1834 0.950 . S
C1839 C1841 1.327 . S
C1839 C1845 1.429 . S
C1840 C1832 1.574 . S
C1840 H1835 0.949 . S
C1840 C1846 1.368 . S
C1841 C1825 1.349 . S
C1841 H1833 0.950 . S
C1841 C1839 1.327 . S
C1842 C1830 1.349 . S
C1842 H1836 0.950 1_554 S
C1842 C1843 1.327 . S
C1843 H1837 0.950 . S
C1843 C1842 1.327 . S
C1843 C1847 1.429 . S
C1844 C1827 1.574 . S
C1844 H1838 0.949 . S
C1844 C1848 1.368 . S
C1845 C1826 1.429 . S
C1845 C1839 1.429 . S
C1845 C1846 1.523 . S
C1846 C1827 1.368 . S
C1846 C1840 1.368 . S
C1846 C1845 1.523 . S
C1847 C1831 1.429 . S
C1847 C1843 1.429 . S
C1847 C1848 1.523 . S
C1848 C1832 1.368 . S
C1848 C1844 1.368 . S
C1848 C1847 1.523 . S
H1849 C1824 0.950 . S
H1850 C1826 0.950 . S
H1851 C1827 0.949 . S
H1852 C1829 0.950 . S
H1853 C1831 0.950 . S
C1854 C1855 1.349 . S
C1854 C1856 1.327 . S
C1854 H1879 0.950 . S
C1855 C1854 1.349 . S
C1855 C1871 1.349 . S
C1856 C1854 1.327 . S
C1856 C1875 1.429 . S
C1856 H1880 0.950 . S
C1857 C1874 1.574 . S
C1857 C1876 1.368 . S
C1857 H1881 0.949 . S
H1858 C1862 0.949 . S
C1859 C1860 1.349 . S
C1859 C1861 1.327 . S
C1859 H1882 0.950 . S
C1860 C1859 1.349 . S
C1860 C1872 1.349 . S
C1861 C1859 1.327 . S
C1861 C1877 1.429 . S
C1861 H1883 0.950 . S
C1862 H1858 0.949 . S
C1862 C1870 1.574 . S
C1862 C1878 1.368 . S
H1863 C1871 0.950 . S
H1864 C1869 0.950 . S
H1865 C1870 0.949 . S
H1866 C1872 0.950 . S
H1867 C1873 0.950 . S
H1868 C1874 0.949 . S
C1869 H1864 0.950 . S
C1869 C1871 1.327 . S
C1869 C1875 1.429 . S
C1870 C1862 1.574 . S
C1870 H1865 0.949 . S
C1870 C1876 1.368 . S
C1871 C1855 1.349 . S
C1871 H1863 0.950 . S
C1871 C1869 1.327 . S
C1872 C1860 1.349 . S
C1872 H1866 0.950 . S
C1872 C1873 1.327 . S
C1873 H1867 0.950 . S
C1873 C1872 1.327 . S
C1873 C1877 1.429 . S
C1874 C1857 1.574 . S
C1874 H1868 0.949 . S
C1874 C1878 1.368 . S
C1875 C1856 1.429 . S
C1875 C1869 1.429 . S
C1875 C1876 1.523 . S
C1876 C1857 1.368 . S
C1876 C1870 1.368 . S
C1876 C1875 1.523 . S
C1877 C1861 1.429 . S
C1877 C1873 1.429 . S
C1877 C1878 1.523 . S
C1878 C1862 1.368 . S
C1878 C1874 1.368 . S
C1878 C1877 1.523 . S
H1879 C1854 0.950 . S
H1880 C1856 0.950 . S
H1881 C1857 0.949 . S
H1882 C1859 0.950 . S
H1883 C1861 0.950 . S
C1884 C1885 1.349 . S
C1884 C1886 1.327 . S
C1884 H1909 0.950 . S
C1885 C1884 1.349 . S
C1885 C1901 1.349 . S
C1886 C1884 1.327 . S
C1886 C1905 1.429 . S
C1886 H1910 0.950 . S
C1887 C1904 1.574 . S
C1887 C1906 1.368 . S
C1887 H1911 0.949 . S
H1888 C1892 0.949 . S
C1889 C1890 1.349 . S
C1889 C1891 1.327 . S
C1889 H1912 0.950 . S
C1890 C1889 1.349 . S
C1890 C1902 1.349 . S
C1891 C1889 1.327 . S
C1891 C1907 1.429 . S
C1891 H1913 0.950 . S
C1892 H1888 0.949 . S
C1892 C1900 1.574 . S
C1892 C1908 1.368 . S
H1893 C1901 0.950 . S
H1894 C1899 0.950 . S
H1895 C1900 0.949 . S
H1896 C1902 0.950 . S
H1897 C1903 0.950 . S
H1898 C1904 0.949 . S
C1899 H1894 0.950 . S
C1899 C1901 1.327 . S
C1899 C1905 1.429 . S
C1900 C1892 1.574 . S
C1900 H1895 0.949 . S
C1900 C1906 1.368 . S
C1901 C1885 1.349 . S
C1901 H1893 0.950 . S
C1901 C1899 1.327 . S
C1902 C1890 1.349 . S
C1902 H1896 0.950 . S
C1902 C1903 1.327 . S
C1903 H1897 0.950 . S
C1903 C1902 1.327 . S
C1903 C1907 1.429 . S
C1904 C1887 1.574 . S
C1904 H1898 0.949 . S
C1904 C1908 1.368 . S
C1905 C1886 1.429 . S
C1905 C1899 1.429 . S
C1905 C1906 1.523 . S
C1906 C1887 1.368 . S
C1906 C1900 1.368 . S
C1906 C1905 1.523 . S
C1907 C1891 1.429 . S
C1907 C1903 1.429 . S
C1907 C1908 1.523 . S
C1908 C1892 1.368 . S
C1908 C1904 1.368 . S
C1908 C1907 1.523 . S
H1909 C1884 0.950 . S
H1910 C1886 0.950 . S
H1911 C1887 0.949 . S
H1912 C1889 0.950 . S
H1913 C1891 0.950 . S
C1914 C1915 1.349 . S
C1914 C1916 1.327 . S
C1914 H1939 0.950 . S
C1915 C1914 1.349 . S
C1915 C1931 1.349 . S
C1916 C1914 1.327 . S
C1916 C1935 1.429 . S
C1916 H1940 0.950 . S
C1917 C1934 1.574 . S
C1917 C1936 1.368 . S
C1917 H1941 0.949 . S
H1918 C1922 0.949 . S
C1919 C1920 1.349 . S
C1919 C1921 1.327 . S
C1919 H1942 0.950 . S
C1920 C1919 1.349 . S
C1920 C1932 1.349 . S
C1921 C1919 1.327 . S
C1921 C1937 1.429 . S
C1921 H1943 0.950 . S
C1922 H1918 0.949 . S
C1922 C1930 1.574 . S
C1922 C1938 1.368 . S
H1923 C1931 0.950 . S
H1924 C1929 0.950 . S
H1925 C1930 0.949 . S
H1926 C1932 0.950 . S
H1927 C1933 0.950 . S
H1928 C1934 0.949 . S
C1929 H1924 0.950 . S
C1929 C1931 1.327 . S
C1929 C1935 1.429 . S
C1930 C1922 1.574 . S
C1930 H1925 0.949 . S
C1930 C1936 1.368 . S
C1931 C1915 1.349 . S
C1931 H1923 0.950 . S
C1931 C1929 1.327 . S
C1932 C1920 1.349 . S
C1932 H1926 0.950 . S
C1932 C1933 1.327 . S
C1933 H1927 0.950 . S
C1933 C1932 1.327 . S
C1933 C1937 1.429 . S
C1934 C1917 1.574 . S
C1934 H1928 0.949 . S
C1934 C1938 1.368 . S
C1935 C1916 1.429 . S
C1935 C1929 1.429 . S
C1935 C1936 1.523 . S
C1936 C1917 1.368 . S
C1936 C1930 1.368 . S
C1936 C1935 1.523 . S
C1937 C1921 1.429 . S
C1937 C1933 1.429 . S
C1937 C1938 1.523 . S
C1938 C1922 1.368 . S
C1938 C1934 1.368 . S
C1938 C1937 1.523 . S
H1939 C1914 0.950 . S
H1940 C1916 0.950 . S
H1941 C1917 0.949 . S
H1942 C1919 0.950 . S
H1943 C1921 0.950 . S
C595 N112 1.129 . S
C600 N13 1.129 . S
C625 N145 1.129 . S
C630 N46 1.129 . S
C655 N79 1.129 . S
C660 N178 1.129 . S
C685 C51 2.258 . S
C690 C183 2.258 . S
C715 C117 2.258 . S
C720 C84 2.258 . S
C745 C150 2.258 . S
C750 C18 2.258 . S
C775 N211 1.129 . S
C780 N310 1.129 . S
C805 N343 1.129 . S
C810 N244 1.129 . S
C835 N277 1.129 . S
C840 N376 1.129 . S
C865 C381 2.258 . S
C870 C249 2.258 . S
C895 C315 2.258 . S
C900 C282 2.258 . S
C925 C348 2.258 . S
C930 C216 2.258 . S
C955 N508 1.129 . S
C960 N409 1.129 . S
C985 N442 1.129 . S
C990 N541 1.129 . S
C1015 N574 1.129 . S
C1020 N475 1.129 . S
C1045 C447 2.258 . S
C1050 C579 2.258 . S
C1075 C513 2.258 . S
C1080 C480 2.258 . S
C1105 C414 2.258 . S
C1110 C546 2.258 . S
C1135 C582 1.383 . S
C1140 C21 1.383 . S
C1165 C54 1.383 . S
C1170 C516 1.383 . S
C1195 C549 1.383 . S
C1200 C87 1.383 . S
C1225 C252 1.383 . S
C1230 C120 1.383 . S
C1255 C153 1.383 . S
C1260 C285 1.383 . S
C1285 C186 1.383 . S
C1290 C219 1.383 . S
C1315 C450 1.383 . S
C1320 C318 1.383 . S
C1345 C483 1.383 . S
C1350 C351 1.383 . S
C1375 C384 1.383 . S
C1380 C417 1.383 . S
C1405 C7 1.864 . S
C1410 C106 1.864 . S
C1435 C139 1.864 . S
C1440 C40 1.864 . S
C1465 C73 1.864 . S
C1470 C172 1.864 . S
C1495 N167 0.691 . S
C1500 N35 0.691 . S
C1525 N68 0.691 . S
C1530 N101 0.691 . S
C1555 N134 0.691 . S
C1560 N2 0.691 . S
C1585 C205 1.865 . S
C1590 C304 1.865 1_556 S
C1615 C337 1.864 1_556 S
C1620 C238 1.864 . S
C1645 C370 1.865 1_556 S
C1650 C271 1.865 . S
C1675 N365 0.691 . S
C1680 N233 0.691 . S
C1705 N299 0.691 . S
C1710 N266 0.691 . S
C1735 N332 0.691 . S
C1740 N200 0.691 . S
C1765 C502 1.865 . S
C1770 C403 1.865 1_554 S
C1795 C535 1.865 . S
C1800 C436 1.865 1_554 S
C1825 C568 1.864 . S
C1830 C469 1.864 1_554 S
C1855 N563 0.691 . S
C1860 N431 0.691 . S
C1885 N497 0.691 . S
C1890 N464 0.691 . S
C1915 N530 0.691 . S
C1920 N398 0.691 . S
