# Generated by pormake.
# Topology cag, (4)-cn, num edge types: 1
# Building blocks:
#     Node 0, Type 0, BuildingBlock: ICAMEG_clean_sbu_1, # of connection points: 4
#     Node 1, Type 0, BuildingBlock: ICAMEG_clean_sbu_1, # of connection points: 4
#     Node 2, Type 0, BuildingBlock: ICAMEG_clean_sbu_1, # of connection points: 4
#     Node 3, Type 0, BuildingBlock: ICAMEG_clean_sbu_1, # of connection points: 4
#     Node 4, Type 0, BuildingBlock: ICAMEG_clean_sbu_1, # of connection points: 4
#     Node 5, Type 0, BuildingBlock: ICAMEG_clean_sbu_1, # of connection points: 4
#     Node 6, Type 0, BuildingBlock: ICAMEG_clean_sbu_1, # of connection points: 4
#     Node 7, Type 0, BuildingBlock: ICAMEG_clean_sbu_1, # of connection points: 4
#     Node 8, Type 0, BuildingBlock: ICAMEG_clean_sbu_1, # of connection points: 4
#     Node 9, Type 0, BuildingBlock: ICAMEG_clean_sbu_1, # of connection points: 4
#     Node 10, Type 0, BuildingBlock: ICAMEG_clean_sbu_1, # of connection points: 4
#     Node 11, Type 0, BuildingBlock: ICAMEG_clean_sbu_1, # of connection points: 4
#     Node 12, Type 0, BuildingBlock: ICAMEG_clean_sbu_1, # of connection points: 4
#     Node 13, Type 0, BuildingBlock: ICAMEG_clean_sbu_1, # of connection points: 4
#     Node 14, Type 0, BuildingBlock: ICAMEG_clean_sbu_1, # of connection points: 4
#     Node 15, Type 0, BuildingBlock: ICAMEG_clean_sbu_1, # of connection points: 4
#     Edge 16, Type (0, 0), BuildingBlock: MIFKUJ_clean_linker_0, # of connection points: 2
#     Edge 17, Type (0, 0), BuildingBlock: MIFKUJ_clean_linker_0, # of connection points: 2
#     Edge 18, Type (0, 0), BuildingBlock: MIFKUJ_clean_linker_0, # of connection points: 2
#     Edge 19, Type (0, 0), BuildingBlock: MIFKUJ_clean_linker_0, # of connection points: 2
#     Edge 20, Type (0, 0), BuildingBlock: MIFKUJ_clean_linker_0, # of connection points: 2
#     Edge 21, Type (0, 0), BuildingBlock: MIFKUJ_clean_linker_0, # of connection points: 2
#     Edge 22, Type (0, 0), BuildingBlock: MIFKUJ_clean_linker_0, # of connection points: 2
#     Edge 23, Type (0, 0), BuildingBlock: MIFKUJ_clean_linker_0, # of connection points: 2
#     Edge 24, Type (0, 0), BuildingBlock: MIFKUJ_clean_linker_0, # of connection points: 2
#     Edge 25, Type (0, 0), BuildingBlock: MIFKUJ_clean_linker_0, # of connection points: 2
#     Edge 26, Type (0, 0), BuildingBlock: MIFKUJ_clean_linker_0, # of connection points: 2
#     Edge 27, Type (0, 0), BuildingBlock: MIFKUJ_clean_linker_0, # of connection points: 2
#     Edge 28, Type (0, 0), BuildingBlock: MIFKUJ_clean_linker_0, # of connection points: 2
#     Edge 29, Type (0, 0), BuildingBlock: MIFKUJ_clean_linker_0, # of connection points: 2
#     Edge 30, Type (0, 0), BuildingBlock: MIFKUJ_clean_linker_0, # of connection points: 2
#     Edge 31, Type (0, 0), BuildingBlock: MIFKUJ_clean_linker_0, # of connection points: 2
#     Edge 32, Type (0, 0), BuildingBlock: MIFKUJ_clean_linker_0, # of connection points: 2
#     Edge 33, Type (0, 0), BuildingBlock: MIFKUJ_clean_linker_0, # of connection points: 2
#     Edge 34, Type (0, 0), BuildingBlock: MIFKUJ_clean_linker_0, # of connection points: 2
#     Edge 35, Type (0, 0), BuildingBlock: MIFKUJ_clean_linker_0, # of connection points: 2
#     Edge 36, Type (0, 0), BuildingBlock: MIFKUJ_clean_linker_0, # of connection points: 2
#     Edge 37, Type (0, 0), BuildingBlock: MIFKUJ_clean_linker_0, # of connection points: 2
#     Edge 38, Type (0, 0), BuildingBlock: MIFKUJ_clean_linker_0, # of connection points: 2
#     Edge 39, Type (0, 0), BuildingBlock: MIFKUJ_clean_linker_0, # of connection points: 2
#     Edge 40, Type (0, 0), BuildingBlock: MIFKUJ_clean_linker_0, # of connection points: 2
#     Edge 41, Type (0, 0), BuildingBlock: MIFKUJ_clean_linker_0, # of connection points: 2
#     Edge 42, Type (0, 0), BuildingBlock: MIFKUJ_clean_linker_0, # of connection points: 2
#     Edge 43, Type (0, 0), BuildingBlock: MIFKUJ_clean_linker_0, # of connection points: 2
#     Edge 44, Type (0, 0), BuildingBlock: MIFKUJ_clean_linker_0, # of connection points: 2
#     Edge 45, Type (0, 0), BuildingBlock: MIFKUJ_clean_linker_0, # of connection points: 2
#     Edge 46, Type (0, 0), BuildingBlock: MIFKUJ_clean_linker_0, # of connection points: 2
#     Edge 47, Type (0, 0), BuildingBlock: MIFKUJ_clean_linker_0, # of connection points: 2
# Relax obj value: 0.157
# Max RMSD: 0.213
# Mean RMSD: 0.208
data_MOF--net-cag--node1-ICAMEG_clean_sbu_1--edge1-MIFKUJ_clean_linker_0
_symmetry_space_group_name_H-M    P1
_symmetry_Int_Tables_number       1
_symmetry_cell_setting            triclinic
loop_
_symmetry_equiv_pos_as_xyz
'x, y, z'
_cell_length_a     57.49388
_cell_length_b     66.665361
_cell_length_c     56.475418
_cell_angle_alpha  90.098077
_cell_angle_beta   90.140783
_cell_angle_gamma 89.949416
loop_
_atom_site_label
_atom_site_type_symbol
_atom_site_fract_x
_atom_site_fract_y
_atom_site_fract_z
_atom_type_partial_charge
Co0 Co 0.35029 0.14125 0.07128 0.0
Co1 Co 0.35774 0.11677 0.12491 0.0
O2 O 0.34315 0.13801 0.10534 0.0
C3 C 0.34523 0.1844 0.08914 0.0
O4 O 0.34233 0.17893 0.11124 0.0
C5 C 0.30802 0.11971 0.14367 0.0
O6 O 0.30189 0.13274 0.12743 0.0
O7 O 0.34792 0.09564 0.10176 0.0
O8 O 0.35187 0.11151 0.06706 0.0
H9 H 0.40742 0.05564 0.13755 0.0
H10 H 0.30786 0.16037 0.09189 0.0
O11 O 0.34893 0.17138 0.07306 0.0
H12 H 0.2793 0.11848 0.02611 0.0
H13 H 0.34235 0.17151 0.98988 0.0
H14 H 0.38385 0.12175 0.03881 0.0
H15 H 0.32109 0.11986 0.03549 0.0
H16 H 0.33266 0.16742 0.03208 0.0
O17 O 0.3284 0.11215 0.14371 0.0
H18 H 0.38907 0.08261 0.11423 0.0
H19 H 0.35714 0.10581 0.1763 0.0
H20 H 0.39389 0.12522 0.99659 0.0
H21 H 0.26607 0.15988 0.08277 0.0
H22 H 0.37308 0.15025 0.97183 0.0
H23 H 0.25143 0.13876 0.0497 0.0
O24 O 0.38432 0.14236 0.07837 0.0
H25 H 0.3469 0.17747 0.17721 0.0
H26 H 0.40215 0.12581 0.15015 0.0
H27 H 0.41511 0.15131 0.17884 0.0
H28 H 0.38732 0.17729 0.1928 0.0
H29 H 0.33492 0.15209 0.14808 0.0
H30 H 0.37499 0.07898 0.20021 0.0
H31 H 0.40042 0.0537 0.18087 0.0
O32 O 0.38794 0.12018 0.10791 0.0
C33 C 0.34897 0.09561 0.07918 0.0
C34 C 0.39642 0.0666 0.14619 0.0
C35 C 0.37819 0.07968 0.18136 0.0
N36 N 0.37213 0.09585 0.14387 0.0
C37 C 0.38602 0.08194 0.13309 0.0
C38 C 0.36807 0.09481 0.16769 0.0
C39 C 0.39247 0.06551 0.17049 0.0
C40 C 0.30183 0.15133 0.07731 0.0
N41 N 0.31712 0.14025 0.0642 0.0
C42 C 0.27803 0.15101 0.07232 0.0
C43 C 0.26982 0.13914 0.05379 0.0
C44 C 0.28544 0.12774 0.04058 0.0
C45 C 0.30912 0.12847 0.04609 0.0
C46 C 0.35151 0.16053 1.00048 0.0
C47 C 0.37461 0.13259 0.02812 0.0
C48 C 0.34616 0.15818 0.02442 0.0
N49 N 0.35758 0.14425 0.0379 0.0
C50 C 0.38042 0.13453 1.00424 0.0
C51 C 0.36875 0.14859 0.99036 0.0
C52 C 0.39667 0.13151 0.09211 0.0
C53 C 0.35915 0.16617 0.17137 0.0
C54 C 0.39 0.13716 0.15586 0.0
C55 C 0.39742 0.15153 0.17224 0.0
C56 C 0.38183 0.16608 0.18007 0.0
N57 N 0.36764 0.13719 0.14752 0.0
C58 C 0.35237 0.15159 0.15495 0.0
Co59 Co 0.1633 0.87122 0.57283 0.0
Co60 Co 0.15785 0.89719 0.62571 0.0
O61 O 0.17147 0.87526 0.60654 0.0
C62 C 0.16832 0.82862 0.59224 0.0
O63 O 0.17232 0.83471 0.61396 0.0
C64 C 0.20774 0.89334 0.64401 0.0
O65 O 0.21334 0.88011 0.62777 0.0
O66 O 0.16773 0.91751 0.60164 0.0
O67 O 0.162 0.90084 0.56762 0.0
H68 H 0.11005 0.95957 0.63741 0.0
H69 H 0.2062 0.85219 0.59278 0.0
O70 O 0.16424 0.84118 0.57577 0.0
H71 H 0.23291 0.89206 0.52478 0.0
H72 H 0.16812 0.83826 0.49254 0.0
H73 H 0.12914 0.8902 0.54046 0.0
H74 H 0.19149 0.89146 0.53561 0.0
H75 H 0.17927 0.84361 0.53425 0.0
O76 O 0.1877 0.90154 0.64388 0.0
H77 H 0.12724 0.93173 0.61457 0.0
H78 H 0.15993 0.9094 0.67675 0.0
H79 H 0.11773 0.88552 0.4987 0.0
H80 H 0.24764 0.85201 0.58231 0.0
H81 H 0.13726 0.85938 0.47446 0.0
H82 H 0.26134 0.87208 0.54808 0.0
O83 O 0.12954 0.87069 0.58083 0.0
H84 H 0.16802 0.83698 0.67873 0.0
H85 H 0.11423 0.89022 0.65303 0.0
H86 H 0.10128 0.86564 0.68262 0.0
H87 H 0.12834 0.83882 0.69585 0.0
H88 H 0.18003 0.86159 0.6489 0.0
H89 H 0.1433 0.9371 0.70017 0.0
H90 H 0.11806 0.96239 0.68053 0.0
O91 O 0.12709 0.89393 0.60944 0.0
C92 C 0.16589 0.91698 0.57909 0.0
C93 C 0.12098 0.94862 0.64618 0.0
C94 C 0.13967 0.93604 0.68139 0.0
N95 N 0.1445 0.91888 0.64429 0.0
C96 C 0.13073 0.9328 0.63335 0.0
C97 C 0.14913 0.92042 0.668 0.0
C98 C 0.1255 0.95021 0.67037 0.0
C99 C 0.21181 0.86078 0.57773 0.0
N100 N 0.19621 0.87169 0.56477 0.0
C101 C 0.23542 0.86072 0.57195 0.0
C102 C 0.2431 0.87201 0.55278 0.0
C103 C 0.22717 0.88323 0.53973 0.0
C104 C 0.20371 0.88293 0.54605 0.0
C105 C 0.15954 0.84973 0.50292 0.0
C106 C 0.13785 0.87889 0.52998 0.0
C107 C 0.1657 0.85279 0.52658 0.0
N108 N 0.15496 0.86731 0.53978 0.0
C109 C 0.13126 0.87627 0.50636 0.0
C110 C 0.14221 0.86159 0.49278 0.0
C111 C 0.11775 0.88216 0.59436 0.0
C112 C 0.15608 0.84862 0.67317 0.0
C113 C 0.12602 0.87849 0.65839 0.0
C114 C 0.11863 0.86466 0.6753 0.0
C115 C 0.13381 0.84963 0.68273 0.0
N116 N 0.14797 0.87754 0.64916 0.0
C117 C 0.16286 0.86275 0.65632 0.0
Co118 Co 0.35876 0.87019 0.94615 0.0
Co119 Co 0.3619 0.89344 0.89223 0.0
O120 O 0.34779 0.87313 0.91317 0.0
C121 C 0.34572 0.8276 0.93113 0.0
O122 O 0.34191 0.83283 0.90908 0.0
C123 C 0.31129 0.8908 0.87559 0.0
O124 O 0.30559 0.87784 0.89205 0.0
O125 O 0.35361 0.91493 0.91553 0.0
O126 O 0.36555 0.89958 0.94851 0.0
H127 H 0.41202 0.9534 0.87506 0.0
H128 H 0.31152 0.85548 0.93289 0.0
O129 O 0.35252 0.84049 0.94631 0.0
H130 H 0.29874 0.90401 0.99746 0.0
H131 H 0.35722 0.84371 0.0297 0.0
H132 H 0.39944 0.886 0.97263 0.0
H133 H 0.33838 0.89659 0.98351 0.0
H134 H 0.34256 0.84783 0.98893 0.0
O135 O 0.33169 0.89825 0.87496 0.0
H136 H 0.39448 0.92727 0.90018 0.0
H137 H 0.35851 0.9034 0.84066 0.0
H138 H 0.41461 0.88238 0.01325 0.0
H139 H 0.27168 0.86205 0.94669 0.0
H140 H 0.39344 0.86111 0.04212 0.0
H141 H 0.26503 0.88657 0.97914 0.0
O142 O 0.39081 0.86505 0.93443 0.0
H143 H 0.34723 0.83165 0.84271 0.0
H144 H 0.40442 0.88355 0.86435 0.0
H145 H 0.41522 0.85741 0.8356 0.0
H146 H 0.38645 0.83128 0.82439 0.0
H147 H 0.33736 0.85778 0.87166 0.0
H148 H 0.37547 0.92937 0.81501 0.0
H149 H 0.40254 0.95457 0.83215 0.0
O150 O 0.39317 0.88968 0.90767 0.0
C151 C 0.35923 0.91529 0.93741 0.0
C152 C 0.40029 0.94248 0.86738 0.0
C153 C 0.37975 0.92902 0.83368 0.0
N154 N 0.37557 0.91375 0.87193 0.0
C155 C 0.39034 0.92762 0.88151 0.0
C156 C 0.37013 0.91438 0.84834 0.0
C157 C 0.39495 0.94314 0.8433 0.0
C158 C 0.3089 0.86593 0.94722 0.0
N159 N 0.32739 0.87546 0.95746 0.0
C160 C 0.28623 0.8697 0.95488 0.0
C161 C 0.2825 0.88347 0.97307 0.0
C162 C 0.30141 0.89326 0.98335 0.0
C163 C 0.32383 0.88904 0.97528 0.0
C164 C 0.36657 0.85304 0.01729 0.0
C165 C 0.39006 0.87679 0.98509 0.0
C166 C 0.35839 0.8554 0.99416 0.0
N167 N 0.37005 0.86725 0.97841 0.0
C168 C 0.39876 0.87476 1.00807 0.0
C169 C 0.38689 0.86282 0.02425 0.0
C170 C 0.40261 0.87639 0.92083 0.0
C171 C 0.35989 0.84301 0.84734 0.0
C172 C 0.39183 0.87217 0.85981 0.0
C173 C 0.39804 0.85743 0.84339 0.0
C174 C 0.3819 0.84279 0.8371 0.0
N175 N 0.37011 0.87247 0.86962 0.0
C176 C 0.35432 0.858 0.86368 0.0
Co177 Co 0.1546 0.14329 0.44955 0.0
Co178 Co 0.15123 0.1212 0.39505 0.0
O179 O 0.16435 0.14168 0.41633 0.0
C180 C 0.16349 0.18673 0.43516 0.0
O181 O 0.16666 0.18192 0.41287 0.0
C182 C 0.19294 0.1057 0.36966 0.0
O183 O 0.18765 0.08774 0.37751 0.0
O184 O 0.16249 0.09958 0.41702 0.0
O185 O 0.15094 0.11347 0.45112 0.0
H186 H 0.108 0.05768 0.37597 0.0
H187 H 0.19984 0.16037 0.43362 0.0
O188 O 0.15812 0.17336 0.4503 0.0
H189 H 0.2197 0.11401 0.49846 0.0
H190 H 0.15681 0.16868 0.53366 0.0
H191 H 0.11694 0.12395 0.47705 0.0
H192 H 0.17893 0.11879 0.48628 0.0
H193 H 0.17013 0.16628 0.4923 0.0
O194 O 0.18145 0.12091 0.37692 0.0
H195 H 0.12402 0.08397 0.40207 0.0
H196 H 0.15135 0.11473 0.3425 0.0
H197 H 0.1032 0.12576 0.51831 0.0
H198 H 0.24077 0.15631 0.44548 0.0
H199 H 0.12318 0.14826 0.54695 0.0
H200 H 0.25098 0.13295 0.47811 0.0
O201 O 0.12165 0.14622 0.43905 0.0
H202 H 0.15889 0.18496 0.34826 0.0
H203 H 0.10589 0.1303 0.37114 0.0
H204 H 0.09145 0.15747 0.34554 0.0
H205 H 0.11804 0.18506 0.33385 0.0
H206 H 0.17253 0.15762 0.37416 0.0
H207 H 0.1356 0.0888 0.31579 0.0
H208 H 0.11379 0.05998 0.33248 0.0
O209 O 0.12047 0.12165 0.41196 0.0
C210 C 0.15789 0.0984 0.43912 0.0
C211 C 0.11751 0.07014 0.36848 0.0
C212 C 0.13301 0.0876 0.3347 0.0
N213 N 0.13867 0.10085 0.37387 0.0
C214 C 0.12663 0.08507 0.38318 0.0
C215 C 0.14188 0.10224 0.34994 0.0
C216 C 0.12076 0.07144 0.34408 0.0
C217 C 0.20399 0.15042 0.44805 0.0
N218 N 0.18683 0.14012 0.45947 0.0
C219 C 0.22728 0.14807 0.4546 0.0
C220 C 0.23301 0.13494 0.47288 0.0
C221 C 0.21547 0.12432 0.48429 0.0
C222 C 0.19238 0.12707 0.47728 0.0
C223 C 0.14797 0.15881 0.52136 0.0
C224 C 0.1258 0.13371 0.48941 0.0
C225 C 0.15539 0.15743 0.49788 0.0
N226 N 0.14439 0.1449 0.48226 0.0
C227 C 0.11791 0.1347 0.51275 0.0
C228 C 0.12911 0.14734 0.5288 0.0
C229 C 0.11037 0.13418 0.42567 0.0
C230 C 0.14712 0.17304 0.35325 0.0
C231 C 0.11751 0.14235 0.36643 0.0
C232 C 0.10926 0.15765 0.35178 0.0
C233 C 0.1242 0.1731 0.34519 0.0
N234 N 0.14002 0.1424 0.37433 0.0
C235 C 0.15477 0.15748 0.36788 0.0
Co236 Co 0.6991 0.88535 0.90712 0.0
Co237 Co 0.69346 0.86019 0.95938 0.0
O238 O 0.70829 0.86385 0.92861 0.0
C239 C 0.6943 0.86353 0.86129 0.0
O240 O 0.67246 0.8693 0.86049 0.0
C241 C 0.73394 0.85433 0.99176 0.0
O242 O 0.72593 0.86913 1.00479 0.0
O243 O 0.70152 0.8885 0.96816 0.0
O244 O 0.69233 0.90392 0.93411 0.0
H245 H 0.64318 0.88086 0.02784 0.0
H246 H 0.74497 0.86549 0.90189 0.0
O247 O 0.70661 0.86731 0.87958 0.0
H248 H 0.76256 0.93728 0.91304 0.0
H249 H 0.70662 0.92871 0.83441 0.0
H250 H 0.6598 0.91408 0.90535 0.0
H251 H 0.72199 0.9254 0.91239 0.0
H252 H 0.71858 0.90208 0.86215 0.0
O253 O 0.724 0.85002 0.97217 0.0
H254 H 0.6617 0.88469 0.98879 0.0
H255 H 0.69428 0.82781 0.99618 0.0
H256 H 0.64725 0.94088 0.87812 0.0
H257 H 0.78581 0.87676 0.9021 0.0
H258 H 0.67072 0.94834 0.84234 0.0
H259 H 0.79483 0.91289 0.90775 0.0
O260 O 0.66621 0.87566 0.908 0.0
H261 H 0.70993 0.79238 0.92413 0.0
H262 H 0.65052 0.83491 0.96202 0.0
H263 H 0.64022 0.80065 0.94943 0.0
H264 H 0.67009 0.77906 0.93043 0.0
H265 H 0.71936 0.82687 0.93667 0.0
H266 H 0.67611 0.82338 0.03533 0.0
H267 H 0.65034 0.85002 0.0514 0.0
O268 O 0.66261 0.86949 0.94686 0.0
C269 C 0.6971 0.90435 0.9562 0.0
C270 C 0.65437 0.86914 0.02103 0.0
C271 C 0.67285 0.83689 0.02523 0.0
N272 N 0.67908 0.85651 0.99019 0.0
C273 C 0.66492 0.87123 0.99892 0.0
C274 C 0.6831 0.83949 1.00305 0.0
C275 C 0.6584 0.85184 0.03424 0.0
C276 C 0.74873 0.88126 0.90421 0.0
N277 N 0.73107 0.89477 0.90703 0.0
C278 C 0.7719 0.88754 0.90438 0.0
C279 C 0.77695 0.90781 0.90757 0.0
C280 C 0.75886 0.9215 0.91055 0.0
C281 C 0.73591 0.91467 0.91027 0.0
C282 C 0.69624 0.9256 0.84994 0.0
C283 C 0.67012 0.91723 0.88983 0.0
C284 C 0.70291 0.91052 0.8657 0.0
N285 N 0.68988 0.9065 0.88536 0.0
C286 C 0.66292 0.93243 0.87447 0.0
C287 C 0.6761 0.93661 0.8544 0.0
C288 C 0.65381 0.8724 0.92635 0.0
C289 C 0.69677 0.80162 0.93243 0.0
C290 C 0.66354 0.82572 0.95356 0.0
C291 C 0.65764 0.80627 0.94657 0.0
C292 C 0.67441 0.79417 0.93594 0.0
N293 N 0.68553 0.83293 0.95014 0.0
C294 C 0.70202 0.82115 0.93964 0.0
Co295 Co 0.81352 0.12762 0.40549 0.0
Co296 Co 0.8208 0.15192 0.45903 0.0
O297 O 0.80489 0.14855 0.42843 0.0
C298 C 0.81807 0.15057 0.36053 0.0
O299 O 0.83964 0.14418 0.35916 0.0
C300 C 0.76971 0.15986 0.46948 0.0
O301 O 0.76323 0.15332 0.44858 0.0
O302 O 0.81549 0.12303 0.46671 0.0
O303 O 0.82049 0.1081 0.43143 0.0
H304 H 0.87805 0.1323 0.52226 0.0
H305 H 0.76792 0.14797 0.39962 0.0
O306 O 0.80597 0.14663 0.37886 0.0
H307 H 0.74918 0.07644 0.41051 0.0
H308 H 0.80322 0.08563 0.33182 0.0
H309 H 0.85232 0.09857 0.40182 0.0
H310 H 0.7899 0.08787 0.41053 0.0
H311 H 0.79274 0.11225 0.36021 0.0
O312 O 0.79103 0.15931 0.47565 0.0
H313 H 0.85748 0.12898 0.4841 0.0
H314 H 0.81783 0.18128 0.49913 0.0
H315 H 0.8636 0.07206 0.37362 0.0
H316 H 0.72696 0.13713 0.39894 0.0
H317 H 0.83893 0.06543 0.33829 0.0
H318 H 0.71734 0.10114 0.40454 0.0
O319 O 0.84667 0.13675 0.40605 0.0
H320 H 0.79789 0.21974 0.42752 0.0
H321 H 0.86095 0.18012 0.46371 0.0
H322 H 0.86787 0.21554 0.45368 0.0
H323 H 0.83614 0.23567 0.43554 0.0
H324 H 0.79183 0.18426 0.43761 0.0
H325 H 0.83772 0.18498 0.53758 0.0
H326 H 0.86818 0.16045 0.54932 0.0
O327 O 0.85139 0.1453 0.44419 0.0
C328 C 0.81837 0.10741 0.4539 0.0
C329 C 0.86484 0.1431 0.51733 0.0
C330 C 0.84218 0.17265 0.52595 0.0
N331 N 0.83657 0.15497 0.48929 0.0
C332 C 0.85318 0.14134 0.49571 0.0
C333 C 0.8309 0.17042 0.50418 0.0
C334 C 0.85928 0.15889 0.53251 0.0
C335 C 0.76393 0.13225 0.40187 0.0
N336 N 0.78136 0.1186 0.40526 0.0
C337 C 0.74067 0.12622 0.40156 0.0
C338 C 0.73529 0.10603 0.40474 0.0
C339 C 0.75314 0.09218 0.40814 0.0
C340 C 0.77619 0.09877 0.40834 0.0
C341 C 0.81417 0.08848 0.34702 0.0
C342 C 0.84156 0.09588 0.38642 0.0
C343 C 0.80831 0.10351 0.36321 0.0
N344 N 0.82193 0.107 0.38267 0.0
C345 C 0.84803 0.08082 0.37053 0.0
C346 C 0.83419 0.07711 0.35072 0.0
C347 C 0.85951 0.14143 0.42369 0.0
C348 C 0.81185 0.21114 0.43546 0.0
C349 C 0.84712 0.18867 0.45567 0.0
C350 C 0.85111 0.20878 0.45011 0.0
C351 C 0.83331 0.22007 0.43994 0.0
N352 N 0.82596 0.18003 0.45143 0.0
C353 C 0.80848 0.19101 0.44135 0.0
Co354 Co 0.6929 0.12455 0.10559 0.0
Co355 Co 0.688 0.14784 0.05141 0.0
O356 O 0.7026 0.14545 0.08298 0.0
C357 C 0.70544 0.16063 0.13642 0.0
O358 O 0.71014 0.17193 0.11806 0.0
C359 C 0.73882 0.15908 0.04371 0.0
O360 O 0.74477 0.1534 0.0651 0.0
O361 O 0.696 0.11929 0.04431 0.0
O362 O 0.68757 0.10502 0.07913 0.0
H363 H 0.63685 0.12456 0.98452 0.0
H364 H 0.73949 0.14431 0.11092 0.0
O365 O 0.69796 0.14277 0.13366 0.0
H366 H 0.75584 0.07192 0.10654 0.0
H367 H 0.69639 0.08477 0.18137 0.0
H368 H 0.65446 0.09495 0.10607 0.0
H369 H 0.7156 0.08435 0.10454 0.0
H370 H 0.70952 0.11039 0.15297 0.0
O371 O 0.71799 0.15688 0.03641 0.0
H372 H 0.65509 0.12257 0.02401 0.0
H373 H 0.69053 0.17748 0.01177 0.0
H374 H 0.64087 0.06905 0.13388 0.0
H375 H 0.77987 0.13256 0.11351 0.0
H376 H 0.6619 0.06382 0.17186 0.0
H377 H 0.78838 0.09609 0.11122 0.0
O378 O 0.66005 0.13397 0.10335 0.0
H379 H 0.70405 0.21797 0.08057 0.0
H380 H 0.64521 0.17285 0.046 0.0
H381 H 0.63482 0.20793 0.0546 0.0
H382 H 0.66441 0.23085 0.07185 0.0
H383 H 0.71354 0.18273 0.07209 0.0
H384 H 0.67282 0.17996 0.97211 0.0
H385 H 0.64568 0.15341 0.95827 0.0
O386 O 0.65705 0.13943 0.06436 0.0
C387 C 0.69203 0.10387 0.05705 0.0
C388 C 0.6486 0.13624 0.99037 0.0
C389 C 0.66882 0.16731 0.98339 0.0
N390 N 0.67377 0.14993 0.02028 0.0
C391 C 0.65895 0.13522 0.01274 0.0
C392 C 0.67885 0.16579 1.00586 0.0
C393 C 0.65358 0.15242 0.97564 0.0
C394 C 0.74281 0.12845 0.11024 0.0
N395 N 0.72495 0.11511 0.10772 0.0
C396 C 0.76584 0.12186 0.11157 0.0
C397 C 0.77062 0.10141 0.11023 0.0
C398 C 0.75238 0.08786 0.10758 0.0
C399 C 0.72958 0.09501 0.10632 0.0
C400 C 0.6871 0.08689 0.16487 0.0
C401 C 0.66378 0.0927 0.12249 0.0
C402 C 0.69441 0.10142 0.14874 0.0
N403 N 0.68285 0.1041 0.12778 0.0
C404 C 0.65597 0.07804 0.1382 0.0
C405 C 0.66776 0.07513 0.15951 0.0
C406 C 0.64795 0.13689 0.08471 0.0
C407 C 0.69101 0.20815 0.07299 0.0
C408 C 0.65812 0.18259 0.05376 0.0
C409 C 0.65216 0.20251 0.05848 0.0
C410 C 0.66877 0.21536 0.06813 0.0
N411 N 0.68004 0.17562 0.05841 0.0
C412 C 0.69634 0.18814 0.06802 0.0
Co413 Co 0.82135 0.89009 0.60769 0.0
Co414 Co 0.82723 0.8663 0.55416 0.0
O415 O 0.81239 0.86856 0.58553 0.0
C416 C 0.80993 0.8542 0.6389 0.0
O417 O 0.80634 0.84244 0.62062 0.0
C418 C 0.7769 0.85406 0.54622 0.0
O419 O 0.77039 0.86242 0.56617 0.0
O420 O 0.81704 0.89415 0.54648 0.0
O421 O 0.82638 0.90918 0.58072 0.0
H422 H 0.87631 0.89116 0.48682 0.0
H423 H 0.77527 0.86969 0.61374 0.0
O424 O 0.81651 0.87229 0.63604 0.0
H425 H 0.75731 0.94169 0.60705 0.0
H426 H 0.81657 0.93099 0.68272 0.0
H427 H 0.85894 0.9205 0.6079 0.0
H428 H 0.79777 0.92981 0.60464 0.0
H429 H 0.80411 0.90474 0.65462 0.0
O430 O 0.79799 0.85512 0.53947 0.0
H431 H 0.85792 0.89293 0.52616 0.0
H432 H 0.82723 0.83567 0.51541 0.0
H433 H 0.87171 0.94711 0.63534 0.0
H434 H 0.73472 0.88093 0.61681 0.0
H435 H 0.85047 0.95248 0.67307 0.0
H436 H 0.72541 0.9172 0.61341 0.0
O437 O 0.85437 0.88117 0.60601 0.0
H438 H 0.81662 0.79629 0.58551 0.0
H439 H 0.87212 0.84391 0.55034 0.0
H440 H 0.88548 0.81005 0.56124 0.0
H441 H 0.8576 0.7859 0.57887 0.0
H442 H 0.80415 0.83044 0.57477 0.0
H443 H 0.84514 0.83338 0.47589 0.0
H444 H 0.86997 0.86122 0.46138 0.0
O445 O 0.85747 0.87683 0.56689 0.0
C446 C 0.82109 0.90987 0.55876 0.0
C447 C 0.86557 0.87891 0.49296 0.0
C448 C 0.84806 0.84649 0.48682 0.0
N449 N 0.8416 0.86439 0.52316 0.0
C450 C 0.85514 0.87981 0.51525 0.0
C451 C 0.8379 0.84791 0.5092 0.0
C452 C 0.86199 0.86212 0.47869 0.0
C453 C 0.77159 0.88548 0.6126 0.0
N454 N 0.78911 0.89902 0.60929 0.0
C455 C 0.74847 0.89177 0.61417 0.0
C456 C 0.74325 0.91211 0.61221 0.0
C457 C 0.76113 0.92584 0.60862 0.0
C458 C 0.78404 0.91899 0.60716 0.0
C459 C 0.8259 0.92883 0.66629 0.0
C460 C 0.84949 0.92283 0.62419 0.0
C461 C 0.819 0.91393 0.65034 0.0
N462 N 0.83071 0.91114 0.62953 0.0
C463 C 0.85685 0.93789 0.6397 0.0
C464 C 0.84494 0.94088 0.66087 0.0
C465 C 0.86655 0.87908 0.58734 0.0
C466 C 0.82893 0.80666 0.57781 0.0
C467 C 0.85993 0.83361 0.55823 0.0
C468 C 0.86757 0.81439 0.56424 0.0
C469 C 0.85192 0.80085 0.57411 0.0
N470 N 0.83736 0.83926 0.56197 0.0
C471 C 0.82193 0.82603 0.5716 0.0
Co472 Co 0.85367 0.63726 0.07511 0.0
Co473 Co 0.85733 0.61671 0.13017 0.0
O474 O 0.8426 0.63563 0.10805 0.0
C475 C 0.8479 0.6812 0.08695 0.0
O476 O 0.8593 0.67893 0.10695 0.0
C477 C 0.80674 0.61901 0.14652 0.0
O478 O 0.8008 0.63169 0.12981 0.0
O479 O 0.84977 0.59415 0.10802 0.0
O480 O 0.86289 0.60827 0.07482 0.0
H481 H 0.90971 0.55889 0.15068 0.0
H482 H 0.80596 0.65101 0.08633 0.0
O483 O 0.84442 0.66625 0.07336 0.0
H484 H 0.796 0.59746 0.02683 0.0
H485 H 0.85001 0.65925 0.98985 0.0
H486 H 0.89562 0.6226 0.04988 0.0
H487 H 0.83517 0.60747 0.04014 0.0
H488 H 0.83572 0.6563 0.03081 0.0
O489 O 0.82726 0.6118 0.14744 0.0
H490 H 0.89144 0.58376 0.12423 0.0
H491 H 0.85385 0.60831 0.18216 0.0
H492 H 0.91045 0.62505 1.00909 0.0
H493 H 0.76645 0.64162 0.07333 0.0
H494 H 0.8876 0.64349 0.97873 0.0
H495 H 0.76128 0.61462 0.04341 0.0
O496 O 0.88531 0.64448 0.08678 0.0
H497 H 0.84109 0.68134 0.17373 0.0
H498 H 0.89891 0.62827 0.15882 0.0
H499 H 0.9088 0.65613 0.18562 0.0
H500 H 0.8797 0.68287 0.19344 0.0
H501 H 0.83212 0.65348 0.14677 0.0
H502 H 0.87146 0.58351 0.2091 0.0
H503 H 0.89973 0.55865 0.19344 0.0
O504 O 0.88849 0.62081 0.11473 0.0
C505 C 0.85632 0.59298 0.0865 0.0
C506 C 0.89748 0.56969 0.15772 0.0
C507 C 0.87599 0.5835 0.19051 0.0
N508 N 0.87169 0.59756 0.15161 0.0
C509 C 0.88712 0.58385 0.14284 0.0
C510 C 0.86599 0.59745 0.17512 0.0
C511 C 0.89185 0.56955 0.18171 0.0
C512 C 0.80385 0.63931 0.07324 0.0
N513 N 0.82285 0.62979 0.06408 0.0
C514 C 0.78144 0.63403 0.06597 0.0
C515 C 0.77855 0.61887 0.0492 0.0
C516 C 0.79802 0.60923 0.0399 0.0
C517 C 0.82016 0.61492 0.04758 0.0
C518 C 0.86014 0.65119 1.00292 0.0
C519 C 0.88553 0.63061 0.03679 0.0
C520 C 0.85218 0.64953 0.02618 0.0
N521 N 0.8648 0.63928 0.04277 0.0
C522 C 0.89404 0.63197 0.01371 0.0
C523 C 0.88122 0.64233 0.99669 0.0
C524 C 0.8975 0.63389 0.101 0.0
C525 C 0.85384 0.66967 0.17067 0.0
C526 C 0.88613 0.63981 0.16203 0.0
C527 C 0.89184 0.65557 0.17729 0.0
C528 C 0.87552 0.67056 0.18167 0.0
N529 N 0.86468 0.63883 0.15155 0.0
C530 C 0.84875 0.65368 0.15552 0.0
Co531 Co 0.66015 0.37479 0.56704 0.0
Co532 Co 0.65435 0.39326 0.62278 0.0
O533 O 0.66956 0.37504 0.60037 0.0
C534 C 0.66221 0.33014 0.5763 0.0
O535 O 0.64812 0.33174 0.59447 0.0
C536 C 0.69406 0.40988 0.65047 0.0
O537 O 0.68741 0.42786 0.64376 0.0
O538 O 0.6641 0.41669 0.60275 0.0
O539 O 0.65286 0.40414 0.56778 0.0
H540 H 0.60477 0.45234 0.64532 0.0
H541 H 0.70644 0.35953 0.58146 0.0
O542 O 0.66806 0.3456 0.56457 0.0
H543 H 0.72232 0.41218 0.5225 0.0
H544 H 0.66623 0.3546 0.48123 0.0
H545 H 0.62059 0.39224 0.54029 0.0
H546 H 0.68206 0.40377 0.5334 0.0
H547 H 0.67877 0.3558 0.52297 0.0
O548 O 0.68407 0.39442 0.64179 0.0
H549 H 0.62423 0.42906 0.61779 0.0
H550 H 0.65261 0.39658 0.67572 0.0
H551 H 0.60753 0.39158 0.49869 0.0
H552 H 0.74704 0.36742 0.57097 0.0
H553 H 0.63042 0.37266 0.46882 0.0
H554 H 0.75519 0.39397 0.54132 0.0
O555 O 0.62753 0.36859 0.57665 0.0
H556 H 0.66663 0.32671 0.66262 0.0
H557 H 0.60976 0.3801 0.64531 0.0
H558 H 0.5973 0.3503 0.66763 0.0
H559 H 0.62587 0.32336 0.67655 0.0
H560 H 0.67824 0.35664 0.63995 0.0
H561 H 0.6331 0.41931 0.70382 0.0
H562 H 0.60912 0.44752 0.68871 0.0
O563 O 0.62408 0.39184 0.60507 0.0
C564 C 0.65921 0.41884 0.58077 0.0
C565 C 0.61525 0.44015 0.65214 0.0
C566 C 0.63122 0.42165 0.68498 0.0
N567 N 0.63959 0.41148 0.64509 0.0
C568 C 0.62636 0.42694 0.63663 0.0
C569 C 0.64218 0.4088 0.66896 0.0
C570 C 0.61771 0.43744 0.67648 0.0
C571 C 0.70985 0.37107 0.5685 0.0
N572 N 0.69187 0.38118 0.55808 0.0
C573 C 0.73288 0.37549 0.56266 0.0
C574 C 0.73744 0.3904 0.54604 0.0
C575 C 0.71902 0.40065 0.5355 0.0
C576 C 0.69623 0.39585 0.5418 0.0
C577 C 0.65611 0.36291 0.49407 0.0
C578 C 0.63069 0.38402 0.52741 0.0
C579 C 0.66308 0.36358 0.51777 0.0
N580 N 0.65047 0.37413 0.53408 0.0
C581 C 0.62319 0.38368 0.50387 0.0
C582 C 0.63603 0.37305 0.48712 0.0
C583 C 0.61514 0.37932 0.59052 0.0
C584 C 0.65403 0.33837 0.6589 0.0
C585 C 0.62226 0.3684 0.64891 0.0
C586 C 0.61512 0.35158 0.66167 0.0
C587 C 0.63116 0.33648 0.66668 0.0
N588 N 0.64474 0.37018 0.64134 0.0
C589 C 0.66053 0.35539 0.64614 0.0
Co590 Co 0.85631 0.3713 0.94651 0.0
Co591 Co 0.85844 0.39498 0.89282 0.0
O592 O 0.84478 0.37443 0.9137 0.0
C593 C 0.84252 0.3289 0.93131 0.0
O594 O 0.83883 0.33432 0.9093 0.0
C595 C 0.80763 0.39242 0.87692 0.0
O596 O 0.80232 0.37891 0.89289 0.0
O597 O 0.85038 0.41612 0.91657 0.0
O598 O 0.86356 0.40063 0.94897 0.0
H599 H 0.90843 0.45512 0.87631 0.0
H600 H 0.80868 0.35719 0.93389 0.0
O601 O 0.84964 0.34161 0.94657 0.0
H602 H 0.79766 0.40545 0.99908 0.0
H603 H 0.85568 0.34441 0.02988 0.0
H604 H 0.89752 0.38671 0.97253 0.0
H605 H 0.83695 0.39774 0.98436 0.0
H606 H 0.84054 0.34883 0.98935 0.0
O607 O 0.82795 0.40002 0.87621 0.0
H608 H 0.89136 0.42847 0.90097 0.0
H609 H 0.85395 0.40605 0.84158 0.0
H610 H 0.91315 0.38283 0.01293 0.0
H611 H 0.76914 0.36427 0.94825 0.0
H612 H 0.89219 0.36155 0.04194 0.0
H613 H 0.76338 0.3886 0.98108 0.0
O614 O 0.88815 0.36608 0.93421 0.0
H615 H 0.84323 0.33348 0.84293 0.0
H616 H 0.90019 0.38586 0.86342 0.0
H617 H 0.91059 0.36007 0.8341 0.0
H618 H 0.88192 0.33368 0.82347 0.0
H619 H 0.83381 0.35929 0.87243 0.0
H620 H 0.87035 0.43265 0.81641 0.0
H621 H 0.89791 0.45734 0.83371 0.0
O622 O 0.88998 0.39095 0.90765 0.0
C623 C 0.85673 0.41635 0.93822 0.0
C624 C 0.89649 0.44441 0.86855 0.0
C625 C 0.8751 0.43181 0.83494 0.0
N626 N 0.87177 0.41562 0.87276 0.0
C627 C 0.88681 0.42924 0.88242 0.0
C628 C 0.86579 0.41683 0.84933 0.0
C629 C 0.89056 0.44566 0.84466 0.0
C630 C 0.80643 0.36759 0.94833 0.0
N631 N 0.82522 0.37682 0.95839 0.0
C632 C 0.78394 0.37163 0.95633 0.0
C633 C 0.78072 0.38531 0.97472 0.0
C634 C 0.79993 0.39477 0.98482 0.0
C635 C 0.82216 0.39035 0.97636 0.0
C636 C 0.86496 0.35374 0.01741 0.0
C637 C 0.88822 0.3775 0.98505 0.0
C638 C 0.85651 0.35626 0.9944 0.0
N639 N 0.86806 0.3681 0.97857 0.0
C640 C 0.89719 0.37532 1.00791 0.0
C641 C 0.88544 0.36337 0.02417 0.0
C642 C 0.89969 0.37762 0.92059 0.0
C643 C 0.85585 0.34495 0.84731 0.0
C644 C 0.88769 0.37436 0.85916 0.0
C645 C 0.89365 0.35982 0.84241 0.0
C646 C 0.87756 0.34505 0.83644 0.0
N647 N 0.86627 0.37433 0.86965 0.0
C648 C 0.85053 0.35975 0.86399 0.0
Co649 Co 0.65781 0.64748 0.45261 0.0
Co650 Co 0.65363 0.62204 0.39986 0.0
O651 O 0.66602 0.64427 0.4191 0.0
C652 C 0.66203 0.69022 0.43392 0.0
O653 O 0.66612 0.68419 0.41221 0.0
C654 C 0.69543 0.60707 0.37415 0.0
O655 O 0.69129 0.58922 0.38301 0.0
O656 O 0.66662 0.60214 0.42296 0.0
O657 O 0.65789 0.6177 0.45706 0.0
H658 H 0.6132 0.55609 0.38726 0.0
H659 H 0.70032 0.66625 0.43174 0.0
O660 O 0.65771 0.6776 0.45026 0.0
H661 H 0.72801 0.62932 0.5018 0.0
H662 H 0.66061 0.67934 0.53365 0.0
H663 H 0.62468 0.62667 0.48426 0.0
H664 H 0.68657 0.62893 0.49087 0.0
H665 H 0.67203 0.67519 0.4919 0.0
O666 O 0.68332 0.62207 0.38094 0.0
H667 H 0.62883 0.58426 0.41067 0.0
H668 H 0.65252 0.6126 0.34787 0.0
H669 H 0.61308 0.63008 0.52608 0.0
H670 H 0.74176 0.66739 0.44228 0.0
H671 H 0.63107 0.65659 0.55106 0.0
H672 H 0.75595 0.64884 0.47757 0.0
O673 O 0.62412 0.64708 0.44404 0.0
H674 H 0.65645 0.68302 0.34765 0.0
H675 H 0.60717 0.62792 0.37678 0.0
H676 H 0.59066 0.65269 0.34918 0.0
H677 H 0.61534 0.68049 0.33434 0.0
H678 H 0.67222 0.65803 0.37551 0.0
H679 H 0.63692 0.58479 0.32382 0.0
H680 H 0.61719 0.55624 0.34348 0.0
O681 O 0.62346 0.62202 0.41759 0.0
C682 C 0.66397 0.60212 0.44545 0.0
C683 C 0.62183 0.56842 0.37847 0.0
C684 C 0.63518 0.58452 0.34287 0.0
N685 N 0.64168 0.60005 0.38071 0.0
C686 C 0.63076 0.58441 0.39164 0.0
C687 C 0.64396 0.60023 0.3566 0.0
C688 C 0.62407 0.56852 0.35392 0.0
C689 C 0.70612 0.65835 0.44728 0.0
N690 N 0.69074 0.64783 0.46087 0.0
C691 C 0.72974 0.65894 0.45309 0.0
C692 C 0.7377 0.6485 0.47285 0.0
C693 C 0.72204 0.63755 0.48644 0.0
C694 C 0.69855 0.63732 0.48009 0.0
C695 C 0.65268 0.66771 0.52295 0.0
C696 C 0.63272 0.63815 0.49506 0.0
C697 C 0.65898 0.66534 0.49924 0.0
N698 N 0.64913 0.6506 0.48565 0.0
C699 C 0.62602 0.64005 0.51871 0.0
C700 C 0.6361 0.65494 0.53271 0.0
C701 C 0.61318 0.63421 0.4315 0.0
C702 C 0.64549 0.671 0.35401 0.0
C703 C 0.61798 0.64009 0.37071 0.0
C704 C 0.60854 0.65403 0.35494 0.0
C705 C 0.62242 0.66959 0.34658 0.0
N706 N 0.64064 0.64154 0.37792 0.0
C707 C 0.65434 0.65676 0.36977 0.0
Co708 Co 0.19669 0.3903 0.91016 0.0
Co709 Co 0.18849 0.36497 0.96227 0.0
O710 O 0.20449 0.36788 0.93153 0.0
C711 C 0.2088 0.35569 0.87666 0.0
O712 O 0.21188 0.34283 0.89395 0.0
C713 C 0.23795 0.35014 0.97151 0.0
O714 O 0.24534 0.35665 0.95096 0.0
O715 O 0.19875 0.39251 0.97165 0.0
O716 O 0.19076 0.40848 0.93777 0.0
H717 H 0.13714 0.38868 0.02857 0.0
H718 H 0.24247 0.36933 0.90547 0.0
O719 O 0.20241 0.37364 0.88097 0.0
H720 H 0.26169 0.44062 0.91727 0.0
H721 H 0.20561 0.4343 0.83825 0.0
H722 H 0.15929 0.42096 0.90987 0.0
H723 H 0.22089 0.42957 0.91604 0.0
H724 H 0.21632 0.40672 0.86517 0.0
O725 O 0.21695 0.35307 0.97784 0.0
H726 H 0.15706 0.39123 0.9901 0.0
H727 H 0.1865 0.33332 0.99969 0.0
H728 H 0.14812 0.44882 0.88354 0.0
H729 H 0.28344 0.37974 0.90612 0.0
H730 H 0.17136 0.45565 0.84742 0.0
H731 H 0.29337 0.41564 0.91215 0.0
O732 O 0.16346 0.38173 0.91002 0.0
H733 H 0.19874 0.29605 0.92713 0.0
H734 H 0.14331 0.34295 0.96403 0.0
H735 H 0.1297 0.3097 0.95105 0.0
H736 H 0.15754 0.2859 0.93254 0.0
H737 H 0.21147 0.32959 0.93995 0.0
H738 H 0.16706 0.33024 0.03836 0.0
H739 H 0.14208 0.35801 0.053 0.0
O740 O 0.15895 0.3762 0.94877 0.0
C741 C 0.19528 0.4086 0.95989 0.0
C742 C 0.14794 0.37646 0.02237 0.0
C743 C 0.16475 0.34367 0.02787 0.0
N744 N 0.17287 0.36242 0.99257 0.0
C745 C 0.15925 0.3778 1.00057 0.0
C746 C 0.17579 0.34554 1.00599 0.0
C747 C 0.15074 0.35926 0.03607 0.0
C748 C 0.24647 0.38498 0.90776 0.0
N749 N 0.22911 0.39878 0.91052 0.0
C750 C 0.26981 0.3908 0.90827 0.0
C751 C 0.27537 0.41092 0.9117 0.0
C752 C 0.25761 0.42493 0.91459 0.0
C753 C 0.23449 0.41855 0.91398 0.0
C754 C 0.19537 0.4315 0.85395 0.0
C755 C 0.16956 0.42388 0.89426 0.0
C756 C 0.2013 0.41585 0.86923 0.0
N757 N 0.18851 0.41227 0.88917 0.0
C758 C 0.16312 0.43966 0.87938 0.0
C759 C 0.17615 0.44347 0.85911 0.0
C760 C 0.1506 0.3791 0.92812 0.0
C761 C 0.18646 0.30625 0.93525 0.0
C762 C 0.15552 0.3328 0.95585 0.0
C763 C 0.14771 0.31392 0.94862 0.0
C764 C 0.16333 0.30058 0.93825 0.0
N765 N 0.17824 0.3383 0.95287 0.0
C766 C 0.19362 0.32528 0.94267 0.0
Co767 Co 0.31551 0.62796 0.41155 0.0
Co768 Co 0.32421 0.65164 0.4654 0.0
O769 O 0.30847 0.64934 0.43453 0.0
C770 C 0.32305 0.64985 0.36655 0.0
O771 O 0.34362 0.64128 0.36574 0.0
C772 C 0.27387 0.66296 0.47512 0.0
O773 O 0.26723 0.65692 0.45406 0.0
O774 O 0.31673 0.62301 0.47284 0.0
O775 O 0.32029 0.60797 0.43745 0.0
H776 H 0.3793 0.6282 0.52878 0.0
H777 H 0.27212 0.65145 0.40485 0.0
O778 O 0.3103 0.64753 0.38483 0.0
H779 H 0.24644 0.58153 0.41565 0.0
H780 H 0.30267 0.58744 0.33709 0.0
H781 H 0.35158 0.59634 0.40818 0.0
H782 H 0.28811 0.59002 0.41626 0.0
H783 H 0.29392 0.61415 0.36597 0.0
O784 O 0.2949 0.66071 0.48179 0.0
H785 H 0.35891 0.6265 0.49038 0.0
H786 H 0.32308 0.6807 0.50598 0.0
H787 H 0.36093 0.56942 0.37976 0.0
H788 H 0.23027 0.64356 0.40359 0.0
H789 H 0.3364 0.56484 0.34389 0.0
H790 H 0.21716 0.60839 0.40914 0.0
O791 O 0.34943 0.63479 0.41269 0.0
H792 H 0.30717 0.72056 0.43331 0.0
H793 H 0.36609 0.67774 0.47153 0.0
H794 H 0.37593 0.71262 0.46152 0.0
H795 H 0.3463 0.73438 0.44237 0.0
H796 H 0.29824 0.68552 0.44321 0.0
H797 H 0.34279 0.68277 0.54471 0.0
H798 H 0.37125 0.65647 0.55628 0.0
O799 O 0.35436 0.64346 0.45078 0.0
C800 C 0.31833 0.60731 0.45993 0.0
C801 C 0.36697 0.63977 0.52393 0.0
C802 C 0.34644 0.67038 0.53288 0.0
N803 N 0.3399 0.65353 0.49584 0.0
C804 C 0.35542 0.63893 0.50217 0.0
C805 C 0.33524 0.66906 0.51096 0.0
C806 C 0.36242 0.65563 0.53935 0.0
C807 C 0.2666 0.63608 0.40707 0.0
N808 N 0.28262 0.62124 0.41076 0.0
C809 C 0.24285 0.63171 0.40643 0.0
C810 C 0.23551 0.61199 0.40959 0.0
C811 C 0.25192 0.59692 0.41329 0.0
C812 C 0.27552 0.60185 0.41382 0.0
C813 C 0.3135 0.58928 0.35264 0.0
C814 C 0.34082 0.59446 0.39261 0.0
C815 C 0.30863 0.60439 0.36907 0.0
N816 N 0.32226 0.60685 0.38875 0.0
C817 C 0.3462 0.57918 0.37659 0.0
C818 C 0.33242 0.57661 0.35647 0.0
C819 C 0.36239 0.63901 0.43041 0.0
C820 C 0.32023 0.71125 0.4417 0.0
C821 C 0.35319 0.68696 0.46297 0.0
C822 C 0.35882 0.70678 0.45746 0.0
C823 C 0.34218 0.71899 0.44675 0.0
N824 N 0.33158 0.67946 0.45808 0.0
C825 C 0.31523 0.69135 0.44747 0.0
Co826 Co 0.1945 0.62649 0.11399 0.0
Co827 Co 0.18715 0.65001 0.06041 0.0
O828 O 0.20257 0.64811 0.09161 0.0
C829 C 0.2055 0.66249 0.14572 0.0
O830 O 0.20848 0.6747 0.12779 0.0
C831 C 0.23693 0.66387 0.05149 0.0
O832 O 0.24389 0.65807 0.07253 0.0
O833 O 0.19717 0.62206 0.05275 0.0
O834 O 0.18927 0.60716 0.0873 0.0
H835 H 0.1366 0.62407 0.99444 0.0
H836 H 0.23995 0.64792 0.11872 0.0
O837 O 0.19952 0.64431 0.14232 0.0
H838 H 0.26011 0.57635 0.1118 0.0
H839 H 0.20281 0.58549 0.18845 0.0
H840 H 0.15733 0.59568 0.11528 0.0
H841 H 0.21919 0.58718 0.11097 0.0
H842 H 0.2136 0.61203 0.16025 0.0
O843 O 0.21602 0.66089 0.04483 0.0
H844 H 0.15576 0.62302 0.0335 0.0
H845 H 0.18629 0.68004 0.02106 0.0
H846 H 0.14603 0.56886 0.14296 0.0
H847 H 0.28103 0.63777 0.11982 0.0
H848 H 0.16884 0.56362 0.17985 0.0
H849 H 0.29142 0.60172 0.11636 0.0
O850 O 0.1612 0.63486 0.11288 0.0
H851 H 0.19834 0.72016 0.09157 0.0
H852 H 0.14254 0.67274 0.05608 0.0
H853 H 0.12957 0.70685 0.06636 0.0
H854 H 0.1576 0.73091 0.08416 0.0
H855 H 0.21042 0.68582 0.08137 0.0
H856 H 0.16758 0.68163 0.98178 0.0
H857 H 0.14245 0.65354 0.96827 0.0
O858 O 0.15719 0.63978 0.0739 0.0
C859 C 0.1939 0.60638 0.06524 0.0
C860 C 0.14746 0.63643 1.00015 0.0
C861 C 0.16488 0.66872 0.99303 0.0
N862 N 0.17205 0.65148 0.02964 0.0
C863 C 0.15833 0.63594 0.02228 0.0
C864 C 0.17548 0.6677 0.01528 0.0
C865 C 0.15077 0.65296 0.98547 0.0
C866 C 0.24416 0.63222 0.11741 0.0
N867 N 0.227 0.61822 0.11493 0.0
C868 C 0.26755 0.62655 0.11789 0.0
C869 C 0.27337 0.60634 0.11592 0.0
C870 C 0.25583 0.59211 0.11335 0.0
C871 C 0.23264 0.59836 0.1128 0.0
C872 C 0.19273 0.58761 0.17243 0.0
C873 C 0.16741 0.59345 0.13124 0.0
C874 C 0.19872 0.60266 0.1564 0.0
N875 N 0.18618 0.60535 0.13603 0.0
C876 C 0.1609 0.57826 0.14687 0.0
C877 C 0.17369 0.57534 0.16758 0.0
C878 C 0.14859 0.63731 0.09448 0.0
C879 C 0.18597 0.70984 0.08377 0.0
C880 C 0.1548 0.683 0.064 0.0
C881 C 0.14737 0.70236 0.06969 0.0
C882 C 0.16311 0.71585 0.07964 0.0
N883 N 0.17728 0.67719 0.06804 0.0
C884 C 0.19276 0.69035 0.07784 0.0
Co885 Co 0.31925 0.38763 0.60894 0.0
Co886 Co 0.32416 0.36388 0.55515 0.0
O887 O 0.30949 0.36677 0.58638 0.0
C888 C 0.32462 0.36542 0.65412 0.0
O889 O 0.34596 0.37245 0.65502 0.0
C890 C 0.27309 0.35415 0.54701 0.0
O891 O 0.26736 0.36068 0.56811 0.0
O892 O 0.31712 0.3926 0.54792 0.0
O893 O 0.32602 0.40696 0.58271 0.0
H894 H 0.37715 0.38565 0.48944 0.0
H895 H 0.2733 0.36839 0.61632 0.0
O896 O 0.31207 0.36881 0.63588 0.0
H897 H 0.25626 0.44019 0.60454 0.0
H898 H 0.31262 0.43031 0.68257 0.0
H899 H 0.35912 0.41558 0.61146 0.0
H900 H 0.29664 0.42788 0.60389 0.0
H901 H 0.30018 0.40397 0.65454 0.0
O902 O 0.29402 0.35545 0.5398 0.0
H903 H 0.35838 0.38814 0.52853 0.0
H904 H 0.32085 0.33441 0.5152 0.0
H905 H 0.37221 0.44185 0.63918 0.0
H906 H 0.23267 0.38015 0.61762 0.0
H907 H 0.34886 0.44936 0.67506 0.0
H908 H 0.22391 0.41627 0.61157 0.0
O909 O 0.35202 0.37767 0.60747 0.0
H910 H 0.30594 0.29534 0.58741 0.0
H911 H 0.36553 0.33716 0.54909 0.0
H912 H 0.3746 0.30203 0.55885 0.0
H913 H 0.34461 0.28078 0.57802 0.0
H914 H 0.29772 0.33055 0.57757 0.0
H915 H 0.33898 0.3315 0.47584 0.0
H916 H 0.36746 0.35717 0.46277 0.0
O917 O 0.35518 0.3715 0.56861 0.0
C918 C 0.3216 0.40804 0.56058 0.0
C919 C 0.36481 0.37434 0.49495 0.0
C920 C 0.34336 0.34397 0.4873 0.0
N921 N 0.33863 0.36139 0.52424 0.0
C922 C 0.35417 0.37564 0.5171 0.0
C923 C 0.33307 0.34575 0.50959 0.0
C924 C 0.35935 0.35837 0.47999 0.0
C925 C 0.26968 0.38417 0.61389 0.0
N926 N 0.28739 0.39739 0.60992 0.0
C927 C 0.24661 0.39072 0.61455 0.0
C928 C 0.2417 0.41098 0.61112 0.0
C929 C 0.25984 0.4244 0.60713 0.0
C930 C 0.28269 0.4173 0.60661 0.0
C931 C 0.32294 0.42709 0.66706 0.0
C932 C 0.34889 0.41869 0.62707 0.0
C933 C 0.31598 0.41223 0.65109 0.0
N934 N 0.32893 0.4082 0.63135 0.0
C935 C 0.35639 0.43361 0.64269 0.0
C936 C 0.34328 0.43781 0.66281 0.0
C937 C 0.36417 0.3741 0.58906 0.0
C938 C 0.31911 0.3044 0.57892 0.0
C939 C 0.35243 0.32811 0.55753 0.0
C940 C 0.35764 0.30817 0.56296 0.0
C941 C 0.34082 0.29625 0.5737 0.0
N942 N 0.33101 0.33597 0.56247 0.0
C943 C 0.31451 0.32438 0.57318 0.0
H944 H 0.31827 0.21262 0.1116 0.0
H945 H 0.30348 0.24403 0.09468 0.0
H946 H 0.3444 0.23413 0.03186 0.0
H947 H 0.35912 0.20279 0.04854 0.0
H948 H 0.34289 0.27476 0.04526 0.0
H949 H 0.29087 0.21961 0.03104 0.0
H950 H 0.26687 0.19076 0.04307 0.0
H951 H 0.22483 0.22946 0.08625 0.0
H952 H 0.24888 0.25851 0.07479 0.0
H953 H 0.27898 0.33153 0.95941 0.0
H954 H 0.30029 0.30624 0.9822 0.0
H955 H 0.25158 0.31284 0.03967 0.0
H956 H 0.23 0.33775 0.01687 0.0
H957 H 0.25774 0.27472 0.03077 0.0
H958 H 0.30901 0.33068 0.04259 0.0
H959 H 0.33382 0.35899 0.03043 0.0
H960 H 0.37754 0.3187 0.99119 0.0
H961 H 0.35281 0.29018 1.00286 0.0
C962 C 0.32458 0.2174 0.09446 0.0
C963 C 0.33978 0.20515 0.08137 0.0
C964 C 0.31601 0.2353 0.08474 0.0
C965 C 0.32264 0.24133 0.06187 0.0
C966 C 0.33904 0.22981 0.0495 0.0
C967 C 0.34738 0.21185 0.05906 0.0
C968 C 0.31093 0.25848 0.04988 0.0
C969 C 0.3243 0.27475 0.04197 0.0
C970 C 0.28664 0.25854 0.04575 0.0
C971 C 0.27184 0.24119 0.05227 0.0
C972 C 0.27661 0.22194 0.04324 0.0
C973 C 0.263 0.20556 0.04994 0.0
C974 C 0.24438 0.20826 0.06548 0.0
C975 C 0.23929 0.22738 0.07426 0.0
C976 C 0.2529 0.24382 0.06766 0.0
C977 C 0.27301 0.32783 0.97705 0.0
C978 C 0.25272 0.33668 0.98625 0.0
C979 C 0.28525 0.31336 0.99011 0.0
C980 C 0.27766 0.30762 0.01279 0.0
C981 C 0.25778 0.31688 0.02222 0.0
C982 C 0.24548 0.33122 1.00915 0.0
C983 C 0.28962 0.29128 0.02624 0.0
C984 C 0.2763 0.27499 0.03428 0.0
C985 C 0.31396 0.29121 0.03038 0.0
C986 C 0.32893 0.30832 0.02343 0.0
C987 C 0.32382 0.32788 0.03123 0.0
C988 C 0.33789 0.34396 0.02445 0.0
C989 C 0.35722 0.34065 0.01 0.0
C990 C 0.36255 0.32124 1.00236 0.0
C991 C 0.34853 0.30511 1.00907 0.0
H992 H 0.36808 0.35312 1.00477 0.0
H993 H 0.23387 0.19555 0.07067 0.0
H994 H 0.27979 0.67404 0.52138 0.0
H995 H 0.25775 0.69905 0.54363 0.0
H996 H 0.21125 0.70665 0.4843 0.0
H997 H 0.23332 0.68163 0.46179 0.0
H998 H 0.2283 0.74258 0.50099 0.0
H999 H 0.19264 0.68375 0.53407 0.0
H1000 H 0.1923 0.65065 0.55348 0.0
H1001 H 0.22693 0.67557 0.6142 0.0
H1002 H 0.22777 0.70878 0.59501 0.0
H1003 H 0.15133 0.80909 0.55365 0.0
H1004 H 0.16504 0.77747 0.53697 0.0
H1005 H 0.21065 0.7693 0.59693 0.0
H1006 H 0.19654 0.80091 0.61409 0.0
H1007 H 0.19348 0.73313 0.58054 0.0
H1008 H 0.23117 0.79076 0.54848 0.0
H1009 H 0.23221 0.82448 0.53068 0.0
H1010 H 0.19638 0.80234 0.46919 0.0
H1011 H 0.19468 0.76853 0.48686 0.0
C1012 C 0.26466 0.68078 0.51315 0.0
C1013 C 0.25836 0.67581 0.48974 0.0
C1014 C 0.25202 0.69506 0.52596 0.0
C1015 C 0.23279 0.70473 0.51569 0.0
C1016 C 0.22603 0.69939 0.49259 0.0
C1017 C 0.23858 0.68497 0.4798 0.0
C1018 C 0.2207 0.72126 0.52852 0.0
C1019 C 0.22033 0.7404 0.51818 0.0
C1020 C 0.21105 0.71864 0.55138 0.0
C1021 C 0.21044 0.69872 0.56301 0.0
C1022 C 0.20034 0.68214 0.55149 0.0
C1023 C 0.20003 0.66337 0.56246 0.0
C1024 C 0.20963 0.661 0.58504 0.0
C1025 C 0.21951 0.67742 0.59671 0.0
C1026 C 0.21989 0.69623 0.5858 0.0
C1027 C 0.16387 0.80035 0.56361 0.0
C1028 C 0.17303 0.8076 0.58509 0.0
C1029 C 0.17175 0.78228 0.55399 0.0
C1030 C 0.18928 0.77124 0.56541 0.0
C1031 C 0.1972 0.77763 0.58775 0.0
C1032 C 0.18909 0.79568 0.59756 0.0
C1033 C 0.20082 0.7543 0.55283 0.0
C1034 C 0.20129 0.73521 0.56326 0.0
C1035 C 0.21091 0.75699 0.53017 0.0
C1036 C 0.21264 0.77713 0.51908 0.0
C1037 C 0.22342 0.79309 0.5312 0.0
C1038 C 0.22412 0.81222 0.52114 0.0
C1039 C 0.21437 0.81554 0.49882 0.0
C1040 C 0.20394 0.79972 0.48648 0.0
C1041 C 0.20311 0.78057 0.49651 0.0
H1042 H 0.21489 0.83038 0.49108 0.0
H1043 H 0.20938 0.64645 0.59351 0.0
H1044 H 0.31712 0.79987 0.90973 0.0
H1045 H 0.3016 0.76904 0.9273 0.0
H1046 H 0.3427 0.77926 0.99013 0.0
H1047 H 0.35827 0.80993 0.97277 0.0
H1048 H 0.34158 0.73922 0.97803 0.0
H1049 H 0.28779 0.79362 0.98918 0.0
H1050 H 0.26281 0.82158 0.97609 0.0
H1051 H 0.22233 0.78094 0.93374 0.0
H1052 H 0.24738 0.75278 0.94623 0.0
H1053 H 0.2774 0.6832 0.06397 0.0
H1054 H 0.29866 0.70819 0.04084 0.0
H1055 H 0.25147 0.69926 0.98227 0.0
H1056 H 0.22996 0.67461 1.00536 0.0
H1057 H 0.25621 0.73771 0.99039 0.0
H1058 H 0.30928 0.68267 0.98126 0.0
H1059 H 0.33467 0.6551 0.9947 0.0
H1060 H 0.3765 0.69695 0.03393 0.0
H1061 H 0.35117 0.72475 0.02097 0.0
C1062 C 0.32319 0.79535 0.92709 0.0
C1063 C 0.33881 0.80746 0.93989 0.0
C1064 C 0.31421 0.77777 0.93717 0.0
C1065 C 0.32078 0.77195 0.96017 0.0
C1066 C 0.33735 0.78343 0.9724 0.0
C1067 C 0.34616 0.80103 0.96245 0.0
C1068 C 0.30926 0.75478 0.97225 0.0
C1069 C 0.32293 0.73891 0.98086 0.0
C1070 C 0.28489 0.75426 0.97573 0.0
C1071 C 0.26963 0.77113 0.96842 0.0
C1072 C 0.27368 0.79067 0.97692 0.0
C1073 C 0.2595 0.80656 0.96963 0.0
C1074 C 0.24103 0.80305 0.95405 0.0
C1075 C 0.23667 0.78364 0.94578 0.0
C1076 C 0.25086 0.76771 0.95295 0.0
C1077 C 0.27179 0.68629 0.04602 0.0
C1078 C 0.25191 0.6769 0.03659 0.0
C1079 C 0.28399 0.7006 0.03277 0.0
C1080 C 0.27676 0.70563 0.0097 0.0
C1081 C 0.25738 0.69576 1.00003 0.0
C1082 C 0.24512 0.68158 0.01327 0.0
C1083 C 0.28848 0.72193 0.99611 0.0
C1084 C 0.27483 0.73779 0.98734 0.0
C1085 C 0.31288 0.72244 0.99258 0.0
C1086 C 0.3282 0.70577 1.00031 0.0
C1087 C 0.32379 0.68598 0.99289 0.0
C1088 C 0.3382 0.67031 1.0004 0.0
C1089 C 0.35716 0.67426 0.0152 0.0
C1090 C 0.3618 0.6939 0.02248 0.0
C1091 C 0.34744 0.70962 0.01504 0.0
H1092 H 0.36829 0.66211 0.021 0.0
H1093 H 0.23006 0.81536 0.94843 0.0
H1094 H 0.23358 0.33531 0.56247 0.0
H1095 H 0.21093 0.30983 0.5413 0.0
H1096 H 0.25312 0.31854 0.47917 0.0
H1097 H 0.27596 0.34391 0.50022 0.0
H1098 H 0.20498 0.31216 0.46872 0.0
H1099 H 0.26767 0.282 0.51229 0.0
H1100 H 0.29169 0.27574 0.54771 0.0
H1101 H 0.23207 0.2526 0.58425 0.0
H1102 H 0.20762 0.25889 0.54902 0.0
H1103 H 0.18768 0.21651 0.41225 0.0
H1104 H 0.20238 0.24785 0.42934 0.0
H1105 H 0.16822 0.23417 0.49529 0.0
H1106 H 0.15386 0.2028 0.47852 0.0
H1107 H 0.21166 0.24406 0.50341 0.0
H1108 H 0.14929 0.27241 0.45755 0.0
H1109 H 0.12634 0.27878 0.42139 0.0
H1110 H 0.18601 0.30528 0.3883 0.0
H1111 H 0.20942 0.29883 0.42416 0.0
C1112 C 0.23771 0.33217 0.54413 0.0
C1113 C 0.25669 0.34157 0.5331 0.0
C1114 C 0.2248 0.31753 0.53208 0.0
C1115 C 0.23049 0.31215 0.50872 0.0
C1116 C 0.24842 0.32245 0.49716 0.0
C1117 C 0.2615 0.3369 0.50927 0.0
C1118 C 0.21924 0.29457 0.49718 0.0
C1119 C 0.20653 0.29723 0.47616 0.0
C1120 C 0.22113 0.27513 0.507 0.0
C1121 C 0.23578 0.27112 0.52813 0.0
C1122 C 0.25965 0.27572 0.52794 0.0
C1123 C 0.27334 0.27215 0.54797 0.0
C1124 C 0.26339 0.26388 0.56827 0.0
C1125 C 0.23974 0.25906 0.56853 0.0
C1126 C 0.22596 0.26259 0.54852 0.0
C1127 C 0.18295 0.22035 0.43024 0.0
C1128 C 0.16967 0.20706 0.44402 0.0
C1129 C 0.19135 0.23832 0.44002 0.0
C1130 C 0.1864 0.24346 0.46365 0.0
C1131 C 0.17241 0.23054 0.47708 0.0
C1132 C 0.16414 0.21259 0.46741 0.0
C1133 C 0.19694 0.26156 0.47499 0.0
C1134 C 0.20978 0.25897 0.49598 0.0
C1135 C 0.19522 0.28101 0.46501 0.0
C1136 C 0.18116 0.28496 0.44347 0.0
C1137 C 0.15757 0.27946 0.4425 0.0
C1138 C 0.14447 0.28311 0.42206 0.0
C1139 C 0.15472 0.29238 0.40254 0.0
C1140 C 0.17809 0.29808 0.40343 0.0
C1141 C 0.19128 0.29445 0.42381 0.0
H1142 H 0.14455 0.29519 0.38674 0.0
H1143 H 0.27403 0.26114 0.58378 0.0
H1144 H 0.84808 0.71711 0.1116 0.0
H1145 H 0.83316 0.74973 0.09799 0.0
H1146 H 0.81291 0.72294 0.03153 0.0
H1147 H 0.82759 0.6907 0.04477 0.0
H1148 H 0.83481 0.75836 0.02465 0.0
H1149 H 0.77324 0.73244 0.07449 0.0
H1150 H 0.75676 0.71988 0.11192 0.0
H1151 H 0.77509 0.77502 0.14664 0.0
H1152 H 0.79197 0.7878 0.10945 0.0
H1153 H 0.74954 0.81931 0.97208 0.0
H1154 H 0.77314 0.7934 0.9906 0.0
H1155 H 0.78087 0.83023 0.05299 0.0
H1156 H 0.75655 0.85618 0.03471 0.0
H1157 H 0.77027 0.79344 0.06561 0.0
H1158 H 0.82725 0.82116 0.01412 0.0
H1159 H 0.84327 0.83371 0.9765 0.0
H1160 H 0.83415 0.77562 0.94488 0.0
H1161 H 0.81777 0.76278 0.98221 0.0
C1162 C 0.84047 0.71821 0.09409 0.0
C1163 C 0.83907 0.7012 0.07934 0.0
C1164 C 0.8319 0.73685 0.08635 0.0
C1165 C 0.82186 0.73881 0.0637 0.0
C1166 C 0.82066 0.72189 0.04899 0.0
C1167 C 0.82903 0.70336 0.05671 0.0
C1168 C 0.81228 0.75827 0.05503 0.0
C1169 C 0.82065 0.76601 0.03356 0.0
C1170 C 0.79428 0.76863 0.06698 0.0
C1171 C 0.78412 0.76096 0.08929 0.0
C1172 C 0.77394 0.74181 0.09016 0.0
C1173 C 0.76449 0.73466 0.11131 0.0
C1174 C 0.76495 0.74661 0.13166 0.0
C1175 C 0.7748 0.76576 0.13088 0.0
C1176 C 0.7843 0.77296 0.10977 0.0
C1177 C 0.75653 0.82213 0.98959 0.0
C1178 C 0.75113 0.83994 1.00183 0.0
C1179 C 0.77015 0.80725 1.00018 0.0
C1180 C 0.77911 0.80986 0.02316 0.0
C1181 C 0.77424 0.82783 0.03524 0.0
C1182 C 0.76043 0.84273 0.02469 0.0
C1183 C 0.79239 0.79331 0.03484 0.0
C1184 C 0.78473 0.78608 0.05686 0.0
C1185 C 0.81111 0.78343 0.02341 0.0
C1186 C 0.82115 0.79104 1.00096 0.0
C1187 C 0.82853 0.81109 0.99911 0.0
C1188 C 0.83769 0.81825 0.97784 0.0
C1189 C 0.83969 0.80548 0.95831 0.0
C1190 C 0.83259 0.7855 0.96003 0.0
C1191 C 0.8234 0.77826 0.98125 0.0
H1192 H 0.84678 0.81106 0.94185 0.0
H1193 H 0.75763 0.74106 0.14802 0.0
H1194 H 0.72908 0.1783 0.45607 0.0
H1195 H 0.70749 0.20368 0.4785 0.0
H1196 H 0.75204 0.19367 0.53889 0.0
H1197 H 0.77402 0.16876 0.51643 0.0
H1198 H 0.68328 0.20833 0.51963 0.0
H1199 H 0.76791 0.23768 0.56163 0.0
H1200 H 0.81019 0.23625 0.55418 0.0
H1201 H 0.79746 0.23102 0.4795 0.0
H1202 H 0.75518 0.23259 0.48647 0.0
H1203 H 0.65358 0.29241 0.59473 0.0
H1204 H 0.66927 0.2602 0.58065 0.0
H1205 H 0.7073 0.29116 0.52605 0.0
H1206 H 0.69235 0.323 0.54014 0.0
H1207 H 0.73424 0.26446 0.54504 0.0
H1208 H 0.6556 0.26548 0.51494 0.0
H1209 H 0.61287 0.26739 0.5181 0.0
H1210 H 0.6126 0.2147 0.56172 0.0
H1211 H 0.65539 0.21263 0.55905 0.0
C1212 C 0.73391 0.18115 0.47431 0.0
C1213 C 0.75348 0.17173 0.48435 0.0
C1214 C 0.72153 0.19566 0.48714 0.0
C1215 C 0.72842 0.2009 0.51023 0.0
C1216 C 0.74665 0.19018 0.52096 0.0
C1217 C 0.75919 0.1759 0.50809 0.0
C1218 C 0.71854 0.21902 0.52197 0.0
C1219 C 0.69441 0.22054 0.52537 0.0
C1220 C 0.73298 0.23516 0.5291 0.0
C1221 C 0.7584 0.23507 0.52462 0.0
C1222 C 0.77416 0.23635 0.54362 0.0
C1223 C 0.79812 0.23546 0.53947 0.0
C1224 C 0.8065 0.23343 0.51638 0.0
C1225 C 0.79096 0.23247 0.49737 0.0
C1226 C 0.767 0.23336 0.50141 0.0
C1227 C 0.66534 0.29231 0.57978 0.0
C1228 C 0.67158 0.31036 0.56856 0.0
C1229 C 0.67423 0.27388 0.57167 0.0
C1230 C 0.6894 0.27318 0.55214 0.0
C1231 C 0.69573 0.29122 0.54117 0.0
C1232 C 0.687 0.3095 0.54924 0.0
C1233 C 0.69887 0.2539 0.54277 0.0
C1234 C 0.72304 0.25215 0.53972 0.0
C1235 C 0.68437 0.23784 0.53545 0.0
C1236 C 0.65869 0.23904 0.53703 0.0
C1237 C 0.64644 0.2544 0.52536 0.0
C1238 C 0.62221 0.25549 0.52703 0.0
C1239 C 0.61004 0.24121 0.54017 0.0
C1240 C 0.62206 0.22577 0.5516 0.0
C1241 C 0.64629 0.22462 0.55 0.0
H1242 H 0.59128 0.24208 0.54144 0.0
H1243 H 0.82504 0.23266 0.51321 0.0
H1244 H 0.8533 0.31136 0.9736 0.0
H1245 H 0.83873 0.27983 0.98955 0.0
H1246 H 0.80093 0.269 0.92474 0.0
H1247 H 0.81542 0.30077 0.90858 0.0
H1248 H 0.77371 0.26353 0.96424 0.0
H1249 H 0.84871 0.24153 0.93767 0.0
H1250 H 0.89141 0.24287 0.93408 0.0
H1251 H 0.89838 0.23635 1.0094 0.0
H1252 H 0.85569 0.23525 0.01348 0.0
H1253 H 0.73544 0.16789 0.99667 0.0
H1254 H 0.75664 0.19359 0.97488 0.0
H1255 H 0.79828 0.206 0.03681 0.0
H1256 H 0.77742 0.17988 0.05864 0.0
H1257 H 0.82402 0.20969 0.99695 0.0
H1258 H 0.75046 0.234 0.02459 0.0
H1259 H 0.70793 0.23239 0.02976 0.0
H1260 H 0.69837 0.23548 0.95443 0.0
H1261 H 0.74091 0.23679 0.94878 0.0
C1262 C 0.84209 0.30221 0.96256 0.0
C1263 C 0.83555 0.30865 0.93975 0.0
C1264 C 0.83382 0.2841 0.97172 0.0
C1265 C 0.81882 0.27193 0.95833 0.0
C1266 C 0.81252 0.27812 0.9354 0.0
C1267 C 0.82094 0.29623 0.92612 0.0
C1268 C 0.80897 0.25326 0.9688 0.0
C1269 C 0.78471 0.2516 0.97096 0.0
C1270 C 0.8233 0.23794 0.97831 0.0
C1271 C 0.84898 0.23847 0.97589 0.0
C1272 C 0.85934 0.24053 0.95349 0.0
C1273 C 0.88354 0.24122 0.95136 0.0
C1274 C 0.8976 0.23974 0.9715 0.0
C1275 C 0.88747 0.23751 0.99381 0.0
C1276 C 0.86327 0.23682 0.99604 0.0
C1277 C 0.74941 0.1758 1.00556 0.0
C1278 C 0.75457 0.17195 0.0295 0.0
C1279 C 0.76146 0.19058 0.99309 0.0
C1280 C 0.7787 0.2021 1.00434 0.0
C1281 C 0.78497 0.19739 0.02776 0.0
C1282 C 0.77304 0.18243 0.04023 0.0
C1283 C 0.7888 0.21996 0.99228 0.0
C1284 C 0.81304 0.22154 0.98998 0.0
C1285 C 0.77449 0.23536 0.98289 0.0
C1286 C 0.74888 0.23531 0.98625 0.0
C1287 C 0.73929 0.23426 1.00912 0.0
C1288 C 0.71519 0.23338 0.01214 0.0
C1289 C 0.70046 0.23376 0.99244 0.0
C1290 C 0.70981 0.23515 0.96968 0.0
C1291 C 0.73392 0.23598 0.96655 0.0
H1292 H 0.68181 0.23303 0.99481 0.0
H1293 H 0.91634 0.24028 0.96982 0.0
H1294 H 0.78198 0.84003 0.50108 0.0
H1295 H 0.75804 0.81529 0.48046 0.0
H1296 H 0.71178 0.81266 0.54034 0.0
H1297 H 0.73571 0.83756 0.56118 0.0
H1298 H 0.72624 0.77486 0.52463 0.0
H1299 H 0.69379 0.83484 0.49081 0.0
H1300 H 0.69527 0.86762 0.47072 0.0
H1301 H 0.72695 0.84012 0.41002 0.0
H1302 H 0.72596 0.8072 0.42988 0.0
H1303 H 0.6462 0.70987 0.47299 0.0
H1304 H 0.66103 0.74115 0.48967 0.0
H1305 H 0.70571 0.74863 0.42909 0.0
H1306 H 0.69041 0.7175 0.41193 0.0
H1307 H 0.69061 0.78479 0.44534 0.0
H1308 H 0.72594 0.72613 0.47817 0.0
H1309 H 0.72533 0.69258 0.49647 0.0
H1310 H 0.69106 0.7168 0.55765 0.0
H1311 H 0.69105 0.75046 0.53949 0.0
C1312 C 0.76655 0.83441 0.5098 0.0
C1313 C 0.76077 0.84082 0.53281 0.0
C1314 C 0.75284 0.82027 0.49793 0.0
C1315 C 0.73306 0.81214 0.5088 0.0
C1316 C 0.72696 0.81875 0.5316 0.0
C1317 C 0.74057 0.83308 0.54343 0.0
C1318 C 0.71947 0.79608 0.49672 0.0
C1319 C 0.71808 0.77716 0.50751 0.0
C1320 C 0.70952 0.79883 0.47398 0.0
C1321 C 0.70997 0.81858 0.46192 0.0
C1322 C 0.70123 0.83581 0.47325 0.0
C1323 C 0.70195 0.85441 0.46189 0.0
C1324 C 0.71124 0.85596 0.43913 0.0
C1325 C 0.71977 0.8389 0.42765 0.0
C1326 C 0.71911 0.82026 0.43895 0.0
C1327 C 0.65877 0.71842 0.46291 0.0
C1328 C 0.6673 0.7111 0.44123 0.0
C1329 C 0.66731 0.73627 0.47253 0.0
C1330 C 0.68493 0.747 0.46094 0.0
C1331 C 0.69221 0.74056 0.43843 0.0
C1332 C 0.68343 0.72277 0.42861 0.0
C1333 C 0.69721 0.76366 0.47335 0.0
C1334 C 0.69856 0.78258 0.46258 0.0
C1335 C 0.70749 0.76085 0.49596 0.0
C1336 C 0.70833 0.7408 0.50738 0.0
C1337 C 0.71821 0.7243 0.4955 0.0
C1338 C 0.71796 0.70526 0.50583 0.0
C1339 C 0.70814 0.70257 0.5282 0.0
C1340 C 0.69865 0.71892 0.54032 0.0
C1341 C 0.69878 0.73799 0.53002 0.0
H1342 H 0.70791 0.6878 0.53615 0.0
H1343 H 0.71179 0.87038 0.43036 0.0
H1344 H 0.35385 0.05693 0.09601 0.0
H1345 H 0.35453 0.02576 0.07264 0.0
H1346 H 0.34154 0.05955 1.009 0.0
H1347 H 0.3417 0.09051 0.03171 0.0
H1348 H 0.31403 0.02289 0.01391 0.0
H1349 H 0.39339 0.04764 0.01788 0.0
H1350 H 0.42841 0.059 0.0393 0.0
H1351 H 0.43284 1.00217 0.07472 0.0
H1352 H 0.39757 0.9906 0.05377 0.0
H1353 H 0.34358 0.95272 0.92338 0.0
H1354 H 0.34115 0.98324 0.94768 0.0
H1355 H 0.3708 0.95132 1.00689 0.0
H1356 H 0.37382 0.92126 0.98289 0.0
H1357 H 0.38906 0.98677 1.00548 0.0
H1358 H 0.3119 0.96072 1.00238 0.0
H1359 H 0.27602 0.94826 0.98348 0.0
H1360 H 0.26588 1.00535 0.94987 0.0
H1361 H 0.30196 0.01806 0.96827 0.0
C1362 C 0.35089 0.0577 0.07709 0.0
C1363 C 0.34754 0.07633 0.06586 0.0
C1364 C 0.35131 0.03988 0.06376 0.0
C1365 C 0.34799 0.04037 0.03908 0.0
C1366 C 0.34394 0.05881 0.02801 0.0
C1367 C 0.34401 0.07656 0.04115 0.0
C1368 C 0.35003 0.02194 0.02437 0.0
C1369 C 0.33045 0.01504 0.01189 0.0
C1370 C 0.37133 0.0115 0.02214 0.0
C1371 C 0.3927 0.01834 0.03447 0.0
C1372 C 0.40171 0.03763 0.03039 0.0
C1373 C 0.42163 0.0441 0.04241 0.0
C1374 C 0.4328 0.03134 0.05842 0.0
C1375 C 0.42413 0.01205 0.06236 0.0
C1376 C 0.40419 1.00553 0.0504 0.0
C1377 C 0.34973 0.95227 0.94152 0.0
C1378 C 0.35871 0.93441 0.95112 0.0
C1379 C 0.34821 0.9697 0.95546 0.0
C1380 C 0.3555 0.96956 0.9793 0.0
C1381 C 0.36502 0.9519 0.98863 0.0
C1382 C 0.36663 0.9346 0.97478 0.0
C1383 C 0.35301 0.98759 0.99482 0.0
C1384 C 0.37255 0.99448 1.00747 0.0
C1385 C 0.33154 0.99781 0.99751 0.0
C1386 C 0.30978 0.99027 0.9865 0.0
C1387 C 0.30212 0.97058 0.99081 0.0
C1388 C 0.28173 0.96347 0.98021 0.0
C1389 C 0.2687 0.97599 0.96544 0.0
C1390 C 0.27602 0.99566 0.96129 0.0
C1391 C 0.29644 1.00282 0.9718 0.0
H1392 H 0.25291 0.97047 0.95725 0.0
H1393 H 0.44822 0.03637 0.06772 0.0
H1394 H 0.16604 0.95627 0.5949 0.0
H1395 H 0.16653 0.98686 0.57065 0.0
H1396 H 0.17021 0.95092 0.50728 0.0
H1397 H 0.16915 0.92057 0.53097 0.0
H1398 H 0.2006 0.98443 0.50651 0.0
H1399 H 0.12022 0.96841 0.52194 0.0
H1400 H 0.08692 0.96081 0.54777 0.0
H1401 H 0.09439 0.01803 0.58199 0.0
H1402 H 0.12806 0.02582 0.55659 0.0
H1403 H 0.16933 0.0606 0.42189 0.0
H1404 H 0.17198 0.02919 0.44456 0.0
H1405 H 0.15406 0.06124 0.5084 0.0
H1406 H 0.15044 0.09197 0.48613 0.0
H1407 H 0.13125 0.02869 0.50824 0.0
H1408 H 0.21139 0.04533 0.49422 0.0
H1409 H 0.2458 0.05326 0.47 0.0
H1410 H 0.24028 0.9962 0.43505 0.0
H1411 H 0.20562 0.98804 0.45886 0.0
C1412 C 0.16719 0.95488 0.57583 0.0
C1413 C 0.16769 0.93584 0.56502 0.0
C1414 C 0.16744 0.97237 0.56198 0.0
C1415 C 0.16845 0.97116 0.53712 0.0
C1416 C 0.16962 0.95224 0.52639 0.0
C1417 C 0.169 0.93484 0.5401 0.0
C1418 C 0.16694 0.98944 0.52205 0.0
C1419 C 0.18539 0.99406 0.50673 0.0
C1420 C 0.14723 1.00213 0.52251 0.0
C1421 C 0.1268 0.99761 0.53755 0.0
C1422 C 0.11487 0.97931 0.5351 0.0
C1423 C 0.09592 0.97497 0.54965 0.0
C1424 C 0.08857 0.98891 0.56656 0.0
C1425 C 0.10013 0.00724 0.56891 0.0
C1426 C 0.11915 0.01162 0.55444 0.0
C1427 C 0.16596 0.0609 0.44074 0.0
C1428 C 0.15985 0.07897 0.45207 0.0
C1429 C 0.1676 0.04295 0.45375 0.0
C1430 C 0.16346 0.04279 0.47836 0.0
C1431 C 0.1573 0.06081 0.48951 0.0
C1432 C 0.1554 0.07853 0.47662 0.0
C1433 C 0.16514 0.02406 0.49282 0.0
C1434 C 0.14659 0.01921 0.50799 0.0
C1435 C 0.18491 0.01134 0.4924 0.0
C1436 C 0.20577 0.01617 0.47813 0.0
C1437 C 0.21741 0.03454 0.48124 0.0
C1438 C 0.23698 0.03907 0.46761 0.0
C1439 C 0.24518 0.02527 0.45095 0.0
C1440 C 0.23388 1.00689 0.44794 0.0
C1441 C 0.21428 1.0023 0.4615 0.0
H1442 H 0.26034 0.0288 0.44042 0.0
H1443 H 0.07388 0.98555 0.5778 0.0
H1444 H 0.70337 0.91367 1.00358 0.0
H1445 H 0.70327 0.94725 0.02171 0.0
H1446 H 0.69078 0.97377 0.95328 0.0
H1447 H 0.69051 0.94076 0.9352 0.0
H1448 H 0.72556 0.99339 0.97844 0.0
H1449 H 0.64714 0.96874 0.9908 0.0
H1450 H 0.61843 0.94443 1.00577 0.0
H1451 H 0.64346 0.95346 0.07668 0.0
H1452 H 0.67257 0.97762 0.06207 0.0
H1453 H 0.69494 0.09333 0.00981 0.0
H1454 H 0.69568 0.05942 0.99302 0.0
H1455 H 0.6918 0.03441 0.06334 0.0
H1456 H 0.68928 0.06784 0.0799 0.0
H1457 H 0.66653 0.0132 0.03793 0.0
H1458 H 0.74452 0.03731 0.02772 0.0
H1459 H 0.7751 0.06054 0.01427 0.0
H1460 H 0.75398 0.05153 0.94205 0.0
H1461 H 0.72307 0.02842 0.9551 0.0
C1462 C 0.70063 0.92666 0.99242 0.0
C1463 C 0.6971 0.92439 0.96788 0.0
C1464 C 0.70055 0.94583 1.00279 0.0
C1465 C 0.69706 0.96303 0.9888 0.0
C1466 C 0.69368 0.96077 0.96439 0.0
C1467 C 0.69351 0.94175 0.9541 0.0
C1468 C 0.69649 0.9835 0.99931 0.0
C1469 C 0.71258 0.9978 0.99136 0.0
C1470 C 0.6799 0.98912 0.01652 0.0
C1471 C 0.66218 0.97482 0.02532 0.0
C1472 C 0.64663 0.96543 0.00956 0.0
C1473 C 0.63027 0.9517 0.01798 0.0
C1474 C 0.62917 0.94736 0.04215 0.0
C1475 C 0.64436 0.9568 0.05796 0.0
C1476 C 0.66078 0.97053 0.04963 0.0
C1477 C 0.69424 0.08059 0.02166 0.0
C1478 C 0.6925 0.08346 0.04628 0.0
C1479 C 0.69483 0.06115 0.01206 0.0
C1480 C 0.69435 0.04417 0.0269 0.0
C1481 C 0.6923 0.04711 0.05141 0.0
C1482 C 0.69113 0.0664 0.06092 0.0
C1483 C 0.69574 0.02332 0.01718 0.0
C1484 C 0.67971 0.0089 0.02518 0.0
C1485 C 0.7127 0.01749 1.00032 0.0
C1486 C 0.73134 0.03129 0.99241 0.0
C1487 C 0.74631 0.04038 1.00899 0.0
C1488 C 0.76371 0.05351 1.00143 0.0
C1489 C 0.76644 0.05755 0.97733 0.0
C1490 C 0.75182 0.04841 0.96072 0.0
C1491 C 0.73437 0.03528 0.96818 0.0
H1492 H 0.77992 0.06772 0.97151 0.0
H1493 H 0.6165 0.93671 0.04864 0.0
H1494 H 0.81892 0.098 0.50147 0.0
H1495 H 0.81952 0.06442 0.51927 0.0
H1496 H 0.81967 0.03769 0.44974 0.0
H1497 H 0.81978 0.07084 0.43184 0.0
H1498 H 0.78642 0.02059 0.48164 0.0
H1499 H 0.86812 0.03627 0.47687 0.0
H1500 H 0.9028 0.05727 0.48338 0.0
H1501 H 0.89136 0.05552 0.55847 0.0
H1502 H 0.85655 0.03443 0.55235 0.0
H1503 H 0.81367 0.91925 0.51174 0.0
H1504 H 0.81333 0.95269 0.49373 0.0
H1505 H 0.82673 0.97937 0.56204 0.0
H1506 H 0.82779 0.94631 0.57994 0.0
H1507 H 0.85272 0.99688 0.53056 0.0
H1508 H 0.77182 0.97977 0.53573 0.0
H1509 H 0.73697 0.95894 0.52919 0.0
H1510 H 0.74565 0.96414 0.45396 0.0
H1511 H 0.78078 0.98478 0.46005 0.0
C1512 C 0.81908 0.08499 0.48996 0.0
C1513 C 0.81903 0.08724 0.46518 0.0
C1514 C 0.81944 0.06582 0.50017 0.0
C1515 C 0.8195 0.04858 0.48579 0.0
C1516 C 0.81942 0.05078 0.46114 0.0
C1517 C 0.81946 0.06984 0.45096 0.0
C1518 C 0.81987 0.02817 0.4963 0.0
C1519 C 0.80099 0.0153 0.49216 0.0
C1520 C 0.83869 0.02143 0.51033 0.0
C1521 C 0.85963 0.03397 0.51414 0.0
C1522 C 0.87291 0.04049 0.49476 0.0
C1523 C 0.89261 0.05238 0.49838 0.0
C1524 C 0.8992 0.05786 0.52133 0.0
C1525 C 0.88619 0.05131 0.54071 0.0
C1526 C 0.86652 0.03934 0.53717 0.0
C1527 C 0.81649 0.93224 0.52292 0.0
C1528 C 0.82055 0.92998 0.54736 0.0
C1529 C 0.81622 0.95138 0.51262 0.0
C1530 C 0.81973 0.96864 0.52657 0.0
C1531 C 0.82397 0.96636 0.55087 0.0
C1532 C 0.82441 0.94733 0.56111 0.0
C1533 C 0.81915 0.98914 0.51604 0.0
C1534 C 0.83804 1.00209 0.52013 0.0
C1535 C 0.80023 0.99597 0.50207 0.0
C1536 C 0.77906 0.98365 0.49835 0.0
C1537 C 0.7664 0.97635 0.51779 0.0
C1538 C 0.74658 0.96459 0.51417 0.0
C1539 C 0.73914 0.96017 0.49117 0.0
C1540 C 0.75146 0.96755 0.47176 0.0
C1541 C 0.77132 0.97929 0.47529 0.0
H1542 H 0.72379 0.95107 0.4884 0.0
H1543 H 0.91444 0.06711 0.52409 0.0
H1544 H 0.82987 0.45012 0.93147 0.0
H1545 H 0.82795 0.47987 0.9571 0.0
H1546 H 0.88221 0.45518 1.00128 0.0
H1547 H 0.88351 0.42536 0.97646 0.0
H1548 H 0.85143 0.46954 0.02855 0.0
H1549 H 0.89092 0.49459 0.95989 0.0
H1550 H 0.89611 0.50172 0.91739 0.0
H1551 H 0.83445 0.53812 0.91761 0.0
H1552 H 0.82871 0.53096 0.96007 0.0
H1553 H 0.88656 0.58148 0.05237 0.0
H1554 H 0.8855 0.55127 0.0281 0.0
H1555 H 0.8252 0.5307 0.06643 0.0
H1556 H 0.82692 0.56077 0.0916 0.0
H1557 H 0.85654 0.53899 0.99781 0.0
H1558 H 0.82089 0.4798 0.06306 0.0
H1559 H 0.82158 0.4723 0.10584 0.0
H1560 H 0.88631 0.50382 0.11309 0.0
H1561 H 0.88616 0.51127 0.07032 0.0
C1562 C 0.84152 0.45119 0.94652 0.0
C1563 C 0.85683 0.43538 0.9519 0.0
C1564 C 0.84042 0.46819 0.9612 0.0
C1565 C 0.855 0.4699 0.9812 0.0
C1566 C 0.8706 0.45425 0.98618 0.0
C1567 C 0.87142 0.43721 0.97183 0.0
C1568 C 0.85414 0.48778 0.99718 0.0
C1569 C 0.85248 0.48473 0.02177 0.0
C1570 C 0.85579 0.50766 0.98856 0.0
C1571 C 0.85925 0.51205 0.96307 0.0
C1572 C 0.87838 0.50399 0.95083 0.0
C1573 C 0.88143 0.50805 0.92676 0.0
C1574 C 0.86558 0.52031 0.91479 0.0
C1575 C 0.84669 0.52859 0.9269 0.0
C1576 C 0.84353 0.52454 0.95096 0.0
C1577 C 0.87328 0.57037 0.0559 0.0
C1578 C 0.8569 0.57343 0.074 0.0
C1579 C 0.87257 0.55314 0.04186 0.0
C1580 C 0.85527 0.53858 0.04528 0.0
C1581 C 0.83899 0.54148 0.0636 0.0
C1582 C 0.83998 0.55864 0.07803 0.0
C1583 C 0.85426 0.52074 0.02922 0.0
C1584 C 0.85537 0.52381 1.0046 0.0
C1585 C 0.85296 0.50084 0.03787 0.0
C1586 C 0.85335 0.49629 0.06356 0.0
C1587 C 0.83529 0.48507 0.07378 0.0
C1588 C 0.83559 0.48084 0.09802 0.0
C1589 C 0.85393 0.48765 0.11219 0.0
C1590 C 0.87207 0.49863 0.10212 0.0
C1591 C 0.87187 0.50288 0.07789 0.0
H1592 H 0.85411 0.48437 0.13095 0.0
H1593 H 0.86798 0.52344 0.89616 0.0
H1594 H 0.64911 0.42749 0.53474 0.0
H1595 H 0.65288 0.45909 0.51408 0.0
H1596 H 0.67481 0.48796 0.57869 0.0
H1597 H 0.67162 0.45576 0.5999 0.0
H1598 H 0.63887 0.50907 0.54981 0.0
H1599 H 0.71475 0.47963 0.54201 0.0
H1600 H 0.74261 0.45257 0.53293 0.0
H1601 H 0.71761 0.45022 0.46128 0.0
H1602 H 0.68931 0.47704 0.47003 0.0
H1603 H 0.66847 0.59837 0.49331 0.0
H1604 H 0.67065 0.56812 0.51677 0.0
H1605 H 0.66626 0.53224 0.4533 0.0
H1606 H 0.66552 0.56292 0.42922 0.0
H1607 H 0.69485 0.51496 0.48339 0.0
H1608 H 0.61799 0.54163 0.49006 0.0
H1609 H 0.58863 0.5679 0.49735 0.0
H1610 H 0.61271 0.57406 0.56903 0.0
H1611 H 0.64246 0.54801 0.56206 0.0
C1612 C 0.65488 0.4404 0.5448 0.0
C1613 C 0.66037 0.43887 0.5691 0.0
C1614 C 0.657 0.45854 0.53281 0.0
C1615 C 0.6644 0.47581 0.54472 0.0
C1616 C 0.66919 0.47471 0.56914 0.0
C1617 C 0.66737 0.45633 0.58122 0.0
C1618 C 0.66699 0.49481 0.53121 0.0
C1619 C 0.65143 0.51057 0.53562 0.0
C1620 C 0.68274 0.49639 0.51205 0.0
C1621 C 0.69979 0.48027 0.50673 0.0
C1622 C 0.71505 0.47324 0.52437 0.0
C1623 C 0.73097 0.45797 0.51927 0.0
C1624 C 0.7319 0.4497 0.49654 0.0
C1625 C 0.71689 0.45666 0.47887 0.0
C1626 C 0.70092 0.47191 0.48389 0.0
C1627 C 0.6684 0.58415 0.4841 0.0
C1628 C 0.66685 0.58322 0.45922 0.0
C1629 C 0.66936 0.56674 0.4977 0.0
C1630 C 0.66796 0.5478 0.48698 0.0
C1631 C 0.66719 0.54668 0.46207 0.0
C1632 C 0.66674 0.56423 0.44829 0.0
C1633 C 0.66675 0.52938 0.50196 0.0
C1634 C 0.68243 0.51363 0.49772 0.0
C1635 C 0.65082 0.52766 0.52104 0.0
C1636 C 0.63259 0.54299 0.52547 0.0
C1637 C 0.6171 0.54865 0.50734 0.0
C1638 C 0.60039 0.5635 0.51142 0.0
C1639 C 0.59885 0.57268 0.53362 0.0
C1640 C 0.61394 0.56695 0.55183 0.0
C1641 C 0.63072 0.55213 0.54783 0.0
H1642 H 0.58593 0.5842 0.53673 0.0
H1643 H 0.74424 0.43789 0.49263 0.0
H1644 H 0.19873 0.59661 0.01795 0.0
H1645 H 0.19963 0.56287 1.0004 0.0
H1646 H 0.19219 0.53674 0.06972 0.0
H1647 H 0.19081 0.57001 0.08728 0.0
H1648 H 0.22663 0.51789 0.04228 0.0
H1649 H 0.1465 0.53901 0.03597 0.0
H1650 H 0.11515 0.56218 0.02401 0.0
H1651 H 0.13484 0.55552 0.95112 0.0
H1652 H 0.16654 0.53253 0.9627 0.0
H1653 H 0.19933 0.4172 1.0077 0.0
H1654 H 0.19919 0.45045 0.02644 0.0
H1655 H 0.19248 0.47816 0.95776 0.0
H1656 H 0.19143 0.44543 0.93925 0.0
H1657 H 0.16531 0.49644 0.98577 0.0
H1658 H 0.24545 0.4762 0.99067 0.0
H1659 H 0.27821 0.45413 1.00154 0.0
H1660 H 0.26056 0.46002 0.07506 0.0
H1661 H 0.22748 0.48193 0.06459 0.0
C1662 C 0.19737 0.58369 0.02946 0.0
C1663 C 0.19486 0.58614 0.05408 0.0
C1664 C 0.19787 0.56442 0.01941 0.0
C1665 C 0.19603 0.54729 0.0338 0.0
C1666 C 0.19382 0.54971 0.05831 0.0
C1667 C 0.19302 0.56886 0.06831 0.0
C1668 C 0.19572 0.52678 0.02344 0.0
C1669 C 0.21313 0.5131 0.03006 0.0
C1670 C 0.17832 0.52066 1.00724 0.0
C1671 C 0.15903 0.53421 1.00023 0.0
C1672 C 0.14424 0.5426 0.01741 0.0
C1673 C 0.1264 0.55568 0.0107 0.0
C1674 C 0.12305 0.56036 0.98683 0.0
C1675 C 0.13748 0.5519 0.96961 0.0
C1676 C 0.15538 0.53883 0.97623 0.0
C1677 C 0.19787 0.43039 0.99663 0.0
C1678 C 0.19568 0.4285 0.97191 0.0
C1679 C 0.1979 0.44943 1.00734 0.0
C1680 C 0.19614 0.46695 0.99351 0.0
C1681 C 0.19385 0.46499 0.9689 0.0
C1682 C 0.19346 0.44611 0.95829 0.0
C1683 C 0.19645 0.48741 1.00433 0.0
C1684 C 0.17893 0.50113 0.9979 0.0
C1685 C 0.21394 0.49362 0.02048 0.0
C1686 C 0.23385 0.48052 0.02683 0.0
C1687 C 0.24846 0.47267 1.00914 0.0
C1688 C 0.2671 0.46021 0.01523 0.0
C1689 C 0.27142 0.45563 0.03897 0.0
C1690 C 0.25716 0.46355 0.05668 0.0
C1691 C 0.23847 0.476 0.05068 0.0
H1692 H 0.28586 0.44598 0.04366 0.0
H1693 H 0.10924 0.57051 0.98166 0.0
H1694 H 0.32063 0.59761 0.50741 0.0
H1695 H 0.32103 0.56391 0.52495 0.0
H1696 H 0.31591 0.53763 0.45536 0.0
H1697 H 0.31607 0.57085 0.43771 0.0
H1698 H 0.28507 0.52037 0.48848 0.0
H1699 H 0.36659 0.53611 0.48029 0.0
H1700 H 0.40171 0.55675 0.48579 0.0
H1701 H 0.39351 0.55365 0.56127 0.0
H1702 H 0.35827 0.53291 0.55616 0.0
H1703 H 0.31323 0.41851 0.51404 0.0
H1704 H 0.31262 0.45234 0.49709 0.0
H1705 H 0.32927 0.47734 0.56555 0.0
H1706 H 0.33056 0.44387 0.58238 0.0
H1707 H 0.35358 0.49577 0.53346 0.0
H1708 H 0.27321 0.47835 0.54213 0.0
H1709 H 0.23811 0.45758 0.53678 0.0
H1710 H 0.24292 0.46454 0.46138 0.0
H1711 H 0.27827 0.48511 0.46626 0.0
C1712 C 0.3195 0.58467 0.49585 0.0
C1713 C 0.3181 0.58708 0.47112 0.0
C1714 C 0.31978 0.56542 0.5059 0.0
C1715 C 0.31843 0.54826 0.49144 0.0
C1716 C 0.31679 0.55064 0.46686 0.0
C1717 C 0.31687 0.56975 0.45681 0.0
C1718 C 0.31916 0.52773 0.50169 0.0
C1719 C 0.30011 0.5149 0.49816 0.0
C1720 C 0.33858 0.52073 0.51466 0.0
C1721 C 0.3597 0.53317 0.51784 0.0
C1722 C 0.37219 0.53997 0.49806 0.0
C1723 C 0.39214 0.55165 0.50111 0.0
C1724 C 0.39978 0.55663 0.52388 0.0
C1725 C 0.38754 0.54982 0.54365 0.0
C1726 C 0.36762 0.53805 0.54068 0.0
C1727 C 0.31681 0.4312 0.52546 0.0
C1728 C 0.32173 0.42835 0.54965 0.0
C1729 C 0.31634 0.45057 0.51578 0.0
C1730 C 0.32057 0.4675 0.53011 0.0
C1731 C 0.32591 0.46461 0.5541 0.0
C1732 C 0.32652 0.44535 0.56373 0.0
C1733 C 0.31942 0.48826 0.52033 0.0
C1734 C 0.33843 0.50118 0.52392 0.0
C1735 C 0.29984 0.49537 0.50755 0.0
C1736 C 0.27852 0.4831 0.50455 0.0
C1737 C 0.26688 0.47532 0.5244 0.0
C1738 C 0.24693 0.46361 0.52145 0.0
C1739 C 0.23832 0.4597 0.49875 0.0
C1740 C 0.24962 0.46755 0.47895 0.0
C1741 C 0.26961 0.47925 0.48179 0.0
H1742 H 0.22287 0.45063 0.49651 0.0
H1743 H 0.41523 0.56569 0.52621 0.0
H1744 H 0.62021 0.12605 0.12235 0.0
H1745 H 0.57753 0.12538 0.12365 0.0
H1746 H 0.57456 0.14718 0.05191 0.0
H1747 H 0.61684 0.14737 0.05012 0.0
H1748 H 0.54362 0.16733 0.08445 0.0
H1749 H 0.56594 0.10059 0.05918 0.0
H1750 H 0.58727 0.06868 0.06326 0.0
H1751 H 0.55334 0.05758 0.12961 0.0
H1752 H 0.53207 0.08961 0.12608 0.0
H1753 H 0.42388 0.15075 0.05895 0.0
H1754 H 0.46644 0.15168 0.05711 0.0
H1755 H 0.47039 0.11493 0.11982 0.0
H1756 H 0.42832 0.113 0.12099 0.0
H1757 H 0.50153 0.10274 0.09201 0.0
H1758 H 0.47965 0.1681 0.1194 0.0
H1759 H 0.45909 0.20057 0.11837 0.0
H1760 H 0.49241 0.21512 0.05265 0.0
H1761 H 0.51294 0.1826 0.05312 0.0
C1762 C 0.61049 0.1308 0.10689 0.0
C1763 C 0.6221 0.13693 0.0862 0.0
C1764 C 0.58611 0.13038 0.10765 0.0
C1765 C 0.5729 0.1363 0.08788 0.0
C1766 C 0.5844 0.1427 0.06741 0.0
C1767 C 0.60867 0.14279 0.06647 0.0
C1768 C 0.54709 0.13535 0.08811 0.0
C1769 C 0.53435 0.15321 0.08589 0.0
C1770 C 0.53507 0.11698 0.09053 0.0
C1771 C 0.54761 0.0976 0.09249 0.0
C1772 C 0.56317 0.09143 0.07473 0.0
C1773 C 0.57523 0.0733 0.07693 0.0
C1774 C 0.57172 0.06114 0.09672 0.0
C1775 C 0.55608 0.06703 0.11431 0.0
C1776 C 0.544 0.08517 0.11221 0.0
C1777 C 0.43383 0.14284 0.07232 0.0
C1778 C 0.42251 0.13206 0.09032 0.0
C1779 C 0.45821 0.14348 0.07134 0.0
C1780 C 0.4718 0.1337 0.08862 0.0
C1781 C 0.46047 0.12267 0.1063 0.0
C1782 C 0.43623 0.12173 0.10704 0.0
C1783 C 0.49776 0.13481 0.08848 0.0
C1784 C 0.51063 0.11694 0.09065 0.0
C1785 C 0.50989 0.15324 0.08647 0.0
C1786 C 0.49764 0.17283 0.08617 0.0
C1787 C 0.48246 0.17817 0.10464 0.0
C1788 C 0.47083 0.19659 0.10417 0.0
C1789 C 0.47439 0.20988 0.08542 0.0
C1790 C 0.48964 0.20479 0.06714 0.0
C1791 C 0.50129 0.18638 0.0675 0.0
H1792 H 0.46537 0.22413 0.08509 0.0
H1793 H 0.58108 0.04711 0.09839 0.0
H1794 H 0.89775 0.87261 0.55167 0.0
H1795 H 0.93999 0.87282 0.55381 0.0
H1796 H 0.93678 0.88791 0.62797 0.0
H1797 H 0.89409 0.88734 0.62621 0.0
H1798 H 0.9689 0.91163 0.59954 0.0
H1799 H 0.94963 0.84254 0.61527 0.0
H1800 H 0.92952 0.81073 0.60649 0.0
H1801 H 0.96526 0.80652 0.54 0.0
H1802 H 0.98528 0.83852 0.54818 0.0
H1803 H 0.08695 0.89896 0.62543 0.0
H1804 H 0.04493 0.89752 0.6248 0.0
H1805 H 0.04703 0.86512 0.5586 0.0
H1806 H 0.08965 0.86499 0.56023 0.0
H1807 H 0.01465 0.85004 0.58303 0.0
H1808 H 0.03247 0.91826 0.56436 0.0
H1809 H 0.05078 0.95143 0.5693 0.0
H1810 H 0.01706 0.9587 0.63652 0.0
H1811 H 0.99863 0.9255 0.63205 0.0
C1812 C 0.90586 0.87582 0.56857 0.0
C1813 C 0.89237 0.87968 0.58889 0.0
C1814 C 0.9301 0.87596 0.5697 0.0
C1815 C 0.94151 0.88018 0.59107 0.0
C1816 C 0.92825 0.88453 0.61131 0.0
C1817 C 0.90388 0.88413 0.61029 0.0
C1818 C 0.96731 0.88005 0.59205 0.0
C1819 C 0.97897 0.89813 0.59633 0.0
C1820 C 0.98033 0.86256 0.5869 0.0
C1821 C 0.96882 0.84302 0.58226 0.0
C1822 C 0.9531 0.8349 0.59871 0.0
C1823 C 0.94172 0.81683 0.59385 0.0
C1824 C 0.94607 0.80663 0.57268 0.0
C1825 C 0.96189 0.81444 0.55638 0.0
C1826 C 0.97327 0.83254 0.56113 0.0
C1827 C 0.07866 0.89126 0.61083 0.0
C1828 C 0.09188 0.88187 0.59302 0.0
C1829 C 0.05441 0.89074 0.6103 0.0
C1830 C 0.04255 0.88165 0.59136 0.0
C1831 C 0.05566 0.8723 0.57343 0.0
C1832 C 0.08007 0.87229 0.57432 0.0
C1833 C 0.01656 0.88172 0.59062 0.0
C1834 C 1.00475 0.86361 0.58631 0.0
C1835 C 1.00335 0.89931 0.59526 0.0
C1836 C 0.01433 0.91932 0.59795 0.0
C1837 C 0.02907 0.92688 0.58026 0.0
C1838 C 0.03946 0.9457 0.58297 0.0
C1839 C 0.03518 0.95713 0.60326 0.0
C1840 C 0.0204 0.94982 0.62083 0.0
C1841 C 0.00993 0.93102 0.61819 0.0
H1842 H 0.04324 0.97169 0.60535 0.0
H1843 H 0.93721 0.79266 0.56893 0.0
H1844 H 0.43089 0.85424 0.95032 0.0
H1845 H 0.47353 0.85282 0.95029 0.0
H1846 H 0.47536 0.89359 0.89118 0.0
H1847 H 0.43307 0.89555 0.89138 0.0
H1848 H 0.50586 0.85937 0.88675 0.0
H1849 H 0.48564 0.91212 0.94217 0.0
H1850 H 0.46504 0.92546 0.97708 0.0
H1851 H 0.49917 0.88216 0.0214 0.0
H1852 H 0.5197 0.86835 0.98667 0.0
H1853 H 0.62633 0.88482 0.88901 0.0
H1854 H 0.58377 0.88545 0.88714 0.0
H1855 H 0.58046 0.8598 0.95718 0.0
H1856 H 0.62251 0.86046 0.95979 0.0
H1857 H 0.54989 0.88621 0.95545 0.0
H1858 H 0.56974 0.83253 0.90256 0.0
H1859 H 0.58926 0.81644 0.86863 0.0
H1860 H 0.55556 0.85742 0.82102 0.0
H1861 H 0.53606 0.87393 0.85471 0.0
C1862 C 0.44034 0.86283 0.93724 0.0
C1863 C 0.42842 0.8749 0.92075 0.0
C1864 C 0.4647 0.862 0.93725 0.0
C1865 C 0.47758 0.87306 0.92067 0.0
C1866 C 0.46576 0.88482 0.90399 0.0
C1867 C 0.4415 0.88591 0.90418 0.0
C1868 C 0.5034 0.87306 0.92117 0.0
C1869 C 0.51557 0.86538 0.90165 0.0
C1870 C 0.51597 0.8805 0.94083 0.0
C1871 C 0.50403 0.88908 0.96179 0.0
C1872 C 0.48863 0.90536 0.95934 0.0
C1873 C 0.47698 0.91301 0.97909 0.0
C1874 C 0.48075 0.90462 1.00143 0.0
C1875 C 0.49625 0.88862 1.00408 0.0
C1876 C 0.5079 0.88088 0.98437 0.0
C1877 C 0.61651 0.87927 0.90397 0.0
C1878 C 0.62799 0.87234 0.92441 0.0
C1879 C 0.59212 0.87951 0.90284 0.0
C1880 C 0.5787 0.87232 0.92187 0.0
C1881 C 0.59023 0.86543 0.94222 0.0
C1882 C 0.61446 0.86563 0.94358 0.0
C1883 C 0.55272 0.87225 0.92104 0.0
C1884 C 0.54039 0.88005 0.9405 0.0
C1885 C 0.54002 0.86453 0.90148 0.0
C1886 C 0.55164 0.85459 0.88118 0.0
C1887 C 0.56662 0.8382 0.88487 0.0
C1888 C 0.57766 0.82899 0.86568 0.0
C1889 C 0.57371 0.83594 0.84269 0.0
C1890 C 0.55864 0.85208 0.83884 0.0
C1891 C 0.54758 0.86135 0.85797 0.0
H1892 H 0.58227 0.8288 0.82786 0.0
H1893 H 0.47169 0.91055 0.0167 0.0
H1894 H 0.08076 0.11145 0.39871 0.0
H1895 H 0.03844 0.11271 0.39743 0.0
H1896 H 0.03844 0.15798 0.452 0.0
H1897 H 0.08108 0.15708 0.45328 0.0
H1898 H 1.0051 0.12693 0.45878 0.0
H1899 H 0.0302 0.1721 0.39729 0.0
H1900 H 0.05271 0.18104 0.36174 0.0
H1901 H 0.01755 0.13519 0.32199 0.0
H1902 H 0.99511 0.12573 0.35744 0.0
H1903 H 0.89093 0.1598 0.45268 0.0
H1904 H 0.93295 0.15887 0.45084 0.0
H1905 H 0.92938 0.12189 0.38819 0.0
H1906 H 0.88669 0.12384 0.38908 0.0
H1907 H 0.96479 0.147 0.38465 0.0
H1908 H 0.9387 0.10212 0.44444 0.0
H1909 H 0.91595 0.09222 0.47944 0.0
H1910 H 0.95326 0.1348 0.52207 0.0
H1911 H 0.97581 0.14541 0.48717 0.0
C1912 C 0.07189 0.12177 0.41046 0.0
C1913 C 0.08448 0.13438 0.42591 0.0
C1914 C 0.04762 0.12243 0.40967 0.0
C1915 C 0.03529 0.13559 0.42441 0.0
C1916 C 0.04765 0.14777 0.4404 0.0
C1917 C 0.07203 0.14727 0.44105 0.0
C1918 C 0.0095 0.13678 0.42283 0.0
C1919 C 0.99627 0.13156 0.4427 0.0
C1920 C 0.998 0.14213 0.40154 0.0
C1921 C 0.01112 0.14809 0.38008 0.0
C1922 C 0.02737 0.16383 0.38101 0.0
C1923 C 0.04011 0.16901 0.36088 0.0
C1924 C 0.03659 0.15867 0.33963 0.0
C1925 C 0.02027 0.14317 0.33846 0.0
C1926 C 0.00753 0.13791 0.35857 0.0
C1927 C 0.89889 0.15174 0.4382 0.0
C1928 C 0.88525 0.14186 0.42106 0.0
C1929 C 0.92309 0.15104 0.43733 0.0
C1930 C 0.93446 0.13982 0.4198 0.0
C1931 C 0.92103 0.13052 0.40204 0.0
C1932 C 0.89661 0.13161 0.40258 0.0
C1933 C 0.96025 0.13742 0.42076 0.0
C1934 C 0.97354 0.14231 0.40076 0.0
C1935 C 0.97183 0.13149 0.44187 0.0
C1936 C 0.95885 0.12467 0.46311 0.0
C1937 C 0.942 0.10944 0.46125 0.0
C1938 C 0.92913 0.1037 0.48108 0.0
C1939 C 0.93317 0.11285 0.50297 0.0
C1940 C 0.95014 0.12773 0.5051 0.0
C1941 C 0.96297 0.13363 0.48529 0.0
H1942 H 0.92314 0.1084 0.51829 0.0
H1943 H 0.04649 0.16268 0.32407 0.0
H1944 H 0.12157 0.62847 0.13347 0.0
H1945 H 0.07887 0.62855 0.13581 0.0
H1946 H 0.07466 0.64618 0.06255 0.0
H1947 H 0.11681 0.64543 0.0597 0.0
H1948 H 0.04548 0.66925 0.09522 0.0
H1949 H 0.06463 0.60114 0.07226 0.0
H1950 H 0.08486 0.56878 0.07722 0.0
H1951 H 0.05238 0.56084 0.14495 0.0
H1952 H 0.03223 0.59333 0.14053 0.0
H1953 H 0.92556 0.65355 0.06901 0.0
H1954 H 0.96813 0.65468 0.06859 0.0
H1955 H 0.97026 0.61974 0.13283 0.0
H1956 H 0.92816 0.61753 0.13255 0.0
H1957 H 1.00128 0.60607 0.10598 0.0
H1958 H 0.98127 0.67281 0.13006 0.0
H1959 H 0.96175 0.70568 0.12732 0.0
H1960 H 0.99603 0.7172 0.06127 0.0
H1961 H 0.01552 0.68426 0.06346 0.0
C1962 C 0.11156 0.63238 0.11787 0.0
C1963 C 0.12278 0.63717 0.09649 0.0
C1964 C 0.08718 0.63244 0.11925 0.0
C1965 C 0.07366 0.63754 0.09938 0.0
C1966 C 0.08478 0.64242 0.07814 0.0
C1967 C 0.10898 0.64198 0.07661 0.0
C1968 C 0.04786 0.63734 0.1003 0.0
C1969 C 0.03573 0.65545 0.09743 0.0
C1970 C 0.03525 0.61939 0.10364 0.0
C1971 C 0.04714 0.59977 0.10619 0.0
C1972 C 0.06197 0.59258 0.0883 0.0
C1973 C 0.07339 0.5742 0.091 0.0
C1974 C 0.06996 0.56279 0.11143 0.0
C1975 C 0.05505 0.56971 0.12916 0.0
C1976 C 0.04361 0.5881 0.12656 0.0
C1977 C 0.93511 0.6462 0.0831 0.0
C1978 C 0.92329 0.63565 0.10096 0.0
C1979 C 0.9595 0.64694 0.08293 0.0
C1980 C 0.97258 0.63756 0.10092 0.0
C1981 C 0.96073 0.62712 0.11874 0.0
C1982 C 0.93649 0.62604 0.11866 0.0
C1983 C 0.99856 0.6381 0.10104 0.0
C1984 C 0.01083 0.61999 0.10399 0.0
C1985 C 0.01129 0.65614 0.09814 0.0
C1986 C 0.99968 0.67599 0.09682 0.0
C1987 C 0.98452 0.6823 0.11487 0.0
C1988 C 0.97348 0.70095 0.11343 0.0
C1989 C 0.9776 0.7135 0.0941 0.0
C1990 C 0.99283 0.70745 0.07621 0.0
C1991 C 1.00389 0.6888 0.07755 0.0
H1992 H 0.96903 0.72793 0.09302 0.0
H1993 H 0.07882 0.54857 0.11349 0.0
H1994 H 0.58409 0.39868 0.61909 0.0
H1995 H 0.54194 0.39631 0.61895 0.0
H1996 H 0.5447 0.35561 0.55966 0.0
H1997 H 0.58742 0.35749 0.55989 0.0
H1998 H 0.51099 0.38881 0.55621 0.0
H1999 H 0.53438 0.33615 0.60979 0.0
H2000 H 0.55644 0.32301 0.6439 0.0
H2001 H 0.52092 0.36393 0.69017 0.0
H2002 H 0.49897 0.37761 0.65625 0.0
H2003 H 0.39463 0.36051 0.55571 0.0
H2004 H 0.43668 0.35997 0.55719 0.0
H2005 H 0.43523 0.38703 0.62662 0.0
H2006 H 0.39252 0.3864 0.62592 0.0
H2007 H 0.46888 0.3608 0.6253 0.0
H2008 H 0.44676 0.41462 0.57478 0.0
H2009 H 0.42579 0.43116 0.54205 0.0
H2010 H 0.45956 0.39249 0.49188 0.0
H2011 H 0.48049 0.3755 0.52435 0.0
C2012 C 0.57593 0.38905 0.60605 0.0
C2013 C 0.58932 0.37803 0.58967 0.0
C2014 C 0.55173 0.38778 0.60602 0.0
C2015 C 0.54021 0.37566 0.58948 0.0
C2016 C 0.55333 0.36499 0.57266 0.0
C2017 C 0.57771 0.36604 0.57286 0.0
C2018 C 0.51445 0.37427 0.58997 0.0
C2019 C 0.50174 0.38236 0.57108 0.0
C2020 C 0.50248 0.36665 0.6099 0.0
C2021 C 0.51515 0.35802 0.63043 0.0
C2022 C 0.53137 0.34244 0.62721 0.0
C2023 C 0.54386 0.33489 0.64651 0.0
C2024 C 0.54012 0.34265 0.66918 0.0
C2025 C 0.52381 0.35794 0.6726 0.0
C2026 C 0.51133 0.36559 0.65334 0.0
C2027 C 0.40306 0.36608 0.57154 0.0
C2028 C 0.39 0.37344 0.59075 0.0
C2029 C 0.42728 0.36599 0.57221 0.0
C2030 C 0.43929 0.37393 0.59173 0.0
C2031 C 0.42641 0.38091 0.61126 0.0
C2032 C 0.40197 0.38059 0.61082 0.0
C2033 C 0.46521 0.37516 0.59132 0.0
C2034 C 0.47802 0.36716 0.6103 0.0
C2035 C 0.47733 0.38329 0.57167 0.0
C2036 C 0.46505 0.39367 0.55203 0.0
C2037 C 0.44962 0.40957 0.55678 0.0
C2038 C 0.43774 0.41903 0.53827 0.0
C2039 C 0.4413 0.41285 0.51491 0.0
C2040 C 0.4568 0.39724 0.50999 0.0
C2041 C 0.4687 0.38771 0.52844 0.0
H2042 H 0.43207 0.42018 0.5006 0.0
H2043 H 0.54983 0.33681 0.68409 0.0
H2044 H 0.11846 0.37196 0.96262 0.0
H2045 H 0.07636 0.37128 0.95908 0.0
H2046 H 0.08136 0.38757 0.88548 0.0
H2047 H 0.12405 0.38778 0.88857 0.0
H2048 H 0.04673 0.41003 0.91609 0.0
H2049 H 0.07013 0.34285 0.89385 0.0
H2050 H 0.09217 0.31157 0.90025 0.0
H2051 H 0.05619 0.30199 0.96579 0.0
H2052 H 0.03425 0.33343 0.96001 0.0
H2053 H 0.92938 0.39522 0.88915 0.0
H2054 H 0.97148 0.39423 0.88867 0.0
H2055 H 0.97148 0.35842 0.95225 0.0
H2056 H 0.92884 0.35806 0.95181 0.0
H2057 H 1.00443 0.34569 0.92576 0.0
H2058 H 0.98267 0.41108 0.95154 0.0
H2059 H 0.96187 0.44343 0.95015 0.0
H2060 H 0.9954 0.45778 0.88447 0.0
H2061 H 0.01615 0.42537 0.88529 0.0
C2062 C 0.11081 0.37527 0.94553 0.0
C2063 C 0.12483 0.37961 0.92574 0.0
C2064 C 0.08664 0.37494 0.94363 0.0
C2065 C 0.07578 0.3792 0.92201 0.0
C2066 C 0.08949 0.38416 0.90232 0.0
C2067 C 0.11386 0.38421 0.9041 0.0
C2068 C 0.05006 0.37812 0.92023 0.0
C2069 C 0.03741 0.39596 0.91771 0.0
C2070 C 0.03803 0.35983 0.92346 0.0
C2071 C 0.05067 0.34058 0.92657 0.0
C2072 C 0.06702 0.33414 0.9097 0.0
C2073 C 0.07949 0.31637 0.91321 0.0
C2074 C 0.07561 0.30482 0.93343 0.0
C2075 C 0.05918 0.31096 0.95014 0.0
C2076 C 0.04671 0.32875 0.94674 0.0
C2077 C 0.93816 0.38679 0.90286 0.0
C2078 C 0.92554 0.37658 0.92043 0.0
C2079 C 0.96242 0.38649 0.90274 0.0
C2080 C 0.97485 0.37669 0.92074 0.0
C2081 C 0.96236 0.36618 0.93817 0.0
C2082 C 0.93795 0.36603 0.93795 0.0
C2083 C 1.0008 0.37767 0.92138 0.0
C2084 C 0.01358 0.35982 0.92388 0.0
C2085 C 0.01299 0.39606 0.91875 0.0
C2086 C 1.0008 0.41571 0.91837 0.0
C2087 C 0.98551 0.42108 0.93673 0.0
C2088 C 0.97373 0.43943 0.93605 0.0
C2089 C 0.97727 0.45262 0.9172 0.0
C2090 C 0.99265 0.44753 0.89904 0.0
C2091 C 1.00444 0.42918 0.89961 0.0
H2092 H 0.96812 0.46681 0.9167 0.0
H2093 H 0.08532 0.29109 0.93614 0.0
H2094 H 0.58425 0.60938 0.40645 0.0
H2095 H 0.54193 0.60952 0.40536 0.0
H2096 H 0.54061 0.65671 0.4576 0.0
H2097 H 0.58329 0.657 0.45859 0.0
H2098 H 0.50827 0.62486 0.46584 0.0
H2099 H 0.53198 0.66892 0.40265 0.0
H2100 H 0.55374 0.67771 0.36656 0.0
H2101 H 0.51979 0.63013 0.32859 0.0
H2102 H 0.49809 0.62084 0.36459 0.0
H2103 H 0.39421 0.65699 0.45917 0.0
H2104 H 0.4361 0.65567 0.45724 0.0
H2105 H 0.43192 0.61756 0.39557 0.0
H2106 H 0.38922 0.62007 0.39642 0.0
H2107 H 0.46734 0.64233 0.39114 0.0
H2108 H 0.44185 0.59907 0.45275 0.0
H2109 H 0.41936 0.59007 0.48823 0.0
H2110 H 0.45686 0.63375 0.52908 0.0
H2111 H 0.47913 0.6435 0.49365 0.0
C2112 C 0.5751 0.61987 0.41774 0.0
C2113 C 0.58733 0.63341 0.43239 0.0
C2114 C 0.55083 0.61989 0.41706 0.0
C2115 C 0.53813 0.63328 0.43115 0.0
C2116 C 0.55013 0.64631 0.44648 0.0
C2117 C 0.57451 0.64647 0.447 0.0
C2118 C 0.51234 0.63384 0.42954 0.0
C2119 C 0.49928 0.6289 0.44961 0.0
C2120 C 0.50068 0.63839 0.40808 0.0
C2121 C 0.51358 0.64407 0.38638 0.0
C2122 C 0.52929 0.66023 0.38666 0.0
C2123 C 0.54158 0.66532 0.36621 0.0
C2124 C 0.53816 0.65447 0.34531 0.0
C2125 C 0.52242 0.63851 0.34481 0.0
C2126 C 0.51012 0.63334 0.36522 0.0
C2127 C 0.40196 0.64859 0.44488 0.0
C2128 C 0.38814 0.63865 0.42795 0.0
C2129 C 0.42612 0.64764 0.44398 0.0
C2130 C 0.4373 0.63601 0.42673 0.0
C2131 C 0.42371 0.6265 0.40923 0.0
C2132 C 0.3993 0.62791 0.40975 0.0
C2133 C 0.4631 0.63364 0.42759 0.0
C2134 C 0.47623 0.63815 0.40736 0.0
C2135 C 0.47486 0.62844 0.44887 0.0
C2136 C 0.46208 0.62211 0.47046 0.0
C2137 C 0.44526 0.60682 0.46927 0.0
C2138 C 0.43252 0.60159 0.48937 0.0
C2139 C 0.43669 0.61129 0.51091 0.0
C2140 C 0.45365 0.62624 0.51238 0.0
C2141 C 0.46633 0.63164 0.49228 0.0
H2142 H 0.42677 0.60723 0.52644 0.0
H2143 H 0.54769 0.65844 0.32949 0.0
H2144 H 0.2735 0.144 0.16113 0.0
H2145 H 0.25388 0.14112 0.1995 0.0
H2146 H 0.2899 0.08555 0.21292 0.0
H2147 H 0.30984 0.08846 0.17483 0.0
H2148 H 0.24141 0.08555 0.22648 0.0
H2149 H 0.31128 0.12461 0.23624 0.0
H2150 H 0.33772 0.15237 0.22607 0.0
H2151 H 0.28459 0.19513 0.24372 0.0
H2152 H 0.25764 0.16759 0.2535 0.0
H2153 H 0.22109 0.07727 0.34922 0.0
H2154 H 0.24131 0.07939 0.31124 0.0
H2155 H 0.21828 0.14061 0.30327 0.0
H2156 H 0.19872 0.13881 0.3415 0.0
H2157 H 0.26024 0.13767 0.28637 0.0
H2158 H 0.19002 0.09997 0.27581 0.0
H2159 H 0.16188 0.07295 0.28391 0.0
H2160 H 0.21343 0.02872 0.26648 0.0
H2161 H 0.24198 0.05548 0.25854 0.0
C2162 C 0.27689 0.13096 0.17202 0.0
C2163 C 0.29326 0.11647 0.1649 0.0
C2164 C 0.26576 0.1294 0.19402 0.0
C2165 C 0.27056 0.1132 0.20918 0.0
C2166 C 0.28593 0.09817 0.20154 0.0
C2167 C 0.29732 0.09988 0.17976 0.0
C2168 C 0.26073 0.11252 0.23355 0.0
C2169 C 0.2457 0.09681 0.23968 0.0
C2170 C 0.26597 0.12743 0.25062 0.0
C2171 C 0.28236 0.14403 0.24537 0.0
C2172 C 0.30517 0.13993 0.23779 0.0
C2173 C 0.32026 0.15562 0.2321 0.0
C2174 C 0.31283 0.1755 0.2342 0.0
C2175 C 0.29031 0.17972 0.24207 0.0
C2176 C 0.27512 0.16407 0.24768 0.0
C2177 C 0.22065 0.0913 0.33959 0.0
C2178 C 0.20813 0.10781 0.34846 0.0
C2179 C 0.23207 0.09245 0.31772 0.0
C2180 C 0.2309 0.11001 0.30397 0.0
C2181 C 0.2194 0.12684 0.31337 0.0
C2182 C 0.2082 0.12577 0.33534 0.0
C2183 C 0.24078 0.11065 0.27948 0.0
C2184 C 0.25587 0.12637 0.27327 0.0
C2185 C 0.23538 0.09584 0.26222 0.0
C2186 C 0.2182 0.07972 0.2668 0.0
C2187 C 0.1954 0.08448 0.27385 0.0
C2188 C 0.17937 0.06921 0.27841 0.0
C2189 C 0.18588 0.04914 0.27579 0.0
C2190 C 0.20842 0.04428 0.26854 0.0
C2191 C 0.22453 0.05949 0.26398 0.0
H2192 H 0.17345 0.03734 0.27933 0.0
H2193 H 0.32452 0.18764 0.22977 0.0
H2194 H 0.27594 0.86665 0.85921 0.0
H2195 H 0.25758 0.86796 0.81997 0.0
H2196 H 0.29468 0.92257 0.80462 0.0
H2197 H 0.31334 0.92117 0.84343 0.0
H2198 H 0.23087 0.89354 0.79351 0.0
H2199 H 0.31602 0.92041 0.74964 0.0
H2200 H 0.35806 0.91996 0.7586 0.0
H2201 H 0.34955 0.86586 0.79879 0.0
H2202 H 0.30757 0.86579 0.78974 0.0
H2203 H 0.20459 0.92263 0.67769 0.0
H2204 H 0.22269 0.92307 0.7168 0.0
H2205 H 0.26097 0.86939 0.69952 0.0
H2206 H 0.24309 0.86899 0.66004 0.0
H2207 H 0.28713 0.89467 0.72691 0.0
H2208 H 0.21109 0.86561 0.72999 0.0
H2209 H 0.16901 0.86482 0.72155 0.0
H2210 H 0.15928 0.91814 0.76312 0.0
H2211 H 0.20139 0.91938 0.7716 0.0
C2212 C 0.27975 0.87919 0.8477 0.0
C2213 C 0.2963 0.89369 0.85438 0.0
C2214 C 0.26927 0.8799 0.82522 0.0
C2215 C 0.27513 0.89512 0.8091 0.0
C2216 C 0.29024 0.91044 0.81652 0.0
C2217 C 0.30083 0.90966 0.8388 0.0
C2218 C 0.26709 0.8942 0.78397 0.0
C2219 C 0.24317 0.89382 0.77899 0.0
C2220 C 0.28312 0.89403 0.7649 0.0
C2221 C 0.30861 0.8932 0.76912 0.0
C2222 C 0.32317 0.9083 0.76016 0.0
C2223 C 0.34698 0.90816 0.76532 0.0
C2224 C 0.35646 0.89292 0.77931 0.0
C2225 C 0.34219 0.87768 0.788 0.0
C2226 C 0.31839 0.87771 0.78283 0.0
C2227 C 0.21718 0.91109 0.68199 0.0
C2228 C 0.22219 0.89565 0.66574 0.0
C2229 C 0.22746 0.91133 0.70445 0.0
C2230 C 0.24281 0.89601 0.71136 0.0
C2231 C 0.24908 0.88131 0.69466 0.0
C2232 C 0.23887 0.88113 0.67205 0.0
C2233 C 0.25088 0.89463 0.73645 0.0
C2234 C 0.27483 0.89444 0.74143 0.0
C2235 C 0.23488 0.89383 0.75552 0.0
C2236 C 0.20942 0.89266 0.75131 0.0
C2237 C 0.19999 0.87719 0.73729 0.0
C2238 C 0.17613 0.87668 0.73247 0.0
C2239 C 0.16149 0.89146 0.74171 0.0
C2240 C 0.17065 0.90671 0.75595 0.0
C2241 C 0.19451 0.90731 0.76081 0.0
H2242 H 0.14304 0.89107 0.73788 0.0
H2243 H 0.37485 0.89292 0.78342 0.0
H2244 H 0.67459 0.84933 0.82014 0.0
H2245 H 0.69433 0.84276 0.78232 0.0
H2246 H 0.76019 0.85747 0.81444 0.0
H2247 H 0.74092 0.86349 0.85226 0.0
H2248 H 0.74053 0.87987 0.76749 0.0
H2249 H 0.76121 0.81605 0.80569 0.0
H2250 H 0.75079 0.7844 0.82554 0.0
H2251 H 0.70887 0.76738 0.76577 0.0
H2252 H 0.71879 0.79911 0.74572 0.0
H2253 H 0.82454 0.86862 0.68145 0.0
H2254 H 0.80518 0.86503 0.71961 0.0
H2255 H 0.75526 0.82468 0.68812 0.0
H2256 H 0.77516 0.82768 0.64991 0.0
H2257 H 0.76324 0.81408 0.73325 0.0
H2258 H 0.743 0.87382 0.69297 0.0
H2259 H 0.75015 0.90504 0.67083 0.0
H2260 H 0.7851 0.93022 0.73121 0.0
H2261 H 0.7786 0.89896 0.75359 0.0
C2262 C 0.69333 0.85077 0.81926 0.0
C2263 C 0.70614 0.85688 0.83928 0.0
C2264 C 0.70455 0.84704 0.79766 0.0
C2265 C 0.72869 0.84965 0.79566 0.0
C2266 C 0.74156 0.85531 0.81568 0.0
C2267 C 0.73048 0.85864 0.83733 0.0
C2268 C 0.74045 0.84788 0.77242 0.0
C2269 C 0.74572 0.86552 0.76008 0.0
C2270 C 0.74631 0.82912 0.76237 0.0
C2271 C 0.74048 0.81005 0.77437 0.0
C2272 C 0.74956 0.80566 0.7969 0.0
C2273 C 0.7438 0.78768 0.80816 0.0
C2274 C 0.72911 0.77391 0.79696 0.0
C2275 C 0.72021 0.77807 0.77444 0.0
C2276 C 0.7259 0.79604 0.76313 0.0
C2277 C 0.80981 0.85856 0.68278 0.0
C2278 C 0.80128 0.84854 0.66265 0.0
C2279 C 0.79865 0.85661 0.70458 0.0
C2280 C 0.77836 0.84502 0.70662 0.0
C2281 C 0.77079 0.83381 0.68696 0.0
C2282 C 0.78222 0.8355 0.66514 0.0
C2283 C 0.76411 0.84616 0.72858 0.0
C2284 C 0.75811 0.82846 0.74058 0.0
C2285 C 0.757 0.86491 0.73807 0.0
C2286 C 0.76045 0.88397 0.72492 0.0
C2287 C 0.75231 0.88598 0.70151 0.0
C2288 C 0.75625 0.90367 0.68891 0.0
C2289 C 0.76805 0.9196 0.69962 0.0
C2290 C 0.77593 0.91786 0.72296 0.0
C2291 C 0.77213 0.90015 0.73561 0.0
H2292 H 0.77107 0.9333 0.68984 0.0
H2293 H 0.72467 0.76 0.8057 0.0
H2294 H 0.77126 0.15343 0.35255 0.0
H2295 H 0.75162 0.16033 0.31507 0.0
H2296 H 0.81769 0.17154 0.28182 0.0
H2297 H 0.83772 0.16421 0.31929 0.0
H2298 H 0.77542 0.19955 0.26971 0.0
H2299 H 0.80223 0.13017 0.27038 0.0
H2300 H 0.80668 0.09652 0.28789 0.0
H2301 H 0.73249 0.09123 0.29384 0.0
H2302 H 0.72763 0.12493 0.27645 0.0
H2303 H 0.74226 0.1847 0.14824 0.0
H2304 H 0.76027 0.18814 0.18733 0.0
H2305 H 0.70495 0.15298 0.21787 0.0
H2306 H 0.68765 0.1487 0.17867 0.0
H2307 H 0.74271 0.13845 0.23207 0.0
H2308 H 0.71433 0.2058 0.22896 0.0
H2309 H 0.70819 0.23952 0.21219 0.0
H2310 H 0.7819 0.24985 0.21246 0.0
H2311 H 0.78851 0.21607 0.22894 0.0
C2312 C 0.78169 0.15778 0.33747 0.0
C2313 C 0.80614 0.15819 0.33896 0.0
C2314 C 0.77038 0.16169 0.31602 0.0
C2315 C 0.7832 0.1664 0.29569 0.0
C2316 C 0.80749 0.16802 0.29736 0.0
C2317 C 0.81889 0.16377 0.31877 0.0
C2318 C 0.77131 0.16758 0.27236 0.0
C2319 C 0.76845 0.18622 0.26124 0.0
C2320 C 0.76171 0.15027 0.26173 0.0
C2321 C 0.76459 0.13012 0.27237 0.0
C2322 C 0.78689 0.1219 0.27564 0.0
C2323 C 0.78947 0.1028 0.28546 0.0
C2324 C 0.76987 0.09176 0.29203 0.0
C2325 C 0.74765 0.0998 0.28876 0.0
C2326 C 0.74497 0.11888 0.27888 0.0
C2327 C 0.73364 0.17816 0.16341 0.0
C2328 C 0.71352 0.16645 0.1604 0.0
C2329 C 0.74395 0.18015 0.18583 0.0
C2330 C 0.73402 0.17088 0.20577 0.0
C2331 C 0.71313 0.16018 0.20286 0.0
C2332 C 0.70313 0.15784 0.18045 0.0
C2333 C 0.74636 0.17057 0.22911 0.0
C2334 C 0.74945 0.15195 0.24034 0.0
C2335 C 0.75583 0.18801 0.23989 0.0
C2336 C 0.75193 0.20832 0.22997 0.0
C2337 C 0.72925 0.2152 0.22526 0.0
C2338 C 0.72568 0.23434 0.21584 0.0
C2339 C 0.74464 0.2468 0.2112 0.0
C2340 C 0.76722 0.24017 0.21603 0.0
C2341 C 0.77089 0.22103 0.22543 0.0
H2342 H 0.74184 0.26161 0.20391 0.0
H2343 H 0.77191 0.07696 0.29961 0.0
H2344 H 0.69938 0.63969 0.34499 0.0
H2345 H 0.71832 0.64134 0.30642 0.0
H2346 H 0.74315 0.58077 0.31501 0.0
H2347 H 0.72398 0.57885 0.3537 0.0
H2348 H 0.77675 0.60812 0.29485 0.0
H2349 H 0.69743 0.58601 0.28126 0.0
H2350 H 0.65484 0.5883 0.28544 0.0
H2351 H 0.65569 0.64735 0.25523 0.0
H2352 H 0.69833 0.6453 0.25063 0.0
H2353 H 0.80788 0.58783 0.1776 0.0
H2354 H 0.78824 0.58544 0.21575 0.0
H2355 H 0.75288 0.64134 0.20198 0.0
H2356 H 0.77197 0.64345 0.16328 0.0
H2357 H 0.72482 0.61704 0.22527 0.0
H2358 H 0.80301 0.63905 0.23573 0.0
H2359 H 0.84553 0.63751 0.23045 0.0
H2360 H 0.84777 0.58138 0.26755 0.0
H2361 H 0.80517 0.58237 0.27263 0.0
C2362 C 0.70917 0.62678 0.33896 0.0
C2363 C 0.71005 0.60908 0.35253 0.0
C2364 C 0.7199 0.62774 0.31678 0.0
C2365 C 0.73193 0.61111 0.30768 0.0
C2366 C 0.73391 0.59378 0.32165 0.0
C2367 C 0.72295 0.59271 0.34379 0.0
C2368 C 0.74134 0.61153 0.28313 0.0
C2369 C 0.76541 0.60981 0.2796 0.0
C2370 C 0.72663 0.61434 0.26326 0.0
C2371 C 0.70103 0.61557 0.2658 0.0
C2372 C 0.68853 0.59951 0.27563 0.0
C2373 C 0.66439 0.60077 0.27806 0.0
C2374 C 0.65257 0.61803 0.27081 0.0
C2375 C 0.66487 0.63401 0.26089 0.0
C2376 C 0.68901 0.63278 0.25827 0.0
C2377 C 0.79556 0.59943 0.18247 0.0
C2378 C 0.79159 0.6159 0.16744 0.0
C2379 C 0.78447 0.59813 0.20441 0.0
C2380 C 0.76956 0.6135 0.21213 0.0
C2381 C 0.76444 0.62936 0.19655 0.0
C2382 C 0.77531 0.63052 0.17437 0.0
C2383 C 0.76031 0.61346 0.23683 0.0
C2384 C 0.73626 0.61535 0.24044 0.0
C2385 C 0.77513 0.61109 0.25679 0.0
C2386 C 0.80085 0.61071 0.2544 0.0
C2387 C 0.81255 0.62633 0.24268 0.0
C2388 C 0.83667 0.62555 0.2397 0.0
C2389 C 0.84934 0.60936 0.24866 0.0
C2390 C 0.83792 0.59392 0.26063 0.0
C2391 C 0.81379 0.59458 0.26356 0.0
H2392 H 0.86801 0.60878 0.24634 0.0
H2393 H 0.63388 0.61898 0.27277 0.0
H2394 H 0.70026 0.37627 0.67759 0.0
H2395 H 0.71967 0.37381 0.71599 0.0
H2396 H 0.74073 0.43567 0.71097 0.0
H2397 H 0.72097 0.43842 0.67253 0.0
H2398 H 0.77638 0.40775 0.72936 0.0
H2399 H 0.69708 0.42892 0.74456 0.0
H2400 H 0.65449 0.42669 0.74027 0.0
H2401 H 0.65593 0.36629 0.76659 0.0
H2402 H 0.69859 0.36829 0.77127 0.0
H2403 H 0.80755 0.42475 0.84751 0.0
H2404 H 0.78759 0.42811 0.80954 0.0
H2405 H 0.75394 0.37109 0.82053 0.0
H2406 H 0.77339 0.36794 0.85904 0.0
H2407 H 0.72499 0.39596 0.79849 0.0
H2408 H 0.80371 0.3754 0.78708 0.0
H2409 H 0.84617 0.37761 0.79271 0.0
H2410 H 0.84681 0.43497 0.75826 0.0
H2411 H 0.80425 0.4333 0.75286 0.0
C2412 C 0.70936 0.3893 0.68435 0.0
C2413 C 0.709 0.40759 0.67189 0.0
C2414 C 0.72036 0.38787 0.70642 0.0
C2415 C 0.7315 0.40459 0.71645 0.0
C2416 C 0.73224 0.42257 0.70357 0.0
C2417 C 0.72093 0.42412 0.68159 0.0
C2418 C 0.74111 0.40353 0.74094 0.0
C2419 C 0.76517 0.40542 0.74452 0.0
C2420 C 0.72656 0.39995 0.76066 0.0
C2421 C 0.70097 0.39869 0.75806 0.0
C2422 C 0.6883 0.41514 0.74931 0.0
C2423 C 0.66416 0.41392 0.74684 0.0
C2424 C 0.65251 0.39629 0.75296 0.0
C2425 C 0.66498 0.37991 0.76179 0.0
C2426 C 0.68913 0.38111 0.76446 0.0
C2427 C 0.79553 0.4131 0.84209 0.0
C2428 C 0.79216 0.39602 0.85627 0.0
C2429 C 0.78425 0.41497 0.82025 0.0
C2430 C 0.76973 0.39959 0.81178 0.0
C2431 C 0.76519 0.38309 0.82655 0.0
C2432 C 0.77626 0.38134 0.84863 0.0
C2433 C 0.76036 0.40032 0.7871 0.0
C2434 C 0.73632 0.39827 0.78341 0.0
C2435 C 0.77503 0.40354 0.76726 0.0
C2436 C 0.80074 0.40429 0.76972 0.0
C2437 C 0.81289 0.38852 0.78078 0.0
C2438 C 0.83697 0.38968 0.78395 0.0
C2439 C 0.84918 0.40642 0.77585 0.0
C2440 C 0.83733 0.42201 0.76452 0.0
C2441 C 0.81322 0.42097 0.76139 0.0
H2442 H 0.86782 0.4073 0.77835 0.0
H2443 H 0.63381 0.39536 0.75095 0.0
H2444 H 0.28093 0.34936 0.65915 0.0
H2445 H 0.26035 0.34255 0.69621 0.0
H2446 H 0.32185 0.35821 0.73588 0.0
H2447 H 0.34261 0.36491 0.69904 0.0
H2448 H 0.26768 0.31792 0.73745 0.0
H2449 H 0.30403 0.39055 0.77849 0.0
H2450 H 0.31828 0.4238 0.7659 0.0
H2451 H 0.27573 0.4206 0.70339 0.0
H2452 H 0.26129 0.38741 0.71561 0.0
H2453 H 0.23877 0.32591 0.86198 0.0
H2454 H 0.25696 0.32271 0.82289 0.0
H2455 H 0.21533 0.37201 0.79725 0.0
H2456 H 0.19749 0.37547 0.83612 0.0
H2457 H 0.25878 0.37864 0.78756 0.0
H2458 H 0.20691 0.32297 0.77826 0.0
H2459 H 0.18859 0.29079 0.78886 0.0
H2460 H 0.25492 0.26132 0.78498 0.0
H2461 H 0.27369 0.2934 0.77467 0.0
C2462 C 0.29026 0.35093 0.67573 0.0
C2463 C 0.31342 0.35782 0.67606 0.0
C2464 C 0.27847 0.34696 0.69691 0.0
C2465 C 0.28949 0.35004 0.71882 0.0
C2466 C 0.31297 0.35583 0.71917 0.0
C2467 C 0.32483 0.35962 0.69804 0.0
C2468 C 0.27594 0.34925 0.74122 0.0
C2469 C 0.26579 0.33113 0.74851 0.0
C2470 C 0.27303 0.36657 0.75539 0.0
C2471 C 0.2818 0.38645 0.74785 0.0
C2472 C 0.29776 0.39697 0.76205 0.0
C2473 C 0.30589 0.41578 0.75497 0.0
C2474 C 0.298 0.42427 0.73381 0.0
C2475 C 0.28196 0.41397 0.71969 0.0
C2476 C 0.27387 0.39513 0.72665 0.0
C2477 C 0.23312 0.33575 0.84785 0.0
C2478 C 0.21678 0.35103 0.85225 0.0
C2479 C 0.24356 0.33392 0.82548 0.0
C2480 C 0.23763 0.34719 0.80706 0.0
C2481 C 0.22039 0.3617 0.81117 0.0
C2482 C 0.21013 0.36362 0.83344 0.0
C2483 C 0.25054 0.34721 0.78416 0.0
C2484 C 0.2607 0.36528 0.77673 0.0
C2485 C 0.25298 0.32992 0.76973 0.0
C2486 C 0.24174 0.31063 0.77593 0.0
C2487 C 0.21762 0.30966 0.77987 0.0
C2488 C 0.20715 0.29143 0.78578 0.0
C2489 C 0.22059 0.27403 0.78766 0.0
C2490 C 0.24453 0.27482 0.78356 0.0
C2491 C 0.25509 0.29301 0.77766 0.0
H2492 H 0.21245 0.25994 0.79223 0.0
H2493 H 0.30427 0.43886 0.72838 0.0
H2494 H 0.34228 0.65125 0.32226 0.0
H2495 H 0.32268 0.65905 0.28496 0.0
H2496 H 0.25994 0.67357 0.32302 0.0
H2497 H 0.27942 0.66589 0.36045 0.0
H2498 H 0.28592 0.63933 0.26694 0.0
H2499 H 0.22831 0.70773 0.29045 0.0
H2500 H 0.22955 0.73759 0.31629 0.0
H2501 H 0.3042 0.73697 0.31436 0.0
H2502 H 0.30341 0.70729 0.28826 0.0
H2503 H 0.19431 0.64432 0.18725 0.0
H2504 H 0.21378 0.64811 0.22538 0.0
H2505 H 0.2554 0.69617 0.19717 0.0
H2506 H 0.23574 0.69259 0.15872 0.0
H2507 H 0.24274 0.70146 0.24636 0.0
H2508 H 0.27873 0.65205 0.19538 0.0
H2509 H 0.27683 0.62301 0.16835 0.0
H2510 H 0.24767 0.58698 0.22375 0.0
H2511 H 0.24934 0.61587 0.25113 0.0
C2512 C 0.32445 0.6565 0.32281 0.0
C2513 C 0.31245 0.65788 0.34444 0.0
C2514 C 0.31322 0.66085 0.3014 0.0
C2515 C 0.28981 0.66689 0.30111 0.0
C2516 C 0.27807 0.66914 0.32275 0.0
C2517 C 0.28927 0.66472 0.34418 0.0
C2518 C 0.27725 0.66934 0.27817 0.0
C2519 C 0.27662 0.65298 0.26247 0.0
C2520 C 0.2651 0.68715 0.27215 0.0
C2521 C 0.26578 0.70517 0.28756 0.0
C2522 C 0.24499 0.71402 0.29545 0.0
C2523 C 0.24561 0.73091 0.31016 0.0
C2524 C 0.26694 0.73914 0.31702 0.0
C2525 C 0.28769 0.73054 0.30911 0.0
C2526 C 0.28717 0.71366 0.29439 0.0
C2527 C 0.20721 0.65604 0.18924 0.0
C2528 C 0.21366 0.668 0.16983 0.0
C2529 C 0.21834 0.65817 0.21109 0.0
C2530 C 0.23632 0.67218 0.21401 0.0
C2531 C 0.24159 0.68524 0.19528 0.0
C2532 C 0.23032 0.68318 0.17332 0.0
C2533 C 0.25123 0.67137 0.23555 0.0
C2534 C 0.25222 0.68792 0.2509 0.0
C2535 C 0.26392 0.65382 0.24125 0.0
C2536 C 0.26407 0.63613 0.22525 0.0
C2537 C 0.27192 0.63793 0.20179 0.0
C2538 C 0.27085 0.62151 0.1864 0.0
C2539 C 0.26203 0.60319 0.19428 0.0
C2540 C 0.25449 0.60119 0.21767 0.0
C2541 C 0.25557 0.61756 0.23316 0.0
H2542 H 0.26108 0.59054 0.18228 0.0
H2543 H 0.26738 0.7522 0.32842 0.0
loop_
_geom_bond_atom_site_label_1
_geom_bond_atom_site_label_2
_geom_bond_distance
_geom_bond_site_symmetry_2
_ccdc_geom_bond_type
Co0 O2 2.143 . S
Co0 O8 2.074 . S
Co0 O11 2.093 . S
Co0 O24 2.097 . S
Co0 N41 2.151 . S
Co0 N49 2.214 . S
Co1 O2 2.160 . S
Co1 O7 2.058 . S
Co1 O17 2.057 . S
Co1 O32 2.037 . S
Co1 N36 2.145 . S
Co1 N57 2.257 . S
O2 Co0 2.143 . S
O2 Co1 2.160 . S
C3 O4 1.278 . S
C3 O11 1.224 . S
O4 C3 1.278 . S
C5 O6 1.245 . S
C5 O17 1.232 . S
O6 C5 1.245 . S
O7 Co1 2.058 . S
O7 C33 1.269 . S
O8 Co0 2.074 . S
O8 C33 1.257 . S
H9 C34 0.930 . S
H10 C40 0.930 . S
O11 Co0 2.093 . S
O11 C3 1.224 . S
H12 C44 0.929 . S
H13 C46 0.930 . S
H14 C47 0.930 . S
H15 C45 0.929 . S
H16 C48 0.928 . S
O17 Co1 2.057 . S
O17 C5 1.232 . S
H18 C37 0.929 . S
H19 C38 0.929 . S
H20 C50 0.931 . S
H21 C42 0.929 . S
H22 C51 0.930 . S
H23 C43 0.931 . S
O24 Co0 2.097 . S
O24 C52 1.214 . S
H25 C53 0.929 . S
H26 C54 0.929 . S
H27 C55 0.930 . S
H28 C56 0.929 . S
H29 C58 0.930 . S
H30 C35 0.930 . S
H31 C39 0.930 . S
O32 Co1 2.037 . S
O32 C52 1.234 . S
C33 O7 1.269 . S
C33 O8 1.257 . S
C34 H9 0.930 . S
C34 C37 1.388 . S
C34 C39 1.418 . S
C35 H30 0.930 . S
C35 C38 1.404 . S
C35 C39 1.353 . S
N36 Co1 2.145 . S
N36 C37 1.397 . S
N36 C38 1.334 . S
C37 H18 0.929 . S
C37 C34 1.388 . S
C37 N36 1.397 . S
C38 H19 0.929 . S
C38 C35 1.404 . S
C38 N36 1.334 . S
C39 H31 0.930 . S
C39 C34 1.418 . S
C39 C35 1.353 . S
C40 H10 0.930 . S
C40 N41 1.330 . S
C40 C42 1.446 . S
N41 Co0 2.151 . S
N41 C40 1.330 . S
N41 C45 1.418 . S
C42 H21 0.929 . S
C42 C40 1.446 . S
C42 C43 1.332 . S
C43 H23 0.931 . S
C43 C42 1.332 . S
C43 C44 1.267 . S
C44 H12 0.929 . S
C44 C43 1.267 . S
C44 C45 1.251 . S
C45 H15 0.929 . S
C45 N41 1.418 . S
C45 C44 1.251 . S
C46 H13 0.930 . S
C46 C48 1.406 1_556 S
C46 C51 1.261 . S
C47 H14 0.930 . S
C47 N49 1.325 . S
C47 C50 1.357 1_554 S
C48 H16 0.928 . S
C48 C46 1.406 1_554 S
C48 N49 1.261 . S
N49 Co0 2.214 . S
N49 C47 1.325 . S
N49 C48 1.261 . S
C50 H20 0.931 . S
C50 C47 1.357 1_556 S
C50 C51 1.312 . S
C51 H22 0.930 . S
C51 C46 1.261 . S
C51 C50 1.312 . S
C52 O24 1.214 . S
C52 O32 1.234 . S
C53 H25 0.929 . S
C53 C56 1.391 . S
C53 C58 1.391 . S
C54 H26 0.929 . S
C54 C55 1.390 . S
C54 N57 1.391 . S
C55 H27 0.930 . S
C55 C54 1.390 . S
C55 C56 1.392 . S
C56 H28 0.929 . S
C56 C53 1.391 . S
C56 C55 1.392 . S
N57 Co1 2.257 . S
N57 C54 1.391 . S
N57 C58 1.388 . S
C58 H29 0.930 . S
C58 C53 1.391 . S
C58 N57 1.388 . S
Co59 O61 2.143 . S
Co59 O67 2.074 . S
Co59 O70 2.093 . S
Co59 O83 2.097 . S
Co59 N100 2.151 . S
Co59 N108 2.214 . S
Co60 O61 2.160 . S
Co60 O66 2.058 . S
Co60 O76 2.057 . S
Co60 O91 2.037 . S
Co60 N95 2.145 . S
Co60 N116 2.257 . S
O61 Co59 2.143 . S
O61 Co60 2.160 . S
C62 O63 1.278 . S
C62 O70 1.224 . S
O63 C62 1.278 . S
C64 O65 1.245 . S
C64 O76 1.232 . S
O65 C64 1.245 . S
O66 Co60 2.058 . S
O66 C92 1.269 . S
O67 Co59 2.074 . S
O67 C92 1.257 . S
H68 C93 0.930 . S
H69 C99 0.930 . S
O70 Co59 2.093 . S
O70 C62 1.224 . S
H71 C103 0.929 . S
H72 C105 0.930 . S
H73 C106 0.930 . S
H74 C104 0.929 . S
H75 C107 0.928 . S
O76 Co60 2.057 . S
O76 C64 1.232 . S
H77 C96 0.929 . S
H78 C97 0.929 . S
H79 C109 0.931 . S
H80 C101 0.929 . S
H81 C110 0.930 . S
H82 C102 0.931 . S
O83 Co59 2.097 . S
O83 C111 1.214 . S
H84 C112 0.929 . S
H85 C113 0.929 . S
H86 C114 0.930 . S
H87 C115 0.929 . S
H88 C117 0.930 . S
H89 C94 0.930 . S
H90 C98 0.930 . S
O91 Co60 2.037 . S
O91 C111 1.234 . S
C92 O66 1.269 . S
C92 O67 1.257 . S
C93 H68 0.930 . S
C93 C96 1.388 . S
C93 C98 1.418 . S
C94 H89 0.930 . S
C94 C97 1.404 . S
C94 C98 1.353 . S
N95 Co60 2.145 . S
N95 C96 1.397 . S
N95 C97 1.334 . S
C96 H77 0.929 . S
C96 C93 1.388 . S
C96 N95 1.397 . S
C97 H78 0.929 . S
C97 C94 1.404 . S
C97 N95 1.334 . S
C98 H90 0.930 . S
C98 C93 1.418 . S
C98 C94 1.353 . S
C99 H69 0.930 . S
C99 N100 1.330 . S
C99 C101 1.446 . S
N100 Co59 2.151 . S
N100 C99 1.330 . S
N100 C104 1.418 . S
C101 H80 0.929 . S
C101 C99 1.446 . S
C101 C102 1.332 . S
C102 H82 0.931 . S
C102 C101 1.332 . S
C102 C103 1.267 . S
C103 H71 0.929 . S
C103 C102 1.267 . S
C103 C104 1.251 . S
C104 H74 0.929 . S
C104 N100 1.418 . S
C104 C103 1.251 . S
C105 H72 0.930 . S
C105 C107 1.406 . S
C105 C110 1.261 . S
C106 H73 0.930 . S
C106 N108 1.325 . S
C106 C109 1.357 . S
C107 H75 0.928 . S
C107 C105 1.406 . S
C107 N108 1.261 . S
N108 Co59 2.214 . S
N108 C106 1.325 . S
N108 C107 1.261 . S
C109 H79 0.931 . S
C109 C106 1.357 . S
C109 C110 1.312 . S
C110 H81 0.930 . S
C110 C105 1.261 . S
C110 C109 1.312 . S
C111 O83 1.214 . S
C111 O91 1.234 . S
C112 H84 0.929 . S
C112 C115 1.391 . S
C112 C117 1.391 . S
C113 H85 0.929 . S
C113 C114 1.390 . S
C113 N116 1.391 . S
C114 H86 0.930 . S
C114 C113 1.390 . S
C114 C115 1.392 . S
C115 H87 0.929 . S
C115 C112 1.391 . S
C115 C114 1.392 . S
N116 Co60 2.257 . S
N116 C113 1.391 . S
N116 C117 1.388 . S
C117 H88 0.930 . S
C117 C112 1.391 . S
C117 N116 1.388 . S
Co118 O120 2.143 . S
Co118 O126 2.074 . S
Co118 O129 2.093 . S
Co118 O142 2.097 . S
Co118 N159 2.151 . S
Co118 N167 2.214 . S
Co119 O120 2.160 . S
Co119 O125 2.058 . S
Co119 O135 2.057 . S
Co119 O150 2.037 . S
Co119 N154 2.145 . S
Co119 N175 2.257 . S
O120 Co118 2.143 . S
O120 Co119 2.160 . S
C121 O122 1.278 . S
C121 O129 1.224 . S
O122 C121 1.278 . S
C123 O124 1.245 . S
C123 O135 1.232 . S
O124 C123 1.245 . S
O125 Co119 2.058 . S
O125 C151 1.269 . S
O126 Co118 2.074 . S
O126 C151 1.257 . S
H127 C152 0.930 . S
H128 C158 0.930 . S
O129 Co118 2.093 . S
O129 C121 1.224 . S
H130 C162 0.929 . S
H131 C164 0.930 . S
H132 C165 0.930 . S
H133 C163 0.929 . S
H134 C166 0.928 . S
O135 Co119 2.057 . S
O135 C123 1.232 . S
H136 C155 0.929 . S
H137 C156 0.929 . S
H138 C168 0.931 . S
H139 C160 0.929 . S
H140 C169 0.930 . S
H141 C161 0.931 . S
O142 Co118 2.097 . S
O142 C170 1.214 . S
H143 C171 0.929 . S
H144 C172 0.929 . S
H145 C173 0.930 . S
H146 C174 0.929 . S
H147 C176 0.930 . S
H148 C153 0.930 . S
H149 C157 0.930 . S
O150 Co119 2.037 . S
O150 C170 1.234 . S
C151 O125 1.269 . S
C151 O126 1.257 . S
C152 H127 0.930 . S
C152 C155 1.388 . S
C152 C157 1.418 . S
C153 H148 0.930 . S
C153 C156 1.404 . S
C153 C157 1.353 . S
N154 Co119 2.145 . S
N154 C155 1.397 . S
N154 C156 1.334 . S
C155 H136 0.929 . S
C155 C152 1.388 . S
C155 N154 1.397 . S
C156 H137 0.929 . S
C156 C153 1.404 . S
C156 N154 1.334 . S
C157 H149 0.930 . S
C157 C152 1.418 . S
C157 C153 1.353 . S
C158 H128 0.930 . S
C158 N159 1.330 . S
C158 C160 1.446 . S
N159 Co118 2.151 . S
N159 C158 1.330 . S
N159 C163 1.418 . S
C160 H139 0.929 . S
C160 C158 1.446 . S
C160 C161 1.332 . S
C161 H141 0.931 . S
C161 C160 1.332 . S
C161 C162 1.267 . S
C162 H130 0.929 . S
C162 C161 1.267 . S
C162 C163 1.251 . S
C163 H133 0.929 . S
C163 N159 1.418 . S
C163 C162 1.251 . S
C164 H131 0.930 . S
C164 C166 1.406 1_554 S
C164 C169 1.261 . S
C165 H132 0.930 . S
C165 N167 1.325 . S
C165 C168 1.357 1_556 S
C166 H134 0.928 . S
C166 C164 1.406 1_556 S
C166 N167 1.261 . S
N167 Co118 2.214 . S
N167 C165 1.325 . S
N167 C166 1.261 . S
C168 H138 0.931 . S
C168 C165 1.357 1_554 S
C168 C169 1.312 . S
C169 H140 0.930 . S
C169 C164 1.261 . S
C169 C168 1.312 . S
C170 O142 1.214 . S
C170 O150 1.234 . S
C171 H143 0.929 . S
C171 C174 1.391 . S
C171 C176 1.391 . S
C172 H144 0.929 . S
C172 C173 1.390 . S
C172 N175 1.391 . S
C173 H145 0.930 . S
C173 C172 1.390 . S
C173 C174 1.392 . S
C174 H146 0.929 . S
C174 C171 1.391 . S
C174 C173 1.392 . S
N175 Co119 2.257 . S
N175 C172 1.391 . S
N175 C176 1.388 . S
C176 H147 0.930 . S
C176 C171 1.391 . S
C176 N175 1.388 . S
Co177 O179 2.143 . S
Co177 O185 2.074 . S
Co177 O188 2.093 . S
Co177 O201 2.097 . S
Co177 N218 2.151 . S
Co177 N226 2.214 . S
Co178 O179 2.160 . S
Co178 O184 2.058 . S
Co178 O194 2.057 . S
Co178 O209 2.037 . S
Co178 N213 2.145 . S
Co178 N234 2.257 . S
O179 Co177 2.143 . S
O179 Co178 2.160 . S
C180 O181 1.278 . S
C180 O188 1.224 . S
O181 C180 1.278 . S
C182 O183 1.245 . S
C182 O194 1.232 . S
O183 C182 1.245 . S
O184 Co178 2.058 . S
O184 C210 1.269 . S
O185 Co177 2.074 . S
O185 C210 1.257 . S
H186 C211 0.930 . S
H187 C217 0.930 . S
O188 Co177 2.093 . S
O188 C180 1.224 . S
H189 C221 0.929 . S
H190 C223 0.930 . S
H191 C224 0.930 . S
H192 C222 0.929 . S
H193 C225 0.928 . S
O194 Co178 2.057 . S
O194 C182 1.232 . S
H195 C214 0.929 . S
H196 C215 0.929 . S
H197 C227 0.931 . S
H198 C219 0.929 . S
H199 C228 0.930 . S
H200 C220 0.931 . S
O201 Co177 2.097 . S
O201 C229 1.214 . S
H202 C230 0.929 . S
H203 C231 0.929 . S
H204 C232 0.930 . S
H205 C233 0.929 . S
H206 C235 0.930 . S
H207 C212 0.930 . S
H208 C216 0.930 . S
O209 Co178 2.037 . S
O209 C229 1.234 . S
C210 O184 1.269 . S
C210 O185 1.257 . S
C211 H186 0.930 . S
C211 C214 1.388 . S
C211 C216 1.418 . S
C212 H207 0.930 . S
C212 C215 1.404 . S
C212 C216 1.353 . S
N213 Co178 2.145 . S
N213 C214 1.397 . S
N213 C215 1.334 . S
C214 H195 0.929 . S
C214 C211 1.388 . S
C214 N213 1.397 . S
C215 H196 0.929 . S
C215 C212 1.404 . S
C215 N213 1.334 . S
C216 H208 0.930 . S
C216 C211 1.418 . S
C216 C212 1.353 . S
C217 H187 0.930 . S
C217 N218 1.330 . S
C217 C219 1.446 . S
N218 Co177 2.151 . S
N218 C217 1.330 . S
N218 C222 1.418 . S
C219 H198 0.929 . S
C219 C217 1.446 . S
C219 C220 1.332 . S
C220 H200 0.931 . S
C220 C219 1.332 . S
C220 C221 1.267 . S
C221 H189 0.929 . S
C221 C220 1.267 . S
C221 C222 1.251 . S
C222 H192 0.929 . S
C222 N218 1.418 . S
C222 C221 1.251 . S
C223 H190 0.930 . S
C223 C225 1.406 . S
C223 C228 1.261 . S
C224 H191 0.930 . S
C224 N226 1.325 . S
C224 C227 1.357 . S
C225 H193 0.928 . S
C225 C223 1.406 . S
C225 N226 1.261 . S
N226 Co177 2.214 . S
N226 C224 1.325 . S
N226 C225 1.261 . S
C227 H197 0.931 . S
C227 C224 1.357 . S
C227 C228 1.312 . S
C228 H199 0.930 . S
C228 C223 1.261 . S
C228 C227 1.312 . S
C229 O201 1.214 . S
C229 O209 1.234 . S
C230 H202 0.929 . S
C230 C233 1.391 . S
C230 C235 1.391 . S
C231 H203 0.929 . S
C231 C232 1.390 . S
C231 N234 1.391 . S
C232 H204 0.930 . S
C232 C231 1.390 . S
C232 C233 1.392 . S
C233 H205 0.929 . S
C233 C230 1.391 . S
C233 C232 1.392 . S
N234 Co178 2.257 . S
N234 C231 1.391 . S
N234 C235 1.388 . S
C235 H206 0.930 . S
C235 C230 1.391 . S
C235 N234 1.388 . S
Co236 O238 2.143 . S
Co236 O244 2.074 . S
Co236 O247 2.093 . S
Co236 O260 2.097 . S
Co236 N277 2.151 . S
Co236 N285 2.214 . S
Co237 O238 2.160 . S
Co237 O243 2.058 . S
Co237 O253 2.057 . S
Co237 O268 2.037 . S
Co237 N272 2.145 . S
Co237 N293 2.257 . S
O238 Co236 2.143 . S
O238 Co237 2.160 . S
C239 O240 1.278 . S
C239 O247 1.224 . S
O240 C239 1.278 . S
C241 O242 1.245 . S
C241 O253 1.232 . S
O242 C241 1.245 . S
O243 Co237 2.058 . S
O243 C269 1.269 . S
O244 Co236 2.074 . S
O244 C269 1.257 . S
H245 C270 0.930 . S
H246 C276 0.930 . S
O247 Co236 2.093 . S
O247 C239 1.224 . S
H248 C280 0.929 . S
H249 C282 0.930 . S
H250 C283 0.930 . S
H251 C281 0.929 . S
H252 C284 0.928 . S
O253 Co237 2.057 . S
O253 C241 1.232 . S
H254 C273 0.929 . S
H255 C274 0.929 . S
H256 C286 0.931 . S
H257 C278 0.929 . S
H258 C287 0.930 . S
H259 C279 0.931 . S
O260 Co236 2.097 . S
O260 C288 1.214 . S
H261 C289 0.929 . S
H262 C290 0.929 . S
H263 C291 0.930 . S
H264 C292 0.929 . S
H265 C294 0.930 . S
H266 C271 0.930 . S
H267 C275 0.930 . S
O268 Co237 2.037 . S
O268 C288 1.234 . S
C269 O243 1.269 . S
C269 O244 1.257 . S
C270 H245 0.930 . S
C270 C273 1.388 1_554 S
C270 C275 1.418 . S
C271 H266 0.930 . S
C271 C274 1.404 1_554 S
C271 C275 1.353 . S
N272 Co237 2.145 . S
N272 C273 1.397 . S
N272 C274 1.334 . S
C273 H254 0.929 . S
C273 C270 1.388 1_556 S
C273 N272 1.397 . S
C274 H255 0.929 . S
C274 C271 1.404 1_556 S
C274 N272 1.334 . S
C275 H267 0.930 . S
C275 C270 1.418 . S
C275 C271 1.353 . S
C276 H246 0.930 . S
C276 N277 1.330 . S
C276 C278 1.446 . S
N277 Co236 2.151 . S
N277 C276 1.330 . S
N277 C281 1.418 . S
C278 H257 0.929 . S
C278 C276 1.446 . S
C278 C279 1.332 . S
C279 H259 0.931 . S
C279 C278 1.332 . S
C279 C280 1.267 . S
C280 H248 0.929 . S
C280 C279 1.267 . S
C280 C281 1.251 . S
C281 H251 0.929 . S
C281 N277 1.418 . S
C281 C280 1.251 . S
C282 H249 0.930 . S
C282 C284 1.406 . S
C282 C287 1.261 . S
C283 H250 0.930 . S
C283 N285 1.325 . S
C283 C286 1.357 . S
C284 H252 0.928 . S
C284 C282 1.406 . S
C284 N285 1.261 . S
N285 Co236 2.214 . S
N285 C283 1.325 . S
N285 C284 1.261 . S
C286 H256 0.931 . S
C286 C283 1.357 . S
C286 C287 1.312 . S
C287 H258 0.930 . S
C287 C282 1.261 . S
C287 C286 1.312 . S
C288 O260 1.214 . S
C288 O268 1.234 . S
C289 H261 0.929 . S
C289 C292 1.391 . S
C289 C294 1.391 . S
C290 H262 0.929 . S
C290 C291 1.390 . S
C290 N293 1.391 . S
C291 H263 0.930 . S
C291 C290 1.390 . S
C291 C292 1.392 . S
C292 H264 0.929 . S
C292 C289 1.391 . S
C292 C291 1.392 . S
N293 Co237 2.257 . S
N293 C290 1.391 . S
N293 C294 1.388 . S
C294 H265 0.930 . S
C294 C289 1.391 . S
C294 N293 1.388 . S
Co295 O297 2.143 . S
Co295 O303 2.074 . S
Co295 O306 2.093 . S
Co295 O319 2.097 . S
Co295 N336 2.151 . S
Co295 N344 2.214 . S
Co296 O297 2.160 . S
Co296 O302 2.058 . S
Co296 O312 2.057 . S
Co296 O327 2.037 . S
Co296 N331 2.145 . S
Co296 N352 2.257 . S
O297 Co295 2.143 . S
O297 Co296 2.160 . S
C298 O299 1.278 . S
C298 O306 1.224 . S
O299 C298 1.278 . S
C300 O301 1.245 . S
C300 O312 1.232 . S
O301 C300 1.245 . S
O302 Co296 2.058 . S
O302 C328 1.269 . S
O303 Co295 2.074 . S
O303 C328 1.257 . S
H304 C329 0.930 . S
H305 C335 0.930 . S
O306 Co295 2.093 . S
O306 C298 1.224 . S
H307 C339 0.929 . S
H308 C341 0.930 . S
H309 C342 0.930 . S
H310 C340 0.929 . S
H311 C343 0.928 . S
O312 Co296 2.057 . S
O312 C300 1.232 . S
H313 C332 0.929 . S
H314 C333 0.929 . S
H315 C345 0.931 . S
H316 C337 0.929 . S
H317 C346 0.930 . S
H318 C338 0.931 . S
O319 Co295 2.097 . S
O319 C347 1.214 . S
H320 C348 0.929 . S
H321 C349 0.929 . S
H322 C350 0.930 . S
H323 C351 0.929 . S
H324 C353 0.930 . S
H325 C330 0.930 . S
H326 C334 0.930 . S
O327 Co296 2.037 . S
O327 C347 1.234 . S
C328 O302 1.269 . S
C328 O303 1.257 . S
C329 H304 0.930 . S
C329 C332 1.388 . S
C329 C334 1.418 . S
C330 H325 0.930 . S
C330 C333 1.404 . S
C330 C334 1.353 . S
N331 Co296 2.145 . S
N331 C332 1.397 . S
N331 C333 1.334 . S
C332 H313 0.929 . S
C332 C329 1.388 . S
C332 N331 1.397 . S
C333 H314 0.929 . S
C333 C330 1.404 . S
C333 N331 1.334 . S
C334 H326 0.930 . S
C334 C329 1.418 . S
C334 C330 1.353 . S
C335 H305 0.930 . S
C335 N336 1.330 . S
C335 C337 1.446 . S
N336 Co295 2.151 . S
N336 C335 1.330 . S
N336 C340 1.418 . S
C337 H316 0.929 . S
C337 C335 1.446 . S
C337 C338 1.332 . S
C338 H318 0.931 . S
C338 C337 1.332 . S
C338 C339 1.267 . S
C339 H307 0.929 . S
C339 C338 1.267 . S
C339 C340 1.251 . S
C340 H310 0.929 . S
C340 N336 1.418 . S
C340 C339 1.251 . S
C341 H308 0.930 . S
C341 C343 1.406 . S
C341 C346 1.261 . S
C342 H309 0.930 . S
C342 N344 1.325 . S
C342 C345 1.357 . S
C343 H311 0.928 . S
C343 C341 1.406 . S
C343 N344 1.261 . S
N344 Co295 2.214 . S
N344 C342 1.325 . S
N344 C343 1.261 . S
C345 H315 0.931 . S
C345 C342 1.357 . S
C345 C346 1.312 . S
C346 H317 0.930 . S
C346 C341 1.261 . S
C346 C345 1.312 . S
C347 O319 1.214 . S
C347 O327 1.234 . S
C348 H320 0.929 . S
C348 C351 1.391 . S
C348 C353 1.391 . S
C349 H321 0.929 . S
C349 C350 1.390 . S
C349 N352 1.391 . S
C350 H322 0.930 . S
C350 C349 1.390 . S
C350 C351 1.392 . S
C351 H323 0.929 . S
C351 C348 1.391 . S
C351 C350 1.392 . S
N352 Co296 2.257 . S
N352 C349 1.391 . S
N352 C353 1.388 . S
C353 H324 0.930 . S
C353 C348 1.391 . S
C353 N352 1.388 . S
Co354 O356 2.143 . S
Co354 O362 2.074 . S
Co354 O365 2.093 . S
Co354 O378 2.097 . S
Co354 N395 2.151 . S
Co354 N403 2.214 . S
Co355 O356 2.160 . S
Co355 O361 2.058 . S
Co355 O371 2.057 . S
Co355 O386 2.037 . S
Co355 N390 2.145 . S
Co355 N411 2.257 . S
O356 Co354 2.143 . S
O356 Co355 2.160 . S
C357 O358 1.278 . S
C357 O365 1.224 . S
O358 C357 1.278 . S
C359 O360 1.245 . S
C359 O371 1.232 . S
O360 C359 1.245 . S
O361 Co355 2.058 . S
O361 C387 1.269 . S
O362 Co354 2.074 . S
O362 C387 1.257 . S
H363 C388 0.930 . S
H364 C394 0.930 . S
O365 Co354 2.093 . S
O365 C357 1.224 . S
H366 C398 0.929 . S
H367 C400 0.930 . S
H368 C401 0.930 . S
H369 C399 0.929 . S
H370 C402 0.928 . S
O371 Co355 2.057 . S
O371 C359 1.232 . S
H372 C391 0.929 . S
H373 C392 0.929 . S
H374 C404 0.931 . S
H375 C396 0.929 . S
H376 C405 0.930 . S
H377 C397 0.931 . S
O378 Co354 2.097 . S
O378 C406 1.214 . S
H379 C407 0.929 . S
H380 C408 0.929 . S
H381 C409 0.930 . S
H382 C410 0.929 . S
H383 C412 0.930 . S
H384 C389 0.930 . S
H385 C393 0.930 . S
O386 Co355 2.037 . S
O386 C406 1.234 . S
C387 O361 1.269 . S
C387 O362 1.257 . S
C388 H363 0.930 . S
C388 C391 1.388 1_556 S
C388 C393 1.418 . S
C389 H384 0.930 . S
C389 C392 1.404 1_556 S
C389 C393 1.353 . S
N390 Co355 2.145 . S
N390 C391 1.397 . S
N390 C392 1.334 . S
C391 H372 0.929 . S
C391 C388 1.388 1_554 S
C391 N390 1.397 . S
C392 H373 0.929 . S
C392 C389 1.404 1_554 S
C392 N390 1.334 . S
C393 H385 0.930 . S
C393 C388 1.418 . S
C393 C389 1.353 . S
C394 H364 0.930 . S
C394 N395 1.330 . S
C394 C396 1.446 . S
N395 Co354 2.151 . S
N395 C394 1.330 . S
N395 C399 1.418 . S
C396 H375 0.929 . S
C396 C394 1.446 . S
C396 C397 1.332 . S
C397 H377 0.931 . S
C397 C396 1.332 . S
C397 C398 1.267 . S
C398 H366 0.929 . S
C398 C397 1.267 . S
C398 C399 1.251 . S
C399 H369 0.929 . S
C399 N395 1.418 . S
C399 C398 1.251 . S
C400 H367 0.930 . S
C400 C402 1.406 . S
C400 C405 1.261 . S
C401 H368 0.930 . S
C401 N403 1.325 . S
C401 C404 1.357 . S
C402 H370 0.928 . S
C402 C400 1.406 . S
C402 N403 1.261 . S
N403 Co354 2.214 . S
N403 C401 1.325 . S
N403 C402 1.261 . S
C404 H374 0.931 . S
C404 C401 1.357 . S
C404 C405 1.312 . S
C405 H376 0.930 . S
C405 C400 1.261 . S
C405 C404 1.312 . S
C406 O378 1.214 . S
C406 O386 1.234 . S
C407 H379 0.929 . S
C407 C410 1.391 . S
C407 C412 1.391 . S
C408 H380 0.929 . S
C408 C409 1.390 . S
C408 N411 1.391 . S
C409 H381 0.930 . S
C409 C408 1.390 . S
C409 C410 1.392 . S
C410 H382 0.929 . S
C410 C407 1.391 . S
C410 C409 1.392 . S
N411 Co355 2.257 . S
N411 C408 1.391 . S
N411 C412 1.388 . S
C412 H383 0.930 . S
C412 C407 1.391 . S
C412 N411 1.388 . S
Co413 O415 2.143 . S
Co413 O421 2.074 . S
Co413 O424 2.093 . S
Co413 O437 2.097 . S
Co413 N454 2.151 . S
Co413 N462 2.214 . S
Co414 O415 2.160 . S
Co414 O420 2.058 . S
Co414 O430 2.057 . S
Co414 O445 2.037 . S
Co414 N449 2.145 . S
Co414 N470 2.257 . S
O415 Co413 2.143 . S
O415 Co414 2.160 . S
C416 O417 1.278 . S
C416 O424 1.224 . S
O417 C416 1.278 . S
C418 O419 1.245 . S
C418 O430 1.232 . S
O419 C418 1.245 . S
O420 Co414 2.058 . S
O420 C446 1.269 . S
O421 Co413 2.074 . S
O421 C446 1.257 . S
H422 C447 0.930 . S
H423 C453 0.930 . S
O424 Co413 2.093 . S
O424 C416 1.224 . S
H425 C457 0.929 . S
H426 C459 0.930 . S
H427 C460 0.930 . S
H428 C458 0.929 . S
H429 C461 0.928 . S
O430 Co414 2.057 . S
O430 C418 1.232 . S
H431 C450 0.929 . S
H432 C451 0.929 . S
H433 C463 0.931 . S
H434 C455 0.929 . S
H435 C464 0.930 . S
H436 C456 0.931 . S
O437 Co413 2.097 . S
O437 C465 1.214 . S
H438 C466 0.929 . S
H439 C467 0.929 . S
H440 C468 0.930 . S
H441 C469 0.929 . S
H442 C471 0.930 . S
H443 C448 0.930 . S
H444 C452 0.930 . S
O445 Co414 2.037 . S
O445 C465 1.234 . S
C446 O420 1.269 . S
C446 O421 1.257 . S
C447 H422 0.930 . S
C447 C450 1.388 . S
C447 C452 1.418 . S
C448 H443 0.930 . S
C448 C451 1.404 . S
C448 C452 1.353 . S
N449 Co414 2.145 . S
N449 C450 1.397 . S
N449 C451 1.334 . S
C450 H431 0.929 . S
C450 C447 1.388 . S
C450 N449 1.397 . S
C451 H432 0.929 . S
C451 C448 1.404 . S
C451 N449 1.334 . S
C452 H444 0.930 . S
C452 C447 1.418 . S
C452 C448 1.353 . S
C453 H423 0.930 . S
C453 N454 1.330 . S
C453 C455 1.446 . S
N454 Co413 2.151 . S
N454 C453 1.330 . S
N454 C458 1.418 . S
C455 H434 0.929 . S
C455 C453 1.446 . S
C455 C456 1.332 . S
C456 H436 0.931 . S
C456 C455 1.332 . S
C456 C457 1.267 . S
C457 H425 0.929 . S
C457 C456 1.267 . S
C457 C458 1.251 . S
C458 H428 0.929 . S
C458 N454 1.418 . S
C458 C457 1.251 . S
C459 H426 0.930 . S
C459 C461 1.406 . S
C459 C464 1.261 . S
C460 H427 0.930 . S
C460 N462 1.325 . S
C460 C463 1.357 . S
C461 H429 0.928 . S
C461 C459 1.406 . S
C461 N462 1.261 . S
N462 Co413 2.214 . S
N462 C460 1.325 . S
N462 C461 1.261 . S
C463 H433 0.931 . S
C463 C460 1.357 . S
C463 C464 1.312 . S
C464 H435 0.930 . S
C464 C459 1.261 . S
C464 C463 1.312 . S
C465 O437 1.214 . S
C465 O445 1.234 . S
C466 H438 0.929 . S
C466 C469 1.391 . S
C466 C471 1.391 . S
C467 H439 0.929 . S
C467 C468 1.390 . S
C467 N470 1.391 . S
C468 H440 0.930 . S
C468 C467 1.390 . S
C468 C469 1.392 . S
C469 H441 0.929 . S
C469 C466 1.391 . S
C469 C468 1.392 . S
N470 Co414 2.257 . S
N470 C467 1.391 . S
N470 C471 1.388 . S
C471 H442 0.930 . S
C471 C466 1.391 . S
C471 N470 1.388 . S
Co472 O474 2.143 . S
Co472 O480 2.074 . S
Co472 O483 2.093 . S
Co472 O496 2.097 . S
Co472 N513 2.151 . S
Co472 N521 2.214 . S
Co473 O474 2.160 . S
Co473 O479 2.058 . S
Co473 O489 2.057 . S
Co473 O504 2.037 . S
Co473 N508 2.145 . S
Co473 N529 2.257 . S
O474 Co472 2.143 . S
O474 Co473 2.160 . S
C475 O476 1.278 . S
C475 O483 1.224 . S
O476 C475 1.278 . S
C477 O478 1.245 . S
C477 O489 1.232 . S
O478 C477 1.245 . S
O479 Co473 2.058 . S
O479 C505 1.269 . S
O480 Co472 2.074 . S
O480 C505 1.257 . S
H481 C506 0.930 . S
H482 C512 0.930 . S
O483 Co472 2.093 . S
O483 C475 1.224 . S
H484 C516 0.929 . S
H485 C518 0.930 . S
H486 C519 0.930 . S
H487 C517 0.929 . S
H488 C520 0.928 . S
O489 Co473 2.057 . S
O489 C477 1.232 . S
H490 C509 0.929 . S
H491 C510 0.929 . S
H492 C522 0.931 . S
H493 C514 0.929 . S
H494 C523 0.930 . S
H495 C515 0.931 . S
O496 Co472 2.097 . S
O496 C524 1.214 . S
H497 C525 0.929 . S
H498 C526 0.929 . S
H499 C527 0.930 . S
H500 C528 0.929 . S
H501 C530 0.930 . S
H502 C507 0.930 . S
H503 C511 0.930 . S
O504 Co473 2.037 . S
O504 C524 1.234 . S
C505 O479 1.269 . S
C505 O480 1.257 . S
C506 H481 0.930 . S
C506 C509 1.388 . S
C506 C511 1.418 . S
C507 H502 0.930 . S
C507 C510 1.404 . S
C507 C511 1.353 . S
N508 Co473 2.145 . S
N508 C509 1.397 . S
N508 C510 1.334 . S
C509 H490 0.929 . S
C509 C506 1.388 . S
C509 N508 1.397 . S
C510 H491 0.929 . S
C510 C507 1.404 . S
C510 N508 1.334 . S
C511 H503 0.930 . S
C511 C506 1.418 . S
C511 C507 1.353 . S
C512 H482 0.930 . S
C512 N513 1.330 . S
C512 C514 1.446 . S
N513 Co472 2.151 . S
N513 C512 1.330 . S
N513 C517 1.418 . S
C514 H493 0.929 . S
C514 C512 1.446 . S
C514 C515 1.332 . S
C515 H495 0.931 . S
C515 C514 1.332 . S
C515 C516 1.267 . S
C516 H484 0.929 . S
C516 C515 1.267 . S
C516 C517 1.251 . S
C517 H487 0.929 . S
C517 N513 1.418 . S
C517 C516 1.251 . S
C518 H485 0.930 . S
C518 C520 1.406 1_556 S
C518 C523 1.261 . S
C519 H486 0.930 . S
C519 N521 1.325 . S
C519 C522 1.357 1_554 S
C520 H488 0.928 . S
C520 C518 1.406 1_554 S
C520 N521 1.261 . S
N521 Co472 2.214 . S
N521 C519 1.325 . S
N521 C520 1.261 . S
C522 H492 0.931 . S
C522 C519 1.357 1_556 S
C522 C523 1.312 . S
C523 H494 0.930 . S
C523 C518 1.261 . S
C523 C522 1.312 . S
C524 O496 1.214 . S
C524 O504 1.234 . S
C525 H497 0.929 . S
C525 C528 1.391 . S
C525 C530 1.391 . S
C526 H498 0.929 . S
C526 C527 1.390 . S
C526 N529 1.391 . S
C527 H499 0.930 . S
C527 C526 1.390 . S
C527 C528 1.392 . S
C528 H500 0.929 . S
C528 C525 1.391 . S
C528 C527 1.392 . S
N529 Co473 2.257 . S
N529 C526 1.391 . S
N529 C530 1.388 . S
C530 H501 0.930 . S
C530 C525 1.391 . S
C530 N529 1.388 . S
Co531 O533 2.143 . S
Co531 O539 2.074 . S
Co531 O542 2.093 . S
Co531 O555 2.097 . S
Co531 N572 2.151 . S
Co531 N580 2.214 . S
Co532 O533 2.160 . S
Co532 O538 2.058 . S
Co532 O548 2.057 . S
Co532 O563 2.037 . S
Co532 N567 2.145 . S
Co532 N588 2.257 . S
O533 Co531 2.143 . S
O533 Co532 2.160 . S
C534 O535 1.278 . S
C534 O542 1.224 . S
O535 C534 1.278 . S
C536 O537 1.245 . S
C536 O548 1.232 . S
O537 C536 1.245 . S
O538 Co532 2.058 . S
O538 C564 1.269 . S
O539 Co531 2.074 . S
O539 C564 1.257 . S
H540 C565 0.930 . S
H541 C571 0.930 . S
O542 Co531 2.093 . S
O542 C534 1.224 . S
H543 C575 0.929 . S
H544 C577 0.930 . S
H545 C578 0.930 . S
H546 C576 0.929 . S
H547 C579 0.928 . S
O548 Co532 2.057 . S
O548 C536 1.232 . S
H549 C568 0.929 . S
H550 C569 0.929 . S
H551 C581 0.931 . S
H552 C573 0.929 . S
H553 C582 0.930 . S
H554 C574 0.931 . S
O555 Co531 2.097 . S
O555 C583 1.214 . S
H556 C584 0.929 . S
H557 C585 0.929 . S
H558 C586 0.930 . S
H559 C587 0.929 . S
H560 C589 0.930 . S
H561 C566 0.930 . S
H562 C570 0.930 . S
O563 Co532 2.037 . S
O563 C583 1.234 . S
C564 O538 1.269 . S
C564 O539 1.257 . S
C565 H540 0.930 . S
C565 C568 1.388 . S
C565 C570 1.418 . S
C566 H561 0.930 . S
C566 C569 1.404 . S
C566 C570 1.353 . S
N567 Co532 2.145 . S
N567 C568 1.397 . S
N567 C569 1.334 . S
C568 H549 0.929 . S
C568 C565 1.388 . S
C568 N567 1.397 . S
C569 H550 0.929 . S
C569 C566 1.404 . S
C569 N567 1.334 . S
C570 H562 0.930 . S
C570 C565 1.418 . S
C570 C566 1.353 . S
C571 H541 0.930 . S
C571 N572 1.330 . S
C571 C573 1.446 . S
N572 Co531 2.151 . S
N572 C571 1.330 . S
N572 C576 1.418 . S
C573 H552 0.929 . S
C573 C571 1.446 . S
C573 C574 1.332 . S
C574 H554 0.931 . S
C574 C573 1.332 . S
C574 C575 1.267 . S
C575 H543 0.929 . S
C575 C574 1.267 . S
C575 C576 1.251 . S
C576 H546 0.929 . S
C576 N572 1.418 . S
C576 C575 1.251 . S
C577 H544 0.930 . S
C577 C579 1.406 . S
C577 C582 1.261 . S
C578 H545 0.930 . S
C578 N580 1.325 . S
C578 C581 1.357 . S
C579 H547 0.928 . S
C579 C577 1.406 . S
C579 N580 1.261 . S
N580 Co531 2.214 . S
N580 C578 1.325 . S
N580 C579 1.261 . S
C581 H551 0.931 . S
C581 C578 1.357 . S
C581 C582 1.312 . S
C582 H553 0.930 . S
C582 C577 1.261 . S
C582 C581 1.312 . S
C583 O555 1.214 . S
C583 O563 1.234 . S
C584 H556 0.929 . S
C584 C587 1.391 . S
C584 C589 1.391 . S
C585 H557 0.929 . S
C585 C586 1.390 . S
C585 N588 1.391 . S
C586 H558 0.930 . S
C586 C585 1.390 . S
C586 C587 1.392 . S
C587 H559 0.929 . S
C587 C584 1.391 . S
C587 C586 1.392 . S
N588 Co532 2.257 . S
N588 C585 1.391 . S
N588 C589 1.388 . S
C589 H560 0.930 . S
C589 C584 1.391 . S
C589 N588 1.388 . S
Co590 O592 2.143 . S
Co590 O598 2.074 . S
Co590 O601 2.093 . S
Co590 O614 2.097 . S
Co590 N631 2.151 . S
Co590 N639 2.214 . S
Co591 O592 2.160 . S
Co591 O597 2.058 . S
Co591 O607 2.057 . S
Co591 O622 2.037 . S
Co591 N626 2.145 . S
Co591 N647 2.257 . S
O592 Co590 2.143 . S
O592 Co591 2.160 . S
C593 O594 1.278 . S
C593 O601 1.224 . S
O594 C593 1.278 . S
C595 O596 1.245 . S
C595 O607 1.232 . S
O596 C595 1.245 . S
O597 Co591 2.058 . S
O597 C623 1.269 . S
O598 Co590 2.074 . S
O598 C623 1.257 . S
H599 C624 0.930 . S
H600 C630 0.930 . S
O601 Co590 2.093 . S
O601 C593 1.224 . S
H602 C634 0.929 . S
H603 C636 0.930 . S
H604 C637 0.930 . S
H605 C635 0.929 . S
H606 C638 0.928 . S
O607 Co591 2.057 . S
O607 C595 1.232 . S
H608 C627 0.929 . S
H609 C628 0.929 . S
H610 C640 0.931 . S
H611 C632 0.929 . S
H612 C641 0.930 . S
H613 C633 0.931 . S
O614 Co590 2.097 . S
O614 C642 1.214 . S
H615 C643 0.929 . S
H616 C644 0.929 . S
H617 C645 0.930 . S
H618 C646 0.929 . S
H619 C648 0.930 . S
H620 C625 0.930 . S
H621 C629 0.930 . S
O622 Co591 2.037 . S
O622 C642 1.234 . S
C623 O597 1.269 . S
C623 O598 1.257 . S
C624 H599 0.930 . S
C624 C627 1.388 . S
C624 C629 1.418 . S
C625 H620 0.930 . S
C625 C628 1.404 . S
C625 C629 1.353 . S
N626 Co591 2.145 . S
N626 C627 1.397 . S
N626 C628 1.334 . S
C627 H608 0.929 . S
C627 C624 1.388 . S
C627 N626 1.397 . S
C628 H609 0.929 . S
C628 C625 1.404 . S
C628 N626 1.334 . S
C629 H621 0.930 . S
C629 C624 1.418 . S
C629 C625 1.353 . S
C630 H600 0.930 . S
C630 N631 1.330 . S
C630 C632 1.446 . S
N631 Co590 2.151 . S
N631 C630 1.330 . S
N631 C635 1.418 . S
C632 H611 0.929 . S
C632 C630 1.446 . S
C632 C633 1.332 . S
C633 H613 0.931 . S
C633 C632 1.332 . S
C633 C634 1.267 . S
C634 H602 0.929 . S
C634 C633 1.267 . S
C634 C635 1.251 . S
C635 H605 0.929 . S
C635 N631 1.418 . S
C635 C634 1.251 . S
C636 H603 0.930 . S
C636 C638 1.406 1_554 S
C636 C641 1.261 . S
C637 H604 0.930 . S
C637 N639 1.325 . S
C637 C640 1.357 1_556 S
C638 H606 0.928 . S
C638 C636 1.406 1_556 S
C638 N639 1.261 . S
N639 Co590 2.214 . S
N639 C637 1.325 . S
N639 C638 1.261 . S
C640 H610 0.931 . S
C640 C637 1.357 1_554 S
C640 C641 1.312 . S
C641 H612 0.930 . S
C641 C636 1.261 . S
C641 C640 1.312 . S
C642 O614 1.214 . S
C642 O622 1.234 . S
C643 H615 0.929 . S
C643 C646 1.391 . S
C643 C648 1.391 . S
C644 H616 0.929 . S
C644 C645 1.390 . S
C644 N647 1.391 . S
C645 H617 0.930 . S
C645 C644 1.390 . S
C645 C646 1.392 . S
C646 H618 0.929 . S
C646 C643 1.391 . S
C646 C645 1.392 . S
N647 Co591 2.257 . S
N647 C644 1.391 . S
N647 C648 1.388 . S
C648 H619 0.930 . S
C648 C643 1.391 . S
C648 N647 1.388 . S
Co649 O651 2.143 . S
Co649 O657 2.074 . S
Co649 O660 2.093 . S
Co649 O673 2.097 . S
Co649 N690 2.151 . S
Co649 N698 2.214 . S
Co650 O651 2.160 . S
Co650 O656 2.058 . S
Co650 O666 2.057 . S
Co650 O681 2.037 . S
Co650 N685 2.145 . S
Co650 N706 2.257 . S
O651 Co649 2.143 . S
O651 Co650 2.160 . S
C652 O653 1.278 . S
C652 O660 1.224 . S
O653 C652 1.278 . S
C654 O655 1.245 . S
C654 O666 1.232 . S
O655 C654 1.245 . S
O656 Co650 2.058 . S
O656 C682 1.269 . S
O657 Co649 2.074 . S
O657 C682 1.257 . S
H658 C683 0.930 . S
H659 C689 0.930 . S
O660 Co649 2.093 . S
O660 C652 1.224 . S
H661 C693 0.929 . S
H662 C695 0.930 . S
H663 C696 0.930 . S
H664 C694 0.929 . S
H665 C697 0.928 . S
O666 Co650 2.057 . S
O666 C654 1.232 . S
H667 C686 0.929 . S
H668 C687 0.929 . S
H669 C699 0.931 . S
H670 C691 0.929 . S
H671 C700 0.930 . S
H672 C692 0.931 . S
O673 Co649 2.097 . S
O673 C701 1.214 . S
H674 C702 0.929 . S
H675 C703 0.929 . S
H676 C704 0.930 . S
H677 C705 0.929 . S
H678 C707 0.930 . S
H679 C684 0.930 . S
H680 C688 0.930 . S
O681 Co650 2.037 . S
O681 C701 1.234 . S
C682 O656 1.269 . S
C682 O657 1.257 . S
C683 H658 0.930 . S
C683 C686 1.388 . S
C683 C688 1.418 . S
C684 H679 0.930 . S
C684 C687 1.404 . S
C684 C688 1.353 . S
N685 Co650 2.145 . S
N685 C686 1.397 . S
N685 C687 1.334 . S
C686 H667 0.929 . S
C686 C683 1.388 . S
C686 N685 1.397 . S
C687 H668 0.929 . S
C687 C684 1.404 . S
C687 N685 1.334 . S
C688 H680 0.930 . S
C688 C683 1.418 . S
C688 C684 1.353 . S
C689 H659 0.930 . S
C689 N690 1.330 . S
C689 C691 1.446 . S
N690 Co649 2.151 . S
N690 C689 1.330 . S
N690 C694 1.418 . S
C691 H670 0.929 . S
C691 C689 1.446 . S
C691 C692 1.332 . S
C692 H672 0.931 . S
C692 C691 1.332 . S
C692 C693 1.267 . S
C693 H661 0.929 . S
C693 C692 1.267 . S
C693 C694 1.251 . S
C694 H664 0.929 . S
C694 N690 1.418 . S
C694 C693 1.251 . S
C695 H662 0.930 . S
C695 C697 1.406 . S
C695 C700 1.261 . S
C696 H663 0.930 . S
C696 N698 1.325 . S
C696 C699 1.357 . S
C697 H665 0.928 . S
C697 C695 1.406 . S
C697 N698 1.261 . S
N698 Co649 2.214 . S
N698 C696 1.325 . S
N698 C697 1.261 . S
C699 H669 0.931 . S
C699 C696 1.357 . S
C699 C700 1.312 . S
C700 H671 0.930 . S
C700 C695 1.261 . S
C700 C699 1.312 . S
C701 O673 1.214 . S
C701 O681 1.234 . S
C702 H674 0.929 . S
C702 C705 1.391 . S
C702 C707 1.391 . S
C703 H675 0.929 . S
C703 C704 1.390 . S
C703 N706 1.391 . S
C704 H676 0.930 . S
C704 C703 1.390 . S
C704 C705 1.392 . S
C705 H677 0.929 . S
C705 C702 1.391 . S
C705 C704 1.392 . S
N706 Co650 2.257 . S
N706 C703 1.391 . S
N706 C707 1.388 . S
C707 H678 0.930 . S
C707 C702 1.391 . S
C707 N706 1.388 . S
Co708 O710 2.143 . S
Co708 O716 2.074 . S
Co708 O719 2.093 . S
Co708 O732 2.097 . S
Co708 N749 2.151 . S
Co708 N757 2.214 . S
Co709 O710 2.160 . S
Co709 O715 2.058 . S
Co709 O725 2.057 . S
Co709 O740 2.037 . S
Co709 N744 2.145 . S
Co709 N765 2.257 . S
O710 Co708 2.143 . S
O710 Co709 2.160 . S
C711 O712 1.278 . S
C711 O719 1.224 . S
O712 C711 1.278 . S
C713 O714 1.245 . S
C713 O725 1.232 . S
O714 C713 1.245 . S
O715 Co709 2.058 . S
O715 C741 1.269 . S
O716 Co708 2.074 . S
O716 C741 1.257 . S
H717 C742 0.930 . S
H718 C748 0.930 . S
O719 Co708 2.093 . S
O719 C711 1.224 . S
H720 C752 0.929 . S
H721 C754 0.930 . S
H722 C755 0.930 . S
H723 C753 0.929 . S
H724 C756 0.928 . S
O725 Co709 2.057 . S
O725 C713 1.232 . S
H726 C745 0.929 . S
H727 C746 0.929 . S
H728 C758 0.931 . S
H729 C750 0.929 . S
H730 C759 0.930 . S
H731 C751 0.931 . S
O732 Co708 2.097 . S
O732 C760 1.214 . S
H733 C761 0.929 . S
H734 C762 0.929 . S
H735 C763 0.930 . S
H736 C764 0.929 . S
H737 C766 0.930 . S
H738 C743 0.930 . S
H739 C747 0.930 . S
O740 Co709 2.037 . S
O740 C760 1.234 . S
C741 O715 1.269 . S
C741 O716 1.257 . S
C742 H717 0.930 . S
C742 C745 1.388 1_554 S
C742 C747 1.418 . S
C743 H738 0.930 . S
C743 C746 1.404 1_554 S
C743 C747 1.353 . S
N744 Co709 2.145 . S
N744 C745 1.397 . S
N744 C746 1.334 . S
C745 H726 0.929 . S
C745 C742 1.388 1_556 S
C745 N744 1.397 . S
C746 H727 0.929 . S
C746 C743 1.404 1_556 S
C746 N744 1.334 . S
C747 H739 0.930 . S
C747 C742 1.418 . S
C747 C743 1.353 . S
C748 H718 0.930 . S
C748 N749 1.330 . S
C748 C750 1.446 . S
N749 Co708 2.151 . S
N749 C748 1.330 . S
N749 C753 1.418 . S
C750 H729 0.929 . S
C750 C748 1.446 . S
C750 C751 1.332 . S
C751 H731 0.931 . S
C751 C750 1.332 . S
C751 C752 1.267 . S
C752 H720 0.929 . S
C752 C751 1.267 . S
C752 C753 1.251 . S
C753 H723 0.929 . S
C753 N749 1.418 . S
C753 C752 1.251 . S
C754 H721 0.930 . S
C754 C756 1.406 . S
C754 C759 1.261 . S
C755 H722 0.930 . S
C755 N757 1.325 . S
C755 C758 1.357 . S
C756 H724 0.928 . S
C756 C754 1.406 . S
C756 N757 1.261 . S
N757 Co708 2.214 . S
N757 C755 1.325 . S
N757 C756 1.261 . S
C758 H728 0.931 . S
C758 C755 1.357 . S
C758 C759 1.312 . S
C759 H730 0.930 . S
C759 C754 1.261 . S
C759 C758 1.312 . S
C760 O732 1.214 . S
C760 O740 1.234 . S
C761 H733 0.929 . S
C761 C764 1.391 . S
C761 C766 1.391 . S
C762 H734 0.929 . S
C762 C763 1.390 . S
C762 N765 1.391 . S
C763 H735 0.930 . S
C763 C762 1.390 . S
C763 C764 1.392 . S
C764 H736 0.929 . S
C764 C761 1.391 . S
C764 C763 1.392 . S
N765 Co709 2.257 . S
N765 C762 1.391 . S
N765 C766 1.388 . S
C766 H737 0.930 . S
C766 C761 1.391 . S
C766 N765 1.388 . S
Co767 O769 2.143 . S
Co767 O775 2.074 . S
Co767 O778 2.093 . S
Co767 O791 2.097 . S
Co767 N808 2.151 . S
Co767 N816 2.214 . S
Co768 O769 2.160 . S
Co768 O774 2.058 . S
Co768 O784 2.057 . S
Co768 O799 2.037 . S
Co768 N803 2.145 . S
Co768 N824 2.257 . S
O769 Co767 2.143 . S
O769 Co768 2.160 . S
C770 O771 1.278 . S
C770 O778 1.224 . S
O771 C770 1.278 . S
C772 O773 1.245 . S
C772 O784 1.232 . S
O773 C772 1.245 . S
O774 Co768 2.058 . S
O774 C800 1.269 . S
O775 Co767 2.074 . S
O775 C800 1.257 . S
H776 C801 0.930 . S
H777 C807 0.930 . S
O778 Co767 2.093 . S
O778 C770 1.224 . S
H779 C811 0.929 . S
H780 C813 0.930 . S
H781 C814 0.930 . S
H782 C812 0.929 . S
H783 C815 0.928 . S
O784 Co768 2.057 . S
O784 C772 1.232 . S
H785 C804 0.929 . S
H786 C805 0.929 . S
H787 C817 0.931 . S
H788 C809 0.929 . S
H789 C818 0.930 . S
H790 C810 0.931 . S
O791 Co767 2.097 . S
O791 C819 1.214 . S
H792 C820 0.929 . S
H793 C821 0.929 . S
H794 C822 0.930 . S
H795 C823 0.929 . S
H796 C825 0.930 . S
H797 C802 0.930 . S
H798 C806 0.930 . S
O799 Co768 2.037 . S
O799 C819 1.234 . S
C800 O774 1.269 . S
C800 O775 1.257 . S
C801 H776 0.930 . S
C801 C804 1.388 . S
C801 C806 1.418 . S
C802 H797 0.930 . S
C802 C805 1.404 . S
C802 C806 1.353 . S
N803 Co768 2.145 . S
N803 C804 1.397 . S
N803 C805 1.334 . S
C804 H785 0.929 . S
C804 C801 1.388 . S
C804 N803 1.397 . S
C805 H786 0.929 . S
C805 C802 1.404 . S
C805 N803 1.334 . S
C806 H798 0.930 . S
C806 C801 1.418 . S
C806 C802 1.353 . S
C807 H777 0.930 . S
C807 N808 1.330 . S
C807 C809 1.446 . S
N808 Co767 2.151 . S
N808 C807 1.330 . S
N808 C812 1.418 . S
C809 H788 0.929 . S
C809 C807 1.446 . S
C809 C810 1.332 . S
C810 H790 0.931 . S
C810 C809 1.332 . S
C810 C811 1.267 . S
C811 H779 0.929 . S
C811 C810 1.267 . S
C811 C812 1.251 . S
C812 H782 0.929 . S
C812 N808 1.418 . S
C812 C811 1.251 . S
C813 H780 0.930 . S
C813 C815 1.406 . S
C813 C818 1.261 . S
C814 H781 0.930 . S
C814 N816 1.325 . S
C814 C817 1.357 . S
C815 H783 0.928 . S
C815 C813 1.406 . S
C815 N816 1.261 . S
N816 Co767 2.214 . S
N816 C814 1.325 . S
N816 C815 1.261 . S
C817 H787 0.931 . S
C817 C814 1.357 . S
C817 C818 1.312 . S
C818 H789 0.930 . S
C818 C813 1.261 . S
C818 C817 1.312 . S
C819 O791 1.214 . S
C819 O799 1.234 . S
C820 H792 0.929 . S
C820 C823 1.391 . S
C820 C825 1.391 . S
C821 H793 0.929 . S
C821 C822 1.390 . S
C821 N824 1.391 . S
C822 H794 0.930 . S
C822 C821 1.390 . S
C822 C823 1.392 . S
C823 H795 0.929 . S
C823 C820 1.391 . S
C823 C822 1.392 . S
N824 Co768 2.257 . S
N824 C821 1.391 . S
N824 C825 1.388 . S
C825 H796 0.930 . S
C825 C820 1.391 . S
C825 N824 1.388 . S
Co826 O828 2.143 . S
Co826 O834 2.074 . S
Co826 O837 2.093 . S
Co826 O850 2.097 . S
Co826 N867 2.151 . S
Co826 N875 2.214 . S
Co827 O828 2.160 . S
Co827 O833 2.058 . S
Co827 O843 2.057 . S
Co827 O858 2.037 . S
Co827 N862 2.145 . S
Co827 N883 2.257 . S
O828 Co826 2.143 . S
O828 Co827 2.160 . S
C829 O830 1.278 . S
C829 O837 1.224 . S
O830 C829 1.278 . S
C831 O832 1.245 . S
C831 O843 1.232 . S
O832 C831 1.245 . S
O833 Co827 2.058 . S
O833 C859 1.269 . S
O834 Co826 2.074 . S
O834 C859 1.257 . S
H835 C860 0.930 . S
H836 C866 0.930 . S
O837 Co826 2.093 . S
O837 C829 1.224 . S
H838 C870 0.929 . S
H839 C872 0.930 . S
H840 C873 0.930 . S
H841 C871 0.929 . S
H842 C874 0.928 . S
O843 Co827 2.057 . S
O843 C831 1.232 . S
H844 C863 0.929 . S
H845 C864 0.929 . S
H846 C876 0.931 . S
H847 C868 0.929 . S
H848 C877 0.930 . S
H849 C869 0.931 . S
O850 Co826 2.097 . S
O850 C878 1.214 . S
H851 C879 0.929 . S
H852 C880 0.929 . S
H853 C881 0.930 . S
H854 C882 0.929 . S
H855 C884 0.930 . S
H856 C861 0.930 . S
H857 C865 0.930 . S
O858 Co827 2.037 . S
O858 C878 1.234 . S
C859 O833 1.269 . S
C859 O834 1.257 . S
C860 H835 0.930 . S
C860 C863 1.388 1_556 S
C860 C865 1.418 . S
C861 H856 0.930 . S
C861 C864 1.404 1_556 S
C861 C865 1.353 . S
N862 Co827 2.145 . S
N862 C863 1.397 . S
N862 C864 1.334 . S
C863 H844 0.929 . S
C863 C860 1.388 1_554 S
C863 N862 1.397 . S
C864 H845 0.929 . S
C864 C861 1.404 1_554 S
C864 N862 1.334 . S
C865 H857 0.930 . S
C865 C860 1.418 . S
C865 C861 1.353 . S
C866 H836 0.930 . S
C866 N867 1.330 . S
C866 C868 1.446 . S
N867 Co826 2.151 . S
N867 C866 1.330 . S
N867 C871 1.418 . S
C868 H847 0.929 . S
C868 C866 1.446 . S
C868 C869 1.332 . S
C869 H849 0.931 . S
C869 C868 1.332 . S
C869 C870 1.267 . S
C870 H838 0.929 . S
C870 C869 1.267 . S
C870 C871 1.251 . S
C871 H841 0.929 . S
C871 N867 1.418 . S
C871 C870 1.251 . S
C872 H839 0.930 . S
C872 C874 1.406 . S
C872 C877 1.261 . S
C873 H840 0.930 . S
C873 N875 1.325 . S
C873 C876 1.357 . S
C874 H842 0.928 . S
C874 C872 1.406 . S
C874 N875 1.261 . S
N875 Co826 2.214 . S
N875 C873 1.325 . S
N875 C874 1.261 . S
C876 H846 0.931 . S
C876 C873 1.357 . S
C876 C877 1.312 . S
C877 H848 0.930 . S
C877 C872 1.261 . S
C877 C876 1.312 . S
C878 O850 1.214 . S
C878 O858 1.234 . S
C879 H851 0.929 . S
C879 C882 1.391 . S
C879 C884 1.391 . S
C880 H852 0.929 . S
C880 C881 1.390 . S
C880 N883 1.391 . S
C881 H853 0.930 . S
C881 C880 1.390 . S
C881 C882 1.392 . S
C882 H854 0.929 . S
C882 C879 1.391 . S
C882 C881 1.392 . S
N883 Co827 2.257 . S
N883 C880 1.391 . S
N883 C884 1.388 . S
C884 H855 0.930 . S
C884 C879 1.391 . S
C884 N883 1.388 . S
Co885 O887 2.143 . S
Co885 O893 2.074 . S
Co885 O896 2.093 . S
Co885 O909 2.097 . S
Co885 N926 2.151 . S
Co885 N934 2.214 . S
Co886 O887 2.160 . S
Co886 O892 2.058 . S
Co886 O902 2.057 . S
Co886 O917 2.037 . S
Co886 N921 2.145 . S
Co886 N942 2.257 . S
O887 Co885 2.143 . S
O887 Co886 2.160 . S
C888 O889 1.278 . S
C888 O896 1.224 . S
O889 C888 1.278 . S
C890 O891 1.245 . S
C890 O902 1.232 . S
O891 C890 1.245 . S
O892 Co886 2.058 . S
O892 C918 1.269 . S
O893 Co885 2.074 . S
O893 C918 1.257 . S
H894 C919 0.930 . S
H895 C925 0.930 . S
O896 Co885 2.093 . S
O896 C888 1.224 . S
H897 C929 0.929 . S
H898 C931 0.930 . S
H899 C932 0.930 . S
H900 C930 0.929 . S
H901 C933 0.928 . S
O902 Co886 2.057 . S
O902 C890 1.232 . S
H903 C922 0.929 . S
H904 C923 0.929 . S
H905 C935 0.931 . S
H906 C927 0.929 . S
H907 C936 0.930 . S
H908 C928 0.931 . S
O909 Co885 2.097 . S
O909 C937 1.214 . S
H910 C938 0.929 . S
H911 C939 0.929 . S
H912 C940 0.930 . S
H913 C941 0.929 . S
H914 C943 0.930 . S
H915 C920 0.930 . S
H916 C924 0.930 . S
O917 Co886 2.037 . S
O917 C937 1.234 . S
C918 O892 1.269 . S
C918 O893 1.257 . S
C919 H894 0.930 . S
C919 C922 1.388 . S
C919 C924 1.418 . S
C920 H915 0.930 . S
C920 C923 1.404 . S
C920 C924 1.353 . S
N921 Co886 2.145 . S
N921 C922 1.397 . S
N921 C923 1.334 . S
C922 H903 0.929 . S
C922 C919 1.388 . S
C922 N921 1.397 . S
C923 H904 0.929 . S
C923 C920 1.404 . S
C923 N921 1.334 . S
C924 H916 0.930 . S
C924 C919 1.418 . S
C924 C920 1.353 . S
C925 H895 0.930 . S
C925 N926 1.330 . S
C925 C927 1.446 . S
N926 Co885 2.151 . S
N926 C925 1.330 . S
N926 C930 1.418 . S
C927 H906 0.929 . S
C927 C925 1.446 . S
C927 C928 1.332 . S
C928 H908 0.931 . S
C928 C927 1.332 . S
C928 C929 1.267 . S
C929 H897 0.929 . S
C929 C928 1.267 . S
C929 C930 1.251 . S
C930 H900 0.929 . S
C930 N926 1.418 . S
C930 C929 1.251 . S
C931 H898 0.930 . S
C931 C933 1.406 . S
C931 C936 1.261 . S
C932 H899 0.930 . S
C932 N934 1.325 . S
C932 C935 1.357 . S
C933 H901 0.928 . S
C933 C931 1.406 . S
C933 N934 1.261 . S
N934 Co885 2.214 . S
N934 C932 1.325 . S
N934 C933 1.261 . S
C935 H905 0.931 . S
C935 C932 1.357 . S
C935 C936 1.312 . S
C936 H907 0.930 . S
C936 C931 1.261 . S
C936 C935 1.312 . S
C937 O909 1.214 . S
C937 O917 1.234 . S
C938 H910 0.929 . S
C938 C941 1.391 . S
C938 C943 1.391 . S
C939 H911 0.929 . S
C939 C940 1.390 . S
C939 N942 1.391 . S
C940 H912 0.930 . S
C940 C939 1.390 . S
C940 C941 1.392 . S
C941 H913 0.929 . S
C941 C938 1.391 . S
C941 C940 1.392 . S
N942 Co886 2.257 . S
N942 C939 1.391 . S
N942 C943 1.388 . S
C943 H914 0.930 . S
C943 C938 1.391 . S
C943 N942 1.388 . S
H944 C962 0.951 . S
H945 C964 0.951 . S
H946 C966 0.950 . S
H947 C967 0.950 . S
H948 C969 0.936 1_556 S
H949 C972 0.950 . S
H950 C973 0.950 . S
H951 C975 0.950 . S
H952 C976 0.950 . S
H953 C977 0.951 . S
H954 C979 0.951 . S
H955 C981 0.950 1_554 S
H956 C982 0.950 . S
H957 C984 0.950 . S
H958 C987 0.950 . S
H959 C988 0.950 . S
H960 C990 0.950 . S
H961 C991 0.950 . S
C962 H944 0.951 . S
C962 C963 1.366 . S
C962 C964 1.388 . S
C963 C962 1.366 . S
C963 C967 1.385 . S
C964 H945 0.951 . S
C964 C962 1.388 . S
C964 C965 1.366 . S
C965 C964 1.366 . S
C965 C966 1.414 . S
C965 C968 1.499 . S
C966 H946 0.950 . S
C966 C965 1.414 . S
C966 C967 1.374 . S
C967 H947 0.950 . S
C967 C963 1.385 . S
C967 C966 1.374 . S
C968 C965 1.499 . S
C968 C969 1.402 . S
C968 C970 1.389 . S
C969 H948 0.936 1_554 S
C969 C968 1.402 . S
C969 C985 1.362 1_554 S
C970 C968 1.389 . S
C970 C971 1.524 . S
C970 C984 1.377 . S
C971 C970 1.524 . S
C971 C972 1.397 . S
C971 C976 1.363 . S
C972 H949 0.950 . S
C972 C971 1.397 . S
C972 C973 1.334 . S
C973 H950 0.950 . S
C973 C972 1.334 . S
C973 C974 1.287 . S
C974 C973 1.287 . S
C974 C975 1.524 . S
C974 H993 0.913 . S
C975 H951 0.950 . S
C975 C974 1.524 . S
C975 C976 1.415 . S
C976 H952 0.950 . S
C976 C971 1.363 . S
C976 C975 1.415 . S
C977 H953 0.951 . S
C977 C978 1.366 . S
C977 C979 1.388 . S
C978 C977 1.366 . S
C978 C982 1.385 . S
C979 H954 0.951 . S
C979 C977 1.388 . S
C979 C980 1.366 . S
C980 C979 1.366 . S
C980 C981 1.414 . S
C980 C983 1.490 1_556 S
C981 H955 0.950 1_556 S
C981 C980 1.414 . S
C981 C982 1.374 . S
C982 H956 0.950 . S
C982 C978 1.385 . S
C982 C981 1.374 . S
C983 C980 1.490 1_554 S
C983 C984 1.391 . S
C983 C985 1.381 1_554 S
C984 H957 0.950 . S
C984 C970 1.377 . S
C984 C983 1.391 . S
C985 C969 1.362 1_556 S
C985 C983 1.381 1_556 S
C985 C986 1.524 . S
C986 C985 1.524 . S
C986 C987 1.397 . S
C986 C991 1.363 . S
C987 H958 0.950 . S
C987 C986 1.397 . S
C987 C988 1.334 . S
C988 H959 0.950 . S
C988 C987 1.334 . S
C988 C989 1.287 . S
C989 C988 1.287 . S
C989 C990 1.524 . S
C989 H992 0.999 . S
C990 H960 0.950 . S
C990 C989 1.524 . S
C990 C991 1.415 . S
C991 H961 0.950 . S
C991 C986 1.363 . S
C991 C990 1.415 . S
H992 C989 0.999 . S
H993 C974 0.913 . S
H994 C1012 0.951 . S
H995 C1014 0.951 . S
H996 C1016 0.950 . S
H997 C1017 0.950 . S
H998 C1019 0.950 . S
H999 C1022 0.950 . S
H1000 C1023 0.950 . S
H1001 C1025 0.950 . S
H1002 C1026 0.950 . S
H1003 C1027 0.951 . S
H1004 C1029 0.951 . S
H1005 C1031 0.950 . S
H1006 C1032 0.950 . S
H1007 C1034 0.950 . S
H1008 C1037 0.950 . S
H1009 C1038 0.950 . S
H1010 C1040 0.950 . S
H1011 C1041 0.950 . S
C1012 H994 0.951 . S
C1012 C1013 1.366 . S
C1012 C1014 1.388 . S
C1013 C1012 1.366 . S
C1013 C1017 1.385 . S
C1014 H995 0.951 . S
C1014 C1012 1.388 . S
C1014 C1015 1.366 . S
C1015 C1014 1.366 . S
C1015 C1016 1.414 . S
C1015 C1018 1.499 . S
C1016 H996 0.950 . S
C1016 C1015 1.414 . S
C1016 C1017 1.374 . S
C1017 H997 0.950 . S
C1017 C1013 1.385 . S
C1017 C1016 1.374 . S
C1018 C1015 1.499 . S
C1018 C1019 1.373 . S
C1018 C1020 1.389 . S
C1019 H998 0.950 . S
C1019 C1018 1.373 . S
C1019 C1035 1.377 . S
C1020 C1018 1.389 . S
C1020 C1021 1.524 . S
C1020 C1034 1.377 . S
C1021 C1020 1.524 . S
C1021 C1022 1.397 . S
C1021 C1026 1.363 . S
C1022 H999 0.950 . S
C1022 C1021 1.397 . S
C1022 C1023 1.334 . S
C1023 H1000 0.950 . S
C1023 C1022 1.334 . S
C1023 C1024 1.287 . S
C1024 C1023 1.287 . S
C1024 C1025 1.524 . S
C1024 H1043 0.913 . S
C1025 H1001 0.950 . S
C1025 C1024 1.524 . S
C1025 C1026 1.415 . S
C1026 H1002 0.950 . S
C1026 C1021 1.363 . S
C1026 C1025 1.415 . S
C1027 H1003 0.951 . S
C1027 C1028 1.366 . S
C1027 C1029 1.388 . S
C1028 C1027 1.366 . S
C1028 C1032 1.385 . S
C1029 H1004 0.951 . S
C1029 C1027 1.388 . S
C1029 C1030 1.366 . S
C1030 C1029 1.366 . S
C1030 C1031 1.414 . S
C1030 C1033 1.499 . S
C1031 H1005 0.950 . S
C1031 C1030 1.414 . S
C1031 C1032 1.374 . S
C1032 H1006 0.950 . S
C1032 C1028 1.385 . S
C1032 C1031 1.374 . S
C1033 C1030 1.499 . S
C1033 C1034 1.373 . S
C1033 C1035 1.389 . S
C1034 H1007 0.950 . S
C1034 C1020 1.377 . S
C1034 C1033 1.373 . S
C1035 C1019 1.377 . S
C1035 C1033 1.389 . S
C1035 C1036 1.524 . S
C1036 C1035 1.524 . S
C1036 C1037 1.397 . S
C1036 C1041 1.363 . S
C1037 H1008 0.950 . S
C1037 C1036 1.397 . S
C1037 C1038 1.334 . S
C1038 H1009 0.950 . S
C1038 C1037 1.334 . S
C1038 C1039 1.287 . S
C1039 C1038 1.287 . S
C1039 C1040 1.524 . S
C1039 H1042 0.999 . S
C1040 H1010 0.950 . S
C1040 C1039 1.524 . S
C1040 C1041 1.415 . S
C1041 H1011 0.950 . S
C1041 C1036 1.363 . S
C1041 C1040 1.415 . S
H1042 C1039 0.999 . S
H1043 C1024 0.913 . S
H1044 C1062 0.951 . S
H1045 C1064 0.951 . S
H1046 C1066 0.950 . S
H1047 C1067 0.950 . S
H1048 C1069 0.950 . S
H1049 C1072 0.950 1_554 S
H1050 C1073 0.950 1_554 S
H1051 C1075 0.950 . S
H1052 C1076 0.950 . S
H1053 C1077 0.951 . S
H1054 C1079 0.951 . S
H1055 C1081 0.950 1_556 S
H1056 C1082 0.950 . S
H1057 C1084 0.950 1_554 S
H1058 C1087 0.950 . S
H1059 C1088 0.950 . S
H1060 C1090 0.961 . S
H1061 C1091 0.950 1_554 S
C1062 H1044 0.951 . S
C1062 C1063 1.366 . S
C1062 C1064 1.388 . S
C1063 C1062 1.366 . S
C1063 C1067 1.385 . S
C1064 H1045 0.951 . S
C1064 C1062 1.388 . S
C1064 C1065 1.366 . S
C1065 C1064 1.366 . S
C1065 C1066 1.414 . S
C1065 C1068 1.499 . S
C1066 H1046 0.950 . S
C1066 C1065 1.414 . S
C1066 C1067 1.374 . S
C1067 H1047 0.950 . S
C1067 C1063 1.385 . S
C1067 C1066 1.374 . S
C1068 C1065 1.499 . S
C1068 C1069 1.373 . S
C1068 C1070 1.389 . S
C1069 H1048 0.950 . S
C1069 C1068 1.373 . S
C1069 C1085 1.377 . S
C1070 C1068 1.389 . S
C1070 C1071 1.524 . S
C1070 C1084 1.377 . S
C1071 C1070 1.524 . S
C1071 C1072 1.397 . S
C1071 C1076 1.363 . S
C1072 H1049 0.950 1_556 S
C1072 C1071 1.397 . S
C1072 C1073 1.334 . S
C1073 H1050 0.950 1_556 S
C1073 C1072 1.334 . S
C1073 C1074 1.287 . S
C1074 C1073 1.287 . S
C1074 C1075 1.524 . S
C1074 H1093 0.913 . S
C1075 H1051 0.950 . S
C1075 C1074 1.524 . S
C1075 C1076 1.415 . S
C1076 H1052 0.950 . S
C1076 C1071 1.363 . S
C1076 C1075 1.415 . S
C1077 H1053 0.951 . S
C1077 C1078 1.366 . S
C1077 C1079 1.388 . S
C1078 C1077 1.366 . S
C1078 C1082 1.385 . S
C1079 H1054 0.951 . S
C1079 C1077 1.388 . S
C1079 C1080 1.366 . S
C1080 C1079 1.366 . S
C1080 C1081 1.414 . S
C1080 C1083 1.499 1_554 S
C1081 H1055 0.950 1_554 S
C1081 C1080 1.414 . S
C1081 C1082 1.374 . S
C1082 H1056 0.950 . S
C1082 C1078 1.385 . S
C1082 C1081 1.374 . S
C1083 C1080 1.499 1_556 S
C1083 C1084 1.373 . S
C1083 C1085 1.389 . S
C1084 H1057 0.950 1_556 S
C1084 C1070 1.377 . S
C1084 C1083 1.373 . S
C1085 C1069 1.377 . S
C1085 C1083 1.389 . S
C1085 C1086 1.524 . S
C1086 C1085 1.524 . S
C1086 C1087 1.397 . S
C1086 C1091 1.363 . S
C1087 H1058 0.950 . S
C1087 C1086 1.397 . S
C1087 C1088 1.334 . S
C1088 H1059 0.950 . S
C1088 C1087 1.334 . S
C1088 C1089 1.287 . S
C1089 C1088 1.287 . S
C1089 C1090 1.524 . S
C1089 H1092 0.999 . S
C1090 H1060 0.961 . S
C1090 C1089 1.524 . S
C1090 C1091 1.415 . S
C1091 H1061 0.950 1_556 S
C1091 C1086 1.363 . S
C1091 C1090 1.415 . S
H1092 C1089 0.999 . S
H1093 C1074 0.913 . S
H1094 C1112 0.951 . S
H1095 C1114 0.951 . S
H1096 C1116 0.950 . S
H1097 C1117 0.950 . S
H1098 C1119 0.950 . S
H1099 C1122 0.950 . S
H1100 C1123 0.950 . S
H1101 C1125 0.950 . S
H1102 C1126 0.950 . S
H1103 C1127 0.951 . S
H1104 C1129 0.951 . S
H1105 C1131 0.950 . S
H1106 C1132 0.950 . S
H1107 C1134 0.950 . S
H1108 C1137 0.950 . S
H1109 C1138 0.950 . S
H1110 C1140 0.950 . S
H1111 C1141 0.950 . S
C1112 H1094 0.951 . S
C1112 C1113 1.366 . S
C1112 C1114 1.388 . S
C1113 C1112 1.366 . S
C1113 C1117 1.385 . S
C1114 H1095 0.951 . S
C1114 C1112 1.388 . S
C1114 C1115 1.366 . S
C1115 C1114 1.366 . S
C1115 C1116 1.414 . S
C1115 C1118 1.499 . S
C1116 H1096 0.950 . S
C1116 C1115 1.414 . S
C1116 C1117 1.374 . S
C1117 H1097 0.950 . S
C1117 C1113 1.385 . S
C1117 C1116 1.374 . S
C1118 C1115 1.499 . S
C1118 C1119 1.373 . S
C1118 C1120 1.389 . S
C1119 H1098 0.950 . S
C1119 C1118 1.373 . S
C1119 C1135 1.377 . S
C1120 C1118 1.389 . S
C1120 C1121 1.524 . S
C1120 C1134 1.377 . S
C1121 C1120 1.524 . S
C1121 C1122 1.397 . S
C1121 C1126 1.363 . S
C1122 H1099 0.950 . S
C1122 C1121 1.397 . S
C1122 C1123 1.334 . S
C1123 H1100 0.950 . S
C1123 C1122 1.334 . S
C1123 C1124 1.287 . S
C1124 C1123 1.287 . S
C1124 C1125 1.524 . S
C1124 H1143 0.913 . S
C1125 H1101 0.950 . S
C1125 C1124 1.524 . S
C1125 C1126 1.415 . S
C1126 H1102 0.950 . S
C1126 C1121 1.363 . S
C1126 C1125 1.415 . S
C1127 H1103 0.951 . S
C1127 C1128 1.366 . S
C1127 C1129 1.388 . S
C1128 C1127 1.366 . S
C1128 C1132 1.385 . S
C1129 H1104 0.951 . S
C1129 C1127 1.388 . S
C1129 C1130 1.366 . S
C1130 C1129 1.366 . S
C1130 C1131 1.414 . S
C1130 C1133 1.499 . S
C1131 H1105 0.950 . S
C1131 C1130 1.414 . S
C1131 C1132 1.374 . S
C1132 H1106 0.950 . S
C1132 C1128 1.385 . S
C1132 C1131 1.374 . S
C1133 C1130 1.499 . S
C1133 C1134 1.373 . S
C1133 C1135 1.389 . S
C1134 H1107 0.950 . S
C1134 C1120 1.377 . S
C1134 C1133 1.373 . S
C1135 C1119 1.377 . S
C1135 C1133 1.389 . S
C1135 C1136 1.524 . S
C1136 C1135 1.524 . S
C1136 C1137 1.397 . S
C1136 C1141 1.363 . S
C1137 H1108 0.950 . S
C1137 C1136 1.397 . S
C1137 C1138 1.334 . S
C1138 H1109 0.950 . S
C1138 C1137 1.334 . S
C1138 C1139 1.287 . S
C1139 C1138 1.287 . S
C1139 C1140 1.524 . S
C1139 H1142 0.999 . S
C1140 H1110 0.950 . S
C1140 C1139 1.524 . S
C1140 C1141 1.415 . S
C1141 H1111 0.950 . S
C1141 C1136 1.363 . S
C1141 C1140 1.415 . S
H1142 C1139 0.999 . S
H1143 C1124 0.913 . S
H1144 C1162 0.951 . S
H1145 C1164 0.951 . S
H1146 C1166 0.950 . S
H1147 C1167 0.950 . S
H1148 C1169 0.940 1_556 S
H1149 C1172 0.950 . S
H1150 C1173 0.950 . S
H1151 C1175 0.950 . S
H1152 C1176 0.950 . S
H1153 C1177 0.951 . S
H1154 C1179 0.951 . S
H1155 C1181 0.950 1_554 S
H1156 C1182 0.950 . S
H1157 C1184 0.950 . S
H1158 C1187 0.950 . S
H1159 C1188 0.950 . S
H1160 C1190 0.950 . S
H1161 C1191 0.950 . S
C1162 H1144 0.951 . S
C1162 C1163 1.366 . S
C1162 C1164 1.388 . S
C1163 C1162 1.366 . S
C1163 C1167 1.385 . S
C1164 H1145 0.951 . S
C1164 C1162 1.388 . S
C1164 C1165 1.366 . S
C1165 C1164 1.366 . S
C1165 C1166 1.414 . S
C1165 C1168 1.499 . S
C1166 H1146 0.950 . S
C1166 C1165 1.414 . S
C1166 C1167 1.374 . S
C1167 H1147 0.950 . S
C1167 C1163 1.385 . S
C1167 C1166 1.374 . S
C1168 C1165 1.499 . S
C1168 C1169 1.394 . S
C1168 C1170 1.389 . S
C1169 H1148 0.940 1_554 S
C1169 C1168 1.394 . S
C1169 C1185 1.366 1_554 S
C1170 C1168 1.389 . S
C1170 C1171 1.524 . S
C1170 C1184 1.377 . S
C1171 C1170 1.524 . S
C1171 C1172 1.397 . S
C1171 C1176 1.363 . S
C1172 H1149 0.950 . S
C1172 C1171 1.397 . S
C1172 C1173 1.334 . S
C1173 H1150 0.950 . S
C1173 C1172 1.334 . S
C1173 C1174 1.287 . S
C1174 C1173 1.287 . S
C1174 C1175 1.524 . S
C1174 H1193 0.913 . S
C1175 H1151 0.950 . S
C1175 C1174 1.524 . S
C1175 C1176 1.415 . S
C1176 H1152 0.950 . S
C1176 C1171 1.363 . S
C1176 C1175 1.415 . S
C1177 H1153 0.951 . S
C1177 C1178 1.366 . S
C1177 C1179 1.388 . S
C1178 C1177 1.366 . S
C1178 C1182 1.385 . S
C1179 H1154 0.951 . S
C1179 C1177 1.388 . S
C1179 C1180 1.366 . S
C1180 C1179 1.366 . S
C1180 C1181 1.414 . S
C1180 C1183 1.494 1_556 S
C1181 H1155 0.950 1_556 S
C1181 C1180 1.414 . S
C1181 C1182 1.374 . S
C1182 H1156 0.950 . S
C1182 C1178 1.385 . S
C1182 C1181 1.374 . S
C1183 C1180 1.494 1_554 S
C1183 C1184 1.382 . S
C1183 C1185 1.385 1_554 S
C1184 H1157 0.950 . S
C1184 C1170 1.377 . S
C1184 C1183 1.382 . S
C1185 C1169 1.366 1_556 S
C1185 C1183 1.385 1_556 S
C1185 C1186 1.524 . S
C1186 C1185 1.524 . S
C1186 C1187 1.397 . S
C1186 C1191 1.363 . S
C1187 H1158 0.950 . S
C1187 C1186 1.397 . S
C1187 C1188 1.334 . S
C1188 H1159 0.950 . S
C1188 C1187 1.334 . S
C1188 C1189 1.287 . S
C1189 C1188 1.287 . S
C1189 C1190 1.524 . S
C1189 H1192 0.999 . S
C1190 H1160 0.950 . S
C1190 C1189 1.524 . S
C1190 C1191 1.415 . S
C1191 H1161 0.950 . S
C1191 C1186 1.363 . S
C1191 C1190 1.415 . S
H1192 C1189 0.999 . S
H1193 C1174 0.913 . S
H1194 C1212 0.951 . S
H1195 C1214 0.951 . S
H1196 C1216 0.950 . S
H1197 C1217 0.950 . S
H1198 C1219 0.950 . S
H1199 C1222 0.950 . S
H1200 C1223 0.950 . S
H1201 C1225 0.950 . S
H1202 C1226 0.950 . S
H1203 C1227 0.951 . S
H1204 C1229 0.951 . S
H1205 C1231 0.950 . S
H1206 C1232 0.950 . S
H1207 C1234 0.950 . S
H1208 C1237 0.950 . S
H1209 C1238 0.950 . S
H1210 C1240 0.950 . S
H1211 C1241 0.950 . S
C1212 H1194 0.951 . S
C1212 C1213 1.366 . S
C1212 C1214 1.388 . S
C1213 C1212 1.366 . S
C1213 C1217 1.385 . S
C1214 H1195 0.951 . S
C1214 C1212 1.388 . S
C1214 C1215 1.366 . S
C1215 C1214 1.366 . S
C1215 C1216 1.414 . S
C1215 C1218 1.499 . S
C1216 H1196 0.950 . S
C1216 C1215 1.414 . S
C1216 C1217 1.374 . S
C1217 H1197 0.950 . S
C1217 C1213 1.385 . S
C1217 C1216 1.374 . S
C1218 C1215 1.499 . S
C1218 C1219 1.373 . S
C1218 C1220 1.389 . S
C1219 H1198 0.950 . S
C1219 C1218 1.373 . S
C1219 C1235 1.377 . S
C1220 C1218 1.389 . S
C1220 C1221 1.524 . S
C1220 C1234 1.377 . S
C1221 C1220 1.524 . S
C1221 C1222 1.397 . S
C1221 C1226 1.363 . S
C1222 H1199 0.950 . S
C1222 C1221 1.397 . S
C1222 C1223 1.334 . S
C1223 H1200 0.950 . S
C1223 C1222 1.334 . S
C1223 C1224 1.287 . S
C1224 C1223 1.287 . S
C1224 C1225 1.524 . S
C1224 H1243 0.913 . S
C1225 H1201 0.950 . S
C1225 C1224 1.524 . S
C1225 C1226 1.415 . S
C1226 H1202 0.950 . S
C1226 C1221 1.363 . S
C1226 C1225 1.415 . S
C1227 H1203 0.951 . S
C1227 C1228 1.366 . S
C1227 C1229 1.388 . S
C1228 C1227 1.366 . S
C1228 C1232 1.385 . S
C1229 H1204 0.951 . S
C1229 C1227 1.388 . S
C1229 C1230 1.366 . S
C1230 C1229 1.366 . S
C1230 C1231 1.414 . S
C1230 C1233 1.499 . S
C1231 H1205 0.950 . S
C1231 C1230 1.414 . S
C1231 C1232 1.374 . S
C1232 H1206 0.950 . S
C1232 C1228 1.385 . S
C1232 C1231 1.374 . S
C1233 C1230 1.499 . S
C1233 C1234 1.373 . S
C1233 C1235 1.389 . S
C1234 H1207 0.950 . S
C1234 C1220 1.377 . S
C1234 C1233 1.373 . S
C1235 C1219 1.377 . S
C1235 C1233 1.389 . S
C1235 C1236 1.524 . S
C1236 C1235 1.524 . S
C1236 C1237 1.397 . S
C1236 C1241 1.363 . S
C1237 H1208 0.950 . S
C1237 C1236 1.397 . S
C1237 C1238 1.334 . S
C1238 H1209 0.950 . S
C1238 C1237 1.334 . S
C1238 C1239 1.287 . S
C1239 C1238 1.287 . S
C1239 C1240 1.524 . S
C1239 H1242 0.999 . S
C1240 H1210 0.950 . S
C1240 C1239 1.524 . S
C1240 C1241 1.415 . S
C1241 H1211 0.950 . S
C1241 C1236 1.363 . S
C1241 C1240 1.415 . S
H1242 C1239 0.999 . S
H1243 C1224 0.913 . S
H1244 C1262 0.951 . S
H1245 C1264 0.951 . S
H1246 C1266 0.950 . S
H1247 C1267 0.950 . S
H1248 C1269 0.950 . S
H1249 C1272 0.950 . S
H1250 C1273 0.950 . S
H1251 C1275 0.947 1_554 S
H1252 C1276 0.950 . S
H1253 C1277 0.951 . S
H1254 C1279 0.951 1_556 S
H1255 C1281 0.950 . S
H1256 C1282 0.950 . S
H1257 C1284 0.950 1_554 S
H1258 C1287 0.950 . S
H1259 C1288 0.950 . S
H1260 C1290 0.950 . S
H1261 C1291 0.950 . S
C1262 H1244 0.951 . S
C1262 C1263 1.366 . S
C1262 C1264 1.388 . S
C1263 C1262 1.366 . S
C1263 C1267 1.385 . S
C1264 H1245 0.951 . S
C1264 C1262 1.388 . S
C1264 C1265 1.366 . S
C1265 C1264 1.366 . S
C1265 C1266 1.414 . S
C1265 C1268 1.499 . S
C1266 H1246 0.950 . S
C1266 C1265 1.414 . S
C1266 C1267 1.374 . S
C1267 H1247 0.950 . S
C1267 C1263 1.385 . S
C1267 C1266 1.374 . S
C1268 C1265 1.499 . S
C1268 C1269 1.373 . S
C1268 C1270 1.389 . S
C1269 H1248 0.950 . S
C1269 C1268 1.373 . S
C1269 C1285 1.377 . S
C1270 C1268 1.389 . S
C1270 C1271 1.524 . S
C1270 C1284 1.377 . S
C1271 C1270 1.524 . S
C1271 C1272 1.397 . S
C1271 C1276 1.363 1_556 S
C1272 H1249 0.950 . S
C1272 C1271 1.397 . S
C1272 C1273 1.334 . S
C1273 H1250 0.950 . S
C1273 C1272 1.334 . S
C1273 C1274 1.287 . S
C1274 C1273 1.287 . S
C1274 C1275 1.528 . S
C1274 H1293 0.913 . S
C1275 H1251 0.947 1_556 S
C1275 C1274 1.528 . S
C1275 C1276 1.414 1_556 S
C1276 H1252 0.950 . S
C1276 C1271 1.363 1_554 S
C1276 C1275 1.414 1_554 S
C1277 H1253 0.951 . S
C1277 C1278 1.366 . S
C1277 C1279 1.388 . S
C1278 C1277 1.366 . S
C1278 C1282 1.385 . S
C1279 H1254 0.951 1_554 S
C1279 C1277 1.388 . S
C1279 C1280 1.366 . S
C1280 C1279 1.366 . S
C1280 C1281 1.414 . S
C1280 C1283 1.509 . S
C1281 H1255 0.950 . S
C1281 C1280 1.414 . S
C1281 C1282 1.374 . S
C1282 H1256 0.950 . S
C1282 C1278 1.385 . S
C1282 C1281 1.374 . S
C1283 C1280 1.509 . S
C1283 C1284 1.372 1_554 S
C1283 C1285 1.379 1_554 S
C1284 H1257 0.950 1_556 S
C1284 C1270 1.377 . S
C1284 C1283 1.372 1_556 S
C1285 C1269 1.377 . S
C1285 C1283 1.379 1_556 S
C1285 C1286 1.524 . S
C1286 C1285 1.524 . S
C1286 C1287 1.397 1_556 S
C1286 C1291 1.363 . S
C1287 H1258 0.950 . S
C1287 C1286 1.397 1_554 S
C1287 C1288 1.334 . S
C1288 H1259 0.950 . S
C1288 C1287 1.334 . S
C1288 C1289 1.287 . S
C1289 C1288 1.287 . S
C1289 C1290 1.524 1_554 S
C1289 H1292 0.999 . S
C1290 H1260 0.950 . S
C1290 C1289 1.524 1_556 S
C1290 C1291 1.415 . S
C1291 H1261 0.950 . S
C1291 C1286 1.363 . S
C1291 C1290 1.415 . S
H1292 C1289 0.999 . S
H1293 C1274 0.913 . S
H1294 C1312 0.951 . S
H1295 C1314 0.951 . S
H1296 C1316 0.950 . S
H1297 C1317 0.950 . S
H1298 C1319 0.950 . S
H1299 C1322 0.950 . S
H1300 C1323 0.950 . S
H1301 C1325 0.950 . S
H1302 C1326 0.950 . S
H1303 C1327 0.951 . S
H1304 C1329 0.951 . S
H1305 C1331 0.950 . S
H1306 C1332 0.950 . S
H1307 C1334 0.950 . S
H1308 C1337 0.950 . S
H1309 C1338 0.950 . S
H1310 C1340 0.950 . S
H1311 C1341 0.950 . S
C1312 H1294 0.951 . S
C1312 C1313 1.366 . S
C1312 C1314 1.388 . S
C1313 C1312 1.366 . S
C1313 C1317 1.385 . S
C1314 H1295 0.951 . S
C1314 C1312 1.388 . S
C1314 C1315 1.366 . S
C1315 C1314 1.366 . S
C1315 C1316 1.414 . S
C1315 C1318 1.499 . S
C1316 H1296 0.950 . S
C1316 C1315 1.414 . S
C1316 C1317 1.374 . S
C1317 H1297 0.950 . S
C1317 C1313 1.385 . S
C1317 C1316 1.374 . S
C1318 C1315 1.499 . S
C1318 C1319 1.373 . S
C1318 C1320 1.389 . S
C1319 H1298 0.950 . S
C1319 C1318 1.373 . S
C1319 C1335 1.377 . S
C1320 C1318 1.389 . S
C1320 C1321 1.524 . S
C1320 C1334 1.377 . S
C1321 C1320 1.524 . S
C1321 C1322 1.397 . S
C1321 C1326 1.363 . S
C1322 H1299 0.950 . S
C1322 C1321 1.397 . S
C1322 C1323 1.334 . S
C1323 H1300 0.950 . S
C1323 C1322 1.334 . S
C1323 C1324 1.287 . S
C1324 C1323 1.287 . S
C1324 C1325 1.524 . S
C1324 H1343 0.913 . S
C1325 H1301 0.950 . S
C1325 C1324 1.524 . S
C1325 C1326 1.415 . S
C1326 H1302 0.950 . S
C1326 C1321 1.363 . S
C1326 C1325 1.415 . S
C1327 H1303 0.951 . S
C1327 C1328 1.366 . S
C1327 C1329 1.388 . S
C1328 C1327 1.366 . S
C1328 C1332 1.385 . S
C1329 H1304 0.951 . S
C1329 C1327 1.388 . S
C1329 C1330 1.366 . S
C1330 C1329 1.366 . S
C1330 C1331 1.414 . S
C1330 C1333 1.499 . S
C1331 H1305 0.950 . S
C1331 C1330 1.414 . S
C1331 C1332 1.374 . S
C1332 H1306 0.950 . S
C1332 C1328 1.385 . S
C1332 C1331 1.374 . S
C1333 C1330 1.499 . S
C1333 C1334 1.373 . S
C1333 C1335 1.389 . S
C1334 H1307 0.950 . S
C1334 C1320 1.377 . S
C1334 C1333 1.373 . S
C1335 C1319 1.377 . S
C1335 C1333 1.389 . S
C1335 C1336 1.524 . S
C1336 C1335 1.524 . S
C1336 C1337 1.397 . S
C1336 C1341 1.363 . S
C1337 H1308 0.950 . S
C1337 C1336 1.397 . S
C1337 C1338 1.334 . S
C1338 H1309 0.950 . S
C1338 C1337 1.334 . S
C1338 C1339 1.287 . S
C1339 C1338 1.287 . S
C1339 C1340 1.524 . S
C1339 H1342 0.999 . S
C1340 H1310 0.950 . S
C1340 C1339 1.524 . S
C1340 C1341 1.415 . S
C1341 H1311 0.950 . S
C1341 C1336 1.363 . S
C1341 C1340 1.415 . S
H1342 C1339 0.999 . S
H1343 C1324 0.913 . S
H1344 C1362 0.951 . S
H1345 C1364 0.951 . S
H1346 C1366 0.950 . S
H1347 C1367 0.950 . S
H1348 C1369 0.950 . S
H1349 C1372 0.950 1_556 S
H1350 C1373 0.944 1_556 S
H1351 C1375 0.950 . S
H1352 C1376 0.950 1_565 S
H1353 C1377 0.951 . S
H1354 C1379 0.951 . S
H1355 C1381 0.950 . S
H1356 C1382 0.950 . S
H1357 C1384 0.950 . S
H1358 C1387 0.950 1_554 S
H1359 C1388 0.944 1_554 S
H1360 C1390 0.950 . S
H1361 C1391 0.950 1_545 S
C1362 H1344 0.951 . S
C1362 C1363 1.366 . S
C1362 C1364 1.388 . S
C1363 C1362 1.366 . S
C1363 C1367 1.385 . S
C1364 H1345 0.951 . S
C1364 C1362 1.388 . S
C1364 C1365 1.366 . S
C1365 C1364 1.366 . S
C1365 C1366 1.414 . S
C1365 C1368 1.499 . S
C1366 H1346 0.950 . S
C1366 C1365 1.414 . S
C1366 C1367 1.374 . S
C1367 H1347 0.950 . S
C1367 C1363 1.385 . S
C1367 C1366 1.374 . S
C1368 C1365 1.499 . S
C1368 C1369 1.373 . S
C1368 C1370 1.389 . S
C1369 H1348 0.950 . S
C1369 C1368 1.373 . S
C1369 C1385 1.377 1_544 S
C1370 C1368 1.389 . S
C1370 C1371 1.524 . S
C1370 C1384 1.377 1_544 S
C1371 C1370 1.524 . S
C1371 C1372 1.397 . S
C1371 C1376 1.363 . S
C1372 H1349 0.950 1_554 S
C1372 C1371 1.397 . S
C1372 C1373 1.334 . S
C1373 H1350 0.944 1_554 S
C1373 C1372 1.334 . S
C1373 C1374 1.287 . S
C1374 C1373 1.287 . S
C1374 C1375 1.524 . S
C1374 H1393 0.913 . S
C1375 H1351 0.950 . S
C1375 C1374 1.524 . S
C1375 C1376 1.415 . S
C1376 H1352 0.950 1_545 S
C1376 C1371 1.363 . S
C1376 C1375 1.415 . S
C1377 H1353 0.951 . S
C1377 C1378 1.366 . S
C1377 C1379 1.388 . S
C1378 C1377 1.366 . S
C1378 C1382 1.385 . S
C1379 H1354 0.951 . S
C1379 C1377 1.388 . S
C1379 C1380 1.366 . S
C1380 C1379 1.366 . S
C1380 C1381 1.414 . S
C1380 C1383 1.499 . S
C1381 H1355 0.950 . S
C1381 C1380 1.414 . S
C1381 C1382 1.374 . S
C1382 H1356 0.950 . S
C1382 C1378 1.385 . S
C1382 C1381 1.374 . S
C1383 C1380 1.499 . S
C1383 C1384 1.373 . S
C1383 C1385 1.389 . S
C1384 H1357 0.950 . S
C1384 C1370 1.377 1_566 S
C1384 C1383 1.373 . S
C1385 C1369 1.377 1_566 S
C1385 C1383 1.389 . S
C1385 C1386 1.524 . S
C1386 C1385 1.524 . S
C1386 C1387 1.397 . S
C1386 C1391 1.363 . S
C1387 H1358 0.950 1_556 S
C1387 C1386 1.397 . S
C1387 C1388 1.334 . S
C1388 H1359 0.944 1_556 S
C1388 C1387 1.334 . S
C1388 C1389 1.287 . S
C1389 C1388 1.287 . S
C1389 C1390 1.524 . S
C1389 H1392 0.999 . S
C1390 H1360 0.950 . S
C1390 C1389 1.524 . S
C1390 C1391 1.415 . S
C1391 H1361 0.950 1_565 S
C1391 C1386 1.363 . S
C1391 C1390 1.415 . S
H1392 C1389 0.999 . S
H1393 C1374 0.913 . S
H1394 C1412 0.951 . S
H1395 C1414 0.951 . S
H1396 C1416 0.950 . S
H1397 C1417 0.950 . S
H1398 C1419 0.950 . S
H1399 C1422 0.950 . S
H1400 C1423 0.950 . S
H1401 C1425 0.950 . S
H1402 C1426 0.950 1_545 S
H1403 C1427 0.951 . S
H1404 C1429 0.951 . S
H1405 C1431 0.950 . S
H1406 C1432 0.950 . S
H1407 C1434 0.950 . S
H1408 C1437 0.950 . S
H1409 C1438 0.950 . S
H1410 C1440 0.950 . S
H1411 C1441 0.950 1_565 S
C1412 H1394 0.951 . S
C1412 C1413 1.366 . S
C1412 C1414 1.388 . S
C1413 C1412 1.366 . S
C1413 C1417 1.385 . S
C1414 H1395 0.951 . S
C1414 C1412 1.388 . S
C1414 C1415 1.366 . S
C1415 C1414 1.366 . S
C1415 C1416 1.414 . S
C1415 C1418 1.499 . S
C1416 H1396 0.950 . S
C1416 C1415 1.414 . S
C1416 C1417 1.374 . S
C1417 H1397 0.950 . S
C1417 C1413 1.385 . S
C1417 C1416 1.374 . S
C1418 C1415 1.499 . S
C1418 C1419 1.373 . S
C1418 C1420 1.389 . S
C1419 H1398 0.950 . S
C1419 C1418 1.373 . S
C1419 C1435 1.377 1_565 S
C1420 C1418 1.389 . S
C1420 C1421 1.524 . S
C1420 C1434 1.377 1_565 S
C1421 C1420 1.524 . S
C1421 C1422 1.397 . S
C1421 C1426 1.363 . S
C1422 H1399 0.950 . S
C1422 C1421 1.397 . S
C1422 C1423 1.334 . S
C1423 H1400 0.950 . S
C1423 C1422 1.334 . S
C1423 C1424 1.287 . S
C1424 C1423 1.287 . S
C1424 C1425 1.524 . S
C1424 H1443 0.913 . S
C1425 H1401 0.950 . S
C1425 C1424 1.524 . S
C1425 C1426 1.415 . S
C1426 H1402 0.950 1_565 S
C1426 C1421 1.363 . S
C1426 C1425 1.415 . S
C1427 H1403 0.951 . S
C1427 C1428 1.366 . S
C1427 C1429 1.388 . S
C1428 C1427 1.366 . S
C1428 C1432 1.385 . S
C1429 H1404 0.951 . S
C1429 C1427 1.388 . S
C1429 C1430 1.366 . S
C1430 C1429 1.366 . S
C1430 C1431 1.414 . S
C1430 C1433 1.499 . S
C1431 H1405 0.950 . S
C1431 C1430 1.414 . S
C1431 C1432 1.374 . S
C1432 H1406 0.950 . S
C1432 C1428 1.385 . S
C1432 C1431 1.374 . S
C1433 C1430 1.499 . S
C1433 C1434 1.373 . S
C1433 C1435 1.389 . S
C1434 H1407 0.950 . S
C1434 C1420 1.377 1_545 S
C1434 C1433 1.373 . S
C1435 C1419 1.377 1_545 S
C1435 C1433 1.389 . S
C1435 C1436 1.524 . S
C1436 C1435 1.524 . S
C1436 C1437 1.397 . S
C1436 C1441 1.363 . S
C1437 H1408 0.950 . S
C1437 C1436 1.397 . S
C1437 C1438 1.334 . S
C1438 H1409 0.950 . S
C1438 C1437 1.334 . S
C1438 C1439 1.287 . S
C1439 C1438 1.287 . S
C1439 C1440 1.524 . S
C1439 H1442 0.999 . S
C1440 H1410 0.950 . S
C1440 C1439 1.524 . S
C1440 C1441 1.415 . S
C1441 H1411 0.950 1_545 S
C1441 C1436 1.363 . S
C1441 C1440 1.415 . S
H1442 C1439 0.999 . S
H1443 C1424 0.913 . S
H1444 C1462 0.951 . S
H1445 C1464 0.969 . S
H1446 C1466 0.950 . S
H1447 C1467 0.950 . S
H1448 C1469 0.950 . S
H1449 C1472 0.950 . S
H1450 C1473 0.950 . S
H1451 C1475 0.950 . S
H1452 C1476 0.950 . S
H1453 C1477 0.951 . S
H1454 C1479 0.969 . S
H1455 C1481 0.950 . S
H1456 C1482 0.950 . S
H1457 C1484 0.950 . S
H1458 C1487 0.950 . S
H1459 C1488 0.950 . S
H1460 C1490 0.950 . S
H1461 C1491 0.950 . S
C1462 H1444 0.951 . S
C1462 C1463 1.366 . S
C1462 C1464 1.388 . S
C1463 C1462 1.366 . S
C1463 C1467 1.385 . S
C1464 H1445 0.969 . S
C1464 C1462 1.388 . S
C1464 C1465 1.366 . S
C1465 C1464 1.366 . S
C1465 C1466 1.414 . S
C1465 C1468 1.499 . S
C1466 H1446 0.950 . S
C1466 C1465 1.414 . S
C1466 C1467 1.374 . S
C1467 H1447 0.950 . S
C1467 C1463 1.385 . S
C1467 C1466 1.374 . S
C1468 C1465 1.499 . S
C1468 C1469 1.373 . S
C1468 C1470 1.389 1_556 S
C1469 H1448 0.950 . S
C1469 C1468 1.373 . S
C1469 C1485 1.377 1_565 S
C1470 C1468 1.389 1_554 S
C1470 C1471 1.524 . S
C1470 C1484 1.377 1_565 S
C1471 C1470 1.524 . S
C1471 C1472 1.397 . S
C1471 C1476 1.363 . S
C1472 H1449 0.950 . S
C1472 C1471 1.397 . S
C1472 C1473 1.334 . S
C1473 H1450 0.950 . S
C1473 C1472 1.334 . S
C1473 C1474 1.287 . S
C1474 C1473 1.287 . S
C1474 C1475 1.524 . S
C1474 H1493 0.913 . S
C1475 H1451 0.950 . S
C1475 C1474 1.524 . S
C1475 C1476 1.415 . S
C1476 H1452 0.950 . S
C1476 C1471 1.363 . S
C1476 C1475 1.415 . S
C1477 H1453 0.951 . S
C1477 C1478 1.366 . S
C1477 C1479 1.388 . S
C1478 C1477 1.366 . S
C1478 C1482 1.385 . S
C1479 H1454 0.969 . S
C1479 C1477 1.388 . S
C1479 C1480 1.366 . S
C1480 C1479 1.366 . S
C1480 C1481 1.414 . S
C1480 C1483 1.499 . S
C1481 H1455 0.950 . S
C1481 C1480 1.414 . S
C1481 C1482 1.374 . S
C1482 H1456 0.950 . S
C1482 C1478 1.385 . S
C1482 C1481 1.374 . S
C1483 C1480 1.499 . S
C1483 C1484 1.373 . S
C1483 C1485 1.389 1_554 S
C1484 H1457 0.950 . S
C1484 C1470 1.377 1_545 S
C1484 C1483 1.373 . S
C1485 C1469 1.377 1_545 S
C1485 C1483 1.389 1_556 S
C1485 C1486 1.524 . S
C1486 C1485 1.524 . S
C1486 C1487 1.397 . S
C1486 C1491 1.363 . S
C1487 H1458 0.950 . S
C1487 C1486 1.397 . S
C1487 C1488 1.334 . S
C1488 H1459 0.950 . S
C1488 C1487 1.334 . S
C1488 C1489 1.287 . S
C1489 C1488 1.287 . S
C1489 C1490 1.524 . S
C1489 H1492 0.999 . S
C1490 H1460 0.950 . S
C1490 C1489 1.524 . S
C1490 C1491 1.415 . S
C1491 H1461 0.950 . S
C1491 C1486 1.363 . S
C1491 C1490 1.415 . S
H1492 C1489 0.999 . S
H1493 C1474 0.913 . S
H1494 C1512 0.951 . S
H1495 C1514 0.951 . S
H1496 C1516 0.950 . S
H1497 C1517 0.950 . S
H1498 C1519 0.950 . S
H1499 C1522 0.950 . S
H1500 C1523 0.950 . S
H1501 C1525 0.950 . S
H1502 C1526 0.950 . S
H1503 C1527 0.951 . S
H1504 C1529 0.951 . S
H1505 C1531 0.950 . S
H1506 C1532 0.950 . S
H1507 C1534 0.950 . S
H1508 C1537 0.950 . S
H1509 C1538 0.950 . S
H1510 C1540 0.950 . S
H1511 C1541 0.950 . S
C1512 H1494 0.951 . S
C1512 C1513 1.366 . S
C1512 C1514 1.388 . S
C1513 C1512 1.366 . S
C1513 C1517 1.385 . S
C1514 H1495 0.951 . S
C1514 C1512 1.388 . S
C1514 C1515 1.366 . S
C1515 C1514 1.366 . S
C1515 C1516 1.414 . S
C1515 C1518 1.499 . S
C1516 H1496 0.950 . S
C1516 C1515 1.414 . S
C1516 C1517 1.374 . S
C1517 H1497 0.950 . S
C1517 C1513 1.385 . S
C1517 C1516 1.374 . S
C1518 C1515 1.499 . S
C1518 C1519 1.373 . S
C1518 C1520 1.389 . S
C1519 H1498 0.950 . S
C1519 C1518 1.373 . S
C1519 C1535 1.377 1_545 S
C1520 C1518 1.389 . S
C1520 C1521 1.524 . S
C1520 C1534 1.377 1_545 S
C1521 C1520 1.524 . S
C1521 C1522 1.397 . S
C1521 C1526 1.363 . S
C1522 H1499 0.950 . S
C1522 C1521 1.397 . S
C1522 C1523 1.334 . S
C1523 H1500 0.950 . S
C1523 C1522 1.334 . S
C1523 C1524 1.287 . S
C1524 C1523 1.287 . S
C1524 C1525 1.524 . S
C1524 H1543 0.913 . S
C1525 H1501 0.950 . S
C1525 C1524 1.524 . S
C1525 C1526 1.415 . S
C1526 H1502 0.950 . S
C1526 C1521 1.363 . S
C1526 C1525 1.415 . S
C1527 H1503 0.951 . S
C1527 C1528 1.366 . S
C1527 C1529 1.388 . S
C1528 C1527 1.366 . S
C1528 C1532 1.385 . S
C1529 H1504 0.951 . S
C1529 C1527 1.388 . S
C1529 C1530 1.366 . S
C1530 C1529 1.366 . S
C1530 C1531 1.414 . S
C1530 C1533 1.499 . S
C1531 H1505 0.950 . S
C1531 C1530 1.414 . S
C1531 C1532 1.374 . S
C1532 H1506 0.950 . S
C1532 C1528 1.385 . S
C1532 C1531 1.374 . S
C1533 C1530 1.499 . S
C1533 C1534 1.373 . S
C1533 C1535 1.389 . S
C1534 H1507 0.950 . S
C1534 C1520 1.377 1_565 S
C1534 C1533 1.373 . S
C1535 C1519 1.377 1_565 S
C1535 C1533 1.389 . S
C1535 C1536 1.524 . S
C1536 C1535 1.524 . S
C1536 C1537 1.397 . S
C1536 C1541 1.363 . S
C1537 H1508 0.950 . S
C1537 C1536 1.397 . S
C1537 C1538 1.334 . S
C1538 H1509 0.950 . S
C1538 C1537 1.334 . S
C1538 C1539 1.287 . S
C1539 C1538 1.287 . S
C1539 C1540 1.524 . S
C1539 H1542 0.999 . S
C1540 H1510 0.950 . S
C1540 C1539 1.524 . S
C1540 C1541 1.415 . S
C1541 H1511 0.950 . S
C1541 C1536 1.363 . S
C1541 C1540 1.415 . S
H1542 C1539 0.999 . S
H1543 C1524 0.913 . S
H1544 C1562 0.951 . S
H1545 C1564 0.951 . S
H1546 C1566 0.950 . S
H1547 C1567 0.950 . S
H1548 C1569 0.950 . S
H1549 C1572 0.950 . S
H1550 C1573 0.950 . S
H1551 C1575 0.950 . S
H1552 C1576 0.950 . S
H1553 C1577 0.951 . S
H1554 C1579 0.951 . S
H1555 C1581 0.950 . S
H1556 C1582 0.950 . S
H1557 C1584 0.950 . S
H1558 C1587 0.950 . S
H1559 C1588 0.950 . S
H1560 C1590 0.950 . S
H1561 C1591 0.950 . S
C1562 H1544 0.951 . S
C1562 C1563 1.366 . S
C1562 C1564 1.388 . S
C1563 C1562 1.366 . S
C1563 C1567 1.385 . S
C1564 H1545 0.951 . S
C1564 C1562 1.388 . S
C1564 C1565 1.366 . S
C1565 C1564 1.366 . S
C1565 C1566 1.414 . S
C1565 C1568 1.499 . S
C1566 H1546 0.950 . S
C1566 C1565 1.414 . S
C1566 C1567 1.374 . S
C1567 H1547 0.950 . S
C1567 C1563 1.385 . S
C1567 C1566 1.374 . S
C1568 C1565 1.499 . S
C1568 C1569 1.373 1_556 S
C1568 C1570 1.389 . S
C1569 H1548 0.950 . S
C1569 C1568 1.373 1_554 S
C1569 C1585 1.377 . S
C1570 C1568 1.389 . S
C1570 C1571 1.524 . S
C1570 C1584 1.377 . S
C1571 C1570 1.524 . S
C1571 C1572 1.397 . S
C1571 C1576 1.363 . S
C1572 H1549 0.950 . S
C1572 C1571 1.397 . S
C1572 C1573 1.334 . S
C1573 H1550 0.950 . S
C1573 C1572 1.334 . S
C1573 C1574 1.287 . S
C1574 C1573 1.287 . S
C1574 C1575 1.524 . S
C1574 H1593 0.913 . S
C1575 H1551 0.950 . S
C1575 C1574 1.524 . S
C1575 C1576 1.415 . S
C1576 H1552 0.950 . S
C1576 C1571 1.363 . S
C1576 C1575 1.415 . S
C1577 H1553 0.951 . S
C1577 C1578 1.366 . S
C1577 C1579 1.388 . S
C1578 C1577 1.366 . S
C1578 C1582 1.385 . S
C1579 H1554 0.951 . S
C1579 C1577 1.388 . S
C1579 C1580 1.366 . S
C1580 C1579 1.366 . S
C1580 C1581 1.414 . S
C1580 C1583 1.499 . S
C1581 H1555 0.950 . S
C1581 C1580 1.414 . S
C1581 C1582 1.374 . S
C1582 H1556 0.950 . S
C1582 C1578 1.385 . S
C1582 C1581 1.374 . S
C1583 C1580 1.499 . S
C1583 C1584 1.373 1_554 S
C1583 C1585 1.389 . S
C1584 H1557 0.950 . S
C1584 C1570 1.377 . S
C1584 C1583 1.373 1_556 S
C1585 C1569 1.377 . S
C1585 C1583 1.389 . S
C1585 C1586 1.524 . S
C1586 C1585 1.524 . S
C1586 C1587 1.397 . S
C1586 C1591 1.363 . S
C1587 H1558 0.950 . S
C1587 C1586 1.397 . S
C1587 C1588 1.334 . S
C1588 H1559 0.950 . S
C1588 C1587 1.334 . S
C1588 C1589 1.287 . S
C1589 C1588 1.287 . S
C1589 C1590 1.524 . S
C1589 H1592 0.999 . S
C1590 H1560 0.950 . S
C1590 C1589 1.524 . S
C1590 C1591 1.415 . S
C1591 H1561 0.950 . S
C1591 C1586 1.363 . S
C1591 C1590 1.415 . S
H1592 C1589 0.999 . S
H1593 C1574 0.913 . S
H1594 C1612 0.951 . S
H1595 C1614 0.951 . S
H1596 C1616 0.950 . S
H1597 C1617 0.950 . S
H1598 C1619 0.950 . S
H1599 C1622 0.950 . S
H1600 C1623 0.950 . S
H1601 C1625 0.950 . S
H1602 C1626 0.950 . S
H1603 C1627 0.951 . S
H1604 C1629 0.951 . S
H1605 C1631 0.950 . S
H1606 C1632 0.950 . S
H1607 C1634 0.950 . S
H1608 C1637 0.950 . S
H1609 C1638 0.950 . S
H1610 C1640 0.950 . S
H1611 C1641 0.950 . S
C1612 H1594 0.951 . S
C1612 C1613 1.366 . S
C1612 C1614 1.388 . S
C1613 C1612 1.366 . S
C1613 C1617 1.385 . S
C1614 H1595 0.951 . S
C1614 C1612 1.388 . S
C1614 C1615 1.366 . S
C1615 C1614 1.366 . S
C1615 C1616 1.414 . S
C1615 C1618 1.499 . S
C1616 H1596 0.950 . S
C1616 C1615 1.414 . S
C1616 C1617 1.374 . S
C1617 H1597 0.950 . S
C1617 C1613 1.385 . S
C1617 C1616 1.374 . S
C1618 C1615 1.499 . S
C1618 C1619 1.373 . S
C1618 C1620 1.389 . S
C1619 H1598 0.950 . S
C1619 C1618 1.373 . S
C1619 C1635 1.377 . S
C1620 C1618 1.389 . S
C1620 C1621 1.524 . S
C1620 C1634 1.377 . S
C1621 C1620 1.524 . S
C1621 C1622 1.397 . S
C1621 C1626 1.363 . S
C1622 H1599 0.950 . S
C1622 C1621 1.397 . S
C1622 C1623 1.334 . S
C1623 H1600 0.950 . S
C1623 C1622 1.334 . S
C1623 C1624 1.287 . S
C1624 C1623 1.287 . S
C1624 C1625 1.524 . S
C1624 H1643 0.913 . S
C1625 H1601 0.950 . S
C1625 C1624 1.524 . S
C1625 C1626 1.415 . S
C1626 H1602 0.950 . S
C1626 C1621 1.363 . S
C1626 C1625 1.415 . S
C1627 H1603 0.951 . S
C1627 C1628 1.366 . S
C1627 C1629 1.388 . S
C1628 C1627 1.366 . S
C1628 C1632 1.385 . S
C1629 H1604 0.951 . S
C1629 C1627 1.388 . S
C1629 C1630 1.366 . S
C1630 C1629 1.366 . S
C1630 C1631 1.414 . S
C1630 C1633 1.499 . S
C1631 H1605 0.950 . S
C1631 C1630 1.414 . S
C1631 C1632 1.374 . S
C1632 H1606 0.950 . S
C1632 C1628 1.385 . S
C1632 C1631 1.374 . S
C1633 C1630 1.499 . S
C1633 C1634 1.373 . S
C1633 C1635 1.389 . S
C1634 H1607 0.950 . S
C1634 C1620 1.377 . S
C1634 C1633 1.373 . S
C1635 C1619 1.377 . S
C1635 C1633 1.389 . S
C1635 C1636 1.524 . S
C1636 C1635 1.524 . S
C1636 C1637 1.397 . S
C1636 C1641 1.363 . S
C1637 H1608 0.950 . S
C1637 C1636 1.397 . S
C1637 C1638 1.334 . S
C1638 H1609 0.950 . S
C1638 C1637 1.334 . S
C1638 C1639 1.287 . S
C1639 C1638 1.287 . S
C1639 C1640 1.524 . S
C1639 H1642 0.999 . S
C1640 H1610 0.950 . S
C1640 C1639 1.524 . S
C1640 C1641 1.415 . S
C1641 H1611 0.950 . S
C1641 C1636 1.363 . S
C1641 C1640 1.415 . S
H1642 C1639 0.999 . S
H1643 C1624 0.913 . S
H1644 C1662 0.951 . S
H1645 C1664 0.951 1_556 S
H1646 C1666 0.950 . S
H1647 C1667 0.950 . S
H1648 C1669 0.950 . S
H1649 C1672 0.950 . S
H1650 C1673 0.950 . S
H1651 C1675 0.950 . S
H1652 C1676 0.950 . S
H1653 C1677 0.951 . S
H1654 C1679 0.951 1_554 S
H1655 C1681 0.950 . S
H1656 C1682 0.950 . S
H1657 C1684 0.950 . S
H1658 C1687 0.950 . S
H1659 C1688 0.950 . S
H1660 C1690 0.950 . S
H1661 C1691 0.950 . S
C1662 H1644 0.951 . S
C1662 C1663 1.366 . S
C1662 C1664 1.388 . S
C1663 C1662 1.366 . S
C1663 C1667 1.385 . S
C1664 H1645 0.951 1_554 S
C1664 C1662 1.388 . S
C1664 C1665 1.366 . S
C1665 C1664 1.366 . S
C1665 C1666 1.414 . S
C1665 C1668 1.499 . S
C1666 H1646 0.950 . S
C1666 C1665 1.414 . S
C1666 C1667 1.374 . S
C1667 H1647 0.950 . S
C1667 C1663 1.385 . S
C1667 C1666 1.374 . S
C1668 C1665 1.499 . S
C1668 C1669 1.373 . S
C1668 C1670 1.389 1_554 S
C1669 H1648 0.950 . S
C1669 C1668 1.373 . S
C1669 C1685 1.377 . S
C1670 C1668 1.389 1_556 S
C1670 C1671 1.524 . S
C1670 C1684 1.377 . S
C1671 C1670 1.524 . S
C1671 C1672 1.397 . S
C1671 C1676 1.363 . S
C1672 H1649 0.950 . S
C1672 C1671 1.397 . S
C1672 C1673 1.334 . S
C1673 H1650 0.950 . S
C1673 C1672 1.334 . S
C1673 C1674 1.287 . S
C1674 C1673 1.287 . S
C1674 C1675 1.524 . S
C1674 H1693 0.913 . S
C1675 H1651 0.950 . S
C1675 C1674 1.524 . S
C1675 C1676 1.415 . S
C1676 H1652 0.950 . S
C1676 C1671 1.363 . S
C1676 C1675 1.415 . S
C1677 H1653 0.951 . S
C1677 C1678 1.366 . S
C1677 C1679 1.388 . S
C1678 C1677 1.366 . S
C1678 C1682 1.385 . S
C1679 H1654 0.951 1_556 S
C1679 C1677 1.388 . S
C1679 C1680 1.366 . S
C1680 C1679 1.366 . S
C1680 C1681 1.414 . S
C1680 C1683 1.499 . S
C1681 H1655 0.950 . S
C1681 C1680 1.414 . S
C1681 C1682 1.374 . S
C1682 H1656 0.950 . S
C1682 C1678 1.385 . S
C1682 C1681 1.374 . S
C1683 C1680 1.499 . S
C1683 C1684 1.373 . S
C1683 C1685 1.389 1_556 S
C1684 H1657 0.950 . S
C1684 C1670 1.377 . S
C1684 C1683 1.373 . S
C1685 C1669 1.377 . S
C1685 C1683 1.389 1_554 S
C1685 C1686 1.524 . S
C1686 C1685 1.524 . S
C1686 C1687 1.397 . S
C1686 C1691 1.363 . S
C1687 H1658 0.950 . S
C1687 C1686 1.397 . S
C1687 C1688 1.334 . S
C1688 H1659 0.950 . S
C1688 C1687 1.334 . S
C1688 C1689 1.287 . S
C1689 C1688 1.287 . S
C1689 C1690 1.524 . S
C1689 H1692 0.999 . S
C1690 H1660 0.950 . S
C1690 C1689 1.524 . S
C1690 C1691 1.415 . S
C1691 H1661 0.950 . S
C1691 C1686 1.363 . S
C1691 C1690 1.415 . S
H1692 C1689 0.999 . S
H1693 C1674 0.913 . S
H1694 C1712 0.951 . S
H1695 C1714 0.951 . S
H1696 C1716 0.950 . S
H1697 C1717 0.950 . S
H1698 C1719 0.950 . S
H1699 C1722 0.950 . S
H1700 C1723 0.950 . S
H1701 C1725 0.950 . S
H1702 C1726 0.950 . S
H1703 C1727 0.951 . S
H1704 C1729 0.951 . S
H1705 C1731 0.950 . S
H1706 C1732 0.950 . S
H1707 C1734 0.950 . S
H1708 C1737 0.950 . S
H1709 C1738 0.950 . S
H1710 C1740 0.950 . S
H1711 C1741 0.950 . S
C1712 H1694 0.951 . S
C1712 C1713 1.366 . S
C1712 C1714 1.388 . S
C1713 C1712 1.366 . S
C1713 C1717 1.385 . S
C1714 H1695 0.951 . S
C1714 C1712 1.388 . S
C1714 C1715 1.366 . S
C1715 C1714 1.366 . S
C1715 C1716 1.414 . S
C1715 C1718 1.499 . S
C1716 H1696 0.950 . S
C1716 C1715 1.414 . S
C1716 C1717 1.374 . S
C1717 H1697 0.950 . S
C1717 C1713 1.385 . S
C1717 C1716 1.374 . S
C1718 C1715 1.499 . S
C1718 C1719 1.373 . S
C1718 C1720 1.389 . S
C1719 H1698 0.950 . S
C1719 C1718 1.373 . S
C1719 C1735 1.377 . S
C1720 C1718 1.389 . S
C1720 C1721 1.524 . S
C1720 C1734 1.377 . S
C1721 C1720 1.524 . S
C1721 C1722 1.397 . S
C1721 C1726 1.363 . S
C1722 H1699 0.950 . S
C1722 C1721 1.397 . S
C1722 C1723 1.334 . S
C1723 H1700 0.950 . S
C1723 C1722 1.334 . S
C1723 C1724 1.287 . S
C1724 C1723 1.287 . S
C1724 C1725 1.524 . S
C1724 H1743 0.913 . S
C1725 H1701 0.950 . S
C1725 C1724 1.524 . S
C1725 C1726 1.415 . S
C1726 H1702 0.950 . S
C1726 C1721 1.363 . S
C1726 C1725 1.415 . S
C1727 H1703 0.951 . S
C1727 C1728 1.366 . S
C1727 C1729 1.388 . S
C1728 C1727 1.366 . S
C1728 C1732 1.385 . S
C1729 H1704 0.951 . S
C1729 C1727 1.388 . S
C1729 C1730 1.366 . S
C1730 C1729 1.366 . S
C1730 C1731 1.414 . S
C1730 C1733 1.499 . S
C1731 H1705 0.950 . S
C1731 C1730 1.414 . S
C1731 C1732 1.374 . S
C1732 H1706 0.950 . S
C1732 C1728 1.385 . S
C1732 C1731 1.374 . S
C1733 C1730 1.499 . S
C1733 C1734 1.373 . S
C1733 C1735 1.389 . S
C1734 H1707 0.950 . S
C1734 C1720 1.377 . S
C1734 C1733 1.373 . S
C1735 C1719 1.377 . S
C1735 C1733 1.389 . S
C1735 C1736 1.524 . S
C1736 C1735 1.524 . S
C1736 C1737 1.397 . S
C1736 C1741 1.363 . S
C1737 H1708 0.950 . S
C1737 C1736 1.397 . S
C1737 C1738 1.334 . S
C1738 H1709 0.950 . S
C1738 C1737 1.334 . S
C1738 C1739 1.287 . S
C1739 C1738 1.287 . S
C1739 C1740 1.524 . S
C1739 H1742 0.999 . S
C1740 H1710 0.950 . S
C1740 C1739 1.524 . S
C1740 C1741 1.415 . S
C1741 H1711 0.950 . S
C1741 C1736 1.363 . S
C1741 C1740 1.415 . S
H1742 C1739 0.999 . S
H1743 C1724 0.913 . S
H1744 C1762 0.951 . S
H1745 C1764 0.951 . S
H1746 C1766 0.950 . S
H1747 C1767 0.950 . S
H1748 C1769 0.950 . S
H1749 C1772 0.950 . S
H1750 C1773 0.950 . S
H1751 C1775 0.950 . S
H1752 C1776 0.950 . S
H1753 C1777 0.951 . S
H1754 C1779 0.951 . S
H1755 C1781 0.950 . S
H1756 C1782 0.950 . S
H1757 C1784 0.950 . S
H1758 C1787 0.950 . S
H1759 C1788 0.950 . S
H1760 C1790 0.950 . S
H1761 C1791 0.950 . S
C1762 H1744 0.951 . S
C1762 C1763 1.366 . S
C1762 C1764 1.388 . S
C1763 C1762 1.366 . S
C1763 C1767 1.385 . S
C1764 H1745 0.951 . S
C1764 C1762 1.388 . S
C1764 C1765 1.366 . S
C1765 C1764 1.366 . S
C1765 C1766 1.414 . S
C1765 C1768 1.499 . S
C1766 H1746 0.950 . S
C1766 C1765 1.414 . S
C1766 C1767 1.374 . S
C1767 H1747 0.950 . S
C1767 C1763 1.385 . S
C1767 C1766 1.374 . S
C1768 C1765 1.499 . S
C1768 C1769 1.373 . S
C1768 C1770 1.389 . S
C1769 H1748 0.950 . S
C1769 C1768 1.373 . S
C1769 C1785 1.377 . S
C1770 C1768 1.389 . S
C1770 C1771 1.524 . S
C1770 C1784 1.377 . S
C1771 C1770 1.524 . S
C1771 C1772 1.397 . S
C1771 C1776 1.363 . S
C1772 H1749 0.950 . S
C1772 C1771 1.397 . S
C1772 C1773 1.334 . S
C1773 H1750 0.950 . S
C1773 C1772 1.334 . S
C1773 C1774 1.287 . S
C1774 C1773 1.287 . S
C1774 C1775 1.524 . S
C1774 H1793 0.913 . S
C1775 H1751 0.950 . S
C1775 C1774 1.524 . S
C1775 C1776 1.415 . S
C1776 H1752 0.950 . S
C1776 C1771 1.363 . S
C1776 C1775 1.415 . S
C1777 H1753 0.951 . S
C1777 C1778 1.366 . S
C1777 C1779 1.388 . S
C1778 C1777 1.366 . S
C1778 C1782 1.385 . S
C1779 H1754 0.951 . S
C1779 C1777 1.388 . S
C1779 C1780 1.366 . S
C1780 C1779 1.366 . S
C1780 C1781 1.414 . S
C1780 C1783 1.499 . S
C1781 H1755 0.950 . S
C1781 C1780 1.414 . S
C1781 C1782 1.374 . S
C1782 H1756 0.950 . S
C1782 C1778 1.385 . S
C1782 C1781 1.374 . S
C1783 C1780 1.499 . S
C1783 C1784 1.373 . S
C1783 C1785 1.389 . S
C1784 H1757 0.950 . S
C1784 C1770 1.377 . S
C1784 C1783 1.373 . S
C1785 C1769 1.377 . S
C1785 C1783 1.389 . S
C1785 C1786 1.524 . S
C1786 C1785 1.524 . S
C1786 C1787 1.397 . S
C1786 C1791 1.363 . S
C1787 H1758 0.950 . S
C1787 C1786 1.397 . S
C1787 C1788 1.334 . S
C1788 H1759 0.950 . S
C1788 C1787 1.334 . S
C1788 C1789 1.287 . S
C1789 C1788 1.287 . S
C1789 C1790 1.524 . S
C1789 H1792 0.999 . S
C1790 H1760 0.950 . S
C1790 C1789 1.524 . S
C1790 C1791 1.415 . S
C1791 H1761 0.950 . S
C1791 C1786 1.363 . S
C1791 C1790 1.415 . S
H1792 C1789 0.999 . S
H1793 C1774 0.913 . S
H1794 C1812 0.951 . S
H1795 C1814 0.951 . S
H1796 C1816 0.950 . S
H1797 C1817 0.950 . S
H1798 C1819 0.950 . S
H1799 C1822 0.950 . S
H1800 C1823 0.950 . S
H1801 C1825 0.950 . S
H1802 C1826 0.950 . S
H1803 C1827 0.951 . S
H1804 C1829 0.951 . S
H1805 C1831 0.950 . S
H1806 C1832 0.950 . S
H1807 C1834 0.950 . S
H1808 C1837 0.950 . S
H1809 C1838 0.950 . S
H1810 C1840 0.950 . S
H1811 C1841 0.950 . S
C1812 H1794 0.951 . S
C1812 C1813 1.366 . S
C1812 C1814 1.388 . S
C1813 C1812 1.366 . S
C1813 C1817 1.385 . S
C1814 H1795 0.951 . S
C1814 C1812 1.388 . S
C1814 C1815 1.366 . S
C1815 C1814 1.366 . S
C1815 C1816 1.414 . S
C1815 C1818 1.499 . S
C1816 H1796 0.950 . S
C1816 C1815 1.414 . S
C1816 C1817 1.374 . S
C1817 H1797 0.950 . S
C1817 C1813 1.385 . S
C1817 C1816 1.374 . S
C1818 C1815 1.499 . S
C1818 C1819 1.373 . S
C1818 C1820 1.389 . S
C1819 H1798 0.950 . S
C1819 C1818 1.373 . S
C1819 C1835 1.377 . S
C1820 C1818 1.389 . S
C1820 C1821 1.524 . S
C1820 C1834 1.377 . S
C1821 C1820 1.524 . S
C1821 C1822 1.397 . S
C1821 C1826 1.363 . S
C1822 H1799 0.950 . S
C1822 C1821 1.397 . S
C1822 C1823 1.334 . S
C1823 H1800 0.950 . S
C1823 C1822 1.334 . S
C1823 C1824 1.287 . S
C1824 C1823 1.287 . S
C1824 C1825 1.524 . S
C1824 H1843 0.913 . S
C1825 H1801 0.950 . S
C1825 C1824 1.524 . S
C1825 C1826 1.415 . S
C1826 H1802 0.950 . S
C1826 C1821 1.363 . S
C1826 C1825 1.415 . S
C1827 H1803 0.951 . S
C1827 C1828 1.366 . S
C1827 C1829 1.388 . S
C1828 C1827 1.366 . S
C1828 C1832 1.385 . S
C1829 H1804 0.951 . S
C1829 C1827 1.388 . S
C1829 C1830 1.366 . S
C1830 C1829 1.366 . S
C1830 C1831 1.414 . S
C1830 C1833 1.499 1_455 S
C1831 H1805 0.950 . S
C1831 C1830 1.414 . S
C1831 C1832 1.374 . S
C1832 H1806 0.950 . S
C1832 C1828 1.385 . S
C1832 C1831 1.374 . S
C1833 C1830 1.499 1_655 S
C1833 C1834 1.373 . S
C1833 C1835 1.389 . S
C1834 H1807 0.950 . S
C1834 C1820 1.377 . S
C1834 C1833 1.373 . S
C1835 C1819 1.377 . S
C1835 C1833 1.389 . S
C1835 C1836 1.524 . S
C1836 C1835 1.524 . S
C1836 C1837 1.397 1_655 S
C1836 C1841 1.363 . S
C1837 H1808 0.950 . S
C1837 C1836 1.397 1_455 S
C1837 C1838 1.334 . S
C1838 H1809 0.950 . S
C1838 C1837 1.334 . S
C1838 C1839 1.287 . S
C1839 C1838 1.287 . S
C1839 C1840 1.524 1_455 S
C1839 H1842 0.999 . S
C1840 H1810 0.950 . S
C1840 C1839 1.524 1_655 S
C1840 C1841 1.415 . S
C1841 H1811 0.950 . S
C1841 C1836 1.363 . S
C1841 C1840 1.415 . S
H1842 C1839 0.999 . S
H1843 C1824 0.913 . S
H1844 C1862 0.951 . S
H1845 C1864 0.951 . S
H1846 C1866 0.950 . S
H1847 C1867 0.950 . S
H1848 C1869 0.950 . S
H1849 C1872 0.950 . S
H1850 C1873 0.950 . S
H1851 C1875 0.950 . S
H1852 C1876 0.950 . S
H1853 C1877 0.951 . S
H1854 C1879 0.951 . S
H1855 C1881 0.950 . S
H1856 C1882 0.950 . S
H1857 C1884 0.950 . S
H1858 C1887 0.950 . S
H1859 C1888 0.950 . S
H1860 C1890 0.950 . S
H1861 C1891 0.950 . S
C1862 H1844 0.951 . S
C1862 C1863 1.366 . S
C1862 C1864 1.388 . S
C1863 C1862 1.366 . S
C1863 C1867 1.385 . S
C1864 H1845 0.951 . S
C1864 C1862 1.388 . S
C1864 C1865 1.366 . S
C1865 C1864 1.366 . S
C1865 C1866 1.414 . S
C1865 C1868 1.499 . S
C1866 H1846 0.950 . S
C1866 C1865 1.414 . S
C1866 C1867 1.374 . S
C1867 H1847 0.950 . S
C1867 C1863 1.385 . S
C1867 C1866 1.374 . S
C1868 C1865 1.499 . S
C1868 C1869 1.373 . S
C1868 C1870 1.389 . S
C1869 H1848 0.950 . S
C1869 C1868 1.373 . S
C1869 C1885 1.377 . S
C1870 C1868 1.389 . S
C1870 C1871 1.524 . S
C1870 C1884 1.377 . S
C1871 C1870 1.524 . S
C1871 C1872 1.397 . S
C1871 C1876 1.363 . S
C1872 H1849 0.950 . S
C1872 C1871 1.397 . S
C1872 C1873 1.334 . S
C1873 H1850 0.950 . S
C1873 C1872 1.334 . S
C1873 C1874 1.287 . S
C1874 C1873 1.287 . S
C1874 C1875 1.524 . S
C1874 H1893 0.913 . S
C1875 H1851 0.950 . S
C1875 C1874 1.524 . S
C1875 C1876 1.415 . S
C1876 H1852 0.950 . S
C1876 C1871 1.363 . S
C1876 C1875 1.415 . S
C1877 H1853 0.951 . S
C1877 C1878 1.366 . S
C1877 C1879 1.388 . S
C1878 C1877 1.366 . S
C1878 C1882 1.385 . S
C1879 H1854 0.951 . S
C1879 C1877 1.388 . S
C1879 C1880 1.366 . S
C1880 C1879 1.366 . S
C1880 C1881 1.414 . S
C1880 C1883 1.499 . S
C1881 H1855 0.950 . S
C1881 C1880 1.414 . S
C1881 C1882 1.374 . S
C1882 H1856 0.950 . S
C1882 C1878 1.385 . S
C1882 C1881 1.374 . S
C1883 C1880 1.499 . S
C1883 C1884 1.373 . S
C1883 C1885 1.389 . S
C1884 H1857 0.950 . S
C1884 C1870 1.377 . S
C1884 C1883 1.373 . S
C1885 C1869 1.377 . S
C1885 C1883 1.389 . S
C1885 C1886 1.524 . S
C1886 C1885 1.524 . S
C1886 C1887 1.397 . S
C1886 C1891 1.363 . S
C1887 H1858 0.950 . S
C1887 C1886 1.397 . S
C1887 C1888 1.334 . S
C1888 H1859 0.950 . S
C1888 C1887 1.334 . S
C1888 C1889 1.287 . S
C1889 C1888 1.287 . S
C1889 C1890 1.524 . S
C1889 H1892 0.999 . S
C1890 H1860 0.950 . S
C1890 C1889 1.524 . S
C1890 C1891 1.415 . S
C1891 H1861 0.950 . S
C1891 C1886 1.363 . S
C1891 C1890 1.415 . S
H1892 C1889 0.999 . S
H1893 C1874 0.913 . S
H1894 C1912 0.951 . S
H1895 C1914 0.951 . S
H1896 C1916 0.950 . S
H1897 C1917 0.950 . S
H1898 C1919 0.950 . S
H1899 C1922 0.950 . S
H1900 C1923 0.950 . S
H1901 C1925 0.950 . S
H1902 C1926 0.950 . S
H1903 C1927 0.951 . S
H1904 C1929 0.951 . S
H1905 C1931 0.950 . S
H1906 C1932 0.950 . S
H1907 C1934 0.950 . S
H1908 C1937 0.950 . S
H1909 C1938 0.950 . S
H1910 C1940 0.950 . S
H1911 C1941 0.950 . S
C1912 H1894 0.951 . S
C1912 C1913 1.366 . S
C1912 C1914 1.388 . S
C1913 C1912 1.366 . S
C1913 C1917 1.385 . S
C1914 H1895 0.951 . S
C1914 C1912 1.388 . S
C1914 C1915 1.366 . S
C1915 C1914 1.366 . S
C1915 C1916 1.414 . S
C1915 C1918 1.499 1_455 S
C1916 H1896 0.950 . S
C1916 C1915 1.414 . S
C1916 C1917 1.374 . S
C1917 H1897 0.950 . S
C1917 C1913 1.385 . S
C1917 C1916 1.374 . S
C1918 C1915 1.499 1_655 S
C1918 C1919 1.373 . S
C1918 C1920 1.389 . S
C1919 H1898 0.950 . S
C1919 C1918 1.373 . S
C1919 C1935 1.377 . S
C1920 C1918 1.389 . S
C1920 C1921 1.524 . S
C1920 C1934 1.377 . S
C1921 C1920 1.524 . S
C1921 C1922 1.397 1_655 S
C1921 C1926 1.363 . S
C1922 H1899 0.950 . S
C1922 C1921 1.397 1_455 S
C1922 C1923 1.334 . S
C1923 H1900 0.950 . S
C1923 C1922 1.334 . S
C1923 C1924 1.287 . S
C1924 C1923 1.287 . S
C1924 C1925 1.524 1_455 S
C1924 H1943 0.913 . S
C1925 H1901 0.950 . S
C1925 C1924 1.524 1_655 S
C1925 C1926 1.415 . S
C1926 H1902 0.950 . S
C1926 C1921 1.363 . S
C1926 C1925 1.415 . S
C1927 H1903 0.951 . S
C1927 C1928 1.366 . S
C1927 C1929 1.388 . S
C1928 C1927 1.366 . S
C1928 C1932 1.385 . S
C1929 H1904 0.951 . S
C1929 C1927 1.388 . S
C1929 C1930 1.366 . S
C1930 C1929 1.366 . S
C1930 C1931 1.414 . S
C1930 C1933 1.499 . S
C1931 H1905 0.950 . S
C1931 C1930 1.414 . S
C1931 C1932 1.374 . S
C1932 H1906 0.950 . S
C1932 C1928 1.385 . S
C1932 C1931 1.374 . S
C1933 C1930 1.499 . S
C1933 C1934 1.373 . S
C1933 C1935 1.389 . S
C1934 H1907 0.950 . S
C1934 C1920 1.377 . S
C1934 C1933 1.373 . S
C1935 C1919 1.377 . S
C1935 C1933 1.389 . S
C1935 C1936 1.524 . S
C1936 C1935 1.524 . S
C1936 C1937 1.397 . S
C1936 C1941 1.363 . S
C1937 H1908 0.950 . S
C1937 C1936 1.397 . S
C1937 C1938 1.334 . S
C1938 H1909 0.950 . S
C1938 C1937 1.334 . S
C1938 C1939 1.287 . S
C1939 C1938 1.287 . S
C1939 C1940 1.524 . S
C1939 H1942 0.999 . S
C1940 H1910 0.950 . S
C1940 C1939 1.524 . S
C1940 C1941 1.415 . S
C1941 H1911 0.950 . S
C1941 C1936 1.363 . S
C1941 C1940 1.415 . S
H1942 C1939 0.999 . S
H1943 C1924 0.913 . S
H1944 C1962 0.951 . S
H1945 C1964 0.951 . S
H1946 C1966 0.950 . S
H1947 C1967 0.950 . S
H1948 C1969 0.950 . S
H1949 C1972 0.950 . S
H1950 C1973 0.950 . S
H1951 C1975 0.950 . S
H1952 C1976 0.950 . S
H1953 C1977 0.951 . S
H1954 C1979 0.951 . S
H1955 C1981 0.950 . S
H1956 C1982 0.950 . S
H1957 C1984 0.950 . S
H1958 C1987 0.950 . S
H1959 C1988 0.950 . S
H1960 C1990 0.950 . S
H1961 C1991 0.950 . S
C1962 H1944 0.951 . S
C1962 C1963 1.366 . S
C1962 C1964 1.388 . S
C1963 C1962 1.366 . S
C1963 C1967 1.385 . S
C1964 H1945 0.951 . S
C1964 C1962 1.388 . S
C1964 C1965 1.366 . S
C1965 C1964 1.366 . S
C1965 C1966 1.414 . S
C1965 C1968 1.499 . S
C1966 H1946 0.950 . S
C1966 C1965 1.414 . S
C1966 C1967 1.374 . S
C1967 H1947 0.950 . S
C1967 C1963 1.385 . S
C1967 C1966 1.374 . S
C1968 C1965 1.499 . S
C1968 C1969 1.373 . S
C1968 C1970 1.389 . S
C1969 H1948 0.950 . S
C1969 C1968 1.373 . S
C1969 C1985 1.377 . S
C1970 C1968 1.389 . S
C1970 C1971 1.524 . S
C1970 C1984 1.377 . S
C1971 C1970 1.524 . S
C1971 C1972 1.397 . S
C1971 C1976 1.363 . S
C1972 H1949 0.950 . S
C1972 C1971 1.397 . S
C1972 C1973 1.334 . S
C1973 H1950 0.950 . S
C1973 C1972 1.334 . S
C1973 C1974 1.287 . S
C1974 C1973 1.287 . S
C1974 C1975 1.524 . S
C1974 H1993 0.913 . S
C1975 H1951 0.950 . S
C1975 C1974 1.524 . S
C1975 C1976 1.415 . S
C1976 H1952 0.950 . S
C1976 C1971 1.363 . S
C1976 C1975 1.415 . S
C1977 H1953 0.951 . S
C1977 C1978 1.366 . S
C1977 C1979 1.388 . S
C1978 C1977 1.366 . S
C1978 C1982 1.385 . S
C1979 H1954 0.951 . S
C1979 C1977 1.388 . S
C1979 C1980 1.366 . S
C1980 C1979 1.366 . S
C1980 C1981 1.414 . S
C1980 C1983 1.499 1_655 S
C1981 H1955 0.950 . S
C1981 C1980 1.414 . S
C1981 C1982 1.374 . S
C1982 H1956 0.950 . S
C1982 C1978 1.385 . S
C1982 C1981 1.374 . S
C1983 C1980 1.499 1_455 S
C1983 C1984 1.373 . S
C1983 C1985 1.389 . S
C1984 H1957 0.950 . S
C1984 C1970 1.377 . S
C1984 C1983 1.373 . S
C1985 C1969 1.377 . S
C1985 C1983 1.389 . S
C1985 C1986 1.524 . S
C1986 C1985 1.524 . S
C1986 C1987 1.397 1_455 S
C1986 C1991 1.363 . S
C1987 H1958 0.950 . S
C1987 C1986 1.397 1_655 S
C1987 C1988 1.334 . S
C1988 H1959 0.950 . S
C1988 C1987 1.334 . S
C1988 C1989 1.287 . S
C1989 C1988 1.287 . S
C1989 C1990 1.524 1_655 S
C1989 H1992 0.999 . S
C1990 H1960 0.950 . S
C1990 C1989 1.524 1_455 S
C1990 C1991 1.415 . S
C1991 H1961 0.950 . S
C1991 C1986 1.363 . S
C1991 C1990 1.415 . S
H1992 C1989 0.999 . S
H1993 C1974 0.913 . S
H1994 C2012 0.951 . S
H1995 C2014 0.951 . S
H1996 C2016 0.950 . S
H1997 C2017 0.950 . S
H1998 C2019 0.950 . S
H1999 C2022 0.950 . S
H2000 C2023 0.950 . S
H2001 C2025 0.950 . S
H2002 C2026 0.950 . S
H2003 C2027 0.951 . S
H2004 C2029 0.951 . S
H2005 C2031 0.950 . S
H2006 C2032 0.950 . S
H2007 C2034 0.950 . S
H2008 C2037 0.950 . S
H2009 C2038 0.950 . S
H2010 C2040 0.950 . S
H2011 C2041 0.950 . S
C2012 H1994 0.951 . S
C2012 C2013 1.366 . S
C2012 C2014 1.388 . S
C2013 C2012 1.366 . S
C2013 C2017 1.385 . S
C2014 H1995 0.951 . S
C2014 C2012 1.388 . S
C2014 C2015 1.366 . S
C2015 C2014 1.366 . S
C2015 C2016 1.414 . S
C2015 C2018 1.499 . S
C2016 H1996 0.950 . S
C2016 C2015 1.414 . S
C2016 C2017 1.374 . S
C2017 H1997 0.950 . S
C2017 C2013 1.385 . S
C2017 C2016 1.374 . S
C2018 C2015 1.499 . S
C2018 C2019 1.373 . S
C2018 C2020 1.389 . S
C2019 H1998 0.950 . S
C2019 C2018 1.373 . S
C2019 C2035 1.377 . S
C2020 C2018 1.389 . S
C2020 C2021 1.524 . S
C2020 C2034 1.377 . S
C2021 C2020 1.524 . S
C2021 C2022 1.397 . S
C2021 C2026 1.363 . S
C2022 H1999 0.950 . S
C2022 C2021 1.397 . S
C2022 C2023 1.334 . S
C2023 H2000 0.950 . S
C2023 C2022 1.334 . S
C2023 C2024 1.287 . S
C2024 C2023 1.287 . S
C2024 C2025 1.524 . S
C2024 H2043 0.913 . S
C2025 H2001 0.950 . S
C2025 C2024 1.524 . S
C2025 C2026 1.415 . S
C2026 H2002 0.950 . S
C2026 C2021 1.363 . S
C2026 C2025 1.415 . S
C2027 H2003 0.951 . S
C2027 C2028 1.366 . S
C2027 C2029 1.388 . S
C2028 C2027 1.366 . S
C2028 C2032 1.385 . S
C2029 H2004 0.951 . S
C2029 C2027 1.388 . S
C2029 C2030 1.366 . S
C2030 C2029 1.366 . S
C2030 C2031 1.414 . S
C2030 C2033 1.499 . S
C2031 H2005 0.950 . S
C2031 C2030 1.414 . S
C2031 C2032 1.374 . S
C2032 H2006 0.950 . S
C2032 C2028 1.385 . S
C2032 C2031 1.374 . S
C2033 C2030 1.499 . S
C2033 C2034 1.373 . S
C2033 C2035 1.389 . S
C2034 H2007 0.950 . S
C2034 C2020 1.377 . S
C2034 C2033 1.373 . S
C2035 C2019 1.377 . S
C2035 C2033 1.389 . S
C2035 C2036 1.524 . S
C2036 C2035 1.524 . S
C2036 C2037 1.397 . S
C2036 C2041 1.363 . S
C2037 H2008 0.950 . S
C2037 C2036 1.397 . S
C2037 C2038 1.334 . S
C2038 H2009 0.950 . S
C2038 C2037 1.334 . S
C2038 C2039 1.287 . S
C2039 C2038 1.287 . S
C2039 C2040 1.524 . S
C2039 H2042 0.999 . S
C2040 H2010 0.950 . S
C2040 C2039 1.524 . S
C2040 C2041 1.415 . S
C2041 H2011 0.950 . S
C2041 C2036 1.363 . S
C2041 C2040 1.415 . S
H2042 C2039 0.999 . S
H2043 C2024 0.913 . S
H2044 C2062 0.951 . S
H2045 C2064 0.951 . S
H2046 C2066 0.950 . S
H2047 C2067 0.950 . S
H2048 C2069 0.950 . S
H2049 C2072 0.950 . S
H2050 C2073 0.950 . S
H2051 C2075 0.950 . S
H2052 C2076 0.950 . S
H2053 C2077 0.951 . S
H2054 C2079 0.951 . S
H2055 C2081 0.950 . S
H2056 C2082 0.950 . S
H2057 C2084 0.950 . S
H2058 C2087 0.950 . S
H2059 C2088 0.950 . S
H2060 C2090 0.956 . S
H2061 C2091 0.950 . S
C2062 H2044 0.951 . S
C2062 C2063 1.366 . S
C2062 C2064 1.388 . S
C2063 C2062 1.366 . S
C2063 C2067 1.385 . S
C2064 H2045 0.951 . S
C2064 C2062 1.388 . S
C2064 C2065 1.366 . S
C2065 C2064 1.366 . S
C2065 C2066 1.414 . S
C2065 C2068 1.499 . S
C2066 H2046 0.950 . S
C2066 C2065 1.414 . S
C2066 C2067 1.374 . S
C2067 H2047 0.950 . S
C2067 C2063 1.385 . S
C2067 C2066 1.374 . S
C2068 C2065 1.499 . S
C2068 C2069 1.373 . S
C2068 C2070 1.389 . S
C2069 H2048 0.950 . S
C2069 C2068 1.373 . S
C2069 C2085 1.377 . S
C2070 C2068 1.389 . S
C2070 C2071 1.524 . S
C2070 C2084 1.377 . S
C2071 C2070 1.524 . S
C2071 C2072 1.397 . S
C2071 C2076 1.363 . S
C2072 H2049 0.950 . S
C2072 C2071 1.397 . S
C2072 C2073 1.334 . S
C2073 H2050 0.950 . S
C2073 C2072 1.334 . S
C2073 C2074 1.287 . S
C2074 C2073 1.287 . S
C2074 C2075 1.524 . S
C2074 H2093 0.913 . S
C2075 H2051 0.950 . S
C2075 C2074 1.524 . S
C2075 C2076 1.415 . S
C2076 H2052 0.950 . S
C2076 C2071 1.363 . S
C2076 C2075 1.415 . S
C2077 H2053 0.951 . S
C2077 C2078 1.366 . S
C2077 C2079 1.388 . S
C2078 C2077 1.366 . S
C2078 C2082 1.385 . S
C2079 H2054 0.951 . S
C2079 C2077 1.388 . S
C2079 C2080 1.366 . S
C2080 C2079 1.366 . S
C2080 C2081 1.414 . S
C2080 C2083 1.499 1_655 S
C2081 H2055 0.950 . S
C2081 C2080 1.414 . S
C2081 C2082 1.374 . S
C2082 H2056 0.950 . S
C2082 C2078 1.385 . S
C2082 C2081 1.374 . S
C2083 C2080 1.499 1_455 S
C2083 C2084 1.373 . S
C2083 C2085 1.389 . S
C2084 H2057 0.950 . S
C2084 C2070 1.377 . S
C2084 C2083 1.373 . S
C2085 C2069 1.377 . S
C2085 C2083 1.389 . S
C2085 C2086 1.524 . S
C2086 C2085 1.524 . S
C2086 C2087 1.397 1_455 S
C2086 C2091 1.363 . S
C2087 H2058 0.950 . S
C2087 C2086 1.397 1_655 S
C2087 C2088 1.334 . S
C2088 H2059 0.950 . S
C2088 C2087 1.334 . S
C2088 C2089 1.287 . S
C2089 C2088 1.287 . S
C2089 C2090 1.500 1_655 S
C2089 H2092 0.999 . S
C2090 H2060 0.956 . S
C2090 C2089 1.500 1_455 S
C2090 C2091 1.434 . S
C2091 H2061 0.950 . S
C2091 C2086 1.363 . S
C2091 C2090 1.434 . S
H2092 C2089 0.999 . S
H2093 C2074 0.913 . S
H2094 C2112 0.951 . S
H2095 C2114 0.951 . S
H2096 C2116 0.950 . S
H2097 C2117 0.950 . S
H2098 C2119 0.950 . S
H2099 C2122 0.950 . S
H2100 C2123 0.950 . S
H2101 C2125 0.950 . S
H2102 C2126 0.950 . S
H2103 C2127 0.951 . S
H2104 C2129 0.951 . S
H2105 C2131 0.950 . S
H2106 C2132 0.950 . S
H2107 C2134 0.950 . S
H2108 C2137 0.950 . S
H2109 C2138 0.950 . S
H2110 C2140 0.950 . S
H2111 C2141 0.950 . S
C2112 H2094 0.951 . S
C2112 C2113 1.366 . S
C2112 C2114 1.388 . S
C2113 C2112 1.366 . S
C2113 C2117 1.385 . S
C2114 H2095 0.951 . S
C2114 C2112 1.388 . S
C2114 C2115 1.366 . S
C2115 C2114 1.366 . S
C2115 C2116 1.414 . S
C2115 C2118 1.499 . S
C2116 H2096 0.950 . S
C2116 C2115 1.414 . S
C2116 C2117 1.374 . S
C2117 H2097 0.950 . S
C2117 C2113 1.385 . S
C2117 C2116 1.374 . S
C2118 C2115 1.499 . S
C2118 C2119 1.373 . S
C2118 C2120 1.389 . S
C2119 H2098 0.950 . S
C2119 C2118 1.373 . S
C2119 C2135 1.377 . S
C2120 C2118 1.389 . S
C2120 C2121 1.524 . S
C2120 C2134 1.377 . S
C2121 C2120 1.524 . S
C2121 C2122 1.397 . S
C2121 C2126 1.363 . S
C2122 H2099 0.950 . S
C2122 C2121 1.397 . S
C2122 C2123 1.334 . S
C2123 H2100 0.950 . S
C2123 C2122 1.334 . S
C2123 C2124 1.287 . S
C2124 C2123 1.287 . S
C2124 C2125 1.524 . S
C2124 H2143 0.913 . S
C2125 H2101 0.950 . S
C2125 C2124 1.524 . S
C2125 C2126 1.415 . S
C2126 H2102 0.950 . S
C2126 C2121 1.363 . S
C2126 C2125 1.415 . S
C2127 H2103 0.951 . S
C2127 C2128 1.366 . S
C2127 C2129 1.388 . S
C2128 C2127 1.366 . S
C2128 C2132 1.385 . S
C2129 H2104 0.951 . S
C2129 C2127 1.388 . S
C2129 C2130 1.366 . S
C2130 C2129 1.366 . S
C2130 C2131 1.414 . S
C2130 C2133 1.499 . S
C2131 H2105 0.950 . S
C2131 C2130 1.414 . S
C2131 C2132 1.374 . S
C2132 H2106 0.950 . S
C2132 C2128 1.385 . S
C2132 C2131 1.374 . S
C2133 C2130 1.499 . S
C2133 C2134 1.373 . S
C2133 C2135 1.389 . S
C2134 H2107 0.950 . S
C2134 C2120 1.377 . S
C2134 C2133 1.373 . S
C2135 C2119 1.377 . S
C2135 C2133 1.389 . S
C2135 C2136 1.524 . S
C2136 C2135 1.524 . S
C2136 C2137 1.397 . S
C2136 C2141 1.363 . S
C2137 H2108 0.950 . S
C2137 C2136 1.397 . S
C2137 C2138 1.334 . S
C2138 H2109 0.950 . S
C2138 C2137 1.334 . S
C2138 C2139 1.287 . S
C2139 C2138 1.287 . S
C2139 C2140 1.524 . S
C2139 H2142 0.999 . S
C2140 H2110 0.950 . S
C2140 C2139 1.524 . S
C2140 C2141 1.415 . S
C2141 H2111 0.950 . S
C2141 C2136 1.363 . S
C2141 C2140 1.415 . S
H2142 C2139 0.999 . S
H2143 C2124 0.913 . S
H2144 C2162 0.951 . S
H2145 C2164 0.951 . S
H2146 C2166 0.950 . S
H2147 C2167 0.950 . S
H2148 C2169 0.950 . S
H2149 C2172 0.950 . S
H2150 C2173 0.950 . S
H2151 C2175 0.950 . S
H2152 C2176 0.950 . S
H2153 C2177 0.951 . S
H2154 C2179 0.951 . S
H2155 C2181 0.950 . S
H2156 C2182 0.950 . S
H2157 C2184 0.950 . S
H2158 C2187 0.950 . S
H2159 C2188 0.950 . S
H2160 C2190 0.950 . S
H2161 C2191 0.950 . S
C2162 H2144 0.951 . S
C2162 C2163 1.366 . S
C2162 C2164 1.388 . S
C2163 C2162 1.366 . S
C2163 C2167 1.385 . S
C2164 H2145 0.951 . S
C2164 C2162 1.388 . S
C2164 C2165 1.366 . S
C2165 C2164 1.366 . S
C2165 C2166 1.414 . S
C2165 C2168 1.499 . S
C2166 H2146 0.950 . S
C2166 C2165 1.414 . S
C2166 C2167 1.374 . S
C2167 H2147 0.950 . S
C2167 C2163 1.385 . S
C2167 C2166 1.374 . S
C2168 C2165 1.499 . S
C2168 C2169 1.373 . S
C2168 C2170 1.389 . S
C2169 H2148 0.950 . S
C2169 C2168 1.373 . S
C2169 C2185 1.377 . S
C2170 C2168 1.389 . S
C2170 C2171 1.524 . S
C2170 C2184 1.377 . S
C2171 C2170 1.524 . S
C2171 C2172 1.397 . S
C2171 C2176 1.363 . S
C2172 H2149 0.950 . S
C2172 C2171 1.397 . S
C2172 C2173 1.334 . S
C2173 H2150 0.950 . S
C2173 C2172 1.334 . S
C2173 C2174 1.287 . S
C2174 C2173 1.287 . S
C2174 C2175 1.524 . S
C2174 H2193 0.913 . S
C2175 H2151 0.950 . S
C2175 C2174 1.524 . S
C2175 C2176 1.415 . S
C2176 H2152 0.950 . S
C2176 C2171 1.363 . S
C2176 C2175 1.415 . S
C2177 H2153 0.951 . S
C2177 C2178 1.366 . S
C2177 C2179 1.388 . S
C2178 C2177 1.366 . S
C2178 C2182 1.385 . S
C2179 H2154 0.951 . S
C2179 C2177 1.388 . S
C2179 C2180 1.366 . S
C2180 C2179 1.366 . S
C2180 C2181 1.414 . S
C2180 C2183 1.499 . S
C2181 H2155 0.950 . S
C2181 C2180 1.414 . S
C2181 C2182 1.374 . S
C2182 H2156 0.950 . S
C2182 C2178 1.385 . S
C2182 C2181 1.374 . S
C2183 C2180 1.499 . S
C2183 C2184 1.373 . S
C2183 C2185 1.389 . S
C2184 H2157 0.950 . S
C2184 C2170 1.377 . S
C2184 C2183 1.373 . S
C2185 C2169 1.377 . S
C2185 C2183 1.389 . S
C2185 C2186 1.524 . S
C2186 C2185 1.524 . S
C2186 C2187 1.397 . S
C2186 C2191 1.363 . S
C2187 H2158 0.950 . S
C2187 C2186 1.397 . S
C2187 C2188 1.334 . S
C2188 H2159 0.950 . S
C2188 C2187 1.334 . S
C2188 C2189 1.287 . S
C2189 C2188 1.287 . S
C2189 C2190 1.524 . S
C2189 H2192 0.999 . S
C2190 H2160 0.950 . S
C2190 C2189 1.524 . S
C2190 C2191 1.415 . S
C2191 H2161 0.950 . S
C2191 C2186 1.363 . S
C2191 C2190 1.415 . S
H2192 C2189 0.999 . S
H2193 C2174 0.913 . S
H2194 C2212 0.951 . S
H2195 C2214 0.951 . S
H2196 C2216 0.950 . S
H2197 C2217 0.950 . S
H2198 C2219 0.950 . S
H2199 C2222 0.950 . S
H2200 C2223 0.950 . S
H2201 C2225 0.950 . S
H2202 C2226 0.950 . S
H2203 C2227 0.951 . S
H2204 C2229 0.951 . S
H2205 C2231 0.950 . S
H2206 C2232 0.950 . S
H2207 C2234 0.950 . S
H2208 C2237 0.950 . S
H2209 C2238 0.950 . S
H2210 C2240 0.950 . S
H2211 C2241 0.950 . S
C2212 H2194 0.951 . S
C2212 C2213 1.366 . S
C2212 C2214 1.388 . S
C2213 C2212 1.366 . S
C2213 C2217 1.385 . S
C2214 H2195 0.951 . S
C2214 C2212 1.388 . S
C2214 C2215 1.366 . S
C2215 C2214 1.366 . S
C2215 C2216 1.414 . S
C2215 C2218 1.499 . S
C2216 H2196 0.950 . S
C2216 C2215 1.414 . S
C2216 C2217 1.374 . S
C2217 H2197 0.950 . S
C2217 C2213 1.385 . S
C2217 C2216 1.374 . S
C2218 C2215 1.499 . S
C2218 C2219 1.373 . S
C2218 C2220 1.389 . S
C2219 H2198 0.950 . S
C2219 C2218 1.373 . S
C2219 C2235 1.377 . S
C2220 C2218 1.389 . S
C2220 C2221 1.524 . S
C2220 C2234 1.377 . S
C2221 C2220 1.524 . S
C2221 C2222 1.397 . S
C2221 C2226 1.363 . S
C2222 H2199 0.950 . S
C2222 C2221 1.397 . S
C2222 C2223 1.334 . S
C2223 H2200 0.950 . S
C2223 C2222 1.334 . S
C2223 C2224 1.287 . S
C2224 C2223 1.287 . S
C2224 C2225 1.524 . S
C2224 H2243 0.913 . S
C2225 H2201 0.950 . S
C2225 C2224 1.524 . S
C2225 C2226 1.415 . S
C2226 H2202 0.950 . S
C2226 C2221 1.363 . S
C2226 C2225 1.415 . S
C2227 H2203 0.951 . S
C2227 C2228 1.366 . S
C2227 C2229 1.388 . S
C2228 C2227 1.366 . S
C2228 C2232 1.385 . S
C2229 H2204 0.951 . S
C2229 C2227 1.388 . S
C2229 C2230 1.366 . S
C2230 C2229 1.366 . S
C2230 C2231 1.414 . S
C2230 C2233 1.499 . S
C2231 H2205 0.950 . S
C2231 C2230 1.414 . S
C2231 C2232 1.374 . S
C2232 H2206 0.950 . S
C2232 C2228 1.385 . S
C2232 C2231 1.374 . S
C2233 C2230 1.499 . S
C2233 C2234 1.373 . S
C2233 C2235 1.389 . S
C2234 H2207 0.950 . S
C2234 C2220 1.377 . S
C2234 C2233 1.373 . S
C2235 C2219 1.377 . S
C2235 C2233 1.389 . S
C2235 C2236 1.524 . S
C2236 C2235 1.524 . S
C2236 C2237 1.397 . S
C2236 C2241 1.363 . S
C2237 H2208 0.950 . S
C2237 C2236 1.397 . S
C2237 C2238 1.334 . S
C2238 H2209 0.950 . S
C2238 C2237 1.334 . S
C2238 C2239 1.287 . S
C2239 C2238 1.287 . S
C2239 C2240 1.524 . S
C2239 H2242 0.999 . S
C2240 H2210 0.950 . S
C2240 C2239 1.524 . S
C2240 C2241 1.415 . S
C2241 H2211 0.950 . S
C2241 C2236 1.363 . S
C2241 C2240 1.415 . S
H2242 C2239 0.999 . S
H2243 C2224 0.913 . S
H2244 C2262 0.951 . S
H2245 C2264 0.951 . S
H2246 C2266 0.950 . S
H2247 C2267 0.950 . S
H2248 C2269 0.950 . S
H2249 C2272 0.950 . S
H2250 C2273 0.950 . S
H2251 C2275 0.950 . S
H2252 C2276 0.950 . S
H2253 C2277 0.951 . S
H2254 C2279 0.951 . S
H2255 C2281 0.950 . S
H2256 C2282 0.950 . S
H2257 C2284 0.950 . S
H2258 C2287 0.950 . S
H2259 C2288 0.950 . S
H2260 C2290 0.950 . S
H2261 C2291 0.950 . S
C2262 H2244 0.951 . S
C2262 C2263 1.366 . S
C2262 C2264 1.388 . S
C2263 C2262 1.366 . S
C2263 C2267 1.385 . S
C2264 H2245 0.951 . S
C2264 C2262 1.388 . S
C2264 C2265 1.366 . S
C2265 C2264 1.366 . S
C2265 C2266 1.414 . S
C2265 C2268 1.499 . S
C2266 H2246 0.950 . S
C2266 C2265 1.414 . S
C2266 C2267 1.374 . S
C2267 H2247 0.950 . S
C2267 C2263 1.385 . S
C2267 C2266 1.374 . S
C2268 C2265 1.499 . S
C2268 C2269 1.373 . S
C2268 C2270 1.389 . S
C2269 H2248 0.950 . S
C2269 C2268 1.373 . S
C2269 C2285 1.377 . S
C2270 C2268 1.389 . S
C2270 C2271 1.524 . S
C2270 C2284 1.377 . S
C2271 C2270 1.524 . S
C2271 C2272 1.397 . S
C2271 C2276 1.363 . S
C2272 H2249 0.950 . S
C2272 C2271 1.397 . S
C2272 C2273 1.334 . S
C2273 H2250 0.950 . S
C2273 C2272 1.334 . S
C2273 C2274 1.287 . S
C2274 C2273 1.287 . S
C2274 C2275 1.524 . S
C2274 H2293 0.913 . S
C2275 H2251 0.950 . S
C2275 C2274 1.524 . S
C2275 C2276 1.415 . S
C2276 H2252 0.950 . S
C2276 C2271 1.363 . S
C2276 C2275 1.415 . S
C2277 H2253 0.951 . S
C2277 C2278 1.366 . S
C2277 C2279 1.388 . S
C2278 C2277 1.366 . S
C2278 C2282 1.385 . S
C2279 H2254 0.951 . S
C2279 C2277 1.388 . S
C2279 C2280 1.366 . S
C2280 C2279 1.366 . S
C2280 C2281 1.414 . S
C2280 C2283 1.499 . S
C2281 H2255 0.950 . S
C2281 C2280 1.414 . S
C2281 C2282 1.374 . S
C2282 H2256 0.950 . S
C2282 C2278 1.385 . S
C2282 C2281 1.374 . S
C2283 C2280 1.499 . S
C2283 C2284 1.373 . S
C2283 C2285 1.389 . S
C2284 H2257 0.950 . S
C2284 C2270 1.377 . S
C2284 C2283 1.373 . S
C2285 C2269 1.377 . S
C2285 C2283 1.389 . S
C2285 C2286 1.524 . S
C2286 C2285 1.524 . S
C2286 C2287 1.397 . S
C2286 C2291 1.363 . S
C2287 H2258 0.950 . S
C2287 C2286 1.397 . S
C2287 C2288 1.334 . S
C2288 H2259 0.950 . S
C2288 C2287 1.334 . S
C2288 C2289 1.287 . S
C2289 C2288 1.287 . S
C2289 C2290 1.524 . S
C2289 H2292 0.999 . S
C2290 H2260 0.950 . S
C2290 C2289 1.524 . S
C2290 C2291 1.415 . S
C2291 H2261 0.950 . S
C2291 C2286 1.363 . S
C2291 C2290 1.415 . S
H2292 C2289 0.999 . S
H2293 C2274 0.913 . S
H2294 C2312 0.951 . S
H2295 C2314 0.951 . S
H2296 C2316 0.950 . S
H2297 C2317 0.950 . S
H2298 C2319 0.950 . S
H2299 C2322 0.950 . S
H2300 C2323 0.950 . S
H2301 C2325 0.950 . S
H2302 C2326 0.950 . S
H2303 C2327 0.951 . S
H2304 C2329 0.951 . S
H2305 C2331 0.950 . S
H2306 C2332 0.950 . S
H2307 C2334 0.950 . S
H2308 C2337 0.950 . S
H2309 C2338 0.950 . S
H2310 C2340 0.950 . S
H2311 C2341 0.950 . S
C2312 H2294 0.951 . S
C2312 C2313 1.366 . S
C2312 C2314 1.388 . S
C2313 C2312 1.366 . S
C2313 C2317 1.385 . S
C2314 H2295 0.951 . S
C2314 C2312 1.388 . S
C2314 C2315 1.366 . S
C2315 C2314 1.366 . S
C2315 C2316 1.414 . S
C2315 C2318 1.499 . S
C2316 H2296 0.950 . S
C2316 C2315 1.414 . S
C2316 C2317 1.374 . S
C2317 H2297 0.950 . S
C2317 C2313 1.385 . S
C2317 C2316 1.374 . S
C2318 C2315 1.499 . S
C2318 C2319 1.373 . S
C2318 C2320 1.389 . S
C2319 H2298 0.950 . S
C2319 C2318 1.373 . S
C2319 C2335 1.377 . S
C2320 C2318 1.389 . S
C2320 C2321 1.524 . S
C2320 C2334 1.377 . S
C2321 C2320 1.524 . S
C2321 C2322 1.397 . S
C2321 C2326 1.363 . S
C2322 H2299 0.950 . S
C2322 C2321 1.397 . S
C2322 C2323 1.334 . S
C2323 H2300 0.950 . S
C2323 C2322 1.334 . S
C2323 C2324 1.287 . S
C2324 C2323 1.287 . S
C2324 C2325 1.524 . S
C2324 H2343 0.913 . S
C2325 H2301 0.950 . S
C2325 C2324 1.524 . S
C2325 C2326 1.415 . S
C2326 H2302 0.950 . S
C2326 C2321 1.363 . S
C2326 C2325 1.415 . S
C2327 H2303 0.951 . S
C2327 C2328 1.366 . S
C2327 C2329 1.388 . S
C2328 C2327 1.366 . S
C2328 C2332 1.385 . S
C2329 H2304 0.951 . S
C2329 C2327 1.388 . S
C2329 C2330 1.366 . S
C2330 C2329 1.366 . S
C2330 C2331 1.414 . S
C2330 C2333 1.499 . S
C2331 H2305 0.950 . S
C2331 C2330 1.414 . S
C2331 C2332 1.374 . S
C2332 H2306 0.950 . S
C2332 C2328 1.385 . S
C2332 C2331 1.374 . S
C2333 C2330 1.499 . S
C2333 C2334 1.373 . S
C2333 C2335 1.389 . S
C2334 H2307 0.950 . S
C2334 C2320 1.377 . S
C2334 C2333 1.373 . S
C2335 C2319 1.377 . S
C2335 C2333 1.389 . S
C2335 C2336 1.524 . S
C2336 C2335 1.524 . S
C2336 C2337 1.397 . S
C2336 C2341 1.363 . S
C2337 H2308 0.950 . S
C2337 C2336 1.397 . S
C2337 C2338 1.334 . S
C2338 H2309 0.950 . S
C2338 C2337 1.334 . S
C2338 C2339 1.287 . S
C2339 C2338 1.287 . S
C2339 C2340 1.524 . S
C2339 H2342 0.999 . S
C2340 H2310 0.950 . S
C2340 C2339 1.524 . S
C2340 C2341 1.415 . S
C2341 H2311 0.950 . S
C2341 C2336 1.363 . S
C2341 C2340 1.415 . S
H2342 C2339 0.999 . S
H2343 C2324 0.913 . S
H2344 C2362 0.951 . S
H2345 C2364 0.951 . S
H2346 C2366 0.950 . S
H2347 C2367 0.950 . S
H2348 C2369 0.950 . S
H2349 C2372 0.950 . S
H2350 C2373 0.950 . S
H2351 C2375 0.950 . S
H2352 C2376 0.950 . S
H2353 C2377 0.951 . S
H2354 C2379 0.951 . S
H2355 C2381 0.950 . S
H2356 C2382 0.950 . S
H2357 C2384 0.950 . S
H2358 C2387 0.950 . S
H2359 C2388 0.950 . S
H2360 C2390 0.950 . S
H2361 C2391 0.950 . S
C2362 H2344 0.951 . S
C2362 C2363 1.366 . S
C2362 C2364 1.388 . S
C2363 C2362 1.366 . S
C2363 C2367 1.385 . S
C2364 H2345 0.951 . S
C2364 C2362 1.388 . S
C2364 C2365 1.366 . S
C2365 C2364 1.366 . S
C2365 C2366 1.414 . S
C2365 C2368 1.499 . S
C2366 H2346 0.950 . S
C2366 C2365 1.414 . S
C2366 C2367 1.374 . S
C2367 H2347 0.950 . S
C2367 C2363 1.385 . S
C2367 C2366 1.374 . S
C2368 C2365 1.499 . S
C2368 C2369 1.373 . S
C2368 C2370 1.389 . S
C2369 H2348 0.950 . S
C2369 C2368 1.373 . S
C2369 C2385 1.377 . S
C2370 C2368 1.389 . S
C2370 C2371 1.524 . S
C2370 C2384 1.377 . S
C2371 C2370 1.524 . S
C2371 C2372 1.397 . S
C2371 C2376 1.363 . S
C2372 H2349 0.950 . S
C2372 C2371 1.397 . S
C2372 C2373 1.334 . S
C2373 H2350 0.950 . S
C2373 C2372 1.334 . S
C2373 C2374 1.287 . S
C2374 C2373 1.287 . S
C2374 C2375 1.524 . S
C2374 H2393 0.913 . S
C2375 H2351 0.950 . S
C2375 C2374 1.524 . S
C2375 C2376 1.415 . S
C2376 H2352 0.950 . S
C2376 C2371 1.363 . S
C2376 C2375 1.415 . S
C2377 H2353 0.951 . S
C2377 C2378 1.366 . S
C2377 C2379 1.388 . S
C2378 C2377 1.366 . S
C2378 C2382 1.385 . S
C2379 H2354 0.951 . S
C2379 C2377 1.388 . S
C2379 C2380 1.366 . S
C2380 C2379 1.366 . S
C2380 C2381 1.414 . S
C2380 C2383 1.499 . S
C2381 H2355 0.950 . S
C2381 C2380 1.414 . S
C2381 C2382 1.374 . S
C2382 H2356 0.950 . S
C2382 C2378 1.385 . S
C2382 C2381 1.374 . S
C2383 C2380 1.499 . S
C2383 C2384 1.373 . S
C2383 C2385 1.389 . S
C2384 H2357 0.950 . S
C2384 C2370 1.377 . S
C2384 C2383 1.373 . S
C2385 C2369 1.377 . S
C2385 C2383 1.389 . S
C2385 C2386 1.524 . S
C2386 C2385 1.524 . S
C2386 C2387 1.397 . S
C2386 C2391 1.363 . S
C2387 H2358 0.950 . S
C2387 C2386 1.397 . S
C2387 C2388 1.334 . S
C2388 H2359 0.950 . S
C2388 C2387 1.334 . S
C2388 C2389 1.287 . S
C2389 C2388 1.287 . S
C2389 C2390 1.524 . S
C2389 H2392 0.999 . S
C2390 H2360 0.950 . S
C2390 C2389 1.524 . S
C2390 C2391 1.415 . S
C2391 H2361 0.950 . S
C2391 C2386 1.363 . S
C2391 C2390 1.415 . S
H2392 C2389 0.999 . S
H2393 C2374 0.913 . S
H2394 C2412 0.951 . S
H2395 C2414 0.951 . S
H2396 C2416 0.950 . S
H2397 C2417 0.950 . S
H2398 C2419 0.950 . S
H2399 C2422 0.950 . S
H2400 C2423 0.950 . S
H2401 C2425 0.950 . S
H2402 C2426 0.950 . S
H2403 C2427 0.951 . S
H2404 C2429 0.951 . S
H2405 C2431 0.950 . S
H2406 C2432 0.950 . S
H2407 C2434 0.950 . S
H2408 C2437 0.950 . S
H2409 C2438 0.950 . S
H2410 C2440 0.950 . S
H2411 C2441 0.950 . S
C2412 H2394 0.951 . S
C2412 C2413 1.366 . S
C2412 C2414 1.388 . S
C2413 C2412 1.366 . S
C2413 C2417 1.385 . S
C2414 H2395 0.951 . S
C2414 C2412 1.388 . S
C2414 C2415 1.366 . S
C2415 C2414 1.366 . S
C2415 C2416 1.414 . S
C2415 C2418 1.499 . S
C2416 H2396 0.950 . S
C2416 C2415 1.414 . S
C2416 C2417 1.374 . S
C2417 H2397 0.950 . S
C2417 C2413 1.385 . S
C2417 C2416 1.374 . S
C2418 C2415 1.499 . S
C2418 C2419 1.373 . S
C2418 C2420 1.389 . S
C2419 H2398 0.950 . S
C2419 C2418 1.373 . S
C2419 C2435 1.377 . S
C2420 C2418 1.389 . S
C2420 C2421 1.524 . S
C2420 C2434 1.377 . S
C2421 C2420 1.524 . S
C2421 C2422 1.397 . S
C2421 C2426 1.363 . S
C2422 H2399 0.950 . S
C2422 C2421 1.397 . S
C2422 C2423 1.334 . S
C2423 H2400 0.950 . S
C2423 C2422 1.334 . S
C2423 C2424 1.287 . S
C2424 C2423 1.287 . S
C2424 C2425 1.524 . S
C2424 H2443 0.913 . S
C2425 H2401 0.950 . S
C2425 C2424 1.524 . S
C2425 C2426 1.415 . S
C2426 H2402 0.950 . S
C2426 C2421 1.363 . S
C2426 C2425 1.415 . S
C2427 H2403 0.951 . S
C2427 C2428 1.366 . S
C2427 C2429 1.388 . S
C2428 C2427 1.366 . S
C2428 C2432 1.385 . S
C2429 H2404 0.951 . S
C2429 C2427 1.388 . S
C2429 C2430 1.366 . S
C2430 C2429 1.366 . S
C2430 C2431 1.414 . S
C2430 C2433 1.499 . S
C2431 H2405 0.950 . S
C2431 C2430 1.414 . S
C2431 C2432 1.374 . S
C2432 H2406 0.950 . S
C2432 C2428 1.385 . S
C2432 C2431 1.374 . S
C2433 C2430 1.499 . S
C2433 C2434 1.373 . S
C2433 C2435 1.389 . S
C2434 H2407 0.950 . S
C2434 C2420 1.377 . S
C2434 C2433 1.373 . S
C2435 C2419 1.377 . S
C2435 C2433 1.389 . S
C2435 C2436 1.524 . S
C2436 C2435 1.524 . S
C2436 C2437 1.397 . S
C2436 C2441 1.363 . S
C2437 H2408 0.950 . S
C2437 C2436 1.397 . S
C2437 C2438 1.334 . S
C2438 H2409 0.950 . S
C2438 C2437 1.334 . S
C2438 C2439 1.287 . S
C2439 C2438 1.287 . S
C2439 C2440 1.524 . S
C2439 H2442 0.999 . S
C2440 H2410 0.950 . S
C2440 C2439 1.524 . S
C2440 C2441 1.415 . S
C2441 H2411 0.950 . S
C2441 C2436 1.363 . S
C2441 C2440 1.415 . S
H2442 C2439 0.999 . S
H2443 C2424 0.913 . S
H2444 C2462 0.951 . S
H2445 C2464 0.951 . S
H2446 C2466 0.950 . S
H2447 C2467 0.950 . S
H2448 C2469 0.950 . S
H2449 C2472 0.950 . S
H2450 C2473 0.950 . S
H2451 C2475 0.950 . S
H2452 C2476 0.950 . S
H2453 C2477 0.951 . S
H2454 C2479 0.951 . S
H2455 C2481 0.950 . S
H2456 C2482 0.950 . S
H2457 C2484 0.950 . S
H2458 C2487 0.950 . S
H2459 C2488 0.950 . S
H2460 C2490 0.950 . S
H2461 C2491 0.950 . S
C2462 H2444 0.951 . S
C2462 C2463 1.366 . S
C2462 C2464 1.388 . S
C2463 C2462 1.366 . S
C2463 C2467 1.385 . S
C2464 H2445 0.951 . S
C2464 C2462 1.388 . S
C2464 C2465 1.366 . S
C2465 C2464 1.366 . S
C2465 C2466 1.414 . S
C2465 C2468 1.499 . S
C2466 H2446 0.950 . S
C2466 C2465 1.414 . S
C2466 C2467 1.374 . S
C2467 H2447 0.950 . S
C2467 C2463 1.385 . S
C2467 C2466 1.374 . S
C2468 C2465 1.499 . S
C2468 C2469 1.373 . S
C2468 C2470 1.389 . S
C2469 H2448 0.950 . S
C2469 C2468 1.373 . S
C2469 C2485 1.377 . S
C2470 C2468 1.389 . S
C2470 C2471 1.524 . S
C2470 C2484 1.377 . S
C2471 C2470 1.524 . S
C2471 C2472 1.397 . S
C2471 C2476 1.363 . S
C2472 H2449 0.950 . S
C2472 C2471 1.397 . S
C2472 C2473 1.334 . S
C2473 H2450 0.950 . S
C2473 C2472 1.334 . S
C2473 C2474 1.287 . S
C2474 C2473 1.287 . S
C2474 C2475 1.524 . S
C2474 H2493 0.913 . S
C2475 H2451 0.950 . S
C2475 C2474 1.524 . S
C2475 C2476 1.415 . S
C2476 H2452 0.950 . S
C2476 C2471 1.363 . S
C2476 C2475 1.415 . S
C2477 H2453 0.951 . S
C2477 C2478 1.366 . S
C2477 C2479 1.388 . S
C2478 C2477 1.366 . S
C2478 C2482 1.385 . S
C2479 H2454 0.951 . S
C2479 C2477 1.388 . S
C2479 C2480 1.366 . S
C2480 C2479 1.366 . S
C2480 C2481 1.414 . S
C2480 C2483 1.499 . S
C2481 H2455 0.950 . S
C2481 C2480 1.414 . S
C2481 C2482 1.374 . S
C2482 H2456 0.950 . S
C2482 C2478 1.385 . S
C2482 C2481 1.374 . S
C2483 C2480 1.499 . S
C2483 C2484 1.373 . S
C2483 C2485 1.389 . S
C2484 H2457 0.950 . S
C2484 C2470 1.377 . S
C2484 C2483 1.373 . S
C2485 C2469 1.377 . S
C2485 C2483 1.389 . S
C2485 C2486 1.524 . S
C2486 C2485 1.524 . S
C2486 C2487 1.397 . S
C2486 C2491 1.363 . S
C2487 H2458 0.950 . S
C2487 C2486 1.397 . S
C2487 C2488 1.334 . S
C2488 H2459 0.950 . S
C2488 C2487 1.334 . S
C2488 C2489 1.287 . S
C2489 C2488 1.287 . S
C2489 C2490 1.524 . S
C2489 H2492 0.999 . S
C2490 H2460 0.950 . S
C2490 C2489 1.524 . S
C2490 C2491 1.415 . S
C2491 H2461 0.950 . S
C2491 C2486 1.363 . S
C2491 C2490 1.415 . S
H2492 C2489 0.999 . S
H2493 C2474 0.913 . S
H2494 C2512 0.951 . S
H2495 C2514 0.951 . S
H2496 C2516 0.950 . S
H2497 C2517 0.950 . S
H2498 C2519 0.950 . S
H2499 C2522 0.950 . S
H2500 C2523 0.950 . S
H2501 C2525 0.950 . S
H2502 C2526 0.950 . S
H2503 C2527 0.951 . S
H2504 C2529 0.951 . S
H2505 C2531 0.950 . S
H2506 C2532 0.950 . S
H2507 C2534 0.950 . S
H2508 C2537 0.950 . S
H2509 C2538 0.950 . S
H2510 C2540 0.950 . S
H2511 C2541 0.950 . S
C2512 H2494 0.951 . S
C2512 C2513 1.366 . S
C2512 C2514 1.388 . S
C2513 C2512 1.366 . S
C2513 C2517 1.385 . S
C2514 H2495 0.951 . S
C2514 C2512 1.388 . S
C2514 C2515 1.366 . S
C2515 C2514 1.366 . S
C2515 C2516 1.414 . S
C2515 C2518 1.499 . S
C2516 H2496 0.950 . S
C2516 C2515 1.414 . S
C2516 C2517 1.374 . S
C2517 H2497 0.950 . S
C2517 C2513 1.385 . S
C2517 C2516 1.374 . S
C2518 C2515 1.499 . S
C2518 C2519 1.373 . S
C2518 C2520 1.389 . S
C2519 H2498 0.950 . S
C2519 C2518 1.373 . S
C2519 C2535 1.377 . S
C2520 C2518 1.389 . S
C2520 C2521 1.524 . S
C2520 C2534 1.377 . S
C2521 C2520 1.524 . S
C2521 C2522 1.397 . S
C2521 C2526 1.363 . S
C2522 H2499 0.950 . S
C2522 C2521 1.397 . S
C2522 C2523 1.334 . S
C2523 H2500 0.950 . S
C2523 C2522 1.334 . S
C2523 C2524 1.287 . S
C2524 C2523 1.287 . S
C2524 C2525 1.524 . S
C2524 H2543 0.913 . S
C2525 H2501 0.950 . S
C2525 C2524 1.524 . S
C2525 C2526 1.415 . S
C2526 H2502 0.950 . S
C2526 C2521 1.363 . S
C2526 C2525 1.415 . S
C2527 H2503 0.951 . S
C2527 C2528 1.366 . S
C2527 C2529 1.388 . S
C2528 C2527 1.366 . S
C2528 C2532 1.385 . S
C2529 H2504 0.951 . S
C2529 C2527 1.388 . S
C2529 C2530 1.366 . S
C2530 C2529 1.366 . S
C2530 C2531 1.414 . S
C2530 C2533 1.499 . S
C2531 H2505 0.950 . S
C2531 C2530 1.414 . S
C2531 C2532 1.374 . S
C2532 H2506 0.950 . S
C2532 C2528 1.385 . S
C2532 C2531 1.374 . S
C2533 C2530 1.499 . S
C2533 C2534 1.373 . S
C2533 C2535 1.389 . S
C2534 H2507 0.950 . S
C2534 C2520 1.377 . S
C2534 C2533 1.373 . S
C2535 C2519 1.377 . S
C2535 C2533 1.389 . S
C2535 C2536 1.524 . S
C2536 C2535 1.524 . S
C2536 C2537 1.397 . S
C2536 C2541 1.363 . S
C2537 H2508 0.950 . S
C2537 C2536 1.397 . S
C2537 C2538 1.334 . S
C2538 H2509 0.950 . S
C2538 C2537 1.334 . S
C2538 C2539 1.287 . S
C2539 C2538 1.287 . S
C2539 C2540 1.524 . S
C2539 H2542 0.999 . S
C2540 H2510 0.950 . S
C2540 C2539 1.524 . S
C2540 C2541 1.415 . S
C2541 H2511 0.950 . S
C2541 C2536 1.363 . S
C2541 C2540 1.415 . S
H2542 C2539 0.999 . S
H2543 C2524 0.913 . S
C963 C3 1.634 . S
C978 C713 1.637 . S
C1013 C772 1.637 . S
C1028 C62 1.634 . S
C1063 C121 1.634 . S
C1078 C831 1.637 . S
C1113 C890 1.637 . S
C1128 C180 1.634 . S
C1163 C475 1.634 . S
C1178 C241 1.637 . S
C1213 C300 1.638 . S
C1228 C534 1.634 . S
C1263 C593 1.634 . S
C1278 C359 1.638 . S
C1313 C418 1.637 . S
C1328 C652 1.634 . S
C1363 C33 1.793 . S
C1378 C151 1.793 . S
C1413 C92 1.793 . S
C1428 C210 1.793 . S
C1463 C269 1.569 . S
C1478 C387 1.569 . S
C1513 C328 1.569 . S
C1528 C446 1.569 . S
C1563 C623 1.792 . S
C1578 C505 1.792 . S
C1613 C564 1.793 . S
C1628 C682 1.793 . S
C1663 C859 1.569 . S
C1678 C741 1.569 . S
C1713 C800 1.569 . S
C1728 C918 1.569 . S
C1763 C406 1.675 . S
C1778 C52 1.681 . S
C1813 C465 1.675 . S
C1828 C111 1.681 . S
C1863 C170 1.681 . S
C1878 C288 1.675 . S
C1913 C229 1.682 . S
C1928 C347 1.675 . S
C1963 C878 1.675 . S
C1978 C524 1.681 . S
C2013 C583 1.681 . S
C2028 C937 1.675 . S
C2063 C760 1.675 . S
C2078 C642 1.681 . S
C2113 C701 1.682 . S
C2128 C819 1.675 . S
C2163 C5 1.939 . S
C2178 C182 1.939 . S
C2213 C123 1.939 . S
C2228 C64 1.939 . S
C2263 C239 1.188 . S
C2278 C416 1.188 . S
C2313 C298 1.188 . S
C2328 C357 1.188 . S
C2363 C654 1.939 . S
C2378 C477 1.939 . S
C2413 C536 1.939 . S
C2428 C595 1.939 . S
C2463 C888 1.188 . S
C2478 C711 1.188 . S
C2513 C770 1.188 . S
C2528 C829 1.188 . S
