# Generated by pormake.
# Topology una, (4)-cn, num edge types: 1
# Building blocks:
#     Node 0, Type 0, BuildingBlock: AZAVOO_clean_sbu_0, # of connection points: 4
#     Node 1, Type 0, BuildingBlock: AZAVOO_clean_sbu_0, # of connection points: 4
#     Node 2, Type 0, BuildingBlock: AZAVOO_clean_sbu_0, # of connection points: 4
#     Node 3, Type 0, BuildingBlock: AZAVOO_clean_sbu_0, # of connection points: 4
#     Node 4, Type 0, BuildingBlock: AZAVOO_clean_sbu_0, # of connection points: 4
#     Node 5, Type 0, BuildingBlock: AZAVOO_clean_sbu_0, # of connection points: 4
#     Node 6, Type 0, BuildingBlock: AZAVOO_clean_sbu_0, # of connection points: 4
#     Node 7, Type 0, BuildingBlock: AZAVOO_clean_sbu_0, # of connection points: 4
#     Node 8, Type 0, BuildingBlock: AZAVOO_clean_sbu_0, # of connection points: 4
#     Node 9, Type 0, BuildingBlock: AZAVOO_clean_sbu_0, # of connection points: 4
#     Node 10, Type 0, BuildingBlock: AZAVOO_clean_sbu_0, # of connection points: 4
#     Node 11, Type 0, BuildingBlock: AZAVOO_clean_sbu_0, # of connection points: 4
#     Edge 12, Type (0, 0), BuildingBlock: CIFDUS_clean_linker_0, # of connection points: 2
#     Edge 13, Type (0, 0), BuildingBlock: CIFDUS_clean_linker_0, # of connection points: 2
#     Edge 14, Type (0, 0), BuildingBlock: CIFDUS_clean_linker_0, # of connection points: 2
#     Edge 15, Type (0, 0), BuildingBlock: CIFDUS_clean_linker_0, # of connection points: 2
#     Edge 16, Type (0, 0), BuildingBlock: CIFDUS_clean_linker_0, # of connection points: 2
#     Edge 17, Type (0, 0), BuildingBlock: CIFDUS_clean_linker_0, # of connection points: 2
#     Edge 18, Type (0, 0), BuildingBlock: CIFDUS_clean_linker_0, # of connection points: 2
#     Edge 19, Type (0, 0), BuildingBlock: CIFDUS_clean_linker_0, # of connection points: 2
#     Edge 20, Type (0, 0), BuildingBlock: CIFDUS_clean_linker_0, # of connection points: 2
#     Edge 21, Type (0, 0), BuildingBlock: CIFDUS_clean_linker_0, # of connection points: 2
#     Edge 22, Type (0, 0), BuildingBlock: CIFDUS_clean_linker_0, # of connection points: 2
#     Edge 23, Type (0, 0), BuildingBlock: CIFDUS_clean_linker_0, # of connection points: 2
#     Edge 24, Type (0, 0), BuildingBlock: CIFDUS_clean_linker_0, # of connection points: 2
#     Edge 25, Type (0, 0), BuildingBlock: CIFDUS_clean_linker_0, # of connection points: 2
#     Edge 26, Type (0, 0), BuildingBlock: CIFDUS_clean_linker_0, # of connection points: 2
#     Edge 27, Type (0, 0), BuildingBlock: CIFDUS_clean_linker_0, # of connection points: 2
#     Edge 28, Type (0, 0), BuildingBlock: CIFDUS_clean_linker_0, # of connection points: 2
#     Edge 29, Type (0, 0), BuildingBlock: CIFDUS_clean_linker_0, # of connection points: 2
#     Edge 30, Type (0, 0), BuildingBlock: CIFDUS_clean_linker_0, # of connection points: 2
#     Edge 31, Type (0, 0), BuildingBlock: CIFDUS_clean_linker_0, # of connection points: 2
#     Edge 32, Type (0, 0), BuildingBlock: CIFDUS_clean_linker_0, # of connection points: 2
#     Edge 33, Type (0, 0), BuildingBlock: CIFDUS_clean_linker_0, # of connection points: 2
#     Edge 34, Type (0, 0), BuildingBlock: CIFDUS_clean_linker_0, # of connection points: 2
#     Edge 35, Type (0, 0), BuildingBlock: CIFDUS_clean_linker_0, # of connection points: 2
# Relax obj value: 0.179
# Max RMSD: 0.208
# Mean RMSD: 0.204
data_MOF--net-una--node1-AZAVOO_clean_sbu_0--edge1-CIFDUS_clean_linker_0
_symmetry_space_group_name_H-M    P1
_symmetry_Int_Tables_number       1
_symmetry_cell_setting            triclinic
loop_
_symmetry_equiv_pos_as_xyz
'x, y, z'
_cell_length_a     50.799397
_cell_length_b     48.427055
_cell_length_c     19.741773
_cell_angle_alpha  89.980467
_cell_angle_beta   89.617512
_cell_angle_gamma 121.72943
loop_
_atom_site_label
_atom_site_type_symbol
_atom_site_fract_x
_atom_site_fract_y
_atom_site_fract_z
_atom_type_partial_charge
Mg0 Mg 0.15422 0.44259 0.02406 0.0
O1 O 0.16464 0.48916 0.07856 0.0
O2 O 0.21289 0.51247 0.11742 0.0
Mg3 Mg 0.23198 0.4798 0.09683 0.0
C4 C 0.188 0.51243 0.10851 0.0
C5 C 0.08709 0.41013 -0.01753 0.0
O6 O 0.08843 0.38853 0.02013 0.0
O7 O 0.18674 0.47314 0.93776 0.0
O8 O 0.23304 0.49041 -0.01582 0.0
O9 O 0.13724 0.41279 0.1206 0.0
O10 O 0.18526 0.43834 0.08216 0.0
C11 C 0.21629 0.48787 0.93374 0.0
C12 C 0.16553 0.4201 0.12727 0.0
O13 O 0.11164 0.43775 0.9738 0.0
Mg14 Mg 0.71194 0.13714 0.23086 0.0
O15 O 0.7212 0.16127 0.12678 0.0
O16 O 0.67925 0.13238 0.0631 0.0
Mg17 Mg 0.64264 0.09028 0.12745 0.0
C18 C 0.70684 0.15637 0.0711 0.0
C19 C 0.78239 0.18868 0.26164 0.0
O20 O 0.7871 0.16845 0.22713 0.0
O21 O 0.68127 0.157 0.26139 0.0
O22 O 0.64006 0.12696 0.19562 0.0
O23 O 0.72699 0.10382 0.1903 0.0
O24 O 0.67888 0.09273 0.19184 0.0
C25 C 0.65449 0.14904 0.23992 0.0
C26 C 0.69813 0.08426 0.17556 0.0
O27 O 0.75492 0.18233 0.27017 0.0
Mg28 Mg 0.56764 0.71224 0.36065 0.0
O29 O 0.51622 0.67058 0.36444 0.0
O30 O 0.48984 0.69411 0.39368 0.0
Mg31 Mg 0.5225 0.74769 0.41669 0.0
C32 C 0.49076 0.66924 0.37616 0.0
C33 C 0.60826 0.68658 0.32524 0.0
O34 O 0.62207 0.70752 0.37449 0.0
O35 O 0.55933 0.73196 0.26222 0.0
O36 O 0.5352 0.75567 0.30488 0.0
O37 O 0.57472 0.70605 0.4716 0.0
O38 O 0.55867 0.73725 0.43215 0.0
C39 C 0.54714 0.74913 0.25509 0.0
C40 C 0.56514 0.72563 0.48323 0.0
O41 O 0.58247 0.68146 0.30421 0.0
Mg42 Mg 0.85488 0.57254 0.51201 0.0
O43 O 0.84592 0.52789 0.57284 0.0
O44 O 0.79857 0.5057 0.6181 0.0
Mg45 Mg 0.77849 0.53711 0.59416 0.0
C46 C 0.82339 0.50568 0.60761 0.0
C47 C 0.89727 0.57675 0.39288 0.0
O48 O 0.87375 0.57433 0.36004 0.0
O49 O 0.82021 0.5388 0.43294 0.0
O50 O 0.77461 0.52238 0.48346 0.0
O51 O 0.87347 0.60458 0.60484 0.0
O52 O 0.82485 0.57811 0.57158 0.0
C53 C 0.79062 0.52351 0.43219 0.0
C54 C 0.84514 0.59688 0.61448 0.0
O55 O 0.89645 0.57583 0.45733 0.0
Mg56 Mg 0.31481 0.89292 0.70911 0.0
O57 O 0.2994 0.85967 0.61635 0.0
O58 O 0.33621 0.88478 0.53686 0.0
Mg59 Mg 0.37341 0.93457 0.57556 0.0
C60 C 0.31055 0.86052 0.55771 0.0
C61 C 0.25097 0.83493 0.77064 0.0
O62 O 0.23788 0.84466 0.72753 0.0
O63 O 0.35242 0.88166 0.73242 0.0
O64 O 0.38769 0.90917 0.65125 0.0
O65 O 0.29047 0.91747 0.66926 0.0
O66 O 0.339 0.93284 0.64653 0.0
C67 C 0.37842 0.89094 0.70369 0.0
C68 C 0.3159 0.9362 0.63606 0.0
O69 O 0.28033 0.85 0.77399 0.0
Mg70 Mg 0.42666 0.29231 0.88155 0.0
O71 O 0.47842 0.33082 0.89573 0.0
O72 O 0.49787 0.30679 0.95708 0.0
Mg73 Mg 0.45931 0.25618 -0.00967 0.0
C74 C 0.50116 0.33107 0.92384 0.0
C75 C 0.40967 0.30768 0.74093 0.0
O76 O 0.4009 0.2771 0.73255 0.0
O77 O 0.43996 0.26442 0.80895 0.0
O78 O 0.45575 0.2403 0.88061 0.0
O79 O 0.41344 0.30792 0.978 0.0
O80 O 0.42628 0.27093 0.97098 0.0
C81 C 0.44948 0.24513 0.82089 0.0
C82 C 0.41905 0.28776 0.0078 0.0
O83 O 0.42235 0.32158 0.79632 0.0
Mg84 Mg 0.5977 0.90523 0.82276 0.0
O85 O 0.57856 0.874 0.91865 0.0
O86 O 0.56525 0.9001 -0.00863 0.0
Mg87 Mg 0.57779 0.94862 0.94469 0.0
C88 C 0.56726 0.87574 0.97526 0.0
C89 C 0.60738 0.84848 0.77802 0.0
O90 O 0.62992 0.86177 0.82221 0.0
O91 O 0.54873 0.89187 0.79342 0.0
O92 O 0.539 0.91998 0.86871 0.0
O93 O 0.64579 0.93104 0.86627 0.0
O94 O 0.61208 0.94642 0.87999 0.0
C95 C 0.53101 0.90065 0.81854 0.0
C96 C 0.63837 0.95011 0.89481 0.0
O97 O 0.59136 0.86119 0.76709 0.0
Mg98 Mg 0.7018 0.57274 0.00368 0.0
O99 O 0.66265 0.52718 0.9526 0.0
O100 O 0.6831 0.49886 0.91535 0.0
Mg101 Mg 0.73556 0.52859 0.92987 0.0
C102 C 0.6599 0.50193 0.9252 0.0
C103 C 0.6767 0.5985 0.10981 0.0
O104 O 0.70455 0.60754 0.13113 0.0
O105 O 0.70131 0.54114 0.0901 0.0
O106 O 0.72676 0.5195 0.04336 0.0
O107 O 0.71577 0.60187 0.90656 0.0
O108 O 0.73484 0.57293 0.94339 0.0
C109 C 0.71378 0.5241 0.09408 0.0
C110 C 0.73478 0.59191 0.89838 0.0
O111 O 0.66693 0.58176 0.05606 0.0
Mg112 Mg 0.13332 0.70537 0.19039 0.0
O113 O 0.14217 0.6638 0.1721 0.0
O114 O 0.19102 0.68739 0.13408 0.0
Mg115 Mg 0.21193 0.74174 0.11962 0.0
C116 C 0.16544 0.66229 0.15255 0.0
C117 C 0.06485 0.65241 0.22856 0.0
O118 O 0.06342 0.64932 0.16235 0.0
O119 O 0.16478 0.72227 0.28387 0.0
O120 O 0.21134 0.74669 0.2339 0.0
O121 O 0.11641 0.70237 0.08278 0.0
O122 O 0.16498 0.73238 0.11483 0.0
C123 C 0.19433 0.73883 0.2869 0.0
C124 C 0.14519 0.7221 0.06681 0.0
O125 O 0.0906 0.67263 0.2555 0.0
Mg126 Mg 0.43645 0.13122 0.32633 0.0
O127 O 0.44203 0.1536 0.42984 0.0
O128 O 0.45188 0.12635 0.50611 0.0
Mg129 Mg 0.45309 0.08594 0.44862 0.0
C130 C 0.44746 0.14917 0.49038 0.0
C131 C 0.42446 0.18831 0.29578 0.0
O132 O 0.40052 0.17228 0.33664 0.0
O133 O 0.4886 0.15321 0.31633 0.0
O134 O 0.49691 0.12388 0.39097 0.0
O135 O 0.38591 0.09614 0.34995 0.0
O136 O 0.42342 0.08666 0.36815 0.0
C137 C 0.50666 0.14622 0.34602 0.0
C138 C 0.39462 0.07709 0.37257 0.0
O139 O 0.4414 0.1769 0.28205 0.0
Mg140 Mg 0.29989 0.42531 0.50828 0.0
O141 O 0.33775 0.47059 0.45252 0.0
O142 O 0.31567 0.49628 0.41029 0.0
Mg143 Mg 0.26373 0.46664 0.43272 0.0
C144 C 0.33947 0.4944 0.42053 0.0
C145 C 0.34226 0.39811 0.53706 0.0
O146 O 0.32831 0.38209 0.48183 0.0
O147 O 0.30033 0.45777 0.59277 0.0
O148 O 0.27466 0.47859 0.54427 0.0
O149 O 0.28587 0.39564 0.41169 0.0
O150 O 0.2657 0.42333 0.45016 0.0
C151 C 0.28803 0.47504 0.59515 0.0
C152 C 0.26636 0.40495 0.40468 0.0
O153 O 0.33646 0.41895 0.55972 0.0
Mg154 Mg 0.87941 0.31366 0.68439 0.0
O155 O 0.87115 0.35612 0.67571 0.0
O156 O 0.82265 0.33377 0.63754 0.0
Mg157 Mg 0.80186 0.28028 0.61279 0.0
C158 C 0.84797 0.35817 0.65861 0.0
C159 C 0.924 0.32458 0.79671 0.0
O160 O 0.90294 0.29339 0.7987 0.0
O161 O 0.8463 0.29278 0.77577 0.0
O162 O 0.80016 0.26934 0.72564 0.0
O163 O 0.8981 0.32195 0.57684 0.0
O164 O 0.84899 0.29053 0.60672 0.0
C165 C 0.81674 0.27534 0.77831 0.0
C166 C 0.86943 0.30335 0.55954 0.0
O167 O 0.92123 0.3422 0.75309 0.0
H168 H 0.21244 0.40984 0.12584 0.0
H169 H 0.14222 0.40603 0.25667 0.0
H170 H 0.16558 0.39591 0.35449 0.0
H171 H 0.20966 0.39547 0.40316 0.0
H172 H 0.2803 0.4001 0.27265 0.0
H173 H 0.25257 0.40185 0.17297 0.0
C174 C 0.20207 0.40644 0.17577 0.0
C175 C 0.17612 0.40932 0.18482 0.0
C176 C 0.21565 0.40079 0.23114 0.0
C177 C 0.16235 0.40413 0.249 0.0
C178 C 0.17575 0.39847 0.30468 0.0
C179 C 0.21861 0.39619 0.35268 0.0
C180 C 0.24706 0.3981 0.34466 0.0
C181 C 0.20291 0.39779 0.29643 0.0
C182 C 0.25839 0.39857 0.27956 0.0
C183 C 0.24271 0.39989 0.2229 0.0
H184 H 0.88704 0.275 0.4671 0.0
H185 H 0.82781 0.31286 0.49739 0.0
H186 H 0.79782 0.28387 0.39762 0.0
H187 H 0.78259 0.23982 0.31707 0.0
H188 H 0.83942 0.19867 0.29071 0.0
H189 H 0.8765 0.23712 0.37257 0.0
C190 C 0.86837 0.27788 0.44987 0.0
C191 C 0.85945 0.29585 0.48897 0.0
C192 C 0.85038 0.2599 0.39423 0.0
C193 C 0.83493 0.29907 0.46757 0.0
C194 C 0.81765 0.28228 0.41101 0.0
C195 C 0.80338 0.23965 0.32829 0.0
C196 C 0.80788 0.21595 0.29922 0.0
C197 C 0.82416 0.26128 0.37634 0.0
C198 C 0.83524 0.21645 0.31306 0.0
C199 C 0.8564 0.23836 0.36008 0.0
H200 H 0.60956 0.74865 0.57869 0.0
H201 H 0.51815 0.72929 0.53778 0.0
H202 H 0.52207 0.76363 0.63248 0.0
H203 H 0.55468 0.80587 0.71356 0.0
H204 H 0.64701 0.82738 0.75295 0.0
H205 H 0.63957 0.78532 0.67281 0.0
C206 C 0.59015 0.75108 0.59234 0.0
C207 C 0.56374 0.73689 0.55138 0.0
C208 C 0.59305 0.77182 0.64545 0.0
C209 C 0.53881 0.7404 0.56848 0.0
C210 C 0.54111 0.76013 0.6223 0.0
C211 C 0.57305 0.80109 0.70521 0.0
C212 C 0.60158 0.82014 0.73781 0.0
C213 C 0.5687 0.77719 0.65884 0.0
C214 C 0.62494 0.81322 0.72781 0.0
C215 C 0.62071 0.78922 0.68193 0.0
H216 H 0.80101 0.61102 0.61873 0.0
H217 H 0.86451 0.60121 0.74524 0.0
H218 H 0.83665 0.60196 0.84662 0.0
H219 H 0.79013 0.5975 0.89646 0.0
H220 H 0.72631 0.60674 0.76966 0.0
H221 H 0.75862 0.6143 0.67005 0.0
C222 C 0.80913 0.60981 0.66872 0.0
C223 C 0.83444 0.60573 0.67512 0.0
C224 C 0.7927 0.60961 0.72596 0.0
C225 C 0.84513 0.60451 0.73957 0.0
C226 C 0.82901 0.60456 0.79721 0.0
C227 C 0.78349 0.6015 0.84702 0.0
C228 C 0.75564 0.60089 0.83963 0.0
C229 C 0.8021 0.6058 0.79062 0.0
C230 C 0.74754 0.60687 0.77605 0.0
C231 C 0.76594 0.6111 0.71935 0.0
H232 H 0.18968 0.80715 0.80379 0.0
H233 H 0.27004 0.80108 0.84306 0.0
H234 H 0.24172 0.76048 0.93065 0.0
H235 H 0.19664 0.73169 0.00473 0.0
H236 H 0.11728 0.73999 0.97361 0.0
H237 H 0.14198 0.77346 0.87222 0.0
C238 C 0.2008 0.79658 0.83091 0.0
C239 C 0.23212 0.80759 0.81774 0.0
C240 C 0.1845 0.77355 0.88248 0.0
C241 C 0.24616 0.7935 0.85298 0.0
C242 C 0.22996 0.77018 0.90298 0.0
C243 C 0.18472 0.74073 0.97562 0.0
C244 C 0.15564 0.73419 -0.0027 0.0
C245 C 0.19954 0.76086 0.91958 0.0
C246 C 0.13977 0.7448 0.95767 0.0
C247 C 0.15406 0.76425 0.90029 0.0
H248 H 0.38315 0.20611 0.26482 0.0
H249 H 0.47953 0.23683 0.24706 0.0
H250 H 0.48834 0.2794 0.16759 0.0
H251 H 0.46629 0.29891 0.08516 0.0
H252 H 0.3691 0.26432 0.09185 0.0
H253 H 0.36302 0.23349 0.19546 0.0
C254 C 0.4062 0.22273 0.24491 0.0
C255 C 0.4305 0.21791 0.26029 0.0
C256 C 0.41088 0.2465 0.19717 0.0
C257 C 0.46033 0.23966 0.23462 0.0
C258 C 0.46542 0.26406 0.18933 0.0
C259 C 0.44411 0.28574 0.11128 0.0
C260 C 0.41815 0.28353 0.08136 0.0
C261 C 0.44054 0.26649 0.16757 0.0
C262 C 0.38942 0.2665 0.11478 0.0
C263 C 0.38588 0.24838 0.17317 0.0
H264 H 0.13841 0.52039 0.1109 0.0
H265 H 0.23662 0.57071 0.1498 0.0
H266 H 0.23774 0.62085 0.16946 0.0
H267 H 0.21195 0.65146 0.16815 0.0
H268 H 0.11373 0.60202 0.13297 0.0
H269 H 0.11149 0.55047 0.11975 0.0
C270 C 0.16 0.54224 0.12429 0.0
C271 C 0.18743 0.54171 0.12809 0.0
C272 C 0.16056 0.57123 0.13578 0.0
C273 C 0.21513 0.57026 0.14624 0.0
C274 C 0.21587 0.59908 0.1573 0.0
C275 C 0.19001 0.62937 0.15784 0.0
C276 C 0.16313 0.63057 0.15057 0.0
C277 C 0.1889 0.59998 0.15091 0.0
C278 C 0.13476 0.60168 0.13859 0.0
C279 C 0.13351 0.57226 0.13082 0.0
H280 H 0.62024 0.16908 0.17818 0.0
H281 H 0.64872 0.15625 0.37476 0.0
H282 H 0.60693 0.1597 0.42834 0.0
H283 H 0.55649 0.15511 0.41577 0.0
H284 H 0.52849 0.16844 0.21866 0.0
H285 H 0.57628 0.17685 0.16884 0.0
C286 C 0.61788 0.16821 0.23294 0.0
C287 C 0.6371 0.16201 0.27259 0.0
C288 C 0.59363 0.1698 0.26307 0.0
C289 C 0.63417 0.16111 0.34341 0.0
C290 C 0.61007 0.1627 0.3739 0.0
C291 C 0.56128 0.16075 0.36224 0.0
C292 C 0.53871 0.16041 0.32067 0.0
C293 C 0.58873 0.16531 0.33382 0.0
C294 C 0.54539 0.16835 0.25168 0.0
C295 C 0.57263 0.17291 0.22302 0.0
H296 H 0.3528 0.55285 0.37222 0.0
H297 H 0.39588 0.49949 0.42764 0.0
H298 H 0.44703 0.54847 0.41214 0.0
H299 H 0.47941 0.60787 0.39382 0.0
H300 H 0.4351 0.66079 0.34558 0.0
H301 H 0.38467 0.61056 0.347 0.0
C302 C 0.3733 0.55167 0.38002 0.0
C303 C 0.37038 0.5225 0.40162 0.0
C304 C 0.40254 0.58003 0.37293 0.0
C305 C 0.39736 0.52163 0.41136 0.0
C306 C 0.42667 0.54968 0.40273 0.0
C307 C 0.45872 0.60825 0.3827 0.0
C308 C 0.46096 0.63803 0.37028 0.0
C309 C 0.42954 0.57924 0.38523 0.0
C310 C 0.43397 0.63823 0.35619 0.0
C311 C 0.4051 0.60951 0.35686 0.0
H312 H 0.87358 0.4988 0.61006 0.0
H313 H 0.77595 0.44858 0.65861 0.0
H314 H 0.77579 0.39938 0.68398 0.0
H315 H 0.8019 0.36906 0.68218 0.0
H316 H 0.8995 0.41839 0.63645 0.0
H317 H 0.90122 0.46958 0.62104 0.0
C318 C 0.85235 0.4772 0.62689 0.0
C319 C 0.82474 0.47738 0.63138 0.0
C320 C 0.85235 0.44877 0.64162 0.0
C321 C 0.79754 0.44924 0.65422 0.0
C322 C 0.79735 0.42096 0.66861 0.0
C323 C 0.82363 0.39111 0.66955 0.0
C324 C 0.85043 0.38995 0.65955 0.0
C325 C 0.8244 0.42024 0.66086 0.0
C326 C 0.87855 0.41874 0.64438 0.0
C327 C 0.87949 0.44792 0.63516 0.0
H328 H 0.42228 0.88438 0.6402 0.0
H329 H 0.38381 0.88114 0.83766 0.0
H330 H 0.42664 0.88026 0.89116 0.0
H331 H 0.47845 0.88808 0.88163 0.0
H332 H 0.51648 0.89013 0.68443 0.0
H333 H 0.47013 0.88337 0.63073 0.0
C334 C 0.42301 0.88289 0.69493 0.0
C335 C 0.40025 0.88338 0.73504 0.0
C336 C 0.44772 0.88248 0.72524 0.0
C337 C 0.4011 0.88086 0.80575 0.0
C338 C 0.4257 0.8806 0.83635 0.0
C339 C 0.4763 0.88648 0.82692 0.0
C340 C 0.50095 0.89013 0.78685 0.0
C341 C 0.44966 0.88259 0.79661 0.0
C342 C 0.49779 0.88745 0.71619 0.0
C343 C 0.4714 0.8838 0.68553 0.0
H344 H 0.51776 0.3942 0.90594 0.0
H345 H 0.55537 0.33284 0.9269 0.0
H346 H 0.60778 0.3802 0.92143 0.0
H347 H 0.64287 0.43892 0.91828 0.0
H348 H 0.60615 0.50136 0.90659 0.0
H349 H 0.55353 0.45378 0.89999 0.0
C350 C 0.53747 0.39127 0.90869 0.0
C351 C 0.53268 0.36008 0.91715 0.0
C352 C 0.5677 0.41878 0.90718 0.0
C353 C 0.55842 0.35661 0.92112 0.0
C354 C 0.58841 0.38366 0.91776 0.0
C355 C 0.62344 0.44221 0.91311 0.0
C356 C 0.62846 0.47366 0.91261 0.0
C357 C 0.59332 0.41486 0.9118 0.0
C358 C 0.60291 0.4774 0.90704 0.0
C359 C 0.57282 0.4502 0.90349 0.0
H360 H 0.24773 0.49346 0.62727 0.0
H361 H 0.32125 0.48439 0.71073 0.0
H362 H 0.30889 0.49494 0.82402 0.0
H363 H 0.27189 0.49708 0.89953 0.0
H364 H 0.19416 0.49863 0.81687 0.0
H365 H 0.21397 0.50139 0.70224 0.0
C366 C 0.26155 0.49447 0.66993 0.0
C367 C 0.2851 0.48766 0.66086 0.0
C368 C 0.25335 0.49891 0.73492 0.0
C369 C 0.30276 0.48913 0.71665 0.0
C370 C 0.29566 0.4951 0.78132 0.0
C371 C 0.2596 0.49883 0.85663 0.0
C372 C 0.23134 0.4972 0.86653 0.0
C373 C 0.27016 0.49856 0.79121 0.0
C374 C 0.21577 0.49948 0.8104 0.0
C375 C 0.22702 0.50092 0.74497 0.0
H376 H 0.76806 0.20367 0.06009 0.0
H377 H 0.68146 0.15963 0.95243 0.0
H378 H 0.70769 0.19463 0.85518 0.0
H379 H 0.75507 0.23524 0.79854 0.0
H380 H 0.84248 0.27831 0.90247 0.0
H381 H 0.81583 0.24642 0.00393 0.0
C382 C 0.75487 0.20187 0.01554 0.0
C383 C 0.72282 0.17884 0.01354 0.0
C384 C 0.77018 0.22187 0.95921 0.0
C385 C 0.70615 0.17688 0.95531 0.0
C386 C 0.72112 0.19695 0.89963 0.0
C387 C 0.76843 0.23799 0.84341 0.0
C388 C 0.80081 0.25908 0.84256 0.0
C389 C 0.75313 0.21917 0.90074 0.0
C390 C 0.81755 0.26226 0.90154 0.0
C391 C 0.80233 0.24393 0.9595 0.0
H392 H 0.51745 0.77968 0.22165 0.0
H393 H 0.58148 0.75467 0.14127 0.0
H394 H 0.5911 0.78961 0.04256 0.0
H395 H 0.58575 0.83223 -0.01332 0.0
H396 H 0.5245 0.85933 0.07481 0.0
H397 H 0.50955 0.81866 0.16342 0.0
C398 C 0.53335 0.78152 0.18238 0.0
C399 C 0.54909 0.76496 0.18946 0.0
C400 C 0.53958 0.80241 0.12762 0.0
C401 C 0.56913 0.76725 0.13729 0.0
C402 C 0.57481 0.78742 0.08111 0.0
C403 C 0.56885 0.8289 0.02487 0.0
C404 C 0.5565 0.849 0.02472 0.0
C405 C 0.56088 0.80591 0.0769 0.0
C406 C 0.53467 0.84449 0.07443 0.0
C407 C 0.52603 0.82118 0.12498 0.0
H408 H 0.73406 0.51194 0.40057 0.0
H409 H 0.81155 0.50936 0.31709 0.0
H410 H 0.79009 0.50241 0.20354 0.0
H411 H 0.75493 0.50724 0.12799 0.0
H412 H 0.68155 0.51734 0.21101 0.0
H413 H 0.69557 0.51066 0.32539 0.0
C414 C 0.74592 0.50904 0.35783 0.0
C415 C 0.77459 0.51162 0.367 0.0
C416 C 0.73438 0.50687 0.29268 0.0
C417 C 0.78963 0.50781 0.31112 0.0
C418 C 0.77743 0.50398 0.24627 0.0
C419 C 0.74149 0.50724 0.17091 0.0
C420 C 0.71752 0.51328 0.1612 0.0
C421 C 0.75065 0.50506 0.23631 0.0
C422 C 0.70035 0.51316 0.21733 0.0
C423 C 0.70841 0.50942 0.28264 0.0
H424 H 0.25506 0.76563 0.31247 0.0
H425 H 0.16933 0.74376 0.40729 0.0
H426 H 0.19802 0.77684 0.50514 0.0
H427 H 0.24807 0.81797 0.55563 0.0
H428 H 0.33317 0.84228 0.45379 0.0
H429 H 0.30404 0.80226 0.36657 0.0
C430 C 0.24249 0.7677 0.35482 0.0
C431 C 0.21013 0.7527 0.35198 0.0
C432 C 0.25911 0.7876 0.40925 0.0
C433 C 0.19425 0.75517 0.40798 0.0
C434 C 0.21068 0.7743 0.46369 0.0
C435 C 0.26018 0.81407 0.51492 0.0
C436 C 0.2927 0.83332 0.51063 0.0
C437 C 0.24321 0.79157 0.46368 0.0
C438 C 0.30814 0.82809 0.45763 0.0
C439 C 0.29152 0.80518 0.40782 0.0
H440 H 0.43769 0.24652 0.68632 0.0
H441 H 0.46821 0.20185 0.82978 0.0
H442 H 0.47081 0.16894 0.7404 0.0
H443 H 0.46301 0.15136 0.62258 0.0
H444 H 0.43278 0.19579 0.47809 0.0
H445 H 0.43163 0.23016 0.56678 0.0
C446 C 0.44506 0.22972 0.69799 0.0
C447 C 0.45256 0.22666 0.76488 0.0
C448 C 0.4465 0.21064 0.64622 0.0
C449 C 0.46216 0.20476 0.77889 0.0
C450 C 0.46366 0.18581 0.72779 0.0
C451 C 0.45622 0.16858 0.61034 0.0
C452 C 0.44785 0.17079 0.54384 0.0
C453 C 0.45561 0.18832 0.66145 0.0
C454 C 0.43931 0.19347 0.52892 0.0
C455 C 0.43861 0.21317 0.57962 0.0
H456 H 0.03169 0.35421 -0.00375 0.0
H457 H 0.07719 0.44565 0.88871 0.0
H458 H 0.02998 0.4281 0.82407 0.0
H459 H 0.97663 0.38519 0.7935 0.0
H460 H 0.93249 0.2937 0.90121 0.0
H461 H 0.97831 0.31299 0.97038 0.0
C462 C 0.03132 0.37047 0.95899 0.0
C463 C 0.05803 0.4011 0.94703 0.0
C464 C 1.00433 0.36013 0.92174 0.0
C465 C 0.05698 0.42189 0.89884 0.0
C466 C 0.03001 0.41183 0.86173 0.0
C467 C 0.97697 0.36962 0.83253 0.0
C468 C 0.95119 0.33794 0.84171 0.0
C469 C 1.00366 0.38077 0.87204 0.0
C470 C 0.95202 0.31809 0.89258 0.0
C471 C 0.97825 0.32908 0.93229 0.0
H472 H 0.61907 0.95475 0.01798 0.0
H473 H 0.70018 0.9968 0.89039 0.0
H474 H 0.72836 0.0412 0.97197 0.0
H475 H 0.72687 0.07156 0.07265 0.0
H476 H 0.64338 0.0292 0.19374 0.0
H477 H 0.61906 0.98138 0.12194 0.0
C478 C 0.64293 0.97358 0.00819 0.0
C479 C 0.6574 0.97313 0.94802 0.0
C480 C 0.65842 0.99904 0.05411 0.0
C481 C 0.68865 0.99691 0.93665 0.0
C482 C 0.70461 0.02233 -0.01702 0.0
C483 C 0.70365 0.05148 0.08386 0.0
C484 C 0.68676 0.05388 0.13787 0.0
C485 C 0.68936 0.02422 0.04092 0.0
C486 C 0.65663 0.02792 0.15193 0.0
C487 C 0.64269 1.0006 0.11094 0.0
H488 H 0.69273 0.63565 0.22232 0.0
H489 H 0.61941 0.58709 0.07652 0.0
H490 H 0.59104 0.60913 0.1315 0.0
H491 H 0.58822 0.64419 0.21863 0.0
H492 H 0.66252 0.69287 0.36253 0.0
H493 H 0.68923 0.66877 0.31049 0.0
C494 C 0.67047 0.62969 0.20262 0.0
C495 C 0.65831 0.60987 0.14519 0.0
C496 C 0.65447 0.64262 0.23399 0.0
C497 C 0.62936 0.60236 0.12062 0.0
C498 C 0.61314 0.61501 0.15195 0.0
C499 C 0.61018 0.64938 0.23874 0.0
C500 C 0.62335 0.67046 0.29426 0.0
C501 C 0.62565 0.63549 0.20828 0.0
C502 C 0.65182 0.67687 0.31975 0.0
C503 C 0.66719 0.66308 0.29003 0.0
H504 H 0.00562 0.61527 0.1847 0.0
H505 H 0.05976 0.65166 0.3668 0.0
H506 H 0.0124 0.62856 0.43484 0.0
H507 H 0.95569 0.60206 0.44157 0.0
H508 H 0.90209 0.56813 0.25833 0.0
H509 H 0.94909 0.58593 0.19209 0.0
C510 C 0.00712 0.61785 0.23934 0.0
C511 C 0.03624 0.63542 0.27044 0.0
C512 C 0.97983 0.60506 0.27804 0.0
C513 C 0.03766 0.63845 0.3414 0.0
C514 C 0.01057 0.62527 0.3804 0.0
C515 C 0.95427 0.59813 0.38729 0.0
C516 C 0.92545 0.58399 0.35491 0.0
C517 C 0.98153 0.60912 0.34914 0.0
C518 C 0.92401 0.5792 0.28447 0.0
C519 C 0.95089 0.5894 0.24648 0.0
H520 H 0.35234 0.06274 0.47418 0.0
H521 H 0.39029 0.02112 0.34223 0.0
H522 H 0.36368 0.97049 0.40649 0.0
H523 H 0.33654 0.94145 0.50907 0.0
H524 H 0.30187 0.98335 0.64864 0.0
H525 H 0.31923 0.03001 0.57208 0.0
C526 C 0.35393 0.04217 0.45876 0.0
C527 C 0.37317 0.04541 0.40391 0.0
C528 C 0.33941 0.01339 0.49772 0.0
C529 C 0.3756 0.01898 0.38454 0.0
C530 C 0.3605 0.99011 0.4213 0.0
C531 C 0.3325 0.96065 0.52225 0.0
C532 C 0.31862 0.95952 0.58453 0.0
C533 C 0.34344 0.98757 0.47943 0.0
C534 C 0.31258 0.9839 0.60062 0.0
C535 C 0.32278 0.01066 0.5572 0.0
H536 H 0.35279 0.34969 0.5105 0.0
H537 H 0.37392 0.42577 0.65398 0.0
H538 H 0.39955 0.40634 0.72688 0.0
H539 H 0.41161 0.36472 0.75479 0.0
H540 H 0.38839 0.28741 0.61308 0.0
H541 H 0.36821 0.31057 0.53442 0.0
C542 C 0.36331 0.3623 0.5573 0.0
C543 C 0.36113 0.38895 0.577 0.0
C544 C 0.37749 0.35065 0.59959 0.0
C545 C 0.37505 0.40506 0.63774 0.0
C546 C 0.38968 0.39392 0.67958 0.0
C547 C 0.40254 0.35319 0.70629 0.0
C548 C 0.40125 0.32419 0.69017 0.0
C549 C 0.39038 0.36627 0.66177 0.0
C550 C 0.38942 0.30958 0.62708 0.0
C551 C 0.37783 0.32279 0.58204 0.0
loop_
_geom_bond_atom_site_label_1
_geom_bond_atom_site_label_2
_geom_bond_distance
_geom_bond_site_symmetry_2
_ccdc_geom_bond_type
Mg0 O1 2.028 . S
Mg0 O7 1.986 1_554 S
Mg0 O9 2.114 . S
Mg0 O10 2.251 . S
Mg0 O13 2.010 . S
O1 Mg0 2.028 . S
O1 C4 1.250 . S
O2 Mg3 2.028 . S
O2 C4 1.248 . S
Mg3 O2 2.028 . S
Mg3 O8 2.032 1_554 S
Mg3 O10 2.079 . S
C4 O1 1.250 . S
C4 O2 1.248 . S
C5 O6 1.265 . S
C5 O13 1.249 1_556 S
O6 C5 1.265 . S
O7 Mg0 1.986 1_556 S
O7 C11 1.246 . S
O8 Mg3 2.032 1_556 S
O8 C11 1.259 . S
O9 Mg0 2.114 . S
O9 C12 1.252 . S
O10 Mg0 2.251 . S
O10 Mg3 2.079 . S
O10 C12 1.273 . S
C11 O7 1.246 . S
C11 O8 1.259 . S
C12 O9 1.252 . S
C12 O10 1.273 . S
O13 Mg0 2.010 . S
O13 C5 1.249 1_554 S
Mg14 O15 2.028 . S
Mg14 O21 1.986 . S
Mg14 O23 2.114 . S
Mg14 O24 2.251 . S
Mg14 O27 2.010 . S
O15 Mg14 2.028 . S
O15 C18 1.250 . S
O16 Mg17 2.028 . S
O16 C18 1.248 . S
Mg17 O16 2.028 . S
Mg17 O22 2.032 . S
Mg17 O24 2.079 . S
C18 O15 1.250 . S
C18 O16 1.248 . S
C19 O20 1.264 . S
C19 O27 1.249 . S
O20 C19 1.264 . S
O21 Mg14 1.986 . S
O21 C25 1.246 . S
O22 Mg17 2.032 . S
O22 C25 1.259 . S
O23 Mg14 2.114 . S
O23 C26 1.252 . S
O24 Mg14 2.251 . S
O24 Mg17 2.079 . S
O24 C26 1.273 . S
C25 O21 1.246 . S
C25 O22 1.259 . S
C26 O23 1.252 . S
C26 O24 1.273 . S
O27 Mg14 2.010 . S
O27 C19 1.249 . S
Mg28 O29 2.028 . S
Mg28 O35 1.986 . S
Mg28 O37 2.114 . S
Mg28 O38 2.251 . S
Mg28 O41 2.010 . S
O29 Mg28 2.028 . S
O29 C32 1.250 . S
O30 Mg31 2.028 . S
O30 C32 1.248 . S
Mg31 O30 2.028 . S
Mg31 O36 2.032 . S
Mg31 O38 2.079 . S
C32 O29 1.250 . S
C32 O30 1.248 . S
C33 O34 1.264 . S
C33 O41 1.249 . S
O34 C33 1.264 . S
O35 Mg28 1.986 . S
O35 C39 1.246 . S
O36 Mg31 2.032 . S
O36 C39 1.259 . S
O37 Mg28 2.114 . S
O37 C40 1.252 . S
O38 Mg28 2.251 . S
O38 Mg31 2.079 . S
O38 C40 1.273 . S
C39 O35 1.246 . S
C39 O36 1.259 . S
C40 O37 1.252 . S
C40 O38 1.273 . S
O41 Mg28 2.010 . S
O41 C33 1.249 . S
Mg42 O43 2.028 . S
Mg42 O49 1.986 . S
Mg42 O51 2.114 . S
Mg42 O52 2.251 . S
Mg42 O55 2.010 . S
O43 Mg42 2.028 . S
O43 C46 1.250 . S
O44 Mg45 2.028 . S
O44 C46 1.248 . S
Mg45 O44 2.028 . S
Mg45 O50 2.032 . S
Mg45 O52 2.079 . S
C46 O43 1.250 . S
C46 O44 1.248 . S
C47 O48 1.264 . S
C47 O55 1.249 . S
O48 C47 1.264 . S
O49 Mg42 1.986 . S
O49 C53 1.246 . S
O50 Mg45 2.032 . S
O50 C53 1.259 . S
O51 Mg42 2.114 . S
O51 C54 1.252 . S
O52 Mg42 2.251 . S
O52 Mg45 2.079 . S
O52 C54 1.273 . S
C53 O49 1.246 . S
C53 O50 1.259 . S
C54 O51 1.252 . S
C54 O52 1.273 . S
O55 Mg42 2.010 . S
O55 C47 1.249 . S
Mg56 O57 2.028 . S
Mg56 O63 1.986 . S
Mg56 O65 2.114 . S
Mg56 O66 2.251 . S
Mg56 O69 2.010 . S
O57 Mg56 2.028 . S
O57 C60 1.250 . S
O58 Mg59 2.028 . S
O58 C60 1.248 . S
Mg59 O58 2.028 . S
Mg59 O64 2.032 . S
Mg59 O66 2.079 . S
C60 O57 1.250 . S
C60 O58 1.248 . S
C61 O62 1.264 . S
C61 O69 1.249 . S
O62 C61 1.264 . S
O63 Mg56 1.986 . S
O63 C67 1.246 . S
O64 Mg59 2.032 . S
O64 C67 1.259 . S
O65 Mg56 2.114 . S
O65 C68 1.252 . S
O66 Mg56 2.251 . S
O66 Mg59 2.079 . S
O66 C68 1.273 . S
C67 O63 1.246 . S
C67 O64 1.259 . S
C68 O65 1.252 . S
C68 O66 1.273 . S
O69 Mg56 2.010 . S
O69 C61 1.249 . S
Mg70 O71 2.028 . S
Mg70 O77 1.986 . S
Mg70 O79 2.114 . S
Mg70 O80 2.251 . S
Mg70 O83 2.010 . S
O71 Mg70 2.028 . S
O71 C74 1.250 . S
O72 Mg73 2.028 . S
O72 C74 1.248 . S
Mg73 O72 2.028 . S
Mg73 O78 2.032 . S
Mg73 O80 2.079 . S
C74 O71 1.250 . S
C74 O72 1.248 . S
C75 O76 1.264 . S
C75 O83 1.249 . S
O76 C75 1.264 . S
O77 Mg70 1.986 . S
O77 C81 1.246 . S
O78 Mg73 2.032 . S
O78 C81 1.259 . S
O79 Mg70 2.114 . S
O79 C82 1.252 . S
O80 Mg70 2.251 . S
O80 Mg73 2.079 . S
O80 C82 1.273 . S
C81 O77 1.246 . S
C81 O78 1.259 . S
C82 O79 1.252 . S
C82 O80 1.273 . S
O83 Mg70 2.010 . S
O83 C75 1.249 . S
Mg84 O85 2.028 . S
Mg84 O91 1.986 . S
Mg84 O93 2.114 . S
Mg84 O94 2.251 . S
Mg84 O97 2.010 . S
O85 Mg84 2.028 . S
O85 C88 1.250 . S
O86 Mg87 2.029 . S
O86 C88 1.255 . S
Mg87 O86 2.029 . S
Mg87 O92 2.032 . S
Mg87 O94 2.079 . S
C88 O85 1.250 . S
C88 O86 1.255 . S
C89 O90 1.264 . S
C89 O97 1.249 . S
O90 C89 1.264 . S
O91 Mg84 1.986 . S
O91 C95 1.246 . S
O92 Mg87 2.032 . S
O92 C95 1.259 . S
O93 Mg84 2.114 . S
O93 C96 1.252 . S
O94 Mg84 2.251 . S
O94 Mg87 2.079 . S
O94 C96 1.273 . S
C95 O91 1.246 . S
C95 O92 1.259 . S
C96 O93 1.252 . S
C96 O94 1.273 . S
O97 Mg84 2.010 . S
O97 C89 1.249 . S
Mg98 O99 2.028 . S
Mg98 O105 1.986 . S
Mg98 O107 2.114 1_554 S
Mg98 O108 2.251 1_554 S
Mg98 O111 2.010 . S
O99 Mg98 2.028 . S
O99 C102 1.250 . S
O100 Mg101 2.028 . S
O100 C102 1.248 . S
Mg101 O100 2.028 . S
Mg101 O106 2.032 . S
Mg101 O108 2.079 1_554 S
C102 O99 1.250 . S
C102 O100 1.248 . S
C103 O104 1.264 . S
C103 O111 1.249 . S
O104 C103 1.264 . S
O105 Mg98 1.986 . S
O105 C109 1.246 . S
O106 Mg101 2.032 . S
O106 C109 1.259 . S
O107 Mg98 2.114 1_556 S
O107 C110 1.252 . S
O108 Mg98 2.251 1_556 S
O108 Mg101 2.079 1_556 S
O108 C110 1.273 . S
C109 O105 1.246 . S
C109 O106 1.259 . S
C110 O107 1.252 . S
C110 O108 1.273 . S
O111 Mg98 2.010 . S
O111 C103 1.249 . S
Mg112 O113 2.028 . S
Mg112 O119 1.986 . S
Mg112 O121 2.114 . S
Mg112 O122 2.251 . S
Mg112 O125 2.010 . S
O113 Mg112 2.028 . S
O113 C116 1.250 . S
O114 Mg115 2.028 . S
O114 C116 1.248 . S
Mg115 O114 2.028 . S
Mg115 O120 2.032 . S
Mg115 O122 2.079 . S
C116 O113 1.250 . S
C116 O114 1.248 . S
C117 O118 1.264 . S
C117 O125 1.249 . S
O118 C117 1.264 . S
O119 Mg112 1.986 . S
O119 C123 1.246 . S
O120 Mg115 2.032 . S
O120 C123 1.259 . S
O121 Mg112 2.114 . S
O121 C124 1.252 . S
O122 Mg112 2.251 . S
O122 Mg115 2.079 . S
O122 C124 1.273 . S
C123 O119 1.246 . S
C123 O120 1.259 . S
C124 O121 1.252 . S
C124 O122 1.273 . S
O125 Mg112 2.010 . S
O125 C117 1.249 . S
Mg126 O127 2.028 . S
Mg126 O133 1.986 . S
Mg126 O135 2.114 . S
Mg126 O136 2.251 . S
Mg126 O139 2.010 . S
O127 Mg126 2.028 . S
O127 C130 1.250 . S
O128 Mg129 2.028 . S
O128 C130 1.248 . S
Mg129 O128 2.028 . S
Mg129 O134 2.032 . S
Mg129 O136 2.079 . S
C130 O127 1.250 . S
C130 O128 1.248 . S
C131 O132 1.264 . S
C131 O139 1.249 . S
O132 C131 1.264 . S
O133 Mg126 1.986 . S
O133 C137 1.246 . S
O134 Mg129 2.032 . S
O134 C137 1.259 . S
O135 Mg126 2.114 . S
O135 C138 1.252 . S
O136 Mg126 2.251 . S
O136 Mg129 2.079 . S
O136 C138 1.273 . S
C137 O133 1.246 . S
C137 O134 1.259 . S
C138 O135 1.252 . S
C138 O136 1.273 . S
O139 Mg126 2.010 . S
O139 C131 1.249 . S
Mg140 O141 2.028 . S
Mg140 O147 1.986 . S
Mg140 O149 2.114 . S
Mg140 O150 2.251 . S
Mg140 O153 2.010 . S
O141 Mg140 2.028 . S
O141 C144 1.250 . S
O142 Mg143 2.028 . S
O142 C144 1.248 . S
Mg143 O142 2.028 . S
Mg143 O148 2.032 . S
Mg143 O150 2.079 . S
C144 O141 1.250 . S
C144 O142 1.248 . S
C145 O146 1.264 . S
C145 O153 1.249 . S
O146 C145 1.264 . S
O147 Mg140 1.986 . S
O147 C151 1.246 . S
O148 Mg143 2.032 . S
O148 C151 1.259 . S
O149 Mg140 2.114 . S
O149 C152 1.252 . S
O150 Mg140 2.251 . S
O150 Mg143 2.079 . S
O150 C152 1.273 . S
C151 O147 1.246 . S
C151 O148 1.259 . S
C152 O149 1.252 . S
C152 O150 1.273 . S
O153 Mg140 2.010 . S
O153 C145 1.249 . S
Mg154 O155 2.028 . S
Mg154 O161 1.986 . S
Mg154 O163 2.114 . S
Mg154 O164 2.251 . S
Mg154 O167 2.010 . S
O155 Mg154 2.028 . S
O155 C158 1.250 . S
O156 Mg157 2.028 . S
O156 C158 1.248 . S
Mg157 O156 2.028 . S
Mg157 O162 2.032 . S
Mg157 O164 2.079 . S
C158 O155 1.250 . S
C158 O156 1.248 . S
C159 O160 1.264 . S
C159 O167 1.249 . S
O160 C159 1.264 . S
O161 Mg154 1.986 . S
O161 C165 1.246 . S
O162 Mg157 2.032 . S
O162 C165 1.259 . S
O163 Mg154 2.114 . S
O163 C166 1.252 . S
O164 Mg154 2.251 . S
O164 Mg157 2.079 . S
O164 C166 1.273 . S
C165 O161 1.246 . S
C165 O162 1.259 . S
C166 O163 1.252 . S
C166 O164 1.273 . S
O167 Mg154 2.010 . S
O167 C159 1.249 . S
H168 C174 0.930 . S
H169 C177 0.930 . S
H170 C178 0.930 . S
H171 C179 0.930 . S
H172 C182 0.930 . S
H173 C183 0.930 . S
C174 H168 0.930 . S
C174 C175 1.355 . S
C174 C176 1.415 . S
C175 C174 1.355 . S
C175 C177 1.419 . S
C176 C174 1.415 . S
C176 C181 1.425 . S
C176 C183 1.409 . S
C177 H169 0.930 . S
C177 C175 1.419 . S
C177 C178 1.362 . S
C178 H170 0.930 . S
C178 C177 1.362 . S
C178 C181 1.409 . S
C179 H171 0.930 . S
C179 C180 1.355 . S
C179 C181 1.415 . S
C180 C179 1.355 . S
C180 C182 1.419 . S
C181 C176 1.425 . S
C181 C178 1.409 . S
C181 C179 1.415 . S
C182 H172 0.930 . S
C182 C180 1.419 . S
C182 C183 1.362 . S
C183 H173 0.930 . S
C183 C176 1.409 . S
C183 C182 1.362 . S
H184 C190 0.930 . S
H185 C193 0.930 . S
H186 C194 0.930 . S
H187 C195 0.930 . S
H188 C198 0.930 . S
H189 C199 0.930 . S
C190 H184 0.930 . S
C190 C191 1.355 . S
C190 C192 1.415 . S
C191 C190 1.355 . S
C191 C193 1.419 . S
C192 C190 1.415 . S
C192 C197 1.425 . S
C192 C199 1.409 . S
C193 H185 0.930 . S
C193 C191 1.419 . S
C193 C194 1.362 . S
C194 H186 0.930 . S
C194 C193 1.362 . S
C194 C197 1.409 . S
C195 H187 0.930 . S
C195 C196 1.355 . S
C195 C197 1.415 . S
C196 C195 1.355 . S
C196 C198 1.419 . S
C197 C192 1.425 . S
C197 C194 1.409 . S
C197 C195 1.415 . S
C198 H188 0.930 . S
C198 C196 1.419 . S
C198 C199 1.362 . S
C199 H189 0.930 . S
C199 C192 1.409 . S
C199 C198 1.362 . S
H200 C206 0.930 . S
H201 C209 0.930 . S
H202 C210 0.930 . S
H203 C211 0.930 . S
H204 C214 0.930 . S
H205 C215 0.930 . S
C206 H200 0.930 . S
C206 C207 1.355 . S
C206 C208 1.415 . S
C207 C206 1.355 . S
C207 C209 1.419 . S
C208 C206 1.415 . S
C208 C213 1.425 . S
C208 C215 1.409 . S
C209 H201 0.930 . S
C209 C207 1.419 . S
C209 C210 1.362 . S
C210 H202 0.930 . S
C210 C209 1.362 . S
C210 C213 1.409 . S
C211 H203 0.930 . S
C211 C212 1.355 . S
C211 C213 1.415 . S
C212 C211 1.355 . S
C212 C214 1.419 . S
C213 C208 1.425 . S
C213 C210 1.409 . S
C213 C211 1.415 . S
C214 H204 0.930 . S
C214 C212 1.419 . S
C214 C215 1.362 . S
C215 H205 0.930 . S
C215 C208 1.409 . S
C215 C214 1.362 . S
H216 C222 0.930 . S
H217 C225 0.930 . S
H218 C226 0.930 . S
H219 C227 0.930 . S
H220 C230 0.930 . S
H221 C231 0.930 . S
C222 H216 0.930 . S
C222 C223 1.355 . S
C222 C224 1.415 . S
C223 C222 1.355 . S
C223 C225 1.419 . S
C224 C222 1.415 . S
C224 C229 1.425 . S
C224 C231 1.409 . S
C225 H217 0.930 . S
C225 C223 1.419 . S
C225 C226 1.362 . S
C226 H218 0.930 . S
C226 C225 1.362 . S
C226 C229 1.409 . S
C227 H219 0.930 . S
C227 C228 1.355 . S
C227 C229 1.415 . S
C228 C227 1.355 . S
C228 C230 1.419 . S
C229 C224 1.425 . S
C229 C226 1.409 . S
C229 C227 1.415 . S
C230 H220 0.930 . S
C230 C228 1.419 . S
C230 C231 1.362 . S
C231 H221 0.930 . S
C231 C224 1.409 . S
C231 C230 1.362 . S
H232 C238 0.930 . S
H233 C241 0.930 . S
H234 C242 0.930 . S
H235 C243 0.930 . S
H236 C246 0.930 . S
H237 C247 0.930 . S
C238 H232 0.930 . S
C238 C239 1.355 . S
C238 C240 1.415 . S
C239 C238 1.355 . S
C239 C241 1.419 . S
C240 C238 1.415 . S
C240 C245 1.425 1_556 S
C240 C247 1.409 . S
C241 H233 0.930 . S
C241 C239 1.419 . S
C241 C242 1.362 1_556 S
C242 H234 0.930 . S
C242 C241 1.362 1_554 S
C242 C245 1.409 . S
C243 H235 0.930 . S
C243 C244 1.355 . S
C243 C245 1.415 . S
C244 C243 1.355 . S
C244 C246 1.419 . S
C245 C240 1.425 1_554 S
C245 C242 1.409 . S
C245 C243 1.415 . S
C246 H236 0.930 . S
C246 C244 1.419 . S
C246 C247 1.362 1_554 S
C247 H237 0.930 . S
C247 C240 1.409 . S
C247 C246 1.362 1_556 S
H248 C254 0.930 . S
H249 C257 0.930 . S
H250 C258 0.930 . S
H251 C259 0.930 . S
H252 C262 0.930 . S
H253 C263 0.930 . S
C254 H248 0.930 . S
C254 C255 1.355 . S
C254 C256 1.415 . S
C255 C254 1.355 . S
C255 C257 1.419 . S
C256 C254 1.415 . S
C256 C261 1.425 . S
C256 C263 1.409 . S
C257 H249 0.930 . S
C257 C255 1.419 . S
C257 C258 1.362 . S
C258 H250 0.930 . S
C258 C257 1.362 . S
C258 C261 1.409 . S
C259 H251 0.930 . S
C259 C260 1.347 1_554 S
C259 C261 1.415 . S
C260 C259 1.347 1_556 S
C260 C262 1.420 . S
C261 C256 1.425 . S
C261 C258 1.409 . S
C261 C259 1.415 . S
C262 H252 0.930 . S
C262 C260 1.420 . S
C262 C263 1.362 1_556 S
C263 H253 0.930 . S
C263 C256 1.409 . S
C263 C262 1.362 1_554 S
H264 C270 0.930 . S
H265 C273 0.930 . S
H266 C274 0.930 . S
H267 C275 0.930 . S
H268 C278 0.930 . S
H269 C279 0.930 . S
C270 H264 0.930 . S
C270 C271 1.355 . S
C270 C272 1.415 . S
C271 C270 1.355 . S
C271 C273 1.419 . S
C272 C270 1.415 . S
C272 C277 1.425 . S
C272 C279 1.409 . S
C273 H265 0.930 . S
C273 C271 1.419 . S
C273 C274 1.362 . S
C274 H266 0.930 . S
C274 C273 1.362 . S
C274 C277 1.409 . S
C275 H267 0.930 . S
C275 C276 1.355 . S
C275 C277 1.415 . S
C276 C275 1.355 . S
C276 C278 1.419 . S
C277 C272 1.425 . S
C277 C274 1.409 . S
C277 C275 1.415 . S
C278 H268 0.930 . S
C278 C276 1.419 . S
C278 C279 1.362 . S
C279 H269 0.930 . S
C279 C272 1.409 . S
C279 C278 1.362 . S
H280 C286 0.930 . S
H281 C289 0.930 . S
H282 C290 0.930 . S
H283 C291 0.930 . S
H284 C294 0.930 . S
H285 C295 0.930 . S
C286 H280 0.930 . S
C286 C287 1.355 . S
C286 C288 1.415 . S
C287 C286 1.355 . S
C287 C289 1.419 . S
C288 C286 1.415 . S
C288 C293 1.425 . S
C288 C295 1.409 . S
C289 H281 0.930 . S
C289 C287 1.419 . S
C289 C290 1.362 . S
C290 H282 0.930 . S
C290 C289 1.362 . S
C290 C293 1.409 . S
C291 H283 0.930 . S
C291 C292 1.355 . S
C291 C293 1.415 . S
C292 C291 1.355 . S
C292 C294 1.419 . S
C293 C288 1.425 . S
C293 C290 1.409 . S
C293 C291 1.415 . S
C294 H284 0.930 . S
C294 C292 1.419 . S
C294 C295 1.362 . S
C295 H285 0.930 . S
C295 C288 1.409 . S
C295 C294 1.362 . S
H296 C302 0.930 . S
H297 C305 0.930 . S
H298 C306 0.930 . S
H299 C307 0.930 . S
H300 C310 0.930 . S
H301 C311 0.930 . S
C302 H296 0.930 . S
C302 C303 1.355 . S
C302 C304 1.415 . S
C303 C302 1.355 . S
C303 C305 1.419 . S
C304 C302 1.415 . S
C304 C309 1.425 . S
C304 C311 1.409 . S
C305 H297 0.930 . S
C305 C303 1.419 . S
C305 C306 1.362 . S
C306 H298 0.930 . S
C306 C305 1.362 . S
C306 C309 1.409 . S
C307 H299 0.930 . S
C307 C308 1.355 . S
C307 C309 1.415 . S
C308 C307 1.355 . S
C308 C310 1.419 . S
C309 C304 1.425 . S
C309 C306 1.409 . S
C309 C307 1.415 . S
C310 H300 0.930 . S
C310 C308 1.419 . S
C310 C311 1.362 . S
C311 H301 0.930 . S
C311 C304 1.409 . S
C311 C310 1.362 . S
H312 C318 0.930 . S
H313 C321 0.930 . S
H314 C322 0.930 . S
H315 C323 0.930 . S
H316 C326 0.930 . S
H317 C327 0.930 . S
C318 H312 0.930 . S
C318 C319 1.355 . S
C318 C320 1.415 . S
C319 C318 1.355 . S
C319 C321 1.419 . S
C320 C318 1.415 . S
C320 C325 1.425 . S
C320 C327 1.409 . S
C321 H313 0.930 . S
C321 C319 1.419 . S
C321 C322 1.362 . S
C322 H314 0.930 . S
C322 C321 1.362 . S
C322 C325 1.409 . S
C323 H315 0.930 . S
C323 C324 1.355 . S
C323 C325 1.415 . S
C324 C323 1.355 . S
C324 C326 1.419 . S
C325 C320 1.425 . S
C325 C322 1.409 . S
C325 C323 1.415 . S
C326 H316 0.930 . S
C326 C324 1.419 . S
C326 C327 1.362 . S
C327 H317 0.930 . S
C327 C320 1.409 . S
C327 C326 1.362 . S
H328 C334 0.930 . S
H329 C337 0.930 . S
H330 C338 0.930 . S
H331 C339 0.930 . S
H332 C342 0.930 . S
H333 C343 0.930 . S
C334 H328 0.930 . S
C334 C335 1.355 . S
C334 C336 1.415 . S
C335 C334 1.355 . S
C335 C337 1.419 . S
C336 C334 1.415 . S
C336 C341 1.425 . S
C336 C343 1.409 . S
C337 H329 0.930 . S
C337 C335 1.419 . S
C337 C338 1.362 . S
C338 H330 0.930 . S
C338 C337 1.362 . S
C338 C341 1.409 . S
C339 H331 0.930 . S
C339 C340 1.355 . S
C339 C341 1.415 . S
C340 C339 1.355 . S
C340 C342 1.419 . S
C341 C336 1.425 . S
C341 C338 1.409 . S
C341 C339 1.415 . S
C342 H332 0.930 . S
C342 C340 1.419 . S
C342 C343 1.362 . S
C343 H333 0.930 . S
C343 C336 1.409 . S
C343 C342 1.362 . S
H344 C350 0.930 . S
H345 C353 0.930 . S
H346 C354 0.930 . S
H347 C355 0.930 . S
H348 C358 0.930 . S
H349 C359 0.930 1_554 S
C350 H344 0.930 . S
C350 C351 1.355 . S
C350 C352 1.415 . S
C351 C350 1.355 . S
C351 C353 1.419 . S
C352 C350 1.415 . S
C352 C357 1.425 . S
C352 C359 1.409 . S
C353 H345 0.930 . S
C353 C351 1.419 . S
C353 C354 1.362 . S
C354 H346 0.930 . S
C354 C353 1.362 . S
C354 C357 1.409 . S
C355 H347 0.930 . S
C355 C356 1.365 . S
C355 C357 1.415 . S
C356 C355 1.365 . S
C356 C358 1.415 1_556 S
C357 C352 1.425 . S
C357 C354 1.409 . S
C357 C355 1.415 . S
C358 H348 0.930 . S
C358 C356 1.415 1_554 S
C358 C359 1.362 1_554 S
C359 H349 0.930 1_556 S
C359 C352 1.409 . S
C359 C358 1.362 1_556 S
H360 C366 0.930 . S
H361 C369 0.930 . S
H362 C370 0.930 . S
H363 C371 0.930 . S
H364 C374 0.930 . S
H365 C375 0.930 . S
C366 H360 0.930 . S
C366 C367 1.355 . S
C366 C368 1.415 . S
C367 C366 1.355 . S
C367 C369 1.419 . S
C368 C366 1.415 . S
C368 C373 1.425 . S
C368 C375 1.409 . S
C369 H361 0.930 . S
C369 C367 1.419 . S
C369 C370 1.362 . S
C370 H362 0.930 . S
C370 C369 1.362 . S
C370 C373 1.409 . S
C371 H363 0.930 . S
C371 C372 1.355 . S
C371 C373 1.415 . S
C372 C371 1.355 . S
C372 C374 1.419 . S
C373 C368 1.425 . S
C373 C370 1.409 . S
C373 C371 1.415 . S
C374 H364 0.930 . S
C374 C372 1.419 . S
C374 C375 1.362 . S
C375 H365 0.930 . S
C375 C368 1.409 . S
C375 C374 1.362 . S
H376 C382 0.930 . S
H377 C385 0.930 . S
H378 C386 0.930 . S
H379 C387 0.930 . S
H380 C390 0.930 . S
H381 C391 0.930 . S
C382 H376 0.930 . S
C382 C383 1.355 . S
C382 C384 1.415 1_554 S
C383 C382 1.355 . S
C383 C385 1.419 . S
C384 C382 1.415 1_556 S
C384 C389 1.425 1_556 S
C384 C391 1.409 . S
C385 H377 0.930 . S
C385 C383 1.419 . S
C385 C386 1.362 . S
C386 H378 0.930 . S
C386 C385 1.362 . S
C386 C389 1.409 . S
C387 H379 0.930 . S
C387 C388 1.355 . S
C387 C389 1.415 1_556 S
C388 C387 1.355 . S
C388 C390 1.419 . S
C389 C384 1.425 1_554 S
C389 C386 1.409 . S
C389 C387 1.415 1_554 S
C390 H380 0.930 . S
C390 C388 1.419 . S
C390 C391 1.362 . S
C391 H381 0.930 . S
C391 C384 1.409 . S
C391 C390 1.362 . S
H392 C398 0.930 . S
H393 C401 0.930 . S
H394 C402 0.930 . S
H395 C403 0.930 1_556 S
H396 C406 0.930 1_556 S
H397 C407 0.930 . S
C398 H392 0.930 . S
C398 C399 1.355 . S
C398 C400 1.415 . S
C399 C398 1.355 . S
C399 C401 1.419 . S
C400 C398 1.415 . S
C400 C405 1.425 . S
C400 C407 1.409 . S
C401 H393 0.930 . S
C401 C399 1.419 . S
C401 C402 1.362 . S
C402 H394 0.930 . S
C402 C401 1.362 . S
C402 C405 1.409 . S
C403 H395 0.930 1_554 S
C403 C404 1.355 1_554 S
C403 C405 1.415 . S
C404 C403 1.355 1_556 S
C404 C406 1.419 1_556 S
C405 C400 1.425 . S
C405 C402 1.409 . S
C405 C403 1.415 . S
C406 H396 0.930 1_554 S
C406 C404 1.419 1_554 S
C406 C407 1.362 . S
C407 H397 0.930 . S
C407 C400 1.409 . S
C407 C406 1.362 . S
H408 C414 0.930 . S
H409 C417 0.930 . S
H410 C418 0.930 . S
H411 C419 0.930 . S
H412 C422 0.930 . S
H413 C423 0.930 . S
C414 H408 0.930 . S
C414 C415 1.355 . S
C414 C416 1.415 . S
C415 C414 1.355 . S
C415 C417 1.419 . S
C416 C414 1.415 . S
C416 C421 1.425 . S
C416 C423 1.409 . S
C417 H409 0.930 . S
C417 C415 1.419 . S
C417 C418 1.362 . S
C418 H410 0.930 . S
C418 C417 1.362 . S
C418 C421 1.409 . S
C419 H411 0.930 . S
C419 C420 1.355 . S
C419 C421 1.415 . S
C420 C419 1.355 . S
C420 C422 1.419 . S
C421 C416 1.425 . S
C421 C418 1.409 . S
C421 C419 1.415 . S
C422 H412 0.930 . S
C422 C420 1.419 . S
C422 C423 1.362 . S
C423 H413 0.930 . S
C423 C416 1.409 . S
C423 C422 1.362 . S
H424 C430 0.930 . S
H425 C433 0.930 . S
H426 C434 0.930 . S
H427 C435 0.930 . S
H428 C438 0.930 . S
H429 C439 0.930 . S
C430 H424 0.930 . S
C430 C431 1.355 . S
C430 C432 1.415 . S
C431 C430 1.355 . S
C431 C433 1.419 . S
C432 C430 1.415 . S
C432 C437 1.425 . S
C432 C439 1.409 . S
C433 H425 0.930 . S
C433 C431 1.419 . S
C433 C434 1.362 . S
C434 H426 0.930 . S
C434 C433 1.362 . S
C434 C437 1.409 . S
C435 H427 0.930 . S
C435 C436 1.355 . S
C435 C437 1.415 . S
C436 C435 1.355 . S
C436 C438 1.419 . S
C437 C432 1.425 . S
C437 C434 1.409 . S
C437 C435 1.415 . S
C438 H428 0.930 . S
C438 C436 1.419 . S
C438 C439 1.362 . S
C439 H429 0.930 . S
C439 C432 1.409 . S
C439 C438 1.362 . S
H440 C446 0.930 . S
H441 C449 0.930 . S
H442 C450 0.930 . S
H443 C451 0.930 . S
H444 C454 0.930 . S
H445 C455 0.930 . S
C446 H440 0.930 . S
C446 C447 1.355 . S
C446 C448 1.415 . S
C447 C446 1.355 . S
C447 C449 1.419 . S
C448 C446 1.415 . S
C448 C453 1.425 . S
C448 C455 1.409 . S
C449 H441 0.930 . S
C449 C447 1.419 . S
C449 C450 1.362 . S
C450 H442 0.930 . S
C450 C449 1.362 . S
C450 C453 1.409 . S
C451 H443 0.930 . S
C451 C452 1.355 . S
C451 C453 1.415 . S
C452 C451 1.355 . S
C452 C454 1.419 . S
C453 C448 1.425 . S
C453 C450 1.409 . S
C453 C451 1.415 . S
C454 H444 0.930 . S
C454 C452 1.419 . S
C454 C455 1.362 . S
C455 H445 0.930 . S
C455 C448 1.409 . S
C455 C454 1.362 . S
H456 C462 0.930 . S
H457 C465 0.930 1_554 S
H458 C466 0.930 1_655 S
H459 C467 0.930 . S
H460 C470 0.930 . S
H461 C471 0.930 . S
C462 H456 0.930 . S
C462 C463 1.355 . S
C462 C464 1.415 . S
C463 C462 1.355 . S
C463 C465 1.419 . S
C464 C462 1.415 . S
C464 C469 1.425 1_455 S
C464 C471 1.409 . S
C465 H457 0.930 1_556 S
C465 C463 1.419 . S
C465 C466 1.362 . S
C466 H458 0.930 1_455 S
C466 C465 1.362 . S
C466 C469 1.409 1_455 S
C467 H459 0.930 . S
C467 C468 1.355 . S
C467 C469 1.415 . S
C468 C467 1.355 . S
C468 C470 1.419 . S
C469 C464 1.425 1_655 S
C469 C466 1.409 1_655 S
C469 C467 1.415 . S
C470 H460 0.930 . S
C470 C468 1.419 . S
C470 C471 1.362 1_655 S
C471 H461 0.930 . S
C471 C464 1.409 . S
C471 C470 1.362 1_455 S
H472 C478 0.930 . S
H473 C481 0.930 . S
H474 C482 0.930 . S
H475 C483 0.930 . S
H476 C486 0.930 . S
H477 C487 0.930 . S
C478 H472 0.930 . S
C478 C479 1.355 . S
C478 C480 1.415 1_556 S
C479 C478 1.355 . S
C479 C481 1.419 . S
C480 C478 1.415 1_554 S
C480 C485 1.425 1_565 S
C480 C487 1.409 . S
C481 H473 0.930 . S
C481 C479 1.419 . S
C481 C482 1.362 1_565 S
C482 H474 0.930 . S
C482 C481 1.362 1_545 S
C482 C485 1.409 1_556 S
C483 H475 0.930 . S
C483 C484 1.355 . S
C483 C485 1.415 . S
C484 C483 1.355 . S
C484 C486 1.419 . S
C485 C480 1.425 1_545 S
C485 C482 1.409 1_554 S
C485 C483 1.415 . S
C486 H476 0.930 . S
C486 C484 1.419 . S
C486 C487 1.362 1_545 S
C487 H477 0.930 . S
C487 C480 1.409 . S
C487 C486 1.362 1_565 S
H488 C494 0.930 . S
H489 C497 0.930 . S
H490 C498 0.930 . S
H491 C499 0.930 . S
H492 C502 0.930 . S
H493 C503 0.930 . S
C494 H488 0.930 . S
C494 C495 1.355 . S
C494 C496 1.415 . S
C495 C494 1.355 . S
C495 C497 1.419 . S
C496 C494 1.415 . S
C496 C501 1.425 . S
C496 C503 1.409 . S
C497 H489 0.930 . S
C497 C495 1.419 . S
C497 C498 1.362 . S
C498 H490 0.930 . S
C498 C497 1.362 . S
C498 C501 1.409 . S
C499 H491 0.930 . S
C499 C500 1.355 . S
C499 C501 1.415 . S
C500 C499 1.355 . S
C500 C502 1.419 . S
C501 C496 1.425 . S
C501 C498 1.409 . S
C501 C499 1.415 . S
C502 H492 0.930 . S
C502 C500 1.419 . S
C502 C503 1.362 . S
C503 H493 0.930 . S
C503 C496 1.409 . S
C503 C502 1.362 . S
H504 C510 0.930 . S
H505 C513 0.930 . S
H506 C514 0.930 . S
H507 C515 0.930 . S
H508 C518 0.930 . S
H509 C519 0.930 . S
C510 H504 0.930 . S
C510 C511 1.355 . S
C510 C512 1.415 1_455 S
C511 C510 1.355 . S
C511 C513 1.419 . S
C512 C510 1.415 1_655 S
C512 C517 1.425 . S
C512 C519 1.409 . S
C513 H505 0.930 . S
C513 C511 1.419 . S
C513 C514 1.362 . S
C514 H506 0.930 . S
C514 C513 1.362 . S
C514 C517 1.409 1_455 S
C515 H507 0.930 . S
C515 C516 1.355 . S
C515 C517 1.415 . S
C516 C515 1.355 . S
C516 C518 1.419 . S
C517 C512 1.425 . S
C517 C514 1.409 1_655 S
C517 C515 1.415 . S
C518 H508 0.930 . S
C518 C516 1.419 . S
C518 C519 1.362 . S
C519 H509 0.930 . S
C519 C512 1.409 . S
C519 C518 1.362 . S
H520 C526 0.930 . S
H521 C529 0.930 . S
H522 C530 0.903 1_565 S
H523 C531 0.930 . S
H524 C534 0.930 . S
H525 C535 0.903 1_545 S
C526 H520 0.930 . S
C526 C527 1.355 . S
C526 C528 1.415 . S
C527 C526 1.355 . S
C527 C529 1.419 . S
C528 C526 1.415 . S
C528 C533 1.425 1_545 S
C528 C535 1.414 1_545 S
C529 H521 0.930 . S
C529 C527 1.419 . S
C529 C530 1.385 . S
C530 H522 0.903 1_545 S
C530 C529 1.385 . S
C530 C533 1.414 1_545 S
C531 H523 0.930 . S
C531 C532 1.355 . S
C531 C533 1.415 . S
C532 C531 1.355 . S
C532 C534 1.419 . S
C533 C528 1.425 1_565 S
C533 C530 1.414 1_565 S
C533 C531 1.415 . S
C534 H524 0.930 . S
C534 C532 1.419 . S
C534 C535 1.386 . S
C535 H525 0.903 1_565 S
C535 C528 1.414 1_565 S
C535 C534 1.386 . S
H536 C542 0.930 . S
H537 C545 0.930 . S
H538 C546 0.930 . S
H539 C547 0.930 . S
H540 C550 0.930 . S
H541 C551 0.930 . S
C542 H536 0.930 . S
C542 C543 1.355 . S
C542 C544 1.415 . S
C543 C542 1.355 . S
C543 C545 1.419 . S
C544 C542 1.415 . S
C544 C549 1.425 . S
C544 C551 1.409 . S
C545 H537 0.930 . S
C545 C543 1.419 . S
C545 C546 1.362 . S
C546 H538 0.930 . S
C546 C545 1.362 . S
C546 C549 1.409 . S
C547 H539 0.930 . S
C547 C548 1.355 . S
C547 C549 1.415 . S
C548 C547 1.355 . S
C548 C550 1.419 . S
C549 C544 1.425 . S
C549 C546 1.409 . S
C549 C547 1.415 . S
C550 H540 0.930 . S
C550 C548 1.419 . S
C550 C551 1.362 . S
C551 H541 0.930 . S
C551 C544 1.409 . S
C551 C550 1.362 . S
C175 C12 1.310 . S
C180 C152 1.292 . S
C191 C166 1.227 . S
C196 C19 1.134 . S
C207 C40 1.233 . S
C212 C89 1.120 . S
C223 C54 1.308 . S
C228 C110 1.305 . S
C239 C61 1.069 . S
C244 C124 1.266 . S
C255 C131 1.131 . S
C260 C82 1.262 . S
C271 C4 1.554 . S
C276 C116 1.571 . S
C287 C25 1.515 . S
C292 C137 1.515 . S
C303 C144 1.579 . S
C308 C32 1.525 . S
C319 C46 1.550 . S
C324 C158 1.572 . S
C335 C67 1.502 . S
C340 C95 1.519 . S
C351 C74 1.537 . S
C356 C102 1.577 1_556 S
C367 C151 0.984 . S
C372 C11 0.993 . S
C383 C18 1.050 . S
C388 C165 0.994 . S
C399 C39 1.047 . S
C404 C88 0.983 . S
C415 C53 0.992 . S
C420 C109 0.990 . S
C431 C123 1.001 . S
C436 C60 1.042 . S
C447 C81 0.997 . S
C452 C130 1.047 . S
C463 C5 1.397 . S
C468 C159 1.289 . S
C479 C96 1.504 . S
C484 C26 1.482 . S
C495 C103 1.391 . S
C500 C33 1.287 . S
C511 C117 1.365 . S
C516 C47 1.267 . S
C527 C138 1.460 . S
C532 C68 1.491 . S
C543 C145 1.390 . S
C548 C75 1.287 . S
