# Generated by pormake.
# Topology tzs, (4)-cn, num edge types: 1
# Building blocks:
#     Node 0, Type 0, BuildingBlock: CEKHIL_clean_sbu_0, # of connection points: 4
#     Node 1, Type 0, BuildingBlock: CEKHIL_clean_sbu_0, # of connection points: 4
#     Node 2, Type 0, BuildingBlock: CEKHIL_clean_sbu_0, # of connection points: 4
#     Node 3, Type 0, BuildingBlock: CEKHIL_clean_sbu_0, # of connection points: 4
#     Node 4, Type 0, BuildingBlock: CEKHIL_clean_sbu_0, # of connection points: 4
#     Node 5, Type 0, BuildingBlock: CEKHIL_clean_sbu_0, # of connection points: 4
#     Node 6, Type 0, BuildingBlock: CEKHIL_clean_sbu_0, # of connection points: 4
#     Node 7, Type 0, BuildingBlock: CEKHIL_clean_sbu_0, # of connection points: 4
#     Node 8, Type 0, BuildingBlock: CEKHIL_clean_sbu_0, # of connection points: 4
#     Node 9, Type 0, BuildingBlock: CEKHIL_clean_sbu_0, # of connection points: 4
#     Node 10, Type 0, BuildingBlock: CEKHIL_clean_sbu_0, # of connection points: 4
#     Node 11, Type 0, BuildingBlock: CEKHIL_clean_sbu_0, # of connection points: 4
#     Node 12, Type 0, BuildingBlock: CEKHIL_clean_sbu_0, # of connection points: 4
#     Node 13, Type 0, BuildingBlock: CEKHIL_clean_sbu_0, # of connection points: 4
#     Node 14, Type 0, BuildingBlock: CEKHIL_clean_sbu_0, # of connection points: 4
#     Node 15, Type 0, BuildingBlock: CEKHIL_clean_sbu_0, # of connection points: 4
#     Edge 16, Type (0, 0), BuildingBlock: XIVTED_clean_linker_0, # of connection points: 2
#     Edge 17, Type (0, 0), BuildingBlock: XIVTED_clean_linker_0, # of connection points: 2
#     Edge 18, Type (0, 0), BuildingBlock: XIVTED_clean_linker_0, # of connection points: 2
#     Edge 19, Type (0, 0), BuildingBlock: XIVTED_clean_linker_0, # of connection points: 2
#     Edge 20, Type (0, 0), BuildingBlock: XIVTED_clean_linker_0, # of connection points: 2
#     Edge 21, Type (0, 0), BuildingBlock: XIVTED_clean_linker_0, # of connection points: 2
#     Edge 22, Type (0, 0), BuildingBlock: XIVTED_clean_linker_0, # of connection points: 2
#     Edge 23, Type (0, 0), BuildingBlock: XIVTED_clean_linker_0, # of connection points: 2
#     Edge 24, Type (0, 0), BuildingBlock: XIVTED_clean_linker_0, # of connection points: 2
#     Edge 25, Type (0, 0), BuildingBlock: XIVTED_clean_linker_0, # of connection points: 2
#     Edge 26, Type (0, 0), BuildingBlock: XIVTED_clean_linker_0, # of connection points: 2
#     Edge 27, Type (0, 0), BuildingBlock: XIVTED_clean_linker_0, # of connection points: 2
#     Edge 28, Type (0, 0), BuildingBlock: XIVTED_clean_linker_0, # of connection points: 2
#     Edge 29, Type (0, 0), BuildingBlock: XIVTED_clean_linker_0, # of connection points: 2
#     Edge 30, Type (0, 0), BuildingBlock: XIVTED_clean_linker_0, # of connection points: 2
#     Edge 31, Type (0, 0), BuildingBlock: XIVTED_clean_linker_0, # of connection points: 2
#     Edge 32, Type (0, 0), BuildingBlock: XIVTED_clean_linker_0, # of connection points: 2
#     Edge 33, Type (0, 0), BuildingBlock: XIVTED_clean_linker_0, # of connection points: 2
#     Edge 34, Type (0, 0), BuildingBlock: XIVTED_clean_linker_0, # of connection points: 2
#     Edge 35, Type (0, 0), BuildingBlock: XIVTED_clean_linker_0, # of connection points: 2
#     Edge 36, Type (0, 0), BuildingBlock: XIVTED_clean_linker_0, # of connection points: 2
#     Edge 37, Type (0, 0), BuildingBlock: XIVTED_clean_linker_0, # of connection points: 2
#     Edge 38, Type (0, 0), BuildingBlock: XIVTED_clean_linker_0, # of connection points: 2
#     Edge 39, Type (0, 0), BuildingBlock: XIVTED_clean_linker_0, # of connection points: 2
#     Edge 40, Type (0, 0), BuildingBlock: XIVTED_clean_linker_0, # of connection points: 2
#     Edge 41, Type (0, 0), BuildingBlock: XIVTED_clean_linker_0, # of connection points: 2
#     Edge 42, Type (0, 0), BuildingBlock: XIVTED_clean_linker_0, # of connection points: 2
#     Edge 43, Type (0, 0), BuildingBlock: XIVTED_clean_linker_0, # of connection points: 2
#     Edge 44, Type (0, 0), BuildingBlock: XIVTED_clean_linker_0, # of connection points: 2
#     Edge 45, Type (0, 0), BuildingBlock: XIVTED_clean_linker_0, # of connection points: 2
#     Edge 46, Type (0, 0), BuildingBlock: XIVTED_clean_linker_0, # of connection points: 2
#     Edge 47, Type (0, 0), BuildingBlock: XIVTED_clean_linker_0, # of connection points: 2
# Relax obj value: 0.124
# Max RMSD: 0.119
# Mean RMSD: 0.119
data_MOF--net-tzs--node1-CEKHIL_clean_sbu_0--edge1-XIVTED_clean_linker_0
_symmetry_space_group_name_H-M    P1
_symmetry_Int_Tables_number       1
_symmetry_cell_setting            triclinic
loop_
_symmetry_equiv_pos_as_xyz
'x, y, z'
_cell_length_a     48.273552
_cell_length_b     48.317127
_cell_length_c     39.263302
_cell_angle_alpha  89.987775
_cell_angle_beta   89.995362
_cell_angle_gamma 90.006396
loop_
_atom_site_label
_atom_site_type_symbol
_atom_site_fract_x
_atom_site_fract_y
_atom_site_fract_z
_atom_type_partial_charge
Co0 Co 0.1442 0.35008 0.19143 0.0
O1 O 0.15215 0.31086 0.19389 0.0
O2 O 0.18075 0.3443 0.20971 0.0
C3 C 0.10104 0.34772 0.21285 0.0
O4 O 0.14355 0.39224 0.19599 0.0
Co5 Co 0.09681 0.37555 0.14807 0.0
O6 O 0.10592 0.41086 0.17121 0.0
C7 C 0.14416 0.3474 0.11583 0.0
C8 C 0.17599 0.31797 0.20662 0.0
C9 C 0.1276 0.41296 0.18952 0.0
O10 O 0.15876 0.35081 0.14302 0.0
O11 O 0.1183 0.3531 0.1144 0.0
O12 O 0.12223 0.34764 0.2334 0.0
O13 O 0.10677 0.34726 0.18088 0.0
Co14 Co 0.65448 0.14352 0.19316 0.0
O15 O 0.69359 0.15226 0.19535 0.0
O16 O 0.65969 0.17992 0.21215 0.0
C17 C 0.65767 0.10004 0.21354 0.0
O18 O 0.61235 0.14203 0.19802 0.0
Co19 Co 0.62966 0.09655 0.14864 0.0
O20 O 0.5941 0.10489 0.17183 0.0
C21 C 0.657 0.14478 0.11768 0.0
C22 C 0.6861 0.17583 0.20847 0.0
C23 C 0.59177 0.12607 0.19092 0.0
O24 O 0.65313 0.15884 0.14516 0.0
O25 O 0.65199 0.11885 0.11553 0.0
O26 O 0.65757 0.1209 0.23456 0.0
O27 O 0.6579 0.10629 0.1817 0.0
Co28 Co 0.86025 0.6548 0.19523 0.0
O29 O 0.85091 0.69342 0.19964 0.0
O30 O 0.82324 0.65877 0.21376 0.0
C31 C 0.90329 0.65844 0.21709 0.0
O32 O 0.86315 0.61237 0.19679 0.0
Co33 Co 0.90954 0.6351 0.15 0.0
O34 O 0.90451 0.59993 0.17531 0.0
C35 C 0.85989 0.66058 0.11965 0.0
C36 C 0.82725 0.68535 0.21182 0.0
C37 C 0.88243 0.5943 0.19175 0.0
O38 O 0.84576 0.65529 0.14677 0.0
O39 O 0.88606 0.65676 0.11755 0.0
O40 O 0.88212 0.65653 0.23752 0.0
O41 O 0.89743 0.66012 0.18526 0.0
Co42 Co 0.3504 0.86081 0.19354 0.0
O43 O 0.31172 0.85132 0.19736 0.0
O44 O 0.34642 0.82371 0.21154 0.0
C45 C 0.3463 0.90348 0.21604 0.0
O46 O 0.39285 0.86385 0.19582 0.0
Co47 Co 0.37062 0.91071 0.14975 0.0
O48 O 0.40518 0.90584 0.1763 0.0
C49 C 0.34596 0.86128 0.11764 0.0
C50 C 0.31982 0.82769 0.20953 0.0
C51 C 0.41077 0.88348 0.19214 0.0
O52 O 0.35039 0.84688 0.14479 0.0
O53 O 0.35008 0.88742 0.1161 0.0
O54 O 0.34818 0.88214 0.23616 0.0
O55 O 0.34501 0.898 0.18408 0.0
Co56 Co 0.14651 0.65803 0.30641 0.0
O57 O 0.15493 0.69716 0.30413 0.0
O58 O 0.18311 0.6635 0.28796 0.0
C59 C 0.10322 0.66083 0.28527 0.0
O60 O 0.14533 0.61589 0.3017 0.0
Co61 Co 0.09894 0.63308 0.35006 0.0
O62 O 0.10759 0.59771 0.32677 0.0
C63 C 0.14682 0.66049 0.38205 0.0
C64 C 0.17869 0.68987 0.29132 0.0
C65 C 0.12914 0.59537 0.30828 0.0
O66 O 0.16124 0.65697 0.35474 0.0
O67 O 0.12089 0.65517 0.38365 0.0
O68 O 0.12432 0.6608 0.26458 0.0
O69 O 0.10913 0.66123 0.31719 0.0
Co70 Co 0.34582 0.14605 0.30595 0.0
O71 O 0.30664 0.15409 0.30324 0.0
O72 O 0.34019 0.18233 0.28674 0.0
C73 C 0.34343 0.10269 0.28544 0.0
O74 O 0.38803 0.14496 0.30163 0.0
Co75 Co 0.37041 0.09922 0.35102 0.0
O76 O 0.4059 0.10751 0.32767 0.0
C77 C 0.34281 0.14748 0.38152 0.0
C78 C 0.31381 0.17767 0.28992 0.0
C79 C 0.40845 0.12877 0.30871 0.0
O80 O 0.34662 0.16143 0.35393 0.0
O81 O 0.34794 0.12158 0.38389 0.0
O82 O 0.34344 0.12359 0.26448 0.0
O83 O 0.34269 0.10882 0.31731 0.0
Co84 Co 0.85849 0.34715 0.30359 0.0
O85 O 0.84971 0.30838 0.2995 0.0
O86 O 0.82165 0.34258 0.28484 0.0
C87 C 0.90156 0.34398 0.28195 0.0
O88 O 0.86094 0.38959 0.30165 0.0
Co89 Co 0.90735 0.36763 0.349 0.0
O90 O 0.90233 0.40236 0.32276 0.0
C91 C 0.85767 0.34221 0.37935 0.0
C92 C 0.82604 0.31607 0.28699 0.0
C93 C 0.88022 0.40774 0.30625 0.0
O94 O 0.84374 0.34688 0.35192 0.0
O95 O 0.88378 0.34632 0.38175 0.0
O96 O 0.88042 0.34547 0.26144 0.0
O97 O 0.89568 0.34233 0.3138 0.0
Co98 Co 0.6564 0.85806 0.30767 0.0
O99 O 0.69499 0.8482 0.30369 0.0
O100 O 0.66001 0.82111 0.28909 0.0
C101 C 0.66066 0.90111 0.28602 0.0
O102 O 0.61403 0.86137 0.30551 0.0
Co103 Co 0.63654 0.90735 0.35266 0.0
O104 O 0.60166 0.90286 0.32651 0.0
C105 C 0.66105 0.85741 0.38343 0.0
C106 C 0.68665 0.8247 0.29137 0.0
C107 C 0.59605 0.88081 0.31004 0.0
O108 O 0.65622 0.84344 0.35607 0.0
O109 O 0.65736 0.88357 0.38562 0.0
O110 O 0.65874 0.88003 0.26549 0.0
O111 O 0.66201 0.89515 0.31786 0.0
Co112 Co 0.84925 0.64358 0.80736 0.0
O113 O 0.81058 0.65319 0.80391 0.0
O114 O 0.8453 0.68077 0.78965 0.0
C115 C 0.845 0.60102 0.78459 0.0
O116 O 0.89167 0.64044 0.80473 0.0
Co117 Co 0.86954 0.59349 0.85074 0.0
O118 O 0.90389 0.59826 0.82371 0.0
C119 C 0.84534 0.64292 0.88333 0.0
C120 C 0.81869 0.67686 0.79186 0.0
C121 C 0.90948 0.62067 0.808 0.0
O122 O 0.84956 0.65735 0.85615 0.0
O123 O 0.8494 0.61677 0.88477 0.0
O124 O 0.84677 0.62246 0.76462 0.0
O125 O 0.84383 0.60635 0.81661 0.0
Co126 Co 0.35911 0.84929 0.80534 0.0
O127 O 0.3496 0.81066 0.80171 0.0
O128 O 0.32207 0.84524 0.78692 0.0
C129 C 0.4021 0.84517 0.7835 0.0
O130 O 0.36226 0.89168 0.80293 0.0
Co131 Co 0.40854 0.86934 0.85011 0.0
O132 O 0.404 0.90392 0.82347 0.0
C133 C 0.3588 0.84445 0.88102 0.0
C134 C 0.32597 0.81867 0.78938 0.0
C135 C 0.3819 0.90953 0.80708 0.0
O136 O 0.34466 0.84945 0.85384 0.0
O137 O 0.38498 0.84824 0.88304 0.0
O138 O 0.38093 0.84692 0.76306 0.0
O139 O 0.39625 0.84391 0.81537 0.0
Co140 Co 0.15415 0.35934 0.80376 0.0
O141 O 0.19296 0.35032 0.8 0.0
O142 O 0.15863 0.32254 0.785 0.0
C143 C 0.15765 0.40254 0.7824 0.0
O144 O 0.11171 0.3618 0.80135 0.0
Co145 Co 0.13308 0.40801 0.84894 0.0
O146 O 0.0985 0.40303 0.82237 0.0
C147 C 0.15885 0.35856 0.87941 0.0
C148 C 0.18517 0.32668 0.7875 0.0
C149 C 0.09339 0.38094 0.80575 0.0
O150 O 0.15415 0.34454 0.85207 0.0
O151 O 0.15457 0.38463 0.8817 0.0
O152 O 0.15625 0.3815 0.76174 0.0
O153 O 0.15894 0.3965 0.81422 0.0
Co154 Co 0.64488 0.15603 0.80523 0.0
O155 O 0.65376 0.19503 0.80258 0.0
O156 O 0.68146 0.16094 0.78649 0.0
C157 C 0.60152 0.15919 0.78432 0.0
O158 O 0.64318 0.1139 0.80093 0.0
Co159 Co 0.59735 0.13197 0.84964 0.0
O160 O 0.6056 0.09624 0.82688 0.0
C161 C 0.6457 0.15901 0.88077 0.0
C162 C 0.67738 0.18738 0.78971 0.0
C163 C 0.62694 0.09355 0.80808 0.0
O164 O 0.65988 0.15499 0.8534 0.0
O165 O 0.61969 0.15422 0.88276 0.0
O166 O 0.62256 0.15882 0.76354 0.0
O167 O 0.60755 0.15973 0.81622 0.0
Co168 Co 0.84765 0.35942 0.69087 0.0
O169 O 0.80892 0.3504 0.69518 0.0
O170 O 0.84338 0.32254 0.70953 0.0
C171 C 0.84431 0.40234 0.71276 0.0
O172 O 0.89012 0.36216 0.69259 0.0
Co173 Co 0.86758 0.40847 0.64546 0.0
O174 O 0.90256 0.40354 0.67124 0.0
C175 C 0.84229 0.35877 0.61516 0.0
C176 C 0.81681 0.3268 0.70761 0.0
C177 C 0.90816 0.38151 0.68777 0.0
O178 O 0.84727 0.34483 0.64249 0.0
O179 O 0.84618 0.3849 0.61283 0.0
O180 O 0.84599 0.38115 0.73313 0.0
O181 O 0.84255 0.3966 0.68088 0.0
Co182 Co 0.64565 0.84694 0.69549 0.0
O183 O 0.65409 0.80787 0.69815 0.0
O184 O 0.68211 0.84162 0.7145 0.0
C185 C 0.6022 0.84418 0.71609 0.0
O186 O 0.64425 0.8891 0.69977 0.0
Co187 Co 0.5985 0.87123 0.65062 0.0
O188 O 0.60681 0.90685 0.67358 0.0
C189 C 0.64679 0.84373 0.61999 0.0
C190 C 0.67773 0.81523 0.71121 0.0
C191 C 0.62807 0.90947 0.69254 0.0
O192 O 0.66087 0.84781 0.64742 0.0
O193 O 0.62082 0.84868 0.6178 0.0
O194 O 0.62314 0.84436 0.73703 0.0
O195 O 0.60837 0.84355 0.68424 0.0
Co196 Co 0.15525 0.64575 0.69379 0.0
O197 O 0.19384 0.65539 0.69855 0.0
O198 O 0.15881 0.68269 0.7124 0.0
C199 C 0.15892 0.60268 0.7155 0.0
O200 O 0.11283 0.64268 0.6951 0.0
Co201 Co 0.13567 0.59663 0.64835 0.0
O202 O 0.10044 0.60133 0.67372 0.0
C203 C 0.16127 0.6463 0.61825 0.0
C204 C 0.18545 0.67896 0.71064 0.0
C205 C 0.09479 0.62338 0.69017 0.0
O206 O 0.15589 0.66035 0.64538 0.0
O207 O 0.15743 0.62016 0.61603 0.0
O208 O 0.15688 0.62377 0.736 0.0
O209 O 0.16074 0.60863 0.68369 0.0
Co210 Co 0.35861 0.15582 0.69364 0.0
O211 O 0.34891 0.19441 0.69782 0.0
O212 O 0.32154 0.15952 0.71195 0.0
C213 C 0.40158 0.15977 0.71567 0.0
O214 O 0.36172 0.11346 0.69548 0.0
Co215 Co 0.40806 0.13604 0.64882 0.0
O216 O 0.40317 0.10095 0.67438 0.0
C217 C 0.35834 0.16095 0.61793 0.0
C218 C 0.32527 0.18612 0.70988 0.0
C219 C 0.38103 0.09538 0.69072 0.0
O220 O 0.34423 0.15596 0.64514 0.0
O221 O 0.38453 0.15721 0.61589 0.0
O222 O 0.38035 0.15785 0.73601 0.0
O223 O 0.39581 0.16131 0.68379 0.0
H224 H 0.25762 0.17084 0.28398 0.0
H225 H 0.22977 0.32684 0.22517 0.0
H226 H 0.32266 0.23089 0.26894 0.0
H227 H 0.16904 0.26192 0.21413 0.0
H228 H 0.2632 0.29268 0.24555 0.0
H229 H 0.22388 0.2047 0.26305 0.0
C230 C 0.26479 0.19117 0.2764 0.0
C231 C 0.293 0.19806 0.2782 0.0
C232 C 0.2426 0.28587 0.23857 0.0
C233 C 0.25453 0.23687 0.25432 0.0
C234 C 0.22348 0.30537 0.22697 0.0
C235 C 0.19658 0.29721 0.2179 0.0
C236 C 0.23473 0.25799 0.24152 0.0
C237 C 0.18959 0.26909 0.22074 0.0
C238 C 0.24554 0.21043 0.26432 0.0
C239 C 0.30113 0.22467 0.26793 0.0
N240 N 0.20851 0.2505 0.23247 0.0
N241 N 0.28199 0.24311 0.25654 0.0
H242 H 0.83322 0.26032 0.27969 0.0
H243 H 0.67623 0.22933 0.22772 0.0
H244 H 0.77206 0.32469 0.2675 0.0
H245 H 0.74251 0.17052 0.21361 0.0
H246 H 0.71014 0.26377 0.24639 0.0
H247 H 0.79937 0.22636 0.25985 0.0
C248 C 0.81264 0.26733 0.2729 0.0
C249 C 0.80546 0.29542 0.27527 0.0
C250 C 0.71727 0.24337 0.23911 0.0
C251 C 0.76653 0.25654 0.2526 0.0
C252 C 0.69793 0.22366 0.22852 0.0
C253 C 0.70655 0.19698 0.2191 0.0
C254 C 0.74546 0.2363 0.24069 0.0
C255 C 0.73494 0.19084 0.22057 0.0
C256 C 0.79335 0.24791 0.26145 0.0
C257 C 0.77849 0.30326 0.26602 0.0
N258 N 0.75335 0.21029 0.23134 0.0
N259 N 0.75996 0.28391 0.25523 0.0
H260 H 0.83347 0.74117 0.21886 0.0
H261 H 0.67625 0.77102 0.27193 0.0
H262 H 0.77322 0.67593 0.23099 0.0
H263 H 0.74273 0.82979 0.28489 0.0
H264 H 0.71012 0.73653 0.2526 0.0
H265 H 0.79911 0.77463 0.23836 0.0
C266 C 0.81296 0.73387 0.22557 0.0
C267 C 0.80623 0.70567 0.22332 0.0
C268 C 0.71725 0.75696 0.25977 0.0
C269 C 0.76663 0.74403 0.24565 0.0
C270 C 0.69794 0.77667 0.27072 0.0
C271 C 0.70667 0.80334 0.28005 0.0
C272 C 0.74543 0.76409 0.25775 0.0
C273 C 0.73504 0.80949 0.27803 0.0
C274 C 0.79336 0.75301 0.23682 0.0
C275 C 0.77932 0.69746 0.23243 0.0
N276 N 0.75334 0.7901 0.26698 0.0
N277 N 0.76045 0.71656 0.24309 0.0
H278 H 0.3295 0.77397 0.22907 0.0
H279 H 0.17258 0.74607 0.28587 0.0
H280 H 0.26394 0.83394 0.2174 0.0
H281 H 0.23236 0.68066 0.27186 0.0
H282 H 0.2071 0.77957 0.26613 0.0
H283 H 0.29538 0.7403 0.24972 0.0
C284 C 0.30795 0.78004 0.23081 0.0
C285 C 0.29955 0.80678 0.22142 0.0
C286 C 0.21266 0.75788 0.26738 0.0
C287 C 0.26048 0.7685 0.24531 0.0
C288 C 0.193 0.73877 0.27877 0.0
C289 C 0.19957 0.71052 0.28045 0.0
C290 C 0.23921 0.74875 0.25791 0.0
C291 C 0.22636 0.70223 0.27086 0.0
C292 C 0.28849 0.76082 0.24256 0.0
C293 C 0.27134 0.81353 0.22422 0.0
N294 N 0.2452 0.72125 0.26009 0.0
N295 N 0.25287 0.79458 0.23603 0.0
H296 H 0.67156 0.75906 0.71662 0.0
H297 H 0.82844 0.73069 0.77284 0.0
H298 H 0.73131 0.82443 0.73114 0.0
H299 H 0.76277 0.67082 0.78439 0.0
H300 H 0.79433 0.76458 0.75276 0.0
H301 H 0.70599 0.7255 0.7363 0.0
C302 C 0.69195 0.76635 0.72384 0.0
C303 C 0.69855 0.7946 0.72229 0.0
C304 C 0.78741 0.74404 0.75978 0.0
C305 C 0.73811 0.75629 0.74475 0.0
C306 C 0.80686 0.72469 0.77119 0.0
C307 C 0.79844 0.6979 0.78036 0.0
C308 C 0.75938 0.73644 0.75714 0.0
C309 C 0.7702 0.69126 0.77771 0.0
C310 C 0.71157 0.74719 0.73519 0.0
C311 C 0.7253 0.80286 0.73204 0.0
N312 N 0.75173 0.71033 0.76621 0.0
N313 N 0.74413 0.78379 0.74275 0.0
H314 H 0.17505 0.73281 0.72926 0.0
H315 H 0.33193 0.76273 0.78377 0.0
H316 H 0.24141 0.67366 0.71828 0.0
H317 H 0.27207 0.82805 0.76959 0.0
H318 H 0.29755 0.72914 0.76469 0.0
H319 H 0.20885 0.76738 0.74859 0.0
C320 C 0.1967 0.72709 0.73092 0.0
C321 C 0.20542 0.7003 0.72212 0.0
C322 C 0.29189 0.75081 0.7657 0.0
C323 C 0.2441 0.73963 0.74441 0.0
C324 C 0.3115 0.77003 0.77671 0.0
C325 C 0.3049 0.79828 0.77824 0.0
C326 C 0.26527 0.75977 0.75639 0.0
C327 C 0.27807 0.80648 0.76871 0.0
C328 C 0.21597 0.74684 0.74187 0.0
C329 C 0.23374 0.69406 0.72471 0.0
N330 N 0.25919 0.7873 0.75828 0.0
N331 N 0.252 0.7135 0.73573 0.0
H332 H 0.24119 0.33291 0.78171 0.0
H333 H 0.27133 0.1759 0.72844 0.0
H334 H 0.17603 0.27281 0.76794 0.0
H335 H 0.33061 0.2421 0.71698 0.0
H336 H 0.23675 0.2098 0.7474 0.0
H337 H 0.27494 0.29857 0.76279 0.0
C338 C 0.23396 0.31245 0.77476 0.0
C339 C 0.20571 0.30575 0.77637 0.0
C340 C 0.25731 0.21687 0.74065 0.0
C341 C 0.24437 0.26619 0.75474 0.0
C342 C 0.27707 0.19754 0.72991 0.0
C343 C 0.30391 0.20618 0.72109 0.0
C344 C 0.26455 0.24498 0.74297 0.0
C345 C 0.31018 0.23449 0.72343 0.0
C346 C 0.25326 0.29286 0.76385 0.0
C347 C 0.19759 0.27889 0.767 0.0
N348 N 0.29072 0.25281 0.73427 0.0
N349 N 0.21684 0.26005 0.75669 0.0
H350 H 0.73092 0.17738 0.77035 0.0
H351 H 0.76104 0.33374 0.71526 0.0
H352 H 0.67198 0.24363 0.78367 0.0
H353 H 0.82581 0.27302 0.72759 0.0
H354 H 0.72735 0.29998 0.73597 0.0
H355 H 0.76522 0.21112 0.75071 0.0
C356 C 0.7252 0.19903 0.7692 0.0
C357 C 0.69852 0.20771 0.77866 0.0
C358 C 0.74892 0.29403 0.73421 0.0
C359 C 0.73764 0.24639 0.75594 0.0
C360 C 0.76818 0.31326 0.72224 0.0
C361 C 0.79631 0.30619 0.71967 0.0
C362 C 0.75774 0.26736 0.74338 0.0
C363 C 0.80435 0.27936 0.72921 0.0
C364 C 0.74482 0.21828 0.75804 0.0
C365 C 0.6923 0.23603 0.77669 0.0
N366 N 0.78513 0.26088 0.74052 0.0
N367 N 0.71165 0.25433 0.76538 0.0
H368 H 0.20097 0.37539 0.91938 0.0
H369 H 0.19675 0.35699 0.09069 0.0
H370 H 0.13857 0.31207 0.91098 0.0
H371 H 0.12019 0.31477 0.06839 0.0
H372 H 0.21176 0.34893 0.03189 0.0
H373 H 0.20806 0.36315 0.97857 0.0
C374 C 0.18945 0.35813 0.9299 0.0
C375 C 0.16889 0.34495 0.91058 0.0
C376 C 0.19169 0.34135 0.03975 0.0
C377 C 0.17653 0.33081 0.9789 0.0
C378 C 0.18334 0.34564 0.07354 0.0
C379 C 0.15684 0.3374 0.08393 0.0
C380 C 0.17316 0.329 0.01643 0.0
C381 C 0.14045 0.32231 0.06099 0.0
C382 C 0.19356 0.351 0.96389 0.0
C383 C 0.15456 0.32276 0.92515 0.0
N384 N 0.14865 0.31904 0.02824 0.0
N385 N 0.15813 0.31687 0.95878 0.0
H386 H 0.62843 0.20045 0.9216 0.0
H387 H 0.6984 0.12711 0.07703 0.0
H388 H 0.69213 0.1385 0.9122 0.0
H389 H 0.63749 0.19179 0.08656 0.0
H390 H 0.70611 0.14039 0.01785 0.0
H391 H 0.64108 0.20718 0.98116 0.0
C392 C 0.6457 0.18884 0.93196 0.0
C393 C 0.65906 0.16863 0.91228 0.0
C394 C 0.69155 0.15221 0.03296 0.0
C395 C 0.67306 0.17551 0.98071 0.0
C396 C 0.6872 0.14468 0.06678 0.0
C397 C 0.66701 0.15818 0.08636 0.0
C398 C 0.67503 0.17294 0.01835 0.0
C399 C 0.65316 0.18085 0.07216 0.0
C400 C 0.65286 0.19261 0.966 0.0
C401 C 0.68131 0.15421 0.92666 0.0
N402 N 0.65694 0.18711 0.03866 0.0
N403 N 0.68719 0.15744 0.96034 0.0
H404 H 0.85723 0.69531 0.90747 0.0
H405 H 0.8772 0.70178 0.0785 0.0
H406 H 0.8126 0.62061 0.93199 0.0
H407 H 0.81272 0.64078 0.08905 0.0
H408 H 0.86458 0.7083 0.01937 0.0
H409 H 0.85043 0.71126 0.96609 0.0
C410 C 0.84566 0.6825 0.92509 0.0
C411 C 0.83636 0.65621 0.91534 0.0
C412 C 0.8523 0.69421 0.03448 0.0
C413 C 0.82934 0.67361 0.98267 0.0
C414 C 0.85964 0.69043 0.06846 0.0
C415 C 0.84625 0.67039 0.08837 0.0
C416 C 0.83164 0.67739 0.0201 0.0
C417 C 0.82363 0.65633 0.0744 0.0
C418 C 0.84206 0.69139 0.95878 0.0
C419 C 0.82098 0.64064 0.93887 0.0
N420 N 0.8175 0.65957 0.04079 0.0
N421 N 0.81839 0.64933 0.97151 0.0
H422 H 0.35801 0.80911 0.09292 0.0
H423 H 0.37561 0.8026 0.92142 0.0
H424 H 0.3124 0.88349 0.0698 0.0
H425 H 0.31237 0.86503 0.91254 0.0
H426 H 0.36341 0.79587 0.98064 0.0
H427 H 0.35079 0.79345 0.03429 0.0
C428 C 0.34612 0.8219 0.07561 0.0
C429 C 0.33666 0.84802 0.08576 0.0
C430 C 0.35132 0.81037 0.96592 0.0
C431 C 0.32919 0.83101 0.01834 0.0
C432 C 0.3584 0.81424 0.93187 0.0
C433 C 0.34523 0.83469 0.91237 0.0
C434 C 0.33117 0.82751 0.98081 0.0
C435 C 0.32308 0.84914 0.92685 0.0
C436 C 0.34229 0.81319 0.04188 0.0
C437 C 0.3209 0.86358 0.06261 0.0
N438 N 0.31721 0.84577 0.96052 0.0
N439 N 0.3181 0.85509 0.02991 0.0
H440 H 0.20301 0.6291 0.57784 0.0
H441 H 0.19919 0.64949 0.40694 0.0
H442 H 0.14178 0.69345 0.58735 0.0
H443 H 0.12374 0.69343 0.42984 0.0
H444 H 0.21435 0.65655 0.46587 0.0
H445 H 0.21041 0.64194 0.51892 0.0
C446 C 0.19179 0.64667 0.56762 0.0
C447 C 0.17145 0.65998 0.58716 0.0
C448 C 0.19449 0.66473 0.45812 0.0
C449 C 0.17948 0.67486 0.51914 0.0
C450 C 0.18608 0.66102 0.42425 0.0
C451 C 0.1598 0.67003 0.41398 0.0
C452 C 0.17624 0.67726 0.48163 0.0
C453 C 0.14379 0.68532 0.43714 0.0
C454 C 0.19609 0.65416 0.53378 0.0
C455 C 0.15756 0.68262 0.57299 0.0
N456 N 0.15202 0.688 0.46995 0.0
N457 N 0.16131 0.68888 0.53948 0.0
H458 H 0.37517 0.20229 0.57658 0.0
H459 H 0.30169 0.13015 0.42286 0.0
H460 H 0.31135 0.14059 0.58749 0.0
H461 H 0.36288 0.19444 0.41204 0.0
H462 H 0.29509 0.14329 0.48228 0.0
H463 H 0.36133 0.2094 0.5175 0.0
C464 C 0.35768 0.19077 0.56665 0.0
C465 C 0.34463 0.1705 0.58658 0.0
C466 C 0.30945 0.15508 0.46684 0.0
C467 C 0.3292 0.17789 0.5187 0.0
C468 C 0.31315 0.14764 0.43288 0.0
C469 C 0.33313 0.16103 0.41286 0.0
C470 C 0.32641 0.1756 0.48112 0.0
C471 C 0.34735 0.18358 0.42679 0.0
C472 C 0.34982 0.19478 0.53289 0.0
C473 C 0.322 0.15629 0.5728 0.0
N474 N 0.34422 0.18974 0.46041 0.0
N475 N 0.31542 0.15976 0.53935 0.0
H476 H 0.87424 0.30107 0.42115 0.0
H477 H 0.80114 0.37548 0.5734 0.0
H478 H 0.81057 0.36278 0.40919 0.0
H479 H 0.86252 0.3115 0.58541 0.0
H480 H 0.79432 0.36136 0.51438 0.0
H481 H 0.86037 0.29466 0.48035 0.0
C482 C 0.85675 0.31272 0.43087 0.0
C483 C 0.84377 0.33281 0.41062 0.0
C484 C 0.8088 0.34988 0.53001 0.0
C485 C 0.82835 0.32625 0.47861 0.0
C486 C 0.81264 0.3579 0.56374 0.0
C487 C 0.83276 0.34489 0.58394 0.0
C488 C 0.82572 0.32914 0.51614 0.0
C489 C 0.84694 0.32213 0.5705 0.0
C490 C 0.84889 0.30911 0.4647 0.0
C491 C 0.82116 0.3472 0.42414 0.0
N492 N 0.84366 0.31539 0.53707 0.0
N493 N 0.81459 0.34416 0.45765 0.0
H494 H 0.62899 0.8026 0.57903 0.0
H495 H 0.70298 0.87335 0.4244 0.0
H496 H 0.69397 0.86316 0.58913 0.0
H497 H 0.63955 0.81117 0.41431 0.0
H498 H 0.70965 0.8599 0.48371 0.0
H499 H 0.64214 0.79535 0.51973 0.0
C500 C 0.64661 0.8138 0.56888 0.0
C501 C 0.66021 0.83379 0.58866 0.0
C502 C 0.69475 0.84864 0.46844 0.0
C503 C 0.67482 0.8263 0.52053 0.0
C504 C 0.691 0.85626 0.43455 0.0
C505 C 0.6704 0.84358 0.41478 0.0
C506 C 0.67727 0.82864 0.48291 0.0
C507 C 0.65555 0.8215 0.42886 0.0
C508 C 0.65406 0.80973 0.53499 0.0
C509 C 0.68294 0.84764 0.57458 0.0
N510 N 0.65879 0.81516 0.46242 0.0
N511 N 0.68913 0.84414 0.54101 0.0
H512 H 0.14946 0.58619 0.2444 0.0
H513 H 0.14842 0.42189 0.25321 0.0
H514 H 0.12015 0.54335 0.33379 0.0
H515 H 0.11909 0.46509 0.16409 0.0
H516 H 0.15255 0.46646 0.28299 0.0
H517 H 0.15283 0.54157 0.21456 0.0
C518 C 0.14427 0.56736 0.25794 0.0
C519 C 0.13449 0.56841 0.29159 0.0
C520 C 0.14557 0.4661 0.25678 0.0
C521 C 0.13868 0.51756 0.25785 0.0
C522 C 0.14339 0.44079 0.23971 0.0
C523 C 0.13337 0.43985 0.20615 0.0
C524 C 0.13844 0.49065 0.23984 0.0
C525 C 0.1268 0.46493 0.18999 0.0
C526 C 0.14601 0.54203 0.24085 0.0
C527 C 0.12769 0.54342 0.30782 0.0
N528 N 0.12958 0.48936 0.20693 0.0
N529 N 0.13004 0.51896 0.29085 0.0
H530 H 0.58242 0.14664 0.25465 0.0
H531 H 0.41805 0.14794 0.24438 0.0
H532 H 0.5397 0.11694 0.16536 0.0
H533 H 0.46034 0.11991 0.33478 0.0
H534 H 0.46288 0.15056 0.21478 0.0
H535 H 0.53766 0.15078 0.28407 0.0
C536 C 0.56359 0.14146 0.24105 0.0
C537 C 0.56473 0.13139 0.20754 0.0
C538 C 0.46226 0.14418 0.24121 0.0
C539 C 0.51369 0.13649 0.24082 0.0
C540 C 0.43681 0.14288 0.25818 0.0
C541 C 0.43554 0.13369 0.29207 0.0
C542 C 0.48662 0.137 0.25857 0.0
C543 C 0.46044 0.12701 0.30863 0.0
C544 C 0.53817 0.14366 0.25791 0.0
C545 C 0.53972 0.12467 0.19124 0.0
N546 N 0.48501 0.12894 0.29177 0.0
N547 N 0.51517 0.12749 0.20797 0.0
H548 H 0.92318 0.5556 0.1981 0.0
H549 H 0.83385 0.43388 0.27936 0.0
H550 H 0.83655 0.56853 0.2205 0.0
H551 H 0.92149 0.44531 0.2963 0.0
H552 H 0.83241 0.47942 0.25088 0.0
H553 H 0.9208 0.51074 0.22576 0.0
C554 C 0.90351 0.54898 0.20858 0.0
C555 C 0.88002 0.56611 0.20692 0.0
C556 C 0.85182 0.47187 0.26109 0.0
C557 C 0.87726 0.5142 0.23898 0.0
C558 C 0.8527 0.44591 0.27727 0.0
C559 C 0.87782 0.43567 0.2904 0.0
C560 C 0.87634 0.48729 0.2574 0.0
C561 C 0.90159 0.45223 0.28687 0.0
C562 C 0.90225 0.52331 0.22461 0.0
C563 C 0.8552 0.55612 0.22125 0.0
N564 N 0.90027 0.47694 0.27054 0.0
N565 N 0.85442 0.53075 0.23663 0.0
H566 H 0.57029 0.83485 0.28183 0.0
H567 H 0.44851 0.92468 0.20168 0.0
H568 H 0.55806 0.92195 0.30132 0.0
H569 H 0.43676 0.83729 0.21974 0.0
H570 H 0.49288 0.92229 0.23055 0.0
H571 H 0.52498 0.83362 0.25283 0.0
C572 C 0.55812 0.85363 0.28022 0.0
C573 C 0.56811 0.87854 0.29415 0.0
C574 C 0.48067 0.90358 0.22821 0.0
C575 C 0.5167 0.8773 0.26057 0.0
C576 C 0.45529 0.90485 0.21146 0.0
C577 C 0.43865 0.88113 0.20818 0.0
C578 C 0.48999 0.87836 0.24167 0.0
C579 C 0.4488 0.85612 0.22172 0.0
C580 C 0.53229 0.85287 0.26373 0.0
C581 C 0.55136 0.90221 0.29122 0.0
N582 N 0.4739 0.85534 0.2378 0.0
N583 N 0.52675 0.90103 0.27457 0.0
H584 H 0.84855 0.58142 0.71885 0.0
H585 H 0.84836 0.4223 0.77812 0.0
H586 H 0.84445 0.55477 0.82369 0.0
H587 H 0.84412 0.4484 0.67309 0.0
H588 H 0.85007 0.47103 0.79538 0.0
H589 H 0.84998 0.53268 0.70122 0.0
C590 C 0.84801 0.56536 0.73808 0.0
C591 C 0.84632 0.57212 0.7727 0.0
C592 C 0.84882 0.46604 0.76854 0.0
C593 C 0.848 0.5166 0.75296 0.0
C594 C 0.84786 0.43826 0.75875 0.0
C595 C 0.84601 0.43134 0.72421 0.0
C596 C 0.84798 0.48693 0.74355 0.0
C597 C 0.84549 0.4528 0.70006 0.0
C598 C 0.84882 0.53758 0.72809 0.0
C599 C 0.84573 0.55053 0.79668 0.0
N600 N 0.84643 0.47961 0.71018 0.0
N601 N 0.84655 0.52379 0.78636 0.0
H602 H 0.5812 0.84574 0.7812 0.0
H603 H 0.42284 0.8493 0.71827 0.0
H604 H 0.55671 0.84643 0.67545 0.0
H605 H 0.4478 0.84376 0.82364 0.0
H606 H 0.47191 0.85052 0.70183 0.0
H607 H 0.53217 0.84736 0.79742 0.0
C608 C 0.56554 0.84631 0.76146 0.0
C609 C 0.57301 0.84588 0.727 0.0
C610 C 0.46657 0.84909 0.72855 0.0
C611 C 0.51705 0.84771 0.74517 0.0
C612 C 0.4386 0.84839 0.73788 0.0
C613 C 0.43125 0.84638 0.7723 0.0
C614 C 0.48718 0.84779 0.75389 0.0
C615 C 0.45248 0.84531 0.79675 0.0
C616 C 0.53758 0.84722 0.77066 0.0
C617 C 0.5519 0.84669 0.70238 0.0
N618 N 0.47942 0.846 0.78708 0.0
N619 N 0.52491 0.84751 0.71193 0.0
H620 H 0.15499 0.42355 0.71725 0.0
H621 H 0.15411 0.58176 0.78056 0.0
H622 H 0.15706 0.44805 0.82295 0.0
H623 H 0.15999 0.5571 0.67513 0.0
H624 H 0.15221 0.5327 0.79676 0.0
H625 H 0.15379 0.47261 0.70106 0.0
C626 C 0.1551 0.43921 0.73698 0.0
C627 C 0.1562 0.43173 0.77142 0.0
C628 C 0.15386 0.53811 0.77007 0.0
C629 C 0.15481 0.4877 0.75329 0.0
C630 C 0.15494 0.56607 0.76089 0.0
C631 C 0.15727 0.57351 0.72653 0.0
C632 C 0.15506 0.51757 0.74466 0.0
C633 C 0.15821 0.55235 0.70198 0.0
C634 C 0.15444 0.46718 0.72781 0.0
C635 C 0.15627 0.45285 0.79604 0.0
N636 N 0.15713 0.52541 0.71151 0.0
N637 N 0.15562 0.47982 0.78651 0.0
H638 H 0.4221 0.15511 0.78095 0.0
H639 H 0.58078 0.15816 0.71905 0.0
H640 H 0.44746 0.16144 0.6758 0.0
H641 H 0.55581 0.1571 0.82462 0.0
H642 H 0.5318 0.15705 0.70249 0.0
H643 H 0.4711 0.15359 0.79765 0.0
C644 C 0.43793 0.15612 0.76144 0.0
C645 C 0.43071 0.15844 0.72701 0.0
C646 C 0.53709 0.157 0.72929 0.0
C647 C 0.48659 0.15669 0.74572 0.0
C648 C 0.56502 0.15762 0.73869 0.0
C649 C 0.57235 0.1578 0.77319 0.0
C650 C 0.51644 0.15653 0.75463 0.0
C651 C 0.55111 0.15704 0.79767 0.0
C652 C 0.46587 0.15526 0.77092 0.0
C653 C 0.45204 0.15965 0.70269 0.0
N654 N 0.52416 0.15648 0.78792 0.0
N655 N 0.47895 0.15879 0.71251 0.0
H656 H 0.64744 0.08354 0.74448 0.0
H657 H 0.64744 0.91944 0.75669 0.0
H658 H 0.61744 0.04184 0.83435 0.0
H659 H 0.61925 0.96117 0.66598 0.0
H660 H 0.65047 0.96443 0.78574 0.0
H661 H 0.65112 0.03855 0.7156 0.0
C662 C 0.64212 0.06488 0.75832 0.0
C663 C 0.63209 0.06637 0.79184 0.0
C664 C 0.64395 0.96365 0.75936 0.0
C665 C 0.63665 0.01508 0.75917 0.0
C666 C 0.64241 0.93811 0.74271 0.0
C667 C 0.63307 0.93663 0.70889 0.0
C668 C 0.63686 0.9879 0.74175 0.0
C669 C 0.62646 0.96142 0.69209 0.0
C670 C 0.64405 0.03933 0.74176 0.0
C671 C 0.62515 0.04158 0.80846 0.0
N672 N 0.62863 0.98609 0.70863 0.0
N673 N 0.62771 0.0169 0.79202 0.0
H674 H 0.9462 0.57904 0.79592 0.0
H675 H 0.0696 0.669 0.71995 0.0
H676 H 0.93613 0.66715 0.78214 0.0
H677 H 0.05585 0.58278 0.69643 0.0
H678 H 0.02418 0.6702 0.74868 0.0
H679 H 0.99046 0.58146 0.76675 0.0
C680 C 0.95334 0.59903 0.78702 0.0
C681 C 0.93723 0.62295 0.79162 0.0
C682 C 0.03117 0.65116 0.73694 0.0
C683 C 0.98842 0.62577 0.75779 0.0
C684 C 0.05706 0.65042 0.72059 0.0
C685 C 0.0667 0.62574 0.70566 0.0
C686 C 0.01514 0.62693 0.73893 0.0
C687 C 0.04947 0.60233 0.70737 0.0
C688 C 0.97864 0.60032 0.77009 0.0
C689 C 0.94778 0.64816 0.77913 0.0
N690 N 0.0248 0.60347 0.7239 0.0
N691 N 0.97281 0.64896 0.76289 0.0
H692 H 0.33495 0.07008 0.71937 0.0
H693 H 0.42375 0.94632 0.79644 0.0
H694 H 0.42165 0.05658 0.69797 0.0
H695 H 0.33583 0.93632 0.78027 0.0
H696 H 0.42182 0.99076 0.7677 0.0
H697 H 0.33331 0.02455 0.74772 0.0
C698 C 0.35355 0.05758 0.72041 0.0
C699 C 0.37848 0.06731 0.70617 0.0
C700 C 0.40289 0.97892 0.77043 0.0
C701 C 0.37678 0.01561 0.739 0.0
C702 C 0.4039 0.95352 0.78711 0.0
C703 C 0.37989 0.93737 0.79092 0.0
C704 C 0.37763 0.98877 0.7576 0.0
C705 C 0.35487 0.94799 0.77788 0.0
C706 C 0.35256 0.03162 0.73653 0.0
C707 C 0.40191 0.05013 0.70837 0.0
N708 N 0.35435 0.97312 0.76191 0.0
N709 N 0.40051 0.02539 0.72467 0.0
H710 H 0.06787 0.33439 0.77862 0.0
H711 H 0.94662 0.42245 0.69444 0.0
H712 H 0.05556 0.42188 0.79515 0.0
H713 H 0.93384 0.33594 0.71731 0.0
H714 H 0.99113 0.42049 0.72305 0.0
H715 H 0.02267 0.33254 0.74931 0.0
C716 C 0.05571 0.35313 0.77627 0.0
C717 C 0.06561 0.37832 0.78951 0.0
C718 C 0.97867 0.40187 0.72179 0.0
C719 C 0.01439 0.37638 0.75556 0.0
C720 C 0.95321 0.40288 0.7052 0.0
C721 C 0.93622 0.37931 0.7034 0.0
C722 C 0.98772 0.37704 0.73657 0.0
C723 C 0.94615 0.35465 0.71814 0.0
C724 C 0.02995 0.35202 0.75962 0.0
C725 C 0.0489 0.40193 0.78564 0.0
N726 N 0.97133 0.35411 0.73406 0.0
N727 N 0.02438 0.4004 0.76884 0.0
H728 H 0.34566 0.0821 0.22031 0.0
H729 H 0.35012 0.92356 0.2816 0.0
H730 H 0.34585 0.05709 0.32588 0.0
H731 H 0.34492 0.94944 0.17653 0.0
H732 H 0.35099 0.97246 0.29871 0.0
H733 H 0.3479 0.03328 0.20373 0.0
C734 C 0.34624 0.06636 0.23994 0.0
C735 C 0.34548 0.07361 0.27444 0.0
C736 C 0.34973 0.96734 0.27191 0.0
C737 C 0.34802 0.01788 0.25586 0.0
C738 C 0.34924 0.93948 0.26221 0.0
C739 C 0.3474 0.93246 0.22768 0.0
C740 C 0.3484 0.98814 0.24683 0.0
C741 C 0.34634 0.95387 0.2035 0.0
C742 C 0.34751 0.03851 0.23054 0.0
C743 C 0.34634 0.05241 0.29893 0.0
N744 N 0.34683 0.98067 0.21353 0.0
N745 N 0.34751 0.02552 0.28917 0.0
H746 H 0.92197 0.3499 0.21691 0.0
H747 H 0.08067 0.34755 0.27833 0.0
H748 H 0.94738 0.34263 0.32195 0.0
H749 H 0.05525 0.35109 0.173 0.0
H750 H 0.03174 0.34815 0.29522 0.0
H751 H 0.97088 0.3526 0.20029 0.0
C752 C 0.93781 0.34892 0.23641 0.0
C753 C 0.93064 0.34598 0.27077 0.0
C754 C 0.03694 0.34888 0.26841 0.0
C755 C 0.98642 0.34908 0.25217 0.0
C756 C 0.06483 0.34858 0.25883 0.0
C757 C 0.072 0.34917 0.22428 0.0
C758 C 0.01621 0.34981 0.2432 0.0
C759 C 0.05068 0.35052 0.19997 0.0
C760 C 0.96569 0.35047 0.22699 0.0
C761 C 0.95196 0.34487 0.29511 0.0
N762 N 0.02379 0.35072 0.20989 0.0
N763 N 0.97884 0.34639 0.28534 0.0
H764 H 0.66262 0.94669 0.32631 0.0
H765 H 0.65469 0.05465 0.1728 0.0
H766 H 0.65557 0.92212 0.22097 0.0
H767 H 0.65828 0.07872 0.27857 0.0
H768 H 0.65432 0.00623 0.18988 0.0
H769 H 0.66053 0.99495 0.30916 0.0
C770 C 0.66058 0.95144 0.29947 0.0
C771 C 0.65927 0.93029 0.27497 0.0
C772 C 0.65511 0.02204 0.2094 0.0
C773 C 0.65695 0.98583 0.25515 0.0
C774 C 0.65532 0.04976 0.19971 0.0
C775 C 0.65657 0.0708 0.22437 0.0
C776 C 0.65626 0.01518 0.24405 0.0
C777 C 0.65732 0.06317 0.25877 0.0
C778 C 0.65938 0.97909 0.28972 0.0
C779 C 0.65668 0.93777 0.24064 0.0
N780 N 0.65724 0.03593 0.2676 0.0
N781 N 0.65566 0.96499 0.23172 0.0
H782 H 0.08252 0.65916 0.21995 0.0
H783 H 0.924 0.65423 0.28229 0.0
H784 H 0.05757 0.65825 0.32553 0.0
H785 H 0.94903 0.6599 0.17696 0.0
H786 H 0.97305 0.65332 0.29881 0.0
H787 H 0.03354 0.65707 0.20343 0.0
C788 C 0.06677 0.65845 0.23959 0.0
C789 C 0.0741 0.65895 0.27409 0.0
C790 C 0.96773 0.6547 0.27207 0.0
C791 C 0.01822 0.65656 0.25559 0.0
C792 C 0.93977 0.65521 0.26271 0.0
C793 C 0.93245 0.6572 0.22828 0.0
C794 C 0.98837 0.65617 0.24677 0.0
C795 C 0.9537 0.65837 0.20385 0.0
C796 C 0.03884 0.65727 0.23022 0.0
C797 C 0.05289 0.65795 0.29858 0.0
N798 N 0.98064 0.65788 0.21356 0.0
N799 N 0.02596 0.65685 0.28887 0.0
loop_
_geom_bond_atom_site_label_1
_geom_bond_atom_site_label_2
_geom_bond_distance
_geom_bond_site_symmetry_2
_ccdc_geom_bond_type
Co0 O1 2.216 . S
Co0 O2 2.091 . S
Co0 O4 2.004 . S
Co0 O10 2.021 . S
Co0 O12 2.137 . S
Co0 O13 2.244 . S
O1 Co0 2.216 . S
O1 C8 1.247 . S
O2 Co0 2.091 . S
O2 C8 1.261 . S
C3 O12 1.247 . S
C3 O13 1.272 . S
O4 Co0 2.004 . S
O4 C9 1.259 . S
Co5 O6 2.061 . S
Co5 O11 2.052 . S
Co5 O13 2.135 . S
O6 Co5 2.061 . S
O6 C9 1.235 . S
C7 O10 1.238 . S
C7 O11 1.241 . S
C8 O1 1.247 . S
C8 O2 1.261 . S
C9 O4 1.259 . S
C9 O6 1.235 . S
O10 Co0 2.021 . S
O10 C7 1.238 . S
O11 Co5 2.052 . S
O11 C7 1.241 . S
O12 Co0 2.137 . S
O12 C3 1.247 . S
O13 Co0 2.244 . S
O13 C3 1.272 . S
O13 Co5 2.135 . S
Co14 O15 2.216 . S
Co14 O16 2.091 . S
Co14 O18 2.004 . S
Co14 O24 2.021 . S
Co14 O26 2.137 . S
Co14 O27 2.244 . S
O15 Co14 2.216 . S
O15 C22 1.247 . S
O16 Co14 2.091 . S
O16 C22 1.261 . S
C17 O26 1.247 . S
C17 O27 1.272 . S
O18 Co14 2.004 . S
O18 C23 1.259 . S
Co19 O20 2.061 . S
Co19 O25 2.052 . S
Co19 O27 2.135 . S
O20 Co19 2.061 . S
O20 C23 1.235 . S
C21 O24 1.238 . S
C21 O25 1.241 . S
C22 O15 1.247 . S
C22 O16 1.261 . S
C23 O18 1.259 . S
C23 O20 1.235 . S
O24 Co14 2.021 . S
O24 C21 1.238 . S
O25 Co19 2.052 . S
O25 C21 1.241 . S
O26 Co14 2.137 . S
O26 C17 1.247 . S
O27 Co14 2.244 . S
O27 C17 1.272 . S
O27 Co19 2.135 . S
Co28 O29 2.216 . S
Co28 O30 2.091 . S
Co28 O32 2.004 . S
Co28 O38 2.021 . S
Co28 O40 2.137 . S
Co28 O41 2.244 . S
O29 Co28 2.216 . S
O29 C36 1.247 . S
O30 Co28 2.091 . S
O30 C36 1.261 . S
C31 O40 1.247 . S
C31 O41 1.272 . S
O32 Co28 2.004 . S
O32 C37 1.259 . S
Co33 O34 2.061 . S
Co33 O39 2.052 . S
Co33 O41 2.135 . S
O34 Co33 2.061 . S
O34 C37 1.235 . S
C35 O38 1.238 . S
C35 O39 1.241 . S
C36 O29 1.247 . S
C36 O30 1.261 . S
C37 O32 1.259 . S
C37 O34 1.235 . S
O38 Co28 2.021 . S
O38 C35 1.238 . S
O39 Co33 2.052 . S
O39 C35 1.241 . S
O40 Co28 2.137 . S
O40 C31 1.247 . S
O41 Co28 2.244 . S
O41 C31 1.272 . S
O41 Co33 2.135 . S
Co42 O43 2.216 . S
Co42 O44 2.091 . S
Co42 O46 2.004 . S
Co42 O52 2.021 . S
Co42 O54 2.137 . S
Co42 O55 2.244 . S
O43 Co42 2.216 . S
O43 C50 1.247 . S
O44 Co42 2.091 . S
O44 C50 1.261 . S
C45 O54 1.247 . S
C45 O55 1.272 . S
O46 Co42 2.004 . S
O46 C51 1.259 . S
Co47 O48 2.061 . S
Co47 O53 2.052 . S
Co47 O55 2.135 . S
O48 Co47 2.061 . S
O48 C51 1.235 . S
C49 O52 1.238 . S
C49 O53 1.241 . S
C50 O43 1.247 . S
C50 O44 1.261 . S
C51 O46 1.259 . S
C51 O48 1.235 . S
O52 Co42 2.021 . S
O52 C49 1.238 . S
O53 Co47 2.052 . S
O53 C49 1.241 . S
O54 Co42 2.137 . S
O54 C45 1.247 . S
O55 Co42 2.244 . S
O55 C45 1.272 . S
O55 Co47 2.135 . S
Co56 O57 2.216 . S
Co56 O58 2.091 . S
Co56 O60 2.004 . S
Co56 O66 2.021 . S
Co56 O68 2.137 . S
Co56 O69 2.244 . S
O57 Co56 2.216 . S
O57 C64 1.247 . S
O58 Co56 2.091 . S
O58 C64 1.261 . S
C59 O68 1.247 . S
C59 O69 1.272 . S
O60 Co56 2.004 . S
O60 C65 1.259 . S
Co61 O62 2.061 . S
Co61 O67 2.052 . S
Co61 O69 2.135 . S
O62 Co61 2.061 . S
O62 C65 1.235 . S
C63 O66 1.238 . S
C63 O67 1.241 . S
C64 O57 1.247 . S
C64 O58 1.261 . S
C65 O60 1.259 . S
C65 O62 1.235 . S
O66 Co56 2.021 . S
O66 C63 1.238 . S
O67 Co61 2.052 . S
O67 C63 1.241 . S
O68 Co56 2.137 . S
O68 C59 1.247 . S
O69 Co56 2.244 . S
O69 C59 1.272 . S
O69 Co61 2.135 . S
Co70 O71 2.216 . S
Co70 O72 2.091 . S
Co70 O74 2.004 . S
Co70 O80 2.021 . S
Co70 O82 2.137 . S
Co70 O83 2.244 . S
O71 Co70 2.216 . S
O71 C78 1.247 . S
O72 Co70 2.091 . S
O72 C78 1.261 . S
C73 O82 1.247 . S
C73 O83 1.272 . S
O74 Co70 2.004 . S
O74 C79 1.259 . S
Co75 O76 2.061 . S
Co75 O81 2.052 . S
Co75 O83 2.135 . S
O76 Co75 2.061 . S
O76 C79 1.235 . S
C77 O80 1.238 . S
C77 O81 1.241 . S
C78 O71 1.247 . S
C78 O72 1.261 . S
C79 O74 1.259 . S
C79 O76 1.235 . S
O80 Co70 2.021 . S
O80 C77 1.238 . S
O81 Co75 2.052 . S
O81 C77 1.241 . S
O82 Co70 2.137 . S
O82 C73 1.247 . S
O83 Co70 2.244 . S
O83 C73 1.272 . S
O83 Co75 2.135 . S
Co84 O85 2.216 . S
Co84 O86 2.091 . S
Co84 O88 2.004 . S
Co84 O94 2.021 . S
Co84 O96 2.137 . S
Co84 O97 2.244 . S
O85 Co84 2.216 . S
O85 C92 1.247 . S
O86 Co84 2.091 . S
O86 C92 1.261 . S
C87 O96 1.247 . S
C87 O97 1.272 . S
O88 Co84 2.004 . S
O88 C93 1.259 . S
Co89 O90 2.061 . S
Co89 O95 2.052 . S
Co89 O97 2.135 . S
O90 Co89 2.061 . S
O90 C93 1.235 . S
C91 O94 1.238 . S
C91 O95 1.241 . S
C92 O85 1.247 . S
C92 O86 1.261 . S
C93 O88 1.259 . S
C93 O90 1.235 . S
O94 Co84 2.021 . S
O94 C91 1.238 . S
O95 Co89 2.052 . S
O95 C91 1.241 . S
O96 Co84 2.137 . S
O96 C87 1.247 . S
O97 Co84 2.244 . S
O97 C87 1.272 . S
O97 Co89 2.135 . S
Co98 O99 2.216 . S
Co98 O100 2.091 . S
Co98 O102 2.004 . S
Co98 O108 2.021 . S
Co98 O110 2.137 . S
Co98 O111 2.244 . S
O99 Co98 2.216 . S
O99 C106 1.247 . S
O100 Co98 2.091 . S
O100 C106 1.261 . S
C101 O110 1.247 . S
C101 O111 1.272 . S
O102 Co98 2.004 . S
O102 C107 1.259 . S
Co103 O104 2.061 . S
Co103 O109 2.052 . S
Co103 O111 2.135 . S
O104 Co103 2.061 . S
O104 C107 1.235 . S
C105 O108 1.238 . S
C105 O109 1.241 . S
C106 O99 1.247 . S
C106 O100 1.261 . S
C107 O102 1.259 . S
C107 O104 1.235 . S
O108 Co98 2.021 . S
O108 C105 1.238 . S
O109 Co103 2.052 . S
O109 C105 1.241 . S
O110 Co98 2.137 . S
O110 C101 1.247 . S
O111 Co98 2.244 . S
O111 C101 1.272 . S
O111 Co103 2.135 . S
Co112 O113 2.216 . S
Co112 O114 2.091 . S
Co112 O116 2.004 . S
Co112 O122 2.021 . S
Co112 O124 2.137 . S
Co112 O125 2.244 . S
O113 Co112 2.216 . S
O113 C120 1.247 . S
O114 Co112 2.091 . S
O114 C120 1.261 . S
C115 O124 1.247 . S
C115 O125 1.272 . S
O116 Co112 2.004 . S
O116 C121 1.259 . S
Co117 O118 2.061 . S
Co117 O123 2.052 . S
Co117 O125 2.135 . S
O118 Co117 2.061 . S
O118 C121 1.235 . S
C119 O122 1.238 . S
C119 O123 1.241 . S
C120 O113 1.247 . S
C120 O114 1.261 . S
C121 O116 1.259 . S
C121 O118 1.235 . S
O122 Co112 2.021 . S
O122 C119 1.238 . S
O123 Co117 2.052 . S
O123 C119 1.241 . S
O124 Co112 2.137 . S
O124 C115 1.247 . S
O125 Co112 2.244 . S
O125 C115 1.272 . S
O125 Co117 2.135 . S
Co126 O127 2.216 . S
Co126 O128 2.091 . S
Co126 O130 2.004 . S
Co126 O136 2.021 . S
Co126 O138 2.137 . S
Co126 O139 2.244 . S
O127 Co126 2.216 . S
O127 C134 1.247 . S
O128 Co126 2.091 . S
O128 C134 1.261 . S
C129 O138 1.247 . S
C129 O139 1.272 . S
O130 Co126 2.004 . S
O130 C135 1.259 . S
Co131 O132 2.061 . S
Co131 O137 2.052 . S
Co131 O139 2.135 . S
O132 Co131 2.061 . S
O132 C135 1.235 . S
C133 O136 1.238 . S
C133 O137 1.241 . S
C134 O127 1.247 . S
C134 O128 1.261 . S
C135 O130 1.259 . S
C135 O132 1.235 . S
O136 Co126 2.021 . S
O136 C133 1.238 . S
O137 Co131 2.052 . S
O137 C133 1.241 . S
O138 Co126 2.137 . S
O138 C129 1.247 . S
O139 Co126 2.244 . S
O139 C129 1.272 . S
O139 Co131 2.135 . S
Co140 O141 2.216 . S
Co140 O142 2.091 . S
Co140 O144 2.004 . S
Co140 O150 2.021 . S
Co140 O152 2.137 . S
Co140 O153 2.244 . S
O141 Co140 2.216 . S
O141 C148 1.247 . S
O142 Co140 2.091 . S
O142 C148 1.261 . S
C143 O152 1.247 . S
C143 O153 1.272 . S
O144 Co140 2.004 . S
O144 C149 1.259 . S
Co145 O146 2.061 . S
Co145 O151 2.052 . S
Co145 O153 2.135 . S
O146 Co145 2.061 . S
O146 C149 1.235 . S
C147 O150 1.238 . S
C147 O151 1.241 . S
C148 O141 1.247 . S
C148 O142 1.261 . S
C149 O144 1.259 . S
C149 O146 1.235 . S
O150 Co140 2.021 . S
O150 C147 1.238 . S
O151 Co145 2.052 . S
O151 C147 1.241 . S
O152 Co140 2.137 . S
O152 C143 1.247 . S
O153 Co140 2.244 . S
O153 C143 1.272 . S
O153 Co145 2.135 . S
Co154 O155 2.216 . S
Co154 O156 2.091 . S
Co154 O158 2.004 . S
Co154 O164 2.021 . S
Co154 O166 2.137 . S
Co154 O167 2.244 . S
O155 Co154 2.216 . S
O155 C162 1.247 . S
O156 Co154 2.091 . S
O156 C162 1.261 . S
C157 O166 1.247 . S
C157 O167 1.272 . S
O158 Co154 2.004 . S
O158 C163 1.259 . S
Co159 O160 2.061 . S
Co159 O165 2.052 . S
Co159 O167 2.135 . S
O160 Co159 2.061 . S
O160 C163 1.235 . S
C161 O164 1.238 . S
C161 O165 1.241 . S
C162 O155 1.247 . S
C162 O156 1.261 . S
C163 O158 1.259 . S
C163 O160 1.235 . S
O164 Co154 2.021 . S
O164 C161 1.238 . S
O165 Co159 2.052 . S
O165 C161 1.241 . S
O166 Co154 2.137 . S
O166 C157 1.247 . S
O167 Co154 2.244 . S
O167 C157 1.272 . S
O167 Co159 2.135 . S
Co168 O169 2.216 . S
Co168 O170 2.091 . S
Co168 O172 2.004 . S
Co168 O178 2.021 . S
Co168 O180 2.137 . S
Co168 O181 2.244 . S
O169 Co168 2.216 . S
O169 C176 1.247 . S
O170 Co168 2.091 . S
O170 C176 1.261 . S
C171 O180 1.247 . S
C171 O181 1.272 . S
O172 Co168 2.004 . S
O172 C177 1.259 . S
Co173 O174 2.061 . S
Co173 O179 2.052 . S
Co173 O181 2.135 . S
O174 Co173 2.061 . S
O174 C177 1.235 . S
C175 O178 1.238 . S
C175 O179 1.241 . S
C176 O169 1.247 . S
C176 O170 1.261 . S
C177 O172 1.259 . S
C177 O174 1.235 . S
O178 Co168 2.021 . S
O178 C175 1.238 . S
O179 Co173 2.052 . S
O179 C175 1.241 . S
O180 Co168 2.137 . S
O180 C171 1.247 . S
O181 Co168 2.244 . S
O181 C171 1.272 . S
O181 Co173 2.135 . S
Co182 O183 2.216 . S
Co182 O184 2.091 . S
Co182 O186 2.004 . S
Co182 O192 2.021 . S
Co182 O194 2.137 . S
Co182 O195 2.244 . S
O183 Co182 2.216 . S
O183 C190 1.247 . S
O184 Co182 2.091 . S
O184 C190 1.261 . S
C185 O194 1.247 . S
C185 O195 1.272 . S
O186 Co182 2.004 . S
O186 C191 1.259 . S
Co187 O188 2.061 . S
Co187 O193 2.052 . S
Co187 O195 2.135 . S
O188 Co187 2.061 . S
O188 C191 1.235 . S
C189 O192 1.238 . S
C189 O193 1.241 . S
C190 O183 1.247 . S
C190 O184 1.261 . S
C191 O186 1.259 . S
C191 O188 1.235 . S
O192 Co182 2.021 . S
O192 C189 1.238 . S
O193 Co187 2.052 . S
O193 C189 1.241 . S
O194 Co182 2.137 . S
O194 C185 1.247 . S
O195 Co182 2.244 . S
O195 C185 1.272 . S
O195 Co187 2.135 . S
Co196 O197 2.216 . S
Co196 O198 2.091 . S
Co196 O200 2.004 . S
Co196 O206 2.021 . S
Co196 O208 2.137 . S
Co196 O209 2.244 . S
O197 Co196 2.216 . S
O197 C204 1.247 . S
O198 Co196 2.091 . S
O198 C204 1.261 . S
C199 O208 1.247 . S
C199 O209 1.272 . S
O200 Co196 2.004 . S
O200 C205 1.259 . S
Co201 O202 2.061 . S
Co201 O207 2.052 . S
Co201 O209 2.135 . S
O202 Co201 2.061 . S
O202 C205 1.235 . S
C203 O206 1.238 . S
C203 O207 1.241 . S
C204 O197 1.247 . S
C204 O198 1.261 . S
C205 O200 1.259 . S
C205 O202 1.235 . S
O206 Co196 2.021 . S
O206 C203 1.238 . S
O207 Co201 2.052 . S
O207 C203 1.241 . S
O208 Co196 2.137 . S
O208 C199 1.247 . S
O209 Co196 2.244 . S
O209 C199 1.272 . S
O209 Co201 2.135 . S
Co210 O211 2.216 . S
Co210 O212 2.091 . S
Co210 O214 2.004 . S
Co210 O220 2.021 . S
Co210 O222 2.137 . S
Co210 O223 2.244 . S
O211 Co210 2.216 . S
O211 C218 1.247 . S
O212 Co210 2.091 . S
O212 C218 1.261 . S
C213 O222 1.247 . S
C213 O223 1.272 . S
O214 Co210 2.004 . S
O214 C219 1.259 . S
Co215 O216 2.061 . S
Co215 O221 2.052 . S
Co215 O223 2.135 . S
O216 Co215 2.061 . S
O216 C219 1.235 . S
C217 O220 1.238 . S
C217 O221 1.241 . S
C218 O211 1.247 . S
C218 O212 1.261 . S
C219 O214 1.259 . S
C219 O216 1.235 . S
O220 Co210 2.021 . S
O220 C217 1.238 . S
O221 Co215 2.052 . S
O221 C217 1.241 . S
O222 Co210 2.137 . S
O222 C213 1.247 . S
O223 Co210 2.244 . S
O223 C213 1.272 . S
O223 Co215 2.135 . S
H224 C230 0.930 . S
H225 C234 0.930 . S
H226 C239 0.929 . S
H227 C237 0.929 . S
H228 C232 0.929 . S
H229 C238 0.929 . S
C230 H224 0.930 . S
C230 C231 1.367 . S
C230 C238 1.378 . S
C231 C230 1.367 . S
C231 C239 1.433 . S
C232 H228 0.929 . S
C232 C234 1.378 . S
C232 C236 1.350 . S
C233 C236 1.463 . S
C233 C238 1.350 . S
C233 N241 1.427 . S
C234 H225 0.930 . S
C234 C232 1.378 . S
C234 C235 1.367 . S
C235 C234 1.367 . S
C235 C237 1.433 . S
C236 C232 1.350 . S
C236 C233 1.463 . S
C236 N240 1.427 . S
C237 H227 0.929 . S
C237 C235 1.433 . S
C237 N240 1.384 . S
C238 H229 0.929 . S
C238 C230 1.378 . S
C238 C233 1.350 . S
C239 H226 0.929 . S
C239 C231 1.433 . S
C239 N241 1.384 . S
N240 C236 1.427 . S
N240 C237 1.384 . S
N241 C233 1.427 . S
N241 C239 1.384 . S
H242 C248 0.930 . S
H243 C252 0.930 . S
H244 C257 0.929 . S
H245 C255 0.929 . S
H246 C250 0.929 . S
H247 C256 0.929 . S
C248 H242 0.930 . S
C248 C249 1.367 . S
C248 C256 1.378 . S
C249 C248 1.367 . S
C249 C257 1.433 . S
C250 H246 0.929 . S
C250 C252 1.378 . S
C250 C254 1.350 . S
C251 C254 1.463 . S
C251 C256 1.350 . S
C251 N259 1.427 . S
C252 H243 0.930 . S
C252 C250 1.378 . S
C252 C253 1.367 . S
C253 C252 1.367 . S
C253 C255 1.433 . S
C254 C250 1.350 . S
C254 C251 1.463 . S
C254 N258 1.427 . S
C255 H245 0.929 . S
C255 C253 1.433 . S
C255 N258 1.384 . S
C256 H247 0.929 . S
C256 C248 1.378 . S
C256 C251 1.350 . S
C257 H244 0.929 . S
C257 C249 1.433 . S
C257 N259 1.384 . S
N258 C254 1.427 . S
N258 C255 1.384 . S
N259 C251 1.427 . S
N259 C257 1.384 . S
H260 C266 0.930 . S
H261 C270 0.930 . S
H262 C275 0.929 . S
H263 C273 0.929 . S
H264 C268 0.929 . S
H265 C274 0.929 . S
C266 H260 0.930 . S
C266 C267 1.367 . S
C266 C274 1.378 . S
C267 C266 1.367 . S
C267 C275 1.433 . S
C268 H264 0.929 . S
C268 C270 1.378 . S
C268 C272 1.350 . S
C269 C272 1.463 . S
C269 C274 1.350 . S
C269 N277 1.427 . S
C270 H261 0.930 . S
C270 C268 1.378 . S
C270 C271 1.367 . S
C271 C270 1.367 . S
C271 C273 1.433 . S
C272 C268 1.350 . S
C272 C269 1.463 . S
C272 N276 1.427 . S
C273 H263 0.929 . S
C273 C271 1.433 . S
C273 N276 1.384 . S
C274 H265 0.929 . S
C274 C266 1.378 . S
C274 C269 1.350 . S
C275 H262 0.929 . S
C275 C267 1.433 . S
C275 N277 1.384 . S
N276 C272 1.427 . S
N276 C273 1.384 . S
N277 C269 1.427 . S
N277 C275 1.384 . S
H278 C284 0.930 . S
H279 C288 0.930 . S
H280 C293 0.929 . S
H281 C291 0.929 . S
H282 C286 0.929 . S
H283 C292 0.929 . S
C284 H278 0.930 . S
C284 C285 1.367 . S
C284 C292 1.378 . S
C285 C284 1.367 . S
C285 C293 1.433 . S
C286 H282 0.929 . S
C286 C288 1.378 . S
C286 C290 1.350 . S
C287 C290 1.463 . S
C287 C292 1.350 . S
C287 N295 1.427 . S
C288 H279 0.930 . S
C288 C286 1.378 . S
C288 C289 1.367 . S
C289 C288 1.367 . S
C289 C291 1.433 . S
C290 C286 1.350 . S
C290 C287 1.463 . S
C290 N294 1.427 . S
C291 H281 0.929 . S
C291 C289 1.433 . S
C291 N294 1.384 . S
C292 H283 0.929 . S
C292 C284 1.378 . S
C292 C287 1.350 . S
C293 H280 0.929 . S
C293 C285 1.433 . S
C293 N295 1.384 . S
N294 C290 1.427 . S
N294 C291 1.384 . S
N295 C287 1.427 . S
N295 C293 1.384 . S
H296 C302 0.930 . S
H297 C306 0.930 . S
H298 C311 0.929 . S
H299 C309 0.929 . S
H300 C304 0.929 . S
H301 C310 0.929 . S
C302 H296 0.930 . S
C302 C303 1.367 . S
C302 C310 1.378 . S
C303 C302 1.367 . S
C303 C311 1.433 . S
C304 H300 0.929 . S
C304 C306 1.378 . S
C304 C308 1.350 . S
C305 C308 1.463 . S
C305 C310 1.350 . S
C305 N313 1.427 . S
C306 H297 0.930 . S
C306 C304 1.378 . S
C306 C307 1.367 . S
C307 C306 1.367 . S
C307 C309 1.433 . S
C308 C304 1.350 . S
C308 C305 1.463 . S
C308 N312 1.427 . S
C309 H299 0.929 . S
C309 C307 1.433 . S
C309 N312 1.384 . S
C310 H301 0.929 . S
C310 C302 1.378 . S
C310 C305 1.350 . S
C311 H298 0.929 . S
C311 C303 1.433 . S
C311 N313 1.384 . S
N312 C308 1.427 . S
N312 C309 1.384 . S
N313 C305 1.427 . S
N313 C311 1.384 . S
H314 C320 0.930 . S
H315 C324 0.930 . S
H316 C329 0.929 . S
H317 C327 0.929 . S
H318 C322 0.929 . S
H319 C328 0.929 . S
C320 H314 0.930 . S
C320 C321 1.367 . S
C320 C328 1.378 . S
C321 C320 1.367 . S
C321 C329 1.433 . S
C322 H318 0.929 . S
C322 C324 1.378 . S
C322 C326 1.350 . S
C323 C326 1.463 . S
C323 C328 1.350 . S
C323 N331 1.427 . S
C324 H315 0.930 . S
C324 C322 1.378 . S
C324 C325 1.367 . S
C325 C324 1.367 . S
C325 C327 1.433 . S
C326 C322 1.350 . S
C326 C323 1.463 . S
C326 N330 1.427 . S
C327 H317 0.929 . S
C327 C325 1.433 . S
C327 N330 1.384 . S
C328 H319 0.929 . S
C328 C320 1.378 . S
C328 C323 1.350 . S
C329 H316 0.929 . S
C329 C321 1.433 . S
C329 N331 1.384 . S
N330 C326 1.427 . S
N330 C327 1.384 . S
N331 C323 1.427 . S
N331 C329 1.384 . S
H332 C338 0.930 . S
H333 C342 0.930 . S
H334 C347 0.929 . S
H335 C345 0.929 . S
H336 C340 0.929 . S
H337 C346 0.929 . S
C338 H332 0.930 . S
C338 C339 1.367 . S
C338 C346 1.378 . S
C339 C338 1.367 . S
C339 C347 1.433 . S
C340 H336 0.929 . S
C340 C342 1.378 . S
C340 C344 1.350 . S
C341 C344 1.463 . S
C341 C346 1.350 . S
C341 N349 1.427 . S
C342 H333 0.930 . S
C342 C340 1.378 . S
C342 C343 1.367 . S
C343 C342 1.367 . S
C343 C345 1.433 . S
C344 C340 1.350 . S
C344 C341 1.463 . S
C344 N348 1.427 . S
C345 H335 0.929 . S
C345 C343 1.433 . S
C345 N348 1.384 . S
C346 H337 0.929 . S
C346 C338 1.378 . S
C346 C341 1.350 . S
C347 H334 0.929 . S
C347 C339 1.433 . S
C347 N349 1.384 . S
N348 C344 1.427 . S
N348 C345 1.384 . S
N349 C341 1.427 . S
N349 C347 1.384 . S
H350 C356 0.930 . S
H351 C360 0.930 . S
H352 C365 0.929 . S
H353 C363 0.929 . S
H354 C358 0.929 . S
H355 C364 0.929 . S
C356 H350 0.930 . S
C356 C357 1.367 . S
C356 C364 1.378 . S
C357 C356 1.367 . S
C357 C365 1.433 . S
C358 H354 0.929 . S
C358 C360 1.378 . S
C358 C362 1.350 . S
C359 C362 1.463 . S
C359 C364 1.350 . S
C359 N367 1.427 . S
C360 H351 0.930 . S
C360 C358 1.378 . S
C360 C361 1.367 . S
C361 C360 1.367 . S
C361 C363 1.433 . S
C362 C358 1.350 . S
C362 C359 1.463 . S
C362 N366 1.427 . S
C363 H353 0.929 . S
C363 C361 1.433 . S
C363 N366 1.384 . S
C364 H355 0.929 . S
C364 C356 1.378 . S
C364 C359 1.350 . S
C365 H352 0.929 . S
C365 C357 1.433 . S
C365 N367 1.384 . S
N366 C362 1.427 . S
N366 C363 1.384 . S
N367 C359 1.427 . S
N367 C365 1.384 . S
H368 C374 0.930 . S
H369 C378 0.930 . S
H370 C383 0.929 . S
H371 C381 0.929 . S
H372 C376 0.929 . S
H373 C382 0.929 . S
C374 H368 0.930 . S
C374 C375 1.367 . S
C374 C382 1.378 . S
C375 C374 1.367 . S
C375 C383 1.433 . S
C376 H372 0.929 . S
C376 C378 1.378 . S
C376 C380 1.350 . S
C377 C380 1.463 1_556 S
C377 C382 1.350 . S
C377 N385 1.427 . S
C378 H369 0.930 . S
C378 C376 1.378 . S
C378 C379 1.367 . S
C379 C378 1.367 . S
C379 C381 1.433 . S
C380 C376 1.350 . S
C380 C377 1.463 1_554 S
C380 N384 1.427 . S
C381 H371 0.929 . S
C381 C379 1.433 . S
C381 N384 1.384 . S
C382 H373 0.929 . S
C382 C374 1.378 . S
C382 C377 1.350 . S
C383 H370 0.929 . S
C383 C375 1.433 . S
C383 N385 1.384 . S
N384 C380 1.427 . S
N384 C381 1.384 . S
N385 C377 1.427 . S
N385 C383 1.384 . S
H386 C392 0.930 . S
H387 C396 0.930 . S
H388 C401 0.929 . S
H389 C399 0.929 . S
H390 C394 0.929 . S
H391 C400 0.929 . S
C392 H386 0.930 . S
C392 C393 1.367 . S
C392 C400 1.378 . S
C393 C392 1.367 . S
C393 C401 1.433 . S
C394 H390 0.929 . S
C394 C396 1.378 . S
C394 C398 1.350 . S
C395 C398 1.463 1_556 S
C395 C400 1.350 . S
C395 N403 1.427 . S
C396 H387 0.930 . S
C396 C394 1.378 . S
C396 C397 1.367 . S
C397 C396 1.367 . S
C397 C399 1.433 . S
C398 C394 1.350 . S
C398 C395 1.463 1_554 S
C398 N402 1.427 . S
C399 H389 0.929 . S
C399 C397 1.433 . S
C399 N402 1.384 . S
C400 H391 0.929 . S
C400 C392 1.378 . S
C400 C395 1.350 . S
C401 H388 0.929 . S
C401 C393 1.433 . S
C401 N403 1.384 . S
N402 C398 1.427 . S
N402 C399 1.384 . S
N403 C395 1.427 . S
N403 C401 1.384 . S
H404 C410 0.930 . S
H405 C414 0.930 . S
H406 C419 0.929 . S
H407 C417 0.929 . S
H408 C412 0.929 . S
H409 C418 0.929 . S
C410 H404 0.930 . S
C410 C411 1.367 . S
C410 C418 1.378 . S
C411 C410 1.367 . S
C411 C419 1.433 . S
C412 H408 0.929 . S
C412 C414 1.378 . S
C412 C416 1.350 . S
C413 C416 1.463 1_556 S
C413 C418 1.350 . S
C413 N421 1.427 . S
C414 H405 0.930 . S
C414 C412 1.378 . S
C414 C415 1.367 . S
C415 C414 1.367 . S
C415 C417 1.433 . S
C416 C412 1.350 . S
C416 C413 1.463 1_554 S
C416 N420 1.427 . S
C417 H407 0.929 . S
C417 C415 1.433 . S
C417 N420 1.384 . S
C418 H409 0.929 . S
C418 C410 1.378 . S
C418 C413 1.350 . S
C419 H406 0.929 . S
C419 C411 1.433 . S
C419 N421 1.384 . S
N420 C416 1.427 . S
N420 C417 1.384 . S
N421 C413 1.427 . S
N421 C419 1.384 . S
H422 C428 0.930 . S
H423 C432 0.930 . S
H424 C437 0.929 . S
H425 C435 0.929 . S
H426 C430 0.929 . S
H427 C436 0.929 . S
C428 H422 0.930 . S
C428 C429 1.367 . S
C428 C436 1.378 . S
C429 C428 1.367 . S
C429 C437 1.433 . S
C430 H426 0.929 . S
C430 C432 1.378 . S
C430 C434 1.350 . S
C431 C434 1.463 1_554 S
C431 C436 1.350 . S
C431 N439 1.427 . S
C432 H423 0.930 . S
C432 C430 1.378 . S
C432 C433 1.367 . S
C433 C432 1.367 . S
C433 C435 1.433 . S
C434 C430 1.350 . S
C434 C431 1.463 1_556 S
C434 N438 1.427 . S
C435 H425 0.929 . S
C435 C433 1.433 . S
C435 N438 1.384 . S
C436 H427 0.929 . S
C436 C428 1.378 . S
C436 C431 1.350 . S
C437 H424 0.929 . S
C437 C429 1.433 . S
C437 N439 1.384 . S
N438 C434 1.427 . S
N438 C435 1.384 . S
N439 C431 1.427 . S
N439 C437 1.384 . S
H440 C446 0.930 . S
H441 C450 0.930 . S
H442 C455 0.929 . S
H443 C453 0.929 . S
H444 C448 0.929 . S
H445 C454 0.929 . S
C446 H440 0.930 . S
C446 C447 1.367 . S
C446 C454 1.378 . S
C447 C446 1.367 . S
C447 C455 1.433 . S
C448 H444 0.929 . S
C448 C450 1.378 . S
C448 C452 1.350 . S
C449 C452 1.463 . S
C449 C454 1.350 . S
C449 N457 1.427 . S
C450 H441 0.930 . S
C450 C448 1.378 . S
C450 C451 1.367 . S
C451 C450 1.367 . S
C451 C453 1.433 . S
C452 C448 1.350 . S
C452 C449 1.463 . S
C452 N456 1.427 . S
C453 H443 0.929 . S
C453 C451 1.433 . S
C453 N456 1.384 . S
C454 H445 0.929 . S
C454 C446 1.378 . S
C454 C449 1.350 . S
C455 H442 0.929 . S
C455 C447 1.433 . S
C455 N457 1.384 . S
N456 C452 1.427 . S
N456 C453 1.384 . S
N457 C449 1.427 . S
N457 C455 1.384 . S
H458 C464 0.930 . S
H459 C468 0.930 . S
H460 C473 0.929 . S
H461 C471 0.929 . S
H462 C466 0.929 . S
H463 C472 0.929 . S
C464 H458 0.930 . S
C464 C465 1.367 . S
C464 C472 1.378 . S
C465 C464 1.367 . S
C465 C473 1.433 . S
C466 H462 0.929 . S
C466 C468 1.378 . S
C466 C470 1.350 . S
C467 C470 1.463 . S
C467 C472 1.350 . S
C467 N475 1.427 . S
C468 H459 0.930 . S
C468 C466 1.378 . S
C468 C469 1.367 . S
C469 C468 1.367 . S
C469 C471 1.433 . S
C470 C466 1.350 . S
C470 C467 1.463 . S
C470 N474 1.427 . S
C471 H461 0.929 . S
C471 C469 1.433 . S
C471 N474 1.384 . S
C472 H463 0.929 . S
C472 C464 1.378 . S
C472 C467 1.350 . S
C473 H460 0.929 . S
C473 C465 1.433 . S
C473 N475 1.384 . S
N474 C470 1.427 . S
N474 C471 1.384 . S
N475 C467 1.427 . S
N475 C473 1.384 . S
H476 C482 0.930 . S
H477 C486 0.930 . S
H478 C491 0.929 . S
H479 C489 0.929 . S
H480 C484 0.929 . S
H481 C490 0.929 . S
C482 H476 0.930 . S
C482 C483 1.367 . S
C482 C490 1.378 . S
C483 C482 1.367 . S
C483 C491 1.433 . S
C484 H480 0.929 . S
C484 C486 1.378 . S
C484 C488 1.350 . S
C485 C488 1.463 . S
C485 C490 1.350 . S
C485 N493 1.427 . S
C486 H477 0.930 . S
C486 C484 1.378 . S
C486 C487 1.367 . S
C487 C486 1.367 . S
C487 C489 1.433 . S
C488 C484 1.350 . S
C488 C485 1.463 . S
C488 N492 1.427 . S
C489 H479 0.929 . S
C489 C487 1.433 . S
C489 N492 1.384 . S
C490 H481 0.929 . S
C490 C482 1.378 . S
C490 C485 1.350 . S
C491 H478 0.929 . S
C491 C483 1.433 . S
C491 N493 1.384 . S
N492 C488 1.427 . S
N492 C489 1.384 . S
N493 C485 1.427 . S
N493 C491 1.384 . S
H494 C500 0.930 . S
H495 C504 0.930 . S
H496 C509 0.929 . S
H497 C507 0.929 . S
H498 C502 0.929 . S
H499 C508 0.929 . S
C500 H494 0.930 . S
C500 C501 1.367 . S
C500 C508 1.378 . S
C501 C500 1.367 . S
C501 C509 1.433 . S
C502 H498 0.929 . S
C502 C504 1.378 . S
C502 C506 1.350 . S
C503 C506 1.463 . S
C503 C508 1.350 . S
C503 N511 1.427 . S
C504 H495 0.930 . S
C504 C502 1.378 . S
C504 C505 1.367 . S
C505 C504 1.367 . S
C505 C507 1.433 . S
C506 C502 1.350 . S
C506 C503 1.463 . S
C506 N510 1.427 . S
C507 H497 0.929 . S
C507 C505 1.433 . S
C507 N510 1.384 . S
C508 H499 0.929 . S
C508 C500 1.378 . S
C508 C503 1.350 . S
C509 H496 0.929 . S
C509 C501 1.433 . S
C509 N511 1.384 . S
N510 C506 1.427 . S
N510 C507 1.384 . S
N511 C503 1.427 . S
N511 C509 1.384 . S
H512 C518 0.930 . S
H513 C522 0.930 . S
H514 C527 0.929 . S
H515 C525 0.929 . S
H516 C520 0.929 . S
H517 C526 0.929 . S
C518 H512 0.930 . S
C518 C519 1.367 . S
C518 C526 1.378 . S
C519 C518 1.367 . S
C519 C527 1.433 . S
C520 H516 0.929 . S
C520 C522 1.378 . S
C520 C524 1.350 . S
C521 C524 1.463 . S
C521 C526 1.350 . S
C521 N529 1.427 . S
C522 H513 0.930 . S
C522 C520 1.378 . S
C522 C523 1.367 . S
C523 C522 1.367 . S
C523 C525 1.433 . S
C524 C520 1.350 . S
C524 C521 1.463 . S
C524 N528 1.427 . S
C525 H515 0.929 . S
C525 C523 1.433 . S
C525 N528 1.384 . S
C526 H517 0.929 . S
C526 C518 1.378 . S
C526 C521 1.350 . S
C527 H514 0.929 . S
C527 C519 1.433 . S
C527 N529 1.384 . S
N528 C524 1.427 . S
N528 C525 1.384 . S
N529 C521 1.427 . S
N529 C527 1.384 . S
H530 C536 0.930 . S
H531 C540 0.930 . S
H532 C545 0.929 . S
H533 C543 0.929 . S
H534 C538 0.929 . S
H535 C544 0.929 . S
C536 H530 0.930 . S
C536 C537 1.367 . S
C536 C544 1.378 . S
C537 C536 1.367 . S
C537 C545 1.433 . S
C538 H534 0.929 . S
C538 C540 1.378 . S
C538 C542 1.350 . S
C539 C542 1.463 . S
C539 C544 1.350 . S
C539 N547 1.427 . S
C540 H531 0.930 . S
C540 C538 1.378 . S
C540 C541 1.367 . S
C541 C540 1.367 . S
C541 C543 1.433 . S
C542 C538 1.350 . S
C542 C539 1.463 . S
C542 N546 1.427 . S
C543 H533 0.929 . S
C543 C541 1.433 . S
C543 N546 1.384 . S
C544 H535 0.929 . S
C544 C536 1.378 . S
C544 C539 1.350 . S
C545 H532 0.929 . S
C545 C537 1.433 . S
C545 N547 1.384 . S
N546 C542 1.427 . S
N546 C543 1.384 . S
N547 C539 1.427 . S
N547 C545 1.384 . S
H548 C554 0.930 . S
H549 C558 0.930 . S
H550 C563 0.929 . S
H551 C561 0.929 . S
H552 C556 0.929 . S
H553 C562 0.929 . S
C554 H548 0.930 . S
C554 C555 1.367 . S
C554 C562 1.378 . S
C555 C554 1.367 . S
C555 C563 1.433 . S
C556 H552 0.929 . S
C556 C558 1.378 . S
C556 C560 1.350 . S
C557 C560 1.463 . S
C557 C562 1.350 . S
C557 N565 1.427 . S
C558 H549 0.930 . S
C558 C556 1.378 . S
C558 C559 1.367 . S
C559 C558 1.367 . S
C559 C561 1.433 . S
C560 C556 1.350 . S
C560 C557 1.463 . S
C560 N564 1.427 . S
C561 H551 0.929 . S
C561 C559 1.433 . S
C561 N564 1.384 . S
C562 H553 0.929 . S
C562 C554 1.378 . S
C562 C557 1.350 . S
C563 H550 0.929 . S
C563 C555 1.433 . S
C563 N565 1.384 . S
N564 C560 1.427 . S
N564 C561 1.384 . S
N565 C557 1.427 . S
N565 C563 1.384 . S
H566 C572 0.930 . S
H567 C576 0.930 . S
H568 C581 0.929 . S
H569 C579 0.929 . S
H570 C574 0.929 . S
H571 C580 0.929 . S
C572 H566 0.930 . S
C572 C573 1.367 . S
C572 C580 1.378 . S
C573 C572 1.367 . S
C573 C581 1.433 . S
C574 H570 0.929 . S
C574 C576 1.378 . S
C574 C578 1.350 . S
C575 C578 1.463 . S
C575 C580 1.350 . S
C575 N583 1.427 . S
C576 H567 0.930 . S
C576 C574 1.378 . S
C576 C577 1.367 . S
C577 C576 1.367 . S
C577 C579 1.433 . S
C578 C574 1.350 . S
C578 C575 1.463 . S
C578 N582 1.427 . S
C579 H569 0.929 . S
C579 C577 1.433 . S
C579 N582 1.384 . S
C580 H571 0.929 . S
C580 C572 1.378 . S
C580 C575 1.350 . S
C581 H568 0.929 . S
C581 C573 1.433 . S
C581 N583 1.384 . S
N582 C578 1.427 . S
N582 C579 1.384 . S
N583 C575 1.427 . S
N583 C581 1.384 . S
H584 C590 0.930 . S
H585 C594 0.930 . S
H586 C599 0.929 . S
H587 C597 0.929 . S
H588 C592 0.929 . S
H589 C598 0.929 . S
C590 H584 0.930 . S
C590 C591 1.367 . S
C590 C598 1.378 . S
C591 C590 1.367 . S
C591 C599 1.433 . S
C592 H588 0.929 . S
C592 C594 1.378 . S
C592 C596 1.350 . S
C593 C596 1.463 . S
C593 C598 1.350 . S
C593 N601 1.427 . S
C594 H585 0.930 . S
C594 C592 1.378 . S
C594 C595 1.367 . S
C595 C594 1.367 . S
C595 C597 1.433 . S
C596 C592 1.350 . S
C596 C593 1.463 . S
C596 N600 1.427 . S
C597 H587 0.929 . S
C597 C595 1.433 . S
C597 N600 1.384 . S
C598 H589 0.929 . S
C598 C590 1.378 . S
C598 C593 1.350 . S
C599 H586 0.929 . S
C599 C591 1.433 . S
C599 N601 1.384 . S
N600 C596 1.427 . S
N600 C597 1.384 . S
N601 C593 1.427 . S
N601 C599 1.384 . S
H602 C608 0.930 . S
H603 C612 0.930 . S
H604 C617 0.929 . S
H605 C615 0.929 . S
H606 C610 0.929 . S
H607 C616 0.929 . S
C608 H602 0.930 . S
C608 C609 1.367 . S
C608 C616 1.378 . S
C609 C608 1.367 . S
C609 C617 1.433 . S
C610 H606 0.929 . S
C610 C612 1.378 . S
C610 C614 1.350 . S
C611 C614 1.463 . S
C611 C616 1.350 . S
C611 N619 1.427 . S
C612 H603 0.930 . S
C612 C610 1.378 . S
C612 C613 1.367 . S
C613 C612 1.367 . S
C613 C615 1.433 . S
C614 C610 1.350 . S
C614 C611 1.463 . S
C614 N618 1.427 . S
C615 H605 0.929 . S
C615 C613 1.433 . S
C615 N618 1.384 . S
C616 H607 0.929 . S
C616 C608 1.378 . S
C616 C611 1.350 . S
C617 H604 0.929 . S
C617 C609 1.433 . S
C617 N619 1.384 . S
N618 C614 1.427 . S
N618 C615 1.384 . S
N619 C611 1.427 . S
N619 C617 1.384 . S
H620 C626 0.930 . S
H621 C630 0.930 . S
H622 C635 0.929 . S
H623 C633 0.929 . S
H624 C628 0.929 . S
H625 C634 0.929 . S
C626 H620 0.930 . S
C626 C627 1.367 . S
C626 C634 1.378 . S
C627 C626 1.367 . S
C627 C635 1.433 . S
C628 H624 0.929 . S
C628 C630 1.378 . S
C628 C632 1.350 . S
C629 C632 1.463 . S
C629 C634 1.350 . S
C629 N637 1.427 . S
C630 H621 0.930 . S
C630 C628 1.378 . S
C630 C631 1.367 . S
C631 C630 1.367 . S
C631 C633 1.433 . S
C632 C628 1.350 . S
C632 C629 1.463 . S
C632 N636 1.427 . S
C633 H623 0.929 . S
C633 C631 1.433 . S
C633 N636 1.384 . S
C634 H625 0.929 . S
C634 C626 1.378 . S
C634 C629 1.350 . S
C635 H622 0.929 . S
C635 C627 1.433 . S
C635 N637 1.384 . S
N636 C632 1.427 . S
N636 C633 1.384 . S
N637 C629 1.427 . S
N637 C635 1.384 . S
H638 C644 0.930 . S
H639 C648 0.930 . S
H640 C653 0.929 . S
H641 C651 0.929 . S
H642 C646 0.929 . S
H643 C652 0.929 . S
C644 H638 0.930 . S
C644 C645 1.367 . S
C644 C652 1.378 . S
C645 C644 1.367 . S
C645 C653 1.433 . S
C646 H642 0.929 . S
C646 C648 1.378 . S
C646 C650 1.350 . S
C647 C650 1.463 . S
C647 C652 1.350 . S
C647 N655 1.427 . S
C648 H639 0.930 . S
C648 C646 1.378 . S
C648 C649 1.367 . S
C649 C648 1.367 . S
C649 C651 1.433 . S
C650 C646 1.350 . S
C650 C647 1.463 . S
C650 N654 1.427 . S
C651 H641 0.929 . S
C651 C649 1.433 . S
C651 N654 1.384 . S
C652 H643 0.929 . S
C652 C644 1.378 . S
C652 C647 1.350 . S
C653 H640 0.929 . S
C653 C645 1.433 . S
C653 N655 1.384 . S
N654 C650 1.427 . S
N654 C651 1.384 . S
N655 C647 1.427 . S
N655 C653 1.384 . S
H656 C662 0.930 . S
H657 C666 0.930 . S
H658 C671 0.929 . S
H659 C669 0.929 . S
H660 C664 0.929 . S
H661 C670 0.929 . S
C662 H656 0.930 . S
C662 C663 1.367 . S
C662 C670 1.378 . S
C663 C662 1.367 . S
C663 C671 1.433 . S
C664 H660 0.929 . S
C664 C666 1.378 . S
C664 C668 1.350 . S
C665 C668 1.463 1_545 S
C665 C670 1.350 . S
C665 N673 1.427 . S
C666 H657 0.930 . S
C666 C664 1.378 . S
C666 C667 1.367 . S
C667 C666 1.367 . S
C667 C669 1.433 . S
C668 C664 1.350 . S
C668 C665 1.463 1_565 S
C668 N672 1.427 . S
C669 H659 0.929 . S
C669 C667 1.433 . S
C669 N672 1.384 . S
C670 H661 0.929 . S
C670 C662 1.378 . S
C670 C665 1.350 . S
C671 H658 0.929 . S
C671 C663 1.433 . S
C671 N673 1.384 . S
N672 C668 1.427 . S
N672 C669 1.384 . S
N673 C665 1.427 . S
N673 C671 1.384 . S
H674 C680 0.930 . S
H675 C684 0.930 . S
H676 C689 0.929 . S
H677 C687 0.929 . S
H678 C682 0.929 . S
H679 C688 0.929 . S
C680 H674 0.930 . S
C680 C681 1.367 . S
C680 C688 1.378 . S
C681 C680 1.367 . S
C681 C689 1.433 . S
C682 H678 0.929 . S
C682 C684 1.378 . S
C682 C686 1.350 . S
C683 C686 1.463 1_655 S
C683 C688 1.350 . S
C683 N691 1.427 . S
C684 H675 0.930 . S
C684 C682 1.378 . S
C684 C685 1.367 . S
C685 C684 1.367 . S
C685 C687 1.433 . S
C686 C682 1.350 . S
C686 C683 1.463 1_455 S
C686 N690 1.427 . S
C687 H677 0.929 . S
C687 C685 1.433 . S
C687 N690 1.384 . S
C688 H679 0.929 . S
C688 C680 1.378 . S
C688 C683 1.350 . S
C689 H676 0.929 . S
C689 C681 1.433 . S
C689 N691 1.384 . S
N690 C686 1.427 . S
N690 C687 1.384 . S
N691 C683 1.427 . S
N691 C689 1.384 . S
H692 C698 0.930 . S
H693 C702 0.930 . S
H694 C707 0.929 . S
H695 C705 0.929 . S
H696 C700 0.929 . S
H697 C706 0.929 . S
C698 H692 0.930 . S
C698 C699 1.367 . S
C698 C706 1.378 . S
C699 C698 1.367 . S
C699 C707 1.433 . S
C700 H696 0.929 . S
C700 C702 1.378 . S
C700 C704 1.350 . S
C701 C704 1.463 1_545 S
C701 C706 1.350 . S
C701 N709 1.427 . S
C702 H693 0.930 . S
C702 C700 1.378 . S
C702 C703 1.367 . S
C703 C702 1.367 . S
C703 C705 1.433 . S
C704 C700 1.350 . S
C704 C701 1.463 1_565 S
C704 N708 1.427 . S
C705 H695 0.929 . S
C705 C703 1.433 . S
C705 N708 1.384 . S
C706 H697 0.929 . S
C706 C698 1.378 . S
C706 C701 1.350 . S
C707 H694 0.929 . S
C707 C699 1.433 . S
C707 N709 1.384 . S
N708 C704 1.427 . S
N708 C705 1.384 . S
N709 C701 1.427 . S
N709 C707 1.384 . S
H710 C716 0.930 . S
H711 C720 0.930 . S
H712 C725 0.929 . S
H713 C723 0.929 . S
H714 C718 0.929 . S
H715 C724 0.929 . S
C716 H710 0.930 . S
C716 C717 1.367 . S
C716 C724 1.378 . S
C717 C716 1.367 . S
C717 C725 1.433 . S
C718 H714 0.929 . S
C718 C720 1.378 . S
C718 C722 1.350 . S
C719 C722 1.463 1_455 S
C719 C724 1.350 . S
C719 N727 1.427 . S
C720 H711 0.930 . S
C720 C718 1.378 . S
C720 C721 1.367 . S
C721 C720 1.367 . S
C721 C723 1.433 . S
C722 C718 1.350 . S
C722 C719 1.463 1_655 S
C722 N726 1.427 . S
C723 H713 0.929 . S
C723 C721 1.433 . S
C723 N726 1.384 . S
C724 H715 0.929 . S
C724 C716 1.378 . S
C724 C719 1.350 . S
C725 H712 0.929 . S
C725 C717 1.433 . S
C725 N727 1.384 . S
N726 C722 1.427 . S
N726 C723 1.384 . S
N727 C719 1.427 . S
N727 C725 1.384 . S
H728 C734 0.930 . S
H729 C738 0.930 . S
H730 C743 0.929 . S
H731 C741 0.929 . S
H732 C736 0.929 . S
H733 C742 0.929 . S
C734 H728 0.930 . S
C734 C735 1.367 . S
C734 C742 1.378 . S
C735 C734 1.367 . S
C735 C743 1.433 . S
C736 H732 0.929 . S
C736 C738 1.378 . S
C736 C740 1.350 . S
C737 C740 1.463 1_545 S
C737 C742 1.350 . S
C737 N745 1.427 . S
C738 H729 0.930 . S
C738 C736 1.378 . S
C738 C739 1.367 . S
C739 C738 1.367 . S
C739 C741 1.433 . S
C740 C736 1.350 . S
C740 C737 1.463 1_565 S
C740 N744 1.427 . S
C741 H731 0.929 . S
C741 C739 1.433 . S
C741 N744 1.384 . S
C742 H733 0.929 . S
C742 C734 1.378 . S
C742 C737 1.350 . S
C743 H730 0.929 . S
C743 C735 1.433 . S
C743 N745 1.384 . S
N744 C740 1.427 . S
N744 C741 1.384 . S
N745 C737 1.427 . S
N745 C743 1.384 . S
H746 C752 0.930 . S
H747 C756 0.930 . S
H748 C761 0.929 . S
H749 C759 0.929 . S
H750 C754 0.929 . S
H751 C760 0.929 . S
C752 H746 0.930 . S
C752 C753 1.367 . S
C752 C760 1.378 . S
C753 C752 1.367 . S
C753 C761 1.433 . S
C754 H750 0.929 . S
C754 C756 1.378 . S
C754 C758 1.350 . S
C755 C758 1.463 1_655 S
C755 C760 1.350 . S
C755 N763 1.427 . S
C756 H747 0.930 . S
C756 C754 1.378 . S
C756 C757 1.367 . S
C757 C756 1.367 . S
C757 C759 1.433 . S
C758 C754 1.350 . S
C758 C755 1.463 1_455 S
C758 N762 1.427 . S
C759 H749 0.929 . S
C759 C757 1.433 . S
C759 N762 1.384 . S
C760 H751 0.929 . S
C760 C752 1.378 . S
C760 C755 1.350 . S
C761 H748 0.929 . S
C761 C753 1.433 . S
C761 N763 1.384 . S
N762 C758 1.427 . S
N762 C759 1.384 . S
N763 C755 1.427 . S
N763 C761 1.384 . S
H764 C770 0.930 . S
H765 C774 0.930 . S
H766 C779 0.929 . S
H767 C777 0.929 . S
H768 C772 0.929 . S
H769 C778 0.929 . S
C770 H764 0.930 . S
C770 C771 1.367 . S
C770 C778 1.378 . S
C771 C770 1.367 . S
C771 C779 1.433 . S
C772 H768 0.929 . S
C772 C774 1.378 . S
C772 C776 1.350 . S
C773 C776 1.463 1_565 S
C773 C778 1.350 . S
C773 N781 1.427 . S
C774 H765 0.930 . S
C774 C772 1.378 . S
C774 C775 1.367 . S
C775 C774 1.367 . S
C775 C777 1.433 . S
C776 C772 1.350 . S
C776 C773 1.463 1_545 S
C776 N780 1.427 . S
C777 H767 0.929 . S
C777 C775 1.433 . S
C777 N780 1.384 . S
C778 H769 0.929 . S
C778 C770 1.378 . S
C778 C773 1.350 . S
C779 H766 0.929 . S
C779 C771 1.433 . S
C779 N781 1.384 . S
N780 C776 1.427 . S
N780 C777 1.384 . S
N781 C773 1.427 . S
N781 C779 1.384 . S
H782 C788 0.930 . S
H783 C792 0.930 . S
H784 C797 0.929 . S
H785 C795 0.929 . S
H786 C790 0.929 . S
H787 C796 0.929 . S
C788 H782 0.930 . S
C788 C789 1.367 . S
C788 C796 1.378 . S
C789 C788 1.367 . S
C789 C797 1.433 . S
C790 H786 0.929 . S
C790 C792 1.378 . S
C790 C794 1.350 . S
C791 C794 1.463 1_455 S
C791 C796 1.350 . S
C791 N799 1.427 . S
C792 H783 0.930 . S
C792 C790 1.378 . S
C792 C793 1.367 . S
C793 C792 1.367 . S
C793 C795 1.433 . S
C794 C790 1.350 . S
C794 C791 1.463 1_655 S
C794 N798 1.427 . S
C795 H785 0.929 . S
C795 C793 1.433 . S
C795 N798 1.384 . S
C796 H787 0.929 . S
C796 C788 1.378 . S
C796 C791 1.350 . S
C797 H784 0.929 . S
C797 C789 1.433 . S
C797 N799 1.384 . S
N798 C794 1.427 . S
N798 C795 1.384 . S
N799 C791 1.427 . S
N799 C797 1.384 . S
C231 C78 1.431 . S
C235 C8 1.430 . S
C249 C92 1.426 . S
C253 C22 1.425 . S
C267 C36 1.429 . S
C271 C106 1.425 . S
C285 C50 1.428 . S
C289 C64 1.432 . S
C303 C190 1.431 . S
C307 C120 1.426 . S
C321 C204 1.429 . S
C325 C134 1.432 . S
C339 C148 1.427 . S
C343 C218 1.425 . S
C357 C162 1.430 . S
C361 C176 1.432 . S
C375 C147 1.498 . S
C379 C7 1.485 . S
C393 C161 1.489 . S
C397 C21 1.489 . S
C411 C119 1.484 . S
C415 C35 1.497 . S
C429 C49 1.484 . S
C433 C133 1.498 . S
C447 C203 1.498 . S
C451 C63 1.486 . S
C465 C217 1.490 . S
C469 C77 1.488 . S
C483 C91 1.489 . S
C487 C175 1.490 . S
C501 C189 1.487 . S
C505 C105 1.492 . S
C519 C65 1.880 . S
C523 C9 1.877 . S
C537 C23 1.880 . S
C541 C79 1.877 . S
C555 C37 1.877 . S
C559 C93 1.881 . S
C573 C107 1.881 . S
C577 C51 1.877 . S
C591 C115 0.962 . S
C595 C171 0.965 . S
C609 C185 0.966 . S
C613 C129 0.959 . S
C627 C143 0.963 . S
C631 C199 0.964 . S
C645 C213 0.965 . S
C649 C157 0.962 . S
C663 C163 1.879 . S
C667 C191 1.878 . S
C681 C121 1.876 . S
C685 C205 1.881 . S
C699 C219 1.880 . S
C703 C135 1.877 . S
C717 C149 1.881 . S
C721 C177 1.877 . S
C735 C73 0.963 . S
C739 C45 0.964 . S
C753 C87 0.958 . S
C757 C3 0.966 . S
C771 C101 0.966 . S
C775 C17 0.957 . S
C789 C59 0.965 . S
C793 C31 0.963 . S
