# Generated by pormake.
# Topology sni, (6)-cn, num edge types: 1
# Building blocks:
#     Node 0, Type 0, BuildingBlock: IZENUY_clean_sbu_0, # of connection points: 6
#     Node 1, Type 0, BuildingBlock: IZENUY_clean_sbu_0, # of connection points: 6
#     Node 2, Type 0, BuildingBlock: IZENUY_clean_sbu_0, # of connection points: 6
#     Node 3, Type 0, BuildingBlock: IZENUY_clean_sbu_0, # of connection points: 6
#     Node 4, Type 0, BuildingBlock: IZENUY_clean_sbu_0, # of connection points: 6
#     Node 5, Type 0, BuildingBlock: IZENUY_clean_sbu_0, # of connection points: 6
#     Node 6, Type 0, BuildingBlock: IZENUY_clean_sbu_0, # of connection points: 6
#     Node 7, Type 0, BuildingBlock: IZENUY_clean_sbu_0, # of connection points: 6
#     Edge 8, Type (0, 0), BuildingBlock: ZUJKAS_clean_linker_0, # of connection points: 2
#     Edge 9, Type (0, 0), BuildingBlock: ZUJKAS_clean_linker_0, # of connection points: 2
#     Edge 10, Type (0, 0), BuildingBlock: ZUJKAS_clean_linker_0, # of connection points: 2
#     Edge 11, Type (0, 0), BuildingBlock: ZUJKAS_clean_linker_0, # of connection points: 2
#     Edge 12, Type (0, 0), BuildingBlock: ZUJKAS_clean_linker_0, # of connection points: 2
#     Edge 13, Type (0, 0), BuildingBlock: ZUJKAS_clean_linker_0, # of connection points: 2
#     Edge 14, Type (0, 0), BuildingBlock: ZUJKAS_clean_linker_0, # of connection points: 2
#     Edge 15, Type (0, 0), BuildingBlock: ZUJKAS_clean_linker_0, # of connection points: 2
#     Edge 16, Type (0, 0), BuildingBlock: ZUJKAS_clean_linker_0, # of connection points: 2
#     Edge 17, Type (0, 0), BuildingBlock: ZUJKAS_clean_linker_0, # of connection points: 2
#     Edge 18, Type (0, 0), BuildingBlock: ZUJKAS_clean_linker_0, # of connection points: 2
#     Edge 19, Type (0, 0), BuildingBlock: ZUJKAS_clean_linker_0, # of connection points: 2
#     Edge 20, Type (0, 0), BuildingBlock: ZUJKAS_clean_linker_0, # of connection points: 2
#     Edge 21, Type (0, 0), BuildingBlock: ZUJKAS_clean_linker_0, # of connection points: 2
#     Edge 22, Type (0, 0), BuildingBlock: ZUJKAS_clean_linker_0, # of connection points: 2
#     Edge 23, Type (0, 0), BuildingBlock: ZUJKAS_clean_linker_0, # of connection points: 2
#     Edge 24, Type (0, 0), BuildingBlock: ZUJKAS_clean_linker_0, # of connection points: 2
#     Edge 25, Type (0, 0), BuildingBlock: ZUJKAS_clean_linker_0, # of connection points: 2
#     Edge 26, Type (0, 0), BuildingBlock: ZUJKAS_clean_linker_0, # of connection points: 2
#     Edge 27, Type (0, 0), BuildingBlock: ZUJKAS_clean_linker_0, # of connection points: 2
#     Edge 28, Type (0, 0), BuildingBlock: ZUJKAS_clean_linker_0, # of connection points: 2
#     Edge 29, Type (0, 0), BuildingBlock: ZUJKAS_clean_linker_0, # of connection points: 2
#     Edge 30, Type (0, 0), BuildingBlock: ZUJKAS_clean_linker_0, # of connection points: 2
#     Edge 31, Type (0, 0), BuildingBlock: ZUJKAS_clean_linker_0, # of connection points: 2
# Relax obj value: 0.128
# Max RMSD: 0.110
# Mean RMSD: 0.110
data_MOF--net-sni--node1-IZENUY_clean_sbu_0--edge1-ZUJKAS_clean_linker_0
_symmetry_space_group_name_H-M    P1
_symmetry_Int_Tables_number       1
_symmetry_cell_setting            triclinic
loop_
_symmetry_equiv_pos_as_xyz
'x, y, z'
_cell_length_a     53.218613
_cell_length_b     53.193068
_cell_length_c     25.665089
_cell_angle_alpha  89.780467
_cell_angle_beta   89.929239
_cell_angle_gamma 89.997705
loop_
_atom_site_label
_atom_site_type_symbol
_atom_site_fract_x
_atom_site_fract_y
_atom_site_fract_z
_atom_type_partial_charge
Fe0 Fe 0.63689 0.17862 0.0026 0.0
Fe1 Fe 0.67814 0.13801 0.99781 0.0
O2 O 0.64594 0.14652 0.00125 0.0
Fe3 Fe 0.62254 0.12292 0.00325 0.0
O4 O 0.59886 0.14143 0.96858 0.0
O5 O 0.61867 0.17546 0.94293 0.0
O6 O 0.66308 0.18978 0.96222 0.0
C7 C 0.6778 0.17851 0.93139 0.0
C8 C 0.60315 0.15555 0.07407 0.0
O9 O 0.68261 0.15546 0.93749 0.0
C10 C 0.66123 0.1019 0.06562 0.0
O11 O 0.65442 0.18393 0.06202 0.0
O12 O 0.68904 0.16461 0.03737 0.0
O13 O 0.61132 0.13362 0.0661 0.0
O14 O 0.60902 0.17343 0.04365 0.0
C15 C 0.65409 0.1034 0.92984 0.0
O16 O 0.67634 0.11982 0.05804 0.0
O17 O 0.64174 0.09975 0.03791 0.0
C18 C 0.67753 0.17938 0.0679 0.0
O19 O 0.67275 0.10993 0.95742 0.0
O20 O 0.63222 0.11087 0.94064 0.0
C21 C 0.60099 0.15985 0.93759 0.0
Fe22 Fe 0.88053 0.6238 0.00025 0.0
Fe23 Fe 0.86504 0.67915 0.00348 0.0
O24 O 0.85668 0.64696 -0.0004 0.0
Fe25 Fe 0.82472 0.63777 0.9952 0.0
O26 O 0.82678 0.61888 0.05448 0.0
O27 O 0.86151 0.59956 0.03234 0.0
O28 O 0.89081 0.6334 0.06422 0.0
C29 C 0.8984 0.65527 0.07464 0.0
C30 C 0.84992 0.60482 0.92521 0.0
O31 O 0.89258 0.67373 0.04559 0.0
C32 C 0.82458 0.67914 0.93108 0.0
O33 O 0.90436 0.64348 0.96843 0.0
O34 O 0.88389 0.67734 0.94423 0.0
O35 O 0.83107 0.61041 0.95328 0.0
O36 O 0.87155 0.61287 0.93633 0.0
C37 C 0.82383 0.6782 0.06757 0.0
O38 O 0.83898 0.69033 0.96268 0.0
O39 O 0.82016 0.65593 0.93591 0.0
C40 C 0.90229 0.6626 0.93938 0.0
O41 O 0.84687 0.68325 0.06257 0.0
O42 O 0.81287 0.66356 0.03602 0.0
C43 C 0.84224 0.60116 0.06096 0.0
Fe44 Fe 0.32421 0.86573 -0.00037 0.0
Fe45 Fe 0.36465 0.8242 -0.00078 0.0
O46 O 0.35622 0.85646 0.99871 0.0
Fe47 Fe 0.38001 0.87963 0.99753 0.0
O48 O 0.36968 0.89203 0.05954 0.0
O49 O 0.32965 0.89428 0.03858 0.0
O50 O 0.3186 0.84921 0.06051 0.0
C51 C 0.32272 0.82613 0.06806 0.0
C52 C 0.34278 0.90063 0.93165 0.0
O53 O 0.3377 0.81409 0.03894 0.0
C54 C 0.39948 0.84619 0.92832 0.0
O55 O 0.31322 0.83889 0.96099 0.0
O56 O 0.34769 0.81852 0.93926 0.0
O57 O 0.36164 0.90291 0.96116 0.0
O58 O 0.32733 0.88296 0.93866 0.0
C59 C 0.40011 0.84293 0.06534 0.0
O60 O 0.39309 0.82855 0.95905 0.0
O61 O 0.39175 0.86835 0.93559 0.0
C62 C 0.32478 0.82352 0.9319 0.0
O63 O 0.38228 0.82756 0.05963 0.0
O64 O 0.40297 0.86096 0.03372 0.0
C65 C 0.3478 0.90008 0.06817 0.0
Fe66 Fe 0.17854 0.36558 0.0029 0.0
Fe67 Fe 0.1231 0.38118 0.00278 0.0
O68 O 0.14624 0.35729 0.00113 0.0
Fe69 Fe 0.13709 0.32525 0.99777 0.0
O70 O 0.16359 0.31362 0.03688 0.0
O71 O 0.1834 0.34773 0.06241 0.0
O72 O 0.17407 0.39354 0.04388 0.0
C73 C 0.15617 0.40011 0.07345 0.0
C74 C 0.17729 0.32503 0.93124 0.0
O75 O 0.13412 0.39242 0.06524 0.0
C76 C 0.10243 0.3499 0.9304 0.0
O77 O 0.17592 0.38403 0.94329 0.0
O78 O 0.14197 0.40435 0.96748 0.0
O79 O 0.15416 0.32075 0.9373 0.0
O80 O 0.18901 0.3392 0.96242 0.0
C81 C 0.102 0.34305 0.06637 0.0
O82 O 0.11041 0.37166 0.94054 0.0
O83 O 0.10895 0.33114 0.95784 0.0
C84 C 0.16062 0.40195 0.93733 0.0
O85 O 0.09991 0.36247 0.0382 0.0
O86 O 0.11926 0.3273 0.05815 0.0
C87 C 0.17849 0.32464 0.0678 0.0
Fe88 Fe 0.63762 0.82421 0.49764 0.0
Fe89 Fe 0.67838 0.86539 0.49937 0.0
O90 O 0.64627 0.85644 0.497 0.0
Fe91 Fe 0.62256 0.87971 0.49402 0.0
O92 O 0.59926 0.86139 0.53039 0.0
O93 O 0.61957 0.82793 0.55747 0.0
O94 O 0.66411 0.81391 0.53812 0.0
C95 C 0.67875 0.82579 0.56806 0.0
C96 C 0.60346 0.84583 0.42542 0.0
O97 O 0.68321 0.84881 0.56057 0.0
C98 C 0.66081 0.90035 0.42973 0.0
O99 O 0.65504 0.81834 0.43818 0.0
O100 O 0.68949 0.83841 0.46108 0.0
O101 O 0.61133 0.86796 0.43207 0.0
O102 O 0.60952 0.82845 0.45689 0.0
C103 C 0.65409 0.90075 0.56549 0.0
O104 O 0.67625 0.88281 0.43823 0.0
O105 O 0.64132 0.90258 0.4575 0.0
C106 C 0.67807 0.82313 0.43156 0.0
O107 O 0.67276 0.89391 0.5382 0.0
O108 O 0.63227 0.89287 0.55561 0.0
C109 C 0.60178 0.84345 0.56244 0.0
Fe110 Fe 0.13765 0.67822 0.50117 0.0
Fe111 Fe 0.17967 0.63831 0.5008 0.0
O112 O 0.14733 0.64632 0.50223 0.0
Fe113 Fe 0.12458 0.62211 0.50468 0.0
O114 O 0.11139 0.63197 0.44308 0.0
O115 O 0.10922 0.67225 0.46219 0.0
O116 O 0.15387 0.68417 0.44006 0.0
C117 C 0.17691 0.68022 0.43195 0.0
C118 C 0.10321 0.65922 0.56996 0.0
O119 O 0.18921 0.6653 0.46075 0.0
C120 C 0.1589 0.60348 0.57303 0.0
O121 O 0.16445 0.68956 0.53963 0.0
O122 O 0.18564 0.65538 0.56041 0.0
O123 O 0.1012 0.64017 0.54103 0.0
O124 O 0.12059 0.67493 0.56245 0.0
C125 C 0.16117 0.60217 0.43643 0.0
O126 O 0.17605 0.6099 0.5413 0.0
O127 O 0.13658 0.61088 0.56656 0.0
C128 C 0.1803 0.67819 0.56807 0.0
O129 O 0.17593 0.62062 0.44062 0.0
O130 O 0.14338 0.59922 0.46852 0.0
C131 C 0.10308 0.65375 0.4338 0.0
Fe132 Fe 0.36423 0.1797 0.50222 0.0
Fe133 Fe 0.32383 0.13819 0.50098 0.0
O134 O 0.35584 0.14744 0.50265 0.0
Fe135 Fe 0.37965 0.12431 0.50444 0.0
O136 O 0.39119 0.13577 0.56636 0.0
O137 O 0.39253 0.17548 0.54254 0.0
O138 O 0.34696 0.1853 0.56205 0.0
C139 C 0.32395 0.18042 0.56863 0.0
C140 C 0.39968 0.16071 0.43608 0.0
O141 O 0.31261 0.16517 0.53896 0.0
C142 C 0.34781 0.10346 0.43369 0.0
O143 O 0.33748 0.18974 0.46217 0.0
O144 O 0.31869 0.15461 0.43973 0.0
O145 O 0.40267 0.14289 0.46814 0.0
O146 O 0.38203 0.17629 0.44197 0.0
C147 C 0.34208 0.10355 0.56999 0.0
O148 O 0.32947 0.10951 0.46262 0.0
O149 O 0.36961 0.11163 0.44251 0.0
C150 C 0.32295 0.17768 0.43224 0.0
O151 O 0.32652 0.12106 0.56224 0.0
O152 O 0.36114 0.10122 0.54097 0.0
C153 C 0.3989 0.15794 0.57341 0.0
Fe154 Fe 0.86444 0.32276 0.49754 0.0
Fe155 Fe 0.88138 0.37763 0.4937 0.0
O156 O 0.85687 0.3552 0.49712 0.0
Fe157 Fe 0.8251 0.36518 0.50014 0.0
O158 O 0.81981 0.34863 0.56132 0.0
O159 O 0.83775 0.31323 0.53814 0.0
O160 O 0.88258 0.32598 0.55729 0.0
C161 C 0.90117 0.34055 0.56114 0.0
C162 C 0.82391 0.32306 0.43199 0.0
O163 O 0.90438 0.35831 0.52895 0.0
C164 C 0.84365 0.39966 0.43037 0.0
O165 O 0.89259 0.32615 0.45637 0.0
O166 O 0.89174 0.36565 0.43129 0.0
O167 O 0.81301 0.33866 0.46174 0.0
O168 O 0.84678 0.31753 0.43829 0.0
C169 C 0.85089 0.39943 0.56625 0.0
O170 O 0.86321 0.4013 0.45803 0.0
O171 O 0.82769 0.38262 0.43909 0.0
C172 C 0.89888 0.34329 0.42447 0.0
O173 O 0.87243 0.39091 0.55574 0.0
O174 O 0.83189 0.39337 0.53918 0.0
C175 C 0.82359 0.32546 0.56848 0.0
H176 H 0.40925 0.20245 0.37493 0.0
H177 H 0.44213 0.20672 0.30781 0.0
H178 H 0.46511 0.13014 0.33592 0.0
H179 H 0.43274 0.12569 0.4022 0.0
H180 H 0.49679 0.19733 0.32441 0.0
H181 H 0.45447 0.13531 0.1752 0.0
H182 H 0.43624 0.14975 0.22646 0.0
H183 H 0.45454 0.12205 0.23967 0.0
C184 C 0.42122 0.18652 0.36642 0.0
C185 C 0.41846 0.16378 0.394 0.0
C186 C 0.43997 0.189 0.32827 0.0
C187 C 0.45581 0.16864 0.31672 0.0
C188 C 0.45286 0.14595 0.34384 0.0
H189 H 0.58242 0.1209 0.14074 0.0
H190 H 0.54681 0.12694 0.19962 0.0
C191 C 0.43442 0.14352 0.38197 0.0
C192 C 0.47621 0.17083 0.27785 0.0
H193 H 0.49861 0.14312 0.16754 0.0
C194 C 0.49708 0.1859 0.28952 0.0
C195 C 0.47647 0.15576 0.23264 0.0
C196 C 0.45414 0.13996 0.21737 0.0
C197 C 0.51884 0.18523 0.25847 0.0
C198 C 0.51946 0.16933 0.21442 0.0
C199 C 0.49816 0.15509 0.20166 0.0
C200 C 0.54222 0.16647 0.18176 0.0
C201 C 0.54139 0.20057 0.27436 0.0
C202 C 0.55159 0.18677 0.15269 0.0
C203 C 0.57199 0.18341 0.11909 0.0
C204 C 0.58328 0.15961 0.11365 0.0
C205 C 0.5742 0.13946 0.14389 0.0
C206 C 0.55381 0.14286 0.17748 0.0
H207 H 0.53971 0.20759 0.31494 0.0
H208 H 0.55889 0.18931 0.27104 0.0
H209 H 0.54316 0.21706 0.248 0.0
H210 H 0.54267 0.20504 0.15484 0.0
H211 H 0.57845 0.19934 0.09634 0.0
H212 H 0.80239 0.59618 0.12931 0.0
H213 H 0.79505 0.56187 0.19192 0.0
H214 H 0.86338 0.52579 0.14149 0.0
H215 H 0.87073 0.55949 0.07906 0.0
H216 H 0.82233 0.49268 0.15037 0.0
H217 H 0.83496 0.55102 0.32812 0.0
H218 H 0.81185 0.56157 0.28186 0.0
H219 H 0.84451 0.56177 0.26432 0.0
C220 C 0.81582 0.58092 0.13157 0.0
C221 C 0.83718 0.58069 0.09915 0.0
C222 C 0.81164 0.56137 0.16747 0.0
C223 C 0.82877 0.54135 0.1716 0.0
C224 C 0.84988 0.541 0.13893 0.0
H225 H 0.87484 0.43795 0.40192 0.0
H226 H 0.86711 0.47155 0.33944 0.0
C227 C 0.85409 0.56041 0.10329 0.0
C228 C 0.82535 0.52074 0.21022 0.0
H229 H 0.8288 0.50771 0.34043 0.0
C230 C 0.82335 0.49595 0.192 0.0
C231 C 0.82691 0.52508 0.26446 0.0
C232 C 0.82985 0.55124 0.28616 0.0
C233 C 0.82377 0.47532 0.22641 0.0
C234 C 0.82594 0.47964 0.28056 0.0
C235 C 0.82701 0.50447 0.2989 0.0
C236 C 0.82994 0.45877 0.31833 0.0
C237 C 0.82326 0.44906 0.2044 0.0
C238 C 0.81157 0.44025 0.32727 0.0
C239 C 0.81597 0.42076 0.36317 0.0
C240 C 0.83876 0.41958 0.39088 0.0
C241 C 0.85704 0.4382 0.38152 0.0
C242 C 0.85264 0.45754 0.34582 0.0
H243 H 0.82587 0.44897 0.16145 0.0
H244 H 0.83816 0.4373 0.22244 0.0
H245 H 0.80486 0.44024 0.21337 0.0
H246 H 0.79378 0.44101 0.30692 0.0
H247 H 0.80145 0.40681 0.36956 0.0
H248 H 0.57617 0.80278 0.41106 0.0
H249 H 0.54212 0.7958 0.3488 0.0
H250 H 0.55247 0.87067 0.28754 0.0
H251 H 0.58655 0.87787 0.34943 0.0
H252 H 0.49717 0.82514 0.3409 0.0
H253 H 0.55175 0.82539 0.15681 0.0
H254 H 0.56615 0.82051 0.21976 0.0
H255 H 0.55834 0.85174 0.19816 0.0
C256 C 0.57142 0.81769 0.38397 0.0
C257 C 0.58411 0.84092 0.38527 0.0
C258 C 0.55192 0.81365 0.34853 0.0
C259 C 0.54497 0.83262 0.31333 0.0
C260 C 0.55783 0.85565 0.31391 0.0
H261 H 0.43631 0.87585 0.09447 0.0
H262 H 0.47034 0.86933 0.15606 0.0
C263 C 0.57723 0.85977 0.34948 0.0
C264 C 0.52349 0.82896 0.2776 0.0
H265 H 0.50734 0.83131 0.14916 0.0
C266 C 0.49934 0.82605 0.29891 0.0
C267 C 0.5265 0.82998 0.22294 0.0
C268 C 0.55211 0.83183 0.19794 0.0
C269 C 0.47792 0.82573 0.26696 0.0
C270 C 0.48088 0.82801 0.2124 0.0
C271 C 0.50514 0.82965 0.19106 0.0
C272 C 0.45919 0.83153 0.17706 0.0
C273 C 0.45225 0.82436 0.29181 0.0
C274 C 0.44138 0.81246 0.16882 0.0
C275 C 0.42164 0.81615 0.13341 0.0
C276 C 0.41965 0.8389 0.10554 0.0
C277 C 0.43735 0.858 0.11483 0.0
C278 C 0.45687 0.85434 0.15006 0.0
H279 H 0.4531 0.82644 0.33483 0.0
H280 H 0.43982 0.83924 0.27571 0.0
H281 H 0.44359 0.8059 0.28291 0.0
H282 H 0.44303 0.7946 0.18895 0.0
H283 H 0.40834 0.80107 0.12702 0.0
H284 H 0.12096 0.42516 0.13137 0.0
H285 H 0.1278 0.46064 0.18986 0.0
H286 H 0.20761 0.45614 0.16265 0.0
H287 H 0.20104 0.42058 0.10386 0.0
H288 H 0.19194 0.46174 0.27132 0.0
H289 H 0.14932 0.53249 0.13862 0.0
H290 H 0.13042 0.50496 0.14967 0.0
H291 H 0.16001 0.50211 0.11645 0.0
C292 C 0.14001 0.43156 0.13798 0.0
C293 C 0.16044 0.42011 0.11257 0.0
C294 C 0.14385 0.45195 0.17116 0.0
C295 C 0.16815 0.46125 0.17973 0.0
C296 C 0.18869 0.44935 0.15607 0.0
H297 H 0.19135 0.60377 0.34909 0.0
H298 H 0.19736 0.57016 0.28452 0.0
C299 C 0.18487 0.42903 0.12256 0.0
C300 C 0.17197 0.48336 0.21364 0.0
H301 H 0.15611 0.54523 0.2266 0.0
C302 C 0.18442 0.48008 0.26131 0.0
C303 C 0.16249 0.50734 0.20003 0.0
C304 C 0.15 0.51211 0.1482 0.0
C305 C 0.18639 0.49989 0.29707 0.0
C306 C 0.17556 0.52345 0.28477 0.0
C307 C 0.16433 0.52711 0.23593 0.0
C308 C 0.17321 0.54353 0.3242 0.0
C309 C 0.19949 0.49534 0.34832 0.0
C310 C 0.1575 0.53967 0.36727 0.0
C311 C 0.15385 0.55872 0.40358 0.0
C312 C 0.16593 0.58211 0.39778 0.0
C313 C 0.1819 0.58593 0.35474 0.0
C314 C 0.18533 0.56681 0.3179 0.0
H315 H 0.21242 0.47897 0.34624 0.0
H316 H 0.21034 0.51217 0.36039 0.0
H317 H 0.18523 0.49137 0.37883 0.0
H318 H 0.14768 0.52199 0.37236 0.0
H319 H 0.14146 0.55506 0.43625 0.0
H320 H 0.56422 0.87581 0.58757 0.0
H321 H 0.53044 0.86986 0.6502 0.0
H322 H 0.55993 0.79685 0.69064 0.0
H323 H 0.59437 0.80278 0.62785 0.0
H324 H 0.49426 0.8318 0.6496 0.0
H325 H 0.55013 0.83112 0.83299 0.0
H326 H 0.56288 0.84236 0.77197 0.0
H327 H 0.55943 0.80922 0.78335 0.0
C328 C 0.5637 0.85846 0.60978 0.0
C329 C 0.58201 0.83971 0.60247 0.0
C330 C 0.54431 0.85511 0.64561 0.0
C331 C 0.54271 0.83299 0.67522 0.0
C332 C 0.56102 0.81422 0.66862 0.0
H333 H 0.42777 0.80368 0.9143 0.0
H334 H 0.46175 0.7972 0.85131 0.0
C335 C 0.58062 0.8176 0.63264 0.0
C336 C 0.52135 0.82981 0.71179 0.0
H337 H 0.50619 0.82798 0.84111 0.0
C338 C 0.49687 0.83071 0.69147 0.0
C339 C 0.52481 0.82828 0.76635 0.0
C340 C 0.55069 0.82785 0.79027 0.0
C341 C 0.47577 0.83089 0.72427 0.0
C342 C 0.47926 0.83045 0.77882 0.0
C343 C 0.50365 0.8284 0.7992 0.0
C344 C 0.45795 0.83381 0.81531 0.0
C345 C 0.44992 0.83191 0.70032 0.0
C346 C 0.44462 0.85657 0.81589 0.0
C347 C 0.42529 0.86041 0.85186 0.0
C348 C 0.41892 0.84153 0.88807 0.0
C349 C 0.43211 0.81859 0.88686 0.0
C350 C 0.45158 0.81485 0.85102 0.0
H351 H 0.45009 0.82531 0.65929 0.0
H352 H 0.4364 0.82027 0.72294 0.0
H353 H 0.44311 0.85162 0.70052 0.0
H354 H 0.44951 0.87159 0.7891 0.0
H355 H 0.41556 0.87829 0.8517 0.0
H356 H 0.20129 0.40764 0.87142 0.0
H357 H 0.20893 0.44248 0.81007 0.0
H358 H 0.13831 0.47601 0.85417 0.0
H359 H 0.13059 0.44184 0.91503 0.0
H360 H 0.17819 0.45922 0.72506 0.0
H361 H 0.1891 0.53339 0.87389 0.0
H362 H 0.19162 0.5003 0.88919 0.0
H363 H 0.16124 0.51496 0.88369 0.0
C364 C 0.18744 0.42247 0.86802 0.0
C365 C 0.16546 0.42207 0.89857 0.0
C366 C 0.19185 0.44233 0.83308 0.0
C367 C 0.17444 0.46206 0.82863 0.0
C368 C 0.15229 0.46131 0.85807 0.0
H369 H 0.12766 0.58639 0.65015 0.0
H370 H 0.13562 0.55227 0.71208 0.0
C371 C 0.14787 0.44162 0.8927 0.0
C372 C 0.17856 0.4833 0.79225 0.0
H373 H 0.17796 0.54743 0.78751 0.0
C374 C 0.17874 0.47851 0.73855 0.0
C375 C 0.17931 0.50841 0.81016 0.0
C376 C 0.18057 0.5146 0.86742 0.0
C377 C 0.17797 0.49831 0.70221 0.0
C378 C 0.17721 0.52337 0.72031 0.0
C379 C 0.17834 0.52815 0.7739 0.0
C380 C 0.17328 0.54477 0.6844 0.0
C381 C 0.17658 0.49233 0.64486 0.0
C382 C 0.19206 0.55211 0.64921 0.0
C383 C 0.18764 0.57167 0.61389 0.0
C384 C 0.16429 0.58414 0.6131 0.0
C385 C 0.14578 0.57711 0.64948 0.0
C386 C 0.15029 0.55765 0.68492 0.0
H387 H 0.17417 0.47189 0.63765 0.0
H388 H 0.1607 0.50261 0.62652 0.0
H389 H 0.19415 0.4986 0.62545 0.0
H390 H 0.21003 0.54254 0.64874 0.0
H391 H 0.20234 0.57665 0.58651 0.0
H392 H 0.42637 0.20091 0.5879 0.0
H393 H 0.46064 0.20761 0.64985 0.0
H394 H 0.45007 0.13274 0.71084 0.0
H395 H 0.41579 0.12577 0.64916 0.0
H396 H 0.45533 0.17403 0.78771 0.0
H397 H 0.53099 0.17159 0.63743 0.0
H398 H 0.50453 0.19195 0.62599 0.0
H399 H 0.50018 0.15853 0.62588 0.0
C400 C 0.4312 0.18589 0.61468 0.0
C401 C 0.41842 0.16271 0.61331 0.0
C402 C 0.45087 0.18974 0.64984 0.0
C403 C 0.45803 0.17056 0.68433 0.0
C404 C 0.44485 0.14772 0.68424 0.0
H405 H 0.56184 0.12881 0.9161 0.0
H406 H 0.52763 0.13545 0.85506 0.0
C407 C 0.42529 0.14377 0.64894 0.0
C408 C 0.47943 0.174 0.72033 0.0
H409 H 0.54355 0.17565 0.72481 0.0
C410 C 0.47461 0.17465 0.774 0.0
C411 C 0.50451 0.17507 0.70216 0.0
C412 C 0.51057 0.17413 0.64476 0.0
C413 C 0.4943 0.17562 0.8102 0.0
C414 C 0.51944 0.17534 0.79219 0.0
C415 C 0.52425 0.17584 0.73843 0.0
C416 C 0.54076 0.17178 0.82852 0.0
C417 C 0.48801 0.17655 0.86751 0.0
C418 C 0.56009 0.18966 0.83253 0.0
C419 C 0.57997 0.18588 0.86756 0.0
C420 C 0.58082 0.16407 0.89874 0.0
C421 C 0.5617 0.14599 0.89331 0.0
C422 C 0.54199 0.14979 0.85856 0.0
H423 H 0.46905 0.1847 0.87417 0.0
H424 H 0.488 0.15716 0.88358 0.0
H425 H 0.50204 0.1878 0.88933 0.0
H426 H 0.5596 0.20664 0.80911 0.0
H427 H 0.59447 0.20008 0.87056 0.0
H428 H 0.8873 0.58354 0.86693 0.0
H429 H 0.88364 0.54862 0.80594 0.0
H430 H 0.80347 0.54694 0.82965 0.0
H431 H 0.80683 0.58191 0.89111 0.0
H432 H 0.85944 0.49946 0.83745 0.0
H433 H 0.81609 0.54671 0.66545 0.0
H434 H 0.83415 0.56384 0.71318 0.0
H435 H 0.80318 0.55299 0.72901 0.0
C436 C 0.86881 0.57601 0.85884 0.0
C437 C 0.84735 0.58547 0.8842 0.0
C438 C 0.86679 0.55602 0.82402 0.0
C439 C 0.84331 0.54532 0.81339 0.0
C440 C 0.82173 0.55514 0.83719 0.0
H441 H 0.8078 0.42212 0.60112 0.0
H442 H 0.80425 0.4562 0.66453 0.0
C443 C 0.82372 0.57507 0.87234 0.0
C444 C 0.84175 0.52294 0.7797 0.0
H445 H 0.8243 0.50335 0.65864 0.0
C446 C 0.85168 0.50022 0.79841 0.0
C447 C 0.83133 0.52405 0.72919 0.0
C448 C 0.82064 0.54818 0.70757 0.0
C449 C 0.85174 0.47852 0.76756 0.0
C450 C 0.84222 0.47982 0.71617 0.0
C451 C 0.83166 0.50242 0.69799 0.0
C452 C 0.84417 0.45834 0.67979 0.0
C453 C 0.86185 0.4544 0.79051 0.0
C454 C 0.86778 0.4483 0.66728 0.0
C455 C 0.86988 0.42875 0.63142 0.0
C456 C 0.8484 0.41908 0.60668 0.0
C457 C 0.82472 0.42912 0.61945 0.0
C458 C 0.82265 0.44861 0.65561 0.0
H459 H 0.86064 0.45443 0.83373 0.0
H460 H 0.8515 0.4378 0.77558 0.0
H461 H 0.88195 0.45241 0.77974 0.0
H462 H 0.88471 0.45592 0.6845 0.0
H463 H 0.88843 0.42162 0.62233 0.0
H464 H 0.9517 0.65742 0.9608 0.0
H465 H 0.98724 0.66378 0.90217 0.0
H466 H 0.9364 0.68694 0.78012 0.0
H467 H 0.90075 0.68188 0.84018 0.0
H468 H 0.9964 0.63814 0.82077 0.0
H469 H 0.99045 0.73758 0.75816 0.0
H470 H 0.97229 0.72534 0.81201 0.0
H471 H 0.96176 0.72097 0.74598 0.0
C472 C 0.94817 0.66433 0.92172 0.0
C473 C 0.92353 0.66909 0.90484 0.0
C474 C 0.96849 0.66798 0.88821 0.0
C475 C 0.96467 0.67601 0.83663 0.0
C476 C 0.94002 0.68138 0.82002 0.0
H477 H 0.05948 0.6334 0.58267 0.0
H478 H 0.02705 0.63958 0.64806 0.0
C479 C 0.91962 0.6783 0.85416 0.0
C480 C 0.9862 0.67604 0.79945 0.0
H481 H 0.01665 0.71062 0.70611 0.0
C482 C 1.00092 0.65417 0.79625 0.0
C483 C 0.99245 0.69699 0.76768 0.0
C484 C 0.97856 0.72162 0.77149 0.0
C485 C 0.02121 0.65241 0.76162 0.0
C486 C 0.02651 0.67274 0.7277 0.0
C487 C 0.01236 0.69494 0.73174 0.0
C488 C 0.04581 0.67053 0.68615 0.0
C489 C 0.03683 0.6287 0.76186 0.0
C490 C 0.06682 0.68652 0.68455 0.0
C491 C 0.08552 0.68317 0.64658 0.0
C492 C 0.08343 0.66379 0.60966 0.0
C493 C 0.06197 0.64832 0.6108 0.0
C494 C 0.04335 0.65178 0.6483 0.0
H495 H 0.03555 0.61873 0.7999 0.0
H496 H 0.02975 0.61578 0.73137 0.0
H497 H 0.0569 0.63284 0.75361 0.0
H498 H 0.06898 0.70123 0.71327 0.0
H499 H 0.10174 0.69548 0.64662 0.0
H500 H 0.29985 0.09693 0.63106 0.0
H501 H 0.29159 0.06237 0.69259 0.0
H502 H 0.36445 0.0309 0.65876 0.0
H503 H 0.37278 0.06487 0.5975 0.0
H504 H 0.3244 0.99567 0.65539 0.0
H505 H 0.32472 0.05234 0.83756 0.0
H506 H 0.30408 0.06226 0.78594 0.0
H507 H 0.33747 0.06422 0.77708 0.0
C508 C 0.31414 0.08271 0.637 0.0
C509 C 0.33696 0.08367 0.60925 0.0
C510 C 0.3094 0.06301 0.67217 0.0
C511 C 0.32745 0.04413 0.68022 0.0
C512 C 0.35022 0.04521 0.65289 0.0
H513 H 0.37212 0.9411 0.90861 0.0
H514 H 0.36359 0.97507 0.84744 0.0
C515 C 0.35496 0.06474 0.61794 0.0
C516 C 0.32313 0.023 0.71695 0.0
H517 H 0.32188 0.00852 0.84658 0.0
C518 C 0.32338 0.99842 0.6972 0.0
C519 C 0.32195 0.02675 0.77138 0.0
C520 C 0.32217 0.05276 0.79461 0.0
C521 C 0.32369 0.97743 0.73054 0.0
C522 C 0.32343 0.9812 0.78502 0.0
C523 C 0.32198 0.00575 0.80473 0.0
C524 C 0.32782 0.96024 0.8221 0.0
C525 C 0.32581 0.95148 0.70738 0.0
C526 C 0.31051 0.9405 0.82804 0.0
C527 C 0.31538 0.92082 0.8631 0.0
C528 C 0.33758 0.92069 0.89287 0.0
C529 C 0.35481 0.94053 0.88648 0.0
C530 C 0.34994 0.96008 0.85162 0.0
H531 H 0.32949 0.95209 0.66477 0.0
H532 H 0.34116 0.94076 0.72655 0.0
H533 H 0.308 0.94111 0.71401 0.0
H534 H 0.2932 0.94042 0.8059 0.0
H535 H 0.30168 0.90589 0.86722 0.0
H536 H 0.95043 0.33498 0.53921 0.0
H537 H 0.98517 0.3309 0.60084 0.0
H538 H 0.93239 0.33253 0.72876 0.0
H539 H 0.89748 0.33487 0.66651 0.0
H540 H 0.99991 0.36334 0.66507 0.0
H541 H 0.9768 0.2787 0.78099 0.0
H542 H 0.9603 0.28655 0.72181 0.0
H543 H 0.95158 0.30098 0.78268 0.0
C544 C 0.9463 0.3338 0.58051 0.0
C545 C 0.92142 0.33505 0.59838 0.0
C546 C 0.96612 0.33157 0.61574 0.0
C547 C 0.96153 0.33117 0.66968 0.0
C548 C 0.93651 0.33201 0.68748 0.0
H549 H 0.07083 0.38574 0.89166 0.0
H550 H 0.0371 0.3803 0.82849 0.0
C551 C 0.91656 0.33352 0.652 0.0
C552 C 0.98306 0.33231 0.70668 0.0
H553 H 0.00728 0.30671 0.8181 0.0
C554 C 0.0016 0.3507 0.69815 0.0
C555 C 0.98563 0.31569 0.7496 0.0
C556 C 0.96764 0.29421 0.75898 0.0
C557 C 0.02231 0.35319 0.73144 0.0
C558 C 0.02403 0.33765 0.77618 0.0
C559 C 0.00581 0.3189 0.78427 0.0
C560 C 0.0444 0.34077 0.81528 0.0
C561 C 0.04234 0.37217 0.71747 0.0
C562 C 0.0592 0.32016 0.83065 0.0
C563 C 0.07817 0.32311 0.86786 0.0
C564 C 0.08285 0.34678 0.89003 0.0
C565 C 0.068 0.36735 0.87466 0.0
C566 C 0.04876 0.36429 0.83827 0.0
H567 H 0.04283 0.37582 0.67482 0.0
H568 H 0.03809 0.39026 0.73698 0.0
H569 H 0.06126 0.36576 0.72994 0.0
H570 H 0.05613 0.3018 0.81371 0.0
H571 H 0.08927 0.3069 0.87904 0.0
H572 H 0.69767 0.08033 0.8984 0.0
H573 H 0.70224 0.04724 0.83292 0.0
H574 H 0.62253 0.04991 0.80329 0.0
H575 H 0.61781 0.08314 0.86757 0.0
H576 H 0.68039 1.0004 0.83338 0.0
H577 H 0.65122 0.05307 0.65723 0.0
H578 H 0.65936 0.06852 0.71741 0.0
H579 H 0.62849 0.05535 0.70863 0.0
C580 C 0.68115 0.07409 0.87749 0.0
C581 C 0.65737 0.08444 0.88824 0.0
C582 C 0.68381 0.05516 0.84017 0.0
C583 C 0.66279 0.04639 0.81271 0.0
C584 C 0.6391 0.0568 0.82312 0.0
H585 H 0.61736 0.92458 0.62117 0.0
H586 H 0.62226 0.95958 0.68157 0.0
C587 C 0.63643 0.07571 0.86021 0.0
C588 C 0.66517 0.02541 0.77521 0.0
H589 H 0.65015 0.00798 0.6512 0.0
C590 C 0.67418 0.00214 0.79329 0.0
C591 C 0.65714 0.02776 0.72287 0.0
C592 C 0.64876 0.0526 0.70022 0.0
C593 C 0.67423 0.98086 0.76105 0.0
C594 C 0.66512 0.98303 0.7096 0.0
C595 C 0.65693 0.00643 0.69093 0.0
C596 C 0.66274 0.96097 0.6752 0.0
C597 C 0.68306 0.95597 0.78257 0.0
C598 C 0.68398 0.95013 0.65201 0.0
C599 C 0.68128 0.93015 0.61716 0.0
C600 C 0.65728 0.9207 0.60508 0.0
C601 C 0.63612 0.93135 0.62948 0.0
C602 C 0.63885 0.95138 0.66396 0.0
H603 H 0.68736 0.95693 0.82487 0.0
H604 H 0.6685 0.94134 0.77621 0.0
H605 H 0.70028 0.94999 0.76156 0.0
H606 H 0.70256 0.95745 0.6601 0.0
H607 H 0.69796 0.92238 0.59913 0.0
H608 H 0.06522 0.37502 0.09753 0.0
H609 H 0.03096 0.36689 0.15792 0.0
H610 H 0.05889 0.29186 0.18475 0.0
H611 H 0.09375 0.29988 0.12392 0.0
H612 H 0.99441 0.32749 0.14732 0.0
H613 H 0.04834 0.3222 0.33321 0.0
H614 H 0.06128 0.33653 0.27519 0.0
H615 H 0.05858 0.30299 0.27961 0.0
C616 C 0.06427 0.35676 0.11627 0.0
C617 C 0.08221 0.33803 0.10563 0.0
C618 C 0.04461 0.35217 0.15079 0.0
C619 C 0.04242 0.32882 0.17573 0.0
C620 C 0.06043 0.3101 0.16612 0.0
H621 H 0.92572 0.29988 0.41099 0.0
H622 H 0.95945 0.29216 0.34815 0.0
C623 C 0.08027 0.31469 0.13136 0.0
C624 C 0.02075 0.32446 0.21069 0.0
H625 H 0.0043 0.32121 0.33908 0.0
C626 C 0.99654 0.32573 0.18922 0.0
C627 C 0.02366 0.32205 0.2652 0.0
C628 C 0.04931 0.32097 0.29005 0.0
C629 C 0.97512 0.32572 0.22103 0.0
C630 C 0.97806 0.32477 0.27568 0.0
C631 C 0.00218 0.32207 0.29708 0.0
C632 C 0.95658 0.32867 0.31135 0.0
C633 C 0.94954 0.32729 0.19595 0.0
C634 C 0.94384 0.35177 0.31132 0.0
C635 C 0.92465 0.35631 0.34719 0.0
C636 C 0.91788 0.33783 0.3839 0.0
C637 C 0.9304 0.3145 0.38315 0.0
C638 C 0.94971 0.31005 0.34738 0.0
H639 H 0.95 0.32054 0.15505 0.0
H640 H 0.93549 0.3161 0.21811 0.0
H641 H 0.94325 0.34719 0.19546 0.0
H642 H 0.94918 0.36655 0.28432 0.0
H643 H 0.91543 0.37447 0.34672 0.0
H644 H 0.70347 0.90676 0.3696 0.0
H645 H 0.71252 0.94154 0.30898 0.0
H646 H 0.63977 0.97358 0.34128 0.0
H647 H 0.63065 0.93942 0.40151 0.0
H648 H 0.68635 0.9571 0.21937 0.0
H649 H 0.68712 0.03287 0.36617 0.0
H650 H 0.68957 1.00002 0.3836 0.0
H651 H 0.65934 0.01389 0.37079 0.0
C652 C 0.68943 0.92124 0.36375 0.0
C653 C 0.66643 0.92037 0.39088 0.0
C654 C 0.69465 0.94111 0.32923 0.0
C655 C 0.67706 0.96049 0.32166 0.0
C656 C 0.65391 0.95925 0.34764 0.0
H657 H 0.63499 0.05864 0.08222 0.0
H658 H 0.6442 0.02478 0.14306 0.0
C659 C 0.64868 0.93953 0.38188 0.0
C660 C 0.68205 0.98168 0.28525 0.0
H661 H 0.67923 0.04575 0.27725 0.0
C662 C 0.68532 0.97649 0.23212 0.0
C663 C 0.68118 0.00701 0.30194 0.0
C664 C 0.67938 0.01381 0.35884 0.0
C665 C 0.68585 0.99593 0.1949 0.0
C666 C 0.68268 0.02113 0.21123 0.0
C667 C 0.68132 0.02642 0.26466 0.0
C668 C 0.67803 0.04181 0.17343 0.0
C669 C 0.68909 0.98925 0.13822 0.0
C670 C 0.69361 0.06312 0.17124 0.0
C671 C 0.68834 0.08279 0.13629 0.0
C672 C 0.66719 0.08156 0.10347 0.0
C673 C 0.65151 0.06028 0.10657 0.0
C674 C 0.65686 0.04072 0.14111 0.0
H675 H 0.6993 0.97117 0.13371 0.0
H676 H 0.67031 0.98708 0.12005 0.0
H677 H 0.69947 0.00418 0.11681 0.0
H678 H 0.70989 0.06447 0.19638 0.0
H679 H 0.70073 0.09893 0.13509 0.0
H680 H 0.91975 0.6188 0.13547 0.0
H681 H 0.95473 0.62345 0.19614 0.0
H682 H 0.95606 0.70331 0.1673 0.0
H683 H 0.92104 0.69896 0.10605 0.0
H684 H 0.00408 0.64945 0.16062 0.0
H685 H 0.95628 0.69046 0.33411 0.0
H686 H 0.93959 0.67102 0.28805 0.0
H687 H 0.94875 0.70227 0.27003 0.0
C688 C 0.92722 0.63744 0.14235 0.0
C689 C 0.91768 0.6585 0.1156 0.0
C690 C 0.94722 0.64001 0.177 0.0
C691 C 0.95785 0.66369 0.186 0.0
C692 C 0.94793 0.68491 0.16089 0.0
H693 H 0.08046 0.69749 0.40195 0.0
H694 H 0.04664 0.70223 0.33805 0.0
C695 C 0.92797 0.68235 0.12592 0.0
C696 C 0.98029 0.66574 0.21935 0.0
H697 H 0.99949 0.68175 0.34149 0.0
C698 C 0.00319 0.65667 0.20007 0.0
C699 C 0.97897 0.67546 0.27035 0.0
C700 C 0.95462 0.68534 0.29232 0.0
C701 C 0.02487 0.65658 0.23102 0.0
C702 C 0.02334 0.66518 0.28303 0.0
C703 C 1.00058 0.67508 0.30167 0.0
C704 C 0.04467 0.66262 0.31964 0.0
C705 C 0.04918 0.64728 0.20768 0.0
C706 C 0.05468 0.63879 0.33053 0.0
C707 C 0.07404 0.63601 0.36668 0.0
C708 C 0.08356 0.65702 0.39329 0.0
C709 C 0.07356 0.68093 0.38215 0.0
C710 C 0.05423 0.68369 0.34571 0.0
H711 H 0.04922 0.64937 0.16458 0.0
H712 H 0.06559 0.65755 0.22371 0.0
H713 H 0.05143 0.627 0.21681 0.0
H714 H 0.04717 0.6222 0.31181 0.0
H715 H 0.08116 0.6173 0.37447 0.0
H716 H 0.36987 0.9019 0.1634 0.0
H717 H 0.36605 0.93511 0.22864 0.0
H718 H 0.31608 0.976 0.12643 0.0
H719 H 0.31847 0.9419 0.06302 0.0
H720 H 0.38062 0.97983 0.22536 0.0
H721 H 0.27807 0.98454 0.25608 0.0
H722 H 0.29252 0.95945 0.21983 0.0
H723 H 0.28543 0.98906 0.18861 0.0
C724 C 0.35769 0.91779 0.15552 0.0
C725 C 0.34428 0.91932 0.10859 0.0
C726 C 0.35555 0.93679 0.19266 0.0
C727 C 0.34043 0.958 0.18305 0.0
C728 C 0.32712 0.95952 0.13585 0.0
H729 H 0.37176 0.0993 0.34048 0.0
H730 H 0.3687 0.06474 0.27812 0.0
C731 C 0.32865 0.94012 0.09939 0.0
C732 C 0.34017 0.97923 0.22065 0.0
H733 H 0.30175 0.02044 0.2842 0.0
C734 C 0.36331 0.98847 0.23865 0.0
C735 C 0.31765 0.99041 0.23881 0.0
C736 C 0.29205 0.98014 0.22525 0.0
C737 C 0.36461 0.00858 0.2737 0.0
C738 C 0.34218 0.02084 0.2891 0.0
C739 C 0.319 0.01141 0.27172 0.0
C740 C 0.34232 0.04299 0.3243 0.0
C741 C 0.39005 0.01585 0.29487 0.0
C742 C 0.32722 0.04317 0.36926 0.0
C743 C 0.32821 0.06339 0.40382 0.0
C744 C 0.34466 0.08355 0.39449 0.0
C745 C 0.35918 0.08377 0.34881 0.0
C746 C 0.35763 0.06391 0.3135 0.0
H747 H 0.4034 0.99979 0.29359 0.0
H748 H 0.39808 0.03115 0.27051 0.0
H749 H 0.38874 0.02247 0.33575 0.0
H750 H 0.31512 0.02738 0.37837 0.0
H751 H 0.31688 0.06276 0.43891 0.0
H752 H 0.77353 0.32725 0.41194 0.0
H753 H 0.74853 0.30262 0.35072 0.0
H754 H 0.81515 0.26305 0.30174 0.0
H755 H 0.84032 0.28732 0.36323 0.0
H756 H 0.753 0.29788 0.24223 0.0
H757 H 0.7668 0.20613 0.34209 0.0
H758 H 0.77411 0.23576 0.37263 0.0
H759 H 0.7954 0.22232 0.32599 0.0
C760 C 0.78292 0.31333 0.38816 0.0
C761 C 0.80893 0.30912 0.39291 0.0
C762 C 0.76858 0.29928 0.35318 0.0
C763 C 0.77991 0.28071 0.32245 0.0
C764 C 0.80595 0.27691 0.32598 0.0
H765 H 0.72784 0.17615 0.08895 0.0
H766 H 0.75206 0.20103 0.151 0.0
C767 C 0.82032 0.29092 0.36096 0.0
C768 C 0.7645 0.26541 0.28646 0.0
H769 H 0.7466 0.20517 0.25976 0.0
C770 C 0.75148 0.27763 0.24616 0.0
C771 C 0.76257 0.239 0.29179 0.0
C772 C 0.77526 0.22499 0.33571 0.0
C773 C 0.73697 0.26406 0.21028 0.0
C774 C 0.73513 0.23763 0.21549 0.0
C775 C 0.74808 0.22543 0.2559 0.0
C776 C 0.72013 0.22226 0.17891 0.0
C777 C 0.72425 0.27804 0.16637 0.0
C778 C 0.69406 0.2256 0.17484 0.0
C779 C 0.68011 0.21142 0.13938 0.0
C780 C 0.692 0.19353 0.10746 0.0
C781 C 0.71806 0.18982 0.11268 0.0
C782 C 0.73196 0.20401 0.14815 0.0
H783 H 0.73238 0.29708 0.16053 0.0
H784 H 0.7258 0.26746 0.12929 0.0
H785 H 0.704 0.28027 0.17566 0.0
H786 H 0.68449 0.23923 0.19905 0.0
H787 H 0.66006 0.21466 0.1367 0.0
H788 H 0.84016 0.71326 0.13782 0.0
H789 H 0.81492 0.737 0.20026 0.0
H790 H 0.74834 0.69798 0.14955 0.0
H791 H 0.7734 0.67395 0.08732 0.0
H792 H 0.7742 0.76883 0.17669 0.0
H793 H 0.74526 0.69111 0.30884 0.0
H794 H 0.7709 0.68811 0.26311 0.0
H795 H 0.73895 0.6857 0.24106 0.0
C796 C 0.82019 0.70953 0.14019 0.0
C797 C 0.80883 0.69166 0.10746 0.0
C798 C 0.80579 0.72316 0.17588 0.0
C799 C 0.77982 0.71907 0.1799 0.0
C800 C 0.76843 0.70111 0.14772 0.0
H801 H 0.66074 0.78721 0.36406 0.0
H802 H 0.68517 0.7627 0.30138 0.0
C803 C 0.7828 0.68748 0.11197 0.0
C804 C 0.76449 0.73438 0.21615 0.0
H805 H 0.72571 0.73065 0.32201 0.0
C806 C 0.76367 0.76052 0.20861 0.0
C807 C 0.75069 0.72345 0.25755 0.0
C808 C 0.75159 0.69558 0.26858 0.0
C809 C 0.74916 0.77602 0.24101 0.0
C810 C 0.73546 0.76511 0.28261 0.0
C811 C 0.73619 0.73895 0.29001 0.0
C812 C 0.72061 0.78055 0.31949 0.0
C813 C 0.74823 0.80387 0.22979 0.0
C814 C 0.73246 0.79863 0.35061 0.0
C815 C 0.71858 0.81271 0.38639 0.0
C816 C 0.69255 0.80884 0.39208 0.0
C817 C 0.68073 0.79072 0.3607 0.0
C818 C 0.69465 0.77665 0.3249 0.0
H819 H 0.75397 0.8082 0.18909 0.0
H820 H 0.72906 0.81149 0.23639 0.0
H821 H 0.76136 0.81374 0.25631 0.0
H822 H 0.75255 0.8016 0.3478 0.0
H823 H 0.72835 0.8264 0.41002 0.0
H824 H 0.32213 0.77543 0.08648 0.0
H825 H 0.29557 0.75222 0.14761 0.0
H826 H 0.26238 0.82167 0.19964 0.0
H827 H 0.28897 0.8452 0.13862 0.0
H828 H 0.27698 0.78774 0.28128 0.0
H829 H 0.21883 0.74114 0.13037 0.0
H830 H 0.25215 0.73781 0.12132 0.0
H831 H 0.23801 0.7684 0.11667 0.0
C832 C 0.30925 0.78585 0.11096 0.0
C833 C 0.3076 0.81222 0.10733 0.0
C834 C 0.29397 0.7725 0.14565 0.0
C835 C 0.27671 0.7852 0.17743 0.0
C836 C 0.27545 0.81152 0.17507 0.0
H837 H 0.1575 0.71448 0.36231 0.0
H838 H 0.18081 0.74092 0.30047 0.0
C839 C 0.29067 0.82492 0.14018 0.0
C840 C 0.26024 0.77092 0.21354 0.0
H841 H 0.21441 0.72597 0.2173 0.0
C842 C 0.26318 0.77435 0.26735 0.0
C843 C 0.24204 0.75371 0.19518 0.0
C844 C 0.23732 0.75014 0.13773 0.0
C845 C 0.24895 0.76041 0.30337 0.0
C846 C 0.2315 0.74245 0.28502 0.0
C847 C 0.22796 0.7396 0.23121 0.0
C848 C 0.21726 0.72598 0.32121 0.0
C849 C 0.25267 0.76499 0.36083 0.0
C850 C 0.23001 0.70845 0.35236 0.0
C851 C 0.21681 0.69327 0.38746 0.0
C852 C 0.19053 0.69531 0.39217 0.0
C853 C 0.17773 0.7125 0.35989 0.0
C854 C 0.19099 0.72762 0.32455 0.0
H855 H 0.26191 0.78337 0.3682 0.0
H856 H 0.23444 0.76451 0.3819 0.0
H857 H 0.26483 0.74997 0.3772 0.0
H858 H 0.25024 0.70658 0.34966 0.0
H859 H 0.22732 0.68018 0.41143 0.0
H860 H 0.32653 0.22757 0.40755 0.0
H861 H 0.30146 0.25129 0.34486 0.0
H862 H 0.26224 0.18356 0.3019 0.0
H863 H 0.28705 0.15958 0.3652 0.0
H864 H 0.29642 0.24526 0.23729 0.0
H865 H 0.20509 0.23218 0.33906 0.0
H866 H 0.23484 0.22541 0.36978 0.0
H867 H 0.22157 0.20363 0.32408 0.0
C868 C 0.3126 0.21763 0.38482 0.0
C869 C 0.30867 0.19166 0.39182 0.0
C870 C 0.2983 0.23126 0.34893 0.0
C871 C 0.2797 0.21928 0.31939 0.0
C872 C 0.27614 0.19326 0.32513 0.0
H873 H 0.17388 0.27433 0.08826 0.0
H874 H 0.19854 0.2489 0.14898 0.0
C875 C 0.29046 0.17956 0.3611 0.0
C876 C 0.26417 0.23418 0.28258 0.0
H877 H 0.20403 0.25309 0.25756 0.0
C878 C 0.27622 0.247 0.24172 0.0
C879 C 0.23783 0.23642 0.28854 0.0
C880 C 0.22402 0.22388 0.33295 0.0
C881 C 0.26261 0.26183 0.20625 0.0
C882 C 0.2363 0.26422 0.21242 0.0
C883 C 0.22421 0.25125 0.25304 0.0
C884 C 0.22096 0.27997 0.17683 0.0
C885 C 0.27644 0.27444 0.16194 0.0
C886 C 0.22502 0.30599 0.1732 0.0
C887 C 0.21096 0.32064 0.13849 0.0
C888 C 0.19248 0.30952 0.10687 0.0
C889 C 0.18803 0.28352 0.11175 0.0
C890 C 0.20209 0.26893 0.14646 0.0
H891 H 0.29515 0.26577 0.15512 0.0
H892 H 0.2654 0.27346 0.12531 0.0
H893 H 0.2794 0.29455 0.1715 0.0
H894 H 0.23914 0.31497 0.19711 0.0
H895 H 0.21477 0.34061 0.13605 0.0
H896 H 0.17103 0.72582 0.60306 0.0
H897 H 0.19588 0.75022 0.66519 0.0
H898 H 0.24679 0.68785 0.68401 0.0
H899 H 0.22206 0.66316 0.62223 0.0
H900 H 0.21106 0.73283 0.77612 0.0
H901 H 0.28958 0.75319 0.63855 0.0
H902 H 0.25826 0.7457 0.61629 0.0
H903 H 0.27803 0.7214 0.64217 0.0
C904 C 0.18747 0.71723 0.62048 0.0
C905 C 0.19462 0.69257 0.60745 0.0
C906 C 0.2016 0.7312 0.65597 0.0
C907 C 0.22322 0.72086 0.67861 0.0
C908 C 0.23023 0.69617 0.66647 0.0
H909 H 0.33955 0.78141 0.87881 0.0
H910 H 0.31464 0.75645 0.81795 0.0
C911 C 0.21602 0.68209 0.63131 0.0
C912 C 0.23851 0.73595 0.7149 0.0
H913 H 0.29395 0.76779 0.72463 0.0
C914 C 0.22917 0.74055 0.76502 0.0
C915 C 0.26214 0.74574 0.70011 0.0
C916 C 0.2727 0.74146 0.64629 0.0
C917 C 0.24305 0.75454 0.80124 0.0
C918 C 0.26656 0.76477 0.78623 0.0
C919 C 0.27591 0.76002 0.73602 0.0
C920 C 0.2818 0.78036 0.8221 0.0
C921 C 0.23266 0.75765 0.85558 0.0
C922 C 0.27184 0.80243 0.84368 0.0
C923 C 0.28593 0.81661 0.87881 0.0
C924 C 0.31044 0.80923 0.89244 0.0
C925 C 0.32072 0.78761 0.86927 0.0
C926 C 0.3065 0.7733 0.8345 0.0
H927 H 0.21867 0.74281 0.86513 0.0
H928 H 0.24786 0.75704 0.88516 0.0
H929 H 0.22305 0.7761 0.85841 0.0
H930 H 0.2531 0.80866 0.83348 0.0
H931 H 0.27757 0.83334 0.8954 0.0
H932 H 0.27387 0.17609 0.59082 0.0
H933 H 0.24909 0.20112 0.65166 0.0
H934 H 0.31564 0.24187 0.69638 0.0
H935 H 0.34065 0.21713 0.63507 0.0
H936 H 0.25425 0.20688 0.75951 0.0
H937 H 0.26624 0.29784 0.65539 0.0
H938 H 0.27372 0.26802 0.62584 0.0
H939 H 0.29508 0.28208 0.67142 0.0
C940 C 0.28331 0.19036 0.61354 0.0
C941 C 0.30925 0.19473 0.60766 0.0
C942 C 0.26909 0.20463 0.64834 0.0
C943 C 0.28044 0.22362 0.6778 0.0
C944 C 0.30642 0.22765 0.67314 0.0
H945 H 0.22729 0.32913 0.90831 0.0
H946 H 0.25161 0.30436 0.84623 0.0
C947 C 0.3207 0.21337 0.63831 0.0
C948 C 0.26504 0.23908 0.71361 0.0
H949 H 0.24588 0.29922 0.73754 0.0
C950 C 0.25232 0.22705 0.75464 0.0
C951 C 0.26255 0.26538 0.70702 0.0
C952 C 0.27492 0.27913 0.66229 0.0
C953 C 0.23754 0.24071 0.78994 0.0
C954 C 0.2351 0.26701 0.78341 0.0
C955 C 0.24778 0.27904 0.74234 0.0
C956 C 0.21992 0.28248 0.81957 0.0
C957 C 0.22515 0.22697 0.83465 0.0
C958 C 0.1939 0.27875 0.8243 0.0
C959 C 0.17988 0.2929 0.85981 0.0
C960 C 0.19164 0.31108 0.89113 0.0
C961 C 0.21762 0.3152 0.88509 0.0
C962 C 0.23158 0.30108 0.84959 0.0
H963 H 0.23357 0.2081 0.84115 0.0
H964 H 0.22665 0.23794 0.87124 0.0
H965 H 0.20491 0.22437 0.82584 0.0
H966 H 0.18447 0.26481 0.80069 0.0
H967 H 0.1599 0.28934 0.86318 0.0
H968 H 0.78656 0.34321 0.63369 0.0
H969 H 0.76187 0.31905 0.69728 0.0
H970 H 0.80332 0.25211 0.65791 0.0
H971 H 0.82816 0.27594 0.59507 0.0
H972 H 0.73141 0.27677 0.67702 0.0
H973 H 0.80718 0.25307 0.81701 0.0
H974 H 0.81044 0.27759 0.76863 0.0
H975 H 0.81452 0.24518 0.75077 0.0
C976 C 0.7906 0.32341 0.63897 0.0
C977 C 0.80939 0.31156 0.60924 0.0
C978 C 0.77644 0.30963 0.67523 0.0
C979 C 0.78098 0.28386 0.68277 0.0
C980 C 0.79982 0.27207 0.65348 0.0
H981 H 0.71508 0.16264 0.86494 0.0
H982 H 0.73917 0.18822 0.80296 0.0
C983 C 0.81391 0.28575 0.61728 0.0
C984 C 0.76538 0.26891 0.7195 0.0
H985 H 0.76869 0.23068 0.82653 0.0
C986 C 0.7395 0.26686 0.70999 0.0
C987 C 0.77602 0.25587 0.76228 0.0
C988 C 0.80352 0.25817 0.77569 0.0
C989 C 0.72404 0.25166 0.74143 0.0
C990 C 0.73472 0.23849 0.78398 0.0
C991 C 0.76058 0.24067 0.79368 0.0
C992 C 0.71933 0.22277 0.81969 0.0
C993 C 0.69654 0.24933 0.72805 0.0
C994 C 0.70022 0.23371 0.84965 0.0
C995 C 0.68643 0.21919 0.885 0.0
C996 C 0.69155 0.19339 0.89145 0.0
C997 C 0.71058 0.18241 0.86094 0.0
C998 C 0.72441 0.19701 0.82558 0.0
H999 H 0.69274 0.25503 0.68711 0.0
H1000 H 0.68983 0.22976 0.7339 0.0
H1001 H 0.68547 0.26181 0.75394 0.0
H1002 H 0.69628 0.25364 0.84646 0.0
H1003 H 0.67198 0.22833 0.90787 0.0
H1004 H 0.67452 0.77597 0.59304 0.0
H1005 H 0.69921 0.752 0.65591 0.0
H1006 H 0.73957 0.81915 0.69818 0.0
H1007 H 0.71511 0.8434 0.63463 0.0
H1008 H 0.77077 0.77796 0.67828 0.0
H1009 H 0.69419 0.75143 0.81453 0.0
H1010 H 0.68775 0.74369 0.74786 0.0
H1011 H 0.69076 0.7761 0.76655 0.0
C1012 C 0.68849 0.78578 0.61593 0.0
C1013 C 0.69279 0.81167 0.60869 0.0
C1014 C 0.7025 0.77202 0.65213 0.0
C1015 C 0.72099 0.78384 0.68225 0.0
C1016 C 0.72528 0.80969 0.67549 0.0
H1017 H 0.82906 0.72943 0.91038 0.0
H1018 H 0.80461 0.75469 0.84913 0.0
C1019 C 0.71125 0.82352 0.63922 0.0
C1020 C 0.73655 0.7689 0.71905 0.0
H1021 H 0.73315 0.73001 0.82507 0.0
C1022 C 0.76259 0.76763 0.71063 0.0
C1023 C 0.72581 0.75535 0.76109 0.0
C1024 C 0.69813 0.75684 0.77346 0.0
C1025 C 0.77812 0.75272 0.74242 0.0
C1026 C 0.76735 0.73902 0.78422 0.0
C1027 C 0.74134 0.74041 0.79281 0.0
C1028 C 0.78279 0.72345 0.82005 0.0
C1029 C 0.80583 0.75127 0.73025 0.0
C1030 C 0.77843 0.6975 0.82459 0.0
C1031 C 0.79234 0.68295 0.85979 0.0
C1032 C 0.81073 0.69413 0.89152 0.0
C1033 C 0.81512 0.72014 0.88652 0.0
C1034 C 0.80125 0.73463 0.85129 0.0
H1035 H 0.80996 0.75745 0.68974 0.0
H1036 H 0.81624 0.76376 0.75717 0.0
H1037 H 0.81299 0.73182 0.73563 0.0
H1038 H 0.76418 0.68853 0.80096 0.0
H1039 H 0.7884 0.66301 0.86264 0.0
loop_
_geom_bond_atom_site_label_1
_geom_bond_atom_site_label_2
_geom_bond_distance
_geom_bond_site_symmetry_2
_ccdc_geom_bond_type
Fe0 O2 1.918 . S
Fe0 O5 1.997 1_554 S
Fe0 O6 2.002 1_554 S
Fe0 O11 1.976 . S
Fe0 O14 1.996 . S
Fe1 O2 1.918 . S
Fe1 O9 1.997 1_554 S
Fe1 O12 1.996 . S
Fe1 O16 1.976 . S
Fe1 O19 2.002 1_554 S
O2 Fe0 1.918 . S
O2 Fe1 1.918 . S
O2 Fe3 1.918 . S
Fe3 O2 1.918 . S
Fe3 O4 2.002 1_554 S
Fe3 O13 1.976 . S
Fe3 O17 1.996 . S
Fe3 O20 1.997 1_554 S
O4 Fe3 2.002 1_556 S
O4 C21 1.295 . S
O5 Fe0 1.997 1_556 S
O5 C21 1.235 . S
O6 Fe0 2.002 1_556 S
O6 C7 1.295 . S
C7 O6 1.295 . S
C7 O9 1.235 . S
C8 O13 1.287 . S
C8 O14 1.255 . S
O9 Fe1 1.997 1_556 S
O9 C7 1.235 . S
C10 O16 1.287 . S
C10 O17 1.255 . S
O11 Fe0 1.976 . S
O11 C18 1.287 . S
O12 Fe1 1.996 . S
O12 C18 1.255 . S
O13 Fe3 1.976 . S
O13 C8 1.287 . S
O14 Fe0 1.996 . S
O14 C8 1.255 . S
C15 O19 1.295 . S
C15 O20 1.235 . S
O16 Fe1 1.976 . S
O16 C10 1.287 . S
O17 Fe3 1.996 . S
O17 C10 1.255 . S
C18 O11 1.287 . S
C18 O12 1.255 . S
O19 Fe1 2.002 1_556 S
O19 C15 1.295 . S
O20 Fe3 1.997 1_556 S
O20 C15 1.235 . S
C21 O4 1.295 . S
C21 O5 1.235 . S
Fe22 O24 1.918 . S
Fe22 O27 1.997 1_556 S
Fe22 O28 2.002 1_556 S
Fe22 O33 1.976 . S
Fe22 O36 1.996 . S
Fe23 O24 1.918 . S
Fe23 O31 1.997 1_556 S
Fe23 O34 1.996 . S
Fe23 O38 1.976 . S
Fe23 O41 2.002 1_556 S
O24 Fe22 1.918 . S
O24 Fe23 1.918 . S
O24 Fe25 1.918 . S
Fe25 O24 1.918 . S
Fe25 O26 2.002 1_556 S
Fe25 O35 1.976 . S
Fe25 O39 1.996 . S
Fe25 O42 1.997 1_556 S
O26 Fe25 2.002 1_554 S
O26 C43 1.295 . S
O27 Fe22 1.997 1_554 S
O27 C43 1.235 . S
O28 Fe22 2.002 1_554 S
O28 C29 1.295 . S
C29 O28 1.295 . S
C29 O31 1.235 . S
C30 O35 1.287 . S
C30 O36 1.255 . S
O31 Fe23 1.997 1_554 S
O31 C29 1.235 . S
C32 O38 1.287 . S
C32 O39 1.255 . S
O33 Fe22 1.976 . S
O33 C40 1.287 . S
O34 Fe23 1.996 . S
O34 C40 1.255 . S
O35 Fe25 1.976 . S
O35 C30 1.287 . S
O36 Fe22 1.996 . S
O36 C30 1.255 . S
C37 O41 1.295 . S
C37 O42 1.235 . S
O38 Fe23 1.976 . S
O38 C32 1.287 . S
O39 Fe25 1.996 . S
O39 C32 1.255 . S
C40 O33 1.287 . S
C40 O34 1.255 . S
O41 Fe23 2.002 1_554 S
O41 C37 1.295 . S
O42 Fe25 1.997 1_554 S
O42 C37 1.235 . S
C43 O26 1.295 . S
C43 O27 1.235 . S
Fe44 O46 1.918 . S
Fe44 O49 1.997 1_556 S
Fe44 O50 2.002 1_556 S
Fe44 O55 1.976 . S
Fe44 O58 1.996 . S
Fe45 O46 1.918 . S
Fe45 O53 1.997 1_556 S
Fe45 O56 1.996 . S
Fe45 O60 1.976 . S
Fe45 O63 2.002 1_556 S
O46 Fe44 1.918 . S
O46 Fe45 1.918 . S
O46 Fe47 1.918 . S
Fe47 O46 1.918 . S
Fe47 O48 2.002 1_556 S
Fe47 O57 1.976 . S
Fe47 O61 1.996 . S
Fe47 O64 1.997 1_556 S
O48 Fe47 2.002 1_554 S
O48 C65 1.295 . S
O49 Fe44 1.997 1_554 S
O49 C65 1.235 . S
O50 Fe44 2.002 1_554 S
O50 C51 1.295 . S
C51 O50 1.295 . S
C51 O53 1.235 . S
C52 O57 1.287 . S
C52 O58 1.255 . S
O53 Fe45 1.997 1_554 S
O53 C51 1.235 . S
C54 O60 1.287 . S
C54 O61 1.255 . S
O55 Fe44 1.976 . S
O55 C62 1.287 . S
O56 Fe45 1.996 . S
O56 C62 1.255 . S
O57 Fe47 1.976 . S
O57 C52 1.287 . S
O58 Fe44 1.996 . S
O58 C52 1.255 . S
C59 O63 1.295 . S
C59 O64 1.235 . S
O60 Fe45 1.976 . S
O60 C54 1.287 . S
O61 Fe47 1.996 . S
O61 C54 1.255 . S
C62 O55 1.287 . S
C62 O56 1.255 . S
O63 Fe45 2.002 1_554 S
O63 C59 1.295 . S
O64 Fe47 1.997 1_554 S
O64 C59 1.235 . S
C65 O48 1.295 . S
C65 O49 1.235 . S
Fe66 O68 1.918 . S
Fe66 O71 1.997 1_556 S
Fe66 O72 2.002 1_556 S
Fe66 O77 1.976 . S
Fe66 O80 1.996 . S
Fe67 O68 1.918 . S
Fe67 O75 1.997 1_556 S
Fe67 O78 1.996 . S
Fe67 O82 1.976 . S
Fe67 O85 2.002 1_556 S
O68 Fe66 1.918 . S
O68 Fe67 1.918 . S
O68 Fe69 1.918 . S
Fe69 O68 1.918 . S
Fe69 O70 2.002 1_556 S
Fe69 O79 1.976 . S
Fe69 O83 1.996 . S
Fe69 O86 1.997 1_556 S
O70 Fe69 2.002 1_554 S
O70 C87 1.295 . S
O71 Fe66 1.997 1_554 S
O71 C87 1.235 . S
O72 Fe66 2.002 1_554 S
O72 C73 1.295 . S
C73 O72 1.295 . S
C73 O75 1.235 . S
C74 O79 1.287 . S
C74 O80 1.255 . S
O75 Fe67 1.997 1_554 S
O75 C73 1.235 . S
C76 O82 1.287 . S
C76 O83 1.255 . S
O77 Fe66 1.976 . S
O77 C84 1.287 . S
O78 Fe67 1.996 . S
O78 C84 1.255 . S
O79 Fe69 1.976 . S
O79 C74 1.287 . S
O80 Fe66 1.996 . S
O80 C74 1.255 . S
C81 O85 1.295 . S
C81 O86 1.235 . S
O82 Fe67 1.976 . S
O82 C76 1.287 . S
O83 Fe69 1.996 . S
O83 C76 1.255 . S
C84 O77 1.287 . S
C84 O78 1.255 . S
O85 Fe67 2.002 1_554 S
O85 C81 1.295 . S
O86 Fe69 1.997 1_554 S
O86 C81 1.235 . S
C87 O70 1.295 . S
C87 O71 1.235 . S
Fe88 O90 1.918 . S
Fe88 O93 1.997 . S
Fe88 O94 2.002 . S
Fe88 O99 1.976 . S
Fe88 O102 1.996 . S
Fe89 O90 1.918 . S
Fe89 O97 1.997 . S
Fe89 O100 1.996 . S
Fe89 O104 1.976 . S
Fe89 O107 2.002 . S
O90 Fe88 1.918 . S
O90 Fe89 1.918 . S
O90 Fe91 1.918 . S
Fe91 O90 1.918 . S
Fe91 O92 2.002 . S
Fe91 O101 1.976 . S
Fe91 O105 1.996 . S
Fe91 O108 1.997 . S
O92 Fe91 2.002 . S
O92 C109 1.295 . S
O93 Fe88 1.997 . S
O93 C109 1.235 . S
O94 Fe88 2.002 . S
O94 C95 1.295 . S
C95 O94 1.295 . S
C95 O97 1.235 . S
C96 O101 1.287 . S
C96 O102 1.255 . S
O97 Fe89 1.997 . S
O97 C95 1.235 . S
C98 O104 1.287 . S
C98 O105 1.255 . S
O99 Fe88 1.976 . S
O99 C106 1.287 . S
O100 Fe89 1.996 . S
O100 C106 1.255 . S
O101 Fe91 1.976 . S
O101 C96 1.287 . S
O102 Fe88 1.996 . S
O102 C96 1.255 . S
C103 O107 1.295 . S
C103 O108 1.235 . S
O104 Fe89 1.976 . S
O104 C98 1.287 . S
O105 Fe91 1.996 . S
O105 C98 1.255 . S
C106 O99 1.287 . S
C106 O100 1.255 . S
O107 Fe89 2.002 . S
O107 C103 1.295 . S
O108 Fe91 1.997 . S
O108 C103 1.235 . S
C109 O92 1.295 . S
C109 O93 1.235 . S
Fe110 O112 1.918 . S
Fe110 O115 1.997 . S
Fe110 O116 2.002 . S
Fe110 O121 1.976 . S
Fe110 O124 1.996 . S
Fe111 O112 1.918 . S
Fe111 O119 1.997 . S
Fe111 O122 1.996 . S
Fe111 O126 1.976 . S
Fe111 O129 2.002 . S
O112 Fe110 1.918 . S
O112 Fe111 1.918 . S
O112 Fe113 1.918 . S
Fe113 O112 1.918 . S
Fe113 O114 2.002 . S
Fe113 O123 1.976 . S
Fe113 O127 1.996 . S
Fe113 O130 1.997 . S
O114 Fe113 2.002 . S
O114 C131 1.295 . S
O115 Fe110 1.997 . S
O115 C131 1.235 . S
O116 Fe110 2.002 . S
O116 C117 1.295 . S
C117 O116 1.295 . S
C117 O119 1.235 . S
C118 O123 1.287 . S
C118 O124 1.255 . S
O119 Fe111 1.997 . S
O119 C117 1.235 . S
C120 O126 1.287 . S
C120 O127 1.255 . S
O121 Fe110 1.976 . S
O121 C128 1.287 . S
O122 Fe111 1.996 . S
O122 C128 1.255 . S
O123 Fe113 1.976 . S
O123 C118 1.287 . S
O124 Fe110 1.996 . S
O124 C118 1.255 . S
C125 O129 1.295 . S
C125 O130 1.235 . S
O126 Fe111 1.976 . S
O126 C120 1.287 . S
O127 Fe113 1.996 . S
O127 C120 1.255 . S
C128 O121 1.287 . S
C128 O122 1.255 . S
O129 Fe111 2.002 . S
O129 C125 1.295 . S
O130 Fe113 1.997 . S
O130 C125 1.235 . S
C131 O114 1.295 . S
C131 O115 1.235 . S
Fe132 O134 1.918 . S
Fe132 O137 1.997 . S
Fe132 O138 2.002 . S
Fe132 O143 1.976 . S
Fe132 O146 1.996 . S
Fe133 O134 1.918 . S
Fe133 O141 1.997 . S
Fe133 O144 1.996 . S
Fe133 O148 1.976 . S
Fe133 O151 2.002 . S
O134 Fe132 1.918 . S
O134 Fe133 1.918 . S
O134 Fe135 1.918 . S
Fe135 O134 1.918 . S
Fe135 O136 2.002 . S
Fe135 O145 1.976 . S
Fe135 O149 1.996 . S
Fe135 O152 1.997 . S
O136 Fe135 2.002 . S
O136 C153 1.295 . S
O137 Fe132 1.997 . S
O137 C153 1.235 . S
O138 Fe132 2.002 . S
O138 C139 1.295 . S
C139 O138 1.295 . S
C139 O141 1.235 . S
C140 O145 1.287 . S
C140 O146 1.255 . S
O141 Fe133 1.997 . S
O141 C139 1.235 . S
C142 O148 1.287 . S
C142 O149 1.255 . S
O143 Fe132 1.976 . S
O143 C150 1.287 . S
O144 Fe133 1.996 . S
O144 C150 1.255 . S
O145 Fe135 1.976 . S
O145 C140 1.287 . S
O146 Fe132 1.996 . S
O146 C140 1.255 . S
C147 O151 1.295 . S
C147 O152 1.235 . S
O148 Fe133 1.976 . S
O148 C142 1.287 . S
O149 Fe135 1.996 . S
O149 C142 1.255 . S
C150 O143 1.287 . S
C150 O144 1.255 . S
O151 Fe133 2.002 . S
O151 C147 1.295 . S
O152 Fe135 1.997 . S
O152 C147 1.235 . S
C153 O136 1.295 . S
C153 O137 1.235 . S
Fe154 O156 1.918 . S
Fe154 O159 1.997 . S
Fe154 O160 2.002 . S
Fe154 O165 1.976 . S
Fe154 O168 1.996 . S
Fe155 O156 1.918 . S
Fe155 O163 1.997 . S
Fe155 O166 1.996 . S
Fe155 O170 1.976 . S
Fe155 O173 2.002 . S
O156 Fe154 1.918 . S
O156 Fe155 1.918 . S
O156 Fe157 1.918 . S
Fe157 O156 1.918 . S
Fe157 O158 2.002 . S
Fe157 O167 1.976 . S
Fe157 O171 1.996 . S
Fe157 O174 1.997 . S
O158 Fe157 2.002 . S
O158 C175 1.295 . S
O159 Fe154 1.997 . S
O159 C175 1.235 . S
O160 Fe154 2.002 . S
O160 C161 1.295 . S
C161 O160 1.295 . S
C161 O163 1.235 . S
C162 O167 1.287 . S
C162 O168 1.255 . S
O163 Fe155 1.997 . S
O163 C161 1.235 . S
C164 O170 1.287 . S
C164 O171 1.255 . S
O165 Fe154 1.976 . S
O165 C172 1.287 . S
O166 Fe155 1.996 . S
O166 C172 1.255 . S
O167 Fe157 1.976 . S
O167 C162 1.287 . S
O168 Fe154 1.996 . S
O168 C162 1.255 . S
C169 O173 1.295 . S
C169 O174 1.235 . S
O170 Fe155 1.976 . S
O170 C164 1.287 . S
O171 Fe157 1.996 . S
O171 C164 1.255 . S
C172 O165 1.287 . S
C172 O166 1.255 . S
O173 Fe155 2.002 . S
O173 C169 1.295 . S
O174 Fe157 1.997 . S
O174 C169 1.235 . S
C175 O158 1.295 . S
C175 O159 1.235 . S
H176 C184 0.929 . S
H177 C186 0.930 . S
H178 C188 0.930 . S
H179 C191 0.929 . S
H180 C194 0.930 . S
H181 C196 0.960 . S
H182 C196 0.960 . S
H183 C196 0.960 . S
C184 H176 0.929 . S
C184 C185 1.377 . S
C184 C186 1.384 . S
C185 C184 1.377 . S
C185 C191 1.390 . S
C186 H177 0.930 . S
C186 C184 1.384 . S
C186 C187 1.372 . S
C187 C186 1.372 . S
C187 C188 1.400 . S
C187 C192 1.490 . S
C188 H178 0.930 . S
C188 C187 1.400 . S
C188 C191 1.386 . S
H189 C205 0.930 . S
H190 C206 0.931 . S
C191 H179 0.929 . S
C191 C185 1.390 . S
C191 C188 1.386 . S
C192 C187 1.490 . S
C192 C194 1.395 . S
C192 C195 1.403 . S
H193 C199 0.930 . S
C194 H180 0.930 . S
C194 C192 1.395 . S
C194 C197 1.403 . S
C195 C192 1.403 . S
C195 C196 1.524 . S
C195 C199 1.400 . S
C196 H181 0.960 . S
C196 H182 0.960 . S
C196 H183 0.960 . S
C196 C195 1.524 . S
C197 C194 1.403 . S
C197 C198 1.392 . S
C197 C201 1.495 . S
C198 C197 1.392 . S
C198 C199 1.385 . S
C198 C200 1.478 . S
C199 H193 0.930 . S
C199 C195 1.400 . S
C199 C198 1.385 . S
C200 C198 1.478 . S
C200 C202 1.381 . S
C200 C206 1.383 . S
C201 C197 1.495 . S
C201 H207 0.959 . S
C201 H208 0.961 . S
C201 H209 0.960 . S
C202 C200 1.381 . S
C202 C203 1.394 . S
C202 H210 0.930 . S
C203 C202 1.394 . S
C203 C204 1.383 . S
C203 H211 0.929 . S
C204 C203 1.383 . S
C204 C205 1.377 . S
C205 H189 0.930 . S
C205 C204 1.377 . S
C205 C206 1.379 . S
C206 H190 0.931 . S
C206 C200 1.383 . S
C206 C205 1.379 . S
H207 C201 0.959 . S
H208 C201 0.961 . S
H209 C201 0.960 . S
H210 C202 0.930 . S
H211 C203 0.929 . S
H212 C220 0.929 . S
H213 C222 0.930 . S
H214 C224 0.930 . S
H215 C227 0.929 . S
H216 C230 0.930 . S
H217 C232 0.960 . S
H218 C232 0.960 . S
H219 C232 0.960 . S
C220 H212 0.929 . S
C220 C221 1.377 . S
C220 C222 1.384 . S
C221 C220 1.377 . S
C221 C227 1.390 . S
C222 H213 0.930 . S
C222 C220 1.384 . S
C222 C223 1.372 . S
C223 C222 1.372 . S
C223 C224 1.400 . S
C223 C228 1.490 . S
C224 H214 0.930 . S
C224 C223 1.400 . S
C224 C227 1.386 . S
H225 C241 0.930 . S
H226 C242 0.931 . S
C227 H215 0.929 . S
C227 C221 1.390 . S
C227 C224 1.386 . S
C228 C223 1.490 . S
C228 C230 1.395 . S
C228 C231 1.403 . S
H229 C235 0.930 . S
C230 H216 0.930 . S
C230 C228 1.395 . S
C230 C233 1.403 . S
C231 C228 1.403 . S
C231 C232 1.524 . S
C231 C235 1.400 . S
C232 H217 0.960 . S
C232 H218 0.960 . S
C232 H219 0.960 . S
C232 C231 1.524 . S
C233 C230 1.403 . S
C233 C234 1.392 . S
C233 C237 1.495 . S
C234 C233 1.392 . S
C234 C235 1.385 . S
C234 C236 1.478 . S
C235 H229 0.930 . S
C235 C231 1.400 . S
C235 C234 1.385 . S
C236 C234 1.478 . S
C236 C238 1.381 . S
C236 C242 1.383 . S
C237 C233 1.495 . S
C237 H243 0.959 . S
C237 H244 0.961 . S
C237 H245 0.960 . S
C238 C236 1.381 . S
C238 C239 1.394 . S
C238 H246 0.930 . S
C239 C238 1.394 . S
C239 C240 1.383 . S
C239 H247 0.929 . S
C240 C239 1.383 . S
C240 C241 1.377 . S
C241 H225 0.930 . S
C241 C240 1.377 . S
C241 C242 1.379 . S
C242 H226 0.931 . S
C242 C236 1.383 . S
C242 C241 1.379 . S
H243 C237 0.959 . S
H244 C237 0.961 . S
H245 C237 0.960 . S
H246 C238 0.930 . S
H247 C239 0.929 . S
H248 C256 0.929 . S
H249 C258 0.930 . S
H250 C260 0.930 . S
H251 C263 0.929 . S
H252 C266 0.930 . S
H253 C268 0.960 . S
H254 C268 0.960 . S
H255 C268 0.960 . S
C256 H248 0.929 . S
C256 C257 1.377 . S
C256 C258 1.384 . S
C257 C256 1.377 . S
C257 C263 1.390 . S
C258 H249 0.930 . S
C258 C256 1.384 . S
C258 C259 1.372 . S
C259 C258 1.372 . S
C259 C260 1.400 . S
C259 C264 1.490 . S
C260 H250 0.930 . S
C260 C259 1.400 . S
C260 C263 1.386 . S
H261 C277 0.930 . S
H262 C278 0.931 . S
C263 H251 0.929 . S
C263 C257 1.390 . S
C263 C260 1.386 . S
C264 C259 1.490 . S
C264 C266 1.395 . S
C264 C267 1.403 . S
H265 C271 0.930 . S
C266 H252 0.930 . S
C266 C264 1.395 . S
C266 C269 1.403 . S
C267 C264 1.403 . S
C267 C268 1.524 . S
C267 C271 1.400 . S
C268 H253 0.960 . S
C268 H254 0.960 . S
C268 H255 0.960 . S
C268 C267 1.524 . S
C269 C266 1.403 . S
C269 C270 1.392 . S
C269 C273 1.495 . S
C270 C269 1.392 . S
C270 C271 1.385 . S
C270 C272 1.478 . S
C271 H265 0.930 . S
C271 C267 1.400 . S
C271 C270 1.385 . S
C272 C270 1.478 . S
C272 C274 1.381 . S
C272 C278 1.383 . S
C273 C269 1.495 . S
C273 H279 0.959 . S
C273 H280 0.961 . S
C273 H281 0.960 . S
C274 C272 1.381 . S
C274 C275 1.394 . S
C274 H282 0.930 . S
C275 C274 1.394 . S
C275 C276 1.383 . S
C275 H283 0.929 . S
C276 C275 1.383 . S
C276 C277 1.377 . S
C277 H261 0.930 . S
C277 C276 1.377 . S
C277 C278 1.379 . S
C278 H262 0.931 . S
C278 C272 1.383 . S
C278 C277 1.379 . S
H279 C273 0.959 . S
H280 C273 0.961 . S
H281 C273 0.960 . S
H282 C274 0.930 . S
H283 C275 0.929 . S
H284 C292 0.929 . S
H285 C294 0.930 . S
H286 C296 0.930 . S
H287 C299 0.929 . S
H288 C302 0.930 . S
H289 C304 0.960 . S
H290 C304 0.960 . S
H291 C304 0.960 . S
C292 H284 0.929 . S
C292 C293 1.377 . S
C292 C294 1.384 . S
C293 C292 1.377 . S
C293 C299 1.390 . S
C294 H285 0.930 . S
C294 C292 1.384 . S
C294 C295 1.372 . S
C295 C294 1.372 . S
C295 C296 1.400 . S
C295 C300 1.490 . S
C296 H286 0.930 . S
C296 C295 1.400 . S
C296 C299 1.386 . S
H297 C313 0.930 . S
H298 C314 0.931 . S
C299 H287 0.929 . S
C299 C293 1.390 . S
C299 C296 1.386 . S
C300 C295 1.490 . S
C300 C302 1.395 . S
C300 C303 1.403 . S
H301 C307 0.930 . S
C302 H288 0.930 . S
C302 C300 1.395 . S
C302 C305 1.403 . S
C303 C300 1.403 . S
C303 C304 1.524 . S
C303 C307 1.400 . S
C304 H289 0.960 . S
C304 H290 0.960 . S
C304 H291 0.960 . S
C304 C303 1.524 . S
C305 C302 1.403 . S
C305 C306 1.392 . S
C305 C309 1.495 . S
C306 C305 1.392 . S
C306 C307 1.385 . S
C306 C308 1.478 . S
C307 H301 0.930 . S
C307 C303 1.400 . S
C307 C306 1.385 . S
C308 C306 1.478 . S
C308 C310 1.381 . S
C308 C314 1.383 . S
C309 C305 1.495 . S
C309 H315 0.959 . S
C309 H316 0.961 . S
C309 H317 0.960 . S
C310 C308 1.381 . S
C310 C311 1.394 . S
C310 H318 0.930 . S
C311 C310 1.394 . S
C311 C312 1.383 . S
C311 H319 0.929 . S
C312 C311 1.383 . S
C312 C313 1.377 . S
C313 H297 0.930 . S
C313 C312 1.377 . S
C313 C314 1.379 . S
C314 H298 0.931 . S
C314 C308 1.383 . S
C314 C313 1.379 . S
H315 C309 0.959 . S
H316 C309 0.961 . S
H317 C309 0.960 . S
H318 C310 0.930 . S
H319 C311 0.929 . S
H320 C328 0.929 . S
H321 C330 0.930 . S
H322 C332 0.930 . S
H323 C335 0.929 . S
H324 C338 0.930 . S
H325 C340 0.960 . S
H326 C340 0.960 . S
H327 C340 0.960 . S
C328 H320 0.929 . S
C328 C329 1.377 . S
C328 C330 1.384 . S
C329 C328 1.377 . S
C329 C335 1.390 . S
C330 H321 0.930 . S
C330 C328 1.384 . S
C330 C331 1.372 . S
C331 C330 1.372 . S
C331 C332 1.400 . S
C331 C336 1.490 . S
C332 H322 0.930 . S
C332 C331 1.400 . S
C332 C335 1.386 . S
H333 C349 0.930 . S
H334 C350 0.931 . S
C335 H323 0.929 . S
C335 C329 1.390 . S
C335 C332 1.386 . S
C336 C331 1.490 . S
C336 C338 1.395 . S
C336 C339 1.403 . S
H337 C343 0.930 . S
C338 H324 0.930 . S
C338 C336 1.395 . S
C338 C341 1.403 . S
C339 C336 1.403 . S
C339 C340 1.524 . S
C339 C343 1.400 . S
C340 H325 0.960 . S
C340 H326 0.960 . S
C340 H327 0.960 . S
C340 C339 1.524 . S
C341 C338 1.403 . S
C341 C342 1.392 . S
C341 C345 1.495 . S
C342 C341 1.392 . S
C342 C343 1.385 . S
C342 C344 1.478 . S
C343 H337 0.930 . S
C343 C339 1.400 . S
C343 C342 1.385 . S
C344 C342 1.478 . S
C344 C346 1.381 . S
C344 C350 1.383 . S
C345 C341 1.495 . S
C345 H351 0.959 . S
C345 H352 0.961 . S
C345 H353 0.960 . S
C346 C344 1.381 . S
C346 C347 1.394 . S
C346 H354 0.930 . S
C347 C346 1.394 . S
C347 C348 1.383 . S
C347 H355 0.929 . S
C348 C347 1.383 . S
C348 C349 1.377 . S
C349 H333 0.930 . S
C349 C348 1.377 . S
C349 C350 1.379 . S
C350 H334 0.931 . S
C350 C344 1.383 . S
C350 C349 1.379 . S
H351 C345 0.959 . S
H352 C345 0.961 . S
H353 C345 0.960 . S
H354 C346 0.930 . S
H355 C347 0.929 . S
H356 C364 0.929 . S
H357 C366 0.930 . S
H358 C368 0.930 . S
H359 C371 0.929 . S
H360 C374 0.930 . S
H361 C376 0.960 . S
H362 C376 0.960 . S
H363 C376 0.960 . S
C364 H356 0.929 . S
C364 C365 1.377 . S
C364 C366 1.384 . S
C365 C364 1.377 . S
C365 C371 1.390 . S
C366 H357 0.930 . S
C366 C364 1.384 . S
C366 C367 1.372 . S
C367 C366 1.372 . S
C367 C368 1.400 . S
C367 C372 1.490 . S
C368 H358 0.930 . S
C368 C367 1.400 . S
C368 C371 1.386 . S
H369 C385 0.930 . S
H370 C386 0.931 . S
C371 H359 0.929 . S
C371 C365 1.390 . S
C371 C368 1.386 . S
C372 C367 1.490 . S
C372 C374 1.395 . S
C372 C375 1.403 . S
H373 C379 0.930 . S
C374 H360 0.930 . S
C374 C372 1.395 . S
C374 C377 1.403 . S
C375 C372 1.403 . S
C375 C376 1.524 . S
C375 C379 1.400 . S
C376 H361 0.960 . S
C376 H362 0.960 . S
C376 H363 0.960 . S
C376 C375 1.524 . S
C377 C374 1.403 . S
C377 C378 1.392 . S
C377 C381 1.495 . S
C378 C377 1.392 . S
C378 C379 1.385 . S
C378 C380 1.478 . S
C379 H373 0.930 . S
C379 C375 1.400 . S
C379 C378 1.385 . S
C380 C378 1.478 . S
C380 C382 1.381 . S
C380 C386 1.383 . S
C381 C377 1.495 . S
C381 H387 0.959 . S
C381 H388 0.961 . S
C381 H389 0.960 . S
C382 C380 1.381 . S
C382 C383 1.394 . S
C382 H390 0.930 . S
C383 C382 1.394 . S
C383 C384 1.383 . S
C383 H391 0.929 . S
C384 C383 1.383 . S
C384 C385 1.377 . S
C385 H369 0.930 . S
C385 C384 1.377 . S
C385 C386 1.379 . S
C386 H370 0.931 . S
C386 C380 1.383 . S
C386 C385 1.379 . S
H387 C381 0.959 . S
H388 C381 0.961 . S
H389 C381 0.960 . S
H390 C382 0.930 . S
H391 C383 0.929 . S
H392 C400 0.929 . S
H393 C402 0.930 . S
H394 C404 0.930 . S
H395 C407 0.929 . S
H396 C410 0.930 . S
H397 C412 0.960 . S
H398 C412 0.960 . S
H399 C412 0.960 . S
C400 H392 0.929 . S
C400 C401 1.377 . S
C400 C402 1.384 . S
C401 C400 1.377 . S
C401 C407 1.390 . S
C402 H393 0.930 . S
C402 C400 1.384 . S
C402 C403 1.372 . S
C403 C402 1.372 . S
C403 C404 1.400 . S
C403 C408 1.490 . S
C404 H394 0.930 . S
C404 C403 1.400 . S
C404 C407 1.386 . S
H405 C421 0.930 . S
H406 C422 0.931 . S
C407 H395 0.929 . S
C407 C401 1.390 . S
C407 C404 1.386 . S
C408 C403 1.490 . S
C408 C410 1.395 . S
C408 C411 1.403 . S
H409 C415 0.930 . S
C410 H396 0.930 . S
C410 C408 1.395 . S
C410 C413 1.403 . S
C411 C408 1.403 . S
C411 C412 1.524 . S
C411 C415 1.400 . S
C412 H397 0.960 . S
C412 H398 0.960 . S
C412 H399 0.960 . S
C412 C411 1.524 . S
C413 C410 1.403 . S
C413 C414 1.392 . S
C413 C417 1.495 . S
C414 C413 1.392 . S
C414 C415 1.385 . S
C414 C416 1.478 . S
C415 H409 0.930 . S
C415 C411 1.400 . S
C415 C414 1.385 . S
C416 C414 1.478 . S
C416 C418 1.381 . S
C416 C422 1.383 . S
C417 C413 1.495 . S
C417 H423 0.959 . S
C417 H424 0.961 . S
C417 H425 0.960 . S
C418 C416 1.381 . S
C418 C419 1.394 . S
C418 H426 0.930 . S
C419 C418 1.394 . S
C419 C420 1.383 . S
C419 H427 0.929 . S
C420 C419 1.383 . S
C420 C421 1.377 . S
C421 H405 0.930 . S
C421 C420 1.377 . S
C421 C422 1.379 . S
C422 H406 0.931 . S
C422 C416 1.383 . S
C422 C421 1.379 . S
H423 C417 0.959 . S
H424 C417 0.961 . S
H425 C417 0.960 . S
H426 C418 0.930 . S
H427 C419 0.929 . S
H428 C436 0.929 . S
H429 C438 0.930 . S
H430 C440 0.930 . S
H431 C443 0.929 . S
H432 C446 0.930 . S
H433 C448 0.960 . S
H434 C448 0.960 . S
H435 C448 0.960 . S
C436 H428 0.929 . S
C436 C437 1.377 . S
C436 C438 1.384 . S
C437 C436 1.377 . S
C437 C443 1.390 . S
C438 H429 0.930 . S
C438 C436 1.384 . S
C438 C439 1.372 . S
C439 C438 1.372 . S
C439 C440 1.400 . S
C439 C444 1.490 . S
C440 H430 0.930 . S
C440 C439 1.400 . S
C440 C443 1.386 . S
H441 C457 0.930 . S
H442 C458 0.931 . S
C443 H431 0.929 . S
C443 C437 1.390 . S
C443 C440 1.386 . S
C444 C439 1.490 . S
C444 C446 1.395 . S
C444 C447 1.403 . S
H445 C451 0.930 . S
C446 H432 0.930 . S
C446 C444 1.395 . S
C446 C449 1.403 . S
C447 C444 1.403 . S
C447 C448 1.524 . S
C447 C451 1.400 . S
C448 H433 0.960 . S
C448 H434 0.960 . S
C448 H435 0.960 . S
C448 C447 1.524 . S
C449 C446 1.403 . S
C449 C450 1.392 . S
C449 C453 1.495 . S
C450 C449 1.392 . S
C450 C451 1.385 . S
C450 C452 1.478 . S
C451 H445 0.930 . S
C451 C447 1.400 . S
C451 C450 1.385 . S
C452 C450 1.478 . S
C452 C454 1.381 . S
C452 C458 1.383 . S
C453 C449 1.495 . S
C453 H459 0.959 . S
C453 H460 0.961 . S
C453 H461 0.960 . S
C454 C452 1.381 . S
C454 C455 1.394 . S
C454 H462 0.930 . S
C455 C454 1.394 . S
C455 C456 1.383 . S
C455 H463 0.929 . S
C456 C455 1.383 . S
C456 C457 1.377 . S
C457 H441 0.930 . S
C457 C456 1.377 . S
C457 C458 1.379 . S
C458 H442 0.931 . S
C458 C452 1.383 . S
C458 C457 1.379 . S
H459 C453 0.959 . S
H460 C453 0.961 . S
H461 C453 0.960 . S
H462 C454 0.930 . S
H463 C455 0.929 . S
H464 C472 0.929 . S
H465 C474 0.930 . S
H466 C476 0.930 . S
H467 C479 0.929 . S
H468 C482 0.930 . S
H469 C484 0.960 . S
H470 C484 0.960 . S
H471 C484 0.960 . S
C472 H464 0.929 . S
C472 C473 1.377 . S
C472 C474 1.384 . S
C473 C472 1.377 . S
C473 C479 1.390 . S
C474 H465 0.930 . S
C474 C472 1.384 . S
C474 C475 1.372 . S
C475 C474 1.372 . S
C475 C476 1.400 . S
C475 C480 1.490 . S
C476 H466 0.930 . S
C476 C475 1.400 . S
C476 C479 1.386 . S
H477 C493 0.930 . S
H478 C494 0.931 . S
C479 H467 0.929 . S
C479 C473 1.390 . S
C479 C476 1.386 . S
C480 C475 1.490 . S
C480 C482 1.395 1_655 S
C480 C483 1.403 . S
H481 C487 0.930 . S
C482 H468 0.930 . S
C482 C480 1.395 1_455 S
C482 C485 1.403 . S
C483 C480 1.403 . S
C483 C484 1.524 . S
C483 C487 1.400 1_655 S
C484 H469 0.960 . S
C484 H470 0.960 . S
C484 H471 0.960 . S
C484 C483 1.524 . S
C485 C482 1.403 . S
C485 C486 1.392 . S
C485 C489 1.495 . S
C486 C485 1.392 . S
C486 C487 1.385 . S
C486 C488 1.478 . S
C487 H481 0.930 . S
C487 C483 1.400 1_455 S
C487 C486 1.385 . S
C488 C486 1.478 . S
C488 C490 1.381 . S
C488 C494 1.383 . S
C489 C485 1.495 . S
C489 H495 0.959 . S
C489 H496 0.961 . S
C489 H497 0.960 . S
C490 C488 1.381 . S
C490 C491 1.394 . S
C490 H498 0.930 . S
C491 C490 1.394 . S
C491 C492 1.383 . S
C491 H499 0.929 . S
C492 C491 1.383 . S
C492 C493 1.377 . S
C493 H477 0.930 . S
C493 C492 1.377 . S
C493 C494 1.379 . S
C494 H478 0.931 . S
C494 C488 1.383 . S
C494 C493 1.379 . S
H495 C489 0.959 . S
H496 C489 0.961 . S
H497 C489 0.960 . S
H498 C490 0.930 . S
H499 C491 0.929 . S
H500 C508 0.929 . S
H501 C510 0.930 . S
H502 C512 0.930 . S
H503 C515 0.929 . S
H504 C518 0.930 . S
H505 C520 0.960 . S
H506 C520 0.960 . S
H507 C520 0.960 . S
C508 H500 0.929 . S
C508 C509 1.377 . S
C508 C510 1.384 . S
C509 C508 1.377 . S
C509 C515 1.390 . S
C510 H501 0.930 . S
C510 C508 1.384 . S
C510 C511 1.372 . S
C511 C510 1.372 . S
C511 C512 1.400 . S
C511 C516 1.490 . S
C512 H502 0.930 . S
C512 C511 1.400 . S
C512 C515 1.386 . S
H513 C529 0.930 . S
H514 C530 0.931 . S
C515 H503 0.929 . S
C515 C509 1.390 . S
C515 C512 1.386 . S
C516 C511 1.490 . S
C516 C518 1.395 1_545 S
C516 C519 1.403 . S
H517 C523 0.929 . S
C518 H504 0.930 . S
C518 C516 1.395 1_565 S
C518 C521 1.403 . S
C519 C516 1.403 . S
C519 C520 1.524 . S
C519 C523 1.403 . S
C520 H505 0.960 . S
C520 H506 0.960 . S
C520 H507 0.960 . S
C520 C519 1.524 . S
C521 C518 1.403 . S
C521 C522 1.392 . S
C521 C525 1.495 . S
C522 C521 1.392 . S
C522 C523 1.382 1_565 S
C522 C524 1.478 . S
C523 H517 0.929 . S
C523 C519 1.403 . S
C523 C522 1.382 1_545 S
C524 C522 1.478 . S
C524 C526 1.381 . S
C524 C530 1.383 . S
C525 C521 1.495 . S
C525 H531 0.959 . S
C525 H532 0.961 . S
C525 H533 0.960 . S
C526 C524 1.381 . S
C526 C527 1.394 . S
C526 H534 0.930 . S
C527 C526 1.394 . S
C527 C528 1.383 . S
C527 H535 0.929 . S
C528 C527 1.383 . S
C528 C529 1.377 . S
C529 H513 0.930 . S
C529 C528 1.377 . S
C529 C530 1.379 . S
C530 H514 0.931 . S
C530 C524 1.383 . S
C530 C529 1.379 . S
H531 C525 0.959 . S
H532 C525 0.961 . S
H533 C525 0.960 . S
H534 C526 0.930 . S
H535 C527 0.929 . S
H536 C544 0.929 . S
H537 C546 0.930 . S
H538 C548 0.930 . S
H539 C551 0.929 . S
H540 C554 0.930 . S
H541 C556 0.960 . S
H542 C556 0.960 . S
H543 C556 0.960 . S
C544 H536 0.929 . S
C544 C545 1.377 . S
C544 C546 1.384 . S
C545 C544 1.377 . S
C545 C551 1.390 . S
C546 H537 0.930 . S
C546 C544 1.384 . S
C546 C547 1.372 . S
C547 C546 1.372 . S
C547 C548 1.400 . S
C547 C552 1.490 . S
C548 H538 0.930 . S
C548 C547 1.400 . S
C548 C551 1.386 . S
H549 C565 0.930 . S
H550 C566 0.931 . S
C551 H539 0.929 . S
C551 C545 1.390 . S
C551 C548 1.386 . S
C552 C547 1.490 . S
C552 C554 1.395 1_655 S
C552 C555 1.403 . S
H553 C559 0.930 . S
C554 H540 0.930 . S
C554 C552 1.395 1_455 S
C554 C557 1.403 . S
C555 C552 1.403 . S
C555 C556 1.524 . S
C555 C559 1.365 1_655 S
C556 H541 0.960 . S
C556 H542 0.960 . S
C556 H543 0.960 . S
C556 C555 1.524 . S
C557 C554 1.403 . S
C557 C558 1.392 . S
C557 C561 1.495 . S
C558 C557 1.392 . S
C558 C559 1.420 . S
C558 C560 1.478 . S
C559 H553 0.930 . S
C559 C555 1.365 1_455 S
C559 C558 1.420 . S
C560 C558 1.478 . S
C560 C562 1.381 . S
C560 C566 1.383 . S
C561 C557 1.495 . S
C561 H567 0.959 . S
C561 H568 0.961 . S
C561 H569 0.960 . S
C562 C560 1.381 . S
C562 C563 1.394 . S
C562 H570 0.930 . S
C563 C562 1.394 . S
C563 C564 1.383 . S
C563 H571 0.929 . S
C564 C563 1.383 . S
C564 C565 1.377 . S
C565 H549 0.930 . S
C565 C564 1.377 . S
C565 C566 1.379 . S
C566 H550 0.931 . S
C566 C560 1.383 . S
C566 C565 1.379 . S
H567 C561 0.959 . S
H568 C561 0.961 . S
H569 C561 0.960 . S
H570 C562 0.930 . S
H571 C563 0.929 . S
H572 C580 0.929 . S
H573 C582 0.930 . S
H574 C584 0.930 . S
H575 C587 0.929 . S
H576 C590 0.930 . S
H577 C592 0.960 . S
H578 C592 0.960 . S
H579 C592 0.960 . S
C580 H572 0.929 . S
C580 C581 1.377 . S
C580 C582 1.384 . S
C581 C580 1.377 . S
C581 C587 1.390 . S
C582 H573 0.930 . S
C582 C580 1.384 . S
C582 C583 1.372 . S
C583 C582 1.372 . S
C583 C584 1.400 . S
C583 C588 1.490 . S
C584 H574 0.930 . S
C584 C583 1.400 . S
C584 C587 1.386 . S
H585 C601 0.930 . S
H586 C602 0.931 . S
C587 H575 0.929 . S
C587 C581 1.390 . S
C587 C584 1.386 . S
C588 C583 1.490 . S
C588 C590 1.395 1_545 S
C588 C591 1.403 . S
H589 C595 0.928 1_545 S
C590 H576 0.930 . S
C590 C588 1.395 1_565 S
C590 C593 1.403 . S
C591 C588 1.403 . S
C591 C592 1.524 . S
C591 C595 1.396 1_545 S
C592 H577 0.960 . S
C592 H578 0.960 . S
C592 H579 0.960 . S
C592 C591 1.524 . S
C593 C590 1.403 . S
C593 C594 1.392 . S
C593 C597 1.495 . S
C594 C593 1.392 . S
C594 C595 1.389 . S
C594 C596 1.478 . S
C595 H589 0.928 1_565 S
C595 C591 1.396 1_565 S
C595 C594 1.389 . S
C596 C594 1.478 . S
C596 C598 1.381 . S
C596 C602 1.383 . S
C597 C593 1.495 . S
C597 H603 0.959 . S
C597 H604 0.961 . S
C597 H605 0.960 . S
C598 C596 1.381 . S
C598 C599 1.394 . S
C598 H606 0.930 . S
C599 C598 1.394 . S
C599 C600 1.383 . S
C599 H607 0.929 . S
C600 C599 1.383 . S
C600 C601 1.377 . S
C601 H585 0.930 . S
C601 C600 1.377 . S
C601 C602 1.379 . S
C602 H586 0.931 . S
C602 C596 1.383 . S
C602 C601 1.379 . S
H603 C597 0.959 . S
H604 C597 0.961 . S
H605 C597 0.960 . S
H606 C598 0.930 . S
H607 C599 0.929 . S
H608 C616 0.929 . S
H609 C618 0.930 . S
H610 C620 0.930 . S
H611 C623 0.929 . S
H612 C626 0.930 . S
H613 C628 0.960 . S
H614 C628 0.960 . S
H615 C628 0.960 . S
C616 H608 0.929 . S
C616 C617 1.377 . S
C616 C618 1.384 . S
C617 C616 1.377 . S
C617 C623 1.390 . S
C618 H609 0.930 . S
C618 C616 1.384 . S
C618 C619 1.372 . S
C619 C618 1.372 . S
C619 C620 1.400 . S
C619 C624 1.490 . S
C620 H610 0.930 . S
C620 C619 1.400 . S
C620 C623 1.386 . S
H621 C637 0.930 . S
H622 C638 0.931 . S
C623 H611 0.929 . S
C623 C617 1.390 . S
C623 C620 1.386 . S
C624 C619 1.490 . S
C624 C626 1.395 1_455 S
C624 C627 1.403 . S
H625 C631 0.935 . S
C626 H612 0.930 . S
C626 C624 1.395 1_655 S
C626 C629 1.403 . S
C627 C624 1.403 . S
C627 C628 1.524 . S
C627 C631 1.440 . S
C628 H613 0.960 . S
C628 H614 0.960 . S
C628 H615 0.960 . S
C628 C627 1.524 . S
C629 C626 1.403 . S
C629 C630 1.392 . S
C629 C633 1.495 . S
C630 C629 1.392 . S
C630 C631 1.342 1_655 S
C630 C632 1.478 . S
C631 H625 0.935 . S
C631 C627 1.440 . S
C631 C630 1.342 1_455 S
C632 C630 1.478 . S
C632 C634 1.381 . S
C632 C638 1.383 . S
C633 C629 1.495 . S
C633 H639 0.959 . S
C633 H640 0.961 . S
C633 H641 0.960 . S
C634 C632 1.381 . S
C634 C635 1.394 . S
C634 H642 0.930 . S
C635 C634 1.394 . S
C635 C636 1.383 . S
C635 H643 0.929 . S
C636 C635 1.383 . S
C636 C637 1.377 . S
C637 H621 0.930 . S
C637 C636 1.377 . S
C637 C638 1.379 . S
C638 H622 0.931 . S
C638 C632 1.383 . S
C638 C637 1.379 . S
H639 C633 0.959 . S
H640 C633 0.961 . S
H641 C633 0.960 . S
H642 C634 0.930 . S
H643 C635 0.929 . S
H644 C652 0.929 . S
H645 C654 0.930 . S
H646 C656 0.930 . S
H647 C659 0.929 . S
H648 C662 0.930 . S
H649 C664 0.960 1_545 S
H650 C664 0.958 1_545 S
H651 C664 0.960 . S
C652 H644 0.929 . S
C652 C653 1.377 . S
C652 C654 1.384 . S
C653 C652 1.377 . S
C653 C659 1.390 . S
C654 H645 0.930 . S
C654 C652 1.384 . S
C654 C655 1.372 . S
C655 C654 1.372 . S
C655 C656 1.400 . S
C655 C660 1.490 . S
C656 H646 0.930 . S
C656 C655 1.400 . S
C656 C659 1.386 . S
H657 C673 0.930 . S
H658 C674 0.931 . S
C659 H647 0.929 . S
C659 C653 1.390 . S
C659 C656 1.386 . S
C660 C655 1.490 . S
C660 C662 1.395 . S
C660 C663 1.403 . S
H661 C667 0.930 . S
C662 H648 0.930 . S
C662 C660 1.395 . S
C662 C665 1.403 1_565 S
C663 C660 1.403 . S
C663 C664 1.524 . S
C663 C667 1.400 1_565 S
C664 H649 0.960 1_565 S
C664 H650 0.958 1_565 S
C664 H651 0.960 . S
C664 C663 1.524 . S
C665 C662 1.403 1_545 S
C665 C666 1.392 . S
C665 C669 1.495 . S
C666 C665 1.392 . S
C666 C667 1.385 . S
C666 C668 1.478 . S
C667 H661 0.930 . S
C667 C663 1.400 1_545 S
C667 C666 1.385 . S
C668 C666 1.478 . S
C668 C670 1.381 . S
C668 C674 1.383 . S
C669 C665 1.495 . S
C669 H675 0.959 1_545 S
C669 H676 0.964 . S
C669 H677 0.960 . S
C670 C668 1.381 . S
C670 C671 1.394 . S
C670 H678 0.930 . S
C671 C670 1.394 . S
C671 C672 1.383 . S
C671 H679 0.929 . S
C672 C671 1.383 . S
C672 C673 1.377 . S
C673 H657 0.930 . S
C673 C672 1.377 . S
C673 C674 1.379 . S
C674 H658 0.931 . S
C674 C668 1.383 . S
C674 C673 1.379 . S
H675 C669 0.959 1_565 S
H676 C669 0.964 . S
H677 C669 0.960 . S
H678 C670 0.930 . S
H679 C671 0.929 . S
H680 C688 0.929 . S
H681 C690 0.930 . S
H682 C692 0.930 . S
H683 C695 0.929 . S
H684 C698 0.930 . S
H685 C700 0.960 . S
H686 C700 0.960 . S
H687 C700 0.960 . S
C688 H680 0.929 . S
C688 C689 1.377 . S
C688 C690 1.384 . S
C689 C688 1.377 . S
C689 C695 1.390 . S
C690 H681 0.930 . S
C690 C688 1.384 . S
C690 C691 1.372 . S
C691 C690 1.372 . S
C691 C692 1.400 . S
C691 C696 1.490 . S
C692 H682 0.930 . S
C692 C691 1.400 . S
C692 C695 1.386 . S
H693 C709 0.930 . S
H694 C710 0.931 . S
C695 H683 0.929 . S
C695 C689 1.390 . S
C695 C692 1.386 . S
C696 C691 1.490 . S
C696 C698 1.395 . S
C696 C699 1.403 . S
H697 C703 0.930 . S
C698 H684 0.930 . S
C698 C696 1.395 . S
C698 C701 1.403 1_655 S
C699 C696 1.403 . S
C699 C700 1.524 . S
C699 C703 1.400 1_655 S
C700 H685 0.960 . S
C700 H686 0.960 . S
C700 H687 0.960 . S
C700 C699 1.524 . S
C701 C698 1.403 1_455 S
C701 C702 1.392 . S
C701 C705 1.495 . S
C702 C701 1.392 . S
C702 C703 1.385 . S
C702 C704 1.478 . S
C703 H697 0.930 . S
C703 C699 1.400 1_455 S
C703 C702 1.385 . S
C704 C702 1.478 . S
C704 C706 1.381 . S
C704 C710 1.383 . S
C705 C701 1.495 . S
C705 H711 0.959 . S
C705 H712 0.961 . S
C705 H713 0.960 . S
C706 C704 1.381 . S
C706 C707 1.394 . S
C706 H714 0.930 . S
C707 C706 1.394 . S
C707 C708 1.383 . S
C707 H715 0.929 . S
C708 C707 1.383 . S
C708 C709 1.377 . S
C709 H693 0.930 . S
C709 C708 1.377 . S
C709 C710 1.379 . S
C710 H694 0.931 . S
C710 C704 1.383 . S
C710 C709 1.379 . S
H711 C705 0.959 . S
H712 C705 0.961 . S
H713 C705 0.960 . S
H714 C706 0.930 . S
H715 C707 0.929 . S
H716 C724 0.929 . S
H717 C726 0.930 . S
H718 C728 0.930 . S
H719 C731 0.929 . S
H720 C734 0.930 . S
H721 C736 0.960 1_545 S
H722 C736 0.960 . S
H723 C736 0.960 . S
C724 H716 0.929 . S
C724 C725 1.377 . S
C724 C726 1.384 . S
C725 C724 1.377 . S
C725 C731 1.390 . S
C726 H717 0.930 . S
C726 C724 1.384 . S
C726 C727 1.372 . S
C727 C726 1.372 . S
C727 C728 1.400 . S
C727 C732 1.490 . S
C728 H718 0.930 . S
C728 C727 1.400 . S
C728 C731 1.386 . S
H729 C745 0.930 . S
H730 C746 0.931 . S
C731 H719 0.929 . S
C731 C725 1.390 . S
C731 C728 1.386 . S
C732 C727 1.490 . S
C732 C734 1.395 . S
C732 C735 1.403 . S
H733 C739 0.930 . S
C734 H720 0.930 . S
C734 C732 1.395 . S
C734 C737 1.412 . S
C735 C732 1.403 . S
C735 C736 1.524 . S
C735 C739 1.400 1_565 S
C736 H721 0.960 1_565 S
C736 H722 0.960 . S
C736 H723 0.960 . S
C736 C735 1.524 . S
C737 C734 1.412 . S
C737 C738 1.385 1_565 S
C737 C741 1.495 1_565 S
C738 C737 1.385 1_545 S
C738 C739 1.385 . S
C738 C740 1.478 . S
C739 H733 0.930 . S
C739 C735 1.400 1_545 S
C739 C738 1.385 . S
C740 C738 1.478 . S
C740 C742 1.381 . S
C740 C746 1.383 . S
C741 C737 1.495 1_545 S
C741 H747 0.959 1_545 S
C741 H748 0.961 . S
C741 H749 0.960 . S
C742 C740 1.381 . S
C742 C743 1.394 . S
C742 H750 0.930 . S
C743 C742 1.394 . S
C743 C744 1.383 . S
C743 H751 0.929 . S
C744 C743 1.383 . S
C744 C745 1.377 . S
C745 H729 0.930 . S
C745 C744 1.377 . S
C745 C746 1.379 . S
C746 H730 0.931 . S
C746 C740 1.383 . S
C746 C745 1.379 . S
H747 C741 0.959 1_565 S
H748 C741 0.961 . S
H749 C741 0.960 . S
H750 C742 0.930 . S
H751 C743 0.929 . S
H752 C760 0.929 . S
H753 C762 0.930 . S
H754 C764 0.930 . S
H755 C767 0.929 . S
H756 C770 0.930 . S
H757 C772 0.960 . S
H758 C772 0.960 . S
H759 C772 0.960 . S
C760 H752 0.929 . S
C760 C761 1.377 . S
C760 C762 1.384 . S
C761 C760 1.377 . S
C761 C767 1.390 . S
C762 H753 0.930 . S
C762 C760 1.384 . S
C762 C763 1.372 . S
C763 C762 1.372 . S
C763 C764 1.400 . S
C763 C768 1.490 . S
C764 H754 0.930 . S
C764 C763 1.400 . S
C764 C767 1.386 . S
H765 C781 0.930 . S
H766 C782 0.931 . S
C767 H755 0.929 . S
C767 C761 1.390 . S
C767 C764 1.386 . S
C768 C763 1.490 . S
C768 C770 1.395 . S
C768 C771 1.403 . S
H769 C775 0.930 . S
C770 H756 0.930 . S
C770 C768 1.395 . S
C770 C773 1.403 . S
C771 C768 1.403 . S
C771 C772 1.524 . S
C771 C775 1.400 . S
C772 H757 0.960 . S
C772 H758 0.960 . S
C772 H759 0.960 . S
C772 C771 1.524 . S
C773 C770 1.403 . S
C773 C774 1.392 . S
C773 C777 1.495 . S
C774 C773 1.392 . S
C774 C775 1.385 . S
C774 C776 1.478 . S
C775 H769 0.930 . S
C775 C771 1.400 . S
C775 C774 1.385 . S
C776 C774 1.478 . S
C776 C778 1.381 . S
C776 C782 1.383 . S
C777 C773 1.495 . S
C777 H783 0.959 . S
C777 H784 0.961 . S
C777 H785 0.960 . S
C778 C776 1.381 . S
C778 C779 1.394 . S
C778 H786 0.930 . S
C779 C778 1.394 . S
C779 C780 1.383 . S
C779 H787 0.929 . S
C780 C779 1.383 . S
C780 C781 1.377 . S
C781 H765 0.930 . S
C781 C780 1.377 . S
C781 C782 1.379 . S
C782 H766 0.931 . S
C782 C776 1.383 . S
C782 C781 1.379 . S
H783 C777 0.959 . S
H784 C777 0.961 . S
H785 C777 0.960 . S
H786 C778 0.930 . S
H787 C779 0.929 . S
H788 C796 0.929 . S
H789 C798 0.930 . S
H790 C800 0.930 . S
H791 C803 0.929 . S
H792 C806 0.930 . S
H793 C808 0.960 . S
H794 C808 0.960 . S
H795 C808 0.960 . S
C796 H788 0.929 . S
C796 C797 1.377 . S
C796 C798 1.384 . S
C797 C796 1.377 . S
C797 C803 1.390 . S
C798 H789 0.930 . S
C798 C796 1.384 . S
C798 C799 1.372 . S
C799 C798 1.372 . S
C799 C800 1.400 . S
C799 C804 1.490 . S
C800 H790 0.930 . S
C800 C799 1.400 . S
C800 C803 1.386 . S
H801 C817 0.930 . S
H802 C818 0.931 . S
C803 H791 0.929 . S
C803 C797 1.390 . S
C803 C800 1.386 . S
C804 C799 1.490 . S
C804 C806 1.395 . S
C804 C807 1.403 . S
H805 C811 0.930 . S
C806 H792 0.930 . S
C806 C804 1.395 . S
C806 C809 1.403 . S
C807 C804 1.403 . S
C807 C808 1.524 . S
C807 C811 1.400 . S
C808 H793 0.960 . S
C808 H794 0.960 . S
C808 H795 0.960 . S
C808 C807 1.524 . S
C809 C806 1.403 . S
C809 C810 1.392 . S
C809 C813 1.495 . S
C810 C809 1.392 . S
C810 C811 1.385 . S
C810 C812 1.478 . S
C811 H805 0.930 . S
C811 C807 1.400 . S
C811 C810 1.385 . S
C812 C810 1.478 . S
C812 C814 1.381 . S
C812 C818 1.383 . S
C813 C809 1.495 . S
C813 H819 0.959 . S
C813 H820 0.961 . S
C813 H821 0.960 . S
C814 C812 1.381 . S
C814 C815 1.394 . S
C814 H822 0.930 . S
C815 C814 1.394 . S
C815 C816 1.383 . S
C815 H823 0.929 . S
C816 C815 1.383 . S
C816 C817 1.377 . S
C817 H801 0.930 . S
C817 C816 1.377 . S
C817 C818 1.379 . S
C818 H802 0.931 . S
C818 C812 1.383 . S
C818 C817 1.379 . S
H819 C813 0.959 . S
H820 C813 0.961 . S
H821 C813 0.960 . S
H822 C814 0.930 . S
H823 C815 0.929 . S
H824 C832 0.929 . S
H825 C834 0.930 . S
H826 C836 0.930 . S
H827 C839 0.929 . S
H828 C842 0.930 . S
H829 C844 0.960 . S
H830 C844 0.960 . S
H831 C844 0.960 . S
C832 H824 0.929 . S
C832 C833 1.377 . S
C832 C834 1.384 . S
C833 C832 1.377 . S
C833 C839 1.390 . S
C834 H825 0.930 . S
C834 C832 1.384 . S
C834 C835 1.372 . S
C835 C834 1.372 . S
C835 C836 1.400 . S
C835 C840 1.490 . S
C836 H826 0.930 . S
C836 C835 1.400 . S
C836 C839 1.386 . S
H837 C853 0.930 . S
H838 C854 0.931 . S
C839 H827 0.929 . S
C839 C833 1.390 . S
C839 C836 1.386 . S
C840 C835 1.490 . S
C840 C842 1.395 . S
C840 C843 1.403 . S
H841 C847 0.930 . S
C842 H828 0.930 . S
C842 C840 1.395 . S
C842 C845 1.403 . S
C843 C840 1.403 . S
C843 C844 1.524 . S
C843 C847 1.400 . S
C844 H829 0.960 . S
C844 H830 0.960 . S
C844 H831 0.960 . S
C844 C843 1.524 . S
C845 C842 1.403 . S
C845 C846 1.392 . S
C845 C849 1.495 . S
C846 C845 1.392 . S
C846 C847 1.385 . S
C846 C848 1.478 . S
C847 H841 0.930 . S
C847 C843 1.400 . S
C847 C846 1.385 . S
C848 C846 1.478 . S
C848 C850 1.381 . S
C848 C854 1.383 . S
C849 C845 1.495 . S
C849 H855 0.959 . S
C849 H856 0.961 . S
C849 H857 0.960 . S
C850 C848 1.381 . S
C850 C851 1.394 . S
C850 H858 0.930 . S
C851 C850 1.394 . S
C851 C852 1.383 . S
C851 H859 0.929 . S
C852 C851 1.383 . S
C852 C853 1.377 . S
C853 H837 0.930 . S
C853 C852 1.377 . S
C853 C854 1.379 . S
C854 H838 0.931 . S
C854 C848 1.383 . S
C854 C853 1.379 . S
H855 C849 0.959 . S
H856 C849 0.961 . S
H857 C849 0.960 . S
H858 C850 0.930 . S
H859 C851 0.929 . S
H860 C868 0.929 . S
H861 C870 0.930 . S
H862 C872 0.930 . S
H863 C875 0.929 . S
H864 C878 0.930 . S
H865 C880 0.960 . S
H866 C880 0.960 . S
H867 C880 0.960 . S
C868 H860 0.929 . S
C868 C869 1.377 . S
C868 C870 1.384 . S
C869 C868 1.377 . S
C869 C875 1.390 . S
C870 H861 0.930 . S
C870 C868 1.384 . S
C870 C871 1.372 . S
C871 C870 1.372 . S
C871 C872 1.400 . S
C871 C876 1.490 . S
C872 H862 0.930 . S
C872 C871 1.400 . S
C872 C875 1.386 . S
H873 C889 0.930 . S
H874 C890 0.931 . S
C875 H863 0.929 . S
C875 C869 1.390 . S
C875 C872 1.386 . S
C876 C871 1.490 . S
C876 C878 1.395 . S
C876 C879 1.403 . S
H877 C883 0.930 . S
C878 H864 0.930 . S
C878 C876 1.395 . S
C878 C881 1.403 . S
C879 C876 1.403 . S
C879 C880 1.524 . S
C879 C883 1.400 . S
C880 H865 0.960 . S
C880 H866 0.960 . S
C880 H867 0.960 . S
C880 C879 1.524 . S
C881 C878 1.403 . S
C881 C882 1.392 . S
C881 C885 1.495 . S
C882 C881 1.392 . S
C882 C883 1.385 . S
C882 C884 1.478 . S
C883 H877 0.930 . S
C883 C879 1.400 . S
C883 C882 1.385 . S
C884 C882 1.478 . S
C884 C886 1.381 . S
C884 C890 1.383 . S
C885 C881 1.495 . S
C885 H891 0.959 . S
C885 H892 0.961 . S
C885 H893 0.960 . S
C886 C884 1.381 . S
C886 C887 1.394 . S
C886 H894 0.930 . S
C887 C886 1.394 . S
C887 C888 1.383 . S
C887 H895 0.929 . S
C888 C887 1.383 . S
C888 C889 1.377 . S
C889 H873 0.930 . S
C889 C888 1.377 . S
C889 C890 1.379 . S
C890 H874 0.931 . S
C890 C884 1.383 . S
C890 C889 1.379 . S
H891 C885 0.959 . S
H892 C885 0.961 . S
H893 C885 0.960 . S
H894 C886 0.930 . S
H895 C887 0.929 . S
H896 C904 0.929 . S
H897 C906 0.930 . S
H898 C908 0.930 . S
H899 C911 0.929 . S
H900 C914 0.930 . S
H901 C916 0.960 . S
H902 C916 0.960 . S
H903 C916 0.960 . S
C904 H896 0.929 . S
C904 C905 1.377 . S
C904 C906 1.384 . S
C905 C904 1.377 . S
C905 C911 1.390 . S
C906 H897 0.930 . S
C906 C904 1.384 . S
C906 C907 1.372 . S
C907 C906 1.372 . S
C907 C908 1.400 . S
C907 C912 1.490 . S
C908 H898 0.930 . S
C908 C907 1.400 . S
C908 C911 1.386 . S
H909 C925 0.930 . S
H910 C926 0.931 . S
C911 H899 0.929 . S
C911 C905 1.390 . S
C911 C908 1.386 . S
C912 C907 1.490 . S
C912 C914 1.395 . S
C912 C915 1.403 . S
H913 C919 0.930 . S
C914 H900 0.930 . S
C914 C912 1.395 . S
C914 C917 1.403 . S
C915 C912 1.403 . S
C915 C916 1.524 . S
C915 C919 1.400 . S
C916 H901 0.960 . S
C916 H902 0.960 . S
C916 H903 0.960 . S
C916 C915 1.524 . S
C917 C914 1.403 . S
C917 C918 1.392 . S
C917 C921 1.495 . S
C918 C917 1.392 . S
C918 C919 1.385 . S
C918 C920 1.478 . S
C919 H913 0.930 . S
C919 C915 1.400 . S
C919 C918 1.385 . S
C920 C918 1.478 . S
C920 C922 1.381 . S
C920 C926 1.383 . S
C921 C917 1.495 . S
C921 H927 0.959 . S
C921 H928 0.961 . S
C921 H929 0.960 . S
C922 C920 1.381 . S
C922 C923 1.394 . S
C922 H930 0.930 . S
C923 C922 1.394 . S
C923 C924 1.383 . S
C923 H931 0.929 . S
C924 C923 1.383 . S
C924 C925 1.377 . S
C925 H909 0.930 . S
C925 C924 1.377 . S
C925 C926 1.379 . S
C926 H910 0.931 . S
C926 C920 1.383 . S
C926 C925 1.379 . S
H927 C921 0.959 . S
H928 C921 0.961 . S
H929 C921 0.960 . S
H930 C922 0.930 . S
H931 C923 0.929 . S
H932 C940 0.929 . S
H933 C942 0.930 . S
H934 C944 0.930 . S
H935 C947 0.929 . S
H936 C950 0.930 . S
H937 C952 0.960 . S
H938 C952 0.960 . S
H939 C952 0.960 . S
C940 H932 0.929 . S
C940 C941 1.377 . S
C940 C942 1.384 . S
C941 C940 1.377 . S
C941 C947 1.390 . S
C942 H933 0.930 . S
C942 C940 1.384 . S
C942 C943 1.372 . S
C943 C942 1.372 . S
C943 C944 1.400 . S
C943 C948 1.490 . S
C944 H934 0.930 . S
C944 C943 1.400 . S
C944 C947 1.386 . S
H945 C961 0.930 . S
H946 C962 0.931 . S
C947 H935 0.929 . S
C947 C941 1.390 . S
C947 C944 1.386 . S
C948 C943 1.490 . S
C948 C950 1.395 . S
C948 C951 1.403 . S
H949 C955 0.930 . S
C950 H936 0.930 . S
C950 C948 1.395 . S
C950 C953 1.403 . S
C951 C948 1.403 . S
C951 C952 1.524 . S
C951 C955 1.400 . S
C952 H937 0.960 . S
C952 H938 0.960 . S
C952 H939 0.960 . S
C952 C951 1.524 . S
C953 C950 1.403 . S
C953 C954 1.392 . S
C953 C957 1.495 . S
C954 C953 1.392 . S
C954 C955 1.385 . S
C954 C956 1.478 . S
C955 H949 0.930 . S
C955 C951 1.400 . S
C955 C954 1.385 . S
C956 C954 1.478 . S
C956 C958 1.381 . S
C956 C962 1.383 . S
C957 C953 1.495 . S
C957 H963 0.959 . S
C957 H964 0.961 . S
C957 H965 0.960 . S
C958 C956 1.381 . S
C958 C959 1.394 . S
C958 H966 0.930 . S
C959 C958 1.394 . S
C959 C960 1.383 . S
C959 H967 0.929 . S
C960 C959 1.383 . S
C960 C961 1.377 . S
C961 H945 0.930 . S
C961 C960 1.377 . S
C961 C962 1.379 . S
C962 H946 0.931 . S
C962 C956 1.383 . S
C962 C961 1.379 . S
H963 C957 0.959 . S
H964 C957 0.961 . S
H965 C957 0.960 . S
H966 C958 0.930 . S
H967 C959 0.929 . S
H968 C976 0.929 . S
H969 C978 0.930 . S
H970 C980 0.930 . S
H971 C983 0.929 . S
H972 C986 0.930 . S
H973 C988 0.960 . S
H974 C988 0.960 . S
H975 C988 0.960 . S
C976 H968 0.929 . S
C976 C977 1.377 . S
C976 C978 1.384 . S
C977 C976 1.377 . S
C977 C983 1.390 . S
C978 H969 0.930 . S
C978 C976 1.384 . S
C978 C979 1.372 . S
C979 C978 1.372 . S
C979 C980 1.400 . S
C979 C984 1.490 . S
C980 H970 0.930 . S
C980 C979 1.400 . S
C980 C983 1.386 . S
H981 C997 0.930 . S
H982 C998 0.931 . S
C983 H971 0.929 . S
C983 C977 1.390 . S
C983 C980 1.386 . S
C984 C979 1.490 . S
C984 C986 1.395 . S
C984 C987 1.403 . S
H985 C991 0.930 . S
C986 H972 0.930 . S
C986 C984 1.395 . S
C986 C989 1.403 . S
C987 C984 1.403 . S
C987 C988 1.524 . S
C987 C991 1.400 . S
C988 H973 0.960 . S
C988 H974 0.960 . S
C988 H975 0.960 . S
C988 C987 1.524 . S
C989 C986 1.403 . S
C989 C990 1.392 . S
C989 C993 1.495 . S
C990 C989 1.392 . S
C990 C991 1.385 . S
C990 C992 1.478 . S
C991 H985 0.930 . S
C991 C987 1.400 . S
C991 C990 1.385 . S
C992 C990 1.478 . S
C992 C994 1.381 . S
C992 C998 1.383 . S
C993 C989 1.495 . S
C993 H999 0.959 . S
C993 H1000 0.961 . S
C993 H1001 0.960 . S
C994 C992 1.381 . S
C994 C995 1.394 . S
C994 H1002 0.930 . S
C995 C994 1.394 . S
C995 C996 1.383 . S
C995 H1003 0.929 . S
C996 C995 1.383 . S
C996 C997 1.377 . S
C997 H981 0.930 . S
C997 C996 1.377 . S
C997 C998 1.379 . S
C998 H982 0.931 . S
C998 C992 1.383 . S
C998 C997 1.379 . S
H999 C993 0.959 . S
H1000 C993 0.961 . S
H1001 C993 0.960 . S
H1002 C994 0.930 . S
H1003 C995 0.929 . S
H1004 C1012 0.929 . S
H1005 C1014 0.930 . S
H1006 C1016 0.930 . S
H1007 C1019 0.929 . S
H1008 C1022 0.930 . S
H1009 C1024 0.960 . S
H1010 C1024 0.960 . S
H1011 C1024 0.960 . S
C1012 H1004 0.929 . S
C1012 C1013 1.377 . S
C1012 C1014 1.384 . S
C1013 C1012 1.377 . S
C1013 C1019 1.390 . S
C1014 H1005 0.930 . S
C1014 C1012 1.384 . S
C1014 C1015 1.372 . S
C1015 C1014 1.372 . S
C1015 C1016 1.400 . S
C1015 C1020 1.490 . S
C1016 H1006 0.930 . S
C1016 C1015 1.400 . S
C1016 C1019 1.386 . S
H1017 C1033 0.930 . S
H1018 C1034 0.931 . S
C1019 H1007 0.929 . S
C1019 C1013 1.390 . S
C1019 C1016 1.386 . S
C1020 C1015 1.490 . S
C1020 C1022 1.395 . S
C1020 C1023 1.403 . S
H1021 C1027 0.930 . S
C1022 H1008 0.930 . S
C1022 C1020 1.395 . S
C1022 C1025 1.403 . S
C1023 C1020 1.403 . S
C1023 C1024 1.524 . S
C1023 C1027 1.400 . S
C1024 H1009 0.960 . S
C1024 H1010 0.960 . S
C1024 H1011 0.960 . S
C1024 C1023 1.524 . S
C1025 C1022 1.403 . S
C1025 C1026 1.392 . S
C1025 C1029 1.495 . S
C1026 C1025 1.392 . S
C1026 C1027 1.385 . S
C1026 C1028 1.478 . S
C1027 H1021 0.930 . S
C1027 C1023 1.400 . S
C1027 C1026 1.385 . S
C1028 C1026 1.478 . S
C1028 C1030 1.381 . S
C1028 C1034 1.383 . S
C1029 C1025 1.495 . S
C1029 H1035 0.959 . S
C1029 H1036 0.961 . S
C1029 H1037 0.960 . S
C1030 C1028 1.381 . S
C1030 C1031 1.394 . S
C1030 H1038 0.930 . S
C1031 C1030 1.394 . S
C1031 C1032 1.383 . S
C1031 H1039 0.929 . S
C1032 C1031 1.383 . S
C1032 C1033 1.377 . S
C1033 H1017 0.930 . S
C1033 C1032 1.377 . S
C1033 C1034 1.379 . S
C1034 H1018 0.931 . S
C1034 C1028 1.383 . S
C1034 C1033 1.379 . S
H1035 C1029 0.959 . S
H1036 C1029 0.961 . S
H1037 C1029 0.960 . S
H1038 C1030 0.930 . S
H1039 C1031 0.929 . S
C185 C140 1.349 . S
C204 C8 1.352 . S
C221 C43 1.403 . S
C240 C164 1.411 . S
C257 C96 1.411 . S
C276 C59 1.411 . S
C293 C73 1.461 . S
C312 C125 1.457 . S
C329 C109 1.389 . S
C348 C54 1.403 . S
C365 C84 1.340 . S
C384 C120 1.327 . S
C401 C153 1.452 . S
C420 C21 1.435 . S
C437 C30 1.400 . S
C456 C169 1.386 . S
C473 C40 1.349 . S
C492 C118 1.342 . S
C509 C147 1.402 . S
C528 C52 1.404 . S
C545 C161 1.403 . S
C564 C76 1.404 . S
C581 C15 1.464 . S
C600 C103 1.471 . S
C617 C81 1.389 . S
C636 C172 1.402 . S
C653 C98 1.337 . S
C672 C10 1.342 . S
C689 C29 1.454 . S
C708 C131 1.444 . S
C725 C65 1.396 . S
C744 C142 1.382 . S
C761 C162 1.030 . S
C780 C18 1.032 . S
C797 C37 1.092 . S
C816 C106 1.090 . S
C833 C51 1.151 . S
C852 C117 1.137 . S
C869 C150 1.093 . S
C888 C87 1.082 . S
C905 C128 1.030 . S
C924 C62 1.031 . S
C941 C139 1.087 . S
C960 C74 1.091 . S
C977 C175 1.153 . S
C996 C7 1.161 . S
C1013 C95 1.088 . S
C1032 C32 1.094 . S
