# Generated by pormake.
# Topology lcy-e, (6)-cn, num edge types: 1
# Building blocks:
#     Node 0, Type 0, BuildingBlock: UKALOJ_clean_sbu_0, # of connection points: 6
#     Node 1, Type 0, BuildingBlock: UKALOJ_clean_sbu_0, # of connection points: 6
#     Node 2, Type 0, BuildingBlock: UKALOJ_clean_sbu_0, # of connection points: 6
#     Node 3, Type 0, BuildingBlock: UKALOJ_clean_sbu_0, # of connection points: 6
#     Node 4, Type 0, BuildingBlock: UKALOJ_clean_sbu_0, # of connection points: 6
#     Node 5, Type 0, BuildingBlock: UKALOJ_clean_sbu_0, # of connection points: 6
#     Node 6, Type 0, BuildingBlock: UKALOJ_clean_sbu_0, # of connection points: 6
#     Node 7, Type 0, BuildingBlock: UKALOJ_clean_sbu_0, # of connection points: 6
#     Node 8, Type 0, BuildingBlock: UKALOJ_clean_sbu_0, # of connection points: 6
#     Node 9, Type 0, BuildingBlock: UKALOJ_clean_sbu_0, # of connection points: 6
#     Node 10, Type 0, BuildingBlock: UKALOJ_clean_sbu_0, # of connection points: 6
#     Node 11, Type 0, BuildingBlock: UKALOJ_clean_sbu_0, # of connection points: 6
#     Edge 12, Type (0, 0), BuildingBlock: XUDNAN_clean_linker_2, # of connection points: 2
#     Edge 13, Type (0, 0), BuildingBlock: XUDNAN_clean_linker_2, # of connection points: 2
#     Edge 14, Type (0, 0), BuildingBlock: XUDNAN_clean_linker_2, # of connection points: 2
#     Edge 15, Type (0, 0), BuildingBlock: XUDNAN_clean_linker_2, # of connection points: 2
#     Edge 16, Type (0, 0), BuildingBlock: XUDNAN_clean_linker_2, # of connection points: 2
#     Edge 17, Type (0, 0), BuildingBlock: XUDNAN_clean_linker_2, # of connection points: 2
#     Edge 18, Type (0, 0), BuildingBlock: XUDNAN_clean_linker_2, # of connection points: 2
#     Edge 19, Type (0, 0), BuildingBlock: XUDNAN_clean_linker_2, # of connection points: 2
#     Edge 20, Type (0, 0), BuildingBlock: XUDNAN_clean_linker_2, # of connection points: 2
#     Edge 21, Type (0, 0), BuildingBlock: XUDNAN_clean_linker_2, # of connection points: 2
#     Edge 22, Type (0, 0), BuildingBlock: XUDNAN_clean_linker_2, # of connection points: 2
#     Edge 23, Type (0, 0), BuildingBlock: XUDNAN_clean_linker_2, # of connection points: 2
#     Edge 24, Type (0, 0), BuildingBlock: XUDNAN_clean_linker_2, # of connection points: 2
#     Edge 25, Type (0, 0), BuildingBlock: XUDNAN_clean_linker_2, # of connection points: 2
#     Edge 26, Type (0, 0), BuildingBlock: XUDNAN_clean_linker_2, # of connection points: 2
#     Edge 27, Type (0, 0), BuildingBlock: XUDNAN_clean_linker_2, # of connection points: 2
#     Edge 28, Type (0, 0), BuildingBlock: XUDNAN_clean_linker_2, # of connection points: 2
#     Edge 29, Type (0, 0), BuildingBlock: XUDNAN_clean_linker_2, # of connection points: 2
#     Edge 30, Type (0, 0), BuildingBlock: XUDNAN_clean_linker_2, # of connection points: 2
#     Edge 31, Type (0, 0), BuildingBlock: XUDNAN_clean_linker_2, # of connection points: 2
#     Edge 32, Type (0, 0), BuildingBlock: XUDNAN_clean_linker_2, # of connection points: 2
#     Edge 33, Type (0, 0), BuildingBlock: XUDNAN_clean_linker_2, # of connection points: 2
#     Edge 34, Type (0, 0), BuildingBlock: XUDNAN_clean_linker_2, # of connection points: 2
#     Edge 35, Type (0, 0), BuildingBlock: XUDNAN_clean_linker_2, # of connection points: 2
#     Edge 36, Type (0, 0), BuildingBlock: XUDNAN_clean_linker_2, # of connection points: 2
#     Edge 37, Type (0, 0), BuildingBlock: XUDNAN_clean_linker_2, # of connection points: 2
#     Edge 38, Type (0, 0), BuildingBlock: XUDNAN_clean_linker_2, # of connection points: 2
#     Edge 39, Type (0, 0), BuildingBlock: XUDNAN_clean_linker_2, # of connection points: 2
#     Edge 40, Type (0, 0), BuildingBlock: XUDNAN_clean_linker_2, # of connection points: 2
#     Edge 41, Type (0, 0), BuildingBlock: XUDNAN_clean_linker_2, # of connection points: 2
#     Edge 42, Type (0, 0), BuildingBlock: XUDNAN_clean_linker_2, # of connection points: 2
#     Edge 43, Type (0, 0), BuildingBlock: XUDNAN_clean_linker_2, # of connection points: 2
#     Edge 44, Type (0, 0), BuildingBlock: XUDNAN_clean_linker_2, # of connection points: 2
#     Edge 45, Type (0, 0), BuildingBlock: XUDNAN_clean_linker_2, # of connection points: 2
#     Edge 46, Type (0, 0), BuildingBlock: XUDNAN_clean_linker_2, # of connection points: 2
#     Edge 47, Type (0, 0), BuildingBlock: XUDNAN_clean_linker_2, # of connection points: 2
# Relax obj value: 0.283
# Max RMSD: 0.290
# Mean RMSD: 0.290
data_MOF--net-lcy-e--node1-UKALOJ_clean_sbu_0--edge1-XUDNAN_clean_linker_2
_symmetry_space_group_name_H-M    P1
_symmetry_Int_Tables_number       1
_symmetry_cell_setting            triclinic
loop_
_symmetry_equiv_pos_as_xyz
'x, y, z'
_cell_length_a     38.836783
_cell_length_b     38.836643
_cell_length_c     38.803464
_cell_angle_alpha  89.978142
_cell_angle_beta   90.130158
_cell_angle_gamma 90.006663
loop_
_atom_site_label
_atom_site_type_symbol
_atom_site_fract_x
_atom_site_fract_y
_atom_site_fract_z
_atom_type_partial_charge
Zn0 Zn 0.08197 0.24574 0.43583 0.0
O1 O 0.11547 0.28062 0.45768 0.0
C2 C 0.13847 0.20118 0.40504 0.0
Zn3 Zn 0.10108 0.20398 0.46965 0.0
C4 C 0.13825 0.27116 0.47898 0.0
O5 O 0.14028 0.23962 0.48783 0.0
C6 C 0.04291 0.18103 0.4251 0.0
O7 O 0.06849 0.22319 0.50736 0.0
O8 O 0.04422 0.26186 0.4736 0.0
N9 N 0.11925 0.16745 0.5023 0.0
C10 C 0.10398 0.14317 0.52184 0.0
C11 C 0.15818 0.13884 0.5296 0.0
N12 N 0.15288 0.1646 0.50706 0.0
N13 N 0.12796 0.12476 0.53914 0.0
C14 C 0.08618 0.29888 0.37699 0.0
C15 C 0.03453 0.30051 0.35851 0.0
N16 N 0.06666 0.28131 0.39978 0.0
N17 N 0.03449 0.28269 0.38839 0.0
N18 N 0.06666 0.31111 0.35103 0.0
H19 H 0.13641 0.29019 0.40088 0.0
H20 H 0.13329 0.32752 0.37376 0.0
H21 H 0.13485 0.28568 0.35472 0.0
C22 C 0.12485 0.30043 0.37705 0.0
C23 C 0.06577 0.1387 0.52501 0.0
H24 H 0.05872 0.13181 0.55184 0.0
H25 H 0.05736 0.11755 0.50772 0.0
H26 H 0.05184 0.16232 0.51733 0.0
O27 O 0.06107 0.16955 0.45001 0.0
O28 O 0.0476 0.21157 0.41478 0.0
C29 C 0.04695 0.24733 0.50303 0.0
O30 O 0.12033 0.22786 0.3994 0.0
O31 O 0.13466 0.18513 0.43309 0.0
Zn32 Zn 0.02167 0.87679 0.71639 0.0
O33 O 0.98998 0.91222 0.73961 0.0
C34 C 0.0688 0.93468 0.69347 0.0
Zn35 Zn 0.0623 0.89131 0.75415 0.0
C36 C -0.00195 0.9302 0.76563 0.0
O37 O 0.02823 0.92798 0.77856 0.0
C38 C 0.08352 0.83608 0.70412 0.0
O39 O 0.04336 0.85332 0.78565 0.0
O40 O 0.00091 0.83851 0.75114 0.0
N41 N 0.10185 0.90056 0.78789 0.0
C42 C 0.12286 0.87739 0.80302 0.0
C43 C 0.14791 0.92608 0.80584 0.0
N44 N 0.11732 0.93091 0.78997 0.0
N45 N 0.15194 0.89266 0.81418 0.0
C46 C 0.97124 0.8872 0.65585 0.0
C47 C 0.95734 0.83579 0.64261 0.0
N48 N 0.98528 0.8663 0.6798 0.0
N49 N 0.97641 0.83437 0.67168 0.0
N50 N 0.95411 0.86866 0.632 0.0
H51 H 0.97744 0.93576 0.68266 0.0
H52 H 0.94883 0.93695 0.64596 0.0
H53 H 0.99443 0.93454 0.63977 0.0
C54 C 0.97303 0.9258 0.65636 0.0
C55 C 0.11459 0.83991 0.80812 0.0
H56 H 0.09236 0.83777 0.82586 0.0
H57 H 0.13631 0.82563 0.81995 0.0
H58 H 0.10753 0.82743 0.78351 0.0
O59 O 0.09471 0.8549 0.72847 0.0
O60 O 0.05288 0.83995 0.69372 0.0
C61 C 0.01732 0.83481 0.77939 0.0
O62 O 0.04378 0.91618 0.68306 0.0
O63 O 0.08117 0.92941 0.72315 0.0
Zn64 Zn 0.40119 0.78353 0.97427 0.0
O65 O 0.43928 0.76498 0.00684 0.0
C66 C 0.45527 0.79972 0.92207 0.0
Zn67 Zn 0.41299 0.73928 0.94 0.0
C68 C 0.45665 0.73786 0.00164 0.0
O69 O 0.4518 0.72011 0.97442 0.0
C70 C 0.35624 0.78682 0.91462 0.0
O71 O 0.37849 0.70926 0.96621 0.0
O72 O 0.36385 0.75166 0.00066 0.0
N73 N 0.42089 0.70098 0.90475 0.0
C74 C 0.39765 0.68651 0.88333 0.0
C75 C 0.44728 0.67581 0.8628 0.0
N76 N 0.45179 0.6939 0.89219 0.0
N77 N 0.41348 0.67095 0.85677 0.0
C78 C 0.41085 0.84941 0.0181 0.0
C79 C 0.35997 0.85825 0.03662 0.0
N80 N 0.3911 0.82318 0.00694 0.0
N81 N 0.35953 0.82862 0.0186 0.0
N82 N 0.39182 0.87193 0.0364 0.0
H83 H 0.46068 0.82631 0.00925 0.0
H84 H 0.46145 0.86526 0.03469 0.0
H85 H 0.45392 0.8674 0.98904 0.0
C86 C 0.44897 0.85206 0.01258 0.0
C87 C 0.35918 0.68879 0.88683 0.0
H88 H 0.35108 0.69455 0.9134 0.0
H89 H 0.34728 0.66415 0.87855 0.0
H90 H 0.34911 0.70915 0.86957 0.0
O91 O 0.37325 0.75996 0.90685 0.0
O92 O 0.36294 0.80225 0.9425 0.0
C93 C 0.36098 0.72036 0.99126 0.0
O94 O 0.43872 0.81373 0.94664 0.0
O95 O 0.44899 0.76871 0.91429 0.0
Zn96 Zn 0.47887 0.13456 0.20908 0.0
O97 O 0.50713 0.09729 0.23491 0.0
C98 C 0.43896 0.07625 0.17414 0.0
Zn99 Zn 0.43424 0.11299 0.23778 0.0
C100 C 0.4965 0.07634 0.25757 0.0
O101 O 0.46466 0.07592 0.26553 0.0
C102 C 0.41816 0.17167 0.18811 0.0
O103 O 0.44818 0.14987 0.2747 0.0
O104 O 0.49393 0.16983 0.24808 0.0
N105 N 0.39025 0.10203 0.26505 0.0
C106 C 0.3641 0.12341 0.27322 0.0
C107 C 0.34865 0.07278 0.28762 0.0
N108 N 0.38065 0.07056 0.27415 0.0
N109 N 0.33765 0.10566 0.28688 0.0
C110 C 0.53957 0.12307 0.1605 0.0
C111 C 0.54406 0.17142 0.13509 0.0
N112 N 0.52002 0.14573 0.17809 0.0
N113 N 0.52318 0.1759 0.16248 0.0
N114 N 0.55442 0.13838 0.13313 0.0
H115 H 0.55705 0.08535 0.19673 0.0
H116 H 0.56323 0.07284 0.15297 0.0
H117 H 0.52068 0.07184 0.17151 0.0
C118 C 0.54529 0.08614 0.1707 0.0
C119 C 0.36449 0.1619 0.26911 0.0
H120 H 0.35007 0.17429 0.29043 0.0
H121 H 0.35159 0.16896 0.24459 0.0
H122 H 0.39088 0.17237 0.26873 0.0
O123 O 0.40539 0.14942 0.20835 0.0
O124 O 0.45045 0.17272 0.18395 0.0
C125 C 0.47424 0.16961 0.27431 0.0
O126 O 0.46283 0.09837 0.17081 0.0
O127 O 0.4215 0.07561 0.20168 0.0
Zn128 Zn 0.62126 0.26033 0.55215 0.0
O129 O 0.6577 0.22225 0.54326 0.0
C130 C 0.67804 0.30712 0.5746 0.0
Zn131 Zn 0.64592 0.28874 0.50891 0.0
C132 C 0.67972 0.22239 0.51917 0.0
O133 O 0.68137 0.24796 0.49858 0.0
C134 C 0.58671 0.32537 0.54319 0.0
O135 O 0.61162 0.2651 0.47599 0.0
O136 O 0.58638 0.23543 0.51701 0.0
N137 N 0.66382 0.31958 0.46994 0.0
C138 C 0.64467 0.33767 0.4472 0.0
C139 C 0.69219 0.36419 0.45295 0.0
N140 N 0.69363 0.33586 0.47301 0.0
N141 N 0.66172 0.36588 0.43637 0.0
C142 C 0.61681 0.21695 0.61889 0.0
C143 C 0.56368 0.22118 0.63205 0.0
N144 N 0.60114 0.23445 0.5933 0.0
N145 N 0.56816 0.23707 0.60151 0.0
N146 N 0.5939 0.20872 0.64369 0.0
H147 H 0.65526 0.18489 0.5969 0.0
H148 H 0.66247 0.19262 0.64143 0.0
H149 H 0.6708 0.22632 0.61044 0.0
C150 C 0.65344 0.20475 0.6173 0.0
C151 C 0.60815 0.32934 0.43721 0.0
H152 H 0.60767 0.30413 0.4238 0.0
H153 H 0.59723 0.34887 0.41943 0.0
H154 H 0.5914 0.32752 0.46013 0.0
O155 O 0.60974 0.32894 0.52034 0.0
O156 O 0.58547 0.2978 0.5604 0.0
C157 C 0.58908 0.24348 0.48529 0.0
O158 O 0.65531 0.28664 0.58615 0.0
O159 O 0.68066 0.31175 0.54241 0.0
Zn160 Zn 0.94396 0.3923 0.7544 0.0
O161 O 0.94602 0.34847 0.72451 0.0
C162 C 0.91296 0.34891 0.80951 0.0
Zn163 Zn 0.98304 0.36936 0.78876 0.0
C164 C 0.96898 0.32553 0.72741 0.0
O165 O 0.99009 0.3269 0.75267 0.0
C166 C 0.95723 0.43837 0.81186 0.0
O167 O 0.02145 0.39509 0.76314 0.0
O168 O 0.98487 0.41317 0.72362 0.0
N169 N 0.01756 0.34921 0.82322 0.0
C170 C 0.03881 0.36549 0.8454 0.0
C171 C 0.03397 0.31374 0.86281 0.0
N172 N 0.01497 0.31688 0.83384 0.0
N173 N 0.0494 0.34385 0.8704 0.0
C174 C 0.87671 0.40017 0.71374 0.0
C175 C 0.88094 0.45001 0.69096 0.0
N176 N 0.90782 0.41269 0.72242 0.0
N177 N 0.91052 0.44364 0.7082 0.0
N178 N 0.85933 0.42321 0.69464 0.0
H179 H 0.84835 0.35421 0.701 0.0
H180 H 0.84533 0.36755 0.74501 0.0
H181 H 0.88394 0.34695 0.72981 0.0
C182 C 0.8632 0.3651 0.72291 0.0
C183 C 0.0461 0.40343 0.84544 0.0
H184 H 0.04129 0.41519 0.81994 0.0
H185 H 0.0733 0.40812 0.85291 0.0
H186 H 0.0296 0.41615 0.86498 0.0
O187 O 0.97508 0.41302 0.82237 0.0
O188 O 0.94214 0.43684 0.78304 0.0
C189 C 0.01552 0.41064 0.73509 0.0
O190 O 0.9044 0.37042 0.78633 0.0
O191 O 0.94456 0.34273 0.81453 0.0
Zn192 Zn 0.88125 0.7369 0.05224 0.0
O193 O 0.84612 0.77422 0.03854 0.0
C194 C 0.82134 0.68709 0.05853 0.0
Zn195 Zn 0.86753 0.70952 0.00435 0.0
C196 C 0.83121 0.7763 0.00956 0.0
O197 O 0.8353 0.75224 0.98747 0.0
C198 C 0.91914 0.67274 0.04995 0.0
O199 O 0.90814 0.7341 0.98164 0.0
O200 O 0.92104 0.76627 0.02633 0.0
N201 N 0.85999 0.68206 0.95998 0.0
C202 C 0.88342 0.66597 0.94 0.0
C203 C 0.83379 0.64939 0.92334 0.0
N204 N 0.82915 0.67188 0.94943 0.0
N205 N 0.86762 0.64557 0.91675 0.0
C206 C 0.86961 0.76912 0.12357 0.0
C207 C 0.9203 0.78361 0.13912 0.0
N208 N 0.89086 0.76163 0.09729 0.0
N209 N 0.92236 0.77073 0.10689 0.0
N210 N 0.8875 0.7824 0.1501 0.0
H211 H 0.81875 0.78602 0.13775 0.0
H212 H 0.82438 0.74031 0.13581 0.0
H213 H 0.82089 0.7648 0.0965 0.0
C214 C 0.8312 0.76491 0.12307 0.0
C215 C 0.92187 0.66765 0.9448 0.0
H216 H 0.93282 0.68514 0.92504 0.0
H217 H 0.93356 0.64184 0.94122 0.0
H218 H 0.92962 0.67728 0.97032 0.0
O219 O 0.90027 0.6682 0.02347 0.0
O220 O 0.91697 0.70072 0.06636 0.0
C221 C 0.9262 0.75747 0.99517 0.0
O222 O 0.84127 0.70612 0.07641 0.0
O223 O 0.82588 0.68517 0.02631 0.0
Zn224 Zn 0.55566 0.60094 0.26046 0.0
O225 O 0.54669 0.64101 0.22637 0.0
C226 C 0.57842 0.65035 0.31472 0.0
Zn227 Zn 0.51248 0.62005 0.29239 0.0
C228 C 0.5218 0.66172 0.22929 0.0
O229 O 0.50187 0.65961 0.25514 0.0
C230 C 0.54778 0.55729 0.32129 0.0
O231 O 0.47791 0.58967 0.26681 0.0
O232 O 0.51813 0.56977 0.23222 0.0
N233 N 0.4747 0.63889 0.32293 0.0
C234 C 0.45422 0.62347 0.34618 0.0
C235 C 0.44428 0.67743 0.3488 0.0
N236 N 0.46842 0.67239 0.32445 0.0
N237 N 0.43519 0.64714 0.36296 0.0
C238 C 0.61984 0.60196 0.21355 0.0
C239 C 0.62746 0.54881 0.20203 0.0
N240 N 0.59516 0.5841 0.23018 0.0
N241 N 0.60005 0.55107 0.22319 0.0
N242 N 0.64052 0.58035 0.19594 0.0
H243 H 0.60643 0.64883 0.18797 0.0
H244 H 0.64772 0.65022 0.2084 0.0
H245 H 0.60954 0.65286 0.23401 0.0
C246 C 0.62109 0.64057 0.21113 0.0
C247 C 0.4516 0.58525 0.3511 0.0
H248 H 0.45751 0.57148 0.32684 0.0
H249 H 0.42539 0.57794 0.3598 0.0
H250 H 0.47037 0.57697 0.37104 0.0
O251 O 0.52442 0.57912 0.32867 0.0
O252 O 0.56431 0.56044 0.29341 0.0
C253 C 0.48662 0.57111 0.24154 0.0
O254 O 0.59137 0.63188 0.29094 0.0
O255 O 0.54615 0.65091 0.31864 0.0
Zn256 Zn 0.19899 0.4835 0.12744 0.0
O257 O 0.21495 0.51867 0.09152 0.0
C258 C 0.17162 0.44201 0.06653 0.0
Zn259 Zn 0.23477 0.44664 0.10434 0.0
C260 C 0.24137 0.51548 0.07284 0.0
O261 O 0.25797 0.48712 0.0732 0.0
C262 C 0.19017 0.41769 0.16121 0.0
O263 O 0.26759 0.45972 0.14402 0.0
O264 O 0.23765 0.50393 0.1627 0.0
N265 N 0.26953 0.41113 0.08735 0.0
C266 C 0.28276 0.38365 0.10387 0.0
C267 C 0.29955 0.38078 0.05169 0.0
N268 N 0.2802 0.4095 0.05495 0.0
N269 N 0.30153 0.36437 0.08216 0.0
C270 C 0.13477 0.52937 0.1244 0.0
C271 C 0.12369 0.5402 0.17705 0.0
N272 N 0.16115 0.51674 0.14324 0.0
N273 N 0.15433 0.52368 0.17599 0.0
N274 N 0.11094 0.5437 0.14495 0.0
H275 H 0.11942 0.55171 0.07596 0.0
H276 H 0.11459 0.50599 0.07851 0.0
H277 H 0.15665 0.52435 0.07301 0.0
C278 C 0.13158 0.52777 0.0858 0.0
C279 C 0.27661 0.37458 0.14096 0.0
H280 H 0.29939 0.36116 0.15187 0.0
H281 H 0.25439 0.3567 0.1426 0.0
H282 H 0.27112 0.39765 0.15666 0.0
O283 O 0.20945 0.40792 0.13654 0.0
O284 O 0.18327 0.44932 0.16441 0.0
C285 C 0.26477 0.48533 0.16398 0.0
O286 O 0.16237 0.46088 0.09165 0.0
O287 O 0.20288 0.43342 0.06394 0.0
Zn288 Zn 0.74248 0.06754 0.89189 0.0
O289 O 0.78066 0.05932 0.85579 0.0
C290 C 0.69094 0.0845 0.83664 0.0
Zn291 Zn 0.71459 0.02191 0.87165 0.0
C292 C 0.78091 0.03395 0.8353 0.0
O293 O 0.75535 0.01332 0.83485 0.0
C294 C 0.67913 0.05676 0.93101 0.0
O295 O 0.74097 0.99094 0.90461 0.0
O296 O 0.77028 0.03374 0.92751 0.0
N297 N 0.68768 0.98088 0.85318 0.0
C298 C 0.66593 0.95909 0.86911 0.0
C299 C 0.66258 0.949 0.81521 0.0
N300 N 0.68573 0.97446 0.81971 0.0
N301 N 0.64952 0.93917 0.8458 0.0
C302 C 0.7758 0.1395 0.89239 0.0
C303 C 0.78933 0.14727 0.94509 0.0
N304 N 0.7678 0.11033 0.90938 0.0
N305 N 0.77632 0.11513 0.94214 0.0
N306 N 0.78879 0.16306 0.91422 0.0
H307 H 0.77224 0.12031 0.84 0.0
H308 H 0.7933 0.16139 0.84448 0.0
H309 H 0.74751 0.15852 0.84909 0.0
C310 C 0.77209 0.14493 0.85426 0.0
C311 C 0.66202 0.95617 0.90747 0.0
H312 H 0.68572 0.96435 0.92102 0.0
H313 H 0.65587 0.92927 0.91491 0.0
H314 H 0.64064 0.97294 0.91605 0.0
O315 O 0.6754 0.03172 0.91013 0.0
O316 O 0.70547 0.07574 0.92857 0.0
C317 C 0.76351 0.0016 0.92556 0.0
O318 O 0.71288 0.09902 0.85621 0.0
O319 O 0.68766 0.05216 0.83768 0.0
Zn320 Zn 0.74383 0.92716 0.40491 0.0
O321 O 0.70237 0.94127 0.37392 0.0
C322 C 0.78394 0.90211 0.34298 0.0
Zn323 Zn 0.77377 0.96738 0.37724 0.0
C324 C 0.70278 0.96417 0.35062 0.0
O325 O 0.73074 0.98026 0.34442 0.0
C326 C 0.81279 0.93067 0.43387 0.0
O327 O 0.75446 0.00089 0.41266 0.0
O328 O 0.72554 0.96295 0.44324 0.0
N329 N 0.8043 0.00489 0.35639 0.0
C330 C 0.82473 0.02834 0.37199 0.0
C331 C 0.83847 0.02727 0.31885 0.0
N332 N 0.81278 0.00441 0.32337 0.0
N333 N 0.84677 0.04232 0.34903 0.0
C334 C 0.70268 0.85946 0.40843 0.0
C335 C 0.70417 0.84684 0.46186 0.0
N336 N 0.71693 0.8865 0.42505 0.0
N337 N 0.71775 0.87863 0.45826 0.0
N338 N 0.69515 0.834 0.43087 0.0
H339 H 0.69198 0.88406 0.35918 0.0
H340 H 0.67079 0.84367 0.36559 0.0
H341 H 0.71609 0.84528 0.35666 0.0
C342 C 0.69486 0.85829 0.37045 0.0
C343 C 0.82084 0.03954 0.40885 0.0
H344 H 0.79453 0.04986 0.41269 0.0
H345 H 0.83891 0.06039 0.41601 0.0
H346 H 0.82443 0.01736 0.42645 0.0
O347 O 0.81558 0.95411 0.41114 0.0
O348 O 0.7847 0.91436 0.43651 0.0
C349 C 0.73495 0.99393 0.43777 0.0
O350 O 0.76343 0.89267 0.36661 0.0
O351 O 0.79268 0.93341 0.34107 0.0
Zn352 Zn 0.29354 0.51142 0.61172 0.0
O353 O 0.27666 0.48098 0.57173 0.0
C354 C 0.30387 0.56661 0.5596 0.0
Zn355 Zn 0.24812 0.54421 0.6051 0.0
C356 C 0.24652 0.48285 0.55935 0.0
O357 O 0.22664 0.50723 0.56891 0.0
C358 C 0.29707 0.56975 0.65889 0.0
O359 O 0.22376 0.51775 0.64411 0.0
O360 O 0.2649 0.47897 0.64569 0.0
N361 N 0.20735 0.57707 0.59993 0.0
C362 C 0.19533 0.5999 0.62312 0.0
C363 C 0.17761 0.61613 0.57377 0.0
N364 N 0.19591 0.58693 0.56929 0.0
N365 N 0.1771 0.62486 0.60735 0.0
C366 C 0.36173 0.47447 0.59618 0.0
C367 C 0.37628 0.45598 0.64589 0.0
N368 N 0.33599 0.48213 0.61804 0.0
N369 N 0.345 0.47059 0.64889 0.0
N370 N 0.38749 0.45858 0.61317 0.0
H371 H 0.33449 0.48433 0.5483 0.0
H372 H 0.37333 0.45926 0.54411 0.0
H373 H 0.3757 0.50462 0.55229 0.0
C374 C 0.361 0.48092 0.55805 0.0
C375 C 0.20163 0.59854 0.66132 0.0
H376 H 0.20729 0.5721 0.67015 0.0
H377 H 0.1787 0.60835 0.67524 0.0
H378 H 0.2236 0.61538 0.66825 0.0
O379 O 0.27108 0.57916 0.64135 0.0
O380 O 0.31071 0.5409 0.65269 0.0
C381 C 0.23547 0.48949 0.65542 0.0
O382 O 0.32062 0.54421 0.57668 0.0
O383 O 0.27209 0.57058 0.56545 0.0
H384 H 0.11914 0.32895 0.51253 0.0
H385 H 0.20828 0.27375 0.47465 0.0
H386 H 0.24493 0.32464 0.48721 0.0
H387 H 0.13945 0.41078 0.48045 0.0
H388 H 0.12492 0.43452 0.51759 0.0
H389 H 0.10589 0.39346 0.5074 0.0
H390 H 0.1212 0.37032 0.56817 0.0
H391 H 0.13949 0.41156 0.57897 0.0
H392 H 0.16502 0.37305 0.5833 0.0
H393 H 0.27023 0.38276 0.49925 0.0
H394 H 0.28596 0.44029 0.52072 0.0
H395 H 0.18054 0.45718 0.55358 0.0
C396 C 0.14657 0.32744 0.5077 0.0
C397 C 0.16124 0.29762 0.49299 0.0
C398 C 0.19696 0.2963 0.48652 0.0
C399 C 0.21773 0.32516 0.49317 0.0
C400 C 0.20225 0.35468 0.50665 0.0
C401 C 0.16769 0.35569 0.5148 0.0
C402 C 0.15759 0.39025 0.52992 0.0
C403 C 0.13035 0.40831 0.50749 0.0
C404 C 0.14509 0.38605 0.5673 0.0
C405 C 0.1918 0.40889 0.52839 0.0
C406 C 0.21706 0.38796 0.5145 0.0
C407 C 0.25077 0.39924 0.51043 0.0
C408 C 0.25934 0.4321 0.52245 0.0
C409 C 0.23442 0.45329 0.53867 0.0
C410 C 0.19996 0.44189 0.5407 0.0
H411 H 0.80371 0.97107 0.81233 0.0
H412 H 0.83296 0.07859 0.82096 0.0
H413 H 0.89281 0.06366 0.80619 0.0
H414 H 0.87761 0.93695 0.85049 0.0
H415 H 0.88088 0.90003 0.82258 0.0
H416 H 0.83951 0.91933 0.83053 0.0
H417 H 0.83003 0.92781 0.76477 0.0
H418 H 0.87106 0.90778 0.75677 0.0
H419 H 0.86221 0.9501 0.73985 0.0
H420 H 0.95107 0.03611 0.79687 0.0
H421 H 0.00117 -0.00133 0.78318 0.0
H422 H 0.93338 0.9101 0.77966 0.0
C423 C 0.82241 0.99161 0.80985 0.0
C424 C 0.81362 0.02599 0.81763 0.0
C425 C 0.8391 0.05205 0.81497 0.0
C426 C 0.87325 0.04383 0.80686 0.0
C427 C 0.88151 0.00945 0.80121 0.0
C428 C 0.85669 0.98386 0.80175 0.0
C429 C 0.87251 0.94884 0.79546 0.0
C430 C 0.8673 0.92488 0.82661 0.0
C431 C 0.8581 0.93269 0.76223 0.0
C432 C 0.90998 0.95877 0.79154 0.0
C433 C 0.91484 0.99377 0.79534 0.0
C434 C 0.94757 0.00867 0.79353 0.0
C435 C 0.97588 0.98731 0.78623 0.0
C436 C 0.9709 0.95174 0.7806 0.0
C437 C 0.93771 0.93734 0.78397 0.0
H438 H 0.37782 0.65654 0.01272 0.0
H439 H 0.29283 0.7286 0.00661 0.0
H440 H 0.2525 0.6821 0.02386 0.0
H441 H 0.33612 0.58441 0.97891 0.0
H442 H 0.35551 0.5535 0.00769 0.0
H443 H 0.37802 0.59266 0.99722 0.0
H444 H 0.38336 0.60791 0.06187 0.0
H445 H 0.36135 0.56861 0.07296 0.0
H446 H 0.34521 0.60941 0.08812 0.0
H447 H 0.22161 0.62689 0.03545 0.0
H448 H 0.20202 0.56925 0.05258 0.0
H449 H 0.3078 0.53305 0.05404 0.0
C450 C 0.35077 0.6626 0.01583 0.0
C451 C 0.33813 0.69593 0.0086 0.0
C452 C 0.30279 0.70325 0.01263 0.0
C453 C 0.27981 0.67695 0.02196 0.0
C454 C 0.29295 0.64391 0.02756 0.0
C455 C 0.32771 0.63689 0.02561 0.0
C456 C 0.33529 0.59939 0.0334 0.0
C457 C 0.35223 0.58145 0.00245 0.0
C458 C 0.35762 0.59612 0.06603 0.0
C459 C 0.29915 0.58607 0.03935 0.0
C460 C 0.27519 0.61219 0.03544 0.0
C461 C 0.24013 0.60637 0.03904 0.0
C462 C 0.22929 0.57342 0.04853 0.0
C463 C 0.25342 0.54664 0.05471 0.0
C464 C 0.28878 0.55283 0.04908 0.0
H465 H 0.56467 0.08932 0.26471 0.0
H466 H 0.48659 0.01294 0.2881 0.0
H467 H 0.53197 0.9744 0.31161 0.0
H468 H 0.63085 0.03199 0.23814 0.0
H469 H 0.66513 0.05655 0.25764 0.0
H470 H 0.62658 0.07793 0.24311 0.0
H471 H 0.61741 0.10364 0.3041 0.0
H472 H 0.65618 0.08274 0.31869 0.0
H473 H 0.61614 0.07528 0.34086 0.0
H474 H 0.58621 0.94419 0.33089 0.0
H475 H 0.64379 0.92628 0.35032 0.0
H476 H 0.68636 0.02332 0.31465 0.0
C477 C 0.55703 0.06445 0.27475 0.0
C478 C 0.52218 0.05385 0.27434 0.0
C479 C 0.51314 0.02146 0.28826 0.0
C480 C 0.53875 -0.00058 0.3014 0.0
C481 C 0.57301 0.01047 0.30065 0.0
C482 C 0.58205 0.04245 0.28814 0.0
C483 C 0.62045 0.04877 0.29108 0.0
C484 C 0.6367 0.05412 0.25537 0.0
C485 C 0.62798 0.07941 0.31511 0.0
C486 C 0.63189 0.0151 0.30701 0.0
C487 C 0.60412 0.99334 0.31214 0.0
C488 C 0.60806 0.96103 0.32703 0.0
C489 C 0.641 0.95108 0.33787 0.0
C490 C 0.66972 0.97335 0.33389 0.0
C491 C 0.66509 0.00554 0.31761 0.0
H492 H 0.68941 0.19075 0.45752 0.0
H493 H 0.70926 0.18062 0.56695 0.0
H494 H 0.72325 0.11905 0.559 0.0
H495 H 0.6473 0.1137 0.44687 0.0
H496 H 0.66497 0.10324 0.40525 0.0
H497 H 0.6612 0.14754 0.41829 0.0
H498 H 0.72657 0.15728 0.40852 0.0
H499 H 0.7302 0.11336 0.39409 0.0
H500 H 0.75718 0.1287 0.42867 0.0
H501 H 0.72887 0.05685 0.53966 0.0
H502 H 0.73527 0.00131 0.50833 0.0
H503 H 0.71058 0.05313 0.41251 0.0
C504 C 0.69823 0.17591 0.47948 0.0
C505 C 0.69846 0.19022 0.51279 0.0
C506 C 0.70894 0.16986 0.54122 0.0
C507 C 0.71676 0.1349 0.53698 0.0
C508 C 0.71409 0.12088 0.50409 0.0
C509 C 0.70593 0.14095 0.47569 0.0
C510 C 0.70342 0.11944 0.44337 0.0
C511 C 0.66706 0.12109 0.42754 0.0
C512 C 0.73099 0.13034 0.41713 0.0
C513 C 0.71088 0.0842 0.45813 0.0
C514 C 0.71688 0.08534 0.49318 0.0
C515 C 0.72438 0.05563 0.51216 0.0
C516 C 0.72744 0.02418 0.4944 0.0
C517 C 0.72301 0.02318 0.4583 0.0
C518 C 0.71373 0.05333 0.44028 0.0
H519 H 0.05769 0.46457 0.74752 0.0
H520 H 0.0416 0.37709 0.68024 0.0
H521 H 0.10106 0.38328 0.65788 0.0
H522 H 0.10968 0.5146 0.68595 0.0
H523 H 0.13624 0.53214 0.71981 0.0
H524 H 0.09219 0.52077 0.72851 0.0
H525 H 0.11341 0.48187 0.77866 0.0
H526 H 0.15763 0.49191 0.76898 0.0
H527 H 0.14353 0.44769 0.76986 0.0
H528 H 0.16363 0.39628 0.64693 0.0
H529 H 0.21958 0.42459 0.63589 0.0
H530 H 0.19346 0.50496 0.70866 0.0
C531 C 0.06641 0.44763 0.72715 0.0
C532 C 0.04525 0.42097 0.71477 0.0
C533 C 0.05745 0.39833 0.68904 0.0
C534 C 0.09126 0.40124 0.67679 0.0
C535 C 0.11214 0.427 0.6906 0.0
C536 C 0.09982 0.45052 0.71431 0.0
C537 C 0.12701 0.47658 0.72411 0.0
C538 C 0.11561 0.51318 0.71397 0.0
C539 C 0.13591 0.47436 0.76269 0.0
C540 C 0.15659 0.46411 0.70216 0.0
C541 C 0.14782 0.43494 0.6837 0.0
C542 C 0.17081 0.41914 0.66117 0.0
C543 C 0.20277 0.43497 0.65558 0.0
C544 C 0.21083 0.46645 0.67203 0.0
C545 C 0.18809 0.48039 0.69655 0.0
H546 H 0.79722 0.94668 0.90087 0.0
H547 H 0.76473 0.99535 0.99576 0.0
H548 H 0.7761 0.94089 0.02738 0.0
H549 H 0.7582 0.86846 0.9142 0.0
H550 H 0.79173 0.84211 0.89593 0.0
H551 H 0.78615 0.88581 0.88146 0.0
H552 H 0.84937 0.90079 0.89714 0.0
H553 H 0.85536 0.85657 0.90951 0.0
H554 H 0.86545 0.89055 0.93951 0.0
H555 H 0.78431 0.87939 0.04654 0.0
H556 H 0.7993 0.81834 0.05501 0.0
H557 H 0.8264 0.80963 0.94695 0.0
C558 C 0.79399 0.94622 0.92861 0.0
C559 C 0.78095 0.97522 0.94623 0.0
C560 C 0.77579 0.97364 0.9822 0.0
C561 C 0.78161 0.94268 0.00012 0.0
C562 C 0.79264 0.9139 0.98152 0.0
C563 C 0.79966 0.9157 0.94672 0.0
C564 C 0.81023 0.88097 0.93242 0.0
C565 C 0.78506 0.86863 0.90435 0.0
C566 C 0.84733 0.88232 0.91886 0.0
C567 C 0.80763 0.85899 0.9645 0.0
C568 C 0.79718 0.8785 0.99246 0.0
C569 C 0.79282 0.86402 0.02492 0.0
C570 C 0.8011 0.82922 0.02936 0.0
C571 C 0.81378 0.80917 0.00157 0.0
C572 C 0.81608 0.82405 0.96847 0.0
H573 H 0.4296 0.59739 0.21158 0.0
H574 H 0.48056 0.5014 0.23677 0.0
H575 H 0.42654 0.46965 0.22415 0.0
H576 H 0.35006 0.57928 0.24836 0.0
H577 H 0.32409 0.59912 0.21531 0.0
H578 H 0.36722 0.6143 0.22317 0.0
H579 H 0.3837 0.60384 0.15936 0.0
H580 H 0.34024 0.58989 0.15102 0.0
H581 H 0.37592 0.56221 0.14037 0.0
H582 H 0.36593 0.44968 0.21484 0.0
H583 H 0.30593 0.44002 0.19661 0.0
H584 H 0.29421 0.54903 0.17534 0.0
C585 C 0.4296 0.56953 0.21316 0.0
C586 C 0.45918 0.55154 0.22444 0.0
C587 C 0.45832 0.51532 0.22722 0.0
C588 C 0.42765 0.49727 0.22066 0.0
C589 C 0.39841 0.51598 0.2111 0.0
C590 C 0.39939 0.55117 0.20628 0.0
C591 C 0.36444 0.56511 0.19561 0.0
C592 C 0.35066 0.59098 0.22221 0.0
C593 C 0.36619 0.5812 0.15944 0.0
C594 C 0.34337 0.53226 0.19561 0.0
C595 C 0.36347 0.50437 0.20514 0.0
C596 C 0.35006 0.47125 0.20707 0.0
C597 C 0.31584 0.46611 0.19704 0.0
C598 C 0.29536 0.49383 0.18491 0.0
C599 C 0.30896 0.52755 0.18532 0.0
H600 H 0.53756 0.19489 0.29326 0.0
H601 H 0.43253 0.1822 0.3292 0.0
H602 H 0.45054 0.19878 0.3878 0.0
H603 H 0.57775 0.15948 0.36517 0.0
H604 H 0.61358 0.18895 0.36621 0.0
H605 H 0.5923 0.17972 0.326 0.0
H606 H 0.58039 0.24474 0.31625 0.0
H607 H 0.60249 0.25428 0.35598 0.0
H608 H 0.55904 0.26921 0.3494 0.0
H609 H 0.48114 0.21024 0.44396 0.0
H610 H 0.5211 0.22518 0.49172 0.0
H611 H 0.60522 0.23138 0.41865 0.0
C612 C 0.51816 0.19673 0.31318 0.0
C613 C 0.48367 0.18731 0.30664 0.0
C614 C 0.45915 0.18934 0.33362 0.0
C615 C 0.46912 0.19855 0.36705 0.0
C616 C 0.50364 0.20595 0.37306 0.0
C617 C 0.52766 0.20592 0.34676 0.0
C618 C 0.56331 0.21393 0.36032 0.0
C619 C 0.58818 0.18372 0.35405 0.0
C620 C 0.57711 0.24754 0.34456 0.0
C621 C 0.55554 0.21813 0.39827 0.0
C622 C 0.52108 0.21312 0.40525 0.0
C623 C 0.50816 0.21465 0.43879 0.0
C624 C 0.53098 0.22273 0.46575 0.0
C625 C 0.56602 0.22947 0.4587 0.0
C626 C 0.57841 0.22653 0.42465 0.0
H627 H 0.07452 0.26361 0.5647 0.0
H628 H 0.97717 0.25676 0.51039 0.0
H629 H 0.94623 0.26861 0.56518 0.0
H630 H 0.04871 0.22488 0.644 0.0
H631 H 0.07324 0.25382 0.67082 0.0
H632 H 0.08759 0.24428 0.62774 0.0
H633 H 0.08796 0.30937 0.61237 0.0
H634 H 0.07486 0.31889 0.65578 0.0
H635 H 0.04981 0.33468 0.61995 0.0
H636 H 0.92654 0.27965 0.62616 0.0
H637 H 0.91898 0.30035 0.6857 0.0
H638 H 0.02976 0.30226 0.69977 0.0
C639 C 0.04665 0.26491 0.56438 0.0
C640 C 0.02801 0.25931 0.53356 0.0
C641 C 0.99172 0.26134 0.53379 0.0
C642 C 0.97407 0.26762 0.56481 0.0
C643 C 0.99327 0.27212 0.59503 0.0
C644 C 0.02881 0.27172 0.59483 0.0
C645 C 0.04354 0.27942 0.63023 0.0
C646 C 0.06451 0.24877 0.644 0.0
C647 C 0.0653 0.31256 0.62953 0.0
C648 C 0.01069 0.28429 0.65062 0.0
C649 C 0.98201 0.27933 0.62992 0.0
C650 C 0.94879 0.28354 0.64255 0.0
C651 C 0.94477 0.29499 0.67654 0.0
C652 C 0.97378 0.30247 0.69752 0.0
C653 C 0.00713 0.29577 0.68475 0.0
H654 H 0.95653 0.83963 0.81351 0.0
H655 H 0.05339 0.78449 0.81092 0.0
H656 H 0.04333 0.76332 0.87013 0.0
H657 H 0.96381 0.86882 0.89631 0.0
H658 H 0.91978 0.86378 0.90959 0.0
H659 H 0.92965 0.87099 0.86483 0.0
H660 H 0.89878 0.81596 0.84583 0.0
H661 H 0.88609 0.80757 0.88964 0.0
H662 H 0.90929 0.77538 0.86586 0.0
H663 H 0.02478 0.75189 0.9311 0.0
H664 H 0.9935 0.74211 0.98579 0.0
H665 H 0.91028 0.80684 0.94955 0.0
C666 C 0.97464 0.82164 0.82483 0.0
C667 C 0.00526 0.81281 0.80755 0.0
C668 C 0.02937 0.7907 0.82365 0.0
C669 C 0.02412 0.77902 0.85739 0.0
C670 C 0.99467 0.78989 0.87464 0.0
C671 C 0.96989 0.80995 0.85865 0.0
C672 C 0.94105 0.81879 0.88325 0.0
C673 C 0.93841 0.85792 0.88877 0.0
C674 C 0.90678 0.80354 0.87039 0.0
C675 C 0.9536 0.80081 0.91558 0.0
C676 C 0.98471 0.78448 0.91017 0.0
C677 C 0.00056 0.76483 0.9358 0.0
C678 C 0.98305 0.75999 0.96704 0.0
C679 C 0.95034 0.77495 0.97227 0.0
C680 C 0.93607 0.79656 0.94671 0.0
H681 H 0.47252 0.64764 0.18265 0.0
H682 H 0.5551 0.71872 0.20631 0.0
H683 H 0.55049 0.74354 0.14756 0.0
H684 H 0.50076 0.62903 0.09865 0.0
H685 H 0.45839 0.62518 0.07998 0.0
H686 H 0.46492 0.61578 0.12498 0.0
H687 H 0.41859 0.66053 0.14217 0.0
H688 H 0.41096 0.66886 0.09717 0.0
H689 H 0.42156 0.70388 0.12579 0.0
H690 H 0.53719 0.75964 0.08621 0.0
H691 H 0.51341 0.76872 0.02766 0.0
H692 H 0.44373 0.68298 0.04228 0.0
C693 C 0.48853 0.66944 0.17578 0.0
C694 C 0.51313 0.68251 0.19912 0.0
C695 C 0.53523 0.70952 0.18896 0.0
C696 C 0.53309 0.72332 0.1556 0.0
C697 C 0.50931 0.70907 0.13268 0.0
C698 C 0.48723 0.68288 0.14239 0.0
C699 C 0.46534 0.67082 0.11237 0.0
C700 C 0.47282 0.63296 0.10349 0.0
C701 C 0.42684 0.67639 0.11981 0.0
C702 C 0.47817 0.6947 0.08433 0.0
C703 C 0.50359 0.71649 0.09657 0.0
C704 C 0.51777 0.74235 0.07613 0.0
C705 C 0.50452 0.74705 0.04282 0.0
C706 C 0.47795 0.72557 0.03022 0.0
C707 C 0.46527 0.69854 0.05085 0.0
H708 H 0.09681 0.37177 0.33698 0.0
H709 H 0.06655 0.27445 0.29223 0.0
H710 H 0.09739 0.28942 0.2382 0.0
H711 H 0.08915 0.4228 0.25806 0.0
H712 H 0.1258 0.44921 0.26882 0.0
H713 H 0.09997 0.43073 0.30257 0.0
H714 H 0.15474 0.40267 0.32866 0.0
H715 H 0.18062 0.42041 0.29454 0.0
H716 H 0.18069 0.37465 0.30232 0.0
H717 H 0.13541 0.31437 0.19038 0.0
H718 H 0.1702 0.35036 0.15045 0.0
H719 H 0.17377 0.43121 0.2274 0.0
C720 C 0.09612 0.35414 0.31538 0.0
C721 C 0.0791 0.32232 0.31815 0.0
C722 C 0.07902 0.29928 0.28993 0.0
C723 C 0.09674 0.30742 0.25946 0.0
C724 C 0.11416 0.33878 0.25778 0.0
C725 C 0.11341 0.36201 0.28483 0.0
C726 C 0.13405 0.39394 0.27677 0.0
C727 C 0.11085 0.42606 0.27653 0.0
C728 C 0.16431 0.39814 0.30208 0.0
C729 C 0.14657 0.38514 0.24099 0.0
C730 C 0.1353 0.35309 0.23047 0.0
C731 C 0.14419 0.33961 0.19829 0.0
C732 C 0.16416 0.36 0.17592 0.0
C733 C 0.17446 0.39349 0.18587 0.0
C734 C 0.16606 0.40572 0.21905 0.0
H735 H 0.89271 0.85062 0.60489 0.0
H736 H 0.98452 0.91079 0.58553 0.0
H737 H 0.95933 0.93219 0.53109 0.0
H738 H 0.87794 0.82604 0.51516 0.0
H739 H 0.83176 0.82861 0.51895 0.0
H740 H 0.85755 0.81755 0.55598 0.0
H741 H 0.83036 0.86802 0.59019 0.0
H742 H 0.8045 0.87916 0.55329 0.0
H743 H 0.83221 0.911 0.57268 0.0
H744 H 0.92258 0.94927 0.48017 0.0
H745 H 0.87749 0.95952 0.43611 0.0
H746 H 0.81109 0.88597 0.48794 0.0
C747 C 0.90742 0.86816 0.58899 0.0
C748 C 0.93995 0.88002 0.59976 0.0
C749 C 0.95888 0.90264 0.57832 0.0
C750 C 0.945 0.91453 0.54717 0.0
C751 C 0.91242 0.90301 0.5376 0.0
C752 C 0.89398 0.88012 0.55774 0.0
C753 C 0.85931 0.87216 0.54191 0.0
C754 C 0.8565 0.83381 0.53243 0.0
C755 C 0.82987 0.88326 0.56595 0.0
C756 C 0.86093 0.89455 0.51006 0.0
C757 C 0.89177 0.91208 0.50789 0.0
C758 C 0.89845 0.93539 0.48135 0.0
C759 C 0.87274 0.94105 0.45648 0.0
C760 C 0.8409 0.9234 0.45845 0.0
C761 C 0.83527 0.89965 0.48546 0.0
H762 H 0.34076 0.54984 0.71001 0.0
H763 H 0.28696 0.63901 0.66916 0.0
H764 H 0.3143 0.67547 0.71388 0.0
H765 H 0.33194 0.57233 0.79875 0.0
H766 H 0.37361 0.55571 0.81074 0.0
H767 H 0.35073 0.53729 0.77482 0.0
H768 H 0.40324 0.54906 0.73541 0.0
H769 H 0.4262 0.56782 0.77116 0.0
H770 H 0.42009 0.59218 0.73208 0.0
H771 H 0.34801 0.7019 0.76244 0.0
H772 H 0.38122 0.71572 0.81517 0.0
H773 H 0.41107 0.60887 0.82538 0.0
C774 C 0.33479 0.57708 0.71034 0.0
C775 C 0.31193 0.59174 0.68604 0.0
C776 C 0.30439 0.62734 0.68761 0.0
C777 C 0.31993 0.64821 0.71273 0.0
C778 C 0.34266 0.63292 0.73606 0.0
C779 C 0.34975 0.5981 0.73532 0.0
C780 C 0.37388 0.58766 0.76418 0.0
C781 C 0.35649 0.56173 0.78856 0.0
C782 C 0.40787 0.57334 0.74984 0.0
C783 C 0.37926 0.62209 0.7815 0.0
C784 C 0.36132 0.64792 0.76461 0.0
C785 C 0.362 0.68189 0.77592 0.0
C786 C 0.38079 0.68948 0.80576 0.0
C787 C 0.39814 0.66317 0.82411 0.0
C788 C 0.39801 0.62924 0.81151 0.0
H789 H 0.61192 0.15525 0.09782 0.0
H790 H 0.525 0.08554 0.099 0.0
H791 H 0.54645 0.05705 0.04632 0.0
H792 H 0.61592 0.1651 0.00508 0.0
H793 H 0.6623 0.16637 0.004 0.0
H794 H 0.63968 0.18139 0.04157 0.0
H795 H 0.67451 0.139 0.07977 0.0
H796 H 0.69725 0.12394 0.04232 0.0
H797 H 0.67458 0.09377 0.06933 0.0
H798 H 0.57824 0.03563 0.99374 0.0
H799 H 0.61811 0.02318 0.94556 0.0
H800 H 0.68377 0.10726 0.97931 0.0
C801 C 0.59761 0.13397 0.08685 0.0
C802 C 0.56735 0.12196 0.10265 0.0
C803 C 0.54876 0.0944 0.08755 0.0
C804 C 0.56061 0.07826 0.05759 0.0
C805 C 0.59093 0.09028 0.04286 0.0
C806 C 0.60916 0.11754 0.05693 0.0
C807 C 0.64115 0.12524 0.03626 0.0
C808 C 0.63965 0.16169 0.02081 0.0
C809 C 0.67379 0.12017 0.05823 0.0
C810 C 0.63814 0.09797 0.00859 0.0
C811 C 0.609 0.07809 0.01266 0.0
C812 C 0.60117 0.05106 0.99024 0.0
C813 C 0.62395 0.04411 0.96301 0.0
C814 C 0.6541 0.06408 0.95868 0.0
C815 C 0.66095 0.09143 0.98177 0.0
H816 H 0.64383 0.22122 0.69116 0.0
H817 H 0.55541 0.15702 0.6687 0.0
H818 H 0.56667 0.12318 0.7216 0.0
H819 H 0.69777 0.15393 0.71581 0.0
H820 H 0.72004 0.17719 0.74932 0.0
H821 H 0.70159 0.20014 0.71349 0.0
H822 H 0.66645 0.23798 0.75566 0.0
H823 H 0.68481 0.21506 0.79171 0.0
H824 H 0.63871 0.21773 0.78686 0.0
H825 H 0.59123 0.09231 0.7713 0.0
H826 H 0.62781 0.06489 0.8151 0.0
H827 H 0.70273 0.1472 0.80491 0.0
C828 C 0.62691 0.20002 0.69756 0.0
C829 C 0.59924 0.19096 0.67568 0.0
C830 C 0.57686 0.16395 0.68518 0.0
C831 C 0.58303 0.14477 0.71511 0.0
C832 C 0.6115 0.15331 0.73534 0.0
C833 C 0.63308 0.18033 0.72709 0.0
C834 C 0.66381 0.18185 0.75126 0.0
C835 C 0.6978 0.17803 0.73127 0.0
C836 C 0.6634 0.21514 0.77265 0.0
C837 C 0.65677 0.15064 0.7736 0.0
C838 C 0.62609 0.13505 0.76425 0.0
C839 C 0.61502 0.10451 0.77921 0.0
C840 C 0.63612 0.08906 0.80393 0.0
C841 C 0.66807 0.10401 0.81341 0.0
C842 C 0.67818 0.13561 0.79859 0.0
H843 H 0.1856 0.41926 0.00181 0.0
H844 H 0.10155 0.43531 0.07353 0.0
H845 H 0.06113 0.40888 0.03164 0.0
H846 H 0.13689 0.43945 0.925 0.0
H847 H 0.15905 0.40792 0.89919 0.0
H848 H 0.18076 0.42792 0.93502 0.0
H849 H 0.19382 0.36762 0.9606 0.0
H850 H 0.17172 0.34743 0.92511 0.0
H851 H 0.15883 0.33824 0.96875 0.0
H852 H 0.03065 0.37859 0.98244 0.0
H853 H 0.01121 0.35305 0.92707 0.0
H854 H 0.11493 0.35922 0.88735 0.0
C855 C 0.15866 0.4173 0.00872 0.0
C856 C 0.14664 0.42904 0.04097 0.0
C857 C 0.11119 0.42647 0.0489 0.0
C858 C 0.08816 0.41134 0.02538 0.0
C859 C 0.10106 0.39938 0.99404 0.0
C860 C 0.13539 0.40277 0.98548 0.0
C861 C 0.14269 0.38897 0.94977 0.0
C862 C 0.1556 0.41778 0.92584 0.0
C863 C 0.16828 0.35877 0.95117 0.0
C864 C 0.10712 0.37693 0.93954 0.0
C865 C 0.08349 0.38285 0.96554 0.0
C866 C 0.04893 0.37386 0.96197 0.0
C867 C 0.03817 0.35919 0.93074 0.0
C868 C 0.06184 0.35393 0.90362 0.0
C869 C 0.0967 0.36264 0.90813 0.0
H870 H 0.82773 0.91574 0.29002 0.0
H871 H 0.77349 0.83207 0.34065 0.0
H872 H 0.79777 0.79108 0.29852 0.0
H873 H 0.81607 0.88714 0.20479 0.0
H874 H 0.85808 0.90065 0.19049 0.0
H875 H 0.83743 0.92281 0.22551 0.0
H876 H 0.89057 0.91116 0.26438 0.0
H877 H 0.91134 0.88875 0.2295 0.0
H878 H 0.90539 0.86757 0.2704 0.0
H879 H 0.82522 0.76014 0.24874 0.0
H880 H 0.85375 0.74166 0.19472 0.0
H881 H 0.89151 0.8452 0.17867 0.0
C882 C 0.82101 0.88878 0.29245 0.0
C883 C 0.79838 0.87713 0.31838 0.0
C884 C 0.79036 0.84163 0.32067 0.0
C885 C 0.80425 0.81814 0.29705 0.0
C886 C 0.82639 0.83061 0.27172 0.0
C887 C 0.83481 0.86507 0.2694 0.0
C888 C 0.85838 0.87217 0.23928 0.0
C889 C 0.84146 0.89716 0.2135 0.0
C890 C 0.8935 0.88571 0.25164 0.0
C891 C 0.8614 0.83636 0.2245 0.0
C892 C 0.84289 0.81269 0.24366 0.0
C893 C 0.84013 0.77833 0.23381 0.0
C894 C 0.85624 0.76809 0.20324 0.0
C895 C 0.87472 0.79216 0.18315 0.0
C896 C 0.87795 0.82644 0.19421 0.0
H897 H 0.37035 0.56205 0.53604 0.0
H898 H 0.27413 0.6169 0.52048 0.0
H899 H 0.29919 0.64698 0.47065 0.0
H900 H 0.42813 0.63224 0.50884 0.0
H901 H 0.45732 0.60306 0.48767 0.0
H902 H 0.43317 0.58887 0.52466 0.0
H903 H 0.40882 0.53791 0.48908 0.0
H904 H 0.43259 0.55205 0.45192 0.0
H905 H 0.38659 0.54648 0.44914 0.0
H906 H 0.33267 0.6674 0.41972 0.0
H907 H 0.37299 0.67654 0.37108 0.0
H908 H 0.44676 0.60837 0.41973 0.0
C909 C 0.35468 0.58062 0.52243 0.0
C910 C 0.32025 0.58689 0.53202 0.0
C911 C 0.3006 0.61157 0.51356 0.0
C912 C 0.3146 0.62888 0.48525 0.0
C913 C 0.34828 0.62133 0.47585 0.0
C914 C 0.36816 0.59795 0.49396 0.0
C915 C 0.40286 0.59282 0.47715 0.0
C916 C 0.43209 0.60499 0.501 0.0
C917 C 0.40799 0.55508 0.46617 0.0
C918 C 0.39895 0.61626 0.44628 0.0
C919 C 0.36745 0.63278 0.44619 0.0
C920 C 0.35753 0.65482 0.41959 0.0
C921 C 0.3804 0.65983 0.39217 0.0
C922 C 0.41238 0.64251 0.39151 0.0
C923 C 0.42199 0.62107 0.41923 0.0
H924 H 0.18881 0.15376 0.41662 0.0
H925 H 0.1472 0.2211 0.33749 0.0
H926 H 0.19155 0.20009 0.29676 0.0
H927 H 0.27635 0.16711 0.39634 0.0
H928 H 0.28914 0.12349 0.40578 0.0
H929 H 0.25272 0.14209 0.42749 0.0
H930 H 0.21438 0.09158 0.40658 0.0
H931 H 0.25067 0.07287 0.38462 0.0
H932 H 0.21165 0.08216 0.36116 0.0
H933 H 0.24133 0.17241 0.2654 0.0
H934 H 0.29517 0.14378 0.24708 0.0
H935 H 0.30499 0.09638 0.34758 0.0
C936 C 0.18869 0.16389 0.39061 0.0
C937 C 0.1644 0.18891 0.38009 0.0
C938 C 0.16555 0.20189 0.34603 0.0
C939 C 0.19051 0.18998 0.32273 0.0
C940 C 0.21407 0.16524 0.33403 0.0
C941 C 0.21346 0.15254 0.36725 0.0
C942 C 0.24275 0.12762 0.37375 0.0
C943 C 0.26665 0.14089 0.40253 0.0
C944 C 0.22903 0.09141 0.38201 0.0
C945 C 0.26033 0.12849 0.33905 0.0
C946 C 0.24316 0.15004 0.31637 0.0
C947 C 0.255 0.15562 0.28299 0.0
C948 C 0.28562 0.13948 0.27289 0.0
C949 C 0.30428 0.11849 0.29622 0.0
C950 C 0.291 0.11224 0.32937 0.0
H951 H 0.08332 0.07016 0.53816 0.0
H952 H 0.16457 0.11899 0.59746 0.0
H953 H 0.15953 0.07383 0.64184 0.0
H954 H 0.03078 0.04643 0.61111 0.0
H955 H 0.01729 0.00589 0.59293 0.0
H956 H 0.02794 0.04139 0.56501 0.0
H957 H 0.07256 0.00315 0.53352 0.0
H958 H 0.06213 0.96761 0.5615 0.0
H959 H 0.10605 0.98224 0.55805 0.0
H960 H 0.14548 0.02542 0.67977 0.0
H961 H 0.12226 0.97602 0.71128 0.0
H962 H 0.04875 0.95765 0.62861 0.0
C963 C 0.09956 0.07166 0.56077 0.0
C964 C 0.12397 0.09839 0.56479 0.0
C965 C 0.14571 0.09873 0.59408 0.0
C966 C 0.14301 0.07327 0.61935 0.0
C967 C 0.1185 0.04754 0.61485 0.0
C968 C 0.09707 0.04643 0.58644 0.0
C969 C 0.0726 0.016 0.58849 0.0
C970 C 0.03492 0.02816 0.58945 0.0
C971 C 0.07872 0.99076 0.55861 0.0
C972 C 0.08353 0.00051 0.62269 0.0
C973 C 0.1102 0.01915 0.63716 0.0
C974 C 0.12462 0.01054 0.66877 0.0
C975 C 0.11114 0.98235 0.68644 0.0
C976 C 0.08337 0.96299 0.6726 0.0
C977 C 0.06972 0.972 0.64002 0.0
H978 H 0.19047 0.90013 0.87174 0.0
H979 H 0.18532 0.84813 0.77327 0.0
H980 H 0.23899 0.81643 0.78694 0.0
H981 H 0.28457 0.90819 0.87529 0.0
H982 H 0.28644 0.90034 0.92104 0.0
H983 H 0.24893 0.92036 0.90238 0.0
H984 H 0.21035 0.8729 0.92911 0.0
H985 H 0.24773 0.8527 0.94771 0.0
H986 H 0.21949 0.8283 0.92004 0.0
H987 H 0.29146 0.78839 0.81275 0.0
H988 H 0.33958 0.76673 0.8486 0.0
H989 H 0.30982 0.83695 0.93036 0.0
C990 C 0.20109 0.88236 0.85308 0.0
C991 C 0.18406 0.87614 0.82169 0.0
C992 C 0.19822 0.85275 0.79761 0.0
C993 C 0.22858 0.8348 0.80511 0.0
C994 C 0.24451 0.84083 0.8367 0.0
C995 C 0.23137 0.86415 0.86025 0.0
C996 C 0.25279 0.86491 0.89281 0.0
C997 C 0.26916 0.90057 0.89818 0.0
C998 C 0.2313 0.85404 0.92427 0.0
C999 C 0.27967 0.83813 0.88404 0.0
C1000 C 0.2746 0.82462 0.85154 0.0
C1001 C 0.2958 0.79886 0.83823 0.0
C1002 C 0.32291 0.78656 0.85882 0.0
C1003 C 0.32836 0.79998 0.8923 0.0
C1004 C 0.30648 0.82623 0.9048 0.0
H1005 H 0.40032 0.01761 0.17875 0.0
H1006 H 0.46434 0.07634 0.1085 0.0
H1007 H 0.45796 0.03072 0.06462 0.0
H1008 H 0.43356 0.93593 0.15766 0.0
H1009 H 0.39291 0.91378 0.16106 0.0
H1010 H 0.40063 0.95204 0.18608 0.0
H1011 H 0.34598 0.98037 0.16012 0.0
H1012 H 0.33793 0.94208 0.13517 0.0
H1013 H 0.34135 0.98325 0.11397 0.0
H1014 H 0.4461 0.97791 0.02933 0.0
H1015 H 0.42942 0.92155 0.00495 0.0
H1016 H 0.37431 0.89693 0.0987 0.0
C1017 C 0.41259 0.02113 0.15396 0.0
C1018 C 0.43292 0.05043 0.14699 0.0
C1019 C 0.44888 0.05393 0.1144 0.0
C1020 C 0.44528 0.02825 0.0893 0.0
C1021 C 0.42554 -0.00061 0.09725 0.0
C1022 C 0.40934 0.99575 0.12871 0.0
C1023 C 0.39065 0.96167 0.13128 0.0
C1024 C 0.40533 0.93956 0.16076 0.0
C1025 C 0.35166 0.96719 0.13536 0.0
C1026 C 0.3992 0.94651 0.09647 0.0
C1027 C 0.41921 0.96872 0.07717 0.0
C1028 C 0.43063 0.96021 0.04427 0.0
C1029 C 0.42145 0.92802 0.03082 0.0
C1030 C 0.40147 0.9047 0.05044 0.0
C1031 C 0.38986 0.91432 0.08343 0.0
H1032 H 0.84272 0.41497 0.6282 0.0
H1033 H 0.8013 0.41858 0.73133 0.0
H1034 H 0.74657 0.39333 0.7105 0.0
H1035 H 0.75761 0.42982 0.58056 0.0
H1036 H 0.77012 0.40011 0.54718 0.0
H1037 H 0.80232 0.42562 0.56889 0.0
H1038 H 0.83529 0.36972 0.58438 0.0
H1039 H 0.8028 0.34392 0.56381 0.0
H1040 H 0.81364 0.33639 0.60837 0.0
H1041 H 0.70242 0.35712 0.68119 0.0
H1042 H 0.66746 0.3197 0.64321 0.0
H1043 H 0.73757 0.34042 0.55872 0.0
C1044 C 0.82125 0.4122 0.64574 0.0
C1045 C 0.82544 0.4191 0.68103 0.0
C1046 C 0.7978 0.41388 0.70404 0.0
C1047 C 0.76688 0.39943 0.69247 0.0
C1048 C 0.76415 0.39083 0.65774 0.0
C1049 C 0.79025 0.39778 0.63448 0.0
C1050 C 0.78238 0.38266 0.59944 0.0
C1051 C 0.77782 0.41126 0.57242 0.0
C1052 C 0.81018 0.35664 0.58839 0.0
C1053 C 0.74862 0.36492 0.60707 0.0
C1054 C 0.73843 0.37002 0.64075 0.0
C1055 C 0.7096 0.35365 0.65449 0.0
C1056 C 0.69018 0.33216 0.6329 0.0
C1057 C 0.69976 0.32743 0.59807 0.0
C1058 C 0.7294 0.34396 0.58516 0.0
H1059 H 0.91151 0.45375 0.86235 0.0
H1060 H 0.99475 0.49558 0.80126 0.0
H1061 H 0.98027 0.55431 0.82133 0.0
H1062 H 0.85239 0.51774 0.84513 0.0
H1063 H 0.83338 0.51954 0.88743 0.0
H1064 H 0.85291 0.48025 0.87255 0.0
H1065 H 0.8934 0.47896 0.9257 0.0
H1066 H 0.87322 0.51766 0.94138 0.0
H1067 H 0.91924 0.51623 0.93566 0.0
H1068 H 0.95243 0.60847 0.84226 0.0
H1069 H 0.9181 0.65454 0.86994 0.0
H1070 H 0.85327 0.57762 0.91787 0.0
C1071 C 0.92753 0.47522 0.85457 0.0
C1072 C 0.95482 0.47048 0.83123 0.0
C1073 C 0.9744 0.49899 0.82003 0.0
C1074 C 0.96613 0.53233 0.83099 0.0
C1075 C 0.93818 0.53647 0.85304 0.0
C1076 C 0.9196 0.50867 0.86534 0.0
C1077 C 0.88977 0.52036 0.88753 0.0
C1078 C 0.85507 0.50878 0.87222 0.0
C1079 C 0.89419 0.50755 0.92478 0.0
C1080 C 0.89405 0.55903 0.88516 0.0
C1081 C 0.92207 0.56777 0.86506 0.0
C1082 C 0.93076 0.60195 0.85848 0.0
C1083 C 0.91111 0.62788 0.87404 0.0
C1084 C 0.88339 0.6194 0.89603 0.0
C1085 C 0.87425 0.5846 0.90092 0.0
H1086 H 0.80349 0.68244 0.12734 0.0
H1087 H 0.77608 0.64495 0.02541 0.0
H1088 H 0.72952 0.61034 0.05051 0.0
H1089 H 0.7854 0.60288 0.17357 0.0
H1090 H 0.76754 0.62456 0.2105 0.0
H1091 H 0.80016 0.64541 0.18496 0.0
H1092 H 0.75983 0.69774 0.17559 0.0
H1093 H 0.72716 0.67714 0.20121 0.0
H1094 H 0.71738 0.69095 0.15794 0.0
H1095 H 0.68456 0.5815 0.0856 0.0
H1096 H 0.64213 0.56235 0.1292 0.0
H1097 H 0.69849 0.61715 0.2084 0.0
C1098 C 0.78772 0.66698 0.11033 0.0
C1099 C 0.79347 0.66658 0.07439 0.0
C1100 C 0.77226 0.64579 0.05303 0.0
C1101 C 0.74576 0.62589 0.06702 0.0
C1102 C 0.74072 0.62691 0.10244 0.0
C1103 C 0.76097 0.64693 0.12387 0.0
C1104 C 0.74908 0.64427 0.16094 0.0
C1105 C 0.77723 0.62832 0.18384 0.0
C1106 C 0.73769 0.67962 0.17472 0.0
C1107 C 0.71873 0.62008 0.15678 0.0
C1108 C 0.71456 0.61019 0.12283 0.0
C1109 C 0.68761 0.5889 0.11232 0.0
C1110 C 0.66379 0.57806 0.1371 0.0
C1111 C 0.66702 0.58878 0.17173 0.0
C1112 C 0.69533 0.60921 0.18184 0.0
H1113 H 0.65209 0.38827 0.37118 0.0
H1114 H 0.63321 0.41253 0.47819 0.0
H1115 H 0.59812 0.46308 0.46084 0.0
H1116 H 0.66018 0.47664 0.34162 0.0
H1117 H 0.63925 0.46817 0.30099 0.0
H1118 H 0.66273 0.43443 0.32249 0.0
H1119 H 0.60821 0.39588 0.32066 0.0
H1120 H 0.58439 0.42979 0.29973 0.0
H1121 H 0.56869 0.41141 0.33936 0.0
H1122 H 0.56387 0.51024 0.43113 0.0
H1123 H 0.53845 0.55366 0.39158 0.0
H1124 H 0.58089 0.49827 0.30436 0.0
C1125 C 0.64099 0.40475 0.39072 0.0
C1126 C 0.64545 0.39725 0.42588 0.0
C1127 C 0.6302 0.41862 0.45112 0.0
C1128 C 0.61012 0.44704 0.44149 0.0
C1129 C 0.60569 0.45364 0.40648 0.0
C1130 C 0.62106 0.43335 0.3815 0.0
C1131 C 0.61272 0.44626 0.34572 0.0
C1132 C 0.64568 0.45702 0.32659 0.0
C1133 C 0.59229 0.41922 0.32517 0.0
C1134 C 0.59056 0.47707 0.35445 0.0
C1135 C 0.58636 0.48075 0.38957 0.0
C1136 C 0.56702 0.50766 0.40354 0.0
C1137 C 0.55248 0.53203 0.38097 0.0
C1138 C 0.55782 0.52934 0.34503 0.0
C1139 C 0.57647 0.50107 0.33177 0.0
H1140 H 0.36757 0.34561 0.09174 0.0
H1141 H 0.26285 0.30802 0.08964 0.0
H1142 H 0.28225 0.25176 0.11266 0.0
H1143 H 0.41045 0.26108 0.07062 0.0
H1144 H 0.44577 0.2698 0.09955 0.0
H1145 H 0.42428 0.3048 0.07785 0.0
H1146 H 0.41264 0.33367 0.13687 0.0
H1147 H 0.43348 0.29856 0.1588 0.0
H1148 H 0.38986 0.31002 0.16967 0.0
H1149 H 0.31132 0.20388 0.14364 0.0
H1150 H 0.34929 0.16445 0.17605 0.0
H1151 H 0.43597 0.23242 0.15711 0.0
C1152 C 0.34922 0.32487 0.09487 0.0
C1153 C 0.31398 0.33035 0.08848 0.0
C1154 C 0.29004 0.30354 0.09395 0.0
C1155 C 0.30082 0.27176 0.10706 0.0
C1156 C 0.33568 0.26736 0.11431 0.0
C1157 C 0.35967 0.29293 0.10792 0.0
C1158 C 0.39508 0.28249 0.12057 0.0
C1159 C 0.42039 0.27935 0.09034 0.0
C1160 C 0.40853 0.30768 0.14811 0.0
C1161 C 0.38698 0.24761 0.13599 0.0
C1162 C 0.3526 0.23936 0.13201 0.0
C1163 C 0.33845 0.20967 0.14633 0.0
C1164 C 0.36013 0.1876 0.16491 0.0
C1165 C 0.39555 0.19533 0.16887 0.0
C1166 C 0.40908 0.22565 0.15405 0.0
H1167 H 0.92515 0.29946 0.85772 0.0
H1168 H 0.84225 0.3541 0.80616 0.0
H1169 H 0.79985 0.31669 0.83542 0.0
H1170 H 0.89202 0.2187 0.84802 0.0
H1171 H 0.90636 0.20235 0.8891 0.0
H1172 H 0.9294 0.23691 0.86878 0.0
H1173 H 0.92148 0.27462 0.9233 0.0
H1174 H 0.89835 0.24004 0.94389 0.0
H1175 H 0.87883 0.28198 0.93999 0.0
H1176 H 0.76759 0.26832 0.86358 0.0
H1177 H 0.74824 0.21251 0.88767 0.0
H1178 H 0.8521 0.19015 0.92107 0.0
C1179 C 0.89805 0.3042 0.85312 0.0
C1180 C 0.88698 0.32965 0.82952 0.0
C1181 C 0.85131 0.33468 0.824 0.0
C1182 C 0.82706 0.31371 0.8407 0.0
C1183 C 0.83898 0.28822 0.86312 0.0
C1184 C 0.87367 0.2836 0.86952 0.0
C1185 C 0.88021 0.25235 0.89189 0.0
C1186 C 0.90334 0.22604 0.87332 0.0
C1187 C 0.89563 0.26289 0.92684 0.0
C1188 C 0.84386 0.23909 0.89591 0.0
C1189 C 0.82036 0.26047 0.87962 0.0
C1190 C 0.78563 0.25184 0.87702 0.0
C1191 C 0.77488 0.22021 0.89063 0.0
C1192 C 0.79879 0.19765 0.90636 0.0
C1193 C 0.83341 0.2076 0.90992 0.0
H1194 H 0.08397 0.6072 0.15264 0.0
H1195 H 0.06259 0.50497 0.11397 0.0
H1196 H 0.00902 0.52608 0.08645 0.0
H1197 H 0.9922 0.63126 0.16906 0.0
H1198 H -0.00057 0.67521 0.15598 0.0
H1199 H 0.03379 0.65087 0.17556 0.0
H1200 H 0.07248 0.66389 0.12277 0.0
H1201 H 0.03809 0.68771 0.10278 0.0
H1202 H 0.05772 0.65222 0.08025 0.0
H1203 H 0.96199 0.5602 0.05704 0.0
H1204 H 0.92125 0.60366 0.03375 0.0
H1205 H 0.97273 0.68277 0.09377 0.0
C1206 C 0.06729 0.58926 0.13929 0.0
C1207 C 0.07711 0.55468 0.13506 0.0
C1208 C 0.05529 0.53169 0.11702 0.0
C1209 C 0.02493 0.54342 0.10142 0.0
C1210 C 0.01659 0.57812 0.10466 0.0
C1211 C 0.03676 0.60056 0.12375 0.0
C1212 C 0.02287 0.63686 0.12198 0.0
C1213 C 0.01138 0.64927 0.15777 0.0
C1214 C 0.04937 0.66161 0.10598 0.0
C1215 C 0.99238 0.63145 0.09827 0.0
C1216 C 0.9891 0.59745 0.08847 0.0
C1217 C 0.96389 0.58683 0.06503 0.0
C1218 C 0.94106 0.61163 0.05175 0.0
C1219 C 0.94364 0.64642 0.06222 0.0
C1220 C 0.96974 0.65625 0.08565 0.0
H1221 H 0.71203 0.79104 0.37784 0.0
H1222 H 0.64798 0.80003 0.46867 0.0
H1223 H 0.61858 0.74575 0.45293 0.0
H1224 H 0.64518 0.77057 0.32341 0.0
H1225 H 0.66911 0.74163 0.29617 0.0
H1226 H 0.69109 0.77555 0.31877 0.0
H1227 H 0.73185 0.73086 0.34691 0.0
H1228 H 0.70995 0.69664 0.32435 0.0
H1229 H 0.71396 0.69518 0.37062 0.0
H1230 H 0.59029 0.69753 0.42338 0.0
H1231 H 0.56237 0.65946 0.38136 0.0
H1232 H 0.64075 0.68413 0.30572 0.0
C1233 C 0.6917 0.78175 0.39432 0.0
C1234 C 0.6814 0.80028 0.42394 0.0
C1235 C 0.656 0.78625 0.44581 0.0
C1236 C 0.63929 0.75547 0.43705 0.0
C1237 C 0.64853 0.73905 0.40645 0.0
C1238 C 0.67415 0.75166 0.38536 0.0
C1239 C 0.6757 0.73211 0.35152 0.0
C1240 C 0.6699 0.75641 0.32066 0.0
C1241 C 0.70991 0.71253 0.34817 0.0
C1242 C 0.64578 0.70752 0.35618 0.0
C1243 C 0.63124 0.71144 0.38853 0.0
C1244 C 0.6017 0.69386 0.39824 0.0
C1245 C 0.58593 0.67248 0.37404 0.0
C1246 C 0.59942 0.66901 0.34029 0.0
C1247 C 0.63032 0.68593 0.33152 0.0
H1248 H 0.53363 0.32136 0.58801 0.0
H1249 H 0.58132 0.38968 0.51342 0.0
H1250 H 0.53642 0.4335 0.52535 0.0
H1251 H 0.44794 0.34005 0.56594 0.0
H1252 H 0.4324 0.33691 0.60956 0.0
H1253 H 0.46949 0.31247 0.59652 0.0
H1254 H 0.50524 0.33979 0.646 0.0
H1255 H 0.46824 0.36437 0.65925 0.0
H1256 H 0.50805 0.38601 0.64928 0.0
H1257 H 0.48536 0.46912 0.5457 0.0
H1258 H 0.43138 0.49225 0.57019 0.0
H1259 H 0.41723 0.39828 0.62858 0.0
C1260 C 0.53498 0.34561 0.57427 0.0
C1261 C 0.56102 0.35229 0.54993 0.0
C1262 C 0.56159 0.38421 0.53232 0.0
C1263 C 0.5363 0.40918 0.53897 0.0
C1264 C 0.51088 0.40155 0.56318 0.0
C1265 C 0.5101 0.37045 0.58041 0.0
C1266 C 0.47948 0.36755 0.60405 0.0
C1267 C 0.45595 0.33747 0.59335 0.0
C1268 C 0.49095 0.36425 0.64188 0.0
C1269 C 0.4627 0.40182 0.59725 0.0
C1270 C 0.48125 0.42129 0.57389 0.0
C1271 C 0.47046 0.45392 0.56367 0.0
C1272 C 0.4396 0.46663 0.57732 0.0
C1273 C 0.41977 0.4464 0.60029 0.0
C1274 C 0.4319 0.41399 0.61083 0.0
H1275 H 0.11612 0.65852 0.60676 0.0
H1276 H 0.22326 0.66757 0.6364 0.0
H1277 H 0.21169 0.72426 0.66277 0.0
H1278 H 0.10413 0.75015 0.58574 0.0
H1279 H 0.06078 0.75118 0.6022 0.0
H1280 H 0.07789 0.71187 0.5845 0.0
H1281 H 0.06376 0.67995 0.64144 0.0
H1282 H 0.04668 0.71914 0.65928 0.0
H1283 H 0.08049 0.69638 0.68158 0.0
H1284 H 0.18761 0.7776 0.68967 0.0
H1285 H 0.15293 0.82581 0.71264 0.0
H1286 H 0.06206 0.7835 0.66281 0.0
C1287 C 0.137 0.67277 0.61858 0.0
C1288 C 0.17028 0.65861 0.62057 0.0
C1289 C 0.19733 0.67776 0.63583 0.0
C1290 C 0.19109 0.71003 0.6505 0.0
C1291 C 0.15775 0.723 0.64906 0.0
C1292 C 0.1312 0.70522 0.63318 0.0
C1293 C 0.09764 0.72476 0.63581 0.0
C1294 C 0.08434 0.73511 0.59992 0.0
C1295 C 0.07056 0.70381 0.65572 0.0
C1296 C 0.1094 0.75589 0.65616 0.0
C1297 C 0.14415 0.75442 0.66354 0.0
C1298 C 0.16045 0.77937 0.68365 0.0
C1299 C 0.14059 0.80658 0.69662 0.0
C1300 C 0.10495 0.80858 0.68919 0.0
C1301 C 0.08938 0.78299 0.66848 0.0
H1302 H 0.48028 0.86537 0.93321 0.0
H1303 H 0.49332 0.77487 0.86874 0.0
H1304 H 0.5429 0.80205 0.84051 0.0
H1305 H 0.50534 0.92865 0.8671 0.0
H1306 H 0.52742 0.95568 0.89777 0.0
H1307 H 0.49111 0.93018 0.91127 0.0
H1308 H 0.52864 0.9023 0.959 0.0
H1309 H 0.56515 0.92741 0.94542 0.0
H1310 H 0.56827 0.88115 0.94738 0.0
H1311 H 0.59358 0.8367 0.82206 0.0
H1312 H 0.64121 0.87831 0.81362 0.0
H1313 H 0.59422 0.94687 0.88799 0.0
C1314 C 0.49328 0.85147 0.9129 0.0
C1315 C 0.48293 0.81794 0.90339 0.0
C1316 C 0.50073 0.80058 0.87662 0.0
C1317 C 0.52897 0.81578 0.86033 0.0
C1318 C 0.53901 0.84846 0.87085 0.0
C1319 C 0.52157 0.86631 0.89624 0.0
C1320 C 0.53851 0.90068 0.90339 0.0
C1321 C 0.51414 0.93056 0.89433 0.0
C1322 C 0.55087 0.903 0.94103 0.0
C1323 C 0.56855 0.89886 0.87865 0.0
C1324 C 0.56828 0.86859 0.86003 0.0
C1325 C 0.59401 0.86062 0.83633 0.0
C1326 C 0.62088 0.88425 0.83171 0.0
C1327 C 0.62185 0.91519 0.85086 0.0
C1328 C 0.59492 0.9228 0.87405 0.0
H1329 H 0.89421 0.03942 0.40096 0.0
H1330 H 0.86543 0.09503 0.3084 0.0
H1331 H 0.91559 0.13353 0.31613 0.0
H1332 H 0.91911 0.11431 0.44972 0.0
H1333 H 0.95429 0.09317 0.47153 0.0
H1334 H 0.91754 0.06856 0.45747 0.0
H1335 H 0.95783 0.02814 0.4231 0.0
H1336 H 0.9947 0.05283 0.43678 0.0
H1337 H 0.98666 0.04614 0.3915 0.0
H1338 H 0.9666 0.16633 0.3342 0.0
H1339 H 0.01477 0.19511 0.36295 0.0
H1340 H 0.01026 0.1208 0.44666 0.0
C1341 C 0.89815 0.06017 0.38275 0.0
C1342 C 0.87548 0.06504 0.35452 0.0
C1343 C 0.88232 0.09133 0.33033 0.0
C1344 C 0.91071 0.11315 0.33451 0.0
C1345 C 0.93208 0.10814 0.36297 0.0
C1346 C 0.92615 0.08251 0.38685 0.0
C1347 C 0.95246 0.08382 0.41588 0.0
C1348 C 0.93479 0.09037 0.45071 0.0
C1349 C 0.9742 0.05076 0.41685 0.0
C1350 C 0.97386 0.11456 0.40474 0.0
C1351 C 0.96171 0.12772 0.37388 0.0
C1352 C 0.97637 0.15633 0.35835 0.0
C1353 C 0.00375 0.17252 0.37506 0.0
C1354 C 0.01625 0.16037 0.40726 0.0
C1355 C 0.00144 0.13055 0.42202 0.0
loop_
_geom_bond_atom_site_label_1
_geom_bond_atom_site_label_2
_geom_bond_distance
_geom_bond_site_symmetry_2
_ccdc_geom_bond_type
Zn0 O1 2.055 . S
Zn0 O8 2.046 . S
Zn0 N16 2.036 . S
Zn0 O28 2.053 . S
Zn0 O30 2.066 . S
O1 Zn0 2.055 . S
O1 C4 1.259 . S
C2 O30 1.256 . S
C2 O31 1.244 . S
Zn3 O5 2.046 . S
Zn3 O7 2.055 . S
Zn3 N9 2.036 . S
Zn3 O27 2.066 . S
Zn3 O31 2.053 . S
C4 O1 1.259 . S
C4 O5 1.254 . S
O5 Zn3 2.046 . S
O5 C4 1.254 . S
C6 O27 1.256 . S
C6 O28 1.244 . S
O7 Zn3 2.055 . S
O7 C29 1.259 . S
O8 Zn0 2.046 . S
O8 C29 1.254 . S
N9 Zn3 2.036 . S
N9 C10 1.298 . S
N9 N12 1.398 . S
C10 N9 1.298 . S
C10 N13 1.367 . S
C10 C23 1.481 . S
C11 N12 1.299 . S
C11 N13 1.379 . S
N12 N9 1.398 . S
N12 C11 1.299 . S
N13 C10 1.367 . S
N13 C11 1.379 . S
C14 N16 1.298 . S
C14 N18 1.367 . S
C14 C22 1.481 . S
C15 N17 1.299 . S
C15 N18 1.379 . S
N16 Zn0 2.036 . S
N16 C14 1.298 . S
N16 N17 1.398 . S
N17 C15 1.299 . S
N17 N16 1.398 . S
N18 C14 1.367 . S
N18 C15 1.379 . S
H19 C22 0.980 . S
H20 C22 0.981 . S
H21 C22 0.981 . S
C22 C14 1.481 . S
C22 H19 0.980 . S
C22 H20 0.981 . S
C22 H21 0.981 . S
C23 C10 1.481 . S
C23 H24 0.980 . S
C23 H25 0.981 . S
C23 H26 0.981 . S
H24 C23 0.980 . S
H25 C23 0.981 . S
H26 C23 0.981 . S
O27 Zn3 2.066 . S
O27 C6 1.256 . S
O28 Zn0 2.053 . S
O28 C6 1.244 . S
C29 O7 1.259 . S
C29 O8 1.254 . S
O30 Zn0 2.066 . S
O30 C2 1.256 . S
O31 C2 1.244 . S
O31 Zn3 2.053 . S
Zn32 O33 2.055 . S
Zn32 O40 2.046 . S
Zn32 N48 2.036 . S
Zn32 O60 2.053 1_655 S
Zn32 O62 2.066 1_655 S
O33 Zn32 2.055 . S
O33 C36 1.259 . S
C34 O62 1.256 . S
C34 O63 1.244 . S
Zn35 O37 2.046 . S
Zn35 O39 2.055 . S
Zn35 N41 2.036 . S
Zn35 O59 2.066 . S
Zn35 O63 2.053 . S
C36 O33 1.259 . S
C36 O37 1.254 1_655 S
O37 Zn35 2.046 . S
O37 C36 1.254 1_455 S
C38 O59 1.256 . S
C38 O60 1.244 . S
O39 Zn35 2.055 . S
O39 C61 1.259 1_455 S
O40 Zn32 2.046 . S
O40 C61 1.254 . S
N41 Zn35 2.036 . S
N41 C42 1.298 . S
N41 N44 1.398 . S
C42 N41 1.298 . S
C42 N45 1.367 . S
C42 C55 1.481 . S
C43 N44 1.299 . S
C43 N45 1.379 . S
N44 N41 1.398 . S
N44 C43 1.299 . S
N45 C42 1.367 . S
N45 C43 1.379 . S
C46 N48 1.298 . S
C46 N50 1.367 . S
C46 C54 1.481 . S
C47 N49 1.299 . S
C47 N50 1.379 . S
N48 Zn32 2.036 . S
N48 C46 1.298 . S
N48 N49 1.398 . S
N49 C47 1.299 . S
N49 N48 1.398 . S
N50 C46 1.367 . S
N50 C47 1.379 . S
H51 C54 0.980 . S
H52 C54 0.981 . S
H53 C54 0.981 . S
C54 C46 1.481 . S
C54 H51 0.980 . S
C54 H52 0.981 . S
C54 H53 0.981 . S
C55 C42 1.481 . S
C55 H56 0.980 . S
C55 H57 0.981 . S
C55 H58 0.981 . S
H56 C55 0.980 . S
H57 C55 0.981 . S
H58 C55 0.981 . S
O59 Zn35 2.066 . S
O59 C38 1.256 . S
O60 Zn32 2.053 1_455 S
O60 C38 1.244 . S
C61 O39 1.259 1_655 S
C61 O40 1.254 . S
O62 Zn32 2.066 1_455 S
O62 C34 1.256 . S
O63 C34 1.244 . S
O63 Zn35 2.053 . S
Zn64 O65 2.055 . S
Zn64 O72 2.046 . S
Zn64 N80 2.036 . S
Zn64 O92 2.053 1_554 S
Zn64 O94 2.066 1_554 S
O65 Zn64 2.055 . S
O65 C68 1.259 . S
C66 O94 1.256 . S
C66 O95 1.244 . S
Zn67 O69 2.046 . S
Zn67 O71 2.055 . S
Zn67 N73 2.036 . S
Zn67 O91 2.066 . S
Zn67 O95 2.053 . S
C68 O65 1.259 . S
C68 O69 1.254 1_554 S
O69 Zn67 2.046 . S
O69 C68 1.254 1_556 S
C70 O91 1.256 . S
C70 O92 1.244 . S
O71 Zn67 2.055 . S
O71 C93 1.259 1_556 S
O72 Zn64 2.046 . S
O72 C93 1.254 . S
N73 Zn67 2.036 . S
N73 C74 1.298 . S
N73 N76 1.398 . S
C74 N73 1.298 . S
C74 N77 1.367 . S
C74 C87 1.481 . S
C75 N76 1.299 . S
C75 N77 1.379 . S
N76 N73 1.398 . S
N76 C75 1.299 . S
N77 C74 1.367 . S
N77 C75 1.379 . S
C78 N80 1.298 . S
C78 N82 1.367 . S
C78 C86 1.481 . S
C79 N81 1.299 . S
C79 N82 1.379 . S
N80 Zn64 2.036 . S
N80 C78 1.298 . S
N80 N81 1.398 . S
N81 C79 1.299 . S
N81 N80 1.398 . S
N82 C78 1.367 . S
N82 C79 1.379 . S
H83 C86 0.980 . S
H84 C86 0.981 . S
H85 C86 0.981 . S
C86 C78 1.481 . S
C86 H83 0.980 . S
C86 H84 0.981 . S
C86 H85 0.981 . S
C87 C74 1.481 . S
C87 H88 0.980 . S
C87 H89 0.981 . S
C87 H90 0.981 . S
H88 C87 0.980 . S
H89 C87 0.981 . S
H90 C87 0.981 . S
O91 Zn67 2.066 . S
O91 C70 1.256 . S
O92 Zn64 2.053 1_556 S
O92 C70 1.244 . S
C93 O71 1.259 1_554 S
C93 O72 1.254 . S
O94 Zn64 2.066 1_556 S
O94 C66 1.256 . S
O95 C66 1.244 . S
O95 Zn67 2.053 . S
Zn96 O97 2.055 . S
Zn96 O104 2.046 . S
Zn96 N112 2.036 . S
Zn96 O124 2.053 . S
Zn96 O126 2.066 . S
O97 Zn96 2.055 . S
O97 C100 1.259 . S
C98 O126 1.256 . S
C98 O127 1.244 . S
Zn99 O101 2.046 . S
Zn99 O103 2.055 . S
Zn99 N105 2.036 . S
Zn99 O123 2.066 . S
Zn99 O127 2.053 . S
C100 O97 1.259 . S
C100 O101 1.254 . S
O101 Zn99 2.046 . S
O101 C100 1.254 . S
C102 O123 1.256 . S
C102 O124 1.244 . S
O103 Zn99 2.055 . S
O103 C125 1.259 . S
O104 Zn96 2.046 . S
O104 C125 1.254 . S
N105 Zn99 2.036 . S
N105 C106 1.298 . S
N105 N108 1.398 . S
C106 N105 1.298 . S
C106 N109 1.367 . S
C106 C119 1.481 . S
C107 N108 1.299 . S
C107 N109 1.379 . S
N108 N105 1.398 . S
N108 C107 1.299 . S
N109 C106 1.367 . S
N109 C107 1.379 . S
C110 N112 1.298 . S
C110 N114 1.367 . S
C110 C118 1.481 . S
C111 N113 1.299 . S
C111 N114 1.379 . S
N112 Zn96 2.036 . S
N112 C110 1.298 . S
N112 N113 1.398 . S
N113 C111 1.299 . S
N113 N112 1.398 . S
N114 C110 1.367 . S
N114 C111 1.379 . S
H115 C118 0.980 . S
H116 C118 0.981 . S
H117 C118 0.981 . S
C118 C110 1.481 . S
C118 H115 0.980 . S
C118 H116 0.981 . S
C118 H117 0.981 . S
C119 C106 1.481 . S
C119 H120 0.980 . S
C119 H121 0.981 . S
C119 H122 0.981 . S
H120 C119 0.980 . S
H121 C119 0.981 . S
H122 C119 0.981 . S
O123 Zn99 2.066 . S
O123 C102 1.256 . S
O124 Zn96 2.053 . S
O124 C102 1.244 . S
C125 O103 1.259 . S
C125 O104 1.254 . S
O126 Zn96 2.066 . S
O126 C98 1.256 . S
O127 C98 1.244 . S
O127 Zn99 2.053 . S
Zn128 O129 2.055 . S
Zn128 O136 2.046 . S
Zn128 N144 2.036 . S
Zn128 O156 2.053 . S
Zn128 O158 2.066 . S
O129 Zn128 2.055 . S
O129 C132 1.259 . S
C130 O158 1.256 . S
C130 O159 1.244 . S
Zn131 O133 2.046 . S
Zn131 O135 2.055 . S
Zn131 N137 2.036 . S
Zn131 O155 2.066 . S
Zn131 O159 2.053 . S
C132 O129 1.259 . S
C132 O133 1.254 . S
O133 Zn131 2.046 . S
O133 C132 1.254 . S
C134 O155 1.256 . S
C134 O156 1.244 . S
O135 Zn131 2.055 . S
O135 C157 1.259 . S
O136 Zn128 2.046 . S
O136 C157 1.254 . S
N137 Zn131 2.036 . S
N137 C138 1.298 . S
N137 N140 1.398 . S
C138 N137 1.298 . S
C138 N141 1.367 . S
C138 C151 1.481 . S
C139 N140 1.299 . S
C139 N141 1.379 . S
N140 N137 1.398 . S
N140 C139 1.299 . S
N141 C138 1.367 . S
N141 C139 1.379 . S
C142 N144 1.298 . S
C142 N146 1.367 . S
C142 C150 1.481 . S
C143 N145 1.299 . S
C143 N146 1.379 . S
N144 Zn128 2.036 . S
N144 C142 1.298 . S
N144 N145 1.398 . S
N145 C143 1.299 . S
N145 N144 1.398 . S
N146 C142 1.367 . S
N146 C143 1.379 . S
H147 C150 0.980 . S
H148 C150 0.981 . S
H149 C150 0.981 . S
C150 C142 1.481 . S
C150 H147 0.980 . S
C150 H148 0.981 . S
C150 H149 0.981 . S
C151 C138 1.481 . S
C151 H152 0.980 . S
C151 H153 0.981 . S
C151 H154 0.981 . S
H152 C151 0.980 . S
H153 C151 0.981 . S
H154 C151 0.981 . S
O155 Zn131 2.066 . S
O155 C134 1.256 . S
O156 Zn128 2.053 . S
O156 C134 1.244 . S
C157 O135 1.259 . S
C157 O136 1.254 . S
O158 Zn128 2.066 . S
O158 C130 1.256 . S
O159 C130 1.244 . S
O159 Zn131 2.053 . S
Zn160 O161 2.055 . S
Zn160 O168 2.046 . S
Zn160 N176 2.036 . S
Zn160 O188 2.053 . S
Zn160 O190 2.066 . S
O161 Zn160 2.055 . S
O161 C164 1.259 1_655 S
C162 O190 1.256 . S
C162 O191 1.244 . S
Zn163 O165 2.046 . S
Zn163 O167 2.055 . S
Zn163 N169 2.036 . S
Zn163 O187 2.066 1_455 S
Zn163 O191 2.053 1_455 S
C164 O161 1.259 1_455 S
C164 O165 1.254 . S
O165 Zn163 2.046 . S
O165 C164 1.254 . S
C166 O187 1.256 . S
C166 O188 1.244 . S
O167 Zn163 2.055 . S
O167 C189 1.259 . S
O168 Zn160 2.046 . S
O168 C189 1.254 1_655 S
N169 Zn163 2.036 . S
N169 C170 1.298 . S
N169 N172 1.398 . S
C170 N169 1.298 . S
C170 N173 1.367 . S
C170 C183 1.481 . S
C171 N172 1.299 . S
C171 N173 1.379 . S
N172 N169 1.398 . S
N172 C171 1.299 . S
N173 C170 1.367 . S
N173 C171 1.379 . S
C174 N176 1.298 . S
C174 N178 1.367 . S
C174 C182 1.481 . S
C175 N177 1.299 . S
C175 N178 1.379 . S
N176 Zn160 2.036 . S
N176 C174 1.298 . S
N176 N177 1.398 . S
N177 C175 1.299 . S
N177 N176 1.398 . S
N178 C174 1.367 . S
N178 C175 1.379 . S
H179 C182 0.980 . S
H180 C182 0.981 . S
H181 C182 0.981 . S
C182 C174 1.481 . S
C182 H179 0.980 . S
C182 H180 0.981 . S
C182 H181 0.981 . S
C183 C170 1.481 . S
C183 H184 0.980 . S
C183 H185 0.981 . S
C183 H186 0.981 . S
H184 C183 0.980 . S
H185 C183 0.981 . S
H186 C183 0.981 . S
O187 Zn163 2.066 1_655 S
O187 C166 1.256 . S
O188 Zn160 2.053 . S
O188 C166 1.244 . S
C189 O167 1.259 . S
C189 O168 1.254 1_455 S
O190 Zn160 2.066 . S
O190 C162 1.256 . S
O191 C162 1.244 . S
O191 Zn163 2.053 1_655 S
Zn192 O193 2.055 . S
Zn192 O200 2.046 . S
Zn192 N208 2.036 . S
Zn192 O220 2.053 . S
Zn192 O222 2.066 . S
O193 Zn192 2.055 . S
O193 C196 1.259 1_554 S
C194 O222 1.256 . S
C194 O223 1.244 . S
Zn195 O197 2.046 . S
Zn195 O199 2.055 . S
Zn195 N201 2.036 . S
Zn195 O219 2.066 1_556 S
Zn195 O223 2.053 1_556 S
C196 O193 1.259 1_556 S
C196 O197 1.254 . S
O197 Zn195 2.046 . S
O197 C196 1.254 . S
C198 O219 1.256 . S
C198 O220 1.244 . S
O199 Zn195 2.055 . S
O199 C221 1.259 . S
O200 Zn192 2.046 . S
O200 C221 1.254 1_554 S
N201 Zn195 2.036 . S
N201 C202 1.298 . S
N201 N204 1.398 . S
C202 N201 1.298 . S
C202 N205 1.367 . S
C202 C215 1.481 . S
C203 N204 1.299 . S
C203 N205 1.379 . S
N204 N201 1.398 . S
N204 C203 1.299 . S
N205 C202 1.367 . S
N205 C203 1.379 . S
C206 N208 1.298 . S
C206 N210 1.367 . S
C206 C214 1.481 . S
C207 N209 1.299 . S
C207 N210 1.379 . S
N208 Zn192 2.036 . S
N208 C206 1.298 . S
N208 N209 1.398 . S
N209 C207 1.299 . S
N209 N208 1.398 . S
N210 C206 1.367 . S
N210 C207 1.379 . S
H211 C214 0.980 . S
H212 C214 0.981 . S
H213 C214 0.981 . S
C214 C206 1.481 . S
C214 H211 0.980 . S
C214 H212 0.981 . S
C214 H213 0.981 . S
C215 C202 1.481 . S
C215 H216 0.980 . S
C215 H217 0.981 . S
C215 H218 0.981 . S
H216 C215 0.980 . S
H217 C215 0.981 . S
H218 C215 0.981 . S
O219 Zn195 2.066 1_554 S
O219 C198 1.256 . S
O220 Zn192 2.053 . S
O220 C198 1.244 . S
C221 O199 1.259 . S
C221 O200 1.254 1_556 S
O222 Zn192 2.066 . S
O222 C194 1.256 . S
O223 C194 1.244 . S
O223 Zn195 2.053 1_554 S
Zn224 O225 2.055 . S
Zn224 O232 2.046 . S
Zn224 N240 2.036 . S
Zn224 O252 2.053 . S
Zn224 O254 2.066 . S
O225 Zn224 2.055 . S
O225 C228 1.259 . S
C226 O254 1.256 . S
C226 O255 1.244 . S
Zn227 O229 2.046 . S
Zn227 O231 2.055 . S
Zn227 N233 2.036 . S
Zn227 O251 2.066 . S
Zn227 O255 2.053 . S
C228 O225 1.259 . S
C228 O229 1.254 . S
O229 Zn227 2.046 . S
O229 C228 1.254 . S
C230 O251 1.256 . S
C230 O252 1.244 . S
O231 Zn227 2.055 . S
O231 C253 1.259 . S
O232 Zn224 2.046 . S
O232 C253 1.254 . S
N233 Zn227 2.036 . S
N233 C234 1.298 . S
N233 N236 1.398 . S
C234 N233 1.298 . S
C234 N237 1.367 . S
C234 C247 1.481 . S
C235 N236 1.299 . S
C235 N237 1.379 . S
N236 N233 1.398 . S
N236 C235 1.299 . S
N237 C234 1.367 . S
N237 C235 1.379 . S
C238 N240 1.298 . S
C238 N242 1.367 . S
C238 C246 1.481 . S
C239 N241 1.299 . S
C239 N242 1.379 . S
N240 Zn224 2.036 . S
N240 C238 1.298 . S
N240 N241 1.398 . S
N241 C239 1.299 . S
N241 N240 1.398 . S
N242 C238 1.367 . S
N242 C239 1.379 . S
H243 C246 0.980 . S
H244 C246 0.981 . S
H245 C246 0.981 . S
C246 C238 1.481 . S
C246 H243 0.980 . S
C246 H244 0.981 . S
C246 H245 0.981 . S
C247 C234 1.481 . S
C247 H248 0.980 . S
C247 H249 0.981 . S
C247 H250 0.981 . S
H248 C247 0.980 . S
H249 C247 0.981 . S
H250 C247 0.981 . S
O251 Zn227 2.066 . S
O251 C230 1.256 . S
O252 Zn224 2.053 . S
O252 C230 1.244 . S
C253 O231 1.259 . S
C253 O232 1.254 . S
O254 Zn224 2.066 . S
O254 C226 1.256 . S
O255 C226 1.244 . S
O255 Zn227 2.053 . S
Zn256 O257 2.055 . S
Zn256 O264 2.046 . S
Zn256 N272 2.036 . S
Zn256 O284 2.053 . S
Zn256 O286 2.066 . S
O257 Zn256 2.055 . S
O257 C260 1.259 . S
C258 O286 1.256 . S
C258 O287 1.244 . S
Zn259 O261 2.046 . S
Zn259 O263 2.055 . S
Zn259 N265 2.036 . S
Zn259 O283 2.066 . S
Zn259 O287 2.053 . S
C260 O257 1.259 . S
C260 O261 1.254 . S
O261 Zn259 2.046 . S
O261 C260 1.254 . S
C262 O283 1.256 . S
C262 O284 1.244 . S
O263 Zn259 2.055 . S
O263 C285 1.259 . S
O264 Zn256 2.046 . S
O264 C285 1.254 . S
N265 Zn259 2.036 . S
N265 C266 1.298 . S
N265 N268 1.398 . S
C266 N265 1.298 . S
C266 N269 1.367 . S
C266 C279 1.481 . S
C267 N268 1.299 . S
C267 N269 1.379 . S
N268 N265 1.398 . S
N268 C267 1.299 . S
N269 C266 1.367 . S
N269 C267 1.379 . S
C270 N272 1.298 . S
C270 N274 1.367 . S
C270 C278 1.481 . S
C271 N273 1.299 . S
C271 N274 1.379 . S
N272 Zn256 2.036 . S
N272 C270 1.298 . S
N272 N273 1.398 . S
N273 C271 1.299 . S
N273 N272 1.398 . S
N274 C270 1.367 . S
N274 C271 1.379 . S
H275 C278 0.980 . S
H276 C278 0.981 . S
H277 C278 0.981 . S
C278 C270 1.481 . S
C278 H275 0.980 . S
C278 H276 0.981 . S
C278 H277 0.981 . S
C279 C266 1.481 . S
C279 H280 0.980 . S
C279 H281 0.981 . S
C279 H282 0.981 . S
H280 C279 0.980 . S
H281 C279 0.981 . S
H282 C279 0.981 . S
O283 Zn259 2.066 . S
O283 C262 1.256 . S
O284 Zn256 2.053 . S
O284 C262 1.244 . S
C285 O263 1.259 . S
C285 O264 1.254 . S
O286 Zn256 2.066 . S
O286 C258 1.256 . S
O287 C258 1.244 . S
O287 Zn259 2.053 . S
Zn288 O289 2.055 . S
Zn288 O296 2.046 . S
Zn288 N304 2.036 . S
Zn288 O316 2.053 . S
Zn288 O318 2.066 . S
O289 Zn288 2.055 . S
O289 C292 1.259 1_545 S
C290 O318 1.256 . S
C290 O319 1.244 . S
Zn291 O293 2.046 . S
Zn291 O295 2.055 . S
Zn291 N297 2.036 . S
Zn291 O315 2.066 1_565 S
Zn291 O319 2.053 1_565 S
C292 O289 1.259 1_565 S
C292 O293 1.254 . S
O293 Zn291 2.046 . S
O293 C292 1.254 . S
C294 O315 1.256 . S
C294 O316 1.244 . S
O295 Zn291 2.055 . S
O295 C317 1.259 . S
O296 Zn288 2.046 . S
O296 C317 1.254 1_545 S
N297 Zn291 2.036 . S
N297 C298 1.298 . S
N297 N300 1.398 . S
C298 N297 1.298 . S
C298 N301 1.367 . S
C298 C311 1.481 . S
C299 N300 1.299 . S
C299 N301 1.379 . S
N300 N297 1.398 . S
N300 C299 1.299 . S
N301 C298 1.367 . S
N301 C299 1.379 . S
C302 N304 1.298 . S
C302 N306 1.367 . S
C302 C310 1.481 . S
C303 N305 1.299 . S
C303 N306 1.379 . S
N304 Zn288 2.036 . S
N304 C302 1.298 . S
N304 N305 1.398 . S
N305 C303 1.299 . S
N305 N304 1.398 . S
N306 C302 1.367 . S
N306 C303 1.379 . S
H307 C310 0.980 . S
H308 C310 0.981 . S
H309 C310 0.981 . S
C310 C302 1.481 . S
C310 H307 0.980 . S
C310 H308 0.981 . S
C310 H309 0.981 . S
C311 C298 1.481 . S
C311 H312 0.980 . S
C311 H313 0.981 . S
C311 H314 0.981 . S
H312 C311 0.980 . S
H313 C311 0.981 . S
H314 C311 0.981 . S
O315 Zn291 2.066 1_545 S
O315 C294 1.256 . S
O316 Zn288 2.053 . S
O316 C294 1.244 . S
C317 O295 1.259 . S
C317 O296 1.254 1_565 S
O318 Zn288 2.066 . S
O318 C290 1.256 . S
O319 C290 1.244 . S
O319 Zn291 2.053 1_545 S
Zn320 O321 2.055 . S
Zn320 O328 2.046 . S
Zn320 N336 2.036 . S
Zn320 O348 2.053 . S
Zn320 O350 2.066 . S
O321 Zn320 2.055 . S
O321 C324 1.259 1_565 S
C322 O350 1.256 . S
C322 O351 1.244 . S
Zn323 O325 2.046 . S
Zn323 O327 2.055 . S
Zn323 N329 2.036 . S
Zn323 O347 2.066 1_545 S
Zn323 O351 2.053 1_545 S
C324 O321 1.259 1_545 S
C324 O325 1.254 . S
O325 Zn323 2.046 . S
O325 C324 1.254 . S
C326 O347 1.256 . S
C326 O348 1.244 . S
O327 Zn323 2.055 . S
O327 C349 1.259 . S
O328 Zn320 2.046 . S
O328 C349 1.254 1_565 S
N329 Zn323 2.036 . S
N329 C330 1.298 . S
N329 N332 1.398 . S
C330 N329 1.298 . S
C330 N333 1.367 . S
C330 C343 1.481 . S
C331 N332 1.299 . S
C331 N333 1.379 . S
N332 N329 1.398 . S
N332 C331 1.299 . S
N333 C330 1.367 . S
N333 C331 1.379 . S
C334 N336 1.298 . S
C334 N338 1.367 . S
C334 C342 1.481 . S
C335 N337 1.299 . S
C335 N338 1.379 . S
N336 Zn320 2.036 . S
N336 C334 1.298 . S
N336 N337 1.398 . S
N337 C335 1.299 . S
N337 N336 1.398 . S
N338 C334 1.367 . S
N338 C335 1.379 . S
H339 C342 0.980 . S
H340 C342 0.981 . S
H341 C342 0.981 . S
C342 C334 1.481 . S
C342 H339 0.980 . S
C342 H340 0.981 . S
C342 H341 0.981 . S
C343 C330 1.481 . S
C343 H344 0.980 . S
C343 H345 0.981 . S
C343 H346 0.981 . S
H344 C343 0.980 . S
H345 C343 0.981 . S
H346 C343 0.981 . S
O347 Zn323 2.066 1_565 S
O347 C326 1.256 . S
O348 Zn320 2.053 . S
O348 C326 1.244 . S
C349 O327 1.259 . S
C349 O328 1.254 1_545 S
O350 Zn320 2.066 . S
O350 C322 1.256 . S
O351 C322 1.244 . S
O351 Zn323 2.053 1_565 S
Zn352 O353 2.055 . S
Zn352 O360 2.046 . S
Zn352 N368 2.036 . S
Zn352 O380 2.053 . S
Zn352 O382 2.066 . S
O353 Zn352 2.055 . S
O353 C356 1.259 . S
C354 O382 1.256 . S
C354 O383 1.244 . S
Zn355 O357 2.046 . S
Zn355 O359 2.055 . S
Zn355 N361 2.036 . S
Zn355 O379 2.066 . S
Zn355 O383 2.053 . S
C356 O353 1.259 . S
C356 O357 1.254 . S
O357 Zn355 2.046 . S
O357 C356 1.254 . S
C358 O379 1.256 . S
C358 O380 1.244 . S
O359 Zn355 2.055 . S
O359 C381 1.259 . S
O360 Zn352 2.046 . S
O360 C381 1.254 . S
N361 Zn355 2.036 . S
N361 C362 1.298 . S
N361 N364 1.398 . S
C362 N361 1.298 . S
C362 N365 1.367 . S
C362 C375 1.481 . S
C363 N364 1.299 . S
C363 N365 1.379 . S
N364 N361 1.398 . S
N364 C363 1.299 . S
N365 C362 1.367 . S
N365 C363 1.379 . S
C366 N368 1.298 . S
C366 N370 1.367 . S
C366 C374 1.481 . S
C367 N369 1.299 . S
C367 N370 1.379 . S
N368 Zn352 2.036 . S
N368 C366 1.298 . S
N368 N369 1.398 . S
N369 C367 1.299 . S
N369 N368 1.398 . S
N370 C366 1.367 . S
N370 C367 1.379 . S
H371 C374 0.980 . S
H372 C374 0.981 . S
H373 C374 0.981 . S
C374 C366 1.481 . S
C374 H371 0.980 . S
C374 H372 0.981 . S
C374 H373 0.981 . S
C375 C362 1.481 . S
C375 H376 0.980 . S
C375 H377 0.981 . S
C375 H378 0.981 . S
H376 C375 0.980 . S
H377 C375 0.981 . S
H378 C375 0.981 . S
O379 Zn355 2.066 . S
O379 C358 1.256 . S
O380 Zn352 2.053 . S
O380 C358 1.244 . S
C381 O359 1.259 . S
C381 O360 1.254 . S
O382 Zn352 2.066 . S
O382 C354 1.256 . S
O383 C354 1.244 . S
O383 Zn355 2.053 . S
H384 C396 0.930 . S
H385 C398 0.930 . S
H386 C399 0.930 . S
H387 C403 0.959 . S
H388 C403 0.959 . S
H389 C403 0.961 . S
H390 C404 0.960 . S
H391 C404 0.961 . S
H392 C404 0.959 . S
H393 C407 0.929 . S
H394 C408 0.931 . S
H395 C410 0.930 . S
C396 H384 0.930 . S
C396 C397 1.399 . S
C396 C401 1.399 . S
C397 C396 1.399 . S
C397 C398 1.376 . S
C398 H385 0.930 . S
C398 C397 1.376 . S
C398 C399 1.388 . S
C399 H386 0.930 . S
C399 C398 1.388 . S
C399 C400 1.390 . S
C400 C399 1.390 . S
C400 C401 1.394 . S
C400 C406 1.465 . S
C401 C396 1.399 . S
C401 C400 1.394 . S
C401 C402 1.516 . S
C402 C401 1.516 . S
C402 C403 1.502 . S
C402 C404 1.561 . S
C402 C405 1.526 . S
C403 H387 0.959 . S
C403 H388 0.959 . S
C403 H389 0.961 . S
C403 C402 1.502 . S
C404 H390 0.960 . S
C404 H391 0.961 . S
C404 H392 0.959 . S
C404 C402 1.561 . S
C405 C402 1.526 . S
C405 C406 1.396 . S
C405 C410 1.390 . S
C406 C400 1.465 . S
C406 C405 1.396 . S
C406 C407 1.399 . S
C407 H393 0.929 . S
C407 C406 1.399 . S
C407 C408 1.385 . S
C408 H394 0.931 . S
C408 C407 1.385 . S
C408 C409 1.389 . S
C409 C408 1.389 . S
C409 C410 1.387 . S
C410 H395 0.930 . S
C410 C405 1.390 . S
C410 C409 1.387 . S
H411 C423 0.930 . S
H412 C425 0.930 . S
H413 C426 0.930 . S
H414 C430 0.959 . S
H415 C430 0.959 . S
H416 C430 0.961 . S
H417 C431 0.960 . S
H418 C431 0.961 . S
H419 C431 0.959 . S
H420 C434 0.912 1_545 S
H421 C435 0.931 . S
H422 C437 0.930 . S
C423 H411 0.930 . S
C423 C424 1.399 . S
C423 C428 1.399 . S
C424 C423 1.399 . S
C424 C425 1.376 1_565 S
C425 H412 0.930 . S
C425 C424 1.376 1_545 S
C425 C426 1.388 . S
C426 H413 0.930 . S
C426 C425 1.388 . S
C426 C427 1.390 1_545 S
C427 C426 1.390 1_565 S
C427 C428 1.394 . S
C427 C433 1.465 . S
C428 C423 1.399 . S
C428 C427 1.394 . S
C428 C429 1.516 . S
C429 C428 1.516 . S
C429 C430 1.502 . S
C429 C431 1.561 . S
C429 C432 1.526 . S
C430 H414 0.959 . S
C430 H415 0.959 . S
C430 H416 0.961 . S
C430 C429 1.502 . S
C431 H417 0.960 . S
C431 H418 0.961 . S
C431 H419 0.959 . S
C431 C429 1.561 . S
C432 C429 1.526 . S
C432 C433 1.396 . S
C432 C437 1.390 . S
C433 C427 1.465 . S
C433 C432 1.396 . S
C433 C434 1.409 . S
C434 H420 0.912 1_565 S
C434 C433 1.409 . S
C434 C435 1.393 . S
C435 H421 0.931 . S
C435 C434 1.393 . S
C435 C436 1.389 . S
C436 C435 1.389 . S
C436 C437 1.387 . S
C437 H422 0.930 . S
C437 C432 1.390 . S
C437 C436 1.387 . S
H438 C450 0.930 . S
H439 C452 0.930 . S
H440 C453 0.930 . S
H441 C457 0.959 1_554 S
H442 C457 0.959 . S
H443 C457 0.961 . S
H444 C458 0.960 . S
H445 C458 0.961 . S
H446 C458 0.959 . S
H447 C461 0.929 . S
H448 C462 0.931 . S
H449 C464 0.930 . S
C450 H438 0.930 . S
C450 C451 1.399 1_556 S
C450 C455 1.399 1_556 S
C451 C450 1.399 1_554 S
C451 C452 1.376 . S
C452 H439 0.930 . S
C452 C451 1.376 . S
C452 C453 1.388 . S
C453 H440 0.930 . S
C453 C452 1.388 . S
C453 C454 1.390 . S
C454 C453 1.390 . S
C454 C455 1.394 . S
C454 C460 1.465 . S
C455 C450 1.399 1_554 S
C455 C454 1.394 . S
C455 C456 1.516 1_554 S
C456 C455 1.516 1_556 S
C456 C457 1.502 . S
C456 C458 1.561 . S
C456 C459 1.526 1_556 S
C457 H441 0.959 1_556 S
C457 H442 0.959 . S
C457 H443 0.961 . S
C457 C456 1.502 . S
C458 H444 0.960 . S
C458 H445 0.961 . S
C458 H446 0.959 . S
C458 C456 1.561 . S
C459 C456 1.526 1_554 S
C459 C460 1.396 . S
C459 C464 1.390 . S
C460 C454 1.465 . S
C460 C459 1.396 . S
C460 C461 1.399 . S
C461 H447 0.929 . S
C461 C460 1.399 . S
C461 C462 1.385 . S
C462 H448 0.931 . S
C462 C461 1.385 . S
C462 C463 1.389 . S
C463 C462 1.389 . S
C463 C464 1.387 . S
C464 H449 0.930 . S
C464 C459 1.390 . S
C464 C463 1.387 . S
H465 C477 0.930 . S
H466 C479 0.930 . S
H467 C480 0.930 1_565 S
H468 C484 0.959 . S
H469 C484 0.959 . S
H470 C484 0.961 . S
H471 C485 0.960 . S
H472 C485 0.961 . S
H473 C485 0.959 . S
H474 C488 0.929 . S
H475 C489 0.931 . S
H476 C491 0.930 . S
C477 H465 0.930 . S
C477 C478 1.399 . S
C477 C482 1.399 . S
C478 C477 1.399 . S
C478 C479 1.376 . S
C479 H466 0.930 . S
C479 C478 1.376 . S
C479 C480 1.388 . S
C480 H467 0.930 1_545 S
C480 C479 1.388 . S
C480 C481 1.390 . S
C481 C480 1.390 . S
C481 C482 1.394 . S
C481 C487 1.465 . S
C482 C477 1.399 . S
C482 C481 1.394 . S
C482 C483 1.516 . S
C483 C482 1.516 . S
C483 C484 1.502 . S
C483 C485 1.561 . S
C483 C486 1.526 . S
C484 H468 0.959 . S
C484 H469 0.959 . S
C484 H470 0.961 . S
C484 C483 1.502 . S
C485 H471 0.960 . S
C485 H472 0.961 . S
C485 H473 0.959 . S
C485 C483 1.561 . S
C486 C483 1.526 . S
C486 C487 1.396 . S
C486 C491 1.390 . S
C487 C481 1.465 . S
C487 C486 1.396 . S
C487 C488 1.399 1_545 S
C488 H474 0.929 . S
C488 C487 1.399 1_565 S
C488 C489 1.385 . S
C489 H475 0.931 . S
C489 C488 1.385 . S
C489 C490 1.389 1_565 S
C490 C489 1.389 1_545 S
C490 C491 1.387 . S
C491 H476 0.930 . S
C491 C486 1.390 . S
C491 C490 1.387 . S
H492 C504 0.930 . S
H493 C506 0.930 . S
H494 C507 0.930 . S
H495 C511 0.959 . S
H496 C511 0.959 . S
H497 C511 0.961 . S
H498 C512 0.960 . S
H499 C512 0.961 . S
H500 C512 0.959 . S
H501 C515 0.929 . S
H502 C516 0.931 . S
H503 C518 0.930 . S
C504 H492 0.930 . S
C504 C505 1.399 . S
C504 C509 1.399 . S
C505 C504 1.399 . S
C505 C506 1.376 . S
C506 H493 0.930 . S
C506 C505 1.376 . S
C506 C507 1.388 . S
C507 H494 0.930 . S
C507 C506 1.388 . S
C507 C508 1.390 . S
C508 C507 1.390 . S
C508 C509 1.394 . S
C508 C514 1.465 . S
C509 C504 1.399 . S
C509 C508 1.394 . S
C509 C510 1.516 . S
C510 C509 1.516 . S
C510 C511 1.502 . S
C510 C512 1.561 . S
C510 C513 1.526 . S
C511 H495 0.959 . S
C511 H496 0.959 . S
C511 H497 0.961 . S
C511 C510 1.502 . S
C512 H498 0.960 . S
C512 H499 0.961 . S
C512 H500 0.959 . S
C512 C510 1.561 . S
C513 C510 1.526 . S
C513 C514 1.396 . S
C513 C518 1.390 . S
C514 C508 1.465 . S
C514 C513 1.396 . S
C514 C515 1.399 . S
C515 H501 0.929 . S
C515 C514 1.399 . S
C515 C516 1.385 . S
C516 H502 0.931 . S
C516 C515 1.385 . S
C516 C517 1.389 . S
C517 C516 1.389 . S
C517 C518 1.387 . S
C518 H503 0.930 . S
C518 C513 1.390 . S
C518 C517 1.387 . S
H519 C531 0.930 . S
H520 C533 0.930 . S
H521 C534 0.930 . S
H522 C538 0.959 . S
H523 C538 0.959 . S
H524 C538 0.961 . S
H525 C539 0.960 . S
H526 C539 0.961 . S
H527 C539 0.959 . S
H528 C542 0.929 . S
H529 C543 0.931 . S
H530 C545 0.930 . S
C531 H519 0.930 . S
C531 C532 1.399 . S
C531 C536 1.399 . S
C532 C531 1.399 . S
C532 C533 1.376 . S
C533 H520 0.930 . S
C533 C532 1.376 . S
C533 C534 1.388 . S
C534 H521 0.930 . S
C534 C533 1.388 . S
C534 C535 1.390 . S
C535 C534 1.390 . S
C535 C536 1.394 . S
C535 C541 1.465 . S
C536 C531 1.399 . S
C536 C535 1.394 . S
C536 C537 1.516 . S
C537 C536 1.516 . S
C537 C538 1.502 . S
C537 C539 1.561 . S
C537 C540 1.526 . S
C538 H522 0.959 . S
C538 H523 0.959 . S
C538 H524 0.961 . S
C538 C537 1.502 . S
C539 H525 0.960 . S
C539 H526 0.961 . S
C539 H527 0.959 . S
C539 C537 1.561 . S
C540 C537 1.526 . S
C540 C541 1.396 . S
C540 C545 1.390 . S
C541 C535 1.465 . S
C541 C540 1.396 . S
C541 C542 1.399 . S
C542 H528 0.929 . S
C542 C541 1.399 . S
C542 C543 1.385 . S
C543 H529 0.931 . S
C543 C542 1.385 . S
C543 C544 1.389 . S
C544 C543 1.389 . S
C544 C545 1.387 . S
C545 H530 0.930 . S
C545 C540 1.390 . S
C545 C544 1.387 . S
H546 C558 0.930 . S
H547 C560 0.930 . S
H548 C561 0.899 1_554 S
H549 C565 0.959 . S
H550 C565 0.959 . S
H551 C565 0.961 . S
H552 C566 0.960 . S
H553 C566 0.961 . S
H554 C566 0.959 . S
H555 C569 0.929 . S
H556 C570 0.931 . S
H557 C572 0.930 . S
C558 H546 0.930 . S
C558 C559 1.399 . S
C558 C563 1.399 . S
C559 C558 1.399 . S
C559 C560 1.376 . S
C560 H547 0.930 . S
C560 C559 1.376 . S
C560 C561 1.402 . S
C561 H548 0.899 1_556 S
C561 C560 1.402 . S
C561 C562 1.408 . S
C562 C561 1.408 . S
C562 C563 1.394 . S
C562 C568 1.465 . S
C563 C558 1.399 . S
C563 C562 1.394 . S
C563 C564 1.516 . S
C564 C563 1.516 . S
C564 C565 1.502 . S
C564 C566 1.561 . S
C564 C567 1.526 . S
C565 H549 0.959 . S
C565 H550 0.959 . S
C565 H551 0.961 . S
C565 C564 1.502 . S
C566 H552 0.960 . S
C566 H553 0.961 . S
C566 H554 0.959 . S
C566 C564 1.561 . S
C567 C564 1.526 . S
C567 C568 1.396 . S
C567 C572 1.390 . S
C568 C562 1.465 . S
C568 C567 1.396 . S
C568 C569 1.399 1_556 S
C569 H555 0.929 . S
C569 C568 1.399 1_554 S
C569 C570 1.385 . S
C570 H556 0.931 . S
C570 C569 1.385 . S
C570 C571 1.389 1_554 S
C571 C570 1.389 1_556 S
C571 C572 1.387 . S
C572 H557 0.930 . S
C572 C567 1.390 . S
C572 C571 1.387 . S
H573 C585 0.930 . S
H574 C587 0.930 . S
H575 C588 0.930 . S
H576 C592 0.959 . S
H577 C592 0.959 . S
H578 C592 0.961 . S
H579 C593 0.960 . S
H580 C593 0.961 . S
H581 C593 0.959 . S
H582 C596 0.929 . S
H583 C597 0.931 . S
H584 C599 0.930 . S
C585 H573 0.930 . S
C585 C586 1.399 . S
C585 C590 1.399 . S
C586 C585 1.399 . S
C586 C587 1.376 . S
C587 H574 0.930 . S
C587 C586 1.376 . S
C587 C588 1.388 . S
C588 H575 0.930 . S
C588 C587 1.388 . S
C588 C589 1.390 . S
C589 C588 1.390 . S
C589 C590 1.394 . S
C589 C595 1.465 . S
C590 C585 1.399 . S
C590 C589 1.394 . S
C590 C591 1.516 . S
C591 C590 1.516 . S
C591 C592 1.502 . S
C591 C593 1.561 . S
C591 C594 1.526 . S
C592 H576 0.959 . S
C592 H577 0.959 . S
C592 H578 0.961 . S
C592 C591 1.502 . S
C593 H579 0.960 . S
C593 H580 0.961 . S
C593 H581 0.959 . S
C593 C591 1.561 . S
C594 C591 1.526 . S
C594 C595 1.396 . S
C594 C599 1.390 . S
C595 C589 1.465 . S
C595 C594 1.396 . S
C595 C596 1.399 . S
C596 H582 0.929 . S
C596 C595 1.399 . S
C596 C597 1.385 . S
C597 H583 0.931 . S
C597 C596 1.385 . S
C597 C598 1.389 . S
C598 C597 1.389 . S
C598 C599 1.387 . S
C599 H584 0.930 . S
C599 C594 1.390 . S
C599 C598 1.387 . S
H600 C612 0.930 . S
H601 C614 0.930 . S
H602 C615 0.930 . S
H603 C619 0.959 . S
H604 C619 0.959 . S
H605 C619 0.961 . S
H606 C620 0.960 . S
H607 C620 0.961 . S
H608 C620 0.959 . S
H609 C623 0.929 . S
H610 C624 0.931 . S
H611 C626 0.930 . S
C612 H600 0.930 . S
C612 C613 1.399 . S
C612 C617 1.399 . S
C613 C612 1.399 . S
C613 C614 1.376 . S
C614 H601 0.930 . S
C614 C613 1.376 . S
C614 C615 1.388 . S
C615 H602 0.930 . S
C615 C614 1.388 . S
C615 C616 1.390 . S
C616 C615 1.390 . S
C616 C617 1.394 . S
C616 C622 1.465 . S
C617 C612 1.399 . S
C617 C616 1.394 . S
C617 C618 1.516 . S
C618 C617 1.516 . S
C618 C619 1.502 . S
C618 C620 1.561 . S
C618 C621 1.526 . S
C619 H603 0.959 . S
C619 H604 0.959 . S
C619 H605 0.961 . S
C619 C618 1.502 . S
C620 H606 0.960 . S
C620 H607 0.961 . S
C620 H608 0.959 . S
C620 C618 1.561 . S
C621 C618 1.526 . S
C621 C622 1.396 . S
C621 C626 1.390 . S
C622 C616 1.465 . S
C622 C621 1.396 . S
C622 C623 1.399 . S
C623 H609 0.929 . S
C623 C622 1.399 . S
C623 C624 1.385 . S
C624 H610 0.931 . S
C624 C623 1.385 . S
C624 C625 1.389 . S
C625 C624 1.389 . S
C625 C626 1.387 . S
C626 H611 0.930 . S
C626 C621 1.390 . S
C626 C625 1.387 . S
H627 C639 0.930 . S
H628 C641 0.930 . S
H629 C642 0.930 . S
H630 C646 0.959 . S
H631 C646 0.959 . S
H632 C646 0.961 . S
H633 C647 0.960 . S
H634 C647 0.961 . S
H635 C647 0.974 . S
H636 C650 0.929 1_655 S
H637 C651 0.931 1_655 S
H638 C653 0.930 . S
C639 H627 0.930 . S
C639 C640 1.399 . S
C639 C644 1.399 . S
C640 C639 1.399 . S
C640 C641 1.376 . S
C641 H628 0.930 . S
C641 C640 1.376 . S
C641 C642 1.388 . S
C642 H629 0.930 . S
C642 C641 1.388 . S
C642 C643 1.390 . S
C643 C642 1.390 . S
C643 C644 1.394 . S
C643 C649 1.465 . S
C644 C639 1.399 . S
C644 C643 1.394 . S
C644 C645 1.516 . S
C645 C644 1.516 . S
C645 C646 1.502 . S
C645 C647 1.561 . S
C645 C648 1.526 . S
C646 H630 0.959 . S
C646 H631 0.959 . S
C646 H632 0.961 . S
C646 C645 1.502 . S
C647 H633 0.960 . S
C647 H634 0.961 . S
C647 H635 0.974 . S
C647 C645 1.561 . S
C648 C645 1.526 . S
C648 C649 1.396 . S
C648 C653 1.390 . S
C649 C643 1.465 . S
C649 C648 1.396 . S
C649 C650 1.399 . S
C650 H636 0.929 1_455 S
C650 C649 1.399 . S
C650 C651 1.385 . S
C651 H637 0.931 1_455 S
C651 C650 1.385 . S
C651 C652 1.389 . S
C652 C651 1.389 . S
C652 C653 1.387 . S
C653 H638 0.930 . S
C653 C648 1.390 . S
C653 C652 1.387 . S
H654 C666 0.930 . S
H655 C668 0.930 . S
H656 C669 0.930 . S
H657 C673 0.959 . S
H658 C673 0.959 . S
H659 C673 0.961 . S
H660 C674 0.960 . S
H661 C674 0.961 . S
H662 C674 0.959 . S
H663 C677 0.929 . S
H664 C678 0.931 . S
H665 C680 0.930 . S
C666 H654 0.930 . S
C666 C667 1.399 . S
C666 C671 1.399 . S
C667 C666 1.399 . S
C667 C668 1.376 . S
C668 H655 0.930 . S
C668 C667 1.376 . S
C668 C669 1.388 . S
C669 H656 0.930 . S
C669 C668 1.388 . S
C669 C670 1.390 . S
C670 C669 1.390 . S
C670 C671 1.394 . S
C670 C676 1.465 . S
C671 C666 1.399 . S
C671 C670 1.394 . S
C671 C672 1.516 . S
C672 C671 1.516 . S
C672 C673 1.502 1_655 S
C672 C674 1.561 . S
C672 C675 1.526 . S
C673 H657 0.959 . S
C673 H658 0.959 . S
C673 H659 0.961 . S
C673 C672 1.502 1_455 S
C674 H660 0.960 . S
C674 H661 0.961 . S
C674 H662 0.959 . S
C674 C672 1.561 . S
C675 C672 1.526 . S
C675 C676 1.396 . S
C675 C680 1.390 . S
C676 C670 1.465 . S
C676 C675 1.396 . S
C676 C677 1.399 . S
C677 H663 0.929 . S
C677 C676 1.399 . S
C677 C678 1.385 . S
C678 H664 0.931 . S
C678 C677 1.385 . S
C678 C679 1.389 . S
C679 C678 1.389 . S
C679 C680 1.387 . S
C680 H665 0.930 . S
C680 C675 1.390 . S
C680 C679 1.387 . S
H681 C693 0.930 . S
H682 C695 0.930 . S
H683 C696 0.930 . S
H684 C700 0.959 . S
H685 C700 0.959 . S
H686 C700 0.961 . S
H687 C701 0.960 . S
H688 C701 0.961 . S
H689 C701 0.959 . S
H690 C704 0.929 . S
H691 C705 0.931 . S
H692 C707 0.930 . S
C693 H681 0.930 . S
C693 C694 1.399 . S
C693 C698 1.399 . S
C694 C693 1.399 . S
C694 C695 1.376 . S
C695 H682 0.930 . S
C695 C694 1.376 . S
C695 C696 1.388 . S
C696 H683 0.930 . S
C696 C695 1.388 . S
C696 C697 1.390 . S
C697 C696 1.390 . S
C697 C698 1.394 . S
C697 C703 1.465 . S
C698 C693 1.399 . S
C698 C697 1.394 . S
C698 C699 1.516 . S
C699 C698 1.516 . S
C699 C700 1.502 . S
C699 C701 1.561 . S
C699 C702 1.526 . S
C700 H684 0.959 . S
C700 H685 0.959 . S
C700 H686 0.961 . S
C700 C699 1.502 . S
C701 H687 0.960 . S
C701 H688 0.961 . S
C701 H689 0.959 . S
C701 C699 1.561 . S
C702 C699 1.526 . S
C702 C703 1.396 . S
C702 C707 1.390 . S
C703 C697 1.465 . S
C703 C702 1.396 . S
C703 C704 1.399 . S
C704 H690 0.929 . S
C704 C703 1.399 . S
C704 C705 1.385 . S
C705 H691 0.931 . S
C705 C704 1.385 . S
C705 C706 1.389 . S
C706 C705 1.389 . S
C706 C707 1.387 . S
C707 H692 0.930 . S
C707 C702 1.390 . S
C707 C706 1.387 . S
H708 C720 0.930 . S
H709 C722 0.930 . S
H710 C723 0.930 . S
H711 C727 0.959 . S
H712 C727 0.959 . S
H713 C727 0.961 . S
H714 C728 0.960 . S
H715 C728 0.961 . S
H716 C728 0.959 . S
H717 C731 0.929 . S
H718 C732 0.931 . S
H719 C734 0.930 . S
C720 H708 0.930 . S
C720 C721 1.399 . S
C720 C725 1.399 . S
C721 C720 1.399 . S
C721 C722 1.376 . S
C722 H709 0.930 . S
C722 C721 1.376 . S
C722 C723 1.388 . S
C723 H710 0.930 . S
C723 C722 1.388 . S
C723 C724 1.390 . S
C724 C723 1.390 . S
C724 C725 1.394 . S
C724 C730 1.465 . S
C725 C720 1.399 . S
C725 C724 1.394 . S
C725 C726 1.516 . S
C726 C725 1.516 . S
C726 C727 1.502 . S
C726 C728 1.561 . S
C726 C729 1.526 . S
C727 H711 0.959 . S
C727 H712 0.959 . S
C727 H713 0.961 . S
C727 C726 1.502 . S
C728 H714 0.960 . S
C728 H715 0.961 . S
C728 H716 0.959 . S
C728 C726 1.561 . S
C729 C726 1.526 . S
C729 C730 1.396 . S
C729 C734 1.390 . S
C730 C724 1.465 . S
C730 C729 1.396 . S
C730 C731 1.399 . S
C731 H717 0.929 . S
C731 C730 1.399 . S
C731 C732 1.385 . S
C732 H718 0.931 . S
C732 C731 1.385 . S
C732 C733 1.389 . S
C733 C732 1.389 . S
C733 C734 1.387 . S
C734 H719 0.930 . S
C734 C729 1.390 . S
C734 C733 1.387 . S
H735 C747 0.930 . S
H736 C749 0.930 . S
H737 C750 0.930 . S
H738 C754 0.959 . S
H739 C754 0.959 . S
H740 C754 0.961 . S
H741 C755 0.960 . S
H742 C755 0.961 . S
H743 C755 0.959 . S
H744 C758 0.929 . S
H745 C759 0.931 . S
H746 C761 0.930 . S
C747 H735 0.930 . S
C747 C748 1.399 . S
C747 C752 1.399 . S
C748 C747 1.399 . S
C748 C749 1.376 . S
C749 H736 0.930 . S
C749 C748 1.376 . S
C749 C750 1.388 . S
C750 H737 0.930 . S
C750 C749 1.388 . S
C750 C751 1.390 . S
C751 C750 1.390 . S
C751 C752 1.394 . S
C751 C757 1.465 . S
C752 C747 1.399 . S
C752 C751 1.394 . S
C752 C753 1.516 . S
C753 C752 1.516 . S
C753 C754 1.502 . S
C753 C755 1.561 . S
C753 C756 1.526 . S
C754 H738 0.959 . S
C754 H739 0.959 . S
C754 H740 0.961 . S
C754 C753 1.502 . S
C755 H741 0.960 . S
C755 H742 0.961 . S
C755 H743 0.959 . S
C755 C753 1.561 . S
C756 C753 1.526 . S
C756 C757 1.396 . S
C756 C761 1.390 . S
C757 C751 1.465 . S
C757 C756 1.396 . S
C757 C758 1.399 . S
C758 H744 0.929 . S
C758 C757 1.399 . S
C758 C759 1.385 . S
C759 H745 0.931 . S
C759 C758 1.385 . S
C759 C760 1.389 . S
C760 C759 1.389 . S
C760 C761 1.387 . S
C761 H746 0.930 . S
C761 C756 1.390 . S
C761 C760 1.387 . S
H762 C774 0.930 . S
H763 C776 0.930 . S
H764 C777 0.930 . S
H765 C781 0.959 . S
H766 C781 0.959 . S
H767 C781 0.961 . S
H768 C782 0.960 . S
H769 C782 0.961 . S
H770 C782 0.959 . S
H771 C785 0.929 . S
H772 C786 0.931 . S
H773 C788 0.930 . S
C774 H762 0.930 . S
C774 C775 1.399 . S
C774 C779 1.399 . S
C775 C774 1.399 . S
C775 C776 1.376 . S
C776 H763 0.930 . S
C776 C775 1.376 . S
C776 C777 1.388 . S
C777 H764 0.930 . S
C777 C776 1.388 . S
C777 C778 1.390 . S
C778 C777 1.390 . S
C778 C779 1.394 . S
C778 C784 1.465 . S
C779 C774 1.399 . S
C779 C778 1.394 . S
C779 C780 1.516 . S
C780 C779 1.516 . S
C780 C781 1.502 . S
C780 C782 1.561 . S
C780 C783 1.526 . S
C781 H765 0.959 . S
C781 H766 0.959 . S
C781 H767 0.961 . S
C781 C780 1.502 . S
C782 H768 0.960 . S
C782 H769 0.961 . S
C782 H770 0.959 . S
C782 C780 1.561 . S
C783 C780 1.526 . S
C783 C784 1.396 . S
C783 C788 1.390 . S
C784 C778 1.465 . S
C784 C783 1.396 . S
C784 C785 1.399 . S
C785 H771 0.929 . S
C785 C784 1.399 . S
C785 C786 1.385 . S
C786 H772 0.931 . S
C786 C785 1.385 . S
C786 C787 1.389 . S
C787 C786 1.389 . S
C787 C788 1.387 . S
C788 H773 0.930 . S
C788 C783 1.390 . S
C788 C787 1.387 . S
H789 C801 0.930 . S
H790 C803 0.930 . S
H791 C804 0.930 . S
H792 C808 0.959 . S
H793 C808 0.959 . S
H794 C808 0.961 . S
H795 C809 0.960 . S
H796 C809 0.961 . S
H797 C809 0.959 . S
H798 C812 0.929 . S
H799 C813 0.931 . S
H800 C815 0.930 . S
C801 H789 0.930 . S
C801 C802 1.399 . S
C801 C806 1.399 . S
C802 C801 1.399 . S
C802 C803 1.376 . S
C803 H790 0.930 . S
C803 C802 1.376 . S
C803 C804 1.388 . S
C804 H791 0.930 . S
C804 C803 1.388 . S
C804 C805 1.390 . S
C805 C804 1.390 . S
C805 C806 1.394 . S
C805 C811 1.465 1_554 S
C806 C801 1.399 . S
C806 C805 1.394 . S
C806 C807 1.516 . S
C807 C806 1.516 . S
C807 C808 1.502 . S
C807 C809 1.561 . S
C807 C810 1.526 . S
C808 H792 0.959 . S
C808 H793 0.959 . S
C808 H794 0.961 . S
C808 C807 1.502 . S
C809 H795 0.960 . S
C809 H796 0.961 . S
C809 H797 0.959 . S
C809 C807 1.561 . S
C810 C807 1.526 . S
C810 C811 1.396 1_554 S
C810 C815 1.390 1_554 S
C811 C805 1.465 1_556 S
C811 C810 1.396 1_556 S
C811 C812 1.399 . S
C812 H798 0.929 . S
C812 C811 1.399 . S
C812 C813 1.385 . S
C813 H799 0.931 . S
C813 C812 1.385 . S
C813 C814 1.389 . S
C814 C813 1.389 . S
C814 C815 1.387 . S
C815 H800 0.930 . S
C815 C810 1.390 1_556 S
C815 C814 1.387 . S
H816 C828 0.930 . S
H817 C830 0.930 . S
H818 C831 0.930 . S
H819 C835 0.959 . S
H820 C835 0.959 . S
H821 C835 0.961 . S
H822 C836 0.960 . S
H823 C836 0.961 . S
H824 C836 0.959 . S
H825 C839 0.929 . S
H826 C840 0.931 . S
H827 C842 0.930 . S
C828 H816 0.930 . S
C828 C829 1.399 . S
C828 C833 1.399 . S
C829 C828 1.399 . S
C829 C830 1.376 . S
C830 H817 0.930 . S
C830 C829 1.376 . S
C830 C831 1.388 . S
C831 H818 0.930 . S
C831 C830 1.388 . S
C831 C832 1.390 . S
C832 C831 1.390 . S
C832 C833 1.394 . S
C832 C838 1.465 . S
C833 C828 1.399 . S
C833 C832 1.394 . S
C833 C834 1.516 . S
C834 C833 1.516 . S
C834 C835 1.502 . S
C834 C836 1.561 . S
C834 C837 1.526 . S
C835 H819 0.959 . S
C835 H820 0.959 . S
C835 H821 0.961 . S
C835 C834 1.502 . S
C836 H822 0.960 . S
C836 H823 0.961 . S
C836 H824 0.959 . S
C836 C834 1.561 . S
C837 C834 1.526 . S
C837 C838 1.396 . S
C837 C842 1.390 . S
C838 C832 1.465 . S
C838 C837 1.396 . S
C838 C839 1.399 . S
C839 H825 0.929 . S
C839 C838 1.399 . S
C839 C840 1.385 . S
C840 H826 0.931 . S
C840 C839 1.385 . S
C840 C841 1.389 . S
C841 C840 1.389 . S
C841 C842 1.387 . S
C842 H827 0.930 . S
C842 C837 1.390 . S
C842 C841 1.387 . S
H843 C855 0.930 . S
H844 C857 0.930 . S
H845 C858 0.930 . S
H846 C862 0.959 . S
H847 C862 0.959 . S
H848 C862 0.961 . S
H849 C863 0.960 . S
H850 C863 0.961 . S
H851 C863 0.959 . S
H852 C866 0.929 . S
H853 C867 0.931 . S
H854 C869 0.930 . S
C855 H843 0.930 . S
C855 C856 1.399 . S
C855 C860 1.399 1_554 S
C856 C855 1.399 . S
C856 C857 1.376 . S
C857 H844 0.930 . S
C857 C856 1.376 . S
C857 C858 1.388 . S
C858 H845 0.930 . S
C858 C857 1.388 . S
C858 C859 1.390 . S
C859 C858 1.390 . S
C859 C860 1.394 1_554 S
C859 C865 1.465 1_554 S
C860 C855 1.399 1_556 S
C860 C859 1.394 1_556 S
C860 C861 1.516 . S
C861 C860 1.516 . S
C861 C862 1.502 . S
C861 C863 1.561 . S
C861 C864 1.526 . S
C862 H846 0.959 . S
C862 H847 0.959 . S
C862 H848 0.961 . S
C862 C861 1.502 . S
C863 H849 0.960 . S
C863 H850 0.961 . S
C863 H851 0.959 . S
C863 C861 1.561 . S
C864 C861 1.526 . S
C864 C865 1.396 . S
C864 C869 1.390 . S
C865 C859 1.465 1_556 S
C865 C864 1.396 . S
C865 C866 1.399 . S
C866 H852 0.929 . S
C866 C865 1.399 . S
C866 C867 1.385 . S
C867 H853 0.931 . S
C867 C866 1.385 . S
C867 C868 1.389 . S
C868 C867 1.389 . S
C868 C869 1.387 . S
C869 H854 0.930 . S
C869 C864 1.390 . S
C869 C868 1.387 . S
H870 C882 0.930 . S
H871 C884 0.930 . S
H872 C885 0.930 . S
H873 C889 0.959 . S
H874 C889 0.959 . S
H875 C889 0.961 . S
H876 C890 0.960 . S
H877 C890 0.961 . S
H878 C890 0.959 . S
H879 C893 0.929 . S
H880 C894 0.931 . S
H881 C896 0.930 . S
C882 H870 0.930 . S
C882 C883 1.399 . S
C882 C887 1.399 . S
C883 C882 1.399 . S
C883 C884 1.376 . S
C884 H871 0.930 . S
C884 C883 1.376 . S
C884 C885 1.388 . S
C885 H872 0.930 . S
C885 C884 1.388 . S
C885 C886 1.390 . S
C886 C885 1.390 . S
C886 C887 1.394 . S
C886 C892 1.465 . S
C887 C882 1.399 . S
C887 C886 1.394 . S
C887 C888 1.516 . S
C888 C887 1.516 . S
C888 C889 1.502 . S
C888 C890 1.561 . S
C888 C891 1.526 . S
C889 H873 0.959 . S
C889 H874 0.959 . S
C889 H875 0.961 . S
C889 C888 1.502 . S
C890 H876 0.960 . S
C890 H877 0.961 . S
C890 H878 0.959 . S
C890 C888 1.561 . S
C891 C888 1.526 . S
C891 C892 1.396 . S
C891 C896 1.390 . S
C892 C886 1.465 . S
C892 C891 1.396 . S
C892 C893 1.399 . S
C893 H879 0.929 . S
C893 C892 1.399 . S
C893 C894 1.385 . S
C894 H880 0.931 . S
C894 C893 1.385 . S
C894 C895 1.389 . S
C895 C894 1.389 . S
C895 C896 1.387 . S
C896 H881 0.930 . S
C896 C891 1.390 . S
C896 C895 1.387 . S
H897 C909 0.930 . S
H898 C911 0.930 . S
H899 C912 0.930 . S
H900 C916 0.959 . S
H901 C916 0.959 . S
H902 C916 0.961 . S
H903 C917 0.960 . S
H904 C917 0.961 . S
H905 C917 0.959 . S
H906 C920 0.929 . S
H907 C921 0.931 . S
H908 C923 0.930 . S
C909 H897 0.930 . S
C909 C910 1.399 . S
C909 C914 1.399 . S
C910 C909 1.399 . S
C910 C911 1.376 . S
C911 H898 0.930 . S
C911 C910 1.376 . S
C911 C912 1.388 . S
C912 H899 0.930 . S
C912 C911 1.388 . S
C912 C913 1.390 . S
C913 C912 1.390 . S
C913 C914 1.394 . S
C913 C919 1.465 . S
C914 C909 1.399 . S
C914 C913 1.394 . S
C914 C915 1.516 . S
C915 C914 1.516 . S
C915 C916 1.502 . S
C915 C917 1.561 . S
C915 C918 1.526 . S
C916 H900 0.959 . S
C916 H901 0.959 . S
C916 H902 0.961 . S
C916 C915 1.502 . S
C917 H903 0.960 . S
C917 H904 0.961 . S
C917 H905 0.959 . S
C917 C915 1.561 . S
C918 C915 1.526 . S
C918 C919 1.396 . S
C918 C923 1.390 . S
C919 C913 1.465 . S
C919 C918 1.396 . S
C919 C920 1.399 . S
C920 H906 0.929 . S
C920 C919 1.399 . S
C920 C921 1.385 . S
C921 H907 0.931 . S
C921 C920 1.385 . S
C921 C922 1.389 . S
C922 C921 1.389 . S
C922 C923 1.387 . S
C923 H908 0.930 . S
C923 C918 1.390 . S
C923 C922 1.387 . S
H924 C936 0.930 . S
H925 C938 0.930 . S
H926 C939 0.930 . S
H927 C943 0.959 . S
H928 C943 0.959 . S
H929 C943 0.961 . S
H930 C944 0.960 . S
H931 C944 0.961 . S
H932 C944 0.959 . S
H933 C947 0.929 . S
H934 C948 0.931 . S
H935 C950 0.930 . S
C936 H924 0.930 . S
C936 C937 1.399 . S
C936 C941 1.399 . S
C937 C936 1.399 . S
C937 C938 1.376 . S
C938 H925 0.930 . S
C938 C937 1.376 . S
C938 C939 1.388 . S
C939 H926 0.930 . S
C939 C938 1.388 . S
C939 C940 1.390 . S
C940 C939 1.390 . S
C940 C941 1.394 . S
C940 C946 1.465 . S
C941 C936 1.399 . S
C941 C940 1.394 . S
C941 C942 1.516 . S
C942 C941 1.516 . S
C942 C943 1.502 . S
C942 C944 1.561 . S
C942 C945 1.526 . S
C943 H927 0.959 . S
C943 H928 0.959 . S
C943 H929 0.961 . S
C943 C942 1.502 . S
C944 H930 0.960 . S
C944 H931 0.961 . S
C944 H932 0.959 . S
C944 C942 1.561 . S
C945 C942 1.526 . S
C945 C946 1.396 . S
C945 C950 1.390 . S
C946 C940 1.465 . S
C946 C945 1.396 . S
C946 C947 1.399 . S
C947 H933 0.929 . S
C947 C946 1.399 . S
C947 C948 1.385 . S
C948 H934 0.931 . S
C948 C947 1.385 . S
C948 C949 1.389 . S
C949 C948 1.389 . S
C949 C950 1.387 . S
C950 H935 0.930 . S
C950 C945 1.390 . S
C950 C949 1.387 . S
H951 C963 0.930 . S
H952 C965 0.930 . S
H953 C966 0.930 . S
H954 C970 0.959 . S
H955 C970 0.959 . S
H956 C970 0.961 . S
H957 C971 0.960 . S
H958 C971 0.961 . S
H959 C971 0.959 . S
H960 C974 0.929 . S
H961 C975 0.931 . S
H962 C977 0.930 . S
C963 H951 0.930 . S
C963 C964 1.399 . S
C963 C968 1.399 . S
C964 C963 1.399 . S
C964 C965 1.376 . S
C965 H952 0.930 . S
C965 C964 1.376 . S
C965 C966 1.388 . S
C966 H953 0.930 . S
C966 C965 1.388 . S
C966 C967 1.390 . S
C967 C966 1.390 . S
C967 C968 1.394 . S
C967 C973 1.465 . S
C968 C963 1.399 . S
C968 C967 1.394 . S
C968 C969 1.516 1_545 S
C969 C968 1.516 1_565 S
C969 C970 1.502 . S
C969 C971 1.561 . S
C969 C972 1.526 . S
C970 H954 0.959 . S
C970 H955 0.959 . S
C970 H956 0.961 . S
C970 C969 1.502 . S
C971 H957 0.960 . S
C971 H958 0.961 . S
C971 H959 0.959 . S
C971 C969 1.561 . S
C972 C969 1.526 . S
C972 C973 1.396 1_565 S
C972 C977 1.390 . S
C973 C967 1.465 . S
C973 C972 1.396 1_545 S
C973 C974 1.399 . S
C974 H960 0.929 . S
C974 C973 1.399 . S
C974 C975 1.385 1_545 S
C975 H961 0.931 . S
C975 C974 1.385 1_565 S
C975 C976 1.389 . S
C976 C975 1.389 . S
C976 C977 1.387 . S
C977 H962 0.930 . S
C977 C972 1.390 . S
C977 C976 1.387 . S
H978 C990 0.930 . S
H979 C992 0.930 . S
H980 C993 0.930 . S
H981 C997 0.959 . S
H982 C997 0.959 . S
H983 C997 0.961 . S
H984 C998 0.960 . S
H985 C998 0.961 . S
H986 C998 0.959 . S
H987 C1001 0.929 . S
H988 C1002 0.931 . S
H989 C1004 0.930 . S
C990 H978 0.930 . S
C990 C991 1.399 . S
C990 C995 1.399 . S
C991 C990 1.399 . S
C991 C992 1.376 . S
C992 H979 0.930 . S
C992 C991 1.376 . S
C992 C993 1.388 . S
C993 H980 0.930 . S
C993 C992 1.388 . S
C993 C994 1.390 . S
C994 C993 1.390 . S
C994 C995 1.394 . S
C994 C1000 1.465 . S
C995 C990 1.399 . S
C995 C994 1.394 . S
C995 C996 1.516 . S
C996 C995 1.516 . S
C996 C997 1.502 . S
C996 C998 1.561 . S
C996 C999 1.526 . S
C997 H981 0.959 . S
C997 H982 0.959 . S
C997 H983 0.961 . S
C997 C996 1.502 . S
C998 H984 0.960 . S
C998 H985 0.961 . S
C998 H986 0.959 . S
C998 C996 1.561 . S
C999 C996 1.526 . S
C999 C1000 1.396 . S
C999 C1004 1.390 . S
C1000 C994 1.465 . S
C1000 C999 1.396 . S
C1000 C1001 1.399 . S
C1001 H987 0.929 . S
C1001 C1000 1.399 . S
C1001 C1002 1.385 . S
C1002 H988 0.931 . S
C1002 C1001 1.385 . S
C1002 C1003 1.389 . S
C1003 C1002 1.389 . S
C1003 C1004 1.387 . S
C1004 H989 0.930 . S
C1004 C999 1.390 . S
C1004 C1003 1.387 . S
H1005 C1017 0.930 . S
H1006 C1019 0.930 . S
H1007 C1020 0.930 . S
H1008 C1024 0.959 . S
H1009 C1024 0.959 . S
H1010 C1024 0.961 . S
H1011 C1025 0.960 . S
H1012 C1025 0.961 . S
H1013 C1025 0.959 . S
H1014 C1028 0.929 . S
H1015 C1029 0.931 . S
H1016 C1031 0.930 . S
C1017 H1005 0.930 . S
C1017 C1018 1.399 . S
C1017 C1022 1.399 1_545 S
C1018 C1017 1.399 . S
C1018 C1019 1.376 . S
C1019 H1006 0.930 . S
C1019 C1018 1.376 . S
C1019 C1020 1.388 . S
C1020 H1007 0.930 . S
C1020 C1019 1.388 . S
C1020 C1021 1.390 . S
C1021 C1020 1.390 . S
C1021 C1022 1.394 1_545 S
C1021 C1027 1.465 1_545 S
C1022 C1017 1.399 1_565 S
C1022 C1021 1.394 1_565 S
C1022 C1023 1.516 . S
C1023 C1022 1.516 . S
C1023 C1024 1.502 . S
C1023 C1025 1.561 . S
C1023 C1026 1.526 . S
C1024 H1008 0.959 . S
C1024 H1009 0.959 . S
C1024 H1010 0.961 . S
C1024 C1023 1.502 . S
C1025 H1011 0.960 . S
C1025 H1012 0.961 . S
C1025 H1013 0.959 . S
C1025 C1023 1.561 . S
C1026 C1023 1.526 . S
C1026 C1027 1.396 . S
C1026 C1031 1.390 . S
C1027 C1021 1.465 1_565 S
C1027 C1026 1.396 . S
C1027 C1028 1.399 . S
C1028 H1014 0.929 . S
C1028 C1027 1.399 . S
C1028 C1029 1.385 . S
C1029 H1015 0.931 . S
C1029 C1028 1.385 . S
C1029 C1030 1.389 . S
C1030 C1029 1.389 . S
C1030 C1031 1.387 . S
C1031 H1016 0.930 . S
C1031 C1026 1.390 . S
C1031 C1030 1.387 . S
H1032 C1044 0.930 . S
H1033 C1046 0.930 . S
H1034 C1047 0.930 . S
H1035 C1051 0.959 . S
H1036 C1051 0.959 . S
H1037 C1051 0.961 . S
H1038 C1052 0.960 . S
H1039 C1052 0.961 . S
H1040 C1052 0.959 . S
H1041 C1055 0.929 . S
H1042 C1056 0.931 . S
H1043 C1058 0.930 . S
C1044 H1032 0.930 . S
C1044 C1045 1.399 . S
C1044 C1049 1.399 . S
C1045 C1044 1.399 . S
C1045 C1046 1.376 . S
C1046 H1033 0.930 . S
C1046 C1045 1.376 . S
C1046 C1047 1.388 . S
C1047 H1034 0.930 . S
C1047 C1046 1.388 . S
C1047 C1048 1.390 . S
C1048 C1047 1.390 . S
C1048 C1049 1.394 . S
C1048 C1054 1.465 . S
C1049 C1044 1.399 . S
C1049 C1048 1.394 . S
C1049 C1050 1.516 . S
C1050 C1049 1.516 . S
C1050 C1051 1.502 . S
C1050 C1052 1.561 . S
C1050 C1053 1.526 . S
C1051 H1035 0.959 . S
C1051 H1036 0.959 . S
C1051 H1037 0.961 . S
C1051 C1050 1.502 . S
C1052 H1038 0.960 . S
C1052 H1039 0.961 . S
C1052 H1040 0.959 . S
C1052 C1050 1.561 . S
C1053 C1050 1.526 . S
C1053 C1054 1.396 . S
C1053 C1058 1.390 . S
C1054 C1048 1.465 . S
C1054 C1053 1.396 . S
C1054 C1055 1.399 . S
C1055 H1041 0.929 . S
C1055 C1054 1.399 . S
C1055 C1056 1.385 . S
C1056 H1042 0.931 . S
C1056 C1055 1.385 . S
C1056 C1057 1.389 . S
C1057 C1056 1.389 . S
C1057 C1058 1.387 . S
C1058 H1043 0.930 . S
C1058 C1053 1.390 . S
C1058 C1057 1.387 . S
H1059 C1071 0.930 . S
H1060 C1073 0.930 . S
H1061 C1074 0.930 . S
H1062 C1078 0.959 . S
H1063 C1078 0.959 . S
H1064 C1078 0.961 . S
H1065 C1079 0.960 . S
H1066 C1079 0.961 . S
H1067 C1079 0.959 . S
H1068 C1082 0.929 . S
H1069 C1083 0.931 . S
H1070 C1085 0.930 . S
C1071 H1059 0.930 . S
C1071 C1072 1.399 . S
C1071 C1076 1.399 . S
C1072 C1071 1.399 . S
C1072 C1073 1.376 . S
C1073 H1060 0.930 . S
C1073 C1072 1.376 . S
C1073 C1074 1.388 . S
C1074 H1061 0.930 . S
C1074 C1073 1.388 . S
C1074 C1075 1.390 . S
C1075 C1074 1.390 . S
C1075 C1076 1.394 . S
C1075 C1081 1.465 . S
C1076 C1071 1.399 . S
C1076 C1075 1.394 . S
C1076 C1077 1.516 . S
C1077 C1076 1.516 . S
C1077 C1078 1.502 . S
C1077 C1079 1.561 . S
C1077 C1080 1.526 . S
C1078 H1062 0.959 . S
C1078 H1063 0.959 . S
C1078 H1064 0.961 . S
C1078 C1077 1.502 . S
C1079 H1065 0.960 . S
C1079 H1066 0.961 . S
C1079 H1067 0.959 . S
C1079 C1077 1.561 . S
C1080 C1077 1.526 . S
C1080 C1081 1.396 . S
C1080 C1085 1.390 . S
C1081 C1075 1.465 . S
C1081 C1080 1.396 . S
C1081 C1082 1.399 . S
C1082 H1068 0.929 . S
C1082 C1081 1.399 . S
C1082 C1083 1.385 . S
C1083 H1069 0.931 . S
C1083 C1082 1.385 . S
C1083 C1084 1.389 . S
C1084 C1083 1.389 . S
C1084 C1085 1.387 . S
C1085 H1070 0.930 . S
C1085 C1080 1.390 . S
C1085 C1084 1.387 . S
H1086 C1098 0.930 . S
H1087 C1100 0.930 . S
H1088 C1101 0.930 . S
H1089 C1105 0.959 . S
H1090 C1105 0.959 . S
H1091 C1105 0.961 . S
H1092 C1106 0.960 . S
H1093 C1106 0.961 . S
H1094 C1106 0.959 . S
H1095 C1109 0.929 . S
H1096 C1110 0.931 . S
H1097 C1112 0.930 . S
C1098 H1086 0.930 . S
C1098 C1099 1.399 . S
C1098 C1103 1.399 . S
C1099 C1098 1.399 . S
C1099 C1100 1.376 . S
C1100 H1087 0.930 . S
C1100 C1099 1.376 . S
C1100 C1101 1.388 . S
C1101 H1088 0.930 . S
C1101 C1100 1.388 . S
C1101 C1102 1.390 . S
C1102 C1101 1.390 . S
C1102 C1103 1.394 . S
C1102 C1108 1.465 . S
C1103 C1098 1.399 . S
C1103 C1102 1.394 . S
C1103 C1104 1.516 . S
C1104 C1103 1.516 . S
C1104 C1105 1.502 . S
C1104 C1106 1.561 . S
C1104 C1107 1.526 . S
C1105 H1089 0.959 . S
C1105 H1090 0.959 . S
C1105 H1091 0.961 . S
C1105 C1104 1.502 . S
C1106 H1092 0.960 . S
C1106 H1093 0.961 . S
C1106 H1094 0.959 . S
C1106 C1104 1.561 . S
C1107 C1104 1.526 . S
C1107 C1108 1.396 . S
C1107 C1112 1.390 . S
C1108 C1102 1.465 . S
C1108 C1107 1.396 . S
C1108 C1109 1.399 . S
C1109 H1095 0.929 . S
C1109 C1108 1.399 . S
C1109 C1110 1.385 . S
C1110 H1096 0.931 . S
C1110 C1109 1.385 . S
C1110 C1111 1.389 . S
C1111 C1110 1.389 . S
C1111 C1112 1.387 . S
C1112 H1097 0.930 . S
C1112 C1107 1.390 . S
C1112 C1111 1.387 . S
H1113 C1125 0.930 . S
H1114 C1127 0.930 . S
H1115 C1128 0.930 . S
H1116 C1132 0.959 . S
H1117 C1132 0.959 . S
H1118 C1132 0.961 . S
H1119 C1133 0.960 . S
H1120 C1133 0.961 . S
H1121 C1133 0.959 . S
H1122 C1136 0.929 . S
H1123 C1137 0.931 . S
H1124 C1139 0.930 . S
C1125 H1113 0.930 . S
C1125 C1126 1.399 . S
C1125 C1130 1.399 . S
C1126 C1125 1.399 . S
C1126 C1127 1.376 . S
C1127 H1114 0.930 . S
C1127 C1126 1.376 . S
C1127 C1128 1.388 . S
C1128 H1115 0.930 . S
C1128 C1127 1.388 . S
C1128 C1129 1.390 . S
C1129 C1128 1.390 . S
C1129 C1130 1.394 . S
C1129 C1135 1.465 . S
C1130 C1125 1.399 . S
C1130 C1129 1.394 . S
C1130 C1131 1.516 . S
C1131 C1130 1.516 . S
C1131 C1132 1.502 . S
C1131 C1133 1.561 . S
C1131 C1134 1.526 . S
C1132 H1116 0.959 . S
C1132 H1117 0.959 . S
C1132 H1118 0.961 . S
C1132 C1131 1.502 . S
C1133 H1119 0.960 . S
C1133 H1120 0.961 . S
C1133 H1121 0.959 . S
C1133 C1131 1.561 . S
C1134 C1131 1.526 . S
C1134 C1135 1.396 . S
C1134 C1139 1.390 . S
C1135 C1129 1.465 . S
C1135 C1134 1.396 . S
C1135 C1136 1.399 . S
C1136 H1122 0.929 . S
C1136 C1135 1.399 . S
C1136 C1137 1.385 . S
C1137 H1123 0.931 . S
C1137 C1136 1.385 . S
C1137 C1138 1.389 . S
C1138 C1137 1.389 . S
C1138 C1139 1.387 . S
C1139 H1124 0.930 . S
C1139 C1134 1.390 . S
C1139 C1138 1.387 . S
H1140 C1152 0.930 . S
H1141 C1154 0.930 . S
H1142 C1155 0.930 . S
H1143 C1159 0.959 . S
H1144 C1159 0.959 . S
H1145 C1159 0.961 . S
H1146 C1160 0.960 . S
H1147 C1160 0.961 . S
H1148 C1160 0.959 . S
H1149 C1163 0.929 . S
H1150 C1164 0.931 . S
H1151 C1166 0.930 . S
C1152 H1140 0.930 . S
C1152 C1153 1.399 . S
C1152 C1157 1.399 . S
C1153 C1152 1.399 . S
C1153 C1154 1.376 . S
C1154 H1141 0.930 . S
C1154 C1153 1.376 . S
C1154 C1155 1.388 . S
C1155 H1142 0.930 . S
C1155 C1154 1.388 . S
C1155 C1156 1.390 . S
C1156 C1155 1.390 . S
C1156 C1157 1.394 . S
C1156 C1162 1.465 . S
C1157 C1152 1.399 . S
C1157 C1156 1.394 . S
C1157 C1158 1.516 . S
C1158 C1157 1.516 . S
C1158 C1159 1.502 . S
C1158 C1160 1.561 . S
C1158 C1161 1.526 . S
C1159 H1143 0.959 . S
C1159 H1144 0.959 . S
C1159 H1145 0.961 . S
C1159 C1158 1.502 . S
C1160 H1146 0.960 . S
C1160 H1147 0.961 . S
C1160 H1148 0.959 . S
C1160 C1158 1.561 . S
C1161 C1158 1.526 . S
C1161 C1162 1.396 . S
C1161 C1166 1.390 . S
C1162 C1156 1.465 . S
C1162 C1161 1.396 . S
C1162 C1163 1.399 . S
C1163 H1149 0.929 . S
C1163 C1162 1.399 . S
C1163 C1164 1.385 . S
C1164 H1150 0.931 . S
C1164 C1163 1.385 . S
C1164 C1165 1.389 . S
C1165 C1164 1.389 . S
C1165 C1166 1.387 . S
C1166 H1151 0.930 . S
C1166 C1161 1.390 . S
C1166 C1165 1.387 . S
H1167 C1179 0.930 . S
H1168 C1181 0.930 . S
H1169 C1182 0.930 . S
H1170 C1186 0.959 . S
H1171 C1186 0.959 . S
H1172 C1186 0.961 . S
H1173 C1187 0.960 . S
H1174 C1187 0.961 . S
H1175 C1187 0.959 . S
H1176 C1190 0.929 . S
H1177 C1191 0.931 . S
H1178 C1193 0.930 . S
C1179 H1167 0.930 . S
C1179 C1180 1.399 . S
C1179 C1184 1.399 . S
C1180 C1179 1.399 . S
C1180 C1181 1.376 . S
C1181 H1168 0.930 . S
C1181 C1180 1.376 . S
C1181 C1182 1.388 . S
C1182 H1169 0.930 . S
C1182 C1181 1.388 . S
C1182 C1183 1.390 . S
C1183 C1182 1.390 . S
C1183 C1184 1.394 . S
C1183 C1189 1.465 . S
C1184 C1179 1.399 . S
C1184 C1183 1.394 . S
C1184 C1185 1.516 . S
C1185 C1184 1.516 . S
C1185 C1186 1.502 . S
C1185 C1187 1.561 . S
C1185 C1188 1.526 . S
C1186 H1170 0.959 . S
C1186 H1171 0.959 . S
C1186 H1172 0.961 . S
C1186 C1185 1.502 . S
C1187 H1173 0.960 . S
C1187 H1174 0.961 . S
C1187 H1175 0.959 . S
C1187 C1185 1.561 . S
C1188 C1185 1.526 . S
C1188 C1189 1.396 . S
C1188 C1193 1.390 . S
C1189 C1183 1.465 . S
C1189 C1188 1.396 . S
C1189 C1190 1.399 . S
C1190 H1176 0.929 . S
C1190 C1189 1.399 . S
C1190 C1191 1.385 . S
C1191 H1177 0.931 . S
C1191 C1190 1.385 . S
C1191 C1192 1.389 . S
C1192 C1191 1.389 . S
C1192 C1193 1.387 . S
C1193 H1178 0.930 . S
C1193 C1188 1.390 . S
C1193 C1192 1.387 . S
H1194 C1206 0.930 . S
H1195 C1208 0.930 . S
H1196 C1209 0.930 . S
H1197 C1213 0.959 . S
H1198 C1213 0.959 . S
H1199 C1213 0.961 . S
H1200 C1214 0.960 . S
H1201 C1214 0.961 . S
H1202 C1214 0.959 . S
H1203 C1217 0.929 . S
H1204 C1218 0.931 . S
H1205 C1220 0.930 . S
C1206 H1194 0.930 . S
C1206 C1207 1.399 . S
C1206 C1211 1.399 . S
C1207 C1206 1.399 . S
C1207 C1208 1.376 . S
C1208 H1195 0.930 . S
C1208 C1207 1.376 . S
C1208 C1209 1.388 . S
C1209 H1196 0.930 . S
C1209 C1208 1.388 . S
C1209 C1210 1.390 . S
C1210 C1209 1.390 . S
C1210 C1211 1.394 . S
C1210 C1216 1.439 1_455 S
C1211 C1206 1.399 . S
C1211 C1210 1.394 . S
C1211 C1212 1.516 . S
C1212 C1211 1.516 . S
C1212 C1213 1.502 . S
C1212 C1214 1.561 . S
C1212 C1215 1.526 . S
C1213 H1197 0.959 . S
C1213 H1198 0.959 . S
C1213 H1199 0.961 . S
C1213 C1212 1.502 . S
C1214 H1200 0.960 . S
C1214 H1201 0.961 . S
C1214 H1202 0.959 . S
C1214 C1212 1.561 . S
C1215 C1212 1.526 . S
C1215 C1216 1.393 1_455 S
C1215 C1220 1.390 1_455 S
C1216 C1210 1.439 1_655 S
C1216 C1215 1.393 1_655 S
C1216 C1217 1.425 . S
C1217 H1203 0.929 . S
C1217 C1216 1.425 . S
C1217 C1218 1.385 . S
C1218 H1204 0.931 . S
C1218 C1217 1.385 . S
C1218 C1219 1.389 . S
C1219 C1218 1.389 . S
C1219 C1220 1.387 . S
C1220 H1205 0.930 . S
C1220 C1215 1.390 1_655 S
C1220 C1219 1.387 . S
H1221 C1233 0.930 . S
H1222 C1235 0.930 . S
H1223 C1236 0.930 . S
H1224 C1240 0.959 . S
H1225 C1240 0.959 . S
H1226 C1240 0.961 . S
H1227 C1241 0.960 . S
H1228 C1241 0.961 . S
H1229 C1241 0.959 . S
H1230 C1244 0.929 . S
H1231 C1245 0.931 . S
H1232 C1247 0.930 . S
C1233 H1221 0.930 . S
C1233 C1234 1.399 . S
C1233 C1238 1.399 . S
C1234 C1233 1.399 . S
C1234 C1235 1.376 . S
C1235 H1222 0.930 . S
C1235 C1234 1.376 . S
C1235 C1236 1.388 . S
C1236 H1223 0.930 . S
C1236 C1235 1.388 . S
C1236 C1237 1.390 . S
C1237 C1236 1.390 . S
C1237 C1238 1.394 . S
C1237 C1243 1.465 . S
C1238 C1233 1.399 . S
C1238 C1237 1.394 . S
C1238 C1239 1.516 . S
C1239 C1238 1.516 . S
C1239 C1240 1.502 . S
C1239 C1241 1.561 . S
C1239 C1242 1.526 . S
C1240 H1224 0.959 . S
C1240 H1225 0.959 . S
C1240 H1226 0.961 . S
C1240 C1239 1.502 . S
C1241 H1227 0.960 . S
C1241 H1228 0.961 . S
C1241 H1229 0.959 . S
C1241 C1239 1.561 . S
C1242 C1239 1.526 . S
C1242 C1243 1.396 . S
C1242 C1247 1.390 . S
C1243 C1237 1.465 . S
C1243 C1242 1.396 . S
C1243 C1244 1.399 . S
C1244 H1230 0.929 . S
C1244 C1243 1.399 . S
C1244 C1245 1.385 . S
C1245 H1231 0.931 . S
C1245 C1244 1.385 . S
C1245 C1246 1.389 . S
C1246 C1245 1.389 . S
C1246 C1247 1.387 . S
C1247 H1232 0.930 . S
C1247 C1242 1.390 . S
C1247 C1246 1.387 . S
H1248 C1260 0.930 . S
H1249 C1262 0.930 . S
H1250 C1263 0.930 . S
H1251 C1267 0.959 . S
H1252 C1267 0.959 . S
H1253 C1267 0.961 . S
H1254 C1268 0.960 . S
H1255 C1268 0.961 . S
H1256 C1268 0.959 . S
H1257 C1271 0.929 . S
H1258 C1272 0.931 . S
H1259 C1274 0.930 . S
C1260 H1248 0.930 . S
C1260 C1261 1.399 . S
C1260 C1265 1.399 . S
C1261 C1260 1.399 . S
C1261 C1262 1.376 . S
C1262 H1249 0.930 . S
C1262 C1261 1.376 . S
C1262 C1263 1.388 . S
C1263 H1250 0.930 . S
C1263 C1262 1.388 . S
C1263 C1264 1.390 . S
C1264 C1263 1.390 . S
C1264 C1265 1.394 . S
C1264 C1270 1.465 . S
C1265 C1260 1.399 . S
C1265 C1264 1.394 . S
C1265 C1266 1.516 . S
C1266 C1265 1.516 . S
C1266 C1267 1.502 . S
C1266 C1268 1.561 . S
C1266 C1269 1.526 . S
C1267 H1251 0.959 . S
C1267 H1252 0.959 . S
C1267 H1253 0.961 . S
C1267 C1266 1.502 . S
C1268 H1254 0.960 . S
C1268 H1255 0.961 . S
C1268 H1256 0.959 . S
C1268 C1266 1.561 . S
C1269 C1266 1.526 . S
C1269 C1270 1.396 . S
C1269 C1274 1.390 . S
C1270 C1264 1.465 . S
C1270 C1269 1.396 . S
C1270 C1271 1.399 . S
C1271 H1257 0.929 . S
C1271 C1270 1.399 . S
C1271 C1272 1.385 . S
C1272 H1258 0.931 . S
C1272 C1271 1.385 . S
C1272 C1273 1.389 . S
C1273 C1272 1.389 . S
C1273 C1274 1.387 . S
C1274 H1259 0.930 . S
C1274 C1269 1.390 . S
C1274 C1273 1.387 . S
H1275 C1287 0.930 . S
H1276 C1289 0.930 . S
H1277 C1290 0.930 . S
H1278 C1294 0.959 . S
H1279 C1294 0.959 . S
H1280 C1294 0.961 . S
H1281 C1295 0.960 . S
H1282 C1295 0.961 . S
H1283 C1295 0.959 . S
H1284 C1298 0.929 . S
H1285 C1299 0.931 . S
H1286 C1301 0.930 . S
C1287 H1275 0.930 . S
C1287 C1288 1.399 . S
C1287 C1292 1.399 . S
C1288 C1287 1.399 . S
C1288 C1289 1.376 . S
C1289 H1276 0.930 . S
C1289 C1288 1.376 . S
C1289 C1290 1.388 . S
C1290 H1277 0.930 . S
C1290 C1289 1.388 . S
C1290 C1291 1.390 . S
C1291 C1290 1.390 . S
C1291 C1292 1.394 . S
C1291 C1297 1.465 . S
C1292 C1287 1.399 . S
C1292 C1291 1.394 . S
C1292 C1293 1.516 . S
C1293 C1292 1.516 . S
C1293 C1294 1.502 . S
C1293 C1295 1.561 . S
C1293 C1296 1.526 . S
C1294 H1278 0.959 . S
C1294 H1279 0.959 . S
C1294 H1280 0.961 . S
C1294 C1293 1.502 . S
C1295 H1281 0.960 . S
C1295 H1282 0.961 . S
C1295 H1283 0.959 . S
C1295 C1293 1.561 . S
C1296 C1293 1.526 . S
C1296 C1297 1.396 . S
C1296 C1301 1.390 . S
C1297 C1291 1.465 . S
C1297 C1296 1.396 . S
C1297 C1298 1.399 . S
C1298 H1284 0.929 . S
C1298 C1297 1.399 . S
C1298 C1299 1.385 . S
C1299 H1285 0.931 . S
C1299 C1298 1.385 . S
C1299 C1300 1.389 . S
C1300 C1299 1.389 . S
C1300 C1301 1.387 . S
C1301 H1286 0.930 . S
C1301 C1296 1.390 . S
C1301 C1300 1.387 . S
H1302 C1314 0.930 . S
H1303 C1316 0.930 . S
H1304 C1317 0.930 . S
H1305 C1321 0.959 . S
H1306 C1321 0.959 . S
H1307 C1321 0.961 . S
H1308 C1322 0.960 . S
H1309 C1322 0.961 . S
H1310 C1322 0.959 . S
H1311 C1325 0.929 . S
H1312 C1326 0.931 . S
H1313 C1328 0.930 . S
C1314 H1302 0.930 . S
C1314 C1315 1.399 . S
C1314 C1319 1.399 . S
C1315 C1314 1.399 . S
C1315 C1316 1.376 . S
C1316 H1303 0.930 . S
C1316 C1315 1.376 . S
C1316 C1317 1.388 . S
C1317 H1304 0.930 . S
C1317 C1316 1.388 . S
C1317 C1318 1.390 . S
C1318 C1317 1.390 . S
C1318 C1319 1.394 . S
C1318 C1324 1.465 . S
C1319 C1314 1.399 . S
C1319 C1318 1.394 . S
C1319 C1320 1.516 . S
C1320 C1319 1.516 . S
C1320 C1321 1.502 . S
C1320 C1322 1.561 . S
C1320 C1323 1.526 . S
C1321 H1305 0.959 . S
C1321 H1306 0.959 . S
C1321 H1307 0.961 . S
C1321 C1320 1.502 . S
C1322 H1308 0.960 . S
C1322 H1309 0.961 . S
C1322 H1310 0.959 . S
C1322 C1320 1.561 . S
C1323 C1320 1.526 . S
C1323 C1324 1.396 . S
C1323 C1328 1.390 . S
C1324 C1318 1.465 . S
C1324 C1323 1.396 . S
C1324 C1325 1.399 . S
C1325 H1311 0.929 . S
C1325 C1324 1.399 . S
C1325 C1326 1.385 . S
C1326 H1312 0.931 . S
C1326 C1325 1.385 . S
C1326 C1327 1.389 . S
C1327 C1326 1.389 . S
C1327 C1328 1.387 . S
C1328 H1313 0.930 . S
C1328 C1323 1.390 . S
C1328 C1327 1.387 . S
H1329 C1341 0.930 . S
H1330 C1343 0.930 . S
H1331 C1344 0.930 . S
H1332 C1348 0.959 . S
H1333 C1348 0.959 1_455 S
H1334 C1348 0.961 . S
H1335 C1349 0.960 . S
H1336 C1349 0.961 . S
H1337 C1349 0.959 . S
H1338 C1352 0.929 1_655 S
H1339 C1353 0.931 . S
H1340 C1355 0.930 . S
C1341 H1329 0.930 . S
C1341 C1342 1.399 . S
C1341 C1346 1.399 . S
C1342 C1341 1.399 . S
C1342 C1343 1.376 . S
C1343 H1330 0.930 . S
C1343 C1342 1.376 . S
C1343 C1344 1.388 . S
C1344 H1331 0.930 . S
C1344 C1343 1.388 . S
C1344 C1345 1.390 . S
C1345 C1344 1.390 . S
C1345 C1346 1.394 . S
C1345 C1351 1.465 . S
C1346 C1341 1.399 . S
C1346 C1345 1.394 . S
C1346 C1347 1.516 . S
C1347 C1346 1.516 . S
C1347 C1348 1.502 . S
C1347 C1349 1.561 1_655 S
C1347 C1350 1.526 1_655 S
C1348 H1332 0.959 . S
C1348 H1333 0.959 1_655 S
C1348 H1334 0.961 . S
C1348 C1347 1.502 . S
C1349 H1335 0.960 . S
C1349 H1336 0.961 . S
C1349 H1337 0.959 . S
C1349 C1347 1.561 1_455 S
C1350 C1347 1.526 1_455 S
C1350 C1351 1.396 1_455 S
C1350 C1355 1.390 . S
C1351 C1345 1.465 . S
C1351 C1350 1.396 1_655 S
C1351 C1352 1.399 1_655 S
C1352 H1338 0.929 1_455 S
C1352 C1351 1.399 1_455 S
C1352 C1353 1.385 . S
C1353 H1339 0.931 . S
C1353 C1352 1.385 . S
C1353 C1354 1.389 . S
C1354 C1353 1.389 . S
C1354 C1355 1.387 . S
C1355 H1340 0.930 . S
C1355 C1350 1.390 . S
C1355 C1354 1.387 . S
C397 C4 1.355 . S
C409 C356 1.400 . S
C424 C292 1.360 . S
C436 C36 1.398 . S
C451 C93 1.308 . S
C463 C260 1.303 . S
C478 C100 1.387 . S
C490 C324 1.301 . S
C505 C132 1.393 . S
C517 C349 1.372 . S
C532 C189 1.288 . S
C544 C381 1.331 . S
C559 C317 1.402 . S
C571 C196 1.332 . S
C586 C253 1.402 . S
C598 C285 1.345 . S
C613 C125 1.288 . S
C625 C157 1.369 . S
C640 C29 1.380 . S
C652 C164 1.387 . S
C667 C61 1.393 . S
C679 C221 1.309 . S
C694 C228 1.381 . S
C706 C68 1.296 . S
C721 N18 1.251 . S
C733 C262 1.269 . S
C748 N50 1.250 . S
C760 C326 1.268 . S
C775 C358 1.268 . S
C787 N77 1.250 . S
C802 N114 1.252 . S
C814 C294 1.269 . S
C829 N146 1.256 . S
C841 C290 1.266 . S
C856 C258 1.267 . S
C868 N173 1.251 . S
C883 C322 1.268 . S
C895 N210 1.251 . S
C910 C354 1.264 . S
C922 N237 1.263 . S
C937 C2 1.267 . S
C949 N109 1.269 . S
C964 N13 1.274 . S
C976 C34 1.264 . S
C991 N45 1.270 . S
C1003 C70 1.267 . S
C1018 C98 1.268 . S
C1030 N82 1.251 . S
C1045 N178 1.256 . S
C1057 C130 1.269 . S
C1072 C166 1.264 . S
C1084 N205 1.276 . S
C1099 C194 1.264 . S
C1111 N242 1.270 . S
C1126 N141 1.270 . S
C1138 C230 1.267 . S
C1153 N269 1.275 . S
C1165 C102 1.265 . S
C1180 C162 1.267 . S
C1192 N306 1.252 . S
C1207 N274 1.260 . S
C1219 C198 1.269 . S
C1234 N338 1.256 . S
C1246 C226 1.266 . S
C1261 C134 1.268 . S
C1273 N370 1.250 . S
C1288 N365 1.253 . S
C1300 C38 1.269 . S
C1315 C66 1.264 . S
C1327 N301 1.276 . S
C1342 N333 1.263 . S
C1354 C6 1.264 . S
