# Generated by pormake.
# Topology upd, (4)-cn, num edge types: 1
# Building blocks:
#     Node 0, Type 0, BuildingBlock: NAWXER_clean_sbu_0, # of connection points: 4
#     Node 1, Type 0, BuildingBlock: NAWXER_clean_sbu_0, # of connection points: 4
#     Node 2, Type 0, BuildingBlock: NAWXER_clean_sbu_0, # of connection points: 4
#     Node 3, Type 0, BuildingBlock: NAWXER_clean_sbu_0, # of connection points: 4
#     Node 4, Type 0, BuildingBlock: NAWXER_clean_sbu_0, # of connection points: 4
#     Node 5, Type 0, BuildingBlock: NAWXER_clean_sbu_0, # of connection points: 4
#     Node 6, Type 0, BuildingBlock: NAWXER_clean_sbu_0, # of connection points: 4
#     Node 7, Type 0, BuildingBlock: NAWXER_clean_sbu_0, # of connection points: 4
#     Node 8, Type 0, BuildingBlock: NAWXER_clean_sbu_0, # of connection points: 4
#     Node 9, Type 0, BuildingBlock: NAWXER_clean_sbu_0, # of connection points: 4
#     Node 10, Type 0, BuildingBlock: NAWXER_clean_sbu_0, # of connection points: 4
#     Node 11, Type 0, BuildingBlock: NAWXER_clean_sbu_0, # of connection points: 4
#     Node 12, Type 0, BuildingBlock: NAWXER_clean_sbu_0, # of connection points: 4
#     Node 13, Type 0, BuildingBlock: NAWXER_clean_sbu_0, # of connection points: 4
#     Node 14, Type 0, BuildingBlock: NAWXER_clean_sbu_0, # of connection points: 4
#     Node 15, Type 0, BuildingBlock: NAWXER_clean_sbu_0, # of connection points: 4
#     Node 16, Type 0, BuildingBlock: NAWXER_clean_sbu_0, # of connection points: 4
#     Node 17, Type 0, BuildingBlock: NAWXER_clean_sbu_0, # of connection points: 4
#     Node 18, Type 0, BuildingBlock: NAWXER_clean_sbu_0, # of connection points: 4
#     Node 19, Type 0, BuildingBlock: NAWXER_clean_sbu_0, # of connection points: 4
#     Node 20, Type 0, BuildingBlock: NAWXER_clean_sbu_0, # of connection points: 4
#     Node 21, Type 0, BuildingBlock: NAWXER_clean_sbu_0, # of connection points: 4
#     Node 22, Type 0, BuildingBlock: NAWXER_clean_sbu_0, # of connection points: 4
#     Node 23, Type 0, BuildingBlock: NAWXER_clean_sbu_0, # of connection points: 4
#     Node 24, Type 0, BuildingBlock: NAWXER_clean_sbu_0, # of connection points: 4
#     Node 25, Type 0, BuildingBlock: NAWXER_clean_sbu_0, # of connection points: 4
#     Node 26, Type 0, BuildingBlock: NAWXER_clean_sbu_0, # of connection points: 4
#     Node 27, Type 0, BuildingBlock: NAWXER_clean_sbu_0, # of connection points: 4
#     Node 28, Type 0, BuildingBlock: NAWXER_clean_sbu_0, # of connection points: 4
#     Node 29, Type 0, BuildingBlock: NAWXER_clean_sbu_0, # of connection points: 4
#     Node 30, Type 0, BuildingBlock: NAWXER_clean_sbu_0, # of connection points: 4
#     Node 31, Type 0, BuildingBlock: NAWXER_clean_sbu_0, # of connection points: 4
#     Edge 32, Type (0, 0), BuildingBlock: OJICUG_clean_linker_0, # of connection points: 2
#     Edge 33, Type (0, 0), BuildingBlock: OJICUG_clean_linker_0, # of connection points: 2
#     Edge 34, Type (0, 0), BuildingBlock: OJICUG_clean_linker_0, # of connection points: 2
#     Edge 35, Type (0, 0), BuildingBlock: OJICUG_clean_linker_0, # of connection points: 2
#     Edge 36, Type (0, 0), BuildingBlock: OJICUG_clean_linker_0, # of connection points: 2
#     Edge 37, Type (0, 0), BuildingBlock: OJICUG_clean_linker_0, # of connection points: 2
#     Edge 38, Type (0, 0), BuildingBlock: OJICUG_clean_linker_0, # of connection points: 2
#     Edge 39, Type (0, 0), BuildingBlock: OJICUG_clean_linker_0, # of connection points: 2
#     Edge 40, Type (0, 0), BuildingBlock: OJICUG_clean_linker_0, # of connection points: 2
#     Edge 41, Type (0, 0), BuildingBlock: OJICUG_clean_linker_0, # of connection points: 2
#     Edge 42, Type (0, 0), BuildingBlock: OJICUG_clean_linker_0, # of connection points: 2
#     Edge 43, Type (0, 0), BuildingBlock: OJICUG_clean_linker_0, # of connection points: 2
#     Edge 44, Type (0, 0), BuildingBlock: OJICUG_clean_linker_0, # of connection points: 2
#     Edge 45, Type (0, 0), BuildingBlock: OJICUG_clean_linker_0, # of connection points: 2
#     Edge 46, Type (0, 0), BuildingBlock: OJICUG_clean_linker_0, # of connection points: 2
#     Edge 47, Type (0, 0), BuildingBlock: OJICUG_clean_linker_0, # of connection points: 2
#     Edge 48, Type (0, 0), BuildingBlock: OJICUG_clean_linker_0, # of connection points: 2
#     Edge 49, Type (0, 0), BuildingBlock: OJICUG_clean_linker_0, # of connection points: 2
#     Edge 50, Type (0, 0), BuildingBlock: OJICUG_clean_linker_0, # of connection points: 2
#     Edge 51, Type (0, 0), BuildingBlock: OJICUG_clean_linker_0, # of connection points: 2
#     Edge 52, Type (0, 0), BuildingBlock: OJICUG_clean_linker_0, # of connection points: 2
#     Edge 53, Type (0, 0), BuildingBlock: OJICUG_clean_linker_0, # of connection points: 2
#     Edge 54, Type (0, 0), BuildingBlock: OJICUG_clean_linker_0, # of connection points: 2
#     Edge 55, Type (0, 0), BuildingBlock: OJICUG_clean_linker_0, # of connection points: 2
#     Edge 56, Type (0, 0), BuildingBlock: OJICUG_clean_linker_0, # of connection points: 2
#     Edge 57, Type (0, 0), BuildingBlock: OJICUG_clean_linker_0, # of connection points: 2
#     Edge 58, Type (0, 0), BuildingBlock: OJICUG_clean_linker_0, # of connection points: 2
#     Edge 59, Type (0, 0), BuildingBlock: OJICUG_clean_linker_0, # of connection points: 2
#     Edge 60, Type (0, 0), BuildingBlock: OJICUG_clean_linker_0, # of connection points: 2
#     Edge 61, Type (0, 0), BuildingBlock: OJICUG_clean_linker_0, # of connection points: 2
#     Edge 62, Type (0, 0), BuildingBlock: OJICUG_clean_linker_0, # of connection points: 2
#     Edge 63, Type (0, 0), BuildingBlock: OJICUG_clean_linker_0, # of connection points: 2
#     Edge 64, Type (0, 0), BuildingBlock: OJICUG_clean_linker_0, # of connection points: 2
#     Edge 65, Type (0, 0), BuildingBlock: OJICUG_clean_linker_0, # of connection points: 2
#     Edge 66, Type (0, 0), BuildingBlock: OJICUG_clean_linker_0, # of connection points: 2
#     Edge 67, Type (0, 0), BuildingBlock: OJICUG_clean_linker_0, # of connection points: 2
#     Edge 68, Type (0, 0), BuildingBlock: OJICUG_clean_linker_0, # of connection points: 2
#     Edge 69, Type (0, 0), BuildingBlock: OJICUG_clean_linker_0, # of connection points: 2
#     Edge 70, Type (0, 0), BuildingBlock: OJICUG_clean_linker_0, # of connection points: 2
#     Edge 71, Type (0, 0), BuildingBlock: OJICUG_clean_linker_0, # of connection points: 2
#     Edge 72, Type (0, 0), BuildingBlock: OJICUG_clean_linker_0, # of connection points: 2
#     Edge 73, Type (0, 0), BuildingBlock: OJICUG_clean_linker_0, # of connection points: 2
#     Edge 74, Type (0, 0), BuildingBlock: OJICUG_clean_linker_0, # of connection points: 2
#     Edge 75, Type (0, 0), BuildingBlock: OJICUG_clean_linker_0, # of connection points: 2
#     Edge 76, Type (0, 0), BuildingBlock: OJICUG_clean_linker_0, # of connection points: 2
#     Edge 77, Type (0, 0), BuildingBlock: OJICUG_clean_linker_0, # of connection points: 2
#     Edge 78, Type (0, 0), BuildingBlock: OJICUG_clean_linker_0, # of connection points: 2
#     Edge 79, Type (0, 0), BuildingBlock: OJICUG_clean_linker_0, # of connection points: 2
#     Edge 80, Type (0, 0), BuildingBlock: OJICUG_clean_linker_0, # of connection points: 2
#     Edge 81, Type (0, 0), BuildingBlock: OJICUG_clean_linker_0, # of connection points: 2
#     Edge 82, Type (0, 0), BuildingBlock: OJICUG_clean_linker_0, # of connection points: 2
#     Edge 83, Type (0, 0), BuildingBlock: OJICUG_clean_linker_0, # of connection points: 2
#     Edge 84, Type (0, 0), BuildingBlock: OJICUG_clean_linker_0, # of connection points: 2
#     Edge 85, Type (0, 0), BuildingBlock: OJICUG_clean_linker_0, # of connection points: 2
#     Edge 86, Type (0, 0), BuildingBlock: OJICUG_clean_linker_0, # of connection points: 2
#     Edge 87, Type (0, 0), BuildingBlock: OJICUG_clean_linker_0, # of connection points: 2
#     Edge 88, Type (0, 0), BuildingBlock: OJICUG_clean_linker_0, # of connection points: 2
#     Edge 89, Type (0, 0), BuildingBlock: OJICUG_clean_linker_0, # of connection points: 2
#     Edge 90, Type (0, 0), BuildingBlock: OJICUG_clean_linker_0, # of connection points: 2
#     Edge 91, Type (0, 0), BuildingBlock: OJICUG_clean_linker_0, # of connection points: 2
#     Edge 92, Type (0, 0), BuildingBlock: OJICUG_clean_linker_0, # of connection points: 2
#     Edge 93, Type (0, 0), BuildingBlock: OJICUG_clean_linker_0, # of connection points: 2
#     Edge 94, Type (0, 0), BuildingBlock: OJICUG_clean_linker_0, # of connection points: 2
#     Edge 95, Type (0, 0), BuildingBlock: OJICUG_clean_linker_0, # of connection points: 2
# Relax obj value: 0.044
# Max RMSD: 0.097
# Mean RMSD: 0.097
data_MOF--net-upd--node1-NAWXER_clean_sbu_0--edge1-OJICUG_clean_linker_0
_symmetry_space_group_name_H-M    P1
_symmetry_Int_Tables_number       1
_symmetry_cell_setting            triclinic
loop_
_symmetry_equiv_pos_as_xyz
'x, y, z'
_cell_length_a     29.34287
_cell_length_b     29.315723
_cell_length_c     54.374726
_cell_angle_alpha  90.014344
_cell_angle_beta   90.007898
_cell_angle_gamma 90.001494
loop_
_atom_site_label
_atom_site_type_symbol
_atom_site_fract_x
_atom_site_fract_y
_atom_site_fract_z
_atom_type_partial_charge
C0 C 0.17374 0.06689 0.30503 0.0
C1 C 0.17317 0.17779 0.37205 0.0
O2 O 0.14503 0.09931 0.30222 0.0
Zn3 Zn 0.12455 0.16027 0.32011 0.0
O4 O 0.19946 0.06596 0.32386 0.0
Zn5 Zn 0.176 0.12151 0.33887 0.0
O6 O 0.10663 0.10416 0.34778 0.0
O7 O 0.06061 0.14847 0.32631 0.0
O8 O 0.19833 0.14256 0.37073 0.0
O9 O 0.14566 0.18749 0.35456 0.0
O10 O 0.14319 0.20652 0.2967 0.0
O11 O 0.20159 0.17131 0.31373 0.0
C12 C 0.06612 0.11678 0.34204 0.0
C13 C 0.18605 0.201 0.29861 0.0
C14 C 0.04748 0.93682 0.54795 0.0
C15 C 0.13258 0.8187 0.59245 0.0
O16 O 0.07679 0.95295 0.56308 0.0
Zn17 Zn 0.12654 0.92857 0.58847 0.0
O18 O 0.04248 0.89383 0.5462 0.0
Zn19 Zn 0.08876 0.87604 0.56984 0.0
O20 O 0.06109 0.89724 0.60417 0.0
O21 O 0.10472 0.95129 0.62009 0.0
O22 O 0.10156 0.81227 0.57643 0.0
O23 O 0.1444 0.85959 0.59798 0.0
O24 O 0.18197 0.95238 0.57346 0.0
O25 O 0.14949 0.89709 0.55204 0.0
C26 C 0.07009 0.92533 0.62151 0.0
C27 C 0.1815 0.92628 0.55476 0.0
C28 C 0.32673 0.82182 0.87151 0.0
C29 C 0.32635 0.9327 0.8045 0.0
O30 O 0.35419 0.81204 0.85401 0.0
Zn31 Zn 0.37544 0.83926 0.81958 0.0
O32 O 0.30171 0.85715 0.87022 0.0
Zn33 Zn 0.32405 0.87813 0.83836 0.0
O34 O 0.29841 0.82835 0.81324 0.0
O35 O 0.35668 0.79302 0.79614 0.0
O36 O 0.30067 0.93368 0.82335 0.0
O37 O 0.35502 0.90023 0.80169 0.0
O38 O 0.43942 0.851 0.82585 0.0
O39 O 0.39338 0.89534 0.8473 0.0
C40 C 0.31384 0.79863 0.7981 0.0
C41 C 0.43389 0.88268 0.84159 0.0
C42 C 0.42847 0.07496 0.12151 0.0
C43 C 0.31713 0.07392 0.05472 0.0
O44 O 0.43746 0.10309 0.10419 0.0
Zn45 Zn 0.40984 0.12424 0.06983 0.0
O46 O 0.3939 0.04892 0.12003 0.0
Zn47 Zn 0.37209 0.07166 0.08842 0.0
O48 O 0.42183 0.04738 0.06302 0.0
O49 O 0.45618 0.1065 0.04618 0.0
O50 O 0.31671 0.04779 0.0734 0.0
O51 O 0.3491 0.10316 0.05202 0.0
O52 O 0.39694 0.18799 0.07646 0.0
O53 O 0.3541 0.14059 0.09794 0.0
C54 C 0.45114 0.06351 0.04789 0.0
C55 C 0.36587 0.1815 0.09244 0.0
C56 C 0.1736 0.82273 0.1606 0.0
C57 C 0.17402 0.93295 0.22795 0.0
O58 O 0.14601 0.81291 0.17803 0.0
Zn59 Zn 0.12496 0.83966 0.21258 0.0
O60 O 0.19896 0.8578 0.1621 0.0
Zn61 Zn 0.17652 0.87855 0.19399 0.0
O62 O 0.20203 0.82854 0.21901 0.0
O63 O 0.14357 0.79317 0.23587 0.0
O64 O 0.19984 0.93401 0.20916 0.0
O65 O 0.14531 0.90048 0.23064 0.0
O66 O 0.06104 0.85148 0.20634 0.0
O67 O 0.10715 0.89588 0.18498 0.0
C68 C 0.18643 0.79871 0.23402 0.0
C69 C 0.06662 0.8832 0.19063 0.0
C70 C 0.31565 0.92682 0.47784 0.0
C71 C 0.42708 0.92642 0.41107 0.0
O72 O 0.34777 0.89774 0.48052 0.0
Zn73 Zn 0.40856 0.87697 0.4627 0.0
O74 O 0.31509 0.95297 0.45917 0.0
Zn75 Zn 0.37059 0.92939 0.44412 0.0
O76 O 0.35293 0.86036 0.43457 0.0
O77 O 0.39599 0.81319 0.45606 0.0
O78 O 0.39232 0.95221 0.4125 0.0
O79 O 0.43618 0.89835 0.42841 0.0
O80 O 0.45477 0.89483 0.48635 0.0
O81 O 0.42031 0.95391 0.46952 0.0
C82 C 0.36491 0.81951 0.44008 0.0
C83 C 0.44967 0.93781 0.48464 0.0
C84 C 0.31276 0.20109 0.73401 0.0
C85 C 0.43296 0.11725 0.6906 0.0
O86 O 0.29727 0.17135 0.7189 0.0
Zn87 Zn 0.32307 0.12155 0.69378 0.0
O88 O 0.35561 0.20667 0.73595 0.0
Zn89 Zn 0.37438 0.1605 0.71254 0.0
O90 O 0.35312 0.18763 0.67812 0.0
O91 O 0.30076 0.14241 0.66189 0.0
O92 O 0.43836 0.14899 0.70631 0.0
O93 O 0.3925 0.10444 0.68487 0.0
O94 O 0.29983 0.06592 0.70879 0.0
O95 O 0.35419 0.09945 0.73042 0.0
C96 C 0.32571 0.1778 0.66061 0.0
C97 C 0.3256 0.06692 0.72761 0.0
C98 C 0.13382 0.18049 0.93987 0.0
C99 C 0.04899 0.06212 0.9843 0.0
O100 O 0.14593 0.13966 0.93439 0.0
Zn101 Zn 0.12832 0.07061 0.94392 0.0
O102 O 0.10261 0.18675 0.95579 0.0
Zn103 Zn 0.09015 0.12296 0.96242 0.0
O104 O 0.15088 0.10234 0.98036 0.0
O105 O 0.18378 0.04714 0.95906 0.0
O106 O 0.04382 0.1051 0.98598 0.0
O107 O 0.07847 0.04603 0.96925 0.0
O108 O 0.10689 0.04768 0.91226 0.0
O109 O 0.06279 0.10145 0.92807 0.0
C110 C 0.18307 0.07332 0.97773 0.0
C111 C 0.07208 0.07339 0.91076 0.0
C112 C 0.93184 0.88204 0.6906 0.0
C113 C 0.81139 0.79884 0.73414 0.0
O114 O 0.93711 0.85029 0.70632 0.0
Zn115 Zn 0.87309 0.83911 0.71258 0.0
O116 O 0.89143 0.89502 0.68489 0.0
Zn117 Zn 0.82192 0.87818 0.69383 0.0
O118 O 0.79893 0.93396 0.70879 0.0
O119 O 0.85321 0.90031 0.73042 0.0
O120 O 0.79594 0.82857 0.71902 0.0
O121 O 0.85422 0.79311 0.73602 0.0
O122 O 0.85173 0.81197 0.67817 0.0
O123 O 0.79953 0.85736 0.66193 0.0
C124 C 0.82474 0.93294 0.72759 0.0
C125 C 0.82436 0.82188 0.66065 0.0
C126 C 0.86531 0.18003 0.43962 0.0
C127 C 0.94963 0.06172 0.48441 0.0
O128 O 0.89624 0.18636 0.45569 0.0
Zn129 Zn 0.90871 0.12257 0.4624 0.0
O130 O 0.85333 0.13918 0.43411 0.0
Zn131 Zn 0.87082 0.07017 0.44373 0.0
O132 O 0.81521 0.04664 0.45868 0.0
O133 O 0.84781 0.10187 0.48009 0.0
O134 O 0.92037 0.04564 0.46922 0.0
O135 O 0.95473 0.10471 0.48614 0.0
O136 O 0.93661 0.10103 0.42819 0.0
O137 O 0.89272 0.04731 0.41214 0.0
C138 C 0.81569 0.07281 0.47735 0.0
C139 C 0.92759 0.07298 0.41083 0.0
C140 C 0.67367 0.17767 0.16058 0.0
C141 C 0.67347 0.06824 0.22829 0.0
O142 O 0.69869 0.14236 0.16213 0.0
Zn143 Zn 0.67622 0.12218 0.19413 0.0
O144 O 0.64624 0.1879 0.17802 0.0
Zn145 Zn 0.62503 0.16165 0.21264 0.0
O146 O 0.64395 0.20829 0.23574 0.0
O147 O 0.70218 0.17239 0.21896 0.0
O148 O 0.64499 0.10093 0.2309 0.0
O149 O 0.6992 0.06676 0.20947 0.0
O150 O 0.60671 0.10521 0.18523 0.0
O151 O 0.56102 0.15031 0.20645 0.0
C152 C 0.68678 0.2025 0.23388 0.0
C153 C 0.56629 0.11832 0.19086 0.0
C154 C 0.54868 0.93819 0.98441 0.0
C155 C 0.6324 0.8186 0.94039 0.0
O156 O 0.54318 0.89527 0.98617 0.0
Zn157 Zn 0.58931 0.87687 0.96268 0.0
O158 O 0.57828 0.95396 0.96933 0.0
Zn159 Zn 0.62797 0.92857 0.94405 0.0
O160 O 0.60686 0.95126 0.91228 0.0
O161 O 0.56209 0.89829 0.92831 0.0
O162 O 0.64504 0.8592 0.93478 0.0
O163 O 0.60099 0.81292 0.95625 0.0
O164 O 0.65022 0.89717 0.98061 0.0
O165 O 0.68357 0.95178 0.95911 0.0
C166 C 0.57171 0.926 0.91089 0.0
C167 C 0.68264 0.9259 0.97788 0.0
C168 C 0.82716 0.17727 0.87191 0.0
C169 C 0.82627 0.06701 0.80459 0.0
O170 O 0.80197 0.14206 0.8705 0.0
Zn171 Zn 0.82419 0.12133 0.83857 0.0
O172 O 0.85458 0.18715 0.85441 0.0
Zn173 Zn 0.8755 0.1603 0.81984 0.0
O174 O 0.85669 0.20676 0.79657 0.0
O175 O 0.79844 0.17131 0.8136 0.0
O176 O 0.85495 0.09948 0.8018 0.0
O177 O 0.8007 0.06591 0.82347 0.0
O178 O 0.89361 0.10401 0.84737 0.0
O179 O 0.93949 0.14853 0.82594 0.0
C180 C 0.81385 0.20115 0.79853 0.0
C181 C 0.93408 0.11674 0.84162 0.0
C182 C 0.57108 0.0738 0.62152 0.0
C183 C 0.68203 0.07339 0.55452 0.0
O184 O 0.60581 0.04798 0.62003 0.0
Zn185 Zn 0.62737 0.07089 0.58839 0.0
O186 O 0.56191 0.10192 0.60422 0.0
Zn187 Zn 0.58935 0.12342 0.5699 0.0
O188 O 0.54293 0.10566 0.54633 0.0
O189 O 0.57744 0.04653 0.56308 0.0
O190 O 0.64994 0.10253 0.55193 0.0
O191 O 0.68272 0.04726 0.5732 0.0
O192 O 0.64512 0.13984 0.598 0.0
O193 O 0.60207 0.18717 0.57661 0.0
C194 C 0.548 0.06267 0.54802 0.0
C195 C 0.63317 0.18073 0.59257 0.0
C196 C 0.67313 0.93442 0.30538 0.0
C197 C 0.67302 0.82248 0.37186 0.0
O198 O 0.69876 0.9352 0.32426 0.0
Zn199 Zn 0.67547 0.87937 0.339 0.0
O200 O 0.64457 0.90192 0.30239 0.0
Zn201 Zn 0.62435 0.8406 0.32 0.0
O202 O 0.56032 0.85188 0.32625 0.0
O203 O 0.606 0.89626 0.3479 0.0
O204 O 0.64573 0.81283 0.35426 0.0
O205 O 0.69771 0.85808 0.37082 0.0
O206 O 0.70144 0.82997 0.31368 0.0
O207 O 0.64323 0.79484 0.29638 0.0
C208 C 0.56559 0.88344 0.34209 0.0
C209 C 0.68607 0.80046 0.29841 0.0
C210 C 0.95082 0.93736 0.04778 0.0
C211 C 0.86633 0.81916 0.09252 0.0
O212 O 0.95591 0.89437 0.04608 0.0
Zn213 Zn 0.90984 0.87659 0.06981 0.0
O214 O 0.92154 0.95349 0.06293 0.0
Zn215 Zn 0.87194 0.92901 0.08841 0.0
O216 O 0.8937 0.95192 0.12 0.0
O217 O 0.93767 0.89819 0.10404 0.0
O218 O 0.85432 0.86001 0.098 0.0
O219 O 0.89741 0.81282 0.07654 0.0
O220 O 0.84889 0.89724 0.05206 0.0
O221 O 0.81639 0.95257 0.07345 0.0
C222 C 0.92856 0.92627 0.12138 0.0
C223 C 0.81681 0.92635 0.0548 0.0
C224 C 0.67368 0.56764 0.8046 0.0
C225 C 0.67395 0.68015 0.87087 0.0
O226 O 0.64473 0.59984 0.80174 0.0
Zn227 Zn 0.62425 0.66111 0.81934 0.0
O228 O 0.69979 0.56731 0.82328 0.0
Zn229 Zn 0.67641 0.62309 0.83808 0.0
O230 O 0.60746 0.60576 0.84764 0.0
O231 O 0.56045 0.6489 0.82611 0.0
O232 O 0.69928 0.64501 0.86964 0.0
O233 O 0.646 0.68927 0.85349 0.0
O234 O 0.64231 0.70696 0.79547 0.0
O235 O 0.7011 0.67244 0.81252 0.0
C236 C 0.56668 0.61785 0.84213 0.0
C237 C 0.68523 0.70169 0.79726 0.0
C238 C 0.54716 0.43546 0.04756 0.0
C239 C 0.63064 0.31503 0.09105 0.0
O240 O 0.57673 0.45083 0.06279 0.0
Zn241 Zn 0.62629 0.42497 0.08797 0.0
O242 O 0.5416 0.39259 0.04549 0.0
Zn243 Zn 0.58751 0.37368 0.06903 0.0
O244 O 0.55994 0.39499 0.10336 0.0
O245 O 0.60515 0.44708 0.11987 0.0
O246 O 0.59901 0.30959 0.07528 0.0
O247 O 0.64332 0.35554 0.09681 0.0
O248 O 0.68199 0.4483 0.07311 0.0
O249 O 0.64867 0.39401 0.05131 0.0
C250 C 0.56964 0.42229 0.12097 0.0
C251 C 0.68115 0.42262 0.05424 0.0
C252 C 0.82417 0.31929 0.37039 0.0
C253 C 0.82508 0.43369 0.30507 0.0
O254 O 0.85193 0.31048 0.35288 0.0
Zn255 Zn 0.87425 0.33976 0.31913 0.0
O256 O 0.79943 0.35489 0.36963 0.0
Zn257 Zn 0.82224 0.37751 0.33819 0.0
O258 O 0.79742 0.32877 0.31225 0.0
O259 O 0.85615 0.29467 0.29486 0.0
O260 O 0.79899 0.43369 0.32376 0.0
O261 O 0.85394 0.40148 0.302 0.0
O262 O 0.93811 0.35158 0.32616 0.0
O263 O 0.89114 0.39437 0.34791 0.0
C264 C 0.81323 0.2999 0.29676 0.0
C265 C 0.9319 0.38229 0.34238 0.0
C266 C 0.92862 0.57759 0.62141 0.0
C267 C 0.81884 0.57646 0.55381 0.0
O268 O 0.93837 0.60523 0.60398 0.0
Zn269 Zn 0.91175 0.62604 0.56934 0.0
O270 O 0.89373 0.552 0.61987 0.0
Zn271 Zn 0.87296 0.57428 0.58794 0.0
O272 O 0.92313 0.54895 0.56306 0.0
O273 O 0.95847 0.6074 0.54613 0.0
O274 O 0.81771 0.55071 0.57264 0.0
O275 O 0.85121 0.60528 0.55117 0.0
O276 O 0.89946 0.69003 0.57554 0.0
O277 O 0.85535 0.64357 0.59686 0.0
C278 C 0.953 0.5645 0.54807 0.0
C279 C 0.86776 0.68422 0.59122 0.0
C280 C 0.68679 0.29809 0.73584 0.0
C281 C 0.56657 0.38014 0.6914 0.0
O282 O 0.7022 0.32743 0.72048 0.0
Zn283 Zn 0.67637 0.37648 0.69492 0.0
O284 O 0.64395 0.29239 0.73779 0.0
Zn285 Zn 0.62518 0.33774 0.71392 0.0
O286 O 0.64724 0.30943 0.67991 0.0
O287 O 0.69886 0.35486 0.6632 0.0
O288 O 0.56116 0.34875 0.70731 0.0
O289 O 0.60703 0.393 0.68574 0.0
O290 O 0.69932 0.43257 0.70957 0.0
O291 O 0.64509 0.39933 0.73141 0.0
C292 C 0.67457 0.31897 0.66231 0.0
C293 C 0.67357 0.43191 0.7284 0.0
C294 C 0.81684 0.42272 0.97812 0.0
C295 C 0.92965 0.42288 0.91206 0.0
O296 O 0.84938 0.39425 0.98125 0.0
Zn297 Zn 0.91099 0.37421 0.96388 0.0
O298 O 0.81625 0.44835 0.95924 0.0
Zn299 Zn 0.87233 0.42525 0.9447 0.0
O300 O 0.85586 0.35574 0.93575 0.0
O301 O 0.90001 0.31004 0.95751 0.0
O302 O 0.89389 0.44736 0.9129 0.0
O303 O 0.9392 0.39574 0.92974 0.0
O304 O 0.9563 0.39332 0.98769 0.0
O305 O 0.9213 0.45141 0.97017 0.0
C306 C 0.86869 0.3153 0.94155 0.0
C307 C 0.95062 0.43617 0.98559 0.0
C308 C 0.813 0.7033 0.23572 0.0
C309 C 0.93247 0.62006 0.19126 0.0
O310 O 0.79742 0.67379 0.22051 0.0
Zn311 Zn 0.82274 0.62428 0.19512 0.0
O312 O 0.85587 0.70885 0.23762 0.0
Zn313 Zn 0.87435 0.66299 0.2139 0.0
O314 O 0.85223 0.69087 0.17978 0.0
O315 O 0.79999 0.64565 0.16341 0.0
O316 O 0.9383 0.65141 0.20716 0.0
O317 O 0.89186 0.60745 0.18575 0.0
O318 O 0.7997 0.56848 0.21007 0.0
O319 O 0.85421 0.60181 0.23166 0.0
C320 C 0.82463 0.68129 0.16231 0.0
C321 C 0.82557 0.56932 0.22885 0.0
C322 C 0.68365 0.5757 0.47741 0.0
C323 C 0.56986 0.57617 0.4118 0.0
O324 O 0.65134 0.60439 0.48064 0.0
Zn325 Zn 0.58963 0.6248 0.46354 0.0
O326 O 0.68381 0.54997 0.45856 0.0
Zn327 Zn 0.62764 0.57339 0.44423 0.0
O328 O 0.64438 0.64276 0.43515 0.0
O329 O 0.60109 0.68889 0.45714 0.0
O330 O 0.60539 0.55136 0.41254 0.0
O331 O 0.56079 0.60346 0.4295 0.0
O332 O 0.54455 0.606 0.48755 0.0
O333 O 0.57891 0.54765 0.46991 0.0
C334 C 0.63203 0.68332 0.441 0.0
C335 C 0.54994 0.56311 0.48544 0.0
C336 C 0.43168 0.38102 0.19082 0.0
C337 C 0.31244 0.29822 0.23567 0.0
O338 O 0.43758 0.34988 0.20683 0.0
Zn339 Zn 0.37366 0.33833 0.21365 0.0
O340 O 0.39104 0.39354 0.18531 0.0
Zn341 Zn 0.32196 0.37679 0.19482 0.0
O342 O 0.29892 0.43272 0.20962 0.0
O343 O 0.35354 0.39969 0.23125 0.0
O344 O 0.29675 0.32753 0.22038 0.0
O345 O 0.35532 0.29274 0.23753 0.0
O346 O 0.35142 0.31006 0.17964 0.0
O347 O 0.29914 0.3551 0.16318 0.0
C348 C 0.32485 0.43211 0.22838 0.0
C349 C 0.32378 0.31945 0.16216 0.0
C350 C 0.42865 0.57574 0.91176 0.0
C351 C 0.31614 0.57633 0.97798 0.0
O352 O 0.39294 0.5512 0.91269 0.0
Zn353 Zn 0.37147 0.57356 0.94447 0.0
O354 O 0.43821 0.60305 0.92938 0.0
Zn355 Zn 0.41016 0.62479 0.96352 0.0
O356 O 0.45563 0.60586 0.98728 0.0
O357 O 0.42063 0.54763 0.96989 0.0
O358 O 0.34867 0.60484 0.981 0.0
O359 O 0.31547 0.55055 0.95915 0.0
O360 O 0.35501 0.64299 0.93536 0.0
O361 O 0.39908 0.6889 0.95705 0.0
C362 C 0.45001 0.56299 0.98523 0.0
C363 C 0.3678 0.68348 0.94108 0.0
C364 C 0.17312 0.56793 0.72836 0.0
C365 C 0.17405 0.6804 0.66206 0.0
O366 O 0.19871 0.56705 0.70947 0.0
Zn367 Zn 0.17578 0.62307 0.69473 0.0
O368 O 0.14471 0.60057 0.73134 0.0
Zn369 Zn 0.1248 0.66203 0.71374 0.0
O370 O 0.06073 0.65118 0.70721 0.0
O371 O 0.10636 0.60665 0.68564 0.0
O372 O 0.14682 0.69011 0.67967 0.0
O373 O 0.19823 0.64443 0.66295 0.0
O374 O 0.20185 0.67226 0.72017 0.0
O375 O 0.14373 0.70752 0.73749 0.0
C376 C 0.06597 0.61969 0.69133 0.0
C377 C 0.18655 0.70174 0.73549 0.0
C378 C 0.18381 0.424 0.47779 0.0
C379 C 0.07045 0.4239 0.41198 0.0
O380 O 0.18424 0.44962 0.45891 0.0
Zn381 Zn 0.12807 0.4264 0.44449 0.0
O382 O 0.15134 0.39548 0.48099 0.0
Zn383 Zn 0.08965 0.37532 0.46376 0.0
O384 O 0.10069 0.31117 0.45742 0.0
O385 O 0.14459 0.35688 0.43553 0.0
O386 O 0.0611 0.39677 0.4297 0.0
O387 O 0.10619 0.44841 0.41272 0.0
O388 O 0.07925 0.45253 0.47008 0.0
O389 O 0.04454 0.39434 0.48766 0.0
C390 C 0.13187 0.31644 0.44139 0.0
C391 C 0.05011 0.43721 0.48556 0.0
C392 C 0.32335 0.68079 0.37067 0.0
C393 C 0.32447 0.56739 0.30481 0.0
O394 O 0.29858 0.64522 0.36971 0.0
Zn395 Zn 0.32151 0.62308 0.33819 0.0
O396 O 0.35115 0.68988 0.35322 0.0
Zn397 Zn 0.37349 0.66117 0.31934 0.0
O398 O 0.35538 0.70658 0.29528 0.0
O399 O 0.29663 0.67215 0.31244 0.0
O400 O 0.35328 0.5997 0.3019 0.0
O401 O 0.29838 0.56706 0.3235 0.0
O402 O 0.39046 0.60618 0.34787 0.0
O403 O 0.43733 0.64938 0.3263 0.0
C404 C 0.31247 0.70125 0.29709 0.0
C405 C 0.43119 0.61842 0.34239 0.0
C406 C 0.07006 0.57784 0.12141 0.0
C407 C 0.18108 0.57718 0.05443 0.0
O408 O 0.10553 0.55299 0.12024 0.0
Zn409 Zn 0.12646 0.57496 0.08828 0.0
O410 O 0.06022 0.60502 0.10379 0.0
Zn411 Zn 0.08748 0.62607 0.06934 0.0
O412 O 0.04143 0.60695 0.04592 0.0
O413 O 0.07682 0.54887 0.0632 0.0
O414 O 0.14854 0.60572 0.05152 0.0
O415 O 0.1821 0.55164 0.07334 0.0
O416 O 0.14341 0.64449 0.09701 0.0
O417 O 0.0989 0.69021 0.07547 0.0
C418 C 0.04712 0.5641 0.04801 0.0
C419 C 0.1306 0.68494 0.09121 0.0
C420 C 0.17558 0.31911 0.87049 0.0
C421 C 0.1743 0.43251 0.80468 0.0
O422 O 0.20039 0.35464 0.86951 0.0
Zn423 Zn 0.17743 0.37676 0.83801 0.0
O424 O 0.14774 0.31001 0.85305 0.0
Zn425 Zn 0.12541 0.33867 0.81915 0.0
O426 O 0.14354 0.29325 0.79508 0.0
O427 O 0.20227 0.3277 0.81227 0.0
O428 O 0.14549 0.40021 0.80175 0.0
O429 O 0.20048 0.4328 0.82333 0.0
O430 O 0.1085 0.3936 0.84772 0.0
O431 O 0.06156 0.35043 0.82615 0.0
C432 C 0.18646 0.29857 0.79692 0.0
C433 C 0.06775 0.38135 0.84226 0.0
C434 C 0.42926 0.42264 0.62154 0.0
C435 C 0.31903 0.4236 0.55417 0.0
O436 O 0.39424 0.44807 0.6201 0.0
Zn437 Zn 0.3734 0.42586 0.58817 0.0
O438 O 0.43901 0.39512 0.60405 0.0
Zn439 Zn 0.4122 0.37428 0.56945 0.0
O440 O 0.45866 0.39306 0.54617 0.0
O441 O 0.42336 0.45144 0.56321 0.0
O442 O 0.35144 0.39486 0.55143 0.0
O443 O 0.31799 0.44932 0.57302 0.0
O444 O 0.35603 0.35647 0.59704 0.0
O445 O 0.4002 0.31024 0.5756 0.0
C446 C 0.45314 0.43595 0.54814 0.0
C447 C 0.36856 0.31588 0.59134 0.0
C448 C 0.18374 0.28432 0.40923 0.0
C449 C 0.15021 0.2771 0.42736 0.0
H450 H 0.2179 0.25749 0.37749 0.0
C451 C 0.13088 0.23339 0.42966 0.0
H452 H 0.19953 0.31746 0.40698 0.0
C453 C 0.14208 0.1989 0.41288 0.0
C454 C 0.17299 0.2075 0.39374 0.0
H455 H 0.10497 0.22667 0.44338 0.0
H456 H 0.12414 0.16663 0.41376 0.0
C457 C 0.19471 0.24993 0.39246 0.0
C458 C 0.04895 0.89228 0.66183 0.0
C459 C 0.04062 0.92451 0.64328 0.0
H460 H 0.02107 0.85378 0.69176 0.0
C461 C 0.99857 0.94698 0.64254 0.0
H462 H 0.0809 0.87376 0.66227 0.0
C463 C 0.96423 0.93547 0.65923 0.0
C464 C 0.97117 0.90074 0.67674 0.0
H465 H 0.9912 0.97118 0.62801 0.0
H466 H 0.93133 0.95186 0.65738 0.0
C467 C 0.01457 0.88063 0.67855 0.0
C468 C 0.31645 0.71513 0.90855 0.0
C469 C 0.34947 0.72267 0.92692 0.0
H470 H 0.28281 0.74162 0.87657 0.0
C471 C 0.36832 0.76656 0.92937 0.0
H472 H 0.30105 0.68184 0.90616 0.0
C473 C 0.35715 0.80096 0.91253 0.0
C474 C 0.32679 0.79206 0.89317 0.0
H475 H 0.39382 0.77353 0.94328 0.0
H476 H 0.37473 0.83342 0.91356 0.0
C477 C 0.30556 0.7494 0.89171 0.0
C478 C 0.49971 0.05317 0.14279 0.0
C479 C 0.45777 0.07588 0.14335 0.0
H480 H 0.56678 0.0481 0.15785 0.0
C481 C 0.44942 0.10831 0.16179 0.0
H482 H 0.50709 0.0288 0.12834 0.0
C483 C 0.48369 0.11993 0.17859 0.0
C484 C 0.52699 0.09959 0.17697 0.0
H485 H 0.41756 0.127 0.16209 0.0
H486 H 0.47718 0.14695 0.19172 0.0
C487 C 0.53394 0.06466 0.15956 0.0
C488 C 0.19536 0.7514 0.13943 0.0
C489 C 0.17301 0.79354 0.13871 0.0
H490 H 0.20022 0.68418 0.12449 0.0
C491 C 0.14104 0.80209 0.12007 0.0
H492 H 0.21937 0.74387 0.15402 0.0
C493 C 0.12944 0.76778 0.10326 0.0
C494 C 0.14938 0.72428 0.10507 0.0
H495 H 0.12261 0.83412 0.11964 0.0
H496 H 0.10273 0.77441 0.08999 0.0
C497 C 0.18394 0.71717 0.12264 0.0
C498 C 0.49882 0.948 0.3903 0.0
C499 C 0.45663 0.92581 0.38934 0.0
H500 H 0.56621 0.95272 0.37565 0.0
C501 C 0.44827 0.89394 0.37062 0.0
H502 H 0.50622 0.97192 0.40497 0.0
C503 C 0.48273 0.88233 0.35393 0.0
C504 C 0.52623 0.90214 0.35595 0.0
H505 H 0.41621 0.87561 0.37001 0.0
H506 H 0.47618 0.85572 0.34056 0.0
C507 C 0.53323 0.93656 0.37363 0.0
C508 C 0.30515 0.25036 0.6404 0.0
C509 C 0.32591 0.20748 0.63891 0.0
H510 H 0.30151 0.31806 0.62607 0.0
C511 C 0.3562 0.19831 0.61956 0.0
H512 H 0.28247 0.25834 0.65554 0.0
C513 C 0.36787 0.23269 0.6028 0.0
C514 C 0.34956 0.2768 0.60532 0.0
H515 H 0.37343 0.16567 0.61851 0.0
H516 H 0.39336 0.22551 0.58893 0.0
C517 C 0.31651 0.2846 0.62363 0.0
C518 C 0.0004 0.05192 0.88988 0.0
C519 C 0.04269 0.07393 0.88896 0.0
H520 H 0.93304 0.04747 0.87516 0.0
C521 C 0.0513 0.10564 0.8702 0.0
H522 H 0.99282 0.02813 0.90457 0.0
C523 C 0.01695 0.11735 0.85346 0.0
C524 C 0.97334 0.09778 0.85546 0.0
H525 H 0.08345 0.12381 0.86961 0.0
H526 H 0.02367 0.14387 0.84008 0.0
C527 C 0.96612 0.06345 0.87316 0.0
C528 C 0.81559 0.71515 0.62356 0.0
C529 C 0.84856 0.72318 0.60524 0.0
H530 H 0.7815 0.74113 0.65552 0.0
C531 C 0.86661 0.7674 0.60275 0.0
H532 H 0.80077 0.68161 0.62598 0.0
C533 C 0.85478 0.80167 0.61955 0.0
C534 C 0.8246 0.79228 0.63892 0.0
H535 H 0.89203 0.77476 0.58886 0.0
H536 H 0.87183 0.83441 0.61852 0.0
C537 C 0.80408 0.74928 0.64038 0.0
C538 C 0.98308 0.11666 0.35356 0.0
C539 C 0.02692 0.09772 0.35588 0.0
H540 H 0.91622 0.12249 0.36934 0.0
C541 C 0.03431 0.06385 0.37382 0.0
H542 H 0.97622 0.1428 0.33999 0.0
C543 C -9e-05 0.05218 0.39043 0.0
C544 C 0.95733 0.07355 0.38917 0.0
H545 H 0.06755 0.04834 0.37607 0.0
H546 H 0.00758 0.02878 0.4053 0.0
C547 C 0.9486 0.10478 0.37019 0.0
C548 C 0.63 0.23214 0.10304 0.0
C549 C 0.64953 0.27581 0.10495 0.0
H550 H 0.6235 0.16573 0.11935 0.0
C551 C 0.68382 0.28318 0.12266 0.0
H552 H 0.60352 0.22531 0.08965 0.0
C553 C 0.69528 0.24904 0.13947 0.0
C554 C 0.67329 0.20671 0.13865 0.0
H555 H 0.6998 0.31629 0.12459 0.0
H556 H 0.719 0.25678 0.15417 0.0
C557 C 0.64167 0.1979 0.11987 0.0
C558 C 0.49972 0.94702 0.89024 0.0
C559 C 0.54226 0.92556 0.88911 0.0
H560 H 0.43227 0.95108 0.87564 0.0
C561 C 0.55116 0.8944 0.87011 0.0
H562 H 0.49193 0.97038 0.90511 0.0
C563 C 0.51685 0.88265 0.85334 0.0
C564 C 0.47302 0.90167 0.85553 0.0
H565 H 0.58352 0.87663 0.86935 0.0
H566 H 0.5238 0.85652 0.83977 0.0
C567 C 0.46551 0.93551 0.87348 0.0
C568 C 0.8164 0.28318 0.90959 0.0
C569 C 0.85035 0.27599 0.92749 0.0
H570 H 0.78184 0.2565 0.87793 0.0
C571 C 0.87009 0.23243 0.92951 0.0
H572 H 0.80029 0.31621 0.90756 0.0
C573 C 0.85887 0.19809 0.91264 0.0
C574 C 0.82751 0.20669 0.89371 0.0
H575 H 0.89634 0.22574 0.94305 0.0
H576 H 0.87711 0.16597 0.91328 0.0
C577 C 0.80539 0.24894 0.89273 0.0
C578 C 0.46503 0.06397 0.65905 0.0
C579 C 0.47222 0.09834 0.67674 0.0
H580 H 0.4918 0.02855 0.62768 0.0
C581 C 0.51582 0.11794 0.67874 0.0
H582 H 0.43197 0.04796 0.65704 0.0
C583 C 0.5502 0.10619 0.66203 0.0
C584 C 0.54164 0.0744 0.64329 0.0
H585 H 0.52252 0.14449 0.69212 0.0
H586 H 0.58234 0.12438 0.66263 0.0
C587 C 0.49935 0.05239 0.64236 0.0
C588 C 0.69321 0.74903 0.39119 0.0
C589 C 0.67322 0.79219 0.39331 0.0
H590 H 0.69675 0.681 0.40503 0.0
C591 C 0.64414 0.80134 0.4132 0.0
H592 H 0.71495 0.74108 0.37565 0.0
C593 C 0.63291 0.76673 0.42991 0.0
C594 C 0.65048 0.72244 0.42683 0.0
H595 H 0.62751 0.83422 0.41475 0.0
H596 H 0.60834 0.77396 0.44426 0.0
C597 C 0.68233 0.71459 0.40792 0.0
C598 C 0.03503 0.93579 0.15863 0.0
C599 C 0.02751 0.90211 0.17666 0.0
H600 H 0.00855 0.97048 0.12696 0.0
C601 C 0.98368 0.88312 0.17889 0.0
H602 H 0.06828 0.95131 0.15642 0.0
C603 C 0.94934 0.89478 0.16213 0.0
C604 C 0.95821 0.92582 0.14308 0.0
H605 H 0.97671 0.85712 0.19253 0.0
H606 H 0.91696 0.87706 0.16295 0.0
C607 C 0.00078 0.94722 0.14187 0.0
C608 C 0.69465 0.75299 0.89086 0.0
C609 C 0.67382 0.71015 0.89245 0.0
H610 H 0.69873 0.82068 0.90521 0.0
C611 C 0.64375 0.7011 0.91192 0.0
H612 H 0.71716 0.76087 0.87564 0.0
C613 C 0.63248 0.7355 0.92874 0.0
C614 C 0.65093 0.77954 0.92618 0.0
H615 H 0.62647 0.6685 0.91305 0.0
H616 H 0.6072 0.72837 0.94274 0.0
C617 C 0.68365 0.78727 0.90769 0.0
C618 C 0.49626 0.442 0.14049 0.0
C619 C 0.53955 0.42234 0.1425 0.0
H620 H 0.42847 0.44528 0.1546 0.0
C621 C 0.54914 0.39348 0.16244 0.0
H622 H 0.48797 0.46356 0.12492 0.0
C623 C 0.51486 0.38218 0.17933 0.0
C624 C 0.47046 0.39949 0.17639 0.0
H625 H 0.58212 0.37709 0.16392 0.0
H626 H 0.52243 0.35781 0.19372 0.0
C627 C 0.46215 0.43109 0.1574 0.0
C628 C 0.81738 0.20965 0.40511 0.0
C629 C 0.84655 0.21859 0.42512 0.0
H630 H 0.787 0.23539 0.37205 0.0
C631 C 0.8613 0.26366 0.42911 0.0
H632 H 0.80522 0.17542 0.40146 0.0
C633 C 0.84989 0.29822 0.41239 0.0
C634 C 0.82365 0.28816 0.3915 0.0
H635 H 0.88374 0.27172 0.44432 0.0
H636 H 0.86436 0.33194 0.41479 0.0
C637 C 0.8065 0.244 0.38833 0.0
C638 C 0.03361 0.56654 0.6598 0.0
C639 C 0.02669 0.6014 0.67725 0.0
H640 H 0.0069 0.53102 0.62844 0.0
C641 C 0.9835 0.62201 0.67876 0.0
H642 H 0.06636 0.54976 0.65817 0.0
C643 C 0.94934 0.6107 0.66182 0.0
C644 C 0.95769 0.57831 0.64335 0.0
H645 H 0.97703 0.64898 0.69192 0.0
H646 H 0.91759 0.62959 0.66205 0.0
C647 C 0.9995 0.55537 0.6429 0.0
C648 C 0.6817 0.21011 0.6269 0.0
C649 C 0.65208 0.21919 0.60711 0.0
H650 H 0.71247 0.23547 0.65995 0.0
C651 C 0.63697 0.26423 0.60343 0.0
H652 H 0.69417 0.17591 0.6303 0.0
C653 C 0.64842 0.29857 0.62029 0.0
C654 C 0.67508 0.28831 0.641 0.0
H655 H 0.61417 0.2724 0.58839 0.0
H656 H 0.63365 0.33221 0.61816 0.0
C657 C 0.69263 0.24423 0.64381 0.0
C658 C 0.98441 0.38401 0.85341 0.0
C659 C 0.02921 0.39995 0.85682 0.0
H660 H 0.9167 0.38013 0.86837 0.0
C661 C 0.03803 0.43033 0.87633 0.0
H662 H 0.97645 0.36062 0.83861 0.0
C663 C 0.00394 0.44131 0.89323 0.0
C664 C 0.96014 0.42302 0.89069 0.0
H665 H 0.07202 0.44346 0.87951 0.0
H666 H 0.01254 0.46184 0.90915 0.0
C667 C 0.95012 0.39548 0.87027 0.0
C668 C 0.86345 0.73579 0.10365 0.0
C669 C 0.84743 0.78061 0.10697 0.0
H670 H 0.86744 0.66812 0.11871 0.0
C671 C 0.81683 0.78944 0.12636 0.0
H672 H 0.88701 0.72781 0.08893 0.0
C673 C 0.80578 0.75535 0.14327 0.0
C674 C 0.82424 0.71157 0.14085 0.0
H675 H 0.80364 0.82346 0.12947 0.0
H676 H 0.78513 0.76398 0.15913 0.0
C677 C 0.85195 0.70151 0.12052 0.0
C678 C 0.54899 0.60408 0.37018 0.0
C679 C 0.53913 0.57631 0.39052 0.0
H680 H 0.52245 0.63925 0.33868 0.0
C681 C 0.49534 0.55802 0.3931 0.0
H682 H 0.5824 0.61943 0.36826 0.0
C683 C 0.46112 0.56919 0.3763 0.0
C684 C 0.46981 0.59974 0.35687 0.0
H685 H 0.48686 0.53732 0.40897 0.0
H686 H 0.42714 0.55604 0.37951 0.0
C687 C 0.51458 0.61571 0.35343 0.0
C688 C 0.31667 0.21091 0.12648 0.0
C689 C 0.34678 0.21996 0.10691 0.0
H690 H 0.28532 0.23622 0.15938 0.0
C691 C 0.36217 0.26495 0.1034 0.0
H692 H 0.30397 0.17675 0.12974 0.0
C693 C 0.35055 0.29922 0.12025 0.0
C694 C 0.32338 0.28898 0.14076 0.0
H695 H 0.38534 0.2731 0.08853 0.0
H696 H 0.36556 0.3328 0.11828 0.0
C697 C 0.30553 0.24498 0.14338 0.0
C698 C 0.44903 0.60334 0.87003 0.0
C699 C 0.45904 0.57556 0.89035 0.0
H700 H 0.47539 0.63855 0.8385 0.0
C701 C 0.50281 0.55717 0.89281 0.0
H702 H 0.41565 0.61877 0.86819 0.0
C703 C 0.53691 0.56833 0.87595 0.0
C704 C 0.52812 0.59897 0.85657 0.0
H705 H 0.51139 0.53647 0.90866 0.0
H706 H 0.5709 0.55515 0.87909 0.0
C707 C 0.48333 0.61495 0.85321 0.0
C708 C 0.19223 0.75506 0.64355 0.0
C709 C 0.17462 0.71101 0.64073 0.0
H710 H 0.19377 0.8234 0.63009 0.0
C711 C 0.14788 0.7008 0.62004 0.0
H712 H 0.21213 0.76379 0.65967 0.0
C713 C 0.1364 0.73517 0.60322 0.0
C714 C 0.15154 0.7802 0.60692 0.0
H715 H 0.13306 0.66717 0.61791 0.0
H716 H 0.11353 0.72704 0.58821 0.0
C717 C 0.18127 0.78922 0.62667 0.0
C718 C 0.99578 0.44189 0.39346 0.0
C719 C 0.0397 0.42403 0.3907 0.0
H720 H 0.92753 0.44368 0.37996 0.0
C721 C 0.04973 0.39687 0.37014 0.0
H722 H 0.98718 0.46211 0.4095 0.0
C723 C 0.01533 0.38536 0.35334 0.0
C724 C 0.97045 0.40088 0.35695 0.0
H725 H 0.08326 0.38186 0.36806 0.0
H726 H 0.02333 0.36227 0.3384 0.0
C727 C 0.9616 0.43088 0.37662 0.0
C728 C 0.34987 0.70152 0.41255 0.0
C729 C 0.32286 0.71154 0.39194 0.0
H730 H 0.38439 0.72797 0.44428 0.0
C731 C 0.30506 0.75551 0.38913 0.0
H732 H 0.36484 0.66796 0.41467 0.0
C733 C 0.31607 0.78977 0.40596 0.0
C734 C 0.34599 0.78092 0.42564 0.0
H735 H 0.28497 0.7641 0.37306 0.0
H736 H 0.3034 0.8239 0.40255 0.0
C737 C 0.36136 0.73597 0.42933 0.0
C738 C 0.9972 0.55781 0.14141 0.0
C739 C 0.04027 0.57808 0.14306 0.0
H740 H 0.9296 0.55431 0.15578 0.0
C741 C 0.04974 0.60778 0.16265 0.0
H742 H 0.98899 0.5356 0.1261 0.0
C743 C 0.01553 0.6193 0.17954 0.0
C744 C 0.9713 0.6014 0.17693 0.0
H745 H 0.08254 0.62464 0.16384 0.0
H746 H 0.02298 0.6443 0.19365 0.0
C747 C 0.96315 0.56898 0.15831 0.0
C748 C 0.14852 0.29841 0.91226 0.0
C749 C 0.17596 0.28847 0.8918 0.0
H750 H 0.11365 0.27189 0.94384 0.0
C751 C 0.19413 0.24461 0.88915 0.0
H752 H 0.13326 0.33187 0.91424 0.0
C753 C 0.18306 0.21036 0.90596 0.0
C754 C 0.15274 0.21911 0.92548 0.0
H755 H 0.21455 0.23608 0.87319 0.0
H756 H 0.19602 0.1763 0.90267 0.0
C757 C 0.137 0.26397 0.92902 0.0
C758 C 0.50058 0.44429 0.64274 0.0
C759 C 0.45845 0.42194 0.64342 0.0
H760 H 0.5676 0.44933 0.65783 0.0
C761 C 0.44981 0.39005 0.6621 0.0
H762 H 0.50819 0.46824 0.62812 0.0
C763 C 0.48396 0.37859 0.67901 0.0
C764 C 0.52742 0.3986 0.67728 0.0
H765 H 0.4178 0.37162 0.66251 0.0
H766 H 0.47724 0.35198 0.69234 0.0
C767 C 0.53465 0.43301 0.65962 0.0
C768 C 0.233 0.28041 0.2497 0.0
C769 C 0.28027 0.27279 0.25162 0.0
H770 H 0.16626 0.26416 0.26303 0.0
C771 C 0.29619 0.24188 0.26936 0.0
H772 H 0.21949 0.30414 0.23628 0.0
C773 C 0.26557 0.21909 0.28478 0.0
C774 C 0.21829 0.22667 0.28282 0.0
H775 H 0.33232 0.23534 0.27142 0.0
H776 H 0.27906 0.19533 0.29818 0.0
C777 C 0.20239 0.25764 0.26511 0.0
C778 C 0.99108 0.95222 0.51419 0.0
C779 C 0.02168 0.96862 0.53195 0.0
H780 H 0.9447 0.96862 0.48519 0.0
C781 C 0.02881 0.01603 0.53378 0.0
H782 H 0.98493 0.91597 0.51221 0.0
C783 C 0.00591 0.04631 0.51821 0.0
C784 C 0.97532 0.0299 0.50044 0.0
H785 H 0.05228 0.02992 0.54721 0.0
H786 H 0.01207 0.08255 0.52019 0.0
C787 C 0.96817 0.98249 0.49862 0.0
C788 C 0.20338 0.75809 0.76909 0.0
C789 C 0.21902 0.72706 0.75133 0.0
H790 H 0.2209 0.80462 0.79784 0.0
C791 C 0.26624 0.71924 0.74929 0.0
H792 H 0.16729 0.76478 0.77123 0.0
C793 C 0.29708 0.74195 0.76463 0.0
C794 C 0.28143 0.77302 0.78236 0.0
H795 H 0.27953 0.69542 0.73586 0.0
H796 H 0.33317 0.7353 0.76248 0.0
C797 C 0.2342 0.78079 0.78442 0.0
C798 C 0.46946 0.9843 0.03362 0.0
C799 C 0.47687 0.03167 0.03187 0.0
H800 H 0.48587 0.91774 0.02 0.0
C801 C 0.50766 0.04796 1.01417 0.0
H802 H 0.44583 0.9705 0.04699 0.0
C803 C 0.5305 0.01759 0.99861 0.0
C804 C 0.52306 0.97022 1.00038 0.0
H805 H 0.51402 0.08418 1.01225 0.0
H806 H 0.55414 0.03134 0.98524 0.0
C807 C 0.49226 0.95395 0.01806 0.0
C808 C 0.29645 0.75756 0.26333 0.0
C809 C 0.28042 0.72667 0.28106 0.0
H810 H 0.27947 0.80416 0.23451 0.0
C811 C 0.23313 0.7191 0.28293 0.0
H812 H 0.33259 0.76405 0.26133 0.0
C813 C 0.2026 0.74193 0.26748 0.0
C814 C 0.21861 0.77291 0.2498 0.0
H815 H 0.21954 0.69539 0.29632 0.0
H816 H 0.16646 0.73547 0.26952 0.0
C817 C 0.2659 0.78041 0.24789 0.0
C818 C 0.50624 0.95321 0.51831 0.0
C819 C 0.4755 0.96962 0.50063 0.0
H820 H 0.55285 0.96958 0.5472 0.0
C821 C 0.46832 0.01703 0.49885 0.0
H822 H 0.51243 0.91696 0.52024 0.0
C823 C 0.49134 0.0473 0.51438 0.0
C824 C 0.5221 0.03088 0.53206 0.0
H825 H 0.44473 0.03091 0.48548 0.0
H826 H 0.48516 0.08354 0.51244 0.0
C827 C 0.52926 0.98347 0.53384 0.0
C828 C 0.20259 0.2422 0.76319 0.0
C829 C 0.21855 0.27311 0.78093 0.0
H830 H 0.21971 0.19555 0.73439 0.0
C831 C 0.26583 0.28066 0.78287 0.0
H832 H 0.16646 0.23571 0.76113 0.0
C833 C 0.29642 0.25781 0.76748 0.0
C834 C 0.28049 0.22682 0.74977 0.0
H835 H 0.27937 0.30438 0.79628 0.0
H836 H 0.33256 0.26428 0.76957 0.0
C837 C 0.23321 0.21932 0.74779 0.0
C838 C 0.03034 0.98292 0.99853 0.0
C839 C 0.02313 0.03033 1.00027 0.0
H840 H 0.01359 0.91644 1.01217 0.0
C841 C 0.99235 0.04677 0.01793 0.0
H842 H 0.05396 0.96902 0.98518 0.0
C843 C 0.96936 0.01654 0.03348 0.0
C844 C 0.97659 0.96913 0.03174 0.0
H845 H 0.98612 0.08301 0.01984 0.0
H846 H 0.94575 0.03045 0.04683 0.0
C847 C 0.00735 0.95269 1.01408 0.0
C848 C 0.79508 0.74233 0.76769 0.0
C849 C 0.77912 0.7733 0.74999 0.0
H850 H 0.77812 0.69586 0.79653 0.0
C851 C 0.73185 0.78093 0.7481 0.0
H852 H 0.83122 0.73577 0.76972 0.0
C853 C 0.70127 0.75815 0.76356 0.0
C854 C 0.71726 0.72722 0.78127 0.0
H855 H 0.71833 0.80469 0.7347 0.0
H856 H 0.66513 0.76469 0.76155 0.0
C857 C 0.76454 0.71959 0.78314 0.0
C858 C 0.70323 0.25945 0.26721 0.0
C859 C 0.71911 0.22835 0.24955 0.0
H860 H 0.72035 0.30605 0.29599 0.0
C861 C 0.76638 0.22076 0.24759 0.0
H862 H 0.66711 0.26599 0.26929 0.0
C863 C 0.79703 0.24363 0.26298 0.0
C864 C 0.78112 0.27459 0.2807 0.0
H865 H 0.77984 0.19692 0.23422 0.0
H866 H 0.83316 0.23705 0.26095 0.0
C867 C 0.73386 0.28227 0.2826 0.0
C868 C 0.79718 0.25792 0.76511 0.0
C869 C 0.78147 0.22684 0.78282 0.0
H870 H 0.77974 0.30443 0.73633 0.0
C871 C 0.73423 0.21911 0.78485 0.0
H872 H 0.83328 0.26455 0.76299 0.0
C873 C 0.70346 0.24182 0.76949 0.0
C874 C 0.71917 0.27282 0.75174 0.0
H875 H 0.72088 0.19527 0.79825 0.0
H876 H 0.66736 0.23514 0.7716 0.0
C877 C 0.7664 0.28063 0.74976 0.0
C878 C 0.70272 0.74397 0.26487 0.0
C879 C 0.71846 0.77496 0.28262 0.0
H880 H 0.72006 0.69742 0.23609 0.0
C881 C 0.76571 0.78263 0.28466 0.0
H882 H 0.66661 0.73738 0.26272 0.0
C883 C 0.79647 0.75984 0.26931 0.0
C884 C 0.78071 0.72885 0.25156 0.0
H885 H 0.77908 0.80642 0.29809 0.0
H886 H 0.83258 0.76641 0.27144 0.0
C887 C 0.73346 0.7212 0.24952 0.0
C888 C 0.52919 0.51523 0.03404 0.0
C889 C 0.52157 0.46795 0.03187 0.0
H890 H 0.51297 0.58225 0.021 0.0
C891 C 0.49057 0.45232 1.01411 0.0
H892 H 0.55296 0.52852 0.04749 0.0
C893 C 0.46777 0.48322 0.99885 0.0
C894 C 0.47543 0.53049 1.001 0.0
H895 H 0.48401 0.41619 1.01188 0.0
H896 H 0.44401 0.46993 0.98539 0.0
C897 C 0.5064 0.54613 0.01878 0.0
C898 C 0.03252 0.51698 0.49933 0.0
C899 C 0.02488 0.4697 0.50142 0.0
H900 H 0.01624 0.58398 0.51244 0.0
C901 C 0.99405 0.454 0.51925 0.0
H902 H 0.0562 0.53031 0.48584 0.0
C903 C 0.97131 0.48483 0.53456 0.0
C904 C 0.97883 0.53212 0.53242 0.0
H905 H 0.98751 0.41786 0.52144 0.0
H906 H 0.9476 0.47146 0.54801 0.0
C907 C 0.00977 0.54783 0.51464 0.0
C908 C 0.99064 0.54701 1.01453 0.0
C909 C 0.02162 0.5315 0.03233 0.0
H910 H 0.94429 0.52921 0.98574 0.0
C911 C 0.02938 0.48425 0.03451 0.0
H912 H 0.984 0.58311 1.01228 0.0
C913 C 0.00676 0.45326 0.01923 0.0
C914 C 0.97584 0.46877 1.00139 0.0
H915 H 0.05314 0.47105 0.04799 0.0
H916 H 0.01344 0.41716 0.02146 0.0
C917 C 0.96803 0.51602 0.99924 0.0
C918 C 0.49403 0.54645 0.51925 0.0
C919 C 0.52474 0.5307 0.50137 0.0
H920 H 0.44774 0.52902 0.5481 0.0
C921 C 0.53233 0.48341 0.49926 0.0
H922 H 0.48753 0.58259 0.52145 0.0
C923 C 0.50966 0.4526 0.51462 0.0
C924 C 0.47885 0.46834 0.53245 0.0
H925 H 0.55591 0.47004 0.48574 0.0
H926 H 0.5161 0.41645 0.5124 0.0
C927 C 0.47136 0.51565 0.5346 0.0
C928 C 0.21679 0.01534 0.27642 0.0
C929 C 0.17532 0.03109 0.28614 0.0
H930 H 0.24902 0.97258 0.2493 0.0
C931 C 0.13417 0.01544 0.27612 0.0
H932 H 0.2489 0.02759 0.28369 0.0
C933 C 0.13423 0.98403 0.25695 0.0
C934 C 0.17545 0.96864 0.2469 0.0
H935 H 0.10179 0.02738 0.28324 0.0
H936 H 0.1019 0.97192 0.24985 0.0
C937 C 0.21686 0.98463 0.25661 0.0
C938 C 0.23315 0.96954 0.52625 0.0
C939 C 0.21731 0.928 0.53589 0.0
H940 H 0.27603 0.0019 0.49925 0.0
C941 C 0.2329 0.88685 0.5258 0.0
H942 H 0.22096 0.00166 0.53359 0.0
C943 C 0.26428 0.88698 0.50664 0.0
C944 C 0.2798 0.92827 0.49669 0.0
H945 H 0.22092 0.85441 0.53284 0.0
H946 H 0.27633 0.85464 0.49949 0.0
C947 C 0.26389 0.96968 0.50647 0.0
C948 C 0.36556 0.01523 0.75621 0.0
C949 C 0.32427 0.03104 0.74644 0.0
H950 H 0.39819 0.97152 0.78225 0.0
C951 C 0.28294 0.01537 0.75636 0.0
H952 H 0.39784 0.02713 0.74893 0.0
C953 C 0.28315 0.98459 0.77613 0.0
C954 C 0.32469 0.96844 0.78559 0.0
H955 H 0.25073 0.02775 0.74928 0.0
H956 H 0.25109 0.97262 0.7836 0.0
C957 C 0.36577 0.98375 0.77533 0.0
C958 C 0.26543 0.11334 0.02591 0.0
C959 C 0.2813 0.07219 0.03586 0.0
H960 H 0.22179 0.14554 0.99971 0.0
C961 C 0.26576 0.03064 0.02607 0.0
H962 H 0.27719 0.14578 0.03308 0.0
C963 C 0.23503 0.03051 1.00628 0.0
C964 C 0.21883 0.07192 0.99664 0.0
H965 H 0.27819 0.99853 0.03329 0.0
H966 H 0.22314 0.99829 0.99893 0.0
C967 C 0.23404 0.1132 1.00675 0.0
C968 C 0.78281 0.01509 0.77633 0.0
C969 C 0.82444 0.03142 0.78559 0.0
H970 H 0.7501 0.9718 0.74963 0.0
C971 C 0.8654 0.01635 0.77508 0.0
H972 H 0.75083 0.02687 0.78399 0.0
C973 C 0.86499 0.9849 0.75593 0.0
C974 C 0.8236 0.9689 0.74638 0.0
H975 H 0.89789 0.0287 0.78184 0.0
H976 H 0.89718 0.97315 0.74848 0.0
C977 C 0.78237 0.98435 0.75654 0.0
C978 C 0.73258 0.11282 0.52511 0.0
C979 C 0.7176 0.0717 0.53552 0.0
H980 H 0.77546 0.14497 0.49852 0.0
C981 C 0.73387 0.03015 0.52608 0.0
H982 H 0.72029 0.14527 0.53199 0.0
C983 C 0.76446 0.02996 0.50623 0.0
C984 C 0.77979 0.07134 0.49617 0.0
H985 H 0.72216 0.99804 0.53365 0.0
H986 H 0.77699 0.99774 0.4992 0.0
C987 C 0.76382 0.11265 0.50589 0.0
C988 C 0.71621 0.01605 0.25671 0.0
C989 C 0.67481 0.03279 0.24737 0.0
H990 H 0.74829 0.97248 0.28349 0.0
C991 C 0.63363 0.01823 0.25784 0.0
H992 H 0.74836 0.02741 0.24908 0.0
C993 C 0.63359 0.98685 0.27702 0.0
C994 C 0.67475 0.97042 0.28663 0.0
H995 H 0.60131 0.03089 0.25101 0.0
H996 H 0.60123 0.97546 0.28442 0.0
C997 C 0.71619 0.98538 0.27653 0.0
C998 C 0.73296 0.88637 1.00739 0.0
C999 C 0.7183 0.92747 0.99684 0.0
H1000 H 0.77579 0.85421 0.03402 0.0
C1001 C 0.73506 0.96901 1.00605 0.0
H1002 H 0.72029 0.85394 1.00068 0.0
C1003 C 0.76581 0.9692 0.02583 0.0
C1004 C 0.78083 0.92782 0.03604 0.0
H1005 H 0.72362 0.00111 0.99836 0.0
H1006 H 0.7787 0.0014 0.0327 0.0
C1007 C 0.76439 0.88652 0.02654 0.0
C1008 C 0.63389 0.48332 0.75732 0.0
C1009 C 0.67503 0.46807 0.7471 0.0
H1010 H 0.60161 0.52698 0.78352 0.0
C1011 C 0.71648 0.48469 0.75643 0.0
H1012 H 0.60152 0.47073 0.7505 0.0
C1013 C 0.71656 0.51585 0.77603 0.0
C1014 C 0.67516 0.53144 0.78593 0.0
H1015 H 0.7486 0.47279 0.749 0.0
H1016 H 0.74871 0.52858 0.78302 0.0
C1017 C 0.63394 0.51518 0.77627 0.0
C1018 C 0.76446 0.38294 1.00643 0.0
C1019 C 0.78055 0.42419 0.99671 0.0
H1020 H 0.72017 0.35052 0.03226 0.0
C1021 C 0.76475 0.46564 1.00648 0.0
H1022 H 0.77645 0.35058 0.99928 0.0
C1023 C 0.73359 0.46559 0.02606 0.0
C1024 C 0.71717 0.42411 0.03549 0.0
H1025 H 0.77734 0.49782 0.99944 0.0
H1026 H 0.72155 0.49775 0.03342 0.0
C1027 C 0.73259 0.38291 0.02537 0.0
C1028 C 0.78232 0.48516 0.27633 0.0
C1029 C 0.82363 0.4702 0.2866 0.0
H1030 H 0.75048 0.52761 0.24896 0.0
C1031 C 0.86489 0.48711 0.27735 0.0
H1032 H 0.75015 0.4719 0.283 0.0
C1033 C 0.86506 0.51891 0.25837 0.0
C1034 C 0.82403 0.53347 0.24773 0.0
H1035 H 0.89715 0.47573 0.28488 0.0
H1036 H 0.89746 0.53189 0.25183 0.0
C1037 C 0.78254 0.51628 0.25671 0.0
C1038 C 0.73477 0.53294 0.50632 0.0
C1039 C 0.72021 0.57423 0.49582 0.0
H1040 H 0.77677 0.50122 0.53394 0.0
C1041 C 0.73747 0.61554 0.50485 0.0
H1042 H 0.72121 0.50075 0.49983 0.0
C1043 C 0.76918 0.61579 0.52386 0.0
C1044 C 0.78331 0.5748 0.53476 0.0
H1045 H 0.72638 0.64779 0.49715 0.0
H1046 H 0.78237 0.64824 0.53026 0.0
C1047 C 0.7658 0.53325 0.52597 0.0
C1048 C 0.28169 0.51551 0.27625 0.0
C1049 C 0.32306 0.53117 0.28615 0.0
H1050 H 0.24972 0.47255 0.24914 0.0
C1051 C 0.36431 0.5151 0.27645 0.0
H1052 H 0.24951 0.5281 0.28327 0.0
C1053 C 0.36442 0.48339 0.25741 0.0
C1054 C 0.32331 0.46811 0.24717 0.0
H1055 H 0.39662 0.52698 0.2837 0.0
H1056 H 0.39681 0.47098 0.25055 0.0
C1057 C 0.28182 0.4845 0.25658 0.0
C1058 C 0.26363 0.61636 1.00612 0.0
C1059 C 0.27993 0.57501 0.99661 0.0
H1060 H 0.21936 0.64906 0.03186 0.0
C1061 C 0.26451 0.53368 1.00669 0.0
H1062 H 0.27535 0.64864 0.99873 0.0
C1063 C 0.23352 0.53394 0.02635 0.0
C1064 C 0.2169 0.57552 0.03556 0.0
H1065 H 0.27729 0.50143 0.99982 0.0
H1066 H 0.2218 0.50187 0.03395 0.0
C1067 C 0.23193 0.6166 0.02513 0.0
C1068 C 0.21677 0.48392 0.77578 0.0
C1069 C 0.17555 0.46885 0.7861 0.0
H1070 H 0.24837 0.52643 0.74836 0.0
C1071 C 0.13419 0.48557 0.77686 0.0
H1072 H 0.24901 0.47082 0.78244 0.0
C1073 C 0.13385 0.51733 0.75786 0.0
C1074 C 0.1748 0.53201 0.74719 0.0
H1075 H 0.10199 0.47412 0.78444 0.0
H1076 H 0.10139 0.53021 0.75134 0.0
C1077 C 0.21638 0.51498 0.75614 0.0
C1078 C 0.2368 0.38418 0.50573 0.0
C1079 C 0.22022 0.42547 0.49631 0.0
H1080 H 0.28126 0.35163 0.53142 0.0
C1081 C 0.23543 0.46686 0.50643 0.0
H1082 H 0.22524 0.35187 0.49831 0.0
C1083 C 0.26646 0.46669 0.52608 0.0
C1084 C 0.28332 0.42517 0.53523 0.0
H1085 H 0.22241 0.49905 0.49963 0.0
H1086 H 0.27798 0.4988 0.53373 0.0
C1087 C 0.26853 0.38405 0.52474 0.0
loop_
_geom_bond_atom_site_label_1
_geom_bond_atom_site_label_2
_geom_bond_distance
_geom_bond_site_symmetry_2
_ccdc_geom_bond_type
C0 O2 1.247 . S
C0 O4 1.258 . S
C1 O8 1.247 . S
C1 O9 1.258 . S
O2 C0 1.247 . S
O2 Zn3 2.028 . S
Zn3 O2 2.028 . S
Zn3 O7 2.035 . S
Zn3 O9 2.035 . S
Zn3 O10 2.028 . S
O4 C0 1.258 . S
O4 Zn5 2.035 . S
Zn5 O4 2.035 . S
Zn5 O6 2.028 . S
Zn5 O8 2.028 . S
Zn5 O11 2.035 . S
O6 Zn5 2.028 . S
O6 C12 1.247 . S
O7 Zn3 2.035 . S
O7 C12 1.258 . S
O8 C1 1.247 . S
O8 Zn5 2.028 . S
O9 C1 1.258 . S
O9 Zn3 2.035 . S
O10 Zn3 2.028 . S
O10 C13 1.247 . S
O11 Zn5 2.035 . S
O11 C13 1.258 . S
C12 O6 1.247 . S
C12 O7 1.258 . S
C13 O10 1.247 . S
C13 O11 1.258 . S
C14 O16 1.247 1_565 S
C14 O18 1.258 . S
C15 O22 1.247 . S
C15 O23 1.258 . S
O16 C14 1.247 1_545 S
O16 Zn17 2.028 1_545 S
Zn17 O16 2.028 1_565 S
Zn17 O21 2.035 . S
Zn17 O23 2.035 . S
Zn17 O24 2.028 . S
O18 C14 1.258 . S
O18 Zn19 2.035 . S
Zn19 O18 2.035 . S
Zn19 O20 2.028 . S
Zn19 O22 2.028 . S
Zn19 O25 2.035 . S
O20 Zn19 2.028 . S
O20 C26 1.247 . S
O21 Zn17 2.035 . S
O21 C26 1.258 . S
O22 C15 1.247 . S
O22 Zn19 2.028 . S
O23 C15 1.258 . S
O23 Zn17 2.035 . S
O24 Zn17 2.028 . S
O24 C27 1.247 . S
O25 Zn19 2.035 . S
O25 C27 1.258 . S
C26 O20 1.247 . S
C26 O21 1.258 . S
C27 O24 1.247 . S
C27 O25 1.258 . S
C28 O30 1.247 . S
C28 O32 1.258 . S
C29 O36 1.247 . S
C29 O37 1.258 . S
O30 C28 1.247 . S
O30 Zn31 2.028 . S
Zn31 O30 2.028 . S
Zn31 O35 2.035 . S
Zn31 O37 2.035 . S
Zn31 O38 2.028 . S
O32 C28 1.258 . S
O32 Zn33 2.035 . S
Zn33 O32 2.035 . S
Zn33 O34 2.028 . S
Zn33 O36 2.028 . S
Zn33 O39 2.035 . S
O34 Zn33 2.028 . S
O34 C40 1.247 . S
O35 Zn31 2.035 . S
O35 C40 1.258 . S
O36 C29 1.247 . S
O36 Zn33 2.028 . S
O37 C29 1.258 . S
O37 Zn31 2.035 . S
O38 Zn31 2.028 . S
O38 C41 1.247 . S
O39 Zn33 2.035 . S
O39 C41 1.258 . S
C40 O34 1.247 . S
C40 O35 1.258 . S
C41 O38 1.247 . S
C41 O39 1.258 . S
C42 O44 1.247 . S
C42 O46 1.258 . S
C43 O50 1.247 . S
C43 O51 1.258 . S
O44 C42 1.247 . S
O44 Zn45 2.028 . S
Zn45 O44 2.028 . S
Zn45 O49 2.035 . S
Zn45 O51 2.035 . S
Zn45 O52 2.028 . S
O46 C42 1.258 . S
O46 Zn47 2.035 . S
Zn47 O46 2.035 . S
Zn47 O48 2.028 1_545 S
Zn47 O50 2.028 . S
Zn47 O53 2.035 . S
O48 Zn47 2.028 1_565 S
O48 C54 1.247 1_565 S
O49 Zn45 2.035 . S
O49 C54 1.258 . S
O50 C43 1.247 . S
O50 Zn47 2.028 . S
O51 C43 1.258 . S
O51 Zn45 2.035 . S
O52 Zn45 2.028 . S
O52 C55 1.247 . S
O53 Zn47 2.035 . S
O53 C55 1.258 . S
C54 O48 1.247 1_545 S
C54 O49 1.258 . S
C55 O52 1.247 . S
C55 O53 1.258 . S
C56 O58 1.247 . S
C56 O60 1.258 . S
C57 O64 1.247 . S
C57 O65 1.258 . S
O58 C56 1.247 . S
O58 Zn59 2.028 . S
Zn59 O58 2.028 . S
Zn59 O63 2.035 . S
Zn59 O65 2.035 . S
Zn59 O66 2.028 . S
O60 C56 1.258 . S
O60 Zn61 2.035 . S
Zn61 O60 2.035 . S
Zn61 O62 2.028 . S
Zn61 O64 2.028 . S
Zn61 O67 2.035 . S
O62 Zn61 2.028 . S
O62 C68 1.247 . S
O63 Zn59 2.035 . S
O63 C68 1.258 . S
O64 C57 1.247 . S
O64 Zn61 2.028 . S
O65 C57 1.258 . S
O65 Zn59 2.035 . S
O66 Zn59 2.028 . S
O66 C69 1.247 . S
O67 Zn61 2.035 . S
O67 C69 1.258 . S
C68 O62 1.247 . S
C68 O63 1.258 . S
C69 O66 1.247 . S
C69 O67 1.258 . S
C70 O72 1.247 . S
C70 O74 1.258 . S
C71 O78 1.247 . S
C71 O79 1.258 . S
O72 C70 1.247 . S
O72 Zn73 2.028 . S
Zn73 O72 2.028 . S
Zn73 O77 2.035 . S
Zn73 O79 2.035 . S
Zn73 O80 2.028 . S
O74 C70 1.258 . S
O74 Zn75 2.035 . S
Zn75 O74 2.035 . S
Zn75 O76 2.028 . S
Zn75 O78 2.028 . S
Zn75 O81 2.035 1_565 S
O76 Zn75 2.028 . S
O76 C82 1.247 . S
O77 Zn73 2.035 . S
O77 C82 1.258 . S
O78 C71 1.247 . S
O78 Zn75 2.028 . S
O79 C71 1.258 . S
O79 Zn73 2.035 . S
O80 Zn73 2.028 . S
O80 C83 1.247 . S
O81 Zn75 2.035 1_545 S
O81 C83 1.258 1_545 S
C82 O76 1.247 . S
C82 O77 1.258 . S
C83 O80 1.247 . S
C83 O81 1.258 1_565 S
C84 O86 1.247 . S
C84 O88 1.258 . S
C85 O92 1.247 . S
C85 O93 1.258 . S
O86 C84 1.247 . S
O86 Zn87 2.028 . S
Zn87 O86 2.028 . S
Zn87 O91 2.035 . S
Zn87 O93 2.035 . S
Zn87 O94 2.028 . S
O88 C84 1.258 . S
O88 Zn89 2.035 . S
Zn89 O88 2.035 . S
Zn89 O90 2.028 . S
Zn89 O92 2.028 . S
Zn89 O95 2.035 . S
O90 Zn89 2.028 . S
O90 C96 1.247 . S
O91 Zn87 2.035 . S
O91 C96 1.258 . S
O92 C85 1.247 . S
O92 Zn89 2.028 . S
O93 C85 1.258 . S
O93 Zn87 2.035 . S
O94 Zn87 2.028 . S
O94 C97 1.247 . S
O95 Zn89 2.035 . S
O95 C97 1.258 . S
C96 O90 1.247 . S
C96 O91 1.258 . S
C97 O94 1.247 . S
C97 O95 1.258 . S
C98 O100 1.247 . S
C98 O102 1.258 . S
C99 O106 1.247 . S
C99 O107 1.258 1_545 S
O100 C98 1.247 . S
O100 Zn101 2.028 . S
Zn101 O100 2.028 . S
Zn101 O105 2.035 . S
Zn101 O107 2.035 1_545 S
Zn101 O108 2.028 . S
O102 C98 1.258 . S
O102 Zn103 2.035 . S
Zn103 O102 2.035 . S
Zn103 O104 2.028 . S
Zn103 O106 2.028 . S
Zn103 O109 2.035 . S
O104 Zn103 2.028 . S
O104 C110 1.247 . S
O105 Zn101 2.035 . S
O105 C110 1.258 . S
O106 C99 1.247 . S
O106 Zn103 2.028 . S
O107 C99 1.258 1_565 S
O107 Zn101 2.035 1_565 S
O108 Zn101 2.028 . S
O108 C111 1.247 . S
O109 Zn103 2.035 . S
O109 C111 1.258 . S
C110 O104 1.247 . S
C110 O105 1.258 . S
C111 O108 1.247 . S
C111 O109 1.258 . S
C112 O114 1.247 . S
C112 O116 1.258 . S
C113 O120 1.247 . S
C113 O121 1.258 . S
O114 C112 1.247 . S
O114 Zn115 2.028 . S
Zn115 O114 2.028 . S
Zn115 O119 2.035 . S
Zn115 O121 2.035 . S
Zn115 O122 2.028 . S
O116 C112 1.258 . S
O116 Zn117 2.035 . S
Zn117 O116 2.035 . S
Zn117 O118 2.028 . S
Zn117 O120 2.028 . S
Zn117 O123 2.035 . S
O118 Zn117 2.028 . S
O118 C124 1.247 . S
O119 Zn115 2.035 . S
O119 C124 1.258 . S
O120 C113 1.247 . S
O120 Zn117 2.028 . S
O121 C113 1.258 . S
O121 Zn115 2.035 . S
O122 Zn115 2.028 . S
O122 C125 1.247 . S
O123 Zn117 2.035 . S
O123 C125 1.258 . S
C124 O118 1.247 . S
C124 O119 1.258 . S
C125 O122 1.247 . S
C125 O123 1.258 . S
C126 O128 1.247 . S
C126 O130 1.258 . S
C127 O134 1.247 1_545 S
C127 O135 1.258 . S
O128 C126 1.247 . S
O128 Zn129 2.028 . S
Zn129 O128 2.028 . S
Zn129 O133 2.035 . S
Zn129 O135 2.035 . S
Zn129 O136 2.028 . S
O130 C126 1.258 . S
O130 Zn131 2.035 . S
Zn131 O130 2.035 . S
Zn131 O132 2.028 . S
Zn131 O134 2.028 1_545 S
Zn131 O137 2.035 . S
O132 Zn131 2.028 . S
O132 C138 1.247 . S
O133 Zn129 2.035 . S
O133 C138 1.258 . S
O134 C127 1.247 1_565 S
O134 Zn131 2.028 1_565 S
O135 C127 1.258 . S
O135 Zn129 2.035 . S
O136 Zn129 2.028 . S
O136 C139 1.247 . S
O137 Zn131 2.035 . S
O137 C139 1.258 . S
C138 O132 1.247 . S
C138 O133 1.258 . S
C139 O136 1.247 . S
C139 O137 1.258 . S
C140 O142 1.247 . S
C140 O144 1.258 . S
C141 O148 1.247 . S
C141 O149 1.258 . S
O142 C140 1.247 . S
O142 Zn143 2.028 . S
Zn143 O142 2.028 . S
Zn143 O147 2.035 . S
Zn143 O149 2.035 . S
Zn143 O150 2.028 . S
O144 C140 1.258 . S
O144 Zn145 2.035 . S
Zn145 O144 2.035 . S
Zn145 O146 2.028 . S
Zn145 O148 2.028 . S
Zn145 O151 2.035 . S
O146 Zn145 2.028 . S
O146 C152 1.247 . S
O147 Zn143 2.035 . S
O147 C152 1.258 . S
O148 C141 1.247 . S
O148 Zn145 2.028 . S
O149 C141 1.258 . S
O149 Zn143 2.035 . S
O150 Zn143 2.028 . S
O150 C153 1.247 . S
O151 Zn145 2.035 . S
O151 C153 1.258 . S
C152 O146 1.247 . S
C152 O147 1.258 . S
C153 O150 1.247 . S
C153 O151 1.258 . S
C154 O156 1.247 . S
C154 O158 1.258 1_565 S
C155 O162 1.247 . S
C155 O163 1.258 . S
O156 C154 1.247 . S
O156 Zn157 2.028 . S
Zn157 O156 2.028 . S
Zn157 O161 2.035 . S
Zn157 O163 2.035 . S
Zn157 O164 2.028 . S
O158 C154 1.258 1_545 S
O158 Zn159 2.035 1_545 S
Zn159 O158 2.035 1_565 S
Zn159 O160 2.028 . S
Zn159 O162 2.028 . S
Zn159 O165 2.035 . S
O160 Zn159 2.028 . S
O160 C166 1.247 . S
O161 Zn157 2.035 . S
O161 C166 1.258 . S
O162 C155 1.247 . S
O162 Zn159 2.028 . S
O163 C155 1.258 . S
O163 Zn157 2.035 . S
O164 Zn157 2.028 . S
O164 C167 1.247 . S
O165 Zn159 2.035 . S
O165 C167 1.258 . S
C166 O160 1.247 . S
C166 O161 1.258 . S
C167 O164 1.247 . S
C167 O165 1.258 . S
C168 O170 1.247 . S
C168 O172 1.258 . S
C169 O176 1.247 . S
C169 O177 1.258 . S
O170 C168 1.247 . S
O170 Zn171 2.028 . S
Zn171 O170 2.028 . S
Zn171 O175 2.035 . S
Zn171 O177 2.035 . S
Zn171 O178 2.028 . S
O172 C168 1.258 . S
O172 Zn173 2.035 . S
Zn173 O172 2.035 . S
Zn173 O174 2.028 . S
Zn173 O176 2.028 . S
Zn173 O179 2.035 . S
O174 Zn173 2.028 . S
O174 C180 1.247 . S
O175 Zn171 2.035 . S
O175 C180 1.258 . S
O176 C169 1.247 . S
O176 Zn173 2.028 . S
O177 C169 1.258 . S
O177 Zn171 2.035 . S
O178 Zn171 2.028 . S
O178 C181 1.247 . S
O179 Zn173 2.035 . S
O179 C181 1.258 . S
C180 O174 1.247 . S
C180 O175 1.258 . S
C181 O178 1.247 . S
C181 O179 1.258 . S
C182 O184 1.247 . S
C182 O186 1.258 . S
C183 O190 1.247 . S
C183 O191 1.258 . S
O184 C182 1.247 . S
O184 Zn185 2.028 . S
Zn185 O184 2.028 . S
Zn185 O189 2.035 1_545 S
Zn185 O191 2.035 . S
Zn185 O192 2.028 . S
O186 C182 1.258 . S
O186 Zn187 2.035 . S
Zn187 O186 2.035 . S
Zn187 O188 2.028 . S
Zn187 O190 2.028 . S
Zn187 O193 2.035 . S
O188 Zn187 2.028 . S
O188 C194 1.247 . S
O189 Zn185 2.035 1_565 S
O189 C194 1.258 1_565 S
O190 C183 1.247 . S
O190 Zn187 2.028 . S
O191 C183 1.258 . S
O191 Zn185 2.035 . S
O192 Zn185 2.028 . S
O192 C195 1.247 . S
O193 Zn187 2.035 . S
O193 C195 1.258 . S
C194 O188 1.247 . S
C194 O189 1.258 1_545 S
C195 O192 1.247 . S
C195 O193 1.258 . S
C196 O198 1.247 . S
C196 O200 1.258 . S
C197 O204 1.247 . S
C197 O205 1.258 . S
O198 C196 1.247 . S
O198 Zn199 2.028 . S
Zn199 O198 2.028 . S
Zn199 O203 2.035 . S
Zn199 O205 2.035 . S
Zn199 O206 2.028 . S
O200 C196 1.258 . S
O200 Zn201 2.035 . S
Zn201 O200 2.035 . S
Zn201 O202 2.028 . S
Zn201 O204 2.028 . S
Zn201 O207 2.035 . S
O202 Zn201 2.028 . S
O202 C208 1.247 . S
O203 Zn199 2.035 . S
O203 C208 1.258 . S
O204 C197 1.247 . S
O204 Zn201 2.028 . S
O205 C197 1.258 . S
O205 Zn199 2.035 . S
O206 Zn199 2.028 . S
O206 C209 1.247 . S
O207 Zn201 2.035 . S
O207 C209 1.258 . S
C208 O202 1.247 . S
C208 O203 1.258 . S
C209 O206 1.247 . S
C209 O207 1.258 . S
C210 O212 1.247 . S
C210 O214 1.258 1_565 S
C211 O218 1.247 . S
C211 O219 1.258 . S
O212 C210 1.247 . S
O212 Zn213 2.028 . S
Zn213 O212 2.028 . S
Zn213 O217 2.035 . S
Zn213 O219 2.035 . S
Zn213 O220 2.028 . S
O214 C210 1.258 1_545 S
O214 Zn215 2.035 1_545 S
Zn215 O214 2.035 1_565 S
Zn215 O216 2.028 . S
Zn215 O218 2.028 . S
Zn215 O221 2.035 . S
O216 Zn215 2.028 . S
O216 C222 1.247 . S
O217 Zn213 2.035 . S
O217 C222 1.258 . S
O218 C211 1.247 . S
O218 Zn215 2.028 . S
O219 C211 1.258 . S
O219 Zn213 2.035 . S
O220 Zn213 2.028 . S
O220 C223 1.247 . S
O221 Zn215 2.035 . S
O221 C223 1.258 . S
C222 O216 1.247 . S
C222 O217 1.258 . S
C223 O220 1.247 . S
C223 O221 1.258 . S
C224 O226 1.247 . S
C224 O228 1.258 . S
C225 O232 1.247 . S
C225 O233 1.258 . S
O226 C224 1.247 . S
O226 Zn227 2.028 . S
Zn227 O226 2.028 . S
Zn227 O231 2.035 . S
Zn227 O233 2.035 . S
Zn227 O234 2.028 . S
O228 C224 1.258 . S
O228 Zn229 2.035 . S
Zn229 O228 2.035 . S
Zn229 O230 2.028 . S
Zn229 O232 2.028 . S
Zn229 O235 2.035 . S
O230 Zn229 2.028 . S
O230 C236 1.247 . S
O231 Zn227 2.035 . S
O231 C236 1.258 . S
O232 C225 1.247 . S
O232 Zn229 2.028 . S
O233 C225 1.258 . S
O233 Zn227 2.035 . S
O234 Zn227 2.028 . S
O234 C237 1.247 . S
O235 Zn229 2.035 . S
O235 C237 1.258 . S
C236 O230 1.247 . S
C236 O231 1.258 . S
C237 O234 1.247 . S
C237 O235 1.258 . S
C238 O240 1.247 . S
C238 O242 1.258 . S
C239 O246 1.247 . S
C239 O247 1.258 . S
O240 C238 1.247 . S
O240 Zn241 2.028 . S
Zn241 O240 2.028 . S
Zn241 O245 2.035 . S
Zn241 O247 2.035 . S
Zn241 O248 2.028 . S
O242 C238 1.258 . S
O242 Zn243 2.035 . S
Zn243 O242 2.035 . S
Zn243 O244 2.028 . S
Zn243 O246 2.028 . S
Zn243 O249 2.035 . S
O244 Zn243 2.028 . S
O244 C250 1.247 . S
O245 Zn241 2.035 . S
O245 C250 1.258 . S
O246 C239 1.247 . S
O246 Zn243 2.028 . S
O247 C239 1.258 . S
O247 Zn241 2.035 . S
O248 Zn241 2.028 . S
O248 C251 1.247 . S
O249 Zn243 2.035 . S
O249 C251 1.258 . S
C250 O244 1.247 . S
C250 O245 1.258 . S
C251 O248 1.247 . S
C251 O249 1.258 . S
C252 O254 1.247 . S
C252 O256 1.258 . S
C253 O260 1.247 . S
C253 O261 1.258 . S
O254 C252 1.247 . S
O254 Zn255 2.028 . S
Zn255 O254 2.028 . S
Zn255 O259 2.035 . S
Zn255 O261 2.035 . S
Zn255 O262 2.028 . S
O256 C252 1.258 . S
O256 Zn257 2.035 . S
Zn257 O256 2.035 . S
Zn257 O258 2.028 . S
Zn257 O260 2.028 . S
Zn257 O263 2.035 . S
O258 Zn257 2.028 . S
O258 C264 1.247 . S
O259 Zn255 2.035 . S
O259 C264 1.258 . S
O260 C253 1.247 . S
O260 Zn257 2.028 . S
O261 C253 1.258 . S
O261 Zn255 2.035 . S
O262 Zn255 2.028 . S
O262 C265 1.247 . S
O263 Zn257 2.035 . S
O263 C265 1.258 . S
C264 O258 1.247 . S
C264 O259 1.258 . S
C265 O262 1.247 . S
C265 O263 1.258 . S
C266 O268 1.247 . S
C266 O270 1.258 . S
C267 O274 1.247 . S
C267 O275 1.258 . S
O268 C266 1.247 . S
O268 Zn269 2.028 . S
Zn269 O268 2.028 . S
Zn269 O273 2.035 . S
Zn269 O275 2.035 . S
Zn269 O276 2.028 . S
O270 C266 1.258 . S
O270 Zn271 2.035 . S
Zn271 O270 2.035 . S
Zn271 O272 2.028 . S
Zn271 O274 2.028 . S
Zn271 O277 2.035 . S
O272 Zn271 2.028 . S
O272 C278 1.247 . S
O273 Zn269 2.035 . S
O273 C278 1.258 . S
O274 C267 1.247 . S
O274 Zn271 2.028 . S
O275 C267 1.258 . S
O275 Zn269 2.035 . S
O276 Zn269 2.028 . S
O276 C279 1.247 . S
O277 Zn271 2.035 . S
O277 C279 1.258 . S
C278 O272 1.247 . S
C278 O273 1.258 . S
C279 O276 1.247 . S
C279 O277 1.258 . S
C280 O282 1.247 . S
C280 O284 1.258 . S
C281 O288 1.247 . S
C281 O289 1.258 . S
O282 C280 1.247 . S
O282 Zn283 2.028 . S
Zn283 O282 2.028 . S
Zn283 O287 2.035 . S
Zn283 O289 2.035 . S
Zn283 O290 2.028 . S
O284 C280 1.258 . S
O284 Zn285 2.035 . S
Zn285 O284 2.035 . S
Zn285 O286 2.028 . S
Zn285 O288 2.028 . S
Zn285 O291 2.035 . S
O286 Zn285 2.028 . S
O286 C292 1.247 . S
O287 Zn283 2.035 . S
O287 C292 1.258 . S
O288 C281 1.247 . S
O288 Zn285 2.028 . S
O289 C281 1.258 . S
O289 Zn283 2.035 . S
O290 Zn283 2.028 . S
O290 C293 1.247 . S
O291 Zn285 2.035 . S
O291 C293 1.258 . S
C292 O286 1.247 . S
C292 O287 1.258 . S
C293 O290 1.247 . S
C293 O291 1.258 . S
C294 O296 1.247 . S
C294 O298 1.258 . S
C295 O302 1.247 . S
C295 O303 1.258 . S
O296 C294 1.247 . S
O296 Zn297 2.028 . S
Zn297 O296 2.028 . S
Zn297 O301 2.035 . S
Zn297 O303 2.035 . S
Zn297 O304 2.028 . S
O298 C294 1.258 . S
O298 Zn299 2.035 . S
Zn299 O298 2.035 . S
Zn299 O300 2.028 . S
Zn299 O302 2.028 . S
Zn299 O305 2.035 . S
O300 Zn299 2.028 . S
O300 C306 1.247 . S
O301 Zn297 2.035 . S
O301 C306 1.258 . S
O302 C295 1.247 . S
O302 Zn299 2.028 . S
O303 C295 1.258 . S
O303 Zn297 2.035 . S
O304 Zn297 2.028 . S
O304 C307 1.247 . S
O305 Zn299 2.035 . S
O305 C307 1.258 . S
C306 O300 1.247 . S
C306 O301 1.258 . S
C307 O304 1.247 . S
C307 O305 1.258 . S
C308 O310 1.247 . S
C308 O312 1.258 . S
C309 O316 1.247 . S
C309 O317 1.258 . S
O310 C308 1.247 . S
O310 Zn311 2.028 . S
Zn311 O310 2.028 . S
Zn311 O315 2.035 . S
Zn311 O317 2.035 . S
Zn311 O318 2.028 . S
O312 C308 1.258 . S
O312 Zn313 2.035 . S
Zn313 O312 2.035 . S
Zn313 O314 2.028 . S
Zn313 O316 2.028 . S
Zn313 O319 2.035 . S
O314 Zn313 2.028 . S
O314 C320 1.247 . S
O315 Zn311 2.035 . S
O315 C320 1.258 . S
O316 C309 1.247 . S
O316 Zn313 2.028 . S
O317 C309 1.258 . S
O317 Zn311 2.035 . S
O318 Zn311 2.028 . S
O318 C321 1.247 . S
O319 Zn313 2.035 . S
O319 C321 1.258 . S
C320 O314 1.247 . S
C320 O315 1.258 . S
C321 O318 1.247 . S
C321 O319 1.258 . S
C322 O324 1.247 . S
C322 O326 1.258 . S
C323 O330 1.247 . S
C323 O331 1.258 . S
O324 C322 1.247 . S
O324 Zn325 2.028 . S
Zn325 O324 2.028 . S
Zn325 O329 2.035 . S
Zn325 O331 2.035 . S
Zn325 O332 2.028 . S
O326 C322 1.258 . S
O326 Zn327 2.035 . S
Zn327 O326 2.035 . S
Zn327 O328 2.028 . S
Zn327 O330 2.028 . S
Zn327 O333 2.035 . S
O328 Zn327 2.028 . S
O328 C334 1.247 . S
O329 Zn325 2.035 . S
O329 C334 1.258 . S
O330 C323 1.247 . S
O330 Zn327 2.028 . S
O331 C323 1.258 . S
O331 Zn325 2.035 . S
O332 Zn325 2.028 . S
O332 C335 1.247 . S
O333 Zn327 2.035 . S
O333 C335 1.258 . S
C334 O328 1.247 . S
C334 O329 1.258 . S
C335 O332 1.247 . S
C335 O333 1.258 . S
C336 O338 1.247 . S
C336 O340 1.258 . S
C337 O344 1.247 . S
C337 O345 1.258 . S
O338 C336 1.247 . S
O338 Zn339 2.028 . S
Zn339 O338 2.028 . S
Zn339 O343 2.035 . S
Zn339 O345 2.035 . S
Zn339 O346 2.028 . S
O340 C336 1.258 . S
O340 Zn341 2.035 . S
Zn341 O340 2.035 . S
Zn341 O342 2.028 . S
Zn341 O344 2.028 . S
Zn341 O347 2.035 . S
O342 Zn341 2.028 . S
O342 C348 1.247 . S
O343 Zn339 2.035 . S
O343 C348 1.258 . S
O344 C337 1.247 . S
O344 Zn341 2.028 . S
O345 C337 1.258 . S
O345 Zn339 2.035 . S
O346 Zn339 2.028 . S
O346 C349 1.247 . S
O347 Zn341 2.035 . S
O347 C349 1.258 . S
C348 O342 1.247 . S
C348 O343 1.258 . S
C349 O346 1.247 . S
C349 O347 1.258 . S
C350 O352 1.247 . S
C350 O354 1.258 . S
C351 O358 1.247 . S
C351 O359 1.258 . S
O352 C350 1.247 . S
O352 Zn353 2.028 . S
Zn353 O352 2.028 . S
Zn353 O357 2.035 . S
Zn353 O359 2.035 . S
Zn353 O360 2.028 . S
O354 C350 1.258 . S
O354 Zn355 2.035 . S
Zn355 O354 2.035 . S
Zn355 O356 2.028 . S
Zn355 O358 2.028 . S
Zn355 O361 2.035 . S
O356 Zn355 2.028 . S
O356 C362 1.247 . S
O357 Zn353 2.035 . S
O357 C362 1.258 . S
O358 C351 1.247 . S
O358 Zn355 2.028 . S
O359 C351 1.258 . S
O359 Zn353 2.035 . S
O360 Zn353 2.028 . S
O360 C363 1.247 . S
O361 Zn355 2.035 . S
O361 C363 1.258 . S
C362 O356 1.247 . S
C362 O357 1.258 . S
C363 O360 1.247 . S
C363 O361 1.258 . S
C364 O366 1.247 . S
C364 O368 1.258 . S
C365 O372 1.247 . S
C365 O373 1.258 . S
O366 C364 1.247 . S
O366 Zn367 2.028 . S
Zn367 O366 2.028 . S
Zn367 O371 2.035 . S
Zn367 O373 2.035 . S
Zn367 O374 2.028 . S
O368 C364 1.258 . S
O368 Zn369 2.035 . S
Zn369 O368 2.035 . S
Zn369 O370 2.028 . S
Zn369 O372 2.028 . S
Zn369 O375 2.035 . S
O370 Zn369 2.028 . S
O370 C376 1.247 . S
O371 Zn367 2.035 . S
O371 C376 1.258 . S
O372 C365 1.247 . S
O372 Zn369 2.028 . S
O373 C365 1.258 . S
O373 Zn367 2.035 . S
O374 Zn367 2.028 . S
O374 C377 1.247 . S
O375 Zn369 2.035 . S
O375 C377 1.258 . S
C376 O370 1.247 . S
C376 O371 1.258 . S
C377 O374 1.247 . S
C377 O375 1.258 . S
C378 O380 1.247 . S
C378 O382 1.258 . S
C379 O386 1.247 . S
C379 O387 1.258 . S
O380 C378 1.247 . S
O380 Zn381 2.028 . S
Zn381 O380 2.028 . S
Zn381 O385 2.035 . S
Zn381 O387 2.035 . S
Zn381 O388 2.028 . S
O382 C378 1.258 . S
O382 Zn383 2.035 . S
Zn383 O382 2.035 . S
Zn383 O384 2.028 . S
Zn383 O386 2.028 . S
Zn383 O389 2.035 . S
O384 Zn383 2.028 . S
O384 C390 1.247 . S
O385 Zn381 2.035 . S
O385 C390 1.258 . S
O386 C379 1.247 . S
O386 Zn383 2.028 . S
O387 C379 1.258 . S
O387 Zn381 2.035 . S
O388 Zn381 2.028 . S
O388 C391 1.247 . S
O389 Zn383 2.035 . S
O389 C391 1.258 . S
C390 O384 1.247 . S
C390 O385 1.258 . S
C391 O388 1.247 . S
C391 O389 1.258 . S
C392 O394 1.247 . S
C392 O396 1.258 . S
C393 O400 1.247 . S
C393 O401 1.258 . S
O394 C392 1.247 . S
O394 Zn395 2.028 . S
Zn395 O394 2.028 . S
Zn395 O399 2.035 . S
Zn395 O401 2.035 . S
Zn395 O402 2.028 . S
O396 C392 1.258 . S
O396 Zn397 2.035 . S
Zn397 O396 2.035 . S
Zn397 O398 2.028 . S
Zn397 O400 2.028 . S
Zn397 O403 2.035 . S
O398 Zn397 2.028 . S
O398 C404 1.247 . S
O399 Zn395 2.035 . S
O399 C404 1.258 . S
O400 C393 1.247 . S
O400 Zn397 2.028 . S
O401 C393 1.258 . S
O401 Zn395 2.035 . S
O402 Zn395 2.028 . S
O402 C405 1.247 . S
O403 Zn397 2.035 . S
O403 C405 1.258 . S
C404 O398 1.247 . S
C404 O399 1.258 . S
C405 O402 1.247 . S
C405 O403 1.258 . S
C406 O408 1.247 . S
C406 O410 1.258 . S
C407 O414 1.247 . S
C407 O415 1.258 . S
O408 C406 1.247 . S
O408 Zn409 2.028 . S
Zn409 O408 2.028 . S
Zn409 O413 2.035 . S
Zn409 O415 2.035 . S
Zn409 O416 2.028 . S
O410 C406 1.258 . S
O410 Zn411 2.035 . S
Zn411 O410 2.035 . S
Zn411 O412 2.028 . S
Zn411 O414 2.028 . S
Zn411 O417 2.035 . S
O412 Zn411 2.028 . S
O412 C418 1.247 . S
O413 Zn409 2.035 . S
O413 C418 1.258 . S
O414 C407 1.247 . S
O414 Zn411 2.028 . S
O415 C407 1.258 . S
O415 Zn409 2.035 . S
O416 Zn409 2.028 . S
O416 C419 1.247 . S
O417 Zn411 2.035 . S
O417 C419 1.258 . S
C418 O412 1.247 . S
C418 O413 1.258 . S
C419 O416 1.247 . S
C419 O417 1.258 . S
C420 O422 1.247 . S
C420 O424 1.258 . S
C421 O428 1.247 . S
C421 O429 1.258 . S
O422 C420 1.247 . S
O422 Zn423 2.028 . S
Zn423 O422 2.028 . S
Zn423 O427 2.035 . S
Zn423 O429 2.035 . S
Zn423 O430 2.028 . S
O424 C420 1.258 . S
O424 Zn425 2.035 . S
Zn425 O424 2.035 . S
Zn425 O426 2.028 . S
Zn425 O428 2.028 . S
Zn425 O431 2.035 . S
O426 Zn425 2.028 . S
O426 C432 1.247 . S
O427 Zn423 2.035 . S
O427 C432 1.258 . S
O428 C421 1.247 . S
O428 Zn425 2.028 . S
O429 C421 1.258 . S
O429 Zn423 2.035 . S
O430 Zn423 2.028 . S
O430 C433 1.247 . S
O431 Zn425 2.035 . S
O431 C433 1.258 . S
C432 O426 1.247 . S
C432 O427 1.258 . S
C433 O430 1.247 . S
C433 O431 1.258 . S
C434 O436 1.247 . S
C434 O438 1.258 . S
C435 O442 1.247 . S
C435 O443 1.258 . S
O436 C434 1.247 . S
O436 Zn437 2.028 . S
Zn437 O436 2.028 . S
Zn437 O441 2.035 . S
Zn437 O443 2.035 . S
Zn437 O444 2.028 . S
O438 C434 1.258 . S
O438 Zn439 2.035 . S
Zn439 O438 2.035 . S
Zn439 O440 2.028 . S
Zn439 O442 2.028 . S
Zn439 O445 2.035 . S
O440 Zn439 2.028 . S
O440 C446 1.247 . S
O441 Zn437 2.035 . S
O441 C446 1.258 . S
O442 C435 1.247 . S
O442 Zn439 2.028 . S
O443 C435 1.258 . S
O443 Zn437 2.035 . S
O444 Zn437 2.028 . S
O444 C447 1.247 . S
O445 Zn439 2.035 . S
O445 C447 1.258 . S
C446 O440 1.247 . S
C446 O441 1.258 . S
C447 O444 1.247 . S
C447 O445 1.258 . S
C448 C449 1.387 . S
C448 H452 0.950 . S
C448 C457 1.390 . S
C449 C448 1.387 . S
C449 C451 1.387 . S
H450 C457 0.950 . S
C451 C449 1.387 . S
C451 C453 1.390 . S
C451 H455 0.950 . S
H452 C448 0.950 . S
C453 C451 1.390 . S
C453 C454 1.387 . S
C453 H456 0.950 . S
C454 C453 1.387 . S
C454 C457 1.387 . S
H455 C451 0.950 . S
H456 C453 0.950 . S
C457 C448 1.390 . S
C457 H450 0.950 . S
C457 C454 1.387 . S
C458 C459 1.387 . S
C458 H462 0.950 . S
C458 C467 1.390 . S
C459 C458 1.387 . S
C459 C461 1.387 . S
H460 C467 0.950 . S
C461 C459 1.387 . S
C461 C463 1.390 . S
C461 H465 0.950 . S
H462 C458 0.950 . S
C463 C461 1.390 . S
C463 C464 1.387 . S
C463 H466 0.950 . S
C464 C463 1.387 . S
C464 C467 1.387 . S
H465 C461 0.950 . S
H466 C463 0.950 . S
C467 C458 1.390 . S
C467 H460 0.950 . S
C467 C464 1.387 . S
C468 C469 1.387 . S
C468 H472 0.950 . S
C468 C477 1.390 . S
C469 C468 1.387 . S
C469 C471 1.387 . S
H470 C477 0.950 . S
C471 C469 1.387 . S
C471 C473 1.390 . S
C471 H475 0.950 . S
H472 C468 0.950 . S
C473 C471 1.390 . S
C473 C474 1.387 . S
C473 H476 0.950 . S
C474 C473 1.387 . S
C474 C477 1.387 . S
H475 C471 0.950 . S
H476 C473 0.950 . S
C477 C468 1.390 . S
C477 H470 0.950 . S
C477 C474 1.387 . S
C478 C479 1.387 . S
C478 H482 0.950 . S
C478 C487 1.390 . S
C479 C478 1.387 . S
C479 C481 1.387 . S
H480 C487 0.950 . S
C481 C479 1.387 . S
C481 C483 1.390 . S
C481 H485 0.950 . S
H482 C478 0.950 . S
C483 C481 1.390 . S
C483 C484 1.387 . S
C483 H486 0.950 . S
C484 C483 1.387 . S
C484 C487 1.387 . S
H485 C481 0.950 . S
H486 C483 0.950 . S
C487 C478 1.390 . S
C487 H480 0.950 . S
C487 C484 1.387 . S
C488 C489 1.387 . S
C488 H492 0.950 . S
C488 C497 1.390 . S
C489 C488 1.387 . S
C489 C491 1.387 . S
H490 C497 0.950 . S
C491 C489 1.387 . S
C491 C493 1.390 . S
C491 H495 0.950 . S
H492 C488 0.950 . S
C493 C491 1.390 . S
C493 C494 1.387 . S
C493 H496 0.950 . S
C494 C493 1.387 . S
C494 C497 1.387 . S
H495 C491 0.950 . S
H496 C493 0.950 . S
C497 C488 1.390 . S
C497 H490 0.950 . S
C497 C494 1.387 . S
C498 C499 1.387 . S
C498 H502 0.950 . S
C498 C507 1.390 . S
C499 C498 1.387 . S
C499 C501 1.387 . S
H500 C507 0.950 . S
C501 C499 1.387 . S
C501 C503 1.390 . S
C501 H505 0.950 . S
H502 C498 0.950 . S
C503 C501 1.390 . S
C503 C504 1.387 . S
C503 H506 0.950 . S
C504 C503 1.387 . S
C504 C507 1.387 . S
H505 C501 0.950 . S
H506 C503 0.950 . S
C507 C498 1.390 . S
C507 H500 0.950 . S
C507 C504 1.387 . S
C508 C509 1.387 . S
C508 H512 0.950 . S
C508 C517 1.390 . S
C509 C508 1.387 . S
C509 C511 1.387 . S
H510 C517 0.950 . S
C511 C509 1.387 . S
C511 C513 1.390 . S
C511 H515 0.950 . S
H512 C508 0.950 . S
C513 C511 1.390 . S
C513 C514 1.387 . S
C513 H516 0.950 . S
C514 C513 1.387 . S
C514 C517 1.387 . S
H515 C511 0.950 . S
H516 C513 0.950 . S
C517 C508 1.390 . S
C517 H510 0.950 . S
C517 C514 1.387 . S
C518 C519 1.387 . S
C518 H522 0.950 . S
C518 C527 1.390 . S
C519 C518 1.387 . S
C519 C521 1.387 . S
H520 C527 0.950 . S
C521 C519 1.387 . S
C521 C523 1.390 . S
C521 H525 0.950 . S
H522 C518 0.950 . S
C523 C521 1.390 . S
C523 C524 1.387 . S
C523 H526 0.950 . S
C524 C523 1.387 . S
C524 C527 1.387 . S
H525 C521 0.950 . S
H526 C523 0.950 . S
C527 C518 1.390 . S
C527 H520 0.950 . S
C527 C524 1.387 . S
C528 C529 1.387 . S
C528 H532 0.950 . S
C528 C537 1.390 . S
C529 C528 1.387 . S
C529 C531 1.387 . S
H530 C537 0.950 . S
C531 C529 1.387 . S
C531 C533 1.390 . S
C531 H535 0.950 . S
H532 C528 0.950 . S
C533 C531 1.390 . S
C533 C534 1.387 . S
C533 H536 0.950 . S
C534 C533 1.387 . S
C534 C537 1.387 . S
H535 C531 0.950 . S
H536 C533 0.950 . S
C537 C528 1.390 . S
C537 H530 0.950 . S
C537 C534 1.387 . S
C538 C539 1.387 . S
C538 H542 0.950 . S
C538 C547 1.390 . S
C539 C538 1.387 . S
C539 C541 1.387 . S
H540 C547 0.950 . S
C541 C539 1.387 . S
C541 C543 1.390 . S
C541 H545 0.950 . S
H542 C538 0.950 . S
C543 C541 1.390 . S
C543 C544 1.387 . S
C543 H546 0.950 . S
C544 C543 1.387 . S
C544 C547 1.387 . S
H545 C541 0.950 . S
H546 C543 0.950 . S
C547 C538 1.390 . S
C547 H540 0.950 . S
C547 C544 1.387 . S
C548 C549 1.387 . S
C548 H552 0.950 . S
C548 C557 1.390 . S
C549 C548 1.387 . S
C549 C551 1.387 . S
H550 C557 0.950 . S
C551 C549 1.387 . S
C551 C553 1.390 . S
C551 H555 0.950 . S
H552 C548 0.950 . S
C553 C551 1.390 . S
C553 C554 1.387 . S
C553 H556 0.950 . S
C554 C553 1.387 . S
C554 C557 1.387 . S
H555 C551 0.950 . S
H556 C553 0.950 . S
C557 C548 1.390 . S
C557 H550 0.950 . S
C557 C554 1.387 . S
C558 C559 1.387 . S
C558 H562 0.950 . S
C558 C567 1.390 . S
C559 C558 1.387 . S
C559 C561 1.387 . S
H560 C567 0.950 . S
C561 C559 1.387 . S
C561 C563 1.390 . S
C561 H565 0.950 . S
H562 C558 0.950 . S
C563 C561 1.390 . S
C563 C564 1.387 . S
C563 H566 0.950 . S
C564 C563 1.387 . S
C564 C567 1.387 . S
H565 C561 0.950 . S
H566 C563 0.950 . S
C567 C558 1.390 . S
C567 H560 0.950 . S
C567 C564 1.387 . S
C568 C569 1.387 . S
C568 H572 0.950 . S
C568 C577 1.390 . S
C569 C568 1.387 . S
C569 C571 1.387 . S
H570 C577 0.950 . S
C571 C569 1.387 . S
C571 C573 1.390 . S
C571 H575 0.950 . S
H572 C568 0.950 . S
C573 C571 1.390 . S
C573 C574 1.387 . S
C573 H576 0.950 . S
C574 C573 1.387 . S
C574 C577 1.387 . S
H575 C571 0.950 . S
H576 C573 0.950 . S
C577 C568 1.390 . S
C577 H570 0.950 . S
C577 C574 1.387 . S
C578 C579 1.387 . S
C578 H582 0.950 . S
C578 C587 1.390 . S
C579 C578 1.387 . S
C579 C581 1.387 . S
H580 C587 0.950 . S
C581 C579 1.387 . S
C581 C583 1.390 . S
C581 H585 0.950 . S
H582 C578 0.950 . S
C583 C581 1.390 . S
C583 C584 1.387 . S
C583 H586 0.950 . S
C584 C583 1.387 . S
C584 C587 1.387 . S
H585 C581 0.950 . S
H586 C583 0.950 . S
C587 C578 1.390 . S
C587 H580 0.950 . S
C587 C584 1.387 . S
C588 C589 1.387 . S
C588 H592 0.950 . S
C588 C597 1.390 . S
C589 C588 1.387 . S
C589 C591 1.387 . S
H590 C597 0.950 . S
C591 C589 1.387 . S
C591 C593 1.390 . S
C591 H595 0.950 . S
H592 C588 0.950 . S
C593 C591 1.390 . S
C593 C594 1.387 . S
C593 H596 0.950 . S
C594 C593 1.387 . S
C594 C597 1.387 . S
H595 C591 0.950 . S
H596 C593 0.950 . S
C597 C588 1.390 . S
C597 H590 0.950 . S
C597 C594 1.387 . S
C598 C599 1.387 . S
C598 H602 0.950 . S
C598 C607 1.390 . S
C599 C598 1.387 . S
C599 C601 1.387 . S
H600 C607 0.950 . S
C601 C599 1.387 . S
C601 C603 1.390 . S
C601 H605 0.950 . S
H602 C598 0.950 . S
C603 C601 1.390 . S
C603 C604 1.387 . S
C603 H606 0.950 . S
C604 C603 1.387 . S
C604 C607 1.387 . S
H605 C601 0.950 . S
H606 C603 0.950 . S
C607 C598 1.390 . S
C607 H600 0.950 . S
C607 C604 1.387 . S
C608 C609 1.387 . S
C608 H612 0.950 . S
C608 C617 1.390 . S
C609 C608 1.387 . S
C609 C611 1.387 . S
H610 C617 0.950 . S
C611 C609 1.387 . S
C611 C613 1.390 . S
C611 H615 0.950 . S
H612 C608 0.950 . S
C613 C611 1.390 . S
C613 C614 1.387 . S
C613 H616 0.950 . S
C614 C613 1.387 . S
C614 C617 1.387 . S
H615 C611 0.950 . S
H616 C613 0.950 . S
C617 C608 1.390 . S
C617 H610 0.950 . S
C617 C614 1.387 . S
C618 C619 1.387 . S
C618 H622 0.950 . S
C618 C627 1.390 . S
C619 C618 1.387 . S
C619 C621 1.387 . S
H620 C627 0.950 . S
C621 C619 1.387 . S
C621 C623 1.390 . S
C621 H625 0.950 . S
H622 C618 0.950 . S
C623 C621 1.390 . S
C623 C624 1.387 . S
C623 H626 0.950 . S
C624 C623 1.387 . S
C624 C627 1.387 . S
H625 C621 0.950 . S
H626 C623 0.950 . S
C627 C618 1.390 . S
C627 H620 0.950 . S
C627 C624 1.387 . S
C628 C629 1.387 . S
C628 H632 0.950 . S
C628 C637 1.390 . S
C629 C628 1.387 . S
C629 C631 1.387 . S
H630 C637 0.950 . S
C631 C629 1.387 . S
C631 C633 1.390 . S
C631 H635 0.950 . S
H632 C628 0.950 . S
C633 C631 1.390 . S
C633 C634 1.387 . S
C633 H636 0.950 . S
C634 C633 1.387 . S
C634 C637 1.387 . S
H635 C631 0.950 . S
H636 C633 0.950 . S
C637 C628 1.390 . S
C637 H630 0.950 . S
C637 C634 1.387 . S
C638 C639 1.387 . S
C638 H642 0.950 . S
C638 C647 1.390 . S
C639 C638 1.387 . S
C639 C641 1.387 . S
H640 C647 0.950 . S
C641 C639 1.387 . S
C641 C643 1.390 . S
C641 H645 0.950 . S
H642 C638 0.950 . S
C643 C641 1.390 . S
C643 C644 1.387 . S
C643 H646 0.950 . S
C644 C643 1.387 . S
C644 C647 1.387 . S
H645 C641 0.950 . S
H646 C643 0.950 . S
C647 C638 1.390 . S
C647 H640 0.950 . S
C647 C644 1.387 . S
C648 C649 1.387 . S
C648 H652 0.950 . S
C648 C657 1.390 . S
C649 C648 1.387 . S
C649 C651 1.387 . S
H650 C657 0.950 . S
C651 C649 1.387 . S
C651 C653 1.390 . S
C651 H655 0.950 . S
H652 C648 0.950 . S
C653 C651 1.390 . S
C653 C654 1.387 . S
C653 H656 0.950 . S
C654 C653 1.387 . S
C654 C657 1.387 . S
H655 C651 0.950 . S
H656 C653 0.950 . S
C657 C648 1.390 . S
C657 H650 0.950 . S
C657 C654 1.387 . S
C658 C659 1.387 . S
C658 H662 0.950 . S
C658 C667 1.390 . S
C659 C658 1.387 . S
C659 C661 1.387 . S
H660 C667 0.950 . S
C661 C659 1.387 . S
C661 C663 1.390 . S
C661 H665 0.950 . S
H662 C658 0.950 . S
C663 C661 1.390 . S
C663 C664 1.387 . S
C663 H666 0.950 . S
C664 C663 1.387 . S
C664 C667 1.387 . S
H665 C661 0.950 . S
H666 C663 0.950 . S
C667 C658 1.390 . S
C667 H660 0.950 . S
C667 C664 1.387 . S
C668 C669 1.387 . S
C668 H672 0.950 . S
C668 C677 1.390 . S
C669 C668 1.387 . S
C669 C671 1.387 . S
H670 C677 0.950 . S
C671 C669 1.387 . S
C671 C673 1.390 . S
C671 H675 0.950 . S
H672 C668 0.950 . S
C673 C671 1.390 . S
C673 C674 1.387 . S
C673 H676 0.950 . S
C674 C673 1.387 . S
C674 C677 1.387 . S
H675 C671 0.950 . S
H676 C673 0.950 . S
C677 C668 1.390 . S
C677 H670 0.950 . S
C677 C674 1.387 . S
C678 C679 1.387 . S
C678 H682 0.950 . S
C678 C687 1.390 . S
C679 C678 1.387 . S
C679 C681 1.387 . S
H680 C687 0.950 . S
C681 C679 1.387 . S
C681 C683 1.390 . S
C681 H685 0.950 . S
H682 C678 0.950 . S
C683 C681 1.390 . S
C683 C684 1.387 . S
C683 H686 0.950 . S
C684 C683 1.387 . S
C684 C687 1.387 . S
H685 C681 0.950 . S
H686 C683 0.950 . S
C687 C678 1.390 . S
C687 H680 0.950 . S
C687 C684 1.387 . S
C688 C689 1.387 . S
C688 H692 0.950 . S
C688 C697 1.390 . S
C689 C688 1.387 . S
C689 C691 1.387 . S
H690 C697 0.950 . S
C691 C689 1.387 . S
C691 C693 1.390 . S
C691 H695 0.950 . S
H692 C688 0.950 . S
C693 C691 1.390 . S
C693 C694 1.387 . S
C693 H696 0.950 . S
C694 C693 1.387 . S
C694 C697 1.387 . S
H695 C691 0.950 . S
H696 C693 0.950 . S
C697 C688 1.390 . S
C697 H690 0.950 . S
C697 C694 1.387 . S
C698 C699 1.387 . S
C698 H702 0.950 . S
C698 C707 1.390 . S
C699 C698 1.387 . S
C699 C701 1.387 . S
H700 C707 0.950 . S
C701 C699 1.387 . S
C701 C703 1.390 . S
C701 H705 0.950 . S
H702 C698 0.950 . S
C703 C701 1.390 . S
C703 C704 1.387 . S
C703 H706 0.950 . S
C704 C703 1.387 . S
C704 C707 1.387 . S
H705 C701 0.950 . S
H706 C703 0.950 . S
C707 C698 1.390 . S
C707 H700 0.950 . S
C707 C704 1.387 . S
C708 C709 1.387 . S
C708 H712 0.950 . S
C708 C717 1.390 . S
C709 C708 1.387 . S
C709 C711 1.387 . S
H710 C717 0.950 . S
C711 C709 1.387 . S
C711 C713 1.390 . S
C711 H715 0.950 . S
H712 C708 0.950 . S
C713 C711 1.390 . S
C713 C714 1.387 . S
C713 H716 0.950 . S
C714 C713 1.387 . S
C714 C717 1.387 . S
H715 C711 0.950 . S
H716 C713 0.950 . S
C717 C708 1.390 . S
C717 H710 0.950 . S
C717 C714 1.387 . S
C718 C719 1.387 . S
C718 H722 0.950 . S
C718 C727 1.390 . S
C719 C718 1.387 . S
C719 C721 1.387 . S
H720 C727 0.950 . S
C721 C719 1.387 . S
C721 C723 1.390 . S
C721 H725 0.950 . S
H722 C718 0.950 . S
C723 C721 1.390 . S
C723 C724 1.387 . S
C723 H726 0.950 . S
C724 C723 1.387 . S
C724 C727 1.387 . S
H725 C721 0.950 . S
H726 C723 0.950 . S
C727 C718 1.390 . S
C727 H720 0.950 . S
C727 C724 1.387 . S
C728 C729 1.387 . S
C728 H732 0.950 . S
C728 C737 1.390 . S
C729 C728 1.387 . S
C729 C731 1.387 . S
H730 C737 0.950 . S
C731 C729 1.387 . S
C731 C733 1.390 . S
C731 H735 0.950 . S
H732 C728 0.950 . S
C733 C731 1.390 . S
C733 C734 1.387 . S
C733 H736 0.950 . S
C734 C733 1.387 . S
C734 C737 1.387 . S
H735 C731 0.950 . S
H736 C733 0.950 . S
C737 C728 1.390 . S
C737 H730 0.950 . S
C737 C734 1.387 . S
C738 C739 1.387 . S
C738 H742 0.950 . S
C738 C747 1.390 . S
C739 C738 1.387 . S
C739 C741 1.387 . S
H740 C747 0.950 . S
C741 C739 1.387 . S
C741 C743 1.390 . S
C741 H745 0.950 . S
H742 C738 0.950 . S
C743 C741 1.390 . S
C743 C744 1.387 . S
C743 H746 0.950 . S
C744 C743 1.387 . S
C744 C747 1.387 . S
H745 C741 0.950 . S
H746 C743 0.950 . S
C747 C738 1.390 . S
C747 H740 0.950 . S
C747 C744 1.387 . S
C748 C749 1.387 . S
C748 H752 0.950 . S
C748 C757 1.390 . S
C749 C748 1.387 . S
C749 C751 1.387 . S
H750 C757 0.950 . S
C751 C749 1.387 . S
C751 C753 1.390 . S
C751 H755 0.950 . S
H752 C748 0.950 . S
C753 C751 1.390 . S
C753 C754 1.387 . S
C753 H756 0.950 . S
C754 C753 1.387 . S
C754 C757 1.387 . S
H755 C751 0.950 . S
H756 C753 0.950 . S
C757 C748 1.390 . S
C757 H750 0.950 . S
C757 C754 1.387 . S
C758 C759 1.387 . S
C758 H762 0.950 . S
C758 C767 1.390 . S
C759 C758 1.387 . S
C759 C761 1.387 . S
H760 C767 0.950 . S
C761 C759 1.387 . S
C761 C763 1.390 . S
C761 H765 0.950 . S
H762 C758 0.950 . S
C763 C761 1.390 . S
C763 C764 1.387 . S
C763 H766 0.950 . S
C764 C763 1.387 . S
C764 C767 1.387 . S
H765 C761 0.950 . S
H766 C763 0.950 . S
C767 C758 1.390 . S
C767 H760 0.950 . S
C767 C764 1.387 . S
C768 C769 1.387 . S
C768 H772 0.950 . S
C768 C777 1.390 . S
C769 C768 1.387 . S
C769 C771 1.387 . S
H770 C777 0.950 . S
C771 C769 1.387 . S
C771 C773 1.390 . S
C771 H775 0.950 . S
H772 C768 0.950 . S
C773 C771 1.390 . S
C773 C774 1.387 . S
C773 H776 0.950 . S
C774 C773 1.387 . S
C774 C777 1.387 . S
H775 C771 0.950 . S
H776 C773 0.950 . S
C777 C768 1.390 . S
C777 H770 0.950 . S
C777 C774 1.387 . S
C778 C779 1.387 1_565 S
C778 H782 0.950 . S
C778 C787 1.390 1_455 S
C779 C778 1.387 1_545 S
C779 C781 1.387 . S
H780 C787 0.950 . S
C781 C779 1.387 . S
C781 C783 1.390 1_455 S
C781 H785 0.950 . S
H782 C778 0.950 . S
C783 C781 1.390 1_655 S
C783 C784 1.387 1_545 S
C783 H786 0.950 . S
C784 C783 1.387 1_565 S
C784 C787 1.387 . S
H785 C781 0.950 . S
H786 C783 0.950 . S
C787 C778 1.390 1_655 S
C787 H780 0.950 . S
C787 C784 1.387 . S
C788 C789 1.387 . S
C788 H792 0.950 . S
C788 C797 1.390 . S
C789 C788 1.387 . S
C789 C791 1.387 . S
H790 C797 0.950 . S
C791 C789 1.387 . S
C791 C793 1.390 . S
C791 H795 0.950 . S
H792 C788 0.950 . S
C793 C791 1.390 . S
C793 C794 1.387 . S
C793 H796 0.950 . S
C794 C793 1.387 . S
C794 C797 1.387 . S
H795 C791 0.950 . S
H796 C793 0.950 . S
C797 C788 1.390 . S
C797 H790 0.950 . S
C797 C794 1.387 . S
C798 C799 1.387 . S
C798 H802 0.950 . S
C798 C807 1.390 1_554 S
C799 C798 1.387 . S
C799 C801 1.387 1_565 S
H800 C807 0.950 . S
C801 C799 1.387 1_545 S
C801 C803 1.390 1_554 S
C801 H805 0.950 . S
H802 C798 0.950 . S
C803 C801 1.390 1_556 S
C803 C804 1.387 . S
C803 H806 0.950 . S
C804 C803 1.387 . S
C804 C807 1.387 1_545 S
H805 C801 0.950 . S
H806 C803 0.950 . S
C807 C798 1.390 1_556 S
C807 H800 0.950 . S
C807 C804 1.387 1_565 S
C808 C809 1.387 . S
C808 H812 0.950 . S
C808 C817 1.390 . S
C809 C808 1.387 . S
C809 C811 1.387 . S
H810 C817 0.950 . S
C811 C809 1.387 . S
C811 C813 1.390 . S
C811 H815 0.950 . S
H812 C808 0.950 . S
C813 C811 1.390 . S
C813 C814 1.387 . S
C813 H816 0.950 . S
C814 C813 1.387 . S
C814 C817 1.387 . S
H815 C811 0.950 . S
H816 C813 0.950 . S
C817 C808 1.390 . S
C817 H810 0.950 . S
C817 C814 1.387 . S
C818 C819 1.387 1_565 S
C818 H822 0.950 . S
C818 C827 1.390 . S
C819 C818 1.387 1_545 S
C819 C821 1.387 . S
H820 C827 0.950 . S
C821 C819 1.387 . S
C821 C823 1.390 . S
C821 H825 0.950 . S
H822 C818 0.950 . S
C823 C821 1.390 . S
C823 C824 1.387 1_545 S
C823 H826 0.950 . S
C824 C823 1.387 1_565 S
C824 C827 1.387 . S
H825 C821 0.950 . S
H826 C823 0.950 . S
C827 C818 1.390 . S
C827 H820 0.950 . S
C827 C824 1.387 . S
C828 C829 1.387 . S
C828 H832 0.950 . S
C828 C837 1.390 . S
C829 C828 1.387 . S
C829 C831 1.387 . S
H830 C837 0.950 . S
C831 C829 1.387 . S
C831 C833 1.390 . S
C831 H835 0.950 . S
H832 C828 0.950 . S
C833 C831 1.390 . S
C833 C834 1.387 . S
C833 H836 0.950 . S
C834 C833 1.387 . S
C834 C837 1.387 . S
H835 C831 0.950 . S
H836 C833 0.950 . S
C837 C828 1.390 . S
C837 H830 0.950 . S
C837 C834 1.387 . S
C838 C839 1.387 . S
C838 H842 0.950 . S
C838 C847 1.390 1_456 S
C839 C838 1.387 . S
C839 C841 1.387 1_565 S
H840 C847 0.950 . S
C841 C839 1.387 1_545 S
C841 C843 1.390 1_456 S
C841 H845 0.950 . S
H842 C838 0.950 . S
C843 C841 1.390 1_654 S
C843 C844 1.387 . S
C843 H846 0.950 . S
C844 C843 1.387 . S
C844 C847 1.387 1_545 S
H845 C841 0.950 . S
H846 C843 0.950 . S
C847 C838 1.390 1_654 S
C847 H840 0.950 . S
C847 C844 1.387 1_565 S
C848 C849 1.387 . S
C848 H852 0.950 . S
C848 C857 1.390 . S
C849 C848 1.387 . S
C849 C851 1.387 . S
H850 C857 0.950 . S
C851 C849 1.387 . S
C851 C853 1.390 . S
C851 H855 0.950 . S
H852 C848 0.950 . S
C853 C851 1.390 . S
C853 C854 1.387 . S
C853 H856 0.950 . S
C854 C853 1.387 . S
C854 C857 1.387 . S
H855 C851 0.950 . S
H856 C853 0.950 . S
C857 C848 1.390 . S
C857 H850 0.950 . S
C857 C854 1.387 . S
C858 C859 1.387 . S
C858 H862 0.950 . S
C858 C867 1.390 . S
C859 C858 1.387 . S
C859 C861 1.387 . S
H860 C867 0.950 . S
C861 C859 1.387 . S
C861 C863 1.390 . S
C861 H865 0.950 . S
H862 C858 0.950 . S
C863 C861 1.390 . S
C863 C864 1.387 . S
C863 H866 0.950 . S
C864 C863 1.387 . S
C864 C867 1.387 . S
H865 C861 0.950 . S
H866 C863 0.950 . S
C867 C858 1.390 . S
C867 H860 0.950 . S
C867 C864 1.387 . S
C868 C869 1.387 . S
C868 H872 0.950 . S
C868 C877 1.390 . S
C869 C868 1.387 . S
C869 C871 1.387 . S
H870 C877 0.950 . S
C871 C869 1.387 . S
C871 C873 1.390 . S
C871 H875 0.950 . S
H872 C868 0.950 . S
C873 C871 1.390 . S
C873 C874 1.387 . S
C873 H876 0.950 . S
C874 C873 1.387 . S
C874 C877 1.387 . S
H875 C871 0.950 . S
H876 C873 0.950 . S
C877 C868 1.390 . S
C877 H870 0.950 . S
C877 C874 1.387 . S
C878 C879 1.387 . S
C878 H882 0.950 . S
C878 C887 1.390 . S
C879 C878 1.387 . S
C879 C881 1.387 . S
H880 C887 0.950 . S
C881 C879 1.387 . S
C881 C883 1.390 . S
C881 H885 0.950 . S
H882 C878 0.950 . S
C883 C881 1.390 . S
C883 C884 1.387 . S
C883 H886 0.950 . S
C884 C883 1.387 . S
C884 C887 1.387 . S
H885 C881 0.950 . S
H886 C883 0.950 . S
C887 C878 1.390 . S
C887 H880 0.950 . S
C887 C884 1.387 . S
C888 C889 1.387 . S
C888 H892 0.950 . S
C888 C897 1.390 1_554 S
C889 C888 1.387 . S
C889 C891 1.387 . S
H890 C897 0.950 . S
C891 C889 1.387 . S
C891 C893 1.390 1_554 S
C891 H895 0.950 . S
H892 C888 0.950 . S
C893 C891 1.390 1_556 S
C893 C894 1.387 . S
C893 H896 0.950 . S
C894 C893 1.387 . S
C894 C897 1.387 . S
H895 C891 0.950 . S
H896 C893 0.950 . S
C897 C888 1.390 1_556 S
C897 H890 0.950 . S
C897 C894 1.387 . S
C898 C899 1.387 . S
C898 H902 0.950 . S
C898 C907 1.390 1_455 S
C899 C898 1.387 . S
C899 C901 1.387 . S
H900 C907 0.950 . S
C901 C899 1.387 . S
C901 C903 1.390 1_455 S
C901 H905 0.950 . S
H902 C898 0.950 . S
C903 C901 1.390 1_655 S
C903 C904 1.387 . S
C903 H906 0.950 . S
C904 C903 1.387 . S
C904 C907 1.387 . S
H905 C901 0.950 . S
H906 C903 0.950 . S
C907 C898 1.390 1_655 S
C907 H900 0.950 . S
C907 C904 1.387 . S
C908 C909 1.387 . S
C908 H912 0.950 . S
C908 C917 1.390 1_454 S
C909 C908 1.387 . S
C909 C911 1.387 . S
H910 C917 0.950 . S
C911 C909 1.387 . S
C911 C913 1.390 1_454 S
C911 H915 0.950 . S
H912 C908 0.950 . S
C913 C911 1.390 1_656 S
C913 C914 1.387 . S
C913 H916 0.950 . S
C914 C913 1.387 . S
C914 C917 1.387 . S
H915 C911 0.950 . S
H916 C913 0.950 . S
C917 C908 1.390 1_656 S
C917 H910 0.950 . S
C917 C914 1.387 . S
C918 C919 1.387 . S
C918 H922 0.950 . S
C918 C927 1.390 . S
C919 C918 1.387 . S
C919 C921 1.387 . S
H920 C927 0.950 . S
C921 C919 1.387 . S
C921 C923 1.390 . S
C921 H925 0.950 . S
H922 C918 0.950 . S
C923 C921 1.390 . S
C923 C924 1.387 . S
C923 H926 0.950 . S
C924 C923 1.387 . S
C924 C927 1.387 . S
H925 C921 0.950 . S
H926 C923 0.950 . S
C927 C918 1.390 . S
C927 H920 0.950 . S
C927 C924 1.387 . S
C928 C929 1.387 . S
C928 H932 0.950 . S
C928 C937 1.390 1_545 S
C929 C928 1.387 . S
C929 C931 1.387 . S
H930 C937 0.950 . S
C931 C929 1.387 . S
C931 C933 1.390 1_545 S
C931 H935 0.950 . S
H932 C928 0.950 . S
C933 C931 1.390 1_565 S
C933 C934 1.387 . S
C933 H936 0.950 . S
C934 C933 1.387 . S
C934 C937 1.387 . S
H935 C931 0.950 . S
H936 C933 0.950 . S
C937 C928 1.390 1_565 S
C937 H930 0.950 . S
C937 C934 1.387 . S
C938 C939 1.387 . S
C938 H942 0.950 1_565 S
C938 C947 1.390 . S
C939 C938 1.387 . S
C939 C941 1.387 . S
H940 C947 0.950 1_545 S
C941 C939 1.387 . S
C941 C943 1.390 . S
C941 H945 0.950 . S
H942 C938 0.950 1_545 S
C943 C941 1.390 . S
C943 C944 1.387 . S
C943 H946 0.950 . S
C944 C943 1.387 . S
C944 C947 1.387 . S
H945 C941 0.950 . S
H946 C943 0.950 . S
C947 C938 1.390 . S
C947 H940 0.950 1_565 S
C947 C944 1.387 . S
C948 C949 1.387 . S
C948 H952 0.950 . S
C948 C957 1.390 1_545 S
C949 C948 1.387 . S
C949 C951 1.387 . S
H950 C957 0.950 . S
C951 C949 1.387 . S
C951 C953 1.390 1_545 S
C951 H955 0.950 . S
H952 C948 0.950 . S
C953 C951 1.390 1_565 S
C953 C954 1.387 . S
C953 H956 0.950 . S
C954 C953 1.387 . S
C954 C957 1.387 . S
H955 C951 0.950 . S
H956 C953 0.950 . S
C957 C948 1.390 1_565 S
C957 H950 0.950 . S
C957 C954 1.387 . S
C958 C959 1.387 . S
C958 H962 0.950 . S
C958 C967 1.390 1_554 S
C959 C958 1.387 . S
C959 C961 1.387 . S
H960 C967 0.950 . S
C961 C959 1.387 . S
C961 C963 1.390 1_554 S
C961 H965 0.950 1_545 S
H962 C958 0.950 . S
C963 C961 1.390 1_556 S
C963 C964 1.387 . S
C963 H966 0.950 1_545 S
C964 C963 1.387 . S
C964 C967 1.387 . S
H965 C961 0.950 1_565 S
H966 C963 0.950 1_565 S
C967 C958 1.390 1_556 S
C967 H960 0.950 . S
C967 C964 1.387 . S
C968 C969 1.387 . S
C968 H972 0.950 . S
C968 C977 1.390 1_545 S
C969 C968 1.387 . S
C969 C971 1.387 . S
H970 C977 0.950 . S
C971 C969 1.387 . S
C971 C973 1.390 1_545 S
C971 H975 0.950 . S
H972 C968 0.950 . S
C973 C971 1.390 1_565 S
C973 C974 1.387 . S
C973 H976 0.950 . S
C974 C973 1.387 . S
C974 C977 1.387 . S
H975 C971 0.950 . S
H976 C973 0.950 . S
C977 C968 1.390 1_565 S
C977 H970 0.950 . S
C977 C974 1.387 . S
C978 C979 1.387 . S
C978 H982 0.950 . S
C978 C987 1.390 . S
C979 C978 1.387 . S
C979 C981 1.387 . S
H980 C987 0.950 . S
C981 C979 1.387 . S
C981 C983 1.390 . S
C981 H985 0.950 1_545 S
H982 C978 0.950 . S
C983 C981 1.390 . S
C983 C984 1.387 . S
C983 H986 0.950 1_545 S
C984 C983 1.387 . S
C984 C987 1.387 . S
H985 C981 0.950 1_565 S
H986 C983 0.950 1_565 S
C987 C978 1.390 . S
C987 H980 0.950 . S
C987 C984 1.387 . S
C988 C989 1.387 . S
C988 H992 0.950 . S
C988 C997 1.390 1_545 S
C989 C988 1.387 . S
C989 C991 1.387 . S
H990 C997 0.950 . S
C991 C989 1.387 . S
C991 C993 1.390 1_545 S
C991 H995 0.950 . S
H992 C988 0.950 . S
C993 C991 1.390 1_565 S
C993 C994 1.387 . S
C993 H996 0.950 . S
C994 C993 1.387 . S
C994 C997 1.387 . S
H995 C991 0.950 . S
H996 C993 0.950 . S
C997 C988 1.390 1_565 S
C997 H990 0.950 . S
C997 C994 1.387 . S
C998 C999 1.387 . S
C998 H1002 0.950 . S
C998 C1007 1.390 1_556 S
C999 C998 1.387 . S
C999 C1001 1.387 . S
H1000 C1007 0.950 . S
C1001 C999 1.387 . S
C1001 C1003 1.390 1_556 S
C1001 H1005 0.950 1_565 S
H1002 C998 0.950 . S
C1003 C1001 1.390 1_554 S
C1003 C1004 1.387 . S
C1003 H1006 0.950 1_565 S
C1004 C1003 1.387 . S
C1004 C1007 1.387 . S
H1005 C1001 0.950 1_545 S
H1006 C1003 0.950 1_545 S
C1007 C998 1.390 1_554 S
C1007 H1000 0.950 . S
C1007 C1004 1.387 . S
C1008 C1009 1.387 . S
C1008 H1012 0.950 . S
C1008 C1017 1.390 . S
C1009 C1008 1.387 . S
C1009 C1011 1.387 . S
H1010 C1017 0.950 . S
C1011 C1009 1.387 . S
C1011 C1013 1.390 . S
C1011 H1015 0.950 . S
H1012 C1008 0.950 . S
C1013 C1011 1.390 . S
C1013 C1014 1.387 . S
C1013 H1016 0.950 . S
C1014 C1013 1.387 . S
C1014 C1017 1.387 . S
H1015 C1011 0.950 . S
H1016 C1013 0.950 . S
C1017 C1008 1.390 . S
C1017 H1010 0.950 . S
C1017 C1014 1.387 . S
C1018 C1019 1.387 . S
C1018 H1022 0.950 . S
C1018 C1027 1.390 1_556 S
C1019 C1018 1.387 . S
C1019 C1021 1.387 . S
H1020 C1027 0.950 . S
C1021 C1019 1.387 . S
C1021 C1023 1.390 1_556 S
C1021 H1025 0.950 . S
H1022 C1018 0.950 . S
C1023 C1021 1.390 1_554 S
C1023 C1024 1.387 . S
C1023 H1026 0.950 . S
C1024 C1023 1.387 . S
C1024 C1027 1.387 . S
H1025 C1021 0.950 . S
H1026 C1023 0.950 . S
C1027 C1018 1.390 1_554 S
C1027 H1020 0.950 . S
C1027 C1024 1.387 . S
C1028 C1029 1.387 . S
C1028 H1032 0.950 . S
C1028 C1037 1.390 . S
C1029 C1028 1.387 . S
C1029 C1031 1.387 . S
H1030 C1037 0.950 . S
C1031 C1029 1.387 . S
C1031 C1033 1.390 . S
C1031 H1035 0.950 . S
H1032 C1028 0.950 . S
C1033 C1031 1.390 . S
C1033 C1034 1.387 . S
C1033 H1036 0.950 . S
C1034 C1033 1.387 . S
C1034 C1037 1.387 . S
H1035 C1031 0.950 . S
H1036 C1033 0.950 . S
C1037 C1028 1.390 . S
C1037 H1030 0.950 . S
C1037 C1034 1.387 . S
C1038 C1039 1.387 . S
C1038 H1042 0.950 . S
C1038 C1047 1.390 . S
C1039 C1038 1.387 . S
C1039 C1041 1.387 . S
H1040 C1047 0.950 . S
C1041 C1039 1.387 . S
C1041 C1043 1.390 . S
C1041 H1045 0.950 . S
H1042 C1038 0.950 . S
C1043 C1041 1.390 . S
C1043 C1044 1.387 . S
C1043 H1046 0.950 . S
C1044 C1043 1.387 . S
C1044 C1047 1.387 . S
H1045 C1041 0.950 . S
H1046 C1043 0.950 . S
C1047 C1038 1.390 . S
C1047 H1040 0.950 . S
C1047 C1044 1.387 . S
C1048 C1049 1.387 . S
C1048 H1052 0.950 . S
C1048 C1057 1.390 . S
C1049 C1048 1.387 . S
C1049 C1051 1.387 . S
H1050 C1057 0.950 . S
C1051 C1049 1.387 . S
C1051 C1053 1.390 . S
C1051 H1055 0.950 . S
H1052 C1048 0.950 . S
C1053 C1051 1.390 . S
C1053 C1054 1.387 . S
C1053 H1056 0.950 . S
C1054 C1053 1.387 . S
C1054 C1057 1.387 . S
H1055 C1051 0.950 . S
H1056 C1053 0.950 . S
C1057 C1048 1.390 . S
C1057 H1050 0.950 . S
C1057 C1054 1.387 . S
C1058 C1059 1.387 . S
C1058 H1062 0.950 . S
C1058 C1067 1.390 1_556 S
C1059 C1058 1.387 . S
C1059 C1061 1.387 . S
H1060 C1067 0.950 . S
C1061 C1059 1.387 . S
C1061 C1063 1.390 1_556 S
C1061 H1065 0.950 . S
H1062 C1058 0.950 . S
C1063 C1061 1.390 1_554 S
C1063 C1064 1.387 . S
C1063 H1066 0.950 . S
C1064 C1063 1.387 . S
C1064 C1067 1.387 . S
H1065 C1061 0.950 . S
H1066 C1063 0.950 . S
C1067 C1058 1.390 1_554 S
C1067 H1060 0.950 . S
C1067 C1064 1.387 . S
C1068 C1069 1.387 . S
C1068 H1072 0.950 . S
C1068 C1077 1.390 . S
C1069 C1068 1.387 . S
C1069 C1071 1.387 . S
H1070 C1077 0.950 . S
C1071 C1069 1.387 . S
C1071 C1073 1.390 . S
C1071 H1075 0.950 . S
H1072 C1068 0.950 . S
C1073 C1071 1.390 . S
C1073 C1074 1.387 . S
C1073 H1076 0.950 . S
C1074 C1073 1.387 . S
C1074 C1077 1.387 . S
H1075 C1071 0.950 . S
H1076 C1073 0.950 . S
C1077 C1068 1.390 . S
C1077 H1070 0.950 . S
C1077 C1074 1.387 . S
C1078 C1079 1.387 . S
C1078 H1082 0.950 . S
C1078 C1087 1.390 . S
C1079 C1078 1.387 . S
C1079 C1081 1.387 . S
H1080 C1087 0.950 . S
C1081 C1079 1.387 . S
C1081 C1083 1.390 . S
C1081 H1085 0.950 . S
H1082 C1078 0.950 . S
C1083 C1081 1.390 . S
C1083 C1084 1.387 . S
C1083 H1086 0.950 . S
C1084 C1083 1.387 . S
C1084 C1087 1.387 . S
H1085 C1081 0.950 . S
H1086 C1083 0.950 . S
C1087 C1078 1.390 . S
C1087 H1080 0.950 . S
C1087 C1084 1.387 . S
C449 C390 1.525 . S
C454 C1 1.555 . S
C459 C26 1.553 1_655 S
C464 C112 1.523 . S
C469 C363 1.526 . S
C474 C28 1.553 . S
C479 C42 1.555 . S
C484 C153 1.528 . S
C489 C56 1.555 . S
C494 C419 1.528 . S
C499 C71 1.556 . S
C504 C208 1.526 . S
C509 C96 1.553 . S
C514 C447 1.526 . S
C519 C111 1.556 1_655 S
C524 C181 1.528 . S
C529 C279 1.524 . S
C534 C125 1.553 . S
C539 C12 1.528 . S
C544 C139 1.555 1_455 S
C549 C239 1.525 . S
C554 C140 1.555 . S
C559 C166 1.554 . S
C564 C41 1.523 . S
C569 C306 1.527 . S
C574 C168 1.554 . S
C579 C85 1.524 . S
C584 C182 1.554 . S
C589 C197 1.554 . S
C594 C334 1.528 . S
C599 C69 1.523 . S
C604 C222 1.554 1_455 S
C609 C225 1.555 . S
C614 C155 1.528 . S
C619 C250 1.553 . S
C624 C336 1.523 . S
C629 C126 1.523 . S
C634 C252 1.553 . S
C639 C376 1.526 . S
C644 C266 1.555 1_455 S
C649 C195 1.526 . S
C654 C292 1.553 . S
C659 C433 1.528 . S
C664 C295 1.555 1_455 S
C669 C211 1.528 . S
C674 C320 1.554 . S
C679 C323 1.555 . S
C684 C405 1.528 . S
C689 C55 1.526 . S
C694 C349 1.555 . S
C699 C350 1.554 . S
C704 C236 1.526 . S
C709 C365 1.554 . S
C714 C15 1.525 . S
C719 C379 1.555 1_655 S
C724 C265 1.526 . S
C729 C392 1.554 . S
C734 C82 1.526 . S
C739 C406 1.555 1_655 S
C744 C309 1.526 . S
C749 C420 1.555 . S
C754 C98 1.527 . S
C759 C434 1.554 . S
C764 C281 1.523 . S
C769 C337 1.732 . S
C774 C13 1.728 . S
C779 C14 1.733 1_545 S
C784 C127 1.733 1_565 S
C789 C377 1.732 . S
C794 C40 1.732 . S
C799 C54 1.732 1_565 S
C804 C154 1.728 1_545 S
C809 C404 1.727 . S
C814 C68 1.731 . S
C819 C83 1.729 1_545 S
C824 C194 1.729 1_565 S
C829 C432 1.728 . S
C834 C84 1.731 . S
C839 C99 1.728 1_565 S
C844 C210 1.728 1_545 S
C849 C113 1.731 . S
C854 C237 1.727 . S
C859 C152 1.728 . S
C864 C264 1.732 . S
C869 C180 1.728 . S
C874 C280 1.732 . S
C879 C209 1.733 . S
C884 C308 1.733 . S
C889 C238 1.732 . S
C894 C362 1.728 . S
C899 C391 1.733 . S
C904 C278 1.733 . S
C909 C418 1.728 . S
C914 C307 1.728 . S
C919 C335 1.729 . S
C924 C446 1.729 . S
C929 C0 1.829 . S
C934 C57 1.830 . S
C939 C27 1.830 . S
C944 C70 1.829 . S
C949 C97 1.831 . S
C954 C29 1.831 . S
C959 C43 1.831 . S
C964 C110 1.830 . S
C969 C169 1.830 . S
C974 C124 1.831 . S
C979 C183 1.829 . S
C984 C138 1.830 . S
C989 C141 1.830 . S
C994 C196 1.831 . S
C999 C167 1.829 . S
C1004 C223 1.829 . S
C1009 C293 1.831 . S
C1014 C224 1.830 . S
C1019 C294 1.830 . S
C1024 C251 1.831 . S
C1029 C253 1.830 . S
C1034 C321 1.830 . S
C1039 C322 1.829 . S
C1044 C267 1.830 . S
C1049 C393 1.830 . S
C1054 C348 1.831 . S
C1059 C351 1.829 . S
C1064 C407 1.829 . S
C1069 C421 1.830 . S
C1074 C364 1.831 . S
C1079 C378 1.830 . S
C1084 C435 1.829 . S
