# Generated by pormake.
# Topology ure, (4)-cn, num edge types: 1
# Building blocks:
#     Node 0, Type 0, BuildingBlock: GALJAG_clean_sbu_0, # of connection points: 4
#     Node 1, Type 0, BuildingBlock: GALJAG_clean_sbu_0, # of connection points: 4
#     Node 2, Type 0, BuildingBlock: GALJAG_clean_sbu_0, # of connection points: 4
#     Node 3, Type 0, BuildingBlock: GALJAG_clean_sbu_0, # of connection points: 4
#     Node 4, Type 0, BuildingBlock: GALJAG_clean_sbu_0, # of connection points: 4
#     Node 5, Type 0, BuildingBlock: GALJAG_clean_sbu_0, # of connection points: 4
#     Node 6, Type 0, BuildingBlock: GALJAG_clean_sbu_0, # of connection points: 4
#     Node 7, Type 0, BuildingBlock: GALJAG_clean_sbu_0, # of connection points: 4
#     Node 8, Type 0, BuildingBlock: GALJAG_clean_sbu_0, # of connection points: 4
#     Node 9, Type 0, BuildingBlock: GALJAG_clean_sbu_0, # of connection points: 4
#     Node 10, Type 0, BuildingBlock: GALJAG_clean_sbu_0, # of connection points: 4
#     Node 11, Type 0, BuildingBlock: GALJAG_clean_sbu_0, # of connection points: 4
#     Node 12, Type 0, BuildingBlock: GALJAG_clean_sbu_0, # of connection points: 4
#     Node 13, Type 0, BuildingBlock: GALJAG_clean_sbu_0, # of connection points: 4
#     Node 14, Type 0, BuildingBlock: GALJAG_clean_sbu_0, # of connection points: 4
#     Node 15, Type 0, BuildingBlock: GALJAG_clean_sbu_0, # of connection points: 4
#     Edge 16, Type (0, 0), BuildingBlock: EYOCIG_clean_linker_4, # of connection points: 2
#     Edge 17, Type (0, 0), BuildingBlock: EYOCIG_clean_linker_4, # of connection points: 2
#     Edge 18, Type (0, 0), BuildingBlock: EYOCIG_clean_linker_4, # of connection points: 2
#     Edge 19, Type (0, 0), BuildingBlock: EYOCIG_clean_linker_4, # of connection points: 2
#     Edge 20, Type (0, 0), BuildingBlock: EYOCIG_clean_linker_4, # of connection points: 2
#     Edge 21, Type (0, 0), BuildingBlock: EYOCIG_clean_linker_4, # of connection points: 2
#     Edge 22, Type (0, 0), BuildingBlock: EYOCIG_clean_linker_4, # of connection points: 2
#     Edge 23, Type (0, 0), BuildingBlock: EYOCIG_clean_linker_4, # of connection points: 2
#     Edge 24, Type (0, 0), BuildingBlock: EYOCIG_clean_linker_4, # of connection points: 2
#     Edge 25, Type (0, 0), BuildingBlock: EYOCIG_clean_linker_4, # of connection points: 2
#     Edge 26, Type (0, 0), BuildingBlock: EYOCIG_clean_linker_4, # of connection points: 2
#     Edge 27, Type (0, 0), BuildingBlock: EYOCIG_clean_linker_4, # of connection points: 2
#     Edge 28, Type (0, 0), BuildingBlock: EYOCIG_clean_linker_4, # of connection points: 2
#     Edge 29, Type (0, 0), BuildingBlock: EYOCIG_clean_linker_4, # of connection points: 2
#     Edge 30, Type (0, 0), BuildingBlock: EYOCIG_clean_linker_4, # of connection points: 2
#     Edge 31, Type (0, 0), BuildingBlock: EYOCIG_clean_linker_4, # of connection points: 2
#     Edge 32, Type (0, 0), BuildingBlock: EYOCIG_clean_linker_4, # of connection points: 2
#     Edge 33, Type (0, 0), BuildingBlock: EYOCIG_clean_linker_4, # of connection points: 2
#     Edge 34, Type (0, 0), BuildingBlock: EYOCIG_clean_linker_4, # of connection points: 2
#     Edge 35, Type (0, 0), BuildingBlock: EYOCIG_clean_linker_4, # of connection points: 2
#     Edge 36, Type (0, 0), BuildingBlock: EYOCIG_clean_linker_4, # of connection points: 2
#     Edge 37, Type (0, 0), BuildingBlock: EYOCIG_clean_linker_4, # of connection points: 2
#     Edge 38, Type (0, 0), BuildingBlock: EYOCIG_clean_linker_4, # of connection points: 2
#     Edge 39, Type (0, 0), BuildingBlock: EYOCIG_clean_linker_4, # of connection points: 2
#     Edge 40, Type (0, 0), BuildingBlock: EYOCIG_clean_linker_4, # of connection points: 2
#     Edge 41, Type (0, 0), BuildingBlock: EYOCIG_clean_linker_4, # of connection points: 2
#     Edge 42, Type (0, 0), BuildingBlock: EYOCIG_clean_linker_4, # of connection points: 2
#     Edge 43, Type (0, 0), BuildingBlock: EYOCIG_clean_linker_4, # of connection points: 2
#     Edge 44, Type (0, 0), BuildingBlock: EYOCIG_clean_linker_4, # of connection points: 2
#     Edge 45, Type (0, 0), BuildingBlock: EYOCIG_clean_linker_4, # of connection points: 2
#     Edge 46, Type (0, 0), BuildingBlock: EYOCIG_clean_linker_4, # of connection points: 2
#     Edge 47, Type (0, 0), BuildingBlock: EYOCIG_clean_linker_4, # of connection points: 2
# Relax obj value: 0.290
# Max RMSD: 0.221
# Mean RMSD: 0.173
data_MOF--net-ure--node1-GALJAG_clean_sbu_0--edge1-EYOCIG_clean_linker_4
_symmetry_space_group_name_H-M    P1
_symmetry_Int_Tables_number       1
_symmetry_cell_setting            triclinic
loop_
_symmetry_equiv_pos_as_xyz
'x, y, z'
_cell_length_a     22.133475
_cell_length_b     25.632922
_cell_length_c     25.602595
_cell_angle_alpha  99.89681
_cell_angle_beta   95.928638
_cell_angle_gamma 95.827664
loop_
_atom_site_label
_atom_site_type_symbol
_atom_site_fract_x
_atom_site_fract_y
_atom_site_fract_z
_atom_type_partial_charge
In0 In 0.29775 0.31775 0.28261 0.0
O1 O 0.22556 0.24606 0.24902 0.0
O2 O 0.26316 0.29016 0.19408 0.0
C3 C 0.30567 0.3311 0.3894 0.0
C4 C 0.4109 0.29197 0.27194 0.0
C5 C 0.26378 0.41329 0.28223 0.0
O6 O 0.26482 0.29782 0.35972 0.0
O7 O 0.34162 0.35695 0.36558 0.0
O8 O 0.31453 0.40127 0.26899 0.0
O9 O 0.22709 0.37586 0.29111 0.0
C10 C 0.22677 0.25158 0.20104 0.0
O11 O 0.39187 0.33236 0.25703 0.0
O12 O 0.37221 0.2626 0.29036 0.0
In13 In 0.99045 0.00429 0.50959 0.0
O14 O 0.02894 0.01157 0.59494 0.0
O15 O 0.97244 0.93898 0.55722 0.0
C16 C 0.00317 0.1085 0.5001 0.0
C17 C 0.07057 0.94563 0.4595 0.0
C18 C 0.86823 0.99419 0.50152 0.0
O19 O 0.01911 0.09332 0.54321 0.0
O20 O 0.9856 0.0713 0.46059 0.0
O21 O 0.89545 0.97388 0.46324 0.0
O22 O 0.90208 0.01845 0.54275 0.0
C23 C 0.00447 0.96584 0.59843 0.0
O24 O 0.01391 0.93935 0.44363 0.0
O25 O 0.08779 0.9835 0.49833 0.0
In26 In 0.33164 0.75569 0.78752 0.0
O27 O 0.23125 0.73228 0.75948 0.0
O28 O 0.25934 0.8117 0.80315 0.0
C29 C 0.37763 0.66306 0.76715 0.0
C30 C 0.36745 0.80887 0.71078 0.0
C31 C 0.34142 0.76117 0.89497 0.0
O32 O 0.32132 0.66651 0.75685 0.0
O33 O 0.41135 0.7065 0.78516 0.0
O34 O 0.37707 0.79145 0.87407 0.0
O35 O 0.30276 0.72907 0.8623 0.0
C36 C 0.21608 0.77673 0.77993 0.0
O37 O 0.38805 0.82495 0.75966 0.0
O38 O 0.33142 0.76615 0.70101 0.0
In39 In 0.47897 0.97471 0.00512 0.0
O40 O 0.4217 0.00261 0.9365 0.0
O41 O 0.47922 0.06092 0.99522 0.0
C42 C 0.47608 0.8681 0.99923 0.0
C43 C 0.59246 0.98518 0.98181 0.0
C44 C 0.43506 0.9929 0.09858 0.0
O45 O 0.43774 0.88729 0.96959 0.0
O46 O 0.51364 0.902 0.03108 0.0
O47 O 0.49092 0.00439 0.09429 0.0
O48 O 0.40045 0.97505 0.05545 0.0
C49 C 0.44319 0.05128 0.9524 0.0
O50 O 0.5783 0.0046 0.02701 0.0
O51 O 0.54911 0.96119 0.94729 0.0
In52 In 0.33763 0.75088 0.26118 0.0
O53 O 0.29445 0.66674 0.25213 0.0
O54 O 0.35133 0.70099 0.32556 0.0
C55 C 0.32528 0.75986 0.15652 0.0
C56 C 0.25954 0.80391 0.32012 0.0
C57 C 0.46008 0.7576 0.27248 0.0
O58 O 0.30888 0.71713 0.17203 0.0
O59 O 0.34347 0.79933 0.1936 0.0
O60 O 0.43302 0.79619 0.29219 0.0
O61 O 0.42594 0.71651 0.24839 0.0
C62 C 0.31713 0.66147 0.29789 0.0
O63 O 0.31665 0.81744 0.32701 0.0
O64 O 0.24102 0.76607 0.28156 0.0
In65 In 0.45378 0.0106 0.44908 0.0
O66 O 0.40228 0.99582 0.51966 0.0
O67 O 0.43228 0.9291 0.47195 0.0
C68 C 0.46198 0.11432 0.44357 0.0
C69 C 0.5709 0.00909 0.48411 0.0
C70 C 0.4049 0.98208 0.34721 0.0
O71 O 0.42068 0.09352 0.46711 0.0
O72 O 0.49865 0.08382 0.42512 0.0
O73 O 0.45784 0.97339 0.36369 0.0
O74 O 0.37318 1.00013 0.38292 0.0
C75 C 0.40818 0.94663 0.51291 0.0
O76 O 0.54544 0.98265 0.43981 0.0
O77 O 0.5374 0.03669 0.51183 0.0
In78 In 0.37359 0.31502 0.74999 0.0
O79 O 0.42452 0.24443 0.76583 0.0
O80 O 0.39257 0.29183 0.83173 0.0
C81 C 0.36624 0.3209 0.6463 0.0
C82 C 0.25683 0.27861 0.74894 0.0
C83 C 0.42035 0.41723 0.77836 0.0
O84 O 0.40825 0.29833 0.66761 0.0
O85 O 0.32843 0.33812 0.67628 0.0
O86 O 0.36784 0.39993 0.78729 0.0
O87 O 0.45304 0.38213 0.76071 0.0
C88 C 0.41665 0.25075 0.81467 0.0
O89 O 0.28115 0.3228 0.77635 0.0
O90 O 0.29131 0.25177 0.72162 0.0
In91 In 0.00242 0.97783 0.94391 0.0
O92 O 0.90798 0.99999 0.92651 0.0
O93 O 0.92726 0.96783 0.99733 0.0
C94 C 0.03549 0.98005 0.84868 0.0
C95 C 0.06773 0.06195 0.01051 0.0
C96 C 0.0031 0.87201 0.93304 0.0
O97 O 0.98307 0.98913 0.85989 0.0
O98 O 0.0738 0.97455 0.88673 0.0
O99 O 0.0378 0.90414 0.96946 0.0
O100 O 0.96873 0.8929 0.90265 0.0
C101 C 0.88885 0.98534 0.96687 0.0
O102 O 0.07323 0.01446 0.01551 0.0
O103 O 0.03027 0.06722 0.97183 0.0
In104 In 0.83902 0.25124 0.75707 0.0
O105 O 0.82094 0.31732 0.82377 0.0
O106 O 0.74363 0.26695 0.77936 0.0
C107 C 0.96065 0.25858 0.76583 0.0
C108 C 0.82033 0.16247 0.79515 0.0
C109 C 0.82567 0.26157 0.65299 0.0
O110 O 0.93397 0.29721 0.78597 0.0
O111 O 0.92653 0.21705 0.74285 0.0
O112 O 0.80954 0.21842 0.6679 0.0
O113 O 0.84366 0.30072 0.69043 0.0
C114 C 0.76382 0.30427 0.81801 0.0
O115 O 0.79593 0.1672 0.74972 0.0
O116 O 0.85539 0.20209 0.82158 0.0
In117 In 0.97885 0.51191 0.95437 0.0
O118 O 0.07269 0.48864 0.94936 0.0
O119 O 0.05848 0.54224 0.01997 0.0
C120 C 0.9355 0.48172 0.85139 0.0
C121 C 0.93291 0.44588 0.01617 0.0
C122 C 0.97981 0.6151 0.94825 0.0
O123 O 0.98899 0.47613 0.86966 0.0
O124 O 0.90099 0.49729 0.88569 0.0
O125 O 0.93929 0.59171 0.97059 0.0
O126 O 0.01992 0.58748 0.93141 0.0
C127 C 0.09481 0.51629 0.99408 0.0
O128 O 0.92365 0.4943 0.02178 0.0
O129 O 0.96126 0.4299 0.97738 0.0
In130 In 0.87472 0.81647 0.25692 0.0
O131 O 0.92711 0.74675 0.27253 0.0
O132 O 0.89664 0.79469 0.33893 0.0
C133 C 0.86811 0.82214 0.15308 0.0
C134 C 0.75787 0.77993 0.25805 0.0
C135 C 0.9218 0.91859 0.2856 0.0
O136 O 0.90978 0.79944 0.17463 0.0
O137 O 0.83015 0.83946 0.18282 0.0
O138 O 0.86878 0.90147 0.29342 0.0
O139 O 0.95458 0.8834 0.26844 0.0
C140 C 0.92124 0.75393 0.32179 0.0
O141 O 0.78241 0.8246 0.28418 0.0
O142 O 0.79209 0.75269 0.23079 0.0
In143 In 0.00498 0.47782 0.50777 0.0
O144 O 0.10527 0.50593 0.53175 0.0
O145 O 0.07766 0.46448 0.45145 0.0
C146 C 0.96393 0.496 0.60261 0.0
C147 C 0.96697 0.55591 0.45762 0.0
C148 C 0.99076 0.3699 0.49865 0.0
O149 O 0.01981 0.50531 0.59735 0.0
O150 O 0.92802 0.48048 0.55991 0.0
O151 O 0.95561 0.39298 0.47012 0.0
O152 O 0.03156 0.40062 0.53039 0.0
C153 C 0.12071 0.48725 0.4869 0.0
O154 O 0.94729 0.50716 0.44017 0.0
O155 O 0.00328 0.56489 0.50022 0.0
In156 In 0.50951 0.50924 0.01626 0.0
O157 O 0.52968 0.44288 0.95116 0.0
O158 O 0.60591 0.48964 0.0012 0.0
C159 C 0.38834 0.49775 0.00935 0.0
C160 C 0.53012 0.47268 0.10556 0.0
C161 C 0.51696 0.61236 0.0042 0.0
O162 O 0.41503 0.47794 0.97055 0.0
O163 O 0.42227 0.52144 0.05075 0.0
O164 O 0.53471 0.59886 0.0478 0.0
O165 O 0.50084 0.57416 0.96543 0.0
C166 C 0.58682 0.45025 0.96436 0.0
O167 O 0.55296 0.51842 0.10047 0.0
O168 O 0.4955 0.44531 0.0661 0.0
In169 In 0.80495 0.82072 0.79023 0.0
O170 O 0.89972 0.83683 0.76719 0.0
O171 O 0.88013 0.76698 0.80048 0.0
C172 C 0.77026 0.91544 0.78783 0.0
C173 C 0.74012 0.75331 0.70672 0.0
C174 C 0.80866 0.83341 0.89648 0.0
O175 O 0.82207 0.90403 0.77698 0.0
O176 O 0.7329 0.87768 0.79528 0.0
O177 O 0.77111 0.79788 0.86587 0.0
O178 O 0.84281 0.86204 0.87374 0.0
C179 C 0.9188 0.79668 0.78248 0.0
O180 O 0.73535 0.74813 0.75435 0.0
O181 O 0.77614 0.7927 0.70115 0.0
In182 In 0.82728 0.25399 0.28351 0.0
O183 O 0.72722 0.22822 0.25249 0.0
O184 O 0.75169 0.30767 0.29652 0.0
C185 C 0.87336 0.16098 0.26672 0.0
C186 C 0.8697 0.30701 0.20869 0.0
C187 C 0.83944 0.26293 0.39154 0.0
O188 O 0.81718 0.16412 0.25516 0.0
O189 O 0.90673 0.20467 0.28381 0.0
O190 O 0.87389 0.29251 0.36906 0.0
O191 O 0.80025 0.2301 0.36018 0.0
C192 C 0.70979 0.27188 0.27235 0.0
O193 O 0.88624 0.32335 0.25818 0.0
O194 O 0.83356 0.26435 0.19729 0.0
In195 In 0.53192 0.47649 0.44495 0.0
O196 O 0.60003 0.5113 0.51883 0.0
O197 O 0.56274 0.56506 0.47269 0.0
C198 C 0.5244 0.37024 0.4325 0.0
C199 C 0.41845 0.48746 0.46805 0.0
C200 C 0.57217 0.4782 0.3521 0.0
O201 O 0.56466 0.4001 0.46624 0.0
O202 O 0.48886 0.39366 0.40566 0.0
O203 O 0.51942 0.4889 0.36081 0.0
O204 O 0.60715 0.47066 0.39142 0.0
C205 C 0.59745 0.55897 0.51283 0.0
O206 O 0.43814 0.50116 0.42736 0.0
O207 O 0.45641 0.4696 0.49869 0.0
C208 C 0.16165 0.18339 0.12075 0.0
C209 C 0.19161 0.2148 0.15702 0.0
C210 C 0.12815 0.14343 0.08013 0.0
C211 C 0.09999 0.107 0.04775 0.0
C212 C 0.14618 0.8834 0.4126 0.0
C213 C 0.11252 0.91223 0.43456 0.0
C214 C 0.18514 0.85272 0.38233 0.0
C215 C 0.2185 0.83011 0.35365 0.0
C216 C 0.39106 0.88907 0.58833 0.0
C217 C 0.39895 0.91514 0.5538 0.0
C218 C 0.38552 0.86137 0.63161 0.0
C219 C 0.37879 0.83898 0.66906 0.0
C220 C 0.42976 0.13029 0.89898 0.0
C221 C 0.43401 0.09265 0.92148 0.0
C222 C 0.42774 0.17395 0.87149 0.0
C223 C 0.42267 0.209 0.84561 0.0
C224 C 0.69395 0.35382 0.88352 0.0
C225 C 0.72472 0.33052 0.85304 0.0
C226 C 0.6584 0.38593 0.91569 0.0
C227 C 0.62709 0.41604 0.93875 0.0
C228 C 0.90923 0.38708 0.0893 0.0
C229 C 0.92027 0.41347 0.05566 0.0
C230 C 0.89815 0.35905 0.13146 0.0
C231 C 0.8863 0.33655 0.16782 0.0
C232 C 0.94661 0.63609 0.40734 0.0
C233 C 0.95458 0.59834 0.42889 0.0
C234 C 0.93988 0.67938 0.37999 0.0
C235 C 0.93122 0.71364 0.3538 0.0
C236 C 0.65511 0.64057 0.58354 0.0
C237 C 0.62859 0.60359 0.55101 0.0
C238 C 0.68453 0.68192 0.62467 0.0
C239 C 0.71019 0.71482 0.66176 0.0
C240 C 0.3295 0.33733 0.49316 0.0
C241 C 0.31742 0.33361 0.44573 0.0
C242 C 0.34733 0.3338 0.54664 0.0
C243 C 0.35945 0.32632 0.59143 0.0
C244 C 0.04031 0.95249 0.74746 0.0
C245 C 0.04479 0.96441 0.79485 0.0
C246 C 0.02506 0.94338 0.69244 0.0
C247 C 0.01157 0.94732 0.6472 0.0
C248 C 0.33799 0.76315 0.99891 0.0
C249 C 0.34148 0.76385 0.95199 0.0
C250 C 0.33286 0.76248 0.05386 0.0
C251 C 0.32957 0.76169 0.10076 0.0
C252 C 0.3888 0.98633 0.24549 0.0
C253 C 0.38998 0.98535 0.29234 0.0
C254 C 0.3995 0.99062 0.19311 0.0
C255 C 0.41452 0.99129 0.14942 0.0
C256 C 0.52777 0.28028 0.27027 0.0
C257 C 0.47397 0.28335 0.27201 0.0
C258 C 0.59157 0.27987 0.27021 0.0
C259 C 0.64596 0.27792 0.27208 0.0
C260 C 0.98985 0.26555 0.49528 0.0
C261 C 0.98761 0.3126 0.49475 0.0
C262 C -0.00516 0.21073 0.49642 0.0
C263 C -0.0015 0.16404 0.49776 0.0
C264 C 0.03545 0.78605 0.7809 0.0
C265 C 0.9817 0.78836 0.78272 0.0
C266 C 0.09901 0.78645 0.78028 0.0
C267 C 0.15314 0.78437 0.78134 0.0
C268 C 0.49941 0.7124 0.99874 0.0
C269 C 0.50729 0.66669 0.00094 0.0
C270 C 0.48843 0.76582 0.99696 0.0
C271 C 0.48036 0.81176 0.99604 0.0
C272 C 0.64099 0.7572 0.26403 0.0
C273 C 0.69435 0.76322 0.25838 0.0
C274 C 0.57879 0.75804 0.27097 0.0
C275 C 0.52509 0.76051 0.27323 0.0
C276 C 0.48195 0.2138 0.43112 0.0
C277 C 0.46934 0.16916 0.43854 0.0
C278 C 0.50031 0.26695 0.42732 0.0
C279 C 0.51255 0.31419 0.43063 0.0
C280 C 0.13988 0.25697 0.75298 0.0
C281 C 0.19327 0.26215 0.74784 0.0
C282 C 0.07833 0.25897 0.76091 0.0
C283 C 0.02517 0.26182 0.76488 0.0
C284 C -0.007 0.76824 0.92839 0.0
C285 C -0.00269 0.81561 0.93021 0.0
C286 C 0.98564 0.7143 0.93332 0.0
C287 C 0.98083 0.66925 0.94115 0.0
C288 C 0.2638 0.51484 0.31103 0.0
C289 C 0.25618 0.4674 0.29914 0.0
C290 C 0.2849 0.56896 0.31999 0.0
C291 C 0.3038 0.61322 0.31629 0.0
C292 C 0.78961 0.07096 0.8203 0.0
C293 C 0.80783 0.11477 0.81472 0.0
C294 C 0.7688 0.01694 0.81357 0.0
C295 C 0.7613 0.96944 0.80292 0.0
C296 C 0.27153 0.50314 0.01142 0.0
C297 C 0.32397 0.49827 0.00642 0.0
C298 C 0.21111 0.51277 0.01634 0.0
C299 C 0.15796 0.51849 0.0122 0.0
C300 C 0.91551 0.06945 0.27206 0.0
C301 C 0.89603 0.11116 0.26955 0.0
C302 C 0.93228 0.01928 0.27865 0.0
C303 C 0.93513 0.97319 0.28106 0.0
C304 C 0.77243 0.98752 0.97497 0.0
C305 C 0.82614 0.98526 0.97445 0.0
C306 C 0.70897 0.98756 0.97208 0.0
C307 C 0.65483 0.98491 0.97326 0.0
C308 C 0.41761 0.56979 0.7672 0.0
C309 C 0.40004 0.6127 0.76738 0.0
C310 C 0.43174 0.5183 0.77169 0.0
C311 C 0.43323 0.47192 0.77373 0.0
C312 C 0.23807 0.49013 0.47735 0.0
C313 C 0.18379 0.4876 0.47916 0.0
C314 C 0.30176 0.49035 0.478 0.0
C315 C 0.35546 0.48811 0.47577 0.0
C316 C 0.83205 0.83882 7e-05 0.0
C317 C 0.82019 0.83535 0.95267 0.0
C318 C 0.84995 0.83517 0.05346 0.0
C319 C 0.86184 0.82757 0.09822 0.0
C320 C 0.58105 0.45434 0.25159 0.0
C321 C 0.5852 0.46417 0.29908 0.0
C322 C 0.5622 0.4481 0.19723 0.0
C323 C 0.54379 0.45372 0.15344 0.0
C324 C 0.83914 0.26664 0.49594 0.0
C325 C 0.84163 0.26691 0.44884 0.0
C326 C 0.83406 0.26565 0.5508 0.0
C327 C 0.8304 0.26419 0.5975 0.0
C328 C 0.93042 0.49171 0.6974 0.0
C329 C 0.94442 0.49335 0.65358 0.0
C330 C 0.92067 0.4862 0.74963 0.0
C331 C 0.92185 0.48474 0.79635 0.0
C332 C 0.74986 0.996 0.50188 0.0
C333 C 0.80328 0.99328 0.49855 0.0
C334 C 0.68803 0.00328 0.50436 0.0
C335 C 0.63466 0.009 0.49965 0.0
loop_
_geom_bond_atom_site_label_1
_geom_bond_atom_site_label_2
_geom_bond_distance
_geom_bond_site_symmetry_2
_ccdc_geom_bond_type
In0 O1 2.294 . S
In0 O2 2.326 . S
In0 O6 2.266 . S
In0 O7 2.326 . S
In0 O8 2.266 . S
In0 O9 2.326 . S
In0 O11 2.294 . S
In0 O12 2.326 . S
O1 In0 2.294 . S
O1 C10 1.240 . S
O2 In0 2.326 . S
O2 C10 1.252 . S
C3 O6 1.252 . S
C3 O7 1.260 . S
C4 O11 1.240 . S
C4 O12 1.252 . S
C5 O8 1.252 . S
C5 O9 1.260 . S
O6 In0 2.266 . S
O6 C3 1.252 . S
O7 In0 2.326 . S
O7 C3 1.260 . S
O8 In0 2.266 . S
O8 C5 1.252 . S
O9 In0 2.326 . S
O9 C5 1.260 . S
C10 O1 1.240 . S
C10 O2 1.252 . S
O11 In0 2.294 . S
O11 C4 1.240 . S
O12 In0 2.326 . S
O12 C4 1.252 . S
In13 O14 2.294 1_665 S
In13 O15 2.324 . S
In13 O19 2.268 1_665 S
In13 O20 2.327 1_565 S
In13 O21 2.266 . S
In13 O22 2.326 1_565 S
In13 O24 2.292 1_655 S
In13 O25 2.326 1_655 S
O14 In13 2.294 1_445 S
O14 C23 1.240 1_545 S
O15 In13 2.324 . S
O15 C23 1.252 1_655 S
C16 O19 1.253 . S
C16 O20 1.258 1_455 S
C17 O24 1.240 . S
C17 O25 1.252 . S
C18 O21 1.245 1_545 S
C18 O22 1.266 . S
O19 In13 2.268 1_445 S
O19 C16 1.253 . S
O20 In13 2.327 1_545 S
O20 C16 1.258 1_655 S
O21 In13 2.266 . S
O21 C18 1.245 1_565 S
O22 In13 2.326 1_545 S
O22 C18 1.266 . S
C23 O14 1.240 1_565 S
C23 O15 1.252 1_455 S
O24 In13 2.292 1_455 S
O24 C17 1.240 . S
O25 In13 2.326 1_455 S
O25 C17 1.252 . S
In26 O27 2.294 . S
In26 O28 2.326 . S
In26 O32 2.266 . S
In26 O33 2.326 . S
In26 O34 2.266 . S
In26 O35 2.326 . S
In26 O37 2.294 . S
In26 O38 2.326 . S
O27 In26 2.294 . S
O27 C36 1.240 . S
O28 In26 2.326 . S
O28 C36 1.252 . S
C29 O32 1.252 . S
C29 O33 1.260 . S
C30 O37 1.240 . S
C30 O38 1.252 . S
C31 O34 1.252 . S
C31 O35 1.260 . S
O32 In26 2.266 . S
O32 C29 1.252 . S
O33 In26 2.326 . S
O33 C29 1.260 . S
O34 In26 2.266 . S
O34 C31 1.252 . S
O35 In26 2.326 . S
O35 C31 1.260 . S
C36 O27 1.240 . S
C36 O28 1.252 . S
O37 In26 2.294 . S
O37 C30 1.240 . S
O38 In26 2.326 . S
O38 C30 1.252 . S
In39 O40 2.294 1_554 S
In39 O41 2.326 1_564 S
In39 O45 2.266 1_554 S
In39 O46 2.326 . S
In39 O47 2.266 . S
In39 O48 2.326 . S
In39 O50 2.294 1_565 S
In39 O51 2.326 1_554 S
O40 In39 2.294 1_556 S
O40 C49 1.240 1_565 S
O41 In39 2.326 1_546 S
O41 C49 1.252 . S
C42 O45 1.252 1_554 S
C42 O46 1.260 . S
C43 O50 1.240 1_566 S
C43 O51 1.252 . S
C44 O47 1.252 . S
C44 O48 1.260 . S
O45 In39 2.266 1_556 S
O45 C42 1.252 1_556 S
O46 In39 2.326 . S
O46 C42 1.260 . S
O47 In39 2.266 . S
O47 C44 1.252 . S
O48 In39 2.326 . S
O48 C44 1.260 . S
C49 O40 1.240 1_545 S
C49 O41 1.252 . S
O50 In39 2.294 1_545 S
O50 C43 1.240 1_544 S
O51 In39 2.326 1_556 S
O51 C43 1.252 . S
In52 O53 2.294 . S
In52 O54 2.326 . S
In52 O58 2.266 . S
In52 O59 2.326 . S
In52 O60 2.266 . S
In52 O61 2.326 . S
In52 O63 2.294 . S
In52 O64 2.326 . S
O53 In52 2.294 . S
O53 C62 1.240 . S
O54 In52 2.326 . S
O54 C62 1.252 . S
C55 O58 1.252 . S
C55 O59 1.260 . S
C56 O63 1.240 . S
C56 O64 1.252 . S
C57 O60 1.252 . S
C57 O61 1.260 . S
O58 In52 2.266 . S
O58 C55 1.252 . S
O59 In52 2.326 . S
O59 C55 1.260 . S
O60 In52 2.266 . S
O60 C57 1.252 . S
O61 In52 2.326 . S
O61 C57 1.260 . S
C62 O53 1.240 . S
C62 O54 1.252 . S
O63 In52 2.294 . S
O63 C56 1.240 . S
O64 In52 2.326 . S
O64 C56 1.252 . S
In65 O66 2.294 1_545 S
In65 O67 2.326 1_545 S
In65 O71 2.266 . S
In65 O72 2.326 . S
In65 O73 2.266 1_545 S
In65 O74 2.326 . S
In65 O76 2.294 1_545 S
In65 O77 2.326 . S
O66 In65 2.294 1_565 S
O66 C75 1.240 . S
O67 In65 2.326 1_565 S
O67 C75 1.252 . S
C68 O71 1.252 . S
C68 O72 1.260 . S
C69 O76 1.240 1_545 S
C69 O77 1.252 . S
C70 O73 1.252 . S
C70 O74 1.260 1_565 S
O71 In65 2.266 . S
O71 C68 1.252 . S
O72 In65 2.326 . S
O72 C68 1.260 . S
O73 In65 2.266 1_565 S
O73 C70 1.252 . S
O74 In65 2.326 . S
O74 C70 1.260 1_545 S
C75 O66 1.240 . S
C75 O67 1.252 . S
O76 In65 2.294 1_565 S
O76 C69 1.240 1_565 S
O77 In65 2.326 . S
O77 C69 1.252 . S
In78 O79 2.294 . S
In78 O80 2.326 . S
In78 O84 2.266 . S
In78 O85 2.326 . S
In78 O86 2.266 . S
In78 O87 2.326 . S
In78 O89 2.294 . S
In78 O90 2.326 . S
O79 In78 2.294 . S
O79 C88 1.240 . S
O80 In78 2.326 . S
O80 C88 1.252 . S
C81 O84 1.252 . S
C81 O85 1.260 . S
C82 O89 1.240 . S
C82 O90 1.252 . S
C83 O86 1.252 . S
C83 O87 1.260 . S
O84 In78 2.266 . S
O84 C81 1.252 . S
O85 In78 2.326 . S
O85 C81 1.260 . S
O86 In78 2.266 . S
O86 C83 1.252 . S
O87 In78 2.326 . S
O87 C83 1.260 . S
C88 O79 1.240 . S
C88 O80 1.252 . S
O89 In78 2.294 . S
O89 C82 1.240 . S
O90 In78 2.326 . S
O90 C82 1.252 . S
In91 O92 2.295 . S
In91 O93 2.327 1_556 S
In91 O97 2.266 . S
In91 O98 2.325 1_655 S
In91 O99 2.266 1_655 S
In91 O100 2.326 . S
In91 O102 2.293 1_666 S
In91 O103 2.326 1_665 S
O92 In91 2.295 . S
O92 C101 1.240 . S
O93 In91 2.327 1_554 S
O93 C101 1.252 1_554 S
C94 O97 1.252 1_455 S
C94 O98 1.260 . S
C95 O102 1.240 1_556 S
C95 O103 1.252 . S
C96 O99 1.252 . S
C96 O100 1.260 1_455 S
O97 In91 2.266 . S
O97 C94 1.252 1_655 S
O98 In91 2.325 1_455 S
O98 C94 1.260 . S
O99 In91 2.266 1_455 S
O99 C96 1.252 . S
O100 In91 2.326 . S
O100 C96 1.260 1_655 S
C101 O92 1.240 . S
C101 O93 1.252 1_556 S
O102 In91 2.293 1_444 S
O102 C95 1.240 1_554 S
O103 In91 2.326 1_445 S
O103 C95 1.252 . S
In104 O105 2.294 . S
In104 O106 2.326 . S
In104 O110 2.266 . S
In104 O111 2.326 . S
In104 O112 2.266 . S
In104 O113 2.326 . S
In104 O115 2.294 . S
In104 O116 2.326 . S
O105 In104 2.294 . S
O105 C114 1.240 . S
O106 In104 2.326 . S
O106 C114 1.252 . S
C107 O110 1.252 . S
C107 O111 1.260 . S
C108 O115 1.240 . S
C108 O116 1.252 . S
C109 O112 1.252 . S
C109 O113 1.260 . S
O110 In104 2.266 . S
O110 C107 1.252 . S
O111 In104 2.326 . S
O111 C107 1.260 . S
O112 In104 2.266 . S
O112 C109 1.252 . S
O113 In104 2.326 . S
O113 C109 1.260 . S
C114 O105 1.240 . S
C114 O106 1.252 . S
O115 In104 2.294 . S
O115 C108 1.240 . S
O116 In104 2.326 . S
O116 C108 1.252 . S
In117 O118 2.296 . S
In117 O119 2.327 1_556 S
In117 O123 2.266 . S
In117 O124 2.324 1_455 S
In117 O125 2.265 1_455 S
In117 O126 2.326 . S
In117 O128 2.293 1_456 S
In117 O129 2.326 1_455 S
O118 In117 2.296 . S
O118 C127 1.240 . S
O119 In117 2.327 1_554 S
O119 C127 1.252 1_554 S
C120 O123 1.252 1_655 S
C120 O124 1.260 . S
C121 O128 1.239 1_556 S
C121 O129 1.268 . S
C122 O125 1.252 . S
C122 O126 1.260 1_655 S
O123 In117 2.266 . S
O123 C120 1.252 1_455 S
O124 In117 2.324 1_655 S
O124 C120 1.260 . S
O125 In117 2.265 1_655 S
O125 C122 1.252 . S
O126 In117 2.326 . S
O126 C122 1.260 1_455 S
C127 O118 1.240 . S
C127 O119 1.252 1_556 S
O128 In117 2.293 1_654 S
O128 C121 1.239 1_554 S
O129 In117 2.326 1_655 S
O129 C121 1.268 . S
In130 O131 2.294 . S
In130 O132 2.326 . S
In130 O136 2.266 . S
In130 O137 2.326 . S
In130 O138 2.266 . S
In130 O139 2.326 . S
In130 O141 2.294 . S
In130 O142 2.326 . S
O131 In130 2.294 . S
O131 C140 1.240 . S
O132 In130 2.326 . S
O132 C140 1.252 . S
C133 O136 1.252 . S
C133 O137 1.260 . S
C134 O141 1.240 . S
C134 O142 1.252 . S
C135 O138 1.252 . S
C135 O139 1.260 . S
O136 In130 2.266 . S
O136 C133 1.252 . S
O137 In130 2.326 . S
O137 C133 1.260 . S
O138 In130 2.266 . S
O138 C135 1.252 . S
O139 In130 2.326 . S
O139 C135 1.260 . S
C140 O131 1.240 . S
C140 O132 1.252 . S
O141 In130 2.294 . S
O141 C134 1.240 . S
O142 In130 2.326 . S
O142 C134 1.252 . S
In143 O144 2.294 . S
In143 O145 2.326 . S
In143 O149 2.266 . S
In143 O150 2.326 1_455 S
In143 O151 2.266 1_455 S
In143 O152 2.326 . S
In143 O154 2.294 1_455 S
In143 O155 2.326 . S
O144 In143 2.294 . S
O144 C153 1.240 . S
O145 In143 2.326 . S
O145 C153 1.252 . S
C146 O149 1.252 1_655 S
C146 O150 1.260 . S
C147 O154 1.240 . S
C147 O155 1.252 1_655 S
C148 O151 1.252 . S
C148 O152 1.260 1_655 S
O149 In143 2.266 . S
O149 C146 1.252 1_455 S
O150 In143 2.326 1_655 S
O150 C146 1.260 . S
O151 In143 2.266 1_655 S
O151 C148 1.252 . S
O152 In143 2.326 . S
O152 C148 1.260 1_455 S
C153 O144 1.240 . S
C153 O145 1.252 . S
O154 In143 2.294 1_655 S
O154 C147 1.240 . S
O155 In143 2.326 . S
O155 C147 1.252 1_455 S
In156 O157 2.294 1_554 S
In156 O158 2.326 . S
In156 O162 2.266 1_554 S
In156 O163 2.326 . S
In156 O164 2.266 . S
In156 O165 2.326 1_554 S
In156 O167 2.294 . S
In156 O168 2.326 . S
O157 In156 2.294 1_556 S
O157 C166 1.240 . S
O158 In156 2.326 . S
O158 C166 1.252 1_554 S
C159 O162 1.252 1_554 S
C159 O163 1.260 . S
C160 O167 1.240 . S
C160 O168 1.252 . S
C161 O164 1.252 . S
C161 O165 1.260 1_554 S
O162 In156 2.266 1_556 S
O162 C159 1.252 1_556 S
O163 In156 2.326 . S
O163 C159 1.260 . S
O164 In156 2.266 . S
O164 C161 1.252 . S
O165 In156 2.326 1_556 S
O165 C161 1.260 1_556 S
C166 O157 1.240 . S
C166 O158 1.252 1_556 S
O167 In156 2.294 . S
O167 C160 1.240 . S
O168 In156 2.326 . S
O168 C160 1.252 . S
In169 O170 2.294 . S
In169 O171 2.326 . S
In169 O175 2.266 . S
In169 O176 2.326 . S
In169 O177 2.266 . S
In169 O178 2.326 . S
In169 O180 2.294 . S
In169 O181 2.326 . S
O170 In169 2.294 . S
O170 C179 1.240 . S
O171 In169 2.326 . S
O171 C179 1.252 . S
C172 O175 1.252 . S
C172 O176 1.260 . S
C173 O180 1.240 . S
C173 O181 1.252 . S
C174 O177 1.252 . S
C174 O178 1.260 . S
O175 In169 2.266 . S
O175 C172 1.252 . S
O176 In169 2.326 . S
O176 C172 1.260 . S
O177 In169 2.266 . S
O177 C174 1.252 . S
O178 In169 2.326 . S
O178 C174 1.260 . S
C179 O170 1.240 . S
C179 O171 1.252 . S
O180 In169 2.294 . S
O180 C173 1.240 . S
O181 In169 2.326 . S
O181 C173 1.252 . S
In182 O183 2.294 . S
In182 O184 2.326 . S
In182 O188 2.266 . S
In182 O189 2.326 . S
In182 O190 2.266 . S
In182 O191 2.326 . S
In182 O193 2.294 . S
In182 O194 2.326 . S
O183 In182 2.294 . S
O183 C192 1.240 . S
O184 In182 2.326 . S
O184 C192 1.252 . S
C185 O188 1.252 . S
C185 O189 1.260 . S
C186 O193 1.240 . S
C186 O194 1.252 . S
C187 O190 1.252 . S
C187 O191 1.260 . S
O188 In182 2.266 . S
O188 C185 1.252 . S
O189 In182 2.326 . S
O189 C185 1.260 . S
O190 In182 2.266 . S
O190 C187 1.252 . S
O191 In182 2.326 . S
O191 C187 1.260 . S
C192 O183 1.240 . S
C192 O184 1.252 . S
O193 In182 2.294 . S
O193 C186 1.240 . S
O194 In182 2.326 . S
O194 C186 1.252 . S
In195 O196 2.294 . S
In195 O197 2.326 . S
In195 O201 2.266 . S
In195 O202 2.326 . S
In195 O203 2.266 . S
In195 O204 2.326 . S
In195 O206 2.294 . S
In195 O207 2.326 . S
O196 In195 2.294 . S
O196 C205 1.240 . S
O197 In195 2.326 . S
O197 C205 1.252 . S
C198 O201 1.252 . S
C198 O202 1.260 . S
C199 O206 1.240 . S
C199 O207 1.252 . S
C200 O203 1.252 . S
C200 O204 1.260 . S
O201 In195 2.266 . S
O201 C198 1.252 . S
O202 In195 2.326 . S
O202 C198 1.260 . S
O203 In195 2.266 . S
O203 C200 1.252 . S
O204 In195 2.326 . S
O204 C200 1.260 . S
C205 O196 1.240 . S
C205 O197 1.252 . S
O206 In195 2.294 . S
O206 C199 1.240 . S
O207 In195 2.326 . S
O207 C199 1.252 . S
C208 C209 1.170 . S
C208 C210 1.380 . S
C209 C208 1.170 . S
C210 C208 1.380 . S
C210 C211 1.170 . S
C211 C210 1.170 . S
C212 C213 1.170 . S
C212 C214 1.380 . S
C213 C212 1.170 . S
C214 C212 1.380 . S
C214 C215 1.170 . S
C215 C214 1.170 . S
C216 C217 1.170 . S
C216 C218 1.380 . S
C217 C216 1.170 . S
C218 C216 1.380 . S
C218 C219 1.170 . S
C219 C218 1.170 . S
C220 C221 1.170 . S
C220 C222 1.380 . S
C221 C220 1.170 . S
C222 C220 1.380 . S
C222 C223 1.170 . S
C223 C222 1.170 . S
C224 C225 1.170 . S
C224 C226 1.380 . S
C225 C224 1.170 . S
C226 C224 1.380 . S
C226 C227 1.170 . S
C227 C226 1.170 . S
C228 C229 1.170 . S
C228 C230 1.380 . S
C229 C228 1.170 . S
C230 C228 1.380 . S
C230 C231 1.170 . S
C231 C230 1.170 . S
C232 C233 1.170 . S
C232 C234 1.380 . S
C233 C232 1.170 . S
C234 C232 1.380 . S
C234 C235 1.170 . S
C235 C234 1.170 . S
C236 C237 1.170 . S
C236 C238 1.380 . S
C237 C236 1.170 . S
C238 C236 1.380 . S
C238 C239 1.170 . S
C239 C238 1.170 . S
C240 C241 1.170 . S
C240 C242 1.380 . S
C241 C240 1.170 . S
C242 C240 1.380 . S
C242 C243 1.170 . S
C243 C242 1.170 . S
C244 C245 1.170 . S
C244 C246 1.380 . S
C245 C244 1.170 . S
C246 C244 1.380 . S
C246 C247 1.170 . S
C247 C246 1.170 . S
C248 C249 1.170 1_554 S
C248 C250 1.380 . S
C249 C248 1.170 1_556 S
C250 C248 1.380 . S
C250 C251 1.170 . S
C251 C250 1.170 . S
C252 C253 1.170 . S
C252 C254 1.380 . S
C253 C252 1.170 . S
C254 C252 1.380 . S
C254 C255 1.170 . S
C255 C254 1.170 . S
C256 C257 1.170 . S
C256 C258 1.380 . S
C257 C256 1.170 . S
C258 C256 1.380 . S
C258 C259 1.170 . S
C259 C258 1.170 . S
C260 C261 1.170 . S
C260 C262 1.380 . S
C261 C260 1.170 . S
C262 C260 1.380 . S
C262 C263 1.170 . S
C263 C262 1.170 . S
C264 C265 1.170 1_455 S
C264 C266 1.380 . S
C265 C264 1.170 1_655 S
C266 C264 1.380 . S
C266 C267 1.170 . S
C267 C266 1.170 . S
C268 C269 1.170 . S
C268 C270 1.380 1_556 S
C269 C268 1.170 . S
C270 C268 1.380 1_554 S
C270 C271 1.170 . S
C271 C270 1.170 . S
C272 C273 1.170 . S
C272 C274 1.380 . S
C273 C272 1.170 . S
C274 C272 1.380 . S
C274 C275 1.170 . S
C275 C274 1.170 . S
C276 C277 1.170 . S
C276 C278 1.380 . S
C277 C276 1.170 . S
C278 C276 1.380 . S
C278 C279 1.170 . S
C279 C278 1.170 . S
C280 C281 1.170 . S
C280 C282 1.380 . S
C281 C280 1.170 . S
C282 C280 1.380 . S
C282 C283 1.170 . S
C283 C282 1.170 . S
C284 C285 1.170 1_655 S
C284 C286 1.381 . S
C285 C284 1.170 1_455 S
C286 C284 1.381 . S
C286 C287 1.170 . S
C287 C286 1.170 . S
C288 C289 1.170 . S
C288 C290 1.380 . S
C289 C288 1.170 . S
C290 C288 1.380 . S
C290 C291 1.170 . S
C291 C290 1.170 . S
C292 C293 1.170 . S
C292 C294 1.380 . S
C293 C292 1.170 . S
C294 C292 1.380 . S
C294 C295 1.170 1_545 S
C295 C294 1.170 1_565 S
C296 C297 1.170 . S
C296 C298 1.380 . S
C297 C296 1.170 . S
C298 C296 1.380 . S
C298 C299 1.170 . S
C299 C298 1.170 . S
C300 C301 1.170 . S
C300 C302 1.380 . S
C301 C300 1.170 . S
C302 C300 1.380 . S
C302 C303 1.170 1_545 S
C303 C302 1.170 1_565 S
C304 C305 1.170 . S
C304 C306 1.380 . S
C305 C304 1.170 . S
C306 C304 1.380 . S
C306 C307 1.170 . S
C307 C306 1.170 . S
C308 C309 1.170 . S
C308 C310 1.380 . S
C309 C308 1.170 . S
C310 C308 1.380 . S
C310 C311 1.170 . S
C311 C310 1.170 . S
C312 C313 1.170 . S
C312 C314 1.380 . S
C313 C312 1.170 . S
C314 C312 1.380 . S
C314 C315 1.170 . S
C315 C314 1.170 . S
C316 C317 1.174 . S
C316 C318 1.377 1_556 S
C317 C316 1.174 . S
C318 C316 1.377 1_554 S
C318 C319 1.170 . S
C319 C318 1.170 . S
C320 C321 1.170 . S
C320 C322 1.380 . S
C321 C320 1.170 . S
C322 C320 1.380 . S
C322 C323 1.170 . S
C323 C322 1.170 . S
C324 C325 1.170 . S
C324 C326 1.380 . S
C325 C324 1.170 . S
C326 C324 1.380 . S
C326 C327 1.170 . S
C327 C326 1.170 . S
C328 C329 1.170 . S
C328 C330 1.380 . S
C329 C328 1.170 . S
C330 C328 1.380 . S
C330 C331 1.170 . S
C331 C330 1.170 . S
C332 C333 1.169 1_545 S
C332 C334 1.381 . S
C333 C332 1.169 1_565 S
C334 C332 1.381 . S
C334 C335 1.170 . S
C335 C334 1.170 . S
C209 C10 1.855 . S
C211 C95 1.855 1_554 S
C213 C17 1.851 . S
C215 C56 1.838 . S
C217 C75 1.882 . S
C219 C30 1.889 . S
C221 C49 1.889 . S
C223 C88 1.873 . S
C225 C114 1.819 . S
C227 C166 1.827 . S
C229 C121 1.852 1_554 S
C231 C186 1.896 . S
C233 C147 1.883 . S
C235 C140 1.864 . S
C237 C205 1.771 . S
C239 C173 1.768 . S
C241 C3 1.397 . S
C243 C81 1.431 . S
C245 C94 0.997 . S
C247 C23 1.025 . S
C249 C31 1.710 . S
C251 C55 1.700 . S
C253 C70 1.182 . S
C255 C44 1.248 . S
C257 C4 1.657 . S
C259 C192 1.633 . S
C261 C148 1.708 . S
C263 C16 1.696 1_655 S
C265 C179 1.566 . S
C267 C36 1.572 . S
C269 C161 1.703 1_556 S
C271 C42 1.670 . S
C273 C134 1.305 . S
C275 C57 1.315 . S
C277 C68 1.418 . S
C279 C198 1.371 . S
C281 C82 1.239 . S
C283 C107 1.254 1_455 S
C285 C96 1.348 . S
C287 C122 1.385 . S
C289 C5 1.016 . S
C291 C62 1.075 . S
C293 C108 1.094 . S
C295 C172 1.037 . S
C297 C159 1.148 . S
C299 C127 1.137 1_554 S
C301 C185 1.248 . S
C303 C135 1.212 . S
C305 C101 1.429 . S
C307 C43 1.463 . S
C309 C29 1.309 . S
C311 C83 1.202 . S
C313 C153 1.583 . S
C315 C199 1.583 . S
C317 C174 1.383 . S
C319 C133 1.409 . S
C321 C200 1.021 . S
C323 C160 1.015 . S
C325 C187 1.705 . S
C327 C109 1.697 . S
C329 C146 1.228 . S
C331 C120 1.191 . S
C333 C18 1.276 1_565 S
C335 C69 1.276 . S
