# Generated by pormake.
# Topology bcg, (8)-cn, num edge types: 1
# Building blocks:
#     Node 0, Type 0, BuildingBlock: TAGTUT_clean_sbu_3, # of connection points: 8
#     Node 1, Type 0, BuildingBlock: TAGTUT_clean_sbu_3, # of connection points: 8
#     Node 2, Type 0, BuildingBlock: TAGTUT_clean_sbu_3, # of connection points: 8
#     Node 3, Type 0, BuildingBlock: TAGTUT_clean_sbu_3, # of connection points: 8
#     Edge 4, Type (0, 0), BuildingBlock: XUDNAN_clean_linker_2, # of connection points: 2
#     Edge 5, Type (0, 0), BuildingBlock: XUDNAN_clean_linker_2, # of connection points: 2
#     Edge 6, Type (0, 0), BuildingBlock: XUDNAN_clean_linker_2, # of connection points: 2
#     Edge 7, Type (0, 0), BuildingBlock: XUDNAN_clean_linker_2, # of connection points: 2
#     Edge 8, Type (0, 0), BuildingBlock: XUDNAN_clean_linker_2, # of connection points: 2
#     Edge 9, Type (0, 0), BuildingBlock: XUDNAN_clean_linker_2, # of connection points: 2
#     Edge 10, Type (0, 0), BuildingBlock: XUDNAN_clean_linker_2, # of connection points: 2
#     Edge 11, Type (0, 0), BuildingBlock: XUDNAN_clean_linker_2, # of connection points: 2
#     Edge 12, Type (0, 0), BuildingBlock: XUDNAN_clean_linker_2, # of connection points: 2
#     Edge 13, Type (0, 0), BuildingBlock: XUDNAN_clean_linker_2, # of connection points: 2
#     Edge 14, Type (0, 0), BuildingBlock: XUDNAN_clean_linker_2, # of connection points: 2
#     Edge 15, Type (0, 0), BuildingBlock: XUDNAN_clean_linker_2, # of connection points: 2
#     Edge 16, Type (0, 0), BuildingBlock: XUDNAN_clean_linker_2, # of connection points: 2
#     Edge 17, Type (0, 0), BuildingBlock: XUDNAN_clean_linker_2, # of connection points: 2
#     Edge 18, Type (0, 0), BuildingBlock: XUDNAN_clean_linker_2, # of connection points: 2
#     Edge 19, Type (0, 0), BuildingBlock: XUDNAN_clean_linker_2, # of connection points: 2
# Relax obj value: 0.117
# Max RMSD: 0.248
# Mean RMSD: 0.248
data_MOF--net-bcg--node1-TAGTUT_clean_sbu_3--edge1-XUDNAN_clean_linker_2
_symmetry_space_group_name_H-M    P1
_symmetry_Int_Tables_number       1
_symmetry_cell_setting            triclinic
loop_
_symmetry_equiv_pos_as_xyz
'x, y, z'
_cell_length_a     14.961057
_cell_length_b     27.291584
_cell_length_c     33.151288
_cell_angle_alpha  90.594583
_cell_angle_beta   89.934787
_cell_angle_gamma 90.134536
loop_
_atom_site_label
_atom_site_type_symbol
_atom_site_fract_x
_atom_site_fract_y
_atom_site_fract_z
_atom_type_partial_charge
C0 C 0.42405 0.21584 0.01802 0.0
C1 C 0.2855 0.29362 0.15181 0.0
C2 C 0.04274 0.26416 0.09532 0.0
Mg3 Mg 0.33929 0.20109 0.92961 0.0
Mg4 Mg 0.19731 0.28143 0.89231 0.0
O5 O 0.22558 0.23955 0.93426 0.0
Mg6 Mg 0.23649 0.26374 0.99162 0.0
O7 O 0.25506 0.28187 0.04984 0.0
Mg8 Mg 0.24604 0.21545 0.07426 0.0
Mg9 Mg 0.19429 0.33371 0.07451 0.0
C10 C 0.04103 0.29984 0.95579 0.0
O11 O 0.28177 0.34357 0.97796 0.0
O12 O 0.29142 0.17205 0.86675 0.0
O13 O 0.24074 0.38902 0.03234 0.0
O14 O 0.41181 0.26494 0.8986 0.0
O15 O 0.18822 0.2261 0.84572 0.0
O16 O 0.31606 0.3238 0.88136 0.0
O17 O 0.19832 0.18788 0.011 0.0
O18 O 0.25794 0.14106 0.96248 0.0
C19 C 0.20922 0.14588 0.99418 0.0
C20 C 0.23298 0.18649 0.84117 0.0
O21 O 0.08893 0.28697 0.9861 0.0
O22 O 0.28847 0.25069 0.13547 0.0
O23 O 0.07335 0.30612 0.9202 0.0
O24 O 0.10094 0.22991 0.09385 0.0
O25 O 0.25526 0.33093 0.13315 0.0
O26 O 0.06045 0.30782 0.08408 0.0
O27 O 0.37487 0.23506 0.99128 0.0
O28 O 0.39405 0.2067 0.05339 0.0
C29 C 0.39571 0.30732 0.88413 0.0
C30 C 0.27819 0.38466 0.99753 0.0
C31 C 0.93867 0.70451 0.00917 0.0
C32 C 0.76739 0.73898 0.14825 0.0
C33 C 0.54009 0.7261 0.07744 0.0
Mg34 Mg 0.86316 0.71642 0.91828 0.0
Mg35 Mg 0.70814 0.80025 0.89441 0.0
O36 O 0.74876 0.75163 0.92886 0.0
Mg37 Mg 0.75683 0.7579 0.98874 0.0
O38 O 0.76833 0.75753 0.04866 0.0
Mg39 Mg 0.75003 0.6853 0.05758 0.0
Mg40 Mg 0.69077 0.79871 0.07666 0.0
C41 C 0.55849 0.79662 0.96251 0.0
O42 O 0.79975 0.84018 0.9915 0.0
O43 O 0.81604 0.70185 0.85266 0.0
O44 O 0.73444 0.86611 0.04916 0.0
O45 O 0.92584 0.78894 0.89748 0.0
O46 O 0.70246 0.7541 0.84141 0.0
O47 O 0.82408 0.84773 0.88758 0.0
O48 O 0.71383 0.67775 0.99061 0.0
O49 O 0.78851 0.6474 0.93809 0.0
C50 C 0.73257 0.64195 0.96694 0.0
C51 C 0.75299 0.7185 0.83057 0.0
O52 O 0.61506 0.78128 0.9882 0.0
O53 O 0.77971 0.7017 0.12484 0.0
O54 O 0.58006 0.80979 0.92661 0.0
O55 O 0.60065 0.69308 0.0756 0.0
O56 O 0.73581 0.77979 0.13596 0.0
O57 O 0.55817 0.77082 0.07017 0.0
O58 O 0.89567 0.73241 0.9855 0.0
O59 O 0.9005 0.68273 0.03882 0.0
C60 C 0.90533 0.8328 0.88753 0.0
C61 C 0.78175 0.87417 0.01754 0.0
C62 C 0.43072 0.80532 0.48156 0.0
C63 C 0.3065 0.73333 0.34129 0.0
C64 C 0.06293 0.74091 0.40028 0.0
Mg65 Mg 0.33685 0.81315 0.56818 0.0
Mg66 Mg 0.20058 0.72718 0.60198 0.0
O67 O 0.22718 0.77157 0.56147 0.0
Mg68 Mg 0.24536 0.7501 0.50373 0.0
O69 O 0.27344 0.73599 0.44524 0.0
Mg70 Mg 0.25428 0.80267 0.42281 0.0
Mg71 Mg 0.22909 0.68239 0.4172 0.0
C72 C 0.047 0.71016 0.53633 0.0
O73 O 0.29962 0.67092 0.51645 0.0
O74 O 0.2821 0.83878 0.63062 0.0
O75 O 0.27945 0.62835 0.45825 0.0
O76 O 0.41332 0.74955 0.59767 0.0
O77 O 0.18955 0.77893 0.65142 0.0
O78 O 0.32149 0.68689 0.61111 0.0
O79 O 0.19974 0.82484 0.48618 0.0
O80 O 0.25179 0.87174 0.53631 0.0
C81 C 0.20379 0.86626 0.50452 0.0
C82 C 0.22785 0.82056 0.65647 0.0
O83 O 0.09698 0.7233 0.50655 0.0
O84 O 0.30102 0.77464 0.36003 0.0
O85 O 0.07817 0.7031 0.57203 0.0
O86 O 0.1114 0.77987 0.4013 0.0
O87 O 0.28733 0.69259 0.35808 0.0
O88 O 0.09229 0.69948 0.41177 0.0
O89 O 0.38026 0.78327 0.50645 0.0
O90 O 0.40233 0.81633 0.44616 0.0
C91 C 0.39971 0.70569 0.60961 0.0
C92 C 0.30755 0.63155 0.49477 0.0
C93 C 0.93458 0.28991 0.49164 0.0
C94 C 0.76864 0.23887 0.35493 0.0
C95 C 0.53882 0.27154 0.41792 0.0
Mg96 Mg 0.86302 0.29 0.58153 0.0
Mg97 Mg 0.71458 0.20935 0.61313 0.0
O98 O 0.74223 0.25838 0.57621 0.0
Mg99 Mg 0.74297 0.24513 0.51652 0.0
O100 O 0.75306 0.23701 0.45688 0.0
Mg101 Mg 0.75187 0.30715 0.43986 0.0
Mg102 Mg 0.6763 0.19389 0.43062 0.0
C103 C 0.54917 0.20568 0.55228 0.0
O104 O 0.7774 0.16225 0.52032 0.0
O105 O 0.82277 0.31175 0.64673 0.0
O106 O 0.70883 0.12988 0.46558 0.0
O107 O 0.92837 0.2191 0.60448 0.0
O108 O 0.71986 0.25619 0.66592 0.0
O109 O 0.82723 0.16059 0.61618 0.0
O110 O 0.71136 0.32664 0.50689 0.0
O111 O 0.79212 0.35752 0.55781 0.0
C112 C 0.73633 0.36313 0.52897 0.0
C113 C 0.76753 0.2945 0.6726 0.0
O114 O 0.59442 0.22436 0.52316 0.0
O115 O 0.78438 0.27893 0.37463 0.0
O116 O 0.58425 0.19363 0.58623 0.0
O117 O 0.60327 0.30245 0.41996 0.0
O118 O 0.7303 0.20189 0.37107 0.0
O119 O 0.54828 0.2272 0.42891 0.0
O120 O 0.8854 0.26676 0.51619 0.0
O121 O 0.90302 0.30754 0.45892 0.0
C122 C 0.90829 0.17531 0.61459 0.0
C123 C 0.75549 0.12536 0.49784 0.0
H124 H 0.55894 0.26329 0.05671 0.0
H125 H 0.49939 0.16708 0.95546 0.0
H126 H 0.65124 0.18066 0.9283 0.0
H127 H 0.67536 0.34994 0.998 0.0
H128 H 0.75665 0.36587 0.03604 0.0
H129 H 0.6474 0.34455 0.05067 0.0
H130 H 0.71709 0.27425 0.09233 0.0
H131 H 0.82542 0.29778 0.07899 0.0
H132 H 0.79785 0.23434 0.06859 0.0
H133 H 0.80067 0.21001 0.90916 0.0
H134 H 0.94951 0.2465 0.90157 0.0
H135 H 0.91817 0.32343 0.01605 0.0
C136 C 0.57981 0.24334 0.0299 0.0
C137 C 0.51945 0.2127 0.00878 0.0
C138 C 0.54626 0.1894 0.9725 0.0
C139 C 0.63175 0.19736 0.95672 0.0
C140 C 0.68874 0.22923 0.97742 0.0
C141 C 0.66457 0.25157 0.01336 0.0
C142 C 0.73648 0.28688 0.02779 0.0
C143 C 0.70187 0.33994 0.02814 0.0
C144 C 0.77134 0.27234 0.06945 0.0
C145 C 0.80642 0.27942 0.99515 0.0
C146 C 0.77592 0.24685 0.96599 0.0
C147 C 0.82569 0.23526 0.93189 0.0
C148 C 0.90971 0.25686 0.92761 0.0
C149 C 0.94479 0.28852 0.9579 0.0
C150 C 0.89233 0.30003 0.99217 0.0
H151 H 0.03291 0.78712 0.99851 0.0
H152 H 0.06206 0.63073 0.01638 0.0
H153 H 0.22642 0.63917 0.0076 0.0
H154 H 0.19622 0.80008 0.92273 0.0
H155 H 0.23085 0.85982 0.9405 0.0
H156 H 0.11858 0.83847 0.94983 0.0
H157 H 0.14626 0.85481 0.02694 0.0
H158 H 0.25961 0.8734 0.01665 0.0
H159 H 0.23795 0.82428 0.05131 0.0
H160 H 0.38026 0.66359 0.98864 0.0
H161 H 0.52285 0.70231 0.97124 0.0
H162 H 0.39493 0.84484 0.96864 0.0
C163 C 0.07415 0.75467 0.00087 0.0
C164 C 0.03597 0.70809 0.00752 0.0
C165 C 0.09103 0.66652 0.01116 0.0
C166 C 0.1838 0.67108 0.00619 0.0
C167 C 0.21902 0.71756 -0.00139 0.0
C168 C 0.1662 0.75875 0.99681 0.0
C169 C 0.22016 0.80429 0.98756 0.0
C170 C 0.18964 0.82715 0.94779 0.0
C171 C 0.21575 0.84138 0.02272 0.0
C172 C 0.31205 0.78223 0.98337 0.0
C173 C 0.30928 0.7321 0.98971 0.0
C174 C 0.38383 0.70273 0.9849 0.0
C175 C 0.46402 0.72514 0.97459 0.0
C176 C 0.46926 0.77655 0.96919 0.0
C177 C 0.39228 0.8056 0.97298 0.0
H178 H 0.58115 0.78941 0.43455 0.0
H179 H 0.495 0.82665 0.55598 0.0
H180 H 0.64091 0.80166 0.58248 0.0
H181 H 0.69651 0.68872 0.45443 0.0
H182 H 0.79554 0.69638 0.42475 0.0
H183 H 0.69299 0.72502 0.40931 0.0
H184 H 0.75931 0.80963 0.40839 0.0
H185 H 0.86841 0.78898 0.42355 0.0
H186 H 0.81267 0.83519 0.45262 0.0
H187 H 0.78079 0.75698 0.59703 0.0
H188 H 0.92969 0.72043 0.59882 0.0
H189 H 0.94041 0.72163 0.46774 0.0
C190 C 0.59454 0.79456 0.46641 0.0
C191 C 0.52594 0.80929 0.49329 0.0
C192 C 0.54584 0.81471 0.5349 0.0
C193 C 0.62855 0.80038 0.55033 0.0
C194 C 0.69211 0.78212 0.52358 0.0
C195 C 0.67821 0.78148 0.4824 0.0
C196 C 0.75951 0.761 0.46066 0.0
C197 C 0.73462 0.71516 0.43573 0.0
C198 C 0.80236 0.801 0.43467 0.0
C199 C 0.81916 0.74799 0.49612 0.0
C200 C 0.7776 0.75988 0.53207 0.0
C201 C 0.81519 0.74857 0.56909 0.0
C202 C 0.89996 0.72709 0.56963 0.0
C203 C 0.94849 0.71835 0.53337 0.0
C204 C 0.90595 0.72791 0.496 0.0
H205 H 0.0743 0.25124 0.44926 0.0
H206 H 0.00504 0.32989 0.55909 0.0
H207 H 0.15144 0.30907 0.58835 0.0
H208 H 0.18708 0.15432 0.49783 0.0
H209 H 0.27309 0.147 0.46019 0.0
H210 H 0.16489 0.17014 0.44615 0.0
H211 H 0.23705 0.24897 0.41668 0.0
H212 H 0.34397 0.22325 0.4291 0.0
H213 H 0.31448 0.28371 0.44743 0.0
H214 H 0.29398 0.27121 0.60875 0.0
H215 H 0.44643 0.23852 0.61344 0.0
H216 H 0.43282 0.18991 0.48848 0.0
C217 C 0.09203 0.26598 0.47865 0.0
C218 C 0.02956 0.29279 0.50184 0.0
C219 C 0.05287 0.30975 0.54088 0.0
C220 C 0.13521 0.2976 0.55788 0.0
C221 C 0.19344 0.26869 0.53523 0.0
C222 C 0.17448 0.25432 0.49607 0.0
C223 C 0.24919 0.22311 0.47874 0.0
C224 C 0.21657 0.17053 0.47021 0.0
C225 C 0.2885 0.24631 0.44071 0.0
C226 C 0.31481 0.22425 0.5136 0.0
C227 C 0.27896 0.24886 0.54644 0.0
C228 C 0.32364 0.2526 0.58306 0.0
C229 C 0.40981 0.23329 0.58554 0.0
C230 C 0.4514 0.21183 0.55126 0.0
C231 C 0.40248 0.20621 0.51505 0.0
H232 H 0.61903 0.60847 0.02669 0.0
H233 H 0.7087 0.57769 0.90434 0.0
H234 H 0.59426 0.51338 0.89764 0.0
H235 H 0.57876 0.48001 0.0507 0.0
H236 H 0.48303 0.49287 0.08207 0.0
H237 H 0.5709 0.5377 0.07751 0.0
H238 H 0.45582 0.60383 0.05205 0.0
H239 H 0.3711 0.55818 0.0611 0.0
H240 H 0.37955 0.58572 0.01234 0.0
H241 H 0.46376 0.45677 0.90182 0.0
H242 H 0.34332 0.39992 0.92143 0.0
H243 H 0.34396 0.46218 0.04227 0.0
C244 C 0.6151 0.58786 -0.00133 0.0
C245 C 0.67299 0.59838 0.96605 0.0
C246 C 0.66588 0.57028 0.92994 0.0
C247 C 0.6003 0.53394 0.92561 0.0
C248 C 0.54285 0.52547 0.95781 0.0
C249 C 0.55073 0.55069 0.99401 0.0
C250 C 0.48367 0.53191 0.02464 0.0
C251 C 0.53199 0.50926 0.06086 0.0
C252 C 0.4189 0.57244 0.03836 0.0
C253 C 0.43575 0.49316 -0.00047 0.0
C254 C 0.47041 0.49052 0.96097 0.0
C255 C 0.43678 0.45797 0.93211 0.0
C256 C 0.36829 0.42579 0.94345 0.0
C257 C 0.33468 0.42587 0.98335 0.0
C258 C 0.3674 0.46119 0.01136 0.0
H259 H 0.65006 0.40974 0.46635 0.0
H260 H 0.69405 0.41664 0.59572 0.0
H261 H 0.58726 0.48466 0.60167 0.0
H262 H 0.63112 0.54651 0.45721 0.0
H263 H 0.55032 0.5411 0.41712 0.0
H264 H 0.63453 0.49466 0.42313 0.0
H265 H 0.51104 0.43068 0.42554 0.0
H266 H 0.42337 0.47539 0.42253 0.0
H267 H 0.4256 0.4332 0.46409 0.0
H268 H 0.46709 0.54852 0.59455 0.0
H269 H 0.35419 0.60888 0.57296 0.0
H270 H 0.39372 0.56317 0.44853 0.0
C271 C 0.63809 0.42614 0.49575 0.0
C272 C 0.68057 0.40788 0.53046 0.0
C273 C 0.6632 0.4303 0.56853 0.0
C274 C 0.60213 0.46885 0.57235 0.0
C275 C 0.56014 0.48548 0.53775 0.0
C276 C 0.57902 0.4658 0.50004 0.0
C277 C 0.52629 0.49163 0.46766 0.0
C278 C 0.58931 0.52018 0.43964 0.0
C279 C 0.4678 0.45552 0.4436 0.0
C280 C 0.47064 0.52622 0.49332 0.0
C281 C 0.49209 0.52278 0.53363 0.0
C282 C 0.45026 0.55181 0.56295 0.0
C283 C 0.38629 0.5861 0.55049 0.0
C284 C 0.36485 0.59105 0.50919 0.0
C285 C 0.40707 0.55999 0.48049 0.0
H286 H 0.16665 0.06173 0.95122 0.0
H287 H 0.11033 0.14001 0.06311 0.0
H288 H 0.98745 0.08271 0.0773 0.0
H289 H 0.93931 0.03726 0.92599 0.0
H290 H 0.95785 0.97671 0.90567 0.0
H291 H 0.04544 0.02201 0.90336 0.0
H292 H 0.15531 0.9657 0.9416 0.0
H293 H 0.06937 0.91953 0.94083 0.0
H294 H 0.11966 0.93797 0.9881 0.0
H295 H 0.86523 0.0219 0.07737 0.0
H296 H 0.76683 0.95048 0.07084 0.0
H297 H 0.90476 0.90671 0.96068 0.0
C298 C 0.12993 0.06613 0.97918 0.0
C299 C 0.14819 0.10564 0.00604 0.0
C300 C 0.09749 0.11037 0.04198 0.0
C301 C 0.02714 0.07812 0.05021 0.0
C302 C 0.00856 0.04098 0.02237 0.0
C303 C 0.05942 0.03398 0.98803 0.0
C304 C 0.02466 0.99077 0.96332 0.0
C305 C 0.9898 0.00773 0.92214 0.0
C306 C 0.09664 0.95113 0.95825 0.0
C307 C 0.94835 0.97364 0.98998 0.0
C308 C 0.93902 0.00423 0.02319 0.0
C309 C 0.87249 0.99723 0.05181 0.0
C310 C 0.81651 0.95646 0.04761 0.0
C311 C 0.8283 0.92228 0.01546 0.0
C312 C 0.89375 0.93193 0.9856 0.0
H313 H 0.90532 0.10521 0.54315 0.0
H314 H 0.70817 0.03755 0.46405 0.0
H315 H 0.8036 0.96478 0.45702 0.0
H316 H 0.09254 0.06853 0.49269 0.0
H317 H 0.16064 0.05472 0.53591 0.0
H318 H 0.07222 0.09904 0.5403 0.0
H319 H -0.00029 0.05023 0.59887 0.0
H320 H 0.09085 0.00737 0.59559 0.0
H321 H 0.97708 0.98588 0.59201 0.0
H322 H 0.92877 0.90654 0.44884 0.0
H323 H 0.06334 0.85561 0.45249 0.0
H324 H 0.17929 0.95783 0.53938 0.0
C325 C 0.88044 0.07431 0.52574 0.0
C326 C 0.79926 0.07735 0.50397 0.0
C327 C 0.77013 0.03631 0.48089 0.0
C328 C 0.8241 0.99482 0.4765 0.0
C329 C 0.90632 0.99444 0.49601 0.0
C330 C 0.93327 0.03218 0.52135 0.0
C331 C 0.0263 0.02271 0.53779 0.0
C332 C 0.09175 0.06368 0.52595 0.0
C333 C 0.02332 0.01614 0.58379 0.0
C334 C 0.04846 0.97486 0.51633 0.0
C335 C 0.97823 0.95947 0.49232 0.0
C336 C 0.98356 0.91756 0.46821 0.0
C337 C 0.06111 0.88917 0.47014 0.0
C338 C 0.13233 0.90243 0.49635 0.0
C339 C 0.12633 0.94658 0.51904 0.0
H340 H 0.46971 0.20798 0.36337 0.0
H341 H 0.45463 0.35874 0.40414 0.0
H342 H 0.37421 0.38047 0.34152 0.0
H343 H 0.52807 0.23252 0.26853 0.0
H344 H 0.46683 0.18366 0.24406 0.0
H345 H 0.50223 0.17723 0.29549 0.0
H346 H 0.33928 0.16115 0.31855 0.0
H347 H 0.30313 0.16574 0.26687 0.0
H348 H 0.25265 0.20385 0.30531 0.0
H349 H 0.32043 0.3873 0.26975 0.0
H350 H 0.28547 0.37829 0.19736 0.0
H351 H 0.34181 0.22248 0.20375 0.0
C352 C 0.44543 0.2451 0.36018 0.0
C353 C 0.46732 0.28191 0.38875 0.0
C354 C 0.43779 0.33035 0.38261 0.0
C355 C 0.39219 0.34278 0.34718 0.0
C356 C 0.37683 0.30607 0.31838 0.0
C357 C 0.40123 0.25799 0.32489 0.0
C358 C 0.38777 0.2265 0.28757 0.0
C359 C 0.47648 0.20368 0.27309 0.0
C360 C 0.31643 0.18698 0.29502 0.0
C361 C 0.35483 0.26465 0.2585 0.0
C362 C 0.34795 0.31019 0.27687 0.0
C363 C 0.32397 0.35162 0.25528 0.0
C364 C 0.30502 0.34616 0.21405 0.0
C365 C 0.31091 0.29963 0.19473 0.0
C366 C 0.33641 0.25853 0.21748 0.0
H367 H 0.51724 0.65362 0.13224 0.0
H368 H 0.3861 0.78004 0.08099 0.0
H369 H 0.29412 0.78839 0.14234 0.0
H370 H 0.31781 0.61001 0.19826 0.0
H371 H 0.39519 0.59305 0.23733 0.0
H372 H 0.42693 0.58701 0.18501 0.0
H373 H 0.567 0.63972 0.19997 0.0
H374 H 0.5343 0.64843 0.25164 0.0
H375 H 0.55372 0.70087 0.22019 0.0
H376 H 0.25507 0.79926 0.2146 0.0
H377 H 0.24373 0.80056 0.28883 0.0
H378 H 0.39784 0.66642 0.29434 0.0
C379 C 0.46517 0.68111 0.13276 0.0
C380 C 0.4595 0.71656 0.10204 0.0
C381 C 0.3917 0.75259 0.10424 0.0
C382 C 0.33954 0.75778 0.13916 0.0
C383 C 0.35475 0.72594 0.17107 0.0
C384 C 0.41351 0.68706 0.16767 0.0
C385 C 0.42719 0.66243 0.20805 0.0
C386 C 0.38949 0.61001 0.20711 0.0
C387 C 0.52638 0.66295 0.22066 0.0
C388 C 0.3719 0.69553 0.23513 0.0
C389 C 0.33022 0.73171 0.21314 0.0
C390 C 0.28486 0.77018 0.23195 0.0
C391 C 0.28015 0.77108 0.27416 0.0
C392 C 0.32011 0.73361 0.29719 0.0
C393 C 0.36594 0.69518 0.27735 0.0
H394 H 0.39128 0.65219 0.6772 0.0
H395 H 0.57575 0.70679 0.58771 0.0
H396 H 0.70205 0.6903 0.63334 0.0
H397 H 0.46725 0.7151 0.74981 0.0
H398 H 0.45545 0.67246 0.79067 0.0
H399 H 0.38638 0.66605 0.74699 0.0
H400 H 0.44123 0.57701 0.73584 0.0
H401 H 0.50991 0.58269 0.78035 0.0
H402 H 0.5593 0.56447 0.73291 0.0
H403 H 0.79787 0.69466 0.6935 0.0
H404 H 0.8521 0.71858 0.76151 0.0
H405 H 0.60475 0.6671 0.81376 0.0
C406 C 0.45888 0.6576 0.6664 0.0
C407 C 0.47441 0.68031 0.62911 0.0
C408 C 0.56302 0.68908 0.61624 0.0
C409 C 0.63509 0.67965 0.64195 0.0
C410 C 0.61716 0.6617 0.68039 0.0
C411 C 0.53092 0.64993 0.69237 0.0
C412 C 0.52566 0.64257 0.73752 0.0
C413 C 0.45464 0.67608 0.75734 0.0
C414 C 0.50802 0.58846 0.74722 0.0
C415 C 0.61945 0.65734 0.74951 0.0
C416 C 0.67269 0.66585 0.71611 0.0
C417 C 0.758 0.68643 0.71984 0.0
C418 C 0.7883 0.70007 0.75843 0.0
C419 C 0.7324 0.69392 0.79229 0.0
C420 C 0.64874 0.67093 0.78799 0.0
H421 H 0.57104 0.28139 0.8824 0.0
H422 H 0.38721 0.3918 0.83976 0.0
H423 H 0.49961 0.4192 0.79069 0.0
H424 H 0.79596 0.35357 0.84766 0.0
H425 H 0.8411 0.29315 0.83907 0.0
H426 H 0.7648 0.30457 0.88045 0.0
H427 H 0.67305 0.23003 0.85024 0.0
H428 H 0.74427 0.22568 0.8071 0.0
H429 H 0.62617 0.23598 0.80035 0.0
H430 H 0.60573 0.41697 0.73409 0.0
H431 H 0.68654 0.38251 0.67543 0.0
H432 H 0.79449 0.26818 0.75016 0.0
C433 C 0.55608 0.31287 0.86402 0.0
C434 C 0.47007 0.33401 0.86456 0.0
C435 C 0.45264 0.37492 0.83993 0.0
C436 C 0.51659 0.39099 0.81204 0.0
C437 C 0.59792 0.36614 0.80946 0.0
C438 C 0.61854 0.32845 0.83549 0.0
C439 C 0.70076 0.3008 0.82148 0.0
C440 C 0.78056 0.31371 0.84872 0.0
C441 C 0.68489 0.24489 0.81962 0.0
C442 C 0.71313 0.32282 0.78018 0.0
C443 C 0.65822 0.36316 0.77519 0.0
C444 C 0.65091 0.3865 0.73809 0.0
C445 C 0.69696 0.36673 0.70491 0.0
C446 C 0.74704 0.32328 0.70892 0.0
C447 C 0.75807 0.30218 0.7471 0.0
H448 H -0.00028 0.81342 0.35168 0.0
H449 H 0.94451 0.66534 0.39138 0.0
H450 H 0.83886 0.65418 0.33553 0.0
H451 H 0.76523 0.8373 0.30618 0.0
H452 H 0.81578 0.87102 0.26558 0.0
H453 H 0.86497 0.8729 0.31523 0.0
H454 H 0.01552 0.84454 0.28442 0.0
H455 H 0.96697 0.84092 0.23503 0.0
H456 H 0.02 0.78779 0.25615 0.0
H457 H 0.77729 0.64996 0.26704 0.0
H458 H 0.74447 0.65802 0.1944 0.0
H459 H 0.83374 0.80922 0.19881 0.0
C460 C 0.96197 0.77958 0.34986 0.0
C461 C 0.98053 0.74031 0.37591 0.0
C462 C 0.93152 0.69606 0.37183 0.0
C463 C 0.87094 0.68936 0.34022 0.0
C464 C 0.85931 0.72743 0.3132 0.0
C465 C 0.90146 0.77227 0.31826 0.0
C466 C 0.88796 0.80447 0.28188 0.0
C467 C 0.83 0.84906 0.29287 0.0
C468 C 0.97794 0.82029 0.2633 0.0
C469 C 0.8382 0.76925 0.25441 0.0
C470 C 0.82105 0.72528 0.27329 0.0
C471 C 0.78735 0.68474 0.25231 0.0
C472 C 0.77019 0.68938 0.21103 0.0
C473 C 0.78629 0.73428 0.19142 0.0
C474 C 0.8193 0.77483 0.21351 0.0
H475 H 0.82745 0.31241 0.30516 0.0
H476 H 0.75865 0.1577 0.30596 0.0
H477 H 0.79348 0.15161 0.23357 0.0
H478 H 0.74328 0.33683 0.20134 0.0
H479 H 0.83376 0.37853 0.19085 0.0
H480 H 0.79226 0.37263 0.24167 0.0
H481 H 0.95184 0.35166 0.2669 0.0
H482 H 0.99351 0.35858 0.21647 0.0
H483 H 0.01233 0.30221 0.24297 0.0
H484 H 0.85642 0.1589 0.16459 0.0
H485 H 0.95023 0.1788 0.10561 0.0
H486 H 0.96881 0.32951 0.14736 0.0
C487 C 0.81881 0.27736 0.29005 0.0
C488 C 0.79058 0.23557 0.31141 0.0
C489 C 0.78028 0.19035 0.2904 0.0
C490 C 0.7991 0.18654 0.24911 0.0
C491 C 0.82687 0.22839 0.22898 0.0
C492 C 0.83654 0.27298 0.2487 0.0
C493 C 0.87504 0.31129 0.22091 0.0
C494 C 0.807 0.35224 0.21325 0.0
C495 C 0.9634 0.33211 0.23781 0.0
C496 C 0.89005 0.28057 0.18321 0.0
C497 C 0.86026 0.23303 0.18821 0.0
C498 C 0.87774 0.19629 0.15975 0.0
C499 C 0.93082 0.20789 0.1263 0.0
C500 C 0.96484 0.25589 0.12151 0.0
C501 C 0.94065 0.29302 0.14939 0.0
H502 H 0.08425 0.13528 0.82274 0.0
H503 H 0.34173 0.17868 0.77591 0.0
H504 H 0.2946 0.15359 0.70728 0.0
H505 H 0.04136 0.03045 0.74175 0.0
H506 H 0.92422 0.04568 0.74165 0.0
H507 H 0.98781 0.05041 0.78775 0.0
H508 H 0.93912 0.14101 0.79617 0.0
H509 H 0.87563 0.13662 0.75067 0.0
H510 H 0.9604 0.18334 0.75582 0.0
H511 H 0.20565 0.1522 0.64495 0.0
H512 H 0.08655 0.17154 0.5964 0.0
H513 H 0.88768 0.1207 0.68114 0.0
C514 C 0.13201 0.13654 0.7982 0.0
C515 C 0.21676 0.15781 0.80423 0.0
C516 C 0.27728 0.16118 0.77171 0.0
C517 C 0.25091 0.14696 0.73269 0.0
C518 C 0.16458 0.12847 0.72705 0.0
C519 C 0.10677 0.12183 0.75925 0.0
C520 C 0.01339 0.10927 0.74484 0.0
C521 C 0.99034 0.05577 0.75457 0.0
C522 C 0.9432 0.1447 0.7629 0.0
C523 C 0.02484 0.11597 0.69981 0.0
C524 C 0.11324 0.12537 0.68991 0.0
C525 C 0.13708 0.14275 0.65187 0.0
C526 C 0.06899 0.15365 0.62436 0.0
C527 C 0.97825 0.14672 0.63489 0.0
C528 C 0.95675 0.12449 0.67187 0.0
H529 H 0.2658 0.79387 0.73241 0.0
H530 H 0.13657 0.9065 0.663 0.0
H531 H 0.06798 0.94016 0.72538 0.0
H532 H 0.10065 0.76272 0.78867 0.0
H533 H 0.15946 0.75315 0.8354 0.0
H534 H 0.21852 0.74884 0.78865 0.0
H535 H 0.33103 0.81532 0.81341 0.0
H536 H 0.27183 0.81883 0.86066 0.0
H537 H 0.28997 0.87348 0.83177 0.0
H538 H 0.98126 0.94502 0.78944 0.0
H539 H 0.88572 0.91931 0.846 0.0
H540 H 0.07839 0.80741 0.87602 0.0
C541 C 0.22669 0.82715 0.73098 0.0
C542 C 0.20693 0.84817 0.69351 0.0
C543 C 0.15361 0.89071 0.69184 0.0
C544 C 0.11476 0.9101 0.72715 0.0
C545 C 0.13214 0.8872 0.76384 0.0
C546 C 0.18892 0.84725 0.76602 0.0
C547 C 0.18638 0.82442 0.80736 0.0
C548 C 0.16481 0.7691 0.80481 0.0
C549 C 0.27501 0.8336 0.82963 0.0
C550 C 0.11113 0.85361 0.82646 0.0
C551 C 0.08305 0.89105 0.80165 0.0
C552 C 0.00447 0.91698 0.80972 0.0
C553 C 0.95033 0.9021 0.84208 0.0
C554 C 0.9746 0.86128 0.86567 0.0
C555 C 0.05907 0.83948 0.85934 0.0
loop_
_geom_bond_atom_site_label_1
_geom_bond_atom_site_label_2
_geom_bond_distance
_geom_bond_site_symmetry_2
_ccdc_geom_bond_type
C0 O27 1.312 1_554 S
C0 O28 1.208 . S
C1 O22 1.331 . S
C1 O25 1.244 . S
C2 O24 1.264 . S
C2 O26 1.273 . S
Mg3 O5 1.936 . S
Mg3 O12 2.081 . S
Mg3 O14 2.023 . S
Mg3 O18 2.031 . S
Mg3 O27 2.291 . S
Mg4 O5 1.963 . S
Mg4 O15 1.942 . S
Mg4 O16 1.955 . S
Mg4 O23 1.986 . S
O5 Mg3 1.936 . S
O5 Mg4 1.963 . S
O5 Mg6 1.915 1_556 S
Mg6 O5 1.915 1_554 S
Mg6 O7 1.915 . S
Mg6 O11 2.013 1_554 S
Mg6 O17 2.114 . S
Mg6 O21 2.013 . S
Mg6 O27 2.114 1_554 S
O7 Mg6 1.915 . S
O7 Mg8 1.936 . S
O7 Mg9 1.963 . S
Mg8 O7 1.936 . S
Mg8 O17 2.291 . S
Mg8 O22 2.081 . S
Mg8 O24 2.023 . S
Mg8 O28 2.031 . S
Mg9 O7 1.963 . S
Mg9 O13 1.986 . S
Mg9 O25 1.942 . S
Mg9 O26 1.955 . S
C10 O21 1.191 1_556 S
C10 O23 1.307 . S
O11 Mg6 2.013 1_556 S
O11 C30 1.191 1_556 S
O12 Mg3 2.081 . S
O12 C20 1.331 . S
O13 Mg9 1.986 . S
O13 C30 1.307 . S
O14 Mg3 2.023 . S
O14 C29 1.264 . S
O15 Mg4 1.942 . S
O15 C20 1.244 . S
O16 Mg4 1.955 . S
O16 C29 1.273 . S
O17 Mg6 2.114 . S
O17 Mg8 2.291 . S
O17 C19 1.312 1_554 S
O18 Mg3 2.031 . S
O18 C19 1.208 . S
C19 O17 1.312 1_556 S
C19 O18 1.208 . S
C20 O12 1.331 . S
C20 O15 1.244 . S
O21 Mg6 2.013 . S
O21 C10 1.191 1_554 S
O22 C1 1.331 . S
O22 Mg8 2.081 . S
O23 Mg4 1.986 . S
O23 C10 1.307 . S
O24 C2 1.264 . S
O24 Mg8 2.023 . S
O25 C1 1.244 . S
O25 Mg9 1.942 . S
O26 C2 1.273 . S
O26 Mg9 1.955 . S
O27 C0 1.312 1_556 S
O27 Mg3 2.291 . S
O27 Mg6 2.114 1_556 S
O28 C0 1.208 . S
O28 Mg8 2.031 . S
C29 O14 1.264 . S
C29 O16 1.273 . S
C30 O11 1.191 1_554 S
C30 O13 1.307 . S
C31 O58 1.312 1_554 S
C31 O59 1.208 . S
C32 O53 1.331 . S
C32 O56 1.244 . S
C33 O55 1.264 . S
C33 O57 1.273 . S
Mg34 O36 1.936 . S
Mg34 O43 2.081 . S
Mg34 O45 2.023 . S
Mg34 O49 2.031 . S
Mg34 O58 2.291 . S
Mg35 O36 1.963 . S
Mg35 O46 1.942 . S
Mg35 O47 1.955 . S
Mg35 O54 1.986 . S
O36 Mg34 1.936 . S
O36 Mg35 1.963 . S
O36 Mg37 1.915 1_556 S
Mg37 O36 1.915 1_554 S
Mg37 O38 1.915 . S
Mg37 O42 2.013 1_554 S
Mg37 O48 2.114 . S
Mg37 O52 2.013 . S
Mg37 O58 2.114 1_554 S
O38 Mg37 1.915 . S
O38 Mg39 1.936 . S
O38 Mg40 1.963 . S
Mg39 O38 1.936 . S
Mg39 O48 2.291 . S
Mg39 O53 2.081 . S
Mg39 O55 2.023 . S
Mg39 O59 2.031 . S
Mg40 O38 1.963 . S
Mg40 O44 1.986 . S
Mg40 O56 1.942 . S
Mg40 O57 1.955 . S
C41 O52 1.191 1_556 S
C41 O54 1.307 . S
O42 Mg37 2.013 1_556 S
O42 C61 1.191 1_556 S
O43 Mg34 2.081 . S
O43 C51 1.331 . S
O44 Mg40 1.986 . S
O44 C61 1.307 . S
O45 Mg34 2.023 . S
O45 C60 1.264 . S
O46 Mg35 1.942 . S
O46 C51 1.244 . S
O47 Mg35 1.955 . S
O47 C60 1.273 . S
O48 Mg37 2.114 . S
O48 Mg39 2.291 . S
O48 C50 1.312 1_554 S
O49 Mg34 2.031 . S
O49 C50 1.208 . S
C50 O48 1.312 1_556 S
C50 O49 1.208 . S
C51 O43 1.331 . S
C51 O46 1.244 . S
O52 Mg37 2.013 . S
O52 C41 1.191 1_554 S
O53 C32 1.331 . S
O53 Mg39 2.081 . S
O54 Mg35 1.986 . S
O54 C41 1.307 . S
O55 C33 1.264 . S
O55 Mg39 2.023 . S
O56 C32 1.244 . S
O56 Mg40 1.942 . S
O57 C33 1.273 . S
O57 Mg40 1.955 . S
O58 C31 1.312 1_556 S
O58 Mg34 2.291 . S
O58 Mg37 2.114 1_556 S
O59 C31 1.208 . S
O59 Mg39 2.031 . S
C60 O45 1.264 . S
C60 O47 1.273 . S
C61 O42 1.191 1_554 S
C61 O44 1.307 . S
C62 O89 1.312 . S
C62 O90 1.208 . S
C63 O84 1.331 . S
C63 O87 1.244 . S
C64 O86 1.264 . S
C64 O88 1.273 . S
Mg65 O67 1.936 . S
Mg65 O74 2.081 . S
Mg65 O76 2.023 . S
Mg65 O80 2.031 . S
Mg65 O89 2.291 . S
Mg66 O67 1.963 . S
Mg66 O77 1.942 . S
Mg66 O78 1.955 . S
Mg66 O85 1.986 . S
O67 Mg65 1.936 . S
O67 Mg66 1.963 . S
O67 Mg68 1.915 . S
Mg68 O67 1.915 . S
Mg68 O69 1.915 . S
Mg68 O73 2.013 . S
Mg68 O79 2.114 . S
Mg68 O83 2.013 . S
Mg68 O89 2.114 . S
O69 Mg68 1.915 . S
O69 Mg70 1.936 . S
O69 Mg71 1.963 . S
Mg70 O69 1.936 . S
Mg70 O79 2.291 . S
Mg70 O84 2.081 . S
Mg70 O86 2.023 . S
Mg70 O90 2.031 . S
Mg71 O69 1.963 . S
Mg71 O75 1.986 . S
Mg71 O87 1.942 . S
Mg71 O88 1.955 . S
C72 O83 1.191 . S
C72 O85 1.307 . S
O73 Mg68 2.013 . S
O73 C92 1.191 . S
O74 Mg65 2.081 . S
O74 C82 1.331 . S
O75 Mg71 1.986 . S
O75 C92 1.307 . S
O76 Mg65 2.023 . S
O76 C91 1.264 . S
O77 Mg66 1.942 . S
O77 C82 1.244 . S
O78 Mg66 1.955 . S
O78 C91 1.273 . S
O79 Mg68 2.114 . S
O79 Mg70 2.291 . S
O79 C81 1.312 . S
O80 Mg65 2.031 . S
O80 C81 1.208 . S
C81 O79 1.312 . S
C81 O80 1.208 . S
C82 O74 1.331 . S
C82 O77 1.244 . S
O83 Mg68 2.013 . S
O83 C72 1.191 . S
O84 C63 1.331 . S
O84 Mg70 2.081 . S
O85 Mg66 1.986 . S
O85 C72 1.307 . S
O86 C64 1.264 . S
O86 Mg70 2.023 . S
O87 C63 1.244 . S
O87 Mg71 1.942 . S
O88 C64 1.273 . S
O88 Mg71 1.955 . S
O89 C62 1.312 . S
O89 Mg65 2.291 . S
O89 Mg68 2.114 . S
O90 C62 1.208 . S
O90 Mg70 2.031 . S
C91 O76 1.264 . S
C91 O78 1.273 . S
C92 O73 1.191 . S
C92 O75 1.307 . S
C93 O120 1.312 . S
C93 O121 1.208 . S
C94 O115 1.331 . S
C94 O118 1.244 . S
C95 O117 1.264 . S
C95 O119 1.273 . S
Mg96 O98 1.936 . S
Mg96 O105 2.081 . S
Mg96 O107 2.023 . S
Mg96 O111 2.031 . S
Mg96 O120 2.291 . S
Mg97 O98 1.963 . S
Mg97 O108 1.942 . S
Mg97 O109 1.955 . S
Mg97 O116 1.986 . S
O98 Mg96 1.936 . S
O98 Mg97 1.963 . S
O98 Mg99 1.915 . S
Mg99 O98 1.915 . S
Mg99 O100 1.915 . S
Mg99 O104 2.013 . S
Mg99 O110 2.114 . S
Mg99 O114 2.013 . S
Mg99 O120 2.114 . S
O100 Mg99 1.915 . S
O100 Mg101 1.936 . S
O100 Mg102 1.963 . S
Mg101 O100 1.936 . S
Mg101 O110 2.291 . S
Mg101 O115 2.081 . S
Mg101 O117 2.023 . S
Mg101 O121 2.031 . S
Mg102 O100 1.963 . S
Mg102 O106 1.986 . S
Mg102 O118 1.942 . S
Mg102 O119 1.955 . S
C103 O114 1.191 . S
C103 O116 1.307 . S
O104 Mg99 2.013 . S
O104 C123 1.191 . S
O105 Mg96 2.081 . S
O105 C113 1.331 . S
O106 Mg102 1.986 . S
O106 C123 1.307 . S
O107 Mg96 2.023 . S
O107 C122 1.264 . S
O108 Mg97 1.942 . S
O108 C113 1.244 . S
O109 Mg97 1.955 . S
O109 C122 1.273 . S
O110 Mg99 2.114 . S
O110 Mg101 2.291 . S
O110 C112 1.312 . S
O111 Mg96 2.031 . S
O111 C112 1.208 . S
C112 O110 1.312 . S
C112 O111 1.208 . S
C113 O105 1.331 . S
C113 O108 1.244 . S
O114 Mg99 2.013 . S
O114 C103 1.191 . S
O115 C94 1.331 . S
O115 Mg101 2.081 . S
O116 Mg97 1.986 . S
O116 C103 1.307 . S
O117 C95 1.264 . S
O117 Mg101 2.023 . S
O118 C94 1.244 . S
O118 Mg102 1.942 . S
O119 C95 1.273 . S
O119 Mg102 1.955 . S
O120 C93 1.312 . S
O120 Mg96 2.291 . S
O120 Mg99 2.114 . S
O121 C93 1.208 . S
O121 Mg101 2.031 . S
C122 O107 1.264 . S
C122 O109 1.273 . S
C123 O104 1.191 . S
C123 O106 1.307 . S
H124 C136 0.930 . S
H125 C138 0.930 . S
H126 C139 0.930 . S
H127 C143 0.959 . S
H128 C143 0.959 . S
H129 C143 0.961 . S
H130 C144 0.960 . S
H131 C144 0.961 . S
H132 C144 0.959 . S
H133 C147 0.929 . S
H134 C148 0.931 . S
H135 C150 0.930 . S
C136 H124 0.930 . S
C136 C137 1.399 1_554 S
C136 C141 1.399 . S
C137 C136 1.399 1_556 S
C137 C138 1.376 . S
C138 H125 0.930 . S
C138 C137 1.376 . S
C138 C139 1.388 . S
C139 H126 0.930 . S
C139 C138 1.388 . S
C139 C140 1.390 . S
C140 C139 1.390 . S
C140 C141 1.394 1_556 S
C140 C146 1.465 . S
C141 C136 1.399 . S
C141 C140 1.394 1_554 S
C141 C142 1.516 . S
C142 C141 1.516 . S
C142 C143 1.502 . S
C142 C144 1.561 . S
C142 C145 1.526 . S
C143 H127 0.959 . S
C143 H128 0.959 . S
C143 H129 0.961 . S
C143 C142 1.502 . S
C144 H130 0.960 . S
C144 H131 0.961 . S
C144 H132 0.959 . S
C144 C142 1.561 . S
C145 C142 1.526 . S
C145 C146 1.396 1_554 S
C145 C150 1.390 . S
C146 C140 1.465 . S
C146 C145 1.396 1_556 S
C146 C147 1.399 . S
C147 H133 0.929 . S
C147 C146 1.399 . S
C147 C148 1.385 . S
C148 H134 0.931 . S
C148 C147 1.385 . S
C148 C149 1.389 . S
C149 C148 1.389 . S
C149 C150 1.387 1_556 S
C150 H135 0.930 . S
C150 C145 1.390 . S
C150 C149 1.387 1_554 S
H151 C163 0.930 . S
H152 C165 0.930 . S
H153 C166 0.930 . S
H154 C170 0.959 1_556 S
H155 C170 0.959 . S
H156 C170 0.961 . S
H157 C171 0.960 . S
H158 C171 0.961 . S
H159 C171 0.959 . S
H160 C174 0.929 . S
H161 C175 0.931 . S
H162 C177 0.930 . S
C163 H151 0.930 . S
C163 C164 1.407 . S
C163 C168 1.399 . S
C164 C163 1.407 . S
C164 C165 1.367 1_554 S
C165 H152 0.930 . S
C165 C164 1.367 1_556 S
C165 C166 1.388 . S
C166 H153 0.930 . S
C166 C165 1.388 . S
C166 C167 1.390 . S
C167 C166 1.390 . S
C167 C168 1.394 1_556 S
C167 C173 1.465 . S
C168 C163 1.399 . S
C168 C167 1.394 1_554 S
C168 C169 1.516 . S
C169 C168 1.516 . S
C169 C170 1.502 . S
C169 C171 1.561 . S
C169 C172 1.526 . S
C170 H154 0.959 1_554 S
C170 H155 0.959 . S
C170 H156 0.961 . S
C170 C169 1.502 . S
C171 H157 0.960 . S
C171 H158 0.961 . S
C171 H159 0.959 . S
C171 C169 1.561 . S
C172 C169 1.526 . S
C172 C173 1.396 1_554 S
C172 C177 1.390 . S
C173 C167 1.465 . S
C173 C172 1.396 1_556 S
C173 C174 1.399 . S
C174 H160 0.929 . S
C174 C173 1.399 . S
C174 C175 1.385 . S
C175 H161 0.931 . S
C175 C174 1.385 . S
C175 C176 1.399 . S
C176 C175 1.399 . S
C176 C177 1.379 1_556 S
C177 H162 0.930 . S
C177 C172 1.390 . S
C177 C176 1.379 1_554 S
H178 C190 0.930 . S
H179 C192 0.930 . S
H180 C193 0.930 . S
H181 C197 0.959 . S
H182 C197 0.959 . S
H183 C197 0.961 . S
H184 C198 0.960 . S
H185 C198 0.961 . S
H186 C198 0.959 . S
H187 C201 0.929 . S
H188 C202 0.933 . S
H189 C204 0.930 . S
C190 H178 0.930 . S
C190 C191 1.399 . S
C190 C195 1.399 . S
C191 C190 1.399 . S
C191 C192 1.376 . S
C192 H179 0.930 . S
C192 C191 1.376 . S
C192 C193 1.388 . S
C193 H180 0.930 . S
C193 C192 1.388 . S
C193 C194 1.390 . S
C194 C193 1.390 . S
C194 C195 1.394 . S
C194 C200 1.465 . S
C195 C190 1.399 . S
C195 C194 1.394 . S
C195 C196 1.516 . S
C196 C195 1.516 . S
C196 C197 1.502 . S
C196 C198 1.561 . S
C196 C199 1.526 . S
C197 H181 0.959 . S
C197 H182 0.959 . S
C197 H183 0.961 . S
C197 C196 1.502 . S
C198 H184 0.960 . S
C198 H185 0.961 . S
C198 H186 0.959 . S
C198 C196 1.561 . S
C199 C196 1.526 . S
C199 C200 1.396 . S
C199 C204 1.390 . S
C200 C194 1.465 . S
C200 C199 1.396 . S
C200 C201 1.399 . S
C201 H187 0.929 . S
C201 C200 1.399 . S
C201 C202 1.385 . S
C202 H188 0.933 . S
C202 C201 1.385 . S
C202 C203 1.389 . S
C203 C202 1.389 . S
C203 C204 1.387 . S
C204 H189 0.930 . S
C204 C199 1.390 . S
C204 C203 1.387 . S
H205 C217 0.930 . S
H206 C219 0.930 . S
H207 C220 0.930 . S
H208 C224 0.959 . S
H209 C224 0.959 . S
H210 C224 0.961 . S
H211 C225 0.960 . S
H212 C225 0.961 . S
H213 C225 0.959 . S
H214 C228 0.929 . S
H215 C229 0.931 . S
H216 C231 0.930 . S
C217 H205 0.930 . S
C217 C218 1.399 . S
C217 C222 1.399 . S
C218 C217 1.399 . S
C218 C219 1.376 . S
C219 H206 0.930 . S
C219 C218 1.376 . S
C219 C220 1.388 . S
C220 H207 0.930 . S
C220 C219 1.388 . S
C220 C221 1.390 . S
C221 C220 1.390 . S
C221 C222 1.394 . S
C221 C227 1.465 . S
C222 C217 1.399 . S
C222 C221 1.394 . S
C222 C223 1.516 . S
C223 C222 1.516 . S
C223 C224 1.502 . S
C223 C225 1.561 . S
C223 C226 1.526 . S
C224 H208 0.959 . S
C224 H209 0.959 . S
C224 H210 0.961 . S
C224 C223 1.502 . S
C225 H211 0.960 . S
C225 H212 0.961 . S
C225 H213 0.959 . S
C225 C223 1.561 . S
C226 C223 1.526 . S
C226 C227 1.396 . S
C226 C231 1.390 . S
C227 C221 1.465 . S
C227 C226 1.396 . S
C227 C228 1.399 . S
C228 H214 0.929 . S
C228 C227 1.399 . S
C228 C229 1.385 . S
C229 H215 0.931 . S
C229 C228 1.385 . S
C229 C230 1.389 . S
C230 C229 1.389 . S
C230 C231 1.387 . S
C231 H216 0.930 . S
C231 C226 1.390 . S
C231 C230 1.387 . S
H232 C244 0.930 . S
H233 C246 0.930 . S
H234 C247 0.930 . S
H235 C251 0.959 . S
H236 C251 0.959 . S
H237 C251 0.961 . S
H238 C252 0.960 . S
H239 C252 0.961 . S
H240 C252 0.959 . S
H241 C255 0.929 . S
H242 C256 0.931 . S
H243 C258 0.930 . S
C244 H232 0.930 . S
C244 C245 1.399 . S
C244 C249 1.399 . S
C245 C244 1.399 . S
C245 C246 1.376 1_554 S
C246 H233 0.930 . S
C246 C245 1.376 1_556 S
C246 C247 1.388 . S
C247 H234 0.930 . S
C247 C246 1.388 . S
C247 C248 1.390 . S
C248 C247 1.390 . S
C248 C249 1.394 1_556 S
C248 C254 1.465 . S
C249 C244 1.399 . S
C249 C248 1.394 1_554 S
C249 C250 1.516 . S
C250 C249 1.516 . S
C250 C251 1.502 . S
C250 C252 1.561 . S
C250 C253 1.526 . S
C251 H235 0.959 . S
C251 H236 0.959 . S
C251 H237 0.961 . S
C251 C250 1.502 . S
C252 H238 0.960 . S
C252 H239 0.961 . S
C252 H240 0.959 . S
C252 C250 1.561 . S
C253 C250 1.526 . S
C253 C254 1.396 1_554 S
C253 C258 1.390 . S
C254 C248 1.465 . S
C254 C253 1.396 1_556 S
C254 C255 1.399 . S
C255 H241 0.929 . S
C255 C254 1.399 . S
C255 C256 1.385 . S
C256 H242 0.931 . S
C256 C255 1.385 . S
C256 C257 1.367 1_556 S
C257 C256 1.367 1_554 S
C257 C258 1.405 . S
C258 H243 0.930 . S
C258 C253 1.390 . S
C258 C257 1.405 . S
H259 C271 0.930 . S
H260 C273 0.930 . S
H261 C274 0.930 . S
H262 C278 0.959 . S
H263 C278 0.959 . S
H264 C278 0.961 . S
H265 C279 0.960 . S
H266 C279 0.961 . S
H267 C279 0.959 . S
H268 C282 0.929 . S
H269 C283 0.931 . S
H270 C285 0.930 . S
C271 H259 0.930 . S
C271 C272 1.399 . S
C271 C276 1.399 . S
C272 C271 1.399 . S
C272 C273 1.376 . S
C273 H260 0.930 . S
C273 C272 1.376 . S
C273 C274 1.388 . S
C274 H261 0.930 . S
C274 C273 1.388 . S
C274 C275 1.390 . S
C275 C274 1.390 . S
C275 C276 1.394 . S
C275 C281 1.465 . S
C276 C271 1.399 . S
C276 C275 1.394 . S
C276 C277 1.516 . S
C277 C276 1.516 . S
C277 C278 1.502 . S
C277 C279 1.561 . S
C277 C280 1.526 . S
C278 H262 0.959 . S
C278 H263 0.959 . S
C278 H264 0.961 . S
C278 C277 1.502 . S
C279 H265 0.960 . S
C279 H266 0.961 . S
C279 H267 0.959 . S
C279 C277 1.561 . S
C280 C277 1.526 . S
C280 C281 1.396 . S
C280 C285 1.390 . S
C281 C275 1.465 . S
C281 C280 1.396 . S
C281 C282 1.399 . S
C282 H268 0.929 . S
C282 C281 1.399 . S
C282 C283 1.385 . S
C283 H269 0.931 . S
C283 C282 1.385 . S
C283 C284 1.389 . S
C284 C283 1.389 . S
C284 C285 1.387 . S
C285 H270 0.930 . S
C285 C280 1.390 . S
C285 C284 1.387 . S
H286 C298 0.930 . S
H287 C300 0.930 . S
H288 C301 0.930 . S
H289 C305 0.959 . S
H290 C305 0.959 . S
H291 C305 0.961 . S
H292 C306 0.960 1_545 S
H293 C306 0.961 . S
H294 C306 0.959 . S
H295 C309 0.929 . S
H296 C310 0.931 . S
H297 C312 0.930 . S
C298 H286 0.930 . S
C298 C299 1.399 1_556 S
C298 C303 1.399 . S
C299 C298 1.399 1_554 S
C299 C300 1.376 . S
C300 H287 0.930 . S
C300 C299 1.376 . S
C300 C301 1.388 . S
C301 H288 0.930 . S
C301 C300 1.388 . S
C301 C302 1.390 . S
C302 C301 1.390 . S
C302 C303 1.394 1_554 S
C302 C308 1.465 1_445 S
C303 C298 1.399 . S
C303 C302 1.394 1_556 S
C303 C304 1.516 1_455 S
C304 C303 1.516 1_655 S
C304 C305 1.502 . S
C304 C306 1.561 1_645 S
C304 C307 1.526 1_545 S
C305 H289 0.959 . S
C305 H290 0.959 . S
C305 H291 0.961 . S
C305 C304 1.502 . S
C306 H292 0.960 1_565 S
C306 H293 0.961 . S
C306 H294 0.959 . S
C306 C304 1.561 1_465 S
C307 C304 1.526 1_565 S
C307 C308 1.396 1_556 S
C307 C312 1.390 . S
C308 C302 1.465 1_665 S
C308 C307 1.396 1_554 S
C308 C309 1.399 . S
C309 H295 0.929 . S
C309 C308 1.399 . S
C309 C310 1.385 . S
C310 H296 0.931 . S
C310 C309 1.385 . S
C310 C311 1.389 . S
C311 C310 1.389 . S
C311 C312 1.387 1_554 S
C312 H297 0.930 . S
C312 C307 1.390 . S
C312 C311 1.387 1_556 S
H313 C325 0.930 . S
H314 C327 0.930 . S
H315 C328 0.930 . S
H316 C332 0.959 . S
H317 C332 0.959 . S
H318 C332 0.961 . S
H319 C333 0.945 1_545 S
H320 C333 0.961 . S
H321 C333 0.959 . S
H322 C336 0.929 . S
H323 C337 0.931 . S
H324 C339 0.930 . S
C325 H313 0.930 . S
C325 C326 1.399 . S
C325 C330 1.399 . S
C326 C325 1.399 . S
C326 C327 1.376 . S
C327 H314 0.930 . S
C327 C326 1.376 . S
C327 C328 1.388 . S
C328 H315 0.930 . S
C328 C327 1.388 . S
C328 C329 1.390 . S
C329 C328 1.390 . S
C329 C330 1.394 . S
C329 C335 1.465 1_645 S
C330 C325 1.399 . S
C330 C329 1.394 . S
C330 C331 1.516 1_655 S
C331 C330 1.516 1_455 S
C331 C332 1.502 . S
C331 C333 1.561 1_445 S
C331 C334 1.526 1_545 S
C332 H316 0.959 . S
C332 H317 0.959 . S
C332 H318 0.961 . S
C332 C331 1.502 . S
C333 H319 0.945 1_565 S
C333 H320 0.961 . S
C333 H321 0.959 . S
C333 C331 1.561 1_665 S
C334 C331 1.526 1_565 S
C334 C335 1.396 . S
C334 C339 1.390 . S
C335 C329 1.465 1_465 S
C335 C334 1.396 . S
C335 C336 1.399 . S
C336 H322 0.929 . S
C336 C335 1.399 . S
C336 C337 1.385 . S
C337 H323 0.931 . S
C337 C336 1.385 . S
C337 C338 1.389 . S
C338 C337 1.389 . S
C338 C339 1.387 . S
C339 H324 0.930 . S
C339 C334 1.390 . S
C339 C338 1.387 . S
H340 C352 0.930 . S
H341 C354 0.930 . S
H342 C355 0.930 . S
H343 C359 0.959 . S
H344 C359 0.959 . S
H345 C359 0.961 . S
H346 C360 0.960 . S
H347 C360 0.961 . S
H348 C360 0.959 . S
H349 C363 0.929 . S
H350 C364 0.931 . S
H351 C366 0.930 . S
C352 H340 0.930 . S
C352 C353 1.399 . S
C352 C357 1.399 . S
C353 C352 1.399 . S
C353 C354 1.376 . S
C354 H341 0.930 . S
C354 C353 1.376 . S
C354 C355 1.388 . S
C355 H342 0.930 . S
C355 C354 1.388 . S
C355 C356 1.390 . S
C356 C355 1.390 . S
C356 C357 1.394 . S
C356 C362 1.465 . S
C357 C352 1.399 . S
C357 C356 1.394 . S
C357 C358 1.516 . S
C358 C357 1.516 . S
C358 C359 1.502 . S
C358 C360 1.561 . S
C358 C361 1.526 . S
C359 H343 0.959 . S
C359 H344 0.959 . S
C359 H345 0.961 . S
C359 C358 1.502 . S
C360 H346 0.960 . S
C360 H347 0.961 . S
C360 H348 0.959 . S
C360 C358 1.561 . S
C361 C358 1.526 . S
C361 C362 1.396 . S
C361 C366 1.390 . S
C362 C356 1.465 . S
C362 C361 1.396 . S
C362 C363 1.399 . S
C363 H349 0.929 . S
C363 C362 1.399 . S
C363 C364 1.385 . S
C364 H350 0.931 . S
C364 C363 1.385 . S
C364 C365 1.389 . S
C365 C364 1.389 . S
C365 C366 1.387 . S
C366 H351 0.930 . S
C366 C361 1.390 . S
C366 C365 1.387 . S
H367 C379 0.930 . S
H368 C381 0.930 . S
H369 C382 0.930 . S
H370 C386 0.959 . S
H371 C386 0.959 . S
H372 C386 0.961 . S
H373 C387 0.960 . S
H374 C387 0.961 . S
H375 C387 0.959 . S
H376 C390 0.929 . S
H377 C391 0.931 . S
H378 C393 0.930 . S
C379 H367 0.930 . S
C379 C380 1.399 . S
C379 C384 1.399 . S
C380 C379 1.399 . S
C380 C381 1.376 . S
C381 H368 0.930 . S
C381 C380 1.376 . S
C381 C382 1.388 . S
C382 H369 0.930 . S
C382 C381 1.388 . S
C382 C383 1.390 . S
C383 C382 1.390 . S
C383 C384 1.394 . S
C383 C389 1.465 . S
C384 C379 1.399 . S
C384 C383 1.394 . S
C384 C385 1.516 . S
C385 C384 1.516 . S
C385 C386 1.502 . S
C385 C387 1.561 . S
C385 C388 1.526 . S
C386 H370 0.959 . S
C386 H371 0.959 . S
C386 H372 0.961 . S
C386 C385 1.502 . S
C387 H373 0.960 . S
C387 H374 0.961 . S
C387 H375 0.959 . S
C387 C385 1.561 . S
C388 C385 1.526 . S
C388 C389 1.396 . S
C388 C393 1.390 . S
C389 C383 1.465 . S
C389 C388 1.396 . S
C389 C390 1.399 . S
C390 H376 0.929 . S
C390 C389 1.399 . S
C390 C391 1.385 . S
C391 H377 0.931 . S
C391 C390 1.385 . S
C391 C392 1.389 . S
C392 C391 1.389 . S
C392 C393 1.387 . S
C393 H378 0.930 . S
C393 C388 1.390 . S
C393 C392 1.387 . S
H394 C406 0.930 . S
H395 C408 0.930 . S
H396 C409 0.930 . S
H397 C413 0.959 . S
H398 C413 0.959 . S
H399 C413 0.961 . S
H400 C414 0.960 . S
H401 C414 0.961 . S
H402 C414 0.959 . S
H403 C417 0.929 . S
H404 C418 0.931 . S
H405 C420 0.930 . S
C406 H394 0.930 . S
C406 C407 1.399 . S
C406 C411 1.399 . S
C407 C406 1.399 . S
C407 C408 1.376 . S
C408 H395 0.930 . S
C408 C407 1.376 . S
C408 C409 1.388 . S
C409 H396 0.930 . S
C409 C408 1.388 . S
C409 C410 1.390 . S
C410 C409 1.390 . S
C410 C411 1.394 . S
C410 C416 1.465 . S
C411 C406 1.399 . S
C411 C410 1.394 . S
C411 C412 1.516 . S
C412 C411 1.516 . S
C412 C413 1.502 . S
C412 C414 1.561 . S
C412 C415 1.526 . S
C413 H397 0.959 . S
C413 H398 0.959 . S
C413 H399 0.961 . S
C413 C412 1.502 . S
C414 H400 0.960 . S
C414 H401 0.961 . S
C414 H402 0.959 . S
C414 C412 1.561 . S
C415 C412 1.526 . S
C415 C416 1.396 . S
C415 C420 1.390 . S
C416 C410 1.465 . S
C416 C415 1.396 . S
C416 C417 1.399 . S
C417 H403 0.929 . S
C417 C416 1.399 . S
C417 C418 1.385 . S
C418 H404 0.931 . S
C418 C417 1.385 . S
C418 C419 1.389 . S
C419 C418 1.389 . S
C419 C420 1.387 . S
C420 H405 0.930 . S
C420 C415 1.390 . S
C420 C419 1.387 . S
H421 C433 0.930 . S
H422 C435 0.930 . S
H423 C436 0.930 . S
H424 C440 0.959 . S
H425 C440 0.959 . S
H426 C440 0.961 . S
H427 C441 0.960 . S
H428 C441 0.961 . S
H429 C441 0.959 . S
H430 C444 0.929 . S
H431 C445 0.931 . S
H432 C447 0.930 . S
C433 H421 0.930 . S
C433 C434 1.399 . S
C433 C438 1.399 . S
C434 C433 1.399 . S
C434 C435 1.376 . S
C435 H422 0.930 . S
C435 C434 1.376 . S
C435 C436 1.388 . S
C436 H423 0.930 . S
C436 C435 1.388 . S
C436 C437 1.390 . S
C437 C436 1.390 . S
C437 C438 1.394 . S
C437 C443 1.465 . S
C438 C433 1.399 . S
C438 C437 1.394 . S
C438 C439 1.516 . S
C439 C438 1.516 . S
C439 C440 1.502 . S
C439 C441 1.561 . S
C439 C442 1.526 . S
C440 H424 0.959 . S
C440 H425 0.959 . S
C440 H426 0.961 . S
C440 C439 1.502 . S
C441 H427 0.960 . S
C441 H428 0.961 . S
C441 H429 0.959 . S
C441 C439 1.561 . S
C442 C439 1.526 . S
C442 C443 1.396 . S
C442 C447 1.390 . S
C443 C437 1.465 . S
C443 C442 1.396 . S
C443 C444 1.399 . S
C444 H430 0.929 . S
C444 C443 1.399 . S
C444 C445 1.385 . S
C445 H431 0.931 . S
C445 C444 1.385 . S
C445 C446 1.389 . S
C446 C445 1.389 . S
C446 C447 1.387 . S
C447 H432 0.930 . S
C447 C442 1.390 . S
C447 C446 1.387 . S
H448 C460 0.930 . S
H449 C462 0.930 . S
H450 C463 0.930 . S
H451 C467 0.959 . S
H452 C467 0.959 . S
H453 C467 0.961 . S
H454 C468 0.960 . S
H455 C468 0.961 1_655 S
H456 C468 0.959 . S
H457 C471 0.929 . S
H458 C472 0.931 1_455 S
H459 C474 0.930 . S
C460 H448 0.930 . S
C460 C461 1.399 . S
C460 C465 1.399 . S
C461 C460 1.399 . S
C461 C462 1.376 . S
C462 H449 0.930 . S
C462 C461 1.376 . S
C462 C463 1.388 . S
C463 H450 0.930 . S
C463 C462 1.388 . S
C463 C464 1.390 . S
C464 C463 1.390 . S
C464 C465 1.394 . S
C464 C470 1.465 . S
C465 C460 1.399 . S
C465 C464 1.394 . S
C465 C466 1.516 1_455 S
C466 C465 1.516 1_655 S
C466 C467 1.502 . S
C466 C468 1.561 1_655 S
C466 C469 1.526 . S
C467 H451 0.959 . S
C467 H452 0.959 . S
C467 H453 0.961 . S
C467 C466 1.502 . S
C468 H454 0.960 . S
C468 H455 0.961 1_455 S
C468 H456 0.959 . S
C468 C466 1.561 1_455 S
C469 C466 1.526 . S
C469 C470 1.396 1_655 S
C469 C474 1.390 . S
C470 C464 1.465 . S
C470 C469 1.396 1_455 S
C470 C471 1.399 . S
C471 H457 0.929 . S
C471 C470 1.399 . S
C471 C472 1.385 1_455 S
C472 H458 0.931 1_655 S
C472 C471 1.385 1_655 S
C472 C473 1.389 . S
C473 C472 1.389 . S
C473 C474 1.387 . S
C474 H459 0.930 . S
C474 C469 1.390 . S
C474 C473 1.387 . S
H475 C487 0.930 . S
H476 C489 0.930 . S
H477 C490 0.930 . S
H478 C494 0.959 . S
H479 C494 0.959 . S
H480 C494 0.961 . S
H481 C495 0.960 . S
H482 C495 0.961 . S
H483 C495 0.959 . S
H484 C498 0.929 . S
H485 C499 0.931 . S
H486 C501 0.930 . S
C487 H475 0.930 . S
C487 C488 1.399 . S
C487 C492 1.399 . S
C488 C487 1.399 . S
C488 C489 1.376 . S
C489 H476 0.930 . S
C489 C488 1.376 . S
C489 C490 1.388 1_655 S
C490 H477 0.930 . S
C490 C489 1.388 1_455 S
C490 C491 1.390 . S
C491 C490 1.390 . S
C491 C492 1.394 1_455 S
C491 C497 1.465 . S
C492 C487 1.399 . S
C492 C491 1.394 1_655 S
C492 C493 1.516 1_655 S
C493 C492 1.516 1_455 S
C493 C494 1.502 1_455 S
C493 C495 1.561 . S
C493 C496 1.526 . S
C494 H478 0.959 . S
C494 H479 0.959 . S
C494 H480 0.961 . S
C494 C493 1.502 1_655 S
C495 H481 0.960 . S
C495 H482 0.961 . S
C495 H483 0.959 . S
C495 C493 1.561 . S
C496 C493 1.526 . S
C496 C497 1.396 . S
C496 C501 1.390 . S
C497 C491 1.465 . S
C497 C496 1.396 . S
C497 C498 1.399 . S
C498 H484 0.929 . S
C498 C497 1.399 . S
C498 C499 1.385 . S
C499 H485 0.931 . S
C499 C498 1.385 . S
C499 C500 1.389 . S
C500 C499 1.389 . S
C500 C501 1.387 . S
C501 H486 0.930 . S
C501 C496 1.390 . S
C501 C500 1.387 . S
H502 C514 0.930 . S
H503 C516 0.930 . S
H504 C517 0.930 . S
H505 C521 0.959 . S
H506 C521 0.959 . S
H507 C521 0.961 . S
H508 C522 0.960 . S
H509 C522 0.961 . S
H510 C522 0.959 . S
H511 C525 0.929 1_455 S
H512 C526 0.931 . S
H513 C528 0.930 . S
C514 H502 0.930 . S
C514 C515 1.399 . S
C514 C519 1.399 . S
C515 C514 1.399 . S
C515 C516 1.376 . S
C516 H503 0.930 . S
C516 C515 1.376 . S
C516 C517 1.388 . S
C517 H504 0.930 . S
C517 C516 1.388 . S
C517 C518 1.390 . S
C518 C517 1.390 . S
C518 C519 1.394 . S
C518 C524 1.465 1_455 S
C519 C514 1.399 . S
C519 C518 1.394 . S
C519 C520 1.516 1_455 S
C520 C519 1.516 1_655 S
C520 C521 1.502 . S
C520 C522 1.561 1_655 S
C520 C523 1.526 . S
C521 H505 0.959 . S
C521 H506 0.959 . S
C521 H507 0.961 . S
C521 C520 1.502 . S
C522 H508 0.960 . S
C522 H509 0.961 . S
C522 H510 0.959 . S
C522 C520 1.561 1_455 S
C523 C520 1.526 . S
C523 C524 1.396 . S
C523 C528 1.390 . S
C524 C518 1.465 1_655 S
C524 C523 1.396 . S
C524 C525 1.399 . S
C525 H511 0.929 1_655 S
C525 C524 1.399 . S
C525 C526 1.385 . S
C526 H512 0.931 . S
C526 C525 1.385 . S
C526 C527 1.389 . S
C527 C526 1.389 . S
C527 C528 1.387 . S
C528 H513 0.930 . S
C528 C523 1.390 . S
C528 C527 1.387 . S
H529 C541 0.930 . S
H530 C543 0.930 . S
H531 C544 0.930 . S
H532 C548 0.959 . S
H533 C548 0.959 . S
H534 C548 0.961 . S
H535 C549 0.960 . S
H536 C549 0.961 . S
H537 C549 0.959 . S
H538 C552 0.929 . S
H539 C553 0.931 . S
H540 C555 0.930 . S
C541 H529 0.930 . S
C541 C542 1.399 . S
C541 C546 1.399 . S
C542 C541 1.399 . S
C542 C543 1.376 . S
C543 H530 0.930 . S
C543 C542 1.376 . S
C543 C544 1.388 1_455 S
C544 H531 0.930 . S
C544 C543 1.388 1_655 S
C544 C545 1.390 . S
C545 C544 1.390 . S
C545 C546 1.394 1_655 S
C545 C551 1.465 . S
C546 C541 1.399 . S
C546 C545 1.394 1_455 S
C546 C547 1.516 . S
C547 C546 1.516 . S
C547 C548 1.502 . S
C547 C549 1.561 1_455 S
C547 C550 1.526 1_455 S
C548 H532 0.959 . S
C548 H533 0.959 . S
C548 H534 0.961 . S
C548 C547 1.502 . S
C549 H535 0.960 . S
C549 H536 0.961 . S
C549 H537 0.959 . S
C549 C547 1.561 1_655 S
C550 C547 1.526 1_655 S
C550 C551 1.396 . S
C550 C555 1.390 . S
C551 C545 1.465 . S
C551 C550 1.396 . S
C551 C552 1.399 . S
C552 H538 0.929 . S
C552 C551 1.399 . S
C552 C553 1.385 . S
C553 H539 0.931 . S
C553 C552 1.385 . S
C553 C554 1.389 . S
C554 C553 1.389 . S
C554 C555 1.387 . S
C555 H540 0.930 . S
C555 C550 1.390 . S
C555 C554 1.387 . S
C137 C0 1.501 1_556 S
C149 C10 1.421 1_655 S
C164 C31 1.494 1_455 S
C176 C41 1.422 . S
C191 C62 1.499 . S
C203 C72 1.418 1_655 S
C218 C93 1.500 1_455 S
C230 C103 1.418 . S
C245 C50 1.537 1_554 S
C257 C30 1.581 . S
C272 C112 1.541 . S
C284 C92 1.574 . S
C299 C19 1.564 1_554 S
C311 C61 1.530 . S
C326 C123 1.538 . S
C338 C81 1.575 . S
C353 C95 1.212 . S
C365 C1 1.135 . S
C380 C33 1.089 . S
C392 C63 1.152 . S
C407 C91 1.257 . S
C419 C51 1.170 . S
C434 C29 1.229 . S
C446 C113 1.288 . S
C461 C64 1.084 . S
C473 C32 1.168 . S
C488 C94 1.203 . S
C500 C2 1.161 . S
C515 C20 1.233 . S
C527 C122 1.290 . S
C542 C82 1.231 . S
C554 C60 1.184 . S
