# Generated by pormake.
# Topology ooa, (5)-cn, num edge types: 1
# Building blocks:
#     Node 0, Type 0, BuildingBlock: XOMCOT_clean_sbu_0, # of connection points: 5
#     Node 1, Type 0, BuildingBlock: XOMCOT_clean_sbu_0, # of connection points: 5
#     Node 2, Type 0, BuildingBlock: XOMCOT_clean_sbu_0, # of connection points: 5
#     Node 3, Type 0, BuildingBlock: XOMCOT_clean_sbu_0, # of connection points: 5
#     Node 4, Type 0, BuildingBlock: XOMCOT_clean_sbu_0, # of connection points: 5
#     Node 5, Type 0, BuildingBlock: XOMCOT_clean_sbu_0, # of connection points: 5
#     Node 6, Type 0, BuildingBlock: XOMCOT_clean_sbu_0, # of connection points: 5
#     Node 7, Type 0, BuildingBlock: XOMCOT_clean_sbu_0, # of connection points: 5
#     Edge 8, Type (0, 0), BuildingBlock: AJUNOK_clean_linker_0, # of connection points: 2
#     Edge 9, Type (0, 0), BuildingBlock: AJUNOK_clean_linker_0, # of connection points: 2
#     Edge 10, Type (0, 0), BuildingBlock: AJUNOK_clean_linker_0, # of connection points: 2
#     Edge 11, Type (0, 0), BuildingBlock: AJUNOK_clean_linker_0, # of connection points: 2
#     Edge 12, Type (0, 0), BuildingBlock: AJUNOK_clean_linker_0, # of connection points: 2
#     Edge 13, Type (0, 0), BuildingBlock: AJUNOK_clean_linker_0, # of connection points: 2
#     Edge 14, Type (0, 0), BuildingBlock: AJUNOK_clean_linker_0, # of connection points: 2
#     Edge 15, Type (0, 0), BuildingBlock: AJUNOK_clean_linker_0, # of connection points: 2
#     Edge 16, Type (0, 0), BuildingBlock: AJUNOK_clean_linker_0, # of connection points: 2
#     Edge 17, Type (0, 0), BuildingBlock: AJUNOK_clean_linker_0, # of connection points: 2
#     Edge 18, Type (0, 0), BuildingBlock: AJUNOK_clean_linker_0, # of connection points: 2
#     Edge 19, Type (0, 0), BuildingBlock: AJUNOK_clean_linker_0, # of connection points: 2
#     Edge 20, Type (0, 0), BuildingBlock: AJUNOK_clean_linker_0, # of connection points: 2
#     Edge 21, Type (0, 0), BuildingBlock: AJUNOK_clean_linker_0, # of connection points: 2
#     Edge 22, Type (0, 0), BuildingBlock: AJUNOK_clean_linker_0, # of connection points: 2
#     Edge 23, Type (0, 0), BuildingBlock: AJUNOK_clean_linker_0, # of connection points: 2
#     Edge 24, Type (0, 0), BuildingBlock: AJUNOK_clean_linker_0, # of connection points: 2
#     Edge 25, Type (0, 0), BuildingBlock: AJUNOK_clean_linker_0, # of connection points: 2
#     Edge 26, Type (0, 0), BuildingBlock: AJUNOK_clean_linker_0, # of connection points: 2
#     Edge 27, Type (0, 0), BuildingBlock: AJUNOK_clean_linker_0, # of connection points: 2
# Relax obj value: 0.357
# Max RMSD: 0.215
# Mean RMSD: 0.215
data_MOF--net-ooa--node1-XOMCOT_clean_sbu_0--edge1-AJUNOK_clean_linker_0
_symmetry_space_group_name_H-M    P1
_symmetry_Int_Tables_number       1
_symmetry_cell_setting            triclinic
loop_
_symmetry_equiv_pos_as_xyz
'x, y, z'
_cell_length_a     21.893285
_cell_length_b     25.448647
_cell_length_c     36.29685
_cell_angle_alpha  89.895463
_cell_angle_beta   89.692388
_cell_angle_gamma 89.98705
loop_
_atom_site_label
_atom_site_type_symbol
_atom_site_fract_x
_atom_site_fract_y
_atom_site_fract_z
_atom_type_partial_charge
Co0 Co 0.0775 0.15096 0.07517 0.0
C1 C 0.96529 0.19693 0.04469 0.0
C2 C 0.04335 0.23556 1.02164 0.0
C3 C 0.99124 0.25557 1.00527 0.0
N4 N 1.02683 0.19906 0.04678 0.0
N5 N 0.94209 0.23111 1.01995 0.0
H6 H 0.93768 0.16927 0.05999 0.0
H7 H 0.0898 0.24527 1.01415 0.0
C8 C 0.18021 0.23545 0.06645 0.0
O9 O 0.15177 0.27474 0.08251 0.0
N10 N 0.12515 0.10229 0.10347 0.0
C11 C 0.10464 0.0753 0.13297 0.0
C12 C 0.14855 0.03984 0.14314 0.0
C13 C 0.18101 0.08317 0.09593 0.0
N14 N 0.19633 0.0446 0.11975 0.0
C15 C 1.00266 0.1902 0.1343 0.0
C16 C 0.09901 0.2155 0.17981 0.0
C17 C 0.03977 0.21481 0.19457 0.0
C18 C 0.99099 0.20386 0.17096 0.0
C19 C 0.10863 0.20208 0.14299 0.0
N20 N 0.06092 0.18878 0.12073 0.0
H21 H 0.96504 0.17679 0.11794 0.0
H22 H 0.15513 0.19745 0.13357 0.0
H23 H 0.05994 0.07991 0.14538 0.0
H24 H 0.20913 0.09692 0.07332 0.0
O25 O 1.01242 0.09871 0.07614 0.0
O26 O 0.08441 0.10555 0.03342 0.0
O27 O 0.15469 0.19068 0.0634 0.0
C28 C 0.03897 0.07903 0.04694 0.0
H29 H 0.99015 0.28361 0.98284 0.0
H30 H 0.14459 0.01123 0.16513 0.0
H31 H 0.13819 0.22275 0.19718 0.0
H32 H 0.9444 0.20343 0.18111 0.0
Co33 Co 0.50489 0.79086 0.07502 0.0
C34 C 0.61046 0.73141 0.04811 0.0
C35 C 0.54061 0.73373 1.00721 0.0
C36 C 0.5933 0.71356 0.99147 0.0
N37 N 0.55127 0.74438 0.04299 0.0
N38 N 0.63727 0.71213 1.01737 0.0
H39 H 0.63562 0.74157 0.0725 0.0
H40 H 0.49913 0.74387 0.99278 0.0
C41 C 0.40707 0.7096 0.05353 0.0
O42 O 0.44482 0.67257 0.04277 0.0
N43 N 0.46172 0.83865 0.10706 0.0
C44 C 0.48447 0.86383 0.13671 0.0
C45 C 0.4448 0.90305 0.14685 0.0
C46 C 0.40901 0.86329 0.09938 0.0
N47 N 0.39807 0.90299 0.12297 0.0
C48 C 0.58365 0.76886 0.13576 0.0
C49 C 0.50277 0.70469 0.17337 0.0
C50 C 0.55237 0.72618 0.1922 0.0
C51 C 0.59466 0.75662 0.17265 0.0
C52 C 0.4929 0.7185 0.13659 0.0
N53 N 0.53144 0.75249 0.11875 0.0
H54 H 0.61409 0.79614 0.12217 0.0
H55 H 0.45168 0.70469 0.12389 0.0
H56 H 0.52884 0.8574 0.14861 0.0
H57 H 0.38087 0.85405 0.07601 0.0
O58 O 0.56828 0.8442 0.07036 0.0
O59 O 0.48792 0.83609 0.03423 0.0
O60 O 0.42617 0.75084 0.0697 0.0
C61 C 0.53501 0.8634 0.04374 0.0
H62 H 0.59983 0.70407 0.96266 0.0
H63 H 0.45165 0.93157 0.16854 0.0
H64 H 0.4693 0.6808 0.18775 0.0
H65 H 0.63371 0.77365 0.1864 0.0
Co66 Co 0.06599 0.29718 0.47144 0.0
C67 C 0.96107 0.23689 0.49813 0.0
C68 C 1.03153 0.23756 0.53868 0.0
C69 C 0.97893 0.21703 0.55438 0.0
N70 N 1.02039 0.24952 0.50313 0.0
N71 N 0.93455 0.21667 0.52871 0.0
H72 H 0.93558 0.24809 0.47409 0.0
H73 H 0.07319 0.2472 0.55306 0.0
C74 C 0.16643 0.21754 0.49339 0.0
O75 O 0.12976 0.17845 0.50174 0.0
N76 N 0.1077 0.34587 0.43935 0.0
C77 C 0.08286 0.37206 0.41073 0.0
C78 C 0.1241 0.40859 0.39806 0.0
C79 C 0.16321 0.36714 0.44394 0.0
N80 N 0.17443 0.40527 0.41906 0.0
C81 C 0.99003 0.27114 0.41014 0.0
C82 C 0.07799 0.21442 0.37256 0.0
C83 C 1.02612 0.23151 0.3538 0.0
C84 C 0.98052 0.25821 0.37321 0.0
C85 C 0.08558 0.22776 0.40952 0.0
N86 N 0.04316 0.25786 0.42753 0.0
H87 H 0.95724 0.29654 0.42346 0.0
H88 H 0.12819 0.21735 0.42215 0.0
H89 H 1.03659 0.36753 0.40112 0.0
H90 H 0.19378 0.35667 0.46581 0.0
O91 O 1.00005 0.34858 0.47502 0.0
O92 O 0.07956 0.34302 0.51213 0.0
O93 O 0.14618 0.25952 0.47853 0.0
C94 C 1.03126 0.36846 0.50225 0.0
H95 H 0.97277 0.20661 0.58308 0.0
H96 H 0.11615 0.43755 0.37674 0.0
H97 H 0.11421 0.19386 0.3581 0.0
H98 H 0.94018 0.2725 0.35924 0.0
Co99 Co 0.49377 0.64671 0.47045 0.0
C100 C 0.59864 0.70797 0.49571 0.0
C101 C 0.52621 0.71083 0.53543 0.0
C102 C 0.57865 0.731 0.5512 0.0
N103 N 0.53887 0.69637 0.50049 0.0
N104 N 0.62446 0.72822 0.52628 0.0
H105 H 0.62421 0.6981 0.47129 0.0
H106 H 0.48357 0.70283 0.54956 0.0
C107 C 0.39316 0.72957 0.4864 0.0
O108 O 0.42965 0.77005 0.49041 0.0
N109 N 0.45174 0.59654 0.44032 0.0
C110 C 0.47614 0.56857 0.41236 0.0
C111 C 0.43308 0.53385 0.39983 0.0
C112 C 0.39465 0.5782 0.4448 0.0
N113 N 0.382 0.54021 0.42019 0.0
C114 C 0.57181 0.66845 0.40892 0.0
C115 C 0.48834 0.72649 0.36914 0.0
C116 C 0.54174 0.70908 0.35161 0.0
C117 C 0.5845 0.68094 0.3722 0.0
C118 C 0.47706 0.71272 0.40586 0.0
N119 N 0.51792 0.68295 0.42519 0.0
H120 H 0.6035 0.64332 0.42326 0.0
H121 H 0.43335 0.72303 0.41733 0.0
H122 H 0.52284 0.57127 0.40283 0.0
H123 H 0.36366 0.59118 0.46622 0.0
O124 O 0.55971 0.59556 0.4756 0.0
O125 O 0.47988 0.60305 0.51266 0.0
O126 O 0.41374 0.68497 0.47637 0.0
C127 C 0.52854 0.57722 0.50356 0.0
H128 H 0.58398 0.74223 0.57976 0.0
H129 H 0.43995 0.50425 0.37884 0.0
H130 H 0.4536 0.7475 0.3539 0.0
H131 H 0.62618 0.66657 0.35952 0.0
Co132 Co 0.99865 0.78431 0.97101 0.0
C133 C 0.11755 0.74802 0.99692 0.0
C134 C 0.04752 0.70499 0.02506 0.0
C135 C 0.10375 0.68887 0.03811 0.0
N136 N 0.05632 0.74285 0.99955 0.0
N137 N 0.14793 0.71638 1.02059 0.0
H138 H 0.1392 0.77403 0.97735 0.0
H139 H 1.00398 0.68952 0.0338 0.0
C140 C 0.89731 0.72937 1.00773 0.0
O141 O 0.91641 0.75228 0.03792 0.0
N142 N 0.94392 0.82636 0.94168 0.0
C143 C 0.9585 0.85156 0.91013 0.0
C144 C 0.91301 0.88627 0.90177 0.0
C145 C 0.88972 0.84665 0.9523 0.0
N146 N 0.87004 0.88364 0.92839 0.0
C147 C 0.07464 0.77304 0.90731 0.0
C148 C 1.01008 0.69296 0.8746 0.0
C149 C 0.05104 0.72232 0.85272 0.0
C150 C 0.08526 0.76154 0.87027 0.0
C151 C 0.99835 0.7078 0.91108 0.0
N152 N 1.02789 0.74972 0.92625 0.0
H153 H 0.09944 0.80537 0.91919 0.0
H154 H 0.96344 0.68682 0.92608 0.0
H155 H 1.0012 0.84876 0.89547 0.0
H156 H 0.86687 0.83613 0.97774 0.0
O157 O 0.0536 0.84444 0.97245 0.0
O158 O 0.98062 0.82888 1.01287 0.0
O159 O 0.92946 0.73251 0.97824 0.0
C160 C 1.02237 0.86059 1.00081 0.0
H161 H 0.1113 0.65978 0.05939 0.0
H162 H 0.91368 0.91412 0.87919 0.0
H163 H 0.98437 0.66063 0.8631 0.0
H164 H 0.11643 0.78667 0.85527 0.0
Co165 Co 0.57669 0.15692 0.97703 0.0
C166 C 0.47187 0.19463 1.02096 0.0
C167 C 0.52787 0.25923 1.00428 0.0
C168 C 0.47354 0.27869 1.01833 0.0
N169 N 0.52684 0.2062 1.00562 0.0
N170 N 0.43794 0.23782 0.02809 0.0
H171 H 0.45459 0.15521 0.02444 0.0
H172 H 0.56241 0.28243 0.99078 0.0
C173 C 0.68504 0.23797 0.98005 0.0
O174 O 0.66097 0.27568 0.96013 0.0
N175 N 0.62196 0.10666 0.94787 0.0
C176 C 0.59885 0.08324 0.91771 0.0
C177 C 0.63465 0.04119 0.90865 0.0
C178 C 0.67127 0.07796 0.95715 0.0
N179 N 0.67999 0.03757 0.93349 0.0
C180 C 0.49914 0.19928 0.92117 0.0
C181 C 0.59231 0.2148 0.87047 0.0
C182 C 0.53182 0.21587 0.85851 0.0
C183 C 0.48461 0.2101 0.88437 0.0
C184 C 0.6048 0.20409 0.90725 0.0
N185 N 0.55863 0.19469 0.93186 0.0
H186 H 0.46275 0.19021 0.9404 0.0
H187 H 0.65175 0.19735 0.91484 0.0
H188 H 0.55642 0.09401 0.90457 0.0
H189 H 0.69838 0.08542 0.98132 0.0
O190 O 0.51144 0.10523 0.97717 0.0
O191 O 0.58467 0.11168 1.01882 0.0
O192 O 0.65517 0.19597 0.98713 0.0
C193 C 0.53967 0.08478 1.00548 0.0
H194 H 0.45916 0.3194 1.01809 0.0
H195 H 0.62612 0.01374 0.88652 0.0
H196 H 0.62976 0.21852 0.85099 0.0
H197 H 0.43732 0.21026 0.87577 0.0
Co198 Co 0.98896 0.66206 0.57241 0.0
C199 C 0.09506 0.6943 0.52698 0.0
C200 C 0.04652 0.76101 0.5475 0.0
C201 C 0.10247 0.77756 0.53409 0.0
N202 N 0.04171 0.7085 0.54334 0.0
N203 N 0.13366 0.73534 0.52188 0.0
H204 H 0.10733 0.65411 0.52113 0.0
H205 H 1.01532 0.78497 0.56321 0.0
C206 C 0.88221 0.74636 0.56238 0.0
O207 O 0.90493 0.78881 0.57756 0.0
N208 N 0.94051 0.61541 0.60265 0.0
C209 C 0.96161 0.59275 0.63366 0.0
C210 C 0.92312 0.553 0.64372 0.0
C211 C 0.88931 0.5888 0.59407 0.0
N212 N 0.87778 0.55012 0.61882 0.0
C213 C 0.06807 0.69353 0.62992 0.0
C214 C 0.9779 0.7324 0.6758 0.0
C215 C 1.03486 0.71969 0.6912 0.0
C216 C 0.08093 0.70155 0.66721 0.0
C217 C 0.96586 0.72046 0.63907 0.0
N218 N 1.01025 0.69998 0.61687 0.0
H219 H 0.10291 0.67655 0.61242 0.0
H220 H 0.91926 0.7227 0.62992 0.0
H221 H 1.00461 0.60179 0.64664 0.0
H222 H 0.86281 0.59651 0.56967 0.0
O223 O 0.05093 0.60746 0.57286 0.0
O224 O 0.97785 0.61588 0.53132 0.0
O225 O 0.91273 0.70364 0.56142 0.0
C226 C 1.02151 0.58759 0.54492 0.0
H227 H 0.12107 0.81679 0.53662 0.0
H228 H 0.9302 0.52611 0.66644 0.0
H229 H 0.94101 0.74772 0.6926 0.0
H230 H 0.12516 0.68946 0.6772 0.0
Co231 Co 0.57461 0.28398 0.58168 0.0
C232 C 0.45656 0.25386 0.54983 0.0
C233 C 0.52466 0.19879 0.53279 0.0
C234 C 0.46912 0.1843 0.5178 0.0
N235 N 0.5168 0.2431 0.55256 0.0
N236 N 0.42605 0.21927 0.52843 0.0
H237 H 0.43526 0.28547 0.56469 0.0
H238 H 0.56709 0.17758 0.52976 0.0
C239 C 0.67346 0.2309 0.54164 0.0
O240 O 0.64977 0.25186 0.51189 0.0
N241 N 0.6288 0.32549 0.61141 0.0
C242 C 0.61304 0.34722 0.64392 0.0
C243 C 0.65441 0.38555 0.65233 0.0
C244 C 0.67959 0.35103 0.60036 0.0
N245 N 0.69586 0.38847 0.6248 0.0
C246 C 0.49288 0.25672 0.64037 0.0
C247 C 0.57983 0.20759 0.68328 0.0
C248 C 0.524 0.22205 0.69943 0.0
C249 C 0.47911 0.24451 0.67702 0.0
C250 C 0.5917 0.2202 0.64648 0.0
N251 N 0.54941 0.24654 0.62595 0.0
H252 H 0.4598 0.27864 0.62479 0.0
H253 H 0.63711 0.2132 0.63594 0.0
H254 H 0.57147 0.33908 0.65904 0.0
H255 H 0.70193 0.34397 0.5742 0.0
O256 O 0.51852 0.3431 0.58325 0.0
O257 O 0.58951 0.331 0.54073 0.0
O258 O 0.64424 0.23367 0.57216 0.0
C259 C 0.54779 0.36131 0.55463 0.0
H260 H 0.46132 0.15049 0.50042 0.0
H261 H 0.65152 0.4119 0.67565 0.0
H262 H 0.61592 0.19038 0.69965 0.0
H263 H 0.43495 0.25536 0.68826 0.0
C264 C 0.06508 0.00469 1.00516 0.0
C265 C 1.02849 0.02446 0.03407 0.0
C266 C 0.0641 0.95149 0.99549 0.0
C267 C 1.02625 0.91558 1.01414 0.0
H268 H 0.09602 0.03027 0.99018 0.0
H269 H 0.0931 0.93862 0.97298 0.0
S270 S 0.92003 0.94707 0.09124 0.0
N271 N 0.95241 0.00383 0.08091 0.0
N272 N 0.94982 0.90376 0.06249 0.0
C273 C 0.98854 0.93479 0.04275 0.0
C274 C 0.98971 -0.0108 0.05269 0.0
C275 C 0.56936 0.00895 0.04507 0.0
C276 C 0.53304 0.0289 1.01625 0.0
C277 C 0.5727 0.955 0.05244 0.0
C278 C 0.53972 0.91869 0.03137 0.0
H279 H 0.59637 0.03516 0.0619 0.0
H280 H 0.60017 0.94189 0.07543 0.0
S281 S 0.43872 0.95003 0.95227 0.0
N282 N 0.46404 0.00771 0.9662 0.0
N283 N 0.47003 0.9063 0.97999 0.0
C284 C 0.50335 0.93797 1.00234 0.0
C285 C 0.49985 -0.00698 0.9949 0.0
C286 C 0.9962 0.51386 0.50237 0.0
C287 C 1.02711 0.53182 0.53393 0.0
C288 C 0.99402 0.46031 0.49344 0.0
C289 C 1.02246 0.42264 0.51585 0.0
H290 H 0.97337 0.54143 0.4843 0.0
H291 H 0.97178 0.44864 0.46815 0.0
S292 S 0.1048 0.44832 0.60323 0.0
N293 N 0.08375 0.50705 0.58871 0.0
N294 N 0.07949 0.40651 0.57214 0.0
C295 C 0.05205 0.43986 0.54804 0.0
C296 C 0.05461 0.49439 0.55697 0.0
C297 C 0.57436 0.4872 0.50025 0.0
C298 C 0.53921 0.5244 0.51953 0.0
C299 C 0.57579 0.43436 0.5114 0.0
C300 C 0.54197 0.41663 0.54218 0.0
H301 H 0.59933 0.49849 0.47564 0.0
H302 H 0.60342 0.40717 0.49555 0.0
S303 S 0.44686 0.49946 0.60398 0.0
N304 N 0.47294 0.54054 0.57239 0.0
N305 N 0.47531 0.44146 0.59305 0.0
C306 C 0.50807 0.45378 0.56231 0.0
C307 C 0.50691 0.50758 0.55111 0.0
C308 C 0.3211 0.95709 0.15405 0.0
C309 C 0.34957 0.94062 0.12138 0.0
C310 C 0.27217 -0.0078 0.15322 0.0
C311 C 0.25003 0.01215 0.11968 0.0
H312 H 0.336 0.94175 0.18036 0.0
H313 H 0.25115 0.00352 0.17907 0.0
S314 S 0.31347 -0.01523 0.02657 0.0
N315 N 0.35647 0.95009 0.05484 0.0
N316 N 0.26243 0.01446 0.05292 0.0
C317 C 0.27954 -0.00277 0.08678 0.0
C318 C 0.32975 0.96169 0.08771 0.0
C319 C 0.25059 0.45779 0.45201 0.0
C320 C 0.22586 0.44 0.41864 0.0
C321 C 0.3009 0.49147 0.4523 0.0
C322 C 0.32836 0.50809 0.41922 0.0
H323 H 0.2306 0.44588 0.47807 0.0
H324 H 0.31928 0.50366 0.47857 0.0
S325 S 0.27989 0.47365 0.32463 0.0
N326 N 0.23181 0.4417 0.3518 0.0
N327 N 0.32626 0.5059 0.35231 0.0
C328 C 0.30364 0.49114 0.38568 0.0
C329 C 0.25227 0.45694 0.38539 0.0
C330 C 0.79108 0.93715 0.8991 0.0
C331 C 0.81871 0.91864 0.93143 0.0
C332 C 0.74629 -0.02404 0.90023 0.0
C333 C 0.72636 -0.00248 0.93382 0.0
H334 H 0.80505 0.92209 0.87248 0.0
H335 H 0.72797 -0.01008 0.87437 0.0
S336 S 0.78089 0.96004 0.02689 0.0
N337 N 0.82213 0.92388 0.99837 0.0
N338 N 0.73469 -0.00505 1.00065 0.0
C339 C 0.75193 -0.02183 0.96666 0.0
C340 C 0.79861 0.93894 0.96545 0.0
C341 C 0.76892 0.44814 0.65386 0.0
C342 C 0.74268 0.42796 0.62165 0.0
C343 C 0.81136 0.48883 0.65249 0.0
C344 C 0.83066 0.51062 0.61877 0.0
H345 H 0.75647 0.43234 0.68057 0.0
H346 H 0.82915 0.50339 0.67828 0.0
S347 S 0.77591 0.47204 0.526 0.0
N348 N 0.7373 0.43407 0.55476 0.0
N349 N 0.82087 0.50834 0.55198 0.0
C350 C 0.80523 0.49072 0.58608 0.0
C351 C 0.76066 0.44969 0.58755 0.0
C352 C 0.28561 0.27623 0.06997 0.0
C353 C 0.24508 0.23991 0.05394 0.0
C354 C 0.3485 0.27597 0.0611 0.0
C355 C 0.37309 0.23924 0.03607 0.0
H356 H 0.26908 0.30388 0.09037 0.0
H357 H 0.37842 0.30369 0.07461 0.0
S358 S 0.28528 0.14115 0.9824 0.0
N359 N 0.23374 0.16982 1.0089 0.0
N360 N 0.35071 0.16977 0.99236 0.0
C361 C 0.33256 0.20452 1.01862 0.0
C362 C 0.26896 0.20478 0.02751 0.0
C363 C 0.24109 0.66744 0.04017 0.0
C364 C 0.21335 0.71399 0.02698 0.0
C365 C 0.30426 0.66501 0.04765 0.0
C366 C 0.34189 0.70912 0.04234 0.0
H367 H 0.2138 0.6326 0.04486 0.0
H368 H 0.32335 0.62895 0.05854 0.0
S369 S 0.29424 0.83919 1.00607 0.0
N370 N 0.23038 0.80503 1.00868 0.0
N371 N 0.34839 0.79893 1.02006 0.0
C372 C 0.31536 0.75503 0.02789 0.0
C373 C 0.25137 0.7579 1.0209 0.0
C374 C 0.33105 0.17199 0.50956 0.0
C375 C 0.36105 0.21897 0.51988 0.0
C376 C 0.26792 0.17091 0.5017 0.0
C377 C 0.23213 0.21668 0.50407 0.0
H378 H 0.35632 0.13557 0.50769 0.0
H379 H 0.24728 0.13424 0.49319 0.0
S380 S 0.28567 0.3491 0.53214 0.0
N381 N 0.34798 0.31281 0.53126 0.0
N382 N 0.22976 0.30878 0.52123 0.0
C383 C 0.26083 0.26319 0.51573 0.0
C384 C 0.32503 0.2649 0.52237 0.0
C385 C 0.22712 0.77585 0.49448 0.0
C386 C 0.19846 0.73358 0.51302 0.0
C387 C 0.29037 0.77543 0.4865 0.0
C388 C 0.32722 0.73251 0.49657 0.0
H389 H 0.20026 0.8093 0.48574 0.0
H390 H 0.3102 0.80829 0.47169 0.0
S391 S 0.27728 0.61539 0.54997 0.0
N392 N 0.21437 0.6502 0.54455 0.0
N393 N 0.33164 0.64887 0.52881 0.0
C394 C 0.29954 0.6908 0.51598 0.0
C395 C 0.23567 0.69139 0.52437 0.0
C396 C 0.73132 0.72201 0.9793 0.0
C397 C 0.70236 0.70492 1.012 0.0
C398 C 0.79543 0.72506 0.97662 0.0
C399 C 0.83278 0.71158 1.00666 0.0
H400 H 0.70439 0.73646 0.95651 0.0
H401 H 0.81547 0.74191 0.95193 0.0
S402 S 0.78033 0.65484 0.0955 0.0
N403 N 0.71672 0.66635 0.07262 0.0
N404 N 0.83659 0.67384 0.06807 0.0
C405 C 0.80461 0.69045 0.03824 0.0
C406 C 0.73962 0.6867 0.0408 0.0
C407 C 0.77861 0.19262 1.00332 0.0
C408 C 0.75097 0.23921 0.99059 0.0
C409 C 0.84063 0.1904 1.01207 0.0
C410 C 0.87849 0.23489 1.00928 0.0
H411 H 0.75243 0.15683 1.00628 0.0
H412 H 0.85904 0.15295 1.02075 0.0
S413 S 0.82904 0.3678 0.97931 0.0
N414 N 0.76658 0.33168 0.97628 0.0
N415 N 0.88324 0.32793 0.99407 0.0
C416 C 0.85174 0.28215 0.99698 0.0
C417 C 0.78812 0.28425 0.98749 0.0
C418 C 0.77379 0.78132 0.563 0.0
C419 C 0.81702 0.7444 0.55022 0.0
C420 C 0.71109 0.77613 0.55488 0.0
C421 C 0.68921 0.7342 0.53336 0.0
H422 H 0.78812 0.81364 0.58028 0.0
H423 H 0.67935 0.80498 0.56565 0.0
S424 S 0.78312 0.62686 0.49304 0.0
N425 N 0.83288 0.6651 0.5139 0.0
N426 N 0.71594 0.65444 0.5002 0.0
C427 C 0.73202 0.69741 0.52011 0.0
C428 C 0.79557 0.70279 0.52811 0.0
C429 C 0.84114 0.22512 0.56753 0.0
C430 C 0.86943 0.20961 0.53428 0.0
C431 C 0.7771 0.22776 0.57083 0.0
C432 C 0.73895 0.21542 0.54093 0.0
H433 H 0.86853 0.23844 0.59041 0.0
H434 H 0.75763 0.24305 0.59614 0.0
S435 S 0.78958 0.16335 0.45042 0.0
N436 N 0.8537 0.17409 0.47295 0.0
N437 N 0.73389 0.18079 0.47874 0.0
C438 C 0.76649 0.19622 0.50858 0.0
C439 C 0.8315 0.19288 0.50537 0.0
C440 C 0.05892 0.2645 0.29243 0.0
C441 C 1.02443 0.22853 0.31327 0.0
C442 C 0.06175 0.26096 0.25395 0.0
C443 C 1.03038 0.22114 0.23495 0.0
H444 H 0.08461 0.29514 0.30609 0.0
H445 H 0.08948 0.28916 0.23898 0.0
S446 S 0.93415 0.11704 0.27765 0.0
N447 N 0.95786 0.15253 0.31284 0.0
N448 N 0.96398 0.14462 0.24044 0.0
C449 C 0.99486 0.18538 0.25569 0.0
C450 C 0.99178 0.18934 0.29491 0.0
C451 C 0.56098 0.67402 0.25053 0.0
C452 C 0.555 0.72284 0.23284 0.0
C453 C 0.55889 0.67027 0.28911 0.0
C454 C 0.54948 0.71508 0.31119 0.0
H455 H 0.56661 0.63854 0.23442 0.0
H456 H 0.56262 0.63179 0.30172 0.0
S457 S 0.53087 0.85187 0.27789 0.0
N458 N 0.53976 0.81684 0.23997 0.0
N459 N 0.53492 0.80969 0.31245 0.0
C460 C 0.54386 0.76411 0.29373 0.0
C461 C 0.5469 0.76801 0.25456 0.0
C462 C 0.99232 0.70583 0.75489 0.0
C463 C 0.0425 0.71943 0.7323 0.0
C464 C 0.99627 0.70571 0.79329 0.0
C465 C 0.05133 0.71709 0.81151 0.0
H466 H 0.94887 0.69509 0.74299 0.0
H467 H 0.95476 0.69789 0.80866 0.0
S468 S 0.19895 0.74957 0.76559 0.0
N469 N 0.1501 0.74378 0.73139 0.0
N470 N 0.15948 0.73703 0.80344 0.0
C471 C 0.10311 0.72788 0.78934 0.0
C472 C 0.09834 0.73034 0.74996 0.0
C473 C 0.53431 0.17315 0.75901 0.0
C474 C 0.51606 0.21876 0.74008 0.0
C475 C 0.53626 0.17189 0.79756 0.0
C476 C 0.51972 0.21605 0.81857 0.0
H477 H 0.54904 0.13872 0.74386 0.0
H478 H 0.55278 0.13668 0.81108 0.0
S479 S 0.46768 0.34464 0.78299 0.0
N480 N 0.48032 0.30911 0.74566 0.0
N481 N 0.48305 0.30586 0.81829 0.0
C482 C 0.49909 0.26111 0.80032 0.0
C483 C 0.4974 0.26266 0.761 0.0
loop_
_geom_bond_atom_site_label_1
_geom_bond_atom_site_label_2
_geom_bond_distance
_geom_bond_site_symmetry_2
_ccdc_geom_bond_type
Co0 N4 2.148 . S
Co0 N10 2.128 . S
Co0 N20 2.194 . S
Co0 O25 2.351 1_455 S
Co0 O26 2.155 . S
Co0 O27 2.096 . S
C1 N4 1.301 1_655 S
C1 N5 1.328 . S
C1 H6 0.930 . S
C2 C3 1.333 1_454 S
C2 N4 1.317 . S
C2 H7 0.927 1_554 S
C3 C2 1.333 1_656 S
C3 N5 1.350 1_556 S
C3 H29 0.931 . S
N4 Co0 2.148 . S
N4 C1 1.301 1_455 S
N4 C2 1.317 . S
N5 C1 1.328 . S
N5 C3 1.350 1_554 S
H6 C1 0.930 . S
H7 C2 0.927 1_556 S
C8 O9 1.224 . S
C8 O27 1.247 . S
O9 C8 1.224 . S
N10 Co0 2.128 . S
N10 C11 1.355 . S
N10 C13 1.311 . S
C11 N10 1.355 . S
C11 C12 1.363 . S
C11 H23 0.929 . S
C12 C11 1.363 . S
C12 N14 1.375 . S
C12 H30 0.931 . S
C13 N10 1.311 . S
C13 N14 1.347 . S
C13 H24 0.929 . S
N14 C12 1.375 . S
N14 C13 1.347 . S
C15 C18 1.365 . S
C15 N20 1.328 1_655 S
C15 H21 0.929 . S
C16 C17 1.362 . S
C16 C19 1.378 . S
C16 H31 0.929 . S
C17 C16 1.362 . S
C17 C18 1.366 1_455 S
C18 C15 1.365 . S
C18 C17 1.366 1_655 S
C18 H32 0.930 . S
C19 C16 1.378 . S
C19 N20 1.315 . S
C19 H22 0.930 . S
N20 Co0 2.194 . S
N20 C15 1.328 1_455 S
N20 C19 1.315 . S
H21 C15 0.929 . S
H22 C19 0.930 . S
H23 C11 0.929 . S
H24 C13 0.929 . S
O25 Co0 2.351 1_655 S
O25 C28 1.244 . S
O26 Co0 2.155 . S
O26 C28 1.240 1_455 S
O27 Co0 2.096 . S
O27 C8 1.247 . S
C28 O25 1.244 . S
C28 O26 1.240 1_655 S
H29 C3 0.931 . S
H30 C12 0.931 . S
H31 C16 0.929 . S
H32 C18 0.930 . S
Co33 N37 2.148 . S
Co33 N43 2.128 . S
Co33 N53 2.194 . S
Co33 O58 2.351 . S
Co33 O59 2.155 . S
Co33 O60 2.096 . S
C34 N37 1.301 . S
C34 N38 1.328 . S
C34 H39 0.930 . S
C35 C36 1.333 1_554 S
C35 N37 1.317 . S
C35 H40 0.927 1_554 S
C36 C35 1.333 1_556 S
C36 N38 1.350 1_556 S
C36 H62 0.931 . S
N37 Co33 2.148 . S
N37 C34 1.301 . S
N37 C35 1.317 . S
N38 C34 1.328 . S
N38 C36 1.350 1_554 S
H39 C34 0.930 . S
H40 C35 0.927 1_556 S
C41 O42 1.224 . S
C41 O60 1.247 . S
O42 C41 1.224 . S
N43 Co33 2.128 . S
N43 C44 1.355 . S
N43 C46 1.311 . S
C44 N43 1.355 . S
C44 C45 1.363 . S
C44 H56 0.929 . S
C45 C44 1.363 . S
C45 N47 1.375 . S
C45 H63 0.931 . S
C46 N43 1.311 . S
C46 N47 1.347 . S
C46 H57 0.929 . S
N47 C45 1.375 . S
N47 C46 1.347 . S
C48 C51 1.365 . S
C48 N53 1.328 . S
C48 H54 0.929 . S
C49 C50 1.362 . S
C49 C52 1.378 . S
C49 H64 0.929 . S
C50 C49 1.362 . S
C50 C51 1.366 . S
C51 C48 1.365 . S
C51 C50 1.366 . S
C51 H65 0.930 . S
C52 C49 1.378 . S
C52 N53 1.315 . S
C52 H55 0.930 . S
N53 Co33 2.194 . S
N53 C48 1.328 . S
N53 C52 1.315 . S
H54 C48 0.929 . S
H55 C52 0.930 . S
H56 C44 0.929 . S
H57 C46 0.929 . S
O58 Co33 2.351 . S
O58 C61 1.244 . S
O59 Co33 2.155 . S
O59 C61 1.240 . S
O60 Co33 2.096 . S
O60 C41 1.247 . S
C61 O58 1.244 . S
C61 O59 1.240 . S
H62 C36 0.931 . S
H63 C45 0.931 . S
H64 C49 0.929 . S
H65 C51 0.930 . S
Co66 N70 2.148 . S
Co66 N76 2.128 . S
Co66 N86 2.194 . S
Co66 O91 2.351 1_455 S
Co66 O92 2.155 . S
Co66 O93 2.096 . S
C67 N70 1.301 1_655 S
C67 N71 1.328 . S
C67 H72 0.930 . S
C68 C69 1.333 1_455 S
C68 N70 1.317 . S
C68 H73 0.930 . S
C69 C68 1.333 1_655 S
C69 N71 1.350 . S
C69 H95 0.931 . S
N70 Co66 2.148 . S
N70 C67 1.301 1_455 S
N70 C68 1.317 . S
N71 C67 1.328 . S
N71 C69 1.350 . S
H72 C67 0.930 . S
H73 C68 0.930 . S
C74 O75 1.224 . S
C74 O93 1.247 . S
O75 C74 1.224 . S
N76 Co66 2.128 . S
N76 C77 1.355 . S
N76 C79 1.311 . S
C77 N76 1.355 . S
C77 C78 1.363 . S
C77 H89 0.929 . S
C78 C77 1.363 . S
C78 N80 1.375 . S
C78 H96 0.931 . S
C79 N76 1.311 . S
C79 N80 1.347 . S
C79 H90 0.929 . S
N80 C78 1.375 . S
N80 C79 1.347 . S
C81 C84 1.365 . S
C81 N86 1.328 1_655 S
C81 H87 0.929 . S
C82 C83 1.362 . S
C82 C85 1.378 . S
C82 H97 0.929 . S
C83 C82 1.362 . S
C83 C84 1.366 1_455 S
C84 C81 1.365 . S
C84 C83 1.366 1_655 S
C84 H98 0.930 . S
C85 C82 1.378 . S
C85 N86 1.315 . S
C85 H88 0.930 . S
N86 Co66 2.194 . S
N86 C81 1.328 1_455 S
N86 C85 1.315 . S
H87 C81 0.929 . S
H88 C85 0.930 . S
H89 C77 0.929 . S
H90 C79 0.929 . S
O91 Co66 2.351 1_655 S
O91 C94 1.244 . S
O92 Co66 2.155 . S
O92 C94 1.240 1_455 S
O93 Co66 2.096 . S
O93 C74 1.247 . S
C94 O91 1.244 . S
C94 O92 1.240 1_655 S
H95 C69 0.931 . S
H96 C78 0.931 . S
H97 C82 0.929 . S
H98 C84 0.930 . S
Co99 N103 2.148 . S
Co99 N109 2.128 . S
Co99 N119 2.194 . S
Co99 O124 2.351 . S
Co99 O125 2.155 . S
Co99 O126 2.096 . S
C100 N103 1.301 . S
C100 N104 1.328 . S
C100 H105 0.930 . S
C101 C102 1.333 . S
C101 N103 1.317 . S
C101 H106 0.930 . S
C102 C101 1.333 . S
C102 N104 1.350 . S
C102 H128 0.931 . S
N103 Co99 2.148 . S
N103 C100 1.301 . S
N103 C101 1.317 . S
N104 C100 1.328 . S
N104 C102 1.350 . S
H105 C100 0.930 . S
H106 C101 0.930 . S
C107 O108 1.224 . S
C107 O126 1.247 . S
O108 C107 1.224 . S
N109 Co99 2.128 . S
N109 C110 1.355 . S
N109 C112 1.311 . S
C110 N109 1.355 . S
C110 C111 1.363 . S
C110 H122 0.929 . S
C111 C110 1.363 . S
C111 N113 1.375 . S
C111 H129 0.931 . S
C112 N109 1.311 . S
C112 N113 1.347 . S
C112 H123 0.929 . S
N113 C111 1.375 . S
N113 C112 1.347 . S
C114 C117 1.365 . S
C114 N119 1.328 . S
C114 H120 0.929 . S
C115 C116 1.362 . S
C115 C118 1.378 . S
C115 H130 0.929 . S
C116 C115 1.362 . S
C116 C117 1.366 . S
C117 C114 1.365 . S
C117 C116 1.366 . S
C117 H131 0.930 . S
C118 C115 1.378 . S
C118 N119 1.315 . S
C118 H121 0.930 . S
N119 Co99 2.194 . S
N119 C114 1.328 . S
N119 C118 1.315 . S
H120 C114 0.929 . S
H121 C118 0.930 . S
H122 C110 0.929 . S
H123 C112 0.929 . S
O124 Co99 2.351 . S
O124 C127 1.244 . S
O125 Co99 2.155 . S
O125 C127 1.240 . S
O126 Co99 2.096 . S
O126 C107 1.247 . S
C127 O124 1.244 . S
C127 O125 1.240 . S
H128 C102 0.931 . S
H129 C111 0.931 . S
H130 C115 0.929 . S
H131 C117 0.930 . S
Co132 N136 2.148 . S
Co132 N142 2.128 . S
Co132 N152 2.194 . S
Co132 O157 2.351 1_655 S
Co132 O158 2.155 . S
Co132 O159 2.096 . S
C133 N136 1.301 1_455 S
C133 N137 1.328 . S
C133 H138 0.930 . S
C134 C135 1.333 1_656 S
C134 N136 1.317 . S
C134 H139 0.927 1_556 S
C135 C134 1.333 1_454 S
C135 N137 1.350 1_554 S
C135 H161 0.931 . S
N136 Co132 2.148 . S
N136 C133 1.301 1_655 S
N136 C134 1.317 . S
N137 C133 1.328 . S
N137 C135 1.350 1_556 S
H138 C133 0.930 . S
H139 C134 0.927 1_554 S
C140 O141 1.224 . S
C140 O159 1.247 . S
O141 C140 1.224 . S
N142 Co132 2.128 . S
N142 C143 1.355 . S
N142 C145 1.311 . S
C143 N142 1.355 . S
C143 C144 1.363 . S
C143 H155 0.929 . S
C144 C143 1.363 . S
C144 N146 1.375 . S
C144 H162 0.931 . S
C145 N142 1.311 . S
C145 N146 1.347 . S
C145 H156 0.929 . S
N146 C144 1.375 . S
N146 C145 1.347 . S
C147 C150 1.365 . S
C147 N152 1.328 1_455 S
C147 H153 0.929 . S
C148 C149 1.362 . S
C148 C151 1.378 . S
C148 H163 0.929 . S
C149 C148 1.362 . S
C149 C150 1.366 1_655 S
C150 C147 1.365 . S
C150 C149 1.366 1_455 S
C150 H164 0.930 . S
C151 C148 1.378 . S
C151 N152 1.315 . S
C151 H154 0.930 . S
N152 Co132 2.194 . S
N152 C147 1.328 1_655 S
N152 C151 1.315 . S
H153 C147 0.929 . S
H154 C151 0.930 . S
H155 C143 0.929 . S
H156 C145 0.929 . S
O157 Co132 2.351 1_455 S
O157 C160 1.244 . S
O158 Co132 2.155 . S
O158 C160 1.240 1_655 S
O159 Co132 2.096 . S
O159 C140 1.247 . S
C160 O157 1.244 . S
C160 O158 1.240 1_455 S
H161 C135 0.931 . S
H162 C144 0.931 . S
H163 C148 0.929 . S
H164 C150 0.930 . S
Co165 N169 2.148 . S
Co165 N175 2.128 . S
Co165 N185 2.194 . S
Co165 O190 2.351 . S
Co165 O191 2.155 . S
Co165 O192 2.096 . S
C166 N169 1.301 . S
C166 N170 1.328 . S
C166 H171 0.930 . S
C167 C168 1.333 1_556 S
C167 N169 1.317 . S
C167 H172 0.927 1_556 S
C168 C167 1.333 1_554 S
C168 N170 1.350 1_554 S
C168 H194 0.931 . S
N169 Co165 2.148 . S
N169 C166 1.301 . S
N169 C167 1.317 . S
N170 C166 1.328 . S
N170 C168 1.350 1_556 S
H171 C166 0.930 . S
H172 C167 0.927 1_554 S
C173 O174 1.224 . S
C173 O192 1.247 . S
O174 C173 1.224 . S
N175 Co165 2.128 . S
N175 C176 1.355 . S
N175 C178 1.311 . S
C176 N175 1.355 . S
C176 C177 1.363 . S
C176 H188 0.929 . S
C177 C176 1.363 . S
C177 N179 1.375 . S
C177 H195 0.931 . S
C178 N175 1.311 . S
C178 N179 1.347 . S
C178 H189 0.929 . S
N179 C177 1.375 . S
N179 C178 1.347 . S
C180 C183 1.365 . S
C180 N185 1.328 . S
C180 H186 0.929 . S
C181 C182 1.362 . S
C181 C184 1.378 . S
C181 H196 0.929 . S
C182 C181 1.362 . S
C182 C183 1.366 . S
C183 C180 1.365 . S
C183 C182 1.366 . S
C183 H197 0.930 . S
C184 C181 1.378 . S
C184 N185 1.315 . S
C184 H187 0.930 . S
N185 Co165 2.194 . S
N185 C180 1.328 . S
N185 C184 1.315 . S
H186 C180 0.929 . S
H187 C184 0.930 . S
H188 C176 0.929 . S
H189 C178 0.929 . S
O190 Co165 2.351 . S
O190 C193 1.244 . S
O191 Co165 2.155 . S
O191 C193 1.240 . S
O192 Co165 2.096 . S
O192 C173 1.247 . S
C193 O190 1.244 . S
C193 O191 1.240 . S
H194 C168 0.931 . S
H195 C177 0.931 . S
H196 C181 0.929 . S
H197 C183 0.930 . S
Co198 N202 2.148 . S
Co198 N208 2.128 . S
Co198 N218 2.194 . S
Co198 O223 2.351 1_655 S
Co198 O224 2.155 . S
Co198 O225 2.096 . S
C199 N202 1.301 1_455 S
C199 N203 1.328 . S
C199 H204 0.930 . S
C200 C201 1.333 1_655 S
C200 N202 1.317 . S
C200 H205 0.930 . S
C201 C200 1.333 1_455 S
C201 N203 1.350 . S
C201 H227 0.931 . S
N202 Co198 2.148 . S
N202 C199 1.301 1_655 S
N202 C200 1.317 . S
N203 C199 1.328 . S
N203 C201 1.350 . S
H204 C199 0.930 . S
H205 C200 0.930 . S
C206 O207 1.224 . S
C206 O225 1.247 . S
O207 C206 1.224 . S
N208 Co198 2.128 . S
N208 C209 1.355 . S
N208 C211 1.311 . S
C209 N208 1.355 . S
C209 C210 1.363 . S
C209 H221 0.929 . S
C210 C209 1.363 . S
C210 N212 1.375 . S
C210 H228 0.931 . S
C211 N208 1.311 . S
C211 N212 1.347 . S
C211 H222 0.929 . S
N212 C210 1.375 . S
N212 C211 1.347 . S
C213 C216 1.365 . S
C213 N218 1.328 1_455 S
C213 H219 0.929 . S
C214 C215 1.362 . S
C214 C217 1.378 . S
C214 H229 0.929 . S
C215 C214 1.362 . S
C215 C216 1.366 1_655 S
C216 C213 1.365 . S
C216 C215 1.366 1_455 S
C216 H230 0.930 . S
C217 C214 1.378 . S
C217 N218 1.315 . S
C217 H220 0.930 . S
N218 Co198 2.194 . S
N218 C213 1.328 1_655 S
N218 C217 1.315 . S
H219 C213 0.929 . S
H220 C217 0.930 . S
H221 C209 0.929 . S
H222 C211 0.929 . S
O223 Co198 2.351 1_455 S
O223 C226 1.244 . S
O224 Co198 2.155 . S
O224 C226 1.240 1_655 S
O225 Co198 2.096 . S
O225 C206 1.247 . S
C226 O223 1.244 . S
C226 O224 1.240 1_455 S
H227 C201 0.931 . S
H228 C210 0.931 . S
H229 C214 0.929 . S
H230 C216 0.930 . S
Co231 N235 2.148 . S
Co231 N241 2.128 . S
Co231 N251 2.194 . S
Co231 O256 2.351 . S
Co231 O257 2.155 . S
Co231 O258 2.096 . S
C232 N235 1.301 . S
C232 N236 1.328 . S
C232 H237 0.930 . S
C233 C234 1.333 . S
C233 N235 1.317 . S
C233 H238 0.930 . S
C234 C233 1.333 . S
C234 N236 1.350 . S
C234 H260 0.931 . S
N235 Co231 2.148 . S
N235 C232 1.301 . S
N235 C233 1.317 . S
N236 C232 1.328 . S
N236 C234 1.350 . S
H237 C232 0.930 . S
H238 C233 0.930 . S
C239 O240 1.224 . S
C239 O258 1.247 . S
O240 C239 1.224 . S
N241 Co231 2.128 . S
N241 C242 1.355 . S
N241 C244 1.311 . S
C242 N241 1.355 . S
C242 C243 1.363 . S
C242 H254 0.929 . S
C243 C242 1.363 . S
C243 N245 1.375 . S
C243 H261 0.931 . S
C244 N241 1.311 . S
C244 N245 1.347 . S
C244 H255 0.929 . S
N245 C243 1.375 . S
N245 C244 1.347 . S
C246 C249 1.365 . S
C246 N251 1.328 . S
C246 H252 0.929 . S
C247 C248 1.362 . S
C247 C250 1.378 . S
C247 H262 0.929 . S
C248 C247 1.362 . S
C248 C249 1.366 . S
C249 C246 1.365 . S
C249 C248 1.366 . S
C249 H263 0.930 . S
C250 C247 1.378 . S
C250 N251 1.315 . S
C250 H253 0.930 . S
N251 Co231 2.194 . S
N251 C246 1.328 . S
N251 C250 1.315 . S
H252 C246 0.929 . S
H253 C250 0.930 . S
H254 C242 0.929 . S
H255 C244 0.929 . S
O256 Co231 2.351 . S
O256 C259 1.244 . S
O257 Co231 2.155 . S
O257 C259 1.240 . S
O258 Co231 2.096 . S
O258 C239 1.247 . S
C259 O256 1.244 . S
C259 O257 1.240 . S
H260 C234 0.931 . S
H261 C243 0.931 . S
H262 C247 0.929 . S
H263 C249 0.930 . S
C264 C265 1.369 1_455 S
C264 C266 1.419 1_545 S
C264 H268 0.930 . S
C265 C264 1.369 1_655 S
C265 C274 1.429 1_554 S
C266 C264 1.419 1_565 S
C266 C267 1.363 1_554 S
C266 H269 0.929 . S
C267 C266 1.363 1_556 S
C267 C273 1.428 1_455 S
H268 C264 0.930 . S
H269 C266 0.929 . S
S270 N271 1.613 1_565 S
S270 N272 1.610 . S
N271 S270 1.613 1_545 S
N271 C274 1.350 . S
N272 S270 1.610 . S
N272 C273 1.351 . S
C273 C267 1.428 1_655 S
C273 N272 1.351 . S
C273 C274 1.434 1_565 S
C274 C265 1.429 1_556 S
C274 N271 1.350 . S
C274 C273 1.434 1_545 S
C275 C276 1.369 1_554 S
C275 C277 1.419 1_545 S
C275 H279 0.930 . S
C276 C275 1.369 1_556 S
C276 C285 1.446 . S
C277 C275 1.419 1_565 S
C277 C278 1.363 . S
C277 H280 0.929 . S
C278 C277 1.363 . S
C278 C284 1.428 1_554 S
H279 C275 0.930 . S
H280 C277 0.929 . S
S281 N282 1.613 . S
S281 N283 1.610 . S
N282 S281 1.613 . S
N282 C285 1.348 1_565 S
N283 S281 1.610 . S
N283 C284 1.351 . S
C284 C278 1.428 1_556 S
C284 N283 1.351 . S
C284 C285 1.416 1_565 S
C285 C276 1.446 . S
C285 N282 1.348 1_545 S
C285 C284 1.416 1_545 S
C286 C287 1.369 . S
C286 C288 1.419 . S
C286 H290 0.930 . S
C287 C286 1.369 . S
C287 C296 1.429 1_455 S
C288 C286 1.419 . S
C288 C289 1.363 1_455 S
C288 H291 0.929 . S
C289 C288 1.363 1_655 S
C289 C295 1.428 . S
H290 C286 0.930 . S
H291 C288 0.929 . S
S292 N293 1.613 . S
S292 N294 1.610 . S
N293 S292 1.613 . S
N293 C296 1.350 . S
N294 S292 1.610 . S
N294 C295 1.351 . S
C295 C289 1.428 . S
C295 N294 1.351 . S
C295 C296 1.434 . S
C296 C287 1.429 1_655 S
C296 N293 1.350 . S
C296 C295 1.434 . S
C297 C298 1.369 . S
C297 C299 1.419 . S
C297 H301 0.930 . S
C298 C297 1.369 . S
C298 C307 1.429 . S
C299 C297 1.419 . S
C299 C300 1.363 . S
C299 H302 0.929 . S
C300 C299 1.363 . S
C300 C306 1.428 . S
H301 C297 0.930 . S
H302 C299 0.929 . S
S303 N304 1.613 . S
S303 N305 1.610 . S
N304 S303 1.613 . S
N304 C307 1.350 . S
N305 S303 1.610 . S
N305 C306 1.351 . S
C306 C300 1.428 . S
C306 N305 1.351 . S
C306 C307 1.434 . S
C307 C298 1.429 . S
C307 N304 1.350 . S
C307 C306 1.434 . S
C308 C309 1.369 . S
C308 C310 1.419 1_565 S
C308 H312 0.930 . S
C309 C308 1.369 . S
C309 C318 1.429 . S
C310 C308 1.419 1_545 S
C310 C311 1.363 . S
C310 H313 0.929 . S
C311 C310 1.363 . S
C311 C317 1.428 . S
H312 C308 0.930 . S
H313 C310 0.929 . S
S314 N315 1.613 1_556 S
S314 N316 1.610 1_566 S
N315 S314 1.613 1_554 S
N315 C318 1.350 . S
N316 S314 1.610 1_544 S
N316 C317 1.351 . S
C317 C311 1.428 . S
C317 N316 1.351 . S
C317 C318 1.434 1_545 S
C318 C309 1.429 . S
C318 N315 1.350 . S
C318 C317 1.434 1_565 S
C319 C320 1.369 . S
C319 C321 1.419 . S
C319 H323 0.930 . S
C320 C319 1.369 . S
C320 C329 1.429 . S
C321 C319 1.419 . S
C321 C322 1.363 . S
C321 H324 0.929 . S
C322 C321 1.363 . S
C322 C328 1.428 . S
H323 C319 0.930 . S
H324 C321 0.929 . S
S325 N326 1.613 . S
S325 N327 1.610 . S
N326 S325 1.613 . S
N326 C329 1.350 . S
N327 S325 1.610 . S
N327 C328 1.351 . S
C328 C322 1.428 . S
C328 N327 1.351 . S
C328 C329 1.434 . S
C329 C320 1.429 . S
C329 N326 1.350 . S
C329 C328 1.434 . S
C330 C331 1.369 . S
C330 C332 1.419 1_565 S
C330 H334 0.930 . S
C331 C330 1.369 . S
C331 C340 1.429 . S
C332 C330 1.419 1_545 S
C332 C333 1.363 . S
C332 H335 0.929 . S
C333 C332 1.363 . S
C333 C339 1.428 . S
H334 C330 0.930 . S
H335 C332 0.929 . S
S336 N337 1.613 . S
S336 N338 1.610 1_565 S
N337 S336 1.613 . S
N337 C340 1.350 . S
N338 S336 1.610 1_545 S
N338 C339 1.351 . S
C339 C333 1.428 . S
C339 N338 1.351 . S
C339 C340 1.434 1_545 S
C340 C331 1.429 . S
C340 N337 1.350 . S
C340 C339 1.434 1_565 S
C341 C342 1.369 . S
C341 C343 1.419 . S
C341 H345 0.930 . S
C342 C341 1.369 . S
C342 C351 1.429 . S
C343 C341 1.419 . S
C343 C344 1.363 . S
C343 H346 0.929 . S
C344 C343 1.363 . S
C344 C350 1.428 . S
H345 C341 0.930 . S
H346 C343 0.929 . S
S347 N348 1.613 . S
S347 N349 1.610 . S
N348 S347 1.613 . S
N348 C351 1.350 . S
N349 S347 1.610 . S
N349 C350 1.351 . S
C350 C344 1.428 . S
C350 N349 1.351 . S
C350 C351 1.434 . S
C351 C342 1.429 . S
C351 N348 1.350 . S
C351 C350 1.434 . S
C352 C353 1.369 . S
C352 C354 1.419 . S
C352 H356 0.930 . S
C353 C352 1.369 . S
C353 C362 1.429 1_554 S
C354 C352 1.419 . S
C354 C355 1.363 1_554 S
C354 H357 0.929 . S
C355 C354 1.363 1_556 S
C355 C361 1.428 . S
H356 C352 0.930 . S
H357 C354 0.929 . S
S358 N359 1.613 . S
S358 N360 1.610 . S
N359 S358 1.613 . S
N359 C362 1.350 . S
N360 S358 1.610 . S
N360 C361 1.351 . S
C361 C355 1.428 . S
C361 N360 1.351 . S
C361 C362 1.434 . S
C362 C353 1.429 1_556 S
C362 N359 1.350 . S
C362 C361 1.434 . S
C363 C364 1.369 1_554 S
C363 C365 1.419 . S
C363 H367 0.930 . S
C364 C363 1.369 1_556 S
C364 C373 1.429 . S
C365 C363 1.419 . S
C365 C366 1.363 . S
C365 H368 0.929 . S
C366 C365 1.363 . S
C366 C372 1.428 1_554 S
H367 C363 0.930 . S
H368 C365 0.929 . S
S369 N370 1.613 . S
S369 N371 1.610 . S
N370 S369 1.613 . S
N370 C373 1.350 . S
N371 S369 1.610 . S
N371 C372 1.351 . S
C372 C366 1.428 1_556 S
C372 N371 1.351 . S
C372 C373 1.434 . S
C373 C364 1.429 . S
C373 N370 1.350 . S
C373 C372 1.434 . S
C374 C375 1.369 . S
C374 C376 1.419 . S
C374 H378 0.930 . S
C375 C374 1.369 . S
C375 C384 1.429 . S
C376 C374 1.419 . S
C376 C377 1.363 . S
C376 H379 0.929 . S
C377 C376 1.363 . S
C377 C383 1.428 . S
H378 C374 0.930 . S
H379 C376 0.929 . S
S380 N381 1.613 . S
S380 N382 1.610 . S
N381 S380 1.613 . S
N381 C384 1.350 . S
N382 S380 1.610 . S
N382 C383 1.351 . S
C383 C377 1.428 . S
C383 N382 1.351 . S
C383 C384 1.434 . S
C384 C375 1.429 . S
C384 N381 1.350 . S
C384 C383 1.434 . S
C385 C386 1.369 . S
C385 C387 1.419 . S
C385 H389 0.930 . S
C386 C385 1.369 . S
C386 C395 1.429 . S
C387 C385 1.419 . S
C387 C388 1.363 . S
C387 H390 0.929 . S
C388 C387 1.363 . S
C388 C394 1.428 . S
H389 C385 0.930 . S
H390 C387 0.929 . S
S391 N392 1.613 . S
S391 N393 1.610 . S
N392 S391 1.613 . S
N392 C395 1.350 . S
N393 S391 1.610 . S
N393 C394 1.351 . S
C394 C388 1.428 . S
C394 N393 1.351 . S
C394 C395 1.434 . S
C395 C386 1.429 . S
C395 N392 1.350 . S
C395 C394 1.434 . S
C396 C397 1.369 1_556 S
C396 C398 1.419 . S
C396 H400 0.930 . S
C397 C396 1.369 1_554 S
C397 C406 1.429 . S
C398 C396 1.419 . S
C398 C399 1.363 . S
C398 H401 0.929 . S
C399 C398 1.363 . S
C399 C405 1.428 1_556 S
H400 C396 0.930 . S
H401 C398 0.929 . S
S402 N403 1.613 . S
S402 N404 1.610 . S
N403 S402 1.613 . S
N403 C406 1.350 . S
N404 S402 1.610 . S
N404 C405 1.351 . S
C405 C399 1.428 1_554 S
C405 N404 1.351 . S
C405 C406 1.434 . S
C406 C397 1.429 . S
C406 N403 1.350 . S
C406 C405 1.434 . S
C407 C408 1.369 . S
C407 C409 1.419 . S
C407 H411 0.930 . S
C408 C407 1.369 . S
C408 C417 1.429 1_556 S
C409 C407 1.419 . S
C409 C410 1.363 1_556 S
C409 H412 0.929 . S
C410 C409 1.363 1_554 S
C410 C416 1.428 . S
H411 C407 0.930 . S
H412 C409 0.929 . S
S413 N414 1.613 . S
S413 N415 1.610 . S
N414 S413 1.613 . S
N414 C417 1.350 . S
N415 S413 1.610 . S
N415 C416 1.351 . S
C416 C410 1.428 . S
C416 N415 1.351 . S
C416 C417 1.434 . S
C417 C408 1.429 1_554 S
C417 N414 1.350 . S
C417 C416 1.434 . S
C418 C419 1.369 . S
C418 C420 1.419 . S
C418 H422 0.930 . S
C419 C418 1.369 . S
C419 C428 1.429 . S
C420 C418 1.419 . S
C420 C421 1.363 . S
C420 H423 0.929 . S
C421 C420 1.363 . S
C421 C427 1.428 . S
H422 C418 0.930 . S
H423 C420 0.929 . S
S424 N425 1.613 . S
S424 N426 1.610 . S
N425 S424 1.613 . S
N425 C428 1.350 . S
N426 S424 1.610 . S
N426 C427 1.351 . S
C427 C421 1.428 . S
C427 N426 1.351 . S
C427 C428 1.434 . S
C428 C419 1.429 . S
C428 N425 1.350 . S
C428 C427 1.434 . S
C429 C430 1.369 . S
C429 C431 1.419 . S
C429 H433 0.930 . S
C430 C429 1.369 . S
C430 C439 1.429 . S
C431 C429 1.419 . S
C431 C432 1.363 . S
C431 H434 0.929 . S
C432 C431 1.363 . S
C432 C438 1.428 . S
H433 C429 0.930 . S
H434 C431 0.929 . S
S435 N436 1.613 . S
S435 N437 1.610 . S
N436 S435 1.613 . S
N436 C439 1.350 . S
N437 S435 1.610 . S
N437 C438 1.351 . S
C438 C432 1.428 . S
C438 N437 1.351 . S
C438 C439 1.434 . S
C439 C430 1.429 . S
C439 N436 1.350 . S
C439 C438 1.434 . S
C440 C441 1.369 . S
C440 C442 1.419 . S
C440 H444 0.930 . S
C441 C440 1.369 . S
C441 C450 1.429 . S
C442 C440 1.419 . S
C442 C443 1.363 . S
C442 H445 0.929 . S
C443 C442 1.363 . S
C443 C449 1.428 . S
H444 C440 0.930 . S
H445 C442 0.929 . S
S446 N447 1.613 . S
S446 N448 1.610 . S
N447 S446 1.613 . S
N447 C450 1.350 1_655 S
N448 S446 1.610 . S
N448 C449 1.351 1_655 S
C449 C443 1.428 . S
C449 N448 1.351 1_455 S
C449 C450 1.434 . S
C450 C441 1.429 . S
C450 N447 1.350 1_455 S
C450 C449 1.434 . S
C451 C452 1.369 . S
C451 C453 1.419 . S
C451 H455 0.930 . S
C452 C451 1.369 . S
C452 C461 1.429 . S
C453 C451 1.419 . S
C453 C454 1.363 . S
C453 H456 0.929 . S
C454 C453 1.363 . S
C454 C460 1.428 . S
H455 C451 0.930 . S
H456 C453 0.929 . S
S457 N458 1.613 . S
S457 N459 1.610 . S
N458 S457 1.613 . S
N458 C461 1.350 . S
N459 S457 1.610 . S
N459 C460 1.351 . S
C460 C454 1.428 . S
C460 N459 1.351 . S
C460 C461 1.434 . S
C461 C452 1.429 . S
C461 N458 1.350 . S
C461 C460 1.434 . S
C462 C463 1.369 . S
C462 C464 1.419 . S
C462 H466 0.930 . S
C463 C462 1.369 . S
C463 C472 1.429 1_655 S
C464 C462 1.419 . S
C464 C465 1.363 . S
C464 H467 0.929 . S
C465 C464 1.363 . S
C465 C471 1.428 1_655 S
H466 C462 0.930 . S
H467 C464 0.929 . S
S468 N469 1.613 . S
S468 N470 1.610 . S
N469 S468 1.613 . S
N469 C472 1.350 . S
N470 S468 1.610 . S
N470 C471 1.351 . S
C471 C465 1.428 1_455 S
C471 N470 1.351 . S
C471 C472 1.434 . S
C472 C463 1.429 1_455 S
C472 N469 1.350 . S
C472 C471 1.434 . S
C473 C474 1.369 . S
C473 C475 1.419 . S
C473 H477 0.930 . S
C474 C473 1.369 . S
C474 C483 1.429 . S
C475 C473 1.419 . S
C475 C476 1.363 . S
C475 H478 0.929 . S
C476 C475 1.363 . S
C476 C482 1.428 . S
H477 C473 0.930 . S
H478 C475 0.929 . S
S479 N480 1.613 . S
S479 N481 1.610 . S
N480 S479 1.613 . S
N480 C483 1.350 . S
N481 S479 1.610 . S
N481 C482 1.351 . S
C482 C476 1.428 . S
C482 N481 1.351 . S
C482 C483 1.434 . S
C483 C474 1.429 . S
C483 N480 1.350 . S
C483 C482 1.434 . S
C265 C28 1.183 . S
C267 C160 1.167 . S
C276 C193 1.177 . S
C278 C61 1.172 . S
C287 C226 1.175 . S
C289 C94 1.173 . S
C298 C127 1.169 . S
C300 C259 1.178 . S
C309 N47 0.975 . S
C311 N14 0.979 . S
C320 N80 0.977 . S
C322 N113 0.979 . S
C331 N146 0.987 . S
C333 N179 0.971 . S
C342 N245 0.978 . S
C344 N212 0.979 . S
C353 C8 1.894 . S
C355 N170 1.911 . S
C364 N137 1.913 . S
C366 C41 1.894 . S
C375 N236 1.912 . S
C377 C74 1.894 . S
C386 N203 1.911 . S
C388 C107 1.893 . S
C397 N38 1.912 . S
C399 C140 1.894 . S
C408 C173 1.894 . S
C410 N5 1.913 . S
C419 C206 1.890 . S
C421 N104 1.909 . S
C430 N71 1.912 . S
C432 C239 1.894 . S
C441 C83 1.528 . S
C443 C17 1.524 . S
C452 C50 1.524 . S
C454 C116 1.527 . S
C463 C215 1.527 . S
C465 C149 1.526 . S
C474 C248 1.524 . S
C476 C182 1.528 . S
