# Generated by pormake.
# Topology whz, (6)-cn, num edge types: 1
# Building blocks:
#     Node 0, Type 0, BuildingBlock: MIDCAF_clean_sbu_0, # of connection points: 6
#     Node 1, Type 0, BuildingBlock: MIDCAF_clean_sbu_0, # of connection points: 6
#     Node 2, Type 0, BuildingBlock: MIDCAF_clean_sbu_0, # of connection points: 6
#     Node 3, Type 0, BuildingBlock: MIDCAF_clean_sbu_0, # of connection points: 6
#     Node 4, Type 0, BuildingBlock: MIDCAF_clean_sbu_0, # of connection points: 6
#     Node 5, Type 0, BuildingBlock: MIDCAF_clean_sbu_0, # of connection points: 6
#     Node 6, Type 0, BuildingBlock: MIDCAF_clean_sbu_0, # of connection points: 6
#     Node 7, Type 0, BuildingBlock: MIDCAF_clean_sbu_0, # of connection points: 6
#     Node 8, Type 0, BuildingBlock: MIDCAF_clean_sbu_0, # of connection points: 6
#     Node 9, Type 0, BuildingBlock: MIDCAF_clean_sbu_0, # of connection points: 6
#     Node 10, Type 0, BuildingBlock: MIDCAF_clean_sbu_0, # of connection points: 6
#     Node 11, Type 0, BuildingBlock: MIDCAF_clean_sbu_0, # of connection points: 6
#     Node 12, Type 0, BuildingBlock: MIDCAF_clean_sbu_0, # of connection points: 6
#     Node 13, Type 0, BuildingBlock: MIDCAF_clean_sbu_0, # of connection points: 6
#     Node 14, Type 0, BuildingBlock: MIDCAF_clean_sbu_0, # of connection points: 6
#     Node 15, Type 0, BuildingBlock: MIDCAF_clean_sbu_0, # of connection points: 6
#     Edge 16, Type (0, 0), BuildingBlock: OJICUG_clean_linker_0, # of connection points: 2
#     Edge 17, Type (0, 0), BuildingBlock: OJICUG_clean_linker_0, # of connection points: 2
#     Edge 18, Type (0, 0), BuildingBlock: OJICUG_clean_linker_0, # of connection points: 2
#     Edge 19, Type (0, 0), BuildingBlock: OJICUG_clean_linker_0, # of connection points: 2
#     Edge 20, Type (0, 0), BuildingBlock: OJICUG_clean_linker_0, # of connection points: 2
#     Edge 21, Type (0, 0), BuildingBlock: OJICUG_clean_linker_0, # of connection points: 2
#     Edge 22, Type (0, 0), BuildingBlock: OJICUG_clean_linker_0, # of connection points: 2
#     Edge 23, Type (0, 0), BuildingBlock: OJICUG_clean_linker_0, # of connection points: 2
#     Edge 24, Type (0, 0), BuildingBlock: OJICUG_clean_linker_0, # of connection points: 2
#     Edge 25, Type (0, 0), BuildingBlock: OJICUG_clean_linker_0, # of connection points: 2
#     Edge 26, Type (0, 0), BuildingBlock: OJICUG_clean_linker_0, # of connection points: 2
#     Edge 27, Type (0, 0), BuildingBlock: OJICUG_clean_linker_0, # of connection points: 2
#     Edge 28, Type (0, 0), BuildingBlock: OJICUG_clean_linker_0, # of connection points: 2
#     Edge 29, Type (0, 0), BuildingBlock: OJICUG_clean_linker_0, # of connection points: 2
#     Edge 30, Type (0, 0), BuildingBlock: OJICUG_clean_linker_0, # of connection points: 2
#     Edge 31, Type (0, 0), BuildingBlock: OJICUG_clean_linker_0, # of connection points: 2
#     Edge 32, Type (0, 0), BuildingBlock: OJICUG_clean_linker_0, # of connection points: 2
#     Edge 33, Type (0, 0), BuildingBlock: OJICUG_clean_linker_0, # of connection points: 2
#     Edge 34, Type (0, 0), BuildingBlock: OJICUG_clean_linker_0, # of connection points: 2
#     Edge 35, Type (0, 0), BuildingBlock: OJICUG_clean_linker_0, # of connection points: 2
#     Edge 36, Type (0, 0), BuildingBlock: OJICUG_clean_linker_0, # of connection points: 2
#     Edge 37, Type (0, 0), BuildingBlock: OJICUG_clean_linker_0, # of connection points: 2
#     Edge 38, Type (0, 0), BuildingBlock: OJICUG_clean_linker_0, # of connection points: 2
#     Edge 39, Type (0, 0), BuildingBlock: OJICUG_clean_linker_0, # of connection points: 2
#     Edge 40, Type (0, 0), BuildingBlock: OJICUG_clean_linker_0, # of connection points: 2
#     Edge 41, Type (0, 0), BuildingBlock: OJICUG_clean_linker_0, # of connection points: 2
#     Edge 42, Type (0, 0), BuildingBlock: OJICUG_clean_linker_0, # of connection points: 2
#     Edge 43, Type (0, 0), BuildingBlock: OJICUG_clean_linker_0, # of connection points: 2
#     Edge 44, Type (0, 0), BuildingBlock: OJICUG_clean_linker_0, # of connection points: 2
#     Edge 45, Type (0, 0), BuildingBlock: OJICUG_clean_linker_0, # of connection points: 2
#     Edge 46, Type (0, 0), BuildingBlock: OJICUG_clean_linker_0, # of connection points: 2
#     Edge 47, Type (0, 0), BuildingBlock: OJICUG_clean_linker_0, # of connection points: 2
#     Edge 48, Type (0, 0), BuildingBlock: OJICUG_clean_linker_0, # of connection points: 2
#     Edge 49, Type (0, 0), BuildingBlock: OJICUG_clean_linker_0, # of connection points: 2
#     Edge 50, Type (0, 0), BuildingBlock: OJICUG_clean_linker_0, # of connection points: 2
#     Edge 51, Type (0, 0), BuildingBlock: OJICUG_clean_linker_0, # of connection points: 2
#     Edge 52, Type (0, 0), BuildingBlock: OJICUG_clean_linker_0, # of connection points: 2
#     Edge 53, Type (0, 0), BuildingBlock: OJICUG_clean_linker_0, # of connection points: 2
#     Edge 54, Type (0, 0), BuildingBlock: OJICUG_clean_linker_0, # of connection points: 2
#     Edge 55, Type (0, 0), BuildingBlock: OJICUG_clean_linker_0, # of connection points: 2
#     Edge 56, Type (0, 0), BuildingBlock: OJICUG_clean_linker_0, # of connection points: 2
#     Edge 57, Type (0, 0), BuildingBlock: OJICUG_clean_linker_0, # of connection points: 2
#     Edge 58, Type (0, 0), BuildingBlock: OJICUG_clean_linker_0, # of connection points: 2
#     Edge 59, Type (0, 0), BuildingBlock: OJICUG_clean_linker_0, # of connection points: 2
#     Edge 60, Type (0, 0), BuildingBlock: OJICUG_clean_linker_0, # of connection points: 2
#     Edge 61, Type (0, 0), BuildingBlock: OJICUG_clean_linker_0, # of connection points: 2
#     Edge 62, Type (0, 0), BuildingBlock: OJICUG_clean_linker_0, # of connection points: 2
#     Edge 63, Type (0, 0), BuildingBlock: OJICUG_clean_linker_0, # of connection points: 2
# Relax obj value: 0.325
# Max RMSD: 0.173
# Mean RMSD: 0.173
data_MOF--net-whz--node1-MIDCAF_clean_sbu_0--edge1-OJICUG_clean_linker_0
_symmetry_space_group_name_H-M    P1
_symmetry_Int_Tables_number       1
_symmetry_cell_setting            triclinic
loop_
_symmetry_equiv_pos_as_xyz
'x, y, z'
_cell_length_a     26.012612
_cell_length_b     25.985883
_cell_length_c     34.8485
_cell_angle_alpha  89.282053
_cell_angle_beta   90.216816
_cell_angle_gamma 90.191186
loop_
_atom_site_label
_atom_site_type_symbol
_atom_site_fract_x
_atom_site_fract_y
_atom_site_fract_z
_atom_type_partial_charge
Zn0 Zn 0.29427 0.29148 0.05052 0.0
Zn1 Zn 0.24057 0.16508 0.15199 0.0
Zn2 Zn 0.27568 0.2171 0.10436 0.0
C3 C 0.20816 0.24644 0.17909 0.0
C4 C 0.34212 0.15937 0.16581 0.0
O5 O 0.23281 0.19939 0.05074 0.0
O6 O 0.25999 0.25571 1.00689 0.0
C7 C 0.2464 0.33819 0.10991 0.0
O8 O 0.24226 0.25667 0.15339 0.0
O9 O 0.18565 0.20324 0.17921 0.0
O10 O 0.30117 0.16229 0.18461 0.0
O11 O 0.34238 0.17344 0.1301 0.0
O12 O 0.25858 0.3497 0.07585 0.0
O13 O 0.25268 0.29243 0.12326 0.0
O14 O 0.35999 0.21624 0.10184 0.0
O15 O 0.36834 0.285 0.06414 0.0
C16 C 0.3881 0.25176 0.08648 0.0
O17 O 0.21759 0.16267 0.08021 0.0
O18 O 0.22574 0.10144 0.12354 0.0
C19 C 0.23189 0.21781 0.01612 0.0
C20 C 0.20612 0.11706 0.09248 0.0
Zn21 Zn 0.4889 0.58889 0.32075 0.0
Zn22 Zn 0.63604 0.51801 0.41228 0.0
Zn23 Zn 0.5662 0.55317 0.36727 0.0
C24 C 0.54384 0.4984 0.44743 0.0
C25 C 0.6542 0.61813 0.41546 0.0
O26 O 0.57716 0.52019 0.3084 0.0
O27 O 0.51688 0.55699 0.27235 0.0
C28 C 0.44336 0.52982 0.37885 0.0
O29 O 0.52923 0.51676 0.41487 0.0
O30 O 0.59098 0.49463 0.45562 0.0
O31 O 0.67974 0.57758 0.42052 0.0
O32 O 0.61096 0.61651 0.39703 0.0
O33 O 0.43034 0.55488 0.34909 0.0
O34 O 0.49092 0.52672 0.38869 0.0
O35 O 0.57361 0.63754 0.37023 0.0
O36 O 0.5054 0.66123 0.33601 0.0
C37 C 0.54319 0.67269 0.35722 0.0
O38 O 0.61071 0.49528 0.33462 0.0
O39 O 0.66362 0.4664 0.37974 0.0
C40 C 0.55451 0.52645 0.27554 0.0
C41 C 0.64629 0.46422 0.34604 0.0
Zn42 Zn 0.21812 0.95604 0.64266 0.0
Zn43 Zn 0.20182 0.71399 0.56068 0.0
Zn44 Zn 0.20717 0.80133 0.60041 0.0
C45 C 0.10257 0.74204 0.5947 0.0
C46 C 0.268 0.70143 0.62547 0.0
O47 O 0.24984 0.85377 0.56292 0.0
O48 O 0.21341 0.91885 0.58966 0.0
C49 C 0.13529 0.88166 0.63222 0.0
O50 O 0.12614 0.78323 0.60486 0.0
O51 O 0.12635 0.7076 0.5764 0.0
O52 O 0.25434 0.67918 0.59497 0.0
O53 O 0.25244 0.74675 0.63232 0.0
O54 O 0.1659 0.90942 0.61228 0.0
O55 O 0.13782 0.83275 0.62761 0.0
O56 O 0.2341 0.8508 0.6445 0.0
O57 O 0.25385 0.91069 0.68556 0.0
C58 C 0.25135 0.86304 0.67729 0.0
O59 O 0.22594 0.81617 0.53862 0.0
O60 O 0.22168 0.74222 0.50801 0.0
C61 C 0.2538 0.9 0.57481 0.0
C62 C 0.22907 0.79035 0.50731 0.0
Zn63 Zn 0.02743 0.43703 0.83016 0.0
Zn64 Zn 0.92083 0.39445 0.92881 0.0
Zn65 Zn 0.93783 0.44065 0.86782 0.0
C66 C 0.01125 0.41225 0.94071 0.0
C67 C 0.83849 0.37614 0.89248 0.0
O68 O 0.9382 0.48154 0.81235 0.0
O69 O 0.00089 0.45111 0.77722 0.0
C70 C 0.03317 0.51892 0.88281 0.0
O71 O 0.99306 0.4447 0.91609 0.0
O72 O 0.99016 0.36876 0.9444 0.0
O73 O 0.87252 0.34462 0.90302 0.0
O74 O 0.85393 0.42043 0.88009 0.0
O75 O 0.05752 0.49957 0.85523 0.0
O76 O 0.99145 0.49713 0.89491 0.0
O77 O 0.95676 0.36033 0.86045 0.0
O78 O 0.03979 0.36444 0.84833 0.0
C79 C 0.00015 0.33805 0.85621 0.0
O80 O 0.86986 0.47597 0.88904 0.0
O81 O 0.89606 0.46908 0.94842 0.0
C82 C 0.96182 0.4795 0.78021 0.0
C83 C 0.87152 0.49465 0.92299 0.0
Zn84 Zn 0.67919 0.7416 0.98921 0.0
Zn85 Zn 0.7504 0.80392 0.87844 0.0
Zn86 Zn 0.70543 0.77881 0.92931 0.0
C87 C 0.71067 0.71693 0.85153 0.0
C88 C 0.67648 0.8729 0.8773 0.0
O89 O 0.74563 0.80914 0.98348 0.0
O90 O 0.68222 0.79996 0.02466 0.0
C91 C 0.74493 0.67262 0.95361 0.0
O92 O 0.70677 0.71105 0.88843 0.0
O93 O 0.72433 0.75977 0.8378 0.0
O94 O 0.72464 0.87605 0.87289 0.0
O95 O 0.65856 0.83517 0.89724 0.0
O96 O 0.74 0.69077 0.98696 0.0
O97 O 0.72207 0.69573 0.92519 0.0
O98 O 0.6586 0.70752 0.91988 0.0
O99 O 0.61181 0.71556 0.9718 0.0
C100 C 0.61725 0.69713 0.93874 0.0
O101 O 0.77961 0.81115 0.94921 0.0
O102 O 0.82072 0.78803 0.89774 0.0
C103 C 0.7258 0.81843 0.0167 0.0
C104 C 0.82206 0.80749 0.93062 0.0
Zn105 Zn 0.3096 0.44729 0.61642 0.0
Zn106 Zn 0.50864 0.43738 0.69106 0.0
Zn107 Zn 0.42187 0.43739 0.6534 0.0
C108 C 0.48091 0.33424 0.66946 0.0
C109 C 0.5237 0.49658 0.6246 0.0
O110 O 0.37361 0.49467 0.68336 0.0
O111 O 0.30646 0.51128 0.64514 0.0
C112 C 0.34154 0.35711 0.6315 0.0
O113 O 0.43818 0.35532 0.65948 0.0
O114 O 0.51754 0.36158 0.68196 0.0
O115 O 0.54523 0.48666 0.65637 0.0
O116 O 0.47853 0.47917 0.61747 0.0
O117 O 0.315 0.38619 0.65203 0.0
O118 O 0.39009 0.36459 0.6327 0.0
O119 O 0.43092 0.46967 0.59938 0.0
O120 O 0.35656 0.45369 0.56898 0.0
C121 C 0.40372 0.46665 0.56877 0.0
O122 O 0.40746 0.46945 0.71037 0.0
O123 O 0.48165 0.46219 0.74144 0.0
C124 C 0.33485 0.52282 0.67332 0.0
C125 C 0.43457 0.47402 0.74124 0.0
Zn126 Zn 0.77107 0.2652 0.45371 0.0
Zn127 Zn 0.76455 0.09692 0.37519 0.0
Zn128 Zn 0.76839 0.18245 0.41197 0.0
C129 C 0.75076 0.18192 0.32498 0.0
C130 C 0.85793 0.10235 0.38765 0.0
O131 O 0.72656 0.16643 0.46758 0.0
O132 O 0.74239 0.23544 0.50245 0.0
C133 C 0.71946 0.29227 0.3869 0.0
O134 O 0.74179 0.20388 0.35703 0.0
O135 O 0.76538 0.13557 0.32404 0.0
O136 O 0.82785 0.06692 0.39813 0.0
O137 O 0.84294 0.14926 0.39127 0.0
O138 O 0.72825 0.31064 0.41966 0.0
O139 O 0.73301 0.24614 0.37917 0.0
O140 O 0.85108 0.19565 0.41928 0.0
O141 O 0.84672 0.27203 0.44625 0.0
C142 C 0.8731 0.23697 0.43112 0.0
O143 O 0.70997 0.13121 0.4394 0.0
O144 O 0.70028 0.07181 0.39498 0.0
C145 C 0.72256 0.19122 0.49944 0.0
C146 C 0.68567 0.09214 0.42565 0.0
Zn147 Zn 0.98944 0.58382 0.18051 0.0
Zn148 Zn 0.19522 0.52228 0.12215 0.0
Zn149 Zn 0.07656 0.5543 0.14959 0.0
C150 C 0.10087 0.4805 0.08099 0.0
C151 C 0.16572 0.62453 0.10065 0.0
O152 O 0.06751 0.51947 0.20967 0.0
O153 O 0.99468 0.54839 0.23327 0.0
C154 C 0.96791 0.52489 0.1127 0.0
O155 O 0.07081 0.50907 0.10055 0.0
O156 O 0.14844 0.47563 0.08891 0.0
O157 O 0.19762 0.58838 0.09658 0.0
O158 O 0.12412 0.61917 0.12107 0.0
O159 O 0.94699 0.55123 0.13864 0.0
O160 O 0.01703 0.51974 0.11231 0.0
O161 O 0.08289 0.63791 0.14619 0.0
O162 O 0.00821 0.65817 0.17232 0.0
C163 C 0.05 0.6717 0.15663 0.0
O164 O 0.11295 0.50656 0.19285 0.0
O165 O 0.18273 0.54322 0.17666 0.0
C166 C 0.03414 0.52039 0.23708 0.0
C167 C 0.16171 0.50429 0.19123 0.0
Zn168 Zn 0.78499 0.75569 0.6067 0.0
Zn169 Zn 0.77162 0.56603 0.64681 0.0
Zn170 Zn 0.77439 0.66278 0.63353 0.0
C171 C 0.73343 0.62135 0.71188 0.0
C172 C 0.86838 0.57995 0.65165 0.0
O173 O 0.73726 0.67006 0.57545 0.0
O174 O 0.75149 0.74995 0.55519 0.0
C175 C 0.73395 0.76089 0.67787 0.0
O176 O 0.73615 0.65953 0.68815 0.0
O177 O 0.75023 0.57756 0.70259 0.0
O178 O 0.8426 0.54329 0.63805 0.0
O179 O 0.84922 0.62578 0.65073 0.0
O180 O 0.74983 0.78846 0.65023 0.0
O181 O 0.73824 0.71173 0.67695 0.0
O182 O 0.85899 0.67619 0.62808 0.0
O183 O 0.86037 0.7575 0.6088 0.0
C184 C 0.88419 0.71723 0.61865 0.0
O185 O 0.71873 0.62438 0.59401 0.0
O186 O 0.71873 0.5424 0.6112 0.0
C187 C 0.73278 0.70583 0.54953 0.0
C188 C 0.70014 0.57847 0.59109 0.0
Zn189 Zn 0.14391 0.98635 0.9083 0.0
Zn190 Zn 0.98776 0.01934 0.81935 0.0
Zn191 Zn 0.07389 0.00783 0.86227 0.0
C192 C 0.01922 0.11732 0.84607 0.0
C193 C 0.96285 0.95251 0.87924 0.0
O194 O 0.13592 0.97213 0.82867 0.0
O195 O 0.19836 0.97565 0.87143 0.0
C196 C 0.1273 0.08997 0.91638 0.0
O197 O 0.05727 0.09136 0.86004 0.0
O198 O 0.98399 0.09491 0.82753 0.0
O199 O 0.94143 0.9744 0.85089 0.0
O200 O 0.01059 0.96115 0.88675 0.0
O201 O 0.14775 0.05211 0.93316 0.0
O202 O 0.09955 0.08349 0.88603 0.0
O203 O 0.05243 0.96346 0.91418 0.0
O204 O 0.12039 0.9315 0.94429 0.0
C205 C 0.07238 0.93794 0.94259 0.0
O206 O 0.09156 0.97486 0.805 0.0
O207 O 0.0202 0.99067 0.77188 0.0
C208 C 0.18366 0.96661 0.83768 0.0
C209 C 0.06507 0.97219 0.77367 0.0
Zn210 Zn 0.69954 0.25127 0.07891 0.0
Zn211 Zn 0.73933 0.40346 0.15236 0.0
Zn212 Zn 0.71301 0.33586 0.11186 0.0
C213 C 0.74658 0.3203 0.19693 0.0
C214 C 0.64329 0.42294 0.14705 0.0
O215 O 0.73469 0.35349 0.05173 0.0
O216 O 0.7065 0.28132 0.02611 0.0
C217 C 0.77542 0.22479 0.12595 0.0
O218 O 0.74826 0.30395 0.16233 0.0
O219 O 0.73716 0.367 0.20324 0.0
O220 O 0.68163 0.451 0.13926 0.0
O221 O 0.64651 0.37431 0.14057 0.0
O222 O 0.75374 0.20339 0.09794 0.0
O223 O 0.76241 0.27087 0.13534 0.0
O224 O 0.62868 0.32575 0.1133 0.0
O225 O 0.62942 0.2428 0.10007 0.0
C226 C 0.60498 0.28232 0.11008 0.0
O227 O 0.76527 0.38668 0.07651 0.0
O228 O 0.80651 0.41314 0.12802 0.0
C229 C 0.72474 0.32619 0.0219 0.0
C230 C 0.80482 0.40826 0.09211 0.0
Zn231 Zn 0.48278 0.96399 0.31104 0.0
Zn232 Zn 0.34998 0.99116 0.39904 0.0
Zn233 Zn 0.40969 0.95888 0.35642 0.0
C234 C 0.42256 0.94632 0.44647 0.0
C235 C 0.30068 0.91242 0.37901 0.0
O236 O 0.40599 0.01384 0.3034 0.0
O237 O 0.45589 0.9793 0.25946 0.0
C238 C 0.50795 0.01177 0.37935 0.0
O239 O 0.44659 0.94774 0.41401 0.0
O240 O 0.37607 0.95986 0.44754 0.0
O241 O 0.28563 0.95857 0.37938 0.0
O242 O 0.34742 0.90412 0.36958 0.0
O243 O 0.51006 0.02366 0.34406 0.0
O244 O 0.47881 0.97419 0.39002 0.0
O245 O 0.47646 0.91027 0.37601 0.0
O246 O 0.51276 0.89571 0.32035 0.0
C247 C 0.50685 0.88335 0.35515 0.0
O248 O 0.38985 0.03917 0.33745 0.0
O249 O 0.35953 0.06588 0.39256 0.0
C250 C 0.42327 0.01269 0.26845 0.0
C251 C 0.37364 0.07589 0.35875 0.0
Zn252 Zn 0.19204 0.25581 0.43418 0.0
Zn253 Zn 0.18369 0.42999 0.37752 0.0
Zn254 Zn 0.19419 0.34032 0.4013 0.0
C255 C 0.21094 0.35827 0.31802 0.0
C256 C 0.09417 0.41465 0.37677 0.0
O257 O 0.23475 0.3512 0.45801 0.0
O258 O 0.21453 0.27711 0.48609 0.0
C259 C 0.25783 0.24047 0.37395 0.0
O260 O 0.22303 0.32895 0.34642 0.0
O261 O 0.19114 0.40202 0.32332 0.0
O262 O 0.11432 0.45007 0.39618 0.0
O263 O 0.11646 0.37011 0.37748 0.0
O264 O 0.24285 0.21765 0.40403 0.0
O265 O 0.2417 0.28621 0.36605 0.0
O266 O 0.11148 0.3213 0.40834 0.0
O267 O 0.11913 0.2397 0.42551 0.0
C268 C 0.09094 0.27718 0.41603 0.0
O269 O 0.249 0.39304 0.43237 0.0
O270 O 0.24094 0.46522 0.39882 0.0
C271 C 0.23589 0.32071 0.48762 0.0
C272 C 0.26424 0.43926 0.42409 0.0
Zn273 Zn 0.02137 0.96883 0.21296 0.0
Zn274 Zn 0.88804 0.99223 0.12317 0.0
Zn275 Zn 0.93914 0.95912 0.16907 0.0
C276 C 0.95643 0.93881 0.08117 0.0
C277 C 0.83037 0.92147 0.14134 0.0
O278 O 0.93014 0.0086 0.22354 0.0
O279 O 0.99228 0.98348 0.26278 0.0
C280 C 0.03786 0.01719 0.14325 0.0
O281 O 0.98019 0.94474 0.11361 0.0
O282 O 0.91019 0.95256 0.07845 0.0
O283 O 0.81873 0.96873 0.14184 0.0
O284 O 0.87577 0.90867 0.15198 0.0
O285 O 0.04445 0.02824 0.17815 0.0
O286 O 0.00743 0.98 0.13453 0.0
O287 O 0.00662 0.91521 0.14932 0.0
O288 O 0.04686 0.89809 0.20348 0.0
C289 C 0.03695 0.88633 0.16924 0.0
O290 O 0.91733 0.03726 0.18658 0.0
O291 O 0.91279 0.0644 0.12706 0.0
C292 C 0.95138 0.00829 0.25731 0.0
C293 C 0.91293 0.07459 0.16229 0.0
Zn294 Zn 0.34074 0.76283 0.92915 0.0
Zn295 Zn 0.24936 0.63952 0.84301 0.0
Zn296 Zn 0.2961 0.68836 0.88667 0.0
C297 C 0.27444 0.71117 0.79632 0.0
C298 C 0.3279 0.57959 0.85909 0.0
O299 O 0.25435 0.68954 0.94287 0.0
O300 O 0.29663 0.7482 0.97603 0.0
C301 C 0.29984 0.81099 0.86464 0.0
O302 O 0.28086 0.72733 0.83084 0.0
O303 O 0.26523 0.66427 0.79059 0.0
O304 O 0.27987 0.57229 0.85849 0.0
O305 O 0.34494 0.62432 0.86841 0.0
O306 O 0.32393 0.82349 0.8947 0.0
O307 O 0.28871 0.76349 0.85853 0.0
O308 O 0.37517 0.66001 0.89191 0.0
O309 O 0.4084 0.72701 0.92216 0.0
C310 C 0.41397 0.68397 0.9061 0.0
O311 O 0.22585 0.65801 0.91494 0.0
O312 O 0.18082 0.65964 0.86157 0.0
C313 C 0.26064 0.71539 0.97396 0.0
C314 C 0.18214 0.65508 0.89754 0.0
Zn315 Zn 0.47592 0.01874 0.71847 0.0
Zn316 Zn 0.62796 0.97505 0.62837 0.0
Zn317 Zn 0.55092 0.00461 0.66718 0.0
C318 C 0.53938 0.95089 0.58622 0.0
C319 C 0.63356 0.07892 0.62371 0.0
O320 O 0.57038 0.97771 0.72762 0.0
O321 O 0.50644 0.99192 0.76782 0.0
C322 C 0.43266 0.96518 0.65786 0.0
O323 O 0.51856 0.96537 0.61777 0.0
O324 O 0.58767 0.95193 0.5826 0.0
O325 O 0.66389 0.04125 0.62285 0.0
O326 O 0.58834 0.07322 0.63842 0.0
O327 O 0.42147 0.97958 0.69127 0.0
O328 O 0.47827 0.97223 0.64443 0.0
O329 O 0.5464 0.08841 0.66628 0.0
O330 O 0.47876 0.09376 0.70452 0.0
C331 C 0.51104 0.11508 0.68229 0.0
O332 O 0.59969 0.95026 0.70117 0.0
O333 O 0.65898 0.92276 0.66121 0.0
C334 C 0.55152 0.97602 0.76201 0.0
C335 C 0.63805 0.92087 0.69371 0.0
C336 C 0.24208 0.31828 0.21829 0.0
C337 C 0.20339 0.28118 0.21177 0.0
H338 H 0.27411 0.37316 0.25725 0.0
C339 C 0.16557 0.27264 0.23963 0.0
H340 H 0.27308 0.32429 0.1981 0.0
C341 C 0.16773 0.29921 0.27401 0.0
C342 C 0.20699 0.33523 0.28049 0.0
H343 H 0.13589 0.24384 0.23566 0.0
H344 H 0.13957 0.29063 0.29605 0.0
C345 C 0.24338 0.34577 0.25227 0.0
C346 C 0.4714 0.43404 0.52733 0.0
C347 C 0.43191 0.46981 0.53312 0.0
H348 H 0.53883 0.41546 0.49525 0.0
C349 C 0.42794 0.51351 0.5097 0.0
H350 H 0.4754 0.40069 0.54609 0.0
C351 C 0.46462 0.52236 0.48143 0.0
C352 C 0.50484 0.4872 0.47615 0.0
H353 H 0.39857 0.54209 0.51477 0.0
H354 H 0.46262 0.5576 0.46454 0.0
C355 C 0.50787 0.44273 0.49892 0.0
C356 C 0.3003 0.82728 0.73323 0.0
C357 C 0.25991 0.82325 0.70669 0.0
H358 H 0.3379 0.79297 0.78212 0.0
C359 C 0.22585 0.78138 0.70905 0.0
H360 H 0.32676 0.85954 0.73194 0.0
C361 C 0.23202 0.74387 0.73746 0.0
C362 C 0.27201 0.74797 0.76423 0.0
H363 H 0.19365 0.77821 0.6894 0.0
H364 H 0.2044 0.71265 0.73936 0.0
C365 C 0.30665 0.78942 0.76169 0.0
C366 C 0.02998 0.47976 0.98751 0.0
C367 C 0.0417 0.43111 0.97311 0.0
H368 H 0.03928 0.53271 0.03301 0.0
C369 C 0.07477 0.39839 0.99404 0.0
H370 H 0.00348 0.50525 0.97266 0.0
C371 C 0.09543 0.41427 0.02918 0.0
C372 C 0.08155 0.46215 0.04406 0.0
H373 H 0.08343 0.36025 0.9837 0.0
H374 H 0.12059 0.38869 0.04524 0.0
C375 C 0.04957 0.49502 0.02257 0.0
C376 C 0.74475 0.64146 0.81777 0.0
C377 C 0.70375 0.6753 0.82398 0.0
H378 H 0.78534 0.59608 0.77687 0.0
C379 C 0.66708 0.68281 0.79476 0.0
H380 H 0.77533 0.63765 0.83874 0.0
C381 C 0.67427 0.66129 0.75866 0.0
C382 C 0.71761 0.63103 0.75159 0.0
H383 H 0.63611 0.7101 0.79846 0.0
H384 H 0.64809 0.67135 0.73554 0.0
C385 C 0.75109 0.6186 0.78197 0.0
C386 C 0.72869 0.23425 0.22535 0.0
C387 C 0.75122 0.28331 0.22855 0.0
H388 H 0.71111 0.16261 0.25391 0.0
C389 C 0.77598 0.29717 0.26249 0.0
H390 H 0.7087 0.2233 0.19937 0.0
C391 C 0.77737 0.26266 0.29323 0.0
C392 C 0.75292 0.21455 0.29071 0.0
H393 H 0.79397 0.33462 0.26527 0.0
H394 H 0.7971 0.27379 0.31928 0.0
C395 C 0.7298 0.19975 0.25632 0.0
C396 C 0.96406 0.95122 0.01178 0.0
C397 C 0.98429 0.92945 0.04548 0.0
H398 H 0.97793 0.97578 0.95534 0.0
C399 C 0.03233 0.90496 0.04451 0.0
H400 H 0.9278 0.97166 0.01158 0.0
C401 C 0.05997 0.90341 1.00999 0.0
C402 C 0.0404 0.92793 0.97674 0.0
H403 H 0.04898 0.8885 0.07038 0.0
H404 H 0.09763 0.88578 1.00988 0.0
C405 C 0.99246 0.95216 0.97857 0.0
C406 C 0.42975 0.9618 0.51617 0.0
C407 C 0.45032 0.93956 0.48311 0.0
H408 H 0.44326 0.98597 0.57315 0.0
C409 C 0.4988 0.9161 0.48518 0.0
H410 H 0.39284 0.98099 0.5155 0.0
C411 C 0.52697 0.91681 0.51956 0.0
C412 C 0.5071 0.94138 0.55209 0.0
H413 H 0.51536 0.89848 0.4601 0.0
H414 H 0.56499 0.89994 0.52026 0.0
C415 C 0.45825 0.96367 0.54984 0.0
C416 C 0.18286 0.16605 0.92161 0.0
C417 C 0.13824 0.13997 0.9335 0.0
H418 H 0.24831 0.21071 0.93892 0.0
C419 C 0.12025 0.14724 0.97098 0.0
H420 H 0.19824 0.15996 0.89317 0.0
C421 C 0.14969 0.1746 0.99746 0.0
C422 C 0.19739 0.19545 0.98685 0.0
H423 H 0.08644 0.12674 0.98106 0.0
H424 H 0.13623 0.17752 0.02663 0.0
C425 C 0.21215 0.19392 0.94809 0.0
C426 C 0.57415 0.52226 0.20511 0.0
C427 C 0.5712 0.49749 0.24112 0.0
H428 H 0.59842 0.51742 0.14645 0.0
C429 C 0.58284 0.44474 0.24348 0.0
H430 H 0.5646 0.56267 0.20217 0.0
C431 C 0.60047 0.4182 0.21118 0.0
C432 C 0.60728 0.44407 0.17582 0.0
H433 H 0.57869 0.42416 0.27039 0.0
H434 H 0.61241 0.3785 0.21464 0.0
C435 C 0.59265 0.4961 0.17302 0.0
C436 C 0.22028 0.86543 0.46246 0.0
C437 C 0.242 0.81728 0.47075 0.0
H438 H 0.21885 0.93143 0.42559 0.0
C439 C 0.27734 0.7966 0.44467 0.0
H440 H 0.19244 0.88199 0.48175 0.0
C441 C 0.29379 0.8256 0.41257 0.0
C442 C 0.27398 0.87521 0.40533 0.0
H443 H 0.29451 0.75933 0.45033 0.0
H444 H 0.32393 0.81034 0.39467 0.0
C445 C 0.23522 0.89351 0.42986 0.0
C446 C 0.89657 0.583 0.71957 0.0
C447 C 0.90541 0.56542 0.68213 0.0
H448 H 0.90574 0.56852 0.77998 0.0
C449 C 0.93726 0.52248 0.67722 0.0
H450 H 0.87104 0.61513 0.7244 0.0
C451 C 0.95725 0.49585 0.7091 0.0
C452 C 0.94459 0.51073 0.74659 0.0
H453 H 0.94372 0.50739 0.64881 0.0
H454 H 0.98015 0.46179 0.70436 0.0
C455 C 0.91539 0.55554 0.75149 0.0
C456 C 0.83023 0.85808 0.0873 0.0
C457 C 0.80253 0.889 0.11305 0.0
H458 H 0.82852 0.81377 0.03545 0.0
C459 C 0.75001 0.89713 0.10595 0.0
H460 H 0.87106 0.85185 0.09133 0.0
C461 C 0.72582 0.87507 0.07413 0.0
C462 C 0.75375 0.84561 0.04777 0.0
H463 H 0.72782 0.92151 0.12462 0.0
H464 H 0.68507 0.88161 0.06985 0.0
C465 C 0.80626 0.83723 0.05472 0.0
C466 C 0.41197 0.55525 0.82893 0.0
C467 C 0.36012 0.5439 0.83674 0.0
H468 H 0.47666 0.54129 0.79238 0.0
C469 C 0.33574 0.50446 0.81595 0.0
H470 H 0.43186 0.58542 0.84424 0.0
C471 C 0.36054 0.48103 0.78546 0.0
C472 C 0.41097 0.49489 0.77604 0.0
H473 H 0.29593 0.49429 0.82116 0.0
H474 H 0.33974 0.45307 0.76853 0.0
C475 C 0.43743 0.53038 0.79904 0.0
C476 C 0.71703 0.17189 0.5699 0.0
C477 C 0.6951 0.16888 0.53304 0.0
H478 H 0.71363 0.14613 0.62866 0.0
C479 C 0.64676 0.14536 0.529 0.0
H480 H 0.75401 0.19039 0.57392 0.0
C481 C 0.62242 0.12233 0.56078 0.0
C482 C 0.64642 0.12155 0.59704 0.0
H483 H 0.62824 0.14398 0.50121 0.0
H484 H 0.58701 0.10111 0.55624 0.0
C485 C 0.69343 0.14761 0.60142 0.0
C486 C 0.07584 0.41186 0.30561 0.0
C487 C 0.06491 0.43251 0.34187 0.0
H488 H 0.07722 0.42421 0.24444 0.0
C489 C 0.03791 0.47949 0.34277 0.0
H490 H 0.09608 0.37578 0.30349 0.0
C491 C 0.02587 0.50674 0.30877 0.0
C492 C 0.04181 0.48863 0.27286 0.0
H493 H 0.02901 0.49692 0.37002 0.0
H494 H 0.00682 0.5436 0.3108 0.0
C495 C 0.06558 0.44005 0.27165 0.0
C496 C 0.73833 0.69551 0.47867 0.0
C497 C 0.70851 0.69482 0.51215 0.0
H498 H 0.74326 0.67267 0.41985 0.0
C499 C 0.65639 0.68125 0.50969 0.0
H500 H 0.77856 0.70632 0.4799 0.0
C501 C 0.63549 0.66445 0.47486 0.0
C502 C 0.66684 0.65964 0.44229 0.0
H503 H 0.63246 0.68156 0.53502 0.0
H504 H 0.59648 0.64967 0.47462 0.0
C505 C 0.71787 0.67737 0.44413 0.0
C506 C 0.09283 0.89499 0.7364 0.0
C507 C 0.0862 0.94853 0.73877 0.0
H508 H 0.11239 0.83118 0.70059 0.0
C509 C 0.09352 0.97903 0.7058 0.0
H510 H 0.08554 0.8705 0.76116 0.0
C511 C 0.10847 0.95678 0.67128 0.0
C512 C 0.11554 0.90327 0.66864 0.0
H513 H 0.08747 0.02024 0.70671 0.0
H514 H 0.11446 0.98163 0.64649 0.0
C515 C 0.10725 0.87247 0.70158 0.0
C516 C 0.74635 0.30645 0.95381 0.0
C517 C 0.7396 0.3433 0.98266 0.0
H518 H 0.78173 0.2891 0.90022 0.0
C519 C 0.75069 0.39498 0.97396 0.0
H520 H 0.73698 0.26633 0.95902 0.0
C521 C 0.77375 0.40831 0.93889 0.0
C522 C 0.78907 0.36997 0.91315 0.0
H523 H 0.7441 0.42463 0.99494 0.0
H524 H 0.7844 0.44779 0.93417 0.0
C525 C 0.77102 0.31962 0.91951 0.0
C526 C 0.39449 0.14276 0.22323 0.0
C527 C 0.38289 0.12964 0.18509 0.0
H528 H 0.41602 0.11598 0.27941 0.0
C529 C 0.39097 0.07876 0.17354 0.0
H530 H 0.38789 0.18158 0.23309 0.0
C531 C 0.405 0.04082 0.2006 0.0
C532 C 0.41069 0.05314 0.23963 0.0
H533 H 0.38105 0.0672 0.14467 0.0
H534 H 0.40847 0.00132 0.1914 0.0
C535 C 0.40821 0.10489 0.2502 0.0
C536 C 0.26355 0.33363 0.59345 0.0
C537 C 0.31708 0.34163 0.59449 0.0
H538 H 0.19624 0.32191 0.55892 0.0
C539 C 0.34389 0.34324 0.55936 0.0
H540 H 0.24162 0.33206 0.61981 0.0
C541 C 0.3172 0.34002 0.52419 0.0
C542 C 0.26353 0.33332 0.52356 0.0
H543 H 0.38508 0.34936 0.55893 0.0
H544 H 0.33859 0.34152 0.49759 0.0
C545 C 0.23733 0.32891 0.55856 0.0
C546 C 0.90498 0.08403 0.2867 0.0
C547 C 0.93058 0.03673 0.29064 0.0
H548 H 0.86559 0.14504 0.31539 0.0
C549 C 0.94004 0.01725 0.32792 0.0
H550 H 0.89838 0.10079 0.25853 0.0
C551 C 0.92133 0.04223 0.36024 0.0
C552 C 0.89354 0.08813 0.35643 0.0
H553 H 0.96028 0.98123 0.33212 0.0
H554 H 0.92583 0.02391 0.38815 0.0
C555 C 0.8873 0.1099 0.31938 0.0
C556 C 0.15167 0.6676 0.03829 0.0
C557 C 0.17519 0.66877 0.07467 0.0
H558 H 0.16003 0.68186 0.97792 0.0
C559 C 0.22265 0.69438 0.07818 0.0
H560 H 0.11561 0.64725 0.03443 0.0
C561 C 0.2488 0.71257 0.04557 0.0
C562 C 0.22828 0.70518 1.00861 0.0
H563 H 0.24238 0.69481 0.10562 0.0
H564 H 0.28703 0.72848 0.04917 0.0
C565 C 0.17805 0.68551 1.00562 0.0
C566 C 0.6358 0.95984 0.79458 0.0
C567 C 0.58225 0.95385 0.7942 0.0
H568 H 0.70699 0.94091 0.82164 0.0
C569 C 0.55891 0.92542 0.82414 0.0
H570 H 0.65484 0.98206 0.77225 0.0
C571 C 0.58899 0.90092 0.85258 0.0
C572 C 0.64292 0.90545 0.85211 0.0
H573 H 0.51758 0.92028 0.82464 0.0
H574 H 0.57018 0.87713 0.87409 0.0
C575 C 0.66564 0.93646 0.82326 0.0
C576 C 0.46464 0.30931 0.0933 0.0
C577 C 0.44275 0.25968 0.09745 0.0
H578 H 0.53275 0.35598 0.09541 0.0
C579 C 0.47346 0.21969 0.11186 0.0
H580 H 0.44168 0.34151 0.08327 0.0
C581 C 0.5259 0.2283 0.11885 0.0
C582 C 0.54834 0.27724 0.11227 0.0
H583 H 0.45763 0.18143 0.11607 0.0
H584 H 0.54946 0.19599 0.12784 0.0
C585 C 0.51671 0.31807 0.10088 0.0
C586 C 0.58078 0.7602 0.34915 0.0
C587 C 0.54774 0.72678 0.36901 0.0
H588 H 0.59444 0.83773 0.33029 0.0
C589 C 0.50899 0.74755 0.39221 0.0
H590 H 0.61043 0.74504 0.33074 0.0
C591 C 0.49982 0.80069 0.39223 0.0
C592 C 0.52869 0.83355 0.36834 0.0
H593 H 0.48267 0.72225 0.40745 0.0
H594 H 0.46658 0.81503 0.40733 0.0
C595 C 0.57137 0.81324 0.34886 0.0
C596 C 0.9712 0.67823 0.60665 0.0
C597 C 0.94109 0.71986 0.61821 0.0
H598 H 0.04593 0.6528 0.58951 0.0
C599 C 0.96521 0.7676 0.62472 0.0
H600 H 0.95364 0.64115 0.60123 0.0
C601 C 0.01771 0.77442 0.61813 0.0
C602 C 0.0475 0.73378 0.6044 0.0
H603 H 0.94302 0.80042 0.6339 0.0
H604 H 0.03443 0.81209 0.6226 0.0
C605 C 0.0239 0.68522 0.59954 0.0
C606 C 0.96084 0.25008 0.85354 0.0
C607 C 0.00452 0.28126 0.8579 0.0
H608 H 0.93152 0.1739 0.84613 0.0
C609 C 0.05313 0.25773 0.861 0.0
H610 H 0.92292 0.26694 0.85109 0.0
C611 C 0.05811 0.20426 0.85841 0.0
C612 C 0.01463 0.17339 0.85219 0.0
H613 H 0.08757 0.28074 0.86463 0.0
H614 H 0.09608 0.18742 0.85979 0.0
C615 C 0.9659 0.19679 0.85043 0.0
C616 C 0.53921 0.64291 0.9453 0.0
C617 C 0.57217 0.67167 0.92127 0.0
H618 H 0.46122 0.62251 0.95817 0.0
C619 C 0.55344 0.68946 0.8857 0.0
H620 H 0.55273 0.62887 0.97295 0.0
C621 C 0.50074 0.68593 0.87736 0.0
C622 C 0.46665 0.6638 0.90417 0.0
H623 H 0.57784 0.71221 0.86685 0.0
H624 H 0.48589 0.7061 0.8523 0.0
C625 C 0.48678 0.63902 0.9368 0.0
C626 C 0.53834 0.25702 0.66596 0.0
C627 C 0.48834 0.27784 0.66776 0.0
H628 H 0.585 0.18879 0.66819 0.0
C629 C 0.44629 0.24429 0.67061 0.0
H630 H 0.57156 0.28205 0.66331 0.0
C631 C 0.45419 0.1913 0.67411 0.0
C632 C 0.50421 0.17059 0.67399 0.0
H633 H 0.40744 0.25907 0.67192 0.0
H634 H 0.42097 0.16645 0.6777 0.0
C635 C 0.54618 0.20374 0.66858 0.0
C636 C 0.00016 0.30851 0.42203 0.0
C637 C 0.03466 0.26835 0.41566 0.0
H638 H 0.92227 0.3298 0.4325 0.0
C639 C 0.01535 0.21773 0.41248 0.0
H640 H 0.01381 0.34774 0.42471 0.0
C641 C 0.9629 0.20723 0.41682 0.0
C642 C 0.92867 0.24705 0.42498 0.0
H643 H 0.04104 0.18585 0.40728 0.0
H644 H 0.94949 0.16787 0.41476 0.0
C645 C 0.94779 0.29793 0.42692 0.0
C646 C 0.02177 0.75462 0.1281 0.0
C647 C 0.05838 0.727 0.14966 0.0
H648 H 0.98752 0.82785 0.11618 0.0
C649 C 0.09513 0.75389 0.17105 0.0
H650 H 0.9929 0.7344 0.11154 0.0
C651 C 0.09159 0.80744 0.17427 0.0
C652 C 0.05165 0.83468 0.15573 0.0
H653 H 0.12338 0.73321 0.18812 0.0
H654 H 0.11753 0.82695 0.1937 0.0
C655 C 0.01882 0.80815 0.13069 0.0
C656 C 0.25767 0.41499 0.14985 0.0
C657 C 0.22533 0.37709 0.13498 0.0
H658 H 0.26277 0.48355 0.18273 0.0
C659 C 0.17356 0.37492 0.14585 0.0
H660 H 0.29819 0.41582 0.14274 0.0
C661 C 0.15306 0.41355 0.16861 0.0
C662 C 0.18446 0.45455 0.18063 0.0
H663 H 0.14863 0.34465 0.13539 0.0
H664 H 0.11209 0.41341 0.174 0.0
C665 C 0.2376 0.45285 0.17331 0.0
C666 C 0.35839 0.42872 0.42481 0.0
C667 C 0.31559 0.45889 0.43424 0.0
H668 H 0.4333 0.42827 0.39881 0.0
C669 C 0.32129 0.51276 0.43465 0.0
H670 H 0.35516 0.38716 0.42418 0.0
C671 C 0.36425 0.53599 0.41794 0.0
C672 C 0.4036 0.50567 0.40304 0.0
H673 H 0.28905 0.53693 0.44213 0.0
H674 H 0.3653 0.57749 0.41455 0.0
C675 C 0.40245 0.45217 0.40927 0.0
C676 C 0.34591 0.65729 0.65072 0.0
C677 C 0.29403 0.67028 0.65518 0.0
H678 H 0.40261 0.59854 0.65809 0.0
C679 C 0.26345 0.64078 0.68027 0.0
H680 H 0.37005 0.67932 0.63125 0.0
C681 C 0.28195 0.59428 0.69544 0.0
C682 C 0.33094 0.57671 0.68517 0.0
H683 H 0.22312 0.64985 0.68378 0.0
H684 H 0.25506 0.56836 0.7095 0.0
C685 C 0.36471 0.61123 0.66662 0.0
C686 C 0.04939 0.61008 0.8967 0.0
C687 C 0.05927 0.55832 0.90527 0.0
H688 H 0.08285 0.68483 0.88966 0.0
C689 C 0.10444 0.54484 0.92508 0.0
H690 H 0.01481 0.62101 0.88124 0.0
C691 C 0.14285 0.58156 0.93084 0.0
C692 C 0.13685 0.63114 0.91521 0.0
H693 H 0.11283 0.50484 0.93155 0.0
H694 H 0.18004 0.5688 0.94128 0.0
C695 C 0.0882 0.64661 0.90179 0.0
C696 C 0.76724 0.59575 0.91472 0.0
C697 C 0.77527 0.62511 0.94764 0.0
H698 H 0.79155 0.53243 0.88091 0.0
C699 C 0.81331 0.60927 0.97414 0.0
H700 H 0.73663 0.60542 0.89487 0.0
C701 C 0.84407 0.56615 0.96686 0.0
C702 C 0.83759 0.53844 0.9328 0.0
H703 H 0.8201 0.63087 1.00006 0.0
H704 H 0.87371 0.55537 0.98731 0.0
C705 C 0.79842 0.5535 0.90707 0.0
C706 C 0.63527 0.52036 0.56305 0.0
C707 C 0.64789 0.56992 0.57592 0.0
H708 H 0.58256 0.45724 0.56857 0.0
C709 C 0.60864 0.60062 0.59102 0.0
H710 H 0.66475 0.49601 0.5511 0.0
C711 C 0.56177 0.57811 0.60156 0.0
C712 C 0.55347 0.52542 0.59581 0.0
H713 H 0.61716 0.63897 0.60119 0.0
H714 H 0.53548 0.59987 0.61907 0.0
C715 C 0.58818 0.49803 0.57322 0.0
C716 C 0.73259 0.36344 0.34046 0.0
C717 C 0.69953 0.32649 0.35666 0.0
H718 H 0.73869 0.43897 0.31626 0.0
C719 C 0.64652 0.33047 0.35034 0.0
H720 H 0.77377 0.36078 0.34482 0.0
C721 C 0.62652 0.37554 0.33381 0.0
C722 C 0.6595 0.41729 0.32567 0.0
H723 H 0.62045 0.30199 0.36235 0.0
H724 H 0.58535 0.38148 0.33525 0.0
C725 C 0.71244 0.40779 0.32324 0.0
C726 C 0.89646 0.41072 0.07597 0.0
C727 C 0.84746 0.43281 0.0709 0.0
H728 H 0.97491 0.42359 0.09297 0.0
C729 C 0.8444 0.48642 0.06609 0.0
H730 H 0.89998 0.36947 0.08009 0.0
C731 C 0.88691 0.5175 0.07475 0.0
C732 C 0.93353 0.49528 0.08696 0.0
H733 H 0.80727 0.50464 0.06234 0.0
H734 H 0.88149 0.55874 0.07633 0.0
C735 C 0.9394 0.44181 0.08391 0.0
C736 C 0.73186 0.82998 0.72464 0.0
C737 C 0.70684 0.78727 0.7087 0.0
H738 H 0.72631 0.9107 0.73471 0.0
C739 C 0.65296 0.78626 0.7079 0.0
H740 H 0.77348 0.83123 0.72606 0.0
C741 C 0.62573 0.83186 0.71365 0.0
C742 C 0.65285 0.87806 0.71908 0.0
H743 H 0.63276 0.7536 0.69594 0.0
H744 H 0.58536 0.83278 0.70586 0.0
C745 C 0.70476 0.87562 0.72978 0.0
C746 C 0.85084 0.89707 0.93447 0.0
C747 C 0.86408 0.84472 0.9363 0.0
H748 H 0.87127 0.972 0.91283 0.0
C749 C 0.91441 0.8303 0.92648 0.0
H750 H 0.81215 0.90925 0.94125 0.0
C751 C 0.94855 0.8665 0.91061 0.0
C752 C 0.93219 0.91714 0.90353 0.0
H753 H 0.92529 0.79009 0.92703 0.0
H754 H 0.9858 0.85388 0.90069 0.0
C755 C 0.88416 0.93276 0.91729 0.0
C756 C 0.83576 0.11844 0.18404 0.0
C757 C 0.88706 0.1228 0.17198 0.0
H758 H 0.75897 0.14655 0.1766 0.0
C759 C 0.90289 0.16816 0.15294 0.0
H760 H 0.82235 0.08345 0.19806 0.0
C761 C 0.86661 0.20496 0.14137 0.0
C762 C 0.81424 0.19625 0.14829 0.0
H763 H 0.94202 0.17192 0.14269 0.0
H764 H 0.87881 0.23718 0.12355 0.0
C765 C 0.79929 0.15419 0.17127 0.0
C766 C 0.55077 0.08928 0.40568 0.0
C767 C 0.54387 0.03576 0.40638 0.0
H768 H 0.60248 0.15144 0.41675 0.0
C769 C 0.57754 0.00494 0.4281 0.0
H770 H 0.52462 0.11374 0.38952 0.0
C771 C 0.62229 0.0265 0.44347 0.0
C772 C 0.6333 0.07889 0.43724 0.0
H773 H 0.5728 0.96353 0.42897 0.0
H774 H 0.65168 0.00097 0.45478 0.0
C775 C 0.59474 0.11096 0.42206 0.0
C776 C 0.28179 0.17446 0.32693 0.0
C777 C 0.29721 0.21442 0.35119 0.0
H778 H 0.29732 0.09773 0.30834 0.0
C779 C 0.34745 0.21411 0.36606 0.0
H780 H 0.24292 0.17349 0.31566 0.0
C781 C 0.3782 0.17038 0.36251 0.0
C782 C 0.35929 0.12692 0.3435 0.0
H783 H 0.35989 0.24413 0.38535 0.0
H784 H 0.41344 0.16792 0.37911 0.0
C785 C 0.31302 0.13101 0.32277 0.0
C786 C 0.07055 0.09531 0.11009 0.0
C787 C 0.07107 0.04165 0.11432 0.0
H788 H 0.11397 0.1625 0.09556 0.0
C789 C 0.11076 0.01339 0.09757 0.0
H790 H 0.04005 0.11768 0.12279 0.0
C791 C 0.15357 0.03911 0.08224 0.0
C792 C 0.15644 0.09315 0.08315 0.0
H793 H 0.1117 0.97184 0.10061 0.0
H794 H 0.18713 0.01684 0.07475 0.0
C795 C 0.11256 0.1209 0.0938 0.0
C796 C 0.2711 0.94113 0.82259 0.0
C797 C 0.21822 0.93406 0.81552 0.0
H798 H 0.33849 0.90676 0.84751 0.0
C799 C 0.20007 0.88406 0.80934 0.0
H800 H 0.28652 0.97962 0.82594 0.0
C801 C 0.22927 0.84243 0.8223 0.0
C802 C 0.27778 0.85081 0.83915 0.0
H803 H 0.15991 0.87736 0.80288 0.0
H804 H 0.21115 0.80487 0.82345 0.0
C805 C 0.30038 0.89968 0.83605 0.0
C806 C 0.3453 0.88373 0.59595 0.0
C807 C 0.30415 0.91804 0.58959 0.0
H808 H 0.41908 0.87192 0.62295 0.0
C809 C 0.30875 0.9688 0.60248 0.0
H810 H 0.34306 0.84436 0.58624 0.0
C811 C 0.35104 0.98369 0.62435 0.0
C812 C 0.39054 0.94871 0.63263 0.0
H813 H 0.27829 0.99639 0.5973 0.0
H814 H 0.35259 0.0225 0.63533 0.0
C815 C 0.38847 0.89915 0.61724 0.0
loop_
_geom_bond_atom_site_label_1
_geom_bond_atom_site_label_2
_geom_bond_distance
_geom_bond_site_symmetry_2
_ccdc_geom_bond_type
Zn0 O6 1.920 . S
Zn0 O12 1.898 . S
Zn0 O15 1.905 . S
Zn1 O9 1.905 . S
Zn1 O10 1.898 . S
Zn1 O18 1.920 . S
Zn2 O5 2.080 . S
Zn2 O8 2.114 . S
Zn2 O11 2.120 . S
Zn2 O13 2.120 . S
Zn2 O14 2.114 . S
Zn2 O17 2.080 . S
C3 O8 1.166 . S
C3 O9 1.182 . S
C4 O10 1.167 . S
C4 O11 1.299 . S
O5 Zn2 2.080 . S
O5 C19 1.305 . S
O6 Zn0 1.920 . S
O6 C19 1.234 . S
C7 O12 1.167 . S
C7 O13 1.299 . S
O8 Zn2 2.114 . S
O8 C3 1.166 . S
O9 Zn1 1.905 . S
O9 C3 1.182 . S
O10 Zn1 1.898 . S
O10 C4 1.167 . S
O11 Zn2 2.120 . S
O11 C4 1.299 . S
O12 Zn0 1.898 . S
O12 C7 1.167 . S
O13 Zn2 2.120 . S
O13 C7 1.299 . S
O14 Zn2 2.114 . S
O14 C16 1.166 . S
O15 Zn0 1.905 . S
O15 C16 1.182 . S
C16 O14 1.166 . S
C16 O15 1.182 . S
O17 Zn2 2.080 . S
O17 C20 1.305 . S
O18 Zn1 1.920 . S
O18 C20 1.234 . S
C19 O5 1.305 . S
C19 O6 1.234 . S
C20 O17 1.305 . S
C20 O18 1.234 . S
Zn21 O27 1.920 . S
Zn21 O33 1.898 . S
Zn21 O36 1.905 . S
Zn22 O30 1.905 . S
Zn22 O31 1.898 . S
Zn22 O39 1.920 . S
Zn23 O26 2.080 . S
Zn23 O29 2.114 . S
Zn23 O32 2.120 . S
Zn23 O34 2.120 . S
Zn23 O35 2.114 . S
Zn23 O38 2.080 . S
C24 O29 1.166 . S
C24 O30 1.182 . S
C25 O31 1.167 . S
C25 O32 1.299 . S
O26 Zn23 2.080 . S
O26 C40 1.305 . S
O27 Zn21 1.920 . S
O27 C40 1.234 . S
C28 O33 1.167 . S
C28 O34 1.299 . S
O29 Zn23 2.114 . S
O29 C24 1.166 . S
O30 Zn22 1.905 . S
O30 C24 1.182 . S
O31 Zn22 1.898 . S
O31 C25 1.167 . S
O32 Zn23 2.120 . S
O32 C25 1.299 . S
O33 Zn21 1.898 . S
O33 C28 1.167 . S
O34 Zn23 2.120 . S
O34 C28 1.299 . S
O35 Zn23 2.114 . S
O35 C37 1.166 . S
O36 Zn21 1.905 . S
O36 C37 1.182 . S
C37 O35 1.166 . S
C37 O36 1.182 . S
O38 Zn23 2.080 . S
O38 C41 1.305 . S
O39 Zn22 1.920 . S
O39 C41 1.234 . S
C40 O26 1.305 . S
C40 O27 1.234 . S
C41 O38 1.305 . S
C41 O39 1.234 . S
Zn42 O48 1.920 . S
Zn42 O54 1.898 . S
Zn42 O57 1.905 . S
Zn43 O51 1.905 . S
Zn43 O52 1.898 . S
Zn43 O60 1.920 . S
Zn44 O47 2.080 . S
Zn44 O50 2.114 . S
Zn44 O53 2.120 . S
Zn44 O55 2.120 . S
Zn44 O56 2.114 . S
Zn44 O59 2.080 . S
C45 O50 1.166 . S
C45 O51 1.182 . S
C46 O52 1.167 . S
C46 O53 1.299 . S
O47 Zn44 2.080 . S
O47 C61 1.305 . S
O48 Zn42 1.920 . S
O48 C61 1.234 . S
C49 O54 1.167 . S
C49 O55 1.299 . S
O50 Zn44 2.114 . S
O50 C45 1.166 . S
O51 Zn43 1.905 . S
O51 C45 1.182 . S
O52 Zn43 1.898 . S
O52 C46 1.167 . S
O53 Zn44 2.120 . S
O53 C46 1.299 . S
O54 Zn42 1.898 . S
O54 C49 1.167 . S
O55 Zn44 2.120 . S
O55 C49 1.299 . S
O56 Zn44 2.114 . S
O56 C58 1.166 . S
O57 Zn42 1.905 . S
O57 C58 1.182 . S
C58 O56 1.166 . S
C58 O57 1.182 . S
O59 Zn44 2.080 . S
O59 C62 1.305 . S
O60 Zn43 1.920 . S
O60 C62 1.234 . S
C61 O47 1.305 . S
C61 O48 1.234 . S
C62 O59 1.305 . S
C62 O60 1.234 . S
Zn63 O69 1.920 . S
Zn63 O75 1.898 1_655 S
Zn63 O78 1.905 . S
Zn64 O72 1.905 . S
Zn64 O73 1.898 . S
Zn64 O81 1.920 . S
Zn65 O68 2.080 . S
Zn65 O71 2.114 . S
Zn65 O74 2.120 . S
Zn65 O76 2.120 . S
Zn65 O77 2.114 . S
Zn65 O80 2.080 . S
C66 O71 1.166 . S
C66 O72 1.182 . S
C67 O73 1.167 . S
C67 O74 1.299 . S
O68 Zn65 2.080 . S
O68 C82 1.305 . S
O69 Zn63 1.920 . S
O69 C82 1.234 . S
C70 O75 1.167 . S
C70 O76 1.299 1_455 S
O71 Zn65 2.114 . S
O71 C66 1.166 . S
O72 Zn64 1.905 . S
O72 C66 1.182 . S
O73 Zn64 1.898 . S
O73 C67 1.167 . S
O74 Zn65 2.120 . S
O74 C67 1.299 . S
O75 Zn63 1.898 1_455 S
O75 C70 1.167 . S
O76 Zn65 2.120 . S
O76 C70 1.299 1_655 S
O77 Zn65 2.114 . S
O77 C79 1.166 . S
O78 Zn63 1.905 . S
O78 C79 1.182 . S
C79 O77 1.166 . S
C79 O78 1.182 . S
O80 Zn65 2.080 . S
O80 C83 1.305 . S
O81 Zn64 1.920 . S
O81 C83 1.234 . S
C82 O68 1.305 . S
C82 O69 1.234 . S
C83 O80 1.305 . S
C83 O81 1.234 . S
Zn84 O90 1.920 . S
Zn84 O96 1.898 . S
Zn84 O99 1.905 . S
Zn85 O93 1.905 . S
Zn85 O94 1.898 . S
Zn85 O102 1.920 . S
Zn86 O89 2.080 . S
Zn86 O92 2.114 . S
Zn86 O95 2.120 . S
Zn86 O97 2.120 . S
Zn86 O98 2.114 . S
Zn86 O101 2.080 . S
C87 O92 1.166 . S
C87 O93 1.182 . S
C88 O94 1.167 . S
C88 O95 1.299 . S
O89 Zn86 2.080 . S
O89 C103 1.305 . S
O90 Zn84 1.920 . S
O90 C103 1.234 . S
C91 O96 1.167 . S
C91 O97 1.299 . S
O92 Zn86 2.114 . S
O92 C87 1.166 . S
O93 Zn85 1.905 . S
O93 C87 1.182 . S
O94 Zn85 1.898 . S
O94 C88 1.167 . S
O95 Zn86 2.120 . S
O95 C88 1.299 . S
O96 Zn84 1.898 . S
O96 C91 1.167 . S
O97 Zn86 2.120 . S
O97 C91 1.299 . S
O98 Zn86 2.114 . S
O98 C100 1.166 . S
O99 Zn84 1.905 . S
O99 C100 1.182 . S
C100 O98 1.166 . S
C100 O99 1.182 . S
O101 Zn86 2.080 . S
O101 C104 1.305 . S
O102 Zn85 1.920 . S
O102 C104 1.234 . S
C103 O89 1.305 . S
C103 O90 1.234 . S
C104 O101 1.305 . S
C104 O102 1.234 . S
Zn105 O111 1.920 . S
Zn105 O117 1.898 . S
Zn105 O120 1.905 . S
Zn106 O114 1.905 . S
Zn106 O115 1.898 . S
Zn106 O123 1.920 . S
Zn107 O110 2.080 . S
Zn107 O113 2.114 . S
Zn107 O116 2.120 . S
Zn107 O118 2.120 . S
Zn107 O119 2.114 . S
Zn107 O122 2.080 . S
C108 O113 1.166 . S
C108 O114 1.182 . S
C109 O115 1.167 . S
C109 O116 1.299 . S
O110 Zn107 2.080 . S
O110 C124 1.305 . S
O111 Zn105 1.920 . S
O111 C124 1.234 . S
C112 O117 1.167 . S
C112 O118 1.299 . S
O113 Zn107 2.114 . S
O113 C108 1.166 . S
O114 Zn106 1.905 . S
O114 C108 1.182 . S
O115 Zn106 1.898 . S
O115 C109 1.167 . S
O116 Zn107 2.120 . S
O116 C109 1.299 . S
O117 Zn105 1.898 . S
O117 C112 1.167 . S
O118 Zn107 2.120 . S
O118 C112 1.299 . S
O119 Zn107 2.114 . S
O119 C121 1.166 . S
O120 Zn105 1.905 . S
O120 C121 1.182 . S
C121 O119 1.166 . S
C121 O120 1.182 . S
O122 Zn107 2.080 . S
O122 C125 1.305 . S
O123 Zn106 1.920 . S
O123 C125 1.234 . S
C124 O110 1.305 . S
C124 O111 1.234 . S
C125 O122 1.305 . S
C125 O123 1.234 . S
Zn126 O132 1.920 . S
Zn126 O138 1.898 . S
Zn126 O141 1.905 . S
Zn127 O135 1.905 . S
Zn127 O136 1.898 . S
Zn127 O144 1.920 . S
Zn128 O131 2.080 . S
Zn128 O134 2.114 . S
Zn128 O137 2.120 . S
Zn128 O139 2.120 . S
Zn128 O140 2.114 . S
Zn128 O143 2.080 . S
C129 O134 1.166 . S
C129 O135 1.182 . S
C130 O136 1.167 . S
C130 O137 1.299 . S
O131 Zn128 2.080 . S
O131 C145 1.305 . S
O132 Zn126 1.920 . S
O132 C145 1.234 . S
C133 O138 1.167 . S
C133 O139 1.299 . S
O134 Zn128 2.114 . S
O134 C129 1.166 . S
O135 Zn127 1.905 . S
O135 C129 1.182 . S
O136 Zn127 1.898 . S
O136 C130 1.167 . S
O137 Zn128 2.120 . S
O137 C130 1.299 . S
O138 Zn126 1.898 . S
O138 C133 1.167 . S
O139 Zn128 2.120 . S
O139 C133 1.299 . S
O140 Zn128 2.114 . S
O140 C142 1.166 . S
O141 Zn126 1.905 . S
O141 C142 1.182 . S
C142 O140 1.166 . S
C142 O141 1.182 . S
O143 Zn128 2.080 . S
O143 C146 1.305 . S
O144 Zn127 1.920 . S
O144 C146 1.234 . S
C145 O131 1.305 . S
C145 O132 1.234 . S
C146 O143 1.305 . S
C146 O144 1.234 . S
Zn147 O153 1.920 . S
Zn147 O159 1.898 1_455 S
Zn147 O162 1.905 . S
Zn148 O156 1.905 . S
Zn148 O157 1.898 . S
Zn148 O165 1.920 . S
Zn149 O152 2.080 . S
Zn149 O155 2.114 . S
Zn149 O158 2.120 . S
Zn149 O160 2.120 . S
Zn149 O161 2.114 . S
Zn149 O164 2.080 . S
C150 O155 1.166 . S
C150 O156 1.182 . S
C151 O157 1.167 . S
C151 O158 1.299 . S
O152 Zn149 2.080 . S
O152 C166 1.305 . S
O153 Zn147 1.920 . S
O153 C166 1.234 . S
C154 O159 1.167 . S
C154 O160 1.299 1_655 S
O155 Zn149 2.114 . S
O155 C150 1.166 . S
O156 Zn148 1.905 . S
O156 C150 1.182 . S
O157 Zn148 1.898 . S
O157 C151 1.167 . S
O158 Zn149 2.120 . S
O158 C151 1.299 . S
O159 Zn147 1.898 1_655 S
O159 C154 1.167 . S
O160 Zn149 2.120 . S
O160 C154 1.299 1_455 S
O161 Zn149 2.114 . S
O161 C163 1.166 . S
O162 Zn147 1.905 . S
O162 C163 1.182 . S
C163 O161 1.166 . S
C163 O162 1.182 . S
O164 Zn149 2.080 . S
O164 C167 1.305 . S
O165 Zn148 1.920 . S
O165 C167 1.234 . S
C166 O152 1.305 . S
C166 O153 1.234 . S
C167 O164 1.305 . S
C167 O165 1.234 . S
Zn168 O174 1.920 . S
Zn168 O180 1.898 . S
Zn168 O183 1.905 . S
Zn169 O177 1.905 . S
Zn169 O178 1.898 . S
Zn169 O186 1.920 . S
Zn170 O173 2.080 . S
Zn170 O176 2.114 . S
Zn170 O179 2.120 . S
Zn170 O181 2.120 . S
Zn170 O182 2.114 . S
Zn170 O185 2.080 . S
C171 O176 1.166 . S
C171 O177 1.182 . S
C172 O178 1.167 . S
C172 O179 1.299 . S
O173 Zn170 2.080 . S
O173 C187 1.305 . S
O174 Zn168 1.920 . S
O174 C187 1.234 . S
C175 O180 1.167 . S
C175 O181 1.299 . S
O176 Zn170 2.114 . S
O176 C171 1.166 . S
O177 Zn169 1.905 . S
O177 C171 1.182 . S
O178 Zn169 1.898 . S
O178 C172 1.167 . S
O179 Zn170 2.120 . S
O179 C172 1.299 . S
O180 Zn168 1.898 . S
O180 C175 1.167 . S
O181 Zn170 2.120 . S
O181 C175 1.299 . S
O182 Zn170 2.114 . S
O182 C184 1.166 . S
O183 Zn168 1.905 . S
O183 C184 1.182 . S
C184 O182 1.166 . S
C184 O183 1.182 . S
O185 Zn170 2.080 . S
O185 C188 1.305 . S
O186 Zn169 1.920 . S
O186 C188 1.234 . S
C187 O173 1.305 . S
C187 O174 1.234 . S
C188 O185 1.305 . S
C188 O186 1.234 . S
Zn189 O195 1.920 1_545 S
Zn189 O201 1.898 . S
Zn189 O204 1.905 1_545 S
Zn190 O198 1.905 . S
Zn190 O199 1.898 1_455 S
Zn190 O207 1.920 . S
Zn191 O194 2.080 1_545 S
Zn191 O197 2.114 . S
Zn191 O200 2.120 . S
Zn191 O202 2.120 . S
Zn191 O203 2.114 . S
Zn191 O206 2.080 . S
C192 O197 1.166 . S
C192 O198 1.182 . S
C193 O199 1.167 . S
C193 O200 1.299 1_655 S
O194 Zn191 2.080 1_565 S
O194 C208 1.305 . S
O195 Zn189 1.920 1_565 S
O195 C208 1.234 . S
C196 O201 1.167 . S
C196 O202 1.299 . S
O197 Zn191 2.114 . S
O197 C192 1.166 . S
O198 Zn190 1.905 . S
O198 C192 1.182 . S
O199 Zn190 1.898 1_655 S
O199 C193 1.167 . S
O200 Zn191 2.120 . S
O200 C193 1.299 1_455 S
O201 Zn189 1.898 . S
O201 C196 1.167 . S
O202 Zn191 2.120 . S
O202 C196 1.299 . S
O203 Zn191 2.114 . S
O203 C205 1.166 . S
O204 Zn189 1.905 1_565 S
O204 C205 1.182 1_565 S
C205 O203 1.166 . S
C205 O204 1.182 1_545 S
O206 Zn191 2.080 . S
O206 C209 1.305 . S
O207 Zn190 1.920 . S
O207 C209 1.234 . S
C208 O194 1.305 . S
C208 O195 1.234 . S
C209 O206 1.305 . S
C209 O207 1.234 . S
Zn210 O216 1.920 . S
Zn210 O222 1.898 . S
Zn210 O225 1.905 . S
Zn211 O219 1.905 . S
Zn211 O220 1.898 . S
Zn211 O228 1.920 . S
Zn212 O215 2.080 . S
Zn212 O218 2.114 . S
Zn212 O221 2.120 . S
Zn212 O223 2.120 . S
Zn212 O224 2.114 . S
Zn212 O227 2.080 . S
C213 O218 1.166 . S
C213 O219 1.182 . S
C214 O220 1.167 . S
C214 O221 1.299 . S
O215 Zn212 2.080 . S
O215 C229 1.305 . S
O216 Zn210 1.920 . S
O216 C229 1.234 . S
C217 O222 1.167 . S
C217 O223 1.299 . S
O218 Zn212 2.114 . S
O218 C213 1.166 . S
O219 Zn211 1.905 . S
O219 C213 1.182 . S
O220 Zn211 1.898 . S
O220 C214 1.167 . S
O221 Zn212 2.120 . S
O221 C214 1.299 . S
O222 Zn210 1.898 . S
O222 C217 1.167 . S
O223 Zn212 2.120 . S
O223 C217 1.299 . S
O224 Zn212 2.114 . S
O224 C226 1.166 . S
O225 Zn210 1.905 . S
O225 C226 1.182 . S
C226 O224 1.166 . S
C226 O225 1.182 . S
O227 Zn212 2.080 . S
O227 C230 1.305 . S
O228 Zn211 1.920 . S
O228 C230 1.234 . S
C229 O215 1.305 . S
C229 O216 1.234 . S
C230 O227 1.305 . S
C230 O228 1.234 . S
Zn231 O237 1.920 . S
Zn231 O243 1.898 . S
Zn231 O246 1.905 . S
Zn232 O240 1.905 1_565 S
Zn232 O241 1.898 . S
Zn232 O249 1.920 1_565 S
Zn233 O236 2.080 . S
Zn233 O239 2.114 . S
Zn233 O242 2.120 . S
Zn233 O244 2.120 . S
Zn233 O245 2.114 . S
Zn233 O248 2.080 1_565 S
C234 O239 1.166 . S
C234 O240 1.182 1_565 S
C235 O241 1.167 . S
C235 O242 1.299 . S
O236 Zn233 2.080 . S
O236 C250 1.305 . S
O237 Zn231 1.920 . S
O237 C250 1.234 . S
C238 O243 1.167 . S
C238 O244 1.299 . S
O239 Zn233 2.114 . S
O239 C234 1.166 . S
O240 Zn232 1.905 1_545 S
O240 C234 1.182 1_545 S
O241 Zn232 1.898 . S
O241 C235 1.167 . S
O242 Zn233 2.120 . S
O242 C235 1.299 . S
O243 Zn231 1.898 . S
O243 C238 1.167 . S
O244 Zn233 2.120 . S
O244 C238 1.299 . S
O245 Zn233 2.114 . S
O245 C247 1.166 . S
O246 Zn231 1.905 . S
O246 C247 1.182 . S
C247 O245 1.166 . S
C247 O246 1.182 . S
O248 Zn233 2.080 1_545 S
O248 C251 1.305 . S
O249 Zn232 1.920 1_545 S
O249 C251 1.234 . S
C250 O236 1.305 . S
C250 O237 1.234 . S
C251 O248 1.305 . S
C251 O249 1.234 . S
Zn252 O258 1.920 . S
Zn252 O264 1.898 . S
Zn252 O267 1.905 . S
Zn253 O261 1.905 . S
Zn253 O262 1.898 . S
Zn253 O270 1.920 . S
Zn254 O257 2.080 . S
Zn254 O260 2.114 . S
Zn254 O263 2.120 . S
Zn254 O265 2.120 . S
Zn254 O266 2.114 . S
Zn254 O269 2.080 . S
C255 O260 1.166 . S
C255 O261 1.182 . S
C256 O262 1.167 . S
C256 O263 1.299 . S
O257 Zn254 2.080 . S
O257 C271 1.305 . S
O258 Zn252 1.920 . S
O258 C271 1.234 . S
C259 O264 1.167 . S
C259 O265 1.299 . S
O260 Zn254 2.114 . S
O260 C255 1.166 . S
O261 Zn253 1.905 . S
O261 C255 1.182 . S
O262 Zn253 1.898 . S
O262 C256 1.167 . S
O263 Zn254 2.120 . S
O263 C256 1.299 . S
O264 Zn252 1.898 . S
O264 C259 1.167 . S
O265 Zn254 2.120 . S
O265 C259 1.299 . S
O266 Zn254 2.114 . S
O266 C268 1.166 . S
O267 Zn252 1.905 . S
O267 C268 1.182 . S
C268 O266 1.166 . S
C268 O267 1.182 . S
O269 Zn254 2.080 . S
O269 C272 1.305 . S
O270 Zn253 1.920 . S
O270 C272 1.234 . S
C271 O257 1.305 . S
C271 O258 1.234 . S
C272 O269 1.305 . S
C272 O270 1.234 . S
Zn273 O279 1.920 . S
Zn273 O285 1.898 1_655 S
Zn273 O288 1.905 . S
Zn274 O282 1.905 1_565 S
Zn274 O283 1.898 . S
Zn274 O291 1.920 1_565 S
Zn275 O278 2.080 . S
Zn275 O281 2.114 . S
Zn275 O284 2.120 . S
Zn275 O286 2.120 . S
Zn275 O287 2.114 . S
Zn275 O290 2.080 1_565 S
C276 O281 1.166 . S
C276 O282 1.182 1_565 S
C277 O283 1.167 . S
C277 O284 1.299 . S
O278 Zn275 2.080 . S
O278 C292 1.305 . S
O279 Zn273 1.920 . S
O279 C292 1.234 . S
C280 O285 1.167 . S
C280 O286 1.299 1_455 S
O281 Zn275 2.114 . S
O281 C276 1.166 . S
O282 Zn274 1.905 1_545 S
O282 C276 1.182 1_545 S
O283 Zn274 1.898 . S
O283 C277 1.167 . S
O284 Zn275 2.120 . S
O284 C277 1.299 . S
O285 Zn273 1.898 1_455 S
O285 C280 1.167 . S
O286 Zn275 2.120 . S
O286 C280 1.299 1_655 S
O287 Zn275 2.114 . S
O287 C289 1.166 . S
O288 Zn273 1.905 . S
O288 C289 1.182 . S
C289 O287 1.166 . S
C289 O288 1.182 . S
O290 Zn275 2.080 1_545 S
O290 C293 1.305 . S
O291 Zn274 1.920 1_545 S
O291 C293 1.234 . S
C292 O278 1.305 . S
C292 O279 1.234 . S
C293 O290 1.305 . S
C293 O291 1.234 . S
Zn294 O300 1.920 . S
Zn294 O306 1.898 . S
Zn294 O309 1.905 . S
Zn295 O303 1.905 . S
Zn295 O304 1.898 . S
Zn295 O312 1.920 . S
Zn296 O299 2.080 . S
Zn296 O302 2.114 . S
Zn296 O305 2.120 . S
Zn296 O307 2.120 . S
Zn296 O308 2.114 . S
Zn296 O311 2.080 . S
C297 O302 1.166 . S
C297 O303 1.182 . S
C298 O304 1.167 . S
C298 O305 1.299 . S
O299 Zn296 2.080 . S
O299 C313 1.305 . S
O300 Zn294 1.920 . S
O300 C313 1.234 . S
C301 O306 1.167 . S
C301 O307 1.299 . S
O302 Zn296 2.114 . S
O302 C297 1.166 . S
O303 Zn295 1.905 . S
O303 C297 1.182 . S
O304 Zn295 1.898 . S
O304 C298 1.167 . S
O305 Zn296 2.120 . S
O305 C298 1.299 . S
O306 Zn294 1.898 . S
O306 C301 1.167 . S
O307 Zn296 2.120 . S
O307 C301 1.299 . S
O308 Zn296 2.114 . S
O308 C310 1.166 . S
O309 Zn294 1.905 . S
O309 C310 1.182 . S
C310 O308 1.166 . S
C310 O309 1.182 . S
O311 Zn296 2.080 . S
O311 C314 1.305 . S
O312 Zn295 1.920 . S
O312 C314 1.234 . S
C313 O299 1.305 . S
C313 O300 1.234 . S
C314 O311 1.305 . S
C314 O312 1.234 . S
Zn315 O321 1.920 . S
Zn315 O327 1.898 . S
Zn315 O330 1.905 . S
Zn316 O324 1.905 1_545 S
Zn316 O325 1.898 . S
Zn316 O333 1.920 1_545 S
Zn317 O320 2.080 . S
Zn317 O323 2.114 . S
Zn317 O326 2.120 . S
Zn317 O328 2.120 . S
Zn317 O329 2.114 . S
Zn317 O332 2.080 1_545 S
C318 O323 1.166 . S
C318 O324 1.182 1_545 S
C319 O325 1.167 . S
C319 O326 1.299 . S
O320 Zn317 2.080 . S
O320 C334 1.305 . S
O321 Zn315 1.920 . S
O321 C334 1.234 . S
C322 O327 1.167 . S
C322 O328 1.299 . S
O323 Zn317 2.114 . S
O323 C318 1.166 . S
O324 Zn316 1.905 1_565 S
O324 C318 1.182 1_565 S
O325 Zn316 1.898 . S
O325 C319 1.167 . S
O326 Zn317 2.120 . S
O326 C319 1.299 . S
O327 Zn315 1.898 . S
O327 C322 1.167 . S
O328 Zn317 2.120 . S
O328 C322 1.299 . S
O329 Zn317 2.114 . S
O329 C331 1.166 . S
O330 Zn315 1.905 . S
O330 C331 1.182 . S
C331 O329 1.166 . S
C331 O330 1.182 . S
O332 Zn317 2.080 1_565 S
O332 C335 1.305 . S
O333 Zn316 1.920 1_565 S
O333 C335 1.234 . S
C334 O320 1.305 . S
C334 O321 1.234 . S
C335 O332 1.305 . S
C335 O333 1.234 . S
C336 C337 1.387 . S
C336 H340 0.950 . S
C336 C345 1.390 . S
C337 C336 1.387 . S
C337 C339 1.387 . S
H338 C345 0.950 . S
C339 C337 1.387 . S
C339 C341 1.390 . S
C339 H343 0.950 . S
H340 C336 0.950 . S
C341 C339 1.390 . S
C341 C342 1.387 . S
C341 H344 0.950 . S
C342 C341 1.387 . S
C342 C345 1.387 . S
H343 C339 0.950 . S
H344 C341 0.950 . S
C345 C336 1.390 . S
C345 H338 0.950 . S
C345 C342 1.387 . S
C346 C347 1.387 . S
C346 H350 0.950 . S
C346 C355 1.390 . S
C347 C346 1.387 . S
C347 C349 1.387 . S
H348 C355 0.950 . S
C349 C347 1.387 . S
C349 C351 1.390 . S
C349 H353 0.950 . S
H350 C346 0.950 . S
C351 C349 1.390 . S
C351 C352 1.387 . S
C351 H354 0.950 . S
C352 C351 1.387 . S
C352 C355 1.387 . S
H353 C349 0.950 . S
H354 C351 0.950 . S
C355 C346 1.390 . S
C355 H348 0.950 . S
C355 C352 1.387 . S
C356 C357 1.387 . S
C356 H360 0.950 . S
C356 C365 1.390 . S
C357 C356 1.387 . S
C357 C359 1.387 . S
H358 C365 0.950 . S
C359 C357 1.387 . S
C359 C361 1.390 . S
C359 H363 0.950 . S
H360 C356 0.950 . S
C361 C359 1.390 . S
C361 C362 1.387 . S
C361 H364 0.950 . S
C362 C361 1.387 . S
C362 C365 1.387 . S
H363 C359 0.950 . S
H364 C361 0.950 . S
C365 C356 1.390 . S
C365 H358 0.950 . S
C365 C362 1.387 . S
C366 C367 1.387 . S
C366 H370 0.950 . S
C366 C375 1.390 1_556 S
C367 C366 1.387 . S
C367 C369 1.387 1_655 S
H368 C375 0.950 . S
C369 C367 1.387 1_455 S
C369 C371 1.390 1_556 S
C369 H373 0.950 . S
H370 C366 0.950 . S
C371 C369 1.390 1_554 S
C371 C372 1.387 . S
C371 H374 0.950 . S
C372 C371 1.387 . S
C372 C375 1.387 1_455 S
H373 C369 0.950 . S
H374 C371 0.950 . S
C375 C366 1.390 1_554 S
C375 H368 0.950 . S
C375 C372 1.387 1_655 S
C376 C377 1.387 . S
C376 H380 0.950 . S
C376 C385 1.390 . S
C377 C376 1.387 . S
C377 C379 1.387 . S
H378 C385 0.950 . S
C379 C377 1.387 . S
C379 C381 1.390 . S
C379 H383 0.950 . S
H380 C376 0.950 . S
C381 C379 1.390 . S
C381 C382 1.387 . S
C381 H384 0.950 . S
C382 C381 1.387 . S
C382 C385 1.387 . S
H383 C379 0.950 . S
H384 C381 0.950 . S
C385 C376 1.390 . S
C385 H378 0.950 . S
C385 C382 1.387 . S
C386 C387 1.387 . S
C386 H390 0.950 . S
C386 C395 1.390 . S
C387 C386 1.387 . S
C387 C389 1.387 . S
H388 C395 0.950 . S
C389 C387 1.387 . S
C389 C391 1.390 . S
C389 H393 0.950 . S
H390 C386 0.950 . S
C391 C389 1.390 . S
C391 C392 1.387 . S
C391 H394 0.950 . S
C392 C391 1.387 . S
C392 C395 1.387 . S
H393 C389 0.950 . S
H394 C391 0.950 . S
C395 C386 1.390 . S
C395 H388 0.950 . S
C395 C392 1.387 . S
C396 C397 1.387 1_545 S
C396 H400 0.950 . S
C396 C405 1.390 1_654 S
C397 C396 1.387 1_565 S
C397 C399 1.387 . S
H398 C405 0.950 . S
C399 C397 1.387 . S
C399 C401 1.390 1_654 S
C399 H403 0.950 . S
H400 C396 0.950 . S
C401 C399 1.390 1_456 S
C401 C402 1.387 1_565 S
C401 H404 0.950 . S
C402 C401 1.387 1_545 S
C402 C405 1.387 . S
H403 C399 0.950 . S
H404 C401 0.950 . S
C405 C396 1.390 1_456 S
C405 H398 0.950 . S
C405 C402 1.387 . S
C406 C407 1.387 1_545 S
C406 H410 0.950 . S
C406 C415 1.390 . S
C407 C406 1.387 1_565 S
C407 C409 1.387 . S
H408 C415 0.950 . S
C409 C407 1.387 . S
C409 C411 1.390 . S
C409 H413 0.950 . S
H410 C406 0.950 . S
C411 C409 1.390 . S
C411 C412 1.387 1_565 S
C411 H414 0.950 . S
C412 C411 1.387 1_545 S
C412 C415 1.387 . S
H413 C409 0.950 . S
H414 C411 0.950 . S
C415 C406 1.390 . S
C415 H408 0.950 . S
C415 C412 1.387 . S
C416 C417 1.387 . S
C416 H420 0.950 . S
C416 C425 1.390 . S
C417 C416 1.387 . S
C417 C419 1.387 . S
H418 C425 0.949 1_554 S
C419 C417 1.387 . S
C419 C421 1.390 . S
C419 H423 0.950 . S
H420 C416 0.950 . S
C421 C419 1.390 . S
C421 C422 1.387 1_556 S
C421 H424 0.950 1_556 S
C422 C421 1.387 1_554 S
C422 C425 1.387 1_554 S
H423 C419 0.950 . S
H424 C421 0.950 1_554 S
C425 C416 1.390 . S
C425 H418 0.949 1_556 S
C425 C422 1.387 1_556 S
C426 C427 1.387 . S
C426 H430 0.950 . S
C426 C435 1.390 . S
C427 C426 1.387 . S
C427 C429 1.387 . S
H428 C435 0.950 . S
C429 C427 1.387 . S
C429 C431 1.390 . S
C429 H433 0.950 . S
H430 C426 0.950 . S
C431 C429 1.390 . S
C431 C432 1.387 . S
C431 H434 0.950 . S
C432 C431 1.387 . S
C432 C435 1.387 . S
H433 C429 0.950 . S
H434 C431 0.950 . S
C435 C426 1.390 . S
C435 H428 0.950 . S
C435 C432 1.387 . S
C436 C437 1.387 . S
C436 H440 0.950 . S
C436 C445 1.390 . S
C437 C436 1.387 . S
C437 C439 1.387 . S
H438 C445 0.950 . S
C439 C437 1.387 . S
C439 C441 1.390 . S
C439 H443 0.950 . S
H440 C436 0.950 . S
C441 C439 1.390 . S
C441 C442 1.387 . S
C441 H444 0.950 . S
C442 C441 1.387 . S
C442 C445 1.387 . S
H443 C439 0.950 . S
H444 C441 0.950 . S
C445 C436 1.390 . S
C445 H438 0.950 . S
C445 C442 1.387 . S
C446 C447 1.387 . S
C446 H450 0.950 . S
C446 C455 1.390 . S
C447 C446 1.387 . S
C447 C449 1.387 . S
H448 C455 0.950 . S
C449 C447 1.387 . S
C449 C451 1.390 . S
C449 H453 0.950 . S
H450 C446 0.950 . S
C451 C449 1.390 . S
C451 C452 1.387 . S
C451 H454 0.950 . S
C452 C451 1.387 . S
C452 C455 1.387 . S
H453 C449 0.950 . S
H454 C451 0.950 . S
C455 C446 1.390 . S
C455 H448 0.950 . S
C455 C452 1.387 . S
C456 C457 1.387 . S
C456 H460 0.950 . S
C456 C465 1.390 . S
C457 C456 1.387 . S
C457 C459 1.387 . S
H458 C465 0.950 1_556 S
C459 C457 1.387 . S
C459 C461 1.390 . S
C459 H463 0.950 . S
H460 C456 0.950 . S
C461 C459 1.390 . S
C461 C462 1.387 1_554 S
C461 H464 0.950 1_554 S
C462 C461 1.387 1_556 S
C462 C465 1.387 1_556 S
H463 C459 0.950 . S
H464 C461 0.950 1_556 S
C465 C456 1.390 . S
C465 H458 0.950 1_554 S
C465 C462 1.387 1_554 S
C466 C467 1.387 . S
C466 H470 0.950 . S
C466 C475 1.390 . S
C467 C466 1.387 . S
C467 C469 1.387 . S
H468 C475 0.950 . S
C469 C467 1.387 . S
C469 C471 1.390 . S
C469 H473 0.950 . S
H470 C466 0.950 . S
C471 C469 1.390 . S
C471 C472 1.387 . S
C471 H474 0.950 . S
C472 C471 1.387 . S
C472 C475 1.387 . S
H473 C469 0.950 . S
H474 C471 0.950 . S
C475 C466 1.390 . S
C475 H468 0.950 . S
C475 C472 1.387 . S
C476 C477 1.387 . S
C476 H480 0.950 . S
C476 C485 1.390 . S
C477 C476 1.387 . S
C477 C479 1.387 . S
H478 C485 0.950 . S
C479 C477 1.387 . S
C479 C481 1.390 . S
C479 H483 0.950 . S
H480 C476 0.950 . S
C481 C479 1.390 . S
C481 C482 1.387 . S
C481 H484 0.950 . S
C482 C481 1.387 . S
C482 C485 1.387 . S
H483 C479 0.950 . S
H484 C481 0.950 . S
C485 C476 1.390 . S
C485 H478 0.950 . S
C485 C482 1.387 . S
C486 C487 1.387 . S
C486 H490 0.950 . S
C486 C495 1.390 . S
C487 C486 1.387 . S
C487 C489 1.387 . S
H488 C495 0.950 . S
C489 C487 1.387 . S
C489 C491 1.390 . S
C489 H493 0.950 . S
H490 C486 0.950 . S
C491 C489 1.390 . S
C491 C492 1.387 . S
C491 H494 0.950 . S
C492 C491 1.387 . S
C492 C495 1.387 . S
H493 C489 0.950 . S
H494 C491 0.950 . S
C495 C486 1.390 . S
C495 H488 0.950 . S
C495 C492 1.387 . S
C496 C497 1.387 . S
C496 H500 0.950 . S
C496 C505 1.390 . S
C497 C496 1.387 . S
C497 C499 1.387 . S
H498 C505 0.950 . S
C499 C497 1.387 . S
C499 C501 1.390 . S
C499 H503 0.950 . S
H500 C496 0.950 . S
C501 C499 1.390 . S
C501 C502 1.387 . S
C501 H504 0.950 . S
C502 C501 1.387 . S
C502 C505 1.387 . S
H503 C499 0.950 . S
H504 C501 0.950 . S
C505 C496 1.390 . S
C505 H498 0.950 . S
C505 C502 1.387 . S
C506 C507 1.387 1_565 S
C506 H510 0.950 . S
C506 C515 1.390 . S
C507 C506 1.387 1_545 S
C507 C509 1.387 . S
H508 C515 0.950 . S
C509 C507 1.387 . S
C509 C511 1.390 . S
C509 H513 0.950 . S
H510 C506 0.950 . S
C511 C509 1.390 . S
C511 C512 1.387 1_545 S
C511 H514 0.950 . S
C512 C511 1.387 1_565 S
C512 C515 1.387 . S
H513 C509 0.950 . S
H514 C511 0.950 . S
C515 C506 1.390 . S
C515 H508 0.950 . S
C515 C512 1.387 . S
C516 C517 1.387 1_556 S
C516 H520 0.950 1_556 S
C516 C525 1.390 . S
C517 C516 1.387 1_554 S
C517 C519 1.387 1_554 S
H518 C525 0.950 . S
C519 C517 1.387 1_556 S
C519 C521 1.390 . S
C519 H523 0.950 1_556 S
H520 C516 0.950 1_554 S
C521 C519 1.390 . S
C521 C522 1.387 . S
C521 H524 0.950 . S
C522 C521 1.387 . S
C522 C525 1.387 . S
H523 C519 0.950 1_554 S
H524 C521 0.950 . S
C525 C516 1.390 . S
C525 H518 0.950 . S
C525 C522 1.387 . S
C526 C527 1.387 . S
C526 H530 0.950 . S
C526 C535 1.390 . S
C527 C526 1.387 . S
C527 C529 1.387 . S
H528 C535 0.950 . S
C529 C527 1.387 . S
C529 C531 1.390 1_545 S
C529 H533 0.950 . S
H530 C526 0.950 . S
C531 C529 1.390 1_565 S
C531 C532 1.387 . S
C531 H534 0.950 . S
C532 C531 1.387 . S
C532 C535 1.387 1_565 S
H533 C529 0.950 . S
H534 C531 0.950 . S
C535 C526 1.390 . S
C535 H528 0.950 . S
C535 C532 1.387 1_545 S
C536 C537 1.387 . S
C536 H540 0.950 . S
C536 C545 1.390 . S
C537 C536 1.387 . S
C537 C539 1.387 . S
H538 C545 0.950 . S
C539 C537 1.387 . S
C539 C541 1.390 . S
C539 H543 0.950 . S
H540 C536 0.950 . S
C541 C539 1.390 . S
C541 C542 1.387 . S
C541 H544 0.950 . S
C542 C541 1.387 . S
C542 C545 1.387 . S
H543 C539 0.950 . S
H544 C541 0.950 . S
C545 C536 1.390 . S
C545 H538 0.950 . S
C545 C542 1.387 . S
C546 C547 1.387 1_545 S
C546 H550 0.950 . S
C546 C555 1.390 . S
C547 C546 1.387 1_565 S
C547 C549 1.387 1_565 S
H548 C555 0.950 . S
C549 C547 1.387 1_545 S
C549 C551 1.390 . S
C549 H553 0.950 1_545 S
H550 C546 0.950 . S
C551 C549 1.390 . S
C551 C552 1.387 . S
C551 H554 0.950 . S
C552 C551 1.387 . S
C552 C555 1.387 . S
H553 C549 0.950 1_565 S
H554 C551 0.950 . S
C555 C546 1.390 . S
C555 H548 0.950 . S
C555 C552 1.387 . S
C556 C557 1.387 . S
C556 H560 0.950 . S
C556 C565 1.390 . S
C557 C556 1.387 . S
C557 C559 1.387 . S
H558 C565 0.950 1_556 S
C559 C557 1.387 . S
C559 C561 1.390 . S
C559 H563 0.950 . S
H560 C556 0.950 . S
C561 C559 1.390 . S
C561 C562 1.387 1_554 S
C561 H564 0.950 1_554 S
C562 C561 1.387 1_556 S
C562 C565 1.387 1_556 S
H563 C559 0.950 . S
H564 C561 0.950 1_556 S
C565 C556 1.390 . S
C565 H558 0.950 1_554 S
C565 C562 1.387 1_554 S
C566 C567 1.387 1_565 S
C566 H570 0.950 . S
C566 C575 1.390 . S
C567 C566 1.387 1_545 S
C567 C569 1.387 1_545 S
H568 C575 0.950 . S
C569 C567 1.387 1_565 S
C569 C571 1.390 . S
C569 H573 0.950 1_565 S
H570 C566 0.950 . S
C571 C569 1.390 . S
C571 C572 1.387 . S
C571 H574 0.950 . S
C572 C571 1.387 . S
C572 C575 1.387 . S
H573 C569 0.950 1_545 S
H574 C571 0.950 . S
C575 C566 1.390 . S
C575 H568 0.950 . S
C575 C572 1.387 . S
C576 C577 1.387 . S
C576 H580 0.950 . S
C576 C585 1.390 . S
C577 C576 1.387 . S
C577 C579 1.387 . S
H578 C585 0.950 . S
C579 C577 1.387 . S
C579 C581 1.390 . S
C579 H583 0.950 . S
H580 C576 0.950 . S
C581 C579 1.390 . S
C581 C582 1.387 . S
C581 H584 0.950 . S
C582 C581 1.387 . S
C582 C585 1.387 . S
H583 C579 0.950 . S
H584 C581 0.950 . S
C585 C576 1.390 . S
C585 H578 0.950 . S
C585 C582 1.387 . S
C586 C587 1.387 . S
C586 H590 0.950 . S
C586 C595 1.390 . S
C587 C586 1.387 . S
C587 C589 1.387 . S
H588 C595 0.950 . S
C589 C587 1.387 . S
C589 C591 1.390 . S
C589 H593 0.950 . S
H590 C586 0.950 . S
C591 C589 1.390 . S
C591 C592 1.387 . S
C591 H594 0.950 . S
C592 C591 1.387 . S
C592 C595 1.387 . S
H593 C589 0.950 . S
H594 C591 0.950 . S
C595 C586 1.390 . S
C595 H588 0.950 . S
C595 C592 1.387 . S
C596 C597 1.387 . S
C596 H600 0.950 . S
C596 C605 1.390 1_655 S
C597 C596 1.387 . S
C597 C599 1.387 . S
H598 C605 0.950 . S
C599 C597 1.387 . S
C599 C601 1.390 1_655 S
C599 H603 0.950 . S
H600 C596 0.950 . S
C601 C599 1.390 1_455 S
C601 C602 1.387 . S
C601 H604 0.950 . S
C602 C601 1.387 . S
C602 C605 1.387 . S
H603 C599 0.950 . S
H604 C601 0.950 . S
C605 C596 1.390 1_455 S
C605 H598 0.950 . S
C605 C602 1.387 . S
C606 C607 1.387 . S
C606 H610 0.950 . S
C606 C615 1.390 1_655 S
C607 C606 1.387 . S
C607 C609 1.387 . S
H608 C615 0.950 . S
C609 C607 1.387 . S
C609 C611 1.390 1_655 S
C609 H613 0.950 . S
H610 C606 0.950 . S
C611 C609 1.390 1_455 S
C611 C612 1.387 . S
C611 H614 0.950 . S
C612 C611 1.387 . S
C612 C615 1.387 . S
H613 C609 0.950 . S
H614 C611 0.950 . S
C615 C606 1.390 1_455 S
C615 H608 0.950 . S
C615 C612 1.387 . S
C616 C617 1.387 . S
C616 H620 0.950 . S
C616 C625 1.390 . S
C617 C616 1.387 . S
C617 C619 1.387 . S
H618 C625 0.950 . S
C619 C617 1.387 . S
C619 C621 1.390 . S
C619 H623 0.950 . S
H620 C616 0.950 . S
C621 C619 1.390 . S
C621 C622 1.387 . S
C621 H624 0.950 . S
C622 C621 1.387 . S
C622 C625 1.387 . S
H623 C619 0.950 . S
H624 C621 0.950 . S
C625 C616 1.390 . S
C625 H618 0.950 . S
C625 C622 1.387 . S
C626 C627 1.387 . S
C626 H630 0.950 . S
C626 C635 1.390 . S
C627 C626 1.387 . S
C627 C629 1.387 . S
H628 C635 0.950 . S
C629 C627 1.387 . S
C629 C631 1.390 . S
C629 H633 0.950 . S
H630 C626 0.950 . S
C631 C629 1.390 . S
C631 C632 1.387 . S
C631 H634 0.950 . S
C632 C631 1.387 . S
C632 C635 1.387 . S
H633 C629 0.950 . S
H634 C631 0.950 . S
C635 C626 1.390 . S
C635 H628 0.950 . S
C635 C632 1.387 . S
C636 C637 1.387 . S
C636 H640 0.950 . S
C636 C645 1.390 1_455 S
C637 C636 1.387 . S
C637 C639 1.387 . S
H638 C645 0.950 . S
C639 C637 1.387 . S
C639 C641 1.390 1_455 S
C639 H643 0.950 . S
H640 C636 0.950 . S
C641 C639 1.390 1_655 S
C641 C642 1.387 . S
C641 H644 0.950 . S
C642 C641 1.387 . S
C642 C645 1.387 . S
H643 C639 0.950 . S
H644 C641 0.950 . S
C645 C636 1.390 1_655 S
C645 H638 0.950 . S
C645 C642 1.387 . S
C646 C647 1.387 . S
C646 H650 0.950 . S
C646 C655 1.390 1_455 S
C647 C646 1.387 . S
C647 C649 1.387 . S
H648 C655 0.950 . S
C649 C647 1.387 . S
C649 C651 1.390 1_455 S
C649 H653 0.950 . S
H650 C646 0.950 . S
C651 C649 1.390 1_655 S
C651 C652 1.387 . S
C651 H654 0.950 . S
C652 C651 1.387 . S
C652 C655 1.387 . S
H653 C649 0.950 . S
H654 C651 0.950 . S
C655 C646 1.390 1_655 S
C655 H648 0.950 . S
C655 C652 1.387 . S
C656 C657 1.387 . S
C656 H660 0.950 . S
C656 C665 1.390 . S
C657 C656 1.387 . S
C657 C659 1.387 . S
H658 C665 0.950 . S
C659 C657 1.387 . S
C659 C661 1.390 . S
C659 H663 0.950 . S
H660 C656 0.950 . S
C661 C659 1.390 . S
C661 C662 1.387 . S
C661 H664 0.950 . S
C662 C661 1.387 . S
C662 C665 1.387 . S
H663 C659 0.950 . S
H664 C661 0.950 . S
C665 C656 1.390 . S
C665 H658 0.950 . S
C665 C662 1.387 . S
C666 C667 1.387 . S
C666 H670 0.950 . S
C666 C675 1.390 . S
C667 C666 1.387 . S
C667 C669 1.387 . S
H668 C675 0.950 . S
C669 C667 1.387 . S
C669 C671 1.390 . S
C669 H673 0.950 . S
H670 C666 0.950 . S
C671 C669 1.390 . S
C671 C672 1.387 . S
C671 H674 0.950 . S
C672 C671 1.387 . S
C672 C675 1.387 . S
H673 C669 0.950 . S
H674 C671 0.950 . S
C675 C666 1.390 . S
C675 H668 0.950 . S
C675 C672 1.387 . S
C676 C677 1.387 . S
C676 H680 0.950 . S
C676 C685 1.390 . S
C677 C676 1.387 . S
C677 C679 1.387 . S
H678 C685 0.950 . S
C679 C677 1.387 . S
C679 C681 1.390 . S
C679 H683 0.950 . S
H680 C676 0.950 . S
C681 C679 1.390 . S
C681 C682 1.387 . S
C681 H684 0.950 . S
C682 C681 1.387 . S
C682 C685 1.387 . S
H683 C679 0.950 . S
H684 C681 0.950 . S
C685 C676 1.390 . S
C685 H678 0.950 . S
C685 C682 1.387 . S
C686 C687 1.387 . S
C686 H690 0.950 . S
C686 C695 1.390 . S
C687 C686 1.387 . S
C687 C689 1.387 . S
H688 C695 0.950 . S
C689 C687 1.387 . S
C689 C691 1.390 . S
C689 H693 0.950 . S
H690 C686 0.950 . S
C691 C689 1.390 . S
C691 C692 1.387 . S
C691 H694 0.950 . S
C692 C691 1.387 . S
C692 C695 1.387 . S
H693 C689 0.950 . S
H694 C691 0.950 . S
C695 C686 1.390 . S
C695 H688 0.950 . S
C695 C692 1.387 . S
C696 C697 1.387 . S
C696 H700 0.950 . S
C696 C705 1.390 . S
C697 C696 1.387 . S
C697 C699 1.387 . S
H698 C705 0.950 . S
C699 C697 1.387 . S
C699 C701 1.390 . S
C699 H703 0.950 . S
H700 C696 0.950 . S
C701 C699 1.390 . S
C701 C702 1.387 . S
C701 H704 0.950 . S
C702 C701 1.387 . S
C702 C705 1.387 . S
H703 C699 0.950 . S
H704 C701 0.950 . S
C705 C696 1.390 . S
C705 H698 0.950 . S
C705 C702 1.387 . S
C706 C707 1.387 . S
C706 H710 0.950 . S
C706 C715 1.390 . S
C707 C706 1.387 . S
C707 C709 1.387 . S
H708 C715 0.950 . S
C709 C707 1.387 . S
C709 C711 1.390 . S
C709 H713 0.950 . S
H710 C706 0.950 . S
C711 C709 1.390 . S
C711 C712 1.387 . S
C711 H714 0.950 . S
C712 C711 1.387 . S
C712 C715 1.387 . S
H713 C709 0.950 . S
H714 C711 0.950 . S
C715 C706 1.390 . S
C715 H708 0.950 . S
C715 C712 1.387 . S
C716 C717 1.387 . S
C716 H720 0.950 . S
C716 C725 1.390 . S
C717 C716 1.387 . S
C717 C719 1.387 . S
H718 C725 0.950 . S
C719 C717 1.387 . S
C719 C721 1.390 . S
C719 H723 0.950 . S
H720 C716 0.950 . S
C721 C719 1.390 . S
C721 C722 1.387 . S
C721 H724 0.950 . S
C722 C721 1.387 . S
C722 C725 1.387 . S
H723 C719 0.950 . S
H724 C721 0.950 . S
C725 C716 1.390 . S
C725 H718 0.950 . S
C725 C722 1.387 . S
C726 C727 1.387 . S
C726 H730 0.950 . S
C726 C735 1.390 . S
C727 C726 1.387 . S
C727 C729 1.387 . S
H728 C735 0.950 . S
C729 C727 1.387 . S
C729 C731 1.390 . S
C729 H733 0.950 . S
H730 C726 0.950 . S
C731 C729 1.390 . S
C731 C732 1.387 . S
C731 H734 0.950 . S
C732 C731 1.387 . S
C732 C735 1.387 . S
H733 C729 0.950 . S
H734 C731 0.950 . S
C735 C726 1.390 . S
C735 H728 0.950 . S
C735 C732 1.387 . S
C736 C737 1.387 . S
C736 H740 0.950 . S
C736 C745 1.390 . S
C737 C736 1.387 . S
C737 C739 1.387 . S
H738 C745 0.950 . S
C739 C737 1.387 . S
C739 C741 1.390 . S
C739 H743 0.950 . S
H740 C736 0.950 . S
C741 C739 1.390 . S
C741 C742 1.387 . S
C741 H744 0.950 . S
C742 C741 1.387 . S
C742 C745 1.387 . S
H743 C739 0.950 . S
H744 C741 0.950 . S
C745 C736 1.390 . S
C745 H738 0.950 . S
C745 C742 1.387 . S
C746 C747 1.387 . S
C746 H750 0.950 . S
C746 C755 1.390 . S
C747 C746 1.387 . S
C747 C749 1.387 . S
H748 C755 0.950 1_545 S
C749 C747 1.387 . S
C749 C751 1.390 . S
C749 H753 0.950 . S
H750 C746 0.950 . S
C751 C749 1.390 . S
C751 C752 1.387 . S
C751 H754 0.950 . S
C752 C751 1.387 . S
C752 C755 1.387 . S
H753 C749 0.950 . S
H754 C751 0.950 . S
C755 C746 1.390 . S
C755 H748 0.950 1_565 S
C755 C752 1.387 . S
C756 C757 1.387 . S
C756 H760 0.950 . S
C756 C765 1.390 . S
C757 C756 1.387 . S
C757 C759 1.387 . S
H758 C765 0.950 . S
C759 C757 1.387 . S
C759 C761 1.390 . S
C759 H763 0.950 . S
H760 C756 0.950 . S
C761 C759 1.390 . S
C761 C762 1.387 . S
C761 H764 0.950 . S
C762 C761 1.387 . S
C762 C765 1.387 . S
H763 C759 0.950 . S
H764 C761 0.950 . S
C765 C756 1.390 . S
C765 H758 0.950 . S
C765 C762 1.387 . S
C766 C767 1.387 . S
C766 H770 0.950 1_545 S
C766 C775 1.390 . S
C767 C766 1.387 . S
C767 C769 1.387 . S
H768 C775 0.950 . S
C769 C767 1.387 . S
C769 C771 1.390 . S
C769 H773 0.950 . S
H770 C766 0.950 1_565 S
C771 C769 1.390 . S
C771 C772 1.387 . S
C771 H774 0.950 . S
C772 C771 1.387 . S
C772 C775 1.387 . S
H773 C769 0.950 . S
H774 C771 0.950 . S
C775 C766 1.390 . S
C775 H768 0.950 . S
C775 C772 1.387 . S
C776 C777 1.387 . S
C776 H780 0.950 . S
C776 C785 1.390 . S
C777 C776 1.387 . S
C777 C779 1.387 . S
H778 C785 0.950 . S
C779 C777 1.387 . S
C779 C781 1.390 . S
C779 H783 0.950 . S
H780 C776 0.950 . S
C781 C779 1.390 . S
C781 C782 1.387 . S
C781 H784 0.950 . S
C782 C781 1.387 . S
C782 C785 1.387 . S
H783 C779 0.950 . S
H784 C781 0.950 . S
C785 C776 1.390 . S
C785 H778 0.950 . S
C785 C782 1.387 . S
C786 C787 1.387 . S
C786 H790 0.950 1_545 S
C786 C795 1.390 . S
C787 C786 1.387 . S
C787 C789 1.387 . S
H788 C795 0.950 . S
C789 C787 1.387 . S
C789 C791 1.390 . S
C789 H793 0.950 . S
H790 C786 0.950 1_565 S
C791 C789 1.390 . S
C791 C792 1.387 . S
C791 H794 0.950 . S
C792 C791 1.387 . S
C792 C795 1.387 . S
H793 C789 0.950 . S
H794 C791 0.950 . S
C795 C786 1.390 . S
C795 H788 0.950 . S
C795 C792 1.387 . S
C796 C797 1.387 . S
C796 H800 0.950 . S
C796 C805 1.390 . S
C797 C796 1.387 . S
C797 C799 1.387 . S
H798 C805 0.950 . S
C799 C797 1.387 . S
C799 C801 1.390 . S
C799 H803 0.950 . S
H800 C796 0.950 . S
C801 C799 1.390 . S
C801 C802 1.387 . S
C801 H804 0.950 . S
C802 C801 1.387 . S
C802 C805 1.387 . S
H803 C799 0.950 . S
H804 C801 0.950 . S
C805 C796 1.390 . S
C805 H798 0.950 . S
C805 C802 1.387 . S
C806 C807 1.387 . S
C806 H810 0.950 . S
C806 C815 1.390 . S
C807 C806 1.387 . S
C807 C809 1.387 . S
H808 C815 0.950 . S
C809 C807 1.387 . S
C809 C811 1.390 . S
C809 H813 0.950 . S
H810 C806 0.950 . S
C811 C809 1.390 . S
C811 C812 1.387 . S
C811 H814 0.950 . S
C812 C811 1.387 . S
C812 C815 1.387 . S
H813 C809 0.950 . S
H814 C811 0.950 . S
C815 C806 1.390 . S
C815 H808 0.950 . S
C815 C812 1.387 . S
C337 C3 0.861 . S
C342 C255 0.861 . S
C347 C121 0.863 . S
C352 C24 0.863 . S
C357 C58 0.863 . S
C362 C297 0.863 . S
C367 C66 0.863 . S
C372 C150 0.863 . S
C377 C87 0.857 . S
C382 C171 0.857 . S
C387 C213 0.861 . S
C392 C129 0.861 . S
C397 C276 0.856 . S
C402 C205 0.856 . S
C407 C234 0.864 . S
C412 C318 0.864 . S
C417 C196 1.197 . S
C422 C19 1.471 . S
C427 C40 1.471 . S
C432 C214 1.196 . S
C437 C62 1.471 . S
C442 C235 1.196 . S
C447 C172 1.199 . S
C452 C82 1.472 . S
C457 C277 1.197 . S
C462 C103 1.472 . S
C467 C298 1.196 . S
C472 C125 1.471 . S
C477 C145 1.473 . S
C482 C319 1.200 . S
C487 C256 1.197 . S
C492 C166 1.472 . S
C497 C187 1.472 . S
C502 C25 1.197 . S
C507 C209 1.475 . S
C512 C49 1.202 . S
C517 C229 1.472 . S
C522 C67 1.199 . S
C527 C4 1.201 . S
C532 C250 1.474 . S
C537 C112 1.200 . S
C542 C271 1.473 . S
C547 C292 1.471 . S
C552 C130 1.197 . S
C557 C151 1.197 . S
C562 C313 1.472 . S
C567 C334 1.472 . S
C572 C88 1.199 . S
C577 C16 1.426 . S
C582 C226 1.426 . S
C587 C37 1.426 . S
C592 C247 1.426 . S
C597 C184 1.422 . S
C602 C45 1.422 . S
C607 C79 1.426 . S
C612 C192 1.426 . S
C617 C100 1.422 . S
C622 C310 1.422 . S
C627 C108 1.422 . S
C632 C331 1.422 . S
C637 C268 1.426 . S
C642 C142 1.426 . S
C647 C163 1.426 . S
C652 C289 1.426 . S
C657 C7 1.480 . S
C662 C167 1.325 . S
C667 C272 1.326 . S
C672 C28 1.480 . S
C677 C46 1.480 . S
C682 C124 1.325 . S
C687 C70 1.480 . S
C692 C314 1.327 . S
C697 C91 1.480 . S
C702 C83 1.325 . S
C707 C188 1.326 . S
C712 C109 1.480 . S
C717 C133 1.481 . S
C722 C41 1.324 . S
C727 C230 1.322 . S
C732 C154 1.482 . S
C737 C175 1.480 . S
C742 C335 1.326 . S
C747 C104 1.323 . S
C752 C193 1.482 1_565 S
C757 C293 1.325 . S
C762 C217 1.480 . S
C767 C238 1.482 1_545 S
C772 C146 1.323 . S
C777 C259 1.481 . S
C782 C251 1.324 . S
C787 C280 1.480 1_545 S
C792 C20 1.326 . S
C797 C208 1.326 . S
C802 C301 1.480 . S
C807 C61 1.324 . S
C812 C322 1.481 1_565 S
