# Generated by pormake.
# Topology bva, (3)-cn, num edge types: 1
# Building blocks:
#     Node 0, Type 0, BuildingBlock: OLANEW_clean_sbu_2, # of connection points: 3
#     Node 1, Type 0, BuildingBlock: OLANEW_clean_sbu_2, # of connection points: 3
#     Node 2, Type 0, BuildingBlock: OLANEW_clean_sbu_2, # of connection points: 3
#     Node 3, Type 0, BuildingBlock: OLANEW_clean_sbu_2, # of connection points: 3
#     Node 4, Type 0, BuildingBlock: OLANEW_clean_sbu_2, # of connection points: 3
#     Node 5, Type 0, BuildingBlock: OLANEW_clean_sbu_2, # of connection points: 3
#     Node 6, Type 0, BuildingBlock: OLANEW_clean_sbu_2, # of connection points: 3
#     Node 7, Type 0, BuildingBlock: OLANEW_clean_sbu_2, # of connection points: 3
#     Node 8, Type 0, BuildingBlock: OLANEW_clean_sbu_2, # of connection points: 3
#     Node 9, Type 0, BuildingBlock: OLANEW_clean_sbu_2, # of connection points: 3
#     Node 10, Type 0, BuildingBlock: OLANEW_clean_sbu_2, # of connection points: 3
#     Node 11, Type 0, BuildingBlock: OLANEW_clean_sbu_2, # of connection points: 3
#     Node 12, Type 0, BuildingBlock: OLANEW_clean_sbu_2, # of connection points: 3
#     Node 13, Type 0, BuildingBlock: OLANEW_clean_sbu_2, # of connection points: 3
#     Node 14, Type 0, BuildingBlock: OLANEW_clean_sbu_2, # of connection points: 3
#     Node 15, Type 0, BuildingBlock: OLANEW_clean_sbu_2, # of connection points: 3
#     Node 16, Type 0, BuildingBlock: OLANEW_clean_sbu_2, # of connection points: 3
#     Node 17, Type 0, BuildingBlock: OLANEW_clean_sbu_2, # of connection points: 3
#     Node 18, Type 0, BuildingBlock: OLANEW_clean_sbu_2, # of connection points: 3
#     Node 19, Type 0, BuildingBlock: OLANEW_clean_sbu_2, # of connection points: 3
#     Node 20, Type 0, BuildingBlock: OLANEW_clean_sbu_2, # of connection points: 3
#     Node 21, Type 0, BuildingBlock: OLANEW_clean_sbu_2, # of connection points: 3
#     Node 22, Type 0, BuildingBlock: OLANEW_clean_sbu_2, # of connection points: 3
#     Node 23, Type 0, BuildingBlock: OLANEW_clean_sbu_2, # of connection points: 3
#     Node 24, Type 0, BuildingBlock: OLANEW_clean_sbu_2, # of connection points: 3
#     Node 25, Type 0, BuildingBlock: OLANEW_clean_sbu_2, # of connection points: 3
#     Node 26, Type 0, BuildingBlock: OLANEW_clean_sbu_2, # of connection points: 3
#     Node 27, Type 0, BuildingBlock: OLANEW_clean_sbu_2, # of connection points: 3
#     Node 28, Type 0, BuildingBlock: OLANEW_clean_sbu_2, # of connection points: 3
#     Node 29, Type 0, BuildingBlock: OLANEW_clean_sbu_2, # of connection points: 3
#     Node 30, Type 0, BuildingBlock: OLANEW_clean_sbu_2, # of connection points: 3
#     Node 31, Type 0, BuildingBlock: OLANEW_clean_sbu_2, # of connection points: 3
#     Node 32, Type 0, BuildingBlock: OLANEW_clean_sbu_2, # of connection points: 3
#     Node 33, Type 0, BuildingBlock: OLANEW_clean_sbu_2, # of connection points: 3
#     Node 34, Type 0, BuildingBlock: OLANEW_clean_sbu_2, # of connection points: 3
#     Node 35, Type 0, BuildingBlock: OLANEW_clean_sbu_2, # of connection points: 3
#     Node 36, Type 0, BuildingBlock: OLANEW_clean_sbu_2, # of connection points: 3
#     Node 37, Type 0, BuildingBlock: OLANEW_clean_sbu_2, # of connection points: 3
#     Node 38, Type 0, BuildingBlock: OLANEW_clean_sbu_2, # of connection points: 3
#     Node 39, Type 0, BuildingBlock: OLANEW_clean_sbu_2, # of connection points: 3
#     Node 40, Type 0, BuildingBlock: OLANEW_clean_sbu_2, # of connection points: 3
#     Node 41, Type 0, BuildingBlock: OLANEW_clean_sbu_2, # of connection points: 3
#     Node 42, Type 0, BuildingBlock: OLANEW_clean_sbu_2, # of connection points: 3
#     Node 43, Type 0, BuildingBlock: OLANEW_clean_sbu_2, # of connection points: 3
#     Node 44, Type 0, BuildingBlock: OLANEW_clean_sbu_2, # of connection points: 3
#     Node 45, Type 0, BuildingBlock: OLANEW_clean_sbu_2, # of connection points: 3
#     Node 46, Type 0, BuildingBlock: OLANEW_clean_sbu_2, # of connection points: 3
#     Node 47, Type 0, BuildingBlock: OLANEW_clean_sbu_2, # of connection points: 3
#     Edge 48, Type (0, 0), BuildingBlock: UVAHIK_clean_linker_0, # of connection points: 2
#     Edge 49, Type (0, 0), BuildingBlock: UVAHIK_clean_linker_0, # of connection points: 2
#     Edge 50, Type (0, 0), BuildingBlock: UVAHIK_clean_linker_0, # of connection points: 2
#     Edge 51, Type (0, 0), BuildingBlock: UVAHIK_clean_linker_0, # of connection points: 2
#     Edge 52, Type (0, 0), BuildingBlock: UVAHIK_clean_linker_0, # of connection points: 2
#     Edge 53, Type (0, 0), BuildingBlock: UVAHIK_clean_linker_0, # of connection points: 2
#     Edge 54, Type (0, 0), BuildingBlock: UVAHIK_clean_linker_0, # of connection points: 2
#     Edge 55, Type (0, 0), BuildingBlock: UVAHIK_clean_linker_0, # of connection points: 2
#     Edge 56, Type (0, 0), BuildingBlock: UVAHIK_clean_linker_0, # of connection points: 2
#     Edge 57, Type (0, 0), BuildingBlock: UVAHIK_clean_linker_0, # of connection points: 2
#     Edge 58, Type (0, 0), BuildingBlock: UVAHIK_clean_linker_0, # of connection points: 2
#     Edge 59, Type (0, 0), BuildingBlock: UVAHIK_clean_linker_0, # of connection points: 2
#     Edge 60, Type (0, 0), BuildingBlock: UVAHIK_clean_linker_0, # of connection points: 2
#     Edge 61, Type (0, 0), BuildingBlock: UVAHIK_clean_linker_0, # of connection points: 2
#     Edge 62, Type (0, 0), BuildingBlock: UVAHIK_clean_linker_0, # of connection points: 2
#     Edge 63, Type (0, 0), BuildingBlock: UVAHIK_clean_linker_0, # of connection points: 2
#     Edge 64, Type (0, 0), BuildingBlock: UVAHIK_clean_linker_0, # of connection points: 2
#     Edge 65, Type (0, 0), BuildingBlock: UVAHIK_clean_linker_0, # of connection points: 2
#     Edge 66, Type (0, 0), BuildingBlock: UVAHIK_clean_linker_0, # of connection points: 2
#     Edge 67, Type (0, 0), BuildingBlock: UVAHIK_clean_linker_0, # of connection points: 2
#     Edge 68, Type (0, 0), BuildingBlock: UVAHIK_clean_linker_0, # of connection points: 2
#     Edge 69, Type (0, 0), BuildingBlock: UVAHIK_clean_linker_0, # of connection points: 2
#     Edge 70, Type (0, 0), BuildingBlock: UVAHIK_clean_linker_0, # of connection points: 2
#     Edge 71, Type (0, 0), BuildingBlock: UVAHIK_clean_linker_0, # of connection points: 2
#     Edge 72, Type (0, 0), BuildingBlock: UVAHIK_clean_linker_0, # of connection points: 2
#     Edge 73, Type (0, 0), BuildingBlock: UVAHIK_clean_linker_0, # of connection points: 2
#     Edge 74, Type (0, 0), BuildingBlock: UVAHIK_clean_linker_0, # of connection points: 2
#     Edge 75, Type (0, 0), BuildingBlock: UVAHIK_clean_linker_0, # of connection points: 2
#     Edge 76, Type (0, 0), BuildingBlock: UVAHIK_clean_linker_0, # of connection points: 2
#     Edge 77, Type (0, 0), BuildingBlock: UVAHIK_clean_linker_0, # of connection points: 2
#     Edge 78, Type (0, 0), BuildingBlock: UVAHIK_clean_linker_0, # of connection points: 2
#     Edge 79, Type (0, 0), BuildingBlock: UVAHIK_clean_linker_0, # of connection points: 2
#     Edge 80, Type (0, 0), BuildingBlock: UVAHIK_clean_linker_0, # of connection points: 2
#     Edge 81, Type (0, 0), BuildingBlock: UVAHIK_clean_linker_0, # of connection points: 2
#     Edge 82, Type (0, 0), BuildingBlock: UVAHIK_clean_linker_0, # of connection points: 2
#     Edge 83, Type (0, 0), BuildingBlock: UVAHIK_clean_linker_0, # of connection points: 2
#     Edge 84, Type (0, 0), BuildingBlock: UVAHIK_clean_linker_0, # of connection points: 2
#     Edge 85, Type (0, 0), BuildingBlock: UVAHIK_clean_linker_0, # of connection points: 2
#     Edge 86, Type (0, 0), BuildingBlock: UVAHIK_clean_linker_0, # of connection points: 2
#     Edge 87, Type (0, 0), BuildingBlock: UVAHIK_clean_linker_0, # of connection points: 2
#     Edge 88, Type (0, 0), BuildingBlock: UVAHIK_clean_linker_0, # of connection points: 2
#     Edge 89, Type (0, 0), BuildingBlock: UVAHIK_clean_linker_0, # of connection points: 2
#     Edge 90, Type (0, 0), BuildingBlock: UVAHIK_clean_linker_0, # of connection points: 2
#     Edge 91, Type (0, 0), BuildingBlock: UVAHIK_clean_linker_0, # of connection points: 2
#     Edge 92, Type (0, 0), BuildingBlock: UVAHIK_clean_linker_0, # of connection points: 2
#     Edge 93, Type (0, 0), BuildingBlock: UVAHIK_clean_linker_0, # of connection points: 2
#     Edge 94, Type (0, 0), BuildingBlock: UVAHIK_clean_linker_0, # of connection points: 2
#     Edge 95, Type (0, 0), BuildingBlock: UVAHIK_clean_linker_0, # of connection points: 2
#     Edge 96, Type (0, 0), BuildingBlock: UVAHIK_clean_linker_0, # of connection points: 2
#     Edge 97, Type (0, 0), BuildingBlock: UVAHIK_clean_linker_0, # of connection points: 2
#     Edge 98, Type (0, 0), BuildingBlock: UVAHIK_clean_linker_0, # of connection points: 2
#     Edge 99, Type (0, 0), BuildingBlock: UVAHIK_clean_linker_0, # of connection points: 2
#     Edge 100, Type (0, 0), BuildingBlock: UVAHIK_clean_linker_0, # of connection points: 2
#     Edge 101, Type (0, 0), BuildingBlock: UVAHIK_clean_linker_0, # of connection points: 2
#     Edge 102, Type (0, 0), BuildingBlock: UVAHIK_clean_linker_0, # of connection points: 2
#     Edge 103, Type (0, 0), BuildingBlock: UVAHIK_clean_linker_0, # of connection points: 2
#     Edge 104, Type (0, 0), BuildingBlock: UVAHIK_clean_linker_0, # of connection points: 2
#     Edge 105, Type (0, 0), BuildingBlock: UVAHIK_clean_linker_0, # of connection points: 2
#     Edge 106, Type (0, 0), BuildingBlock: UVAHIK_clean_linker_0, # of connection points: 2
#     Edge 107, Type (0, 0), BuildingBlock: UVAHIK_clean_linker_0, # of connection points: 2
#     Edge 108, Type (0, 0), BuildingBlock: UVAHIK_clean_linker_0, # of connection points: 2
#     Edge 109, Type (0, 0), BuildingBlock: UVAHIK_clean_linker_0, # of connection points: 2
#     Edge 110, Type (0, 0), BuildingBlock: UVAHIK_clean_linker_0, # of connection points: 2
#     Edge 111, Type (0, 0), BuildingBlock: UVAHIK_clean_linker_0, # of connection points: 2
#     Edge 112, Type (0, 0), BuildingBlock: UVAHIK_clean_linker_0, # of connection points: 2
#     Edge 113, Type (0, 0), BuildingBlock: UVAHIK_clean_linker_0, # of connection points: 2
#     Edge 114, Type (0, 0), BuildingBlock: UVAHIK_clean_linker_0, # of connection points: 2
#     Edge 115, Type (0, 0), BuildingBlock: UVAHIK_clean_linker_0, # of connection points: 2
#     Edge 116, Type (0, 0), BuildingBlock: UVAHIK_clean_linker_0, # of connection points: 2
#     Edge 117, Type (0, 0), BuildingBlock: UVAHIK_clean_linker_0, # of connection points: 2
#     Edge 118, Type (0, 0), BuildingBlock: UVAHIK_clean_linker_0, # of connection points: 2
#     Edge 119, Type (0, 0), BuildingBlock: UVAHIK_clean_linker_0, # of connection points: 2
# Relax obj value: 0.055
# Max RMSD: 0.078
# Mean RMSD: 0.039
data_MOF--net-bva--node1-OLANEW_clean_sbu_2--edge1-UVAHIK_clean_linker_0
_symmetry_space_group_name_H-M    P1
_symmetry_Int_Tables_number       1
_symmetry_cell_setting            triclinic
loop_
_symmetry_equiv_pos_as_xyz
'x, y, z'
_cell_length_a     77.330198
_cell_length_b     78.51489
_cell_length_c     78.376669
_cell_angle_alpha  104.1743
_cell_angle_beta   89.991997
_cell_angle_gamma 89.999691
loop_
_atom_site_label
_atom_site_type_symbol
_atom_site_fract_x
_atom_site_fract_y
_atom_site_fract_z
_atom_type_partial_charge
O0 O 0.22599 0.22423 0.49291 0.0
Cd1 Cd 0.23285 0.19299 0.48216 0.0
O2 O 0.20558 0.22021 0.51106 0.0
Cd3 Cd 0.20445 0.19229 0.49799 0.0
O4 O 0.19464 0.1726 0.47536 0.0
C5 C 0.17902 0.16761 0.47555 0.0
O6 O 0.16982 0.17336 0.4899 0.0
C7 C 0.21511 0.23054 0.50498 0.0
C8 C 0.26747 0.18881 0.47191 0.0
O9 O 0.25552 0.18945 0.46074 0.0
O10 O 0.26301 0.18992 0.48789 0.0
O11 O 0.27221 0.47313 0.75043 0.0
Cd12 Cd 0.30265 0.47048 0.75769 0.0
O13 O 0.27541 0.49622 0.73947 0.0
Cd14 Cd 0.30269 0.50097 0.74609 0.0
O15 O 0.32372 0.5201 0.75204 0.0
C16 C 0.3199 0.53504 0.74953 0.0
O17 O 0.30438 0.53734 0.74363 0.0
C18 C 0.26581 0.48441 0.74304 0.0
C19 C 0.30615 0.44273 0.7739 0.0
O20 O 0.30649 0.44007 0.7571 0.0
O21 O 0.30452 0.45858 0.78307 0.0
O22 O 0.76993 0.96252 0.56438 0.0
Cd23 Cd 0.77177 0.99241 0.56068 0.0
O24 O 0.74631 0.95804 0.54848 0.0
Cd25 Cd 0.72604 0.94225 0.53248 0.0
O26 O 0.70424 0.92692 0.51904 0.0
C27 C 0.69402 0.91962 0.52779 0.0
O28 O 0.69697 0.92137 0.54464 0.0
C29 C 0.75811 0.95215 0.55681 0.0
C30 C 0.80014 0.99296 0.53885 0.0
O31 O 0.80166 0.99779 0.55563 0.0
O32 O 0.78509 0.98853 0.53243 0.0
O33 O 0.60894 0.47776 0.79727 0.0
Cd34 Cd 0.57783 0.48337 0.79834 0.0
O35 O 0.60936 0.46608 0.76876 0.0
Cd36 Cd 0.58153 0.46122 0.7681 0.0
O37 O 0.56024 0.4429 0.76811 0.0
C38 C 0.56075 0.42848 0.75641 0.0
O39 O 0.5732 0.42604 0.74465 0.0
C40 C 0.61741 0.47189 0.78315 0.0
C41 C 0.57338 0.5197 0.80933 0.0
O42 O 0.57317 0.51012 0.82043 0.0
O43 O 0.57514 0.51203 0.793 0.0
O44 O 0.22319 0.77964 0.49162 0.0
Cd45 Cd 0.23118 0.81026 0.50442 0.0
O46 O 0.19542 0.7853 0.49033 0.0
Cd47 Cd 0.19751 0.81234 0.50599 0.0
O48 O 0.18989 0.83183 0.52977 0.0
C49 C 0.17463 0.838 0.53058 0.0
O50 O 0.16465 0.83347 0.51664 0.0
C51 C 0.2079 0.77443 0.48715 0.0
C52 C 0.26488 0.8125 0.51752 0.0
O53 O 0.25189 0.81157 0.52743 0.0
O54 O 0.26191 0.81253 0.50144 0.0
O55 O 0.58288 0.5175 0.17188 0.0
Cd56 Cd 0.5524 0.51058 0.16558 0.0
O57 O 0.58008 0.51692 0.19963 0.0
Cd58 Cd 0.55251 0.52256 0.19876 0.0
O59 O 0.53478 0.54462 0.20065 0.0
C60 C 0.5422 0.55851 0.19878 0.0
O61 O 0.55889 0.55798 0.19556 0.0
C62 C 0.58972 0.51735 0.1866 0.0
C63 C 0.55059 0.47398 0.15594 0.0
O64 O 0.55346 0.48283 0.14449 0.0
O65 O 0.54782 0.48248 0.17187 0.0
O66 O 0.77284 0.05432 0.42896 0.0
Cd67 Cd 0.77887 0.02322 0.42585 0.0
O68 O 0.74977 0.05335 0.44497 0.0
Cd69 Cd 0.72864 0.06497 0.46266 0.0
O70 O 0.70635 0.07859 0.47688 0.0
C71 C 0.69203 0.07055 0.4764 0.0
O72 O 0.69107 0.05402 0.4676 0.0
C73 C 0.76024 0.06216 0.43799 0.0
C74 C 0.80724 0.021 0.44715 0.0
O75 O 0.80927 0.02184 0.43114 0.0
O76 O 0.79177 0.02069 0.45292 0.0
O77 O 0.27325 0.5273 0.24602 0.0
Cd78 Cd 0.30354 0.53138 0.2391 0.0
O79 O 0.27787 0.5059 0.2591 0.0
Cd80 Cd 0.30527 0.50212 0.25256 0.0
O81 O 0.32631 0.48299 0.24678 0.0
C82 C 0.32253 0.46825 0.24982 0.0
O83 O 0.30711 0.46624 0.25611 0.0
C84 C 0.26756 0.51652 0.25442 0.0
C85 C 0.30597 0.56078 0.22516 0.0
O86 O 0.30472 0.54529 0.21506 0.0
O87 O 0.30647 0.56231 0.24181 0.0
O88 O 0.46746 0.28271 0.22765 0.0
Cd89 Cd 0.45141 0.28441 0.20126 0.0
O90 O 0.47532 0.25522 0.21712 0.0
Cd91 Cd 0.45892 0.25079 0.19379 0.0
O92 O 0.43873 0.2342 0.17875 0.0
C93 C 0.4425 0.21814 0.17241 0.0
O94 O 0.45842 0.21291 0.17409 0.0
C95 C 0.47577 0.26925 0.22934 0.0
C96 C 0.43139 0.31488 0.20798 0.0
O97 O 0.42539 0.30051 0.21057 0.0
O98 O 0.44682 0.3148 0.202 0.0
O99 O 0.50319 0.79133 0.61242 0.0
Cd100 Cd 0.49742 0.80863 0.59105 0.0
O101 O 0.48348 0.77107 0.60268 0.0
Cd102 Cd 0.47222 0.78421 0.58377 0.0
O103 O 0.44943 0.7932 0.57199 0.0
C104 C 0.43685 0.79822 0.58245 0.0
O105 O 0.43883 0.79837 0.59915 0.0
C106 C 0.49573 0.77713 0.61325 0.0
C107 C 0.52316 0.83414 0.59455 0.0
O108 O 0.5091 0.83726 0.60343 0.0
O109 O 0.52484 0.81911 0.58368 0.0
O110 O 0.43016 0.81429 0.22325 0.0
Cd111 Cd 0.42273 0.81371 0.19279 0.0
O112 O 0.44052 0.78761 0.21486 0.0
Cd113 Cd 0.45422 0.76374 0.21688 0.0
O114 O 0.4666 0.73862 0.21649 0.0
C115 C 0.45765 0.72578 0.21879 0.0
O116 O 0.44096 0.72795 0.22168 0.0
C117 C 0.43742 0.80121 0.22714 0.0
C118 C 0.44325 0.83749 0.1806 0.0
O119 O 0.42877 0.84221 0.18826 0.0
O120 O 0.44793 0.82144 0.1785 0.0
O121 O 0.49903 0.18839 0.58527 0.0
Cd122 Cd 0.50787 0.1855 0.55475 0.0
O123 O 0.48227 0.16537 0.57663 0.0
Cd124 Cd 0.46192 0.14726 0.5804 0.0
O125 O 0.44024 0.13064 0.58397 0.0
C126 C 0.42774 0.13734 0.59389 0.0
O127 O 0.4283 0.15412 0.60191 0.0
C128 C 0.48821 0.17765 0.58896 0.0
C129 C 0.53808 0.16596 0.5456 0.0
O130 O 0.53866 0.18263 0.55192 0.0
O131 O 0.52321 0.15852 0.54379 0.0
O132 O 0.46778 0.71844 0.77236 0.0
Cd133 Cd 0.45207 0.71648 0.79889 0.0
O134 O 0.48659 0.73798 0.7862 0.0
Cd135 Cd 0.47156 0.74287 0.81047 0.0
O136 O 0.45114 0.75924 0.82528 0.0
C137 C 0.43856 0.76241 0.81609 0.0
O138 O 0.43836 0.75485 0.79916 0.0
C139 C 0.48115 0.72778 0.77202 0.0
C140 C 0.43137 0.6865 0.792 0.0
O141 O 0.42559 0.70114 0.78988 0.0
O142 O 0.4469 0.68608 0.79758 0.0
O143 O 0.50268 0.80653 0.40971 0.0
Cd144 Cd 0.51075 0.80796 0.4402 0.0
O145 O 0.48424 0.82799 0.41909 0.0
Cd146 Cd 0.46266 0.84495 0.41577 0.0
O147 O 0.43988 0.8602 0.41228 0.0
C148 C 0.42758 0.85266 0.40255 0.0
O149 O 0.42902 0.83589 0.39471 0.0
C150 C 0.49117 0.81682 0.4064 0.0
C151 C 0.54108 0.82673 0.45114 0.0
O152 O 0.54151 0.81021 0.44396 0.0
O153 O 0.52633 0.83441 0.4529 0.0
O154 O 0.43403 0.19039 0.7767 0.0
Cd155 Cd 0.43013 0.19326 0.80824 0.0
O156 O 0.44451 0.21708 0.78208 0.0
Cd157 Cd 0.45753 0.23977 0.77615 0.0
O158 O 0.46962 0.2629 0.77036 0.0
C159 C 0.46643 0.2781 0.78003 0.0
O160 O 0.45583 0.2796 0.79342 0.0
C161 C 0.44049 0.20284 0.77104 0.0
C162 C 0.44859 0.16693 0.81858 0.0
O163 O 0.43267 0.16474 0.81401 0.0
O164 O 0.45567 0.18168 0.81852 0.0
O165 O 0.49893 0.20784 0.38725 0.0
Cd166 Cd 0.49452 0.19107 0.40935 0.0
O167 O 0.48949 0.23298 0.40361 0.0
Cd168 Cd 0.47842 0.22029 0.42296 0.0
O169 O 0.45539 0.21021 0.43333 0.0
C170 C 0.44443 0.20273 0.42184 0.0
O171 O 0.44818 0.20084 0.40512 0.0
C172 C 0.49638 0.22423 0.38943 0.0
C173 C 0.52253 0.16835 0.40764 0.0
O174 O 0.50881 0.16345 0.39861 0.0
O175 O 0.52281 0.18384 0.41784 0.0
O176 O 0.07643 0.49361 0.25313 0.0
Cd177 Cd 0.04663 0.48344 0.24799 0.0
O178 O 0.07666 0.48559 0.27802 0.0
Cd179 Cd 0.08791 0.48273 0.30282 0.0
O180 O 0.09878 0.47995 0.32773 0.0
C181 C 0.0892 0.47468 0.33859 0.0
O182 O 0.07292 0.47098 0.3345 0.0
C183 C 0.08458 0.49181 0.26665 0.0
C184 C 0.04617 0.45426 0.21933 0.0
O185 O 0.04374 0.46978 0.21724 0.0
O186 O 0.04842 0.45254 0.23502 0.0
O187 O 0.0749 0.50823 0.74338 0.0
Cd188 Cd 0.0456 0.51991 0.74843 0.0
O189 O 0.07676 0.51855 0.71987 0.0
Cd190 Cd 0.08926 0.52281 0.69617 0.0
O191 O 0.10099 0.52666 0.67202 0.0
C192 C 0.09137 0.53005 0.66013 0.0
O193 O 0.07458 0.53121 0.66273 0.0
C194 C 0.08374 0.51073 0.73054 0.0
C195 C 0.04584 0.54854 0.77764 0.0
O196 O 0.0426 0.53301 0.77928 0.0
O197 O 0.04862 0.55056 0.76213 0.0
O198 O 0.79558 0.75928 0.50991 0.0
Cd199 Cd 0.8039 0.72838 0.5003 0.0
O200 O 0.76752 0.75466 0.50838 0.0
Cd201 Cd 0.77179 0.72721 0.49487 0.0
O202 O 0.77897 0.70452 0.47382 0.0
C203 C 0.78757 0.70773 0.46114 0.0
O204 O 0.79176 0.72408 0.46171 0.0
C205 C 0.78022 0.76516 0.51239 0.0
C206 C 0.82295 0.71996 0.52727 0.0
O207 O 0.80647 0.71816 0.52656 0.0
O208 O 0.83045 0.72528 0.51493 0.0
O209 O 0.80755 0.45317 0.8115 0.0
Cd210 Cd 0.83675 0.44323 0.81591 0.0
O211 O 0.80907 0.43764 0.78428 0.0
Cd212 Cd 0.80031 0.42453 0.75775 0.0
O213 O 0.79582 0.41122 0.73021 0.0
C214 C 0.78291 0.41475 0.72164 0.0
O215 O 0.77173 0.42666 0.72962 0.0
C216 C 0.80044 0.44768 0.79655 0.0
C217 C 0.83518 0.41529 0.83204 0.0
O218 O 0.8368 0.43115 0.84119 0.0
O219 O 0.83452 0.41264 0.81525 0.0
O220 O 0.17907 0.42388 0.53473 0.0
Cd221 Cd 0.16931 0.45402 0.5374 0.0
O222 O 0.15765 0.41998 0.55162 0.0
Cd223 Cd 0.13993 0.40603 0.5653 0.0
O224 O 0.12324 0.39496 0.58234 0.0
C225 C 0.12999 0.3885 0.59414 0.0
O226 O 0.14691 0.38832 0.59555 0.0
C227 C 0.17087 0.41389 0.54244 0.0
C228 C 0.15627 0.45823 0.50548 0.0
O229 O 0.17228 0.46099 0.50942 0.0
O230 O 0.14641 0.45357 0.51669 0.0
O231 O 0.77559 0.56675 0.21837 0.0
Cd232 Cd 0.80198 0.58344 0.22796 0.0
O233 O 0.77177 0.55816 0.2428 0.0
Cd234 Cd 0.79347 0.57279 0.25706 0.0
O235 O 0.8032 0.58875 0.28202 0.0
C236 C 0.80068 0.5827 0.29545 0.0
O237 O 0.79361 0.56709 0.29324 0.0
C238 C 0.76694 0.55824 0.22733 0.0
C239 C 0.80676 0.6076 0.20752 0.0
O240 O 0.81316 0.59209 0.20283 0.0
O241 O 0.79838 0.61178 0.22206 0.0
O242 O 0.77231 0.25882 0.49383 0.0
Cd243 Cd 0.77709 0.29052 0.50203 0.0
O244 O 0.7444 0.25941 0.49931 0.0
Cd245 Cd 0.74581 0.28706 0.51335 0.0
O246 O 0.74945 0.30945 0.53591 0.0
C247 C 0.76276 0.30923 0.54536 0.0
O248 O 0.77375 0.29614 0.54066 0.0
C249 C 0.75796 0.25082 0.49339 0.0
C250 C 0.79897 0.29807 0.47656 0.0
O251 O 0.80507 0.29499 0.49071 0.0
O252 O 0.7825 0.2982 0.47477 0.0
O253 O 0.18123 0.5827 0.46343 0.0
Cd254 Cd 0.1754 0.55208 0.46334 0.0
O255 O 0.15942 0.58201 0.44545 0.0
Cd256 Cd 0.14252 0.59222 0.42786 0.0
O257 O 0.12545 0.60184 0.41009 0.0
C258 C 0.13178 0.60935 0.39886 0.0
O259 O 0.14863 0.6113 0.39825 0.0
C260 C 0.17171 0.59049 0.4545 0.0
C261 C 0.16211 0.54887 0.49551 0.0
O262 O 0.17844 0.54819 0.49258 0.0
O263 O 0.15208 0.55106 0.4832 0.0
O264 O 0.04998 0.87285 0.72841 0.0
Cd265 Cd 0.06459 0.89934 0.72469 0.0
O266 O 0.02868 0.87888 0.71248 0.0
Cd267 Cd 0.00261 0.87673 0.70133 0.0
O268 O 0.97725 0.88286 0.69213 0.0
C269 C 0.97386 0.89903 0.69382 0.0
O270 O 0.98559 0.91077 0.70084 0.0
C271 C 0.03523 0.86896 0.7214 0.0
C272 C 0.08439 0.89335 0.69405 0.0
O273 O 0.09102 0.89197 0.70864 0.0
O274 O 0.06837 0.8975 0.69395 0.0
O275 O 0.63452 0.25831 0.08801 0.0
Cd276 Cd 0.61093 0.25812 0.10876 0.0
O277 O 0.62631 0.23431 0.06874 0.0
Cd278 Cd 0.60708 0.2267 0.0859 0.0
O279 O 0.59756 0.2062 0.098 0.0
C280 C 0.60211 0.19072 0.09011 0.0
O281 O 0.61132 0.18851 0.07563 0.0
C282 C 0.63644 0.24739 0.0732 0.0
C283 C 0.59677 0.29181 0.11908 0.0
O284 O 0.60986 0.2874 0.12707 0.0
O285 O 0.59011 0.28016 0.1064 0.0
O286 O 0.99484 0.09129 0.60701 0.0
Cd287 Cd 0.99417 0.06297 0.58543 0.0
O288 O 0.97322 0.08597 0.6232 0.0
Cd289 Cd 0.96557 0.06225 0.60369 0.0
O290 O 0.94838 0.04749 0.58326 0.0
C291 C 0.95008 0.04903 0.56759 0.0
O292 O 0.9629 0.05854 0.56392 0.0
C293 C 0.98537 0.09596 0.62061 0.0
C294 C 0.02692 0.04782 0.58428 0.0
O295 O 0.0232 0.05829 0.57459 0.0
O296 O 0.01501 0.04416 0.59419 0.0
O297 O 0.25253 0.72672 0.11127 0.0
Cd298 Cd 0.27659 0.73496 0.13194 0.0
O299 O 0.26926 0.72493 0.0882 0.0
Cd300 Cd 0.29064 0.73821 0.10427 0.0
O301 O 0.30371 0.76263 0.11717 0.0
C302 C 0.31227 0.77059 0.10764 0.0
O303 O 0.31395 0.76315 0.09078 0.0
C304 C 0.25451 0.72295 0.09465 0.0
C305 C 0.28432 0.70808 0.14832 0.0
O306 O 0.29078 0.70818 0.13328 0.0
O307 O 0.27428 0.72075 0.15566 0.0
O308 O 0.04365 0.1289 0.28308 0.0
Cd309 Cd 0.05967 0.10331 0.28716 0.0
O310 O 0.0228 0.12162 0.29879 0.0
Cd311 Cd 0.99659 0.12227 0.30942 0.0
O312 O 0.9713 0.11516 0.31798 0.0
C313 C 0.96809 0.09885 0.31539 0.0
O314 O 0.97994 0.08749 0.30785 0.0
C315 C 0.0287 0.13186 0.28988 0.0
C316 C 0.0805 0.11063 0.31712 0.0
O317 O 0.08647 0.11175 0.30217 0.0
O318 O 0.06463 0.10617 0.31791 0.0
O319 O 0.25807 0.27873 0.89286 0.0
Cd320 Cd 0.2823 0.27143 0.87225 0.0
O321 O 0.27395 0.27595 0.9153 0.0
Cd322 Cd 0.29476 0.26258 0.8984 0.0
O323 O 0.30694 0.23797 0.88453 0.0
C324 C 0.29829 0.22772 0.87248 0.0
O325 O 0.28311 0.23293 0.86816 0.0
C326 C 0.2597 0.2801 0.9093 0.0
C327 C 0.28929 0.2987 0.85616 0.0
O328 O 0.27955 0.28582 0.8487 0.0
O329 O 0.29579 0.29865 0.87119 0.0
O330 O 0.99307 0.91018 0.39287 0.0
Cd331 Cd 0.99265 0.93929 0.41316 0.0
O332 O 0.97485 0.91666 0.37385 0.0
Cd333 Cd 0.96749 0.94127 0.39213 0.0
O334 O 0.95054 0.95632 0.41258 0.0
C335 C 0.94799 0.95 0.42583 0.0
O336 O 0.95636 0.9357 0.4268 0.0
C337 C 0.98516 0.90585 0.37821 0.0
C338 C 0.02508 0.95471 0.41251 0.0
O339 O 0.01286 0.95733 0.4024 0.0
O340 O 0.02183 0.94511 0.42321 0.0
O341 O 0.637 0.73742 0.91292 0.0
Cd342 Cd 0.61138 0.73848 0.89488 0.0
O343 O 0.6306 0.76212 0.93213 0.0
Cd344 Cd 0.61008 0.76999 0.91651 0.0
O345 O 0.59839 0.78989 0.9049 0.0
C346 C 0.60134 0.80571 0.91309 0.0
O347 O 0.61035 0.80868 0.92774 0.0
C348 C 0.6402 0.74865 0.92726 0.0
C349 C 0.6003 0.70447 0.87882 0.0
O350 O 0.61043 0.71284 0.8708 0.0
O351 O 0.59525 0.71225 0.89435 0.0
O352 O 0.60556 0.97771 0.80138 0.0
Cd353 Cd 0.58051 0.98087 0.82099 0.0
O354 O 0.61869 0.00147 0.81654 0.0
Cd355 Cd 0.5962 0.01005 0.83326 0.0
O356 O 0.57306 0.02631 0.83955 0.0
C357 C 0.56373 0.02717 0.82644 0.0
O358 O 0.56811 0.0177 0.81078 0.0
C359 C 0.61859 0.9879 0.80375 0.0
C360 C 0.57885 0.95286 0.83705 0.0
O361 O 0.57151 0.95196 0.82219 0.0
O362 O 0.58682 0.96708 0.84439 0.0
O363 O 0.75332 0.01625 0.34096 0.0
Cd364 Cd 0.77292 0.01851 0.36586 0.0
O365 O 0.73627 0.03503 0.35837 0.0
Cd366 Cd 0.71415 0.05282 0.36563 0.0
O367 O 0.69103 0.06888 0.37337 0.0
C368 C 0.6763 0.063 0.36753 0.0
O369 O 0.67528 0.0473 0.3568 0.0
C370 C 0.73943 0.02517 0.3432 0.0
C371 C 0.80481 0.03237 0.35959 0.0
O372 O 0.80209 0.01576 0.35536 0.0
O373 O 0.79245 0.04243 0.36687 0.0
O374 O 0.30987 0.95327 0.83702 0.0
Cd375 Cd 0.31721 0.94883 0.86596 0.0
O376 O 0.31983 0.98016 0.84524 0.0
Cd377 Cd 0.32428 0.00705 0.84292 0.0
O378 O 0.32738 0.03473 0.84307 0.0
C379 C 0.31779 0.04177 0.83354 0.0
O380 O 0.30621 0.03206 0.82331 0.0
C381 C 0.313 0.96792 0.83346 0.0
C382 C 0.33523 0.91748 0.86304 0.0
O383 O 0.31871 0.91797 0.8644 0.0
O384 O 0.34319 0.93183 0.86316 0.0
O385 O 0.25568 0.97743 0.341 0.0
Cd386 Cd 0.24785 0.96844 0.36773 0.0
O387 O 0.25109 0.0056 0.3522 0.0
Cd388 Cd 0.23679 0.00049 0.37446 0.0
O389 O 0.21203 0.99646 0.38634 0.0
C390 C 0.19912 0.00354 0.38075 0.0
O391 O 0.20179 0.01285 0.36916 0.0
C392 C 0.25643 0.99322 0.33962 0.0
C393 C 0.27513 0.94906 0.37679 0.0
O394 O 0.26287 0.94151 0.36674 0.0
O395 O 0.27431 0.96576 0.38285 0.0
O396 O 0.60286 0.01827 0.20497 0.0
Cd397 Cd 0.57949 0.01549 0.18352 0.0
O398 O 0.61903 0.99786 0.18811 0.0
Cd399 Cd 0.5977 0.9878 0.17011 0.0
O400 O 0.57734 0.96847 0.16044 0.0
C401 C 0.56165 0.97175 0.16491 0.0
O402 O 0.55757 0.98742 0.17451 0.0
C403 C 0.61705 0.00987 0.20216 0.0
C404 C 0.58035 0.04321 0.16704 0.0
O405 O 0.57181 0.04445 0.18131 0.0
O406 O 0.58836 0.02879 0.16049 0.0
O407 O 0.26532 0.0054 0.65938 0.0
Cd408 Cd 0.25584 0.01354 0.63271 0.0
O409 O 0.24463 0.98615 0.65939 0.0
Cd410 Cd 0.23017 0.99132 0.63726 0.0
O411 O 0.20556 0.99377 0.62439 0.0
C412 C 0.20254 0.00475 0.61524 0.0
O413 O 0.21503 0.01511 0.61251 0.0
C414 C 0.25827 0.994 0.66619 0.0
C415 C 0.2817 0.03373 0.62236 0.0
O416 O 0.26955 0.04094 0.63277 0.0
O417 O 0.28142 0.01698 0.61654 0.0
O418 O 0.29108 0.04572 0.17089 0.0
Cd419 Cd 0.29477 0.05212 0.1421 0.0
O420 O 0.30268 0.01982 0.16035 0.0
Cd421 Cd 0.31251 0.99388 0.1613 0.0
O422 O 0.31783 0.96644 0.16088 0.0
C423 C 0.32536 0.95665 0.14765 0.0
O424 O 0.3302 0.96342 0.13466 0.0
C425 C 0.29571 0.03088 0.17312 0.0
C426 C 0.31722 0.08016 0.14323 0.0
O427 O 0.30095 0.08272 0.1458 0.0
O428 O 0.32284 0.06434 0.14017 0.0
O429 O 0.75742 0.97622 0.66616 0.0
Cd430 Cd 0.77693 0.97377 0.64116 0.0
O431 O 0.73825 0.96135 0.64792 0.0
Cd432 Cd 0.71295 0.94972 0.63971 0.0
O433 O 0.68854 0.93636 0.6313 0.0
C434 C 0.67462 0.94143 0.63961 0.0
O435 O 0.67507 0.95494 0.65336 0.0
C436 C 0.74255 0.96919 0.66354 0.0
C437 C 0.80911 0.96072 0.6477 0.0
O438 O 0.80612 0.97728 0.65154 0.0
O439 O 0.79688 0.95033 0.64069 0.0
O440 O 0.78926 0.74444 0.04936 0.0
Cd441 Cd 0.8149 0.74572 0.06789 0.0
O442 O 0.80596 0.73572 0.02635 0.0
Cd443 Cd 0.81331 0.72936 0.99854 0.0
O444 O 0.82671 0.72332 0.97324 0.0
C445 C 0.81938 0.72399 0.95891 0.0
O446 O 0.80296 0.72834 0.95909 0.0
C447 C 0.79097 0.73981 0.03274 0.0
C448 C 0.81309 0.72336 0.09054 0.0
O449 O 0.8073 0.73912 0.0952 0.0
O450 O 0.81961 0.71814 0.07509 0.0
O451 O 0.78628 0.24635 0.95002 0.0
Cd452 Cd 0.81276 0.24491 0.9327 0.0
O453 O 0.80239 0.25482 0.97349 0.0
Cd454 Cd 0.80911 0.26129 0.00147 0.0
O455 O 0.82196 0.26743 0.02707 0.0
C456 C 0.8142 0.26715 0.04129 0.0
O457 O 0.79767 0.26315 0.04078 0.0
C458 C 0.78752 0.25103 0.96668 0.0
C459 C 0.81577 0.27273 0.91658 0.0
O460 O 0.80879 0.25817 0.90851 0.0
O461 O 0.82123 0.27415 0.93231 0.0
O462 O 0.99805 0.28339 0.72704 0.0
Cd463 Cd 0.00315 0.31433 0.74115 0.0
O464 O 0.02074 0.27478 0.73963 0.0
Cd465 Cd 0.0262 0.30037 0.7572 0.0
O466 O 0.03374 0.31743 0.78246 0.0
C467 C 0.02261 0.32105 0.79475 0.0
O468 O 0.00664 0.31552 0.79137 0.0
C469 C 0.00809 0.27119 0.72901 0.0
C470 C 0.02359 0.32883 0.719 0.0
O471 O 0.03045 0.32202 0.73066 0.0
O472 O 0.00705 0.3291 0.71806 0.0
O473 O 0.10365 0.71808 0.97387 0.0
Cd474 Cd 0.07655 0.72052 0.95864 0.0
O475 O 0.09051 0.70047 0.98744 0.0
Cd476 Cd 0.0878 0.68623 0.00802 0.0
O477 O 0.08318 0.67632 0.03131 0.0
C478 C 0.09562 0.67361 0.04091 0.0
O479 O 0.11153 0.6764 0.0364 0.0
C480 C 0.1041 0.70866 0.98493 0.0
C481 C 0.07116 0.69249 0.92954 0.0
O482 O 0.0788 0.70651 0.92796 0.0
O483 O 0.06615 0.69171 0.94493 0.0
O484 O 0.9566 0.71013 0.76562 0.0
Cd485 Cd 0.94374 0.6836 0.77126 0.0
O486 O 0.939 0.70708 0.74329 0.0
Cd487 Cd 0.92547 0.7129 0.72087 0.0
O488 O 0.91093 0.71377 0.69724 0.0
C489 C 0.91872 0.71522 0.68339 0.0
O490 O 0.93566 0.71662 0.68361 0.0
C491 C 0.95113 0.71558 0.75262 0.0
C492 C 0.92291 0.69062 0.80124 0.0
O493 O 0.93908 0.68735 0.80216 0.0
O494 O 0.9166 0.69065 0.78612 0.0
O495 O 0.10739 0.28167 0.02769 0.0
Cd496 Cd 0.08006 0.27895 0.04243 0.0
O497 O 0.09493 0.30073 0.01544 0.0
Cd498 Cd 0.09273 0.31642 0.99601 0.0
O499 O 0.08775 0.32705 0.97324 0.0
C500 C 0.0722 0.32995 0.96953 0.0
O501 O 0.05975 0.32702 0.97987 0.0
C502 C 0.10824 0.29189 0.01741 0.0
C503 C 0.07359 0.30744 0.0708 0.0
O504 O 0.0814 0.29372 0.07297 0.0
O505 O 0.06893 0.3077 0.05517 0.0
O506 O 0.99414 0.71706 0.27371 0.0
Cd507 Cd 0.99858 0.6862 0.25879 0.0
O508 O 0.01722 0.72535 0.26143 0.0
Cd509 Cd 0.02208 0.7 0.24319 0.0
O510 O 0.03013 0.68349 0.21785 0.0
C511 C 0.046 0.67952 0.21512 0.0
O512 O 0.05702 0.68435 0.22816 0.0
C513 C 0.0046 0.72907 0.27209 0.0
C514 C 0.0202 0.67084 0.2793 0.0
O515 O 0.02642 0.678 0.26759 0.0
O516 O 0.00373 0.67066 0.28108 0.0
O517 O 0.94486 0.2846 0.24007 0.0
Cd518 Cd 0.93235 0.31071 0.23313 0.0
O519 O 0.92772 0.28914 0.26288 0.0
Cd520 Cd 0.91425 0.2852 0.28619 0.0
O521 O 0.89899 0.28674 0.30996 0.0
C522 C 0.90631 0.28834 0.32479 0.0
O523 O 0.92329 0.28861 0.3256 0.0
C524 C 0.93954 0.28001 0.25363 0.0
C525 C 0.91272 0.30285 0.20232 0.0
O526 O 0.92894 0.30612 0.20196 0.0
O527 O 0.9058 0.3032 0.21727 0.0
C528 C 0.10935 0.11776 0.3317 0.0
C529 C 0.09161 0.11436 0.33299 0.0
C530 C 0.11982 0.1214 0.34669 0.0
C531 C 0.12151 0.11783 0.39309 0.0
H532 H 0.1554 0.15512 0.39804 0.0
C533 C 0.15319 0.15255 0.45929 0.0
C534 C 0.17064 0.15754 0.45918 0.0
C535 C 0.14462 0.145 0.44355 0.0
C536 C 0.1462 0.14448 0.39675 0.0
H537 H 0.07098 0.11204 0.35103 0.0
H538 H 0.08915 0.11874 0.37722 0.0
H539 H 0.13826 0.1467 0.37126 0.0
H540 H 0.19301 0.1577 0.4425 0.0
H541 H 0.17804 0.14447 0.41505 0.0
H542 H 0.12922 0.11598 0.41884 0.0
C543 C 0.09506 0.11828 0.36459 0.0
C544 C 0.13635 0.13964 0.38138 0.0
C545 C 0.0846 0.11456 0.34958 0.0
C546 C 0.17954 0.15409 0.44305 0.0
C547 C 0.17095 0.14661 0.42731 0.0
C548 C 0.13132 0.12273 0.40851 0.0
C549 C 0.11279 0.12181 0.36334 0.0
C550 C 0.12378 0.12636 0.37941 0.0
C551 C 0.1533 0.14233 0.42735 0.0
C552 C 0.14368 0.13621 0.41056 0.0
H553 H 0.11518 0.11759 0.31909 0.0
H554 H 0.13346 0.1238 0.34521 0.0
H555 H 0.11216 0.10734 0.39189 0.0
H556 H 0.14596 0.15498 0.47148 0.0
H557 H 0.13099 0.14196 0.44403 0.0
C558 C 0.28856 0.31172 0.83 0.0
C559 C 0.29278 0.31331 0.84776 0.0
C560 C 0.2916 0.32562 0.82214 0.0
C561 C 0.29552 0.37332 0.83238 0.0
H562 H 0.31746 0.36552 0.78663 0.0
C563 C 0.30943 0.43088 0.80065 0.0
C564 C 0.30691 0.42787 0.78241 0.0
C565 C 0.30924 0.4169 0.8088 0.0
C566 C 0.31111 0.36792 0.79931 0.0
H567 H 0.30352 0.33071 0.87121 0.0
H568 H 0.30856 0.3551 0.85753 0.0
H569 H 0.31389 0.34104 0.8004 0.0
H570 H 0.30233 0.40782 0.75837 0.0
H571 H 0.30143 0.38355 0.77257 0.0
H572 H 0.29212 0.39999 0.83114 0.0
C573 C 0.30296 0.34306 0.8497 0.0
C574 C 0.30915 0.35389 0.80721 0.0
C575 C 0.30014 0.32907 0.8575 0.0
C576 C 0.30443 0.41057 0.77245 0.0
C577 C 0.30401 0.39662 0.78061 0.0
C578 C 0.29727 0.38731 0.82439 0.0
C579 C 0.2987 0.34147 0.83196 0.0
C580 C 0.30128 0.35644 0.82379 0.0
C581 C 0.30629 0.39959 0.79892 0.0
C582 C 0.30503 0.3848 0.80771 0.0
H583 H 0.2829 0.29973 0.82214 0.0
H584 H 0.28807 0.3241 0.80848 0.0
H585 H 0.28921 0.37561 0.84508 0.0
H586 H 0.3115 0.44406 0.80868 0.0
H587 H 0.3114 0.4197 0.82286 0.0
C588 C 0.92398 0.97137 0.43691 0.0
C589 C 0.93451 0.95741 0.43896 0.0
C590 C 0.91018 0.97715 0.4484 0.0
C591 C 0.89209 0.97565 0.49173 0.0
H592 H 0.84841 0.98294 0.47032 0.0
C593 C 0.83146 0.99851 0.534 0.0
C594 C 0.81546 0.99144 0.52728 0.0
C595 C 0.84623 0.99578 0.52339 0.0
C596 C 0.86043 0.98077 0.47654 0.0
H597 H 0.93921 0.93905 0.45513 0.0
H598 H 0.91512 0.94904 0.47504 0.0
H599 H 0.87404 0.97567 0.45205 0.0
H600 H 0.80234 0.9762 0.50409 0.0
H601 H 0.82806 0.97099 0.48577 0.0
H602 H 0.87846 0.98018 0.51613 0.0
C603 C 0.91757 0.9556 0.46463 0.0
C604 C 0.8752 0.97685 0.46606 0.0
C605 C 0.93134 0.94981 0.45314 0.0
C606 C 0.81446 0.98191 0.50964 0.0
C607 C 0.82925 0.97898 0.4991 0.0
C608 C 0.87731 0.97953 0.50222 0.0
C609 C 0.90665 0.96912 0.46221 0.0
C610 C 0.89118 0.97416 0.47353 0.0
C611 C 0.84538 0.98574 0.50586 0.0
C612 C 0.86124 0.98207 0.49476 0.0
H613 H 0.92612 0.97757 0.42617 0.0
H614 H 0.90214 0.98778 0.44637 0.0
H615 H 0.90424 0.97379 0.49789 0.0
H616 H 0.83262 0.00603 0.54752 0.0
H617 H 0.8583 0.00156 0.52897 0.0
C618 C 0.5762 0.54955 0.80348 0.0
C619 C 0.57267 0.53911 0.8153 0.0
C620 C 0.57721 0.56782 0.80943 0.0
C621 C 0.56529 0.60551 0.84579 0.0
H622 H 0.60619 0.62711 0.83162 0.0
C623 C 0.58685 0.67592 0.88063 0.0
C624 C 0.59501 0.68617 0.8706 0.0
C625 C 0.5827 0.65835 0.87311 0.0
C626 C 0.59452 0.62142 0.83548 0.0
H627 H 0.56674 0.53971 0.84249 0.0
H628 H 0.56836 0.57164 0.85283 0.0
H629 H 0.601 0.59591 0.81969 0.0
H630 H 0.60467 0.68621 0.84464 0.0
H631 H 0.597 0.65575 0.83138 0.0
H632 H 0.55874 0.63102 0.86153 0.0
C633 C 0.57036 0.56567 0.83897 0.0
C634 C 0.59158 0.60349 0.82866 0.0
C635 C 0.56952 0.54738 0.83306 0.0
C636 C 0.59852 0.67861 0.85277 0.0
C637 C 0.59421 0.6611 0.8452 0.0
C638 C 0.56814 0.62351 0.8525 0.0
C639 C 0.57454 0.57606 0.82728 0.0
C640 C 0.57703 0.5953 0.83385 0.0
C641 C 0.58646 0.65065 0.85533 0.0
C642 C 0.58288 0.63167 0.84756 0.0
H643 H 0.57868 0.5436 0.78971 0.0
H644 H 0.58026 0.57551 0.80008 0.0
H645 H 0.55387 0.59958 0.84989 0.0
H646 H 0.58403 0.68134 0.89443 0.0
H647 H 0.57697 0.65069 0.88141 0.0
C648 C 0.08726 0.8906 0.66163 0.0
C649 C 0.0949 0.89015 0.67778 0.0
C650 C 0.09712 0.88723 0.64621 0.0
C651 C 0.13735 0.86533 0.62712 0.0
H652 H 0.12918 0.89049 0.59102 0.0
C653 C 0.17715 0.85059 0.56314 0.0
C654 C 0.16742 0.84807 0.54757 0.0
C655 C 0.16957 0.85809 0.57945 0.0
C656 C 0.13156 0.88332 0.60096 0.0
H657 H 0.11898 0.88617 0.69047 0.0
H658 H 0.13621 0.88051 0.66363 0.0
H659 H 0.11344 0.89891 0.61883 0.0
H660 H 0.14236 0.85231 0.53686 0.0
H661 H 0.12916 0.86531 0.56528 0.0
H662 H 0.15528 0.84959 0.60919 0.0
C663 C 0.12254 0.88318 0.66282 0.0
C664 C 0.12252 0.88811 0.61688 0.0
C665 C 0.11267 0.8865 0.67822 0.0
C666 C 0.15021 0.85401 0.5486 0.0
C667 C 0.14266 0.86156 0.5649 0.0
C668 C 0.14641 0.86058 0.61124 0.0
C669 C 0.11486 0.88338 0.6466 0.0
C670 C 0.12516 0.87903 0.63007 0.0
C671 C 0.15213 0.8633 0.58054 0.0
C672 C 0.14348 0.86938 0.5979 0.0
H673 H 0.0736 0.89334 0.66083 0.0
H674 H 0.09073 0.88725 0.63392 0.0
H675 H 0.13951 0.85787 0.63686 0.0
H676 H 0.19047 0.84625 0.56282 0.0
H677 H 0.17729 0.85951 0.59125 0.0
C678 C 0.57415 0.3142 0.11716 0.0
C679 C 0.59002 0.31 0.12389 0.0
C680 C 0.56831 0.33159 0.12096 0.0
C681 C 0.58464 0.37641 0.13153 0.0
H682 H 0.53805 0.39035 0.1474 0.0
C683 C 0.55878 0.44575 0.13482 0.0
C684 C 0.55179 0.45457 0.15115 0.0
C685 C 0.56191 0.42769 0.13104 0.0
C686 C 0.55109 0.3866 0.14295 0.0
H687 H 0.61205 0.32073 0.14013 0.0
H688 H 0.60198 0.35109 0.14649 0.0
H689 H 0.54674 0.35943 0.14227 0.0
H690 H 0.54181 0.4512 0.17598 0.0
H691 H 0.54705 0.41952 0.16922 0.0
H692 H 0.58903 0.40345 0.13209 0.0
C693 C 0.59406 0.34091 0.13831 0.0
C694 C 0.55602 0.36895 0.13995 0.0
C695 C 0.59978 0.32351 0.13473 0.0
C696 C 0.54724 0.44479 0.1633 0.0
C697 C 0.55018 0.42666 0.15942 0.0
C698 C 0.57965 0.39395 0.13426 0.0
C699 C 0.57836 0.34514 0.13134 0.0
C700 C 0.57289 0.36373 0.13434 0.0
C701 C 0.55792 0.41802 0.14342 0.0
C702 C 0.56285 0.39925 0.14006 0.0
H703 H 0.56632 0.30407 0.1088 0.0
H704 H 0.5562 0.33453 0.11536 0.0
H705 H 0.59768 0.37272 0.12706 0.0
H706 H 0.56242 0.45288 0.12516 0.0
H707 H 0.56773 0.42131 0.11854 0.0
C708 C 0.92148 0.03444 0.55883 0.0
C709 C 0.93665 0.04214 0.55422 0.0
C710 C 0.90793 0.02986 0.54677 0.0
C711 C 0.89652 0.02216 0.49963 0.0
H712 H 0.85117 0.03826 0.5177 0.0
C713 C 0.83902 0.02428 0.45321 0.0
C714 C 0.82231 0.02124 0.45885 0.0
C715 C 0.8531 0.02573 0.46465 0.0
C716 C 0.86365 0.03341 0.51241 0.0
H717 H 0.94981 0.05021 0.53304 0.0
H718 H 0.92617 0.04226 0.51206 0.0
H719 H 0.87556 0.04141 0.53773 0.0
H720 H 0.80734 0.01685 0.48077 0.0
H721 H 0.83182 0.01903 0.50057 0.0
H722 H 0.88472 0.0142 0.47431 0.0
C723 C 0.92476 0.03972 0.52497 0.0
C724 C 0.87766 0.03522 0.52394 0.0
C725 C 0.93828 0.04437 0.53704 0.0
C726 C 0.82004 0.01929 0.47604 0.0
C727 C 0.83412 0.02068 0.48746 0.0
C728 C 0.88249 0.02029 0.48808 0.0
C729 C 0.90929 0.03279 0.52984 0.0
C730 C 0.89427 0.02972 0.51767 0.0
C731 C 0.85085 0.02405 0.48198 0.0
C732 C 0.86584 0.02591 0.4943 0.0
H733 H 0.91983 0.03245 0.57192 0.0
H734 H 0.89626 0.02428 0.5508 0.0
H735 H 0.90912 0.01759 0.49443 0.0
H736 H 0.8412 0.02596 0.44007 0.0
H737 H 0.86567 0.02863 0.45997 0.0
C738 C 0.30333 0.59327 0.2289 0.0
C739 C 0.30609 0.57647 0.21786 0.0
C740 C 0.30222 0.60797 0.22188 0.0
C741 C 0.31387 0.62497 0.18381 0.0
H742 H 0.27403 0.6553 0.19712 0.0
C743 C 0.29567 0.67794 0.14717 0.0
C744 C 0.28812 0.69362 0.15682 0.0
C745 C 0.29872 0.66405 0.15503 0.0
C746 C 0.28541 0.6472 0.19347 0.0
H747 H 0.3104 0.56198 0.19085 0.0
H748 H 0.30872 0.58775 0.17863 0.0
H749 H 0.27831 0.63057 0.21029 0.0
H750 H 0.27827 0.70723 0.18243 0.0
H751 H 0.28411 0.68329 0.19633 0.0
H752 H 0.32119 0.64169 0.16721 0.0
C753 C 0.30735 0.5895 0.19271 0.0
C754 C 0.28781 0.63297 0.20099 0.0
C755 C 0.30823 0.57475 0.1997 0.0
C756 C 0.28397 0.69525 0.1746 0.0
C757 C 0.28723 0.68145 0.18253 0.0
C758 C 0.31161 0.63935 0.17644 0.0
C759 C 0.30408 0.60621 0.2037 0.0
C760 C 0.30199 0.62165 0.19615 0.0
C761 C 0.29448 0.66558 0.17282 0.0
C762 C 0.29727 0.65059 0.18108 0.0
H763 H 0.30162 0.59504 0.24295 0.0
H764 H 0.29984 0.62073 0.23066 0.0
H765 H 0.32501 0.61654 0.17998 0.0
H766 H 0.29892 0.67625 0.13341 0.0
H767 H 0.30405 0.65197 0.14702 0.0
C768 C 0.34697 0.09203 0.141 0.0
C769 C 0.32917 0.09503 0.14387 0.0
C770 C 0.35832 0.10607 0.14189 0.0
C771 C 0.36251 0.1536 0.16103 0.0
H772 H 0.40121 0.14946 0.12878 0.0
C773 C 0.41135 0.2101 0.1659 0.0
C774 C 0.42885 0.20512 0.16527 0.0
C775 C 0.39838 0.19741 0.16104 0.0
C776 C 0.3905 0.15079 0.13793 0.0
H777 H 0.3093 0.11513 0.14969 0.0
H778 H 0.32912 0.13962 0.15115 0.0
H779 H 0.38 0.1258 0.12477 0.0
H780 H 0.44647 0.18298 0.15829 0.0
H781 H 0.42391 0.16093 0.14996 0.0
H782 H 0.37318 0.17842 0.17439 0.0
C783 C 0.33432 0.12642 0.14839 0.0
C784 C 0.37837 0.13723 0.13565 0.0
C785 C 0.32295 0.11237 0.14748 0.0
C786 C 0.43312 0.18728 0.15896 0.0
C787 C 0.42017 0.17462 0.15408 0.0
C788 C 0.37465 0.16716 0.16331 0.0
C789 C 0.35215 0.12343 0.14568 0.0
C790 C 0.36437 0.13836 0.14733 0.0
C791 C 0.40263 0.17949 0.1554 0.0
C792 C 0.38892 0.1658 0.15194 0.0
H793 H 0.3522 0.07884 0.13821 0.0
H794 H 0.37201 0.10332 0.13998 0.0
H795 H 0.35201 0.1548 0.17039 0.0
H796 H 0.40762 0.22374 0.17063 0.0
H797 H 0.385 0.20161 0.16196 0.0
C798 C 0.64273 0.93758 0.64313 0.0
C799 C 0.65819 0.93201 0.63404 0.0
C800 C 0.62731 0.92842 0.6381 0.0
C801 C 0.60655 0.89624 0.60114 0.0
H802 H 0.57684 0.88721 0.6378 0.0
C803 C 0.55292 0.8434 0.58794 0.0
C804 C 0.53738 0.84715 0.59742 0.0
C805 C 0.56685 0.85508 0.59161 0.0
C806 C 0.58485 0.88983 0.6274 0.0
H807 H 0.66954 0.91255 0.61241 0.0
H808 H 0.64274 0.89648 0.6038 0.0
H809 H 0.60268 0.9051 0.64581 0.0
H810 H 0.52409 0.86639 0.6178 0.0
H811 H 0.54836 0.88681 0.62411 0.0
H812 H 0.58883 0.88069 0.58274 0.0
C813 C 0.64245 0.90806 0.61467 0.0
C814 C 0.59967 0.9001 0.63199 0.0
C815 C 0.65785 0.91722 0.61968 0.0
C816 C 0.53591 0.86307 0.61031 0.0
C817 C 0.54984 0.87473 0.614 0.0
C818 C 0.59173 0.88594 0.59655 0.0
C819 C 0.62701 0.91349 0.62387 0.0
C820 C 0.61079 0.9033 0.61892 0.0
C821 C 0.56555 0.87076 0.60486 0.0
C822 C 0.58078 0.8825 0.60963 0.0
H823 H 0.64252 0.94897 0.6542 0.0
H824 H 0.6156 0.93309 0.64532 0.0
H825 H 0.61469 0.89869 0.59075 0.0
H826 H 0.55449 0.83125 0.57794 0.0
H827 H 0.57882 0.85154 0.58445 0.0
C828 C 0.53144 0.96097 0.16706 0.0
C829 C 0.54858 0.95752 0.16129 0.0
C830 C 0.51957 0.94726 0.16554 0.0
C831 C 0.51853 0.90022 0.16376 0.0
H832 H 0.46982 0.90446 0.15379 0.0
C833 C 0.47022 0.84497 0.16623 0.0
C834 C 0.45449 0.85031 0.17487 0.0
C835 C 0.4813 0.85726 0.16175 0.0
C836 C 0.48338 0.90311 0.1567 0.0
H837 H 0.56645 0.93703 0.14854 0.0
H838 H 0.54569 0.91311 0.14582 0.0
H839 H 0.48991 0.92747 0.15058 0.0
H840 H 0.43787 0.87272 0.18521 0.0
H841 H 0.45729 0.89418 0.17769 0.0
H842 H 0.51201 0.87616 0.17035 0.0
C843 C 0.54151 0.92642 0.15175 0.0
C844 C 0.49488 0.91628 0.15483 0.0
C845 C 0.55338 0.94014 0.15323 0.0
C846 C 0.44988 0.86816 0.17854 0.0
C847 C 0.46098 0.88046 0.17412 0.0
C848 C 0.50704 0.88709 0.16567 0.0
C849 C 0.52458 0.92978 0.15824 0.0
C850 C 0.51255 0.9151 0.15858 0.0
C851 C 0.47692 0.8752 0.16586 0.0
C852 C 0.48928 0.88849 0.16241 0.0
H853 H 0.5273 0.97421 0.17329 0.0
H854 H 0.50667 0.9503 0.17081 0.0
H855 H 0.53201 0.89903 0.16703 0.0
H856 H 0.4741 0.8313 0.1631 0.0
H857 H 0.49336 0.85273 0.15517 0.0
C858 C 0.29658 0.0626 0.6249 0.0
C859 C 0.29597 0.04435 0.61773 0.0
C860 C 0.31053 0.0725 0.62131 0.0
C861 C 0.35622 0.06812 0.60732 0.0
H862 H 0.34937 0.11474 0.60001 0.0
C863 C 0.41204 0.10851 0.5877 0.0
C864 C 0.41263 0.1265 0.59614 0.0
C865 C 0.3977 0.09834 0.58972 0.0
C866 C 0.35151 0.1018 0.60219 0.0
H867 H 0.30936 0.02227 0.60084 0.0
H868 H 0.33358 0.03959 0.59442 0.0
H869 H 0.32438 0.09726 0.60423 0.0
H870 H 0.39862 0.14788 0.61339 0.0
H871 H 0.37369 0.13011 0.61701 0.0
H872 H 0.38335 0.07269 0.60536 0.0
C873 C 0.32341 0.0462 0.60304 0.0
C874 C 0.33718 0.09178 0.6046 0.0
C875 C 0.30946 0.03629 0.60663 0.0
C876 C 0.39857 0.13407 0.60666 0.0
C877 C 0.38422 0.12391 0.60865 0.0
C878 C 0.37054 0.07813 0.60489 0.0
C879 C 0.32419 0.0644 0.61046 0.0
C880 C 0.33937 0.07485 0.60729 0.0
C881 C 0.38361 0.10593 0.6002 0.0
C882 C 0.36836 0.09513 0.60239 0.0
H883 H 0.28643 0.06922 0.63354 0.0
H884 H 0.31081 0.08646 0.62742 0.0
H885 H 0.35839 0.05524 0.60964 0.0
H886 H 0.42264 0.10226 0.57946 0.0
H887 H 0.39755 0.08456 0.58288 0.0
C888 C 0.4262 0.78507 0.84151 0.0
C889 C 0.42546 0.7759 0.82371 0.0
C890 C 0.41491 0.79907 0.84812 0.0
C891 C 0.37471 0.82076 0.83773 0.0
H892 H 0.39562 0.86261 0.86719 0.0
C893 C 0.33616 0.88527 0.86186 0.0
C894 C 0.34483 0.9008 0.86107 0.0
C895 C 0.3452 0.86943 0.85945 0.0
C896 C 0.38959 0.85106 0.85892 0.0
H897 H 0.41182 0.77377 0.79909 0.0
H898 H 0.39244 0.79825 0.81047 0.0
H899 H 0.41235 0.8356 0.85888 0.0
H900 H 0.36981 0.9119 0.85729 0.0
H901 H 0.38548 0.88429 0.85274 0.0
H902 H 0.35225 0.83646 0.83705 0.0
C903 C 0.40154 0.79456 0.81944 0.0
C904 C 0.39911 0.83547 0.85436 0.0
C905 C 0.41276 0.78056 0.81287 0.0
C906 C 0.36275 0.90019 0.85804 0.0
C907 C 0.37176 0.88436 0.85556 0.0
C908 C 0.36521 0.83637 0.84224 0.0
C909 C 0.40267 0.8042 0.83707 0.0
C910 C 0.3919 0.82021 0.84344 0.0
C911 C 0.3631 0.86875 0.85613 0.0
C912 C 0.37265 0.85179 0.85263 0.0
H913 H 0.43577 0.78174 0.85025 0.0
H914 H 0.41595 0.80604 0.86183 0.0
H915 H 0.36867 0.80919 0.82951 0.0
H916 H 0.32237 0.88532 0.86427 0.0
H917 H 0.33816 0.85772 0.8602 0.0
C918 C 0.41026 0.88052 0.40843 0.0
C919 C 0.41178 0.86253 0.40026 0.0
C920 C 0.39527 0.88977 0.40634 0.0
C921 C 0.35735 0.888 0.37722 0.0
H922 H 0.3382 0.92231 0.41695 0.0
C923 C 0.29118 0.9207 0.3734 0.0
C924 C 0.29009 0.93889 0.38074 0.0
C925 C 0.30572 0.91123 0.37634 0.0
C926 C 0.34347 0.91289 0.40569 0.0
H927 H 0.39869 0.84014 0.38351 0.0
H928 H 0.37252 0.85622 0.38002 0.0
H929 H 0.36425 0.90615 0.42086 0.0
H930 H 0.30331 0.96135 0.39721 0.0
H931 H 0.32873 0.94484 0.40225 0.0
H932 H 0.3366 0.89474 0.36205 0.0
C933 C 0.383 0.86325 0.38786 0.0
C934 C 0.35842 0.90364 0.40792 0.0
C935 C 0.39798 0.854 0.38994 0.0
C936 C 0.30373 0.94734 0.39138 0.0
C937 C 0.31827 0.93787 0.39434 0.0
C938 C 0.34241 0.89723 0.375 0.0
C939 C 0.38146 0.88125 0.39602 0.0
C940 C 0.36554 0.89108 0.3937 0.0
C941 C 0.31951 0.91973 0.38671 0.0
C942 C 0.33529 0.90979 0.3892 0.0
H943 H 0.42066 0.88751 0.41643 0.0
H944 H 0.39461 0.90367 0.41261 0.0
H945 H 0.36265 0.87865 0.36592 0.0
H946 H 0.28088 0.91376 0.36519 0.0
H947 H 0.30616 0.89723 0.37049 0.0
C948 C 0.53996 0.0415 0.81344 0.0
C949 C 0.54923 0.03982 0.82836 0.0
C950 C 0.52729 0.05442 0.8148 0.0
C951 C 0.51451 0.09745 0.84268 0.0
H952 H 0.47406 0.08981 0.81254 0.0
C953 C 0.47662 0.15434 0.82579 0.0
C954 C 0.45868 0.15264 0.82313 0.0
C955 C 0.48637 0.1404 0.82886 0.0
C956 C 0.48513 0.09216 0.82127 0.0
H957 H 0.55198 0.04998 0.85656 0.0
H958 H 0.52961 0.07242 0.85899 0.0
H959 H 0.49268 0.06515 0.81368 0.0
H960 H 0.43678 0.13519 0.82228 0.0
H961 H 0.45374 0.11098 0.82797 0.0
H962 H 0.50688 0.12445 0.85037 0.0
C963 C 0.53238 0.06392 0.84617 0.0
C964 C 0.49594 0.07803 0.82174 0.0
C965 C 0.54512 0.05098 0.8448 0.0
C966 C 0.45061 0.13688 0.82415 0.0
C967 C 0.46035 0.12296 0.82732 0.0
C968 C 0.50364 0.11158 0.84227 0.0
C969 C 0.52348 0.06595 0.83114 0.0
C970 C 0.51097 0.08056 0.83216 0.0
C971 C 0.47839 0.12445 0.82945 0.0
C972 C 0.48901 0.10918 0.83128 0.0
H973 H 0.5428 0.03315 0.80056 0.0
H974 H 0.5209 0.05575 0.8029 0.0
H975 H 0.52603 0.09992 0.85077 0.0
H976 H 0.48325 0.16629 0.82505 0.0
H977 H 0.50026 0.14196 0.83018 0.0
C978 C 0.55332 0.16278 0.41468 0.0
C979 C 0.53789 0.15677 0.40572 0.0
C980 C 0.56819 0.15235 0.41188 0.0
C981 C 0.58361 0.10677 0.39461 0.0
H982 H 0.62665 0.12939 0.38741 0.0
C983 C 0.64434 0.06742 0.36569 0.0
C984 C 0.66049 0.07362 0.3728 0.0
C985 C 0.6294 0.07743 0.3706 0.0
C986 C 0.6148 0.1229 0.38963 0.0
H987 H 0.52587 0.13491 0.38715 0.0
H988 H 0.55184 0.11675 0.38222 0.0
H989 H 0.6005 0.14694 0.3948 0.0
H990 H 0.67359 0.09517 0.39078 0.0
H991 H 0.6475 0.11255 0.3995 0.0
H992 H 0.59791 0.08271 0.38935 0.0
C993 C 0.55241 0.12948 0.39151 0.0
C994 C 0.5998 0.13297 0.39387 0.0
C995 C 0.53754 0.13992 0.39427 0.0
C996 C 0.66136 0.09004 0.38499 0.0
C997 C 0.64641 0.10005 0.38993 0.0
C998 C 0.59863 0.0967 0.39041 0.0
C999 C 0.56796 0.13567 0.4001 0.0
C1000 C 0.58401 0.12501 0.39631 0.0
C1001 C 0.63026 0.09387 0.38276 0.0
C1002 C 0.61438 0.10463 0.38776 0.0
H1003 H 0.55401 0.17568 0.42363 0.0
H1004 H 0.57991 0.15739 0.41888 0.0
H1005 H 0.5717 0.10029 0.39665 0.0
H1006 H 0.64322 0.05485 0.35622 0.0
H1007 H 0.61722 0.0724 0.36463 0.0
C1008 C 0.04361 0.44075 0.18697 0.0
C1009 C 0.04701 0.43889 0.20403 0.0
C1010 C 0.04533 0.42643 0.17243 0.0
C1011 C 0.04857 0.37774 0.15969 0.0
H1012 H 0.07001 0.38579 0.11762 0.0
C1013 C 0.07361 0.32138 0.10317 0.0
C1014 C 0.06997 0.32248 0.0859 0.0
C1015 C 0.07006 0.33553 0.11745 0.0
C1016 C 0.06384 0.38336 0.1292 0.0
H1017 H 0.05467 0.42047 0.21923 0.0
H1018 H 0.05796 0.39559 0.19388 0.0
H1019 H 0.06491 0.41051 0.14278 0.0
H1020 H 0.0598 0.33931 0.07007 0.0
H1021 H 0.05367 0.36403 0.09502 0.0
H1022 H 0.04781 0.35052 0.14614 0.0
C1023 C 0.05368 0.40803 0.19172 0.0
C1024 C 0.06086 0.39753 0.14362 0.0
C1025 C 0.05188 0.42233 0.20626 0.0
C1026 C 0.06277 0.33805 0.08321 0.0
C1027 C 0.05933 0.35224 0.09749 0.0
C1028 C 0.05163 0.36356 0.1453 0.0
C1029 C 0.05057 0.40993 0.1746 0.0
C1030 C 0.05324 0.3949 0.15907 0.0
C1031 C 0.06291 0.35112 0.11476 0.0
C1032 C 0.05935 0.36621 0.12992 0.0
H1033 H 0.03975 0.45332 0.18481 0.0
H1034 H 0.04254 0.42829 0.15946 0.0
H1035 H 0.04242 0.37527 0.17126 0.0
H1036 H 0.07917 0.30957 0.10569 0.0
H1037 H 0.07315 0.33435 0.13059 0.0
C1038 C 0.05231 0.58017 0.79148 0.0
C1039 C 0.04689 0.5636 0.79323 0.0
C1040 C 0.05414 0.59418 0.8063 0.0
C1041 C 0.0602 0.60363 0.85451 0.0
H1042 H 0.04786 0.65106 0.85279 0.0
C1043 C 0.06079 0.66192 0.91608 0.0
C1044 C 0.06807 0.6777 0.91405 0.0
C1045 C 0.05778 0.64799 0.90143 0.0
C1046 C 0.0515 0.6379 0.85342 0.0
H1047 H 0.03875 0.54884 0.81188 0.0
H1048 H 0.04162 0.57336 0.8377 0.0
H1049 H 0.04291 0.62682 0.82709 0.0
H1050 H 0.0779 0.69126 0.89503 0.0
H1051 H 0.07265 0.66694 0.86947 0.0
H1052 H 0.06873 0.61475 0.88088 0.0
C1053 C 0.0448 0.57545 0.82491 0.0
C1054 C 0.04868 0.62401 0.83869 0.0
C1055 C 0.04303 0.56142 0.81009 0.0
C1056 C 0.07226 0.67928 0.89705 0.0
C1057 C 0.06916 0.66539 0.88239 0.0
C1058 C 0.06295 0.61752 0.86926 0.0
C1059 C 0.05052 0.59196 0.82321 0.0
C1060 C 0.05307 0.60671 0.83903 0.0
C1061 C 0.0619 0.64959 0.88442 0.0
C1062 C 0.0587 0.63481 0.86885 0.0
H1063 H 0.05545 0.58227 0.77868 0.0
H1064 H 0.0588 0.60664 0.80452 0.0
H1065 H 0.06402 0.59053 0.85514 0.0
H1066 H 0.05739 0.66029 0.92899 0.0
H1067 H 0.05201 0.63604 0.90339 0.0
C1068 C 0.82437 0.71262 0.55659 0.0
C1069 C 0.83291 0.71685 0.54234 0.0
C1070 C 0.83362 0.71109 0.57146 0.0
C1071 C 0.87753 0.70507 0.5877 0.0
H1072 H 0.8583 0.72839 0.63311 0.0
C1073 C 0.91731 0.7171 0.65194 0.0
C1074 C 0.90885 0.71491 0.66713 0.0
C1075 C 0.908 0.71661 0.63654 0.0
C1076 C 0.86376 0.7216 0.62056 0.0
H1077 H 0.85793 0.72228 0.53231 0.0
H1078 H 0.87405 0.71965 0.55828 0.0
H1079 H 0.84212 0.72815 0.6064 0.0
H1080 H 0.88395 0.71038 0.67801 0.0
H1081 H 0.86777 0.70931 0.65113 0.0
H1082 H 0.8992 0.69856 0.60188 0.0
C1083 C 0.86022 0.71742 0.55791 0.0
C1084 C 0.85447 0.72146 0.60525 0.0
C1085 C 0.85096 0.719 0.54306 0.0
C1086 C 0.89087 0.7122 0.66658 0.0
C1087 C 0.88157 0.71167 0.65117 0.0
C1088 C 0.88681 0.70517 0.60304 0.0
C1089 C 0.85162 0.71371 0.57238 0.0
C1090 C 0.86128 0.71326 0.58864 0.0
C1091 C 0.89001 0.71388 0.63597 0.0
C1092 C 0.88006 0.7135 0.61965 0.0
H1093 H 0.81048 0.71082 0.55643 0.0
H1094 H 0.82666 0.70797 0.5823 0.0
H1095 H 0.88303 0.69846 0.57511 0.0
H1096 H 0.93115 0.71925 0.65194 0.0
H1097 H 0.91487 0.71861 0.62515 0.0
C1098 C 0.81361 0.28502 0.89002 0.0
C1099 C 0.81762 0.28741 0.90793 0.0
C1100 C 0.81564 0.2988 0.88178 0.0
C1101 C 0.83794 0.34158 0.88672 0.0
H1102 H 0.8045 0.34792 0.85194 0.0
C1103 C 0.83619 0.40331 0.85886 0.0
C1104 C 0.83379 0.40052 0.84061 0.0
C1105 C 0.8345 0.38942 0.86701 0.0
C1106 C 0.81403 0.34621 0.86151 0.0
H1107 H 0.82669 0.3062 0.93132 0.0
H1108 H 0.82986 0.33033 0.91707 0.0
H1109 H 0.80073 0.32402 0.86644 0.0
H1110 H 0.82778 0.38094 0.81658 0.0
H1111 H 0.82478 0.35672 0.83083 0.0
H1112 H 0.85108 0.36397 0.88192 0.0
C1113 C 0.8255 0.31772 0.90926 0.0
C1114 C 0.8119 0.33249 0.8698 0.0
C1115 C 0.82358 0.3039 0.91747 0.0
C1116 C 0.82972 0.38353 0.83067 0.0
C1117 C 0.8279 0.36968 0.83884 0.0
C1118 C 0.84 0.35537 0.87851 0.0
C1119 C 0.82162 0.31533 0.89129 0.0
C1120 C 0.82384 0.32998 0.8825 0.0
C1121 C 0.83024 0.37248 0.85709 0.0
C1122 C 0.82808 0.35782 0.8658 0.0
H1123 H 0.80907 0.27244 0.88228 0.0
H1124 H 0.81277 0.2964 0.86787 0.0
H1125 H 0.84756 0.33986 0.8962 0.0
H1126 H 0.83932 0.41624 0.8669 0.0
H1127 H 0.83623 0.39201 0.88112 0.0
C1128 C 0.10081 0.38255 0.60546 0.0
C1129 C 0.11894 0.38185 0.60654 0.0
C1130 C 0.09042 0.37676 0.61751 0.0
C1131 C 0.09103 0.34898 0.64938 0.0
H1132 H 0.05091 0.37654 0.669 0.0
C1133 C 0.05259 0.33505 0.70758 0.0
C1134 C 0.03446 0.33573 0.70665 0.0
C1135 C 0.06285 0.34089 0.69547 0.0
C1136 C 0.06196 0.36859 0.66351 0.0
H1137 H 0.14034 0.37436 0.62105 0.0
H1138 H 0.12222 0.36439 0.64212 0.0
H1139 H 0.06882 0.38597 0.6474 0.0
H1140 H 0.01289 0.34324 0.69237 0.0
H1141 H 0.03079 0.3533 0.67117 0.0
H1142 H 0.08417 0.3316 0.66548 0.0
C1143 C 0.11604 0.36925 0.63185 0.0
C1144 C 0.07222 0.37399 0.65111 0.0
C1145 C 0.12643 0.37506 0.61982 0.0
C1146 C 0.02682 0.34259 0.69348 0.0
C1147 C 0.03708 0.34843 0.68138 0.0
C1148 C 0.08077 0.34358 0.66176 0.0
C1149 C 0.09791 0.37011 0.63089 0.0
C1150 C 0.08689 0.36426 0.64392 0.0
C1151 C 0.05522 0.34754 0.68215 0.0
C1152 C 0.06613 0.35333 0.669 0.0
H1153 H 0.09462 0.38766 0.59535 0.0
H1154 H 0.0765 0.37738 0.61626 0.0
H1155 H 0.10208 0.34104 0.64389 0.0
H1156 H 0.05889 0.32989 0.71759 0.0
H1157 H 0.07678 0.34027 0.69659 0.0
C1158 C 0.80145 0.63707 0.20147 0.0
C1159 C 0.80851 0.62009 0.19621 0.0
C1160 C 0.80241 0.64858 0.19043 0.0
C1161 C 0.82576 0.65649 0.1518 0.0
H1162 H 0.78526 0.68423 0.14739 0.0
C1163 C 0.81952 0.69461 0.09774 0.0
C1164 C 0.81249 0.71162 0.10271 0.0
C1165 C 0.81922 0.68364 0.10934 0.0
C1166 C 0.79675 0.67672 0.14862 0.0
H1167 H 0.82231 0.60197 0.1753 0.0
H1168 H 0.82382 0.62196 0.15597 0.0
H1169 H 0.78468 0.66491 0.16744 0.0
H1170 H 0.79956 0.73042 0.12376 0.0
H1171 H 0.7991 0.71129 0.14403 0.0
H1172 H 0.83777 0.66823 0.13287 0.0
C1173 C 0.81772 0.62648 0.16872 0.0
C1174 C 0.79643 0.66566 0.16013 0.0
C1175 C 0.81678 0.61497 0.17977 0.0
C1176 C 0.80506 0.71737 0.11951 0.0
C1177 C 0.80472 0.70638 0.13109 0.0
C1178 C 0.82607 0.66753 0.14026 0.0
C1179 C 0.81044 0.64337 0.17386 0.0
C1180 C 0.81092 0.65538 0.16184 0.0
C1181 C 0.81183 0.6894 0.12616 0.0
C1182 C 0.81155 0.67775 0.13852 0.0
H1183 H 0.79505 0.64144 0.21408 0.0
H1184 H 0.7969 0.66159 0.1949 0.0
H1185 H 0.83724 0.64895 0.15299 0.0
H1186 H 0.82532 0.68976 0.08488 0.0
H1187 H 0.82461 0.67055 0.10506 0.0
C1188 C 0.90382 0.29157 0.35734 0.0
C1189 C 0.89582 0.29041 0.34098 0.0
C1190 C 0.8939 0.29376 0.37264 0.0
C1191 C 0.85107 0.30874 0.39122 0.0
H1192 H 0.86148 0.28073 0.42437 0.0
C1193 C 0.80373 0.30164 0.44602 0.0
C1194 C 0.81058 0.30031 0.46224 0.0
C1195 C 0.81467 0.30206 0.43193 0.0
C1196 C 0.85856 0.28888 0.41541 0.0
H1197 H 0.87112 0.29064 0.3279 0.0
H1198 H 0.85386 0.29436 0.35457 0.0
H1199 H 0.87957 0.27809 0.3984 0.0
H1200 H 0.83433 0.29907 0.47662 0.0
H1201 H 0.85342 0.30011 0.45214 0.0
H1202 H 0.83001 0.31948 0.40818 0.0
C1203 C 0.8678 0.29376 0.35559 0.0
C1204 C 0.86892 0.28733 0.4005 0.0
C1205 C 0.8777 0.29149 0.34028 0.0
C1206 C 0.82863 0.30001 0.46426 0.0
C1207 C 0.83957 0.30048 0.45018 0.0
C1208 C 0.84074 0.31034 0.40617 0.0
C1209 C 0.87578 0.29492 0.37194 0.0
C1210 C 0.86519 0.29711 0.38815 0.0
C1211 C 0.83272 0.30121 0.43376 0.0
C1212 C 0.84426 0.30031 0.41837 0.0
H1213 H 0.91775 0.29082 0.35835 0.0
H1214 H 0.90044 0.29476 0.38507 0.0
H1215 H 0.84804 0.31667 0.38209 0.0
H1216 H 0.78988 0.30185 0.444 0.0
H1217 H 0.80892 0.30243 0.41942 0.0
C1218 C 0.12738 0.62322 0.37359 0.0
C1219 C 0.12035 0.61557 0.38648 0.0
C1220 C 0.11661 0.62891 0.36177 0.0
C1221 C 0.07264 0.6231 0.34262 0.0
H1222 H 0.08259 0.66697 0.33023 0.0
C1223 C 0.02478 0.65579 0.30369 0.0
C1224 C 0.03171 0.66347 0.29077 0.0
C1225 C 0.03566 0.6495 0.31501 0.0
C1226 C 0.07975 0.65459 0.3334 0.0
H1227 H 0.09645 0.60802 0.39715 0.0
H1228 H 0.07767 0.61814 0.37669 0.0
H1229 H 0.10139 0.65708 0.35084 0.0
H1230 H 0.05554 0.6703 0.27942 0.0
H1231 H 0.07451 0.6592 0.29908 0.0
H1232 H 0.05094 0.62068 0.32523 0.0
C1233 C 0.09153 0.6195 0.37553 0.0
C1234 C 0.09053 0.64892 0.34521 0.0
C1235 C 0.1023 0.6138 0.38734 0.0
C1236 C 0.04977 0.6645 0.28926 0.0
C1237 C 0.06065 0.65825 0.3006 0.0
C1238 C 0.06185 0.62879 0.33082 0.0
C1239 C 0.09856 0.6271 0.36258 0.0
C1240 C 0.0871 0.63311 0.34998 0.0
C1241 C 0.05372 0.65077 0.31368 0.0
C1242 C 0.06528 0.6446 0.32608 0.0
H1243 H 0.14123 0.62473 0.37252 0.0
H1244 H 0.12246 0.6345 0.35182 0.0
H1245 H 0.06979 0.61073 0.34579 0.0
H1246 H 0.01092 0.65482 0.30523 0.0
H1247 H 0.02991 0.64398 0.32506 0.0
C1248 C 0.42245 0.20063 0.44488 0.0
C1249 C 0.42705 0.19785 0.42705 0.0
C1250 C 0.40552 0.19749 0.44964 0.0
C1251 C 0.36126 0.19653 0.43281 0.0
H1252 H 0.34977 0.17433 0.47042 0.0
C1253 C 0.29049 0.18417 0.44876 0.0
C1254 C 0.28588 0.18739 0.4666 0.0
C1255 C 0.30786 0.18374 0.44377 0.0
C1256 C 0.35277 0.18072 0.46 0.0
H1257 H 0.41764 0.18889 0.40025 0.0
H1258 H 0.3882 0.18346 0.40858 0.0
H1259 H 0.38002 0.1766 0.46218 0.0
H1260 H 0.29592 0.19238 0.4932 0.0
H1261 H 0.32622 0.19207 0.48455 0.0
H1262 H 0.3342 0.2011 0.43083 0.0
C1263 C 0.39762 0.18825 0.41887 0.0
C1264 C 0.37009 0.18197 0.45527 0.0
C1265 C 0.41453 0.19129 0.41411 0.0
C1266 C 0.29905 0.18982 0.47933 0.0
C1267 C 0.31644 0.18954 0.47436 0.0
C1268 C 0.344 0.1954 0.4376 0.0
C1269 C 0.39284 0.19162 0.43667 0.0
C1270 C 0.37451 0.18989 0.44161 0.0
C1271 C 0.32106 0.1867 0.45652 0.0
C1272 C 0.3395 0.18747 0.45125 0.0
H1273 H 0.43181 0.20564 0.45517 0.0
H1274 H 0.40219 0.20029 0.46348 0.0
H1275 H 0.36427 0.203 0.42245 0.0
H1276 H 0.28066 0.18209 0.43861 0.0
H1277 H 0.31094 0.18116 0.42989 0.0
C1278 C 0.34893 0.54782 0.76013 0.0
C1279 C 0.33239 0.54978 0.75339 0.0
C1280 C 0.36048 0.56198 0.76397 0.0
C1281 C 0.36907 0.605 0.7541 0.0
H1282 H 0.39544 0.6146 0.79748 0.0
C1283 C 0.4038 0.67095 0.78092 0.0
C1284 C 0.4205 0.67048 0.78785 0.0
C1285 C 0.39368 0.65576 0.77655 0.0
C1286 C 0.38832 0.61198 0.78522 0.0
H1287 H 0.31506 0.56815 0.74541 0.0
H1288 H 0.33504 0.59275 0.75224 0.0
H1289 H 0.37685 0.5887 0.78989 0.0
H1290 H 0.43962 0.65371 0.79577 0.0
H1291 H 0.42194 0.62717 0.7881 0.0
H1292 H 0.38037 0.62834 0.74949 0.0
C1293 C 0.33922 0.58025 0.75433 0.0
C1294 C 0.37769 0.59712 0.78086 0.0
C1295 C 0.32771 0.56615 0.75052 0.0
C1296 C 0.4268 0.65452 0.79048 0.0
C1297 C 0.41664 0.63933 0.78616 0.0
C1298 C 0.37965 0.61984 0.75847 0.0
C1299 C 0.35574 0.57836 0.76111 0.0
C1300 C 0.3678 0.59357 0.76533 0.0
C1301 C 0.40001 0.63976 0.77904 0.0
C1302 C 0.38927 0.6236 0.77416 0.0
H1303 H 0.35294 0.53538 0.76247 0.0
H1304 H 0.37317 0.56006 0.76902 0.0
H1305 H 0.36189 0.60247 0.74187 0.0
H1306 H 0.39854 0.68304 0.77877 0.0
H1307 H 0.38082 0.65659 0.77135 0.0
C1308 C 0.67543 0.90782 0.50127 0.0
C1309 C 0.67875 0.90967 0.51927 0.0
C1310 C 0.66077 0.89877 0.49338 0.0
C1311 C 0.61739 0.88475 0.50402 0.0
H1312 H 0.62002 0.85312 0.45756 0.0
C1313 C 0.55636 0.85449 0.46622 0.0
C1314 C 0.55709 0.83655 0.45767 0.0
C1315 C 0.57134 0.86358 0.47311 0.0
C1316 C 0.61909 0.86185 0.47058 0.0
H1317 H 0.66937 0.90325 0.54304 0.0
H1318 H 0.64392 0.88739 0.52925 0.0
H1319 H 0.64605 0.86823 0.47105 0.0
H1320 H 0.57419 0.81414 0.44939 0.0
H1321 H 0.6003 0.82997 0.46151 0.0
H1322 H 0.59053 0.87815 0.50372 0.0
C1323 C 0.65252 0.89313 0.52128 0.0
C1324 C 0.63397 0.87063 0.47823 0.0
C1325 C 0.66718 0.90214 0.52916 0.0
C1326 C 0.57318 0.82796 0.45588 0.0
C1327 C 0.58817 0.83706 0.46275 0.0
C1328 C 0.60252 0.87601 0.49636 0.0
C1329 C 0.6491 0.89141 0.50332 0.0
C1330 C 0.6333 0.88214 0.49507 0.0
C1331 C 0.5874 0.85494 0.47159 0.0
C1332 C 0.6032 0.86443 0.47956 0.0
H1333 H 0.68407 0.91348 0.49328 0.0
H1334 H 0.65842 0.89784 0.47956 0.0
H1335 H 0.61638 0.89367 0.51693 0.0
H1336 H 0.54418 0.86152 0.46776 0.0
H1337 H 0.57034 0.8774 0.47962 0.0
C1338 C 0.5499 0.39787 0.74435 0.0
C1339 C 0.54872 0.41395 0.75703 0.0
C1340 C 0.53977 0.38355 0.74575 0.0
C1341 C 0.5011 0.37061 0.76745 0.0
H1342 H 0.52486 0.32587 0.75972 0.0
C1343 C 0.47203 0.31055 0.78772 0.0
C1344 C 0.47477 0.29386 0.77644 0.0
C1345 C 0.48022 0.32536 0.78459 0.0
C1346 C 0.51794 0.33819 0.76168 0.0
H1347 H 0.53546 0.42779 0.78078 0.0
H1348 H 0.51782 0.40272 0.78327 0.0
H1349 H 0.54028 0.35149 0.75539 0.0
H1350 H 0.48801 0.27971 0.7528 0.0
H1351 H 0.50212 0.30556 0.74722 0.0
H1352 H 0.47877 0.35728 0.77387 0.0
C1353 C 0.52653 0.40123 0.77218 0.0
C1354 C 0.52679 0.3529 0.7592 0.0
C1355 C 0.53669 0.41558 0.77079 0.0
C1356 C 0.4857 0.29235 0.76182 0.0
C1357 C 0.49386 0.30717 0.75867 0.0
C1358 C 0.49222 0.35587 0.76991 0.0
C1359 C 0.52819 0.38496 0.75985 0.0
C1360 C 0.5185 0.36929 0.76208 0.0
C1361 C 0.49132 0.32384 0.77008 0.0
C1362 C 0.50056 0.33949 0.7671 0.0
H1363 H 0.55894 0.39618 0.7335 0.0
H1364 H 0.54113 0.37129 0.73585 0.0
H1365 H 0.49429 0.38301 0.7696 0.0
H1366 H 0.46371 0.31217 0.79913 0.0
H1367 H 0.47814 0.33796 0.79376 0.0
C1368 C 0.40576 0.80669 0.58753 0.0
C1369 C 0.41981 0.80241 0.57588 0.0
C1370 C 0.38931 0.80928 0.58129 0.0
C1371 C 0.3655 0.81868 0.54386 0.0
H1372 H 0.32777 0.7953 0.56151 0.0
C1373 C 0.297 0.81189 0.51297 0.0
C1374 C 0.28277 0.81311 0.52437 0.0
C1375 C 0.31387 0.81168 0.51934 0.0
C1376 C 0.33809 0.80215 0.55663 0.0
H1377 H 0.42769 0.79811 0.54859 0.0
H1378 H 0.39885 0.80264 0.53768 0.0
H1379 H 0.35693 0.79329 0.57246 0.0
H1380 H 0.27512 0.81559 0.55149 0.0
H1381 H 0.30449 0.81558 0.56265 0.0
H1382 H 0.34659 0.82758 0.52803 0.0
C1383 C 0.40064 0.80403 0.55166 0.0
C1384 C 0.35483 0.80096 0.56289 0.0
C1385 C 0.41713 0.80136 0.5579 0.0
C1386 C 0.28579 0.8145 0.54233 0.0
C1387 C 0.30264 0.81438 0.54871 0.0
C1388 C 0.3487 0.81995 0.53764 0.0
C1389 C 0.38649 0.80771 0.56327 0.0
C1390 C 0.36872 0.80921 0.5566 0.0
C1391 C 0.3169 0.81276 0.53727 0.0
C1392 C 0.33478 0.81169 0.54396 0.0
H1393 H 0.40737 0.80771 0.60147 0.0
H1394 H 0.37873 0.81239 0.5906 0.0
H1395 H 0.37593 0.82531 0.53887 0.0
H1396 H 0.29511 0.81077 0.49905 0.0
H1397 H 0.32452 0.81022 0.51012 0.0
C1398 C 0.54131 0.5904 0.19912 0.0
C1399 C 0.53259 0.57522 0.20089 0.0
C1400 C 0.53261 0.6064 0.20167 0.0
C1401 C 0.48929 0.62605 0.20224 0.0
H1402 H 0.51276 0.66822 0.22794 0.0
C1403 C 0.45594 0.69419 0.22002 0.0
C1404 C 0.46585 0.70851 0.21779 0.0
C1405 C 0.46362 0.67779 0.21869 0.0
C1406 C 0.50608 0.6566 0.2206 0.0
H1407 H 0.50779 0.56491 0.20653 0.0
H1408 H 0.49255 0.59298 0.21106 0.0
H1409 H 0.52683 0.63978 0.22414 0.0
H1410 H 0.49164 0.71681 0.21247 0.0
H1411 H 0.50498 0.68822 0.21001 0.0
H1412 H 0.46859 0.64294 0.19858 0.0
C1413 C 0.50613 0.59242 0.20758 0.0
C1414 C 0.51415 0.64029 0.21842 0.0
C1415 C 0.51487 0.57636 0.20505 0.0
C1416 C 0.48363 0.70608 0.21432 0.0
C1417 C 0.4913 0.6897 0.213 0.0
C1418 C 0.48121 0.6424 0.20441 0.0
C1419 C 0.51496 0.60765 0.20606 0.0
C1420 C 0.50593 0.62485 0.20905 0.0
C1421 C 0.4814 0.67534 0.21514 0.0
C1422 C 0.4896 0.65788 0.21346 0.0
H1423 H 0.55493 0.59 0.19585 0.0
H1424 H 0.53972 0.6178 0.20008 0.0
H1425 H 0.48269 0.61442 0.1948 0.0
H1426 H 0.44221 0.69561 0.22274 0.0
H1427 H 0.45567 0.66706 0.22061 0.0
C1428 C 0.67722 0.09777 0.4937 0.0
C1429 C 0.67647 0.07985 0.48502 0.0
C1430 C 0.66237 0.10667 0.50126 0.0
C1431 C 0.61477 0.10426 0.4985 0.0
H1432 H 0.61664 0.13884 0.54327 0.0
C1433 C 0.55322 0.13747 0.53279 0.0
C1434 C 0.55406 0.15567 0.54013 0.0
C1435 C 0.56821 0.12787 0.52694 0.0
C1436 C 0.61594 0.12932 0.53068 0.0
H1437 H 0.65959 0.05715 0.47782 0.0
H1438 H 0.63376 0.07262 0.49115 0.0
H1439 H 0.64274 0.12268 0.5315 0.0
H1440 H 0.57137 0.17803 0.54733 0.0
H1441 H 0.59751 0.1613 0.53699 0.0
H1442 H 0.58804 0.11095 0.4976 0.0
C1443 C 0.64577 0.07987 0.49188 0.0
C1444 C 0.6309 0.12007 0.52393 0.0
C1445 C 0.66061 0.07097 0.48432 0.0
C1446 C 0.57027 0.16401 0.54176 0.0
C1447 C 0.58527 0.15441 0.53592 0.0
C1448 C 0.59984 0.11349 0.50524 0.0
C1449 C 0.64644 0.09785 0.50032 0.0
C1450 C 0.6305 0.10746 0.50774 0.0
C1451 C 0.5844 0.13625 0.5283 0.0
C1452 C 0.60025 0.12617 0.52139 0.0
H1453 H 0.68923 0.10502 0.49446 0.0
H1454 H 0.6633 0.12057 0.50749 0.0
H1455 H 0.61407 0.09486 0.48584 0.0
H1456 H 0.54094 0.13062 0.53141 0.0
H1457 H 0.56712 0.11386 0.52137 0.0
C1458 C 0.35129 0.45501 0.23884 0.0
C1459 C 0.33492 0.45341 0.24609 0.0
C1460 C 0.36271 0.44072 0.23508 0.0
C1461 C 0.37133 0.39816 0.24595 0.0
H1462 H 0.39644 0.38703 0.20178 0.0
C1463 C 0.40436 0.33125 0.21954 0.0
C1464 C 0.4209 0.33115 0.21208 0.0
C1465 C 0.39461 0.34668 0.22387 0.0
C1466 C 0.38968 0.39009 0.21426 0.0
H1467 H 0.31772 0.43558 0.2551 0.0
H1468 H 0.33746 0.41078 0.24842 0.0
H1469 H 0.37832 0.41329 0.20929 0.0
H1470 H 0.44009 0.34718 0.20315 0.0
H1471 H 0.42304 0.37416 0.21075 0.0
H1472 H 0.3825 0.37489 0.25085 0.0
C1473 C 0.34163 0.42308 0.24585 0.0
C1474 C 0.37932 0.40514 0.21858 0.0
C1475 C 0.33025 0.4373 0.24958 0.0
C1476 C 0.42739 0.34681 0.20887 0.0
C1477 C 0.4176 0.36225 0.21315 0.0
C1478 C 0.38164 0.38312 0.24163 0.0
C1479 C 0.35799 0.42459 0.23855 0.0
C1480 C 0.36986 0.40924 0.23438 0.0
C1481 C 0.40114 0.36238 0.2208 0.0
C1482 C 0.39078 0.3788 0.22565 0.0
H1483 H 0.35528 0.46725 0.23601 0.0
H1484 H 0.37528 0.44236 0.2296 0.0
H1485 H 0.36449 0.40112 0.25839 0.0
H1486 H 0.39895 0.31941 0.22214 0.0
H1487 H 0.38187 0.34628 0.2295 0.0
C1488 C 0.16025 0.46559 0.47635 0.0
C1489 C 0.14939 0.46022 0.48844 0.0
C1490 C 0.1538 0.46725 0.46018 0.0
C1491 C 0.11307 0.47252 0.43728 0.0
H1492 H 0.14063 0.45613 0.39511 0.0
C1493 C 0.08552 0.46736 0.36775 0.0
C1494 C 0.09622 0.47289 0.35564 0.0
C1495 C 0.09207 0.46581 0.38392 0.0
C1496 C 0.13285 0.46094 0.40679 0.0
H1497 H 0.12323 0.45239 0.49301 0.0
H1498 H 0.11203 0.45513 0.46474 0.0
H1499 H 0.15191 0.45354 0.42342 0.0
H1500 H 0.12225 0.48108 0.35103 0.0
H1501 H 0.13364 0.47849 0.3793 0.0
H1502 H 0.09399 0.47989 0.42065 0.0
C1503 C 0.12548 0.45828 0.46785 0.0
C1504 C 0.13932 0.45947 0.42302 0.0
C1505 C 0.13193 0.45662 0.48402 0.0
C1506 C 0.11366 0.47675 0.36004 0.0
C1507 C 0.12021 0.47518 0.3762 0.0
C1508 C 0.10659 0.47398 0.42105 0.0
C1509 C 0.13634 0.46359 0.45572 0.0
C1510 C 0.1295 0.46523 0.43846 0.0
C1511 C 0.10948 0.46973 0.38835 0.0
C1512 C 0.1164 0.4682 0.40561 0.0
H1513 H 0.17375 0.46852 0.47937 0.0
H1514 H 0.16246 0.4716 0.45124 0.0
H1515 H 0.10528 0.47734 0.44896 0.0
H1516 H 0.07205 0.46422 0.36477 0.0
H1517 H 0.08352 0.46135 0.39288 0.0
C1518 C 0.11687 0.53131 0.64067 0.0
C1519 C 0.09891 0.53248 0.64351 0.0
C1520 C 0.12393 0.53342 0.62489 0.0
C1521 C 0.11426 0.55167 0.58666 0.0
H1522 H 0.15108 0.52061 0.56425 0.0
C1523 C 0.13716 0.54838 0.5158 0.0
C1524 C 0.15506 0.5472 0.51259 0.0
C1525 C 0.1305 0.54683 0.53193 0.0
C1526 C 0.14094 0.52952 0.57044 0.0
H1527 H 0.0743 0.53682 0.63198 0.0
H1528 H 0.08659 0.54032 0.60443 0.0
H1529 H 0.13916 0.51755 0.59215 0.0
H1530 H 0.18 0.54347 0.52382 0.0
H1531 H 0.16837 0.54087 0.552 0.0
H1532 H 0.11599 0.56357 0.56489 0.0
C1533 C 0.09525 0.538 0.61448 0.0
C1534 C 0.13411 0.52778 0.58644 0.0
C1535 C 0.08819 0.53589 0.63025 0.0
C1536 C 0.16614 0.54441 0.52586 0.0
C1537 C 0.15947 0.54282 0.54198 0.0
C1538 C 0.12107 0.5534 0.57065 0.0
C1539 C 0.1132 0.53676 0.6116 0.0
C1540 C 0.12066 0.5388 0.59472 0.0
C1541 C 0.14157 0.54402 0.5452 0.0
C1542 C 0.13446 0.54231 0.56233 0.0
H1543 H 0.12551 0.52876 0.65064 0.0
H1544 H 0.13783 0.53261 0.62319 0.0
H1545 H 0.1041 0.56056 0.59282 0.0
H1546 H 0.12826 0.55048 0.50584 0.0
H1547 H 0.11663 0.54759 0.53391 0.0
C1548 C 0.80002 0.69751 0.43089 0.0
C1549 C 0.79202 0.69351 0.44553 0.0
C1550 C 0.80335 0.68432 0.41571 0.0
C1551 C 0.78837 0.64024 0.39238 0.0
H1552 H 0.82887 0.64118 0.36342 0.0
C1553 C 0.79939 0.58744 0.32817 0.0
C1554 C 0.80364 0.59379 0.31341 0.0
C1555 C 0.80023 0.59847 0.34509 0.0
C1556 C 0.81747 0.64079 0.37135 0.0
H1557 H 0.78178 0.6724 0.45595 0.0
H1558 H 0.78782 0.6493 0.42954 0.0
H1559 H 0.82617 0.66247 0.39181 0.0
H1560 H 0.81292 0.61646 0.30493 0.0
H1561 H 0.81432 0.63573 0.3345 0.0
H1562 H 0.77956 0.61874 0.37186 0.0
C1563 C 0.79123 0.66271 0.42967 0.0
C1564 C 0.8159 0.65299 0.3876 0.0
C1565 C 0.78785 0.67594 0.44485 0.0
C1566 C 0.80952 0.61117 0.31602 0.0
C1567 C 0.8104 0.6222 0.33297 0.0
C1568 C 0.78997 0.62802 0.37619 0.0
C1569 C 0.79882 0.66678 0.41483 0.0
C1570 C 0.80121 0.653 0.3982 0.0
C1571 C 0.80539 0.61607 0.34765 0.0
C1572 C 0.80444 0.62828 0.3654 0.0
H1573 H 0.8034 0.71092 0.43096 0.0
H1574 H 0.80898 0.68798 0.40447 0.0
H1575 H 0.77674 0.64004 0.40004 0.0
H1576 H 0.79492 0.57408 0.32665 0.0
H1577 H 0.79655 0.59328 0.35617 0.0
C1578 C 0.77998 0.32212 0.57247 0.0
C1579 C 0.76525 0.32266 0.56211 0.0
C1580 C 0.78187 0.33397 0.58885 0.0
C1581 C 0.75632 0.3618 0.62455 0.0
H1582 H 0.80118 0.38095 0.64119 0.0
C1583 C 0.7662 0.40902 0.69333 0.0
C1584 C 0.78066 0.40561 0.70286 0.0
C1585 C 0.76415 0.40031 0.6756 0.0
C1586 C 0.78858 0.37562 0.63677 0.0
H1587 H 0.74117 0.33641 0.56064 0.0
H1588 H 0.74455 0.35719 0.58925 0.0
H1589 H 0.79804 0.36358 0.61098 0.0
H1590 H 0.80431 0.39041 0.7012 0.0
H1591 H 0.80065 0.37519 0.67041 0.0
H1592 H 0.74693 0.37363 0.65045 0.0
C1593 C 0.75453 0.34745 0.58475 0.0
C1594 C 0.78678 0.36567 0.61946 0.0
C1595 C 0.75265 0.33561 0.56832 0.0
C1596 C 0.79303 0.39338 0.69425 0.0
C1597 C 0.79101 0.38474 0.67655 0.0
C1598 C 0.75812 0.37176 0.64188 0.0
C1599 C 0.76909 0.34664 0.59528 0.0
C1600 C 0.77069 0.35842 0.61322 0.0
C1601 C 0.77654 0.38809 0.66701 0.0
C1602 C 0.77433 0.37856 0.64826 0.0
H1603 H 0.78994 0.31232 0.56809 0.0
H1604 H 0.79314 0.33283 0.5967 0.0
H1605 H 0.74379 0.35622 0.62023 0.0
H1606 H 0.75644 0.41839 0.69956 0.0
H1607 H 0.75293 0.40329 0.66857 0.0
C1608 C 0.94436 0.89226 0.68045 0.0
C1609 C 0.957 0.90466 0.6881 0.0
C1610 C 0.92844 0.89772 0.67518 0.0
C1611 C 0.90699 0.93569 0.66389 0.0
H1612 H 0.86477 0.91334 0.67397 0.0
C1613 C 0.83958 0.96536 0.6587 0.0
C1614 C 0.82616 0.95381 0.65138 0.0
C1615 C 0.85561 0.95887 0.66237 0.0
C1616 C 0.87646 0.91957 0.67087 0.0
H1617 H 0.9628 0.93252 0.6962 0.0
H1618 H 0.93505 0.94201 0.68722 0.0
H1619 H 0.89264 0.90282 0.6818 0.0
H1620 H 0.81908 0.92636 0.64206 0.0
H1621 H 0.84713 0.91503 0.64839 0.0
H1622 H 0.8908 0.95254 0.65312 0.0
C1623 C 0.9375 0.92806 0.68505 0.0
C1624 C 0.89243 0.91353 0.67534 0.0
C1625 C 0.95339 0.92261 0.69031 0.0
C1626 C 0.82914 0.93561 0.64774 0.0
C1627 C 0.84518 0.92911 0.65145 0.0
C1628 C 0.89103 0.94173 0.65945 0.0
C1629 C 0.92483 0.9157 0.67742 0.0
C1630 C 0.90788 0.92162 0.67203 0.0
C1631 C 0.85859 0.94067 0.65882 0.0
C1632 C 0.87557 0.93383 0.663 0.0
H1633 H 0.94675 0.87833 0.67852 0.0
H1634 H 0.91903 0.88786 0.66918 0.0
H1635 H 0.91865 0.942 0.66087 0.0
H1636 H 0.83769 0.97945 0.6617 0.0
H1637 H 0.8656 0.96812 0.66826 0.0
C1638 C 0.5735 0.07431 0.16654 0.0
C1639 C 0.58123 0.0581 0.15856 0.0
C1640 C 0.57486 0.08855 0.15884 0.0
C1641 C 0.60177 0.10525 0.12749 0.0
H1642 H 0.56331 0.13705 0.12785 0.0
C1643 C 0.60396 0.15864 0.08881 0.0
C1644 C 0.59808 0.17548 0.09744 0.0
C1645 C 0.60109 0.14432 0.09605 0.0
C1646 C 0.57421 0.12837 0.12779 0.0
H1647 H 0.59612 0.04404 0.13605 0.0
H1648 H 0.59826 0.06877 0.12249 0.0
H1649 H 0.55977 0.11189 0.14072 0.0
H1650 H 0.58418 0.1904 0.12028 0.0
H1651 H 0.5792 0.16531 0.13298 0.0
H1652 H 0.6162 0.12166 0.11456 0.0
C1653 C 0.59142 0.07059 0.13487 0.0
C1654 C 0.57219 0.11396 0.13517 0.0
C1655 C 0.5901 0.05637 0.14259 0.0
C1656 C 0.58889 0.1776 0.11331 0.0
C1657 C 0.58597 0.16322 0.12054 0.0
C1658 C 0.60376 0.11959 0.12008 0.0
C1659 C 0.58394 0.0869 0.14297 0.0
C1660 C 0.58595 0.10221 0.13508 0.0
C1661 C 0.59224 0.14646 0.11208 0.0
C1662 C 0.59 0.1313 0.1201 0.0
H1663 H 0.5666 0.07609 0.17887 0.0
H1664 H 0.56911 0.10096 0.16554 0.0
H1665 H 0.61275 0.09669 0.12751 0.0
H1666 H 0.611 0.1565 0.07652 0.0
H1667 H 0.60584 0.13153 0.08906 0.0
C1668 C 0.05836 0.04751 0.57648 0.0
C1669 C 0.04465 0.04082 0.58466 0.0
C1670 C 0.07534 0.04196 0.57805 0.0
C1671 C 0.10234 0.02195 0.60691 0.0
H1672 H 0.1361 0.0175 0.56947 0.0
C1673 C 0.17114 0.99676 0.61359 0.0
C1674 C 0.18471 0.00675 0.60908 0.0
C1675 C 0.15409 0.99956 0.60911 0.0
C1676 C 0.12682 0.01878 0.58006 0.0
H1677 H 0.03791 0.02249 0.60026 0.0
H1678 H 0.06742 0.01246 0.60262 0.0
H1679 H 0.10606 0.02445 0.56422 0.0
H1680 H 0.19104 0.02708 0.5957 0.0
H1681 H 0.16117 0.03196 0.58784 0.0
H1682 H 0.12306 0.01626 0.62271 0.0
C1683 C 0.06515 0.02235 0.59538 0.0
C1684 C 0.10961 0.02279 0.57708 0.0
C1685 C 0.0482 0.02802 0.59393 0.0
C1686 C 0.18089 0.01919 0.59941 0.0
C1687 C 0.16379 0.02193 0.59483 0.0
C1688 C 0.11947 0.01782 0.60982 0.0
C1689 C 0.07898 0.02948 0.58773 0.0
C1690 C 0.09717 0.02451 0.59051 0.0
C1691 C 0.15019 0.01236 0.59993 0.0
C1692 C 0.13191 0.01626 0.59647 0.0
H1693 H 0.05607 0.05745 0.56928 0.0
H1694 H 0.08565 0.0479 0.57216 0.0
H1695 H 0.09324 0.02354 0.61769 0.0
H1696 H 0.1736 0.98699 0.62094 0.0
H1697 H 0.1439 0.99181 0.61298 0.0
C1698 C 0.32664 0.79802 0.10391 0.0
C1699 C 0.3182 0.78888 0.11484 0.0
C1700 C 0.33032 0.81591 0.10996 0.0
C1701 C 0.31411 0.85493 0.14173 0.0
H1702 H 0.35474 0.87714 0.12781 0.0
C1703 C 0.32203 0.93023 0.16004 0.0
C1704 C 0.32762 0.93764 0.14638 0.0
C1705 C 0.3231 0.9121 0.15829 0.0
C1706 C 0.34328 0.87114 0.13174 0.0
H1707 H 0.30785 0.79117 0.14104 0.0
H1708 H 0.31439 0.82239 0.15162 0.0
H1709 H 0.35301 0.84514 0.12119 0.0
H1710 H 0.33919 0.93186 0.12037 0.0
H1711 H 0.34083 0.90028 0.11723 0.0
H1712 H 0.30414 0.88084 0.15183 0.0
C1713 C 0.31792 0.81575 0.13828 0.0
C1714 C 0.34231 0.85281 0.12796 0.0
C1715 C 0.31427 0.79784 0.13224 0.0
C1716 C 0.33476 0.92659 0.13115 0.0
C1717 C 0.33582 0.90847 0.12939 0.0
C1718 C 0.31507 0.87324 0.14548 0.0
C1719 C 0.32563 0.82508 0.12707 0.0
C1720 C 0.32758 0.84449 0.13266 0.0
C1721 C 0.32978 0.90097 0.14283 0.0
C1722 C 0.32954 0.88157 0.14027 0.0
H1723 H 0.32989 0.79152 0.09045 0.0
H1724 H 0.33613 0.82271 0.10093 0.0
H1725 H 0.30246 0.84897 0.14529 0.0
H1726 H 0.31656 0.93838 0.172 0.0
H1727 H 0.31856 0.90678 0.16899 0.0
C1728 C 0.94796 0.07456 0.31768 0.0
C1729 C 0.95132 0.09264 0.32074 0.0
C1730 C 0.93219 0.06858 0.32266 0.0
C1731 C 0.88698 0.08214 0.33319 0.0
H1732 H 0.88627 0.04184 0.35358 0.0
C1733 C 0.82442 0.05795 0.36024 0.0
C1734 C 0.82169 0.0397 0.35603 0.0
C1735 C 0.84029 0.06485 0.35663 0.0
C1736 C 0.88624 0.05301 0.34776 0.0
H1737 H 0.94075 0.11866 0.33148 0.0
H1738 H 0.91322 0.10819 0.34032 0.0
H1739 H 0.91384 0.05317 0.34608 0.0
H1740 H 0.8335 0.01437 0.34477 0.0
H1741 H 0.86111 0.02641 0.33838 0.0
H1742 H 0.85935 0.08191 0.33481 0.0
C1743 C 0.92274 0.09864 0.33388 0.0
C1744 C 0.90204 0.05951 0.34346 0.0
C1745 C 0.93855 0.10463 0.3289 0.0
C1746 C 0.83519 0.0285 0.34822 0.0
C1747 C 0.85106 0.03539 0.34465 0.0
C1748 C 0.87117 0.07565 0.33751 0.0
C1749 C 0.91939 0.08053 0.33083 0.0
C1750 C 0.9026 0.07406 0.336 0.0
C1751 C 0.85379 0.05365 0.34878 0.0
C1752 C 0.87061 0.06093 0.34473 0.0
H1753 H 0.95748 0.06496 0.31136 0.0
H1754 H 0.92993 0.05455 0.31986 0.0
H1755 H 0.88695 0.09323 0.32726 0.0
H1756 H 0.81429 0.06694 0.36629 0.0
H1757 H 0.84205 0.07897 0.36015 0.0
C1758 C 0.30703 0.06911 0.82591 0.0
C1759 C 0.31895 0.06087 0.8348 0.0
C1760 C 0.3074 0.08732 0.82806 0.0
C1761 C 0.32191 0.12768 0.85961 0.0
H1762 H 0.31053 0.14971 0.82184 0.0
C1763 C 0.319 0.2029 0.87151 0.0
C1764 C 0.30408 0.20942 0.86506 0.0
C1765 C 0.32323 0.18507 0.86605 0.0
C1766 C 0.31369 0.14374 0.83253 0.0
H1767 H 0.34108 0.06523 0.85236 0.0
H1768 H 0.34187 0.09693 0.85589 0.0
H1769 H 0.31348 0.1178 0.81557 0.0
H1770 H 0.28242 0.20249 0.84709 0.0
H1771 H 0.28974 0.17145 0.83767 0.0
H1772 H 0.32181 0.15352 0.87662 0.0
C1773 C 0.33201 0.08937 0.84753 0.0
C1774 C 0.31535 0.12546 0.82895 0.0
C1775 C 0.3316 0.07118 0.84544 0.0
C1776 C 0.29398 0.1979 0.85238 0.0
C1777 C 0.29823 0.1801 0.84689 0.0
C1778 C 0.32029 0.14593 0.86317 0.0
C1779 C 0.31974 0.0977 0.83909 0.0
C1780 C 0.31924 0.11719 0.84251 0.0
C1781 C 0.31268 0.1734 0.85397 0.0
C1782 C 0.31594 0.15416 0.84973 0.0
H1783 H 0.29711 0.06157 0.81762 0.0
H1784 H 0.29763 0.09331 0.82152 0.0
H1785 H 0.32463 0.12176 0.87043 0.0
H1786 H 0.32712 0.21143 0.88122 0.0
H1787 H 0.3346 0.18036 0.87154 0.0
C1788 C 0.16717 0.00773 0.37906 0.0
C1789 C 0.18126 0.00052 0.38619 0.0
C1790 C 0.15023 0.00408 0.38319 0.0
C1791 C 0.12349 0.98816 0.41509 0.0
H1792 H 0.09129 0.9757 0.37608 0.0
C1793 C 0.05645 0.95715 0.42083 0.0
C1794 C 0.04261 0.96193 0.41135 0.0
C1795 C 0.07323 0.96299 0.41879 0.0
C1796 C 0.10001 0.97941 0.38719 0.0
H1797 H 0.18859 0.9842 0.40369 0.0
H1798 H 0.15891 0.97778 0.41089 0.0
H1799 H 0.1208 0.98384 0.3708 0.0
H1800 H 0.03544 0.97712 0.39275 0.0
H1801 H 0.06461 0.98757 0.38944 0.0
H1802 H 0.10265 0.98371 0.43147 0.0
C1803 C 0.16103 0.98634 0.40215 0.0
C1804 C 0.11695 0.98405 0.38414 0.0
C1805 C 0.17802 0.98995 0.39796 0.0
C1806 C 0.04583 0.97309 0.40016 0.0
C1807 C 0.06259 0.97899 0.39818 0.0
C1808 C 0.10648 0.98358 0.41815 0.0
C1809 C 0.14695 0.99316 0.39459 0.0
C1810 C 0.1289 0.98846 0.39804 0.0
C1811 C 0.07654 0.97381 0.40726 0.0
C1812 C 0.09453 0.97913 0.40422 0.0
H1813 H 0.16918 0.01602 0.37003 0.0
H1814 H 0.13967 0.00977 0.37738 0.0
H1815 H 0.13235 0.99167 0.42609 0.0
H1816 H 0.05441 0.94853 0.42953 0.0
H1817 H 0.08368 0.95858 0.42585 0.0
C1818 C 0.60002 0.83789 0.9147 0.0
C1819 C 0.59581 0.82057 0.90582 0.0
C1820 C 0.59583 0.85194 0.90748 0.0
C1821 C 0.58647 0.86216 0.86498 0.0
H1822 H 0.57298 0.90738 0.89458 0.0
C1823 C 0.57097 0.92174 0.83646 0.0
C1824 C 0.57846 0.93779 0.8453 0.0
C1825 C 0.57123 0.9073 0.84394 0.0
C1826 C 0.57682 0.89485 0.88616 0.0
H1827 H 0.58343 0.80449 0.88258 0.0
H1828 H 0.57591 0.8291 0.87003 0.0
H1829 H 0.57631 0.88227 0.90748 0.0
H1830 H 0.59183 0.95135 0.86909 0.0
H1831 H 0.59231 0.92616 0.88211 0.0
H1832 H 0.58714 0.8748 0.84369 0.0
C1833 C 0.58271 0.83176 0.88248 0.0
C1834 C 0.57875 0.88047 0.89354 0.0
C1835 C 0.58692 0.81767 0.88972 0.0
C1836 C 0.58594 0.93918 0.86193 0.0
C1837 C 0.58612 0.92477 0.86944 0.0
C1838 C 0.58449 0.87654 0.85758 0.0
C1839 C 0.58728 0.84906 0.8912 0.0
C1840 C 0.58384 0.864 0.8831 0.0
C1841 C 0.5789 0.90862 0.86048 0.0
C1842 C 0.57988 0.8931 0.86813 0.0
H1843 H 0.60688 0.84061 0.92712 0.0
H1844 H 0.59978 0.86503 0.91444 0.0
H1845 H 0.59065 0.84974 0.85658 0.0
H1846 H 0.56506 0.92024 0.82365 0.0
H1847 H 0.56539 0.89509 0.83679 0.0
C1848 C 0.91884 0.69351 0.83353 0.0
C1849 C 0.91184 0.69407 0.81713 0.0
C1850 C 0.90837 0.69649 0.8485 0.0
C1851 C 0.86709 0.71662 0.86674 0.0
H1852 H 0.87302 0.68733 0.89961 0.0
C1853 C 0.82151 0.72083 0.9263 0.0
C1854 C 0.82938 0.72011 0.94227 0.0
C1855 C 0.83109 0.71732 0.91068 0.0
C1856 C 0.87131 0.69574 0.89065 0.0
H1857 H 0.88833 0.69828 0.80361 0.0
H1858 H 0.87003 0.70339 0.82975 0.0
H1859 H 0.89068 0.68199 0.87308 0.0
H1860 H 0.85353 0.71517 0.95434 0.0
H1861 H 0.8702 0.70925 0.92722 0.0
H1862 H 0.84779 0.73044 0.88439 0.0
C1863 C 0.88367 0.7008 0.83105 0.0
C1864 C 0.88144 0.69267 0.87545 0.0
C1865 C 0.89414 0.69778 0.81606 0.0
C1866 C 0.84702 0.71577 0.94227 0.0
C1867 C 0.85658 0.71227 0.92668 0.0
C1868 C 0.85696 0.7197 0.88197 0.0
C1869 C 0.89065 0.70012 0.84743 0.0
C1870 C 0.87954 0.70315 0.86337 0.0
C1871 C 0.84874 0.713 0.91069 0.0
C1872 C 0.85904 0.70937 0.89417 0.0
H1873 H 0.93243 0.69074 0.83483 0.0
H1874 H 0.9142 0.69613 0.86097 0.0
H1875 H 0.86545 0.72505 0.85779 0.0
H1876 H 0.80794 0.72409 0.92583 0.0
H1877 H 0.82462 0.7178 0.89855 0.0
C1878 C 0.90996 0.29906 0.16976 0.0
C1879 C 0.90227 0.29901 0.18599 0.0
C1880 C 0.90006 0.29575 0.15438 0.0
C1881 C 0.85914 0.27563 0.13503 0.0
H1882 H 0.86689 0.30386 0.10148 0.0
C1883 C 0.81543 0.27086 0.07402 0.0
C1884 C 0.8238 0.27112 0.05816 0.0
C1885 C 0.82461 0.27449 0.08988 0.0
C1886 C 0.86468 0.29574 0.11062 0.0
H1887 H 0.87816 0.29532 0.19879 0.0
H1888 H 0.86088 0.28963 0.17194 0.0
H1889 H 0.88369 0.30959 0.12858 0.0
H1890 H 0.84842 0.27537 0.04656 0.0
H1891 H 0.86441 0.2815 0.07412 0.0
H1892 H 0.84017 0.26172 0.117 0.0
C1893 C 0.87459 0.29208 0.17109 0.0
C1894 C 0.87432 0.29902 0.12616 0.0
C1895 C 0.88449 0.29543 0.18648 0.0
C1896 C 0.84154 0.27511 0.05853 0.0
C1897 C 0.8507 0.27874 0.07437 0.0
C1898 C 0.84949 0.27233 0.11947 0.0
C1899 C 0.88225 0.29228 0.15486 0.0
C1900 C 0.87173 0.28895 0.1385 0.0
C1901 C 0.84236 0.27848 0.09024 0.0
C1902 C 0.85222 0.28228 0.10703 0.0
H1903 H 0.92363 0.30171 0.1689 0.0
H1904 H 0.90641 0.29574 0.14206 0.0
H1905 H 0.85698 0.2675 0.14417 0.0
H1906 H 0.80177 0.26786 0.07421 0.0
H1907 H 0.81776 0.27437 0.10191 0.0
C1908 C 0.08129 0.33781 0.94171 0.0
C1909 C 0.06804 0.335 0.95299 0.0
C1910 C 0.07732 0.34094 0.92534 0.0
C1911 C 0.04133 0.35196 0.89831 0.0
H1912 H 0.06804 0.32426 0.85945 0.0
C1913 C 0.01624 0.33078 0.827 0.0
C1914 C 0.02811 0.32892 0.81308 0.0
C1915 C 0.02187 0.33568 0.84446 0.0
C1916 C 0.06065 0.33238 0.87014 0.0
H1917 H 0.04023 0.33401 0.95625 0.0
H1918 H 0.03333 0.33914 0.92763 0.0
H1919 H 0.07663 0.32519 0.88946 0.0
H1920 H 0.05502 0.332 0.8066 0.0
H1921 H 0.06481 0.34072 0.83707 0.0
H1922 H 0.02499 0.35862 0.87883 0.0
C1923 C 0.04679 0.33917 0.93148 0.0
C1924 C 0.06559 0.33292 0.88738 0.0
C1925 C 0.05075 0.33609 0.94786 0.0
C1926 C 0.04556 0.33313 0.81701 0.0
C1927 C 0.05119 0.33805 0.83447 0.0
C1928 C 0.03637 0.3514 0.88102 0.0
C1929 C 0.06003 0.34128 0.91988 0.0
C1930 C 0.05581 0.34243 0.90168 0.0
C1931 C 0.03949 0.33887 0.84838 0.0
C1932 C 0.0458 0.34133 0.86673 0.0
H1933 H 0.09475 0.33721 0.94532 0.0
H1934 H 0.08783 0.3428 0.91683 0.0
H1935 H 0.03367 0.35964 0.90904 0.0
H1936 H 0.00268 0.3277 0.82444 0.0
H1937 H 0.01253 0.33606 0.85484 0.0
C1938 C 0.04069 0.66889 0.18272 0.0
C1939 C 0.05228 0.67209 0.19697 0.0
C1940 C 0.04682 0.66442 0.16543 0.0
C1941 C 0.08518 0.67122 0.14058 0.0
H1942 H 0.06067 0.64135 0.10131 0.0
C1943 C 0.10566 0.667 0.06903 0.0
C1944 C 0.09208 0.66867 0.05763 0.0
C1945 C 0.10217 0.66377 0.08546 0.0
C1946 C 0.06764 0.64976 0.11214 0.0
H1947 H 0.07934 0.67187 0.20423 0.0
H1948 H 0.09002 0.66389 0.17403 0.0
H1949 H 0.05209 0.64169 0.13139 0.0
H1950 H 0.06421 0.66754 0.05427 0.0
H1951 H 0.05814 0.66214 0.08294 0.0
H1952 H 0.10036 0.67974 0.12144 0.0
C1953 C 0.0762 0.66518 0.17625 0.0
C1954 C 0.06273 0.64994 0.12936 0.0
C1955 C 0.07007 0.66966 0.19355 0.0
C1956 C 0.07498 0.66638 0.06274 0.0
C1957 C 0.0715 0.66314 0.07915 0.0
C1958 C 0.09008 0.67104 0.12339 0.0
C1959 C 0.06468 0.66301 0.162 0.0
C1960 C 0.07122 0.66096 0.14377 0.0
C1961 C 0.08503 0.6621 0.09083 0.0
C1962 C 0.08113 0.6606 0.10897 0.0
H1963 H 0.02689 0.67058 0.18489 0.0
H1964 H 0.03759 0.66298 0.15479 0.0
H1965 H 0.09183 0.68008 0.15135 0.0
H1966 H 0.11899 0.66859 0.06545 0.0
H1967 H 0.1129 0.66282 0.09406 0.0
C1968 C 0.18578 0.38713 0.52482 0.0
C1969 C 0.1764 0.39537 0.53994 0.0
C1970 C 0.19085 0.3696 0.52202 0.0
C1971 C 0.19659 0.33339 0.5446 0.0
H1972 H 0.19507 0.30451 0.49679 0.0
C1973 C 0.20194 0.25711 0.52537 0.0
C1974 C 0.21272 0.2498 0.51098 0.0
C1975 C 0.19853 0.27516 0.52999 0.0
C1976 C 0.19571 0.31245 0.51019 0.0
H1977 H 0.16628 0.39196 0.56467 0.0
H1978 H 0.17409 0.36109 0.55933 0.0
H1979 H 0.1867 0.33525 0.50266 0.0
H1980 H 0.22876 0.25583 0.49049 0.0
H1981 H 0.22263 0.28724 0.49845 0.0
H1982 H 0.20513 0.31022 0.55205 0.0
C1983 C 0.17758 0.36818 0.5496 0.0
C1984 C 0.19097 0.33012 0.51357 0.0
C1985 C 0.17268 0.38581 0.55248 0.0
C1986 C 0.22038 0.261 0.50163 0.0
C1987 C 0.21681 0.27898 0.50611 0.0
C1988 C 0.20113 0.31562 0.54122 0.0
C1989 C 0.18661 0.35979 0.53424 0.0
C1990 C 0.19146 0.34088 0.5308 0.0
C1991 C 0.20565 0.2862 0.52016 0.0
C1992 C 0.20084 0.30503 0.52395 0.0
H1993 H 0.18907 0.3942 0.515 0.0
H1994 H 0.19818 0.36378 0.51027 0.0
H1995 H 0.19736 0.3413 0.558 0.0
H1996 H 0.19587 0.24885 0.53287 0.0
H1997 H 0.18983 0.28039 0.54084 0.0
C1998 C 0.1144 0.51494 0.72221 0.0
C1999 C 0.10198 0.505 0.72858 0.0
C2000 C 0.13187 0.51029 0.72171 0.0
C2001 C 0.163 0.4871 0.7433 0.0
H2002 H 0.19326 0.49188 0.70529 0.0
C2003 C 0.23602 0.47182 0.74367 0.0
C2004 C 0.24706 0.48423 0.73909 0.0
C2005 C 0.2182 0.47231 0.74077 0.0
C2006 C 0.18499 0.49057 0.71605 0.0
H2007 H 0.09805 0.48244 0.73944 0.0
H2008 H 0.12859 0.47422 0.73847 0.0
H2009 H 0.16219 0.49633 0.703 0.0
H2010 H 0.24802 0.50664 0.72748 0.0
H2011 H 0.21701 0.50759 0.72261 0.0
H2012 H 0.18579 0.48171 0.75652 0.0
C2013 C 0.12483 0.48562 0.73389 0.0
C2014 C 0.1672 0.49311 0.71473 0.0
C2015 C 0.10736 0.49028 0.73438 0.0
C2016 C 0.23991 0.49687 0.73117 0.0
C2017 C 0.22213 0.49735 0.72826 0.0
C2018 C 0.18079 0.48457 0.74462 0.0
C2019 C 0.13731 0.49569 0.72772 0.0
C2020 C 0.15603 0.49164 0.72845 0.0
C2021 C 0.21104 0.4852 0.73319 0.0
C2022 C 0.19202 0.48651 0.73112 0.0
H2023 H 0.11079 0.52679 0.71841 0.0
H2024 H 0.14119 0.51857 0.71727 0.0
H2025 H 0.1548 0.48612 0.75422 0.0
H2026 H 0.2411 0.46185 0.74972 0.0
H2027 H 0.21003 0.46263 0.74452 0.0
C2028 C 0.74475 0.92241 0.55429 0.0
C2029 C 0.75946 0.93319 0.55604 0.0
C2030 C 0.74649 0.90418 0.55149 0.0
C2031 C 0.77821 0.86929 0.53401 0.0
H2032 H 0.74769 0.83981 0.55363 0.0
C2033 C 0.79139 0.7957 0.5241 0.0
C2034 C 0.77727 0.78423 0.51946 0.0
C2035 C 0.78879 0.81377 0.52992 0.0
C2036 C 0.75622 0.84788 0.54795 0.0
H2037 H 0.78746 0.93355 0.55766 0.0
H2038 H 0.79048 0.90192 0.55323 0.0
H2039 H 0.7439 0.87173 0.56185 0.0
H2040 H 0.74927 0.78277 0.51779 0.0
H2041 H 0.74476 0.81445 0.52784 0.0
H2042 H 0.79047 0.8456 0.52004 0.0
C2043 C 0.77761 0.90741 0.55342 0.0
C2044 C 0.75405 0.86614 0.55265 0.0
C2045 C 0.77587 0.92556 0.55613 0.0
C2046 C 0.76044 0.79124 0.52123 0.0
C2047 C 0.75784 0.80938 0.52707 0.0
C2048 C 0.78038 0.85112 0.52935 0.0
C2049 C 0.76298 0.89645 0.55056 0.0
C2050 C 0.7651 0.87705 0.54579 0.0
C2051 C 0.77202 0.82086 0.53125 0.0
C2052 C 0.76948 0.84019 0.53631 0.0
H2053 H 0.73193 0.92801 0.555 0.0
H2054 H 0.73494 0.89613 0.54948 0.0
H2055 H 0.78668 0.87727 0.52814 0.0
H2056 H 0.80452 0.79075 0.52305 0.0
H2057 H 0.79997 0.82224 0.53334 0.0
C2058 C 0.77104 0.45639 0.80872 0.0
C2059 C 0.78217 0.45219 0.79411 0.0
C2060 C 0.75364 0.46013 0.80665 0.0
C2061 C 0.71865 0.4517 0.77441 0.0
H2062 H 0.69585 0.49009 0.80732 0.0
C2063 C 0.64617 0.46688 0.76788 0.0
C2064 C 0.63655 0.47143 0.78357 0.0
C2065 C 0.66421 0.46592 0.76836 0.0
C2066 C 0.70197 0.4792 0.79812 0.0
H2067 H 0.78395 0.45006 0.76605 0.0
H2068 H 0.75335 0.45587 0.76231 0.0
H2069 H 0.72692 0.48589 0.80968 0.0
H2070 H 0.63838 0.47861 0.81205 0.0
H2071 H 0.66971 0.47652 0.8129 0.0
H2072 H 0.69369 0.44462 0.76317 0.0
C2073 C 0.7581 0.45592 0.77532 0.0
C2074 C 0.71978 0.47685 0.79944 0.0
C2075 C 0.77559 0.45235 0.77743 0.0
C2076 C 0.64539 0.47516 0.79972 0.0
C2077 C 0.6634 0.47407 0.8002 0.0
C2078 C 0.7008 0.45395 0.77317 0.0
C2079 C 0.74694 0.45975 0.78991 0.0
C2080 C 0.72827 0.46296 0.78773 0.0
C2081 C 0.67305 0.46937 0.78453 0.0
C2082 C 0.6922 0.46761 0.78514 0.0
H2083 H 0.77572 0.45645 0.82177 0.0
H2084 H 0.74531 0.46291 0.81812 0.0
H2085 H 0.72484 0.44077 0.76532 0.0
H2086 H 0.63976 0.46402 0.75521 0.0
H2087 H 0.67123 0.46252 0.75603 0.0
C2088 C 0.18744 0.74975 0.47476 0.0
C2089 C 0.20437 0.75554 0.47952 0.0
C2090 C 0.18372 0.73182 0.46937 0.0
C2091 C 0.20354 0.68763 0.45418 0.0
H2092 H 0.16287 0.67262 0.47552 0.0
C2093 C 0.19211 0.61566 0.45707 0.0
C2094 C 0.17516 0.60906 0.4547 0.0
C2095 C 0.19542 0.63337 0.45806 0.0
C2096 C 0.17412 0.67657 0.46921 0.0
H2097 H 0.2308 0.747 0.48161 0.0
H2098 H 0.22426 0.71573 0.47238 0.0
H2099 H 0.16916 0.70379 0.48043 0.0
H2100 H 0.14833 0.61603 0.45223 0.0
H2101 H 0.15413 0.64678 0.45333 0.0
H2102 H 0.20863 0.66031 0.44321 0.0
C2103 C 0.21388 0.72505 0.47267 0.0
C2104 C 0.17773 0.69447 0.47202 0.0
C2105 C 0.21762 0.743 0.47805 0.0
C2106 C 0.16158 0.62054 0.45338 0.0
C2107 C 0.16489 0.63826 0.45436 0.0
C2108 C 0.19993 0.66969 0.45136 0.0
C2109 C 0.19682 0.71925 0.46863 0.0
C2110 C 0.19255 0.70022 0.46467 0.0
C2111 C 0.18183 0.64491 0.45683 0.0
C2112 C 0.18525 0.66396 0.45897 0.0
H2113 H 0.17694 0.75904 0.4756 0.0
H2114 H 0.1705 0.72779 0.46603 0.0
H2115 H 0.21495 0.69163 0.44815 0.0
H2116 H 0.20282 0.60713 0.45827 0.0
H2117 H 0.20859 0.63811 0.46025 0.0
C2118 C 0.61935 0.52067 0.17487 0.0
C2119 C 0.60876 0.51821 0.18865 0.0
C2120 C 0.63725 0.52237 0.17708 0.0
C2121 C 0.67359 0.51402 0.20449 0.0
H2122 H 0.69514 0.55317 0.19066 0.0
C2123 C 0.73965 0.54243 0.23119 0.0
C2124 C 0.75049 0.54962 0.22036 0.0
C2125 C 0.72325 0.53612 0.22542 0.0
C2126 C 0.68945 0.54196 0.19429 0.0
H2127 H 0.60874 0.51512 0.21541 0.0
H2128 H 0.63998 0.51811 0.21927 0.0
H2129 H 0.66473 0.54675 0.18411 0.0
H2130 H 0.75292 0.55493 0.19457 0.0
H2131 H 0.72441 0.54358 0.18436 0.0
H2132 H 0.69828 0.50933 0.21483 0.0
C2133 C 0.63443 0.51863 0.20671 0.0
C2134 C 0.67199 0.53831 0.19057 0.0
C2135 C 0.61651 0.51704 0.20455 0.0
C2136 C 0.74485 0.54961 0.2033 0.0
C2137 C 0.72846 0.5432 0.19749 0.0
C2138 C 0.6911 0.51761 0.20812 0.0
C2139 C 0.64496 0.52153 0.19308 0.0
C2140 C 0.66381 0.52448 0.19586 0.0
C2141 C 0.71731 0.53675 0.20863 0.0
C2142 C 0.69918 0.5318 0.20331 0.0
H2143 H 0.61381 0.52158 0.16242 0.0
H2144 H 0.64506 0.52441 0.16628 0.0
H2145 H 0.66768 0.50312 0.2085 0.0
H2146 H 0.74357 0.54225 0.24442 0.0
H2147 H 0.71497 0.53144 0.23444 0.0
C2148 C 0.74293 0.09013 0.44418 0.0
C2149 C 0.75897 0.08149 0.44153 0.0
C2150 C 0.74214 0.1085 0.44887 0.0
C2151 C 0.76921 0.14701 0.46886 0.0
H2152 H 0.73384 0.1734 0.4514 0.0
C2153 C 0.77254 0.22202 0.48089 0.0
C2154 C 0.75727 0.23152 0.48633 0.0
C2155 C 0.77214 0.20377 0.47484 0.0
C2156 C 0.74369 0.16617 0.45649 0.0
H2157 H 0.78669 0.08525 0.4405 0.0
H2158 H 0.78533 0.11719 0.4482 0.0
H2159 H 0.73429 0.14134 0.44147 0.0
H2160 H 0.72952 0.22927 0.4893 0.0
H2161 H 0.72886 0.19728 0.4787 0.0
H2162 H 0.77869 0.17176 0.48378 0.0
C2163 C 0.77336 0.10985 0.44728 0.0
C2164 C 0.74395 0.14783 0.45083 0.0
C2165 C 0.77414 0.09155 0.44269 0.0
C2166 C 0.74152 0.22235 0.48524 0.0
C2167 C 0.74112 0.20404 0.47909 0.0
C2168 C 0.769 0.16529 0.47444 0.0
C2169 C 0.75739 0.11857 0.45079 0.0
C2170 C 0.7568 0.13804 0.45686 0.0
C2171 C 0.75646 0.19456 0.47401 0.0
C2172 C 0.75631 0.17509 0.46825 0.0
H2173 H 0.73099 0.08274 0.44258 0.0
H2174 H 0.72961 0.11478 0.45137 0.0
H2175 H 0.77904 0.13988 0.4741 0.0
H2176 H 0.78489 0.22864 0.48146 0.0
H2177 H 0.78414 0.19685 0.47076 0.0
C2178 C 0.23703 0.52671 0.25227 0.0
C2179 C 0.24884 0.51584 0.25824 0.0
C2180 C 0.21928 0.5253 0.25505 0.0
C2181 C 0.18699 0.49368 0.263 0.0
H2182 H 0.15682 0.53431 0.27499 0.0
C2183 C 0.11455 0.48657 0.2763 0.0
C2184 C 0.10312 0.49641 0.26859 0.0
C2185 C 0.1323 0.48998 0.27675 0.0
C2186 C 0.16507 0.52283 0.27152 0.0
H2187 H 0.25126 0.49533 0.27231 0.0
H2188 H 0.22037 0.493 0.27727 0.0
H2189 H 0.18797 0.53844 0.27261 0.0
H2190 H 0.10127 0.51745 0.25523 0.0
H2191 H 0.13231 0.52328 0.2558 0.0
H2192 H 0.16418 0.47805 0.26164 0.0
C2193 C 0.22481 0.50243 0.2702 0.0
C2194 C 0.1829 0.5252 0.27016 0.0
C2195 C 0.24253 0.50384 0.26743 0.0
C2196 C 0.10978 0.50978 0.26142 0.0
C2197 C 0.12754 0.5132 0.26186 0.0
C2198 C 0.1692 0.49132 0.26435 0.0
C2199 C 0.21296 0.51297 0.26385 0.0
C2200 C 0.19406 0.51063 0.26583 0.0
C2201 C 0.13903 0.50318 0.26934 0.0
C2202 C 0.15801 0.50585 0.26857 0.0
H2203 H 0.24145 0.5361 0.24515 0.0
H2204 H 0.21048 0.5335 0.24986 0.0
H2205 H 0.19518 0.48216 0.25932 0.0
H2206 H 0.10994 0.47572 0.28129 0.0
H2207 H 0.14078 0.48208 0.28268 0.0
C2208 C 0.49309 0.25411 0.24825 0.0
C2209 C 0.48442 0.26922 0.2462 0.0
C2210 C 0.49887 0.25293 0.2648 0.0
C2211 C 0.48727 0.26968 0.311 0.0
H2212 H 0.52735 0.24294 0.31893 0.0
C2213 C 0.49637 0.25061 0.37668 0.0
C2214 C 0.50024 0.23277 0.37497 0.0
C2215 C 0.49811 0.25809 0.36231 0.0
C2216 C 0.51611 0.25045 0.31692 0.0
H2217 H 0.47615 0.29546 0.25976 0.0
H2218 H 0.48636 0.29342 0.28865 0.0
H2219 H 0.52412 0.25098 0.29089 0.0
H2220 H 0.5099 0.20907 0.35706 0.0
H2221 H 0.51268 0.222 0.33203 0.0
H2222 H 0.47885 0.26856 0.33666 0.0
C2223 C 0.48843 0.28238 0.27747 0.0
C2224 C 0.51427 0.25506 0.30088 0.0
C2225 C 0.48266 0.28357 0.26089 0.0
C2226 C 0.50673 0.22283 0.35884 0.0
C2227 C 0.50846 0.2303 0.34448 0.0
C2228 C 0.48909 0.26505 0.32701 0.0
C2229 C 0.49613 0.26684 0.27969 0.0
C2230 C 0.4996 0.26433 0.29757 0.0
C2231 C 0.50378 0.2479 0.34592 0.0
C2232 C 0.50329 0.25498 0.32999 0.0
H2233 H 0.49474 0.24283 0.23722 0.0
H2234 H 0.50462 0.24072 0.26605 0.0
H2235 H 0.47568 0.27659 0.30881 0.0
H2236 H 0.49147 0.25868 0.38896 0.0
H2237 H 0.49464 0.27176 0.36392 0.0
C2238 C 0.4911 0.75357 0.62935 0.0
C2239 C 0.50032 0.76841 0.6274 0.0
C2240 C 0.49391 0.74666 0.64393 0.0
C2241 C 0.5079 0.76125 0.68977 0.0
H2242 H 0.50326 0.71191 0.68908 0.0
C2243 C 0.50309 0.73956 0.75429 0.0
C2244 C 0.48915 0.72824 0.75496 0.0
C2245 C 0.50878 0.74214 0.73818 0.0
C2246 C 0.50459 0.72573 0.68948 0.0
H2247 H 0.52052 0.78694 0.63871 0.0
H2248 H 0.52551 0.77476 0.66408 0.0
H2249 H 0.50547 0.72077 0.66136 0.0
H2250 H 0.47107 0.70983 0.7391 0.0
H2251 H 0.48079 0.71451 0.71112 0.0
H2252 H 0.50635 0.76634 0.71777 0.0
C2253 C 0.51589 0.76867 0.65446 0.0
C2254 C 0.50585 0.73081 0.67362 0.0
C2255 C 0.51308 0.7756 0.63988 0.0
C2256 C 0.48179 0.7187 0.73909 0.0
C2257 C 0.48745 0.72131 0.72299 0.0
C2258 C 0.50663 0.75618 0.7056 0.0
C2259 C 0.50602 0.7544 0.65689 0.0
C2260 C 0.50711 0.74867 0.67358 0.0
C2261 C 0.50064 0.73347 0.72239 0.0
C2262 C 0.50454 0.73841 0.70565 0.0
H2263 H 0.48122 0.74767 0.61996 0.0
H2264 H 0.48596 0.73578 0.64546 0.0
H2265 H 0.50859 0.77513 0.69024 0.0
H2266 H 0.50916 0.747 0.76626 0.0
H2267 H 0.51918 0.75136 0.73814 0.0
C2268 C 0.48478 0.79865 0.37619 0.0
C2269 C 0.48553 0.81523 0.38808 0.0
C2270 C 0.47933 0.797 0.35886 0.0
C2271 C 0.47612 0.82132 0.32467 0.0
H2272 H 0.44203 0.78615 0.30379 0.0
C2273 C 0.44595 0.81896 0.25692 0.0
C2274 C 0.44269 0.80243 0.24557 0.0
C2275 C 0.45102 0.82041 0.27432 0.0
C2276 C 0.45175 0.79587 0.3093 0.0
H2277 H 0.48203 0.84317 0.39096 0.0
H2278 H 0.47241 0.84031 0.36068 0.0
H2279 H 0.4514 0.78883 0.33405 0.0
H2280 H 0.44106 0.77454 0.24405 0.0
H2281 H 0.45086 0.7769 0.27404 0.0
H2282 H 0.47682 0.82817 0.29992 0.0
C2283 C 0.47582 0.82857 0.36484 0.0
C2284 C 0.45706 0.79744 0.32667 0.0
C2285 C 0.48109 0.83018 0.38222 0.0
C2286 C 0.44423 0.78739 0.25215 0.0
C2287 C 0.44946 0.78881 0.26953 0.0
C2288 C 0.47096 0.81964 0.30725 0.0
C2289 C 0.47482 0.81195 0.353 0.0
C2290 C 0.46924 0.81022 0.33455 0.0
C2291 C 0.453 0.80535 0.28083 0.0
C2292 C 0.45865 0.80694 0.29934 0.0
H2293 H 0.48822 0.78691 0.38036 0.0
H2294 H 0.47888 0.78406 0.34997 0.0
H2295 H 0.48571 0.83113 0.33033 0.0
H2296 H 0.44469 0.83084 0.25232 0.0
H2297 H 0.45323 0.8334 0.28271 0.0
C2298 C 0.48047 0.19681 0.61835 0.0
C2299 C 0.4823 0.17989 0.60729 0.0
C2300 C 0.47502 0.19907 0.63576 0.0
C2301 C 0.4741 0.17694 0.67174 0.0
H2302 H 0.43872 0.21112 0.69144 0.0
C2303 C 0.44736 0.1832 0.74163 0.0
C2304 C 0.44406 0.20018 0.75201 0.0
C2305 C 0.45125 0.1805 0.72376 0.0
C2306 C 0.44878 0.20168 0.68624 0.0
H2307 H 0.48063 0.15205 0.60597 0.0
H2308 H 0.47097 0.15597 0.63639 0.0
H2309 H 0.44716 0.20689 0.66069 0.0
H2310 H 0.44088 0.22744 0.7514 0.0
H2311 H 0.44861 0.22297 0.72053 0.0
H2312 H 0.4761 0.17198 0.69728 0.0
C2313 C 0.47355 0.16749 0.63151 0.0
C2314 C 0.45356 0.19923 0.66859 0.0
C2315 C 0.47884 0.16525 0.61404 0.0
C2316 C 0.44417 0.21434 0.744 0.0
C2317 C 0.4482 0.21168 0.72615 0.0
C2318 C 0.46945 0.17951 0.68942 0.0
C2319 C 0.47156 0.18442 0.64254 0.0
C2320 C 0.46627 0.18684 0.66117 0.0
C2321 C 0.45195 0.19473 0.71582 0.0
C2322 C 0.45673 0.19191 0.69691 0.0
H2323 H 0.48314 0.20833 0.61348 0.0
H2324 H 0.4738 0.21227 0.64402 0.0
H2325 H 0.48411 0.16747 0.66644 0.0
H2326 H 0.44717 0.17198 0.74737 0.0
H2327 H 0.45365 0.16722 0.71616 0.0
C2328 C 0.95846 0.73449 0.73186 0.0
C2329 C 0.95877 0.7316 0.74887 0.0
C2330 C 0.96615 0.74948 0.72852 0.0
C2331 C 0.00015 0.78177 0.74479 0.0
H2332 H 0.97618 0.81089 0.71895 0.0
C2333 C 0.02791 0.84839 0.74004 0.0
C2334 C 0.02577 0.85354 0.72424 0.0
C2335 C 0.01935 0.83362 0.74277 0.0
C2336 C 0.98317 0.80278 0.72597 0.0
H2337 H 0.9677 0.74206 0.77563 0.0
H2338 H 0.98133 0.76803 0.76972 0.0
H2339 H 0.96199 0.78474 0.72397 0.0
H2340 H 0.0135 0.84691 0.69863 0.0
H2341 H 0.99871 0.82093 0.70322 0.0
H2342 H 0.02146 0.79942 0.74653 0.0
C2343 C 0.97501 0.75877 0.75901 0.0
C2344 C 0.975 0.78783 0.72888 0.0
C2345 C 0.96717 0.7439 0.76239 0.0
C2346 C 0.01499 0.84354 0.71114 0.0
C2347 C 0.00656 0.82862 0.71377 0.0
C2348 C 0.00839 0.79657 0.74172 0.0
C2349 C 0.97461 0.7617 0.74205 0.0
C2350 C 0.98336 0.77728 0.73846 0.0
C2351 C 0.00866 0.82344 0.72962 0.0
C2352 C -4e-05 0.80739 0.73242 0.0
H2353 H 0.95286 0.72493 0.72098 0.0
H2354 H 0.96593 0.75126 0.71525 0.0
H2355 H 0.00702 0.77371 0.75197 0.0
H2356 H 0.0361 0.8559 0.7504 0.0
H2357 H 0.02104 0.83028 0.75527 0.0
C2358 C 0.6638 0.2622 0.06729 0.0
C2359 C 0.65101 0.24934 0.06154 0.0
C2360 C 0.67822 0.26312 0.05679 0.0
C2361 C 0.7037 0.23567 0.02038 0.0
H2362 H 0.72396 0.28009 0.0176 0.0
C2363 C 0.75808 0.23999 0.97138 0.0
C2364 C 0.77194 0.25134 0.9777 0.0
C2365 C 0.74326 0.24013 0.9816 0.0
C2366 C 0.71854 0.26758 0.01839 0.0
H2367 H 0.64307 0.22779 0.03991 0.0
H2368 H 0.66801 0.22961 0.0215 0.0
H2369 H 0.69786 0.2799 0.03511 0.0
H2370 H 0.78072 0.27244 0.99929 0.0
H2371 H 0.755 0.27243 0.01737 0.0
H2372 H 0.72431 0.22336 0.00363 0.0
C2373 C 0.6671 0.23874 0.0343 0.0
C2374 C 0.70359 0.26747 0.02842 0.0
C2375 C 0.65273 0.23777 0.04482 0.0
C2376 C 0.77053 0.26312 0.99431 0.0
C2377 C 0.75566 0.26332 0.00453 0.0
C2378 C 0.71858 0.23579 0.01032 0.0
C2379 C 0.68016 0.25124 0.04027 0.0
C2380 C 0.69597 0.2515 0.02951 0.0
C2381 C 0.7419 0.25176 0.99832 0.0
C2382 C 0.72616 0.25174 0.00919 0.0
H2383 H 0.6629 0.27129 0.08012 0.0
H2384 H 0.68811 0.27281 0.06187 0.0
H2385 H 0.69841 0.22313 0.02122 0.0
H2386 H 0.75874 0.23086 0.95855 0.0
H2387 H 0.73278 0.23125 0.97632 0.0
C2388 C 0.97751 0.11885 0.64795 0.0
C2389 C 0.98813 0.11327 0.63306 0.0
C2390 C 0.97967 0.13553 0.65922 0.0
C2391 C 0.01102 0.17207 0.6719 0.0
H2392 H 0.97029 0.19986 0.68898 0.0
C2393 C 0.0158 0.23925 0.72183 0.0
C2394 C 0.00523 0.25283 0.7189 0.0
C2395 C 0.01341 0.22196 0.71213 0.0
C2396 C 0.9818 0.1923 0.68423 0.0
H2397 H 0.00949 0.12079 0.61848 0.0
H2398 H 0.01311 0.14985 0.638 0.0
H2399 H 0.96697 0.17014 0.67053 0.0
H2400 H 0.98375 0.25884 0.70356 0.0
H2401 H 0.97976 0.22867 0.68643 0.0
H2402 H 0.02585 0.19436 0.68515 0.0
C2403 C 0.00325 0.14128 0.6411 0.0
C2404 C 0.97989 0.17519 0.67384 0.0
C2405 C 0.00111 0.12463 0.62985 0.0
C2406 C 0.9921 0.24868 0.70616 0.0
C2407 C 0.98974 0.23137 0.69642 0.0
C2408 C 0.01293 0.18916 0.68227 0.0
C2409 C 0.99249 0.14697 0.65586 0.0
C2410 C 0.99449 0.16491 0.66747 0.0
C2411 C 0.00044 0.21783 0.69922 0.0
C2412 C 0.99834 0.19952 0.6885 0.0
H2413 H 0.96742 0.11041 0.65084 0.0
H2414 H 0.97132 0.13943 0.67061 0.0
H2415 H 0.02253 0.16443 0.66736 0.0
H2416 H 0.02597 0.24194 0.73162 0.0
H2417 H 0.02171 0.2118 0.71481 0.0
C2418 C 0.13072 0.72298 0.99983 0.0
C2419 C 0.11993 0.70817 0.99536 0.0
C2420 C 0.14557 0.7228 0.00992 0.0
C2421 C 0.18108 0.71584 0.02289 0.0
H2422 H 0.17952 0.69461 0.06263 0.0
C2423 C 0.24173 0.71289 0.06446 0.0
C2424 C 0.23948 0.71755 0.08282 0.0
C2425 C 0.22743 0.70955 0.05323 0.0
C2426 C 0.18015 0.70064 0.05161 0.0
H2427 H 0.11681 0.68119 0.99698 0.0
H2428 H 0.14272 0.68087 0.01471 0.0
H2429 H 0.15396 0.69365 0.04414 0.0
H2430 H 0.22044 0.7217 0.10376 0.0
H2431 H 0.19551 0.71615 0.08419 0.0
H2432 H 0.207 0.72339 0.03066 0.0
C2433 C 0.13941 0.6928 0.01086 0.0
C2434 C 0.16556 0.69992 0.0409 0.0
C2435 C 0.12451 0.69302 0.0008 0.0
C2436 C 0.22264 0.71813 0.08969 0.0
C2437 C 0.20833 0.71486 0.07845 0.0
C2438 C 0.19563 0.71657 0.03359 0.0
C2439 C 0.15008 0.70773 0.01561 0.0
C2440 C 0.16581 0.70769 0.02652 0.0
C2441 C 0.21054 0.71087 0.06008 0.0
C2442 C 0.19532 0.70911 0.04817 0.0
H2443 H 0.12751 0.73484 0.9958 0.0
H2444 H 0.15336 0.73459 0.01352 0.0
H2445 H 0.1818 0.72174 0.01178 0.0
H2446 H 0.25453 0.71217 0.05872 0.0
H2447 H 0.22962 0.70617 0.03916 0.0
C2448 C 0.94661 0.262 0.27529 0.0
C2449 C 0.947 0.26422 0.25804 0.0
C2450 C 0.95411 0.2472 0.27924 0.0
C2451 C 0.97082 0.20242 0.25799 0.0
H2452 H 0.99535 0.20772 0.30214 0.0
C2453 C 0.01968 0.15139 0.27071 0.0
C2454 C 0.0182 0.14652 0.28673 0.0
C2455 C 0.0099 0.16529 0.26761 0.0
C2456 C 0.98839 0.20602 0.28984 0.0
H2457 H 0.95601 0.25281 0.2315 0.0
H2458 H 0.96955 0.22741 0.23843 0.0
H2459 H 0.98035 0.23289 0.29598 0.0
H2460 H 0.00591 0.15279 0.31236 0.0
H2461 H 0.98882 0.1772 0.30696 0.0
H2462 H 0.97944 0.17567 0.25168 0.0
C2463 C 0.96294 0.23674 0.24886 0.0
C2464 C 0.97973 0.22042 0.28631 0.0
C2465 C 0.95531 0.25143 0.2449 0.0
C2466 C 0.00697 0.15599 0.29972 0.0
C2467 C 0.99736 0.17007 0.29672 0.0
C2468 C 0.97966 0.18811 0.26144 0.0
C2469 C 0.96242 0.23438 0.26607 0.0
C2470 C 0.97094 0.21886 0.27026 0.0
C2471 C 0.99868 0.17481 0.2806 0.0
C2472 C 0.98864 0.18979 0.27734 0.0
H2473 H 0.941 0.27188 0.28589 0.0
H2474 H 0.95339 0.24583 0.29263 0.0
H2475 H 0.9639 0.20058 0.24567 0.0
H2476 H 0.0283 0.14436 0.2605 0.0
H2477 H 0.01133 0.16879 0.25515 0.0
C2478 C 0.13457 0.27751 0.00191 0.0
C2479 C 0.12418 0.29254 0.00719 0.0
C2480 C 0.14956 0.27788 0.99206 0.0
C2481 C 0.18541 0.28447 0.97979 0.0
H2482 H 0.18544 0.30928 0.94268 0.0
C2483 C 0.24685 0.28809 0.93956 0.0
C2484 C 0.24474 0.28523 0.92127 0.0
C2485 C 0.23253 0.29115 0.95077 0.0
C2486 C 0.18563 0.30223 0.95294 0.0
H2487 H 0.12188 0.32005 0.00722 0.0
H2488 H 0.14804 0.32074 0.98997 0.0
H2489 H 0.15962 0.30975 0.96066 0.0
H2490 H 0.22594 0.28399 0.90046 0.0
H2491 H 0.20093 0.28897 0.91995 0.0
H2492 H 0.21111 0.27634 0.97169 0.0
C2493 C 0.14433 0.3085 0.99297 0.0
C2494 C 0.17089 0.30267 0.96339 0.0
C2495 C 0.12928 0.30809 0.00278 0.0
C2496 C 0.22803 0.28617 0.9145 0.0
C2497 C 0.21368 0.28911 0.9257 0.0
C2498 C 0.2001 0.28398 0.96932 0.0
C2499 C 0.15463 0.29337 0.98744 0.0
C2500 C 0.17054 0.29364 0.97683 0.0
C2501 C 0.21573 0.2913 0.94395 0.0
C2502 C 0.20037 0.29274 0.95567 0.0
H2503 H 0.13094 0.26534 0.00513 0.0
H2504 H 0.15702 0.26592 0.98783 0.0
H2505 H 0.18571 0.27759 0.99019 0.0
H2506 H 0.25956 0.28762 0.94524 0.0
H2507 H 0.23463 0.29315 0.96478 0.0
C2508 C 0.99898 0.87608 0.37134 0.0
C2509 C 0.98757 0.88806 0.36656 0.0
C2510 C 0.00081 0.85909 0.36072 0.0
C2511 C 0.97836 0.82589 0.32652 0.0
H2512 H 0.02376 0.80439 0.31898 0.0
C2513 C 0.98851 0.75187 0.29459 0.0
C2514 C 0.00223 0.74738 0.28255 0.0
C2515 C 0.9865 0.76917 0.30452 0.0
C2516 C 0.011 0.81024 0.32085 0.0
H2517 H 0.96929 0.89161 0.3467 0.0
H2518 H 0.97262 0.86196 0.32808 0.0
H2519 H 0.02091 0.83453 0.33643 0.0
H2520 H 0.02448 0.75762 0.27139 0.0
H2521 H 0.02088 0.7877 0.28858 0.0
H2522 H 0.96849 0.80164 0.31071 0.0
C2523 C 0.97998 0.86568 0.34018 0.0
C2524 C 0.00935 0.82745 0.331 0.0
C2525 C 0.97817 0.8827 0.3508 0.0
C2526 C 0.01381 0.76058 0.2806 0.0
C2527 C 0.01181 0.77783 0.29053 0.0
C2528 C 0.98001 0.80864 0.31638 0.0
C2529 C 0.99127 0.85366 0.34506 0.0
C2530 C 0.99302 0.83546 0.33398 0.0
C2531 C 0.99819 0.78232 0.30266 0.0
C2532 C 0.99635 0.80063 0.31343 0.0
H2533 H 0.00639 0.87975 0.38341 0.0
H2534 H 0.00946 0.85008 0.36496 0.0
H2535 H 0.96557 0.83163 0.32872 0.0
H2536 H 0.97937 0.74202 0.29642 0.0
H2537 H 0.97597 0.77218 0.31389 0.0
C2538 C 0.65813 0.75819 0.95453 0.0
C2539 C 0.6554 0.74648 0.93806 0.0
C2540 C 0.67285 0.7568 0.96441 0.0
C2541 C 0.70821 0.72655 0.96944 0.0
H2542 H 0.7307 0.7698 0.99391 0.0
C2543 C 0.77452 0.72833 0.00461 0.0
C2544 C 0.77581 0.74003 0.02129 0.0
C2545 C 0.76004 0.72869 0.99399 0.0
C2546 C 0.72449 0.75761 0.98727 0.0
H2547 H 0.66592 0.72392 0.91918 0.0
H2548 H 0.69178 0.72165 0.93633 0.0
H2549 H 0.705 0.77105 0.97632 0.0
H2550 H 0.76284 0.76099 0.04008 0.0
H2551 H 0.73759 0.7616 0.0216 0.0
H2552 H 0.72787 0.71314 0.98038 0.0
C2553 C 0.6824 0.73178 0.9417 0.0
C2554 C 0.70973 0.75831 0.97722 0.0
C2555 C 0.66761 0.73313 0.93184 0.0
C2556 C 0.76225 0.7519 0.02724 0.0
C2557 C 0.74786 0.75233 0.0166 0.0
C2558 C 0.72306 0.72584 0.97946 0.0
C2559 C 0.68529 0.74372 0.95803 0.0
C2560 C 0.7013 0.74281 0.96831 0.0
C2561 C 0.7466 0.74077 0.99984 0.0
C2562 C 0.73126 0.74138 0.98861 0.0
H2563 H 0.64893 0.76855 0.95981 0.0
H2564 H 0.67447 0.76599 0.97709 0.0
H2565 H 0.70195 0.71436 0.9629 0.0
H2566 H 0.78448 0.71865 -9e-05 0.0
H2567 H 0.75944 0.71961 0.98114 0.0
C2568 C 0.71837 0.95731 0.67863 0.0
C2569 C 0.73051 0.97058 0.67848 0.0
C2570 C 0.70706 0.95877 0.69283 0.0
C2571 C 0.68825 0.99152 0.7304 0.0
H2572 H 0.67625 0.95048 0.74716 0.0
C2573 C 0.64666 0.99684 0.79245 0.0
C2574 C 0.63309 0.98464 0.79099 0.0
C2575 C 0.6595 0.9946 0.77954 0.0
C2576 C 0.6794 0.96204 0.74255 0.0
H2577 H 0.74079 0.99545 0.69341 0.0
H2578 H 0.7213 0.99787 0.71836 0.0
H2579 H 0.69672 0.94768 0.72292 0.0
H2580 H 0.62276 0.96017 0.77509 0.0
H2581 H 0.64515 0.95631 0.75256 0.0
H2582 H 0.67092 0.00587 0.75 0.0
C2583 C 0.72017 0.98655 0.70729 0.0
C2584 C 0.69109 0.96043 0.72863 0.0
C2585 C 0.73143 0.98511 0.69306 0.0
C2586 C 0.633 0.96983 0.77662 0.0
C2587 C 0.64589 0.96757 0.76375 0.0
C2588 C 0.67662 0.99313 0.74434 0.0
C2589 C 0.70777 0.97345 0.70731 0.0
C2590 C 0.6956 0.97515 0.72234 0.0
C2591 C 0.65911 0.98009 0.76491 0.0
C2592 C 0.672 0.9784 0.75053 0.0
H2593 H 0.71783 0.94559 0.66799 0.0
H2594 H 0.69765 0.94845 0.69238 0.0
H2595 H 0.6912 0.00307 0.72571 0.0
H2596 H 0.64717 0.00836 0.80337 0.0
H2597 H 0.66966 0.00434 0.78094 0.0
C2598 C 0.627 0.02244 0.23305 0.0
C2599 C 0.63082 0.01336 0.21569 0.0
C2600 C 0.63959 0.02461 0.24619 0.0
C2601 C 0.68153 0.00601 0.25619 0.0
H2602 H 0.68128 0.04695 0.29568 0.0
C2603 C 0.73396 0.02013 0.31089 0.0
C2604 C 0.72755 0.02423 0.32821 0.0
C2605 C 0.72282 0.01926 0.29665 0.0
C2606 C 0.68145 0.03544 0.28473 0.0
H2607 H 0.65107 2e-05 0.19833 0.0
H2608 H 0.67325 0.00441 0.22108 0.0
H2609 H 0.66115 0.04536 0.2714 0.0
H2610 H 0.70424 0.02911 0.34395 0.0
H2611 H 0.68491 0.02857 0.31921 0.0
H2612 H 0.70216 0.99635 0.26952 0.0
C2613 C 0.66037 0.00937 0.22472 0.0
C2614 C 0.66987 0.03445 0.27085 0.0
C2615 C 0.64768 0.00696 0.21163 0.0
C2616 C 0.70972 0.027 0.33093 0.0
C2617 C 0.69862 0.02642 0.31673 0.0
C2618 C 0.69331 0.00715 0.26996 0.0
C2619 C 0.65642 0.018 0.24225 0.0
C2620 C 0.66956 0.0196 0.25649 0.0
C2621 C 0.70507 0.02257 0.29947 0.0
C2622 C 0.69322 0.02176 0.28445 0.0
H2623 H 0.6141 0.02742 0.23665 0.0
H2624 H 0.6359 0.03104 0.25954 0.0
H2625 H 0.68154 0.99422 0.24557 0.0
H2626 H 0.74763 0.01776 0.30835 0.0
H2627 H 0.7281 0.01623 0.28344 0.0
C2628 C 0.29419 0.96143 0.80676 0.0
C2629 C 0.30825 0.97061 0.81604 0.0
C2630 C 0.28971 0.96368 0.79019 0.0
C2631 C 0.29451 0.99425 0.7615 0.0
H2632 H 0.28084 0.95378 0.72471 0.0
C2633 C 0.28022 0.99934 0.69054 0.0
C2634 C 0.26551 0.99034 0.68243 0.0
C2635 C 0.28646 0.9965 0.70636 0.0
C2636 C 0.28448 0.96524 0.73488 0.0
H2637 H 0.32929 0.98847 0.81471 0.0
H2638 H 0.32125 0.99273 0.78595 0.0
H2639 H 0.28961 0.94981 0.75336 0.0
H2640 H 0.246 0.97106 0.6845 0.0
H2641 H 0.25677 0.96626 0.71211 0.0
H2642 H 0.28922 0.00969 0.74308 0.0
C2643 C 0.31342 0.98414 0.7917 0.0
C2644 C 0.2895 0.96296 0.7513 0.0
C2645 C 0.31793 0.98184 0.80826 0.0
C2646 C 0.25738 0.9782 0.69035 0.0
C2647 C 0.26362 0.97537 0.70615 0.0
C2648 C 0.28947 0.99652 0.74507 0.0
C2649 C 0.29926 0.97508 0.78247 0.0
C2650 C 0.29445 0.97745 0.76484 0.0
C2651 C 0.27814 0.98458 0.71442 0.0
C2652 C 0.28427 0.98206 0.73161 0.0
H2653 H 0.28654 0.95263 0.8124 0.0
H2654 H 0.27862 0.95665 0.78351 0.0
H2655 H 0.29806 0.0057 0.77172 0.0
H2656 H 0.28683 0.00874 0.68477 0.0
H2657 H 0.29782 0.00363 0.71227 0.0
C2658 C 0.26574 0.98328 0.30814 0.0
C2659 C 0.26266 0.99705 0.32308 0.0
C2660 C 0.2704 0.98686 0.29215 0.0
C2661 C 0.28868 0.02065 0.27219 0.0
H2662 H 0.26332 0.99602 0.2308 0.0
C2663 C 0.29313 0.0403 0.20588 0.0
C2664 C 0.29295 0.02679 0.19036 0.0
C2665 C 0.29013 0.03662 0.2222 0.0
C2666 C 0.27074 0.00283 0.24214 0.0
H2667 H 0.26262 0.02539 0.33307 0.0
H2668 H 0.27091 0.0316 0.30512 0.0
H2669 H 0.25743 0.98956 0.25906 0.0
H2670 H 0.28839 0.99898 0.17974 0.0
H2671 H 0.28416 0.99233 0.20814 0.0
H2672 H 0.30213 0.03379 0.25526 0.0
C2673 C 0.26968 0.01804 0.30583 0.0
C2674 C 0.26732 0.99914 0.25835 0.0
C2675 C 0.26486 0.01447 0.3218 0.0
C2676 C 0.28945 0.00955 0.19147 0.0
C2677 C 0.28659 0.00582 0.20778 0.0
C2678 C 0.29222 0.02423 0.25592 0.0
C2679 C 0.27224 0.00427 0.29078 0.0
C2680 C 0.27621 0.00803 0.27355 0.0
C2681 C 0.28683 0.01931 0.22336 0.0
C2682 C 0.28327 0.01539 0.24068 0.0
H2683 H 0.2642 0.9697 0.30866 0.0
H2684 H 0.2725 0.97598 0.28082 0.0
H2685 H 0.29584 0.02758 0.28367 0.0
H2686 H 0.29559 0.05377 0.2054 0.0
H2687 H 0.29008 0.04739 0.23386 0.0
loop_
_geom_bond_atom_site_label_1
_geom_bond_atom_site_label_2
_geom_bond_distance
_geom_bond_site_symmetry_2
_ccdc_geom_bond_type
O0 Cd1 2.300 . S
O0 C7 1.275 . S
Cd1 O0 2.300 . S
Cd1 O9 2.381 . S
Cd1 O10 2.378 . S
O2 Cd3 2.385 . S
O2 C7 1.255 . S
Cd3 O2 2.385 . S
Cd3 O4 2.317 . S
O4 Cd3 2.317 . S
O4 C5 1.232 . S
C5 O4 1.232 . S
C5 O6 1.218 . S
O6 C5 1.218 . S
C7 O0 1.275 . S
C7 O2 1.255 . S
C8 O9 1.258 . S
C8 O10 1.256 . S
O9 Cd1 2.381 . S
O9 C8 1.258 . S
O10 Cd1 2.378 . S
O10 C8 1.256 . S
O11 Cd12 2.300 . S
O11 C18 1.275 . S
Cd12 O11 2.300 . S
Cd12 O20 2.381 . S
Cd12 O21 2.378 . S
O13 Cd14 2.385 . S
O13 C18 1.255 . S
Cd14 O13 2.385 . S
Cd14 O15 2.317 . S
O15 Cd14 2.317 . S
O15 C16 1.232 . S
C16 O15 1.232 . S
C16 O17 1.218 . S
O17 C16 1.218 . S
C18 O11 1.275 . S
C18 O13 1.255 . S
C19 O20 1.258 . S
C19 O21 1.256 . S
O20 Cd12 2.381 . S
O20 C19 1.258 . S
O21 Cd12 2.378 . S
O21 C19 1.256 . S
O22 Cd23 2.300 . S
O22 C29 1.275 . S
Cd23 O22 2.300 . S
Cd23 O31 2.381 . S
Cd23 O32 2.378 . S
O24 Cd25 2.385 . S
O24 C29 1.255 . S
Cd25 O24 2.385 . S
Cd25 O26 2.317 . S
O26 Cd25 2.317 . S
O26 C27 1.232 . S
C27 O26 1.232 . S
C27 O28 1.218 . S
O28 C27 1.218 . S
C29 O22 1.275 . S
C29 O24 1.255 . S
C30 O31 1.258 . S
C30 O32 1.256 . S
O31 Cd23 2.381 . S
O31 C30 1.258 . S
O32 Cd23 2.378 . S
O32 C30 1.256 . S
O33 Cd34 2.300 . S
O33 C40 1.275 . S
Cd34 O33 2.300 . S
Cd34 O42 2.381 . S
Cd34 O43 2.378 . S
O35 Cd36 2.385 . S
O35 C40 1.255 . S
Cd36 O35 2.385 . S
Cd36 O37 2.317 . S
O37 Cd36 2.317 . S
O37 C38 1.232 . S
C38 O37 1.232 . S
C38 O39 1.218 . S
O39 C38 1.218 . S
C40 O33 1.275 . S
C40 O35 1.255 . S
C41 O42 1.258 . S
C41 O43 1.256 . S
O42 Cd34 2.381 . S
O42 C41 1.258 . S
O43 Cd34 2.378 . S
O43 C41 1.256 . S
O44 Cd45 2.300 . S
O44 C51 1.275 . S
Cd45 O44 2.300 . S
Cd45 O53 2.381 . S
Cd45 O54 2.378 . S
O46 Cd47 2.385 . S
O46 C51 1.255 . S
Cd47 O46 2.385 . S
Cd47 O48 2.317 . S
O48 Cd47 2.317 . S
O48 C49 1.232 . S
C49 O48 1.232 . S
C49 O50 1.218 . S
O50 C49 1.218 . S
C51 O44 1.275 . S
C51 O46 1.255 . S
C52 O53 1.258 . S
C52 O54 1.256 . S
O53 Cd45 2.381 . S
O53 C52 1.258 . S
O54 Cd45 2.378 . S
O54 C52 1.256 . S
O55 Cd56 2.300 . S
O55 C62 1.275 . S
Cd56 O55 2.300 . S
Cd56 O64 2.381 . S
Cd56 O65 2.378 . S
O57 Cd58 2.385 . S
O57 C62 1.255 . S
Cd58 O57 2.385 . S
Cd58 O59 2.317 . S
O59 Cd58 2.317 . S
O59 C60 1.232 . S
C60 O59 1.232 . S
C60 O61 1.218 . S
O61 C60 1.218 . S
C62 O55 1.275 . S
C62 O57 1.255 . S
C63 O64 1.258 . S
C63 O65 1.256 . S
O64 Cd56 2.381 . S
O64 C63 1.258 . S
O65 Cd56 2.378 . S
O65 C63 1.256 . S
O66 Cd67 2.300 . S
O66 C73 1.275 . S
Cd67 O66 2.300 . S
Cd67 O75 2.381 . S
Cd67 O76 2.378 . S
O68 Cd69 2.385 . S
O68 C73 1.255 . S
Cd69 O68 2.385 . S
Cd69 O70 2.317 . S
O70 Cd69 2.317 . S
O70 C71 1.232 . S
C71 O70 1.232 . S
C71 O72 1.218 . S
O72 C71 1.218 . S
C73 O66 1.275 . S
C73 O68 1.255 . S
C74 O75 1.258 . S
C74 O76 1.256 . S
O75 Cd67 2.381 . S
O75 C74 1.258 . S
O76 Cd67 2.378 . S
O76 C74 1.256 . S
O77 Cd78 2.300 . S
O77 C84 1.275 . S
Cd78 O77 2.300 . S
Cd78 O86 2.381 . S
Cd78 O87 2.378 . S
O79 Cd80 2.385 . S
O79 C84 1.255 . S
Cd80 O79 2.385 . S
Cd80 O81 2.317 . S
O81 Cd80 2.317 . S
O81 C82 1.232 . S
C82 O81 1.232 . S
C82 O83 1.218 . S
O83 C82 1.218 . S
C84 O77 1.275 . S
C84 O79 1.255 . S
C85 O86 1.258 . S
C85 O87 1.256 . S
O86 Cd78 2.381 . S
O86 C85 1.258 . S
O87 Cd78 2.378 . S
O87 C85 1.256 . S
O88 Cd89 2.300 . S
O88 C95 1.275 . S
Cd89 O88 2.300 . S
Cd89 O97 2.381 . S
Cd89 O98 2.378 . S
O90 Cd91 2.385 . S
O90 C95 1.255 . S
Cd91 O90 2.385 . S
Cd91 O92 2.317 . S
O92 Cd91 2.317 . S
O92 C93 1.232 . S
C93 O92 1.232 . S
C93 O94 1.218 . S
O94 C93 1.218 . S
C95 O88 1.275 . S
C95 O90 1.255 . S
C96 O97 1.258 . S
C96 O98 1.256 . S
O97 Cd89 2.381 . S
O97 C96 1.258 . S
O98 Cd89 2.378 . S
O98 C96 1.256 . S
O99 Cd100 2.300 . S
O99 C106 1.275 . S
Cd100 O99 2.300 . S
Cd100 O108 2.381 . S
Cd100 O109 2.378 . S
O101 Cd102 2.385 . S
O101 C106 1.255 . S
Cd102 O101 2.385 . S
Cd102 O103 2.317 . S
O103 Cd102 2.317 . S
O103 C104 1.232 . S
C104 O103 1.232 . S
C104 O105 1.218 . S
O105 C104 1.218 . S
C106 O99 1.275 . S
C106 O101 1.255 . S
C107 O108 1.258 . S
C107 O109 1.256 . S
O108 Cd100 2.381 . S
O108 C107 1.258 . S
O109 Cd100 2.378 . S
O109 C107 1.256 . S
O110 Cd111 2.300 . S
O110 C117 1.275 . S
Cd111 O110 2.300 . S
Cd111 O119 2.381 . S
Cd111 O120 2.378 . S
O112 Cd113 2.385 . S
O112 C117 1.255 . S
Cd113 O112 2.385 . S
Cd113 O114 2.317 . S
O114 Cd113 2.317 . S
O114 C115 1.232 . S
C115 O114 1.232 . S
C115 O116 1.218 . S
O116 C115 1.218 . S
C117 O110 1.275 . S
C117 O112 1.255 . S
C118 O119 1.258 . S
C118 O120 1.256 . S
O119 Cd111 2.381 . S
O119 C118 1.258 . S
O120 Cd111 2.378 . S
O120 C118 1.256 . S
O121 Cd122 2.300 . S
O121 C128 1.275 . S
Cd122 O121 2.300 . S
Cd122 O130 2.381 . S
Cd122 O131 2.378 . S
O123 Cd124 2.385 . S
O123 C128 1.255 . S
Cd124 O123 2.385 . S
Cd124 O125 2.317 . S
O125 Cd124 2.317 . S
O125 C126 1.232 . S
C126 O125 1.232 . S
C126 O127 1.218 . S
O127 C126 1.218 . S
C128 O121 1.275 . S
C128 O123 1.255 . S
C129 O130 1.258 . S
C129 O131 1.256 . S
O130 Cd122 2.381 . S
O130 C129 1.258 . S
O131 Cd122 2.378 . S
O131 C129 1.256 . S
O132 Cd133 2.300 . S
O132 C139 1.275 . S
Cd133 O132 2.300 . S
Cd133 O141 2.381 . S
Cd133 O142 2.378 . S
O134 Cd135 2.385 . S
O134 C139 1.255 . S
Cd135 O134 2.385 . S
Cd135 O136 2.317 . S
O136 Cd135 2.317 . S
O136 C137 1.232 . S
C137 O136 1.232 . S
C137 O138 1.218 . S
O138 C137 1.218 . S
C139 O132 1.275 . S
C139 O134 1.255 . S
C140 O141 1.258 . S
C140 O142 1.256 . S
O141 Cd133 2.381 . S
O141 C140 1.258 . S
O142 Cd133 2.378 . S
O142 C140 1.256 . S
O143 Cd144 2.300 . S
O143 C150 1.275 . S
Cd144 O143 2.300 . S
Cd144 O152 2.381 . S
Cd144 O153 2.378 . S
O145 Cd146 2.385 . S
O145 C150 1.255 . S
Cd146 O145 2.385 . S
Cd146 O147 2.317 . S
O147 Cd146 2.317 . S
O147 C148 1.232 . S
C148 O147 1.232 . S
C148 O149 1.218 . S
O149 C148 1.218 . S
C150 O143 1.275 . S
C150 O145 1.255 . S
C151 O152 1.258 . S
C151 O153 1.256 . S
O152 Cd144 2.381 . S
O152 C151 1.258 . S
O153 Cd144 2.378 . S
O153 C151 1.256 . S
O154 Cd155 2.300 . S
O154 C161 1.275 . S
Cd155 O154 2.300 . S
Cd155 O163 2.381 . S
Cd155 O164 2.378 . S
O156 Cd157 2.385 . S
O156 C161 1.255 . S
Cd157 O156 2.385 . S
Cd157 O158 2.317 . S
O158 Cd157 2.317 . S
O158 C159 1.232 . S
C159 O158 1.232 . S
C159 O160 1.218 . S
O160 C159 1.218 . S
C161 O154 1.275 . S
C161 O156 1.255 . S
C162 O163 1.258 . S
C162 O164 1.256 . S
O163 Cd155 2.381 . S
O163 C162 1.258 . S
O164 Cd155 2.378 . S
O164 C162 1.256 . S
O165 Cd166 2.300 . S
O165 C172 1.275 . S
Cd166 O165 2.300 . S
Cd166 O174 2.381 . S
Cd166 O175 2.378 . S
O167 Cd168 2.385 . S
O167 C172 1.255 . S
Cd168 O167 2.385 . S
Cd168 O169 2.317 . S
O169 Cd168 2.317 . S
O169 C170 1.232 . S
C170 O169 1.232 . S
C170 O171 1.218 . S
O171 C170 1.218 . S
C172 O165 1.275 . S
C172 O167 1.255 . S
C173 O174 1.258 . S
C173 O175 1.256 . S
O174 Cd166 2.381 . S
O174 C173 1.258 . S
O175 Cd166 2.378 . S
O175 C173 1.256 . S
O176 Cd177 2.300 . S
O176 C183 1.275 . S
Cd177 O176 2.300 . S
Cd177 O185 2.381 . S
Cd177 O186 2.378 . S
O178 Cd179 2.385 . S
O178 C183 1.255 . S
Cd179 O178 2.385 . S
Cd179 O180 2.317 . S
O180 Cd179 2.317 . S
O180 C181 1.232 . S
C181 O180 1.232 . S
C181 O182 1.218 . S
O182 C181 1.218 . S
C183 O176 1.275 . S
C183 O178 1.255 . S
C184 O185 1.258 . S
C184 O186 1.256 . S
O185 Cd177 2.381 . S
O185 C184 1.258 . S
O186 Cd177 2.378 . S
O186 C184 1.256 . S
O187 Cd188 2.300 . S
O187 C194 1.275 . S
Cd188 O187 2.300 . S
Cd188 O196 2.381 . S
Cd188 O197 2.378 . S
O189 Cd190 2.385 . S
O189 C194 1.255 . S
Cd190 O189 2.385 . S
Cd190 O191 2.317 . S
O191 Cd190 2.317 . S
O191 C192 1.232 . S
C192 O191 1.232 . S
C192 O193 1.218 . S
O193 C192 1.218 . S
C194 O187 1.275 . S
C194 O189 1.255 . S
C195 O196 1.258 . S
C195 O197 1.256 . S
O196 Cd188 2.381 . S
O196 C195 1.258 . S
O197 Cd188 2.378 . S
O197 C195 1.256 . S
O198 Cd199 2.300 . S
O198 C205 1.275 . S
Cd199 O198 2.300 . S
Cd199 O207 2.381 . S
Cd199 O208 2.378 . S
O200 Cd201 2.385 . S
O200 C205 1.255 . S
Cd201 O200 2.385 . S
Cd201 O202 2.317 . S
O202 Cd201 2.317 . S
O202 C203 1.232 . S
C203 O202 1.232 . S
C203 O204 1.218 . S
O204 C203 1.218 . S
C205 O198 1.275 . S
C205 O200 1.255 . S
C206 O207 1.258 . S
C206 O208 1.256 . S
O207 Cd199 2.381 . S
O207 C206 1.258 . S
O208 Cd199 2.378 . S
O208 C206 1.256 . S
O209 Cd210 2.300 . S
O209 C216 1.275 . S
Cd210 O209 2.300 . S
Cd210 O218 2.381 . S
Cd210 O219 2.378 . S
O211 Cd212 2.385 . S
O211 C216 1.255 . S
Cd212 O211 2.385 . S
Cd212 O213 2.317 . S
O213 Cd212 2.317 . S
O213 C214 1.232 . S
C214 O213 1.232 . S
C214 O215 1.218 . S
O215 C214 1.218 . S
C216 O209 1.275 . S
C216 O211 1.255 . S
C217 O218 1.258 . S
C217 O219 1.256 . S
O218 Cd210 2.381 . S
O218 C217 1.258 . S
O219 Cd210 2.378 . S
O219 C217 1.256 . S
O220 Cd221 2.300 . S
O220 C227 1.275 . S
Cd221 O220 2.300 . S
Cd221 O229 2.381 . S
Cd221 O230 2.378 . S
O222 Cd223 2.385 . S
O222 C227 1.255 . S
Cd223 O222 2.385 . S
Cd223 O224 2.317 . S
O224 Cd223 2.317 . S
O224 C225 1.232 . S
C225 O224 1.232 . S
C225 O226 1.218 . S
O226 C225 1.218 . S
C227 O220 1.275 . S
C227 O222 1.255 . S
C228 O229 1.258 . S
C228 O230 1.256 . S
O229 Cd221 2.381 . S
O229 C228 1.258 . S
O230 Cd221 2.378 . S
O230 C228 1.256 . S
O231 Cd232 2.300 . S
O231 C238 1.275 . S
Cd232 O231 2.300 . S
Cd232 O240 2.381 . S
Cd232 O241 2.378 . S
O233 Cd234 2.385 . S
O233 C238 1.255 . S
Cd234 O233 2.385 . S
Cd234 O235 2.317 . S
O235 Cd234 2.317 . S
O235 C236 1.232 . S
C236 O235 1.232 . S
C236 O237 1.218 . S
O237 C236 1.218 . S
C238 O231 1.275 . S
C238 O233 1.255 . S
C239 O240 1.258 . S
C239 O241 1.256 . S
O240 Cd232 2.381 . S
O240 C239 1.258 . S
O241 Cd232 2.378 . S
O241 C239 1.256 . S
O242 Cd243 2.300 . S
O242 C249 1.275 . S
Cd243 O242 2.300 . S
Cd243 O251 2.381 . S
Cd243 O252 2.378 . S
O244 Cd245 2.385 . S
O244 C249 1.255 . S
Cd245 O244 2.385 . S
Cd245 O246 2.317 . S
O246 Cd245 2.317 . S
O246 C247 1.232 . S
C247 O246 1.232 . S
C247 O248 1.218 . S
O248 C247 1.218 . S
C249 O242 1.275 . S
C249 O244 1.255 . S
C250 O251 1.258 . S
C250 O252 1.256 . S
O251 Cd243 2.381 . S
O251 C250 1.258 . S
O252 Cd243 2.378 . S
O252 C250 1.256 . S
O253 Cd254 2.300 . S
O253 C260 1.275 . S
Cd254 O253 2.300 . S
Cd254 O262 2.381 . S
Cd254 O263 2.378 . S
O255 Cd256 2.385 . S
O255 C260 1.255 . S
Cd256 O255 2.385 . S
Cd256 O257 2.317 . S
O257 Cd256 2.317 . S
O257 C258 1.232 . S
C258 O257 1.232 . S
C258 O259 1.218 . S
O259 C258 1.218 . S
C260 O253 1.275 . S
C260 O255 1.255 . S
C261 O262 1.258 . S
C261 O263 1.256 . S
O262 Cd254 2.381 . S
O262 C261 1.258 . S
O263 Cd254 2.378 . S
O263 C261 1.256 . S
O264 Cd265 2.300 . S
O264 C271 1.275 1_455 S
Cd265 O264 2.300 . S
Cd265 O273 2.381 . S
Cd265 O274 2.378 . S
O266 Cd267 2.385 . S
O266 C271 1.255 . S
Cd267 O266 2.385 . S
Cd267 O268 2.317 . S
O268 Cd267 2.317 . S
O268 C269 1.232 . S
C269 O268 1.232 . S
C269 O270 1.218 . S
O270 C269 1.218 . S
C271 O264 1.275 1_655 S
C271 O266 1.255 . S
C272 O273 1.258 . S
C272 O274 1.256 . S
O273 Cd265 2.381 . S
O273 C272 1.258 . S
O274 Cd265 2.378 . S
O274 C272 1.256 . S
O275 Cd276 2.300 . S
O275 C282 1.275 . S
Cd276 O275 2.300 . S
Cd276 O284 2.381 . S
Cd276 O285 2.378 . S
O277 Cd278 2.385 . S
O277 C282 1.255 . S
Cd278 O277 2.385 . S
Cd278 O279 2.317 . S
O279 Cd278 2.317 . S
O279 C280 1.232 . S
C280 O279 1.232 . S
C280 O281 1.218 . S
O281 C280 1.218 . S
C282 O275 1.275 . S
C282 O277 1.255 . S
C283 O284 1.258 . S
C283 O285 1.256 . S
O284 Cd276 2.381 . S
O284 C283 1.258 . S
O285 Cd276 2.378 . S
O285 C283 1.256 . S
O286 Cd287 2.300 . S
O286 C293 1.275 1_455 S
Cd287 O286 2.300 . S
Cd287 O295 2.381 . S
Cd287 O296 2.378 . S
O288 Cd289 2.385 . S
O288 C293 1.255 . S
Cd289 O288 2.385 . S
Cd289 O290 2.317 . S
O290 Cd289 2.317 . S
O290 C291 1.232 . S
C291 O290 1.232 . S
C291 O292 1.218 . S
O292 C291 1.218 . S
C293 O286 1.275 1_655 S
C293 O288 1.255 . S
C294 O295 1.258 . S
C294 O296 1.256 . S
O295 Cd287 2.381 . S
O295 C294 1.258 . S
O296 Cd287 2.378 . S
O296 C294 1.256 . S
O297 Cd298 2.300 . S
O297 C304 1.275 . S
Cd298 O297 2.300 . S
Cd298 O306 2.381 . S
Cd298 O307 2.378 . S
O299 Cd300 2.385 . S
O299 C304 1.255 . S
Cd300 O299 2.385 . S
Cd300 O301 2.317 . S
O301 Cd300 2.317 . S
O301 C302 1.232 . S
C302 O301 1.232 . S
C302 O303 1.218 . S
O303 C302 1.218 . S
C304 O297 1.275 . S
C304 O299 1.255 . S
C305 O306 1.258 . S
C305 O307 1.256 . S
O306 Cd298 2.381 . S
O306 C305 1.258 . S
O307 Cd298 2.378 . S
O307 C305 1.256 . S
O308 Cd309 2.300 . S
O308 C315 1.275 1_455 S
Cd309 O308 2.300 . S
Cd309 O317 2.381 . S
Cd309 O318 2.378 . S
O310 Cd311 2.385 . S
O310 C315 1.255 . S
Cd311 O310 2.385 . S
Cd311 O312 2.317 . S
O312 Cd311 2.317 . S
O312 C313 1.232 . S
C313 O312 1.232 . S
C313 O314 1.218 . S
O314 C313 1.218 . S
C315 O308 1.275 1_655 S
C315 O310 1.255 . S
C316 O317 1.258 . S
C316 O318 1.256 . S
O317 Cd309 2.381 . S
O317 C316 1.258 . S
O318 Cd309 2.378 . S
O318 C316 1.256 . S
O319 Cd320 2.300 . S
O319 C326 1.275 . S
Cd320 O319 2.300 . S
Cd320 O328 2.381 . S
Cd320 O329 2.378 . S
O321 Cd322 2.385 . S
O321 C326 1.255 . S
Cd322 O321 2.385 . S
Cd322 O323 2.317 . S
O323 Cd322 2.317 . S
O323 C324 1.232 . S
C324 O323 1.232 . S
C324 O325 1.218 . S
O325 C324 1.218 . S
C326 O319 1.275 . S
C326 O321 1.255 . S
C327 O328 1.258 . S
C327 O329 1.256 . S
O328 Cd320 2.381 . S
O328 C327 1.258 . S
O329 Cd320 2.378 . S
O329 C327 1.256 . S
O330 Cd331 2.300 . S
O330 C337 1.275 1_455 S
Cd331 O330 2.300 . S
Cd331 O339 2.381 . S
Cd331 O340 2.378 . S
O332 Cd333 2.385 . S
O332 C337 1.255 . S
Cd333 O332 2.385 . S
Cd333 O334 2.317 . S
O334 Cd333 2.317 . S
O334 C335 1.232 . S
C335 O334 1.232 . S
C335 O336 1.218 . S
O336 C335 1.218 . S
C337 O330 1.275 1_655 S
C337 O332 1.255 . S
C338 O339 1.258 . S
C338 O340 1.256 . S
O339 Cd331 2.381 . S
O339 C338 1.258 . S
O340 Cd331 2.378 . S
O340 C338 1.256 . S
O341 Cd342 2.300 . S
O341 C348 1.275 . S
Cd342 O341 2.300 . S
Cd342 O350 2.381 . S
Cd342 O351 2.378 . S
O343 Cd344 2.385 . S
O343 C348 1.255 . S
Cd344 O343 2.385 . S
Cd344 O345 2.317 . S
O345 Cd344 2.317 . S
O345 C346 1.232 . S
C346 O345 1.232 . S
C346 O347 1.218 . S
O347 C346 1.218 . S
C348 O341 1.275 . S
C348 O343 1.255 . S
C349 O350 1.258 . S
C349 O351 1.256 . S
O350 Cd342 2.381 . S
O350 C349 1.258 . S
O351 Cd342 2.378 . S
O351 C349 1.256 . S
O352 Cd353 2.300 . S
O352 C359 1.275 . S
Cd353 O352 2.300 . S
Cd353 O361 2.381 . S
Cd353 O362 2.378 . S
O354 Cd355 2.385 . S
O354 C359 1.255 1_545 S
Cd355 O354 2.385 . S
Cd355 O356 2.317 . S
O356 Cd355 2.317 . S
O356 C357 1.232 . S
C357 O356 1.232 . S
C357 O358 1.218 . S
O358 C357 1.218 . S
C359 O352 1.275 . S
C359 O354 1.255 1_565 S
C360 O361 1.258 . S
C360 O362 1.256 . S
O361 Cd353 2.381 . S
O361 C360 1.258 . S
O362 Cd353 2.378 . S
O362 C360 1.256 . S
O363 Cd364 2.300 . S
O363 C370 1.275 . S
Cd364 O363 2.300 . S
Cd364 O372 2.381 . S
Cd364 O373 2.378 . S
O365 Cd366 2.385 . S
O365 C370 1.255 . S
Cd366 O365 2.385 . S
Cd366 O367 2.317 . S
O367 Cd366 2.317 . S
O367 C368 1.232 . S
C368 O367 1.232 . S
C368 O369 1.218 . S
O369 C368 1.218 . S
C370 O363 1.275 . S
C370 O365 1.255 . S
C371 O372 1.258 . S
C371 O373 1.256 . S
O372 Cd364 2.381 . S
O372 C371 1.258 . S
O373 Cd364 2.378 . S
O373 C371 1.256 . S
O374 Cd375 2.300 . S
O374 C381 1.312 . S
Cd375 O374 2.300 . S
Cd375 O383 2.381 . S
Cd375 O384 2.378 . S
O376 Cd377 2.385 . S
O376 C381 1.236 1_545 S
Cd377 O376 2.385 . S
Cd377 O378 2.317 . S
O378 Cd377 2.317 . S
O378 C379 1.232 . S
C379 O378 1.232 . S
C379 O380 1.218 . S
O380 C379 1.218 . S
C381 O374 1.312 . S
C381 O376 1.236 1_565 S
C382 O383 1.258 . S
C382 O384 1.256 . S
O383 Cd375 2.381 . S
O383 C382 1.258 . S
O384 Cd375 2.378 . S
O384 C382 1.256 . S
O385 Cd386 2.300 . S
O385 C392 1.275 1_565 S
Cd386 O385 2.300 . S
Cd386 O394 2.385 . S
Cd386 O395 2.381 . S
O387 Cd388 2.385 . S
O387 C392 1.255 . S
Cd388 O387 2.385 . S
Cd388 O389 2.317 . S
O389 Cd388 2.317 . S
O389 C390 1.232 . S
C390 O389 1.232 . S
C390 O391 1.218 . S
O391 C390 1.218 . S
C392 O385 1.275 1_545 S
C392 O387 1.255 . S
C393 O394 1.258 . S
C393 O395 1.256 . S
O394 Cd386 2.385 . S
O394 C393 1.258 . S
O395 Cd386 2.381 . S
O395 C393 1.256 . S
O396 Cd397 2.300 . S
O396 C403 1.275 . S
Cd397 O396 2.300 . S
Cd397 O405 2.381 . S
Cd397 O406 2.378 . S
O398 Cd399 2.385 . S
O398 C403 1.255 1_565 S
Cd399 O398 2.385 . S
Cd399 O400 2.317 . S
O400 Cd399 2.317 . S
O400 C401 1.232 . S
C401 O400 1.232 . S
C401 O402 1.218 . S
O402 C401 1.218 . S
C403 O396 1.275 . S
C403 O398 1.255 1_545 S
C404 O405 1.258 . S
C404 O406 1.256 . S
O405 Cd397 2.381 . S
O405 C404 1.258 . S
O406 Cd397 2.378 . S
O406 C404 1.256 . S
O407 Cd408 2.300 . S
O407 C414 1.275 1_545 S
Cd408 O407 2.300 . S
Cd408 O416 2.385 . S
Cd408 O417 2.381 . S
O409 Cd410 2.385 . S
O409 C414 1.255 . S
Cd410 O409 2.385 . S
Cd410 O411 2.317 . S
O411 Cd410 2.317 . S
O411 C412 1.232 . S
C412 O411 1.232 . S
C412 O413 1.218 . S
O413 C412 1.218 . S
C414 O407 1.275 1_565 S
C414 O409 1.255 . S
C415 O416 1.258 . S
C415 O417 1.256 . S
O416 Cd408 2.385 . S
O416 C415 1.258 . S
O417 Cd408 2.381 . S
O417 C415 1.256 . S
O418 Cd419 2.300 . S
O418 C425 1.312 . S
Cd419 O418 2.300 . S
Cd419 O427 2.381 . S
Cd419 O428 2.378 . S
O420 Cd421 2.385 . S
O420 C425 1.236 1_565 S
Cd421 O420 2.385 . S
Cd421 O422 2.317 . S
O422 Cd421 2.317 . S
O422 C423 1.232 . S
C423 O422 1.232 . S
C423 O424 1.218 . S
O424 C423 1.218 . S
C425 O418 1.312 . S
C425 O420 1.236 1_545 S
C426 O427 1.258 . S
C426 O428 1.256 . S
O427 Cd419 2.381 . S
O427 C426 1.258 . S
O428 Cd419 2.378 . S
O428 C426 1.256 . S
O429 Cd430 2.300 . S
O429 C436 1.275 . S
Cd430 O429 2.300 . S
Cd430 O438 2.381 . S
Cd430 O439 2.378 . S
O431 Cd432 2.385 . S
O431 C436 1.255 . S
Cd432 O431 2.385 . S
Cd432 O433 2.317 . S
O433 Cd432 2.317 . S
O433 C434 1.232 . S
C434 O433 1.232 . S
C434 O435 1.218 . S
O435 C434 1.218 . S
C436 O429 1.275 . S
C436 O431 1.255 . S
C437 O438 1.258 . S
C437 O439 1.256 . S
O438 Cd430 2.381 . S
O438 C437 1.258 . S
O439 Cd430 2.378 . S
O439 C437 1.256 . S
O440 Cd441 2.300 . S
O440 C447 1.275 1_554 S
Cd441 O440 2.300 . S
Cd441 O449 2.381 . S
Cd441 O450 2.378 . S
O442 Cd443 2.385 . S
O442 C447 1.255 . S
Cd443 O442 2.385 . S
Cd443 O444 2.317 . S
O444 Cd443 2.317 . S
O444 C445 1.232 . S
C445 O444 1.232 . S
C445 O446 1.218 . S
O446 C445 1.218 . S
C447 O440 1.275 1_556 S
C447 O442 1.255 . S
C448 O449 1.258 . S
C448 O450 1.256 . S
O449 Cd441 2.381 . S
O449 C448 1.258 . S
O450 Cd441 2.378 . S
O450 C448 1.256 . S
O451 Cd452 2.300 . S
O451 C458 1.275 1_556 S
Cd452 O451 2.300 . S
Cd452 O460 2.381 . S
Cd452 O461 2.378 . S
O453 Cd454 2.385 . S
O453 C458 1.255 . S
Cd454 O453 2.385 . S
Cd454 O455 2.317 . S
O455 Cd454 2.317 . S
O455 C456 1.232 . S
C456 O455 1.232 . S
C456 O457 1.218 . S
O457 C456 1.218 . S
C458 O451 1.275 1_554 S
C458 O453 1.255 . S
C459 O460 1.258 . S
C459 O461 1.256 . S
O460 Cd452 2.381 . S
O460 C459 1.258 . S
O461 Cd452 2.378 . S
O461 C459 1.256 . S
O462 Cd463 2.300 . S
O462 C469 1.275 . S
Cd463 O462 2.300 . S
Cd463 O471 2.381 1_655 S
Cd463 O472 2.384 . S
O464 Cd465 2.385 . S
O464 C469 1.255 . S
Cd465 O464 2.385 . S
Cd465 O466 2.317 . S
O466 Cd465 2.317 . S
O466 C467 1.232 . S
C467 O466 1.232 . S
C467 O468 1.218 . S
O468 C467 1.218 . S
C469 O462 1.275 . S
C469 O464 1.255 . S
C470 O471 1.258 . S
C470 O472 1.243 1_455 S
O471 Cd463 2.381 1_455 S
O471 C470 1.258 . S
O472 Cd463 2.384 . S
O472 C470 1.243 1_655 S
O473 Cd474 2.300 1_554 S
O473 C480 1.275 . S
Cd474 O473 2.300 1_556 S
Cd474 O482 2.381 . S
Cd474 O483 2.378 . S
O475 Cd476 2.385 . S
O475 C480 1.255 . S
Cd476 O475 2.385 . S
Cd476 O477 2.317 . S
O477 Cd476 2.317 . S
O477 C478 1.232 . S
C478 O477 1.232 . S
C478 O479 1.218 . S
O479 C478 1.218 . S
C480 O473 1.275 . S
C480 O475 1.255 . S
C481 O482 1.258 . S
C481 O483 1.256 . S
O482 Cd474 2.381 . S
O482 C481 1.258 . S
O483 Cd474 2.378 . S
O483 C481 1.256 . S
O484 Cd485 2.300 . S
O484 C491 1.275 . S
Cd485 O484 2.300 . S
Cd485 O493 2.381 . S
Cd485 O494 2.378 . S
O486 Cd487 2.385 . S
O486 C491 1.255 . S
Cd487 O486 2.385 . S
Cd487 O488 2.317 . S
O488 Cd487 2.317 . S
O488 C489 1.232 . S
C489 O488 1.232 . S
C489 O490 1.218 . S
O490 C489 1.218 . S
C491 O484 1.275 . S
C491 O486 1.255 . S
C492 O493 1.258 . S
C492 O494 1.256 . S
O493 Cd485 2.381 . S
O493 C492 1.258 . S
O494 Cd485 2.378 . S
O494 C492 1.256 . S
O495 Cd496 2.300 1_556 S
O495 C502 1.275 . S
Cd496 O495 2.300 1_554 S
Cd496 O504 2.381 . S
Cd496 O505 2.378 . S
O497 Cd498 2.385 . S
O497 C502 1.255 . S
Cd498 O497 2.385 . S
Cd498 O499 2.317 . S
O499 Cd498 2.317 . S
O499 C500 1.232 . S
C500 O499 1.232 . S
C500 O501 1.218 . S
O501 C500 1.218 . S
C502 O495 1.275 . S
C502 O497 1.255 . S
C503 O504 1.258 . S
C503 O505 1.256 . S
O504 Cd496 2.381 . S
O504 C503 1.258 . S
O505 Cd496 2.378 . S
O505 C503 1.256 . S
O506 Cd507 2.300 . S
O506 C513 1.275 . S
Cd507 O506 2.300 . S
Cd507 O515 2.381 1_655 S
Cd507 O516 2.384 . S
O508 Cd509 2.385 . S
O508 C513 1.255 . S
Cd509 O508 2.385 . S
Cd509 O510 2.317 . S
O510 Cd509 2.317 . S
O510 C511 1.232 . S
C511 O510 1.232 . S
C511 O512 1.218 . S
O512 C511 1.218 . S
C513 O506 1.275 . S
C513 O508 1.255 . S
C514 O515 1.258 . S
C514 O516 1.243 1_455 S
O515 Cd507 2.381 1_455 S
O515 C514 1.258 . S
O516 Cd507 2.384 . S
O516 C514 1.243 1_655 S
O517 Cd518 2.300 . S
O517 C524 1.275 . S
Cd518 O517 2.300 . S
Cd518 O526 2.381 . S
Cd518 O527 2.378 . S
O519 Cd520 2.385 . S
O519 C524 1.255 . S
Cd520 O519 2.385 . S
Cd520 O521 2.317 . S
O521 Cd520 2.317 . S
O521 C522 1.232 . S
C522 O521 1.232 . S
C522 O523 1.218 . S
O523 C522 1.218 . S
C524 O517 1.275 . S
C524 O519 1.255 . S
C525 O526 1.258 . S
C525 O527 1.256 . S
O526 Cd518 2.381 . S
O526 C525 1.258 . S
O527 Cd518 2.378 . S
O527 C525 1.256 . S
C528 C529 1.349 . S
C528 C530 1.327 . S
C528 H553 0.950 . S
C529 C528 1.349 . S
C529 C545 1.349 . S
C530 C528 1.327 . S
C530 C549 1.429 . S
C530 H554 0.950 . S
C531 C548 1.574 . S
C531 C550 1.368 . S
C531 H555 0.949 . S
H532 C536 0.949 . S
C533 C534 1.349 . S
C533 C535 1.327 . S
C533 H556 0.950 . S
C534 C533 1.349 . S
C534 C546 1.349 . S
C535 C533 1.327 . S
C535 C551 1.429 . S
C535 H557 0.950 . S
C536 H532 0.949 . S
C536 C544 1.574 . S
C536 C552 1.368 . S
H537 C545 0.950 . S
H538 C543 0.950 . S
H539 C544 0.949 . S
H540 C546 0.950 . S
H541 C547 0.950 . S
H542 C548 0.949 . S
C543 H538 0.950 . S
C543 C545 1.327 . S
C543 C549 1.429 . S
C544 C536 1.574 . S
C544 H539 0.949 . S
C544 C550 1.368 . S
C545 C529 1.349 . S
C545 H537 0.950 . S
C545 C543 1.327 . S
C546 C534 1.349 . S
C546 H540 0.950 . S
C546 C547 1.327 . S
C547 H541 0.950 . S
C547 C546 1.327 . S
C547 C551 1.429 . S
C548 C531 1.574 . S
C548 H542 0.949 . S
C548 C552 1.368 . S
C549 C530 1.429 . S
C549 C543 1.429 . S
C549 C550 1.523 . S
C550 C531 1.368 . S
C550 C544 1.368 . S
C550 C549 1.523 . S
C551 C535 1.429 . S
C551 C547 1.429 . S
C551 C552 1.523 . S
C552 C536 1.368 . S
C552 C548 1.368 . S
C552 C551 1.523 . S
H553 C528 0.950 . S
H554 C530 0.950 . S
H555 C531 0.949 . S
H556 C533 0.950 . S
H557 C535 0.950 . S
C558 C559 1.349 . S
C558 C560 1.327 . S
C558 H583 0.950 . S
C559 C558 1.349 . S
C559 C575 1.349 . S
C560 C558 1.327 . S
C560 C579 1.429 . S
C560 H584 0.950 . S
C561 C578 1.574 . S
C561 C580 1.368 . S
C561 H585 0.949 . S
H562 C566 0.949 . S
C563 C564 1.349 . S
C563 C565 1.327 . S
C563 H586 0.950 . S
C564 C563 1.349 . S
C564 C576 1.349 . S
C565 C563 1.327 . S
C565 C581 1.429 . S
C565 H587 0.950 . S
C566 H562 0.949 . S
C566 C574 1.574 . S
C566 C582 1.368 . S
H567 C575 0.950 . S
H568 C573 0.950 . S
H569 C574 0.949 . S
H570 C576 0.950 . S
H571 C577 0.950 . S
H572 C578 0.949 . S
C573 H568 0.950 . S
C573 C575 1.327 . S
C573 C579 1.429 . S
C574 C566 1.574 . S
C574 H569 0.949 . S
C574 C580 1.368 . S
C575 C559 1.349 . S
C575 H567 0.950 . S
C575 C573 1.327 . S
C576 C564 1.349 . S
C576 H570 0.950 . S
C576 C577 1.327 . S
C577 H571 0.950 . S
C577 C576 1.327 . S
C577 C581 1.429 . S
C578 C561 1.574 . S
C578 H572 0.949 . S
C578 C582 1.368 . S
C579 C560 1.429 . S
C579 C573 1.429 . S
C579 C580 1.523 . S
C580 C561 1.368 . S
C580 C574 1.368 . S
C580 C579 1.523 . S
C581 C565 1.429 . S
C581 C577 1.429 . S
C581 C582 1.523 . S
C582 C566 1.368 . S
C582 C578 1.368 . S
C582 C581 1.523 . S
H583 C558 0.950 . S
H584 C560 0.950 . S
H585 C561 0.949 . S
H586 C563 0.950 . S
H587 C565 0.950 . S
C588 C589 1.349 . S
C588 C590 1.327 . S
C588 H613 0.950 . S
C589 C588 1.349 . S
C589 C605 1.349 . S
C590 C588 1.327 . S
C590 C609 1.429 . S
C590 H614 0.950 . S
C591 C608 1.574 . S
C591 C610 1.368 . S
C591 H615 0.949 . S
H592 C596 0.949 . S
C593 C594 1.349 . S
C593 C595 1.327 . S
C593 H616 0.950 . S
C594 C593 1.349 . S
C594 C606 1.349 . S
C595 C593 1.327 . S
C595 C611 1.429 . S
C595 H617 0.950 . S
C596 H592 0.949 . S
C596 C604 1.574 . S
C596 C612 1.368 . S
H597 C605 0.950 . S
H598 C603 0.950 . S
H599 C604 0.949 . S
H600 C606 0.950 . S
H601 C607 0.950 . S
H602 C608 0.949 . S
C603 H598 0.950 . S
C603 C605 1.327 . S
C603 C609 1.429 . S
C604 C596 1.574 . S
C604 H599 0.949 . S
C604 C610 1.368 . S
C605 C589 1.349 . S
C605 H597 0.950 . S
C605 C603 1.327 . S
C606 C594 1.349 . S
C606 H600 0.950 . S
C606 C607 1.327 . S
C607 H601 0.950 . S
C607 C606 1.327 . S
C607 C611 1.429 . S
C608 C591 1.574 . S
C608 H602 0.949 . S
C608 C612 1.368 . S
C609 C590 1.429 . S
C609 C603 1.429 . S
C609 C610 1.523 . S
C610 C591 1.368 . S
C610 C604 1.368 . S
C610 C609 1.523 . S
C611 C595 1.429 . S
C611 C607 1.429 . S
C611 C612 1.523 . S
C612 C596 1.368 . S
C612 C608 1.368 . S
C612 C611 1.523 . S
H613 C588 0.950 . S
H614 C590 0.950 . S
H615 C591 0.949 . S
H616 C593 0.950 . S
H617 C595 0.950 . S
C618 C619 1.349 . S
C618 C620 1.327 . S
C618 H643 0.950 . S
C619 C618 1.349 . S
C619 C635 1.349 . S
C620 C618 1.327 . S
C620 C639 1.429 . S
C620 H644 0.950 . S
C621 C638 1.574 . S
C621 C640 1.368 . S
C621 H645 0.949 . S
H622 C626 0.949 . S
C623 C624 1.349 . S
C623 C625 1.327 . S
C623 H646 0.950 . S
C624 C623 1.349 . S
C624 C636 1.349 . S
C625 C623 1.327 . S
C625 C641 1.429 . S
C625 H647 0.950 . S
C626 H622 0.949 . S
C626 C634 1.574 . S
C626 C642 1.368 . S
H627 C635 0.950 . S
H628 C633 0.950 . S
H629 C634 0.949 . S
H630 C636 0.950 . S
H631 C637 0.950 . S
H632 C638 0.949 . S
C633 H628 0.950 . S
C633 C635 1.327 . S
C633 C639 1.429 . S
C634 C626 1.574 . S
C634 H629 0.949 . S
C634 C640 1.368 . S
C635 C619 1.349 . S
C635 H627 0.950 . S
C635 C633 1.327 . S
C636 C624 1.349 . S
C636 H630 0.950 . S
C636 C637 1.327 . S
C637 H631 0.950 . S
C637 C636 1.327 . S
C637 C641 1.429 . S
C638 C621 1.574 . S
C638 H632 0.949 . S
C638 C642 1.368 . S
C639 C620 1.429 . S
C639 C633 1.429 . S
C639 C640 1.523 . S
C640 C621 1.368 . S
C640 C634 1.368 . S
C640 C639 1.523 . S
C641 C625 1.429 . S
C641 C637 1.429 . S
C641 C642 1.523 . S
C642 C626 1.368 . S
C642 C638 1.368 . S
C642 C641 1.523 . S
H643 C618 0.950 . S
H644 C620 0.950 . S
H645 C621 0.949 . S
H646 C623 0.950 . S
H647 C625 0.950 . S
C648 C649 1.349 . S
C648 C650 1.327 . S
C648 H673 0.950 . S
C649 C648 1.349 . S
C649 C665 1.349 . S
C650 C648 1.327 . S
C650 C669 1.429 . S
C650 H674 0.950 . S
C651 C668 1.574 . S
C651 C670 1.368 . S
C651 H675 0.949 . S
H652 C656 0.949 . S
C653 C654 1.349 . S
C653 C655 1.327 . S
C653 H676 0.950 . S
C654 C653 1.349 . S
C654 C666 1.349 . S
C655 C653 1.327 . S
C655 C671 1.429 . S
C655 H677 0.950 . S
C656 H652 0.949 . S
C656 C664 1.574 . S
C656 C672 1.368 . S
H657 C665 0.950 . S
H658 C663 0.950 . S
H659 C664 0.949 . S
H660 C666 0.950 . S
H661 C667 0.950 . S
H662 C668 0.949 . S
C663 H658 0.950 . S
C663 C665 1.327 . S
C663 C669 1.429 . S
C664 C656 1.574 . S
C664 H659 0.949 . S
C664 C670 1.368 . S
C665 C649 1.349 . S
C665 H657 0.950 . S
C665 C663 1.327 . S
C666 C654 1.349 . S
C666 H660 0.950 . S
C666 C667 1.327 . S
C667 H661 0.950 . S
C667 C666 1.327 . S
C667 C671 1.429 . S
C668 C651 1.574 . S
C668 H662 0.949 . S
C668 C672 1.368 . S
C669 C650 1.429 . S
C669 C663 1.429 . S
C669 C670 1.523 . S
C670 C651 1.368 . S
C670 C664 1.368 . S
C670 C669 1.523 . S
C671 C655 1.429 . S
C671 C667 1.429 . S
C671 C672 1.523 . S
C672 C656 1.368 . S
C672 C668 1.368 . S
C672 C671 1.523 . S
H673 C648 0.950 . S
H674 C650 0.950 . S
H675 C651 0.949 . S
H676 C653 0.950 . S
H677 C655 0.950 . S
C678 C679 1.349 . S
C678 C680 1.327 . S
C678 H703 0.950 . S
C679 C678 1.349 . S
C679 C695 1.349 . S
C680 C678 1.327 . S
C680 C699 1.429 . S
C680 H704 0.950 . S
C681 C698 1.574 . S
C681 C700 1.368 . S
C681 H705 0.949 . S
H682 C686 0.949 . S
C683 C684 1.349 . S
C683 C685 1.327 . S
C683 H706 0.950 . S
C684 C683 1.349 . S
C684 C696 1.349 . S
C685 C683 1.327 . S
C685 C701 1.429 . S
C685 H707 0.950 . S
C686 H682 0.949 . S
C686 C694 1.574 . S
C686 C702 1.368 . S
H687 C695 0.950 . S
H688 C693 0.950 . S
H689 C694 0.949 . S
H690 C696 0.950 . S
H691 C697 0.950 . S
H692 C698 0.949 . S
C693 H688 0.950 . S
C693 C695 1.327 . S
C693 C699 1.429 . S
C694 C686 1.574 . S
C694 H689 0.949 . S
C694 C700 1.368 . S
C695 C679 1.349 . S
C695 H687 0.950 . S
C695 C693 1.327 . S
C696 C684 1.349 . S
C696 H690 0.950 . S
C696 C697 1.327 . S
C697 H691 0.950 . S
C697 C696 1.327 . S
C697 C701 1.429 . S
C698 C681 1.574 . S
C698 H692 0.949 . S
C698 C702 1.368 . S
C699 C680 1.429 . S
C699 C693 1.429 . S
C699 C700 1.523 . S
C700 C681 1.368 . S
C700 C694 1.368 . S
C700 C699 1.523 . S
C701 C685 1.429 . S
C701 C697 1.429 . S
C701 C702 1.523 . S
C702 C686 1.368 . S
C702 C698 1.368 . S
C702 C701 1.523 . S
H703 C678 0.950 . S
H704 C680 0.950 . S
H705 C681 0.949 . S
H706 C683 0.950 . S
H707 C685 0.950 . S
C708 C709 1.349 . S
C708 C710 1.327 . S
C708 H733 0.950 . S
C709 C708 1.349 . S
C709 C725 1.349 . S
C710 C708 1.327 . S
C710 C729 1.429 . S
C710 H734 0.950 . S
C711 C728 1.574 . S
C711 C730 1.368 . S
C711 H735 0.949 . S
H712 C716 0.949 . S
C713 C714 1.349 . S
C713 C715 1.327 . S
C713 H736 0.950 . S
C714 C713 1.349 . S
C714 C726 1.349 . S
C715 C713 1.327 . S
C715 C731 1.429 . S
C715 H737 0.950 . S
C716 H712 0.949 . S
C716 C724 1.574 . S
C716 C732 1.368 . S
H717 C725 0.950 . S
H718 C723 0.950 . S
H719 C724 0.949 . S
H720 C726 0.950 . S
H721 C727 0.950 . S
H722 C728 0.949 . S
C723 H718 0.950 . S
C723 C725 1.327 . S
C723 C729 1.429 . S
C724 C716 1.574 . S
C724 H719 0.949 . S
C724 C730 1.368 . S
C725 C709 1.349 . S
C725 H717 0.950 . S
C725 C723 1.327 . S
C726 C714 1.349 . S
C726 H720 0.950 . S
C726 C727 1.327 . S
C727 H721 0.950 . S
C727 C726 1.327 . S
C727 C731 1.429 . S
C728 C711 1.574 . S
C728 H722 0.949 . S
C728 C732 1.368 . S
C729 C710 1.429 . S
C729 C723 1.429 . S
C729 C730 1.523 . S
C730 C711 1.368 . S
C730 C724 1.368 . S
C730 C729 1.523 . S
C731 C715 1.429 . S
C731 C727 1.429 . S
C731 C732 1.523 . S
C732 C716 1.368 . S
C732 C728 1.368 . S
C732 C731 1.523 . S
H733 C708 0.950 . S
H734 C710 0.950 . S
H735 C711 0.949 . S
H736 C713 0.950 . S
H737 C715 0.950 . S
C738 C739 1.349 . S
C738 C740 1.327 . S
C738 H763 0.950 . S
C739 C738 1.349 . S
C739 C755 1.349 . S
C740 C738 1.327 . S
C740 C759 1.429 . S
C740 H764 0.950 . S
C741 C758 1.574 . S
C741 C760 1.368 . S
C741 H765 0.949 . S
H742 C746 0.949 . S
C743 C744 1.349 . S
C743 C745 1.327 . S
C743 H766 0.950 . S
C744 C743 1.349 . S
C744 C756 1.349 . S
C745 C743 1.327 . S
C745 C761 1.429 . S
C745 H767 0.950 . S
C746 H742 0.949 . S
C746 C754 1.574 . S
C746 C762 1.368 . S
H747 C755 0.950 . S
H748 C753 0.950 . S
H749 C754 0.949 . S
H750 C756 0.950 . S
H751 C757 0.950 . S
H752 C758 0.949 . S
C753 H748 0.950 . S
C753 C755 1.327 . S
C753 C759 1.429 . S
C754 C746 1.574 . S
C754 H749 0.949 . S
C754 C760 1.368 . S
C755 C739 1.349 . S
C755 H747 0.950 . S
C755 C753 1.327 . S
C756 C744 1.349 . S
C756 H750 0.950 . S
C756 C757 1.327 . S
C757 H751 0.950 . S
C757 C756 1.327 . S
C757 C761 1.429 . S
C758 C741 1.574 . S
C758 H752 0.949 . S
C758 C762 1.368 . S
C759 C740 1.429 . S
C759 C753 1.429 . S
C759 C760 1.523 . S
C760 C741 1.368 . S
C760 C754 1.368 . S
C760 C759 1.523 . S
C761 C745 1.429 . S
C761 C757 1.429 . S
C761 C762 1.523 . S
C762 C746 1.368 . S
C762 C758 1.368 . S
C762 C761 1.523 . S
H763 C738 0.950 . S
H764 C740 0.950 . S
H765 C741 0.949 . S
H766 C743 0.950 . S
H767 C745 0.950 . S
C768 C769 1.349 . S
C768 C770 1.327 . S
C768 H793 0.950 . S
C769 C768 1.349 . S
C769 C785 1.349 . S
C770 C768 1.327 . S
C770 C789 1.429 . S
C770 H794 0.950 . S
C771 C788 1.574 . S
C771 C790 1.368 . S
C771 H795 0.949 . S
H772 C776 0.949 . S
C773 C774 1.349 . S
C773 C775 1.327 . S
C773 H796 0.950 . S
C774 C773 1.349 . S
C774 C786 1.349 . S
C775 C773 1.327 . S
C775 C791 1.429 . S
C775 H797 0.950 . S
C776 H772 0.949 . S
C776 C784 1.574 . S
C776 C792 1.368 . S
H777 C785 0.950 . S
H778 C783 0.950 . S
H779 C784 0.949 . S
H780 C786 0.950 . S
H781 C787 0.950 . S
H782 C788 0.949 . S
C783 H778 0.950 . S
C783 C785 1.327 . S
C783 C789 1.429 . S
C784 C776 1.574 . S
C784 H779 0.949 . S
C784 C790 1.368 . S
C785 C769 1.349 . S
C785 H777 0.950 . S
C785 C783 1.327 . S
C786 C774 1.349 . S
C786 H780 0.950 . S
C786 C787 1.327 . S
C787 H781 0.950 . S
C787 C786 1.327 . S
C787 C791 1.429 . S
C788 C771 1.574 . S
C788 H782 0.949 . S
C788 C792 1.368 . S
C789 C770 1.429 . S
C789 C783 1.429 . S
C789 C790 1.523 . S
C790 C771 1.368 . S
C790 C784 1.368 . S
C790 C789 1.523 . S
C791 C775 1.429 . S
C791 C787 1.429 . S
C791 C792 1.523 . S
C792 C776 1.368 . S
C792 C788 1.368 . S
C792 C791 1.523 . S
H793 C768 0.950 . S
H794 C770 0.950 . S
H795 C771 0.949 . S
H796 C773 0.950 . S
H797 C775 0.950 . S
C798 C799 1.349 . S
C798 C800 1.327 . S
C798 H823 0.950 . S
C799 C798 1.349 . S
C799 C815 1.349 . S
C800 C798 1.327 . S
C800 C819 1.429 . S
C800 H824 0.950 . S
C801 C818 1.574 . S
C801 C820 1.368 . S
C801 H825 0.949 . S
H802 C806 0.949 . S
C803 C804 1.349 . S
C803 C805 1.327 . S
C803 H826 0.950 . S
C804 C803 1.349 . S
C804 C816 1.349 . S
C805 C803 1.327 . S
C805 C821 1.429 . S
C805 H827 0.950 . S
C806 H802 0.949 . S
C806 C814 1.574 . S
C806 C822 1.368 . S
H807 C815 0.950 . S
H808 C813 0.950 . S
H809 C814 0.949 . S
H810 C816 0.950 . S
H811 C817 0.950 . S
H812 C818 0.949 . S
C813 H808 0.950 . S
C813 C815 1.327 . S
C813 C819 1.429 . S
C814 C806 1.574 . S
C814 H809 0.949 . S
C814 C820 1.368 . S
C815 C799 1.349 . S
C815 H807 0.950 . S
C815 C813 1.327 . S
C816 C804 1.349 . S
C816 H810 0.950 . S
C816 C817 1.327 . S
C817 H811 0.950 . S
C817 C816 1.327 . S
C817 C821 1.429 . S
C818 C801 1.574 . S
C818 H812 0.949 . S
C818 C822 1.368 . S
C819 C800 1.429 . S
C819 C813 1.429 . S
C819 C820 1.523 . S
C820 C801 1.368 . S
C820 C814 1.368 . S
C820 C819 1.523 . S
C821 C805 1.429 . S
C821 C817 1.429 . S
C821 C822 1.523 . S
C822 C806 1.368 . S
C822 C818 1.368 . S
C822 C821 1.523 . S
H823 C798 0.950 . S
H824 C800 0.950 . S
H825 C801 0.949 . S
H826 C803 0.950 . S
H827 C805 0.950 . S
C828 C829 1.349 . S
C828 C830 1.327 . S
C828 H853 0.950 . S
C829 C828 1.349 . S
C829 C845 1.349 . S
C830 C828 1.327 . S
C830 C849 1.429 . S
C830 H854 0.950 . S
C831 C848 1.574 . S
C831 C850 1.368 . S
C831 H855 0.949 . S
H832 C836 0.949 . S
C833 C834 1.349 . S
C833 C835 1.327 . S
C833 H856 0.950 . S
C834 C833 1.349 . S
C834 C846 1.349 . S
C835 C833 1.327 . S
C835 C851 1.429 . S
C835 H857 0.950 . S
C836 H832 0.949 . S
C836 C844 1.574 . S
C836 C852 1.368 . S
H837 C845 0.950 . S
H838 C843 0.950 . S
H839 C844 0.949 . S
H840 C846 0.950 . S
H841 C847 0.950 . S
H842 C848 0.949 . S
C843 H838 0.950 . S
C843 C845 1.327 . S
C843 C849 1.429 . S
C844 C836 1.574 . S
C844 H839 0.949 . S
C844 C850 1.368 . S
C845 C829 1.349 . S
C845 H837 0.950 . S
C845 C843 1.327 . S
C846 C834 1.349 . S
C846 H840 0.950 . S
C846 C847 1.327 . S
C847 H841 0.950 . S
C847 C846 1.327 . S
C847 C851 1.429 . S
C848 C831 1.574 . S
C848 H842 0.949 . S
C848 C852 1.368 . S
C849 C830 1.429 . S
C849 C843 1.429 . S
C849 C850 1.523 . S
C850 C831 1.368 . S
C850 C844 1.368 . S
C850 C849 1.523 . S
C851 C835 1.429 . S
C851 C847 1.429 . S
C851 C852 1.523 . S
C852 C836 1.368 . S
C852 C848 1.368 . S
C852 C851 1.523 . S
H853 C828 0.950 . S
H854 C830 0.950 . S
H855 C831 0.949 . S
H856 C833 0.950 . S
H857 C835 0.950 . S
C858 C859 1.349 . S
C858 C860 1.327 . S
C858 H883 0.950 . S
C859 C858 1.349 . S
C859 C875 1.349 . S
C860 C858 1.327 . S
C860 C879 1.429 . S
C860 H884 0.950 . S
C861 C878 1.574 . S
C861 C880 1.368 . S
C861 H885 0.949 . S
H862 C866 0.949 . S
C863 C864 1.349 . S
C863 C865 1.327 . S
C863 H886 0.950 . S
C864 C863 1.349 . S
C864 C876 1.349 . S
C865 C863 1.327 . S
C865 C881 1.429 . S
C865 H887 0.950 . S
C866 H862 0.949 . S
C866 C874 1.574 . S
C866 C882 1.368 . S
H867 C875 0.950 . S
H868 C873 0.950 . S
H869 C874 0.949 . S
H870 C876 0.950 . S
H871 C877 0.950 . S
H872 C878 0.949 . S
C873 H868 0.950 . S
C873 C875 1.327 . S
C873 C879 1.429 . S
C874 C866 1.574 . S
C874 H869 0.949 . S
C874 C880 1.368 . S
C875 C859 1.349 . S
C875 H867 0.950 . S
C875 C873 1.327 . S
C876 C864 1.349 . S
C876 H870 0.950 . S
C876 C877 1.327 . S
C877 H871 0.950 . S
C877 C876 1.327 . S
C877 C881 1.429 . S
C878 C861 1.574 . S
C878 H872 0.949 . S
C878 C882 1.368 . S
C879 C860 1.429 . S
C879 C873 1.429 . S
C879 C880 1.523 . S
C880 C861 1.368 . S
C880 C874 1.368 . S
C880 C879 1.523 . S
C881 C865 1.429 . S
C881 C877 1.429 . S
C881 C882 1.523 . S
C882 C866 1.368 . S
C882 C878 1.368 . S
C882 C881 1.523 . S
H883 C858 0.950 . S
H884 C860 0.950 . S
H885 C861 0.949 . S
H886 C863 0.950 . S
H887 C865 0.950 . S
C888 C889 1.349 . S
C888 C890 1.327 . S
C888 H913 0.950 . S
C889 C888 1.349 . S
C889 C905 1.349 . S
C890 C888 1.327 . S
C890 C909 1.429 . S
C890 H914 0.950 . S
C891 C908 1.574 . S
C891 C910 1.368 . S
C891 H915 0.949 . S
H892 C896 0.949 . S
C893 C894 1.349 . S
C893 C895 1.327 . S
C893 H916 0.950 . S
C894 C893 1.349 . S
C894 C906 1.349 . S
C895 C893 1.327 . S
C895 C911 1.429 . S
C895 H917 0.950 . S
C896 H892 0.949 . S
C896 C904 1.574 . S
C896 C912 1.368 . S
H897 C905 0.950 . S
H898 C903 0.950 . S
H899 C904 0.949 . S
H900 C906 0.950 . S
H901 C907 0.950 . S
H902 C908 0.949 . S
C903 H898 0.950 . S
C903 C905 1.327 . S
C903 C909 1.429 . S
C904 C896 1.574 . S
C904 H899 0.949 . S
C904 C910 1.368 . S
C905 C889 1.349 . S
C905 H897 0.950 . S
C905 C903 1.327 . S
C906 C894 1.349 . S
C906 H900 0.950 . S
C906 C907 1.327 . S
C907 H901 0.950 . S
C907 C906 1.327 . S
C907 C911 1.429 . S
C908 C891 1.574 . S
C908 H902 0.949 . S
C908 C912 1.368 . S
C909 C890 1.429 . S
C909 C903 1.429 . S
C909 C910 1.523 . S
C910 C891 1.368 . S
C910 C904 1.368 . S
C910 C909 1.523 . S
C911 C895 1.429 . S
C911 C907 1.429 . S
C911 C912 1.523 . S
C912 C896 1.368 . S
C912 C908 1.368 . S
C912 C911 1.523 . S
H913 C888 0.950 . S
H914 C890 0.950 . S
H915 C891 0.949 . S
H916 C893 0.950 . S
H917 C895 0.950 . S
C918 C919 1.349 . S
C918 C920 1.327 . S
C918 H943 0.950 . S
C919 C918 1.349 . S
C919 C935 1.349 . S
C920 C918 1.327 . S
C920 C939 1.429 . S
C920 H944 0.950 . S
C921 C938 1.574 . S
C921 C940 1.368 . S
C921 H945 0.949 . S
H922 C926 0.949 . S
C923 C924 1.349 . S
C923 C925 1.327 . S
C923 H946 0.950 . S
C924 C923 1.349 . S
C924 C936 1.349 . S
C925 C923 1.327 . S
C925 C941 1.429 . S
C925 H947 0.950 . S
C926 H922 0.949 . S
C926 C934 1.574 . S
C926 C942 1.368 . S
H927 C935 0.950 . S
H928 C933 0.950 . S
H929 C934 0.949 . S
H930 C936 0.950 . S
H931 C937 0.950 . S
H932 C938 0.949 . S
C933 H928 0.950 . S
C933 C935 1.327 . S
C933 C939 1.429 . S
C934 C926 1.574 . S
C934 H929 0.949 . S
C934 C940 1.368 . S
C935 C919 1.349 . S
C935 H927 0.950 . S
C935 C933 1.327 . S
C936 C924 1.349 . S
C936 H930 0.950 . S
C936 C937 1.327 . S
C937 H931 0.950 . S
C937 C936 1.327 . S
C937 C941 1.429 . S
C938 C921 1.574 . S
C938 H932 0.949 . S
C938 C942 1.368 . S
C939 C920 1.429 . S
C939 C933 1.429 . S
C939 C940 1.523 . S
C940 C921 1.368 . S
C940 C934 1.368 . S
C940 C939 1.523 . S
C941 C925 1.429 . S
C941 C937 1.429 . S
C941 C942 1.523 . S
C942 C926 1.368 . S
C942 C938 1.368 . S
C942 C941 1.523 . S
H943 C918 0.950 . S
H944 C920 0.950 . S
H945 C921 0.949 . S
H946 C923 0.950 . S
H947 C925 0.950 . S
C948 C949 1.349 . S
C948 C950 1.327 . S
C948 H973 0.950 . S
C949 C948 1.349 . S
C949 C965 1.349 . S
C950 C948 1.327 . S
C950 C969 1.429 . S
C950 H974 0.950 . S
C951 C968 1.574 . S
C951 C970 1.368 . S
C951 H975 0.949 . S
H952 C956 0.949 . S
C953 C954 1.349 . S
C953 C955 1.327 . S
C953 H976 0.950 . S
C954 C953 1.349 . S
C954 C966 1.349 . S
C955 C953 1.327 . S
C955 C971 1.429 . S
C955 H977 0.950 . S
C956 H952 0.949 . S
C956 C964 1.574 . S
C956 C972 1.368 . S
H957 C965 0.950 . S
H958 C963 0.950 . S
H959 C964 0.949 . S
H960 C966 0.950 . S
H961 C967 0.950 . S
H962 C968 0.949 . S
C963 H958 0.950 . S
C963 C965 1.327 . S
C963 C969 1.429 . S
C964 C956 1.574 . S
C964 H959 0.949 . S
C964 C970 1.368 . S
C965 C949 1.349 . S
C965 H957 0.950 . S
C965 C963 1.327 . S
C966 C954 1.349 . S
C966 H960 0.950 . S
C966 C967 1.327 . S
C967 H961 0.950 . S
C967 C966 1.327 . S
C967 C971 1.429 . S
C968 C951 1.574 . S
C968 H962 0.949 . S
C968 C972 1.368 . S
C969 C950 1.429 . S
C969 C963 1.429 . S
C969 C970 1.523 . S
C970 C951 1.368 . S
C970 C964 1.368 . S
C970 C969 1.523 . S
C971 C955 1.429 . S
C971 C967 1.429 . S
C971 C972 1.523 . S
C972 C956 1.368 . S
C972 C968 1.368 . S
C972 C971 1.523 . S
H973 C948 0.950 . S
H974 C950 0.950 . S
H975 C951 0.949 . S
H976 C953 0.950 . S
H977 C955 0.950 . S
C978 C979 1.349 . S
C978 C980 1.327 . S
C978 H1003 0.950 . S
C979 C978 1.349 . S
C979 C995 1.349 . S
C980 C978 1.327 . S
C980 C999 1.429 . S
C980 H1004 0.950 . S
C981 C998 1.574 . S
C981 C1000 1.368 . S
C981 H1005 0.949 . S
H982 C986 0.949 . S
C983 C984 1.349 . S
C983 C985 1.327 . S
C983 H1006 0.950 . S
C984 C983 1.349 . S
C984 C996 1.349 . S
C985 C983 1.327 . S
C985 C1001 1.429 . S
C985 H1007 0.950 . S
C986 H982 0.949 . S
C986 C994 1.574 . S
C986 C1002 1.368 . S
H987 C995 0.950 . S
H988 C993 0.950 . S
H989 C994 0.949 . S
H990 C996 0.950 . S
H991 C997 0.950 . S
H992 C998 0.949 . S
C993 H988 0.950 . S
C993 C995 1.327 . S
C993 C999 1.429 . S
C994 C986 1.574 . S
C994 H989 0.949 . S
C994 C1000 1.368 . S
C995 C979 1.349 . S
C995 H987 0.950 . S
C995 C993 1.327 . S
C996 C984 1.349 . S
C996 H990 0.950 . S
C996 C997 1.327 . S
C997 H991 0.950 . S
C997 C996 1.327 . S
C997 C1001 1.429 . S
C998 C981 1.574 . S
C998 H992 0.949 . S
C998 C1002 1.368 . S
C999 C980 1.429 . S
C999 C993 1.429 . S
C999 C1000 1.523 . S
C1000 C981 1.368 . S
C1000 C994 1.368 . S
C1000 C999 1.523 . S
C1001 C985 1.429 . S
C1001 C997 1.429 . S
C1001 C1002 1.523 . S
C1002 C986 1.368 . S
C1002 C998 1.368 . S
C1002 C1001 1.523 . S
H1003 C978 0.950 . S
H1004 C980 0.950 . S
H1005 C981 0.949 . S
H1006 C983 0.950 . S
H1007 C985 0.950 . S
C1008 C1009 1.349 . S
C1008 C1010 1.327 . S
C1008 H1033 0.950 . S
C1009 C1008 1.349 . S
C1009 C1025 1.349 . S
C1010 C1008 1.327 . S
C1010 C1029 1.429 . S
C1010 H1034 0.950 . S
C1011 C1028 1.574 . S
C1011 C1030 1.368 . S
C1011 H1035 0.949 . S
H1012 C1016 0.949 . S
C1013 C1014 1.349 . S
C1013 C1015 1.327 . S
C1013 H1036 0.950 . S
C1014 C1013 1.349 . S
C1014 C1026 1.349 . S
C1015 C1013 1.327 . S
C1015 C1031 1.429 . S
C1015 H1037 0.950 . S
C1016 H1012 0.949 . S
C1016 C1024 1.574 . S
C1016 C1032 1.368 . S
H1017 C1025 0.950 . S
H1018 C1023 0.950 . S
H1019 C1024 0.949 . S
H1020 C1026 0.950 . S
H1021 C1027 0.950 . S
H1022 C1028 0.949 . S
C1023 H1018 0.950 . S
C1023 C1025 1.327 . S
C1023 C1029 1.429 . S
C1024 C1016 1.574 . S
C1024 H1019 0.949 . S
C1024 C1030 1.368 . S
C1025 C1009 1.349 . S
C1025 H1017 0.950 . S
C1025 C1023 1.327 . S
C1026 C1014 1.349 . S
C1026 H1020 0.950 . S
C1026 C1027 1.327 . S
C1027 H1021 0.950 . S
C1027 C1026 1.327 . S
C1027 C1031 1.429 . S
C1028 C1011 1.574 . S
C1028 H1022 0.949 . S
C1028 C1032 1.368 . S
C1029 C1010 1.429 . S
C1029 C1023 1.429 . S
C1029 C1030 1.523 . S
C1030 C1011 1.368 . S
C1030 C1024 1.368 . S
C1030 C1029 1.523 . S
C1031 C1015 1.429 . S
C1031 C1027 1.429 . S
C1031 C1032 1.523 . S
C1032 C1016 1.368 . S
C1032 C1028 1.368 . S
C1032 C1031 1.523 . S
H1033 C1008 0.950 . S
H1034 C1010 0.950 . S
H1035 C1011 0.949 . S
H1036 C1013 0.950 . S
H1037 C1015 0.950 . S
C1038 C1039 1.349 . S
C1038 C1040 1.327 . S
C1038 H1063 0.950 . S
C1039 C1038 1.349 . S
C1039 C1055 1.349 . S
C1040 C1038 1.327 . S
C1040 C1059 1.429 . S
C1040 H1064 0.950 . S
C1041 C1058 1.574 . S
C1041 C1060 1.368 . S
C1041 H1065 0.949 . S
H1042 C1046 0.949 . S
C1043 C1044 1.349 . S
C1043 C1045 1.327 . S
C1043 H1066 0.950 . S
C1044 C1043 1.349 . S
C1044 C1056 1.349 . S
C1045 C1043 1.327 . S
C1045 C1061 1.429 . S
C1045 H1067 0.950 . S
C1046 H1042 0.949 . S
C1046 C1054 1.574 . S
C1046 C1062 1.368 . S
H1047 C1055 0.950 . S
H1048 C1053 0.950 . S
H1049 C1054 0.949 . S
H1050 C1056 0.950 . S
H1051 C1057 0.950 . S
H1052 C1058 0.949 . S
C1053 H1048 0.950 . S
C1053 C1055 1.327 . S
C1053 C1059 1.429 . S
C1054 C1046 1.574 . S
C1054 H1049 0.949 . S
C1054 C1060 1.368 . S
C1055 C1039 1.349 . S
C1055 H1047 0.950 . S
C1055 C1053 1.327 . S
C1056 C1044 1.349 . S
C1056 H1050 0.950 . S
C1056 C1057 1.327 . S
C1057 H1051 0.950 . S
C1057 C1056 1.327 . S
C1057 C1061 1.429 . S
C1058 C1041 1.574 . S
C1058 H1052 0.949 . S
C1058 C1062 1.368 . S
C1059 C1040 1.429 . S
C1059 C1053 1.429 . S
C1059 C1060 1.523 . S
C1060 C1041 1.368 . S
C1060 C1054 1.368 . S
C1060 C1059 1.523 . S
C1061 C1045 1.429 . S
C1061 C1057 1.429 . S
C1061 C1062 1.523 . S
C1062 C1046 1.368 . S
C1062 C1058 1.368 . S
C1062 C1061 1.523 . S
H1063 C1038 0.950 . S
H1064 C1040 0.950 . S
H1065 C1041 0.949 . S
H1066 C1043 0.950 . S
H1067 C1045 0.950 . S
C1068 C1069 1.349 . S
C1068 C1070 1.327 . S
C1068 H1093 0.950 . S
C1069 C1068 1.349 . S
C1069 C1085 1.349 . S
C1070 C1068 1.327 . S
C1070 C1089 1.429 . S
C1070 H1094 0.950 . S
C1071 C1088 1.574 . S
C1071 C1090 1.368 . S
C1071 H1095 0.949 . S
H1072 C1076 0.949 . S
C1073 C1074 1.349 . S
C1073 C1075 1.327 . S
C1073 H1096 0.950 . S
C1074 C1073 1.349 . S
C1074 C1086 1.349 . S
C1075 C1073 1.327 . S
C1075 C1091 1.429 . S
C1075 H1097 0.950 . S
C1076 H1072 0.949 . S
C1076 C1084 1.574 . S
C1076 C1092 1.368 . S
H1077 C1085 0.950 . S
H1078 C1083 0.950 . S
H1079 C1084 0.949 . S
H1080 C1086 0.950 . S
H1081 C1087 0.950 . S
H1082 C1088 0.949 . S
C1083 H1078 0.950 . S
C1083 C1085 1.327 . S
C1083 C1089 1.429 . S
C1084 C1076 1.574 . S
C1084 H1079 0.949 . S
C1084 C1090 1.368 . S
C1085 C1069 1.349 . S
C1085 H1077 0.950 . S
C1085 C1083 1.327 . S
C1086 C1074 1.349 . S
C1086 H1080 0.950 . S
C1086 C1087 1.327 . S
C1087 H1081 0.950 . S
C1087 C1086 1.327 . S
C1087 C1091 1.429 . S
C1088 C1071 1.574 . S
C1088 H1082 0.949 . S
C1088 C1092 1.368 . S
C1089 C1070 1.429 . S
C1089 C1083 1.429 . S
C1089 C1090 1.523 . S
C1090 C1071 1.368 . S
C1090 C1084 1.368 . S
C1090 C1089 1.523 . S
C1091 C1075 1.429 . S
C1091 C1087 1.429 . S
C1091 C1092 1.523 . S
C1092 C1076 1.368 . S
C1092 C1088 1.368 . S
C1092 C1091 1.523 . S
H1093 C1068 0.950 . S
H1094 C1070 0.950 . S
H1095 C1071 0.949 . S
H1096 C1073 0.950 . S
H1097 C1075 0.950 . S
C1098 C1099 1.349 . S
C1098 C1100 1.327 . S
C1098 H1123 0.950 . S
C1099 C1098 1.349 . S
C1099 C1115 1.349 . S
C1100 C1098 1.327 . S
C1100 C1119 1.429 . S
C1100 H1124 0.950 . S
C1101 C1118 1.574 . S
C1101 C1120 1.368 . S
C1101 H1125 0.949 . S
H1102 C1106 0.949 . S
C1103 C1104 1.349 . S
C1103 C1105 1.327 . S
C1103 H1126 0.950 . S
C1104 C1103 1.349 . S
C1104 C1116 1.349 . S
C1105 C1103 1.327 . S
C1105 C1121 1.429 . S
C1105 H1127 0.950 . S
C1106 H1102 0.949 . S
C1106 C1114 1.574 . S
C1106 C1122 1.368 . S
H1107 C1115 0.950 . S
H1108 C1113 0.950 . S
H1109 C1114 0.949 . S
H1110 C1116 0.950 . S
H1111 C1117 0.950 . S
H1112 C1118 0.949 . S
C1113 H1108 0.950 . S
C1113 C1115 1.327 . S
C1113 C1119 1.429 . S
C1114 C1106 1.574 . S
C1114 H1109 0.949 . S
C1114 C1120 1.368 . S
C1115 C1099 1.349 . S
C1115 H1107 0.950 . S
C1115 C1113 1.327 . S
C1116 C1104 1.349 . S
C1116 H1110 0.950 . S
C1116 C1117 1.327 . S
C1117 H1111 0.950 . S
C1117 C1116 1.327 . S
C1117 C1121 1.429 . S
C1118 C1101 1.574 . S
C1118 H1112 0.949 . S
C1118 C1122 1.368 . S
C1119 C1100 1.429 . S
C1119 C1113 1.429 . S
C1119 C1120 1.523 . S
C1120 C1101 1.368 . S
C1120 C1114 1.368 . S
C1120 C1119 1.523 . S
C1121 C1105 1.429 . S
C1121 C1117 1.429 . S
C1121 C1122 1.523 . S
C1122 C1106 1.368 . S
C1122 C1118 1.368 . S
C1122 C1121 1.523 . S
H1123 C1098 0.950 . S
H1124 C1100 0.950 . S
H1125 C1101 0.949 . S
H1126 C1103 0.950 . S
H1127 C1105 0.950 . S
C1128 C1129 1.349 . S
C1128 C1130 1.327 . S
C1128 H1153 0.950 . S
C1129 C1128 1.349 . S
C1129 C1145 1.349 . S
C1130 C1128 1.327 . S
C1130 C1149 1.429 . S
C1130 H1154 0.950 . S
C1131 C1148 1.574 . S
C1131 C1150 1.368 . S
C1131 H1155 0.949 . S
H1132 C1136 0.949 . S
C1133 C1134 1.349 . S
C1133 C1135 1.327 . S
C1133 H1156 0.950 . S
C1134 C1133 1.349 . S
C1134 C1146 1.349 . S
C1135 C1133 1.327 . S
C1135 C1151 1.429 . S
C1135 H1157 0.950 . S
C1136 H1132 0.949 . S
C1136 C1144 1.574 . S
C1136 C1152 1.368 . S
H1137 C1145 0.950 . S
H1138 C1143 0.950 . S
H1139 C1144 0.949 . S
H1140 C1146 0.950 . S
H1141 C1147 0.950 . S
H1142 C1148 0.949 . S
C1143 H1138 0.950 . S
C1143 C1145 1.327 . S
C1143 C1149 1.429 . S
C1144 C1136 1.574 . S
C1144 H1139 0.949 . S
C1144 C1150 1.368 . S
C1145 C1129 1.349 . S
C1145 H1137 0.950 . S
C1145 C1143 1.327 . S
C1146 C1134 1.349 . S
C1146 H1140 0.950 . S
C1146 C1147 1.327 . S
C1147 H1141 0.950 . S
C1147 C1146 1.327 . S
C1147 C1151 1.429 . S
C1148 C1131 1.574 . S
C1148 H1142 0.949 . S
C1148 C1152 1.368 . S
C1149 C1130 1.429 . S
C1149 C1143 1.429 . S
C1149 C1150 1.523 . S
C1150 C1131 1.368 . S
C1150 C1144 1.368 . S
C1150 C1149 1.523 . S
C1151 C1135 1.429 . S
C1151 C1147 1.429 . S
C1151 C1152 1.523 . S
C1152 C1136 1.368 . S
C1152 C1148 1.368 . S
C1152 C1151 1.523 . S
H1153 C1128 0.950 . S
H1154 C1130 0.950 . S
H1155 C1131 0.949 . S
H1156 C1133 0.950 . S
H1157 C1135 0.950 . S
C1158 C1159 1.349 . S
C1158 C1160 1.327 . S
C1158 H1183 0.950 . S
C1159 C1158 1.349 . S
C1159 C1175 1.349 . S
C1160 C1158 1.327 . S
C1160 C1179 1.429 . S
C1160 H1184 0.950 . S
C1161 C1178 1.574 . S
C1161 C1180 1.368 . S
C1161 H1185 0.949 . S
H1162 C1166 0.949 . S
C1163 C1164 1.349 . S
C1163 C1165 1.327 . S
C1163 H1186 0.950 . S
C1164 C1163 1.349 . S
C1164 C1176 1.349 . S
C1165 C1163 1.327 . S
C1165 C1181 1.429 . S
C1165 H1187 0.950 . S
C1166 H1162 0.949 . S
C1166 C1174 1.574 . S
C1166 C1182 1.368 . S
H1167 C1175 0.950 . S
H1168 C1173 0.950 . S
H1169 C1174 0.949 . S
H1170 C1176 0.950 . S
H1171 C1177 0.950 . S
H1172 C1178 0.949 . S
C1173 H1168 0.950 . S
C1173 C1175 1.327 . S
C1173 C1179 1.429 . S
C1174 C1166 1.574 . S
C1174 H1169 0.949 . S
C1174 C1180 1.368 . S
C1175 C1159 1.349 . S
C1175 H1167 0.950 . S
C1175 C1173 1.327 . S
C1176 C1164 1.349 . S
C1176 H1170 0.950 . S
C1176 C1177 1.327 . S
C1177 H1171 0.950 . S
C1177 C1176 1.327 . S
C1177 C1181 1.429 . S
C1178 C1161 1.574 . S
C1178 H1172 0.949 . S
C1178 C1182 1.368 . S
C1179 C1160 1.429 . S
C1179 C1173 1.429 . S
C1179 C1180 1.523 . S
C1180 C1161 1.368 . S
C1180 C1174 1.368 . S
C1180 C1179 1.523 . S
C1181 C1165 1.429 . S
C1181 C1177 1.429 . S
C1181 C1182 1.523 . S
C1182 C1166 1.368 . S
C1182 C1178 1.368 . S
C1182 C1181 1.523 . S
H1183 C1158 0.950 . S
H1184 C1160 0.950 . S
H1185 C1161 0.949 . S
H1186 C1163 0.950 . S
H1187 C1165 0.950 . S
C1188 C1189 1.349 . S
C1188 C1190 1.327 . S
C1188 H1213 0.950 . S
C1189 C1188 1.349 . S
C1189 C1205 1.349 . S
C1190 C1188 1.327 . S
C1190 C1209 1.429 . S
C1190 H1214 0.950 . S
C1191 C1208 1.574 . S
C1191 C1210 1.368 . S
C1191 H1215 0.949 . S
H1192 C1196 0.949 . S
C1193 C1194 1.349 . S
C1193 C1195 1.327 . S
C1193 H1216 0.950 . S
C1194 C1193 1.349 . S
C1194 C1206 1.349 . S
C1195 C1193 1.327 . S
C1195 C1211 1.429 . S
C1195 H1217 0.950 . S
C1196 H1192 0.949 . S
C1196 C1204 1.574 . S
C1196 C1212 1.368 . S
H1197 C1205 0.950 . S
H1198 C1203 0.950 . S
H1199 C1204 0.949 . S
H1200 C1206 0.950 . S
H1201 C1207 0.950 . S
H1202 C1208 0.949 . S
C1203 H1198 0.950 . S
C1203 C1205 1.327 . S
C1203 C1209 1.429 . S
C1204 C1196 1.574 . S
C1204 H1199 0.949 . S
C1204 C1210 1.368 . S
C1205 C1189 1.349 . S
C1205 H1197 0.950 . S
C1205 C1203 1.327 . S
C1206 C1194 1.349 . S
C1206 H1200 0.950 . S
C1206 C1207 1.327 . S
C1207 H1201 0.950 . S
C1207 C1206 1.327 . S
C1207 C1211 1.429 . S
C1208 C1191 1.574 . S
C1208 H1202 0.949 . S
C1208 C1212 1.368 . S
C1209 C1190 1.429 . S
C1209 C1203 1.429 . S
C1209 C1210 1.523 . S
C1210 C1191 1.368 . S
C1210 C1204 1.368 . S
C1210 C1209 1.523 . S
C1211 C1195 1.429 . S
C1211 C1207 1.429 . S
C1211 C1212 1.523 . S
C1212 C1196 1.368 . S
C1212 C1208 1.368 . S
C1212 C1211 1.523 . S
H1213 C1188 0.950 . S
H1214 C1190 0.950 . S
H1215 C1191 0.949 . S
H1216 C1193 0.950 . S
H1217 C1195 0.950 . S
C1218 C1219 1.349 . S
C1218 C1220 1.327 . S
C1218 H1243 0.950 . S
C1219 C1218 1.349 . S
C1219 C1235 1.349 . S
C1220 C1218 1.327 . S
C1220 C1239 1.429 . S
C1220 H1244 0.950 . S
C1221 C1238 1.574 . S
C1221 C1240 1.368 . S
C1221 H1245 0.949 . S
H1222 C1226 0.949 . S
C1223 C1224 1.349 . S
C1223 C1225 1.327 . S
C1223 H1246 0.950 . S
C1224 C1223 1.349 . S
C1224 C1236 1.349 . S
C1225 C1223 1.327 . S
C1225 C1241 1.429 . S
C1225 H1247 0.950 . S
C1226 H1222 0.949 . S
C1226 C1234 1.574 . S
C1226 C1242 1.368 . S
H1227 C1235 0.950 . S
H1228 C1233 0.950 . S
H1229 C1234 0.949 . S
H1230 C1236 0.950 . S
H1231 C1237 0.950 . S
H1232 C1238 0.949 . S
C1233 H1228 0.950 . S
C1233 C1235 1.327 . S
C1233 C1239 1.429 . S
C1234 C1226 1.574 . S
C1234 H1229 0.949 . S
C1234 C1240 1.368 . S
C1235 C1219 1.349 . S
C1235 H1227 0.950 . S
C1235 C1233 1.327 . S
C1236 C1224 1.349 . S
C1236 H1230 0.950 . S
C1236 C1237 1.327 . S
C1237 H1231 0.950 . S
C1237 C1236 1.327 . S
C1237 C1241 1.429 . S
C1238 C1221 1.574 . S
C1238 H1232 0.949 . S
C1238 C1242 1.368 . S
C1239 C1220 1.429 . S
C1239 C1233 1.429 . S
C1239 C1240 1.523 . S
C1240 C1221 1.368 . S
C1240 C1234 1.368 . S
C1240 C1239 1.523 . S
C1241 C1225 1.429 . S
C1241 C1237 1.429 . S
C1241 C1242 1.523 . S
C1242 C1226 1.368 . S
C1242 C1238 1.368 . S
C1242 C1241 1.523 . S
H1243 C1218 0.950 . S
H1244 C1220 0.950 . S
H1245 C1221 0.949 . S
H1246 C1223 0.950 . S
H1247 C1225 0.950 . S
C1248 C1249 1.349 . S
C1248 C1250 1.327 . S
C1248 H1273 0.950 . S
C1249 C1248 1.349 . S
C1249 C1265 1.349 . S
C1250 C1248 1.327 . S
C1250 C1269 1.429 . S
C1250 H1274 0.950 . S
C1251 C1268 1.574 . S
C1251 C1270 1.368 . S
C1251 H1275 0.949 . S
H1252 C1256 0.949 . S
C1253 C1254 1.349 . S
C1253 C1255 1.327 . S
C1253 H1276 0.950 . S
C1254 C1253 1.349 . S
C1254 C1266 1.349 . S
C1255 C1253 1.327 . S
C1255 C1271 1.429 . S
C1255 H1277 0.950 . S
C1256 H1252 0.949 . S
C1256 C1264 1.574 . S
C1256 C1272 1.368 . S
H1257 C1265 0.950 . S
H1258 C1263 0.950 . S
H1259 C1264 0.949 . S
H1260 C1266 0.950 . S
H1261 C1267 0.950 . S
H1262 C1268 0.949 . S
C1263 H1258 0.950 . S
C1263 C1265 1.327 . S
C1263 C1269 1.429 . S
C1264 C1256 1.574 . S
C1264 H1259 0.949 . S
C1264 C1270 1.368 . S
C1265 C1249 1.349 . S
C1265 H1257 0.950 . S
C1265 C1263 1.327 . S
C1266 C1254 1.349 . S
C1266 H1260 0.950 . S
C1266 C1267 1.327 . S
C1267 H1261 0.950 . S
C1267 C1266 1.327 . S
C1267 C1271 1.429 . S
C1268 C1251 1.574 . S
C1268 H1262 0.949 . S
C1268 C1272 1.368 . S
C1269 C1250 1.429 . S
C1269 C1263 1.429 . S
C1269 C1270 1.523 . S
C1270 C1251 1.368 . S
C1270 C1264 1.368 . S
C1270 C1269 1.523 . S
C1271 C1255 1.429 . S
C1271 C1267 1.429 . S
C1271 C1272 1.523 . S
C1272 C1256 1.368 . S
C1272 C1268 1.368 . S
C1272 C1271 1.523 . S
H1273 C1248 0.950 . S
H1274 C1250 0.950 . S
H1275 C1251 0.949 . S
H1276 C1253 0.950 . S
H1277 C1255 0.950 . S
C1278 C1279 1.349 . S
C1278 C1280 1.327 . S
C1278 H1303 0.950 . S
C1279 C1278 1.349 . S
C1279 C1295 1.349 . S
C1280 C1278 1.327 . S
C1280 C1299 1.429 . S
C1280 H1304 0.950 . S
C1281 C1298 1.574 . S
C1281 C1300 1.368 . S
C1281 H1305 0.949 . S
H1282 C1286 0.949 . S
C1283 C1284 1.349 . S
C1283 C1285 1.327 . S
C1283 H1306 0.950 . S
C1284 C1283 1.349 . S
C1284 C1296 1.349 . S
C1285 C1283 1.327 . S
C1285 C1301 1.429 . S
C1285 H1307 0.950 . S
C1286 H1282 0.949 . S
C1286 C1294 1.574 . S
C1286 C1302 1.368 . S
H1287 C1295 0.950 . S
H1288 C1293 0.950 . S
H1289 C1294 0.949 . S
H1290 C1296 0.950 . S
H1291 C1297 0.950 . S
H1292 C1298 0.949 . S
C1293 H1288 0.950 . S
C1293 C1295 1.327 . S
C1293 C1299 1.429 . S
C1294 C1286 1.574 . S
C1294 H1289 0.949 . S
C1294 C1300 1.368 . S
C1295 C1279 1.349 . S
C1295 H1287 0.950 . S
C1295 C1293 1.327 . S
C1296 C1284 1.349 . S
C1296 H1290 0.950 . S
C1296 C1297 1.327 . S
C1297 H1291 0.950 . S
C1297 C1296 1.327 . S
C1297 C1301 1.429 . S
C1298 C1281 1.574 . S
C1298 H1292 0.949 . S
C1298 C1302 1.368 . S
C1299 C1280 1.429 . S
C1299 C1293 1.429 . S
C1299 C1300 1.523 . S
C1300 C1281 1.368 . S
C1300 C1294 1.368 . S
C1300 C1299 1.523 . S
C1301 C1285 1.429 . S
C1301 C1297 1.429 . S
C1301 C1302 1.523 . S
C1302 C1286 1.368 . S
C1302 C1298 1.368 . S
C1302 C1301 1.523 . S
H1303 C1278 0.950 . S
H1304 C1280 0.950 . S
H1305 C1281 0.949 . S
H1306 C1283 0.950 . S
H1307 C1285 0.950 . S
C1308 C1309 1.349 . S
C1308 C1310 1.327 . S
C1308 H1333 0.950 . S
C1309 C1308 1.349 . S
C1309 C1325 1.349 . S
C1310 C1308 1.327 . S
C1310 C1329 1.429 . S
C1310 H1334 0.950 . S
C1311 C1328 1.574 . S
C1311 C1330 1.368 . S
C1311 H1335 0.949 . S
H1312 C1316 0.949 . S
C1313 C1314 1.349 . S
C1313 C1315 1.327 . S
C1313 H1336 0.950 . S
C1314 C1313 1.349 . S
C1314 C1326 1.349 . S
C1315 C1313 1.327 . S
C1315 C1331 1.429 . S
C1315 H1337 0.950 . S
C1316 H1312 0.949 . S
C1316 C1324 1.574 . S
C1316 C1332 1.368 . S
H1317 C1325 0.950 . S
H1318 C1323 0.950 . S
H1319 C1324 0.949 . S
H1320 C1326 0.950 . S
H1321 C1327 0.950 . S
H1322 C1328 0.949 . S
C1323 H1318 0.950 . S
C1323 C1325 1.327 . S
C1323 C1329 1.429 . S
C1324 C1316 1.574 . S
C1324 H1319 0.949 . S
C1324 C1330 1.368 . S
C1325 C1309 1.349 . S
C1325 H1317 0.950 . S
C1325 C1323 1.327 . S
C1326 C1314 1.349 . S
C1326 H1320 0.950 . S
C1326 C1327 1.327 . S
C1327 H1321 0.950 . S
C1327 C1326 1.327 . S
C1327 C1331 1.429 . S
C1328 C1311 1.574 . S
C1328 H1322 0.949 . S
C1328 C1332 1.368 . S
C1329 C1310 1.429 . S
C1329 C1323 1.429 . S
C1329 C1330 1.523 . S
C1330 C1311 1.368 . S
C1330 C1324 1.368 . S
C1330 C1329 1.523 . S
C1331 C1315 1.429 . S
C1331 C1327 1.429 . S
C1331 C1332 1.523 . S
C1332 C1316 1.368 . S
C1332 C1328 1.368 . S
C1332 C1331 1.523 . S
H1333 C1308 0.950 . S
H1334 C1310 0.950 . S
H1335 C1311 0.949 . S
H1336 C1313 0.950 . S
H1337 C1315 0.950 . S
C1338 C1339 1.349 . S
C1338 C1340 1.327 . S
C1338 H1363 0.950 . S
C1339 C1338 1.349 . S
C1339 C1355 1.349 . S
C1340 C1338 1.327 . S
C1340 C1359 1.429 . S
C1340 H1364 0.950 . S
C1341 C1358 1.574 . S
C1341 C1360 1.368 . S
C1341 H1365 0.949 . S
H1342 C1346 0.949 . S
C1343 C1344 1.349 . S
C1343 C1345 1.327 . S
C1343 H1366 0.950 . S
C1344 C1343 1.349 . S
C1344 C1356 1.349 . S
C1345 C1343 1.327 . S
C1345 C1361 1.429 . S
C1345 H1367 0.950 . S
C1346 H1342 0.949 . S
C1346 C1354 1.574 . S
C1346 C1362 1.368 . S
H1347 C1355 0.950 . S
H1348 C1353 0.950 . S
H1349 C1354 0.949 . S
H1350 C1356 0.950 . S
H1351 C1357 0.950 . S
H1352 C1358 0.949 . S
C1353 H1348 0.950 . S
C1353 C1355 1.327 . S
C1353 C1359 1.429 . S
C1354 C1346 1.574 . S
C1354 H1349 0.949 . S
C1354 C1360 1.368 . S
C1355 C1339 1.349 . S
C1355 H1347 0.950 . S
C1355 C1353 1.327 . S
C1356 C1344 1.349 . S
C1356 H1350 0.950 . S
C1356 C1357 1.327 . S
C1357 H1351 0.950 . S
C1357 C1356 1.327 . S
C1357 C1361 1.429 . S
C1358 C1341 1.574 . S
C1358 H1352 0.949 . S
C1358 C1362 1.368 . S
C1359 C1340 1.429 . S
C1359 C1353 1.429 . S
C1359 C1360 1.523 . S
C1360 C1341 1.368 . S
C1360 C1354 1.368 . S
C1360 C1359 1.523 . S
C1361 C1345 1.429 . S
C1361 C1357 1.429 . S
C1361 C1362 1.523 . S
C1362 C1346 1.368 . S
C1362 C1358 1.368 . S
C1362 C1361 1.523 . S
H1363 C1338 0.950 . S
H1364 C1340 0.950 . S
H1365 C1341 0.949 . S
H1366 C1343 0.950 . S
H1367 C1345 0.950 . S
C1368 C1369 1.349 . S
C1368 C1370 1.327 . S
C1368 H1393 0.950 . S
C1369 C1368 1.349 . S
C1369 C1385 1.349 . S
C1370 C1368 1.327 . S
C1370 C1389 1.429 . S
C1370 H1394 0.950 . S
C1371 C1388 1.574 . S
C1371 C1390 1.368 . S
C1371 H1395 0.949 . S
H1372 C1376 0.949 . S
C1373 C1374 1.349 . S
C1373 C1375 1.327 . S
C1373 H1396 0.950 . S
C1374 C1373 1.349 . S
C1374 C1386 1.349 . S
C1375 C1373 1.327 . S
C1375 C1391 1.429 . S
C1375 H1397 0.950 . S
C1376 H1372 0.949 . S
C1376 C1384 1.574 . S
C1376 C1392 1.368 . S
H1377 C1385 0.950 . S
H1378 C1383 0.950 . S
H1379 C1384 0.949 . S
H1380 C1386 0.950 . S
H1381 C1387 0.950 . S
H1382 C1388 0.949 . S
C1383 H1378 0.950 . S
C1383 C1385 1.327 . S
C1383 C1389 1.429 . S
C1384 C1376 1.574 . S
C1384 H1379 0.949 . S
C1384 C1390 1.368 . S
C1385 C1369 1.349 . S
C1385 H1377 0.950 . S
C1385 C1383 1.327 . S
C1386 C1374 1.349 . S
C1386 H1380 0.950 . S
C1386 C1387 1.327 . S
C1387 H1381 0.950 . S
C1387 C1386 1.327 . S
C1387 C1391 1.429 . S
C1388 C1371 1.574 . S
C1388 H1382 0.949 . S
C1388 C1392 1.368 . S
C1389 C1370 1.429 . S
C1389 C1383 1.429 . S
C1389 C1390 1.523 . S
C1390 C1371 1.368 . S
C1390 C1384 1.368 . S
C1390 C1389 1.523 . S
C1391 C1375 1.429 . S
C1391 C1387 1.429 . S
C1391 C1392 1.523 . S
C1392 C1376 1.368 . S
C1392 C1388 1.368 . S
C1392 C1391 1.523 . S
H1393 C1368 0.950 . S
H1394 C1370 0.950 . S
H1395 C1371 0.949 . S
H1396 C1373 0.950 . S
H1397 C1375 0.950 . S
C1398 C1399 1.349 . S
C1398 C1400 1.327 . S
C1398 H1423 0.950 . S
C1399 C1398 1.349 . S
C1399 C1415 1.349 . S
C1400 C1398 1.327 . S
C1400 C1419 1.429 . S
C1400 H1424 0.950 . S
C1401 C1418 1.574 . S
C1401 C1420 1.368 . S
C1401 H1425 0.949 . S
H1402 C1406 0.949 . S
C1403 C1404 1.349 . S
C1403 C1405 1.327 . S
C1403 H1426 0.950 . S
C1404 C1403 1.349 . S
C1404 C1416 1.349 . S
C1405 C1403 1.327 . S
C1405 C1421 1.429 . S
C1405 H1427 0.950 . S
C1406 H1402 0.949 . S
C1406 C1414 1.574 . S
C1406 C1422 1.368 . S
H1407 C1415 0.950 . S
H1408 C1413 0.950 . S
H1409 C1414 0.949 . S
H1410 C1416 0.950 . S
H1411 C1417 0.950 . S
H1412 C1418 0.949 . S
C1413 H1408 0.950 . S
C1413 C1415 1.327 . S
C1413 C1419 1.429 . S
C1414 C1406 1.574 . S
C1414 H1409 0.949 . S
C1414 C1420 1.368 . S
C1415 C1399 1.349 . S
C1415 H1407 0.950 . S
C1415 C1413 1.327 . S
C1416 C1404 1.349 . S
C1416 H1410 0.950 . S
C1416 C1417 1.327 . S
C1417 H1411 0.950 . S
C1417 C1416 1.327 . S
C1417 C1421 1.429 . S
C1418 C1401 1.574 . S
C1418 H1412 0.949 . S
C1418 C1422 1.368 . S
C1419 C1400 1.429 . S
C1419 C1413 1.429 . S
C1419 C1420 1.523 . S
C1420 C1401 1.368 . S
C1420 C1414 1.368 . S
C1420 C1419 1.523 . S
C1421 C1405 1.429 . S
C1421 C1417 1.429 . S
C1421 C1422 1.523 . S
C1422 C1406 1.368 . S
C1422 C1418 1.368 . S
C1422 C1421 1.523 . S
H1423 C1398 0.950 . S
H1424 C1400 0.950 . S
H1425 C1401 0.949 . S
H1426 C1403 0.950 . S
H1427 C1405 0.950 . S
C1428 C1429 1.349 . S
C1428 C1430 1.327 . S
C1428 H1453 0.950 . S
C1429 C1428 1.349 . S
C1429 C1445 1.349 . S
C1430 C1428 1.327 . S
C1430 C1449 1.429 . S
C1430 H1454 0.950 . S
C1431 C1448 1.574 . S
C1431 C1450 1.368 . S
C1431 H1455 0.949 . S
H1432 C1436 0.949 . S
C1433 C1434 1.349 . S
C1433 C1435 1.327 . S
C1433 H1456 0.950 . S
C1434 C1433 1.349 . S
C1434 C1446 1.349 . S
C1435 C1433 1.327 . S
C1435 C1451 1.429 . S
C1435 H1457 0.950 . S
C1436 H1432 0.949 . S
C1436 C1444 1.574 . S
C1436 C1452 1.368 . S
H1437 C1445 0.950 . S
H1438 C1443 0.950 . S
H1439 C1444 0.949 . S
H1440 C1446 0.950 . S
H1441 C1447 0.950 . S
H1442 C1448 0.949 . S
C1443 H1438 0.950 . S
C1443 C1445 1.327 . S
C1443 C1449 1.429 . S
C1444 C1436 1.574 . S
C1444 H1439 0.949 . S
C1444 C1450 1.368 . S
C1445 C1429 1.349 . S
C1445 H1437 0.950 . S
C1445 C1443 1.327 . S
C1446 C1434 1.349 . S
C1446 H1440 0.950 . S
C1446 C1447 1.327 . S
C1447 H1441 0.950 . S
C1447 C1446 1.327 . S
C1447 C1451 1.429 . S
C1448 C1431 1.574 . S
C1448 H1442 0.949 . S
C1448 C1452 1.368 . S
C1449 C1430 1.429 . S
C1449 C1443 1.429 . S
C1449 C1450 1.523 . S
C1450 C1431 1.368 . S
C1450 C1444 1.368 . S
C1450 C1449 1.523 . S
C1451 C1435 1.429 . S
C1451 C1447 1.429 . S
C1451 C1452 1.523 . S
C1452 C1436 1.368 . S
C1452 C1448 1.368 . S
C1452 C1451 1.523 . S
H1453 C1428 0.950 . S
H1454 C1430 0.950 . S
H1455 C1431 0.949 . S
H1456 C1433 0.950 . S
H1457 C1435 0.950 . S
C1458 C1459 1.349 . S
C1458 C1460 1.327 . S
C1458 H1483 0.950 . S
C1459 C1458 1.349 . S
C1459 C1475 1.349 . S
C1460 C1458 1.327 . S
C1460 C1479 1.429 . S
C1460 H1484 0.950 . S
C1461 C1478 1.574 . S
C1461 C1480 1.368 . S
C1461 H1485 0.949 . S
H1462 C1466 0.949 . S
C1463 C1464 1.349 . S
C1463 C1465 1.327 . S
C1463 H1486 0.950 . S
C1464 C1463 1.349 . S
C1464 C1476 1.349 . S
C1465 C1463 1.327 . S
C1465 C1481 1.429 . S
C1465 H1487 0.950 . S
C1466 H1462 0.949 . S
C1466 C1474 1.574 . S
C1466 C1482 1.368 . S
H1467 C1475 0.950 . S
H1468 C1473 0.950 . S
H1469 C1474 0.949 . S
H1470 C1476 0.950 . S
H1471 C1477 0.950 . S
H1472 C1478 0.949 . S
C1473 H1468 0.950 . S
C1473 C1475 1.327 . S
C1473 C1479 1.429 . S
C1474 C1466 1.574 . S
C1474 H1469 0.949 . S
C1474 C1480 1.368 . S
C1475 C1459 1.349 . S
C1475 H1467 0.950 . S
C1475 C1473 1.327 . S
C1476 C1464 1.349 . S
C1476 H1470 0.950 . S
C1476 C1477 1.327 . S
C1477 H1471 0.950 . S
C1477 C1476 1.327 . S
C1477 C1481 1.429 . S
C1478 C1461 1.574 . S
C1478 H1472 0.949 . S
C1478 C1482 1.368 . S
C1479 C1460 1.429 . S
C1479 C1473 1.429 . S
C1479 C1480 1.523 . S
C1480 C1461 1.368 . S
C1480 C1474 1.368 . S
C1480 C1479 1.523 . S
C1481 C1465 1.429 . S
C1481 C1477 1.429 . S
C1481 C1482 1.523 . S
C1482 C1466 1.368 . S
C1482 C1478 1.368 . S
C1482 C1481 1.523 . S
H1483 C1458 0.950 . S
H1484 C1460 0.950 . S
H1485 C1461 0.949 . S
H1486 C1463 0.950 . S
H1487 C1465 0.950 . S
C1488 C1489 1.349 . S
C1488 C1490 1.327 . S
C1488 H1513 0.950 . S
C1489 C1488 1.349 . S
C1489 C1505 1.349 . S
C1490 C1488 1.327 . S
C1490 C1509 1.429 . S
C1490 H1514 0.950 . S
C1491 C1508 1.574 . S
C1491 C1510 1.368 . S
C1491 H1515 0.949 . S
H1492 C1496 0.949 . S
C1493 C1494 1.349 . S
C1493 C1495 1.327 . S
C1493 H1516 0.950 . S
C1494 C1493 1.349 . S
C1494 C1506 1.349 . S
C1495 C1493 1.327 . S
C1495 C1511 1.429 . S
C1495 H1517 0.950 . S
C1496 H1492 0.949 . S
C1496 C1504 1.574 . S
C1496 C1512 1.368 . S
H1497 C1505 0.950 . S
H1498 C1503 0.950 . S
H1499 C1504 0.949 . S
H1500 C1506 0.950 . S
H1501 C1507 0.950 . S
H1502 C1508 0.949 . S
C1503 H1498 0.950 . S
C1503 C1505 1.327 . S
C1503 C1509 1.429 . S
C1504 C1496 1.574 . S
C1504 H1499 0.949 . S
C1504 C1510 1.368 . S
C1505 C1489 1.349 . S
C1505 H1497 0.950 . S
C1505 C1503 1.327 . S
C1506 C1494 1.349 . S
C1506 H1500 0.950 . S
C1506 C1507 1.327 . S
C1507 H1501 0.950 . S
C1507 C1506 1.327 . S
C1507 C1511 1.429 . S
C1508 C1491 1.574 . S
C1508 H1502 0.949 . S
C1508 C1512 1.368 . S
C1509 C1490 1.429 . S
C1509 C1503 1.429 . S
C1509 C1510 1.523 . S
C1510 C1491 1.368 . S
C1510 C1504 1.368 . S
C1510 C1509 1.523 . S
C1511 C1495 1.429 . S
C1511 C1507 1.429 . S
C1511 C1512 1.523 . S
C1512 C1496 1.368 . S
C1512 C1508 1.368 . S
C1512 C1511 1.523 . S
H1513 C1488 0.950 . S
H1514 C1490 0.950 . S
H1515 C1491 0.949 . S
H1516 C1493 0.950 . S
H1517 C1495 0.950 . S
C1518 C1519 1.349 . S
C1518 C1520 1.327 . S
C1518 H1543 0.950 . S
C1519 C1518 1.349 . S
C1519 C1535 1.349 . S
C1520 C1518 1.327 . S
C1520 C1539 1.429 . S
C1520 H1544 0.950 . S
C1521 C1538 1.574 . S
C1521 C1540 1.368 . S
C1521 H1545 0.949 . S
H1522 C1526 0.949 . S
C1523 C1524 1.349 . S
C1523 C1525 1.327 . S
C1523 H1546 0.950 . S
C1524 C1523 1.349 . S
C1524 C1536 1.349 . S
C1525 C1523 1.327 . S
C1525 C1541 1.429 . S
C1525 H1547 0.950 . S
C1526 H1522 0.949 . S
C1526 C1534 1.574 . S
C1526 C1542 1.368 . S
H1527 C1535 0.950 . S
H1528 C1533 0.950 . S
H1529 C1534 0.949 . S
H1530 C1536 0.950 . S
H1531 C1537 0.950 . S
H1532 C1538 0.949 . S
C1533 H1528 0.950 . S
C1533 C1535 1.327 . S
C1533 C1539 1.429 . S
C1534 C1526 1.574 . S
C1534 H1529 0.949 . S
C1534 C1540 1.368 . S
C1535 C1519 1.349 . S
C1535 H1527 0.950 . S
C1535 C1533 1.327 . S
C1536 C1524 1.349 . S
C1536 H1530 0.950 . S
C1536 C1537 1.327 . S
C1537 H1531 0.950 . S
C1537 C1536 1.327 . S
C1537 C1541 1.429 . S
C1538 C1521 1.574 . S
C1538 H1532 0.949 . S
C1538 C1542 1.368 . S
C1539 C1520 1.429 . S
C1539 C1533 1.429 . S
C1539 C1540 1.523 . S
C1540 C1521 1.368 . S
C1540 C1534 1.368 . S
C1540 C1539 1.523 . S
C1541 C1525 1.429 . S
C1541 C1537 1.429 . S
C1541 C1542 1.523 . S
C1542 C1526 1.368 . S
C1542 C1538 1.368 . S
C1542 C1541 1.523 . S
H1543 C1518 0.950 . S
H1544 C1520 0.950 . S
H1545 C1521 0.949 . S
H1546 C1523 0.950 . S
H1547 C1525 0.950 . S
C1548 C1549 1.349 . S
C1548 C1550 1.327 . S
C1548 H1573 0.950 . S
C1549 C1548 1.349 . S
C1549 C1565 1.349 . S
C1550 C1548 1.327 . S
C1550 C1569 1.429 . S
C1550 H1574 0.950 . S
C1551 C1568 1.574 . S
C1551 C1570 1.368 . S
C1551 H1575 0.949 . S
H1552 C1556 0.949 . S
C1553 C1554 1.349 . S
C1553 C1555 1.327 . S
C1553 H1576 0.950 . S
C1554 C1553 1.349 . S
C1554 C1566 1.349 . S
C1555 C1553 1.327 . S
C1555 C1571 1.429 . S
C1555 H1577 0.950 . S
C1556 H1552 0.949 . S
C1556 C1564 1.574 . S
C1556 C1572 1.368 . S
H1557 C1565 0.950 . S
H1558 C1563 0.950 . S
H1559 C1564 0.949 . S
H1560 C1566 0.950 . S
H1561 C1567 0.950 . S
H1562 C1568 0.949 . S
C1563 H1558 0.950 . S
C1563 C1565 1.327 . S
C1563 C1569 1.429 . S
C1564 C1556 1.574 . S
C1564 H1559 0.949 . S
C1564 C1570 1.368 . S
C1565 C1549 1.349 . S
C1565 H1557 0.950 . S
C1565 C1563 1.327 . S
C1566 C1554 1.349 . S
C1566 H1560 0.950 . S
C1566 C1567 1.327 . S
C1567 H1561 0.950 . S
C1567 C1566 1.327 . S
C1567 C1571 1.429 . S
C1568 C1551 1.574 . S
C1568 H1562 0.949 . S
C1568 C1572 1.368 . S
C1569 C1550 1.429 . S
C1569 C1563 1.429 . S
C1569 C1570 1.523 . S
C1570 C1551 1.368 . S
C1570 C1564 1.368 . S
C1570 C1569 1.523 . S
C1571 C1555 1.429 . S
C1571 C1567 1.429 . S
C1571 C1572 1.523 . S
C1572 C1556 1.368 . S
C1572 C1568 1.368 . S
C1572 C1571 1.523 . S
H1573 C1548 0.950 . S
H1574 C1550 0.950 . S
H1575 C1551 0.949 . S
H1576 C1553 0.950 . S
H1577 C1555 0.950 . S
C1578 C1579 1.349 . S
C1578 C1580 1.327 . S
C1578 H1603 0.950 . S
C1579 C1578 1.349 . S
C1579 C1595 1.349 . S
C1580 C1578 1.327 . S
C1580 C1599 1.429 . S
C1580 H1604 0.950 . S
C1581 C1598 1.574 . S
C1581 C1600 1.368 . S
C1581 H1605 0.949 . S
H1582 C1586 0.949 . S
C1583 C1584 1.349 . S
C1583 C1585 1.327 . S
C1583 H1606 0.950 . S
C1584 C1583 1.349 . S
C1584 C1596 1.349 . S
C1585 C1583 1.327 . S
C1585 C1601 1.429 . S
C1585 H1607 0.950 . S
C1586 H1582 0.949 . S
C1586 C1594 1.574 . S
C1586 C1602 1.368 . S
H1587 C1595 0.950 . S
H1588 C1593 0.950 . S
H1589 C1594 0.949 . S
H1590 C1596 0.950 . S
H1591 C1597 0.950 . S
H1592 C1598 0.949 . S
C1593 H1588 0.950 . S
C1593 C1595 1.327 . S
C1593 C1599 1.429 . S
C1594 C1586 1.574 . S
C1594 H1589 0.949 . S
C1594 C1600 1.368 . S
C1595 C1579 1.349 . S
C1595 H1587 0.950 . S
C1595 C1593 1.327 . S
C1596 C1584 1.349 . S
C1596 H1590 0.950 . S
C1596 C1597 1.327 . S
C1597 H1591 0.950 . S
C1597 C1596 1.327 . S
C1597 C1601 1.429 . S
C1598 C1581 1.574 . S
C1598 H1592 0.949 . S
C1598 C1602 1.368 . S
C1599 C1580 1.429 . S
C1599 C1593 1.429 . S
C1599 C1600 1.523 . S
C1600 C1581 1.368 . S
C1600 C1594 1.368 . S
C1600 C1599 1.523 . S
C1601 C1585 1.429 . S
C1601 C1597 1.429 . S
C1601 C1602 1.523 . S
C1602 C1586 1.368 . S
C1602 C1598 1.368 . S
C1602 C1601 1.523 . S
H1603 C1578 0.950 . S
H1604 C1580 0.950 . S
H1605 C1581 0.949 . S
H1606 C1583 0.950 . S
H1607 C1585 0.950 . S
C1608 C1609 1.349 . S
C1608 C1610 1.327 . S
C1608 H1633 0.950 . S
C1609 C1608 1.349 . S
C1609 C1625 1.349 . S
C1610 C1608 1.327 . S
C1610 C1629 1.429 . S
C1610 H1634 0.950 . S
C1611 C1628 1.574 . S
C1611 C1630 1.368 . S
C1611 H1635 0.949 . S
H1612 C1616 0.949 . S
C1613 C1614 1.349 . S
C1613 C1615 1.327 . S
C1613 H1636 0.950 . S
C1614 C1613 1.349 . S
C1614 C1626 1.349 . S
C1615 C1613 1.327 . S
C1615 C1631 1.429 . S
C1615 H1637 0.950 . S
C1616 H1612 0.949 . S
C1616 C1624 1.574 . S
C1616 C1632 1.368 . S
H1617 C1625 0.950 . S
H1618 C1623 0.950 . S
H1619 C1624 0.949 . S
H1620 C1626 0.950 . S
H1621 C1627 0.950 . S
H1622 C1628 0.949 . S
C1623 H1618 0.950 . S
C1623 C1625 1.327 . S
C1623 C1629 1.429 . S
C1624 C1616 1.574 . S
C1624 H1619 0.949 . S
C1624 C1630 1.368 . S
C1625 C1609 1.349 . S
C1625 H1617 0.950 . S
C1625 C1623 1.327 . S
C1626 C1614 1.349 . S
C1626 H1620 0.950 . S
C1626 C1627 1.327 . S
C1627 H1621 0.950 . S
C1627 C1626 1.327 . S
C1627 C1631 1.429 . S
C1628 C1611 1.574 . S
C1628 H1622 0.949 . S
C1628 C1632 1.368 . S
C1629 C1610 1.429 . S
C1629 C1623 1.429 . S
C1629 C1630 1.523 . S
C1630 C1611 1.368 . S
C1630 C1624 1.368 . S
C1630 C1629 1.523 . S
C1631 C1615 1.429 . S
C1631 C1627 1.429 . S
C1631 C1632 1.523 . S
C1632 C1616 1.368 . S
C1632 C1628 1.368 . S
C1632 C1631 1.523 . S
H1633 C1608 0.950 . S
H1634 C1610 0.950 . S
H1635 C1611 0.949 . S
H1636 C1613 0.950 . S
H1637 C1615 0.950 . S
C1638 C1639 1.349 . S
C1638 C1640 1.327 . S
C1638 H1663 0.950 . S
C1639 C1638 1.349 . S
C1639 C1655 1.349 . S
C1640 C1638 1.327 . S
C1640 C1659 1.429 . S
C1640 H1664 0.950 . S
C1641 C1658 1.574 . S
C1641 C1660 1.368 . S
C1641 H1665 0.949 . S
H1642 C1646 0.949 . S
C1643 C1644 1.349 . S
C1643 C1645 1.327 . S
C1643 H1666 0.950 . S
C1644 C1643 1.349 . S
C1644 C1656 1.349 . S
C1645 C1643 1.327 . S
C1645 C1661 1.429 . S
C1645 H1667 0.950 . S
C1646 H1642 0.949 . S
C1646 C1654 1.574 . S
C1646 C1662 1.368 . S
H1647 C1655 0.950 . S
H1648 C1653 0.950 . S
H1649 C1654 0.949 . S
H1650 C1656 0.950 . S
H1651 C1657 0.950 . S
H1652 C1658 0.949 . S
C1653 H1648 0.950 . S
C1653 C1655 1.327 . S
C1653 C1659 1.429 . S
C1654 C1646 1.574 . S
C1654 H1649 0.949 . S
C1654 C1660 1.368 . S
C1655 C1639 1.349 . S
C1655 H1647 0.950 . S
C1655 C1653 1.327 . S
C1656 C1644 1.349 . S
C1656 H1650 0.950 . S
C1656 C1657 1.327 . S
C1657 H1651 0.950 . S
C1657 C1656 1.327 . S
C1657 C1661 1.429 . S
C1658 C1641 1.574 . S
C1658 H1652 0.949 . S
C1658 C1662 1.368 . S
C1659 C1640 1.429 . S
C1659 C1653 1.429 . S
C1659 C1660 1.523 . S
C1660 C1641 1.368 . S
C1660 C1654 1.368 . S
C1660 C1659 1.523 . S
C1661 C1645 1.429 . S
C1661 C1657 1.429 . S
C1661 C1662 1.523 . S
C1662 C1646 1.368 . S
C1662 C1658 1.368 . S
C1662 C1661 1.523 . S
H1663 C1638 0.950 . S
H1664 C1640 0.950 . S
H1665 C1641 0.949 . S
H1666 C1643 0.950 . S
H1667 C1645 0.950 . S
C1668 C1669 1.349 . S
C1668 C1670 1.327 . S
C1668 H1693 0.950 . S
C1669 C1668 1.349 . S
C1669 C1685 1.349 . S
C1670 C1668 1.327 . S
C1670 C1689 1.429 . S
C1670 H1694 0.950 . S
C1671 C1688 1.574 . S
C1671 C1690 1.368 . S
C1671 H1695 0.939 1_545 S
H1672 C1676 0.949 . S
C1673 C1674 1.349 1_565 S
C1673 C1675 1.327 . S
C1673 H1696 0.950 . S
C1674 C1673 1.349 1_545 S
C1674 C1686 1.349 . S
C1675 C1673 1.327 . S
C1675 C1691 1.429 1_565 S
C1675 H1697 0.950 . S
C1676 H1672 0.949 . S
C1676 C1684 1.574 . S
C1676 C1692 1.368 . S
H1677 C1685 0.950 . S
H1678 C1683 0.950 . S
H1679 C1684 0.949 . S
H1680 C1686 0.950 . S
H1681 C1687 0.950 . S
H1682 C1688 0.949 1_565 S
C1683 H1678 0.950 . S
C1683 C1685 1.327 . S
C1683 C1689 1.429 . S
C1684 C1676 1.574 . S
C1684 H1679 0.949 . S
C1684 C1690 1.368 . S
C1685 C1669 1.349 . S
C1685 H1677 0.950 . S
C1685 C1683 1.327 . S
C1686 C1674 1.349 . S
C1686 H1680 0.950 . S
C1686 C1687 1.327 . S
C1687 H1681 0.950 . S
C1687 C1686 1.327 . S
C1687 C1691 1.429 . S
C1688 C1671 1.574 . S
C1688 H1682 0.949 1_545 S
C1688 C1692 1.368 . S
C1689 C1670 1.429 . S
C1689 C1683 1.429 . S
C1689 C1690 1.523 . S
C1690 C1671 1.368 . S
C1690 C1684 1.368 . S
C1690 C1689 1.523 . S
C1691 C1675 1.429 1_545 S
C1691 C1687 1.429 . S
C1691 C1692 1.523 . S
C1692 C1676 1.368 . S
C1692 C1688 1.368 . S
C1692 C1691 1.523 . S
H1693 C1668 0.950 . S
H1694 C1670 0.950 . S
H1695 C1671 0.939 1_565 S
H1696 C1673 0.950 . S
H1697 C1675 0.950 . S
C1698 C1699 1.349 . S
C1698 C1700 1.327 . S
C1698 H1723 0.950 . S
C1699 C1698 1.349 . S
C1699 C1715 1.349 . S
C1700 C1698 1.327 . S
C1700 C1719 1.429 . S
C1700 H1724 0.950 . S
C1701 C1718 1.574 . S
C1701 C1720 1.368 . S
C1701 H1725 0.949 . S
H1702 C1706 0.949 . S
C1703 C1704 1.349 . S
C1703 C1705 1.327 . S
C1703 H1726 0.950 . S
C1704 C1703 1.349 . S
C1704 C1716 1.349 . S
C1705 C1703 1.327 . S
C1705 C1721 1.429 . S
C1705 H1727 0.950 . S
C1706 H1702 0.949 . S
C1706 C1714 1.574 . S
C1706 C1722 1.368 . S
H1707 C1715 0.950 . S
H1708 C1713 0.950 . S
H1709 C1714 0.949 . S
H1710 C1716 0.950 . S
H1711 C1717 0.950 . S
H1712 C1718 0.949 . S
C1713 H1708 0.950 . S
C1713 C1715 1.327 . S
C1713 C1719 1.429 . S
C1714 C1706 1.574 . S
C1714 H1709 0.949 . S
C1714 C1720 1.368 . S
C1715 C1699 1.349 . S
C1715 H1707 0.950 . S
C1715 C1713 1.327 . S
C1716 C1704 1.349 . S
C1716 H1710 0.950 . S
C1716 C1717 1.327 . S
C1717 H1711 0.950 . S
C1717 C1716 1.327 . S
C1717 C1721 1.429 . S
C1718 C1701 1.574 . S
C1718 H1712 0.949 . S
C1718 C1722 1.368 . S
C1719 C1700 1.429 . S
C1719 C1713 1.429 . S
C1719 C1720 1.523 . S
C1720 C1701 1.368 . S
C1720 C1714 1.368 . S
C1720 C1719 1.523 . S
C1721 C1705 1.429 . S
C1721 C1717 1.429 . S
C1721 C1722 1.523 . S
C1722 C1706 1.368 . S
C1722 C1718 1.368 . S
C1722 C1721 1.523 . S
H1723 C1698 0.950 . S
H1724 C1700 0.950 . S
H1725 C1701 0.949 . S
H1726 C1703 0.950 . S
H1727 C1705 0.950 . S
C1728 C1729 1.349 . S
C1728 C1730 1.327 . S
C1728 H1753 0.950 . S
C1729 C1728 1.349 . S
C1729 C1745 1.349 . S
C1730 C1728 1.327 . S
C1730 C1749 1.429 . S
C1730 H1754 0.950 . S
C1731 C1748 1.574 . S
C1731 C1750 1.368 . S
C1731 H1755 0.949 . S
H1732 C1736 0.949 . S
C1733 C1734 1.349 . S
C1733 C1735 1.327 . S
C1733 H1756 0.950 . S
C1734 C1733 1.349 . S
C1734 C1746 1.349 . S
C1735 C1733 1.327 . S
C1735 C1751 1.429 . S
C1735 H1757 0.950 . S
C1736 H1732 0.949 . S
C1736 C1744 1.574 . S
C1736 C1752 1.368 . S
H1737 C1745 0.950 . S
H1738 C1743 0.950 . S
H1739 C1744 0.949 . S
H1740 C1746 0.950 . S
H1741 C1747 0.950 . S
H1742 C1748 0.949 . S
C1743 H1738 0.950 . S
C1743 C1745 1.327 . S
C1743 C1749 1.429 . S
C1744 C1736 1.574 . S
C1744 H1739 0.949 . S
C1744 C1750 1.368 . S
C1745 C1729 1.349 . S
C1745 H1737 0.950 . S
C1745 C1743 1.327 . S
C1746 C1734 1.349 . S
C1746 H1740 0.950 . S
C1746 C1747 1.327 . S
C1747 H1741 0.950 . S
C1747 C1746 1.327 . S
C1747 C1751 1.429 . S
C1748 C1731 1.574 . S
C1748 H1742 0.949 . S
C1748 C1752 1.368 . S
C1749 C1730 1.429 . S
C1749 C1743 1.429 . S
C1749 C1750 1.523 . S
C1750 C1731 1.368 . S
C1750 C1744 1.368 . S
C1750 C1749 1.523 . S
C1751 C1735 1.429 . S
C1751 C1747 1.429 . S
C1751 C1752 1.523 . S
C1752 C1736 1.368 . S
C1752 C1748 1.368 . S
C1752 C1751 1.523 . S
H1753 C1728 0.950 . S
H1754 C1730 0.950 . S
H1755 C1731 0.949 . S
H1756 C1733 0.950 . S
H1757 C1735 0.950 . S
C1758 C1759 1.349 . S
C1758 C1760 1.327 . S
C1758 H1783 0.950 . S
C1759 C1758 1.349 . S
C1759 C1775 1.349 . S
C1760 C1758 1.327 . S
C1760 C1779 1.429 . S
C1760 H1784 0.950 . S
C1761 C1778 1.574 . S
C1761 C1780 1.368 . S
C1761 H1785 0.949 . S
H1762 C1766 0.949 . S
C1763 C1764 1.349 . S
C1763 C1765 1.327 . S
C1763 H1786 0.950 . S
C1764 C1763 1.349 . S
C1764 C1776 1.349 . S
C1765 C1763 1.327 . S
C1765 C1781 1.429 . S
C1765 H1787 0.950 . S
C1766 H1762 0.949 . S
C1766 C1774 1.574 . S
C1766 C1782 1.368 . S
H1767 C1775 0.950 . S
H1768 C1773 0.950 . S
H1769 C1774 0.949 . S
H1770 C1776 0.950 . S
H1771 C1777 0.950 . S
H1772 C1778 0.949 . S
C1773 H1768 0.950 . S
C1773 C1775 1.327 . S
C1773 C1779 1.429 . S
C1774 C1766 1.574 . S
C1774 H1769 0.949 . S
C1774 C1780 1.368 . S
C1775 C1759 1.349 . S
C1775 H1767 0.950 . S
C1775 C1773 1.327 . S
C1776 C1764 1.349 . S
C1776 H1770 0.950 . S
C1776 C1777 1.327 . S
C1777 H1771 0.950 . S
C1777 C1776 1.327 . S
C1777 C1781 1.429 . S
C1778 C1761 1.574 . S
C1778 H1772 0.949 . S
C1778 C1782 1.368 . S
C1779 C1760 1.429 . S
C1779 C1773 1.429 . S
C1779 C1780 1.523 . S
C1780 C1761 1.368 . S
C1780 C1774 1.368 . S
C1780 C1779 1.523 . S
C1781 C1765 1.429 . S
C1781 C1777 1.429 . S
C1781 C1782 1.523 . S
C1782 C1766 1.368 . S
C1782 C1778 1.368 . S
C1782 C1781 1.523 . S
H1783 C1758 0.950 . S
H1784 C1760 0.950 . S
H1785 C1761 0.949 . S
H1786 C1763 0.950 . S
H1787 C1765 0.950 . S
C1788 C1789 1.349 . S
C1788 C1790 1.327 . S
C1788 H1813 0.950 . S
C1789 C1788 1.349 . S
C1789 C1805 1.349 . S
C1790 C1788 1.327 . S
C1790 C1809 1.429 . S
C1790 H1814 0.950 . S
C1791 C1808 1.574 . S
C1791 C1810 1.368 . S
C1791 H1815 0.949 . S
H1792 C1796 0.949 . S
C1793 C1794 1.349 . S
C1793 C1795 1.327 . S
C1793 H1816 0.950 . S
C1794 C1793 1.349 . S
C1794 C1806 1.349 . S
C1795 C1793 1.327 . S
C1795 C1811 1.429 . S
C1795 H1817 0.950 . S
C1796 H1792 0.949 . S
C1796 C1804 1.574 . S
C1796 C1812 1.368 . S
H1797 C1805 0.950 1_545 S
H1798 C1803 0.949 . S
H1799 C1804 0.949 . S
H1800 C1806 0.950 . S
H1801 C1807 0.950 . S
H1802 C1808 0.949 . S
C1803 H1798 0.949 . S
C1803 C1805 1.327 . S
C1803 C1809 1.429 . S
C1804 C1796 1.574 . S
C1804 H1799 0.949 . S
C1804 C1810 1.368 . S
C1805 C1789 1.349 . S
C1805 H1797 0.950 1_565 S
C1805 C1803 1.327 . S
C1806 C1794 1.349 . S
C1806 H1800 0.950 . S
C1806 C1807 1.327 . S
C1807 H1801 0.950 . S
C1807 C1806 1.327 . S
C1807 C1811 1.429 . S
C1808 C1791 1.574 . S
C1808 H1802 0.949 . S
C1808 C1812 1.368 . S
C1809 C1790 1.429 . S
C1809 C1803 1.429 . S
C1809 C1810 1.523 . S
C1810 C1791 1.368 . S
C1810 C1804 1.368 . S
C1810 C1809 1.523 . S
C1811 C1795 1.429 . S
C1811 C1807 1.429 . S
C1811 C1812 1.523 . S
C1812 C1796 1.368 . S
C1812 C1808 1.368 . S
C1812 C1811 1.523 . S
H1813 C1788 0.950 . S
H1814 C1790 0.950 . S
H1815 C1791 0.949 . S
H1816 C1793 0.950 . S
H1817 C1795 0.950 . S
C1818 C1819 1.349 . S
C1818 C1820 1.327 . S
C1818 H1843 0.950 . S
C1819 C1818 1.349 . S
C1819 C1835 1.349 . S
C1820 C1818 1.327 . S
C1820 C1839 1.429 . S
C1820 H1844 0.950 . S
C1821 C1838 1.574 . S
C1821 C1840 1.368 . S
C1821 H1845 0.949 . S
H1822 C1826 0.949 . S
C1823 C1824 1.349 . S
C1823 C1825 1.327 . S
C1823 H1846 0.950 . S
C1824 C1823 1.349 . S
C1824 C1836 1.349 . S
C1825 C1823 1.327 . S
C1825 C1841 1.429 . S
C1825 H1847 0.950 . S
C1826 H1822 0.949 . S
C1826 C1834 1.574 . S
C1826 C1842 1.368 . S
H1827 C1835 0.950 . S
H1828 C1833 0.950 . S
H1829 C1834 0.949 . S
H1830 C1836 0.950 . S
H1831 C1837 0.950 . S
H1832 C1838 0.949 . S
C1833 H1828 0.950 . S
C1833 C1835 1.327 . S
C1833 C1839 1.429 . S
C1834 C1826 1.574 . S
C1834 H1829 0.949 . S
C1834 C1840 1.368 . S
C1835 C1819 1.349 . S
C1835 H1827 0.950 . S
C1835 C1833 1.327 . S
C1836 C1824 1.349 . S
C1836 H1830 0.950 . S
C1836 C1837 1.327 . S
C1837 H1831 0.950 . S
C1837 C1836 1.327 . S
C1837 C1841 1.429 . S
C1838 C1821 1.574 . S
C1838 H1832 0.949 . S
C1838 C1842 1.368 . S
C1839 C1820 1.429 . S
C1839 C1833 1.429 . S
C1839 C1840 1.523 . S
C1840 C1821 1.368 . S
C1840 C1834 1.368 . S
C1840 C1839 1.523 . S
C1841 C1825 1.429 . S
C1841 C1837 1.429 . S
C1841 C1842 1.523 . S
C1842 C1826 1.368 . S
C1842 C1838 1.368 . S
C1842 C1841 1.523 . S
H1843 C1818 0.950 . S
H1844 C1820 0.950 . S
H1845 C1821 0.949 . S
H1846 C1823 0.950 . S
H1847 C1825 0.950 . S
C1848 C1849 1.349 . S
C1848 C1850 1.327 . S
C1848 H1873 0.950 . S
C1849 C1848 1.349 . S
C1849 C1865 1.349 . S
C1850 C1848 1.327 . S
C1850 C1869 1.429 . S
C1850 H1874 0.950 . S
C1851 C1868 1.574 . S
C1851 C1870 1.368 . S
C1851 H1875 0.949 . S
H1852 C1856 0.949 . S
C1853 C1854 1.349 . S
C1853 C1855 1.327 . S
C1853 H1876 0.950 . S
C1854 C1853 1.349 . S
C1854 C1866 1.349 . S
C1855 C1853 1.327 . S
C1855 C1871 1.429 . S
C1855 H1877 0.950 . S
C1856 H1852 0.949 . S
C1856 C1864 1.574 . S
C1856 C1872 1.368 . S
H1857 C1865 0.950 . S
H1858 C1863 0.950 . S
H1859 C1864 0.949 . S
H1860 C1866 0.950 . S
H1861 C1867 0.950 . S
H1862 C1868 0.949 . S
C1863 H1858 0.950 . S
C1863 C1865 1.327 . S
C1863 C1869 1.429 . S
C1864 C1856 1.574 . S
C1864 H1859 0.949 . S
C1864 C1870 1.368 . S
C1865 C1849 1.349 . S
C1865 H1857 0.950 . S
C1865 C1863 1.327 . S
C1866 C1854 1.349 . S
C1866 H1860 0.950 . S
C1866 C1867 1.327 . S
C1867 H1861 0.950 . S
C1867 C1866 1.327 . S
C1867 C1871 1.429 . S
C1868 C1851 1.574 . S
C1868 H1862 0.949 . S
C1868 C1872 1.368 . S
C1869 C1850 1.429 . S
C1869 C1863 1.429 . S
C1869 C1870 1.523 . S
C1870 C1851 1.368 . S
C1870 C1864 1.368 . S
C1870 C1869 1.523 . S
C1871 C1855 1.429 . S
C1871 C1867 1.429 . S
C1871 C1872 1.523 . S
C1872 C1856 1.368 . S
C1872 C1868 1.368 . S
C1872 C1871 1.523 . S
H1873 C1848 0.950 . S
H1874 C1850 0.950 . S
H1875 C1851 0.949 . S
H1876 C1853 0.950 . S
H1877 C1855 0.950 . S
C1878 C1879 1.349 . S
C1878 C1880 1.327 . S
C1878 H1903 0.950 . S
C1879 C1878 1.349 . S
C1879 C1895 1.349 . S
C1880 C1878 1.327 . S
C1880 C1899 1.429 . S
C1880 H1904 0.950 . S
C1881 C1898 1.574 . S
C1881 C1900 1.368 . S
C1881 H1905 0.949 . S
H1882 C1886 0.949 . S
C1883 C1884 1.349 . S
C1883 C1885 1.327 . S
C1883 H1906 0.950 . S
C1884 C1883 1.349 . S
C1884 C1896 1.349 . S
C1885 C1883 1.327 . S
C1885 C1901 1.429 . S
C1885 H1907 0.950 . S
C1886 H1882 0.949 . S
C1886 C1894 1.574 . S
C1886 C1902 1.368 . S
H1887 C1895 0.950 . S
H1888 C1893 0.950 . S
H1889 C1894 0.949 . S
H1890 C1896 0.950 . S
H1891 C1897 0.950 . S
H1892 C1898 0.949 . S
C1893 H1888 0.950 . S
C1893 C1895 1.327 . S
C1893 C1899 1.429 . S
C1894 C1886 1.574 . S
C1894 H1889 0.949 . S
C1894 C1900 1.368 . S
C1895 C1879 1.349 . S
C1895 H1887 0.950 . S
C1895 C1893 1.327 . S
C1896 C1884 1.349 . S
C1896 H1890 0.950 . S
C1896 C1897 1.327 . S
C1897 H1891 0.950 . S
C1897 C1896 1.327 . S
C1897 C1901 1.429 . S
C1898 C1881 1.574 . S
C1898 H1892 0.949 . S
C1898 C1902 1.368 . S
C1899 C1880 1.429 . S
C1899 C1893 1.429 . S
C1899 C1900 1.523 . S
C1900 C1881 1.368 . S
C1900 C1894 1.368 . S
C1900 C1899 1.523 . S
C1901 C1885 1.429 . S
C1901 C1897 1.429 . S
C1901 C1902 1.523 . S
C1902 C1886 1.368 . S
C1902 C1898 1.368 . S
C1902 C1901 1.523 . S
H1903 C1878 0.950 . S
H1904 C1880 0.950 . S
H1905 C1881 0.949 . S
H1906 C1883 0.950 . S
H1907 C1885 0.950 . S
C1908 C1909 1.349 . S
C1908 C1910 1.327 . S
C1908 H1933 0.950 . S
C1909 C1908 1.349 . S
C1909 C1925 1.349 . S
C1910 C1908 1.327 . S
C1910 C1929 1.429 . S
C1910 H1934 0.950 . S
C1911 C1928 1.574 . S
C1911 C1930 1.368 . S
C1911 H1935 0.949 . S
H1912 C1916 0.949 . S
C1913 C1914 1.353 . S
C1913 C1915 1.332 . S
C1913 H1936 0.941 1_455 S
C1914 C1913 1.353 . S
C1914 C1926 1.349 . S
C1915 C1913 1.332 . S
C1915 C1931 1.429 . S
C1915 H1937 0.950 . S
C1916 H1912 0.949 . S
C1916 C1924 1.574 . S
C1916 C1932 1.368 . S
H1917 C1925 0.950 . S
H1918 C1923 0.950 . S
H1919 C1924 0.949 . S
H1920 C1926 0.950 . S
H1921 C1927 0.950 . S
H1922 C1928 0.949 . S
C1923 H1918 0.950 . S
C1923 C1925 1.327 . S
C1923 C1929 1.429 . S
C1924 C1916 1.574 . S
C1924 H1919 0.949 . S
C1924 C1930 1.368 . S
C1925 C1909 1.349 . S
C1925 H1917 0.950 . S
C1925 C1923 1.327 . S
C1926 C1914 1.349 . S
C1926 H1920 0.950 . S
C1926 C1927 1.327 . S
C1927 H1921 0.950 . S
C1927 C1926 1.327 . S
C1927 C1931 1.429 . S
C1928 C1911 1.574 . S
C1928 H1922 0.949 . S
C1928 C1932 1.368 . S
C1929 C1910 1.429 . S
C1929 C1923 1.429 . S
C1929 C1930 1.523 . S
C1930 C1911 1.368 . S
C1930 C1924 1.368 . S
C1930 C1929 1.523 . S
C1931 C1915 1.429 . S
C1931 C1927 1.429 . S
C1931 C1932 1.523 . S
C1932 C1916 1.368 . S
C1932 C1928 1.368 . S
C1932 C1931 1.523 . S
H1933 C1908 0.950 . S
H1934 C1910 0.950 . S
H1935 C1911 0.949 . S
H1936 C1913 0.941 1_655 S
H1937 C1915 0.950 . S
C1938 C1939 1.349 . S
C1938 C1940 1.327 . S
C1938 H1963 0.939 1_455 S
C1939 C1938 1.349 . S
C1939 C1955 1.349 . S
C1940 C1938 1.327 . S
C1940 C1959 1.429 . S
C1940 H1964 0.950 . S
C1941 C1958 1.574 . S
C1941 C1960 1.368 . S
C1941 H1965 0.949 . S
H1942 C1946 0.949 . S
C1943 C1944 1.349 . S
C1943 C1945 1.327 . S
C1943 H1966 0.950 . S
C1944 C1943 1.349 . S
C1944 C1956 1.349 . S
C1945 C1943 1.327 . S
C1945 C1961 1.429 . S
C1945 H1967 0.950 . S
C1946 H1942 0.949 . S
C1946 C1954 1.574 . S
C1946 C1962 1.368 . S
H1947 C1955 0.950 . S
H1948 C1953 0.950 . S
H1949 C1954 0.949 . S
H1950 C1956 0.950 . S
H1951 C1957 0.950 . S
H1952 C1958 0.949 . S
C1953 H1948 0.950 . S
C1953 C1955 1.327 . S
C1953 C1959 1.429 . S
C1954 C1946 1.574 . S
C1954 H1949 0.949 . S
C1954 C1960 1.368 . S
C1955 C1939 1.349 . S
C1955 H1947 0.950 . S
C1955 C1953 1.327 . S
C1956 C1944 1.349 . S
C1956 H1950 0.950 . S
C1956 C1957 1.327 . S
C1957 H1951 0.950 . S
C1957 C1956 1.327 . S
C1957 C1961 1.429 . S
C1958 C1941 1.574 . S
C1958 H1952 0.949 . S
C1958 C1962 1.368 . S
C1959 C1940 1.429 . S
C1959 C1953 1.429 . S
C1959 C1960 1.523 . S
C1960 C1941 1.368 . S
C1960 C1954 1.368 . S
C1960 C1959 1.523 . S
C1961 C1945 1.429 . S
C1961 C1957 1.429 . S
C1961 C1962 1.523 . S
C1962 C1946 1.368 . S
C1962 C1958 1.368 . S
C1962 C1961 1.523 . S
H1963 C1938 0.939 1_655 S
H1964 C1940 0.950 . S
H1965 C1941 0.949 . S
H1966 C1943 0.950 . S
H1967 C1945 0.950 . S
C1968 C1969 1.349 . S
C1968 C1970 1.327 . S
C1968 H1993 0.950 . S
C1969 C1968 1.349 . S
C1969 C1985 1.349 . S
C1970 C1968 1.327 . S
C1970 C1989 1.429 . S
C1970 H1994 0.950 . S
C1971 C1988 1.574 . S
C1971 C1990 1.368 . S
C1971 H1995 0.949 . S
H1972 C1976 0.949 . S
C1973 C1974 1.349 . S
C1973 C1975 1.327 . S
C1973 H1996 0.950 . S
C1974 C1973 1.349 . S
C1974 C1986 1.349 . S
C1975 C1973 1.327 . S
C1975 C1991 1.429 . S
C1975 H1997 0.950 . S
C1976 H1972 0.949 . S
C1976 C1984 1.574 . S
C1976 C1992 1.368 . S
H1977 C1985 0.950 . S
H1978 C1983 0.950 . S
H1979 C1984 0.949 . S
H1980 C1986 0.950 . S
H1981 C1987 0.950 . S
H1982 C1988 0.949 . S
C1983 H1978 0.950 . S
C1983 C1985 1.327 . S
C1983 C1989 1.429 . S
C1984 C1976 1.574 . S
C1984 H1979 0.949 . S
C1984 C1990 1.368 . S
C1985 C1969 1.349 . S
C1985 H1977 0.950 . S
C1985 C1983 1.327 . S
C1986 C1974 1.349 . S
C1986 H1980 0.950 . S
C1986 C1987 1.327 . S
C1987 H1981 0.950 . S
C1987 C1986 1.327 . S
C1987 C1991 1.429 . S
C1988 C1971 1.574 . S
C1988 H1982 0.949 . S
C1988 C1992 1.368 . S
C1989 C1970 1.429 . S
C1989 C1983 1.429 . S
C1989 C1990 1.523 . S
C1990 C1971 1.368 . S
C1990 C1984 1.368 . S
C1990 C1989 1.523 . S
C1991 C1975 1.429 . S
C1991 C1987 1.429 . S
C1991 C1992 1.523 . S
C1992 C1976 1.368 . S
C1992 C1988 1.368 . S
C1992 C1991 1.523 . S
H1993 C1968 0.950 . S
H1994 C1970 0.950 . S
H1995 C1971 0.949 . S
H1996 C1973 0.950 . S
H1997 C1975 0.950 . S
C1998 C1999 1.349 . S
C1998 C2000 1.327 . S
C1998 H2023 0.950 . S
C1999 C1998 1.349 . S
C1999 C2015 1.349 . S
C2000 C1998 1.327 . S
C2000 C2019 1.429 . S
C2000 H2024 0.950 . S
C2001 C2018 1.574 . S
C2001 C2020 1.368 . S
C2001 H2025 0.949 . S
H2002 C2006 0.949 . S
C2003 C2004 1.349 . S
C2003 C2005 1.327 . S
C2003 H2026 0.950 . S
C2004 C2003 1.349 . S
C2004 C2016 1.349 . S
C2005 C2003 1.327 . S
C2005 C2021 1.429 . S
C2005 H2027 0.950 . S
C2006 H2002 0.949 . S
C2006 C2014 1.574 . S
C2006 C2022 1.368 . S
H2007 C2015 0.950 . S
H2008 C2013 0.950 . S
H2009 C2014 0.949 . S
H2010 C2016 0.950 . S
H2011 C2017 0.950 . S
H2012 C2018 0.949 . S
C2013 H2008 0.950 . S
C2013 C2015 1.327 . S
C2013 C2019 1.429 . S
C2014 C2006 1.574 . S
C2014 H2009 0.949 . S
C2014 C2020 1.368 . S
C2015 C1999 1.349 . S
C2015 H2007 0.950 . S
C2015 C2013 1.327 . S
C2016 C2004 1.349 . S
C2016 H2010 0.950 . S
C2016 C2017 1.327 . S
C2017 H2011 0.950 . S
C2017 C2016 1.327 . S
C2017 C2021 1.429 . S
C2018 C2001 1.574 . S
C2018 H2012 0.949 . S
C2018 C2022 1.368 . S
C2019 C2000 1.429 . S
C2019 C2013 1.429 . S
C2019 C2020 1.523 . S
C2020 C2001 1.368 . S
C2020 C2014 1.368 . S
C2020 C2019 1.523 . S
C2021 C2005 1.429 . S
C2021 C2017 1.429 . S
C2021 C2022 1.523 . S
C2022 C2006 1.368 . S
C2022 C2018 1.368 . S
C2022 C2021 1.523 . S
H2023 C1998 0.950 . S
H2024 C2000 0.950 . S
H2025 C2001 0.949 . S
H2026 C2003 0.950 . S
H2027 C2005 0.950 . S
C2028 C2029 1.349 . S
C2028 C2030 1.327 . S
C2028 H2053 0.950 . S
C2029 C2028 1.349 . S
C2029 C2045 1.349 . S
C2030 C2028 1.327 . S
C2030 C2049 1.429 . S
C2030 H2054 0.950 . S
C2031 C2048 1.574 . S
C2031 C2050 1.368 . S
C2031 H2055 0.949 . S
H2032 C2036 0.949 . S
C2033 C2034 1.349 . S
C2033 C2035 1.327 . S
C2033 H2056 0.950 . S
C2034 C2033 1.349 . S
C2034 C2046 1.349 . S
C2035 C2033 1.327 . S
C2035 C2051 1.429 . S
C2035 H2057 0.950 . S
C2036 H2032 0.949 . S
C2036 C2044 1.574 . S
C2036 C2052 1.368 . S
H2037 C2045 0.950 . S
H2038 C2043 0.950 . S
H2039 C2044 0.949 . S
H2040 C2046 0.950 . S
H2041 C2047 0.950 . S
H2042 C2048 0.949 . S
C2043 H2038 0.950 . S
C2043 C2045 1.327 . S
C2043 C2049 1.429 . S
C2044 C2036 1.574 . S
C2044 H2039 0.949 . S
C2044 C2050 1.368 . S
C2045 C2029 1.349 . S
C2045 H2037 0.950 . S
C2045 C2043 1.327 . S
C2046 C2034 1.349 . S
C2046 H2040 0.950 . S
C2046 C2047 1.327 . S
C2047 H2041 0.950 . S
C2047 C2046 1.327 . S
C2047 C2051 1.429 . S
C2048 C2031 1.574 . S
C2048 H2042 0.949 . S
C2048 C2052 1.368 . S
C2049 C2030 1.429 . S
C2049 C2043 1.429 . S
C2049 C2050 1.523 . S
C2050 C2031 1.368 . S
C2050 C2044 1.368 . S
C2050 C2049 1.523 . S
C2051 C2035 1.429 . S
C2051 C2047 1.429 . S
C2051 C2052 1.523 . S
C2052 C2036 1.368 . S
C2052 C2048 1.368 . S
C2052 C2051 1.523 . S
H2053 C2028 0.950 . S
H2054 C2030 0.950 . S
H2055 C2031 0.949 . S
H2056 C2033 0.950 . S
H2057 C2035 0.950 . S
C2058 C2059 1.349 . S
C2058 C2060 1.327 . S
C2058 H2083 0.950 . S
C2059 C2058 1.349 . S
C2059 C2075 1.349 . S
C2060 C2058 1.327 . S
C2060 C2079 1.429 . S
C2060 H2084 0.950 . S
C2061 C2078 1.574 . S
C2061 C2080 1.368 . S
C2061 H2085 0.949 . S
H2062 C2066 0.949 . S
C2063 C2064 1.349 . S
C2063 C2065 1.327 . S
C2063 H2086 0.950 . S
C2064 C2063 1.349 . S
C2064 C2076 1.349 . S
C2065 C2063 1.327 . S
C2065 C2081 1.429 . S
C2065 H2087 0.950 . S
C2066 H2062 0.949 . S
C2066 C2074 1.574 . S
C2066 C2082 1.368 . S
H2067 C2075 0.950 . S
H2068 C2073 0.950 . S
H2069 C2074 0.949 . S
H2070 C2076 0.950 . S
H2071 C2077 0.950 . S
H2072 C2078 0.949 . S
C2073 H2068 0.950 . S
C2073 C2075 1.327 . S
C2073 C2079 1.429 . S
C2074 C2066 1.574 . S
C2074 H2069 0.949 . S
C2074 C2080 1.368 . S
C2075 C2059 1.349 . S
C2075 H2067 0.950 . S
C2075 C2073 1.327 . S
C2076 C2064 1.349 . S
C2076 H2070 0.950 . S
C2076 C2077 1.327 . S
C2077 H2071 0.950 . S
C2077 C2076 1.327 . S
C2077 C2081 1.429 . S
C2078 C2061 1.574 . S
C2078 H2072 0.949 . S
C2078 C2082 1.368 . S
C2079 C2060 1.429 . S
C2079 C2073 1.429 . S
C2079 C2080 1.523 . S
C2080 C2061 1.368 . S
C2080 C2074 1.368 . S
C2080 C2079 1.523 . S
C2081 C2065 1.429 . S
C2081 C2077 1.429 . S
C2081 C2082 1.523 . S
C2082 C2066 1.368 . S
C2082 C2078 1.368 . S
C2082 C2081 1.523 . S
H2083 C2058 0.950 . S
H2084 C2060 0.950 . S
H2085 C2061 0.949 . S
H2086 C2063 0.950 . S
H2087 C2065 0.950 . S
C2088 C2089 1.349 . S
C2088 C2090 1.327 . S
C2088 H2113 0.950 . S
C2089 C2088 1.349 . S
C2089 C2105 1.349 . S
C2090 C2088 1.327 . S
C2090 C2109 1.429 . S
C2090 H2114 0.950 . S
C2091 C2108 1.574 . S
C2091 C2110 1.368 . S
C2091 H2115 0.949 . S
H2092 C2096 0.949 . S
C2093 C2094 1.349 . S
C2093 C2095 1.327 . S
C2093 H2116 0.950 . S
C2094 C2093 1.349 . S
C2094 C2106 1.349 . S
C2095 C2093 1.327 . S
C2095 C2111 1.429 . S
C2095 H2117 0.950 . S
C2096 H2092 0.949 . S
C2096 C2104 1.574 . S
C2096 C2112 1.368 . S
H2097 C2105 0.950 . S
H2098 C2103 0.950 . S
H2099 C2104 0.949 . S
H2100 C2106 0.950 . S
H2101 C2107 0.950 . S
H2102 C2108 0.949 . S
C2103 H2098 0.950 . S
C2103 C2105 1.327 . S
C2103 C2109 1.429 . S
C2104 C2096 1.574 . S
C2104 H2099 0.949 . S
C2104 C2110 1.368 . S
C2105 C2089 1.349 . S
C2105 H2097 0.950 . S
C2105 C2103 1.327 . S
C2106 C2094 1.349 . S
C2106 H2100 0.950 . S
C2106 C2107 1.327 . S
C2107 H2101 0.950 . S
C2107 C2106 1.327 . S
C2107 C2111 1.429 . S
C2108 C2091 1.574 . S
C2108 H2102 0.949 . S
C2108 C2112 1.368 . S
C2109 C2090 1.429 . S
C2109 C2103 1.429 . S
C2109 C2110 1.523 . S
C2110 C2091 1.368 . S
C2110 C2104 1.368 . S
C2110 C2109 1.523 . S
C2111 C2095 1.429 . S
C2111 C2107 1.429 . S
C2111 C2112 1.523 . S
C2112 C2096 1.368 . S
C2112 C2108 1.368 . S
C2112 C2111 1.523 . S
H2113 C2088 0.950 . S
H2114 C2090 0.950 . S
H2115 C2091 0.949 . S
H2116 C2093 0.950 . S
H2117 C2095 0.950 . S
C2118 C2119 1.349 . S
C2118 C2120 1.327 . S
C2118 H2143 0.950 . S
C2119 C2118 1.349 . S
C2119 C2135 1.349 . S
C2120 C2118 1.327 . S
C2120 C2139 1.429 . S
C2120 H2144 0.950 . S
C2121 C2138 1.574 . S
C2121 C2140 1.368 . S
C2121 H2145 0.949 . S
H2122 C2126 0.949 . S
C2123 C2124 1.349 . S
C2123 C2125 1.327 . S
C2123 H2146 0.950 . S
C2124 C2123 1.349 . S
C2124 C2136 1.349 . S
C2125 C2123 1.327 . S
C2125 C2141 1.429 . S
C2125 H2147 0.950 . S
C2126 H2122 0.949 . S
C2126 C2134 1.574 . S
C2126 C2142 1.368 . S
H2127 C2135 0.950 . S
H2128 C2133 0.950 . S
H2129 C2134 0.949 . S
H2130 C2136 0.950 . S
H2131 C2137 0.950 . S
H2132 C2138 0.949 . S
C2133 H2128 0.950 . S
C2133 C2135 1.327 . S
C2133 C2139 1.429 . S
C2134 C2126 1.574 . S
C2134 H2129 0.949 . S
C2134 C2140 1.368 . S
C2135 C2119 1.349 . S
C2135 H2127 0.950 . S
C2135 C2133 1.327 . S
C2136 C2124 1.349 . S
C2136 H2130 0.950 . S
C2136 C2137 1.327 . S
C2137 H2131 0.950 . S
C2137 C2136 1.327 . S
C2137 C2141 1.429 . S
C2138 C2121 1.574 . S
C2138 H2132 0.949 . S
C2138 C2142 1.368 . S
C2139 C2120 1.429 . S
C2139 C2133 1.429 . S
C2139 C2140 1.523 . S
C2140 C2121 1.368 . S
C2140 C2134 1.368 . S
C2140 C2139 1.523 . S
C2141 C2125 1.429 . S
C2141 C2137 1.429 . S
C2141 C2142 1.523 . S
C2142 C2126 1.368 . S
C2142 C2138 1.368 . S
C2142 C2141 1.523 . S
H2143 C2118 0.950 . S
H2144 C2120 0.950 . S
H2145 C2121 0.949 . S
H2146 C2123 0.950 . S
H2147 C2125 0.950 . S
C2148 C2149 1.349 . S
C2148 C2150 1.327 . S
C2148 H2173 0.950 . S
C2149 C2148 1.349 . S
C2149 C2165 1.349 . S
C2150 C2148 1.327 . S
C2150 C2169 1.429 . S
C2150 H2174 0.950 . S
C2151 C2168 1.574 . S
C2151 C2170 1.368 . S
C2151 H2175 0.949 . S
H2152 C2156 0.949 . S
C2153 C2154 1.349 . S
C2153 C2155 1.327 . S
C2153 H2176 0.950 . S
C2154 C2153 1.349 . S
C2154 C2166 1.349 . S
C2155 C2153 1.327 . S
C2155 C2171 1.429 . S
C2155 H2177 0.950 . S
C2156 H2152 0.949 . S
C2156 C2164 1.574 . S
C2156 C2172 1.368 . S
H2157 C2165 0.950 . S
H2158 C2163 0.950 . S
H2159 C2164 0.949 . S
H2160 C2166 0.950 . S
H2161 C2167 0.950 . S
H2162 C2168 0.949 . S
C2163 H2158 0.950 . S
C2163 C2165 1.327 . S
C2163 C2169 1.429 . S
C2164 C2156 1.574 . S
C2164 H2159 0.949 . S
C2164 C2170 1.368 . S
C2165 C2149 1.349 . S
C2165 H2157 0.950 . S
C2165 C2163 1.327 . S
C2166 C2154 1.349 . S
C2166 H2160 0.950 . S
C2166 C2167 1.327 . S
C2167 H2161 0.950 . S
C2167 C2166 1.327 . S
C2167 C2171 1.429 . S
C2168 C2151 1.574 . S
C2168 H2162 0.949 . S
C2168 C2172 1.368 . S
C2169 C2150 1.429 . S
C2169 C2163 1.429 . S
C2169 C2170 1.523 . S
C2170 C2151 1.368 . S
C2170 C2164 1.368 . S
C2170 C2169 1.523 . S
C2171 C2155 1.429 . S
C2171 C2167 1.429 . S
C2171 C2172 1.523 . S
C2172 C2156 1.368 . S
C2172 C2168 1.368 . S
C2172 C2171 1.523 . S
H2173 C2148 0.950 . S
H2174 C2150 0.950 . S
H2175 C2151 0.949 . S
H2176 C2153 0.950 . S
H2177 C2155 0.950 . S
C2178 C2179 1.349 . S
C2178 C2180 1.327 . S
C2178 H2203 0.950 . S
C2179 C2178 1.349 . S
C2179 C2195 1.349 . S
C2180 C2178 1.327 . S
C2180 C2199 1.429 . S
C2180 H2204 0.950 . S
C2181 C2198 1.574 . S
C2181 C2200 1.368 . S
C2181 H2205 0.949 . S
H2182 C2186 0.949 . S
C2183 C2184 1.349 . S
C2183 C2185 1.327 . S
C2183 H2206 0.950 . S
C2184 C2183 1.349 . S
C2184 C2196 1.349 . S
C2185 C2183 1.327 . S
C2185 C2201 1.429 . S
C2185 H2207 0.950 . S
C2186 H2182 0.949 . S
C2186 C2194 1.574 . S
C2186 C2202 1.368 . S
H2187 C2195 0.950 . S
H2188 C2193 0.950 . S
H2189 C2194 0.949 . S
H2190 C2196 0.950 . S
H2191 C2197 0.950 . S
H2192 C2198 0.949 . S
C2193 H2188 0.950 . S
C2193 C2195 1.327 . S
C2193 C2199 1.429 . S
C2194 C2186 1.574 . S
C2194 H2189 0.949 . S
C2194 C2200 1.368 . S
C2195 C2179 1.349 . S
C2195 H2187 0.950 . S
C2195 C2193 1.327 . S
C2196 C2184 1.349 . S
C2196 H2190 0.950 . S
C2196 C2197 1.327 . S
C2197 H2191 0.950 . S
C2197 C2196 1.327 . S
C2197 C2201 1.429 . S
C2198 C2181 1.574 . S
C2198 H2192 0.949 . S
C2198 C2202 1.368 . S
C2199 C2180 1.429 . S
C2199 C2193 1.429 . S
C2199 C2200 1.523 . S
C2200 C2181 1.368 . S
C2200 C2194 1.368 . S
C2200 C2199 1.523 . S
C2201 C2185 1.429 . S
C2201 C2197 1.429 . S
C2201 C2202 1.523 . S
C2202 C2186 1.368 . S
C2202 C2198 1.368 . S
C2202 C2201 1.523 . S
H2203 C2178 0.950 . S
H2204 C2180 0.950 . S
H2205 C2181 0.949 . S
H2206 C2183 0.950 . S
H2207 C2185 0.950 . S
C2208 C2209 1.349 . S
C2208 C2210 1.327 . S
C2208 H2233 0.950 . S
C2209 C2208 1.349 . S
C2209 C2225 1.349 . S
C2210 C2208 1.327 . S
C2210 C2229 1.429 . S
C2210 H2234 0.950 . S
C2211 C2228 1.574 . S
C2211 C2230 1.368 . S
C2211 H2235 0.949 . S
H2212 C2216 0.949 . S
C2213 C2214 1.349 . S
C2213 C2215 1.327 . S
C2213 H2236 0.950 . S
C2214 C2213 1.349 . S
C2214 C2226 1.349 . S
C2215 C2213 1.327 . S
C2215 C2231 1.429 . S
C2215 H2237 0.950 . S
C2216 H2212 0.949 . S
C2216 C2224 1.574 . S
C2216 C2232 1.368 . S
H2217 C2225 0.950 . S
H2218 C2223 0.950 . S
H2219 C2224 0.949 . S
H2220 C2226 0.950 . S
H2221 C2227 0.950 . S
H2222 C2228 0.949 . S
C2223 H2218 0.950 . S
C2223 C2225 1.327 . S
C2223 C2229 1.429 . S
C2224 C2216 1.574 . S
C2224 H2219 0.949 . S
C2224 C2230 1.368 . S
C2225 C2209 1.349 . S
C2225 H2217 0.950 . S
C2225 C2223 1.327 . S
C2226 C2214 1.349 . S
C2226 H2220 0.950 . S
C2226 C2227 1.327 . S
C2227 H2221 0.950 . S
C2227 C2226 1.327 . S
C2227 C2231 1.429 . S
C2228 C2211 1.574 . S
C2228 H2222 0.949 . S
C2228 C2232 1.368 . S
C2229 C2210 1.429 . S
C2229 C2223 1.429 . S
C2229 C2230 1.523 . S
C2230 C2211 1.368 . S
C2230 C2224 1.368 . S
C2230 C2229 1.523 . S
C2231 C2215 1.429 . S
C2231 C2227 1.429 . S
C2231 C2232 1.523 . S
C2232 C2216 1.368 . S
C2232 C2228 1.368 . S
C2232 C2231 1.523 . S
H2233 C2208 0.950 . S
H2234 C2210 0.950 . S
H2235 C2211 0.949 . S
H2236 C2213 0.950 . S
H2237 C2215 0.950 . S
C2238 C2239 1.349 . S
C2238 C2240 1.327 . S
C2238 H2263 0.950 . S
C2239 C2238 1.349 . S
C2239 C2255 1.349 . S
C2240 C2238 1.327 . S
C2240 C2259 1.429 . S
C2240 H2264 0.950 . S
C2241 C2258 1.574 . S
C2241 C2260 1.368 . S
C2241 H2265 0.949 . S
H2242 C2246 0.949 . S
C2243 C2244 1.349 . S
C2243 C2245 1.327 . S
C2243 H2266 0.950 . S
C2244 C2243 1.349 . S
C2244 C2256 1.349 . S
C2245 C2243 1.327 . S
C2245 C2261 1.429 . S
C2245 H2267 0.950 . S
C2246 H2242 0.949 . S
C2246 C2254 1.574 . S
C2246 C2262 1.368 . S
H2247 C2255 0.950 . S
H2248 C2253 0.950 . S
H2249 C2254 0.949 . S
H2250 C2256 0.950 . S
H2251 C2257 0.950 . S
H2252 C2258 0.949 . S
C2253 H2248 0.950 . S
C2253 C2255 1.327 . S
C2253 C2259 1.429 . S
C2254 C2246 1.574 . S
C2254 H2249 0.949 . S
C2254 C2260 1.368 . S
C2255 C2239 1.349 . S
C2255 H2247 0.950 . S
C2255 C2253 1.327 . S
C2256 C2244 1.349 . S
C2256 H2250 0.950 . S
C2256 C2257 1.327 . S
C2257 H2251 0.950 . S
C2257 C2256 1.327 . S
C2257 C2261 1.429 . S
C2258 C2241 1.574 . S
C2258 H2252 0.949 . S
C2258 C2262 1.368 . S
C2259 C2240 1.429 . S
C2259 C2253 1.429 . S
C2259 C2260 1.523 . S
C2260 C2241 1.368 . S
C2260 C2254 1.368 . S
C2260 C2259 1.523 . S
C2261 C2245 1.429 . S
C2261 C2257 1.429 . S
C2261 C2262 1.523 . S
C2262 C2246 1.368 . S
C2262 C2258 1.368 . S
C2262 C2261 1.523 . S
H2263 C2238 0.950 . S
H2264 C2240 0.950 . S
H2265 C2241 0.949 . S
H2266 C2243 0.950 . S
H2267 C2245 0.950 . S
C2268 C2269 1.349 . S
C2268 C2270 1.327 . S
C2268 H2293 0.950 . S
C2269 C2268 1.349 . S
C2269 C2285 1.349 . S
C2270 C2268 1.327 . S
C2270 C2289 1.429 . S
C2270 H2294 0.950 . S
C2271 C2288 1.574 . S
C2271 C2290 1.368 . S
C2271 H2295 0.949 . S
H2272 C2276 0.949 . S
C2273 C2274 1.349 . S
C2273 C2275 1.327 . S
C2273 H2296 0.950 . S
C2274 C2273 1.349 . S
C2274 C2286 1.349 . S
C2275 C2273 1.327 . S
C2275 C2291 1.429 . S
C2275 H2297 0.950 . S
C2276 H2272 0.949 . S
C2276 C2284 1.574 . S
C2276 C2292 1.368 . S
H2277 C2285 0.950 . S
H2278 C2283 0.950 . S
H2279 C2284 0.949 . S
H2280 C2286 0.950 . S
H2281 C2287 0.950 . S
H2282 C2288 0.949 . S
C2283 H2278 0.950 . S
C2283 C2285 1.327 . S
C2283 C2289 1.429 . S
C2284 C2276 1.574 . S
C2284 H2279 0.949 . S
C2284 C2290 1.368 . S
C2285 C2269 1.349 . S
C2285 H2277 0.950 . S
C2285 C2283 1.327 . S
C2286 C2274 1.349 . S
C2286 H2280 0.950 . S
C2286 C2287 1.327 . S
C2287 H2281 0.950 . S
C2287 C2286 1.327 . S
C2287 C2291 1.429 . S
C2288 C2271 1.574 . S
C2288 H2282 0.949 . S
C2288 C2292 1.368 . S
C2289 C2270 1.429 . S
C2289 C2283 1.429 . S
C2289 C2290 1.523 . S
C2290 C2271 1.368 . S
C2290 C2284 1.368 . S
C2290 C2289 1.523 . S
C2291 C2275 1.429 . S
C2291 C2287 1.429 . S
C2291 C2292 1.523 . S
C2292 C2276 1.368 . S
C2292 C2288 1.368 . S
C2292 C2291 1.523 . S
H2293 C2268 0.950 . S
H2294 C2270 0.950 . S
H2295 C2271 0.949 . S
H2296 C2273 0.950 . S
H2297 C2275 0.950 . S
C2298 C2299 1.349 . S
C2298 C2300 1.327 . S
C2298 H2323 0.950 . S
C2299 C2298 1.349 . S
C2299 C2315 1.349 . S
C2300 C2298 1.327 . S
C2300 C2319 1.429 . S
C2300 H2324 0.950 . S
C2301 C2318 1.574 . S
C2301 C2320 1.368 . S
C2301 H2325 0.949 . S
H2302 C2306 0.949 . S
C2303 C2304 1.349 . S
C2303 C2305 1.327 . S
C2303 H2326 0.950 . S
C2304 C2303 1.349 . S
C2304 C2316 1.349 . S
C2305 C2303 1.327 . S
C2305 C2321 1.429 . S
C2305 H2327 0.950 . S
C2306 H2302 0.949 . S
C2306 C2314 1.574 . S
C2306 C2322 1.368 . S
H2307 C2315 0.950 . S
H2308 C2313 0.950 . S
H2309 C2314 0.949 . S
H2310 C2316 0.950 . S
H2311 C2317 0.950 . S
H2312 C2318 0.949 . S
C2313 H2308 0.950 . S
C2313 C2315 1.327 . S
C2313 C2319 1.429 . S
C2314 C2306 1.574 . S
C2314 H2309 0.949 . S
C2314 C2320 1.368 . S
C2315 C2299 1.349 . S
C2315 H2307 0.950 . S
C2315 C2313 1.327 . S
C2316 C2304 1.349 . S
C2316 H2310 0.950 . S
C2316 C2317 1.327 . S
C2317 H2311 0.950 . S
C2317 C2316 1.327 . S
C2317 C2321 1.429 . S
C2318 C2301 1.574 . S
C2318 H2312 0.949 . S
C2318 C2322 1.368 . S
C2319 C2300 1.429 . S
C2319 C2313 1.429 . S
C2319 C2320 1.523 . S
C2320 C2301 1.368 . S
C2320 C2314 1.368 . S
C2320 C2319 1.523 . S
C2321 C2305 1.429 . S
C2321 C2317 1.429 . S
C2321 C2322 1.523 . S
C2322 C2306 1.368 . S
C2322 C2318 1.368 . S
C2322 C2321 1.523 . S
H2323 C2298 0.950 . S
H2324 C2300 0.950 . S
H2325 C2301 0.949 . S
H2326 C2303 0.950 . S
H2327 C2305 0.950 . S
C2328 C2329 1.349 . S
C2328 C2330 1.327 . S
C2328 H2353 0.950 . S
C2329 C2328 1.349 . S
C2329 C2345 1.349 . S
C2330 C2328 1.327 . S
C2330 C2349 1.429 . S
C2330 H2354 0.950 . S
C2331 C2348 1.574 . S
C2331 C2350 1.368 . S
C2331 H2355 0.949 . S
H2332 C2336 0.949 . S
C2333 C2334 1.349 . S
C2333 C2335 1.327 . S
C2333 H2356 0.950 1_655 S
C2334 C2333 1.349 . S
C2334 C2346 1.349 . S
C2335 C2333 1.327 . S
C2335 C2351 1.429 . S
C2335 H2357 0.978 . S
C2336 H2332 0.949 . S
C2336 C2344 1.574 . S
C2336 C2352 1.368 . S
H2337 C2345 0.950 . S
H2338 C2343 0.950 . S
H2339 C2344 0.949 . S
H2340 C2346 0.950 . S
H2341 C2347 0.950 . S
H2342 C2348 0.949 . S
C2343 H2338 0.950 . S
C2343 C2345 1.327 . S
C2343 C2349 1.429 . S
C2344 C2336 1.574 . S
C2344 H2339 0.949 . S
C2344 C2350 1.368 . S
C2345 C2329 1.349 . S
C2345 H2337 0.950 . S
C2345 C2343 1.327 . S
C2346 C2334 1.349 . S
C2346 H2340 0.950 . S
C2346 C2347 1.327 . S
C2347 H2341 0.950 . S
C2347 C2346 1.327 . S
C2347 C2351 1.429 . S
C2348 C2331 1.574 . S
C2348 H2342 0.949 . S
C2348 C2352 1.368 . S
C2349 C2330 1.429 . S
C2349 C2343 1.429 . S
C2349 C2350 1.523 . S
C2350 C2331 1.368 . S
C2350 C2344 1.368 . S
C2350 C2349 1.523 . S
C2351 C2335 1.429 . S
C2351 C2347 1.429 . S
C2351 C2352 1.523 . S
C2352 C2336 1.368 . S
C2352 C2348 1.368 . S
C2352 C2351 1.523 . S
H2353 C2328 0.950 . S
H2354 C2330 0.950 . S
H2355 C2331 0.949 . S
H2356 C2333 0.950 1_455 S
H2357 C2335 0.978 . S
C2358 C2359 1.349 . S
C2358 C2360 1.327 . S
C2358 H2383 0.950 . S
C2359 C2358 1.349 . S
C2359 C2375 1.349 . S
C2360 C2358 1.327 . S
C2360 C2379 1.429 . S
C2360 H2384 0.950 . S
C2361 C2378 1.574 . S
C2361 C2380 1.368 . S
C2361 H2385 0.949 . S
H2362 C2366 0.949 . S
C2363 C2364 1.349 . S
C2363 C2365 1.327 . S
C2363 H2386 0.950 1_554 S
C2364 C2363 1.349 . S
C2364 C2376 1.349 . S
C2365 C2363 1.327 . S
C2365 C2381 1.429 . S
C2365 H2387 0.950 . S
C2366 H2362 0.949 . S
C2366 C2374 1.574 . S
C2366 C2382 1.368 . S
H2367 C2375 0.950 . S
H2368 C2373 0.950 . S
H2369 C2374 0.949 . S
H2370 C2376 0.950 . S
H2371 C2377 0.950 . S
H2372 C2378 0.949 . S
C2373 H2368 0.950 . S
C2373 C2375 1.327 . S
C2373 C2379 1.429 . S
C2374 C2366 1.574 . S
C2374 H2369 0.949 . S
C2374 C2380 1.368 . S
C2375 C2359 1.349 . S
C2375 H2367 0.950 . S
C2375 C2373 1.327 . S
C2376 C2364 1.349 . S
C2376 H2370 0.950 . S
C2376 C2377 1.327 . S
C2377 H2371 0.950 . S
C2377 C2376 1.327 . S
C2377 C2381 1.429 . S
C2378 C2361 1.574 . S
C2378 H2372 0.949 . S
C2378 C2382 1.368 . S
C2379 C2360 1.429 . S
C2379 C2373 1.429 . S
C2379 C2380 1.523 . S
C2380 C2361 1.368 . S
C2380 C2374 1.368 . S
C2380 C2379 1.523 . S
C2381 C2365 1.429 . S
C2381 C2377 1.429 . S
C2381 C2382 1.523 . S
C2382 C2366 1.368 . S
C2382 C2378 1.368 . S
C2382 C2381 1.523 . S
H2383 C2358 0.950 . S
H2384 C2360 0.950 . S
H2385 C2361 0.949 . S
H2386 C2363 0.950 1_556 S
H2387 C2365 0.950 . S
C2388 C2389 1.349 . S
C2388 C2390 1.327 . S
C2388 H2413 0.950 . S
C2389 C2388 1.349 . S
C2389 C2405 1.349 1_655 S
C2390 C2388 1.327 . S
C2390 C2409 1.429 . S
C2390 H2414 0.950 . S
C2391 C2408 1.576 . S
C2391 C2410 1.368 1_455 S
C2391 H2415 0.949 . S
H2392 C2396 0.949 . S
C2393 C2394 1.349 . S
C2393 C2395 1.327 . S
C2393 H2416 0.950 1_655 S
C2394 C2393 1.349 . S
C2394 C2406 1.349 . S
C2395 C2393 1.327 . S
C2395 C2411 1.429 . S
C2395 H2417 0.950 1_655 S
C2396 H2392 0.949 . S
C2396 C2404 1.574 . S
C2396 C2412 1.368 . S
H2397 C2405 0.950 . S
H2398 C2403 0.950 . S
H2399 C2404 0.949 . S
H2400 C2406 0.950 . S
H2401 C2407 0.950 . S
H2402 C2408 0.967 . S
C2403 H2398 0.950 . S
C2403 C2405 1.327 . S
C2403 C2409 1.429 1_455 S
C2404 C2396 1.574 . S
C2404 H2399 0.949 . S
C2404 C2410 1.368 . S
C2405 C2389 1.349 1_455 S
C2405 H2397 0.950 . S
C2405 C2403 1.327 . S
C2406 C2394 1.349 . S
C2406 H2400 0.950 . S
C2406 C2407 1.327 . S
C2407 H2401 0.950 . S
C2407 C2406 1.327 . S
C2407 C2411 1.429 . S
C2408 C2391 1.576 . S
C2408 H2402 0.967 . S
C2408 C2412 1.347 1_455 S
C2409 C2390 1.429 . S
C2409 C2403 1.429 1_655 S
C2409 C2410 1.523 . S
C2410 C2391 1.368 1_655 S
C2410 C2404 1.368 . S
C2410 C2409 1.523 . S
C2411 C2395 1.429 . S
C2411 C2407 1.429 . S
C2411 C2412 1.523 . S
C2412 C2396 1.368 . S
C2412 C2408 1.347 1_655 S
C2412 C2411 1.523 . S
H2413 C2388 0.950 . S
H2414 C2390 0.950 . S
H2415 C2391 0.949 . S
H2416 C2393 0.950 1_455 S
H2417 C2395 0.950 1_455 S
C2418 C2419 1.349 . S
C2418 C2420 1.327 . S
C2418 H2443 0.950 . S
C2419 C2418 1.349 . S
C2419 C2435 1.349 . S
C2420 C2418 1.327 . S
C2420 C2439 1.429 . S
C2420 H2444 0.950 . S
C2421 C2438 1.574 . S
C2421 C2440 1.368 . S
C2421 H2445 0.949 . S
H2422 C2426 0.949 . S
C2423 C2424 1.349 . S
C2423 C2425 1.327 . S
C2423 H2446 0.950 . S
C2424 C2423 1.349 . S
C2424 C2436 1.349 . S
C2425 C2423 1.327 . S
C2425 C2441 1.429 . S
C2425 H2447 0.950 . S
C2426 H2422 0.949 . S
C2426 C2434 1.574 . S
C2426 C2442 1.368 . S
H2427 C2435 0.950 . S
H2428 C2433 0.950 . S
H2429 C2434 0.949 . S
H2430 C2436 0.950 . S
H2431 C2437 0.950 . S
H2432 C2438 0.949 . S
C2433 H2428 0.950 . S
C2433 C2435 1.327 . S
C2433 C2439 1.429 . S
C2434 C2426 1.574 . S
C2434 H2429 0.949 . S
C2434 C2440 1.368 . S
C2435 C2419 1.349 . S
C2435 H2427 0.950 . S
C2435 C2433 1.327 . S
C2436 C2424 1.349 . S
C2436 H2430 0.950 . S
C2436 C2437 1.327 . S
C2437 H2431 0.950 . S
C2437 C2436 1.327 . S
C2437 C2441 1.429 . S
C2438 C2421 1.574 . S
C2438 H2432 0.949 . S
C2438 C2442 1.368 . S
C2439 C2420 1.429 . S
C2439 C2433 1.429 . S
C2439 C2440 1.523 . S
C2440 C2421 1.368 . S
C2440 C2434 1.368 . S
C2440 C2439 1.523 . S
C2441 C2425 1.429 . S
C2441 C2437 1.429 . S
C2441 C2442 1.523 . S
C2442 C2426 1.368 . S
C2442 C2438 1.368 . S
C2442 C2441 1.523 . S
H2443 C2418 0.950 . S
H2444 C2420 0.950 . S
H2445 C2421 0.949 . S
H2446 C2423 0.950 . S
H2447 C2425 0.950 . S
C2448 C2449 1.349 . S
C2448 C2450 1.327 . S
C2448 H2473 0.950 . S
C2449 C2448 1.349 . S
C2449 C2465 1.349 . S
C2450 C2448 1.327 . S
C2450 C2469 1.429 . S
C2450 H2474 0.950 . S
C2451 C2468 1.574 . S
C2451 C2470 1.368 . S
C2451 H2475 0.949 . S
H2452 C2456 0.949 . S
C2453 C2454 1.349 . S
C2453 C2455 1.327 . S
C2453 H2476 0.950 . S
C2454 C2453 1.349 . S
C2454 C2466 1.349 . S
C2455 C2453 1.327 . S
C2455 C2471 1.429 . S
C2455 H2477 0.950 . S
C2456 H2452 0.949 . S
C2456 C2464 1.574 . S
C2456 C2472 1.368 . S
H2457 C2465 0.950 . S
H2458 C2463 0.950 . S
H2459 C2464 0.949 . S
H2460 C2466 0.950 . S
H2461 C2467 0.950 . S
H2462 C2468 0.949 . S
C2463 H2458 0.950 . S
C2463 C2465 1.327 . S
C2463 C2469 1.429 . S
C2464 C2456 1.574 . S
C2464 H2459 0.949 . S
C2464 C2470 1.368 . S
C2465 C2449 1.349 . S
C2465 H2457 0.950 . S
C2465 C2463 1.327 . S
C2466 C2454 1.349 . S
C2466 H2460 0.950 . S
C2466 C2467 1.327 . S
C2467 H2461 0.950 . S
C2467 C2466 1.327 . S
C2467 C2471 1.429 . S
C2468 C2451 1.574 . S
C2468 H2462 0.949 . S
C2468 C2472 1.368 . S
C2469 C2450 1.429 . S
C2469 C2463 1.429 . S
C2469 C2470 1.523 . S
C2470 C2451 1.368 . S
C2470 C2464 1.368 . S
C2470 C2469 1.523 . S
C2471 C2455 1.429 . S
C2471 C2467 1.429 . S
C2471 C2472 1.523 . S
C2472 C2456 1.368 . S
C2472 C2468 1.368 . S
C2472 C2471 1.523 . S
H2473 C2448 0.950 . S
H2474 C2450 0.950 . S
H2475 C2451 0.949 . S
H2476 C2453 0.950 . S
H2477 C2455 0.950 . S
C2478 C2479 1.349 . S
C2478 C2480 1.327 . S
C2478 H2503 0.950 . S
C2479 C2478 1.349 . S
C2479 C2495 1.349 . S
C2480 C2478 1.327 . S
C2480 C2499 1.429 . S
C2480 H2504 0.950 . S
C2481 C2498 1.574 . S
C2481 C2500 1.368 . S
C2481 H2505 0.949 . S
H2482 C2486 0.949 . S
C2483 C2484 1.349 . S
C2483 C2485 1.327 . S
C2483 H2506 0.950 . S
C2484 C2483 1.349 . S
C2484 C2496 1.349 . S
C2485 C2483 1.327 . S
C2485 C2501 1.429 . S
C2485 H2507 0.950 . S
C2486 H2482 0.949 . S
C2486 C2494 1.574 . S
C2486 C2502 1.368 . S
H2487 C2495 0.950 . S
H2488 C2493 0.950 . S
H2489 C2494 0.949 . S
H2490 C2496 0.950 . S
H2491 C2497 0.950 . S
H2492 C2498 0.949 . S
C2493 H2488 0.950 . S
C2493 C2495 1.327 . S
C2493 C2499 1.429 . S
C2494 C2486 1.574 . S
C2494 H2489 0.949 . S
C2494 C2500 1.368 . S
C2495 C2479 1.349 . S
C2495 H2487 0.950 . S
C2495 C2493 1.327 . S
C2496 C2484 1.349 . S
C2496 H2490 0.950 . S
C2496 C2497 1.327 . S
C2497 H2491 0.950 . S
C2497 C2496 1.327 . S
C2497 C2501 1.429 . S
C2498 C2481 1.574 . S
C2498 H2492 0.949 . S
C2498 C2502 1.368 . S
C2499 C2480 1.429 . S
C2499 C2493 1.429 . S
C2499 C2500 1.523 . S
C2500 C2481 1.368 . S
C2500 C2494 1.368 . S
C2500 C2499 1.523 . S
C2501 C2485 1.429 . S
C2501 C2497 1.429 . S
C2501 C2502 1.523 . S
C2502 C2486 1.368 . S
C2502 C2498 1.368 . S
C2502 C2501 1.523 . S
H2503 C2478 0.950 . S
H2504 C2480 0.950 . S
H2505 C2481 0.949 . S
H2506 C2483 0.950 . S
H2507 C2485 0.950 . S
C2508 C2509 1.349 1_455 S
C2508 C2510 1.327 . S
C2508 H2533 0.950 . S
C2509 C2508 1.349 1_655 S
C2509 C2525 1.349 . S
C2510 C2508 1.327 . S
C2510 C2529 1.429 1_455 S
C2510 H2534 0.950 . S
C2511 C2528 1.574 . S
C2511 C2530 1.368 . S
C2511 H2535 0.949 . S
H2512 C2516 0.949 . S
C2513 C2514 1.349 . S
C2513 C2515 1.327 . S
C2513 H2536 0.950 . S
C2514 C2513 1.349 . S
C2514 C2526 1.349 . S
C2515 C2513 1.327 . S
C2515 C2531 1.429 . S
C2515 H2537 0.950 . S
C2516 H2512 0.949 . S
C2516 C2524 1.574 . S
C2516 C2532 1.368 1_455 S
H2517 C2525 0.950 . S
H2518 C2523 0.950 . S
H2519 C2524 0.949 . S
H2520 C2526 0.950 1_455 S
H2521 C2527 0.922 1_455 S
H2522 C2528 0.949 . S
C2523 H2518 0.950 . S
C2523 C2525 1.327 . S
C2523 C2529 1.429 . S
C2524 C2516 1.574 . S
C2524 H2519 0.949 . S
C2524 C2530 1.368 1_455 S
C2525 C2509 1.349 . S
C2525 H2517 0.950 . S
C2525 C2523 1.327 . S
C2526 C2514 1.349 . S
C2526 H2520 0.950 1_655 S
C2526 C2527 1.331 . S
C2527 H2521 0.922 1_655 S
C2527 C2526 1.331 . S
C2527 C2531 1.454 . S
C2528 C2511 1.574 . S
C2528 H2522 0.949 . S
C2528 C2532 1.368 . S
C2529 C2510 1.429 1_655 S
C2529 C2523 1.429 . S
C2529 C2530 1.523 . S
C2530 C2511 1.368 . S
C2530 C2524 1.368 1_655 S
C2530 C2529 1.523 . S
C2531 C2515 1.429 . S
C2531 C2527 1.454 . S
C2531 C2532 1.523 . S
C2532 C2516 1.368 1_655 S
C2532 C2528 1.368 . S
C2532 C2531 1.523 . S
H2533 C2508 0.950 . S
H2534 C2510 0.950 . S
H2535 C2511 0.949 . S
H2536 C2513 0.950 . S
H2537 C2515 0.950 . S
C2538 C2539 1.349 . S
C2538 C2540 1.327 . S
C2538 H2563 0.950 . S
C2539 C2538 1.349 . S
C2539 C2555 1.349 . S
C2540 C2538 1.327 . S
C2540 C2559 1.429 . S
C2540 H2564 0.950 . S
C2541 C2558 1.574 . S
C2541 C2560 1.368 . S
C2541 H2565 0.949 . S
H2542 C2546 0.949 . S
C2543 C2544 1.349 . S
C2543 C2545 1.327 . S
C2543 H2566 0.950 . S
C2544 C2543 1.349 . S
C2544 C2556 1.349 . S
C2545 C2543 1.327 . S
C2545 C2561 1.429 . S
C2545 H2567 0.950 . S
C2546 H2542 0.949 . S
C2546 C2554 1.574 . S
C2546 C2562 1.368 . S
H2547 C2555 0.950 . S
H2548 C2553 0.950 . S
H2549 C2554 0.949 . S
H2550 C2556 0.950 1_554 S
H2551 C2557 0.950 . S
H2552 C2558 0.949 . S
C2553 H2548 0.950 . S
C2553 C2555 1.327 . S
C2553 C2559 1.429 . S
C2554 C2546 1.574 . S
C2554 H2549 0.949 . S
C2554 C2560 1.368 . S
C2555 C2539 1.349 . S
C2555 H2547 0.950 . S
C2555 C2553 1.327 . S
C2556 C2544 1.349 . S
C2556 H2550 0.950 1_556 S
C2556 C2557 1.327 . S
C2557 H2551 0.950 . S
C2557 C2556 1.327 . S
C2557 C2561 1.429 . S
C2558 C2541 1.574 . S
C2558 H2552 0.949 . S
C2558 C2562 1.368 . S
C2559 C2540 1.429 . S
C2559 C2553 1.429 . S
C2559 C2560 1.523 . S
C2560 C2541 1.368 . S
C2560 C2554 1.368 . S
C2560 C2559 1.523 . S
C2561 C2545 1.429 . S
C2561 C2557 1.429 . S
C2561 C2562 1.523 . S
C2562 C2546 1.368 . S
C2562 C2558 1.368 . S
C2562 C2561 1.523 . S
H2563 C2538 0.950 . S
H2564 C2540 0.950 . S
H2565 C2541 0.949 . S
H2566 C2543 0.950 . S
H2567 C2545 0.950 . S
C2568 C2569 1.349 . S
C2568 C2570 1.327 . S
C2568 H2593 0.950 . S
C2569 C2568 1.349 . S
C2569 C2585 1.349 . S
C2570 C2568 1.327 . S
C2570 C2589 1.429 . S
C2570 H2594 0.950 . S
C2571 C2588 1.574 . S
C2571 C2590 1.368 1_545 S
C2571 H2595 0.949 . S
H2572 C2576 0.949 . S
C2573 C2574 1.349 1_545 S
C2573 C2575 1.327 . S
C2573 H2596 0.950 . S
C2574 C2573 1.349 1_565 S
C2574 C2586 1.349 . S
C2575 C2573 1.327 . S
C2575 C2591 1.429 1_545 S
C2575 H2597 0.950 . S
C2576 H2572 0.949 . S
C2576 C2584 1.574 . S
C2576 C2592 1.368 . S
H2577 C2585 0.950 1_545 S
H2578 C2583 0.950 1_545 S
H2579 C2584 0.949 . S
H2580 C2586 0.950 . S
H2581 C2587 0.950 . S
H2582 C2588 0.949 . S
C2583 H2578 0.950 1_565 S
C2583 C2585 1.327 . S
C2583 C2589 1.429 . S
C2584 C2576 1.574 . S
C2584 H2579 0.949 . S
C2584 C2590 1.368 . S
C2585 C2569 1.349 . S
C2585 H2577 0.950 1_565 S
C2585 C2583 1.327 . S
C2586 C2574 1.349 . S
C2586 H2580 0.950 . S
C2586 C2587 1.327 . S
C2587 H2581 0.950 . S
C2587 C2586 1.327 . S
C2587 C2591 1.429 . S
C2588 C2571 1.574 . S
C2588 H2582 0.949 . S
C2588 C2592 1.368 1_545 S
C2589 C2570 1.429 . S
C2589 C2583 1.429 . S
C2589 C2590 1.523 . S
C2590 C2571 1.368 1_565 S
C2590 C2584 1.368 . S
C2590 C2589 1.523 . S
C2591 C2575 1.429 1_565 S
C2591 C2587 1.429 . S
C2591 C2592 1.523 . S
C2592 C2576 1.368 . S
C2592 C2588 1.368 1_565 S
C2592 C2591 1.523 . S
H2593 C2568 0.950 . S
H2594 C2570 0.950 . S
H2595 C2571 0.949 . S
H2596 C2573 0.950 . S
H2597 C2575 0.950 . S
C2598 C2599 1.349 . S
C2598 C2600 1.327 . S
C2598 H2623 0.950 . S
C2599 C2598 1.349 . S
C2599 C2615 1.349 1_545 S
C2600 C2598 1.327 . S
C2600 C2619 1.429 . S
C2600 H2624 0.950 . S
C2601 C2618 1.574 . S
C2601 C2620 1.368 1_565 S
C2601 H2625 0.949 . S
H2602 C2606 0.949 . S
C2603 C2604 1.349 . S
C2603 C2605 1.327 . S
C2603 H2626 0.950 1_545 S
C2604 C2603 1.349 . S
C2604 C2616 1.349 . S
C2605 C2603 1.327 . S
C2605 C2621 1.429 . S
C2605 H2627 0.950 1_545 S
C2606 H2602 0.949 . S
C2606 C2614 1.574 . S
C2606 C2622 1.368 . S
H2607 C2615 0.950 . S
H2608 C2613 0.950 . S
H2609 C2614 0.949 . S
H2610 C2616 0.950 . S
H2611 C2617 0.950 . S
H2612 C2618 0.949 . S
C2613 H2608 0.950 . S
C2613 C2615 1.327 . S
C2613 C2619 1.429 1_565 S
C2614 C2606 1.574 . S
C2614 H2609 0.949 . S
C2614 C2620 1.368 . S
C2615 C2599 1.349 1_565 S
C2615 H2607 0.950 . S
C2615 C2613 1.327 . S
C2616 C2604 1.349 . S
C2616 H2610 0.950 . S
C2616 C2617 1.327 . S
C2617 H2611 0.950 . S
C2617 C2616 1.327 . S
C2617 C2621 1.429 . S
C2618 C2601 1.574 . S
C2618 H2612 0.949 . S
C2618 C2622 1.368 1_565 S
C2619 C2600 1.429 . S
C2619 C2613 1.429 1_545 S
C2619 C2620 1.523 . S
C2620 C2601 1.368 1_545 S
C2620 C2614 1.368 . S
C2620 C2619 1.523 . S
C2621 C2605 1.429 . S
C2621 C2617 1.429 . S
C2621 C2622 1.523 . S
C2622 C2606 1.368 . S
C2622 C2618 1.368 1_545 S
C2622 C2621 1.523 . S
H2623 C2598 0.950 . S
H2624 C2600 0.950 . S
H2625 C2601 0.949 . S
H2626 C2603 0.950 1_565 S
H2627 C2605 0.950 1_565 S
C2628 C2629 1.349 1_565 S
C2628 C2630 1.327 . S
C2628 H2653 0.950 . S
C2629 C2628 1.349 1_545 S
C2629 C2645 1.349 . S
C2630 C2628 1.327 . S
C2630 C2649 1.433 1_565 S
C2630 H2654 0.950 . S
C2631 C2648 1.574 . S
C2631 C2650 1.312 1_545 S
C2631 H2655 0.949 . S
H2632 C2636 0.949 . S
C2633 C2634 1.349 1_545 S
C2633 C2635 1.327 . S
C2633 H2656 0.950 . S
C2634 C2633 1.349 1_565 S
C2634 C2646 1.349 . S
C2635 C2633 1.327 . S
C2635 C2651 1.429 1_545 S
C2635 H2657 0.950 . S
C2636 H2632 0.949 . S
C2636 C2644 1.574 . S
C2636 C2652 1.368 . S
H2637 C2645 0.950 . S
H2638 C2643 0.950 . S
H2639 C2644 0.949 . S
H2640 C2646 0.950 . S
H2641 C2647 0.950 . S
H2642 C2648 0.949 . S
C2643 H2638 0.950 . S
C2643 C2645 1.327 . S
C2643 C2649 1.426 . S
C2644 C2636 1.574 . S
C2644 H2639 0.949 . S
C2644 C2650 1.415 . S
C2645 C2629 1.349 . S
C2645 H2637 0.950 . S
C2645 C2643 1.327 . S
C2646 C2634 1.349 . S
C2646 H2640 0.950 . S
C2646 C2647 1.327 . S
C2647 H2641 0.950 . S
C2647 C2646 1.327 . S
C2647 C2651 1.429 . S
C2648 C2631 1.574 . S
C2648 H2642 0.949 . S
C2648 C2652 1.368 1_545 S
C2649 C2630 1.433 1_545 S
C2649 C2643 1.426 . S
C2649 C2650 1.537 1_545 S
C2650 C2631 1.312 1_565 S
C2650 C2644 1.415 . S
C2650 C2649 1.537 1_565 S
C2651 C2635 1.429 1_565 S
C2651 C2647 1.429 . S
C2651 C2652 1.523 . S
C2652 C2636 1.368 . S
C2652 C2648 1.368 1_565 S
C2652 C2651 1.523 . S
H2653 C2628 0.950 . S
H2654 C2630 0.950 . S
H2655 C2631 0.949 . S
H2656 C2633 0.950 . S
H2657 C2635 0.950 . S
C2658 C2659 1.349 1_565 S
C2658 C2660 1.327 . S
C2658 H2683 0.950 . S
C2659 C2658 1.349 1_545 S
C2659 C2675 1.349 . S
C2660 C2658 1.327 . S
C2660 C2679 1.429 1_565 S
C2660 H2684 0.950 . S
C2661 C2678 1.574 . S
C2661 C2680 1.368 . S
C2661 H2685 0.949 . S
H2662 C2666 0.949 . S
C2663 C2664 1.349 1_545 S
C2663 C2665 1.327 . S
C2663 H2686 0.950 . S
C2664 C2663 1.349 1_565 S
C2664 C2676 1.349 . S
C2665 C2663 1.327 . S
C2665 C2681 1.427 . S
C2665 H2687 0.950 . S
C2666 H2662 0.949 . S
C2666 C2674 1.574 . S
C2666 C2682 1.368 1_565 S
H2667 C2675 0.950 . S
H2668 C2673 0.950 . S
H2669 C2674 0.949 . S
H2670 C2676 0.950 . S
H2671 C2677 0.950 . S
H2672 C2678 0.949 . S
C2673 H2668 0.950 . S
C2673 C2675 1.327 . S
C2673 C2679 1.429 . S
C2674 C2666 1.574 . S
C2674 H2669 0.949 . S
C2674 C2680 1.368 1_565 S
C2675 C2659 1.349 . S
C2675 H2667 0.950 . S
C2675 C2673 1.327 . S
C2676 C2664 1.349 . S
C2676 H2670 0.950 . S
C2676 C2677 1.327 . S
C2677 H2671 0.950 . S
C2677 C2676 1.327 . S
C2677 C2681 1.430 1_565 S
C2678 C2661 1.574 . S
C2678 H2672 0.949 . S
C2678 C2682 1.368 . S
C2679 C2660 1.429 1_545 S
C2679 C2673 1.429 . S
C2679 C2680 1.523 . S
C2680 C2661 1.368 . S
C2680 C2674 1.368 1_545 S
C2680 C2679 1.523 . S
C2681 C2665 1.427 . S
C2681 C2677 1.430 1_545 S
C2681 C2682 1.523 . S
C2682 C2666 1.368 1_545 S
C2682 C2678 1.368 . S
C2682 C2681 1.523 . S
H2683 C2658 0.950 . S
H2684 C2660 0.950 . S
H2685 C2661 0.949 . S
H2686 C2663 0.950 . S
H2687 C2665 0.950 . S
C529 C316 1.883 . S
C534 C5 1.847 . S
C559 C327 1.942 . S
C564 C19 1.937 . S
C589 C335 1.757 . S
C594 C30 1.789 . S
C619 C41 1.744 . S
C624 C349 1.738 . S
C649 C272 1.883 . S
C654 C49 1.847 . S
C679 C283 1.738 . S
C684 C63 1.744 . S
C709 C291 1.757 . S
C714 C74 1.789 . S
C739 C85 1.937 . S
C744 C305 1.942 . S
C769 C426 1.817 . S
C774 C93 1.774 . S
C799 C434 1.371 . S
C804 C107 1.813 . S
C829 C401 1.800 . S
C834 C118 1.852 . S
C859 C415 1.688 . S
C864 C126 1.290 . S
C889 C137 1.769 . S
C894 C382 1.824 . S
C919 C148 1.290 . S
C924 C393 1.688 . S
C949 C357 1.801 . S
C954 C162 1.853 . S
C979 C173 1.813 . S
C984 C368 1.371 . S
C1009 C184 1.806 . S
C1014 C503 1.823 . S
C1039 C195 1.806 . S
C1044 C481 1.823 . S
C1069 C206 1.591 . S
C1074 C489 1.213 . S
C1099 C459 1.857 . S
C1104 C217 1.861 . S
C1129 C225 1.502 . S
C1134 C470 1.904 . S
C1159 C239 1.854 . S
C1164 C448 1.864 . S
C1189 C522 1.213 . S
C1194 C250 1.591 . S
C1219 C258 1.502 . S
C1224 C514 1.903 . S
C1249 C170 1.775 . S
C1254 C8 1.890 . S
C1279 C16 1.997 . S
C1284 C140 2.085 . S
C1309 C27 1.415 . S
C1314 C151 1.751 . S
C1339 C38 1.769 . S
C1344 C159 1.445 . S
C1369 C104 1.775 . S
C1374 C52 1.890 . S
C1399 C60 1.769 . S
C1404 C115 1.445 . S
C1429 C71 1.415 . S
C1434 C129 1.751 . S
C1459 C82 1.997 . S
C1464 C96 2.085 . S
C1489 C228 1.842 . S
C1494 C181 1.506 . S
C1519 C192 1.506 . S
C1524 C261 1.842 . S
C1549 C203 1.594 . S
C1554 C236 1.323 . S
C1579 C247 1.594 . S
C1584 C214 1.323 . S
C1609 C269 1.431 . S
C1614 C437 1.735 . S
C1639 C404 1.790 . S
C1644 C280 1.632 . S
C1669 C294 1.714 . S
C1674 C412 1.565 1_545 S
C1699 C302 1.477 . S
C1704 C423 1.210 . S
C1729 C313 1.431 . S
C1734 C371 1.735 . S
C1759 C379 1.215 . S
C1764 C324 1.471 . S
C1789 C390 1.571 1_565 S
C1794 C338 1.707 . S
C1819 C346 1.639 . S
C1824 C360 1.783 . S
C1849 C492 1.680 . S
C1854 C445 1.372 . S
C1879 C525 1.680 . S
C1884 C456 1.372 . S
C1909 C500 1.504 . S
C1914 C467 1.803 1_455 S
C1939 C511 1.807 1_455 S
C1944 C478 1.500 . S
C1969 C227 1.492 . S
C1974 C7 1.580 . S
C1999 C194 1.571 . S
C2004 C18 1.677 . S
C2029 C29 1.285 . S
C2034 C205 1.372 . S
C2059 C216 1.569 . S
C2064 C40 1.656 . S
C2089 C51 1.580 . S
C2094 C260 1.491 . S
C2119 C62 1.656 . S
C2124 C238 1.569 . S
C2149 C73 1.285 . S
C2154 C249 1.372 . S
C2179 C84 1.677 . S
C2184 C183 1.571 . S
C2209 C95 1.706 . S
C2214 C172 1.698 . S
C2239 C106 1.698 . S
C2244 C139 1.706 . S
C2269 C150 1.467 . S
C2274 C117 1.445 . S
C2299 C128 1.467 . S
C2304 C161 1.445 . S
C2329 C491 1.521 . S
C2334 C271 1.537 . S
C2359 C282 1.630 . S
C2364 C458 1.531 . S
C2389 C293 1.702 . S
C2394 C469 1.695 . S
C2419 C480 1.671 . S
C2424 C304 1.785 . S
C2449 C524 1.521 . S
C2454 C315 1.537 . S
C2479 C502 1.671 . S
C2484 C326 1.785 . S
C2509 C337 1.702 . S
C2514 C513 1.695 . S
C2539 C348 1.630 . S
C2544 C447 1.531 . S
C2569 C436 1.439 . S
C2574 C359 1.564 . S
C2599 C403 1.562 . S
C2604 C370 1.437 . S
C2629 C381 1.371 1_545 S
C2634 C414 1.479 . S
C2659 C392 1.481 . S
C2664 C425 1.369 1_565 S
