# Generated by pormake.
# Topology uke, (4)-cn, num edge types: 1
# Building blocks:
#     Node 0, Type 0, BuildingBlock: NAHDIM_clean_sbu_0, # of connection points: 4
#     Node 1, Type 0, BuildingBlock: NAHDIM_clean_sbu_0, # of connection points: 4
#     Node 2, Type 0, BuildingBlock: NAHDIM_clean_sbu_0, # of connection points: 4
#     Node 3, Type 0, BuildingBlock: NAHDIM_clean_sbu_0, # of connection points: 4
#     Node 4, Type 0, BuildingBlock: NAHDIM_clean_sbu_0, # of connection points: 4
#     Node 5, Type 0, BuildingBlock: NAHDIM_clean_sbu_0, # of connection points: 4
#     Node 6, Type 0, BuildingBlock: NAHDIM_clean_sbu_0, # of connection points: 4
#     Node 7, Type 0, BuildingBlock: NAHDIM_clean_sbu_0, # of connection points: 4
#     Node 8, Type 0, BuildingBlock: NAHDIM_clean_sbu_0, # of connection points: 4
#     Node 9, Type 0, BuildingBlock: NAHDIM_clean_sbu_0, # of connection points: 4
#     Node 10, Type 0, BuildingBlock: NAHDIM_clean_sbu_0, # of connection points: 4
#     Node 11, Type 0, BuildingBlock: NAHDIM_clean_sbu_0, # of connection points: 4
#     Node 12, Type 0, BuildingBlock: NAHDIM_clean_sbu_0, # of connection points: 4
#     Node 13, Type 0, BuildingBlock: NAHDIM_clean_sbu_0, # of connection points: 4
#     Node 14, Type 0, BuildingBlock: NAHDIM_clean_sbu_0, # of connection points: 4
#     Node 15, Type 0, BuildingBlock: NAHDIM_clean_sbu_0, # of connection points: 4
#     Node 16, Type 0, BuildingBlock: NAHDIM_clean_sbu_0, # of connection points: 4
#     Node 17, Type 0, BuildingBlock: NAHDIM_clean_sbu_0, # of connection points: 4
#     Node 18, Type 0, BuildingBlock: NAHDIM_clean_sbu_0, # of connection points: 4
#     Node 19, Type 0, BuildingBlock: NAHDIM_clean_sbu_0, # of connection points: 4
#     Node 20, Type 0, BuildingBlock: NAHDIM_clean_sbu_0, # of connection points: 4
#     Node 21, Type 0, BuildingBlock: NAHDIM_clean_sbu_0, # of connection points: 4
#     Node 22, Type 0, BuildingBlock: NAHDIM_clean_sbu_0, # of connection points: 4
#     Node 23, Type 0, BuildingBlock: NAHDIM_clean_sbu_0, # of connection points: 4
#     Node 24, Type 0, BuildingBlock: NAHDIM_clean_sbu_0, # of connection points: 4
#     Node 25, Type 0, BuildingBlock: NAHDIM_clean_sbu_0, # of connection points: 4
#     Node 26, Type 0, BuildingBlock: NAHDIM_clean_sbu_0, # of connection points: 4
#     Node 27, Type 0, BuildingBlock: NAHDIM_clean_sbu_0, # of connection points: 4
#     Node 28, Type 0, BuildingBlock: NAHDIM_clean_sbu_0, # of connection points: 4
#     Node 29, Type 0, BuildingBlock: NAHDIM_clean_sbu_0, # of connection points: 4
#     Node 30, Type 0, BuildingBlock: NAHDIM_clean_sbu_0, # of connection points: 4
#     Node 31, Type 0, BuildingBlock: NAHDIM_clean_sbu_0, # of connection points: 4
#     Edge 32, Type (0, 0), BuildingBlock: KIFKEQ_clean_linker_1, # of connection points: 2
#     Edge 33, Type (0, 0), BuildingBlock: KIFKEQ_clean_linker_1, # of connection points: 2
#     Edge 34, Type (0, 0), BuildingBlock: KIFKEQ_clean_linker_1, # of connection points: 2
#     Edge 35, Type (0, 0), BuildingBlock: KIFKEQ_clean_linker_1, # of connection points: 2
#     Edge 36, Type (0, 0), BuildingBlock: KIFKEQ_clean_linker_1, # of connection points: 2
#     Edge 37, Type (0, 0), BuildingBlock: KIFKEQ_clean_linker_1, # of connection points: 2
#     Edge 38, Type (0, 0), BuildingBlock: KIFKEQ_clean_linker_1, # of connection points: 2
#     Edge 39, Type (0, 0), BuildingBlock: KIFKEQ_clean_linker_1, # of connection points: 2
#     Edge 40, Type (0, 0), BuildingBlock: KIFKEQ_clean_linker_1, # of connection points: 2
#     Edge 41, Type (0, 0), BuildingBlock: KIFKEQ_clean_linker_1, # of connection points: 2
#     Edge 42, Type (0, 0), BuildingBlock: KIFKEQ_clean_linker_1, # of connection points: 2
#     Edge 43, Type (0, 0), BuildingBlock: KIFKEQ_clean_linker_1, # of connection points: 2
#     Edge 44, Type (0, 0), BuildingBlock: KIFKEQ_clean_linker_1, # of connection points: 2
#     Edge 45, Type (0, 0), BuildingBlock: KIFKEQ_clean_linker_1, # of connection points: 2
#     Edge 46, Type (0, 0), BuildingBlock: KIFKEQ_clean_linker_1, # of connection points: 2
#     Edge 47, Type (0, 0), BuildingBlock: KIFKEQ_clean_linker_1, # of connection points: 2
#     Edge 48, Type (0, 0), BuildingBlock: KIFKEQ_clean_linker_1, # of connection points: 2
#     Edge 49, Type (0, 0), BuildingBlock: KIFKEQ_clean_linker_1, # of connection points: 2
#     Edge 50, Type (0, 0), BuildingBlock: KIFKEQ_clean_linker_1, # of connection points: 2
#     Edge 51, Type (0, 0), BuildingBlock: KIFKEQ_clean_linker_1, # of connection points: 2
#     Edge 52, Type (0, 0), BuildingBlock: KIFKEQ_clean_linker_1, # of connection points: 2
#     Edge 53, Type (0, 0), BuildingBlock: KIFKEQ_clean_linker_1, # of connection points: 2
#     Edge 54, Type (0, 0), BuildingBlock: KIFKEQ_clean_linker_1, # of connection points: 2
#     Edge 55, Type (0, 0), BuildingBlock: KIFKEQ_clean_linker_1, # of connection points: 2
#     Edge 56, Type (0, 0), BuildingBlock: KIFKEQ_clean_linker_1, # of connection points: 2
#     Edge 57, Type (0, 0), BuildingBlock: KIFKEQ_clean_linker_1, # of connection points: 2
#     Edge 58, Type (0, 0), BuildingBlock: KIFKEQ_clean_linker_1, # of connection points: 2
#     Edge 59, Type (0, 0), BuildingBlock: KIFKEQ_clean_linker_1, # of connection points: 2
#     Edge 60, Type (0, 0), BuildingBlock: KIFKEQ_clean_linker_1, # of connection points: 2
#     Edge 61, Type (0, 0), BuildingBlock: KIFKEQ_clean_linker_1, # of connection points: 2
#     Edge 62, Type (0, 0), BuildingBlock: KIFKEQ_clean_linker_1, # of connection points: 2
#     Edge 63, Type (0, 0), BuildingBlock: KIFKEQ_clean_linker_1, # of connection points: 2
#     Edge 64, Type (0, 0), BuildingBlock: KIFKEQ_clean_linker_1, # of connection points: 2
#     Edge 65, Type (0, 0), BuildingBlock: KIFKEQ_clean_linker_1, # of connection points: 2
#     Edge 66, Type (0, 0), BuildingBlock: KIFKEQ_clean_linker_1, # of connection points: 2
#     Edge 67, Type (0, 0), BuildingBlock: KIFKEQ_clean_linker_1, # of connection points: 2
#     Edge 68, Type (0, 0), BuildingBlock: KIFKEQ_clean_linker_1, # of connection points: 2
#     Edge 69, Type (0, 0), BuildingBlock: KIFKEQ_clean_linker_1, # of connection points: 2
#     Edge 70, Type (0, 0), BuildingBlock: KIFKEQ_clean_linker_1, # of connection points: 2
#     Edge 71, Type (0, 0), BuildingBlock: KIFKEQ_clean_linker_1, # of connection points: 2
#     Edge 72, Type (0, 0), BuildingBlock: KIFKEQ_clean_linker_1, # of connection points: 2
#     Edge 73, Type (0, 0), BuildingBlock: KIFKEQ_clean_linker_1, # of connection points: 2
#     Edge 74, Type (0, 0), BuildingBlock: KIFKEQ_clean_linker_1, # of connection points: 2
#     Edge 75, Type (0, 0), BuildingBlock: KIFKEQ_clean_linker_1, # of connection points: 2
#     Edge 76, Type (0, 0), BuildingBlock: KIFKEQ_clean_linker_1, # of connection points: 2
#     Edge 77, Type (0, 0), BuildingBlock: KIFKEQ_clean_linker_1, # of connection points: 2
#     Edge 78, Type (0, 0), BuildingBlock: KIFKEQ_clean_linker_1, # of connection points: 2
#     Edge 79, Type (0, 0), BuildingBlock: KIFKEQ_clean_linker_1, # of connection points: 2
#     Edge 80, Type (0, 0), BuildingBlock: KIFKEQ_clean_linker_1, # of connection points: 2
#     Edge 81, Type (0, 0), BuildingBlock: KIFKEQ_clean_linker_1, # of connection points: 2
#     Edge 82, Type (0, 0), BuildingBlock: KIFKEQ_clean_linker_1, # of connection points: 2
#     Edge 83, Type (0, 0), BuildingBlock: KIFKEQ_clean_linker_1, # of connection points: 2
#     Edge 84, Type (0, 0), BuildingBlock: KIFKEQ_clean_linker_1, # of connection points: 2
#     Edge 85, Type (0, 0), BuildingBlock: KIFKEQ_clean_linker_1, # of connection points: 2
#     Edge 86, Type (0, 0), BuildingBlock: KIFKEQ_clean_linker_1, # of connection points: 2
#     Edge 87, Type (0, 0), BuildingBlock: KIFKEQ_clean_linker_1, # of connection points: 2
#     Edge 88, Type (0, 0), BuildingBlock: KIFKEQ_clean_linker_1, # of connection points: 2
#     Edge 89, Type (0, 0), BuildingBlock: KIFKEQ_clean_linker_1, # of connection points: 2
#     Edge 90, Type (0, 0), BuildingBlock: KIFKEQ_clean_linker_1, # of connection points: 2
#     Edge 91, Type (0, 0), BuildingBlock: KIFKEQ_clean_linker_1, # of connection points: 2
#     Edge 92, Type (0, 0), BuildingBlock: KIFKEQ_clean_linker_1, # of connection points: 2
#     Edge 93, Type (0, 0), BuildingBlock: KIFKEQ_clean_linker_1, # of connection points: 2
#     Edge 94, Type (0, 0), BuildingBlock: KIFKEQ_clean_linker_1, # of connection points: 2
#     Edge 95, Type (0, 0), BuildingBlock: KIFKEQ_clean_linker_1, # of connection points: 2
# Relax obj value: 0.229
# Max RMSD: 0.244
# Mean RMSD: 0.244
data_MOF--net-uke--node1-NAHDIM_clean_sbu_0--edge1-KIFKEQ_clean_linker_1
_symmetry_space_group_name_H-M    P1
_symmetry_Int_Tables_number       1
_symmetry_cell_setting            triclinic
loop_
_symmetry_equiv_pos_as_xyz
'x, y, z'
_cell_length_a     27.062331
_cell_length_b     101.4632
_cell_length_c     50.32497
_cell_angle_alpha  89.906356
_cell_angle_beta   90.041027
_cell_angle_gamma 89.996271
loop_
_atom_site_label
_atom_site_type_symbol
_atom_site_fract_x
_atom_site_fract_y
_atom_site_fract_z
_atom_type_partial_charge
C0 C -0.00027 0.02062 0.37013 0.0
O1 O 0.04608 0.02255 0.37687 0.0
O2 O 0.09179 0.01021 0.31722 0.0
Zn3 Zn 0.04105 0.02474 0.3189 0.0
O4 O 0.07132 0.04256 0.32605 0.0
C5 C 0.02421 0.01855 0.26354 0.0
O6 O 0.04345 0.00712 0.27015 0.0
O7 O 0.98803 0.02088 0.34568 0.0
C8 C 0.09621 0.04742 0.30697 0.0
O9 O 0.10484 0.04008 0.28599 0.0
C10 C 0.13826 0.01192 0.31798 0.0
O11 O 0.15589 0.0235 0.32473 0.0
O12 O 0.01375 0.02676 0.28175 0.0
C13 C 0.24016 0.18615 0.32061 0.0
O14 O 0.20259 0.19434 0.32062 0.0
O15 O 0.1227 0.18409 0.29297 0.0
Zn16 Zn 0.17683 0.17106 0.2857 0.0
O17 O 0.15722 0.1526 0.29626 0.0
C18 C 0.18616 0.18273 0.23397 0.0
O19 O 0.18947 0.19366 0.24785 0.0
O20 O 0.23831 0.1759 0.30612 0.0
C21 C 0.13939 0.14477 0.27905 0.0
O22 O 0.13144 0.14909 0.25481 0.0
C23 C 0.08416 0.18391 0.27854 0.0
O24 O 0.07789 0.17416 0.26172 0.0
O25 O 0.18595 0.17174 0.24609 0.0
C26 C 0.00016 0.20215 0.9531 0.0
O27 O 0.04288 0.19986 0.9416 0.0
O28 O 0.1066 0.21818 0.98876 0.0
Zn29 Zn 0.06406 0.20251 0.99701 0.0
O30 O 0.09571 0.18528 0.98651 0.0
C31 C 0.04866 0.19099 0.04844 0.0
O32 O 0.03727 0.18061 0.03411 0.0
O33 O -0.00094 0.20398 0.97808 0.0
C34 C 0.13082 0.18052 0.00031 0.0
O35 O 0.1503 0.18773 0.01929 0.0
C36 C 0.1494 0.21751 0.97855 0.0
O37 O 0.16684 0.20601 0.97112 0.0
O38 O 0.05674 0.20191 0.03684 0.0
C39 C 0.23311 0.05014 0.99555 0.0
O40 O 0.19619 0.05576 0.98289 0.0
O41 O 0.11082 0.04762 0.01955 0.0
Zn42 Zn 0.16874 0.05653 0.03672 0.0
O43 O 0.16846 0.07614 0.03059 0.0
C44 C 0.11918 0.0552 0.08507 0.0
O45 O 0.08754 0.06159 0.06999 0.0
O46 O 0.23089 0.04912 0.0207 0.0
C47 C 0.13541 0.08201 0.0171 0.0
O48 O 0.09847 0.07518 0.00723 0.0
C49 C 0.11287 0.03512 0.01964 0.0
O50 O 0.15275 0.02932 0.0289 0.0
O51 O 0.16132 0.05229 0.07554 0.0
C52 C 0.90143 0.9612 0.60846 0.0
O53 O 0.85965 0.95479 0.60526 0.0
O54 O 0.81784 0.96311 0.67207 0.0
Zn55 Zn 0.8818 0.95426 0.6623 0.0
O56 O 0.87074 0.93507 0.65486 0.0
C57 C 0.9122 0.96589 0.71036 0.0
O58 O 0.8963 0.97646 0.69786 0.0
O59 O 0.91816 0.96277 0.63186 0.0
C60 C 0.90786 0.92742 0.65389 0.0
O61 O 0.95242 0.93247 0.65594 0.0
C62 C 0.79765 0.95741 0.69184 0.0
O63 O 0.81163 0.94535 0.69768 0.0
O64 O 0.91835 0.95535 0.6971 0.0
C65 C 0.74296 0.80393 0.69561 0.0
O66 O 0.78612 0.80236 0.6841 0.0
O67 O 0.85789 0.7991 0.72775 0.0
Zn68 Zn 0.80718 0.81306 0.73526 0.0
O69 O 0.82629 0.83049 0.71965 0.0
C70 C 0.80442 0.8051 0.79001 0.0
O71 O 0.79744 0.79339 0.77952 0.0
O72 O 0.74164 0.8081 0.71941 0.0
C73 C 0.85612 0.83241 0.70055 0.0
O74 O 0.87878 0.82233 0.68965 0.0
C75 C 0.89735 0.79918 0.74146 0.0
O76 O 0.90512 0.80891 0.75816 0.0
O77 O 0.8053 0.81514 0.77489 0.0
C78 C 0.98324 0.81817 0.07517 0.0
O79 O 0.94134 0.82172 0.08624 0.0
O80 O 0.87728 0.80431 0.03402 0.0
Zn81 Zn 0.92303 0.81961 0.02902 0.0
O82 O 0.89058 0.83692 0.03742 0.0
C83 C 0.93917 0.80951 0.97653 0.0
O84 O 0.94449 0.7983 0.98932 0.0
O85 O 0.98503 0.81674 0.05011 0.0
C86 C 0.91788 0.84707 0.03924 0.0
O87 O 0.96611 0.8456 0.03858 0.0
C88 C 0.83917 0.80421 0.01928 0.0
O89 O 0.82851 0.81483 0.00541 0.0
O90 O 0.93522 0.82011 0.98974 0.0
C91 C 0.68208 0.97205 0.9703 0.0
O92 O 0.70692 0.98273 0.96399 0.0
O93 O 0.81853 0.96998 0.96321 0.0
Zn94 Zn 0.768 0.95693 0.95046 0.0
O95 O 0.7871 0.93885 0.9637 0.0
C96 C 0.81636 0.95433 0.90242 0.0
O97 O 0.84923 0.95044 0.92 0.0
O98 O 0.70008 0.96079 0.96492 0.0
C99 C 0.79939 0.93721 0.98788 0.0
O100 O 0.79982 0.94741 0.00389 0.0
C101 C 0.81934 0.97703 0.98404 0.0
O102 O 0.78309 0.97623 0.0013 0.0
O103 O 0.77338 0.95747 0.91049 0.0
C104 C 0.01684 0.55259 0.80432 0.0
O105 O 0.0582 0.54902 0.81597 0.0
O106 O 0.13243 0.54718 0.77587 0.0
Zn107 Zn 0.08595 0.56198 0.76629 0.0
O108 O 0.10608 0.58023 0.77761 0.0
C109 C 0.07919 0.55148 0.71361 0.0
O110 O 0.06703 0.54069 0.72652 0.0
O111 O 0.01887 0.55823 0.78176 0.0
C112 C 0.14914 0.5852 0.77701 0.0
O113 O 0.18706 0.57768 0.77119 0.0
C114 C 0.16977 0.54489 0.76126 0.0
O115 O 0.18228 0.55355 0.74304 0.0
O116 O 0.0847 0.56214 0.72648 0.0
C117 C 0.28869 0.72531 0.75208 0.0
O118 O 0.25243 0.73392 0.75155 0.0
O119 O 0.16315 0.72023 0.74459 0.0
Zn120 Zn 0.21455 0.70776 0.73067 0.0
O121 O 0.20394 0.6894 0.74493 0.0
C122 C 0.19797 0.7187 0.67917 0.0
O123 O 0.19758 0.72966 0.69305 0.0
O124 O 0.28151 0.71382 0.74283 0.0
C125 C 0.17617 0.68114 0.73325 0.0
O126 O 0.15293 0.68469 0.71146 0.0
C127 C 0.11839 0.71939 0.73718 0.0
O128 O 0.10468 0.70939 0.72238 0.0
O129 O 0.20785 0.7079 0.69086 0.0
C130 C 0.0434 0.69785 0.39689 0.0
O131 O 0.08298 0.69082 0.39166 0.0
O132 O 0.1472 0.70631 0.44568 0.0
Zn133 Zn 0.08372 0.6962 0.44891 0.0
O134 O 0.09399 0.6765 0.4475 0.0
C135 C 0.06633 0.7131 0.49283 0.0
O136 O 0.07769 0.72209 0.47501 0.0
O137 O 0.03582 0.70164 0.4206 0.0
C138 C 0.09465 0.6698 0.46887 0.0
O139 O 0.09065 0.67592 0.49175 0.0
C140 C 0.17585 0.70551 0.46567 0.0
O141 O 0.16895 0.69588 0.48274 0.0
O142 O 0.05938 0.7013 0.48523 0.0
C143 C 0.23675 0.54018 0.42672 0.0
O144 O 0.19055 0.53854 0.41938 0.0
O145 O 0.1409 0.53293 0.47427 0.0
Zn146 Zn 0.18757 0.54829 0.47314 0.0
O147 O 0.15641 0.56519 0.46066 0.0
C148 C 0.20813 0.54158 0.52722 0.0
O149 O 0.2083 0.52955 0.51756 0.0
O150 O 0.24581 0.5442 0.45012 0.0
C151 C 0.1287 0.57138 0.47675 0.0
O152 O 0.11755 0.56588 0.49964 0.0
C153 C 0.09407 0.53354 0.47369 0.0
O154 O 0.0724 0.5448 0.46823 0.0
O155 O 0.20587 0.55127 0.51127 0.0
C156 C -0.00432 0.43694 0.20131 0.0
O157 O 0.94991 0.43758 0.19268 0.0
O158 O 0.89126 0.44328 0.2398 0.0
Zn159 Zn 0.94283 0.42939 0.24675 0.0
O160 O 0.91924 0.41118 0.23689 0.0
C161 C 0.95739 0.44047 0.29885 0.0
O162 O 0.95983 0.4516 0.28554 0.0
O163 O 0.00345 0.43361 0.22532 0.0
C164 C 0.89545 0.40447 0.25396 0.0
O165 O 0.88463 0.40986 0.27694 0.0
C166 C 0.85438 0.44441 0.25525 0.0
O167 O 0.84804 0.4357 0.27426 0.0
O168 O 0.95506 0.42967 0.28614 0.0
C169 C 0.77885 0.27831 0.1741 0.0
O170 O 0.82643 0.2806 0.17166 0.0
O171 O 0.86109 0.26795 0.22801 0.0
Zn172 Zn 0.8068 0.28163 0.22741 0.0
O173 O 0.83366 0.30015 0.22307 0.0
C174 C 0.77181 0.27033 0.27685 0.0
O175 O 0.77904 0.25904 0.26472 0.0
O176 O 0.76011 0.27797 0.19725 0.0
C177 C 0.84625 0.30645 0.24382 0.0
O178 O 0.84418 0.3005 0.26696 0.0
C179 C 0.88805 0.26697 0.24864 0.0
O180 O 0.88314 0.27569 0.2677 0.0
O181 O 0.77416 0.28092 0.26337 0.0
C182 C -0.00013 0.27184 0.53752 0.0
O183 O 0.96175 0.26446 0.54384 0.0
O184 O 0.87391 0.27623 0.52906 0.0
Zn185 Zn 0.92501 0.28812 0.5128 0.0
O186 O 0.91932 0.30665 0.52654 0.0
C187 C 0.91072 0.27692 0.46118 0.0
O188 O 0.92479 0.26614 0.47355 0.0
O189 O -0.00672 0.28186 0.52272 0.0
C190 C 0.88782 0.31491 0.51798 0.0
O191 O 0.85594 0.31126 0.49974 0.0
C192 C 0.83006 0.27647 0.52006 0.0
O193 O 0.81811 0.28535 0.50217 0.0
O194 O 0.91165 0.28783 0.47351 0.0
C195 C 0.77834 0.44101 0.58511 0.0
O196 O 0.81734 0.43671 0.59806 0.0
O197 O 0.89848 0.44939 0.54973 0.0
Zn198 Zn 0.8444 0.43625 0.54334 0.0
O199 O 0.8606 0.41811 0.55642 0.0
C200 C 0.83949 0.44489 0.48868 0.0
O201 O 0.83294 0.45657 0.49933 0.0
O202 O 0.78039 0.44194 0.55994 0.0
C203 C 0.89836 0.41205 0.54782 0.0
O204 O 0.9299 0.41838 0.53261 0.0
C205 C 0.88761 0.4614 0.55387 0.0
O206 O 0.84141 0.46456 0.55868 0.0
O207 O 0.84086 0.4348 0.50363 0.0
C208 C 0.53693 0.02964 0.88898 0.0
O209 O 0.58034 0.03264 0.899 0.0
O210 O 0.64317 0.01603 0.84596 0.0
Zn211 Zn 0.59439 0.03101 0.84245 0.0
O212 O 0.62005 0.04913 0.85178 0.0
C213 C 0.58486 0.02169 0.78868 0.0
O214 O 0.59045 0.01011 0.79996 0.0
O215 O 0.53325 0.02781 0.86407 0.0
C216 C 0.6441 0.05566 0.83451 0.0
O217 O 0.6567 0.04995 0.81212 0.0
C218 C 0.68743 0.01744 0.83804 0.0
O219 O 0.70592 0.02938 0.83673 0.0
O220 O 0.57963 0.03182 0.80324 0.0
C221 C 0.68478 0.18616 0.85215 0.0
O222 O 0.64665 0.18156 0.8654 0.0
O223 O 0.56423 0.19296 0.82442 0.0
Zn224 Zn 0.61713 0.1805 0.81265 0.0
O225 O 0.60864 0.16161 0.82426 0.0
C226 C 0.61239 0.19232 0.76059 0.0
O227 O 0.62318 0.20315 0.77362 0.0
O228 O 0.68191 0.18696 0.82699 0.0
C229 C 0.63489 0.15371 0.81068 0.0
O230 O 0.662 0.15846 0.79124 0.0
C231 C 0.52466 0.19288 0.81082 0.0
O232 O 0.51461 0.18243 0.7964 0.0
O233 O 0.61247 0.18135 0.77281 0.0
C234 C 0.48539 0.18558 0.47051 0.0
O235 O 0.53265 0.18333 0.46661 0.0
O236 O 0.57507 0.19585 0.51828 0.0
Zn237 Zn 0.51962 0.18286 0.52284 0.0
O238 O 0.54478 0.16414 0.52033 0.0
C239 C 0.49235 0.19613 0.57201 0.0
O240 O 0.50089 0.20703 0.55866 0.0
O241 O 0.46918 0.18596 0.4942 0.0
C242 C 0.56029 0.15855 0.54138 0.0
O243 O 0.56169 0.1653 0.56359 0.0
C244 C 0.60614 0.19785 0.5368 0.0
O245 O 0.60375 0.19072 0.55855 0.0
O246 O 0.49252 0.18519 0.55975 0.0
C247 C 0.7259 0.02122 0.50507 0.0
O248 O 0.68707 0.01354 0.50274 0.0
O249 O 0.60468 0.02515 0.52906 0.0
Zn250 Zn 0.66362 0.03536 0.54235 0.0
O251 O 0.65023 0.0548 0.53801 0.0
C252 C 0.68496 0.03873 0.59903 0.0
O253 O 0.69993 0.0506 0.59231 0.0
O254 O 0.72453 0.03082 0.52126 0.0
C255 C 0.6174 0.06058 0.55176 0.0
O256 O 0.59185 0.05374 0.56915 0.0
C257 C 0.56999 0.02226 0.5451 0.0
O258 O 0.5729 0.0262 0.5699 0.0
O259 O 0.67158 0.03074 0.58101 0.0
C260 C 0.44718 0.96124 0.12081 0.0
O261 O 0.405 0.95497 0.11804 0.0
O262 O 0.3595 0.96009 0.17767 0.0
Zn263 Zn 0.42833 0.95311 0.17321 0.0
O264 O 0.42663 0.93363 0.16641 0.0
C265 C 0.44156 0.96635 0.22167 0.0
O266 O 0.42888 0.9765 0.20692 0.0
O267 O 0.46566 0.9623 0.14395 0.0
C268 C 0.46503 0.92678 0.17099 0.0
O269 O 0.50562 0.93275 0.17878 0.0
C270 C 0.33614 0.95428 0.19624 0.0
O271 O 0.35304 0.94292 0.20492 0.0
O272 O 0.45511 0.95581 0.21011 0.0
C273 C 0.29088 0.80851 0.18654 0.0
O274 O 0.33406 0.81069 0.17543 0.0
O275 O 0.39881 0.79474 0.22266 0.0
Zn276 Zn 0.35339 0.80994 0.23037 0.0
O277 O 0.37951 0.82742 0.21817 0.0
C278 C 0.33478 0.80084 0.2838 0.0
O279 O 0.32284 0.7898 0.27178 0.0
O280 O 0.28869 0.80726 0.21164 0.0
C281 C 0.41897 0.8302 0.20572 0.0
O282 O 0.45022 0.82078 0.19958 0.0
C283 C 0.43305 0.79226 0.23923 0.0
O284 O 0.44101 0.8005 0.25887 0.0
O285 O 0.34559 0.8109 0.26993 0.0
C286 C 0.44023 0.8057 0.57924 0.0
O287 O 0.39618 0.8024 0.58797 0.0
O288 O 0.34308 0.79448 0.53783 0.0
Zn289 Zn 0.38511 0.81064 0.53185 0.0
O290 O 0.35018 0.82817 0.53636 0.0
C291 C 0.40679 0.79927 0.48033 0.0
O292 O 0.40336 0.78798 0.49302 0.0
O293 O 0.44489 0.80971 0.55543 0.0
C294 C 0.32609 0.8326 0.51651 0.0
O295 O 0.32096 0.82512 0.49541 0.0
C296 C 0.29962 0.79322 0.52864 0.0
O297 O 0.27719 0.80356 0.51859 0.0
O298 O 0.40478 0.80996 0.4934 0.0
C299 C 0.15248 0.96723 0.46511 0.0
O300 O 0.18749 0.97618 0.46612 0.0
O301 O 0.28036 0.96278 0.4621 0.0
Zn302 Zn 0.23151 0.95037 0.44578 0.0
O303 O 0.24036 0.93216 0.46111 0.0
C304 C 0.2488 0.96052 0.39299 0.0
O305 O 0.23227 0.97153 0.40345 0.0
O306 O 0.16208 0.95603 0.455 0.0
C307 C 0.28152 0.92753 0.46894 0.0
O308 O 0.32159 0.93475 0.46664 0.0
C309 C 0.29013 0.96354 0.48672 0.0
O310 O 0.26691 0.95581 0.50356 0.0
O311 O 0.24796 0.95002 0.40678 0.0
C312 C 0.51432 0.53765 0.29409 0.0
O313 O 0.55954 0.53539 0.30246 0.0
O314 O 0.61475 0.52896 0.25545 0.0
Zn315 Zn 0.56995 0.54447 0.24933 0.0
O316 O 0.59963 0.56182 0.2606 0.0
C317 C 0.54825 0.55579 0.1976 0.0
O318 O 0.53973 0.56659 0.21123 0.0
O319 O 0.50789 0.54169 0.27041 0.0
C320 C 0.63173 0.56767 0.24643 0.0
O321 O 0.64948 0.56167 0.22538 0.0
C322 C 0.66127 0.52922 0.25866 0.0
O323 O 0.68439 0.54059 0.25935 0.0
O324 O 0.55776 0.54514 0.20991 0.0
C325 C 0.75828 0.69659 0.27041 0.0
O326 O 0.71573 0.69358 0.28143 0.0
O327 O 0.64435 0.70285 0.24322 0.0
Zn328 Zn 0.69731 0.69117 0.22824 0.0
O329 O 0.6879 0.67193 0.23624 0.0
C330 C 0.68598 0.7051 0.17911 0.0
O331 O 0.68487 0.71529 0.19518 0.0
O332 O 0.76142 0.69653 0.2452 0.0
C333 C 0.65169 0.66642 0.24782 0.0
O334 O 0.61409 0.67358 0.25579 0.0
C335 C 0.60208 0.70397 0.23246 0.0
O336 O 0.58971 0.69586 0.21324 0.0
O337 O 0.69533 0.69375 0.18863 0.0
C338 C 0.54754 0.72307 0.89093 0.0
O339 O 0.59255 0.71881 0.88623 0.0
O340 O 0.64213 0.72305 0.94004 0.0
Zn341 Zn 0.57608 0.71415 0.94121 0.0
O342 O 0.57866 0.69476 0.93367 0.0
C343 C 0.54519 0.70723 0.99439 0.0
O344 O 0.5382 0.69552 0.98395 0.0
O345 O 0.53095 0.72252 0.91453 0.0
C346 C 0.61499 0.68787 0.92587 0.0
O347 O 0.6578 0.69355 0.92138 0.0
C348 C 0.67003 0.72139 0.9601 0.0
O349 O 0.65907 0.71206 0.97725 0.0
O350 O 0.55462 0.7169 0.97913 0.0
C351 C 0.70224 0.55605 0.91003 0.0
O352 O 0.65882 0.55583 0.89833 0.0
O353 O 0.59149 0.54998 0.94884 0.0
Zn354 Zn 0.64153 0.56456 0.95223 0.0
O355 O 0.61999 0.58196 0.9367 0.0
C356 C 0.65672 0.55683 0.00624 0.0
O357 O 0.66498 0.54534 0.99509 0.0
O358 O 0.70473 0.55929 0.93437 0.0
C359 C 0.59731 0.59027 0.95109 0.0
O360 O 0.58408 0.58688 0.97525 0.0
C361 C 0.5544 0.55026 0.96433 0.0
O362 O 0.54628 0.56092 0.97843 0.0
O363 O 0.6504 0.56688 0.99154 0.0
C364 C 0.4559 0.44606 0.68217 0.0
O365 O 0.4156 0.4427 0.66926 0.0
O366 O 0.33773 0.45268 0.71568 0.0
Zn367 Zn 0.39184 0.43965 0.7235 0.0
O368 O 0.38156 0.42138 0.70939 0.0
C369 C 0.39992 0.44911 0.77676 0.0
O370 O 0.40686 0.46034 0.76429 0.0
O371 O 0.45513 0.44608 0.70742 0.0
C372 C 0.34247 0.41503 0.7039 0.0
O373 O 0.29918 0.4207 0.70686 0.0
C374 C 0.30198 0.45338 0.732 0.0
O375 O 0.29672 0.44403 0.74986 0.0
O376 O 0.39633 0.43858 0.76327 0.0
C377 C 0.28365 0.28143 0.66221 0.0
O378 O 0.32929 0.28355 0.65438 0.0
O379 O 0.3822 0.2775 0.71091 0.0
Zn380 Zn 0.32701 0.29091 0.70903 0.0
O381 O 0.34593 0.30887 0.69472 0.0
C382 C 0.30605 0.2834 0.76268 0.0
O383 O 0.30465 0.27154 0.75228 0.0
O384 O 0.27236 0.28373 0.68628 0.0
C385 C 0.36512 0.31734 0.7102 0.0
O386 O 0.37642 0.31387 0.73459 0.0
C387 C 0.41238 0.27844 0.73021 0.0
O388 O 0.41406 0.28949 0.74369 0.0
O389 O 0.30722 0.29332 0.74723 0.0
C390 C 0.54412 0.28483 0.02093 0.0
O391 O 0.50488 0.27724 0.01948 0.0
O392 O 0.42348 0.2923 0.00368 0.0
Zn393 Zn 0.48176 0.30298 0.99208 0.0
O394 O 0.47343 0.32191 0.00289 0.0
C395 C 0.47347 0.29061 0.94108 0.0
O396 O 0.47692 0.27981 0.95541 0.0
O397 O 0.54377 0.29593 0.00915 0.0
C398 C 0.4911 0.33086 0.98796 0.0
O399 O 0.51388 0.32747 0.96597 0.0
C400 C 0.38248 0.29423 0.992 0.0
O401 O 0.37821 0.30429 0.97567 0.0
O402 O 0.47989 0.30171 0.95222 0.0
C403 C 0.27606 0.44795 0.0712 0.0
O404 O 0.32018 0.4516 0.07925 0.0
O405 O 0.36451 0.46232 0.02572 0.0
Zn406 Zn 0.32986 0.4448 0.0235 0.0
O407 O 0.37265 0.42922 0.03249 0.0
C408 C 0.3045 0.45238 0.97005 0.0
O409 O 0.29949 0.46409 0.9808 0.0
O410 O 0.2701 0.44464 0.04706 0.0
C411 C 0.4052 0.42565 0.01579 0.0
O412 O 0.41345 0.43305 0.9948 0.0
C413 C 0.41085 0.46419 0.0269 0.0
O414 O 0.44052 0.45407 0.03009 0.0
O415 O 0.31269 0.44251 0.98498 0.0
H416 H 0.03231 0.06009 0.11072 0.0
H417 H 0.17018 0.03896 0.11887 0.0
H418 H 0.00351 0.05068 0.1525 0.0
H419 H 0.14154 0.0297 0.16091 0.0
H420 H 0.05837 0.00494 0.22048 0.0
H421 H 0.07909 0.01387 0.17691 0.0
H422 H 0.02111 0.05177 0.20029 0.0
H423 H -0.00026 0.04284 0.24374 0.0
C424 C 0.05667 0.05352 0.12153 0.0
C425 C 0.10358 0.05027 0.11145 0.0
C426 C 0.04014 0.04815 0.1455 0.0
C427 C 0.07004 0.03936 0.15989 0.0
C428 C 0.11726 0.03626 0.15003 0.0
C429 C 0.13389 0.04167 0.12609 0.0
C430 C 0.0491 0.01511 0.21618 0.0
C431 C 0.02764 0.02319 0.23569 0.0
C432 C 0.0615 0.02026 0.1913 0.0
C433 C 0.05252 0.03358 0.18532 0.0
C434 C 0.02842 0.04146 0.20425 0.0
C435 C 0.01612 0.03632 0.22917 0.0
H436 H 0.08177 0.16859 0.0722 0.0
H437 H 0.0527 0.20974 0.08724 0.0
H438 H 0.11874 0.16639 0.11594 0.0
H439 H 0.0871 0.20744 0.13181 0.0
H440 H 0.1954 0.20342 0.19945 0.0
H441 H 0.16167 0.20514 0.15465 0.0
H442 H 0.105 0.16539 0.16116 0.0
H443 H 0.14116 0.16348 0.20506 0.0
C444 C 0.08204 0.17709 0.0852 0.0
C445 C 0.06408 0.18933 0.07639 0.0
C446 C 0.10332 0.17585 0.11036 0.0
C447 C 0.10631 0.18675 0.12755 0.0
C448 C 0.08665 0.19889 0.11897 0.0
C449 C 0.06625 0.20019 0.09356 0.0
C450 C 0.17647 0.19499 0.19104 0.0
C451 C 0.1712 0.1833 0.20574 0.0
C452 C 0.15649 0.19602 0.16548 0.0
C453 C 0.12995 0.18546 0.15423 0.0
C454 C 0.12573 0.17368 0.16884 0.0
C455 C 0.14648 0.17258 0.19414 0.0
H456 H 0.76532 0.96652 0.86205 0.0
H457 H 0.90134 0.94585 0.8792 0.0
H458 H 0.79277 0.96992 0.8163 0.0
H459 H 0.92874 0.94934 0.83373 0.0
H460 H 0.9324 0.94483 0.74261 0.0
H461 H 0.90915 0.94211 0.78901 0.0
H462 H 0.85505 0.98215 0.79075 0.0
H463 H 0.87753 0.98484 0.74418 0.0
C464 C 0.80087 0.96263 0.85603 0.0
C465 C 0.83104 0.95587 0.87425 0.0
C466 C 0.81679 0.96468 0.82988 0.0
C467 C 0.86296 0.9599 0.82135 0.0
C468 C 0.89278 0.95303 0.83955 0.0
C469 C 0.87708 0.95107 0.86567 0.0
C470 C 0.91642 0.95315 0.75299 0.0
C471 C 0.90698 0.96506 0.73963 0.0
C472 C 0.903 0.95158 0.77962 0.0
C473 C 0.8798 0.96188 0.79351 0.0
C474 C 0.87213 0.97396 0.78047 0.0
C475 C 0.88568 0.97555 0.75386 0.0
H476 H 0.9015 0.82986 0.94737 0.0
H477 H 0.94498 0.78899 0.94147 0.0
H478 H 0.86708 0.82893 0.90291 0.0
H479 H 0.91238 0.7882 0.89632 0.0
H480 H 0.80026 0.78646 0.82927 0.0
H481 H 0.83528 0.78783 0.87384 0.0
H482 H 0.88459 0.82755 0.85741 0.0
H483 H 0.84775 0.82637 0.8135 0.0
C484 C 0.90479 0.82074 0.93633 0.0
C485 C 0.92593 0.80948 0.94801 0.0
C486 C 0.88503 0.82021 0.91074 0.0
C487 C 0.88646 0.80845 0.89601 0.0
C488 C 0.90955 0.79734 0.90729 0.0
C489 C 0.92884 0.79783 0.93306 0.0
C490 C 0.81801 0.79554 0.83536 0.0
C491 C 0.821 0.80632 0.8179 0.0
C492 C 0.83866 0.79628 0.86079 0.0
C493 C 0.86328 0.80776 0.86921 0.0
C494 C 0.86542 0.81861 0.85183 0.0
C495 C 0.84427 0.81793 0.82656 0.0
H496 H 0.13008 0.5701 0.68561 0.0
H497 H 0.06835 0.53097 0.67895 0.0
H498 H 0.167 0.56788 0.64188 0.0
H499 H 0.10362 0.52893 0.6346 0.0
H500 H 0.21081 0.5234 0.56736 0.0
H501 H 0.18079 0.52615 0.61267 0.0
H502 H 0.14876 0.5671 0.59616 0.0
H503 H 0.18058 0.56449 0.55142 0.0
C504 C 0.12356 0.56111 0.67459 0.0
C505 C 0.09618 0.55071 0.68574 0.0
C506 C 0.14478 0.55983 0.64945 0.0
C507 C 0.13867 0.54819 0.63471 0.0
C508 C 0.11007 0.53793 0.64561 0.0
C509 C 0.08929 0.53915 0.6709 0.0
C510 C 0.19826 0.53305 0.5736 0.0
C511 C 0.19796 0.5437 0.55575 0.0
C512 C 0.18044 0.53459 0.59947 0.0
C513 C 0.16152 0.54679 0.60798 0.0
C514 C 0.16334 0.55758 0.59044 0.0
C515 C 0.18162 0.55608 0.5647 0.0
H516 H 0.16292 0.73956 0.65032 0.0
H517 H 0.19224 0.69776 0.64523 0.0
H518 H 0.12615 0.73909 0.60609 0.0
H519 H 0.15655 0.69737 0.60082 0.0
H520 H 0.04453 0.69727 0.53513 0.0
H521 H 0.07581 0.69929 0.58035 0.0
H522 H 0.14642 0.73607 0.55948 0.0
H523 H 0.11403 0.73425 0.51451 0.0
C524 C 0.16211 0.73031 0.63964 0.0
C525 C 0.18037 0.71869 0.65134 0.0
C526 C 0.14105 0.73005 0.61427 0.0
C527 C 0.13784 0.71817 0.60006 0.0
C528 C 0.15741 0.70663 0.61148 0.0
C529 C 0.17835 0.70688 0.63684 0.0
C530 C 0.06582 0.70593 0.54036 0.0
C531 C 0.07678 0.71558 0.52122 0.0
C532 C 0.08425 0.70701 0.56618 0.0
C533 C 0.11431 0.71773 0.5734 0.0
C534 C 0.12314 0.72774 0.55463 0.0
C535 C 0.1044 0.7267 0.52884 0.0
H536 H 0.83147 0.46352 0.44957 0.0
H537 H 0.88163 0.42374 0.4642 0.0
H538 H 0.86223 0.46219 0.40414 0.0
H539 H 0.91438 0.42259 0.41938 0.0
H540 H 0.92329 0.42011 0.32921 0.0
H541 H 0.89303 0.42106 0.3745 0.0
H542 H 0.93638 0.46201 0.37932 0.0
H543 H 0.9646 0.46119 0.33335 0.0
C544 C 0.84895 0.45448 0.44305 0.0
C545 C 0.85387 0.44372 0.46044 0.0
C546 C 0.86716 0.45376 0.4171 0.0
C547 C 0.89129 0.44232 0.40806 0.0
C548 C 0.89547 0.4315 0.42542 0.0
C549 C 0.87669 0.43216 0.45121 0.0
C550 C 0.92699 0.42929 0.34001 0.0
C551 C 0.94628 0.4406 0.32763 0.0
C552 C 0.90965 0.42982 0.36609 0.0
C553 C 0.9118 0.44164 0.38063 0.0
C554 C 0.93302 0.45282 0.36856 0.0
C555 C 0.94979 0.45232 0.3423 0.0
H556 H 0.77948 0.29253 0.30724 0.0
H557 H 0.77974 0.25002 0.31258 0.0
H558 H 0.81059 0.29397 0.35217 0.0
H559 H 0.808 0.25145 0.35845 0.0
H560 H 0.92284 0.25777 0.42371 0.0
H561 H 0.88162 0.25601 0.38081 0.0
H562 H 0.8006 0.29183 0.39742 0.0
H563 H 0.84415 0.29393 0.43945 0.0
C564 C 0.78481 0.28346 0.31827 0.0
C565 C 0.77791 0.27114 0.30607 0.0
C566 C 0.80254 0.28429 0.34426 0.0
C567 C 0.81285 0.27282 0.35899 0.0
C568 C 0.80203 0.2605 0.34749 0.0
C569 C 0.78505 0.25967 0.32128 0.0
C570 C 0.8965 0.26531 0.41801 0.0
C571 C 0.88722 0.27607 0.43474 0.0
C572 C 0.87227 0.26422 0.39355 0.0
C573 C 0.83738 0.27374 0.3855 0.0
C574 C 0.82781 0.28443 0.40255 0.0
C575 C 0.85279 0.28565 0.42672 0.0
H576 H 0.57108 0.04371 0.75832 0.0
H577 H 0.62456 0.00361 0.75465 0.0
H578 H 0.59796 0.04732 0.71268 0.0
H579 H 0.65248 0.00732 0.70923 0.0
H580 H 0.64788 0.01572 0.61902 0.0
H581 H 0.62237 0.01121 0.66448 0.0
H582 H 0.67515 0.04959 0.68843 0.0
H583 H 0.69976 0.05424 0.64276 0.0
C584 C 0.58817 0.03563 0.74769 0.0
C585 C 0.59539 0.02336 0.76005 0.0
C586 C 0.60411 0.03774 0.72164 0.0
C587 C 0.62785 0.02765 0.70741 0.0
C588 C 0.63392 0.01527 0.71955 0.0
C589 C 0.61777 0.01313 0.74558 0.0
C590 C 0.65459 0.02316 0.63402 0.0
C591 C 0.67564 0.03538 0.62722 0.0
C592 C 0.64003 0.02055 0.66012 0.0
C593 C 0.6462 0.03009 0.68003 0.0
C594 C 0.66896 0.04213 0.67343 0.0
C595 C 0.68352 0.04475 0.6473 0.0
H596 H 0.62853 0.21128 0.72293 0.0
H597 H 0.54723 0.17543 0.7378 0.0
H598 H 0.59212 0.21266 0.67863 0.0
H599 H 0.50829 0.17719 0.69452 0.0
H600 H 0.49824 0.17468 0.60453 0.0
H601 H 0.52461 0.17418 0.65032 0.0
H602 H 0.5223 0.2168 0.65262 0.0
H603 H 0.49883 0.21726 0.60581 0.0
C604 C 0.60267 0.20374 0.71672 0.0
C605 C 0.59152 0.19311 0.73354 0.0
C606 C 0.58119 0.2046 0.69147 0.0
C607 C 0.54718 0.19501 0.68276 0.0
C608 C 0.53519 0.18459 0.70008 0.0
C609 C 0.55753 0.18356 0.72498 0.0
C610 C 0.50264 0.18397 0.61482 0.0
C611 C 0.49704 0.19602 0.60133 0.0
C612 C 0.51759 0.18369 0.64132 0.0
C613 C 0.52631 0.19545 0.65532 0.0
C614 C 0.51731 0.20753 0.64234 0.0
C615 C 0.50315 0.20781 0.61557 0.0
H616 H 0.24234 0.97893 0.35335 0.0
H617 H 0.3175 0.94299 0.37529 0.0
H618 H 0.29212 0.98032 0.31322 0.0
H619 H 0.36899 0.94468 0.33604 0.0
H620 H 0.42272 0.94417 0.25082 0.0
H621 H 0.37454 0.94256 0.29115 0.0
H622 H 0.36798 0.98512 0.29559 0.0
H623 H 0.41345 0.98662 0.25401 0.0
C624 C 0.26946 0.97131 0.34953 0.0
C625 C 0.27574 0.96081 0.36741 0.0
C626 C 0.29846 0.97217 0.32659 0.0
C627 C 0.33501 0.96265 0.32111 0.0
C628 C 0.34076 0.95208 0.33903 0.0
C629 C 0.31121 0.95111 0.36171 0.0
C630 C 0.41184 0.9532 0.26064 0.0
C631 C 0.42214 0.96554 0.24917 0.0
C632 C 0.38405 0.95229 0.28395 0.0
C633 C 0.36675 0.9637 0.29686 0.0
C634 C 0.37936 0.97607 0.28604 0.0
C635 C 0.40628 0.97697 0.26237 0.0
H636 H 0.3909 0.82082 0.44901 0.0
H637 H 0.41225 0.77864 0.44547 0.0
H638 H 0.37242 0.82122 0.40188 0.0
H639 H 0.39584 0.77912 0.39781 0.0
H640 H 0.30828 0.78226 0.3206 0.0
H641 H 0.32862 0.78194 0.36783 0.0
H642 H 0.40537 0.81907 0.35904 0.0
H643 H 0.3832 0.81964 0.31233 0.0
C644 C 0.39272 0.81165 0.43805 0.0
C645 C 0.40294 0.79968 0.45103 0.0
C646 C 0.38221 0.81189 0.41092 0.0
C647 C 0.38228 0.80019 0.39598 0.0
C648 C 0.39439 0.78828 0.40879 0.0
C649 C 0.40439 0.78802 0.43605 0.0
C650 C 0.32903 0.7904 0.32887 0.0
C651 C 0.34382 0.80101 0.31277 0.0
C652 C 0.34121 0.79016 0.35588 0.0
C653 C 0.36893 0.80044 0.36729 0.0
C654 C 0.38335 0.81108 0.35111 0.0
C655 C 0.37067 0.8114 0.32425 0.0
H656 H 0.6085 0.57662 0.03213 0.0
H657 H 0.67612 0.53855 0.04472 0.0
H658 H 0.57841 0.57654 0.07759 0.0
H659 H 0.64805 0.53872 0.09071 0.0
H660 H 0.54874 0.53556 0.16201 0.0
H661 H 0.5752 0.53628 0.11578 0.0
H662 H 0.59987 0.57826 0.12257 0.0
H663 H 0.57116 0.57758 0.16834 0.0
C664 C 0.61791 0.56835 0.04481 0.0
C665 C 0.64468 0.55757 0.03483 0.0
C666 C 0.60064 0.56831 0.07095 0.0
C667 C 0.6103 0.55757 0.08786 0.0
C668 C 0.63876 0.54701 0.0781 0.0
C669 C 0.65543 0.54697 0.05183 0.0
C670 C 0.55906 0.54497 0.15343 0.0
C671 C 0.55776 0.55651 0.16875 0.0
C672 C 0.57485 0.54537 0.12703 0.0
C673 C 0.59049 0.5573 0.11546 0.0
C674 C 0.58767 0.56892 0.13064 0.0
C675 C 0.57115 0.56854 0.15693 0.0
H676 H 0.68369 0.68616 0.1406 0.0
H677 H 0.64479 0.72679 0.15557 0.0
H678 H 0.64483 0.68751 0.09705 0.0
H679 H 0.60484 0.72804 0.11222 0.0
H680 H 0.58765 0.72803 0.02037 0.0
H681 H 0.62175 0.72802 0.06509 0.0
H682 H 0.56279 0.68898 0.07822 0.0
H683 H 0.52976 0.68882 0.03316 0.0
C684 C 0.66708 0.6954 0.13455 0.0
C685 C 0.66738 0.70636 0.15157 0.0
C686 C 0.64427 0.69613 0.10969 0.0
C687 C 0.62103 0.70782 0.1013 0.0
C688 C 0.62256 0.7189 0.11802 0.0
C689 C 0.64554 0.71818 0.14287 0.0
C690 C 0.58098 0.71954 0.03296 0.0
C691 C 0.55625 0.70837 0.0231 0.0
C692 C 0.60066 0.71954 0.05864 0.0
C693 C 0.59577 0.70841 0.07508 0.0
C694 C 0.5683 0.69758 0.0658 0.0
C695 C 0.54886 0.69755 0.04008 0.0
H696 H 0.40896 0.46932 0.81222 0.0
H697 H 0.36171 0.42877 0.80582 0.0
H698 H 0.3823 0.46968 0.85844 0.0
H699 H 0.33336 0.42927 0.85164 0.0
H700 H 0.33794 0.43095 0.94267 0.0
H701 H 0.36141 0.42996 0.89616 0.0
H702 H 0.3092 0.46985 0.88489 0.0
H703 H 0.2874 0.47101 0.93181 0.0
C704 C 0.39299 0.46047 0.8207 0.0
C705 C 0.38769 0.449 0.80539 0.0
C706 C 0.37714 0.46072 0.84712 0.0
C707 C 0.35519 0.44954 0.85875 0.0
C708 C 0.35057 0.43801 0.84348 0.0
C709 C 0.36684 0.43773 0.81715 0.0
C710 C 0.33078 0.43946 0.93021 0.0
C711 C 0.31103 0.4511 0.94099 0.0
C712 C 0.34421 0.43888 0.90346 0.0
C713 C 0.33777 0.44987 0.88677 0.0
C714 C 0.3158 0.4613 0.8973 0.0
C715 C 0.30277 0.46192 0.92414 0.0
H716 H 0.31079 0.26465 0.80178 0.0
H717 H 0.34067 0.30578 0.7863 0.0
H718 H 0.35073 0.26658 0.84499 0.0
H719 H 0.38305 0.30754 0.82846 0.0
H720 H 0.42327 0.31003 0.91531 0.0
H721 H 0.37755 0.30838 0.874 0.0
H722 H 0.42886 0.26828 0.86433 0.0
H723 H 0.47216 0.26976 0.90676 0.0
C724 C 0.3254 0.27413 0.80771 0.0
C725 C 0.32235 0.28505 0.79058 0.0
C726 C 0.34908 0.27521 0.83234 0.0
C727 C 0.37091 0.28718 0.84025 0.0
C728 C 0.36624 0.29819 0.82341 0.0
C729 C 0.34187 0.29717 0.79906 0.0
C730 C 0.42527 0.30091 0.90421 0.0
C731 C 0.45154 0.29004 0.91421 0.0
C732 C 0.399 0.29995 0.88041 0.0
C733 C 0.39913 0.28817 0.86567 0.0
C734 C 0.42677 0.27741 0.87536 0.0
C735 C 0.45223 0.2783 0.89951 0.0
H736 H 0.30866 0.98011 0.19103 0.0
H737 H 0.28685 0.94565 0.24027 0.0
H738 H 0.2627 0.99334 0.22298 0.0
H739 H 0.24143 0.95895 0.27232 0.0
H740 H 0.11676 0.98631 0.30598 0.0
H741 H 0.1629 0.97177 0.27641 0.0
H742 H 0.27771 0.00112 0.2695 0.0
H743 H 0.23176 0.01567 0.29906 0.0
C744 C 0.29338 0.9753 0.20841 0.0
C745 C 0.30125 0.9618 0.21301 0.0
C746 C 0.26766 0.98292 0.22689 0.0
C747 C 0.249 0.9772 0.25027 0.0
C748 C 0.25516 0.96361 0.2544 0.0
C749 C 0.28106 0.95599 0.23597 0.0
C750 C 0.1523 0.98955 0.29855 0.0
C751 C 0.17044 0.00217 0.30471 0.0
C752 C 0.17865 0.98124 0.28159 0.0
C753 C 0.22334 0.98544 0.27023 0.0
C754 C 0.24272 -0.00223 0.27748 0.0
C755 C 0.21673 0.00602 0.29472 0.0
H756 H 0.93159 0.25922 0.29487 0.0
H757 H 0.91277 0.24782 0.21277 0.0
H758 H 0.97603 0.23887 0.30361 0.0
H759 H 0.95888 0.22759 0.22132 0.0
H760 H -0.00187 0.18674 0.25072 0.0
H761 H 0.95065 0.20688 0.244 0.0
H762 H 0.05211 0.22797 0.29489 0.0
H763 H 0.09849 0.20778 0.3023 0.0
C764 C 0.93764 0.25246 0.27856 0.0
C765 C 0.91877 0.25514 0.25309 0.0
C766 C 0.96322 0.24078 0.28358 0.0
C767 C 0.9709 0.23155 0.26321 0.0
C768 C 0.95281 0.23436 0.23759 0.0
C769 C 0.92682 0.24602 0.23261 0.0
C770 C 0.00986 0.19564 0.26077 0.0
C771 C 0.05206 0.19566 0.27704 0.0
C772 C 0.98296 0.20722 0.25669 0.0
C773 C -0.00213 0.21908 0.26865 0.0
C774 C 0.03926 0.21899 0.28556 0.0
C775 C 0.06593 0.2074 0.2898 0.0
H776 H 0.24852 0.21867 0.96874 0.0
H777 H 0.12251 0.24302 0.98814 0.0
H778 H 0.30252 0.23781 0.9729 0.0
H779 H 0.17674 0.26213 0.99233 0.0
H780 H 0.29119 0.2948 0.96869 0.0
H781 H 0.23303 0.2765 0.96436 0.0
H782 H 0.32944 0.25193 0.01158 0.0
H783 H 0.38757 0.27012 0.01594 0.0
C784 C 0.23227 0.22812 0.97362 0.0
C785 C 0.1813 0.22932 0.97826 0.0
C786 C 0.26324 0.23904 0.97622 0.0
C787 C 0.2438 0.2514 0.98325 0.0
C788 C 0.19263 0.25272 0.98687 0.0
C789 C 0.16168 0.24177 0.98451 0.0
C790 C 0.29963 0.28555 0.97847 0.0
C791 C 0.34408 0.28389 0.99256 0.0
C792 C 0.26635 0.27509 0.97597 0.0
C793 C 0.27715 0.26277 0.98732 0.0
C794 C 0.32067 0.26126 0.00223 0.0
C795 C 0.3537 0.27173 0.00493 0.0
H796 H 0.01733 0.04334 0.01309 0.0
H797 H 0.11071 0.00883 0.00942 0.0
H798 H 0.94498 0.0296 0.00385 0.0
H799 H 0.03862 0.99519 0.00018 0.0
H800 H 0.90574 0.9779 0.95644 0.0
H801 H 0.97581 0.9925 0.96353 0.0
H802 H 0.89886 0.01114 0.02853 0.0
H803 H 0.82821 0.99647 0.02149 0.0
C804 C 0.02246 0.03286 0.01004 0.0
C805 C 0.06964 0.02714 0.01195 0.0
C806 C 0.98106 0.02501 0.00498 0.0
C807 C 0.98631 0.01136 0.00139 0.0
C808 C 0.03362 0.00571 0.00269 0.0
C809 C 0.07483 0.01351 0.00805 0.0
C810 C 0.90358 0.98511 0.97224 0.0
C811 C 0.86148 0.986 0.9885 0.0
C812 C 0.94381 0.99344 0.97631 0.0
C813 C 0.94269 0.00291 0.99657 0.0
C814 C 0.90041 0.00397 0.01263 0.0
C815 C 0.86021 0.99552 0.00872 0.0
H816 H 0.65441 0.99211 0.8314 0.0
H817 H 0.76952 0.01896 0.80655 0.0
H818 H 0.6771 0.97709 0.79569 0.0
H819 H 0.7929 0.00378 0.77135 0.0
H820 H 0.77864 0.98396 0.6915 0.0
H821 H 0.75409 -0.00252 0.72926 0.0
H822 H 0.73983 0.96249 0.77767 0.0
H823 H 0.76336 0.94897 0.73992 0.0
C824 C 0.68536 0.99466 0.81877 0.0
C825 C 0.7095 0.00687 0.82156 0.0
C826 C 0.69826 0.98606 0.79824 0.0
C827 C 0.73581 0.98944 0.7802 0.0
C828 C 0.76266 0.00111 0.78438 0.0
C829 C 0.74973 0.00972 0.80485 0.0
C830 C 0.76927 0.97913 0.71003 0.0
C831 C 0.77318 0.96538 0.71267 0.0
C832 C 0.75592 0.98689 0.73179 0.0
C833 C 0.74617 0.98108 0.75665 0.0
C834 C 0.74725 0.96729 0.75886 0.0
C835 C 0.76062 0.95953 0.73712 0.0
H836 H 0.14168 0.74394 0.75533 0.0
H837 H 0.01915 0.72038 0.72751 0.0
H838 H 0.08872 0.76327 0.75643 0.0
H839 H 0.96548 0.73964 0.7296 0.0
H840 H 0.89989 0.77916 0.70527 0.0
H841 H 0.95272 0.75971 0.70592 0.0
H842 H 0.0216 0.77359 0.77821 0.0
H843 H 0.97015 0.79324 0.77694 0.0
C844 C 0.10314 0.74283 0.74996 0.0
C845 C 0.08463 0.73064 0.74122 0.0
C846 C 0.07268 0.75392 0.75065 0.0
C847 C 0.02287 0.75306 0.74289 0.0
C848 C 0.00393 0.74073 0.73514 0.0
C849 C 0.03454 0.72966 0.7342 0.0
C850 C 0.92659 0.77808 0.72118 0.0
C851 C 0.93103 0.78775 0.74097 0.0
C852 C 0.95654 0.76687 0.72172 0.0
C853 C 0.99121 0.76502 0.74224 0.0
C854 C -0.00421 0.77476 0.76193 0.0
C855 C 0.96621 0.78603 0.76122 0.0
H856 H 0.71492 0.72497 0.00816 0.0
H857 H 0.70239 0.74195 0.92961 0.0
H858 H 0.75702 0.74473 0.02358 0.0
H859 H 0.74571 0.76158 0.94489 0.0
H860 H 0.75787 0.80054 0.9882 0.0
H861 H 0.72272 0.77972 0.97354 0.0
H862 H 0.82986 0.75855 0.0209 0.0
H863 H 0.86438 0.77943 0.03611 0.0
C864 C 0.72233 0.73277 0.99398 0.0
C865 C 0.70484 0.73196 0.96771 0.0
C866 C 0.74645 0.74411 0.00286 0.0
C867 C 0.7538 0.75483 0.9856 0.0
C868 C 0.73937 0.75363 0.95886 0.0
C869 C 0.71504 0.74232 0.95002 0.0
C870 C 0.77357 0.79146 0.99576 0.0
C871 C 0.81394 0.79165 0.0133 0.0
C872 C 0.75382 0.77951 0.98709 0.0
C873 C 0.77408 0.76747 0.99567 0.0
C874 C 0.81335 0.76765 0.01395 0.0
C875 C 0.83306 0.77962 0.02271 0.0
H876 H 0.13196 0.52228 0.78267 0.0
H877 H 0.25494 0.53718 0.73693 0.0
H878 H 0.15971 0.49983 0.77473 0.0
H879 H 0.28405 0.51475 0.72991 0.0
H880 H 0.29558 0.4738 0.69667 0.0
H881 H 0.26303 0.49581 0.70498 0.0
H882 H 0.22016 0.48382 0.78417 0.0
H883 H 0.25064 0.46173 0.77539 0.0
C884 C 0.16564 0.52077 0.77146 0.0
C885 C 0.19122 0.53151 0.76037 0.0
C886 C 0.18157 0.50788 0.76687 0.0
C887 C 0.22379 0.50543 0.75135 0.0
C888 C 0.25061 0.51623 0.74133 0.0
C889 C 0.23433 0.52911 0.74565 0.0
C890 C 0.27835 0.47583 0.71565 0.0
C891 C 0.27564 0.46603 0.73533 0.0
C892 C 0.26027 0.48849 0.72058 0.0
C893 C 0.23968 0.49169 0.74543 0.0
C894 C 0.23533 0.48172 0.76473 0.0
C895 C 0.25282 0.46902 0.75967 0.0
H896 H 0.34178 0.7695 0.54144 0.0
H897 H 0.21338 0.78668 0.50373 0.0
H898 H 0.31636 0.74774 0.52609 0.0
H899 H 0.1878 0.76492 0.48876 0.0
H900 H 0.18991 0.72838 0.43788 0.0
H901 H 0.21988 0.74928 0.45533 0.0
H902 H 0.2516 0.73065 0.53065 0.0
H903 H 0.22242 0.70967 0.51315 0.0
C904 C 0.30766 0.76862 0.53032 0.0
C905 C 0.27982 0.77986 0.52361 0.0
C906 C 0.29317 0.75614 0.52151 0.0
C907 C 0.25064 0.75467 0.50578 0.0
C908 C 0.22145 0.7658 0.50029 0.0
C909 C 0.23583 0.77826 0.50913 0.0
C910 C 0.20424 0.72866 0.45798 0.0
C911 C 0.20356 0.71735 0.47413 0.0
C912 C 0.22081 0.74068 0.46808 0.0
C913 C 0.23716 0.74165 0.49453 0.0
C914 C 0.23928 0.7302 0.51019 0.0
C915 C 0.22269 0.71817 0.50009 0.0
H916 H 0.97703 0.4584 0.52944 0.0
H917 H 0.87775 0.48797 0.5605 0.0
H918 H 0.02741 0.47557 0.50946 0.0
H919 H 0.92916 0.50521 0.54119 0.0
H920 H -0.00654 0.53107 0.47599 0.0
H921 H 0.94628 0.51353 0.49733 0.0
H922 H 0.08223 0.4935 0.51749 0.0
H923 H 0.12915 0.51073 0.49543 0.0
C924 C 0.96661 0.46858 0.53258 0.0
C925 C 0.92316 0.47181 0.54642 0.0
C926 C -0.00447 0.47845 0.52109 0.0
C927 C 0.9819 0.49177 0.52336 0.0
C928 C 0.93998 0.49503 0.53848 0.0
C929 C 0.91085 0.48515 0.54983 0.0
C930 C 0.01319 0.52284 0.48468 0.0
C931 C 0.06502 0.5223 0.48397 0.0
C932 C 0.98622 0.51286 0.49721 0.0
C933 C 0.01051 0.50219 0.50943 0.0
C934 C 0.06229 0.50151 0.50812 0.0
C935 C 0.08921 0.51142 0.49545 0.0
H936 H 0.7616 0.52584 0.25811 0.0
H937 H 0.62391 0.50427 0.26078 0.0
H938 H 0.80702 0.50505 0.25676 0.0
H939 H 0.66931 0.48357 0.25911 0.0
H940 H 0.77293 0.44983 0.28524 0.0
H941 H 0.72623 0.47035 0.28678 0.0
H942 H 0.81872 0.48657 0.22493 0.0
H943 H 0.86588 0.4661 0.22353 0.0
C944 C 0.74104 0.51668 0.25853 0.0
C945 C 0.68917 0.5167 0.25949 0.0
C946 C 0.76703 0.50479 0.25753 0.0
C947 C 0.74165 0.4927 0.25765 0.0
C948 C 0.68986 0.49273 0.25917 0.0
C949 C 0.66389 0.5046 0.26003 0.0
C950 C 0.78306 0.45772 0.2718 0.0
C951 C 0.82315 0.45634 0.25429 0.0
C952 C 0.75624 0.46947 0.27266 0.0
C953 C 0.76909 0.48009 0.25611 0.0
C954 C 0.80849 0.47862 0.2382 0.0
C955 C 0.83517 0.46684 0.23724 0.0
H956 H 0.73355 0.27435 0.50515 0.0
H957 H 0.84861 0.25402 0.54853 0.0
H958 H 0.67949 0.25536 0.51052 0.0
H959 H 0.79488 0.2349 0.55333 0.0
H960 H 0.66737 0.20716 0.57565 0.0
H961 H 0.71987 0.22667 0.57391 0.0
H962 H 0.67605 0.23328 0.49238 0.0
H963 H 0.62271 0.21399 0.49429 0.0
C964 C 0.74718 0.26587 0.51601 0.0
C965 C 0.79544 0.26566 0.52627 0.0
C966 C 0.71635 0.25494 0.51888 0.0
C967 C 0.73317 0.24355 0.532 0.0
C968 C 0.78073 0.24355 0.54324 0.0
C969 C 0.81154 0.2545 0.54045 0.0
C970 C 0.66918 0.21274 0.5573 0.0
C971 C 0.64082 0.20905 0.53511 0.0
C972 C 0.69932 0.2239 0.55631 0.0
C973 C 0.70178 0.23158 0.5331 0.0
C974 C 0.67416 0.22773 0.51075 0.0
C975 C 0.64394 0.2166 0.51176 0.0
H976 H 0.4438 0.27508 0.78114 0.0
H977 H 0.42528 0.25433 0.70688 0.0
H978 H 0.46547 0.25458 0.80312 0.0
H979 H 0.44929 0.23379 0.72868 0.0
H980 H 0.44505 0.19709 0.77844 0.0
H981 H 0.41818 0.21803 0.75964 0.0
H982 H 0.52744 0.23837 0.807 0.0
H983 H 0.55287 0.21756 0.82649 0.0
C984 C 0.44564 0.26618 0.76931 0.0
C985 C 0.43313 0.26634 0.74218 0.0
C986 C 0.45798 0.25439 0.78198 0.0
C987 C 0.4588 0.24248 0.76777 0.0
C988 C 0.44791 0.24272 0.7404 0.0
C989 C 0.43486 0.25451 0.72778 0.0
C990 C 0.46251 0.20607 0.78531 0.0
C991 C 0.50127 0.20562 0.80389 0.0
C992 C 0.44761 0.21806 0.77423 0.0
C993 C 0.47131 0.22988 0.78137 0.0
C994 C 0.50814 0.2295 0.80108 0.0
C995 C 0.52274 0.21752 0.81232 0.0
H996 H 0.48692 0.01627 0.57329 0.0
H997 H 0.55722 0.01 0.49725 0.0
H998 H 0.41761 0.00261 0.55941 0.0
H999 H 0.48849 0.99605 0.48364 0.0
H1000 H 0.33651 0.98255 0.45772 0.0
H1001 H 0.40238 -0.00278 0.47194 0.0
H1002 H 0.39836 0.97981 0.55035 0.0
H1003 H 0.33131 0.96532 0.53628 0.0
C1004 C 0.48764 0.01195 0.55363 0.0
C1005 C 0.52755 0.01422 0.53635 0.0
C1006 C 0.44804 0.00405 0.54575 0.0
C1007 C 0.44755 -0.00179 0.52046 0.0
C1008 C 0.48737 0.00055 0.50313 0.0
C1009 C 0.52689 0.0085 0.51096 0.0
C1010 C 0.34952 0.98187 0.47804 0.0
C1011 C 0.32881 0.97274 0.49587 0.0
C1012 C 0.38751 0.99024 0.48614 0.0
C1013 C 0.40589 0.98963 0.51222 0.0
C1014 C 0.38467 0.98063 0.53019 0.0
C1015 C 0.34641 0.97229 0.52211 0.0
H1016 H 0.62842 0.72536 0.26196 0.0
H1017 H 0.51027 0.71006 0.21311 0.0
H1018 H 0.58744 0.74657 0.26376 0.0
H1019 H 0.46783 0.73122 0.21592 0.0
H1020 H 0.43766 0.77462 0.19828 0.0
H1021 H 0.47588 0.75286 0.19859 0.0
H1022 H 0.52075 0.75876 0.28021 0.0
H1023 H 0.48461 0.78067 0.27941 0.0
C1024 C 0.59303 0.72642 0.25211 0.0
C1025 C 0.57275 0.71603 0.23725 0.0
C1026 C 0.56938 0.73862 0.25321 0.0
C1027 C 0.52446 0.74069 0.23978 0.0
C1028 C 0.50295 0.73008 0.22599 0.0
C1029 C 0.52696 0.71789 0.22464 0.0
C1030 C 0.4561 0.77128 0.21618 0.0
C1031 C 0.45849 0.77939 0.23873 0.0
C1032 C 0.47751 0.75875 0.21649 0.0
C1033 C 0.50121 0.75398 0.23949 0.0
C1034 C 0.50354 0.76215 0.26201 0.0
C1035 C 0.48276 0.77473 0.26157 0.0
H1036 H 0.35931 0.48692 0.01794 0.0
H1037 H 0.50766 0.47112 0.01978 0.0
H1038 H 0.39118 0.5078 0.00132 0.0
H1039 H 0.53953 0.49212 0.00351 0.0
H1040 H 0.57241 0.5254 0.9456 0.0
H1041 H 0.53658 0.50481 0.9616 0.0
H1042 H 0.44196 0.52664 0.0148 0.0
H1043 H 0.47712 0.54723 -0.00141 0.0
C1044 C 0.39881 0.48795 0.01516 0.0
C1045 C 0.43095 0.47733 0.02012 0.0
C1046 C 0.41704 0.49993 0.00564 0.0
C1047 C 0.46778 0.50155 0.00081 0.0
C1048 C 0.50011 0.49107 0.00655 0.0
C1049 C 0.4819 0.47909 0.01615 0.0
C1050 C 0.5434 0.52583 0.96039 0.0
C1051 C 0.52773 0.53796 0.97087 0.0
C1052 C 0.52329 0.51402 0.96977 0.0
C1053 C 0.48697 0.5141 0.98973 0.0
C1054 C 0.46978 0.52625 -0.00064 0.0
C1055 C 0.48997 0.53805 0.99005 0.0
H1056 H 0.15386 0.13218 0.32676 0.0
H1057 H 0.10825 0.12543 0.24556 0.0
H1058 H 0.14714 0.10854 0.33579 0.0
H1059 H 0.10128 0.10198 0.25467 0.0
H1060 H 0.14901 0.06031 0.26904 0.0
H1061 H 0.16048 0.08395 0.26426 0.0
H1062 H 0.08344 0.09037 0.33823 0.0
H1063 H 0.07219 0.06656 0.34326 0.0
C1064 C 0.14206 0.12569 0.31092 0.0
C1065 C 0.13188 0.13067 0.28539 0.0
C1066 C 0.13814 0.11217 0.31612 0.0
C1067 C 0.12434 0.10341 0.29584 0.0
C1068 C 0.11298 0.10846 0.27056 0.0
C1069 C 0.11663 0.12193 0.2654 0.0
C1070 C 0.13501 0.06672 0.28451 0.0
C1071 C 0.10921 0.06156 0.30639 0.0
C1072 C 0.14133 0.08027 0.28165 0.0
C1073 C 0.12207 0.08901 0.30062 0.0
C1074 C 0.09865 0.08386 0.3233 0.0
C1075 C 0.09219 0.07024 0.32615 0.0
H1076 H 0.10268 0.16308 0.96181 0.0
H1077 H 0.18138 0.16562 0.03636 0.0
H1078 H 0.1087 0.13911 0.96341 0.0
H1079 H 0.18595 0.14173 0.03844 0.0
H1080 H 0.21341 0.09824 0.02792 0.0
H1081 H 0.21906 0.12192 0.02049 0.0
H1082 H 0.07059 0.12196 0.98872 0.0
H1083 H 0.06564 0.09823 0.99533 0.0
C1084 C 0.12178 0.15853 0.97838 0.0
C1085 C 0.14138 0.16624 -0.00099 0.0
C1086 C 0.12484 0.14479 0.97942 0.0
C1087 C 0.1472 0.13847 0.00123 0.0
C1088 C 0.16889 0.14624 0.0212 0.0
C1089 C 0.1662 0.15997 0.02004 0.0
C1090 C 0.18203 0.1033 0.01926 0.0
C1091 C 0.13896 0.09637 0.01234 0.0
C1092 C 0.18523 0.11689 0.01507 0.0
C1093 C 0.14529 0.12388 0.00403 0.0
C1094 C 0.10242 0.11688 0.99683 0.0
C1095 C 0.09938 0.10328 0.00084 0.0
H1096 H 0.9787 0.90824 0.65721 0.0
H1097 H 0.82064 0.91391 0.65223 0.0
H1098 H 0.96593 0.88475 0.66511 0.0
H1099 H 0.80807 0.89043 0.65972 0.0
H1100 H 0.80737 0.85463 0.7156 0.0
H1101 H 0.81987 0.877 0.69991 0.0
H1102 H 0.93449 0.86346 0.64686 0.0
H1103 H 0.92229 0.84088 0.66284 0.0
C1104 C 0.94129 0.90445 0.65729 0.0
C1105 C 0.90065 0.91297 0.65448 0.0
C1106 C 0.93402 0.89098 0.6617 0.0
C1107 C 0.88599 0.88579 0.66339 0.0
C1108 C 0.84551 0.8942 0.659 0.0
C1109 C 0.85274 0.90764 0.65459 0.0
C1110 C 0.83521 0.85636 0.70054 0.0
C1111 C 0.86393 0.84596 0.69051 0.0
C1112 C 0.84204 0.86919 0.69136 0.0
C1113 C 0.87786 0.87197 0.67198 0.0
C1114 C 0.90669 0.8616 0.66187 0.0
C1115 C 0.89962 0.84869 0.67097 0.0
H1116 H 0.84262 0.93109 0.0354 0.0
H1117 H 0.78771 0.91348 0.96302 0.0
H1118 H 0.86743 0.90934 0.0515 0.0
H1119 H 0.81244 0.89177 0.97921 0.0
H1120 H 0.82301 0.85364 0.02596 0.0
H1121 H 0.79105 0.8756 0.01595 0.0
H1122 H 0.93175 0.89259 0.03743 0.0
H1123 H 0.96388 0.87066 0.04741 0.0
C1124 C 0.83561 0.92258 0.02298 0.0
C1125 C 0.81336 0.92401 -0.00212 0.0
C1126 C 0.84994 0.91015 0.0322 0.0
C1127 C 0.8417 0.89888 0.01665 0.0
C1128 C 0.81868 0.90028 0.99176 0.0
C1129 C 0.80489 0.91272 0.98241 0.0
C1130 C 0.84687 0.86207 0.02902 0.0
C1131 C 0.89612 0.86041 0.0373 0.0
C1132 C 0.82865 0.87462 0.02309 0.0
C1133 C 0.85908 0.88576 0.02567 0.0
C1134 C 0.90741 0.88418 0.03536 0.0
C1135 C 0.92583 0.87161 0.041 0.0
H1136 H 0.23407 0.59975 0.7721 0.0
H1137 H 0.0762 0.60357 0.78282 0.0
H1138 H 0.24025 0.62354 0.76516 0.0
H1139 H 0.08262 0.62726 0.77587 0.0
H1140 H 0.10875 0.66257 0.7186 0.0
H1141 H 0.10277 0.63985 0.73402 0.0
H1142 H 0.22699 0.64609 0.78641 0.0
H1143 H 0.23303 0.66893 0.77102 0.0
C1144 C 0.20087 0.60567 0.7735 0.0
C1145 C 0.15458 0.59973 0.77765 0.0
C1146 C 0.20445 0.6193 0.76959 0.0
C1147 C 0.16178 0.6272 0.7696 0.0
C1148 C 0.11598 0.62136 0.77533 0.0
C1149 C 0.11243 0.60779 0.77944 0.0
C1150 C 0.13462 0.65914 0.73352 0.0
C1151 C 0.1714 0.66754 0.74354 0.0
C1152 C 0.13098 0.64616 0.74249 0.0
C1153 C 0.16432 0.64123 0.76149 0.0
C1154 C 0.20094 0.64963 0.77168 0.0
C1155 C 0.20422 0.6627 0.76294 0.0
H1156 H 0.09368 0.65364 0.42524 0.0
H1157 H 0.10205 0.65307 0.51101 0.0
H1158 H 0.09562 0.62956 0.4247 0.0
H1159 H 0.10514 0.62916 0.51043 0.0
H1160 H 0.06544 0.58673 0.50525 0.0
H1161 H 0.05321 0.61042 0.50131 0.0
H1162 H 0.15177 0.61136 0.4338 0.0
H1163 H 0.16296 0.58758 0.4373 0.0
C1164 C 0.0962 0.64839 0.44394 0.0
C1165 C 0.09761 0.65526 0.46817 0.0
C1166 C 0.0974 0.6346 0.44363 0.0
C1167 C 0.10006 0.62744 0.46753 0.0
C1168 C 0.10195 0.63436 0.49169 0.0
C1169 C 0.10063 0.64809 0.492 0.0
C1170 C 0.08391 0.59195 0.48931 0.0
C1171 C 0.1156 0.58531 0.47178 0.0
C1172 C 0.07718 0.60555 0.48717 0.0
C1173 C 0.10225 0.61281 0.46755 0.0
C1174 C 0.13178 0.60605 0.44908 0.0
C1175 C 0.1383 0.59242 0.45113 0.0
H1176 H 0.83942 0.32328 0.20109 0.0
H1177 H 0.87898 0.32183 0.28429 0.0
H1178 H 0.8499 0.34726 0.20144 0.0
H1179 H 0.88992 0.34557 0.28448 0.0
H1180 H 0.84339 0.38797 0.28607 0.0
H1181 H 0.83266 0.36431 0.28144 0.0
H1182 H 0.91314 0.36518 0.20738 0.0
H1183 H 0.92345 0.38905 0.21179 0.0
C1184 C 0.85096 0.32804 0.21931 0.0
C1185 C 0.85787 0.32068 0.24273 0.0
C1186 C 0.85699 0.34175 0.21949 0.0
C1187 C 0.86987 0.34829 0.24311 0.0
C1188 C 0.87879 0.34083 0.26614 0.0
C1189 C 0.87283 0.3272 0.26597 0.0
C1190 C 0.8585 0.38317 0.26866 0.0
C1191 C 0.88472 0.39037 0.24944 0.0
C1192 C 0.85259 0.36959 0.2661 0.0
C1193 C 0.87282 0.36287 0.24428 0.0
C1194 C 0.89716 0.37012 0.2244 0.0
C1195 C 0.90312 0.38376 0.22697 0.0
H1196 H 0.81739 0.33385 0.51117 0.0
H1197 H 0.96191 0.32723 0.5453 0.0
H1198 H 0.82223 0.35704 0.52364 0.0
H1199 H 0.96673 0.3505 0.55759 0.0
H1200 H 0.97402 0.39581 0.53281 0.0
H1201 H 0.97213 0.37178 0.52995 0.0
H1202 H 0.82673 0.37148 0.56515 0.0
H1203 H 0.82849 0.39545 0.5682 0.0
C1204 C 0.84999 0.33732 0.52151 0.0
C1205 C 0.88932 0.32873 0.52716 0.0
C1206 C 0.85261 0.35057 0.52881 0.0
C1207 C 0.89485 0.35553 0.5416 0.0
C1208 C 0.93386 0.34692 0.54766 0.0
C1209 C 0.93096 0.33361 0.5407 0.0
C1210 C 0.94208 0.39061 0.54043 0.0
C1211 C 0.9012 0.39755 0.55044 0.0
C1212 C 0.94108 0.37685 0.53887 0.0
C1213 C 0.89902 0.36982 0.54705 0.0
C1214 C 0.85933 0.3767 0.55841 0.0
C1215 C 0.86053 0.39042 0.56026 0.0
H1216 H 0.58562 0.07268 0.86231 0.0
H1217 H 0.71427 0.07111 0.81178 0.0
H1218 H 0.58471 0.09664 0.85871 0.0
H1219 H 0.71541 0.09506 0.80937 0.0
H1220 H 0.66325 0.13414 0.77751 0.0
H1221 H 0.66896 0.11077 0.78676 0.0
H1222 H 0.6187 0.11762 0.86715 0.0
H1223 H 0.61065 0.14114 0.85722 0.0
C1224 C 0.61464 0.0775 0.85112 0.0
C1225 C 0.6497 0.07006 0.83706 0.0
C1226 C 0.6142 0.09126 0.84906 0.0
C1227 C 0.64934 0.09783 0.83325 0.0
C1228 C 0.68671 0.09035 0.82097 0.0
C1229 C 0.68649 0.07662 0.82257 0.0
C1230 C 0.65333 0.13067 0.79716 0.0
C1231 C 0.63654 0.13946 0.81665 0.0
C1232 C 0.65714 0.11724 0.80261 0.0
C1233 C 0.64515 0.11225 0.8279 0.0
C1234 C 0.62796 0.12107 0.84741 0.0
C1235 C 0.62338 0.13454 0.84177 0.0
H1236 H 0.58502 0.14355 0.58426 0.0
H1237 H 0.56307 0.1414 0.49926 0.0
H1238 H 0.59975 0.11992 0.58573 0.0
H1239 H 0.57773 0.11761 0.50087 0.0
H1240 H 0.6574 0.07732 0.51482 0.0
H1241 H 0.64551 0.10116 0.51133 0.0
H1242 H 0.54718 0.10001 0.57884 0.0
H1243 H 0.55908 0.07629 0.58247 0.0
C1244 C 0.5836 0.13806 0.56584 0.0
C1245 C 0.57261 0.14435 0.54164 0.0
C1246 C 0.59174 0.1245 0.56674 0.0
C1247 C 0.5894 0.11692 0.54346 0.0
C1248 C 0.57992 0.12323 0.5191 0.0
C1249 C 0.57139 0.13683 0.51821 0.0
C1250 C 0.63318 0.08216 0.52888 0.0
C1251 C 0.60933 0.07493 0.549 0.0
C1252 C 0.62622 0.09578 0.52678 0.0
C1253 C 0.59568 0.10243 0.54491 0.0
C1254 C 0.57148 0.09517 0.56482 0.0
C1255 C 0.5781 0.08157 0.56679 0.0
H1256 H 0.38721 0.91149 0.1555 0.0
H1257 H 0.53628 0.90913 0.18605 0.0
H1258 H 0.37864 0.88772 0.1603 0.0
H1259 H 0.52724 0.88534 0.19133 0.0
H1260 H 0.35712 0.85107 0.21197 0.0
H1261 H 0.37104 0.87387 0.19976 0.0
H1262 H 0.51501 0.86373 0.16893 0.0
H1263 H 0.50132 0.84068 0.18157 0.0
C1264 C 0.41833 0.90589 0.163 0.0
C1265 C 0.4622 0.91223 0.17072 0.0
C1266 C 0.41334 0.89228 0.16586 0.0
C1267 C 0.45201 0.88469 0.17657 0.0
C1268 C 0.49687 0.89091 0.18292 0.0
C1269 C 0.50192 0.90455 0.18001 0.0
C1270 C 0.39179 0.85363 0.20254 0.0
C1271 C 0.42818 0.84403 0.19779 0.0
C1272 C 0.39956 0.86672 0.19531 0.0
C1273 C 0.44392 0.87059 0.18314 0.0
C1274 C 0.48049 0.86103 0.17835 0.0
C1275 C 0.4726 0.84784 0.18552 0.0
H1276 H 0.36268 0.91473 0.4887 0.0
H1277 H 0.20616 0.90982 0.47467 0.0
H1278 H 0.36763 0.89205 0.5047 0.0
H1279 H 0.21112 0.88722 0.49098 0.0
H1280 H 0.35592 0.85312 0.54814 0.0
H1281 H 0.34101 0.87662 0.54044 0.0
H1282 H 0.2484 0.86702 0.47326 0.0
H1283 H 0.26281 0.84369 0.48103 0.0
C1284 C 0.32926 0.90886 0.48925 0.0
C1285 C 0.28415 0.91404 0.48012 0.0
C1286 C 0.33202 0.89591 0.49866 0.0
C1287 C 0.28977 0.88784 0.49905 0.0
C1288 C 0.24441 0.89315 0.49065 0.0
C1289 C 0.2416 0.90611 0.48134 0.0
C1290 C 0.33153 0.85604 0.5321 0.0
C1291 C 0.31082 0.84657 0.51507 0.0
C1292 C 0.32335 0.86949 0.52756 0.0
C1293 C 0.29388 0.87367 0.5061 0.0
C1294 C 0.27098 0.86414 0.49007 0.0
C1295 C 0.27945 0.85075 0.49446 0.0
H1296 H 0.7291 0.64962 0.24071 0.0
H1297 H 0.57507 0.65049 0.26325 0.0
H1298 H 0.72912 0.62572 0.24416 0.0
H1299 H 0.57472 0.62647 0.26598 0.0
H1300 H 0.68843 0.58396 0.21589 0.0
H1301 H 0.69557 0.60777 0.21908 0.0
H1302 H 0.60533 0.60739 0.2899 0.0
H1303 H 0.59713 0.58351 0.28632 0.0
C1304 C 0.69518 0.64471 0.2464 0.0
C1305 C 0.65192 0.65195 0.25147 0.0
C1306 C 0.69518 0.63099 0.2483 0.0
C1307 C 0.65185 0.62416 0.25513 0.0
C1308 C 0.6089 0.63143 0.26095 0.0
C1309 C 0.60898 0.64519 0.25922 0.0
C1310 C 0.67068 0.58891 0.23238 0.0
C1311 C 0.64196 0.58183 0.25074 0.0
C1312 C 0.67492 0.60258 0.23427 0.0
C1313 C 0.65074 0.60951 0.25466 0.0
C1314 C 0.62372 0.60237 0.2737 0.0
C1315 C 0.61938 0.58867 0.27177 0.0
H1316 H 0.53023 0.67366 0.93153 0.0
H1317 H 0.68655 0.66932 0.91618 0.0
H1318 H 0.52128 0.64983 0.93306 0.0
H1319 H 0.67755 0.64538 0.91815 0.0
H1320 H 0.63876 0.60211 0.90747 0.0
H1321 H 0.63987 0.62565 0.89701 0.0
H1322 H 0.5479 0.6333 0.9654 0.0
H1323 H 0.54627 0.60989 0.97565 0.0
C1324 C 0.56269 0.66762 0.92829 0.0
C1325 C 0.60927 0.6734 0.92404 0.0
C1326 C 0.5575 0.65396 0.92924 0.0
C1327 C 0.59875 0.64573 0.926 0.0
C1328 C 0.64498 0.65147 0.92053 0.0
C1329 C 0.6502 0.66518 0.91956 0.0
C1330 C 0.61808 0.6088 0.91998 0.0
C1331 C 0.59263 0.60415 0.94249 0.0
C1332 C 0.61906 0.62228 0.9141 0.0
C1333 C 0.59423 0.63133 0.93046 0.0
C1334 C 0.56702 0.62658 0.95224 0.0
C1335 C 0.56628 0.61315 0.9582 0.0
H1336 H 0.42675 0.40105 0.69494 0.0
H1337 H 0.26784 0.39688 0.69793 0.0
H1338 H 0.43537 0.3773 0.69056 0.0
H1339 H 0.27679 0.37298 0.69357 0.0
H1340 H 0.31248 0.33017 0.67147 0.0
H1341 H 0.30807 0.35404 0.66414 0.0
H1342 H 0.41848 0.35993 0.72496 0.0
H1343 H 0.42267 0.33624 0.73238 0.0
C1344 C 0.39355 0.3951 0.69432 0.0
C1345 C 0.34657 0.40086 0.69726 0.0
C1346 C 0.3986 0.38148 0.69181 0.0
C1347 C 0.35683 0.3733 0.69204 0.0
C1348 C 0.30963 0.37908 0.69322 0.0
C1349 C 0.30453 0.39275 0.69585 0.0
C1350 C 0.3365 0.33657 0.68285 0.0
C1351 C 0.36783 0.33137 0.70257 0.0
C1352 C 0.33367 0.35021 0.67879 0.0
C1353 C 0.36281 0.35882 0.69402 0.0
C1354 C 0.3959 0.35353 0.71275 0.0
C1355 C 0.39816 0.33997 0.71708 0.0
H1356 H 0.4877 0.41668 0.99065 0.0
H1357 H 0.37091 0.40447 0.04368 0.0
H1358 H 0.51574 0.39393 0.98724 0.0
H1359 H 0.39703 0.38167 0.03923 0.0
H1360 H 0.46605 0.34145 0.03605 0.0
H1361 H 0.45397 0.36467 0.04673 0.0
H1362 H 0.4879 0.37505 0.96535 0.0
H1363 H 0.50227 0.352 0.9552 0.0
C1364 C 0.46832 0.40913 0.00177 0.0
C1365 C 0.42691 0.41232 0.01724 0.0
C1366 C 0.48405 0.39606 -0.00037 0.0
C1367 C 0.4581 0.38587 0.01252 0.0
C1368 C 0.41829 0.38921 0.02918 0.0
C1369 C 0.40312 0.40231 0.03168 0.0
C1370 C 0.47126 0.34874 0.02055 0.0
C1371 C 0.48494 0.34491 0.99477 0.0
C1372 C 0.46416 0.36205 0.02662 0.0
C1373 C 0.46987 0.3718 0.00693 0.0
C1374 C 0.48417 0.36791 0.98123 0.0
C1375 C 0.49199 0.35464 0.97529 0.0
H1376 H 0.90075 0.0165 0.36295 0.0
H1377 H 0.01172 0.02105 0.42407 0.0
H1378 H 0.83679 0.01533 0.39692 0.0
H1379 H 0.94769 0.01968 0.45806 0.0
H1380 H 0.81193 0.03534 0.50474 0.0
H1381 H 0.87956 0.03383 0.47299 0.0
H1382 H 0.80541 0.00163 0.43352 0.0
H1383 H 0.73728 0.00325 0.46507 0.0
C1384 C 0.91158 0.01712 0.38364 0.0
C1385 C 0.96131 0.01896 0.39079 0.0
C1386 C 0.87493 0.01636 0.40312 0.0
C1387 C 0.88717 0.01745 0.43018 0.0
C1388 C 0.93704 0.01897 0.43736 0.0
C1389 C 0.97373 0.0197 0.41788 0.0
C1390 C 0.81021 0.02786 0.48945 0.0
C1391 C 0.76902 0.01948 0.48734 0.0
C1392 C 0.84914 0.02694 0.47134 0.0
C1393 C 0.84773 0.01764 0.45067 0.0
C1394 C 0.80724 0.00901 0.44903 0.0
C1395 C 0.76835 0.00989 0.4672 0.0
H1396 H 0.32282 0.1709 0.32644 0.0
H1397 H 0.24923 0.2051 0.35886 0.0
H1398 H 0.38414 0.17203 0.36183 0.0
H1399 H 0.311 0.20629 0.39409 0.0
H1400 H 0.38633 0.19104 0.47129 0.0
H1401 H 0.33029 0.19257 0.43342 0.0
H1402 H 0.45219 0.18541 0.37999 0.0
H1403 H 0.50817 0.18373 0.41781 0.0
C1404 C 0.32013 0.17878 0.34087 0.0
C1405 C 0.28088 0.18784 0.33995 0.0
C1406 C 0.35542 0.17946 0.3611 0.0
C1407 C 0.35214 0.18918 0.38087 0.0
C1408 C 0.31403 0.19856 0.37935 0.0
C1409 C 0.27886 0.19792 0.35905 0.0
C1410 C 0.40123 0.18987 0.45147 0.0
C1411 C 0.45164 0.18718 0.44758 0.0
C1412 C 0.36919 0.19083 0.42976 0.0
C1413 C 0.38684 0.18909 0.40372 0.0
C1414 C 0.43741 0.18665 0.39983 0.0
C1415 C 0.46948 0.18574 0.42151 0.0
H1416 H 0.70425 0.18309 0.90484 0.0
H1417 H 0.76842 0.19764 0.83186 0.0
H1418 H 0.77999 0.18826 0.92846 0.0
H1419 H 0.84412 0.20323 0.85578 0.0
H1420 H 0.98925 0.19489 0.90125 0.0
H1421 H 0.91269 0.19223 0.87648 0.0
H1422 H 0.82996 0.20595 0.94448 0.0
H1423 H 0.90656 0.2082 0.96956 0.0
C1424 C 0.73437 0.18754 0.89387 0.0
C1425 C 0.73038 0.18991 0.86644 0.0
C1426 C 0.77776 0.19061 0.90749 0.0
C1427 C 0.81817 0.1962 0.89407 0.0
C1428 C 0.81391 0.19878 0.86667 0.0
C1429 C 0.77048 0.19563 0.85298 0.0
C1430 C 0.95476 0.19743 0.91087 0.0
C1431 C 0.95393 0.20164 0.93746 0.0
C1432 C 0.91083 0.19599 0.89658 0.0
C1433 C 0.86509 0.1988 0.90852 0.0
C1434 C 0.86447 0.20346 0.93484 0.0
C1435 C 0.90839 0.20482 0.94918 0.0
H1436 H 0.31457 0.03714 0.01477 0.0
H1437 H 0.24998 0.05238 0.94241 0.0
H1438 H 0.38708 0.02994 0.9898 0.0
H1439 H 0.32257 0.04554 0.91772 0.0
H1440 H 0.44172 0.02377 0.87494 0.0
H1441 H 0.36738 0.02677 0.90158 0.0
H1442 H 0.45683 0.03985 0.96764 0.0
H1443 H 0.5311 0.03648 0.94132 0.0
C1444 C 0.31582 0.03895 0.99356 0.0
C1445 C 0.27661 0.04538 0.9806 0.0
C1446 C 0.35742 0.03486 0.97927 0.0
C1447 C 0.36066 0.03715 0.95174 0.0
C1448 C 0.32101 0.0434 0.93879 0.0
C1449 C 0.27949 0.04743 0.95303 0.0
C1450 C 0.44555 0.02711 0.89527 0.0
C1451 C 0.49229 0.03001 0.90592 0.0
C1452 C 0.40292 0.02891 0.91049 0.0
C1453 C 0.40607 0.03371 0.93665 0.0
C1454 C 0.45301 0.03604 0.94766 0.0
C1455 C 0.49564 0.03418 0.93248 0.0
H1456 H 0.12666 0.9882 0.49634 0.0
H1457 H 0.07475 0.95015 0.46975 0.0
H1458 H 0.05942 0.98914 0.52854 0.0
H1459 H 0.00822 0.95101 0.50216 0.0
H1460 H 0.87913 0.95767 0.55593 0.0
H1461 H 0.93266 0.96155 0.51773 0.0
H1462 H 0.04539 0.97701 0.56989 0.0
H1463 H 0.9917 0.97335 0.60798 0.0
C1464 C 0.10041 0.98015 0.49698 0.0
C1465 C 0.10651 0.96902 0.48069 0.0
C1466 C 0.06207 0.98065 0.51558 0.0
C1467 C 0.02888 0.97007 0.5182 0.0
C1468 C 0.03293 0.95937 0.5006 0.0
C1469 C 0.07129 0.95885 0.48206 0.0
C1470 C 0.91504 0.96209 0.55921 0.0
C1471 C 0.93134 0.96507 0.58506 0.0
C1472 C 0.94578 0.96426 0.53731 0.0
C1473 C -0.00657 0.9695 0.54075 0.0
C1474 C 0.00871 0.97309 0.56646 0.0
C1475 C 0.97803 0.9709 0.58836 0.0
H1476 H 0.64815 0.80975 0.71067 0.0
H1477 H 0.73401 0.79461 0.64507 0.0
H1478 H 0.57421 0.80943 0.68289 0.0
H1479 H 0.66006 0.79405 0.61757 0.0
H1480 H 0.53591 0.812 0.56755 0.0
H1481 H 0.60771 0.81044 0.59652 0.0
H1482 H 0.51557 0.79524 0.65959 0.0
H1483 H 0.44336 0.79704 0.63074 0.0
C1484 C 0.65111 0.80616 0.69047 0.0
C1485 C 0.69704 0.80232 0.68 0.0
C1486 C 0.6087 0.80594 0.67458 0.0
C1487 C 0.61138 0.80186 0.64793 0.0
C1488 C 0.65696 0.79751 0.63785 0.0
C1489 C 0.69929 0.79775 0.65369 0.0
C1490 C 0.5309 0.80831 0.58758 0.0
C1491 C 0.48389 0.80466 0.59683 0.0
C1492 C 0.57215 0.80733 0.60414 0.0
C1493 C 0.5674 0.80265 0.63033 0.0
C1494 C 0.52038 0.79899 0.6396 0.0
C1495 C 0.47906 0.79997 0.62302 0.0
H1496 H 0.19612 0.80295 0.20213 0.0
H1497 H 0.28309 0.8144 0.1339 0.0
H1498 H 0.12116 0.80423 0.17522 0.0
H1499 H 0.20842 0.81611 0.10737 0.0
H1500 H 0.07107 0.80734 0.05983 0.0
H1501 H 0.14439 0.80368 0.08691 0.0
H1502 H 0.06959 0.82054 0.1547 0.0
H1503 H -0.00429 0.82377 0.12781 0.0
C1504 C 0.19924 0.80572 0.1814 0.0
C1505 C 0.24552 0.80858 0.17016 0.0
C1506 C 0.15627 0.80654 0.16602 0.0
C1507 C 0.15869 0.81031 0.13913 0.0
C1508 C 0.20516 0.81297 0.12787 0.0
C1509 C 0.24804 0.81207 0.14316 0.0
C1510 C 0.07025 0.81023 0.08053 0.0
C1511 C 0.02766 0.81589 0.09165 0.0
C1512 C 0.11236 0.80818 0.09605 0.0
C1513 C 0.11302 0.81185 0.12299 0.0
C1514 C 0.07019 0.81741 0.13414 0.0
C1515 C 0.02792 0.81936 0.11867 0.0
H1516 H 0.61318 0.95301 0.97926 0.0
H1517 H 0.65376 0.99259 0.00207 0.0
H1518 H 0.5506 0.9526 0.01397 0.0
H1519 H 0.59082 0.99216 0.03697 0.0
H1520 H 0.53551 0.97444 0.11898 0.0
H1521 H 0.58553 0.97918 0.07973 0.0
H1522 H 0.47182 0.96265 0.02963 0.0
H1523 H 0.42187 0.95786 0.06875 0.0
C1524 C 0.60803 0.96173 0.99135 0.0
C1525 C 0.63859 0.9728 0.98802 0.0
C1526 C 0.57201 0.96152 0.01118 0.0
C1527 C 0.56603 0.97232 0.02831 0.0
C1528 C 0.59496 0.98365 0.0242 0.0
C1529 C 0.63068 0.98393 0.00409 0.0
C1530 C 0.52086 0.972 0.09957 0.0
C1531 C 0.47497 0.96563 0.09704 0.0
C1532 C 0.54937 0.97479 0.07707 0.0
C1533 C 0.53269 0.9712 0.05162 0.0
C1534 C 0.48584 0.9654 0.04901 0.0
C1535 C 0.45721 0.96269 0.07146 0.0
H1536 H 0.92591 0.56162 0.78892 0.0
H1537 H 6e-05 0.54021 0.85165 0.0
H1538 H 0.84927 0.56096 0.81427 0.0
H1539 H 0.92316 0.53929 0.8767 0.0
H1540 H 0.79793 0.55721 0.92731 0.0
H1541 H 0.87275 0.5549 0.9009 0.0
H1542 H 0.78438 0.54675 0.83129 0.0
H1543 H 0.70941 0.54935 0.85759 0.0
C1544 C 0.9257 0.55661 0.80793 0.0
C1545 C 0.96919 0.55107 0.81837 0.0
C1546 C 0.88168 0.55617 0.82242 0.0
C1547 C 0.88018 0.55015 0.8476 0.0
C1548 C 0.92329 0.5442 0.85757 0.0
C1549 C 0.9673 0.54467 0.84314 0.0
C1550 C 0.79443 0.55483 0.90642 0.0
C1551 C 0.7477 0.55355 0.89453 0.0
C1552 C 0.83736 0.55342 0.8913 0.0
C1553 C 0.83454 0.55068 0.86395 0.0
C1554 C 0.7878 0.54905 0.85222 0.0
C1555 C 0.74485 0.55046 0.86735 0.0
H1556 H 0.30684 0.74627 0.7848 0.0
H1557 H 0.37253 0.71043 0.75477 0.0
H1558 H 0.37496 0.74859 0.81628 0.0
H1559 H 0.44017 0.71273 0.78629 0.0
H1560 H 0.56893 0.72262 0.83792 0.0
H1561 H 0.51192 0.72602 0.801 0.0
H1562 H 0.3954 0.73532 0.85649 0.0
H1563 H 0.45236 0.73205 0.89343 0.0
C1564 C 0.33627 0.73903 0.78452 0.0
C1565 C 0.33398 0.72806 0.76753 0.0
C1566 C 0.3751 0.74034 0.80265 0.0
C1567 C 0.41258 0.73078 0.80393 0.0
C1568 C 0.41202 0.72031 0.78568 0.0
C1569 C 0.37307 0.71895 0.7677 0.0
C1570 C 0.53136 0.7256 0.84225 0.0
C1571 C 0.51496 0.72689 0.86863 0.0
C1572 C 0.49873 0.72751 0.82109 0.0
C1573 C 0.44916 0.73084 0.82586 0.0
C1574 C 0.43351 0.73288 0.85216 0.0
C1575 C 0.46607 0.73091 0.87335 0.0
H1576 H 0.96136 0.71344 0.40011 0.0
H1577 H 0.04038 0.68765 0.34669 0.0
H1578 H 0.89495 0.7155 0.36768 0.0
H1579 H 0.97331 0.68942 0.31456 0.0
H1580 H 0.8545 0.70073 0.25508 0.0
H1581 H 0.92653 0.70338 0.28403 0.0
H1582 H 0.83184 0.70049 0.35291 0.0
H1583 H 0.7604 0.69816 0.32426 0.0
C1584 C 0.96472 0.70828 0.38138 0.0
C1585 C 0.00583 0.70024 0.37611 0.0
C1586 C 0.92658 0.70942 0.36283 0.0
C1587 C 0.92854 0.70249 0.33868 0.0
C1588 C 0.97081 0.69497 0.33287 0.0
C1589 C 0.00912 0.69389 0.35138 0.0
C1590 C 0.84914 0.70082 0.27641 0.0
C1591 C 0.8018 0.69916 0.28738 0.0
C1592 C 0.89037 0.70228 0.29297 0.0
C1593 C 0.88493 0.70214 0.32078 0.0
C1594 C 0.83734 0.70085 0.33161 0.0
C1595 C 0.79634 0.69939 0.31513 0.0
H1596 H 0.51594 0.52769 0.3444 0.0
H1597 H 0.41775 0.54458 0.28575 0.0
H1598 H 0.44832 0.5268 0.3762 0.0
H1599 H 0.35028 0.54398 0.31783 0.0
H1600 H 0.22971 0.53158 0.37542 0.0
H1601 H 0.29605 0.52948 0.34294 0.0
H1602 H 0.40143 0.54257 0.4018 0.0
H1603 H 0.33543 0.54438 0.4344 0.0
C1604 C 0.47988 0.53119 0.33826 0.0
C1605 C 0.47227 0.5363 0.31261 0.0
C1606 C 0.44118 0.53074 0.35655 0.0
C1607 C 0.39403 0.53542 0.34964 0.0
C1608 C 0.38605 0.54017 0.32371 0.0
C1609 C 0.42477 0.54059 0.30536 0.0
C1610 C 0.2671 0.53391 0.38148 0.0
C1611 C 0.27729 0.53819 0.40747 0.0
C1612 C 0.30505 0.53278 0.36282 0.0
C1613 C 0.35398 0.5359 0.36975 0.0
C1614 C 0.36425 0.53992 0.3959 0.0
C1615 C 0.32635 0.54103 0.41457 0.0
H1616 H 0.99038 0.44606 0.15043 0.0
H1617 H 0.09471 0.43366 0.21052 0.0
H1618 H 0.0579 0.44956 0.11933 0.0
H1619 H 0.16233 0.43683 0.17911 0.0
H1620 H 0.27571 0.45535 0.12339 0.0
H1621 H 0.20806 0.45352 0.15513 0.0
H1622 H 0.1155 0.43659 0.09406 0.0
H1623 H 0.18265 0.43873 0.06218 0.0
C1624 C 0.02775 0.44406 0.15701 0.0
C1625 C 0.03717 0.43953 0.18292 0.0
C1626 C 0.06646 0.446 0.13911 0.0
C1627 C 0.11551 0.44339 0.14665 0.0
C1628 C 0.12502 0.43907 0.17274 0.0
C1629 C 0.08626 0.43719 0.19071 0.0
C1630 C 0.24084 0.45129 0.1167 0.0
C1631 C 0.23456 0.44718 0.09025 0.0
C1632 C 0.20216 0.45017 0.13495 0.0
C1633 C 0.15637 0.44489 0.12717 0.0
C1634 C 0.15004 0.44088 0.10064 0.0
C1635 C 0.18864 0.44204 0.08238 0.0
H1636 H 0.67965 0.27316 0.17183 0.0
H1637 H 0.80685 0.28072 0.12219 0.0
H1638 H 0.62697 0.2729 0.1325 0.0
H1639 H 0.75415 0.28032 0.08288 0.0
H1640 H 0.62995 0.29842 0.02937 0.0
H1641 H 0.68948 0.29507 0.06507 0.0
H1642 H 0.60892 0.26064 0.09107 0.0
H1643 H 0.54897 0.26404 0.05549 0.0
C1644 C 0.69646 0.27461 0.15252 0.0
C1645 C 0.74737 0.27706 0.15018 0.0
C1646 C 0.66633 0.27437 0.12996 0.0
C1647 C 0.68642 0.27662 0.10459 0.0
C1648 C 0.73754 0.2787 0.10219 0.0
C1649 C 0.76771 0.27888 0.12472 0.0
C1650 C 0.62534 0.29001 0.04241 0.0
C1651 C 0.58442 0.28158 0.03974 0.0
C1652 C 0.6596 0.28806 0.06282 0.0
C1653 C 0.65359 0.27766 0.08104 0.0
C1654 C 0.61407 0.26885 0.07757 0.0
C1655 C 0.57994 0.27076 0.05706 0.0
H1656 H 0.08544 0.28576 0.53051 0.0
H1657 H 0.0214 0.25431 0.57718 0.0
H1658 H 0.15752 0.28585 0.5595 0.0
H1659 H 0.09384 0.25434 0.60604 0.0
H1660 H 0.18674 0.27545 0.67182 0.0
H1661 H 0.1225 0.27069 0.63925 0.0
H1662 H 0.22999 0.27343 0.57608 0.0
H1663 H 0.29429 0.27831 0.60861 0.0
C1664 C 0.08719 0.27867 0.54659 0.0
C1665 C 0.04735 0.27015 0.55174 0.0
C1666 C 0.12862 0.27869 0.56316 0.0
C1667 C 0.13102 0.27021 0.58525 0.0
C1668 C 0.09261 0.26113 0.58941 0.0
C1669 C 0.05127 0.26106 0.57276 0.0
C1670 C 0.1968 0.27491 0.65102 0.0
C1671 C 0.24552 0.27738 0.6428 0.0
C1672 C 0.16006 0.27207 0.63237 0.0
C1673 C 0.17121 0.27171 0.60509 0.0
C1674 C 0.22024 0.27376 0.59694 0.0
C1675 C 0.25704 0.27652 0.61561 0.0
H1676 H 0.47231 0.4427 0.62921 0.0
H1677 H 0.54517 0.45408 0.70209 0.0
H1678 H 0.55082 0.44341 0.60597 0.0
H1679 H 0.62382 0.45526 0.67854 0.0
H1680 H 0.75817 0.43633 0.6373 0.0
H1681 H 0.68057 0.43972 0.66051 0.0
H1682 H 0.61694 0.45644 0.5892 0.0
H1683 H 0.69439 0.4526 0.56567 0.0
C1684 C 0.50497 0.44561 0.64018 0.0
C1685 C 0.5026 0.44818 0.66757 0.0
C1686 C 0.55006 0.4461 0.62678 0.0
C1687 C 0.5938 0.4493 0.6404 0.0
C1688 C 0.59099 0.45251 0.66755 0.0
C1689 C 0.54588 0.45191 0.68102 0.0
C1690 C 0.72777 0.44082 0.6266 0.0
C1691 C 0.73226 0.44408 0.59957 0.0
C1692 C 0.6833 0.44287 0.63999 0.0
C1693 C 0.64236 0.44833 0.62673 0.0
C1694 C 0.64746 0.45202 0.5999 0.0
C1695 C 0.69189 0.44986 0.58644 0.0
loop_
_geom_bond_atom_site_label_1
_geom_bond_atom_site_label_2
_geom_bond_distance
_geom_bond_site_symmetry_2
_ccdc_geom_bond_type
C0 O1 1.160 . S
C0 O7 1.185 . S
O1 C0 1.160 . S
O2 Zn3 1.899 . S
O2 C10 1.284 . S
Zn3 O2 1.899 . S
Zn3 O4 2.032 . S
Zn3 O7 2.086 . S
Zn3 O12 1.977 . S
O4 Zn3 2.032 . S
O4 C8 1.278 . S
C5 O6 1.203 . S
C5 O12 1.267 . S
O6 C5 1.203 . S
O7 C0 1.185 . S
O7 Zn3 2.086 . S
C8 O4 1.278 . S
C8 O9 1.211 . S
O9 C8 1.211 . S
C10 O2 1.284 . S
C10 O11 1.273 . S
O11 C10 1.273 . S
O12 Zn3 1.977 . S
O12 C5 1.267 . S
C13 O14 1.160 . S
C13 O20 1.185 . S
O14 C13 1.160 . S
O15 Zn16 1.899 . S
O15 C23 1.284 . S
Zn16 O15 1.899 . S
Zn16 O17 2.032 . S
Zn16 O20 2.086 . S
Zn16 O25 1.977 . S
O17 Zn16 2.032 . S
O17 C21 1.278 . S
C18 O19 1.203 . S
C18 O25 1.267 . S
O19 C18 1.203 . S
O20 C13 1.185 . S
O20 Zn16 2.086 . S
C21 O17 1.278 . S
C21 O22 1.211 . S
O22 C21 1.211 . S
C23 O15 1.284 . S
C23 O24 1.273 . S
O24 C23 1.273 . S
O25 Zn16 1.977 . S
O25 C18 1.267 . S
C26 O27 1.160 . S
C26 O33 1.185 . S
O27 C26 1.160 . S
O28 Zn29 1.899 . S
O28 C36 1.284 . S
Zn29 O28 1.899 . S
Zn29 O30 2.032 . S
Zn29 O33 2.086 . S
Zn29 O38 1.977 1_556 S
O30 Zn29 2.032 . S
O30 C34 1.278 . S
C31 O32 1.203 . S
C31 O38 1.267 . S
O32 C31 1.203 . S
O33 C26 1.185 . S
O33 Zn29 2.086 . S
C34 O30 1.278 . S
C34 O35 1.211 1_556 S
O35 C34 1.211 1_554 S
C36 O28 1.284 . S
C36 O37 1.273 . S
O37 C36 1.273 . S
O38 Zn29 1.977 1_554 S
O38 C31 1.267 . S
C39 O40 1.160 . S
C39 O46 1.185 . S
O40 C39 1.160 . S
O41 Zn42 1.899 . S
O41 C49 1.284 . S
Zn42 O41 1.899 . S
Zn42 O43 2.032 . S
Zn42 O46 2.086 . S
Zn42 O51 1.977 1_556 S
O43 Zn42 2.032 . S
O43 C47 1.278 . S
C44 O45 1.203 . S
C44 O51 1.267 . S
O45 C44 1.203 . S
O46 C39 1.185 . S
O46 Zn42 2.086 . S
C47 O43 1.278 . S
C47 O48 1.211 1_556 S
O48 C47 1.211 1_554 S
C49 O41 1.284 . S
C49 O50 1.273 . S
O50 C49 1.273 . S
O51 Zn42 1.977 1_554 S
O51 C44 1.267 . S
C52 O53 1.160 . S
C52 O59 1.185 . S
O53 C52 1.160 . S
O54 Zn55 1.899 . S
O54 C62 1.284 . S
Zn55 O54 1.899 . S
Zn55 O56 2.032 . S
Zn55 O59 2.086 . S
Zn55 O64 1.977 . S
O56 Zn55 2.032 . S
O56 C60 1.278 . S
C57 O58 1.203 . S
C57 O64 1.267 . S
O58 C57 1.203 . S
O59 C52 1.185 . S
O59 Zn55 2.086 . S
C60 O56 1.278 . S
C60 O61 1.211 . S
O61 C60 1.211 . S
C62 O54 1.284 . S
C62 O63 1.273 . S
O63 C62 1.273 . S
O64 Zn55 1.977 . S
O64 C57 1.267 . S
C65 O66 1.160 . S
C65 O72 1.185 . S
O66 C65 1.160 . S
O67 Zn68 1.899 . S
O67 C75 1.284 . S
Zn68 O67 1.899 . S
Zn68 O69 2.032 . S
Zn68 O72 2.086 . S
Zn68 O77 1.977 . S
O69 Zn68 2.032 . S
O69 C73 1.278 . S
C70 O71 1.203 . S
C70 O77 1.267 . S
O71 C70 1.203 . S
O72 C65 1.185 . S
O72 Zn68 2.086 . S
C73 O69 1.278 . S
C73 O74 1.211 . S
O74 C73 1.211 . S
C75 O67 1.284 . S
C75 O76 1.273 . S
O76 C75 1.273 . S
O77 Zn68 1.977 . S
O77 C70 1.267 . S
C78 O79 1.160 . S
C78 O85 1.185 . S
O79 C78 1.160 . S
O80 Zn81 1.899 . S
O80 C88 1.284 . S
Zn81 O80 1.899 . S
Zn81 O82 2.032 . S
Zn81 O85 2.086 . S
Zn81 O90 1.977 1_554 S
O82 Zn81 2.032 . S
O82 C86 1.278 . S
C83 O84 1.203 . S
C83 O90 1.267 . S
O84 C83 1.203 . S
O85 C78 1.185 . S
O85 Zn81 2.086 . S
C86 O82 1.278 . S
C86 O87 1.211 1_554 S
O87 C86 1.211 1_556 S
C88 O80 1.284 . S
C88 O89 1.273 . S
O89 C88 1.273 . S
O90 Zn81 1.977 1_556 S
O90 C83 1.267 . S
C91 O92 1.160 . S
C91 O98 1.185 . S
O92 C91 1.160 . S
O93 Zn94 1.899 . S
O93 C101 1.284 . S
Zn94 O93 1.899 . S
Zn94 O95 2.032 . S
Zn94 O98 2.086 . S
Zn94 O103 1.977 1_554 S
O95 Zn94 2.032 . S
O95 C99 1.278 . S
C96 O97 1.203 . S
C96 O103 1.267 . S
O97 C96 1.203 . S
O98 C91 1.185 . S
O98 Zn94 2.086 . S
C99 O95 1.278 . S
C99 O100 1.211 1_554 S
O100 C99 1.211 1_556 S
C101 O93 1.284 . S
C101 O102 1.273 . S
O102 C101 1.273 . S
O103 Zn94 1.977 1_556 S
O103 C96 1.267 . S
C104 O105 1.160 . S
C104 O111 1.185 . S
O105 C104 1.160 . S
O106 Zn107 1.899 . S
O106 C114 1.284 . S
Zn107 O106 1.899 . S
Zn107 O108 2.032 . S
Zn107 O111 2.086 . S
Zn107 O116 1.977 . S
O108 Zn107 2.032 . S
O108 C112 1.278 . S
C109 O110 1.203 . S
C109 O116 1.267 . S
O110 C109 1.203 . S
O111 C104 1.185 . S
O111 Zn107 2.086 . S
C112 O108 1.278 . S
C112 O113 1.211 . S
O113 C112 1.211 . S
C114 O106 1.284 . S
C114 O115 1.273 . S
O115 C114 1.273 . S
O116 Zn107 1.977 . S
O116 C109 1.267 . S
C117 O118 1.160 . S
C117 O124 1.185 . S
O118 C117 1.160 . S
O119 Zn120 1.899 . S
O119 C127 1.284 . S
Zn120 O119 1.899 . S
Zn120 O121 2.032 . S
Zn120 O124 2.086 . S
Zn120 O129 1.977 . S
O121 Zn120 2.032 . S
O121 C125 1.278 . S
C122 O123 1.203 . S
C122 O129 1.267 . S
O123 C122 1.203 . S
O124 C117 1.185 . S
O124 Zn120 2.086 . S
C125 O121 1.278 . S
C125 O126 1.211 . S
O126 C125 1.211 . S
C127 O119 1.284 . S
C127 O128 1.273 . S
O128 C127 1.273 . S
O129 Zn120 1.977 . S
O129 C122 1.267 . S
C130 O131 1.160 . S
C130 O137 1.185 . S
O131 C130 1.160 . S
O132 Zn133 1.899 . S
O132 C140 1.284 . S
Zn133 O132 1.899 . S
Zn133 O134 2.032 . S
Zn133 O137 2.086 . S
Zn133 O142 1.977 . S
O134 Zn133 2.032 . S
O134 C138 1.278 . S
C135 O136 1.203 . S
C135 O142 1.267 . S
O136 C135 1.203 . S
O137 C130 1.185 . S
O137 Zn133 2.086 . S
C138 O134 1.278 . S
C138 O139 1.211 . S
O139 C138 1.211 . S
C140 O132 1.284 . S
C140 O141 1.273 . S
O141 C140 1.273 . S
O142 Zn133 1.977 . S
O142 C135 1.267 . S
C143 O144 1.160 . S
C143 O150 1.185 . S
O144 C143 1.160 . S
O145 Zn146 1.899 . S
O145 C153 1.284 . S
Zn146 O145 1.899 . S
Zn146 O147 2.032 . S
Zn146 O150 2.086 . S
Zn146 O155 1.977 . S
O147 Zn146 2.032 . S
O147 C151 1.278 . S
C148 O149 1.203 . S
C148 O155 1.267 . S
O149 C148 1.203 . S
O150 C143 1.185 . S
O150 Zn146 2.086 . S
C151 O147 1.278 . S
C151 O152 1.211 . S
O152 C151 1.211 . S
C153 O145 1.284 . S
C153 O154 1.273 . S
O154 C153 1.273 . S
O155 Zn146 1.977 . S
O155 C148 1.267 . S
C156 O157 1.160 . S
C156 O163 1.185 . S
O157 C156 1.160 . S
O158 Zn159 1.899 . S
O158 C166 1.284 . S
Zn159 O158 1.899 . S
Zn159 O160 2.032 . S
Zn159 O163 2.086 . S
Zn159 O168 1.977 . S
O160 Zn159 2.032 . S
O160 C164 1.278 . S
C161 O162 1.203 . S
C161 O168 1.267 . S
O162 C161 1.203 . S
O163 C156 1.185 . S
O163 Zn159 2.086 . S
C164 O160 1.278 . S
C164 O165 1.211 . S
O165 C164 1.211 . S
C166 O158 1.284 . S
C166 O167 1.273 . S
O167 C166 1.273 . S
O168 Zn159 1.977 . S
O168 C161 1.267 . S
C169 O170 1.160 . S
C169 O176 1.185 . S
O170 C169 1.160 . S
O171 Zn172 1.899 . S
O171 C179 1.284 . S
Zn172 O171 1.899 . S
Zn172 O173 2.032 . S
Zn172 O176 2.086 . S
Zn172 O181 1.977 . S
O173 Zn172 2.032 . S
O173 C177 1.278 . S
C174 O175 1.203 . S
C174 O181 1.267 . S
O175 C174 1.203 . S
O176 C169 1.185 . S
O176 Zn172 2.086 . S
C177 O173 1.278 . S
C177 O178 1.211 . S
O178 C177 1.211 . S
C179 O171 1.284 . S
C179 O180 1.273 . S
O180 C179 1.273 . S
O181 Zn172 1.977 . S
O181 C174 1.267 . S
C182 O183 1.160 . S
C182 O189 1.185 . S
O183 C182 1.160 . S
O184 Zn185 1.899 . S
O184 C192 1.284 . S
Zn185 O184 1.899 . S
Zn185 O186 2.032 . S
Zn185 O189 2.086 . S
Zn185 O194 1.977 . S
O186 Zn185 2.032 . S
O186 C190 1.278 . S
C187 O188 1.203 . S
C187 O194 1.267 . S
O188 C187 1.203 . S
O189 C182 1.185 . S
O189 Zn185 2.086 . S
C190 O186 1.278 . S
C190 O191 1.211 . S
O191 C190 1.211 . S
C192 O184 1.284 . S
C192 O193 1.273 . S
O193 C192 1.273 . S
O194 Zn185 1.977 . S
O194 C187 1.267 . S
C195 O196 1.160 . S
C195 O202 1.185 . S
O196 C195 1.160 . S
O197 Zn198 1.899 . S
O197 C205 1.284 . S
Zn198 O197 1.899 . S
Zn198 O199 2.032 . S
Zn198 O202 2.086 . S
Zn198 O207 1.977 . S
O199 Zn198 2.032 . S
O199 C203 1.278 . S
C200 O201 1.203 . S
C200 O207 1.267 . S
O201 C200 1.203 . S
O202 C195 1.185 . S
O202 Zn198 2.086 . S
C203 O199 1.278 . S
C203 O204 1.211 . S
O204 C203 1.211 . S
C205 O197 1.284 . S
C205 O206 1.273 . S
O206 C205 1.273 . S
O207 Zn198 1.977 . S
O207 C200 1.267 . S
C208 O209 1.160 . S
C208 O215 1.185 . S
O209 C208 1.160 . S
O210 Zn211 1.899 . S
O210 C218 1.284 . S
Zn211 O210 1.899 . S
Zn211 O212 2.032 . S
Zn211 O215 2.086 . S
Zn211 O220 1.977 . S
O212 Zn211 2.032 . S
O212 C216 1.278 . S
C213 O214 1.203 . S
C213 O220 1.267 . S
O214 C213 1.203 . S
O215 C208 1.185 . S
O215 Zn211 2.086 . S
C216 O212 1.278 . S
C216 O217 1.211 . S
O217 C216 1.211 . S
C218 O210 1.284 . S
C218 O219 1.273 . S
O219 C218 1.273 . S
O220 Zn211 1.977 . S
O220 C213 1.267 . S
C221 O222 1.160 . S
C221 O228 1.185 . S
O222 C221 1.160 . S
O223 Zn224 1.899 . S
O223 C231 1.284 . S
Zn224 O223 1.899 . S
Zn224 O225 2.032 . S
Zn224 O228 2.086 . S
Zn224 O233 1.977 . S
O225 Zn224 2.032 . S
O225 C229 1.278 . S
C226 O227 1.203 . S
C226 O233 1.267 . S
O227 C226 1.203 . S
O228 C221 1.185 . S
O228 Zn224 2.086 . S
C229 O225 1.278 . S
C229 O230 1.211 . S
O230 C229 1.211 . S
C231 O223 1.284 . S
C231 O232 1.273 . S
O232 C231 1.273 . S
O233 Zn224 1.977 . S
O233 C226 1.267 . S
C234 O235 1.160 . S
C234 O241 1.185 . S
O235 C234 1.160 . S
O236 Zn237 1.899 . S
O236 C244 1.284 . S
Zn237 O236 1.899 . S
Zn237 O238 2.032 . S
Zn237 O241 2.086 . S
Zn237 O246 1.977 . S
O238 Zn237 2.032 . S
O238 C242 1.278 . S
C239 O240 1.203 . S
C239 O246 1.267 . S
O240 C239 1.203 . S
O241 C234 1.185 . S
O241 Zn237 2.086 . S
C242 O238 1.278 . S
C242 O243 1.211 . S
O243 C242 1.211 . S
C244 O236 1.284 . S
C244 O245 1.273 . S
O245 C244 1.273 . S
O246 Zn237 1.977 . S
O246 C239 1.267 . S
C247 O248 1.160 . S
C247 O254 1.185 . S
O248 C247 1.160 . S
O249 Zn250 1.899 . S
O249 C257 1.284 . S
Zn250 O249 1.899 . S
Zn250 O251 2.032 . S
Zn250 O254 2.086 . S
Zn250 O259 1.977 . S
O251 Zn250 2.032 . S
O251 C255 1.278 . S
C252 O253 1.203 . S
C252 O259 1.267 . S
O253 C252 1.203 . S
O254 C247 1.185 . S
O254 Zn250 2.086 . S
C255 O251 1.278 . S
C255 O256 1.211 . S
O256 C255 1.211 . S
C257 O249 1.284 . S
C257 O258 1.273 . S
O258 C257 1.273 . S
O259 Zn250 1.977 . S
O259 C252 1.267 . S
C260 O261 1.160 . S
C260 O267 1.185 . S
O261 C260 1.160 . S
O262 Zn263 1.899 . S
O262 C270 1.284 . S
Zn263 O262 1.899 . S
Zn263 O264 2.032 . S
Zn263 O267 2.086 . S
Zn263 O272 1.977 . S
O264 Zn263 2.032 . S
O264 C268 1.278 . S
C265 O266 1.203 . S
C265 O272 1.267 . S
O266 C265 1.203 . S
O267 C260 1.185 . S
O267 Zn263 2.086 . S
C268 O264 1.278 . S
C268 O269 1.211 . S
O269 C268 1.211 . S
C270 O262 1.284 . S
C270 O271 1.273 . S
O271 C270 1.273 . S
O272 Zn263 1.977 . S
O272 C265 1.267 . S
C273 O274 1.160 . S
C273 O280 1.185 . S
O274 C273 1.160 . S
O275 Zn276 1.899 . S
O275 C283 1.284 . S
Zn276 O275 1.899 . S
Zn276 O277 2.032 . S
Zn276 O280 2.086 . S
Zn276 O285 1.977 . S
O277 Zn276 2.032 . S
O277 C281 1.278 . S
C278 O279 1.203 . S
C278 O285 1.267 . S
O279 C278 1.203 . S
O280 C273 1.185 . S
O280 Zn276 2.086 . S
C281 O277 1.278 . S
C281 O282 1.211 . S
O282 C281 1.211 . S
C283 O275 1.284 . S
C283 O284 1.273 . S
O284 C283 1.273 . S
O285 Zn276 1.977 . S
O285 C278 1.267 . S
C286 O287 1.160 . S
C286 O293 1.185 . S
O287 C286 1.160 . S
O288 Zn289 1.899 . S
O288 C296 1.284 . S
Zn289 O288 1.899 . S
Zn289 O290 2.032 . S
Zn289 O293 2.086 . S
Zn289 O298 1.977 . S
O290 Zn289 2.032 . S
O290 C294 1.278 . S
C291 O292 1.203 . S
C291 O298 1.267 . S
O292 C291 1.203 . S
O293 C286 1.185 . S
O293 Zn289 2.086 . S
C294 O290 1.278 . S
C294 O295 1.211 . S
O295 C294 1.211 . S
C296 O288 1.284 . S
C296 O297 1.273 . S
O297 C296 1.273 . S
O298 Zn289 1.977 . S
O298 C291 1.267 . S
C299 O300 1.160 . S
C299 O306 1.185 . S
O300 C299 1.160 . S
O301 Zn302 1.899 . S
O301 C309 1.284 . S
Zn302 O301 1.899 . S
Zn302 O303 2.032 . S
Zn302 O306 2.086 . S
Zn302 O311 1.977 . S
O303 Zn302 2.032 . S
O303 C307 1.278 . S
C304 O305 1.203 . S
C304 O311 1.267 . S
O305 C304 1.203 . S
O306 C299 1.185 . S
O306 Zn302 2.086 . S
C307 O303 1.278 . S
C307 O308 1.211 . S
O308 C307 1.211 . S
C309 O301 1.284 . S
C309 O310 1.273 . S
O310 C309 1.273 . S
O311 Zn302 1.977 . S
O311 C304 1.267 . S
C312 O313 1.160 . S
C312 O319 1.185 . S
O313 C312 1.160 . S
O314 Zn315 1.899 . S
O314 C322 1.284 . S
Zn315 O314 1.899 . S
Zn315 O316 2.032 . S
Zn315 O319 2.086 . S
Zn315 O324 1.977 . S
O316 Zn315 2.032 . S
O316 C320 1.278 . S
C317 O318 1.203 . S
C317 O324 1.267 . S
O318 C317 1.203 . S
O319 C312 1.185 . S
O319 Zn315 2.086 . S
C320 O316 1.278 . S
C320 O321 1.211 . S
O321 C320 1.211 . S
C322 O314 1.284 . S
C322 O323 1.273 . S
O323 C322 1.273 . S
O324 Zn315 1.977 . S
O324 C317 1.267 . S
C325 O326 1.160 . S
C325 O332 1.185 . S
O326 C325 1.160 . S
O327 Zn328 1.899 . S
O327 C335 1.284 . S
Zn328 O327 1.899 . S
Zn328 O329 2.032 . S
Zn328 O332 2.086 . S
Zn328 O337 1.977 . S
O329 Zn328 2.032 . S
O329 C333 1.278 . S
C330 O331 1.203 . S
C330 O337 1.267 . S
O331 C330 1.203 . S
O332 C325 1.185 . S
O332 Zn328 2.086 . S
C333 O329 1.278 . S
C333 O334 1.211 . S
O334 C333 1.211 . S
C335 O327 1.284 . S
C335 O336 1.273 . S
O336 C335 1.273 . S
O337 Zn328 1.977 . S
O337 C330 1.267 . S
C338 O339 1.160 . S
C338 O345 1.185 . S
O339 C338 1.160 . S
O340 Zn341 1.899 . S
O340 C348 1.284 . S
Zn341 O340 1.899 . S
Zn341 O342 2.032 . S
Zn341 O345 2.086 . S
Zn341 O350 1.977 1_556 S
O342 Zn341 2.032 . S
O342 C346 1.278 . S
C343 O344 1.203 . S
C343 O350 1.267 . S
O344 C343 1.203 . S
O345 C338 1.185 . S
O345 Zn341 2.086 . S
C346 O342 1.278 . S
C346 O347 1.211 1_556 S
O347 C346 1.211 1_554 S
C348 O340 1.284 . S
C348 O349 1.273 . S
O349 C348 1.273 . S
O350 Zn341 1.977 1_554 S
O350 C343 1.267 . S
C351 O352 1.160 . S
C351 O358 1.185 . S
O352 C351 1.160 . S
O353 Zn354 1.899 . S
O353 C361 1.284 . S
Zn354 O353 1.899 . S
Zn354 O355 2.032 . S
Zn354 O358 2.086 . S
Zn354 O363 1.977 1_556 S
O355 Zn354 2.032 . S
O355 C359 1.278 . S
C356 O357 1.203 . S
C356 O363 1.267 . S
O357 C356 1.203 . S
O358 C351 1.185 . S
O358 Zn354 2.086 . S
C359 O355 1.278 . S
C359 O360 1.211 1_556 S
O360 C359 1.211 1_554 S
C361 O353 1.284 . S
C361 O362 1.273 . S
O362 C361 1.273 . S
O363 Zn354 1.977 1_554 S
O363 C356 1.267 . S
C364 O365 1.160 . S
C364 O371 1.185 . S
O365 C364 1.160 . S
O366 Zn367 1.899 . S
O366 C374 1.284 . S
Zn367 O366 1.899 . S
Zn367 O368 2.032 . S
Zn367 O371 2.086 . S
Zn367 O376 1.977 . S
O368 Zn367 2.032 . S
O368 C372 1.278 . S
C369 O370 1.203 . S
C369 O376 1.267 . S
O370 C369 1.203 . S
O371 C364 1.185 . S
O371 Zn367 2.086 . S
C372 O368 1.278 . S
C372 O373 1.211 . S
O373 C372 1.211 . S
C374 O366 1.284 . S
C374 O375 1.273 . S
O375 C374 1.273 . S
O376 Zn367 1.977 . S
O376 C369 1.267 . S
C377 O378 1.160 . S
C377 O384 1.185 . S
O378 C377 1.160 . S
O379 Zn380 1.899 . S
O379 C387 1.284 . S
Zn380 O379 1.899 . S
Zn380 O381 2.032 . S
Zn380 O384 2.086 . S
Zn380 O389 1.977 . S
O381 Zn380 2.032 . S
O381 C385 1.278 . S
C382 O383 1.203 . S
C382 O389 1.267 . S
O383 C382 1.203 . S
O384 C377 1.185 . S
O384 Zn380 2.086 . S
C385 O381 1.278 . S
C385 O386 1.211 . S
O386 C385 1.211 . S
C387 O379 1.284 . S
C387 O388 1.273 . S
O388 C387 1.273 . S
O389 Zn380 1.977 . S
O389 C382 1.267 . S
C390 O391 1.160 . S
C390 O397 1.185 . S
O391 C390 1.160 . S
O392 Zn393 1.899 . S
O392 C400 1.284 . S
Zn393 O392 1.899 . S
Zn393 O394 2.032 . S
Zn393 O397 2.086 . S
Zn393 O402 1.977 1_554 S
O394 Zn393 2.032 . S
O394 C398 1.278 . S
C395 O396 1.203 . S
C395 O402 1.267 . S
O396 C395 1.203 . S
O397 C390 1.185 . S
O397 Zn393 2.086 . S
C398 O394 1.278 . S
C398 O399 1.211 1_554 S
O399 C398 1.211 1_556 S
C400 O392 1.284 . S
C400 O401 1.273 . S
O401 C400 1.273 . S
O402 Zn393 1.977 1_556 S
O402 C395 1.267 . S
C403 O404 1.160 . S
C403 O410 1.185 . S
O404 C403 1.160 . S
O405 Zn406 1.899 . S
O405 C413 1.284 . S
Zn406 O405 1.899 . S
Zn406 O407 2.032 . S
Zn406 O410 2.086 . S
Zn406 O415 1.977 1_554 S
O407 Zn406 2.032 . S
O407 C411 1.278 . S
C408 O409 1.203 . S
C408 O415 1.267 . S
O409 C408 1.203 . S
O410 C403 1.185 . S
O410 Zn406 2.086 . S
C411 O407 1.278 . S
C411 O412 1.211 1_554 S
O412 C411 1.211 1_556 S
C413 O405 1.284 . S
C413 O414 1.273 . S
O414 C413 1.273 . S
O415 Zn406 1.977 1_556 S
O415 C408 1.267 . S
H416 C424 0.950 . S
H417 C429 0.950 . S
H418 C426 0.950 . S
H419 C428 0.950 . S
H420 C430 0.950 . S
H421 C432 0.950 . S
H422 C434 0.950 . S
H423 C435 0.950 . S
C424 H416 0.950 . S
C424 C425 1.386 . S
C424 C426 1.391 . S
C425 C424 1.386 . S
C425 C429 1.393 . S
C426 H418 0.950 . S
C426 C424 1.391 . S
C426 C427 1.400 . S
C427 C426 1.400 . S
C427 C428 1.398 . S
C427 C433 1.491 . S
C428 H419 0.950 . S
C428 C427 1.398 . S
C428 C429 1.391 . S
C429 H417 0.950 . S
C429 C425 1.393 . S
C429 C428 1.391 . S
C430 H420 0.950 . S
C430 C431 1.386 . S
C430 C432 1.391 . S
C431 C430 1.386 . S
C431 C435 1.393 . S
C432 H421 0.950 . S
C432 C430 1.391 . S
C432 C433 1.400 . S
C433 C427 1.491 . S
C433 C432 1.400 . S
C433 C434 1.398 . S
C434 H422 0.950 . S
C434 C433 1.398 . S
C434 C435 1.391 . S
C435 H423 0.950 . S
C435 C431 1.393 . S
C435 C434 1.391 . S
H436 C444 0.950 . S
H437 C449 0.950 . S
H438 C446 0.950 . S
H439 C448 0.950 . S
H440 C450 0.950 . S
H441 C452 0.950 . S
H442 C454 0.950 . S
H443 C455 0.950 . S
C444 H436 0.950 . S
C444 C445 1.386 . S
C444 C446 1.391 . S
C445 C444 1.386 . S
C445 C449 1.393 . S
C446 H438 0.950 . S
C446 C444 1.391 . S
C446 C447 1.400 . S
C447 C446 1.400 . S
C447 C448 1.398 . S
C447 C453 1.491 . S
C448 H439 0.950 . S
C448 C447 1.398 . S
C448 C449 1.391 . S
C449 H437 0.950 . S
C449 C445 1.393 . S
C449 C448 1.391 . S
C450 H440 0.950 . S
C450 C451 1.386 . S
C450 C452 1.391 . S
C451 C450 1.386 . S
C451 C455 1.393 . S
C452 H441 0.950 . S
C452 C450 1.391 . S
C452 C453 1.400 . S
C453 C447 1.491 . S
C453 C452 1.400 . S
C453 C454 1.398 . S
C454 H442 0.950 . S
C454 C453 1.398 . S
C454 C455 1.391 . S
C455 H443 0.950 . S
C455 C451 1.393 . S
C455 C454 1.391 . S
H456 C464 0.950 . S
H457 C469 0.950 . S
H458 C466 0.950 . S
H459 C468 0.950 . S
H460 C470 0.950 . S
H461 C472 0.950 . S
H462 C474 0.950 . S
H463 C475 0.950 . S
C464 H456 0.950 . S
C464 C465 1.386 . S
C464 C466 1.391 . S
C465 C464 1.386 . S
C465 C469 1.393 . S
C466 H458 0.950 . S
C466 C464 1.391 . S
C466 C467 1.400 . S
C467 C466 1.400 . S
C467 C468 1.398 . S
C467 C473 1.491 . S
C468 H459 0.950 . S
C468 C467 1.398 . S
C468 C469 1.391 . S
C469 H457 0.950 . S
C469 C465 1.393 . S
C469 C468 1.391 . S
C470 H460 0.950 . S
C470 C471 1.386 . S
C470 C472 1.391 . S
C471 C470 1.386 . S
C471 C475 1.393 . S
C472 H461 0.950 . S
C472 C470 1.391 . S
C472 C473 1.400 . S
C473 C467 1.491 . S
C473 C472 1.400 . S
C473 C474 1.398 . S
C474 H462 0.950 . S
C474 C473 1.398 . S
C474 C475 1.391 . S
C475 H463 0.950 . S
C475 C471 1.393 . S
C475 C474 1.391 . S
H476 C484 0.950 . S
H477 C489 0.950 . S
H478 C486 0.950 . S
H479 C488 0.950 . S
H480 C490 0.950 . S
H481 C492 0.950 . S
H482 C494 0.950 . S
H483 C495 0.950 . S
C484 H476 0.950 . S
C484 C485 1.386 . S
C484 C486 1.391 . S
C485 C484 1.386 . S
C485 C489 1.393 . S
C486 H478 0.950 . S
C486 C484 1.391 . S
C486 C487 1.400 . S
C487 C486 1.400 . S
C487 C488 1.398 . S
C487 C493 1.491 . S
C488 H479 0.950 . S
C488 C487 1.398 . S
C488 C489 1.391 . S
C489 H477 0.950 . S
C489 C485 1.393 . S
C489 C488 1.391 . S
C490 H480 0.950 . S
C490 C491 1.386 . S
C490 C492 1.391 . S
C491 C490 1.386 . S
C491 C495 1.393 . S
C492 H481 0.950 . S
C492 C490 1.391 . S
C492 C493 1.400 . S
C493 C487 1.491 . S
C493 C492 1.400 . S
C493 C494 1.398 . S
C494 H482 0.950 . S
C494 C493 1.398 . S
C494 C495 1.391 . S
C495 H483 0.950 . S
C495 C491 1.393 . S
C495 C494 1.391 . S
H496 C504 0.950 . S
H497 C509 0.950 . S
H498 C506 0.950 . S
H499 C508 0.950 . S
H500 C510 0.950 . S
H501 C512 0.950 . S
H502 C514 0.950 . S
H503 C515 0.950 . S
C504 H496 0.950 . S
C504 C505 1.386 . S
C504 C506 1.391 . S
C505 C504 1.386 . S
C505 C509 1.393 . S
C506 H498 0.950 . S
C506 C504 1.391 . S
C506 C507 1.400 . S
C507 C506 1.400 . S
C507 C508 1.398 . S
C507 C513 1.491 . S
C508 H499 0.950 . S
C508 C507 1.398 . S
C508 C509 1.391 . S
C509 H497 0.950 . S
C509 C505 1.393 . S
C509 C508 1.391 . S
C510 H500 0.950 . S
C510 C511 1.386 . S
C510 C512 1.391 . S
C511 C510 1.386 . S
C511 C515 1.393 . S
C512 H501 0.950 . S
C512 C510 1.391 . S
C512 C513 1.400 . S
C513 C507 1.491 . S
C513 C512 1.400 . S
C513 C514 1.398 . S
C514 H502 0.950 . S
C514 C513 1.398 . S
C514 C515 1.391 . S
C515 H503 0.950 . S
C515 C511 1.393 . S
C515 C514 1.391 . S
H516 C524 0.950 . S
H517 C529 0.950 . S
H518 C526 0.950 . S
H519 C528 0.950 . S
H520 C530 0.950 . S
H521 C532 0.950 . S
H522 C534 0.950 . S
H523 C535 0.950 . S
C524 H516 0.950 . S
C524 C525 1.386 . S
C524 C526 1.391 . S
C525 C524 1.386 . S
C525 C529 1.393 . S
C526 H518 0.950 . S
C526 C524 1.391 . S
C526 C527 1.400 . S
C527 C526 1.400 . S
C527 C528 1.398 . S
C527 C533 1.491 . S
C528 H519 0.950 . S
C528 C527 1.398 . S
C528 C529 1.391 . S
C529 H517 0.950 . S
C529 C525 1.393 . S
C529 C528 1.391 . S
C530 H520 0.950 . S
C530 C531 1.386 . S
C530 C532 1.391 . S
C531 C530 1.386 . S
C531 C535 1.393 . S
C532 H521 0.950 . S
C532 C530 1.391 . S
C532 C533 1.400 . S
C533 C527 1.491 . S
C533 C532 1.400 . S
C533 C534 1.398 . S
C534 H522 0.950 . S
C534 C533 1.398 . S
C534 C535 1.391 . S
C535 H523 0.950 . S
C535 C531 1.393 . S
C535 C534 1.391 . S
H536 C544 0.950 . S
H537 C549 0.950 . S
H538 C546 0.950 . S
H539 C548 0.950 . S
H540 C550 0.950 . S
H541 C552 0.950 . S
H542 C554 0.950 . S
H543 C555 0.950 . S
C544 H536 0.950 . S
C544 C545 1.386 . S
C544 C546 1.391 . S
C545 C544 1.386 . S
C545 C549 1.393 . S
C546 H538 0.950 . S
C546 C544 1.391 . S
C546 C547 1.400 . S
C547 C546 1.400 . S
C547 C548 1.398 . S
C547 C553 1.491 . S
C548 H539 0.950 . S
C548 C547 1.398 . S
C548 C549 1.391 . S
C549 H537 0.950 . S
C549 C545 1.393 . S
C549 C548 1.391 . S
C550 H540 0.950 . S
C550 C551 1.386 . S
C550 C552 1.391 . S
C551 C550 1.386 . S
C551 C555 1.393 . S
C552 H541 0.950 . S
C552 C550 1.391 . S
C552 C553 1.400 . S
C553 C547 1.491 . S
C553 C552 1.400 . S
C553 C554 1.398 . S
C554 H542 0.950 . S
C554 C553 1.398 . S
C554 C555 1.391 . S
C555 H543 0.950 . S
C555 C551 1.393 . S
C555 C554 1.391 . S
H556 C564 0.950 . S
H557 C569 0.950 . S
H558 C566 0.950 . S
H559 C568 0.950 . S
H560 C570 0.950 . S
H561 C572 0.950 . S
H562 C574 0.950 . S
H563 C575 0.950 . S
C564 H556 0.950 . S
C564 C565 1.386 . S
C564 C566 1.391 . S
C565 C564 1.386 . S
C565 C569 1.393 . S
C566 H558 0.950 . S
C566 C564 1.391 . S
C566 C567 1.400 . S
C567 C566 1.400 . S
C567 C568 1.398 . S
C567 C573 1.491 . S
C568 H559 0.950 . S
C568 C567 1.398 . S
C568 C569 1.391 . S
C569 H557 0.950 . S
C569 C565 1.393 . S
C569 C568 1.391 . S
C570 H560 0.950 . S
C570 C571 1.386 . S
C570 C572 1.391 . S
C571 C570 1.386 . S
C571 C575 1.393 . S
C572 H561 0.950 . S
C572 C570 1.391 . S
C572 C573 1.400 . S
C573 C567 1.491 . S
C573 C572 1.400 . S
C573 C574 1.398 . S
C574 H562 0.950 . S
C574 C573 1.398 . S
C574 C575 1.391 . S
C575 H563 0.950 . S
C575 C571 1.393 . S
C575 C574 1.391 . S
H576 C584 0.950 . S
H577 C589 0.950 . S
H578 C586 0.950 . S
H579 C588 0.950 . S
H580 C590 0.950 . S
H581 C592 0.950 . S
H582 C594 0.950 . S
H583 C595 0.950 . S
C584 H576 0.950 . S
C584 C585 1.386 . S
C584 C586 1.391 . S
C585 C584 1.386 . S
C585 C589 1.393 . S
C586 H578 0.950 . S
C586 C584 1.391 . S
C586 C587 1.400 . S
C587 C586 1.400 . S
C587 C588 1.398 . S
C587 C593 1.491 . S
C588 H579 0.950 . S
C588 C587 1.398 . S
C588 C589 1.391 . S
C589 H577 0.950 . S
C589 C585 1.393 . S
C589 C588 1.391 . S
C590 H580 0.950 . S
C590 C591 1.386 . S
C590 C592 1.391 . S
C591 C590 1.386 . S
C591 C595 1.393 . S
C592 H581 0.950 . S
C592 C590 1.391 . S
C592 C593 1.400 . S
C593 C587 1.491 . S
C593 C592 1.400 . S
C593 C594 1.398 . S
C594 H582 0.950 . S
C594 C593 1.398 . S
C594 C595 1.391 . S
C595 H583 0.950 . S
C595 C591 1.393 . S
C595 C594 1.391 . S
H596 C604 0.950 . S
H597 C609 0.950 . S
H598 C606 0.950 . S
H599 C608 0.950 . S
H600 C610 0.950 . S
H601 C612 0.950 . S
H602 C614 0.950 . S
H603 C615 0.950 . S
C604 H596 0.950 . S
C604 C605 1.386 . S
C604 C606 1.391 . S
C605 C604 1.386 . S
C605 C609 1.393 . S
C606 H598 0.950 . S
C606 C604 1.391 . S
C606 C607 1.400 . S
C607 C606 1.400 . S
C607 C608 1.398 . S
C607 C613 1.491 . S
C608 H599 0.950 . S
C608 C607 1.398 . S
C608 C609 1.391 . S
C609 H597 0.950 . S
C609 C605 1.393 . S
C609 C608 1.391 . S
C610 H600 0.950 . S
C610 C611 1.386 . S
C610 C612 1.391 . S
C611 C610 1.386 . S
C611 C615 1.393 . S
C612 H601 0.950 . S
C612 C610 1.391 . S
C612 C613 1.400 . S
C613 C607 1.491 . S
C613 C612 1.400 . S
C613 C614 1.398 . S
C614 H602 0.950 . S
C614 C613 1.398 . S
C614 C615 1.391 . S
C615 H603 0.950 . S
C615 C611 1.393 . S
C615 C614 1.391 . S
H616 C624 0.950 . S
H617 C629 0.950 . S
H618 C626 0.950 . S
H619 C628 0.950 . S
H620 C630 0.950 . S
H621 C632 0.950 . S
H622 C634 0.950 . S
H623 C635 0.950 . S
C624 H616 0.950 . S
C624 C625 1.386 . S
C624 C626 1.391 . S
C625 C624 1.386 . S
C625 C629 1.393 . S
C626 H618 0.950 . S
C626 C624 1.391 . S
C626 C627 1.400 . S
C627 C626 1.400 . S
C627 C628 1.398 . S
C627 C633 1.491 . S
C628 H619 0.950 . S
C628 C627 1.398 . S
C628 C629 1.391 . S
C629 H617 0.950 . S
C629 C625 1.393 . S
C629 C628 1.391 . S
C630 H620 0.950 . S
C630 C631 1.386 . S
C630 C632 1.391 . S
C631 C630 1.386 . S
C631 C635 1.393 . S
C632 H621 0.950 . S
C632 C630 1.391 . S
C632 C633 1.400 . S
C633 C627 1.491 . S
C633 C632 1.400 . S
C633 C634 1.398 . S
C634 H622 0.950 . S
C634 C633 1.398 . S
C634 C635 1.391 . S
C635 H623 0.950 . S
C635 C631 1.393 . S
C635 C634 1.391 . S
H636 C644 0.950 . S
H637 C649 0.950 . S
H638 C646 0.950 . S
H639 C648 0.950 . S
H640 C650 0.950 . S
H641 C652 0.950 . S
H642 C654 0.950 . S
H643 C655 0.950 . S
C644 H636 0.950 . S
C644 C645 1.386 . S
C644 C646 1.391 . S
C645 C644 1.386 . S
C645 C649 1.393 . S
C646 H638 0.950 . S
C646 C644 1.391 . S
C646 C647 1.400 . S
C647 C646 1.400 . S
C647 C648 1.398 . S
C647 C653 1.491 . S
C648 H639 0.950 . S
C648 C647 1.398 . S
C648 C649 1.391 . S
C649 H637 0.950 . S
C649 C645 1.393 . S
C649 C648 1.391 . S
C650 H640 0.950 . S
C650 C651 1.386 . S
C650 C652 1.391 . S
C651 C650 1.386 . S
C651 C655 1.393 . S
C652 H641 0.950 . S
C652 C650 1.391 . S
C652 C653 1.400 . S
C653 C647 1.491 . S
C653 C652 1.400 . S
C653 C654 1.398 . S
C654 H642 0.950 . S
C654 C653 1.398 . S
C654 C655 1.391 . S
C655 H643 0.950 . S
C655 C651 1.393 . S
C655 C654 1.391 . S
H656 C664 0.950 . S
H657 C669 0.950 . S
H658 C666 0.950 . S
H659 C668 0.950 . S
H660 C670 0.950 . S
H661 C672 0.950 . S
H662 C674 0.950 . S
H663 C675 0.950 . S
C664 H656 0.950 . S
C664 C665 1.386 . S
C664 C666 1.391 . S
C665 C664 1.386 . S
C665 C669 1.393 . S
C666 H658 0.950 . S
C666 C664 1.391 . S
C666 C667 1.400 . S
C667 C666 1.400 . S
C667 C668 1.398 . S
C667 C673 1.491 . S
C668 H659 0.950 . S
C668 C667 1.398 . S
C668 C669 1.391 . S
C669 H657 0.950 . S
C669 C665 1.393 . S
C669 C668 1.391 . S
C670 H660 0.950 . S
C670 C671 1.386 . S
C670 C672 1.391 . S
C671 C670 1.386 . S
C671 C675 1.393 . S
C672 H661 0.950 . S
C672 C670 1.391 . S
C672 C673 1.400 . S
C673 C667 1.491 . S
C673 C672 1.400 . S
C673 C674 1.398 . S
C674 H662 0.950 . S
C674 C673 1.398 . S
C674 C675 1.391 . S
C675 H663 0.950 . S
C675 C671 1.393 . S
C675 C674 1.391 . S
H676 C684 0.950 . S
H677 C689 0.950 . S
H678 C686 0.950 . S
H679 C688 0.950 . S
H680 C690 0.950 . S
H681 C692 0.950 . S
H682 C694 0.950 . S
H683 C695 0.950 . S
C684 H676 0.950 . S
C684 C685 1.386 . S
C684 C686 1.391 . S
C685 C684 1.386 . S
C685 C689 1.393 . S
C686 H678 0.950 . S
C686 C684 1.391 . S
C686 C687 1.400 . S
C687 C686 1.400 . S
C687 C688 1.398 . S
C687 C693 1.491 . S
C688 H679 0.950 . S
C688 C687 1.398 . S
C688 C689 1.391 . S
C689 H677 0.950 . S
C689 C685 1.393 . S
C689 C688 1.391 . S
C690 H680 0.950 . S
C690 C691 1.386 . S
C690 C692 1.391 . S
C691 C690 1.386 . S
C691 C695 1.393 . S
C692 H681 0.950 . S
C692 C690 1.391 . S
C692 C693 1.400 . S
C693 C687 1.491 . S
C693 C692 1.400 . S
C693 C694 1.398 . S
C694 H682 0.950 . S
C694 C693 1.398 . S
C694 C695 1.391 . S
C695 H683 0.950 . S
C695 C691 1.393 . S
C695 C694 1.391 . S
H696 C704 0.950 . S
H697 C709 0.950 . S
H698 C706 0.950 . S
H699 C708 0.950 . S
H700 C710 0.950 . S
H701 C712 0.950 . S
H702 C714 0.950 . S
H703 C715 0.950 . S
C704 H696 0.950 . S
C704 C705 1.386 . S
C704 C706 1.391 . S
C705 C704 1.386 . S
C705 C709 1.393 . S
C706 H698 0.950 . S
C706 C704 1.391 . S
C706 C707 1.400 . S
C707 C706 1.400 . S
C707 C708 1.398 . S
C707 C713 1.491 . S
C708 H699 0.950 . S
C708 C707 1.398 . S
C708 C709 1.391 . S
C709 H697 0.950 . S
C709 C705 1.393 . S
C709 C708 1.391 . S
C710 H700 0.950 . S
C710 C711 1.386 . S
C710 C712 1.391 . S
C711 C710 1.386 . S
C711 C715 1.393 . S
C712 H701 0.950 . S
C712 C710 1.391 . S
C712 C713 1.400 . S
C713 C707 1.491 . S
C713 C712 1.400 . S
C713 C714 1.398 . S
C714 H702 0.950 . S
C714 C713 1.398 . S
C714 C715 1.391 . S
C715 H703 0.950 . S
C715 C711 1.393 . S
C715 C714 1.391 . S
H716 C724 0.950 . S
H717 C729 0.950 . S
H718 C726 0.950 . S
H719 C728 0.950 . S
H720 C730 0.950 . S
H721 C732 0.950 . S
H722 C734 0.950 . S
H723 C735 0.950 . S
C724 H716 0.950 . S
C724 C725 1.386 . S
C724 C726 1.391 . S
C725 C724 1.386 . S
C725 C729 1.393 . S
C726 H718 0.950 . S
C726 C724 1.391 . S
C726 C727 1.400 . S
C727 C726 1.400 . S
C727 C728 1.398 . S
C727 C733 1.491 . S
C728 H719 0.950 . S
C728 C727 1.398 . S
C728 C729 1.391 . S
C729 H717 0.950 . S
C729 C725 1.393 . S
C729 C728 1.391 . S
C730 H720 0.950 . S
C730 C731 1.386 . S
C730 C732 1.391 . S
C731 C730 1.386 . S
C731 C735 1.393 . S
C732 H721 0.950 . S
C732 C730 1.391 . S
C732 C733 1.400 . S
C733 C727 1.491 . S
C733 C732 1.400 . S
C733 C734 1.398 . S
C734 H722 0.950 . S
C734 C733 1.398 . S
C734 C735 1.391 . S
C735 H723 0.950 . S
C735 C731 1.393 . S
C735 C734 1.391 . S
H736 C744 0.950 . S
H737 C749 0.950 . S
H738 C746 0.950 1_545 S
H739 C748 0.950 . S
H740 C750 0.950 . S
H741 C752 0.950 1_565 S
H742 C754 0.950 . S
H743 C755 0.950 . S
C744 H736 0.950 . S
C744 C745 1.386 . S
C744 C746 1.391 . S
C745 C744 1.386 . S
C745 C749 1.393 . S
C746 H738 0.950 1_565 S
C746 C744 1.391 . S
C746 C747 1.400 . S
C747 C746 1.400 . S
C747 C748 1.398 . S
C747 C753 1.491 1_565 S
C748 H739 0.950 . S
C748 C747 1.398 . S
C748 C749 1.391 . S
C749 H737 0.950 . S
C749 C745 1.393 . S
C749 C748 1.391 . S
C750 H740 0.950 . S
C750 C751 1.386 . S
C750 C752 1.391 . S
C751 C750 1.386 . S
C751 C755 1.393 . S
C752 H741 0.950 1_545 S
C752 C750 1.391 . S
C752 C753 1.400 . S
C753 C747 1.491 1_545 S
C753 C752 1.400 . S
C753 C754 1.398 . S
C754 H742 0.950 . S
C754 C753 1.398 . S
C754 C755 1.391 . S
C755 H743 0.950 . S
C755 C751 1.393 . S
C755 C754 1.391 . S
H756 C764 0.950 . S
H757 C769 0.950 . S
H758 C766 0.950 . S
H759 C768 0.950 . S
H760 C770 0.950 . S
H761 C772 0.950 . S
H762 C774 0.950 . S
H763 C775 0.950 . S
C764 H756 0.950 . S
C764 C765 1.386 . S
C764 C766 1.391 . S
C765 C764 1.386 . S
C765 C769 1.393 . S
C766 H758 0.950 . S
C766 C764 1.391 . S
C766 C767 1.400 . S
C767 C766 1.400 . S
C767 C768 1.398 . S
C767 C773 1.491 1_655 S
C768 H759 0.950 . S
C768 C767 1.398 . S
C768 C769 1.391 . S
C769 H757 0.950 . S
C769 C765 1.393 . S
C769 C768 1.391 . S
C770 H760 0.950 . S
C770 C771 1.386 . S
C770 C772 1.391 . S
C771 C770 1.386 . S
C771 C775 1.393 . S
C772 H761 0.950 . S
C772 C770 1.391 . S
C772 C773 1.400 . S
C773 C767 1.491 1_455 S
C773 C772 1.400 . S
C773 C774 1.398 . S
C774 H762 0.950 . S
C774 C773 1.398 . S
C774 C775 1.391 . S
C775 H763 0.950 . S
C775 C771 1.393 . S
C775 C774 1.391 . S
H776 C784 0.950 . S
H777 C789 0.950 1_554 S
H778 C786 0.950 . S
H779 C788 0.950 . S
H780 C790 0.950 . S
H781 C792 0.950 . S
H782 C794 0.950 . S
H783 C795 0.950 1_556 S
C784 H776 0.950 . S
C784 C785 1.386 . S
C784 C786 1.391 . S
C785 C784 1.386 . S
C785 C789 1.393 . S
C786 H778 0.950 . S
C786 C784 1.391 . S
C786 C787 1.400 . S
C787 C786 1.400 . S
C787 C788 1.398 1_556 S
C787 C793 1.491 1_556 S
C788 H779 0.950 . S
C788 C787 1.398 1_554 S
C788 C789 1.391 1_554 S
C789 H777 0.950 1_556 S
C789 C785 1.393 . S
C789 C788 1.391 1_556 S
C790 H780 0.950 . S
C790 C791 1.386 . S
C790 C792 1.391 . S
C791 C790 1.386 . S
C791 C795 1.393 . S
C792 H781 0.950 . S
C792 C790 1.391 . S
C792 C793 1.400 . S
C793 C787 1.491 1_554 S
C793 C792 1.400 . S
C793 C794 1.398 1_554 S
C794 H782 0.950 . S
C794 C793 1.398 1_556 S
C794 C795 1.391 1_556 S
C795 H783 0.950 1_554 S
C795 C791 1.393 . S
C795 C794 1.391 1_554 S
H796 C804 0.950 . S
H797 C809 0.950 . S
H798 C806 0.950 . S
H799 C808 0.950 1_655 S
H800 C810 0.950 . S
H801 C812 0.950 . S
H802 C814 0.950 1_455 S
H803 C815 0.950 . S
C804 H796 0.950 . S
C804 C805 1.386 1_554 S
C804 C806 1.391 . S
C805 C804 1.386 1_556 S
C805 C809 1.393 . S
C806 H798 0.950 . S
C806 C804 1.391 . S
C806 C807 1.400 1_554 S
C807 C806 1.400 1_556 S
C807 C808 1.398 . S
C807 C813 1.491 1_446 S
C808 H799 0.950 1_455 S
C808 C807 1.398 . S
C808 C809 1.391 . S
C809 H797 0.950 . S
C809 C805 1.393 . S
C809 C808 1.391 . S
C810 H800 0.950 . S
C810 C811 1.386 1_556 S
C810 C812 1.391 . S
C811 C810 1.386 1_554 S
C811 C815 1.393 . S
C812 H801 0.950 . S
C812 C810 1.391 . S
C812 C813 1.400 1_556 S
C813 C807 1.491 1_664 S
C813 C812 1.400 1_554 S
C813 C814 1.398 . S
C814 H802 0.950 1_655 S
C814 C813 1.398 . S
C814 C815 1.391 . S
C815 H803 0.950 . S
C815 C811 1.393 . S
C815 C814 1.391 . S
H816 C824 0.950 . S
H817 C829 0.950 . S
H818 C826 0.950 1_565 S
H819 C828 0.950 . S
H820 C830 0.950 . S
H821 C832 0.950 1_545 S
H822 C834 0.950 . S
H823 C835 0.950 . S
C824 H816 0.950 . S
C824 C825 1.386 . S
C824 C826 1.391 . S
C825 C824 1.386 . S
C825 C829 1.393 . S
C826 H818 0.950 1_545 S
C826 C824 1.391 . S
C826 C827 1.400 . S
C827 C826 1.400 . S
C827 C828 1.398 . S
C827 C833 1.491 1_545 S
C828 H819 0.950 . S
C828 C827 1.398 . S
C828 C829 1.391 . S
C829 H817 0.950 . S
C829 C825 1.393 . S
C829 C828 1.391 . S
C830 H820 0.950 . S
C830 C831 1.386 . S
C830 C832 1.391 . S
C831 C830 1.386 . S
C831 C835 1.393 . S
C832 H821 0.950 1_565 S
C832 C830 1.391 . S
C832 C833 1.400 . S
C833 C827 1.491 1_565 S
C833 C832 1.400 . S
C833 C834 1.398 . S
C834 H822 0.950 . S
C834 C833 1.398 . S
C834 C835 1.391 . S
C835 H823 0.950 . S
C835 C831 1.393 . S
C835 C834 1.391 . S
H836 C844 0.950 . S
H837 C849 0.950 . S
H838 C846 0.950 . S
H839 C848 0.950 . S
H840 C850 0.950 . S
H841 C852 0.950 . S
H842 C854 0.950 . S
H843 C855 0.950 . S
C844 H836 0.950 . S
C844 C845 1.386 . S
C844 C846 1.391 . S
C845 C844 1.386 . S
C845 C849 1.393 . S
C846 H838 0.950 . S
C846 C844 1.391 . S
C846 C847 1.400 . S
C847 C846 1.400 . S
C847 C848 1.398 1_455 S
C847 C853 1.491 1_455 S
C848 H839 0.950 . S
C848 C847 1.398 1_655 S
C848 C849 1.391 1_655 S
C849 H837 0.950 . S
C849 C845 1.393 . S
C849 C848 1.391 1_455 S
C850 H840 0.950 . S
C850 C851 1.386 . S
C850 C852 1.391 . S
C851 C850 1.386 . S
C851 C855 1.393 . S
C852 H841 0.950 . S
C852 C850 1.391 . S
C852 C853 1.400 . S
C853 C847 1.491 1_655 S
C853 C852 1.400 . S
C853 C854 1.398 1_655 S
C854 H842 0.950 . S
C854 C853 1.398 1_455 S
C854 C855 1.391 1_455 S
C855 H843 0.950 . S
C855 C851 1.393 . S
C855 C854 1.391 1_655 S
H856 C864 0.950 . S
H857 C869 0.950 . S
H858 C866 0.950 1_554 S
H859 C868 0.950 . S
H860 C870 0.950 . S
H861 C872 0.950 1_556 S
H862 C874 0.950 . S
H863 C875 0.950 . S
C864 H856 0.950 . S
C864 C865 1.386 . S
C864 C866 1.391 . S
C865 C864 1.386 . S
C865 C869 1.393 . S
C866 H858 0.950 1_556 S
C866 C864 1.391 . S
C866 C867 1.400 . S
C867 C866 1.400 . S
C867 C868 1.398 . S
C867 C873 1.491 1_556 S
C868 H859 0.950 . S
C868 C867 1.398 . S
C868 C869 1.391 . S
C869 H857 0.950 . S
C869 C865 1.393 . S
C869 C868 1.391 . S
C870 H860 0.950 . S
C870 C871 1.386 . S
C870 C872 1.391 . S
C871 C870 1.386 . S
C871 C875 1.393 . S
C872 H861 0.950 1_554 S
C872 C870 1.391 . S
C872 C873 1.400 . S
C873 C867 1.491 1_554 S
C873 C872 1.400 . S
C873 C874 1.398 . S
C874 H862 0.950 . S
C874 C873 1.398 . S
C874 C875 1.391 . S
C875 H863 0.950 . S
C875 C871 1.393 . S
C875 C874 1.391 . S
H876 C884 0.950 . S
H877 C889 0.950 . S
H878 C886 0.950 . S
H879 C888 0.950 . S
H880 C890 0.950 . S
H881 C892 0.950 . S
H882 C894 0.950 . S
H883 C895 0.950 . S
C884 H876 0.950 . S
C884 C885 1.386 . S
C884 C886 1.391 . S
C885 C884 1.386 . S
C885 C889 1.393 . S
C886 H878 0.950 . S
C886 C884 1.391 . S
C886 C887 1.400 . S
C887 C886 1.400 . S
C887 C888 1.398 . S
C887 C893 1.491 . S
C888 H879 0.950 . S
C888 C887 1.398 . S
C888 C889 1.391 . S
C889 H877 0.950 . S
C889 C885 1.393 . S
C889 C888 1.391 . S
C890 H880 0.950 . S
C890 C891 1.386 . S
C890 C892 1.391 . S
C891 C890 1.386 . S
C891 C895 1.393 . S
C892 H881 0.950 . S
C892 C890 1.391 . S
C892 C893 1.400 . S
C893 C887 1.491 . S
C893 C892 1.400 . S
C893 C894 1.398 . S
C894 H882 0.950 . S
C894 C893 1.398 . S
C894 C895 1.391 . S
C895 H883 0.950 . S
C895 C891 1.393 . S
C895 C894 1.391 . S
H896 C904 0.950 . S
H897 C909 0.950 . S
H898 C906 0.950 . S
H899 C908 0.950 . S
H900 C910 0.950 . S
H901 C912 0.950 . S
H902 C914 0.950 . S
H903 C915 0.950 . S
C904 H896 0.950 . S
C904 C905 1.386 . S
C904 C906 1.391 . S
C905 C904 1.386 . S
C905 C909 1.393 . S
C906 H898 0.950 . S
C906 C904 1.391 . S
C906 C907 1.400 . S
C907 C906 1.400 . S
C907 C908 1.398 . S
C907 C913 1.491 . S
C908 H899 0.950 . S
C908 C907 1.398 . S
C908 C909 1.391 . S
C909 H897 0.950 . S
C909 C905 1.393 . S
C909 C908 1.391 . S
C910 H900 0.950 . S
C910 C911 1.386 . S
C910 C912 1.391 . S
C911 C910 1.386 . S
C911 C915 1.393 . S
C912 H901 0.950 . S
C912 C910 1.391 . S
C912 C913 1.400 . S
C913 C907 1.491 . S
C913 C912 1.400 . S
C913 C914 1.398 . S
C914 H902 0.950 . S
C914 C913 1.398 . S
C914 C915 1.391 . S
C915 H903 0.950 . S
C915 C911 1.393 . S
C915 C914 1.391 . S
H916 C924 0.950 . S
H917 C929 0.950 . S
H918 C926 0.950 . S
H919 C928 0.950 . S
H920 C930 0.950 . S
H921 C932 0.950 . S
H922 C934 0.950 . S
H923 C935 0.950 . S
C924 H916 0.950 . S
C924 C925 1.386 . S
C924 C926 1.391 . S
C925 C924 1.386 . S
C925 C929 1.393 . S
C926 H918 0.950 . S
C926 C924 1.391 . S
C926 C927 1.400 . S
C927 C926 1.400 . S
C927 C928 1.398 . S
C927 C933 1.491 1_655 S
C928 H919 0.950 . S
C928 C927 1.398 . S
C928 C929 1.391 . S
C929 H917 0.950 . S
C929 C925 1.393 . S
C929 C928 1.391 . S
C930 H920 0.950 . S
C930 C931 1.386 . S
C930 C932 1.391 . S
C931 C930 1.386 . S
C931 C935 1.393 . S
C932 H921 0.950 . S
C932 C930 1.391 . S
C932 C933 1.400 . S
C933 C927 1.491 1_455 S
C933 C932 1.400 . S
C933 C934 1.398 . S
C934 H922 0.950 . S
C934 C933 1.398 . S
C934 C935 1.391 . S
C935 H923 0.950 . S
C935 C931 1.393 . S
C935 C934 1.391 . S
H936 C944 0.950 . S
H937 C949 0.950 . S
H938 C946 0.950 . S
H939 C948 0.950 . S
H940 C950 0.950 . S
H941 C952 0.950 . S
H942 C954 0.950 . S
H943 C955 0.950 . S
C944 H936 0.950 . S
C944 C945 1.386 . S
C944 C946 1.391 . S
C945 C944 1.386 . S
C945 C949 1.393 . S
C946 H938 0.950 . S
C946 C944 1.391 . S
C946 C947 1.400 . S
C947 C946 1.400 . S
C947 C948 1.398 . S
C947 C953 1.491 . S
C948 H939 0.950 . S
C948 C947 1.398 . S
C948 C949 1.391 . S
C949 H937 0.950 . S
C949 C945 1.393 . S
C949 C948 1.391 . S
C950 H940 0.950 . S
C950 C951 1.386 . S
C950 C952 1.391 . S
C951 C950 1.386 . S
C951 C955 1.393 . S
C952 H941 0.950 . S
C952 C950 1.391 . S
C952 C953 1.400 . S
C953 C947 1.491 . S
C953 C952 1.400 . S
C953 C954 1.398 . S
C954 H942 0.950 . S
C954 C953 1.398 . S
C954 C955 1.391 . S
C955 H943 0.950 . S
C955 C951 1.393 . S
C955 C954 1.391 . S
H956 C964 0.950 . S
H957 C969 0.950 . S
H958 C966 0.950 . S
H959 C968 0.950 . S
H960 C970 0.950 . S
H961 C972 0.950 . S
H962 C974 0.950 . S
H963 C975 0.950 . S
C964 H956 0.950 . S
C964 C965 1.386 . S
C964 C966 1.391 . S
C965 C964 1.386 . S
C965 C969 1.393 . S
C966 H958 0.950 . S
C966 C964 1.391 . S
C966 C967 1.400 . S
C967 C966 1.400 . S
C967 C968 1.398 . S
C967 C973 1.491 . S
C968 H959 0.950 . S
C968 C967 1.398 . S
C968 C969 1.391 . S
C969 H957 0.950 . S
C969 C965 1.393 . S
C969 C968 1.391 . S
C970 H960 0.950 . S
C970 C971 1.386 . S
C970 C972 1.391 . S
C971 C970 1.386 . S
C971 C975 1.393 . S
C972 H961 0.950 . S
C972 C970 1.391 . S
C972 C973 1.400 . S
C973 C967 1.491 . S
C973 C972 1.400 . S
C973 C974 1.398 . S
C974 H962 0.950 . S
C974 C973 1.398 . S
C974 C975 1.391 . S
C975 H963 0.950 . S
C975 C971 1.393 . S
C975 C974 1.391 . S
H976 C984 0.950 . S
H977 C989 0.950 . S
H978 C986 0.950 . S
H979 C988 0.950 . S
H980 C990 0.950 . S
H981 C992 0.950 . S
H982 C994 0.950 . S
H983 C995 0.950 . S
C984 H976 0.950 . S
C984 C985 1.386 . S
C984 C986 1.391 . S
C985 C984 1.386 . S
C985 C989 1.393 . S
C986 H978 0.950 . S
C986 C984 1.391 . S
C986 C987 1.400 . S
C987 C986 1.400 . S
C987 C988 1.398 . S
C987 C993 1.491 . S
C988 H979 0.950 . S
C988 C987 1.398 . S
C988 C989 1.391 . S
C989 H977 0.950 . S
C989 C985 1.393 . S
C989 C988 1.391 . S
C990 H980 0.950 . S
C990 C991 1.386 . S
C990 C992 1.391 . S
C991 C990 1.386 . S
C991 C995 1.393 . S
C992 H981 0.950 . S
C992 C990 1.391 . S
C992 C993 1.400 . S
C993 C987 1.491 . S
C993 C992 1.400 . S
C993 C994 1.398 . S
C994 H982 0.950 . S
C994 C993 1.398 . S
C994 C995 1.391 . S
C995 H983 0.950 . S
C995 C991 1.393 . S
C995 C994 1.391 . S
H996 C1004 0.950 . S
H997 C1009 0.950 . S
H998 C1006 0.950 . S
H999 C1008 0.950 1_565 S
H1000 C1010 0.950 . S
H1001 C1012 0.950 . S
H1002 C1014 0.950 1_545 S
H1003 C1015 0.950 . S
C1004 H996 0.950 . S
C1004 C1005 1.386 . S
C1004 C1006 1.391 . S
C1005 C1004 1.386 . S
C1005 C1009 1.393 . S
C1006 H998 0.950 . S
C1006 C1004 1.391 . S
C1006 C1007 1.400 . S
C1007 C1006 1.400 . S
C1007 C1008 1.398 . S
C1007 C1013 1.491 1_545 S
C1008 H999 0.950 1_545 S
C1008 C1007 1.398 . S
C1008 C1009 1.391 . S
C1009 H997 0.950 . S
C1009 C1005 1.393 . S
C1009 C1008 1.391 . S
C1010 H1000 0.950 . S
C1010 C1011 1.386 . S
C1010 C1012 1.391 . S
C1011 C1010 1.386 . S
C1011 C1015 1.393 . S
C1012 H1001 0.950 . S
C1012 C1010 1.391 . S
C1012 C1013 1.400 . S
C1013 C1007 1.491 1_565 S
C1013 C1012 1.400 . S
C1013 C1014 1.398 . S
C1014 H1002 0.950 1_565 S
C1014 C1013 1.398 . S
C1014 C1015 1.391 . S
C1015 H1003 0.950 . S
C1015 C1011 1.393 . S
C1015 C1014 1.391 . S
H1016 C1024 0.950 . S
H1017 C1029 0.950 . S
H1018 C1026 0.950 . S
H1019 C1028 0.950 . S
H1020 C1030 0.950 . S
H1021 C1032 0.950 . S
H1022 C1034 0.950 . S
H1023 C1035 0.950 . S
C1024 H1016 0.950 . S
C1024 C1025 1.386 . S
C1024 C1026 1.391 . S
C1025 C1024 1.386 . S
C1025 C1029 1.393 . S
C1026 H1018 0.950 . S
C1026 C1024 1.391 . S
C1026 C1027 1.400 . S
C1027 C1026 1.400 . S
C1027 C1028 1.398 . S
C1027 C1033 1.491 . S
C1028 H1019 0.950 . S
C1028 C1027 1.398 . S
C1028 C1029 1.391 . S
C1029 H1017 0.950 . S
C1029 C1025 1.393 . S
C1029 C1028 1.391 . S
C1030 H1020 0.950 . S
C1030 C1031 1.386 . S
C1030 C1032 1.391 . S
C1031 C1030 1.386 . S
C1031 C1035 1.393 . S
C1032 H1021 0.950 . S
C1032 C1030 1.391 . S
C1032 C1033 1.400 . S
C1033 C1027 1.491 . S
C1033 C1032 1.400 . S
C1033 C1034 1.398 . S
C1034 H1022 0.950 . S
C1034 C1033 1.398 . S
C1034 C1035 1.391 . S
C1035 H1023 0.950 . S
C1035 C1031 1.393 . S
C1035 C1034 1.391 . S
H1036 C1044 0.950 . S
H1037 C1049 0.950 . S
H1038 C1046 0.950 . S
H1039 C1048 0.950 . S
H1040 C1050 0.950 . S
H1041 C1052 0.950 . S
H1042 C1054 0.950 . S
H1043 C1055 0.950 . S
C1044 H1036 0.950 . S
C1044 C1045 1.386 . S
C1044 C1046 1.391 . S
C1045 C1044 1.386 . S
C1045 C1049 1.393 . S
C1046 H1038 0.950 . S
C1046 C1044 1.391 . S
C1046 C1047 1.400 . S
C1047 C1046 1.400 . S
C1047 C1048 1.398 1_554 S
C1047 C1053 1.491 1_554 S
C1048 H1039 0.950 . S
C1048 C1047 1.398 1_556 S
C1048 C1049 1.391 1_556 S
C1049 H1037 0.950 . S
C1049 C1045 1.393 . S
C1049 C1048 1.391 1_554 S
C1050 H1040 0.950 . S
C1050 C1051 1.386 . S
C1050 C1052 1.391 . S
C1051 C1050 1.386 . S
C1051 C1055 1.393 . S
C1052 H1041 0.950 . S
C1052 C1050 1.391 . S
C1052 C1053 1.400 . S
C1053 C1047 1.491 1_556 S
C1053 C1052 1.400 . S
C1053 C1054 1.398 1_556 S
C1054 H1042 0.950 . S
C1054 C1053 1.398 1_554 S
C1054 C1055 1.391 1_554 S
C1055 H1043 0.950 . S
C1055 C1051 1.393 . S
C1055 C1054 1.391 1_556 S
H1056 C1064 0.950 . S
H1057 C1069 0.950 . S
H1058 C1066 0.950 . S
H1059 C1068 0.950 . S
H1060 C1070 0.950 . S
H1061 C1072 0.950 . S
H1062 C1074 0.950 . S
H1063 C1075 0.950 . S
C1064 H1056 0.950 . S
C1064 C1065 1.386 . S
C1064 C1066 1.391 . S
C1065 C1064 1.386 . S
C1065 C1069 1.393 . S
C1066 H1058 0.950 . S
C1066 C1064 1.391 . S
C1066 C1067 1.400 . S
C1067 C1066 1.400 . S
C1067 C1068 1.398 . S
C1067 C1073 1.491 . S
C1068 H1059 0.950 . S
C1068 C1067 1.398 . S
C1068 C1069 1.391 . S
C1069 H1057 0.950 . S
C1069 C1065 1.393 . S
C1069 C1068 1.391 . S
C1070 H1060 0.950 . S
C1070 C1071 1.386 . S
C1070 C1072 1.391 . S
C1071 C1070 1.386 . S
C1071 C1075 1.393 . S
C1072 H1061 0.950 . S
C1072 C1070 1.391 . S
C1072 C1073 1.400 . S
C1073 C1067 1.491 . S
C1073 C1072 1.400 . S
C1073 C1074 1.398 . S
C1074 H1062 0.950 . S
C1074 C1073 1.398 . S
C1074 C1075 1.391 . S
C1075 H1063 0.950 . S
C1075 C1071 1.393 . S
C1075 C1074 1.391 . S
H1076 C1084 0.950 . S
H1077 C1089 0.950 . S
H1078 C1086 0.950 . S
H1079 C1088 0.950 . S
H1080 C1090 0.950 . S
H1081 C1092 0.950 . S
H1082 C1094 0.950 . S
H1083 C1095 0.950 . S
C1084 H1076 0.950 . S
C1084 C1085 1.386 . S
C1084 C1086 1.391 . S
C1085 C1084 1.386 . S
C1085 C1089 1.393 . S
C1086 H1078 0.950 . S
C1086 C1084 1.391 . S
C1086 C1087 1.400 . S
C1087 C1086 1.400 . S
C1087 C1088 1.398 . S
C1087 C1093 1.491 . S
C1088 H1079 0.950 . S
C1088 C1087 1.398 . S
C1088 C1089 1.391 . S
C1089 H1077 0.950 . S
C1089 C1085 1.393 . S
C1089 C1088 1.391 . S
C1090 H1080 0.950 . S
C1090 C1091 1.386 . S
C1090 C1092 1.391 . S
C1091 C1090 1.386 . S
C1091 C1095 1.393 . S
C1092 H1081 0.950 . S
C1092 C1090 1.391 . S
C1092 C1093 1.400 . S
C1093 C1087 1.491 . S
C1093 C1092 1.400 . S
C1093 C1094 1.398 . S
C1094 H1082 0.950 . S
C1094 C1093 1.398 . S
C1094 C1095 1.391 . S
C1095 H1083 0.950 . S
C1095 C1091 1.393 . S
C1095 C1094 1.391 . S
H1096 C1104 0.950 . S
H1097 C1109 0.950 . S
H1098 C1106 0.950 . S
H1099 C1108 0.950 . S
H1100 C1110 0.950 . S
H1101 C1112 0.950 . S
H1102 C1114 0.950 . S
H1103 C1115 0.950 . S
C1104 H1096 0.950 . S
C1104 C1105 1.386 . S
C1104 C1106 1.391 . S
C1105 C1104 1.386 . S
C1105 C1109 1.393 . S
C1106 H1098 0.950 . S
C1106 C1104 1.391 . S
C1106 C1107 1.400 . S
C1107 C1106 1.400 . S
C1107 C1108 1.398 . S
C1107 C1113 1.491 . S
C1108 H1099 0.950 . S
C1108 C1107 1.398 . S
C1108 C1109 1.391 . S
C1109 H1097 0.950 . S
C1109 C1105 1.393 . S
C1109 C1108 1.391 . S
C1110 H1100 0.950 . S
C1110 C1111 1.386 . S
C1110 C1112 1.391 . S
C1111 C1110 1.386 . S
C1111 C1115 1.393 . S
C1112 H1101 0.950 . S
C1112 C1110 1.391 . S
C1112 C1113 1.400 . S
C1113 C1107 1.491 . S
C1113 C1112 1.400 . S
C1113 C1114 1.398 . S
C1114 H1102 0.950 . S
C1114 C1113 1.398 . S
C1114 C1115 1.391 . S
C1115 H1103 0.950 . S
C1115 C1111 1.393 . S
C1115 C1114 1.391 . S
H1116 C1124 0.950 1_556 S
H1117 C1129 0.950 . S
H1118 C1126 0.950 1_556 S
H1119 C1128 0.950 . S
H1120 C1130 0.950 . S
H1121 C1132 0.950 . S
H1122 C1134 0.950 1_556 S
H1123 C1135 0.950 1_556 S
C1124 H1116 0.950 1_554 S
C1124 C1125 1.386 . S
C1124 C1126 1.391 . S
C1125 C1124 1.386 . S
C1125 C1129 1.393 . S
C1126 H1118 0.950 1_554 S
C1126 C1124 1.391 . S
C1126 C1127 1.400 . S
C1127 C1126 1.400 . S
C1127 C1128 1.398 . S
C1127 C1133 1.491 . S
C1128 H1119 0.950 . S
C1128 C1127 1.398 . S
C1128 C1129 1.391 . S
C1129 H1117 0.950 . S
C1129 C1125 1.393 . S
C1129 C1128 1.391 . S
C1130 H1120 0.950 . S
C1130 C1131 1.386 . S
C1130 C1132 1.391 . S
C1131 C1130 1.386 . S
C1131 C1135 1.393 . S
C1132 H1121 0.950 . S
C1132 C1130 1.391 . S
C1132 C1133 1.400 . S
C1133 C1127 1.491 . S
C1133 C1132 1.400 . S
C1133 C1134 1.398 . S
C1134 H1122 0.950 1_554 S
C1134 C1133 1.398 . S
C1134 C1135 1.391 . S
C1135 H1123 0.950 1_554 S
C1135 C1131 1.393 . S
C1135 C1134 1.391 . S
H1136 C1144 0.950 . S
H1137 C1149 0.950 . S
H1138 C1146 0.950 . S
H1139 C1148 0.950 . S
H1140 C1150 0.950 . S
H1141 C1152 0.950 . S
H1142 C1154 0.950 . S
H1143 C1155 0.950 . S
C1144 H1136 0.950 . S
C1144 C1145 1.386 . S
C1144 C1146 1.391 . S
C1145 C1144 1.386 . S
C1145 C1149 1.393 . S
C1146 H1138 0.950 . S
C1146 C1144 1.391 . S
C1146 C1147 1.400 . S
C1147 C1146 1.400 . S
C1147 C1148 1.398 . S
C1147 C1153 1.491 . S
C1148 H1139 0.950 . S
C1148 C1147 1.398 . S
C1148 C1149 1.391 . S
C1149 H1137 0.950 . S
C1149 C1145 1.393 . S
C1149 C1148 1.391 . S
C1150 H1140 0.950 . S
C1150 C1151 1.386 . S
C1150 C1152 1.391 . S
C1151 C1150 1.386 . S
C1151 C1155 1.393 . S
C1152 H1141 0.950 . S
C1152 C1150 1.391 . S
C1152 C1153 1.400 . S
C1153 C1147 1.491 . S
C1153 C1152 1.400 . S
C1153 C1154 1.398 . S
C1154 H1142 0.950 . S
C1154 C1153 1.398 . S
C1154 C1155 1.391 . S
C1155 H1143 0.950 . S
C1155 C1151 1.393 . S
C1155 C1154 1.391 . S
H1156 C1164 0.950 . S
H1157 C1169 0.950 . S
H1158 C1166 0.950 . S
H1159 C1168 0.950 . S
H1160 C1170 0.950 . S
H1161 C1172 0.950 . S
H1162 C1174 0.950 . S
H1163 C1175 0.950 . S
C1164 H1156 0.950 . S
C1164 C1165 1.386 . S
C1164 C1166 1.391 . S
C1165 C1164 1.386 . S
C1165 C1169 1.393 . S
C1166 H1158 0.950 . S
C1166 C1164 1.391 . S
C1166 C1167 1.400 . S
C1167 C1166 1.400 . S
C1167 C1168 1.398 . S
C1167 C1173 1.491 . S
C1168 H1159 0.950 . S
C1168 C1167 1.398 . S
C1168 C1169 1.391 . S
C1169 H1157 0.950 . S
C1169 C1165 1.393 . S
C1169 C1168 1.391 . S
C1170 H1160 0.950 . S
C1170 C1171 1.386 . S
C1170 C1172 1.391 . S
C1171 C1170 1.386 . S
C1171 C1175 1.393 . S
C1172 H1161 0.950 . S
C1172 C1170 1.391 . S
C1172 C1173 1.400 . S
C1173 C1167 1.491 . S
C1173 C1172 1.400 . S
C1173 C1174 1.398 . S
C1174 H1162 0.950 . S
C1174 C1173 1.398 . S
C1174 C1175 1.391 . S
C1175 H1163 0.950 . S
C1175 C1171 1.393 . S
C1175 C1174 1.391 . S
H1176 C1184 0.950 . S
H1177 C1189 0.950 . S
H1178 C1186 0.950 . S
H1179 C1188 0.950 . S
H1180 C1190 0.950 . S
H1181 C1192 0.950 . S
H1182 C1194 0.950 . S
H1183 C1195 0.950 . S
C1184 H1176 0.950 . S
C1184 C1185 1.386 . S
C1184 C1186 1.391 . S
C1185 C1184 1.386 . S
C1185 C1189 1.393 . S
C1186 H1178 0.950 . S
C1186 C1184 1.391 . S
C1186 C1187 1.400 . S
C1187 C1186 1.400 . S
C1187 C1188 1.398 . S
C1187 C1193 1.491 . S
C1188 H1179 0.950 . S
C1188 C1187 1.398 . S
C1188 C1189 1.391 . S
C1189 H1177 0.950 . S
C1189 C1185 1.393 . S
C1189 C1188 1.391 . S
C1190 H1180 0.950 . S
C1190 C1191 1.386 . S
C1190 C1192 1.391 . S
C1191 C1190 1.386 . S
C1191 C1195 1.393 . S
C1192 H1181 0.950 . S
C1192 C1190 1.391 . S
C1192 C1193 1.400 . S
C1193 C1187 1.491 . S
C1193 C1192 1.400 . S
C1193 C1194 1.398 . S
C1194 H1182 0.950 . S
C1194 C1193 1.398 . S
C1194 C1195 1.391 . S
C1195 H1183 0.950 . S
C1195 C1191 1.393 . S
C1195 C1194 1.391 . S
H1196 C1204 0.950 . S
H1197 C1209 0.950 . S
H1198 C1206 0.950 . S
H1199 C1208 0.950 . S
H1200 C1210 0.950 . S
H1201 C1212 0.950 . S
H1202 C1214 0.950 . S
H1203 C1215 0.950 . S
C1204 H1196 0.950 . S
C1204 C1205 1.386 . S
C1204 C1206 1.391 . S
C1205 C1204 1.386 . S
C1205 C1209 1.393 . S
C1206 H1198 0.950 . S
C1206 C1204 1.391 . S
C1206 C1207 1.400 . S
C1207 C1206 1.400 . S
C1207 C1208 1.398 . S
C1207 C1213 1.491 . S
C1208 H1199 0.950 . S
C1208 C1207 1.398 . S
C1208 C1209 1.391 . S
C1209 H1197 0.950 . S
C1209 C1205 1.393 . S
C1209 C1208 1.391 . S
C1210 H1200 0.950 . S
C1210 C1211 1.386 . S
C1210 C1212 1.391 . S
C1211 C1210 1.386 . S
C1211 C1215 1.393 . S
C1212 H1201 0.950 . S
C1212 C1210 1.391 . S
C1212 C1213 1.400 . S
C1213 C1207 1.491 . S
C1213 C1212 1.400 . S
C1213 C1214 1.398 . S
C1214 H1202 0.950 . S
C1214 C1213 1.398 . S
C1214 C1215 1.391 . S
C1215 H1203 0.950 . S
C1215 C1211 1.393 . S
C1215 C1214 1.391 . S
H1216 C1224 0.950 . S
H1217 C1229 0.950 . S
H1218 C1226 0.950 . S
H1219 C1228 0.950 . S
H1220 C1230 0.950 . S
H1221 C1232 0.950 . S
H1222 C1234 0.950 . S
H1223 C1235 0.950 . S
C1224 H1216 0.950 . S
C1224 C1225 1.386 . S
C1224 C1226 1.391 . S
C1225 C1224 1.386 . S
C1225 C1229 1.393 . S
C1226 H1218 0.950 . S
C1226 C1224 1.391 . S
C1226 C1227 1.400 . S
C1227 C1226 1.400 . S
C1227 C1228 1.398 . S
C1227 C1233 1.491 . S
C1228 H1219 0.950 . S
C1228 C1227 1.398 . S
C1228 C1229 1.391 . S
C1229 H1217 0.950 . S
C1229 C1225 1.393 . S
C1229 C1228 1.391 . S
C1230 H1220 0.950 . S
C1230 C1231 1.386 . S
C1230 C1232 1.391 . S
C1231 C1230 1.386 . S
C1231 C1235 1.393 . S
C1232 H1221 0.950 . S
C1232 C1230 1.391 . S
C1232 C1233 1.400 . S
C1233 C1227 1.491 . S
C1233 C1232 1.400 . S
C1233 C1234 1.398 . S
C1234 H1222 0.950 . S
C1234 C1233 1.398 . S
C1234 C1235 1.391 . S
C1235 H1223 0.950 . S
C1235 C1231 1.393 . S
C1235 C1234 1.391 . S
H1236 C1244 0.950 . S
H1237 C1249 0.950 . S
H1238 C1246 0.950 . S
H1239 C1248 0.950 . S
H1240 C1250 0.950 . S
H1241 C1252 0.950 . S
H1242 C1254 0.950 . S
H1243 C1255 0.950 . S
C1244 H1236 0.950 . S
C1244 C1245 1.386 . S
C1244 C1246 1.391 . S
C1245 C1244 1.386 . S
C1245 C1249 1.393 . S
C1246 H1238 0.950 . S
C1246 C1244 1.391 . S
C1246 C1247 1.400 . S
C1247 C1246 1.400 . S
C1247 C1248 1.398 . S
C1247 C1253 1.491 . S
C1248 H1239 0.950 . S
C1248 C1247 1.398 . S
C1248 C1249 1.391 . S
C1249 H1237 0.950 . S
C1249 C1245 1.393 . S
C1249 C1248 1.391 . S
C1250 H1240 0.950 . S
C1250 C1251 1.386 . S
C1250 C1252 1.391 . S
C1251 C1250 1.386 . S
C1251 C1255 1.393 . S
C1252 H1241 0.950 . S
C1252 C1250 1.391 . S
C1252 C1253 1.400 . S
C1253 C1247 1.491 . S
C1253 C1252 1.400 . S
C1253 C1254 1.398 . S
C1254 H1242 0.950 . S
C1254 C1253 1.398 . S
C1254 C1255 1.391 . S
C1255 H1243 0.950 . S
C1255 C1251 1.393 . S
C1255 C1254 1.391 . S
H1256 C1264 0.950 . S
H1257 C1269 0.950 . S
H1258 C1266 0.950 . S
H1259 C1268 0.950 . S
H1260 C1270 0.950 . S
H1261 C1272 0.950 . S
H1262 C1274 0.950 . S
H1263 C1275 0.950 . S
C1264 H1256 0.950 . S
C1264 C1265 1.386 . S
C1264 C1266 1.391 . S
C1265 C1264 1.386 . S
C1265 C1269 1.393 . S
C1266 H1258 0.950 . S
C1266 C1264 1.391 . S
C1266 C1267 1.400 . S
C1267 C1266 1.400 . S
C1267 C1268 1.398 . S
C1267 C1273 1.491 . S
C1268 H1259 0.950 . S
C1268 C1267 1.398 . S
C1268 C1269 1.391 . S
C1269 H1257 0.950 . S
C1269 C1265 1.393 . S
C1269 C1268 1.391 . S
C1270 H1260 0.950 . S
C1270 C1271 1.386 . S
C1270 C1272 1.391 . S
C1271 C1270 1.386 . S
C1271 C1275 1.393 . S
C1272 H1261 0.950 . S
C1272 C1270 1.391 . S
C1272 C1273 1.400 . S
C1273 C1267 1.491 . S
C1273 C1272 1.400 . S
C1273 C1274 1.398 . S
C1274 H1262 0.950 . S
C1274 C1273 1.398 . S
C1274 C1275 1.391 . S
C1275 H1263 0.950 . S
C1275 C1271 1.393 . S
C1275 C1274 1.391 . S
H1276 C1284 0.950 . S
H1277 C1289 0.950 . S
H1278 C1286 0.950 . S
H1279 C1288 0.950 . S
H1280 C1290 0.950 . S
H1281 C1292 0.950 . S
H1282 C1294 0.950 . S
H1283 C1295 0.950 . S
C1284 H1276 0.950 . S
C1284 C1285 1.386 . S
C1284 C1286 1.391 . S
C1285 C1284 1.386 . S
C1285 C1289 1.393 . S
C1286 H1278 0.950 . S
C1286 C1284 1.391 . S
C1286 C1287 1.400 . S
C1287 C1286 1.400 . S
C1287 C1288 1.398 . S
C1287 C1293 1.491 . S
C1288 H1279 0.950 . S
C1288 C1287 1.398 . S
C1288 C1289 1.391 . S
C1289 H1277 0.950 . S
C1289 C1285 1.393 . S
C1289 C1288 1.391 . S
C1290 H1280 0.950 . S
C1290 C1291 1.386 . S
C1290 C1292 1.391 . S
C1291 C1290 1.386 . S
C1291 C1295 1.393 . S
C1292 H1281 0.950 . S
C1292 C1290 1.391 . S
C1292 C1293 1.400 . S
C1293 C1287 1.491 . S
C1293 C1292 1.400 . S
C1293 C1294 1.398 . S
C1294 H1282 0.950 . S
C1294 C1293 1.398 . S
C1294 C1295 1.391 . S
C1295 H1283 0.950 . S
C1295 C1291 1.393 . S
C1295 C1294 1.391 . S
H1296 C1304 0.950 . S
H1297 C1309 0.950 . S
H1298 C1306 0.950 . S
H1299 C1308 0.950 . S
H1300 C1310 0.950 . S
H1301 C1312 0.950 . S
H1302 C1314 0.950 . S
H1303 C1315 0.950 . S
C1304 H1296 0.950 . S
C1304 C1305 1.386 . S
C1304 C1306 1.391 . S
C1305 C1304 1.386 . S
C1305 C1309 1.393 . S
C1306 H1298 0.950 . S
C1306 C1304 1.391 . S
C1306 C1307 1.400 . S
C1307 C1306 1.400 . S
C1307 C1308 1.398 . S
C1307 C1313 1.491 . S
C1308 H1299 0.950 . S
C1308 C1307 1.398 . S
C1308 C1309 1.391 . S
C1309 H1297 0.950 . S
C1309 C1305 1.393 . S
C1309 C1308 1.391 . S
C1310 H1300 0.950 . S
C1310 C1311 1.386 . S
C1310 C1312 1.391 . S
C1311 C1310 1.386 . S
C1311 C1315 1.393 . S
C1312 H1301 0.950 . S
C1312 C1310 1.391 . S
C1312 C1313 1.400 . S
C1313 C1307 1.491 . S
C1313 C1312 1.400 . S
C1313 C1314 1.398 . S
C1314 H1302 0.950 . S
C1314 C1313 1.398 . S
C1314 C1315 1.391 . S
C1315 H1303 0.950 . S
C1315 C1311 1.393 . S
C1315 C1314 1.391 . S
H1316 C1324 0.950 . S
H1317 C1329 0.950 . S
H1318 C1326 0.950 . S
H1319 C1328 0.950 . S
H1320 C1330 0.950 . S
H1321 C1332 0.950 . S
H1322 C1334 0.950 . S
H1323 C1335 0.950 . S
C1324 H1316 0.950 . S
C1324 C1325 1.386 . S
C1324 C1326 1.391 . S
C1325 C1324 1.386 . S
C1325 C1329 1.393 . S
C1326 H1318 0.950 . S
C1326 C1324 1.391 . S
C1326 C1327 1.400 . S
C1327 C1326 1.400 . S
C1327 C1328 1.398 . S
C1327 C1333 1.491 . S
C1328 H1319 0.950 . S
C1328 C1327 1.398 . S
C1328 C1329 1.391 . S
C1329 H1317 0.950 . S
C1329 C1325 1.393 . S
C1329 C1328 1.391 . S
C1330 H1320 0.950 . S
C1330 C1331 1.386 . S
C1330 C1332 1.391 . S
C1331 C1330 1.386 . S
C1331 C1335 1.393 . S
C1332 H1321 0.950 . S
C1332 C1330 1.391 . S
C1332 C1333 1.400 . S
C1333 C1327 1.491 . S
C1333 C1332 1.400 . S
C1333 C1334 1.398 . S
C1334 H1322 0.950 . S
C1334 C1333 1.398 . S
C1334 C1335 1.391 . S
C1335 H1323 0.950 . S
C1335 C1331 1.393 . S
C1335 C1334 1.391 . S
H1336 C1344 0.950 . S
H1337 C1349 0.950 . S
H1338 C1346 0.950 . S
H1339 C1348 0.950 . S
H1340 C1350 0.950 . S
H1341 C1352 0.950 . S
H1342 C1354 0.950 . S
H1343 C1355 0.950 . S
C1344 H1336 0.950 . S
C1344 C1345 1.386 . S
C1344 C1346 1.391 . S
C1345 C1344 1.386 . S
C1345 C1349 1.393 . S
C1346 H1338 0.950 . S
C1346 C1344 1.391 . S
C1346 C1347 1.400 . S
C1347 C1346 1.400 . S
C1347 C1348 1.398 . S
C1347 C1353 1.491 . S
C1348 H1339 0.950 . S
C1348 C1347 1.398 . S
C1348 C1349 1.391 . S
C1349 H1337 0.950 . S
C1349 C1345 1.393 . S
C1349 C1348 1.391 . S
C1350 H1340 0.950 . S
C1350 C1351 1.386 . S
C1350 C1352 1.391 . S
C1351 C1350 1.386 . S
C1351 C1355 1.393 . S
C1352 H1341 0.950 . S
C1352 C1350 1.391 . S
C1352 C1353 1.400 . S
C1353 C1347 1.491 . S
C1353 C1352 1.400 . S
C1353 C1354 1.398 . S
C1354 H1342 0.950 . S
C1354 C1353 1.398 . S
C1354 C1355 1.391 . S
C1355 H1343 0.950 . S
C1355 C1351 1.393 . S
C1355 C1354 1.391 . S
H1356 C1364 0.950 1_556 S
H1357 C1369 0.950 . S
H1358 C1366 0.950 1_556 S
H1359 C1368 0.950 . S
H1360 C1370 0.950 . S
H1361 C1372 0.950 . S
H1362 C1374 0.950 1_556 S
H1363 C1375 0.950 1_556 S
C1364 H1356 0.950 1_554 S
C1364 C1365 1.386 . S
C1364 C1366 1.391 . S
C1365 C1364 1.386 . S
C1365 C1369 1.393 . S
C1366 H1358 0.950 1_554 S
C1366 C1364 1.391 . S
C1366 C1367 1.400 . S
C1367 C1366 1.400 . S
C1367 C1368 1.398 . S
C1367 C1373 1.491 . S
C1368 H1359 0.950 . S
C1368 C1367 1.398 . S
C1368 C1369 1.391 . S
C1369 H1357 0.950 . S
C1369 C1365 1.393 . S
C1369 C1368 1.391 . S
C1370 H1360 0.950 . S
C1370 C1371 1.386 . S
C1370 C1372 1.391 . S
C1371 C1370 1.386 . S
C1371 C1375 1.393 . S
C1372 H1361 0.950 . S
C1372 C1370 1.391 . S
C1372 C1373 1.400 . S
C1373 C1367 1.491 . S
C1373 C1372 1.400 . S
C1373 C1374 1.398 . S
C1374 H1362 0.950 1_554 S
C1374 C1373 1.398 . S
C1374 C1375 1.391 . S
C1375 H1363 0.950 1_554 S
C1375 C1371 1.393 . S
C1375 C1374 1.391 . S
H1376 C1384 0.950 . S
H1377 C1389 0.950 1_455 S
H1378 C1386 0.950 . S
H1379 C1388 0.950 . S
H1380 C1390 0.950 . S
H1381 C1392 0.950 . S
H1382 C1394 0.950 . S
H1383 C1395 0.950 . S
C1384 H1376 0.950 . S
C1384 C1385 1.386 . S
C1384 C1386 1.391 . S
C1385 C1384 1.386 . S
C1385 C1389 1.393 . S
C1386 H1378 0.950 . S
C1386 C1384 1.391 . S
C1386 C1387 1.400 . S
C1387 C1386 1.400 . S
C1387 C1388 1.398 . S
C1387 C1393 1.491 . S
C1388 H1379 0.950 . S
C1388 C1387 1.398 . S
C1388 C1389 1.391 . S
C1389 H1377 0.950 1_655 S
C1389 C1385 1.393 . S
C1389 C1388 1.391 . S
C1390 H1380 0.950 . S
C1390 C1391 1.386 . S
C1390 C1392 1.391 . S
C1391 C1390 1.386 . S
C1391 C1395 1.393 . S
C1392 H1381 0.950 . S
C1392 C1390 1.391 . S
C1392 C1393 1.400 . S
C1393 C1387 1.491 . S
C1393 C1392 1.400 . S
C1393 C1394 1.398 . S
C1394 H1382 0.950 . S
C1394 C1393 1.398 . S
C1394 C1395 1.391 . S
C1395 H1383 0.950 . S
C1395 C1391 1.393 . S
C1395 C1394 1.391 . S
H1396 C1404 0.950 . S
H1397 C1409 0.950 . S
H1398 C1406 0.950 . S
H1399 C1408 0.950 . S
H1400 C1410 0.950 . S
H1401 C1412 0.950 . S
H1402 C1414 0.950 . S
H1403 C1415 0.950 . S
C1404 H1396 0.950 . S
C1404 C1405 1.386 . S
C1404 C1406 1.391 . S
C1405 C1404 1.386 . S
C1405 C1409 1.393 . S
C1406 H1398 0.950 . S
C1406 C1404 1.391 . S
C1406 C1407 1.400 . S
C1407 C1406 1.400 . S
C1407 C1408 1.398 . S
C1407 C1413 1.491 . S
C1408 H1399 0.950 . S
C1408 C1407 1.398 . S
C1408 C1409 1.391 . S
C1409 H1397 0.950 . S
C1409 C1405 1.393 . S
C1409 C1408 1.391 . S
C1410 H1400 0.950 . S
C1410 C1411 1.386 . S
C1410 C1412 1.391 . S
C1411 C1410 1.386 . S
C1411 C1415 1.393 . S
C1412 H1401 0.950 . S
C1412 C1410 1.391 . S
C1412 C1413 1.400 . S
C1413 C1407 1.491 . S
C1413 C1412 1.400 . S
C1413 C1414 1.398 . S
C1414 H1402 0.950 . S
C1414 C1413 1.398 . S
C1414 C1415 1.391 . S
C1415 H1403 0.950 . S
C1415 C1411 1.393 . S
C1415 C1414 1.391 . S
H1416 C1424 0.950 . S
H1417 C1429 0.950 . S
H1418 C1426 0.950 . S
H1419 C1428 0.950 . S
H1420 C1430 0.950 1_455 S
H1421 C1432 0.950 . S
H1422 C1434 0.950 . S
H1423 C1435 0.950 . S
C1424 H1416 0.950 . S
C1424 C1425 1.386 . S
C1424 C1426 1.391 . S
C1425 C1424 1.386 . S
C1425 C1429 1.393 . S
C1426 H1418 0.950 . S
C1426 C1424 1.391 . S
C1426 C1427 1.400 . S
C1427 C1426 1.400 . S
C1427 C1428 1.398 . S
C1427 C1433 1.491 . S
C1428 H1419 0.950 . S
C1428 C1427 1.398 . S
C1428 C1429 1.391 . S
C1429 H1417 0.950 . S
C1429 C1425 1.393 . S
C1429 C1428 1.391 . S
C1430 H1420 0.950 1_655 S
C1430 C1431 1.386 . S
C1430 C1432 1.391 . S
C1431 C1430 1.386 . S
C1431 C1435 1.393 . S
C1432 H1421 0.950 . S
C1432 C1430 1.391 . S
C1432 C1433 1.400 . S
C1433 C1427 1.491 . S
C1433 C1432 1.400 . S
C1433 C1434 1.398 . S
C1434 H1422 0.950 . S
C1434 C1433 1.398 . S
C1434 C1435 1.391 . S
C1435 H1423 0.950 . S
C1435 C1431 1.393 . S
C1435 C1434 1.391 . S
H1436 C1444 0.950 . S
H1437 C1449 0.950 . S
H1438 C1446 0.950 . S
H1439 C1448 0.950 . S
H1440 C1450 0.950 . S
H1441 C1452 0.950 . S
H1442 C1454 0.950 . S
H1443 C1455 0.950 . S
C1444 H1436 0.950 . S
C1444 C1445 1.386 . S
C1444 C1446 1.391 . S
C1445 C1444 1.386 . S
C1445 C1449 1.393 . S
C1446 H1438 0.950 . S
C1446 C1444 1.391 . S
C1446 C1447 1.400 . S
C1447 C1446 1.400 . S
C1447 C1448 1.398 . S
C1447 C1453 1.491 . S
C1448 H1439 0.950 . S
C1448 C1447 1.398 . S
C1448 C1449 1.391 . S
C1449 H1437 0.950 . S
C1449 C1445 1.393 . S
C1449 C1448 1.391 . S
C1450 H1440 0.950 . S
C1450 C1451 1.386 . S
C1450 C1452 1.391 . S
C1451 C1450 1.386 . S
C1451 C1455 1.393 . S
C1452 H1441 0.950 . S
C1452 C1450 1.391 . S
C1452 C1453 1.400 . S
C1453 C1447 1.491 . S
C1453 C1452 1.400 . S
C1453 C1454 1.398 . S
C1454 H1442 0.950 . S
C1454 C1453 1.398 . S
C1454 C1455 1.391 . S
C1455 H1443 0.950 . S
C1455 C1451 1.393 . S
C1455 C1454 1.391 . S
H1456 C1464 0.950 . S
H1457 C1469 0.950 . S
H1458 C1466 0.950 . S
H1459 C1468 0.950 . S
H1460 C1470 0.950 1_655 S
H1461 C1472 0.950 . S
H1462 C1474 0.950 . S
H1463 C1475 0.950 . S
C1464 H1456 0.950 . S
C1464 C1465 1.386 . S
C1464 C1466 1.391 . S
C1465 C1464 1.386 . S
C1465 C1469 1.393 . S
C1466 H1458 0.950 . S
C1466 C1464 1.391 . S
C1466 C1467 1.400 . S
C1467 C1466 1.400 . S
C1467 C1468 1.398 . S
C1467 C1473 1.491 . S
C1468 H1459 0.950 . S
C1468 C1467 1.398 . S
C1468 C1469 1.391 . S
C1469 H1457 0.950 . S
C1469 C1465 1.393 . S
C1469 C1468 1.391 . S
C1470 H1460 0.950 1_455 S
C1470 C1471 1.386 . S
C1470 C1472 1.391 . S
C1471 C1470 1.386 . S
C1471 C1475 1.393 . S
C1472 H1461 0.950 . S
C1472 C1470 1.391 . S
C1472 C1473 1.400 . S
C1473 C1467 1.491 . S
C1473 C1472 1.400 . S
C1473 C1474 1.398 . S
C1474 H1462 0.950 . S
C1474 C1473 1.398 . S
C1474 C1475 1.391 . S
C1475 H1463 0.950 . S
C1475 C1471 1.393 . S
C1475 C1474 1.391 . S
H1476 C1484 0.950 . S
H1477 C1489 0.950 . S
H1478 C1486 0.950 . S
H1479 C1488 0.950 . S
H1480 C1490 0.950 . S
H1481 C1492 0.950 . S
H1482 C1494 0.950 . S
H1483 C1495 0.950 . S
C1484 H1476 0.950 . S
C1484 C1485 1.386 . S
C1484 C1486 1.391 . S
C1485 C1484 1.386 . S
C1485 C1489 1.393 . S
C1486 H1478 0.950 . S
C1486 C1484 1.391 . S
C1486 C1487 1.400 . S
C1487 C1486 1.400 . S
C1487 C1488 1.398 . S
C1487 C1493 1.491 . S
C1488 H1479 0.950 . S
C1488 C1487 1.398 . S
C1488 C1489 1.391 . S
C1489 H1477 0.950 . S
C1489 C1485 1.393 . S
C1489 C1488 1.391 . S
C1490 H1480 0.950 . S
C1490 C1491 1.386 . S
C1490 C1492 1.391 . S
C1491 C1490 1.386 . S
C1491 C1495 1.393 . S
C1492 H1481 0.950 . S
C1492 C1490 1.391 . S
C1492 C1493 1.400 . S
C1493 C1487 1.491 . S
C1493 C1492 1.400 . S
C1493 C1494 1.398 . S
C1494 H1482 0.950 . S
C1494 C1493 1.398 . S
C1494 C1495 1.391 . S
C1495 H1483 0.950 . S
C1495 C1491 1.393 . S
C1495 C1494 1.391 . S
H1496 C1504 0.950 . S
H1497 C1509 0.950 . S
H1498 C1506 0.950 . S
H1499 C1508 0.950 . S
H1500 C1510 0.950 . S
H1501 C1512 0.950 . S
H1502 C1514 0.950 . S
H1503 C1515 0.950 1_655 S
C1504 H1496 0.950 . S
C1504 C1505 1.386 . S
C1504 C1506 1.391 . S
C1505 C1504 1.386 . S
C1505 C1509 1.393 . S
C1506 H1498 0.950 . S
C1506 C1504 1.391 . S
C1506 C1507 1.400 . S
C1507 C1506 1.400 . S
C1507 C1508 1.398 . S
C1507 C1513 1.491 . S
C1508 H1499 0.950 . S
C1508 C1507 1.398 . S
C1508 C1509 1.391 . S
C1509 H1497 0.950 . S
C1509 C1505 1.393 . S
C1509 C1508 1.391 . S
C1510 H1500 0.950 . S
C1510 C1511 1.386 . S
C1510 C1512 1.391 . S
C1511 C1510 1.386 . S
C1511 C1515 1.393 . S
C1512 H1501 0.950 . S
C1512 C1510 1.391 . S
C1512 C1513 1.400 . S
C1513 C1507 1.491 . S
C1513 C1512 1.400 . S
C1513 C1514 1.398 . S
C1514 H1502 0.950 . S
C1514 C1513 1.398 . S
C1514 C1515 1.391 . S
C1515 H1503 0.950 1_455 S
C1515 C1511 1.393 . S
C1515 C1514 1.391 . S
H1516 C1524 0.950 . S
H1517 C1529 0.950 . S
H1518 C1526 0.950 . S
H1519 C1528 0.950 . S
H1520 C1530 0.950 . S
H1521 C1532 0.950 . S
H1522 C1534 0.950 . S
H1523 C1535 0.950 . S
C1524 H1516 0.950 . S
C1524 C1525 1.386 . S
C1524 C1526 1.391 . S
C1525 C1524 1.386 . S
C1525 C1529 1.393 . S
C1526 H1518 0.950 . S
C1526 C1524 1.391 . S
C1526 C1527 1.400 . S
C1527 C1526 1.400 . S
C1527 C1528 1.398 . S
C1527 C1533 1.491 . S
C1528 H1519 0.950 . S
C1528 C1527 1.398 . S
C1528 C1529 1.391 . S
C1529 H1517 0.950 . S
C1529 C1525 1.393 . S
C1529 C1528 1.391 . S
C1530 H1520 0.950 . S
C1530 C1531 1.386 . S
C1530 C1532 1.391 . S
C1531 C1530 1.386 . S
C1531 C1535 1.393 . S
C1532 H1521 0.950 . S
C1532 C1530 1.391 . S
C1532 C1533 1.400 . S
C1533 C1527 1.491 . S
C1533 C1532 1.400 . S
C1533 C1534 1.398 . S
C1534 H1522 0.950 . S
C1534 C1533 1.398 . S
C1534 C1535 1.391 . S
C1535 H1523 0.950 . S
C1535 C1531 1.393 . S
C1535 C1534 1.391 . S
H1536 C1544 0.950 . S
H1537 C1549 0.950 . S
H1538 C1546 0.950 . S
H1539 C1548 0.950 . S
H1540 C1550 0.950 . S
H1541 C1552 0.950 . S
H1542 C1554 0.950 . S
H1543 C1555 0.950 . S
C1544 H1536 0.950 . S
C1544 C1545 1.386 . S
C1544 C1546 1.391 . S
C1545 C1544 1.386 . S
C1545 C1549 1.393 . S
C1546 H1538 0.950 . S
C1546 C1544 1.391 . S
C1546 C1547 1.400 . S
C1547 C1546 1.400 . S
C1547 C1548 1.398 . S
C1547 C1553 1.491 . S
C1548 H1539 0.950 . S
C1548 C1547 1.398 . S
C1548 C1549 1.391 . S
C1549 H1537 0.950 . S
C1549 C1545 1.393 . S
C1549 C1548 1.391 . S
C1550 H1540 0.950 . S
C1550 C1551 1.386 . S
C1550 C1552 1.391 . S
C1551 C1550 1.386 . S
C1551 C1555 1.393 . S
C1552 H1541 0.950 . S
C1552 C1550 1.391 . S
C1552 C1553 1.400 . S
C1553 C1547 1.491 . S
C1553 C1552 1.400 . S
C1553 C1554 1.398 . S
C1554 H1542 0.950 . S
C1554 C1553 1.398 . S
C1554 C1555 1.391 . S
C1555 H1543 0.950 . S
C1555 C1551 1.393 . S
C1555 C1554 1.391 . S
H1556 C1564 0.950 . S
H1557 C1569 0.950 . S
H1558 C1566 0.950 . S
H1559 C1568 0.950 . S
H1560 C1570 0.950 . S
H1561 C1572 0.950 . S
H1562 C1574 0.950 . S
H1563 C1575 0.950 . S
C1564 H1556 0.950 . S
C1564 C1565 1.386 . S
C1564 C1566 1.391 . S
C1565 C1564 1.386 . S
C1565 C1569 1.393 . S
C1566 H1558 0.950 . S
C1566 C1564 1.391 . S
C1566 C1567 1.400 . S
C1567 C1566 1.400 . S
C1567 C1568 1.398 . S
C1567 C1573 1.491 . S
C1568 H1559 0.950 . S
C1568 C1567 1.398 . S
C1568 C1569 1.391 . S
C1569 H1557 0.950 . S
C1569 C1565 1.393 . S
C1569 C1568 1.391 . S
C1570 H1560 0.950 . S
C1570 C1571 1.386 . S
C1570 C1572 1.391 . S
C1571 C1570 1.386 . S
C1571 C1575 1.393 . S
C1572 H1561 0.950 . S
C1572 C1570 1.391 . S
C1572 C1573 1.400 . S
C1573 C1567 1.491 . S
C1573 C1572 1.400 . S
C1573 C1574 1.398 . S
C1574 H1562 0.950 . S
C1574 C1573 1.398 . S
C1574 C1575 1.391 . S
C1575 H1563 0.950 . S
C1575 C1571 1.393 . S
C1575 C1574 1.391 . S
H1576 C1584 0.950 . S
H1577 C1589 0.950 1_455 S
H1578 C1586 0.950 . S
H1579 C1588 0.950 . S
H1580 C1590 0.950 . S
H1581 C1592 0.950 . S
H1582 C1594 0.950 . S
H1583 C1595 0.950 . S
C1584 H1576 0.950 . S
C1584 C1585 1.386 . S
C1584 C1586 1.391 . S
C1585 C1584 1.386 . S
C1585 C1589 1.393 . S
C1586 H1578 0.950 . S
C1586 C1584 1.391 . S
C1586 C1587 1.400 . S
C1587 C1586 1.400 . S
C1587 C1588 1.398 . S
C1587 C1593 1.491 . S
C1588 H1579 0.950 . S
C1588 C1587 1.398 . S
C1588 C1589 1.391 . S
C1589 H1577 0.950 1_655 S
C1589 C1585 1.393 . S
C1589 C1588 1.391 . S
C1590 H1580 0.950 . S
C1590 C1591 1.386 . S
C1590 C1592 1.391 . S
C1591 C1590 1.386 . S
C1591 C1595 1.393 . S
C1592 H1581 0.950 . S
C1592 C1590 1.391 . S
C1592 C1593 1.400 . S
C1593 C1587 1.491 . S
C1593 C1592 1.400 . S
C1593 C1594 1.398 . S
C1594 H1582 0.950 . S
C1594 C1593 1.398 . S
C1594 C1595 1.391 . S
C1595 H1583 0.950 . S
C1595 C1591 1.393 . S
C1595 C1594 1.391 . S
H1596 C1604 0.950 . S
H1597 C1609 0.950 . S
H1598 C1606 0.950 . S
H1599 C1608 0.950 . S
H1600 C1610 0.950 . S
H1601 C1612 0.950 . S
H1602 C1614 0.950 . S
H1603 C1615 0.950 . S
C1604 H1596 0.950 . S
C1604 C1605 1.386 . S
C1604 C1606 1.391 . S
C1605 C1604 1.386 . S
C1605 C1609 1.393 . S
C1606 H1598 0.950 . S
C1606 C1604 1.391 . S
C1606 C1607 1.400 . S
C1607 C1606 1.400 . S
C1607 C1608 1.398 . S
C1607 C1613 1.491 . S
C1608 H1599 0.950 . S
C1608 C1607 1.398 . S
C1608 C1609 1.391 . S
C1609 H1597 0.950 . S
C1609 C1605 1.393 . S
C1609 C1608 1.391 . S
C1610 H1600 0.950 . S
C1610 C1611 1.386 . S
C1610 C1612 1.391 . S
C1611 C1610 1.386 . S
C1611 C1615 1.393 . S
C1612 H1601 0.950 . S
C1612 C1610 1.391 . S
C1612 C1613 1.400 . S
C1613 C1607 1.491 . S
C1613 C1612 1.400 . S
C1613 C1614 1.398 . S
C1614 H1602 0.950 . S
C1614 C1613 1.398 . S
C1614 C1615 1.391 . S
C1615 H1603 0.950 . S
C1615 C1611 1.393 . S
C1615 C1614 1.391 . S
H1616 C1624 0.950 1_655 S
H1617 C1629 0.950 . S
H1618 C1626 0.950 . S
H1619 C1628 0.950 . S
H1620 C1630 0.950 . S
H1621 C1632 0.950 . S
H1622 C1634 0.950 . S
H1623 C1635 0.950 . S
C1624 H1616 0.950 1_455 S
C1624 C1625 1.386 . S
C1624 C1626 1.391 . S
C1625 C1624 1.386 . S
C1625 C1629 1.393 . S
C1626 H1618 0.950 . S
C1626 C1624 1.391 . S
C1626 C1627 1.400 . S
C1627 C1626 1.400 . S
C1627 C1628 1.398 . S
C1627 C1633 1.491 . S
C1628 H1619 0.950 . S
C1628 C1627 1.398 . S
C1628 C1629 1.391 . S
C1629 H1617 0.950 . S
C1629 C1625 1.393 . S
C1629 C1628 1.391 . S
C1630 H1620 0.950 . S
C1630 C1631 1.386 . S
C1630 C1632 1.391 . S
C1631 C1630 1.386 . S
C1631 C1635 1.393 . S
C1632 H1621 0.950 . S
C1632 C1630 1.391 . S
C1632 C1633 1.400 . S
C1633 C1627 1.491 . S
C1633 C1632 1.400 . S
C1633 C1634 1.398 . S
C1634 H1622 0.950 . S
C1634 C1633 1.398 . S
C1634 C1635 1.391 . S
C1635 H1623 0.950 . S
C1635 C1631 1.393 . S
C1635 C1634 1.391 . S
H1636 C1644 0.950 . S
H1637 C1649 0.950 . S
H1638 C1646 0.950 . S
H1639 C1648 0.950 . S
H1640 C1650 0.950 . S
H1641 C1652 0.950 . S
H1642 C1654 0.950 . S
H1643 C1655 0.950 . S
C1644 H1636 0.950 . S
C1644 C1645 1.386 . S
C1644 C1646 1.391 . S
C1645 C1644 1.386 . S
C1645 C1649 1.393 . S
C1646 H1638 0.950 . S
C1646 C1644 1.391 . S
C1646 C1647 1.400 . S
C1647 C1646 1.400 . S
C1647 C1648 1.398 . S
C1647 C1653 1.491 . S
C1648 H1639 0.950 . S
C1648 C1647 1.398 . S
C1648 C1649 1.391 . S
C1649 H1637 0.950 . S
C1649 C1645 1.393 . S
C1649 C1648 1.391 . S
C1650 H1640 0.950 . S
C1650 C1651 1.386 . S
C1650 C1652 1.391 . S
C1651 C1650 1.386 . S
C1651 C1655 1.393 . S
C1652 H1641 0.950 . S
C1652 C1650 1.391 . S
C1652 C1653 1.400 . S
C1653 C1647 1.491 . S
C1653 C1652 1.400 . S
C1653 C1654 1.398 . S
C1654 H1642 0.950 . S
C1654 C1653 1.398 . S
C1654 C1655 1.391 . S
C1655 H1643 0.950 . S
C1655 C1651 1.393 . S
C1655 C1654 1.391 . S
H1656 C1664 0.950 . S
H1657 C1669 0.950 1_655 S
H1658 C1666 0.950 . S
H1659 C1668 0.950 . S
H1660 C1670 0.950 . S
H1661 C1672 0.950 . S
H1662 C1674 0.950 . S
H1663 C1675 0.950 . S
C1664 H1656 0.950 . S
C1664 C1665 1.386 . S
C1664 C1666 1.391 . S
C1665 C1664 1.386 . S
C1665 C1669 1.393 . S
C1666 H1658 0.950 . S
C1666 C1664 1.391 . S
C1666 C1667 1.400 . S
C1667 C1666 1.400 . S
C1667 C1668 1.398 . S
C1667 C1673 1.491 . S
C1668 H1659 0.950 . S
C1668 C1667 1.398 . S
C1668 C1669 1.391 . S
C1669 H1657 0.950 1_455 S
C1669 C1665 1.393 . S
C1669 C1668 1.391 . S
C1670 H1660 0.950 . S
C1670 C1671 1.386 . S
C1670 C1672 1.391 . S
C1671 C1670 1.386 . S
C1671 C1675 1.393 . S
C1672 H1661 0.950 . S
C1672 C1670 1.391 . S
C1672 C1673 1.400 . S
C1673 C1667 1.491 . S
C1673 C1672 1.400 . S
C1673 C1674 1.398 . S
C1674 H1662 0.950 . S
C1674 C1673 1.398 . S
C1674 C1675 1.391 . S
C1675 H1663 0.950 . S
C1675 C1671 1.393 . S
C1675 C1674 1.391 . S
H1676 C1684 0.950 . S
H1677 C1689 0.950 . S
H1678 C1686 0.950 . S
H1679 C1688 0.950 . S
H1680 C1690 0.950 . S
H1681 C1692 0.950 . S
H1682 C1694 0.950 . S
H1683 C1695 0.950 . S
C1684 H1676 0.950 . S
C1684 C1685 1.386 . S
C1684 C1686 1.391 . S
C1685 C1684 1.386 . S
C1685 C1689 1.393 . S
C1686 H1678 0.950 . S
C1686 C1684 1.391 . S
C1686 C1687 1.400 . S
C1687 C1686 1.400 . S
C1687 C1688 1.398 . S
C1687 C1693 1.491 . S
C1688 H1679 0.950 . S
C1688 C1687 1.398 . S
C1688 C1689 1.391 . S
C1689 H1677 0.950 . S
C1689 C1685 1.393 . S
C1689 C1688 1.391 . S
C1690 H1680 0.950 . S
C1690 C1691 1.386 . S
C1690 C1692 1.391 . S
C1691 C1690 1.386 . S
C1691 C1695 1.393 . S
C1692 H1681 0.950 . S
C1692 C1690 1.391 . S
C1692 C1693 1.400 . S
C1693 C1687 1.491 . S
C1693 C1692 1.400 . S
C1693 C1694 1.398 . S
C1694 H1682 0.950 . S
C1694 C1693 1.398 . S
C1694 C1695 1.391 . S
C1695 H1683 0.950 . S
C1695 C1691 1.393 . S
C1695 C1694 1.391 . S
C425 C44 0.820 . S
C431 C5 0.820 . S
C445 C31 0.821 . S
C451 C18 0.820 . S
C465 C96 0.833 . S
C471 C57 0.836 . S
C485 C83 0.869 . S
C491 C70 0.867 . S
C505 C109 0.838 . S
C511 C148 0.840 . S
C525 C122 0.854 . S
C531 C135 0.852 . S
C545 C200 0.823 . S
C551 C161 0.822 . S
C565 C174 0.883 . S
C571 C187 0.884 . S
C585 C213 0.857 . S
C591 C252 0.860 . S
C605 C226 0.884 . S
C611 C239 0.885 . S
C625 C304 0.829 . S
C631 C265 0.831 . S
C645 C291 0.879 . S
C651 C278 0.877 . S
C665 C356 0.825 . S
C671 C317 0.823 . S
C685 C330 0.853 . S
C691 C343 0.855 . S
C705 C369 0.828 . S
C711 C408 0.826 . S
C725 C382 0.848 . S
C731 C395 0.845 . S
C745 C270 1.146 . S
C751 C10 1.146 . S
C765 C179 1.133 . S
C771 C23 1.133 . S
C785 C36 1.141 . S
C791 C400 1.141 . S
C805 C49 1.128 . S
C811 C101 1.128 . S
C825 C218 1.119 . S
C831 C62 1.119 . S
C845 C127 1.119 . S
C851 C75 1.119 . S
C865 C348 1.146 . S
C871 C88 1.146 . S
C885 C114 1.123 . S
C891 C374 1.123 . S
C905 C296 1.138 . S
C911 C140 1.138 . S
C925 C205 1.131 . S
C931 C153 1.131 . S
C945 C322 1.134 . S
C951 C166 1.134 . S
C965 C192 1.121 . S
C971 C244 1.121 . S
C985 C387 1.120 . S
C991 C231 1.120 . S
C1005 C257 1.141 . S
C1011 C309 1.141 . S
C1025 C335 1.119 . S
C1031 C283 1.119 . S
C1045 C413 1.143 . S
C1051 C361 1.143 . S
C1065 C21 1.254 . S
C1071 C8 1.248 . S
C1085 C34 1.260 . S
C1091 C47 1.229 . S
C1105 C60 1.257 . S
C1111 C73 1.244 . S
C1125 C99 1.256 . S
C1131 C86 1.246 . S
C1145 C112 1.225 . S
C1151 C125 1.256 . S
C1165 C138 1.239 . S
C1171 C151 1.260 . S
C1185 C177 1.232 . S
C1191 C164 1.237 . S
C1205 C190 1.261 . S
C1211 C203 1.233 . S
C1225 C216 1.259 . S
C1231 C229 1.240 . S
C1245 C242 1.244 . S
C1251 C255 1.227 . S
C1265 C268 1.234 . S
C1271 C281 1.261 . S
C1285 C307 1.244 . S
C1291 C294 1.257 . S
C1305 C333 1.245 . S
C1311 C320 1.256 . S
C1325 C346 1.257 . S
C1331 C359 1.225 . S
C1345 C372 1.226 . S
C1351 C385 1.259 . S
C1365 C411 1.250 . S
C1371 C398 1.252 . S
C1385 C0 1.459 1_655 S
C1391 C247 1.466 . S
C1405 C13 1.459 . S
C1411 C234 1.466 . S
C1425 C221 1.472 . S
C1431 C26 1.463 1_655 S
C1445 C39 1.458 . S
C1451 C208 1.458 . S
C1465 C299 1.469 . S
C1471 C52 1.477 1_455 S
C1485 C65 1.480 . S
C1491 C286 1.476 . S
C1505 C273 1.467 . S
C1511 C78 1.459 1_455 S
C1525 C91 1.464 . S
C1531 C260 1.458 . S
C1545 C104 1.471 1_655 S
C1551 C351 1.479 . S
C1565 C117 1.480 . S
C1571 C338 1.479 . S
C1585 C130 1.462 1_655 S
C1591 C325 1.471 . S
C1605 C312 1.480 . S
C1611 C143 1.477 . S
C1625 C156 1.472 1_455 S
C1631 C403 1.479 . S
C1645 C169 1.480 . S
C1651 C390 1.475 . S
C1665 C182 1.466 1_455 S
C1671 C377 1.459 . S
C1685 C364 1.465 . S
C1691 C195 1.474 . S
