# Generated by pormake.
# Topology gis, (4)-cn, num edge types: 1
# Building blocks:
#     Node 0, Type 0, BuildingBlock: QUQFOY_clean_sbu_3, # of connection points: 4
#     Node 1, Type 0, BuildingBlock: QUQFOY_clean_sbu_3, # of connection points: 4
#     Node 2, Type 0, BuildingBlock: QUQFOY_clean_sbu_3, # of connection points: 4
#     Node 3, Type 0, BuildingBlock: QUQFOY_clean_sbu_3, # of connection points: 4
#     Node 4, Type 0, BuildingBlock: QUQFOY_clean_sbu_3, # of connection points: 4
#     Node 5, Type 0, BuildingBlock: QUQFOY_clean_sbu_3, # of connection points: 4
#     Node 6, Type 0, BuildingBlock: QUQFOY_clean_sbu_3, # of connection points: 4
#     Node 7, Type 0, BuildingBlock: QUQFOY_clean_sbu_3, # of connection points: 4
#     Node 8, Type 0, BuildingBlock: QUQFOY_clean_sbu_3, # of connection points: 4
#     Node 9, Type 0, BuildingBlock: QUQFOY_clean_sbu_3, # of connection points: 4
#     Node 10, Type 0, BuildingBlock: QUQFOY_clean_sbu_3, # of connection points: 4
#     Node 11, Type 0, BuildingBlock: QUQFOY_clean_sbu_3, # of connection points: 4
#     Node 12, Type 0, BuildingBlock: QUQFOY_clean_sbu_3, # of connection points: 4
#     Node 13, Type 0, BuildingBlock: QUQFOY_clean_sbu_3, # of connection points: 4
#     Node 14, Type 0, BuildingBlock: QUQFOY_clean_sbu_3, # of connection points: 4
#     Node 15, Type 0, BuildingBlock: QUQFOY_clean_sbu_3, # of connection points: 4
#     Edge 16, Type (0, 0), BuildingBlock: KIFKEQ_clean_linker_1, # of connection points: 2
#     Edge 17, Type (0, 0), BuildingBlock: KIFKEQ_clean_linker_1, # of connection points: 2
#     Edge 18, Type (0, 0), BuildingBlock: KIFKEQ_clean_linker_1, # of connection points: 2
#     Edge 19, Type (0, 0), BuildingBlock: KIFKEQ_clean_linker_1, # of connection points: 2
#     Edge 20, Type (0, 0), BuildingBlock: KIFKEQ_clean_linker_1, # of connection points: 2
#     Edge 21, Type (0, 0), BuildingBlock: KIFKEQ_clean_linker_1, # of connection points: 2
#     Edge 22, Type (0, 0), BuildingBlock: KIFKEQ_clean_linker_1, # of connection points: 2
#     Edge 23, Type (0, 0), BuildingBlock: KIFKEQ_clean_linker_1, # of connection points: 2
#     Edge 24, Type (0, 0), BuildingBlock: KIFKEQ_clean_linker_1, # of connection points: 2
#     Edge 25, Type (0, 0), BuildingBlock: KIFKEQ_clean_linker_1, # of connection points: 2
#     Edge 26, Type (0, 0), BuildingBlock: KIFKEQ_clean_linker_1, # of connection points: 2
#     Edge 27, Type (0, 0), BuildingBlock: KIFKEQ_clean_linker_1, # of connection points: 2
#     Edge 28, Type (0, 0), BuildingBlock: KIFKEQ_clean_linker_1, # of connection points: 2
#     Edge 29, Type (0, 0), BuildingBlock: KIFKEQ_clean_linker_1, # of connection points: 2
#     Edge 30, Type (0, 0), BuildingBlock: KIFKEQ_clean_linker_1, # of connection points: 2
#     Edge 31, Type (0, 0), BuildingBlock: KIFKEQ_clean_linker_1, # of connection points: 2
#     Edge 32, Type (0, 0), BuildingBlock: KIFKEQ_clean_linker_1, # of connection points: 2
#     Edge 33, Type (0, 0), BuildingBlock: KIFKEQ_clean_linker_1, # of connection points: 2
#     Edge 34, Type (0, 0), BuildingBlock: KIFKEQ_clean_linker_1, # of connection points: 2
#     Edge 35, Type (0, 0), BuildingBlock: KIFKEQ_clean_linker_1, # of connection points: 2
#     Edge 36, Type (0, 0), BuildingBlock: KIFKEQ_clean_linker_1, # of connection points: 2
#     Edge 37, Type (0, 0), BuildingBlock: KIFKEQ_clean_linker_1, # of connection points: 2
#     Edge 38, Type (0, 0), BuildingBlock: KIFKEQ_clean_linker_1, # of connection points: 2
#     Edge 39, Type (0, 0), BuildingBlock: KIFKEQ_clean_linker_1, # of connection points: 2
#     Edge 40, Type (0, 0), BuildingBlock: KIFKEQ_clean_linker_1, # of connection points: 2
#     Edge 41, Type (0, 0), BuildingBlock: KIFKEQ_clean_linker_1, # of connection points: 2
#     Edge 42, Type (0, 0), BuildingBlock: KIFKEQ_clean_linker_1, # of connection points: 2
#     Edge 43, Type (0, 0), BuildingBlock: KIFKEQ_clean_linker_1, # of connection points: 2
#     Edge 44, Type (0, 0), BuildingBlock: KIFKEQ_clean_linker_1, # of connection points: 2
#     Edge 45, Type (0, 0), BuildingBlock: KIFKEQ_clean_linker_1, # of connection points: 2
#     Edge 46, Type (0, 0), BuildingBlock: KIFKEQ_clean_linker_1, # of connection points: 2
#     Edge 47, Type (0, 0), BuildingBlock: KIFKEQ_clean_linker_1, # of connection points: 2
# Relax obj value: 0.062
# Max RMSD: 0.132
# Mean RMSD: 0.124
data_MOF--net-gis--node1-QUQFOY_clean_sbu_3--edge1-KIFKEQ_clean_linker_1
_symmetry_space_group_name_H-M    P1
_symmetry_Int_Tables_number       1
_symmetry_cell_setting            triclinic
loop_
_symmetry_equiv_pos_as_xyz
'x, y, z'
_cell_length_a     54.762653
_cell_length_b     58.188649
_cell_length_c     38.503515
_cell_angle_alpha  90.601424
_cell_angle_beta   90.309114
_cell_angle_gamma 90.442006
loop_
_atom_site_label
_atom_site_type_symbol
_atom_site_fract_x
_atom_site_fract_y
_atom_site_fract_z
_atom_type_partial_charge
C0 C 0.15138 0.5953 0.17758 0.0
O1 O 0.13167 0.59938 0.19364 0.0
Cd2 Cd 0.09417 0.60563 0.16174 0.0
O3 O 0.15118 0.59166 0.14498 0.0
Cd4 Cd 0.12292 0.58656 0.0959 0.0
C5 C 0.11431 0.64348 0.0983 0.0
O6 O 0.08531 0.5733 0.12518 0.0
O7 O 0.08251 0.5835 0.07141 0.0
O8 O 0.14338 0.55016 0.08961 0.0
C9 C 0.07215 0.57557 0.09813 0.0
O10 O 0.10178 0.63884 0.12518 0.0
C11 C 0.14725 0.55172 0.05726 0.0
O12 O 0.12601 0.62777 0.08229 0.0
O13 O 0.14041 0.5701 0.04258 0.0
C14 C 0.65048 0.87383 0.29428 0.0
O15 O 0.63168 0.86875 0.27631 0.0
Cd16 Cd 0.59632 0.85423 0.30581 0.0
O17 O 0.64945 0.8738 0.32725 0.0
Cd18 Cd 0.62038 0.86949 0.37518 0.0
C19 C 0.62323 0.81329 0.35877 0.0
O20 O 0.58096 0.88067 0.34858 0.0
O21 O 0.58016 0.86166 0.3966 0.0
O22 O 0.6351 0.90778 0.38749 0.0
C23 C 0.56857 0.87264 0.37361 0.0
O24 O 0.6107 0.81903 0.33231 0.0
C25 C 0.63813 0.90532 0.41988 0.0
O26 O 0.63075 0.82843 0.38061 0.0
O27 O 0.63351 0.88554 0.43218 0.0
C28 C 0.31204 0.36421 0.6765 0.0
O29 O 0.33221 0.36117 0.69211 0.0
Cd30 Cd 0.36875 0.35476 0.65876 0.0
O31 O 0.31145 0.36712 0.64384 0.0
Cd32 Cd 0.33881 0.3722 0.59429 0.0
C33 C 0.3464 0.31575 0.59685 0.0
O34 O 0.3769 0.38629 0.62156 0.0
O35 O 0.37937 0.37162 0.56992 0.0
O36 O 0.31885 0.40871 0.58781 0.0
C37 C 0.38996 0.38169 0.59524 0.0
O38 O 0.36015 0.32078 0.62272 0.0
C39 C 0.31453 0.40655 0.55553 0.0
O40 O 0.33404 0.33116 0.5816 0.0
O41 O 0.32098 0.38782 0.541 0.0
C42 C 0.81775 0.09257 0.79469 0.0
O43 O 0.83756 0.09576 0.77848 0.0
Cd44 Cd 0.87371 0.10497 0.8123 0.0
O45 O 0.81792 0.09065 0.82752 0.0
Cd46 Cd 0.84709 0.08744 0.87576 0.0
C47 C 0.85168 0.14412 0.87298 0.0
O48 O 0.88657 0.07501 0.85028 0.0
O49 O 0.8871 0.09211 0.90048 0.0
O50 O 0.83024 0.04937 0.88339 0.0
C51 C 0.89869 0.08138 0.87704 0.0
O52 O 0.86481 0.13943 0.84663 0.0
C53 C 0.82581 0.05163 0.91554 0.0
O54 O 0.84051 0.12821 0.88909 0.0
O55 O 0.8307 0.07108 0.92946 0.0
C56 C 0.15247 0.36172 0.80621 0.0
O57 O 0.13252 0.35718 0.79054 0.0
Cd58 Cd 0.09516 0.35114 0.82227 0.0
O59 O 0.15283 0.36577 0.83873 0.0
Cd60 Cd 0.12533 0.37077 0.88828 0.0
C61 C 0.11641 0.3137 0.88539 0.0
O62 O 0.08839 0.38388 0.8582 0.0
O63 O 0.08455 0.37379 0.91179 0.0
O64 O 0.14646 0.40713 0.89519 0.0
C65 C 0.07479 0.38177 0.88459 0.0
O66 O 0.10307 0.31809 0.85908 0.0
C67 C 0.14984 0.40564 0.9277 0.0
O68 O 0.12864 0.32954 0.90086 0.0
O69 O 0.14263 0.38722 0.9421 0.0
C70 C 0.8152 0.87932 0.18226 0.0
O71 O 0.83428 0.87449 0.19946 0.0
Cd72 Cd 0.86984 0.86166 0.16872 0.0
O73 O 0.81579 0.87977 0.14927 0.0
Cd74 Cd 0.84377 0.87647 0.09987 0.0
C75 C 0.84276 0.82019 0.11499 0.0
O76 O 0.88292 0.88885 0.12603 0.0
O77 O 0.88409 0.87036 0.07702 0.0
O78 O 0.82748 0.9138 0.0875 0.0
C79 C 0.8955 0.88133 0.10073 0.0
O80 O 0.85579 0.82603 0.14118 0.0
C81 C 0.82363 0.91024 0.0554 0.0
O82 O 0.83447 0.83526 0.0943 0.0
O83 O 0.82874 0.89039 0.04343 0.0
C84 C 0.31369 0.58898 0.30253 0.0
O85 O 0.33355 0.59094 0.28595 0.0
Cd86 Cd 0.37102 0.59795 0.31778 0.0
O87 O 0.31387 0.58705 0.33539 0.0
Cd88 Cd 0.34194 0.5823 0.38467 0.0
C89 C 0.35078 0.63881 0.37773 0.0
O90 O 0.37909 0.56735 0.35693 0.0
O91 O 0.38232 0.58056 0.40956 0.0
O92 O 0.32014 0.5466 0.39222 0.0
C93 C 0.39239 0.57102 0.38365 0.0
O94 O 0.36291 0.63302 0.35089 0.0
C95 C 0.31629 0.54926 0.42446 0.0
O96 O 0.33979 0.62372 0.39577 0.0
O97 O 0.32383 0.56793 0.43848 0.0
C98 C 0.65478 0.09569 0.67144 0.0
O99 O 0.6358 0.09972 0.68913 0.0
Cd100 Cd 0.60134 0.11365 0.65727 0.0
O101 O 0.65344 0.09443 0.63849 0.0
Cd102 Cd 0.62135 0.09233 0.59299 0.0
C103 C 0.62724 0.14887 0.59506 0.0
O104 O 0.58177 0.08451 0.62199 0.0
O105 O 0.58109 0.10062 0.57157 0.0
O106 O 0.63275 0.05243 0.58676 0.0
C107 C 0.56937 0.09131 0.59606 0.0
O108 O 0.61641 0.14647 0.624 0.0
C109 C 0.63634 0.05287 0.55427 0.0
O110 O 0.63225 0.13151 0.57607 0.0
O111 O 0.63338 0.07206 0.5393 0.0
C112 C 0.81082 0.35586 0.80753 0.0
O113 O 0.83027 0.34943 0.79264 0.0
Cd114 Cd 0.86771 0.34528 0.82524 0.0
O115 O 0.8113 0.36207 0.83927 0.0
Cd116 Cd 0.84023 0.36836 0.88732 0.0
C117 C 0.84642 0.31176 0.89267 0.0
O118 O 0.87816 0.37932 0.85713 0.0
O119 O 0.88133 0.36769 0.9101 0.0
O120 O 0.82238 0.406 0.88832 0.0
C121 C 0.89158 0.37616 0.88366 0.0
O122 O 0.86014 0.31467 0.86646 0.0
C123 C 0.81953 0.40736 0.92092 0.0
O124 O 0.83396 0.32822 0.90538 0.0
O125 O 0.82551 0.38988 0.93858 0.0
C126 C 0.31558 0.06136 0.51549 0.0
O127 O 0.32274 0.07615 0.49375 0.0
Cd128 Cd 0.34227 0.11094 0.51501 0.0
O129 O 0.31701 0.06569 0.54783 0.0
Cd130 Cd 0.32824 0.09647 0.58878 0.0
C131 C 0.38703 0.089 0.56826 0.0
O132 O 0.31845 0.13225 0.55688 0.0
O133 O 0.34096 0.13452 0.60326 0.0
O134 O 0.28854 0.08861 0.61344 0.0
C135 C 0.32946 0.14476 0.57944 0.0
O136 O 0.38092 0.09868 0.54003 0.0
C137 C 0.29601 0.08641 0.64445 0.0
O138 O 0.3712 0.08475 0.59151 0.0
O139 O 0.31884 0.08867 0.64985 0.0
C140 C 0.65099 0.58319 0.3012 0.0
O141 O 0.63026 0.58526 0.28672 0.0
Cd142 Cd 0.59485 0.59609 0.31895 0.0
O143 O 0.65306 0.58419 0.33413 0.0
Cd144 Cd 0.62667 0.58585 0.38623 0.0
C145 C 0.61904 0.64142 0.3692 0.0
O146 O 0.58881 0.56855 0.363 0.0
O147 O 0.58587 0.5879 0.41087 0.0
O148 O 0.6481 0.55091 0.39884 0.0
C149 C 0.57559 0.57522 0.38806 0.0
O150 O 0.60521 0.63329 0.34525 0.0
C151 C 0.65114 0.55476 0.43103 0.0
O152 O 0.6313 0.62805 0.3886 0.0
O153 O 0.64364 0.57395 0.44284 0.0
C154 C 0.152 0.85442 0.17281 0.0
O155 O 0.13119 0.84847 0.18422 0.0
Cd156 Cd 0.09505 0.84576 0.14876 0.0
O157 O 0.1545 0.86079 0.14149 0.0
Cd158 Cd 0.12916 0.86793 0.08945 0.0
C159 C 0.11752 0.81142 0.08202 0.0
O160 O 0.09217 0.88092 0.11892 0.0
O161 O 0.08868 0.8735 0.06414 0.0
O162 O 0.15198 0.90359 0.08915 0.0
C163 C 0.07886 0.88069 0.09189 0.0
O164 O 0.10272 0.81503 0.10688 0.0
C165 C 0.15516 0.90419 0.05657 0.0
O166 O 0.13183 0.82719 0.07132 0.0
O167 O 0.14733 0.88704 0.0389 0.0
C168 C 0.82274 0.56667 0.01632 0.0
O169 O 0.82934 0.58279 -0.00355 0.0
Cd170 Cd 0.84793 0.61693 0.02136 0.0
O171 O 0.82356 0.56955 0.04905 0.0
Cd172 Cd 0.83243 0.59974 0.09241 0.0
C173 C 0.89143 0.59294 0.07524 0.0
O174 O 0.82359 0.63669 0.06369 0.0
O175 O 0.84719 0.6372 0.10907 0.0
O176 O 0.79101 0.59539 0.11062 0.0
C177 C 0.83522 0.64835 0.08662 0.0
O178 O 0.88569 0.60415 0.04818 0.0
C179 C 0.79542 0.58998 0.14181 0.0
O180 O 0.8751 0.58702 0.09696 0.0
O181 O 0.81779 0.58864 0.15077 0.0
C182 C 0.15124 0.06142 0.96467 0.0
O183 O 0.14362 0.07682 0.98539 0.0
Cd184 Cd 0.12269 0.1098 0.96319 0.0
O185 O 0.15005 0.06446 0.93205 0.0
Cd186 Cd 0.13871 0.09448 0.89036 0.0
C187 C 0.08002 0.0841 0.90874 0.0
O188 O 0.14673 0.13121 0.92226 0.0
O189 O 0.12463 0.13198 0.87554 0.0
O190 O 0.17895 0.08813 0.86642 0.0
C191 C 0.13553 0.14301 0.89964 0.0
O192 O 0.08516 0.09454 0.93712 0.0
C193 C 0.17181 0.08517 0.83529 0.0
O194 O 0.0964 0.08055 0.88598 0.0
O195 O 0.14897 0.08629 0.82956 0.0
C196 C 0.65123 0.35893 0.67552 0.0
O197 O 0.63175 0.35051 0.68804 0.0
Cd198 Cd 0.59477 0.34655 0.65368 0.0
O199 O 0.65144 0.36666 0.64476 0.0
Cd200 Cd 0.62448 0.37243 0.59475 0.0
C201 C 0.61873 0.31479 0.58633 0.0
O202 O 0.58646 0.38188 0.62511 0.0
O203 O 0.58381 0.37482 0.56996 0.0
O204 O 0.64302 0.41041 0.59312 0.0
C205 C 0.57339 0.38109 0.59777 0.0
O206 O 0.60364 0.31642 0.61127 0.0
C207 C 0.64749 0.41009 0.56082 0.0
O208 O 0.63101 0.33217 0.57623 0.0
O209 O 0.64202 0.39173 0.54419 0.0
C210 C 0.3165 0.89539 0.45869 0.0
O211 O 0.32403 0.88229 0.4825 0.0
Cd212 Cd 0.34705 0.84899 0.46614 0.0
O213 O 0.31829 0.88918 0.42709 0.0
Cd214 Cd 0.33066 0.85528 0.39289 0.0
C215 C 0.38808 0.87105 0.40701 0.0
O216 O 0.32619 0.82106 0.42997 0.0
O217 O 0.35216 0.81967 0.38766 0.0
O218 O 0.29016 0.84876 0.3704 0.0
C219 C 0.34043 0.80919 0.41107 0.0
O220 O 0.3835 0.86354 0.43727 0.0
C221 C 0.29481 0.85359 0.33909 0.0
O222 O 0.37154 0.87117 0.38363 0.0
O223 O 0.31664 0.85953 0.33215 0.0
H224 H 0.07961 0.78515 0.06022 0.0
H225 H 0.15779 0.78449 0.07404 0.0
H226 H 0.07921 0.74348 0.05329 0.0
H227 H 0.15741 0.74245 0.06865 0.0
H228 H 0.14672 0.66413 0.05329 0.0
H229 H 0.14833 0.70497 0.03751 0.0
H230 H 0.08508 0.71761 0.10134 0.0
H231 H 0.08333 0.6775 0.11654 0.0
C232 C 0.0968 0.77605 0.06076 0.0
C233 C 0.11869 0.78787 0.06791 0.0
C234 C 0.09659 0.75221 0.05707 0.0
C235 C 0.11819 0.73962 0.06141 0.0
C236 C 0.14047 0.75165 0.06517 0.0
C237 C 0.14072 0.77569 0.06825 0.0
C238 C 0.13303 0.67568 0.06349 0.0
C239 C 0.11497 0.66759 0.0863 0.0
C240 C 0.134 0.69902 0.05456 0.0
C241 C 0.11669 0.7145 0.06787 0.0
C242 C 0.0984 0.70614 0.08996 0.0
C243 C 0.09756 0.68309 0.09904 0.0
H244 H 0.41106 0.87013 0.34387 0.0
H245 H 0.4224 0.88713 0.45225 0.0
H246 H 0.45504 0.87399 0.33381 0.0
H247 H 0.46594 0.89164 0.44208 0.0
H248 H 0.53942 0.85787 0.42555 0.0
H249 H 0.49569 0.8619 0.43111 0.0
H250 H 0.49294 0.89834 0.33399 0.0
H251 H 0.5373 0.89394 0.32803 0.0
C252 C 0.42285 0.87532 0.36528 0.0
C253 C 0.41342 0.87791 0.39897 0.0
C254 C 0.448 0.87757 0.35952 0.0
C255 C 0.464 0.88261 0.38733 0.0
C256 C 0.45417 0.88712 0.42032 0.0
C257 C 0.42921 0.88463 0.42612 0.0
C258 C 0.52962 0.86684 0.40534 0.0
C259 C 0.54186 0.87563 0.37637 0.0
C260 C 0.5045 0.86932 0.4087 0.0
C261 C 0.49086 0.88074 0.38324 0.0
C262 C 0.50299 0.88947 0.35403 0.0
C263 C 0.52834 0.88701 0.35068 0.0
H264 H 0.30796 0.29377 0.56396 0.0
H265 H 0.38035 0.28276 0.60536 0.0
H266 H 0.30283 0.25212 0.55537 0.0
H267 H 0.37552 0.24165 0.59601 0.0
H268 H 0.34582 0.17367 0.62985 0.0
H269 H 0.34946 0.21507 0.62838 0.0
H270 H 0.318 0.21537 0.52527 0.0
H271 H 0.31392 0.17323 0.5269 0.0
C272 C 0.32293 0.28252 0.57046 0.0
C273 C 0.34435 0.2914 0.586 0.0
C274 C 0.32002 0.25874 0.56548 0.0
C275 C 0.33857 0.24364 0.57577 0.0
C276 C 0.36065 0.25282 0.58872 0.0
C277 C 0.36344 0.27637 0.594 0.0
C278 C 0.33961 0.18243 0.60677 0.0
C279 C 0.32984 0.17014 0.57831 0.0
C280 C 0.34184 0.20621 0.60588 0.0
C281 C 0.33453 0.21843 0.57641 0.0
C282 C 0.32389 0.20634 0.54826 0.0
C283 C 0.32159 0.18229 0.54918 0.0
H284 H 0.05589 0.08169 0.84625 0.0
H285 H 0.04626 0.07159 0.95624 0.0
H286 H 0.01176 0.07755 0.83731 0.0
H287 H 0.00259 0.06637 0.94731 0.0
H288 H 0.9279 0.09666 0.92949 0.0
H289 H 0.97163 0.09321 0.93532 0.0
H290 H 0.97424 0.05483 0.83868 0.0
H291 H 0.92988 0.059 0.83225 0.0
C292 C 0.0444 0.07795 0.86833 0.0
C293 C 0.05437 0.07736 0.90201 0.0
C294 C 0.01914 0.07551 0.86323 0.0
C295 C 0.00353 0.07214 0.89171 0.0
C296 C 0.01394 0.06968 0.92493 0.0
C297 C 0.03899 0.07253 0.93007 0.0
C298 C 0.93767 0.08736 0.90947 0.0
C299 C 0.92537 0.07809 0.88039 0.0
C300 C 0.96284 0.08518 0.91299 0.0
C301 C 0.97652 0.07346 0.88771 0.0
C302 C 0.96426 0.06403 0.85857 0.0
C303 C 0.93888 0.06633 0.85495 0.0
H304 H 0.0823 0.2802 0.87713 0.0
H305 H 0.15498 0.2925 0.91761 0.0
H306 H 0.08718 0.2392 0.88562 0.0
H307 H 0.16021 0.25098 0.92523 0.0
H308 H 0.15142 0.1725 0.95181 0.0
H309 H 0.14644 0.21445 0.95431 0.0
H310 H 0.11194 0.21222 0.85316 0.0
H311 H 0.11643 0.17092 0.85093 0.0
C312 C 0.09928 0.27411 0.88815 0.0
C313 C 0.1184 0.28949 0.89618 0.0
C314 C 0.10213 0.2506 0.89287 0.0
C315 C 0.12431 0.2418 0.90526 0.0
C316 C 0.14292 0.25726 0.91557 0.0
C317 C 0.13995 0.28099 0.91117 0.0
C318 C 0.14283 0.18108 0.93017 0.0
C319 C 0.13409 0.16838 0.90134 0.0
C320 C 0.14003 0.20505 0.93158 0.0
C321 C 0.12839 0.21659 0.90422 0.0
C322 C 0.12037 0.20383 0.87511 0.0
C323 C 0.12311 0.1801 0.87373 0.0
H324 H 0.9255 0.90578 0.14523 0.0
H325 H 0.92621 0.86243 0.05345 0.0
H326 H 0.97003 0.90908 0.1429 0.0
H327 H 0.97037 0.86504 0.05176 0.0
H328 H 0.04751 0.88701 0.03781 0.0
H329 H 0.00326 0.89041 0.03997 0.0
H330 H 0.00593 0.8863 0.15197 0.0
H331 H 0.05034 0.88379 0.14977 0.0
C332 C 0.93516 0.89696 0.12462 0.0
C333 C 0.92236 0.88387 0.09952 0.0
C334 C 0.96066 0.89875 0.12335 0.0
C335 C 0.97382 0.88741 0.09704 0.0
C336 C 0.96087 0.87442 0.07196 0.0
C337 C 0.9355 0.87276 0.07309 0.0
C338 C 0.03865 0.88709 0.0629 0.0
C339 C 0.05234 0.88492 0.09359 0.0
C340 C 0.01327 0.88891 0.06416 0.0
C341 C 0.00096 0.88828 0.09612 0.0
C342 C 0.01479 0.88703 0.12693 0.0
C343 C 0.04024 0.88547 0.12567 0.0
H344 H 0.36735 0.6748 0.34002 0.0
H345 H 0.33081 0.65885 0.43618 0.0
H346 H 0.36529 0.7153 0.3538 0.0
H347 H 0.32933 0.69999 0.45057 0.0
H348 H 0.30706 0.778 0.43549 0.0
H349 H 0.30994 0.736 0.43182 0.0
H350 H 0.38353 0.74254 0.39291 0.0
H351 H 0.3802 0.78413 0.39518 0.0
C352 C 0.35907 0.67991 0.36436 0.0
C353 C 0.34937 0.66351 0.38709 0.0
C354 C 0.35805 0.70323 0.37241 0.0
C355 C 0.34752 0.7109 0.40359 0.0
C356 C 0.33755 0.6946 0.42633 0.0
C357 C 0.33847 0.67107 0.41814 0.0
C358 C 0.32393 0.77034 0.42672 0.0
C359 C 0.34324 0.7842 0.41501 0.0
C360 C 0.32562 0.74633 0.4247 0.0
C361 C 0.34677 0.73595 0.41132 0.0
C362 C 0.36671 0.74998 0.40231 0.0
C363 C 0.36487 0.77381 0.40379 0.0
H364 H 0.53857 0.06793 0.63991 0.0
H365 H 0.53932 0.10959 0.54769 0.0
H366 H 0.49411 0.06364 0.63444 0.0
H367 H 0.4954 0.10595 0.54286 0.0
H368 H 0.42139 0.08047 0.5195 0.0
H369 H 0.46529 0.07796 0.52776 0.0
H370 H 0.45597 0.08507 0.63875 0.0
H371 H 0.41164 0.08666 0.63039 0.0
C372 C 0.52925 0.07623 0.61862 0.0
C373 C 0.54247 0.08895 0.5941 0.0
C374 C 0.50381 0.07384 0.61554 0.0
C375 C 0.49119 0.08417 0.58792 0.0
C376 C 0.50452 0.09721 0.5639 0.0
C377 C 0.52977 0.09946 0.56685 0.0
C378 C 0.42867 0.08115 0.54572 0.0
C379 C 0.41314 0.08406 0.57426 0.0
C380 C 0.45386 0.07987 0.55047 0.0
C381 C 0.46423 0.0819 0.58386 0.0
C382 C 0.4486 0.08344 0.61268 0.0
C383 C 0.42322 0.08439 0.60792 0.0
H384 H 0.88152 0.17926 0.8548 0.0
H385 H 0.81828 0.16396 0.91742 0.0
H386 H 0.87883 0.21938 0.871 0.0
H387 H 0.81565 0.20482 0.93398 0.0
H388 H 0.80597 0.28438 0.89799 0.0
H389 H 0.80638 0.24231 0.9022 0.0
H390 H 0.88409 0.24478 0.92195 0.0
H391 H 0.88367 0.28648 0.91647 0.0
C392 C 0.86708 0.18444 0.87226 0.0
C393 C 0.85005 0.16838 0.88468 0.0
C394 C 0.8657 0.20748 0.8819 0.0
C395 C 0.84721 0.21525 0.90416 0.0
C396 C 0.83014 0.19927 0.91688 0.0
C397 C 0.83169 0.17594 0.90746 0.0
C398 C 0.82287 0.27589 0.90464 0.0
C399 C 0.84482 0.28845 0.90673 0.0
C400 C 0.82315 0.25185 0.907 0.0
C401 C 0.84538 0.24026 0.91162 0.0
C402 C 0.86678 0.25322 0.91764 0.0
C403 C 0.86655 0.27706 0.91479 0.0
H404 H 0.59047 0.67317 0.33829 0.0
H405 H 0.65185 0.66725 0.40866 0.0
H406 H 0.59497 0.71453 0.33923 0.0
H407 H 0.65641 0.7094 0.40933 0.0
H408 H 0.63139 0.78969 0.4196 0.0
H409 H 0.6326 0.74762 0.42598 0.0
H410 H 0.62799 0.7396 0.31454 0.0
H411 H 0.62643 0.78099 0.30823 0.0
C412 C 0.60496 0.68067 0.35408 0.0
C413 C 0.62105 0.66678 0.37298 0.0
C414 C 0.60756 0.70446 0.35451 0.0
C415 C 0.62634 0.71516 0.37378 0.0
C416 C 0.64183 0.70153 0.39413 0.0
C417 C 0.63924 0.67747 0.39367 0.0
C418 C 0.63111 0.77886 0.39655 0.0
C419 C 0.62832 0.78857 0.36346 0.0
C420 C 0.63183 0.75485 0.40019 0.0
C421 C 0.62984 0.74039 0.37078 0.0
C422 C 0.62895 0.7503 0.33773 0.0
C423 C 0.62808 0.77404 0.33413 0.0
H424 H 0.80589 0.678 0.05029 0.0
H425 H 0.86501 0.67609 0.12493 0.0
H426 H 0.80508 0.72008 0.05564 0.0
H427 H 0.8647 0.71761 0.12947 0.0
H428 H 0.84222 0.7869 0.16346 0.0
H429 H 0.83827 0.74574 0.15458 0.0
H430 H 0.82854 0.7559 0.04437 0.0
H431 H 0.83173 0.79764 0.05358 0.0
C432 C 0.81881 0.68656 0.06755 0.0
C433 C 0.83531 0.67375 0.08751 0.0
C434 C 0.8184 0.71061 0.07052 0.0
C435 C 0.83453 0.72216 0.09344 0.0
C436 C 0.85154 0.70926 0.11232 0.0
C437 C 0.85183 0.68541 0.10955 0.0
C438 C 0.83906 0.78043 0.13732 0.0
C439 C 0.83767 0.79547 0.10913 0.0
C440 C 0.83692 0.75679 0.1322 0.0
C441 C 0.83369 0.74749 0.09865 0.0
C442 C 0.83105 0.76255 0.07053 0.0
C443 C 0.83293 0.78641 0.07576 0.0
H444 H 0.58538 0.28244 0.56709 0.0
H445 H 0.66294 0.29477 0.57628 0.0
H446 H 0.59276 0.2414 0.5584 0.0
H447 H 0.67029 0.25341 0.56891 0.0
H448 H 0.64953 0.18257 0.6325 0.0
H449 H 0.65211 0.22336 0.61831 0.0
H450 H 0.61838 0.20929 0.51873 0.0
H451 H 0.61671 0.16809 0.53246 0.0
C452 C 0.60404 0.27641 0.56608 0.0
C453 C 0.6236 0.29166 0.57225 0.0
C454 C 0.60826 0.25298 0.56102 0.0
C455 C 0.63208 0.24434 0.56301 0.0
C456 C 0.65179 0.25976 0.56702 0.0
C457 C 0.6476 0.28335 0.57111 0.0
C458 C 0.64344 0.18811 0.60713 0.0
C459 C 0.63297 0.17233 0.58352 0.0
C460 C 0.64502 0.21138 0.59895 0.0
C461 C 0.63553 0.21936 0.5674 0.0
C462 C 0.62601 0.20344 0.54307 0.0
C463 C 0.6251 0.17998 0.55088 0.0
H464 H 0.04468 0.39123 0.9384 0.0
H465 H 0.04508 0.38086 0.82724 0.0
H466 H 0.00037 0.39351 0.93742 0.0
H467 H 0.00048 0.38193 0.82627 0.0
H468 H 0.91905 0.39769 0.83396 0.0
H469 H 0.96345 0.40286 0.8335 0.0
H470 H 0.96851 0.36676 0.93086 0.0
H471 H 0.92454 0.36255 0.93194 0.0
C472 C 0.03522 0.38949 0.91371 0.0
C473 C 0.04824 0.38564 0.88296 0.0
C474 C 0.0098 0.39062 0.91313 0.0
C475 C -0.00326 0.38742 0.88186 0.0
C476 C 0.00989 0.38461 0.8508 0.0
C477 C 0.03544 0.3839 0.85133 0.0
C478 C 0.92973 0.39106 0.85533 0.0
C479 C 0.91831 0.37979 0.88303 0.0
C480 C 0.95517 0.3939 0.855 0.0
C481 C 0.96963 0.38538 0.88227 0.0
C482 C 0.95803 0.3741 0.90984 0.0
C483 C 0.93274 0.37149 0.91033 0.0
H484 H 0.54256 0.59336 0.43295 0.0
H485 H 0.54824 0.54833 0.34348 0.0
H486 H 0.49848 0.58925 0.43143 0.0
H487 H 0.50385 0.54347 0.34267 0.0
H488 H 0.42296 0.56624 0.32799 0.0
H489 H 0.46754 0.56453 0.32943 0.0
H490 H 0.46591 0.56356 0.44167 0.0
H491 H 0.42164 0.56627 0.44009 0.0
C492 C 0.5344 0.58229 0.41322 0.0
C493 C 0.54889 0.57122 0.38828 0.0
C494 C 0.50906 0.57977 0.41249 0.0
C495 C 0.49753 0.56592 0.38702 0.0
C496 C 0.51209 0.55447 0.3624 0.0
C497 C 0.53752 0.55715 0.36299 0.0
C498 C 0.43219 0.56536 0.35289 0.0
C499 C 0.41891 0.56669 0.38393 0.0
C500 C 0.45773 0.5643 0.35376 0.0
C501 C 0.47039 0.56427 0.3857 0.0
C502 C 0.45685 0.56421 0.41663 0.0
C503 C 0.43145 0.5656 0.41575 0.0
H504 H 0.54302 0.38066 0.65398 0.0
H505 H 0.54391 0.39086 0.54308 0.0
H506 H 0.49854 0.38345 0.65361 0.0
H507 H 0.49973 0.39472 0.54279 0.0
H508 H 0.42209 0.36707 0.54644 0.0
H509 H 0.46623 0.36957 0.54803 0.0
H510 H 0.46302 0.4066 0.64584 0.0
H511 H 0.41845 0.40324 0.64482 0.0
C512 C 0.53372 0.38393 0.62964 0.0
C513 C 0.54684 0.38523 0.59849 0.0
C514 C 0.50824 0.38566 0.62943 0.0
C515 C 0.49546 0.38902 0.59809 0.0
C516 C 0.50886 0.39152 0.56726 0.0
C517 C 0.53421 0.38944 0.56742 0.0
C518 C 0.43073 0.37589 0.56822 0.0
C519 C 0.41677 0.38491 0.59556 0.0
C520 C 0.45612 0.37749 0.56901 0.0
C521 C 0.46828 0.38841 0.59698 0.0
C522 C 0.45428 0.39785 0.62409 0.0
C523 C 0.42876 0.39606 0.62342 0.0
H524 H 0.04043 0.57876 0.15289 0.0
H525 H 0.04383 0.56401 0.04294 0.0
H526 H -0.0043 0.57964 0.14927 0.0
H527 H -0.0005 0.56396 0.03949 0.0
H528 H 0.91245 0.56878 0.12903 0.0
H529 H 0.95593 0.55996 0.13681 0.0
H530 H 0.97233 0.59603 0.04214 0.0
H531 H 0.92961 0.6043 0.03403 0.0
C532 C 0.03158 0.57507 0.12821 0.0
C533 C 0.0455 0.57172 0.09806 0.0
C534 C 0.006 0.57552 0.12613 0.0
C535 C -0.00592 0.57238 0.09393 0.0
C536 C 0.00813 0.5671 0.0645 0.0
C537 C 0.03352 0.56701 0.06647 0.0
C538 C 0.9254 0.57467 0.10985 0.0
C539 C 0.91748 0.58714 0.08081 0.0
C540 C 0.95027 0.56969 0.11437 0.0
C541 C 0.96755 0.577 0.08983 0.0
C542 C 0.95951 0.58958 0.06108 0.0
C543 C 0.9349 0.5945 0.05658 0.0
H544 H 0.14539 0.54444 0.98716 0.0
H545 H 0.17017 0.51403 0.08278 0.0
H546 H 0.15327 0.50858 0.95636 0.0
H547 H 0.179 0.47836 0.0518 0.0
H548 H 0.17257 0.44403 0.90334 0.0
H549 H 0.18 0.48 0.93476 0.0
H550 H 0.15351 0.44875 0.02889 0.0
H551 H 0.14703 0.41266 -0.00227 0.0
C552 C 0.15323 0.5303 0.00138 0.0
C553 C 0.15679 0.53191 0.03743 0.0
C554 C 0.15789 0.50971 0.98371 0.0
C555 C 0.16647 0.49039 0.00169 0.0
C556 C 0.17186 0.49269 0.0373 0.0
C557 C 0.16694 0.51318 0.05501 0.0
C558 C 0.16891 0.44472 0.93095 0.0
C559 C 0.15892 0.42563 0.94801 0.0
C560 C 0.17301 0.46539 0.9489 0.0
C561 C 0.16695 0.46746 0.98422 0.0
C562 C 0.15862 0.44781 0.00179 0.0
C563 C 0.15477 0.42708 0.98389 0.0
H564 H 0.66245 0.86745 0.22596 0.0
H565 H 0.69195 0.89129 0.32438 0.0
H566 H 0.70252 0.87194 0.19968 0.0
H567 H 0.73183 0.89643 0.29786 0.0
H568 H 0.80388 0.87039 0.24996 0.0
H569 H 0.76378 0.87208 0.27685 0.0
H570 H 0.73331 0.89878 0.1818 0.0
H571 H 0.77323 0.89643 0.15461 0.0
C572 C 0.67738 0.87402 0.24183 0.0
C573 C 0.67406 0.87881 0.2773 0.0
C574 C 0.70035 0.87672 0.22674 0.0
C575 C 0.72045 0.88443 0.24673 0.0
C576 C 0.71686 0.89005 0.28189 0.0
C577 C 0.69395 0.88722 0.29703 0.0
C578 C 0.78869 0.87689 0.23496 0.0
C579 C 0.79169 0.88305 0.20007 0.0
C580 C 0.76569 0.87796 0.25041 0.0
C581 C 0.74526 0.88539 0.23137 0.0
C582 C 0.74854 0.89254 0.19697 0.0
C583 C 0.77148 0.89131 0.18146 0.0
H584 H 0.3155 0.4123 0.48535 0.0
H585 H 0.29248 0.44502 0.58077 0.0
H586 H 0.30809 0.44768 0.4542 0.0
H587 H 0.28409 0.48028 0.5494 0.0
H588 H 0.31875 0.54376 0.49464 0.0
H589 H 0.31052 0.50865 0.5263 0.0
H590 H 0.28218 0.47666 0.43239 0.0
H591 H 0.29138 0.51158 0.40048 0.0
C592 C 0.30811 0.42685 0.49945 0.0
C593 C 0.30499 0.42604 0.53555 0.0
C594 C 0.30371 0.44717 0.48157 0.0
C595 C 0.29582 0.46701 0.49939 0.0
C596 C 0.29071 0.46551 0.53503 0.0
C597 C 0.29539 0.44527 0.55296 0.0
C598 C 0.31022 0.52942 0.48097 0.0
C599 C 0.30613 0.53024 0.44502 0.0
C600 C 0.30536 0.50926 0.49915 0.0
C601 C 0.29604 0.48963 0.48177 0.0
C602 C 0.28992 0.49124 0.44639 0.0
C603 C 0.29506 0.5113 0.42815 0.0
H604 H 0.66381 0.08247 0.7381 0.0
H605 H 0.6997 0.10346 0.64393 0.0
H606 H 0.70329 0.07944 0.76699 0.0
H607 H 0.73907 0.10193 0.67319 0.0
H608 H 0.80917 0.08119 0.72643 0.0
H609 H 0.76982 0.07954 0.69639 0.0
H610 H 0.73408 0.10193 0.79071 0.0
H611 H 0.77304 0.10212 0.82086 0.0
C612 C 0.68017 0.08658 0.72368 0.0
C613 C 0.67869 0.09322 0.68882 0.0
C614 C 0.70285 0.08503 0.74027 0.0
C615 C 0.72455 0.09064 0.72263 0.0
C616 C 0.72294 0.09707 0.68756 0.0
C617 C 0.70031 0.09812 0.67079 0.0
C618 C 0.79282 0.08562 0.74064 0.0
C619 C 0.79414 0.09168 0.77597 0.0
C620 C 0.77025 0.08482 0.72343 0.0
C621 C 0.74858 0.09056 0.74103 0.0
C622 C 0.75013 0.09681 0.77637 0.0
C623 C 0.77256 0.09712 0.79367 0.0
H624 H 0.79767 0.44355 0.88963 0.0
H625 H 0.82549 0.42099 0.98864 0.0
H626 H 0.79264 0.48221 0.91315 0.0
H627 H 0.82126 0.45986 0.01195 0.0
H628 H 0.80285 0.53033 0.05088 0.0
H629 H 0.79592 0.4914 0.02893 0.0
H630 H 0.82095 0.51222 0.92765 0.0
H631 H 0.82718 0.55123 0.94932 0.0
C632 C 0.8024 0.4468 0.91661 0.0
C633 C 0.81222 0.42932 0.93722 0.0
C634 C 0.79968 0.469 0.93001 0.0
C635 C 0.80697 0.47429 0.96424 0.0
C636 C 0.8153 0.45641 0.98554 0.0
C637 C 0.8178 0.4341 0.97219 0.0
C638 C 0.80654 0.52667 0.02378 0.0
C639 C 0.81577 0.54385 0.00189 0.0
C640 C 0.80267 0.50431 0.01126 0.0
C641 C 0.80805 0.49858 0.97661 0.0
C642 C 0.81628 0.51603 0.95437 0.0
C643 C 0.82001 0.53843 0.96684 0.0
H644 H 0.16463 0.0913 0.76587 0.0
H645 H 0.21901 0.07133 0.84112 0.0
H646 H 0.19503 0.08925 0.7201 0.0
H647 H 0.2492 0.06805 0.79519 0.0
H648 H 0.30311 0.09434 0.71375 0.0
H649 H 0.27288 0.0917 0.75971 0.0
H650 H 0.21963 0.06593 0.68527 0.0
H651 H 0.24957 0.06979 0.63918 0.0
C652 C 0.183 0.08603 0.77247 0.0
C653 C 0.18951 0.08165 0.80704 0.0
C654 C 0.20045 0.0847 0.7462 0.0
C655 C 0.22471 0.07858 0.75387 0.0
C656 C 0.23089 0.07332 0.78837 0.0
C657 C 0.21354 0.07503 0.81469 0.0
C658 C 0.28499 0.08793 0.70736 0.0
C659 C 0.27861 0.08245 0.67291 0.0
C660 C 0.26765 0.08627 0.73373 0.0
C661 C 0.24366 0.07872 0.72627 0.0
C662 C 0.23769 0.07233 0.69192 0.0
C663 C 0.2549 0.07437 0.6655 0.0
H664 H 0.67875 0.51802 0.41259 0.0
H665 H 0.6428 0.54943 0.50035 0.0
H666 H 0.68533 0.4833 0.44603 0.0
H667 H 0.64838 0.51439 0.53345 0.0
H668 H 0.66404 0.45014 0.59057 0.0
H669 H 0.67263 0.48637 0.56163 0.0
H670 H 0.65816 0.4536 0.46224 0.0
H671 H 0.65046 0.41737 0.49109 0.0
C672 C 0.67264 0.51762 0.43929 0.0
C673 C 0.66 0.53629 0.45377 0.0
C674 C 0.67622 0.49765 0.45838 0.0
C675 C 0.66689 0.49578 0.49218 0.0
C676 C 0.65596 0.51519 0.50757 0.0
C677 C 0.65268 0.53532 0.48859 0.0
C678 C 0.66318 0.45061 0.56247 0.0
C679 C 0.65635 0.43095 0.5431 0.0
C680 C 0.66797 0.47142 0.5459 0.0
C681 C 0.66585 0.47305 0.5096 0.0
C682 C 0.66031 0.45301 0.49018 0.0
C683 C 0.65572 0.43219 0.50674 0.0
H684 H 0.29319 0.87504 0.27606 0.0
H685 H 0.25239 0.82955 0.34243 0.0
H686 H 0.25896 0.87541 0.23501 0.0
H687 H 0.21885 0.82893 0.30101 0.0
H688 H 0.15233 0.8531 0.24354 0.0
H689 H 0.18752 0.85297 0.28217 0.0
H690 H 0.23564 0.85406 0.19349 0.0
H691 H 0.20025 0.85527 0.15486 0.0
C692 C 0.27705 0.86486 0.28156 0.0
C693 C 0.27531 0.85247 0.31254 0.0
C694 C 0.25747 0.86497 0.25802 0.0
C695 C 0.23595 0.85242 0.26487 0.0
C696 C 0.23478 0.83933 0.2953 0.0
C697 C 0.25411 0.83953 0.31896 0.0
C698 C 0.17041 0.8533 0.23229 0.0
C699 C 0.1735 0.85413 0.19617 0.0
C700 C 0.19065 0.85307 0.25443 0.0
C701 C 0.21451 0.85327 0.241 0.0
C702 C 0.21758 0.85417 0.2048 0.0
C703 C 0.19729 0.85473 0.18263 0.0
H704 H 0.63412 0.04545 0.48414 0.0
H705 H 0.6515 0.0121 0.58074 0.0
H706 H 0.63893 0.0091 0.45319 0.0
H707 H 0.65735 0.97589 0.54971 0.0
H708 H 0.62937 0.91144 0.48919 0.0
H709 H 0.63295 0.94727 0.5223 0.0
H710 H 0.66548 -0.01979 0.43343 0.0
H711 H 0.66082 0.94468 0.40007 0.0
C712 C 0.63949 0.03044 0.49864 0.0
C713 C 0.64223 0.03159 0.53486 0.0
C714 C 0.6424 0.00957 0.4809 0.0
C715 C 0.64843 -0.01058 0.49894 0.0
C716 C 0.65223 -0.00911 0.53504 0.0
C717 C 0.64904 0.0117 0.5528 0.0
C718 C 0.6377 0.92624 0.47703 0.0
C719 C 0.64456 0.92537 0.442 0.0
C720 C 0.63983 0.94681 0.496 0.0
C721 C 0.64918 0.96683 0.4804 0.0
C722 C 0.65758 0.96537 0.44602 0.0
C723 C 0.65511 0.94494 0.42697 0.0
H724 H 0.30467 0.37554 0.74471 0.0
H725 H 0.2672 0.35233 0.65172 0.0
H726 H 0.26599 0.37602 0.77574 0.0
H727 H 0.22885 0.35127 0.68296 0.0
H728 H 0.15948 0.37142 0.73771 0.0
H729 H 0.19813 0.37317 0.70677 0.0
H730 H 0.23621 0.35321 0.8004 0.0
H731 H 0.19778 0.35301 0.83154 0.0
C732 C 0.28817 0.37028 0.73108 0.0
C733 C 0.28888 0.364 0.69584 0.0
C734 C 0.26597 0.37039 0.74886 0.0
C735 C 0.24411 0.36367 0.73196 0.0
C736 C 0.24507 0.35709 0.69674 0.0
C737 C 0.26712 0.35751 0.67883 0.0
C738 C 0.17617 0.36746 0.75155 0.0
C739 C 0.17567 0.36216 0.78698 0.0
C740 C 0.19836 0.36831 0.73382 0.0
C741 C 0.22048 0.3633 0.75097 0.0
C742 C 0.21976 0.3577 0.7864 0.0
C743 C 0.19767 0.35739 0.80426 0.0
H744 H 0.80663 0.01116 0.89128 0.0
H745 H 0.82684 0.04708 0.98597 0.0
H746 H 0.79901 0.97627 0.92408 0.0
H747 H 0.82027 0.01207 0.01864 0.0
H748 H 0.80047 0.94936 0.07514 0.0
H749 H 0.79391 -0.01641 0.0406 0.0
H750 H 0.82406 0.94869 0.95104 0.0
H751 H 0.82953 0.91417 0.98535 0.0
C752 C 0.80919 0.01165 0.91919 0.0
C753 C 0.81756 0.03177 0.93606 0.0
C754 C 0.80498 -0.00839 0.93797 0.0
C755 C 0.80934 -0.00881 0.97397 0.0
C756 C 0.81642 0.01174 -0.00897 0.0
C757 C 0.82033 0.03185 0.97229 0.0
C758 C 0.80519 0.94889 0.04786 0.0
C759 C 0.81577 0.92923 0.03297 0.0
C760 C 0.8016 0.96856 0.02811 0.0
C761 C 0.80887 0.96913 -0.00682 0.0
C762 C 0.81802 0.9489 0.97777 0.0
C763 C 0.82127 0.92908 -0.00256 0.0
H764 H 0.15932 0.58541 0.24598 0.0
H765 H 0.19651 0.60351 0.15144 0.0
H766 H 0.19851 0.58265 0.27591 0.0
H767 H 0.23552 0.60222 0.18157 0.0
H768 H 0.30404 0.5776 0.23468 0.0
H769 H 0.26461 0.57817 0.205 0.0
H770 H 0.23086 0.60364 0.29906 0.0
H771 H 0.26989 0.60164 0.32896 0.0
C772 C 0.17588 0.5891 0.23177 0.0
C773 C 0.17489 0.59459 0.19642 0.0
C774 C 0.19839 0.58765 0.24892 0.0
C775 C 0.22036 0.59218 0.23124 0.0
C776 C 0.21917 0.59805 0.19593 0.0
C777 C 0.19674 0.599 0.17867 0.0
C778 C 0.28812 0.58322 0.24891 0.0
C779 C 0.29 0.58948 0.2841 0.0
C780 C 0.26551 0.58372 0.2319 0.0
C781 C 0.24438 0.59101 0.24952 0.0
C782 C 0.24647 0.59744 0.28473 0.0
C783 C 0.26894 0.59646 0.30187 0.0
H784 H 0.32331 0.04047 0.45253 0.0
H785 H 0.29025 0.02967 0.55274 0.0
H786 H 0.31718 -4e-05 0.43816 0.0
H787 H 0.28342 -0.01065 0.53799 0.0
H788 H 0.31724 0.91709 0.52199 0.0
H789 H 0.31082 0.95767 0.53374 0.0
H790 H 0.29044 0.96776 0.42639 0.0
H791 H 0.29753 0.92716 0.41438 0.0
C792 C 0.31412 0.02959 0.47109 0.0
C793 C 0.30765 0.03816 0.50396 0.0
C794 C 0.3105 0.00635 0.46282 0.0
C795 C 0.30013 -0.0087 0.48717 0.0
C796 C 0.29197 0.00034 0.51899 0.0
C797 C 0.29579 0.02348 0.52736 0.0
C798 C 0.31093 0.92784 0.50101 0.0
C799 C 0.30823 0.91893 0.46717 0.0
C800 C 0.30711 0.95115 0.50778 0.0
C801 C 0.30033 0.96606 0.4809 0.0
C802 C 0.29609 0.95683 0.44752 0.0
C803 C 0.30002 0.93353 0.44071 0.0
H804 H 0.79733 0.57418 0.20896 0.0
H805 H 0.74743 0.59757 0.12976 0.0
H806 H 0.76294 0.56897 0.24866 0.0
H807 H 0.71363 0.5933 0.16927 0.0
H808 H 0.65313 0.56806 0.2341 0.0
H809 H 0.68884 0.56606 0.19696 0.0
H810 H 0.7342 0.59085 0.28188 0.0
H811 H 0.69852 0.59178 0.31949 0.0
C812 C 0.77907 0.5782 0.20007 0.0
C813 C 0.77509 0.58622 0.16623 0.0
C814 C 0.75939 0.57533 0.2228 0.0
C815 C 0.73544 0.58055 0.21212 0.0
C816 C 0.73165 0.58853 0.17822 0.0
C817 C 0.75115 0.59119 0.15557 0.0
C818 C 0.67076 0.57288 0.24491 0.0
C819 C 0.67298 0.58034 0.27956 0.0
C820 C 0.69125 0.57184 0.2236 0.0
C821 C 0.71438 0.57869 0.23622 0.0
C822 C 0.71674 0.58529 0.27133 0.0
C823 C 0.69625 0.58597 0.29284 0.0
H824 H 0.17988 0.93972 0.08751 0.0
H825 H 0.15018 0.91686 0.98882 0.0
H826 H 0.18618 0.97807 0.06425 0.0
H827 H 0.15563 0.95537 0.96586 0.0
H828 H 0.17165 0.02591 0.9281 0.0
H829 H 0.18037 -0.01264 0.94873 0.0
H830 H 0.15759 0.00759 0.05186 0.0
H831 H 0.14959 0.04616 0.03152 0.0
C832 C 0.17514 0.94279 0.06061 0.0
C833 C 0.16423 0.9254 0.04011 0.0
C834 C 0.17857 0.96482 0.04736 0.0
C835 C 0.1709 0.96998 0.01345 0.0
C836 C 0.16186 0.95204 -0.00795 0.0
C837 C 0.15867 0.92992 0.00523 0.0
C838 C 0.1689 0.02222 0.95532 0.0
C839 C 0.15965 0.03906 0.9781 0.0
C840 C 0.17381 8e-05 0.96709 0.0
C841 C 0.1695 -0.00575 0.00187 0.0
C842 C 0.16146 0.01147 0.02499 0.0
C843 C 0.15668 0.03362 0.01327 0.0
H844 H 0.65886 0.34297 0.74151 0.0
H845 H 0.69581 0.37508 0.65548 0.0
H846 H 0.69747 0.34178 0.77349 0.0
H847 H 0.73411 0.37414 0.68757 0.0
H848 H 0.80248 0.34503 0.739 0.0
H849 H 0.76359 0.34555 0.70778 0.0
H850 H 0.72728 0.36816 0.80127 0.0
H851 H 0.76595 0.36734 0.83262 0.0
C852 C 0.67513 0.3499 0.72952 0.0
C853 C 0.67422 0.35908 0.69592 0.0
C854 C 0.69723 0.34928 0.74787 0.0
C855 C 0.71884 0.35775 0.73294 0.0
C856 C 0.71785 0.36713 0.69954 0.0
C857 C 0.69582 0.36782 0.68126 0.0
C858 C 0.78621 0.35009 0.7529 0.0
C859 C 0.78736 0.35618 0.78828 0.0
C860 C 0.76395 0.35049 0.73498 0.0
C861 C 0.74239 0.35693 0.75208 0.0
C862 C 0.74352 0.36287 0.78748 0.0
C863 C 0.76575 0.36254 0.80536 0.0
loop_
_geom_bond_atom_site_label_1
_geom_bond_atom_site_label_2
_geom_bond_distance
_geom_bond_site_symmetry_2
_ccdc_geom_bond_type
C0 O1 1.306 . S
C0 O3 1.160 . S
O1 C0 1.306 . S
O1 Cd2 2.228 . S
Cd2 O1 2.228 . S
Cd2 O6 2.273 . S
Cd2 O10 2.277 . S
O3 C0 1.160 . S
O3 Cd4 2.203 . S
Cd4 O3 2.203 . S
Cd4 O6 2.411 . S
Cd4 O7 2.333 . S
Cd4 O8 2.352 . S
Cd4 O12 2.277 . S
Cd4 O13 2.356 . S
C5 O10 1.209 . S
C5 O12 1.226 . S
O6 Cd2 2.273 . S
O6 Cd4 2.411 . S
O6 C9 1.320 . S
O7 Cd4 2.333 . S
O7 C9 1.214 . S
O8 Cd4 2.352 . S
O8 C11 1.258 . S
C9 O6 1.320 . S
C9 O7 1.214 . S
O10 Cd2 2.277 . S
O10 C5 1.209 . S
C11 O8 1.258 . S
C11 O13 1.282 . S
O12 Cd4 2.277 . S
O12 C5 1.226 . S
O13 Cd4 2.356 . S
O13 C11 1.282 . S
C14 O15 1.306 . S
C14 O17 1.160 . S
O15 C14 1.306 . S
O15 Cd16 2.228 . S
Cd16 O15 2.228 . S
Cd16 O20 2.273 . S
Cd16 O24 2.277 . S
O17 C14 1.160 . S
O17 Cd18 2.203 . S
Cd18 O17 2.203 . S
Cd18 O20 2.411 . S
Cd18 O21 2.333 . S
Cd18 O22 2.352 . S
Cd18 O26 2.277 . S
Cd18 O27 2.356 . S
C19 O24 1.209 . S
C19 O26 1.226 . S
O20 Cd16 2.273 . S
O20 Cd18 2.411 . S
O20 C23 1.320 . S
O21 Cd18 2.333 . S
O21 C23 1.214 . S
O22 Cd18 2.352 . S
O22 C25 1.258 . S
C23 O20 1.320 . S
C23 O21 1.214 . S
O24 Cd16 2.277 . S
O24 C19 1.209 . S
C25 O22 1.258 . S
C25 O27 1.282 . S
O26 Cd18 2.277 . S
O26 C19 1.226 . S
O27 Cd18 2.356 . S
O27 C25 1.282 . S
C28 O29 1.306 . S
C28 O31 1.160 . S
O29 C28 1.306 . S
O29 Cd30 2.228 . S
Cd30 O29 2.228 . S
Cd30 O34 2.273 . S
Cd30 O38 2.277 . S
O31 C28 1.160 . S
O31 Cd32 2.203 . S
Cd32 O31 2.203 . S
Cd32 O34 2.411 . S
Cd32 O35 2.333 . S
Cd32 O36 2.352 . S
Cd32 O40 2.277 . S
Cd32 O41 2.356 . S
C33 O38 1.209 . S
C33 O40 1.226 . S
O34 Cd30 2.273 . S
O34 Cd32 2.411 . S
O34 C37 1.320 . S
O35 Cd32 2.333 . S
O35 C37 1.214 . S
O36 Cd32 2.352 . S
O36 C39 1.258 . S
C37 O34 1.320 . S
C37 O35 1.214 . S
O38 Cd30 2.277 . S
O38 C33 1.209 . S
C39 O36 1.258 . S
C39 O41 1.282 . S
O40 Cd32 2.277 . S
O40 C33 1.226 . S
O41 Cd32 2.356 . S
O41 C39 1.282 . S
C42 O43 1.306 . S
C42 O45 1.160 . S
O43 C42 1.306 . S
O43 Cd44 2.228 . S
Cd44 O43 2.228 . S
Cd44 O48 2.273 . S
Cd44 O52 2.277 . S
O45 C42 1.160 . S
O45 Cd46 2.203 . S
Cd46 O45 2.203 . S
Cd46 O48 2.411 . S
Cd46 O49 2.333 . S
Cd46 O50 2.352 . S
Cd46 O54 2.277 . S
Cd46 O55 2.356 . S
C47 O52 1.209 . S
C47 O54 1.226 . S
O48 Cd44 2.273 . S
O48 Cd46 2.411 . S
O48 C51 1.320 . S
O49 Cd46 2.333 . S
O49 C51 1.214 . S
O50 Cd46 2.352 . S
O50 C53 1.258 . S
C51 O48 1.320 . S
C51 O49 1.214 . S
O52 Cd44 2.277 . S
O52 C47 1.209 . S
C53 O50 1.258 . S
C53 O55 1.282 . S
O54 Cd46 2.277 . S
O54 C47 1.226 . S
O55 Cd46 2.356 . S
O55 C53 1.282 . S
C56 O57 1.306 . S
C56 O59 1.160 . S
O57 C56 1.306 . S
O57 Cd58 2.228 . S
Cd58 O57 2.228 . S
Cd58 O62 2.273 . S
Cd58 O66 2.277 . S
O59 C56 1.160 . S
O59 Cd60 2.203 . S
Cd60 O59 2.203 . S
Cd60 O62 2.411 . S
Cd60 O63 2.333 . S
Cd60 O64 2.352 . S
Cd60 O68 2.277 . S
Cd60 O69 2.356 . S
C61 O66 1.209 . S
C61 O68 1.226 . S
O62 Cd58 2.273 . S
O62 Cd60 2.411 . S
O62 C65 1.320 . S
O63 Cd60 2.333 . S
O63 C65 1.214 . S
O64 Cd60 2.352 . S
O64 C67 1.258 . S
C65 O62 1.320 . S
C65 O63 1.214 . S
O66 Cd58 2.277 . S
O66 C61 1.209 . S
C67 O64 1.258 . S
C67 O69 1.282 . S
O68 Cd60 2.277 . S
O68 C61 1.226 . S
O69 Cd60 2.356 . S
O69 C67 1.282 . S
C70 O71 1.306 . S
C70 O73 1.160 . S
O71 C70 1.306 . S
O71 Cd72 2.228 . S
Cd72 O71 2.228 . S
Cd72 O76 2.273 . S
Cd72 O80 2.277 . S
O73 C70 1.160 . S
O73 Cd74 2.203 . S
Cd74 O73 2.203 . S
Cd74 O76 2.411 . S
Cd74 O77 2.333 . S
Cd74 O78 2.352 . S
Cd74 O82 2.277 . S
Cd74 O83 2.356 . S
C75 O80 1.209 . S
C75 O82 1.226 . S
O76 Cd72 2.273 . S
O76 Cd74 2.411 . S
O76 C79 1.320 . S
O77 Cd74 2.333 . S
O77 C79 1.214 . S
O78 Cd74 2.352 . S
O78 C81 1.258 . S
C79 O76 1.320 . S
C79 O77 1.214 . S
O80 Cd72 2.277 . S
O80 C75 1.209 . S
C81 O78 1.258 . S
C81 O83 1.282 . S
O82 Cd74 2.277 . S
O82 C75 1.226 . S
O83 Cd74 2.356 . S
O83 C81 1.282 . S
C84 O85 1.306 . S
C84 O87 1.160 . S
O85 C84 1.306 . S
O85 Cd86 2.228 . S
Cd86 O85 2.228 . S
Cd86 O90 2.273 . S
Cd86 O94 2.277 . S
O87 C84 1.160 . S
O87 Cd88 2.203 . S
Cd88 O87 2.203 . S
Cd88 O90 2.411 . S
Cd88 O91 2.333 . S
Cd88 O92 2.352 . S
Cd88 O96 2.277 . S
Cd88 O97 2.356 . S
C89 O94 1.209 . S
C89 O96 1.226 . S
O90 Cd86 2.273 . S
O90 Cd88 2.411 . S
O90 C93 1.320 . S
O91 Cd88 2.333 . S
O91 C93 1.214 . S
O92 Cd88 2.352 . S
O92 C95 1.258 . S
C93 O90 1.320 . S
C93 O91 1.214 . S
O94 Cd86 2.277 . S
O94 C89 1.209 . S
C95 O92 1.258 . S
C95 O97 1.282 . S
O96 Cd88 2.277 . S
O96 C89 1.226 . S
O97 Cd88 2.356 . S
O97 C95 1.282 . S
C98 O99 1.306 . S
C98 O101 1.160 . S
O99 C98 1.306 . S
O99 Cd100 2.228 . S
Cd100 O99 2.228 . S
Cd100 O104 2.273 . S
Cd100 O108 2.277 . S
O101 C98 1.160 . S
O101 Cd102 2.203 . S
Cd102 O101 2.203 . S
Cd102 O104 2.411 . S
Cd102 O105 2.333 . S
Cd102 O106 2.352 . S
Cd102 O110 2.277 . S
Cd102 O111 2.356 . S
C103 O108 1.209 . S
C103 O110 1.226 . S
O104 Cd100 2.273 . S
O104 Cd102 2.411 . S
O104 C107 1.320 . S
O105 Cd102 2.333 . S
O105 C107 1.214 . S
O106 Cd102 2.352 . S
O106 C109 1.258 . S
C107 O104 1.320 . S
C107 O105 1.214 . S
O108 Cd100 2.277 . S
O108 C103 1.209 . S
C109 O106 1.258 . S
C109 O111 1.282 . S
O110 Cd102 2.277 . S
O110 C103 1.226 . S
O111 Cd102 2.356 . S
O111 C109 1.282 . S
C112 O113 1.306 . S
C112 O115 1.160 . S
O113 C112 1.306 . S
O113 Cd114 2.228 . S
Cd114 O113 2.228 . S
Cd114 O118 2.273 . S
Cd114 O122 2.277 . S
O115 C112 1.160 . S
O115 Cd116 2.203 . S
Cd116 O115 2.203 . S
Cd116 O118 2.411 . S
Cd116 O119 2.333 . S
Cd116 O120 2.352 . S
Cd116 O124 2.277 . S
Cd116 O125 2.356 . S
C117 O122 1.209 . S
C117 O124 1.226 . S
O118 Cd114 2.273 . S
O118 Cd116 2.411 . S
O118 C121 1.320 . S
O119 Cd116 2.333 . S
O119 C121 1.214 . S
O120 Cd116 2.352 . S
O120 C123 1.258 . S
C121 O118 1.320 . S
C121 O119 1.214 . S
O122 Cd114 2.277 . S
O122 C117 1.209 . S
C123 O120 1.258 . S
C123 O125 1.282 . S
O124 Cd116 2.277 . S
O124 C117 1.226 . S
O125 Cd116 2.356 . S
O125 C123 1.282 . S
C126 O127 1.306 . S
C126 O129 1.160 . S
O127 C126 1.306 . S
O127 Cd128 2.228 . S
Cd128 O127 2.228 . S
Cd128 O132 2.273 . S
Cd128 O136 2.277 . S
O129 C126 1.160 . S
O129 Cd130 2.203 . S
Cd130 O129 2.203 . S
Cd130 O132 2.411 . S
Cd130 O133 2.333 . S
Cd130 O134 2.352 . S
Cd130 O138 2.277 . S
Cd130 O139 2.356 . S
C131 O136 1.209 . S
C131 O138 1.226 . S
O132 Cd128 2.273 . S
O132 Cd130 2.411 . S
O132 C135 1.320 . S
O133 Cd130 2.333 . S
O133 C135 1.214 . S
O134 Cd130 2.352 . S
O134 C137 1.258 . S
C135 O132 1.320 . S
C135 O133 1.214 . S
O136 Cd128 2.277 . S
O136 C131 1.209 . S
C137 O134 1.258 . S
C137 O139 1.282 . S
O138 Cd130 2.277 . S
O138 C131 1.226 . S
O139 Cd130 2.356 . S
O139 C137 1.282 . S
C140 O141 1.306 . S
C140 O143 1.160 . S
O141 C140 1.306 . S
O141 Cd142 2.228 . S
Cd142 O141 2.228 . S
Cd142 O146 2.273 . S
Cd142 O150 2.277 . S
O143 C140 1.160 . S
O143 Cd144 2.203 . S
Cd144 O143 2.203 . S
Cd144 O146 2.411 . S
Cd144 O147 2.333 . S
Cd144 O148 2.352 . S
Cd144 O152 2.277 . S
Cd144 O153 2.356 . S
C145 O150 1.209 . S
C145 O152 1.226 . S
O146 Cd142 2.273 . S
O146 Cd144 2.411 . S
O146 C149 1.320 . S
O147 Cd144 2.333 . S
O147 C149 1.214 . S
O148 Cd144 2.352 . S
O148 C151 1.258 . S
C149 O146 1.320 . S
C149 O147 1.214 . S
O150 Cd142 2.277 . S
O150 C145 1.209 . S
C151 O148 1.258 . S
C151 O153 1.282 . S
O152 Cd144 2.277 . S
O152 C145 1.226 . S
O153 Cd144 2.356 . S
O153 C151 1.282 . S
C154 O155 1.306 . S
C154 O157 1.160 . S
O155 C154 1.306 . S
O155 Cd156 2.228 . S
Cd156 O155 2.228 . S
Cd156 O160 2.273 . S
Cd156 O164 2.277 . S
O157 C154 1.160 . S
O157 Cd158 2.203 . S
Cd158 O157 2.203 . S
Cd158 O160 2.411 . S
Cd158 O161 2.333 . S
Cd158 O162 2.352 . S
Cd158 O166 2.277 . S
Cd158 O167 2.356 . S
C159 O164 1.209 . S
C159 O166 1.226 . S
O160 Cd156 2.273 . S
O160 Cd158 2.411 . S
O160 C163 1.320 . S
O161 Cd158 2.333 . S
O161 C163 1.214 . S
O162 Cd158 2.352 . S
O162 C165 1.258 . S
C163 O160 1.320 . S
C163 O161 1.214 . S
O164 Cd156 2.277 . S
O164 C159 1.209 . S
C165 O162 1.258 . S
C165 O167 1.282 . S
O166 Cd158 2.277 . S
O166 C159 1.226 . S
O167 Cd158 2.356 . S
O167 C165 1.282 . S
C168 O169 1.306 . S
C168 O171 1.160 . S
O169 C168 1.306 . S
O169 Cd170 2.228 . S
Cd170 O169 2.228 . S
Cd170 O174 2.273 . S
Cd170 O178 2.277 . S
O171 C168 1.160 . S
O171 Cd172 2.203 . S
Cd172 O171 2.203 . S
Cd172 O174 2.411 . S
Cd172 O175 2.333 . S
Cd172 O176 2.352 . S
Cd172 O180 2.277 . S
Cd172 O181 2.356 . S
C173 O178 1.209 . S
C173 O180 1.226 . S
O174 Cd170 2.273 . S
O174 Cd172 2.411 . S
O174 C177 1.320 . S
O175 Cd172 2.333 . S
O175 C177 1.214 . S
O176 Cd172 2.352 . S
O176 C179 1.258 . S
C177 O174 1.320 . S
C177 O175 1.214 . S
O178 Cd170 2.277 . S
O178 C173 1.209 . S
C179 O176 1.258 . S
C179 O181 1.282 . S
O180 Cd172 2.277 . S
O180 C173 1.226 . S
O181 Cd172 2.356 . S
O181 C179 1.282 . S
C182 O183 1.306 . S
C182 O185 1.160 . S
O183 C182 1.306 . S
O183 Cd184 2.228 . S
Cd184 O183 2.228 . S
Cd184 O188 2.273 . S
Cd184 O192 2.277 . S
O185 C182 1.160 . S
O185 Cd186 2.203 . S
Cd186 O185 2.203 . S
Cd186 O188 2.411 . S
Cd186 O189 2.333 . S
Cd186 O190 2.352 . S
Cd186 O194 2.277 . S
Cd186 O195 2.356 . S
C187 O192 1.209 . S
C187 O194 1.226 . S
O188 Cd184 2.273 . S
O188 Cd186 2.411 . S
O188 C191 1.320 . S
O189 Cd186 2.333 . S
O189 C191 1.214 . S
O190 Cd186 2.352 . S
O190 C193 1.258 . S
C191 O188 1.320 . S
C191 O189 1.214 . S
O192 Cd184 2.277 . S
O192 C187 1.209 . S
C193 O190 1.258 . S
C193 O195 1.282 . S
O194 Cd186 2.277 . S
O194 C187 1.226 . S
O195 Cd186 2.356 . S
O195 C193 1.282 . S
C196 O197 1.306 . S
C196 O199 1.160 . S
O197 C196 1.306 . S
O197 Cd198 2.228 . S
Cd198 O197 2.228 . S
Cd198 O202 2.273 . S
Cd198 O206 2.277 . S
O199 C196 1.160 . S
O199 Cd200 2.203 . S
Cd200 O199 2.203 . S
Cd200 O202 2.411 . S
Cd200 O203 2.333 . S
Cd200 O204 2.352 . S
Cd200 O208 2.277 . S
Cd200 O209 2.356 . S
C201 O206 1.209 . S
C201 O208 1.226 . S
O202 Cd198 2.273 . S
O202 Cd200 2.411 . S
O202 C205 1.320 . S
O203 Cd200 2.333 . S
O203 C205 1.214 . S
O204 Cd200 2.352 . S
O204 C207 1.258 . S
C205 O202 1.320 . S
C205 O203 1.214 . S
O206 Cd198 2.277 . S
O206 C201 1.209 . S
C207 O204 1.258 . S
C207 O209 1.282 . S
O208 Cd200 2.277 . S
O208 C201 1.226 . S
O209 Cd200 2.356 . S
O209 C207 1.282 . S
C210 O211 1.306 . S
C210 O213 1.160 . S
O211 C210 1.306 . S
O211 Cd212 2.228 . S
Cd212 O211 2.228 . S
Cd212 O216 2.273 . S
Cd212 O220 2.277 . S
O213 C210 1.160 . S
O213 Cd214 2.203 . S
Cd214 O213 2.203 . S
Cd214 O216 2.411 . S
Cd214 O217 2.333 . S
Cd214 O218 2.352 . S
Cd214 O222 2.277 . S
Cd214 O223 2.356 . S
C215 O220 1.209 . S
C215 O222 1.226 . S
O216 Cd212 2.273 . S
O216 Cd214 2.411 . S
O216 C219 1.320 . S
O217 Cd214 2.333 . S
O217 C219 1.214 . S
O218 Cd214 2.352 . S
O218 C221 1.258 . S
C219 O216 1.320 . S
C219 O217 1.214 . S
O220 Cd212 2.277 . S
O220 C215 1.209 . S
C221 O218 1.258 . S
C221 O223 1.282 . S
O222 Cd214 2.277 . S
O222 C215 1.226 . S
O223 Cd214 2.356 . S
O223 C221 1.282 . S
H224 C232 0.950 . S
H225 C237 0.950 . S
H226 C234 0.950 . S
H227 C236 0.950 . S
H228 C238 0.950 . S
H229 C240 0.950 . S
H230 C242 0.950 . S
H231 C243 0.950 . S
C232 H224 0.950 . S
C232 C233 1.386 . S
C232 C234 1.391 . S
C233 C232 1.386 . S
C233 C237 1.393 . S
C234 H226 0.950 . S
C234 C232 1.391 . S
C234 C235 1.400 . S
C235 C234 1.400 . S
C235 C236 1.398 . S
C235 C241 1.491 . S
C236 H227 0.950 . S
C236 C235 1.398 . S
C236 C237 1.391 . S
C237 H225 0.950 . S
C237 C233 1.393 . S
C237 C236 1.391 . S
C238 H228 0.950 . S
C238 C239 1.386 . S
C238 C240 1.391 . S
C239 C238 1.386 . S
C239 C243 1.393 . S
C240 H229 0.950 . S
C240 C238 1.391 . S
C240 C241 1.400 . S
C241 C235 1.491 . S
C241 C240 1.400 . S
C241 C242 1.398 . S
C242 H230 0.950 . S
C242 C241 1.398 . S
C242 C243 1.391 . S
C243 H231 0.950 . S
C243 C239 1.393 . S
C243 C242 1.391 . S
H244 C252 0.950 . S
H245 C257 0.950 . S
H246 C254 0.950 . S
H247 C256 0.950 . S
H248 C258 0.950 . S
H249 C260 0.950 . S
H250 C262 0.950 . S
H251 C263 0.950 . S
C252 H244 0.950 . S
C252 C253 1.386 . S
C252 C254 1.391 . S
C253 C252 1.386 . S
C253 C257 1.393 . S
C254 H246 0.950 . S
C254 C252 1.391 . S
C254 C255 1.400 . S
C255 C254 1.400 . S
C255 C256 1.398 . S
C255 C261 1.491 . S
C256 H247 0.950 . S
C256 C255 1.398 . S
C256 C257 1.391 . S
C257 H245 0.950 . S
C257 C253 1.393 . S
C257 C256 1.391 . S
C258 H248 0.950 . S
C258 C259 1.386 . S
C258 C260 1.391 . S
C259 C258 1.386 . S
C259 C263 1.393 . S
C260 H249 0.950 . S
C260 C258 1.391 . S
C260 C261 1.400 . S
C261 C255 1.491 . S
C261 C260 1.400 . S
C261 C262 1.398 . S
C262 H250 0.950 . S
C262 C261 1.398 . S
C262 C263 1.391 . S
C263 H251 0.950 . S
C263 C259 1.393 . S
C263 C262 1.391 . S
H264 C272 0.950 . S
H265 C277 0.950 . S
H266 C274 0.950 . S
H267 C276 0.950 . S
H268 C278 0.950 . S
H269 C280 0.950 . S
H270 C282 0.950 . S
H271 C283 0.950 . S
C272 H264 0.950 . S
C272 C273 1.386 . S
C272 C274 1.391 . S
C273 C272 1.386 . S
C273 C277 1.393 . S
C274 H266 0.950 . S
C274 C272 1.391 . S
C274 C275 1.400 . S
C275 C274 1.400 . S
C275 C276 1.398 . S
C275 C281 1.491 . S
C276 H267 0.950 . S
C276 C275 1.398 . S
C276 C277 1.391 . S
C277 H265 0.950 . S
C277 C273 1.393 . S
C277 C276 1.391 . S
C278 H268 0.950 . S
C278 C279 1.386 . S
C278 C280 1.391 . S
C279 C278 1.386 . S
C279 C283 1.393 . S
C280 H269 0.950 . S
C280 C278 1.391 . S
C280 C281 1.400 . S
C281 C275 1.491 . S
C281 C280 1.400 . S
C281 C282 1.398 . S
C282 H270 0.950 . S
C282 C281 1.398 . S
C282 C283 1.391 . S
C283 H271 0.950 . S
C283 C279 1.393 . S
C283 C282 1.391 . S
H284 C292 0.950 . S
H285 C297 0.950 . S
H286 C294 0.950 . S
H287 C296 0.950 . S
H288 C298 0.950 . S
H289 C300 0.950 . S
H290 C302 0.950 . S
H291 C303 0.950 . S
C292 H284 0.950 . S
C292 C293 1.386 . S
C292 C294 1.391 . S
C293 C292 1.386 . S
C293 C297 1.393 . S
C294 H286 0.950 . S
C294 C292 1.391 . S
C294 C295 1.400 . S
C295 C294 1.400 . S
C295 C296 1.398 . S
C295 C301 1.491 1_455 S
C296 H287 0.950 . S
C296 C295 1.398 . S
C296 C297 1.391 . S
C297 H285 0.950 . S
C297 C293 1.393 . S
C297 C296 1.391 . S
C298 H288 0.950 . S
C298 C299 1.386 . S
C298 C300 1.391 . S
C299 C298 1.386 . S
C299 C303 1.393 . S
C300 H289 0.950 . S
C300 C298 1.391 . S
C300 C301 1.400 . S
C301 C295 1.491 1_655 S
C301 C300 1.400 . S
C301 C302 1.398 . S
C302 H290 0.950 . S
C302 C301 1.398 . S
C302 C303 1.391 . S
C303 H291 0.950 . S
C303 C299 1.393 . S
C303 C302 1.391 . S
H304 C312 0.950 . S
H305 C317 0.950 . S
H306 C314 0.950 . S
H307 C316 0.950 . S
H308 C318 0.950 . S
H309 C320 0.950 . S
H310 C322 0.950 . S
H311 C323 0.950 . S
C312 H304 0.950 . S
C312 C313 1.386 . S
C312 C314 1.391 . S
C313 C312 1.386 . S
C313 C317 1.393 . S
C314 H306 0.950 . S
C314 C312 1.391 . S
C314 C315 1.400 . S
C315 C314 1.400 . S
C315 C316 1.398 . S
C315 C321 1.491 . S
C316 H307 0.950 . S
C316 C315 1.398 . S
C316 C317 1.391 . S
C317 H305 0.950 . S
C317 C313 1.393 . S
C317 C316 1.391 . S
C318 H308 0.950 . S
C318 C319 1.386 . S
C318 C320 1.391 . S
C319 C318 1.386 . S
C319 C323 1.393 . S
C320 H309 0.950 . S
C320 C318 1.391 . S
C320 C321 1.400 . S
C321 C315 1.491 . S
C321 C320 1.400 . S
C321 C322 1.398 . S
C322 H310 0.950 . S
C322 C321 1.398 . S
C322 C323 1.391 . S
C323 H311 0.950 . S
C323 C319 1.393 . S
C323 C322 1.391 . S
H324 C332 0.950 . S
H325 C337 0.950 . S
H326 C334 0.950 . S
H327 C336 0.950 . S
H328 C338 0.950 . S
H329 C340 0.950 . S
H330 C342 0.950 . S
H331 C343 0.950 . S
C332 H324 0.950 . S
C332 C333 1.386 . S
C332 C334 1.391 . S
C333 C332 1.386 . S
C333 C337 1.393 . S
C334 H326 0.950 . S
C334 C332 1.391 . S
C334 C335 1.400 . S
C335 C334 1.400 . S
C335 C336 1.398 . S
C335 C341 1.491 1_655 S
C336 H327 0.950 . S
C336 C335 1.398 . S
C336 C337 1.391 . S
C337 H325 0.950 . S
C337 C333 1.393 . S
C337 C336 1.391 . S
C338 H328 0.950 . S
C338 C339 1.386 . S
C338 C340 1.391 . S
C339 C338 1.386 . S
C339 C343 1.393 . S
C340 H329 0.950 . S
C340 C338 1.391 . S
C340 C341 1.400 . S
C341 C335 1.491 1_455 S
C341 C340 1.400 . S
C341 C342 1.398 . S
C342 H330 0.950 . S
C342 C341 1.398 . S
C342 C343 1.391 . S
C343 H331 0.950 . S
C343 C339 1.393 . S
C343 C342 1.391 . S
H344 C352 0.950 . S
H345 C357 0.950 . S
H346 C354 0.950 . S
H347 C356 0.950 . S
H348 C358 0.950 . S
H349 C360 0.950 . S
H350 C362 0.950 . S
H351 C363 0.950 . S
C352 H344 0.950 . S
C352 C353 1.386 . S
C352 C354 1.391 . S
C353 C352 1.386 . S
C353 C357 1.393 . S
C354 H346 0.950 . S
C354 C352 1.391 . S
C354 C355 1.400 . S
C355 C354 1.400 . S
C355 C356 1.398 . S
C355 C361 1.491 . S
C356 H347 0.950 . S
C356 C355 1.398 . S
C356 C357 1.391 . S
C357 H345 0.950 . S
C357 C353 1.393 . S
C357 C356 1.391 . S
C358 H348 0.950 . S
C358 C359 1.386 . S
C358 C360 1.391 . S
C359 C358 1.386 . S
C359 C363 1.393 . S
C360 H349 0.950 . S
C360 C358 1.391 . S
C360 C361 1.400 . S
C361 C355 1.491 . S
C361 C360 1.400 . S
C361 C362 1.398 . S
C362 H350 0.950 . S
C362 C361 1.398 . S
C362 C363 1.391 . S
C363 H351 0.950 . S
C363 C359 1.393 . S
C363 C362 1.391 . S
H364 C372 0.950 . S
H365 C377 0.950 . S
H366 C374 0.950 . S
H367 C376 0.950 . S
H368 C378 0.950 . S
H369 C380 0.950 . S
H370 C382 0.950 . S
H371 C383 0.950 . S
C372 H364 0.950 . S
C372 C373 1.386 . S
C372 C374 1.391 . S
C373 C372 1.386 . S
C373 C377 1.393 . S
C374 H366 0.950 . S
C374 C372 1.391 . S
C374 C375 1.400 . S
C375 C374 1.400 . S
C375 C376 1.398 . S
C375 C381 1.491 . S
C376 H367 0.950 . S
C376 C375 1.398 . S
C376 C377 1.391 . S
C377 H365 0.950 . S
C377 C373 1.393 . S
C377 C376 1.391 . S
C378 H368 0.950 . S
C378 C379 1.386 . S
C378 C380 1.391 . S
C379 C378 1.386 . S
C379 C383 1.393 . S
C380 H369 0.950 . S
C380 C378 1.391 . S
C380 C381 1.400 . S
C381 C375 1.491 . S
C381 C380 1.400 . S
C381 C382 1.398 . S
C382 H370 0.950 . S
C382 C381 1.398 . S
C382 C383 1.391 . S
C383 H371 0.950 . S
C383 C379 1.393 . S
C383 C382 1.391 . S
H384 C392 0.950 . S
H385 C397 0.950 . S
H386 C394 0.950 . S
H387 C396 0.950 . S
H388 C398 0.950 . S
H389 C400 0.950 . S
H390 C402 0.950 . S
H391 C403 0.950 . S
C392 H384 0.950 . S
C392 C393 1.386 . S
C392 C394 1.391 . S
C393 C392 1.386 . S
C393 C397 1.393 . S
C394 H386 0.950 . S
C394 C392 1.391 . S
C394 C395 1.400 . S
C395 C394 1.400 . S
C395 C396 1.398 . S
C395 C401 1.491 . S
C396 H387 0.950 . S
C396 C395 1.398 . S
C396 C397 1.391 . S
C397 H385 0.950 . S
C397 C393 1.393 . S
C397 C396 1.391 . S
C398 H388 0.950 . S
C398 C399 1.386 . S
C398 C400 1.391 . S
C399 C398 1.386 . S
C399 C403 1.393 . S
C400 H389 0.950 . S
C400 C398 1.391 . S
C400 C401 1.400 . S
C401 C395 1.491 . S
C401 C400 1.400 . S
C401 C402 1.398 . S
C402 H390 0.950 . S
C402 C401 1.398 . S
C402 C403 1.391 . S
C403 H391 0.950 . S
C403 C399 1.393 . S
C403 C402 1.391 . S
H404 C412 0.950 . S
H405 C417 0.950 . S
H406 C414 0.950 . S
H407 C416 0.950 . S
H408 C418 0.950 . S
H409 C420 0.950 . S
H410 C422 0.950 . S
H411 C423 0.950 . S
C412 H404 0.950 . S
C412 C413 1.386 . S
C412 C414 1.391 . S
C413 C412 1.386 . S
C413 C417 1.393 . S
C414 H406 0.950 . S
C414 C412 1.391 . S
C414 C415 1.400 . S
C415 C414 1.400 . S
C415 C416 1.398 . S
C415 C421 1.491 . S
C416 H407 0.950 . S
C416 C415 1.398 . S
C416 C417 1.391 . S
C417 H405 0.950 . S
C417 C413 1.393 . S
C417 C416 1.391 . S
C418 H408 0.950 . S
C418 C419 1.386 . S
C418 C420 1.391 . S
C419 C418 1.386 . S
C419 C423 1.393 . S
C420 H409 0.950 . S
C420 C418 1.391 . S
C420 C421 1.400 . S
C421 C415 1.491 . S
C421 C420 1.400 . S
C421 C422 1.398 . S
C422 H410 0.950 . S
C422 C421 1.398 . S
C422 C423 1.391 . S
C423 H411 0.950 . S
C423 C419 1.393 . S
C423 C422 1.391 . S
H424 C432 0.950 . S
H425 C437 0.950 . S
H426 C434 0.950 . S
H427 C436 0.950 . S
H428 C438 0.950 . S
H429 C440 0.950 . S
H430 C442 0.950 . S
H431 C443 0.950 . S
C432 H424 0.950 . S
C432 C433 1.386 . S
C432 C434 1.391 . S
C433 C432 1.386 . S
C433 C437 1.393 . S
C434 H426 0.950 . S
C434 C432 1.391 . S
C434 C435 1.400 . S
C435 C434 1.400 . S
C435 C436 1.398 . S
C435 C441 1.491 . S
C436 H427 0.950 . S
C436 C435 1.398 . S
C436 C437 1.391 . S
C437 H425 0.950 . S
C437 C433 1.393 . S
C437 C436 1.391 . S
C438 H428 0.950 . S
C438 C439 1.386 . S
C438 C440 1.391 . S
C439 C438 1.386 . S
C439 C443 1.393 . S
C440 H429 0.950 . S
C440 C438 1.391 . S
C440 C441 1.400 . S
C441 C435 1.491 . S
C441 C440 1.400 . S
C441 C442 1.398 . S
C442 H430 0.950 . S
C442 C441 1.398 . S
C442 C443 1.391 . S
C443 H431 0.950 . S
C443 C439 1.393 . S
C443 C442 1.391 . S
H444 C452 0.950 . S
H445 C457 0.950 . S
H446 C454 0.950 . S
H447 C456 0.950 . S
H448 C458 0.950 . S
H449 C460 0.950 . S
H450 C462 0.950 . S
H451 C463 0.950 . S
C452 H444 0.950 . S
C452 C453 1.386 . S
C452 C454 1.391 . S
C453 C452 1.386 . S
C453 C457 1.393 . S
C454 H446 0.950 . S
C454 C452 1.391 . S
C454 C455 1.400 . S
C455 C454 1.400 . S
C455 C456 1.398 . S
C455 C461 1.491 . S
C456 H447 0.950 . S
C456 C455 1.398 . S
C456 C457 1.391 . S
C457 H445 0.950 . S
C457 C453 1.393 . S
C457 C456 1.391 . S
C458 H448 0.950 . S
C458 C459 1.386 . S
C458 C460 1.391 . S
C459 C458 1.386 . S
C459 C463 1.393 . S
C460 H449 0.950 . S
C460 C458 1.391 . S
C460 C461 1.400 . S
C461 C455 1.491 . S
C461 C460 1.400 . S
C461 C462 1.398 . S
C462 H450 0.950 . S
C462 C461 1.398 . S
C462 C463 1.391 . S
C463 H451 0.950 . S
C463 C459 1.393 . S
C463 C462 1.391 . S
H464 C472 0.950 . S
H465 C477 0.950 . S
H466 C474 0.950 . S
H467 C476 0.950 . S
H468 C478 0.950 . S
H469 C480 0.950 . S
H470 C482 0.950 . S
H471 C483 0.950 . S
C472 H464 0.950 . S
C472 C473 1.386 . S
C472 C474 1.391 . S
C473 C472 1.386 . S
C473 C477 1.393 . S
C474 H466 0.950 . S
C474 C472 1.391 . S
C474 C475 1.400 . S
C475 C474 1.400 . S
C475 C476 1.398 . S
C475 C481 1.491 1_455 S
C476 H467 0.950 . S
C476 C475 1.398 . S
C476 C477 1.391 . S
C477 H465 0.950 . S
C477 C473 1.393 . S
C477 C476 1.391 . S
C478 H468 0.950 . S
C478 C479 1.386 . S
C478 C480 1.391 . S
C479 C478 1.386 . S
C479 C483 1.393 . S
C480 H469 0.950 . S
C480 C478 1.391 . S
C480 C481 1.400 . S
C481 C475 1.491 1_655 S
C481 C480 1.400 . S
C481 C482 1.398 . S
C482 H470 0.950 . S
C482 C481 1.398 . S
C482 C483 1.391 . S
C483 H471 0.950 . S
C483 C479 1.393 . S
C483 C482 1.391 . S
H484 C492 0.950 . S
H485 C497 0.950 . S
H486 C494 0.950 . S
H487 C496 0.950 . S
H488 C498 0.950 . S
H489 C500 0.950 . S
H490 C502 0.950 . S
H491 C503 0.950 . S
C492 H484 0.950 . S
C492 C493 1.386 . S
C492 C494 1.391 . S
C493 C492 1.386 . S
C493 C497 1.393 . S
C494 H486 0.950 . S
C494 C492 1.391 . S
C494 C495 1.400 . S
C495 C494 1.400 . S
C495 C496 1.398 . S
C495 C501 1.491 . S
C496 H487 0.950 . S
C496 C495 1.398 . S
C496 C497 1.391 . S
C497 H485 0.950 . S
C497 C493 1.393 . S
C497 C496 1.391 . S
C498 H488 0.950 . S
C498 C499 1.386 . S
C498 C500 1.391 . S
C499 C498 1.386 . S
C499 C503 1.393 . S
C500 H489 0.950 . S
C500 C498 1.391 . S
C500 C501 1.400 . S
C501 C495 1.491 . S
C501 C500 1.400 . S
C501 C502 1.398 . S
C502 H490 0.950 . S
C502 C501 1.398 . S
C502 C503 1.391 . S
C503 H491 0.950 . S
C503 C499 1.393 . S
C503 C502 1.391 . S
H504 C512 0.950 . S
H505 C517 0.950 . S
H506 C514 0.950 . S
H507 C516 0.950 . S
H508 C518 0.950 . S
H509 C520 0.950 . S
H510 C522 0.950 . S
H511 C523 0.950 . S
C512 H504 0.950 . S
C512 C513 1.386 . S
C512 C514 1.391 . S
C513 C512 1.386 . S
C513 C517 1.393 . S
C514 H506 0.950 . S
C514 C512 1.391 . S
C514 C515 1.400 . S
C515 C514 1.400 . S
C515 C516 1.398 . S
C515 C521 1.491 . S
C516 H507 0.950 . S
C516 C515 1.398 . S
C516 C517 1.391 . S
C517 H505 0.950 . S
C517 C513 1.393 . S
C517 C516 1.391 . S
C518 H508 0.950 . S
C518 C519 1.386 . S
C518 C520 1.391 . S
C519 C518 1.386 . S
C519 C523 1.393 . S
C520 H509 0.950 . S
C520 C518 1.391 . S
C520 C521 1.400 . S
C521 C515 1.491 . S
C521 C520 1.400 . S
C521 C522 1.398 . S
C522 H510 0.950 . S
C522 C521 1.398 . S
C522 C523 1.391 . S
C523 H511 0.950 . S
C523 C519 1.393 . S
C523 C522 1.391 . S
H524 C532 0.950 . S
H525 C537 0.950 . S
H526 C534 0.950 . S
H527 C536 0.950 . S
H528 C538 0.950 . S
H529 C540 0.950 . S
H530 C542 0.950 . S
H531 C543 0.950 . S
C532 H524 0.950 . S
C532 C533 1.386 . S
C532 C534 1.391 . S
C533 C532 1.386 . S
C533 C537 1.393 . S
C534 H526 0.950 . S
C534 C532 1.391 . S
C534 C535 1.400 . S
C535 C534 1.400 . S
C535 C536 1.398 . S
C535 C541 1.491 1_455 S
C536 H527 0.950 . S
C536 C535 1.398 . S
C536 C537 1.391 . S
C537 H525 0.950 . S
C537 C533 1.393 . S
C537 C536 1.391 . S
C538 H528 0.950 . S
C538 C539 1.386 . S
C538 C540 1.391 . S
C539 C538 1.386 . S
C539 C543 1.393 . S
C540 H529 0.950 . S
C540 C538 1.391 . S
C540 C541 1.400 . S
C541 C535 1.491 1_655 S
C541 C540 1.400 . S
C541 C542 1.398 . S
C542 H530 0.950 . S
C542 C541 1.398 . S
C542 C543 1.391 . S
C543 H531 0.950 . S
C543 C539 1.393 . S
C543 C542 1.391 . S
H544 C552 0.950 . S
H545 C557 0.950 . S
H546 C554 0.950 . S
H547 C556 0.950 . S
H548 C558 0.950 . S
H549 C560 0.950 . S
H550 C562 0.950 . S
H551 C563 0.950 . S
C552 H544 0.950 . S
C552 C553 1.386 . S
C552 C554 1.391 . S
C553 C552 1.386 . S
C553 C557 1.393 . S
C554 H546 0.950 . S
C554 C552 1.391 . S
C554 C555 1.400 . S
C555 C554 1.400 . S
C555 C556 1.398 . S
C555 C561 1.491 1_554 S
C556 H547 0.950 . S
C556 C555 1.398 . S
C556 C557 1.391 . S
C557 H545 0.950 . S
C557 C553 1.393 . S
C557 C556 1.391 . S
C558 H548 0.950 . S
C558 C559 1.386 . S
C558 C560 1.391 . S
C559 C558 1.386 . S
C559 C563 1.393 . S
C560 H549 0.950 . S
C560 C558 1.391 . S
C560 C561 1.400 . S
C561 C555 1.491 1_556 S
C561 C560 1.400 . S
C561 C562 1.398 . S
C562 H550 0.950 . S
C562 C561 1.398 . S
C562 C563 1.391 . S
C563 H551 0.950 . S
C563 C559 1.393 . S
C563 C562 1.391 . S
H564 C572 0.950 . S
H565 C577 0.950 . S
H566 C574 0.950 . S
H567 C576 0.950 . S
H568 C578 0.950 . S
H569 C580 0.950 . S
H570 C582 0.950 . S
H571 C583 0.950 . S
C572 H564 0.950 . S
C572 C573 1.386 . S
C572 C574 1.391 . S
C573 C572 1.386 . S
C573 C577 1.393 . S
C574 H566 0.950 . S
C574 C572 1.391 . S
C574 C575 1.400 . S
C575 C574 1.400 . S
C575 C576 1.398 . S
C575 C581 1.491 . S
C576 H567 0.950 . S
C576 C575 1.398 . S
C576 C577 1.391 . S
C577 H565 0.950 . S
C577 C573 1.393 . S
C577 C576 1.391 . S
C578 H568 0.950 . S
C578 C579 1.386 . S
C578 C580 1.391 . S
C579 C578 1.386 . S
C579 C583 1.393 . S
C580 H569 0.950 . S
C580 C578 1.391 . S
C580 C581 1.400 . S
C581 C575 1.491 . S
C581 C580 1.400 . S
C581 C582 1.398 . S
C582 H570 0.950 . S
C582 C581 1.398 . S
C582 C583 1.391 . S
C583 H571 0.950 . S
C583 C579 1.393 . S
C583 C582 1.391 . S
H584 C592 0.950 . S
H585 C597 0.950 . S
H586 C594 0.950 . S
H587 C596 0.950 . S
H588 C598 0.950 . S
H589 C600 0.950 . S
H590 C602 0.950 . S
H591 C603 0.950 . S
C592 H584 0.950 . S
C592 C593 1.386 . S
C592 C594 1.391 . S
C593 C592 1.386 . S
C593 C597 1.393 . S
C594 H586 0.950 . S
C594 C592 1.391 . S
C594 C595 1.400 . S
C595 C594 1.400 . S
C595 C596 1.398 . S
C595 C601 1.491 . S
C596 H587 0.950 . S
C596 C595 1.398 . S
C596 C597 1.391 . S
C597 H585 0.950 . S
C597 C593 1.393 . S
C597 C596 1.391 . S
C598 H588 0.950 . S
C598 C599 1.386 . S
C598 C600 1.391 . S
C599 C598 1.386 . S
C599 C603 1.393 . S
C600 H589 0.950 . S
C600 C598 1.391 . S
C600 C601 1.400 . S
C601 C595 1.491 . S
C601 C600 1.400 . S
C601 C602 1.398 . S
C602 H590 0.950 . S
C602 C601 1.398 . S
C602 C603 1.391 . S
C603 H591 0.950 . S
C603 C599 1.393 . S
C603 C602 1.391 . S
H604 C612 0.950 . S
H605 C617 0.950 . S
H606 C614 0.950 . S
H607 C616 0.950 . S
H608 C618 0.950 . S
H609 C620 0.950 . S
H610 C622 0.950 . S
H611 C623 0.950 . S
C612 H604 0.950 . S
C612 C613 1.386 . S
C612 C614 1.391 . S
C613 C612 1.386 . S
C613 C617 1.393 . S
C614 H606 0.950 . S
C614 C612 1.391 . S
C614 C615 1.400 . S
C615 C614 1.400 . S
C615 C616 1.398 . S
C615 C621 1.491 . S
C616 H607 0.950 . S
C616 C615 1.398 . S
C616 C617 1.391 . S
C617 H605 0.950 . S
C617 C613 1.393 . S
C617 C616 1.391 . S
C618 H608 0.950 . S
C618 C619 1.386 . S
C618 C620 1.391 . S
C619 C618 1.386 . S
C619 C623 1.393 . S
C620 H609 0.950 . S
C620 C618 1.391 . S
C620 C621 1.400 . S
C621 C615 1.491 . S
C621 C620 1.400 . S
C621 C622 1.398 . S
C622 H610 0.950 . S
C622 C621 1.398 . S
C622 C623 1.391 . S
C623 H611 0.950 . S
C623 C619 1.393 . S
C623 C622 1.391 . S
H624 C632 0.950 . S
H625 C637 0.950 . S
H626 C634 0.950 . S
H627 C636 0.950 . S
H628 C638 0.950 . S
H629 C640 0.950 . S
H630 C642 0.950 1_556 S
H631 C643 0.950 . S
C632 H624 0.950 . S
C632 C633 1.386 . S
C632 C634 1.391 . S
C633 C632 1.386 . S
C633 C637 1.393 . S
C634 H626 0.950 . S
C634 C632 1.391 . S
C634 C635 1.400 . S
C635 C634 1.400 . S
C635 C636 1.398 1_556 S
C635 C641 1.491 1_556 S
C636 H627 0.950 . S
C636 C635 1.398 1_554 S
C636 C637 1.391 1_554 S
C637 H625 0.950 . S
C637 C633 1.393 . S
C637 C636 1.391 1_556 S
C638 H628 0.950 . S
C638 C639 1.386 . S
C638 C640 1.391 . S
C639 C638 1.386 . S
C639 C643 1.393 . S
C640 H629 0.950 . S
C640 C638 1.391 . S
C640 C641 1.400 . S
C641 C635 1.491 1_554 S
C641 C640 1.400 . S
C641 C642 1.398 . S
C642 H630 0.950 1_554 S
C642 C641 1.398 . S
C642 C643 1.391 . S
C643 H631 0.950 . S
C643 C639 1.393 . S
C643 C642 1.391 . S
H644 C652 0.950 . S
H645 C657 0.950 . S
H646 C654 0.950 . S
H647 C656 0.950 . S
H648 C658 0.950 . S
H649 C660 0.950 . S
H650 C662 0.950 . S
H651 C663 0.950 . S
C652 H644 0.950 . S
C652 C653 1.386 . S
C652 C654 1.391 . S
C653 C652 1.386 . S
C653 C657 1.393 . S
C654 H646 0.950 . S
C654 C652 1.391 . S
C654 C655 1.400 . S
C655 C654 1.400 . S
C655 C656 1.398 . S
C655 C661 1.491 . S
C656 H647 0.950 . S
C656 C655 1.398 . S
C656 C657 1.391 . S
C657 H645 0.950 . S
C657 C653 1.393 . S
C657 C656 1.391 . S
C658 H648 0.950 . S
C658 C659 1.386 . S
C658 C660 1.391 . S
C659 C658 1.386 . S
C659 C663 1.393 . S
C660 H649 0.950 . S
C660 C658 1.391 . S
C660 C661 1.400 . S
C661 C655 1.491 . S
C661 C660 1.400 . S
C661 C662 1.398 . S
C662 H650 0.950 . S
C662 C661 1.398 . S
C662 C663 1.391 . S
C663 H651 0.950 . S
C663 C659 1.393 . S
C663 C662 1.391 . S
H664 C672 0.950 . S
H665 C677 0.950 . S
H666 C674 0.950 . S
H667 C676 0.950 . S
H668 C678 0.950 . S
H669 C680 0.950 . S
H670 C682 0.950 . S
H671 C683 0.950 . S
C672 H664 0.950 . S
C672 C673 1.386 . S
C672 C674 1.391 . S
C673 C672 1.386 . S
C673 C677 1.393 . S
C674 H666 0.950 . S
C674 C672 1.391 . S
C674 C675 1.400 . S
C675 C674 1.400 . S
C675 C676 1.398 . S
C675 C681 1.491 . S
C676 H667 0.950 . S
C676 C675 1.398 . S
C676 C677 1.391 . S
C677 H665 0.950 . S
C677 C673 1.393 . S
C677 C676 1.391 . S
C678 H668 0.950 . S
C678 C679 1.386 . S
C678 C680 1.391 . S
C679 C678 1.386 . S
C679 C683 1.393 . S
C680 H669 0.950 . S
C680 C678 1.391 . S
C680 C681 1.400 . S
C681 C675 1.491 . S
C681 C680 1.400 . S
C681 C682 1.398 . S
C682 H670 0.950 . S
C682 C681 1.398 . S
C682 C683 1.391 . S
C683 H671 0.950 . S
C683 C679 1.393 . S
C683 C682 1.391 . S
H684 C692 0.950 . S
H685 C697 0.950 . S
H686 C694 0.950 . S
H687 C696 0.950 . S
H688 C698 0.950 . S
H689 C700 0.950 . S
H690 C702 0.950 . S
H691 C703 0.950 . S
C692 H684 0.950 . S
C692 C693 1.386 . S
C692 C694 1.391 . S
C693 C692 1.386 . S
C693 C697 1.393 . S
C694 H686 0.950 . S
C694 C692 1.391 . S
C694 C695 1.400 . S
C695 C694 1.400 . S
C695 C696 1.398 . S
C695 C701 1.491 . S
C696 H687 0.950 . S
C696 C695 1.398 . S
C696 C697 1.391 . S
C697 H685 0.950 . S
C697 C693 1.393 . S
C697 C696 1.391 . S
C698 H688 0.950 . S
C698 C699 1.386 . S
C698 C700 1.391 . S
C699 C698 1.386 . S
C699 C703 1.393 . S
C700 H689 0.950 . S
C700 C698 1.391 . S
C700 C701 1.400 . S
C701 C695 1.491 . S
C701 C700 1.400 . S
C701 C702 1.398 . S
C702 H690 0.950 . S
C702 C701 1.398 . S
C702 C703 1.391 . S
C703 H691 0.950 . S
C703 C699 1.393 . S
C703 C702 1.391 . S
H704 C712 0.950 . S
H705 C717 0.950 . S
H706 C714 0.950 . S
H707 C716 0.950 1_565 S
H708 C718 0.950 . S
H709 C720 0.950 . S
H710 C722 0.950 1_545 S
H711 C723 0.950 . S
C712 H704 0.950 . S
C712 C713 1.386 . S
C712 C714 1.391 . S
C713 C712 1.386 . S
C713 C717 1.393 . S
C714 H706 0.950 . S
C714 C712 1.391 . S
C714 C715 1.400 . S
C715 C714 1.400 . S
C715 C716 1.398 . S
C715 C721 1.491 1_545 S
C716 H707 0.950 1_545 S
C716 C715 1.398 . S
C716 C717 1.391 . S
C717 H705 0.950 . S
C717 C713 1.393 . S
C717 C716 1.391 . S
C718 H708 0.950 . S
C718 C719 1.386 . S
C718 C720 1.391 . S
C719 C718 1.386 . S
C719 C723 1.393 . S
C720 H709 0.950 . S
C720 C718 1.391 . S
C720 C721 1.400 . S
C721 C715 1.491 1_565 S
C721 C720 1.400 . S
C721 C722 1.398 . S
C722 H710 0.950 1_565 S
C722 C721 1.398 . S
C722 C723 1.391 . S
C723 H711 0.950 . S
C723 C719 1.393 . S
C723 C722 1.391 . S
H724 C732 0.950 . S
H725 C737 0.950 . S
H726 C734 0.950 . S
H727 C736 0.950 . S
H728 C738 0.950 . S
H729 C740 0.950 . S
H730 C742 0.950 . S
H731 C743 0.950 . S
C732 H724 0.950 . S
C732 C733 1.386 . S
C732 C734 1.391 . S
C733 C732 1.386 . S
C733 C737 1.393 . S
C734 H726 0.950 . S
C734 C732 1.391 . S
C734 C735 1.400 . S
C735 C734 1.400 . S
C735 C736 1.398 . S
C735 C741 1.491 . S
C736 H727 0.950 . S
C736 C735 1.398 . S
C736 C737 1.391 . S
C737 H725 0.950 . S
C737 C733 1.393 . S
C737 C736 1.391 . S
C738 H728 0.950 . S
C738 C739 1.386 . S
C738 C740 1.391 . S
C739 C738 1.386 . S
C739 C743 1.393 . S
C740 H729 0.950 . S
C740 C738 1.391 . S
C740 C741 1.400 . S
C741 C735 1.491 . S
C741 C740 1.400 . S
C741 C742 1.398 . S
C742 H730 0.950 . S
C742 C741 1.398 . S
C742 C743 1.391 . S
C743 H731 0.950 . S
C743 C739 1.393 . S
C743 C742 1.391 . S
H744 C752 0.950 . S
H745 C757 0.950 1_554 S
H746 C754 0.950 1_565 S
H747 C756 0.950 . S
H748 C758 0.950 . S
H749 C760 0.957 . S
H750 C762 0.950 . S
H751 C763 0.950 1_556 S
C752 H744 0.950 . S
C752 C753 1.386 . S
C752 C754 1.391 . S
C753 C752 1.386 . S
C753 C757 1.393 . S
C754 H746 0.950 1_545 S
C754 C752 1.391 . S
C754 C755 1.400 . S
C755 C754 1.400 . S
C755 C756 1.398 1_556 S
C755 C761 1.491 1_546 S
C756 H747 0.950 . S
C756 C755 1.398 1_554 S
C756 C757 1.391 1_554 S
C757 H745 0.950 1_556 S
C757 C753 1.393 . S
C757 C756 1.391 1_556 S
C758 H748 0.950 . S
C758 C759 1.386 . S
C758 C760 1.391 . S
C759 C758 1.386 . S
C759 C763 1.393 . S
C760 H749 0.957 . S
C760 C758 1.391 . S
C760 C761 1.400 . S
C761 C755 1.491 1_564 S
C761 C760 1.400 . S
C761 C762 1.398 1_554 S
C762 H750 0.950 . S
C762 C761 1.398 1_556 S
C762 C763 1.391 1_556 S
C763 H751 0.950 1_554 S
C763 C759 1.393 . S
C763 C762 1.391 1_554 S
H764 C772 0.950 . S
H765 C777 0.950 . S
H766 C774 0.950 . S
H767 C776 0.950 . S
H768 C778 0.950 . S
H769 C780 0.950 . S
H770 C782 0.950 . S
H771 C783 0.950 . S
C772 H764 0.950 . S
C772 C773 1.386 . S
C772 C774 1.391 . S
C773 C772 1.386 . S
C773 C777 1.393 . S
C774 H766 0.950 . S
C774 C772 1.391 . S
C774 C775 1.400 . S
C775 C774 1.400 . S
C775 C776 1.398 . S
C775 C781 1.491 . S
C776 H767 0.950 . S
C776 C775 1.398 . S
C776 C777 1.391 . S
C777 H765 0.950 . S
C777 C773 1.393 . S
C777 C776 1.391 . S
C778 H768 0.950 . S
C778 C779 1.386 . S
C778 C780 1.391 . S
C779 C778 1.386 . S
C779 C783 1.393 . S
C780 H769 0.950 . S
C780 C778 1.391 . S
C780 C781 1.400 . S
C781 C775 1.491 . S
C781 C780 1.400 . S
C781 C782 1.398 . S
C782 H770 0.950 . S
C782 C781 1.398 . S
C782 C783 1.391 . S
C783 H771 0.950 . S
C783 C779 1.393 . S
C783 C782 1.391 . S
H784 C792 0.950 . S
H785 C797 0.950 . S
H786 C794 0.950 . S
H787 C796 0.950 . S
H788 C798 0.950 . S
H789 C800 0.950 . S
H790 C802 0.950 . S
H791 C803 0.950 . S
C792 H784 0.950 . S
C792 C793 1.386 . S
C792 C794 1.391 . S
C793 C792 1.386 . S
C793 C797 1.393 . S
C794 H786 0.950 . S
C794 C792 1.391 . S
C794 C795 1.400 . S
C795 C794 1.400 . S
C795 C796 1.398 . S
C795 C801 1.491 1_545 S
C796 H787 0.950 . S
C796 C795 1.398 . S
C796 C797 1.391 . S
C797 H785 0.950 . S
C797 C793 1.393 . S
C797 C796 1.391 . S
C798 H788 0.950 . S
C798 C799 1.386 . S
C798 C800 1.391 . S
C799 C798 1.386 . S
C799 C803 1.393 . S
C800 H789 0.950 . S
C800 C798 1.391 . S
C800 C801 1.400 . S
C801 C795 1.491 1_565 S
C801 C800 1.400 . S
C801 C802 1.398 . S
C802 H790 0.950 . S
C802 C801 1.398 . S
C802 C803 1.391 . S
C803 H791 0.950 . S
C803 C799 1.393 . S
C803 C802 1.391 . S
H804 C812 0.950 . S
H805 C817 0.950 . S
H806 C814 0.950 . S
H807 C816 0.950 . S
H808 C818 0.950 . S
H809 C820 0.950 . S
H810 C822 0.950 . S
H811 C823 0.950 . S
C812 H804 0.950 . S
C812 C813 1.386 . S
C812 C814 1.391 . S
C813 C812 1.386 . S
C813 C817 1.393 . S
C814 H806 0.950 . S
C814 C812 1.391 . S
C814 C815 1.400 . S
C815 C814 1.400 . S
C815 C816 1.398 . S
C815 C821 1.491 . S
C816 H807 0.950 . S
C816 C815 1.398 . S
C816 C817 1.391 . S
C817 H805 0.950 . S
C817 C813 1.393 . S
C817 C816 1.391 . S
C818 H808 0.950 . S
C818 C819 1.386 . S
C818 C820 1.391 . S
C819 C818 1.386 . S
C819 C823 1.393 . S
C820 H809 0.950 . S
C820 C818 1.391 . S
C820 C821 1.400 . S
C821 C815 1.491 . S
C821 C820 1.400 . S
C821 C822 1.398 . S
C822 H810 0.950 . S
C822 C821 1.398 . S
C822 C823 1.391 . S
C823 H811 0.950 . S
C823 C819 1.393 . S
C823 C822 1.391 . S
H824 C832 0.950 . S
H825 C837 0.950 . S
H826 C834 0.950 . S
H827 C836 0.950 1_556 S
H828 C838 0.950 . S
H829 C840 0.950 . S
H830 C842 0.950 . S
H831 C843 0.950 . S
C832 H824 0.950 . S
C832 C833 1.386 . S
C832 C834 1.391 . S
C833 C832 1.386 . S
C833 C837 1.393 . S
C834 H826 0.950 . S
C834 C832 1.391 . S
C834 C835 1.400 . S
C835 C834 1.400 . S
C835 C836 1.398 . S
C835 C841 1.491 1_564 S
C836 H827 0.950 1_554 S
C836 C835 1.398 . S
C836 C837 1.391 . S
C837 H825 0.950 . S
C837 C833 1.393 . S
C837 C836 1.391 . S
C838 H828 0.950 . S
C838 C839 1.386 . S
C838 C840 1.391 . S
C839 C838 1.386 . S
C839 C843 1.393 . S
C840 H829 0.950 . S
C840 C838 1.391 . S
C840 C841 1.400 . S
C841 C835 1.491 1_546 S
C841 C840 1.400 . S
C841 C842 1.398 . S
C842 H830 0.950 . S
C842 C841 1.398 . S
C842 C843 1.391 . S
C843 H831 0.950 . S
C843 C839 1.393 . S
C843 C842 1.391 . S
H844 C852 0.950 . S
H845 C857 0.950 . S
H846 C854 0.950 . S
H847 C856 0.950 . S
H848 C858 0.950 . S
H849 C860 0.950 . S
H850 C862 0.950 . S
H851 C863 0.950 . S
C852 H844 0.950 . S
C852 C853 1.386 . S
C852 C854 1.391 . S
C853 C852 1.386 . S
C853 C857 1.393 . S
C854 H846 0.950 . S
C854 C852 1.391 . S
C854 C855 1.400 . S
C855 C854 1.400 . S
C855 C856 1.398 . S
C855 C861 1.491 . S
C856 H847 0.950 . S
C856 C855 1.398 . S
C856 C857 1.391 . S
C857 H845 0.950 . S
C857 C853 1.393 . S
C857 C856 1.391 . S
C858 H848 0.950 . S
C858 C859 1.386 . S
C858 C860 1.391 . S
C859 C858 1.386 . S
C859 C863 1.393 . S
C860 H849 0.950 . S
C860 C858 1.391 . S
C860 C861 1.400 . S
C861 C855 1.491 . S
C861 C860 1.400 . S
C861 C862 1.398 . S
C862 H850 0.950 . S
C862 C861 1.398 . S
C862 C863 1.391 . S
C863 H851 0.950 . S
C863 C859 1.393 . S
C863 C862 1.391 . S
C233 C159 1.352 . S
C239 C5 1.339 . S
C253 C215 1.405 . S
C259 C23 1.391 . S
C273 C33 1.381 . S
C279 C135 1.357 . S
C293 C187 1.375 . S
C299 C51 1.366 . S
C313 C61 1.336 . S
C319 C191 1.340 . S
C333 C79 1.394 . S
C339 C163 1.388 . S
C353 C89 1.376 . S
C359 C219 1.373 . S
C373 C107 1.371 . S
C379 C131 1.375 . S
C393 C47 1.331 . S
C399 C117 1.340 . S
C413 C145 1.296 . S
C419 C19 1.303 . S
C433 C177 1.322 . S
C439 C75 1.326 . S
C453 C201 1.307 . S
C459 C103 1.293 . S
C473 C65 1.423 . S
C479 C121 1.431 . S
C493 C149 1.403 . S
C499 C93 1.396 . S
C513 C205 1.426 . S
C519 C37 1.428 . S
C533 C9 1.397 . S
C539 C173 1.413 . S
C553 C11 1.260 . S
C559 C67 1.259 . S
C573 C14 1.344 . S
C579 C70 1.337 . S
C593 C39 1.338 . S
C599 C95 1.329 . S
C613 C98 1.282 . S
C619 C42 1.270 . S
C633 C123 1.314 . S
C639 C168 1.298 . S
C653 C193 1.242 . S
C659 C137 1.244 . S
C673 C151 1.252 . S
C679 C207 1.243 . S
C693 C221 1.289 . S
C699 C154 1.295 . S
C713 C109 1.174 . S
C719 C25 1.164 . S
C733 C28 1.427 . S
C739 C56 1.415 . S
C753 C53 1.240 . S
C759 C81 1.251 . S
C773 C0 1.362 . S
C779 C84 1.350 . S
C793 C126 1.342 . S
C799 C210 1.345 . S
C813 C179 1.270 . S
C819 C140 1.272 . S
C833 C165 1.288 . S
C839 C182 1.276 . S
C853 C196 1.317 . S
C859 C112 1.324 . S
