# Generated by pormake.
# Topology pcu-h, (3)-cn, num edge types: 1
# Building blocks:
#     Node 0, Type 0, BuildingBlock: WUSLED_clean_sbu_0, # of connection points: 3
#     Node 1, Type 0, BuildingBlock: WUSLED_clean_sbu_0, # of connection points: 3
#     Node 2, Type 0, BuildingBlock: WUSLED_clean_sbu_0, # of connection points: 3
#     Node 3, Type 0, BuildingBlock: WUSLED_clean_sbu_0, # of connection points: 3
#     Node 4, Type 0, BuildingBlock: WUSLED_clean_sbu_0, # of connection points: 3
#     Node 5, Type 0, BuildingBlock: WUSLED_clean_sbu_0, # of connection points: 3
#     Node 6, Type 0, BuildingBlock: WUSLED_clean_sbu_0, # of connection points: 3
#     Node 7, Type 0, BuildingBlock: WUSLED_clean_sbu_0, # of connection points: 3
#     Node 8, Type 0, BuildingBlock: WUSLED_clean_sbu_0, # of connection points: 3
#     Node 9, Type 0, BuildingBlock: WUSLED_clean_sbu_0, # of connection points: 3
#     Node 10, Type 0, BuildingBlock: WUSLED_clean_sbu_0, # of connection points: 3
#     Node 11, Type 0, BuildingBlock: WUSLED_clean_sbu_0, # of connection points: 3
#     Node 12, Type 0, BuildingBlock: WUSLED_clean_sbu_0, # of connection points: 3
#     Node 13, Type 0, BuildingBlock: WUSLED_clean_sbu_0, # of connection points: 3
#     Node 14, Type 0, BuildingBlock: WUSLED_clean_sbu_0, # of connection points: 3
#     Node 15, Type 0, BuildingBlock: WUSLED_clean_sbu_0, # of connection points: 3
#     Node 16, Type 0, BuildingBlock: WUSLED_clean_sbu_0, # of connection points: 3
#     Node 17, Type 0, BuildingBlock: WUSLED_clean_sbu_0, # of connection points: 3
#     Edge 18, Type (0, 0), BuildingBlock: OJICUG_clean_linker_0, # of connection points: 2
#     Edge 19, Type (0, 0), BuildingBlock: OJICUG_clean_linker_0, # of connection points: 2
#     Edge 20, Type (0, 0), BuildingBlock: OJICUG_clean_linker_0, # of connection points: 2
#     Edge 21, Type (0, 0), BuildingBlock: OJICUG_clean_linker_0, # of connection points: 2
#     Edge 22, Type (0, 0), BuildingBlock: OJICUG_clean_linker_0, # of connection points: 2
#     Edge 23, Type (0, 0), BuildingBlock: OJICUG_clean_linker_0, # of connection points: 2
#     Edge 24, Type (0, 0), BuildingBlock: OJICUG_clean_linker_0, # of connection points: 2
#     Edge 25, Type (0, 0), BuildingBlock: OJICUG_clean_linker_0, # of connection points: 2
#     Edge 26, Type (0, 0), BuildingBlock: OJICUG_clean_linker_0, # of connection points: 2
#     Edge 27, Type (0, 0), BuildingBlock: OJICUG_clean_linker_0, # of connection points: 2
#     Edge 28, Type (0, 0), BuildingBlock: OJICUG_clean_linker_0, # of connection points: 2
#     Edge 29, Type (0, 0), BuildingBlock: OJICUG_clean_linker_0, # of connection points: 2
#     Edge 30, Type (0, 0), BuildingBlock: OJICUG_clean_linker_0, # of connection points: 2
#     Edge 31, Type (0, 0), BuildingBlock: OJICUG_clean_linker_0, # of connection points: 2
#     Edge 32, Type (0, 0), BuildingBlock: OJICUG_clean_linker_0, # of connection points: 2
#     Edge 33, Type (0, 0), BuildingBlock: OJICUG_clean_linker_0, # of connection points: 2
#     Edge 34, Type (0, 0), BuildingBlock: OJICUG_clean_linker_0, # of connection points: 2
#     Edge 35, Type (0, 0), BuildingBlock: OJICUG_clean_linker_0, # of connection points: 2
#     Edge 36, Type (0, 0), BuildingBlock: OJICUG_clean_linker_0, # of connection points: 2
#     Edge 37, Type (0, 0), BuildingBlock: OJICUG_clean_linker_0, # of connection points: 2
#     Edge 38, Type (0, 0), BuildingBlock: OJICUG_clean_linker_0, # of connection points: 2
#     Edge 39, Type (0, 0), BuildingBlock: OJICUG_clean_linker_0, # of connection points: 2
#     Edge 40, Type (0, 0), BuildingBlock: OJICUG_clean_linker_0, # of connection points: 2
#     Edge 41, Type (0, 0), BuildingBlock: OJICUG_clean_linker_0, # of connection points: 2
#     Edge 42, Type (0, 0), BuildingBlock: OJICUG_clean_linker_0, # of connection points: 2
#     Edge 43, Type (0, 0), BuildingBlock: OJICUG_clean_linker_0, # of connection points: 2
#     Edge 44, Type (0, 0), BuildingBlock: OJICUG_clean_linker_0, # of connection points: 2
# Relax obj value: 0.000
# Max RMSD: 0.007
# Mean RMSD: 0.007
data_MOF--net-pcu-h--node1-WUSLED_clean_sbu_0--edge1-OJICUG_clean_linker_0
_symmetry_space_group_name_H-M    P1
_symmetry_Int_Tables_number       1
_symmetry_cell_setting            triclinic
loop_
_symmetry_equiv_pos_as_xyz
'x, y, z'
_cell_length_a     96.568925
_cell_length_b     96.244585
_cell_length_c     25.058447
_cell_angle_alpha  90.018449
_cell_angle_beta   89.894896
_cell_angle_gamma 120.33488
loop_
_atom_site_label
_atom_site_type_symbol
_atom_site_fract_x
_atom_site_fract_y
_atom_site_fract_z
_atom_type_partial_charge
C0 C 0.24715 0.16891 0.04889 0.0
C1 C 0.23455 0.16111 0.01213 0.0
C2 C 0.22597 0.18066 0.02949 0.0
C3 C 0.22409 0.16697 0.0024 0.0
C4 C 0.23861 0.18834 0.06636 0.0
C5 C 0.24906 0.18253 0.07586 0.0
U6 U 0.25953 0.13644 0.0568 0.0
O7 O 0.28256 0.13833 0.03562 0.0
O8 O 0.27394 0.13316 0.11837 0.0
C9 C 0.28576 0.13641 0.08517 0.0
C10 C 0.25862 0.16332 0.05953 0.0
C11 C 0.30225 0.14738 0.10499 0.0
C12 C 0.32874 0.17143 0.09711 0.0
C13 C 0.31279 0.16207 0.07974 0.0
C14 C 0.32376 0.15178 0.16581 0.0
C15 C 0.33448 0.16635 0.14017 0.0
C16 C 0.30789 0.14244 0.14838 0.0
C17 C 0.22863 0.09211 0.01947 0.0
C18 C 0.21418 0.06784 0.96556 0.0
C19 C 0.22365 0.06621 0.05334 0.0
C20 C 0.23023 0.08286 0.05984 0.0
C21 C 0.21539 0.05844 0.00629 0.0
C22 C 0.22068 0.08444 0.97217 0.0
C23 C 0.23403 0.10941 0.0268 0.0
O24 O 0.25542 0.15385 0.1011 0.0
O25 O 0.26366 0.15875 0.01797 0.0
O26 O 0.24489 0.11954 0.99308 0.0
O27 O 0.23643 0.11487 0.07604 0.0
H28 H 0.23279 0.15053 0.99099 0.0
H29 H 0.21439 0.16064 0.97421 0.0
H30 H 0.24059 0.19902 0.08743 0.0
H31 H 0.25874 0.18877 0.10423 0.0
H32 H 0.33658 0.18265 0.07676 0.0
H33 H 0.30881 0.16622 0.04615 0.0
H34 H 0.32774 0.1473 0.19848 0.0
H35 H 0.30006 0.1311 0.16821 0.0
H36 H 0.20774 0.0623 0.9291 0.0
H37 H 0.225 0.05941 0.08528 0.0
H38 H 0.23632 0.08842 0.09678 0.0
H39 H 0.21917 0.09125 0.94062 0.0
C40 C 0.88953 0.09075 0.04475 0.0
C41 C 0.89723 0.08487 0.01187 0.0
C42 C 0.87474 0.05737 0.02269 0.0
C43 C 0.88991 0.06831 0.00102 0.0
C44 C 0.86737 0.06336 0.05678 0.0
C45 C 0.87468 0.07983 0.06759 0.0
U46 U 0.9236 0.13559 0.05254 0.0
O47 O 0.92289 0.15707 0.02584 0.0
O48 O 0.92637 0.154 0.11058 0.0
C49 C 0.92398 0.16253 0.07466 0.0
C50 C 0.89614 0.10815 0.05399 0.0
C51 C 0.91276 0.16821 0.08899 0.0
C52 C 0.89125 0.1671 0.14353 0.0
C53 C 0.90092 0.16068 0.12865 0.0
C54 C 0.90486 0.18843 0.07867 0.0
C55 C 0.89315 0.18113 0.11891 0.0
C56 C 0.91453 0.18207 0.06403 0.0
C57 C 0.96777 0.14804 0.02262 0.0
C58 C 0.98973 0.17452 0.99701 0.0
C59 C 0.99541 0.15383 0.02487 0.0
C60 C 0.97898 0.14319 0.03276 0.0
C61 C 1.00102 0.16962 0.00644 0.0
C62 C 0.97327 0.16386 0.00513 0.0
C63 C 0.95046 0.13619 0.02869 0.0
O64 O 0.9052 0.11434 0.09643 0.0
O65 O 0.90163 0.11755 0.01187 0.0
O66 O 0.94083 0.1367 0.99272 0.0
O67 O 0.94463 0.13391 0.07739 0.0
H68 H 0.90872 0.09309 0.99381 0.0
H69 H 0.8959 0.06415 0.9744 0.0
H70 H 0.85587 0.05531 0.07502 0.0
H71 H 0.86855 0.0841 0.09322 0.0
H72 H 0.88226 0.16105 0.17424 0.0
H73 H 0.89924 0.14995 0.14855 0.0
H74 H 0.90687 0.19936 0.05934 0.0
H75 H 0.92364 0.18817 0.03365 0.0
H76 H 0.9936 0.18663 0.98352 0.0
H77 H 1.00367 0.14955 0.03198 0.0
H78 H 0.975 0.13103 0.0461 0.0
H79 H 0.96486 0.16792 0.99727 0.0
C80 C 0.89179 0.81306 0.03882 0.0
C81 C 0.90088 0.82928 0.0544 0.0
C82 C 0.88008 0.83442 0.02113 0.0
C83 C 0.89506 0.83983 0.04576 0.0
C84 C 0.87118 0.81823 0.00485 0.0
C85 C 0.87696 0.8077 0.01369 0.0
U86 U 0.92353 0.79977 0.04909 0.0
O87 O 0.92559 0.78408 0.10856 0.0
O88 O 0.92138 0.77675 0.02447 0.0
C89 C 0.92248 0.77265 0.07364 0.0
C90 C 0.89707 0.80132 0.04993 0.0
C91 C 0.91087 0.7558 0.08953 0.0
C92 C 0.90053 0.72713 0.07587 0.0
C93 C 0.91024 0.74315 0.05968 0.0
C94 C 0.89162 0.73599 0.1521 0.0
C95 C 0.89119 0.7233 0.12262 0.0
C96 C 0.90133 0.75205 0.13574 0.0
C97 C 0.96806 0.83015 0.0137 0.0
C98 C 0.99294 0.83175 0.0426 0.0
C99 C 0.99254 0.84512 0.96135 0.0
C100 C 0.97622 0.83962 0.9692 0.0
C101 C 1.00117 0.84133 0.99801 0.0
C102 C 0.97654 0.82618 0.05031 0.0
C103 C 0.95096 0.82522 0.02156 0.0
O104 O 0.90176 0.79636 0.0085 0.0
O105 O 0.90611 0.80399 0.09227 0.0
O106 O 0.94542 0.82235 0.07076 0.0
O107 O 0.94078 0.81488 0.98688 0.0
H108 H 0.9124 0.83376 0.07363 0.0
H109 H 0.90235 0.85225 0.05817 0.0
H110 H 0.85953 0.81357 0.98637 0.0
H111 H 0.86971 0.79524 0.00151 0.0
H112 H 0.90074 0.71777 0.05253 0.0
H113 H 0.9176 0.74568 0.02427 0.0
H114 H 0.88447 0.73351 0.18796 0.0
H115 H 0.90154 0.76151 0.15975 0.0
H116 H 0.99914 0.82844 0.07131 0.0
H117 H 0.99848 0.85264 0.92699 0.0
H118 H 0.96998 0.84295 0.94062 0.0
H119 H 0.97055 0.81885 0.08497 0.0
C120 C 0.10234 0.23428 0.94547 0.0
C121 C 0.09711 0.21877 0.96534 0.0
C122 C 0.06928 0.21281 0.96517 0.0
C123 C 0.08073 0.20813 0.97514 0.0
C124 C 0.0747 0.2284 0.94521 0.0
C125 C 0.09102 0.23898 0.93549 0.0
U126 U 0.14739 0.24722 0.93872 0.0
O127 O 0.16561 0.26287 0.87994 0.0
O128 O 0.16829 0.27023 0.96392 0.0
C129 C 0.17376 0.27434 0.91495 0.0
C130 C 0.11948 0.2459 0.93542 0.0
C131 C 0.17907 0.29117 0.89879 0.0
C132 C 0.1967 0.31991 0.91434 0.0
C133 C 0.19037 0.3039 0.93042 0.0
C134 C 0.18044 0.3109 0.83456 0.0
C135 C 0.19196 0.32366 0.86591 0.0
C136 C 0.17406 0.29484 0.8508 0.0
C137 C 0.16103 0.21675 0.9759 0.0
C138 C 0.18462 0.21542 0.94889 0.0
C139 C 0.16988 0.20134 0.02821 0.0
C140 C 0.15918 0.2069 0.01977 0.0
C141 C 0.18272 0.20545 0.99281 0.0
C142 C 0.17391 0.22105 0.94059 0.0
C143 C 0.14896 0.22172 0.96722 0.0
O144 O 0.12886 0.25067 0.9775 0.0
O145 O 0.12597 0.24297 0.89393 0.0
O146 O 0.14659 0.22461 0.91777 0.0
O147 O 0.14904 0.23208 0.00159 0.0
H148 H 0.10568 0.2149 0.97327 0.0
H149 H 0.07703 0.19618 0.98993 0.0
H150 H 0.06634 0.23256 0.93783 0.0
H151 H 0.09482 0.25093 0.92039 0.0
H152 H 0.2057 0.32935 0.93919 0.0
H153 H 0.19461 0.30144 0.96724 0.0
H154 H 0.17637 0.31332 0.79733 0.0
H155 H 0.16539 0.28533 0.82534 0.0
H156 H 0.19446 0.21899 0.92116 0.0
H157 H 0.16789 0.19353 0.06201 0.0
H158 H 0.14928 0.20332 0.04734 0.0
H159 H 0.17566 0.22868 0.90646 0.0
C160 C 0.82203 0.95553 0.9482 0.0
C161 C 0.83454 0.96138 0.98572 0.0
C162 C 0.84075 0.989 0.96919 0.0
C163 C 0.84383 0.97797 0.99605 0.0
C164 C 0.82853 0.98304 0.93049 0.0
C165 C 0.81929 0.96653 0.92023 0.0
U166 U 0.81085 0.91067 0.94286 0.0
O167 O 0.78843 0.88925 0.9695 0.0
O168 O 0.79537 0.89203 0.88505 0.0
C169 C 0.78425 0.88361 0.92079 0.0
C170 C 0.81106 0.93811 0.93933 0.0
C171 C 0.76737 0.87787 0.90566 0.0
C172 C 0.74716 0.8795 0.85207 0.0
C173 C 0.76323 0.88586 0.8675 0.0
C174 C 0.73915 0.8573 0.91338 0.0
C175 C 0.7349 0.86508 0.87466 0.0
C176 C 0.75517 0.86361 0.92857 0.0
C177 C 0.84269 0.89879 0.97686 0.0
C178 C 0.83958 0.87219 0.96639 0.0
C179 C 0.8633 0.89344 0.00927 0.0
C180 C 0.85746 0.90399 0.00199 0.0
C181 C 0.85446 0.87738 0.99157 0.0
C182 C 0.83374 0.88279 0.95917 0.0
C183 C 0.8371 0.91039 0.96923 0.0
O184 O 0.81402 0.93175 0.89754 0.0
O185 O 0.8068 0.9288 0.98175 0.0
O186 O 0.82667 0.90976 0.00434 0.0
O187 O 0.83368 0.91235 0.92005 0.0
H188 H 0.83689 0.95312 0.00779 0.0
H189 H 0.85307 0.9821 0.0263 0.0
H190 H 0.826 0.99115 0.90826 0.0
H191 H 0.80976 0.9623 0.89099 0.0
H192 H 0.74434 0.88591 0.82258 0.0
H193 H 0.77239 0.89693 0.84927 0.0
H194 H 0.73013 0.84606 0.93111 0.0
H195 H 0.75806 0.85717 0.9578 0.0
H196 H 0.83235 0.85988 0.95278 0.0
H197 H 0.87488 0.89799 0.02805 0.0
H198 H 0.86459 0.91631 0.01577 0.0
H199 H 0.82227 0.87852 0.93979 0.0
C200 C 0.10247 0.87752 0.94433 0.0
C201 C 0.09765 0.88564 0.97962 0.0
C202 C 0.06943 0.86584 0.9632 0.0
C203 C 0.08128 0.87982 0.98911 0.0
C204 C 0.0744 0.85782 0.92786 0.0
C205 C 0.09071 0.8636 0.91862 0.0
U206 U 0.14747 0.9101 0.93432 0.0
O207 O 0.16873 0.90848 0.95556 0.0
O208 O 0.16502 0.91301 0.87247 0.0
C209 C 0.17371 0.91006 0.90583 0.0
C210 C 0.11957 0.88312 0.93375 0.0
C211 C 0.17915 0.899 0.88668 0.0
C212 C 0.1818 0.8752 0.89639 0.0
C213 C 0.17532 0.88465 0.91351 0.0
C214 C 0.19575 0.89411 0.82491 0.0
C215 C 0.1922 0.87987 0.85203 0.0
C216 C 0.18933 0.90353 0.84208 0.0
C217 C 0.16108 0.95489 0.96589 0.0
C218 C 0.17229 0.98226 0.93169 0.0
C219 C 0.17996 0.978 0.01925 0.0
C220 C 0.17007 0.96131 0.01286 0.0
C221 C 0.18107 0.98872 0.97899 0.0
C222 C 0.1624 0.9656 0.92534 0.0
C223 C 0.14913 0.93738 0.96102 0.0
O224 O 0.12582 0.89223 0.89135 0.0
O225 O 0.12927 0.88811 0.97511 0.0
O226 O 0.14993 0.92758 0.99586 0.0
O227 O 0.14581 0.93137 0.9125 0.0
H228 H 0.10652 0.89646 -0.00024 0.0
H229 H 0.07791 0.8864 0.01611 0.0
H230 H 0.06567 0.84692 0.90776 0.0
H231 H 0.09416 0.85712 0.89138 0.0
H232 H 0.17865 0.86424 0.91793 0.0
H233 H 0.1675 0.88082 0.94806 0.0
H234 H 0.2039 0.89827 0.79119 0.0
H235 H 0.19261 0.91461 0.821 0.0
H236 H 0.17259 0.99009 0.90014 0.0
H237 H 0.18665 0.9825 0.056 0.0
H238 H 0.16923 0.95348 0.04528 0.0
H239 H 0.15543 0.96113 0.88908 0.0
C240 C 0.91457 0.50281 0.38229 0.0
C241 C 0.90145 0.4947 0.34764 0.0
C242 C 0.89351 0.51478 0.3642 0.0
C243 C 0.89105 0.50067 0.33855 0.0
C244 C 0.90669 0.52278 0.39891 0.0
C245 C 0.91708 0.51686 0.40777 0.0
U246 U 0.92645 0.46998 0.38752 0.0
O247 O 0.94937 0.4717 0.36582 0.0
O248 O 0.94065 0.46612 0.4484 0.0
C249 C 0.95247 0.46945 0.41513 0.0
C250 C 0.92591 0.49704 0.39237 0.0
C251 C 0.96896 0.48024 0.43535 0.0
C252 C 0.99542 0.5044 0.42919 0.0
C253 C 0.97951 0.49515 0.41139 0.0
C254 C 0.99039 0.48417 0.49573 0.0
C255 C 1.00112 0.49897 0.47142 0.0
C256 C 0.97456 0.47494 0.47786 0.0
C257 C 0.89509 0.4261 0.34728 0.0
C258 C 0.89292 0.40069 0.37382 0.0
C259 C 0.87784 0.40149 0.29805 0.0
C260 C 0.88434 0.41805 0.30549 0.0
C261 C 0.88191 0.39253 0.33236 0.0
C262 C 0.89948 0.41732 0.38114 0.0
C263 C 0.90074 0.44337 0.35598 0.0
O264 O 0.92254 0.48729 0.43325 0.0
O265 O 0.93093 0.49262 0.35037 0.0
O266 O 0.91175 0.45359 0.32285 0.0
O267 O 0.90322 0.44844 0.40568 0.0
H268 H 0.89924 0.48378 0.3277 0.0
H269 H 0.88094 0.49409 0.31205 0.0
H270 H 0.90912 0.53378 0.41878 0.0
H271 H 0.92716 0.52333 0.43451 0.0
H272 H 1.00327 0.51581 0.40988 0.0
H273 H 0.97554 0.49958 0.37852 0.0
H274 H 0.99435 0.47943 0.52771 0.0
H275 H 0.96673 0.46343 0.4967 0.0
H276 H 0.89648 0.39424 0.40063 0.0
H277 H 0.86924 0.39564 0.26622 0.0
H278 H 0.8807 0.42454 0.27909 0.0
H279 H 0.9078 0.42326 0.41364 0.0
C280 C 0.55592 0.42426 0.37966 0.0
C281 C 0.56304 0.41845 0.34389 0.0
C282 C 0.5411 0.39085 0.35803 0.0
C283 C 0.55571 0.40188 0.33324 0.0
C284 C 0.53434 0.39677 0.39499 0.0
C285 C 0.54166 0.41326 0.40558 0.0
U286 U 0.58996 0.46908 0.38619 0.0
O287 O 0.58925 0.49057 0.35968 0.0
O288 O 0.59309 0.48762 0.44421 0.0
C289 C 0.59056 0.49611 0.40849 0.0
C290 C 0.56249 0.44167 0.38884 0.0
C291 C 0.5794 0.50182 0.42337 0.0
C292 C 0.55809 0.50079 0.4788 0.0
C293 C 0.56775 0.49439 0.46365 0.0
C294 C 0.57133 0.52191 0.41302 0.0
C295 C 0.55981 0.5147 0.45383 0.0
C296 C 0.581 0.51557 0.39811 0.0
C297 C 0.63384 0.48094 0.35343 0.0
C298 C 0.65713 0.50795 0.35928 0.0
C299 C 0.66021 0.48603 0.32618 0.0
C300 C 0.64376 0.47542 0.33333 0.0
C301 C 0.66716 0.50247 0.33895 0.0
C302 C 0.64061 0.49729 0.36638 0.0
C303 C 0.61656 0.46933 0.36051 0.0
O304 O 0.57172 0.44793 0.43089 0.0
O305 O 0.56778 0.45104 0.3466 0.0
O306 O 0.6069 0.47006 0.32518 0.0
O307 O 0.611 0.4673 0.40954 0.0
H308 H 0.57408 0.42673 0.32344 0.0
H309 H 0.56121 0.39778 0.30436 0.0
H310 H 0.52329 0.38865 0.41563 0.0
H311 H 0.53599 0.41747 0.43347 0.0
H312 H 0.54924 0.49482 0.50997 0.0
H313 H 0.5662 0.48374 0.48378 0.0
H314 H 0.5732 0.53276 0.3934 0.0
H315 H 0.58996 0.52159 0.36723 0.0
H316 H 0.66199 0.52054 0.36902 0.0
H317 H 0.66752 0.48128 0.31129 0.0
H318 H 0.63877 0.46284 0.32327 0.0
H319 H 0.63314 0.50179 0.38186 0.0
C320 C 0.55891 0.14727 0.37055 0.0
C321 C 0.56808 0.16359 0.38486 0.0
C322 C 0.54709 0.16851 0.35212 0.0
C323 C 0.56222 0.17408 0.37585 0.0
C324 C 0.53812 0.15222 0.33691 0.0
C325 C 0.54396 0.14175 0.34614 0.0
U326 U 0.5906 0.13395 0.38186 0.0
O327 O 0.59319 0.11923 0.44417 0.0
O328 O 0.58823 0.11059 0.36147 0.0
C329 C 0.58976 0.10727 0.41128 0.0
C330 C 0.56419 0.13559 0.38276 0.0
C331 C 0.57837 0.09079 0.4311 0.0
C332 C 0.57217 0.06976 0.49691 0.0
C333 C 0.58173 0.08566 0.47931 0.0
C334 C 0.55545 0.06371 0.41869 0.0
C335 C 0.559 0.05849 0.46659 0.0
C336 C 0.56501 0.07967 0.40114 0.0
C337 C 0.63496 0.1639 0.34337 0.0
C338 C 0.65986 0.16569 0.3731 0.0
C339 C 0.65943 0.17861 0.29079 0.0
C340 C 0.64311 0.17313 0.29842 0.0
C341 C 0.66807 0.17504 0.32811 0.0
C342 C 0.64346 0.16013 0.3806 0.0
C343 C 0.61788 0.15904 0.35112 0.0
O344 O 0.56859 0.13014 0.34188 0.0
O345 O 0.57349 0.13868 0.42466 0.0
O346 O 0.61253 0.15684 0.4005 0.0
O347 O 0.60758 0.14822 0.3178 0.0
H348 H 0.5797 0.1682 0.40353 0.0
H349 H 0.56957 0.18658 0.38738 0.0
H350 H 0.52637 0.14744 0.31912 0.0
H351 H 0.53663 0.1292 0.33496 0.0
H352 H 0.57546 0.06619 0.53353 0.0
H353 H 0.59205 0.09389 0.50289 0.0
H354 H 0.54531 0.05543 0.39457 0.0
H355 H 0.56209 0.08319 0.36371 0.0
H356 H 0.66607 0.16256 0.40233 0.0
H357 H 0.66536 0.18594 0.25608 0.0
H358 H 0.63685 0.17628 0.26936 0.0
H359 H 0.63747 0.153 0.41561 0.0
C360 C 0.76903 0.56741 0.2893 0.0
C361 C 0.76222 0.55087 0.27903 0.0
C362 C 0.73591 0.54589 0.30834 0.0
C363 C 0.74583 0.54024 0.28834 0.0
C364 C 0.74291 0.56243 0.31944 0.0
C365 C 0.75925 0.57304 0.30994 0.0
U366 U 0.81415 0.58088 0.27754 0.0
O367 O 0.83153 0.5957 0.21516 0.0
O368 O 0.83522 0.60427 0.29792 0.0
C369 C 0.84007 0.60767 0.24806 0.0
C370 C 0.78604 0.57913 0.27695 0.0
C371 C 0.84508 0.62412 0.22844 0.0
C372 C 0.85962 0.64519 0.16231 0.0
C373 C 0.85341 0.62932 0.17983 0.0
C374 C 0.84915 0.65109 0.24146 0.0
C375 C 0.85775 0.65637 0.19312 0.0
C376 C 0.84287 0.63515 0.25891 0.0
C377 C 0.82845 0.55098 0.31579 0.0
C378 C 0.85152 0.54911 0.28596 0.0
C379 C 0.83802 0.53621 0.36829 0.0
C380 C 0.82725 0.54174 0.36072 0.0
C381 C 0.85026 0.53974 0.33093 0.0
C382 C 0.84075 0.55471 0.27852 0.0
C383 C 0.81627 0.55584 0.30807 0.0
O384 O 0.79591 0.58459 0.31777 0.0
O385 O 0.79224 0.57603 0.23501 0.0
O386 O 0.81318 0.55806 0.25872 0.0
O387 O 0.81682 0.56664 0.34146 0.0
H388 H 0.76952 0.54619 0.26335 0.0
H389 H 0.74093 0.52756 0.28002 0.0
H390 H 0.73567 0.56728 0.33425 0.0
H391 H 0.76423 0.58575 0.31799 0.0
H392 H 0.86636 0.64883 0.12533 0.0
H393 H 0.85547 0.62116 0.15583 0.0
H394 H 0.84731 0.65929 0.26596 0.0
H395 H 0.83654 0.63158 0.29666 0.0
H396 H 0.86091 0.55223 0.25669 0.0
H397 H 0.83651 0.52887 0.40298 0.0
H398 H 0.8178 0.5386 0.38981 0.0
H399 H 0.84199 0.56185 0.24351 0.0
C400 C 0.4882 0.28911 0.28215 0.0
C401 C 0.50138 0.295 0.31691 0.0
C402 C 0.50683 0.32251 0.30406 0.0
C403 C 0.51064 0.31156 0.32769 0.0
C404 C 0.49389 0.31651 0.2681 0.0
C405 C 0.4847 0.30003 0.25737 0.0
U406 U 0.47735 0.24434 0.27555 0.0
O407 O 0.45498 0.22282 0.30192 0.0
O408 O 0.46192 0.22579 0.21744 0.0
C409 C 0.4508 0.21729 0.25309 0.0
C410 C 0.47735 0.27169 0.27289 0.0
C411 C 0.43391 0.2116 0.2381 0.0
C412 C 0.41373 0.21289 0.18318 0.0
C413 C 0.42981 0.21923 0.19843 0.0
C414 C 0.4056 0.19143 0.24768 0.0
C415 C 0.40141 0.19884 0.20746 0.0
C416 C 0.42163 0.19772 0.26268 0.0
C417 C 0.50935 0.23261 0.30864 0.0
C418 C 0.50621 0.20599 0.2986 0.0
C419 C 0.53017 0.22741 0.33975 0.0
C420 C 0.52429 0.23792 0.33274 0.0
C421 C 0.52124 0.21128 0.32283 0.0
C422 C 0.50031 0.21655 0.29164 0.0
C423 C 0.50368 0.24416 0.30145 0.0
O424 O 0.4804 0.26548 0.23089 0.0
O425 O 0.47319 0.26232 0.31512 0.0
O426 O 0.49323 0.2434 0.33672 0.0
O427 O 0.50023 0.24619 0.25238 0.0
H428 H 0.50431 0.28678 0.33648 0.0
H429 H 0.52045 0.31573 0.35578 0.0
H430 H 0.49078 0.32457 0.24835 0.0
H431 H 0.47463 0.29576 0.23027 0.0
H432 H 0.41095 0.21902 0.15249 0.0
H433 H 0.43902 0.23 0.17884 0.0
H434 H 0.39652 0.18048 0.26675 0.0
H435 H 0.42448 0.19156 0.2931 0.0
H436 H 0.4989 0.19362 0.2856 0.0
H437 H 0.54188 0.23204 0.35776 0.0
H438 H 0.53148 0.25029 0.34596 0.0
H439 H 0.48872 0.21219 0.27305 0.0
C440 C 0.76947 0.21139 0.2761 0.0
C441 C 0.76458 0.21964 0.31052 0.0
C442 C 0.73639 0.19963 0.29449 0.0
C443 C 0.74819 0.21378 0.31977 0.0
C444 C 0.74144 0.19148 0.26005 0.0
C445 C 0.75777 0.19729 0.25105 0.0
U446 U 0.81434 0.24421 0.26528 0.0
O447 O 0.83577 0.24294 0.28692 0.0
O448 O 0.83191 0.24708 0.20356 0.0
C449 C 0.84072 0.2444 0.2372 0.0
C450 C 0.7866 0.21707 0.26566 0.0
C451 C 0.84629 0.23339 0.21865 0.0
C452 C 0.84837 0.20926 0.22771 0.0
C453 C 0.84189 0.21874 0.2444 0.0
C454 C 0.86346 0.22875 0.15883 0.0
C455 C 0.85933 0.21419 0.18483 0.0
C456 C 0.85704 0.23821 0.17558 0.0
C457 C 0.82741 0.28899 0.29393 0.0
C458 C 0.84927 0.31218 0.33909 0.0
C459 C 0.83574 0.3163 0.26494 0.0
C460 C 0.82581 0.29963 0.25961 0.0
C461 C 0.84751 0.32284 0.30507 0.0
C462 C 0.83934 0.29546 0.33361 0.0
C463 C 0.81566 0.27144 0.29025 0.0
O464 O 0.79277 0.22601 0.22285 0.0
O465 O 0.7963 0.22232 0.30696 0.0
O466 O 0.81668 0.26191 0.32571 0.0
O467 O 0.81235 0.26522 0.24202 0.0
H468 H 0.7734 0.2306 0.33012 0.0
H469 H 0.74475 0.22046 0.34606 0.0
H470 H 0.73275 0.18045 0.24047 0.0
H471 H 0.76128 0.19072 0.22448 0.0
H472 H 0.84478 0.19806 0.24834 0.0
H473 H 0.8336 0.2147 0.27774 0.0
H474 H 0.87204 0.23311 0.12631 0.0
H475 H 0.86074 0.24951 0.15537 0.0
H476 H 0.85829 0.31677 0.37011 0.0
H477 H 0.83382 0.32408 0.23857 0.0
H478 H 0.81658 0.29504 0.22922 0.0
H479 H 0.84087 0.28764 0.36101 0.0
C480 C 0.58155 0.83625 0.71596 0.0
C481 C 0.56859 0.82827 0.68058 0.0
C482 C 0.56055 0.84826 0.69724 0.0
C483 C 0.55822 0.83425 0.67118 0.0
C484 C 0.57354 0.85613 0.7327 0.0
C485 C 0.58391 0.85019 0.74187 0.0
U486 U 0.59343 0.80343 0.72193 0.0
O487 O 0.61636 0.80513 0.70046 0.0
O488 O 0.60763 0.79964 0.78304 0.0
C489 C 0.61946 0.80293 0.74983 0.0
C490 C 0.59288 0.83048 0.72628 0.0
C491 C 0.63594 0.81374 0.77002 0.0
C492 C 0.66227 0.8381 0.76446 0.0
C493 C 0.64636 0.8288 0.74669 0.0
C494 C 0.65749 0.81762 0.82971 0.0
C495 C 0.66809 0.83257 0.80603 0.0
C496 C 0.64166 0.80834 0.81187 0.0
C497 C 0.56202 0.7595 0.68206 0.0
C498 C 0.55981 0.73409 0.70881 0.0
C499 C 0.54462 0.73483 0.63329 0.0
C500 C 0.55119 0.75141 0.6405 0.0
C501 C 0.54871 0.72588 0.6676 0.0
C502 C 0.56643 0.75074 0.71591 0.0
C503 C 0.56772 0.77679 0.69057 0.0
O504 O 0.5895 0.82078 0.76731 0.0
O505 O 0.59792 0.82602 0.68443 0.0
O506 O 0.57874 0.78696 0.65739 0.0
O507 O 0.5702 0.7819 0.74021 0.0
H508 H 0.5665 0.81744 0.66029 0.0
H509 H 0.54825 0.82777 0.6441 0.0
H510 H 0.57586 0.86704 0.75293 0.0
H511 H 0.59386 0.85656 0.76917 0.0
H512 H 0.67001 0.84962 0.74564 0.0
H513 H 0.64228 0.8333 0.71434 0.0
H514 H 0.66155 0.81281 0.86117 0.0
H515 H 0.63393 0.79673 0.83021 0.0
H516 H 0.56339 0.72765 0.73562 0.0
H517 H 0.53595 0.72896 0.60166 0.0
H518 H 0.54753 0.75788 0.61411 0.0
H519 H 0.57481 0.7567 0.74823 0.0
C520 C 0.22483 0.75711 0.70753 0.0
C521 C 0.22205 0.7507 0.65555 0.0
C522 C 0.21022 0.72336 0.69089 0.0
C523 C 0.21488 0.73405 0.64736 0.0
C524 C 0.21338 0.72984 0.74279 0.0
C525 C 0.22052 0.74646 0.75097 0.0
U526 U 0.25756 0.80248 0.7155 0.0
O527 O 0.25625 0.82367 0.68936 0.0
O528 O 0.26009 0.82071 0.77388 0.0
C529 C 0.25739 0.8291 0.73826 0.0
C530 C 0.23066 0.77449 0.71706 0.0
C531 C 0.24601 0.83454 0.75318 0.0
C532 C 0.22495 0.83354 0.80993 0.0
C533 C 0.2347 0.82727 0.79451 0.0
C534 C 0.2374 0.85421 0.74232 0.0
C535 C 0.22624 0.84717 0.78423 0.0
C536 C 0.24715 0.84799 0.72713 0.0
C537 C 0.30178 0.81517 0.68319 0.0
C538 C 0.32485 0.84236 0.68745 0.0
C539 C 0.32831 0.82037 0.65766 0.0
C540 C 0.31188 0.80968 0.66478 0.0
C541 C 0.33505 0.83688 0.66876 0.0
C542 C 0.30835 0.8316 0.69453 0.0
C543 C 0.28452 0.80345 0.69011 0.0
O544 O 0.2396 0.78105 0.75958 0.0
O545 O 0.23563 0.78411 0.67535 0.0
O546 O 0.27482 0.80406 0.65472 0.0
O547 O 0.2789 0.80128 0.73908 0.0
H548 H 0.22499 0.75847 0.62104 0.0
H549 H 0.21246 0.72954 0.60684 0.0
H550 H 0.21018 0.72204 0.77732 0.0
H551 H 0.22233 0.75094 0.79152 0.0
H552 H 0.21638 0.8277 0.84196 0.0
H553 H 0.23351 0.81686 0.81533 0.0
H554 H 0.23894 0.86485 0.7221 0.0
H555 H 0.25586 0.85391 0.69547 0.0
H556 H 0.32956 0.855 0.69589 0.0
H557 H 0.33576 0.81562 0.64411 0.0
H558 H 0.30705 0.79703 0.65599 0.0
H559 H 0.30073 0.83609 0.7087 0.0
C560 C 0.22538 0.47963 0.7036 0.0
C561 C 0.23469 0.49599 0.71713 0.0
C562 C 0.21356 0.50088 0.68557 0.0
C563 C 0.22883 0.5065 0.70831 0.0
C564 C 0.20446 0.48454 0.67111 0.0
C565 C 0.2103 0.47406 0.68013 0.0
U566 U 0.25733 0.46679 0.71825 0.0
O567 O 0.25935 0.45171 0.78046 0.0
O568 O 0.25561 0.44376 0.697 0.0
C569 C 0.2565 0.44005 0.74692 0.0
C570 C 0.23068 0.46797 0.71569 0.0
C571 C 0.24499 0.42338 0.76493 0.0
C572 C 0.23764 0.4022 0.83117 0.0
C573 C 0.2473 0.41821 0.8148 0.0
C574 C 0.22291 0.39608 0.74828 0.0
C575 C 0.22541 0.39084 0.79796 0.0
C576 C 0.23257 0.41215 0.73195 0.0
C577 C 0.30203 0.49772 0.68856 0.0
C578 C 0.3237 0.49213 0.67409 0.0
C579 C 0.32978 0.51964 0.6848 0.0
C580 C 0.31341 0.5142 0.69101 0.0
C581 C 0.33518 0.50871 0.6759 0.0
C582 C 0.30729 0.48669 0.68046 0.0
C583 C 0.28481 0.49253 0.69291 0.0
O584 O 0.23582 0.46314 0.67509 0.0
O585 O 0.23938 0.4707 0.75894 0.0
O586 O 0.27874 0.4897 0.74133 0.0
O587 O 0.2752 0.48188 0.65778 0.0
H588 H 0.24641 0.50063 0.73506 0.0
H589 H 0.23628 0.51904 0.71925 0.0
H590 H 0.1926 0.47973 0.65409 0.0
H591 H 0.20287 0.46148 0.66955 0.0
H592 H 0.24013 0.39862 0.86928 0.0
H593 H 0.2569 0.42651 0.84076 0.0
H594 H 0.21351 0.38774 0.72187 0.0
H595 H 0.23047 0.41569 0.69315 0.0
H596 H 0.32741 0.48334 0.66801 0.0
H597 H 0.33817 0.53248 0.68574 0.0
H598 H 0.30961 0.52292 0.69704 0.0
H599 H 0.29872 0.4739 0.67864 0.0
C600 C 0.43695 0.90207 0.62064 0.0
C601 C 0.43027 0.88549 0.61162 0.0
C602 C 0.40378 0.88053 0.63857 0.0
C603 C 0.41385 0.87484 0.62038 0.0
C604 C 0.41064 0.89713 0.64824 0.0
C605 C 0.42701 0.90775 0.63931 0.0
U606 U 0.48201 0.91521 0.61072 0.0
O607 O 0.49994 0.93086 0.5512 0.0
O608 O 0.50302 0.93824 0.63522 0.0
C609 C 0.50827 0.94232 0.58602 0.0
C610 C 0.45404 0.91377 0.60962 0.0
C611 C 0.51351 0.95913 0.57003 0.0
C612 C 0.53193 0.98785 0.58305 0.0
C613 C 0.52574 0.97186 0.5992 0.0
C614 C 0.51366 0.9788 0.50816 0.0
C615 C 0.5261 0.99156 0.53699 0.0
C616 C 0.50742 0.96277 0.5245 0.0
C617 C 0.49582 0.88476 0.64653 0.0
C618 C 0.519 0.88294 0.61769 0.0
C619 C 0.50504 0.8697 0.69906 0.0
C620 C 0.49435 0.8753 0.69114 0.0
C621 C 0.51749 0.87337 0.66237 0.0
C622 C 0.50831 0.88862 0.6099 0.0
C623 C 0.48374 0.88975 0.63852 0.0
O624 O 0.46366 0.91868 0.6511 0.0
O625 O 0.46041 0.91099 0.56743 0.0
O626 O 0.48116 0.8926 0.58927 0.0
O627 O 0.48396 0.90013 0.6731 0.0
H628 H 0.43771 0.88079 0.59749 0.0
H629 H 0.40905 0.86212 0.61318 0.0
H630 H 0.40328 0.90201 0.6616 0.0
H631 H 0.43189 0.92049 0.64639 0.0
H632 H 0.54165 0.99728 0.60586 0.0
H633 H 0.53078 0.96941 0.63409 0.0
H634 H 0.50875 0.9812 0.47285 0.0
H635 H 0.49799 0.95324 0.50106 0.0
H636 H 0.52854 0.88616 0.58895 0.0
H637 H 0.50334 0.8622 0.73349 0.0
H638 H 0.48476 0.87206 0.71972 0.0
H639 H 0.50976 0.89592 0.57515 0.0
C640 C 0.15373 0.62089 0.62912 0.0
C641 C 0.17049 0.6285 0.62398 0.0
C642 C 0.17327 0.65416 0.65194 0.0
C643 C 0.18017 0.645 0.63514 0.0
C644 C 0.15648 0.64637 0.65723 0.0
C645 C 0.14685 0.62996 0.64596 0.0
U646 U 0.14338 0.57651 0.61378 0.0
O647 O 0.12104 0.55444 0.63681 0.0
O648 O 0.12844 0.55879 0.55276 0.0
C649 C 0.11718 0.54964 0.58716 0.0
C650 C 0.14302 0.60368 0.61632 0.0
C651 C 0.10031 0.54395 0.57177 0.0
C652 C 0.08021 0.54552 0.51733 0.0
C653 C 0.09626 0.55184 0.53293 0.0
C654 C 0.07203 0.52355 0.57976 0.0
C655 C 0.06788 0.53123 0.5404 0.0
C656 C 0.08803 0.52982 0.59512 0.0
C657 C 0.17557 0.56488 0.6453 0.0
C658 C 0.1724 0.53826 0.63501 0.0
C659 C 0.1967 0.55984 0.674 0.0
C660 C 0.19072 0.5703 0.66781 0.0
C661 C 0.18764 0.54365 0.65783 0.0
C662 C 0.16641 0.54877 0.62888 0.0
C663 C 0.16971 0.57632 0.63969 0.0
O664 O 0.14648 0.59821 0.57326 0.0
O665 O 0.13855 0.59362 0.65676 0.0
O666 O 0.15893 0.57491 0.67473 0.0
O667 O 0.16656 0.57896 0.59095 0.0
H668 H 0.17607 0.62172 0.6112 0.0
H669 H 0.19306 0.65054 0.63111 0.0
H670 H 0.15069 0.65302 0.66918 0.0
H671 H 0.13395 0.62435 0.64996 0.0
H672 H 0.07746 0.55186 0.48732 0.0
H673 H 0.10547 0.5628 0.51429 0.0
H674 H 0.06295 0.51242 0.59788 0.0
H675 H 0.09084 0.52345 0.62486 0.0
H676 H 0.165 0.52585 0.6226 0.0
H677 H 0.20855 0.56454 0.69089 0.0
H678 H 0.198 0.5827 0.68059 0.0
H679 H 0.15465 0.54434 0.61153 0.0
C680 C 0.43629 0.54449 0.61863 0.0
C681 C 0.4309 0.55526 0.62987 0.0
C682 C 0.40335 0.53283 0.63936 0.0
C683 C 0.41459 0.54949 0.64019 0.0
C684 C 0.40894 0.52214 0.62854 0.0
C685 C 0.42521 0.52792 0.61829 0.0
U686 U 0.4809 0.57745 0.60307 0.0
O687 O 0.50258 0.57645 0.62297 0.0
O688 O 0.49801 0.58012 0.53988 0.0
C689 C 0.50715 0.57769 0.57286 0.0
C690 C 0.45328 0.55016 0.60613 0.0
C691 C 0.5127 0.56669 0.55414 0.0
C692 C 0.51506 0.54273 0.5636 0.0
C693 C 0.50855 0.55217 0.58038 0.0
C694 C 0.52969 0.56198 0.49364 0.0
C695 C 0.52581 0.54757 0.52015 0.0
C696 C 0.52324 0.5714 0.51047 0.0
C697 C 0.49404 0.62225 0.63133 0.0
C698 C 0.51602 0.64556 0.67565 0.0
C699 C 0.50227 0.6495 0.60183 0.0
C700 C 0.49233 0.63281 0.59694 0.0
C701 C 0.51415 0.65614 0.64159 0.0
C702 C 0.50609 0.62882 0.67061 0.0
C703 C 0.48228 0.60468 0.62829 0.0
O704 O 0.45901 0.55901 0.56291 0.0
O705 O 0.46333 0.55564 0.64647 0.0
O706 O 0.48356 0.59526 0.66351 0.0
O707 O 0.47865 0.59834 0.58026 0.0
H708 H 0.43927 0.56811 0.6302 0.0
H709 H 0.41074 0.5581 0.6478 0.0
H710 H 0.40075 0.50926 0.62839 0.0
H711 H 0.42913 0.5194 0.60985 0.0
H712 H 0.51166 0.53163 0.58464 0.0
H713 H 0.50043 0.54821 0.61418 0.0
H714 H 0.53811 0.56628 0.46066 0.0
H715 H 0.52675 0.5826 0.48987 0.0
H716 H 0.52513 0.65021 0.70639 0.0
H717 H 0.50026 0.65722 0.57544 0.0
H718 H 0.48301 0.62815 0.56686 0.0
H719 H 0.50771 0.62107 0.69807 0.0
C720 C 0.1992 0.03025 0.0432 0.0
C721 C 0.20752 0.04057 0.00027 0.0
H722 H 0.18423 1.00598 0.07012 0.0
C723 C 0.20767 0.03365 0.95095 0.0
H724 H 0.19861 0.03511 0.08155 0.0
C725 C 0.19943 1.01689 0.94438 0.0
C726 C 0.19077 1.00657 0.98693 0.0
H727 H 0.21417 0.04119 0.91723 0.0
H728 H 0.19983 1.01204 0.90581 0.0
C729 C 0.19093 1.01349 0.03661 0.0
C730 C 1.02371 0.19086 0.95112 0.0
C731 C 1.01852 0.18075 0.99618 0.0
H732 H 0.04358 0.2085 0.90536 0.0
C733 C 1.03021 0.18118 0.03078 0.0
H734 H 1.0151 0.19066 0.92303 0.0
C735 C 0.0466 0.19146 0.02065 0.0
C736 C 0.05179 0.20159 0.97561 0.0
H737 H 1.02668 0.17373 0.06624 0.0
H738 H 0.05521 0.19166 0.04873 0.0
C739 C 0.04009 0.20111 0.94095 0.0
C740 C 0.86533 0.8449 0.96633 0.0
C741 C 0.87359 0.84549 0.0133 0.0
H742 H 0.85305 0.85452 0.92229 0.0
C743 C 0.87536 0.85656 0.05318 0.0
H744 H 0.8639 0.83669 0.93443 0.0
C745 C 0.86907 0.86675 0.04629 0.0
C746 C 0.86086 0.86622 -0.00075 0.0
H747 H 0.88137 0.85717 0.09029 0.0
H748 H 0.87047 0.87492 0.07831 0.0
C749 C 0.85906 0.85512 0.95939 0.0
C750 C 0.87452 0.03132 0.00516 0.0
C751 C 0.86627 0.03987 0.0086 0.0
H752 H 0.87304 1.00862 0.99014 0.0
C753 C 0.84967 0.03154 0.99862 0.0
H754 H 0.88729 0.03731 0.0129 0.0
C755 C 0.84151 1.01516 0.98593 0.0
C756 C 0.8497 1.00654 0.98269 0.0
H757 H 0.84292 0.03774 0.00016 0.0
H758 H 0.82869 1.00918 0.97927 0.0
C759 C 0.86632 1.01483 0.99262 0.0
C760 C 0.04104 0.85364 0.92973 0.0
C761 C 0.05196 0.85962 0.97247 0.0
H762 H 1.01662 0.84306 0.90423 0.0
C763 C 0.04599 0.85943 0.02393 0.0
H764 H 0.04518 0.85373 0.88948 0.0
C765 C 1.02954 0.85336 0.03239 0.0
C766 C 1.01865 0.84743 0.98954 0.0
H767 H 0.05401 0.8638 0.05786 0.0
H768 H 1.0254 0.85353 0.07244 0.0
C769 C 1.02464 0.84765 0.93813 0.0
C770 C 0.20962 0.18761 0.9679 0.0
C771 C 0.21483 0.18694 0.01977 0.0
H772 H 0.19551 0.19396 0.91864 0.0
C773 C 0.20946 0.19251 0.06247 0.0
H774 H 0.21363 0.18358 0.93399 0.0
C775 C 0.19917 0.19856 0.05363 0.0
C776 C 0.19397 0.19927 0.00181 0.0
H777 H 0.21307 0.19205 0.10301 0.0
H778 H 0.19539 0.20283 0.08753 0.0
C779 C 0.19938 0.19376 0.95901 0.0
C780 C 0.86079 0.34759 0.36361 0.0
C781 C 0.85744 0.34069 0.3123 0.0
H782 H 0.87092 0.3692 0.41023 0.0
C783 C 0.86303 0.35104 0.26783 0.0
H784 H 0.85652 0.34003 0.3988 0.0
C785 C 0.87131 0.36778 0.27439 0.0
C786 C 0.87423 0.37469 0.32562 0.0
H787 H 0.86097 0.3462 0.22774 0.0
H788 H 0.87537 0.37533 0.23914 0.0
C789 C 0.86907 0.36436 0.37018 0.0
C790 C 0.69277 0.51218 0.28639 0.0
C791 C 0.68476 0.51372 0.33104 0.0
H792 H 0.71494 0.52109 0.24397 0.0
C793 C 0.69378 0.52595 0.36827 0.0
H794 H 0.68621 0.50312 0.25632 0.0
C795 C 0.71032 0.53629 0.36112 0.0
C796 C 0.71832 0.53471 0.31654 0.0
H797 H 0.68812 0.52737 0.40356 0.0
H798 H 0.71689 0.54541 0.39102 0.0
C799 C 0.70929 0.5225 0.27929 0.0
C800 C 0.53196 0.17868 0.29782 0.0
C801 C 0.54051 0.1795 0.34432 0.0
H802 H 0.5194 0.18808 0.2542 0.0
C803 C 0.5425 0.19076 0.38382 0.0
H804 H 0.53035 0.17031 0.26623 0.0
C805 C 0.53616 0.20091 0.37701 0.0
C806 C 0.52768 0.20015 0.33042 0.0
H807 H 0.54873 0.19154 0.42059 0.0
H808 H 0.53774 0.20922 0.40875 0.0
C809 C 0.52564 0.18886 0.29096 0.0
C810 C 0.54088 0.36499 0.33673 0.0
C811 C 0.53253 0.37333 0.34419 0.0
H812 H 0.53942 0.34248 0.31832 0.0
C813 C 0.51574 0.36478 0.33828 0.0
H814 H 0.55379 0.37115 0.3413 0.0
C815 C 0.50753 0.3484 0.32547 0.0
C816 C 0.51582 0.34002 0.31805 0.0
H817 H 0.5089 0.3708 0.34298 0.0
H818 H 0.49459 0.34226 0.32191 0.0
C819 C 0.53262 0.34852 0.32406 0.0
C820 C 0.69644 0.18734 0.36282 0.0
C821 C 0.68557 0.18116 0.31995 0.0
H822 H 0.7209 0.198 0.38858 0.0
C823 C 0.6916 0.18114 0.26881 0.0
H824 H 0.69226 0.1877 0.40265 0.0
C825 C 0.70801 0.18714 0.2607 0.0
C826 C 0.7189 0.19338 0.30345 0.0
H827 H 0.6836 0.17635 0.23492 0.0
H828 H 0.71218 0.18704 0.22064 0.0
C829 C 0.7129 0.19343 0.35464 0.0
C830 C 0.87646 0.5212 0.30414 0.0
C831 C 0.88241 0.52115 0.35533 0.0
H832 H 0.86174 0.52709 0.2562 0.0
C833 C 0.87779 0.52739 0.39816 0.0
H834 H 0.87987 0.51664 0.27012 0.0
C835 C 0.86751 0.53349 0.39012 0.0
C836 C 0.86154 0.53356 0.33899 0.0
H837 H 0.88199 0.52742 0.43822 0.0
H838 H 0.86432 0.53827 0.42408 0.0
C839 C 0.86621 0.52738 0.29604 0.0
C840 C 0.5359 0.69777 0.70588 0.0
C841 C 0.54096 0.70803 0.66115 0.0
H842 H 0.52339 0.67349 0.73496 0.0
C843 C 0.53789 0.70103 0.61002 0.0
H844 H 0.53786 0.70268 0.74586 0.0
C845 C 0.52957 0.68427 0.60377 0.0
C846 C 0.52408 0.674 0.64844 0.0
H847 H 0.54186 0.70851 0.57463 0.0
H848 H 0.52738 0.67936 0.56376 0.0
C849 C 0.52758 0.68099 0.69962 0.0
C850 C 0.37732 0.85678 0.61018 0.0
C851 C 0.38619 0.86931 0.64659 0.0
H852 H 0.35436 0.83709 0.58776 0.0
C853 C 0.37804 0.87117 0.69018 0.0
H854 H 0.38309 0.85515 0.57561 0.0
C855 C 0.36151 0.86078 0.69722 0.0
C856 C 0.35264 0.84822 0.66086 0.0
H857 H 0.38449 0.88054 0.71945 0.0
H858 H 0.35573 0.86241 0.73178 0.0
C859 C 0.3608 0.84641 0.61716 0.0
C860 C 0.19178 0.52108 0.62576 0.0
C861 C 0.19412 0.53254 0.66496 0.0
H862 H 0.19626 0.50239 0.60086 0.0
C863 C 0.20292 0.53347 0.7109 0.0
H864 H 0.18528 0.52015 0.5895 0.0
C865 C 0.20927 0.52332 0.71734 0.0
C866 C 0.20698 0.51189 0.6781 0.0
H867 H 0.20474 0.54192 0.74244 0.0
H868 H 0.21575 0.52424 0.75365 0.0
C869 C 0.19812 0.5109 0.63224 0.0
C870 C 0.17964 0.67869 0.70649 0.0
C871 C 0.18339 0.67177 0.66342 0.0
H872 H 0.18491 0.70016 0.74851 0.0
C873 C 0.19649 0.68192 0.63055 0.0
H874 H 0.16978 0.67126 0.73311 0.0
C875 C 0.20534 0.69858 0.63978 0.0
C876 C 0.20137 0.70552 0.68229 0.0
H877 H 0.19967 0.67706 0.5968 0.0
H878 H 0.21528 0.70602 0.61349 0.0
C879 C 0.18848 0.6953 0.71575 0.0
C880 C 0.3808 0.53359 0.68814 0.0
C881 C 0.38588 0.52658 0.64919 0.0
H882 H 0.361 0.53332 0.7279 0.0
C883 C 0.3741 0.51349 0.61967 0.0
H884 H 0.38948 0.54351 0.71228 0.0
C885 C 0.35773 0.50761 0.6287 0.0
C886 C 0.35265 0.51467 0.66746 0.0
H887 H 0.3775 0.50793 0.58873 0.0
H888 H 0.34906 0.49774 0.60439 0.0
C889 C 0.36443 0.52772 0.69716 0.0
C890 C 0.5344 0.86685 0.72228 0.0
C891 C 0.52871 0.86713 0.67086 0.0
H892 H 0.54862 0.86059 0.77095 0.0
C893 C 0.5336 0.86113 0.62802 0.0
H894 H 0.53104 0.8715 0.75617 0.0
C895 C 0.5438 0.85491 0.63649 0.0
C896 C 0.54948 0.85465 0.68797 0.0
H897 H 0.52934 0.861 0.58797 0.0
H898 H 0.54739 0.85048 0.60256 0.0
C899 C 0.54464 0.86072 0.73069 0.0
C900 C 0.35571 0.17707 0.2119 0.0
C901 C 0.35165 0.1758 0.15748 0.0
H902 H 0.3744 0.18551 0.27028 0.0
C903 C 0.36416 0.183 0.11978 0.0
H904 H 0.34644 0.17198 0.2422 0.0
C905 C 0.38026 0.19081 0.13597 0.0
C906 C 0.3843 0.19162 0.1903 0.0
H907 H 0.36153 0.18213 0.07752 0.0
H908 H 0.38955 0.19573 0.10569 0.0
C909 C 0.37178 0.18485 0.22805 0.0
C910 C 0.87196 0.19733 0.20589 0.0
C911 C 0.86684 0.20457 0.16792 0.0
H912 H 0.88435 0.18446 0.22048 0.0
C913 C 0.86965 0.20316 0.11358 0.0
H914 H 0.87018 0.1983 0.2481 0.0
C915 C 0.87779 0.19524 0.09775 0.0
C916 C 0.88337 0.18845 0.13575 0.0
H917 H 0.86561 0.20826 0.08309 0.0
H918 H 0.87977 0.19449 0.05556 0.0
C919 C 0.8801 0.18938 0.19002 0.0
C920 C 0.87296 0.68622 0.21263 0.0
C921 C 0.86529 0.67356 0.17564 0.0
H922 H 0.88723 0.71168 0.22513 0.0
C923 C 0.8655 0.67748 0.12142 0.0
H924 H 0.87325 0.68369 0.2546 0.0
C925 C 0.87353 0.69356 0.10449 0.0
C926 C 0.88159 0.70621 0.14126 0.0
H927 H 0.85948 0.6681 0.09187 0.0
H928 H 0.87344 0.69608 0.06241 0.0
C929 C 0.881 0.70231 0.19568 0.0
C930 C 0.20383 0.34494 0.79387 0.0
C931 C 0.19947 0.34078 0.84766 0.0
H932 H 0.21551 0.36383 0.73617 0.0
C933 C 0.20298 0.35322 0.88432 0.0
H934 H 0.20153 0.33574 0.76459 0.0
C935 C 0.21101 0.36935 0.86799 0.0
C936 C 0.21578 0.37355 0.81451 0.0
H937 H 0.19955 0.35049 0.92585 0.0
H938 H 0.21352 0.37856 0.89745 0.0
C939 C 0.21187 0.36109 0.77753 0.0
C940 C 0.70522 0.85043 0.89463 0.0
C941 C 0.7178 0.85786 0.85732 0.0
H942 H 0.67985 0.83703 0.90813 0.0
C943 C 0.71386 0.85769 0.80317 0.0
H944 H 0.70776 0.85058 0.93678 0.0
C945 C 0.69778 0.84988 0.78666 0.0
C946 C 0.68521 0.84202 0.82385 0.0
H947 H 0.7232 0.86313 0.7732 0.0
H948 H 0.69523 0.84952 0.74446 0.0
C949 C 0.68918 0.84264 0.87816 0.0
C950 C 0.21018 0.86063 0.76399 0.0
C951 C 0.21641 0.8544 0.80171 0.0
H952 H 0.19744 0.87313 0.74998 0.0
C953 C 0.21376 0.8558 0.85622 0.0
H954 H 0.21168 0.8595 0.72167 0.0
C955 C 0.20556 0.86366 0.87253 0.0
C956 C 0.19978 0.87033 0.83479 0.0
H957 H 0.21852 0.85132 0.88646 0.0
H958 H 0.20427 0.86501 0.91485 0.0
C959 C 0.20199 0.86846 0.78027 0.0
C960 C 0.0469 0.52368 0.46861 0.0
C961 C 0.05081 0.52406 0.5229 0.0
H962 H 1.02831 0.51539 0.40974 0.0
C963 C 0.0382 0.51691 0.56024 0.0
H964 H 0.05626 0.5289 0.43863 0.0
C965 C 1.02217 0.50918 0.54368 0.0
C966 C 1.01823 0.50835 0.48926 0.0
H967 H 0.04072 0.51723 0.60246 0.0
H968 H 1.01283 0.50379 0.57367 0.0
C969 C 1.03083 0.51593 0.45202 0.0
C970 C 0.54418 0.52855 0.43288 0.0
C971 C 0.55 0.52199 0.47085 0.0
H972 H 0.53175 0.54134 0.41833 0.0
C973 C 0.54695 0.5231 0.52519 0.0
H974 H 0.546 0.52766 0.39065 0.0
C975 C 0.53876 0.531 0.54116 0.0
C976 C 0.53339 0.538 0.5032 0.0
H977 H 0.55139 0.51835 0.55562 0.0
H978 H 0.53715 0.53211 0.5834 0.0
C979 C 0.53599 0.53642 0.44881 0.0
C980 C 0.54438 0.02865 0.447 0.0
C981 C 0.54947 0.04129 0.48411 0.0
H982 H 0.53324 1.0032 0.43436 0.0
C983 C 0.546 0.03733 0.53846 0.0
H984 H 0.547 0.0312 0.40492 0.0
C985 C 0.53811 1.02125 0.55536 0.0
C986 C 0.53343 1.00863 0.51845 0.0
H987 H 0.54945 0.04669 0.56813 0.0
H988 H 0.53571 1.01872 0.59755 0.0
C989 C 0.53647 1.01255 0.46392 0.0
loop_
_geom_bond_atom_site_label_1
_geom_bond_atom_site_label_2
_geom_bond_distance
_geom_bond_site_symmetry_2
_ccdc_geom_bond_type
C0 C1 1.264 . S
C0 C5 1.479 1_556 S
C0 C10 1.465 . S
C1 C0 1.264 . S
C1 C3 1.339 . S
C1 H28 0.931 . S
C2 C3 1.395 . S
C2 C4 1.320 1_556 S
C3 C1 1.339 . S
C3 C2 1.395 . S
C3 H29 0.929 . S
C4 C2 1.320 1_554 S
C4 C5 1.405 . S
C4 H30 0.930 . S
C5 C0 1.479 1_554 S
C5 C4 1.405 . S
C5 H31 0.931 . S
U6 O7 2.454 . S
U6 O8 2.458 . S
U6 C9 2.984 . S
U6 C10 2.847 1_554 S
U6 C23 2.882 1_554 S
U6 O24 2.441 . S
U6 O25 2.420 1_554 S
U6 O26 2.455 1_554 S
U6 O27 2.449 1_554 S
O7 U6 2.454 . S
O7 C9 1.353 . S
O8 U6 2.458 . S
O8 C9 1.286 . S
C9 U6 2.984 . S
C9 O7 1.353 . S
C9 O8 1.286 . S
C9 C11 1.363 . S
C10 C0 1.465 . S
C10 U6 2.847 1_556 S
C10 O24 1.249 1_556 S
C10 O25 1.202 . S
C11 C9 1.363 . S
C11 C13 1.408 . S
C11 C16 1.342 . S
C12 C13 1.310 . S
C12 C15 1.461 . S
C12 H32 0.932 . S
C13 C11 1.408 . S
C13 C12 1.310 . S
C13 H33 0.930 . S
C14 C15 1.474 . S
C14 C16 1.285 . S
C14 H34 0.929 . S
C15 C12 1.461 . S
C15 C14 1.474 . S
C16 C11 1.342 . S
C16 C14 1.285 . S
C16 H35 0.930 . S
C17 C20 1.424 . S
C17 C22 1.245 . S
C17 C23 1.428 . S
C18 C21 1.260 . S
C18 C22 1.477 . S
C18 H36 0.932 . S
C19 C20 1.384 . S
C19 C21 1.479 . S
C19 H37 0.929 . S
C20 C17 1.424 . S
C20 C19 1.384 . S
C20 H38 0.928 . S
C21 C18 1.260 . S
C21 C19 1.479 . S
C22 C17 1.245 . S
C22 C18 1.477 . S
C22 H39 0.932 1_556 S
C23 U6 2.882 1_556 S
C23 C17 1.428 . S
C23 O26 1.301 . S
C23 O27 1.282 . S
O24 U6 2.441 . S
O24 C10 1.249 1_554 S
O25 U6 2.420 1_556 S
O25 C10 1.202 . S
O26 U6 2.455 1_556 S
O26 C23 1.301 . S
O27 U6 2.449 1_556 S
O27 C23 1.282 . S
H28 C1 0.931 . S
H29 C3 0.929 . S
H30 C4 0.930 . S
H31 C5 0.931 . S
H32 C12 0.932 . S
H33 C13 0.930 . S
H34 C14 0.929 . S
H35 C16 0.930 . S
H36 C18 0.932 . S
H37 C19 0.929 . S
H38 C20 0.928 . S
H39 C22 0.932 1_554 S
C40 C41 1.264 . S
C40 C45 1.479 . S
C40 C50 1.465 . S
C41 C40 1.264 . S
C41 C43 1.339 . S
C41 H68 0.931 . S
C42 C43 1.395 . S
C42 C44 1.320 . S
C43 C41 1.339 . S
C43 C42 1.395 . S
C43 H69 0.929 . S
C44 C42 1.320 . S
C44 C45 1.405 . S
C44 H70 0.930 . S
C45 C40 1.479 . S
C45 C44 1.405 . S
C45 H71 0.931 . S
U46 O47 2.454 . S
U46 O48 2.458 . S
U46 C49 2.984 . S
U46 C50 2.847 . S
U46 C63 2.882 . S
U46 O64 2.441 . S
U46 O65 2.420 . S
U46 O66 2.455 . S
U46 O67 2.449 . S
O47 U46 2.454 . S
O47 C49 1.353 . S
O48 U46 2.458 . S
O48 C49 1.286 . S
C49 U46 2.984 . S
C49 O47 1.353 . S
C49 O48 1.286 . S
C49 C51 1.363 . S
C50 C40 1.465 . S
C50 U46 2.847 . S
C50 O64 1.249 . S
C50 O65 1.202 . S
C51 C49 1.363 . S
C51 C53 1.408 . S
C51 C56 1.342 . S
C52 C53 1.310 . S
C52 C55 1.461 . S
C52 H72 0.932 . S
C53 C51 1.408 . S
C53 C52 1.310 . S
C53 H73 0.930 . S
C54 C55 1.474 . S
C54 C56 1.285 . S
C54 H74 0.929 . S
C55 C52 1.461 . S
C55 C54 1.474 . S
C56 C51 1.342 . S
C56 C54 1.285 . S
C56 H75 0.930 . S
C57 C60 1.424 . S
C57 C62 1.245 . S
C57 C63 1.428 . S
C58 C61 1.260 . S
C58 C62 1.477 . S
C58 H76 0.932 . S
C59 C60 1.384 . S
C59 C61 1.479 . S
C59 H77 0.929 . S
C60 C57 1.424 . S
C60 C59 1.384 . S
C60 H78 0.928 . S
C61 C58 1.260 . S
C61 C59 1.479 . S
C62 C57 1.245 . S
C62 C58 1.477 . S
C62 H79 0.932 . S
C63 U46 2.882 . S
C63 C57 1.428 . S
C63 O66 1.301 . S
C63 O67 1.282 . S
O64 U46 2.441 . S
O64 C50 1.249 . S
O65 U46 2.420 . S
O65 C50 1.202 . S
O66 U46 2.455 . S
O66 C63 1.301 . S
O67 U46 2.449 . S
O67 C63 1.282 . S
H68 C41 0.931 . S
H69 C43 0.929 . S
H70 C44 0.930 . S
H71 C45 0.931 . S
H72 C52 0.932 . S
H73 C53 0.930 . S
H74 C54 0.929 . S
H75 C56 0.930 . S
H76 C58 0.932 . S
H77 C59 0.929 . S
H78 C60 0.928 . S
H79 C62 0.932 . S
C80 C81 1.264 . S
C80 C85 1.479 . S
C80 C90 1.465 . S
C81 C80 1.264 . S
C81 C83 1.339 1_554 S
C81 H108 0.931 . S
C82 C83 1.395 . S
C82 C84 1.320 1_556 S
C83 C81 1.339 1_556 S
C83 C82 1.395 . S
C83 H109 0.929 . S
C84 C82 1.320 1_554 S
C84 C85 1.405 . S
C84 H110 0.930 . S
C85 C80 1.479 . S
C85 C84 1.405 . S
C85 H111 0.931 . S
U86 O87 2.454 . S
U86 O88 2.458 . S
U86 C89 2.984 . S
U86 C90 2.847 . S
U86 C103 2.882 . S
U86 O104 2.441 . S
U86 O105 2.420 . S
U86 O106 2.455 . S
U86 O107 2.449 . S
O87 U86 2.454 . S
O87 C89 1.353 . S
O88 U86 2.458 . S
O88 C89 1.286 . S
C89 U86 2.984 . S
C89 O87 1.353 . S
C89 O88 1.286 . S
C89 C91 1.363 . S
C90 C80 1.465 . S
C90 U86 2.847 . S
C90 O104 1.249 . S
C90 O105 1.202 . S
C91 C89 1.363 . S
C91 C93 1.408 . S
C91 C96 1.342 . S
C92 C93 1.310 . S
C92 C95 1.461 . S
C92 H112 0.932 . S
C93 C91 1.408 . S
C93 C92 1.310 . S
C93 H113 0.930 . S
C94 C95 1.474 . S
C94 C96 1.285 . S
C94 H114 0.929 . S
C95 C92 1.461 . S
C95 C94 1.474 . S
C96 C91 1.342 . S
C96 C94 1.285 . S
C96 H115 0.930 . S
C97 C100 1.424 . S
C97 C102 1.245 . S
C97 C103 1.428 . S
C98 C101 1.260 1_554 S
C98 C102 1.477 . S
C98 H116 0.932 . S
C99 C100 1.384 1_556 S
C99 C101 1.479 . S
C99 H117 0.929 . S
C100 C97 1.424 . S
C100 C99 1.384 1_554 S
C100 H118 0.923 1_554 S
C101 C98 1.260 1_556 S
C101 C99 1.479 . S
C102 C97 1.245 . S
C102 C98 1.477 . S
C102 H119 0.932 . S
C103 U86 2.882 . S
C103 C97 1.428 . S
C103 O106 1.301 . S
C103 O107 1.282 . S
O104 U86 2.441 . S
O104 C90 1.249 . S
O105 U86 2.420 . S
O105 C90 1.202 . S
O106 U86 2.455 . S
O106 C103 1.301 . S
O107 U86 2.449 . S
O107 C103 1.282 . S
H108 C81 0.931 . S
H109 C83 0.929 . S
H110 C84 0.930 . S
H111 C85 0.931 . S
H112 C92 0.932 . S
H113 C93 0.930 . S
H114 C94 0.929 . S
H115 C96 0.930 . S
H116 C98 0.932 . S
H117 C99 0.929 . S
H118 C100 0.923 1_556 S
H119 C102 0.932 . S
C120 C121 1.264 . S
C120 C125 1.479 . S
C120 C130 1.465 . S
C121 C120 1.264 . S
C121 C123 1.339 1_556 S
C121 H148 0.931 . S
C122 C123 1.395 . S
C122 C124 1.320 1_554 S
C123 C121 1.339 1_554 S
C123 C122 1.395 . S
C123 H149 0.929 . S
C124 C122 1.320 1_556 S
C124 C125 1.405 . S
C124 H150 0.930 1_556 S
C125 C120 1.479 . S
C125 C124 1.405 . S
C125 H151 0.931 . S
U126 O127 2.454 . S
U126 O128 2.458 . S
U126 C129 2.984 . S
U126 C130 2.847 . S
U126 C143 2.882 . S
U126 O144 2.441 . S
U126 O145 2.420 . S
U126 O146 2.455 . S
U126 O147 2.449 . S
O127 U126 2.454 . S
O127 C129 1.353 . S
O128 U126 2.458 . S
O128 C129 1.286 . S
C129 U126 2.984 . S
C129 O127 1.353 . S
C129 O128 1.286 . S
C129 C131 1.363 . S
C130 C120 1.465 . S
C130 U126 2.847 . S
C130 O144 1.249 . S
C130 O145 1.202 . S
C131 C129 1.363 . S
C131 C133 1.408 . S
C131 C136 1.342 . S
C132 C133 1.310 . S
C132 C135 1.461 . S
C132 H152 0.932 . S
C133 C131 1.408 . S
C133 C132 1.310 . S
C133 H153 0.930 . S
C134 C135 1.474 . S
C134 C136 1.285 . S
C134 H154 0.929 . S
C135 C132 1.461 . S
C135 C134 1.474 . S
C136 C131 1.342 . S
C136 C134 1.285 . S
C136 H155 0.930 . S
C137 C140 1.424 . S
C137 C142 1.245 . S
C137 C143 1.428 . S
C138 C141 1.260 . S
C138 C142 1.477 . S
C138 H156 0.932 . S
C139 C140 1.384 . S
C139 C141 1.479 . S
C139 H157 0.929 1_556 S
C140 C137 1.424 . S
C140 C139 1.384 . S
C140 H158 0.928 . S
C141 C138 1.260 . S
C141 C139 1.479 . S
C142 C137 1.245 . S
C142 C138 1.477 . S
C142 H159 0.932 . S
C143 U126 2.882 . S
C143 C137 1.428 . S
C143 O146 1.301 . S
C143 O147 1.282 . S
O144 U126 2.441 . S
O144 C130 1.249 . S
O145 U126 2.420 . S
O145 C130 1.202 . S
O146 U126 2.455 . S
O146 C143 1.301 . S
O147 U126 2.449 . S
O147 C143 1.282 . S
H148 C121 0.931 . S
H149 C123 0.929 . S
H150 C124 0.930 1_554 S
H151 C125 0.931 . S
H152 C132 0.932 . S
H153 C133 0.930 . S
H154 C134 0.929 . S
H155 C136 0.930 . S
H156 C138 0.932 . S
H157 C139 0.929 1_554 S
H158 C140 0.928 . S
H159 C142 0.932 . S
C160 C161 1.264 . S
C160 C165 1.479 . S
C160 C170 1.465 . S
C161 C160 1.264 . S
C161 C163 1.339 1_556 S
C161 H188 0.931 1_556 S
C162 C163 1.395 1_556 S
C162 C164 1.320 . S
C163 C161 1.339 1_554 S
C163 C162 1.395 1_554 S
C163 H189 0.929 . S
C164 C162 1.320 . S
C164 C165 1.405 . S
C164 H190 0.930 . S
C165 C160 1.479 . S
C165 C164 1.405 . S
C165 H191 0.931 . S
U166 O167 2.454 . S
U166 O168 2.458 . S
U166 C169 2.984 . S
U166 C170 2.847 . S
U166 C183 2.882 . S
U166 O184 2.441 . S
U166 O185 2.420 . S
U166 O186 2.455 . S
U166 O187 2.449 . S
O167 U166 2.454 . S
O167 C169 1.353 . S
O168 U166 2.458 . S
O168 C169 1.286 . S
C169 U166 2.984 . S
C169 O167 1.353 . S
C169 O168 1.286 . S
C169 C171 1.363 . S
C170 C160 1.465 . S
C170 U166 2.847 . S
C170 O184 1.249 . S
C170 O185 1.202 . S
C171 C169 1.363 . S
C171 C173 1.408 . S
C171 C176 1.342 . S
C172 C173 1.310 . S
C172 C175 1.461 . S
C172 H192 0.932 . S
C173 C171 1.408 . S
C173 C172 1.310 . S
C173 H193 0.930 . S
C174 C175 1.474 . S
C174 C176 1.285 . S
C174 H194 0.929 . S
C175 C172 1.461 . S
C175 C174 1.474 . S
C176 C171 1.342 . S
C176 C174 1.285 . S
C176 H195 0.930 . S
C177 C180 1.424 . S
C177 C182 1.245 . S
C177 C183 1.428 . S
C178 C181 1.260 . S
C178 C182 1.477 . S
C178 H196 0.932 . S
C179 C180 1.384 . S
C179 C181 1.479 . S
C179 H197 0.929 . S
C180 C177 1.424 . S
C180 C179 1.384 . S
C180 H198 0.928 . S
C181 C178 1.260 . S
C181 C179 1.479 . S
C182 C177 1.245 . S
C182 C178 1.477 . S
C182 H199 0.932 . S
C183 U166 2.882 . S
C183 C177 1.428 . S
C183 O186 1.301 . S
C183 O187 1.282 . S
O184 U166 2.441 . S
O184 C170 1.249 . S
O185 U166 2.420 . S
O185 C170 1.202 . S
O186 U166 2.455 . S
O186 C183 1.301 . S
O187 U166 2.449 . S
O187 C183 1.282 . S
H188 C161 0.931 1_554 S
H189 C163 0.929 . S
H190 C164 0.930 . S
H191 C165 0.931 . S
H192 C172 0.932 . S
H193 C173 0.930 . S
H194 C174 0.929 . S
H195 C176 0.930 . S
H196 C178 0.932 . S
H197 C179 0.929 . S
H198 C180 0.928 . S
H199 C182 0.932 . S
C200 C201 1.260 1_556 S
C200 C205 1.479 . S
C200 C210 1.465 . S
C201 C200 1.260 1_554 S
C201 C203 1.338 1_554 S
C201 H228 0.936 . S
C202 C203 1.399 . S
C202 C204 1.320 . S
C203 C201 1.338 1_556 S
C203 C202 1.399 . S
C203 H229 0.925 1_556 S
C204 C202 1.320 . S
C204 C205 1.405 . S
C204 H230 0.930 . S
C205 C200 1.479 . S
C205 C204 1.405 . S
C205 H231 0.931 . S
U206 O207 2.454 . S
U206 O208 2.458 . S
U206 C209 2.984 . S
U206 C210 2.847 . S
U206 C223 2.882 . S
U206 O224 2.441 . S
U206 O225 2.420 1_556 S
U206 O226 2.455 . S
U206 O227 2.449 1_556 S
O207 U206 2.454 . S
O207 C209 1.353 . S
O208 U206 2.458 . S
O208 C209 1.286 . S
C209 U206 2.984 . S
C209 O207 1.353 . S
C209 O208 1.286 . S
C209 C211 1.363 . S
C210 C200 1.465 . S
C210 U206 2.847 . S
C210 O224 1.249 . S
C210 O225 1.202 1_556 S
C211 C209 1.363 . S
C211 C213 1.408 . S
C211 C216 1.342 . S
C212 C213 1.310 . S
C212 C215 1.461 . S
C212 H232 0.932 . S
C213 C211 1.408 . S
C213 C212 1.310 . S
C213 H233 0.930 . S
C214 C215 1.474 . S
C214 C216 1.285 . S
C214 H234 0.929 . S
C215 C212 1.461 . S
C215 C214 1.474 . S
C216 C211 1.342 . S
C216 C214 1.285 . S
C216 H235 0.930 . S
C217 C220 1.424 . S
C217 C222 1.245 . S
C217 C223 1.428 . S
C218 C221 1.260 . S
C218 C222 1.477 . S
C218 H236 0.932 . S
C219 C220 1.384 . S
C219 C221 1.479 . S
C219 H237 0.929 1_556 S
C220 C217 1.424 . S
C220 C219 1.384 . S
C220 H238 0.928 . S
C221 C218 1.260 . S
C221 C219 1.479 . S
C222 C217 1.245 . S
C222 C218 1.477 . S
C222 H239 0.932 . S
C223 U206 2.882 . S
C223 C217 1.428 . S
C223 O226 1.301 . S
C223 O227 1.282 1_556 S
O224 U206 2.441 . S
O224 C210 1.249 . S
O225 U206 2.420 1_554 S
O225 C210 1.202 1_554 S
O226 U206 2.455 . S
O226 C223 1.301 . S
O227 U206 2.449 1_554 S
O227 C223 1.282 1_554 S
H228 C201 0.936 . S
H229 C203 0.925 1_554 S
H230 C204 0.930 . S
H231 C205 0.931 . S
H232 C212 0.932 . S
H233 C213 0.930 . S
H234 C214 0.929 . S
H235 C216 0.930 . S
H236 C218 0.932 . S
H237 C219 0.929 1_554 S
H238 C220 0.928 . S
H239 C222 0.932 . S
C240 C241 1.264 . S
C240 C245 1.479 . S
C240 C250 1.465 . S
C241 C240 1.264 . S
C241 C243 1.339 . S
C241 H268 0.931 . S
C242 C243 1.395 . S
C242 C244 1.320 . S
C243 C241 1.339 . S
C243 C242 1.395 . S
C243 H269 0.929 . S
C244 C242 1.320 . S
C244 C245 1.405 . S
C244 H270 0.930 . S
C245 C240 1.479 . S
C245 C244 1.405 . S
C245 H271 0.931 . S
U246 O247 2.454 . S
U246 O248 2.458 . S
U246 C249 2.984 . S
U246 C250 2.847 . S
U246 C263 2.882 . S
U246 O264 2.441 . S
U246 O265 2.420 . S
U246 O266 2.455 . S
U246 O267 2.449 . S
O247 U246 2.454 . S
O247 C249 1.353 . S
O248 U246 2.458 . S
O248 C249 1.286 . S
C249 U246 2.984 . S
C249 O247 1.353 . S
C249 O248 1.286 . S
C249 C251 1.363 . S
C250 C240 1.465 . S
C250 U246 2.847 . S
C250 O264 1.249 . S
C250 O265 1.202 . S
C251 C249 1.363 . S
C251 C253 1.408 . S
C251 C256 1.342 . S
C252 C253 1.310 . S
C252 C255 1.461 . S
C252 H272 0.932 . S
C253 C251 1.408 . S
C253 C252 1.310 . S
C253 H273 0.930 . S
C254 C255 1.474 . S
C254 C256 1.285 . S
C254 H274 0.929 . S
C255 C252 1.461 . S
C255 C254 1.474 . S
C256 C251 1.342 . S
C256 C254 1.285 . S
C256 H275 0.930 . S
C257 C260 1.424 . S
C257 C262 1.245 . S
C257 C263 1.428 . S
C258 C261 1.260 . S
C258 C262 1.477 . S
C258 H276 0.932 . S
C259 C260 1.384 . S
C259 C261 1.479 . S
C259 H277 0.929 . S
C260 C257 1.424 . S
C260 C259 1.384 . S
C260 H278 0.928 . S
C261 C258 1.260 . S
C261 C259 1.479 . S
C262 C257 1.245 . S
C262 C258 1.477 . S
C262 H279 0.932 . S
C263 U246 2.882 . S
C263 C257 1.428 . S
C263 O266 1.301 . S
C263 O267 1.282 . S
O264 U246 2.441 . S
O264 C250 1.249 . S
O265 U246 2.420 . S
O265 C250 1.202 . S
O266 U246 2.455 . S
O266 C263 1.301 . S
O267 U246 2.449 . S
O267 C263 1.282 . S
H268 C241 0.931 . S
H269 C243 0.929 . S
H270 C244 0.930 . S
H271 C245 0.931 . S
H272 C252 0.932 . S
H273 C253 0.930 . S
H274 C254 0.929 . S
H275 C256 0.930 . S
H276 C258 0.932 . S
H277 C259 0.929 . S
H278 C260 0.928 . S
H279 C262 0.932 . S
C280 C281 1.264 . S
C280 C285 1.479 . S
C280 C290 1.465 . S
C281 C280 1.264 . S
C281 C283 1.339 . S
C281 H308 0.931 . S
C282 C283 1.395 . S
C282 C284 1.320 . S
C283 C281 1.339 . S
C283 C282 1.395 . S
C283 H309 0.929 . S
C284 C282 1.320 . S
C284 C285 1.405 . S
C284 H310 0.930 . S
C285 C280 1.479 . S
C285 C284 1.405 . S
C285 H311 0.931 . S
U286 O287 2.454 . S
U286 O288 2.458 . S
U286 C289 2.984 . S
U286 C290 2.847 . S
U286 C303 2.882 . S
U286 O304 2.441 . S
U286 O305 2.420 . S
U286 O306 2.455 . S
U286 O307 2.449 . S
O287 U286 2.454 . S
O287 C289 1.353 . S
O288 U286 2.458 . S
O288 C289 1.286 . S
C289 U286 2.984 . S
C289 O287 1.353 . S
C289 O288 1.286 . S
C289 C291 1.363 . S
C290 C280 1.465 . S
C290 U286 2.847 . S
C290 O304 1.249 . S
C290 O305 1.202 . S
C291 C289 1.363 . S
C291 C293 1.408 . S
C291 C296 1.342 . S
C292 C293 1.310 . S
C292 C295 1.461 . S
C292 H312 0.932 . S
C293 C291 1.408 . S
C293 C292 1.310 . S
C293 H313 0.930 . S
C294 C295 1.474 . S
C294 C296 1.285 . S
C294 H314 0.929 . S
C295 C292 1.461 . S
C295 C294 1.474 . S
C296 C291 1.342 . S
C296 C294 1.285 . S
C296 H315 0.930 . S
C297 C300 1.424 . S
C297 C302 1.245 . S
C297 C303 1.428 . S
C298 C301 1.260 . S
C298 C302 1.477 . S
C298 H316 0.932 . S
C299 C300 1.384 . S
C299 C301 1.479 . S
C299 H317 0.929 . S
C300 C297 1.424 . S
C300 C299 1.384 . S
C300 H318 0.928 . S
C301 C298 1.260 . S
C301 C299 1.479 . S
C302 C297 1.245 . S
C302 C298 1.477 . S
C302 H319 0.932 . S
C303 U286 2.882 . S
C303 C297 1.428 . S
C303 O306 1.301 . S
C303 O307 1.282 . S
O304 U286 2.441 . S
O304 C290 1.249 . S
O305 U286 2.420 . S
O305 C290 1.202 . S
O306 U286 2.455 . S
O306 C303 1.301 . S
O307 U286 2.449 . S
O307 C303 1.282 . S
H308 C281 0.931 . S
H309 C283 0.929 . S
H310 C284 0.930 . S
H311 C285 0.931 . S
H312 C292 0.932 . S
H313 C293 0.930 . S
H314 C294 0.929 . S
H315 C296 0.930 . S
H316 C298 0.932 . S
H317 C299 0.929 . S
H318 C300 0.928 . S
H319 C302 0.932 . S
C320 C321 1.264 . S
C320 C325 1.479 . S
C320 C330 1.465 . S
C321 C320 1.264 . S
C321 C323 1.339 . S
C321 H348 0.931 . S
C322 C323 1.395 . S
C322 C324 1.320 . S
C323 C321 1.339 . S
C323 C322 1.395 . S
C323 H349 0.929 . S
C324 C322 1.320 . S
C324 C325 1.405 . S
C324 H350 0.930 . S
C325 C320 1.479 . S
C325 C324 1.405 . S
C325 H351 0.931 . S
U326 O327 2.454 . S
U326 O328 2.458 . S
U326 C329 2.984 . S
U326 C330 2.847 . S
U326 C343 2.882 . S
U326 O344 2.441 . S
U326 O345 2.420 . S
U326 O346 2.455 . S
U326 O347 2.449 . S
O327 U326 2.454 . S
O327 C329 1.353 . S
O328 U326 2.458 . S
O328 C329 1.286 . S
C329 U326 2.984 . S
C329 O327 1.353 . S
C329 O328 1.286 . S
C329 C331 1.363 . S
C330 C320 1.465 . S
C330 U326 2.847 . S
C330 O344 1.249 . S
C330 O345 1.202 . S
C331 C329 1.363 . S
C331 C333 1.408 . S
C331 C336 1.342 . S
C332 C333 1.310 . S
C332 C335 1.461 . S
C332 H352 0.932 . S
C333 C331 1.408 . S
C333 C332 1.310 . S
C333 H353 0.930 . S
C334 C335 1.474 . S
C334 C336 1.285 . S
C334 H354 0.929 . S
C335 C332 1.461 . S
C335 C334 1.474 . S
C336 C331 1.342 . S
C336 C334 1.285 . S
C336 H355 0.930 . S
C337 C340 1.424 . S
C337 C342 1.245 . S
C337 C343 1.428 . S
C338 C341 1.260 . S
C338 C342 1.477 . S
C338 H356 0.932 . S
C339 C340 1.384 . S
C339 C341 1.479 . S
C339 H357 0.929 . S
C340 C337 1.424 . S
C340 C339 1.384 . S
C340 H358 0.928 . S
C341 C338 1.260 . S
C341 C339 1.479 . S
C342 C337 1.245 . S
C342 C338 1.477 . S
C342 H359 0.932 . S
C343 U326 2.882 . S
C343 C337 1.428 . S
C343 O346 1.301 . S
C343 O347 1.282 . S
O344 U326 2.441 . S
O344 C330 1.249 . S
O345 U326 2.420 . S
O345 C330 1.202 . S
O346 U326 2.455 . S
O346 C343 1.301 . S
O347 U326 2.449 . S
O347 C343 1.282 . S
H348 C321 0.931 . S
H349 C323 0.929 . S
H350 C324 0.930 . S
H351 C325 0.931 . S
H352 C332 0.932 . S
H353 C333 0.930 . S
H354 C334 0.929 . S
H355 C336 0.930 . S
H356 C338 0.932 . S
H357 C339 0.929 . S
H358 C340 0.928 . S
H359 C342 0.932 . S
C360 C361 1.264 . S
C360 C365 1.479 . S
C360 C370 1.465 . S
C361 C360 1.264 . S
C361 C363 1.339 . S
C361 H388 0.931 . S
C362 C363 1.395 . S
C362 C364 1.320 . S
C363 C361 1.339 . S
C363 C362 1.395 . S
C363 H389 0.929 . S
C364 C362 1.320 . S
C364 C365 1.405 . S
C364 H390 0.930 . S
C365 C360 1.479 . S
C365 C364 1.405 . S
C365 H391 0.931 . S
U366 O367 2.454 . S
U366 O368 2.458 . S
U366 C369 2.984 . S
U366 C370 2.847 . S
U366 C383 2.882 . S
U366 O384 2.441 . S
U366 O385 2.420 . S
U366 O386 2.455 . S
U366 O387 2.449 . S
O367 U366 2.454 . S
O367 C369 1.353 . S
O368 U366 2.458 . S
O368 C369 1.286 . S
C369 U366 2.984 . S
C369 O367 1.353 . S
C369 O368 1.286 . S
C369 C371 1.363 . S
C370 C360 1.465 . S
C370 U366 2.847 . S
C370 O384 1.249 . S
C370 O385 1.202 . S
C371 C369 1.363 . S
C371 C373 1.408 . S
C371 C376 1.342 . S
C372 C373 1.310 . S
C372 C375 1.461 . S
C372 H392 0.932 . S
C373 C371 1.408 . S
C373 C372 1.310 . S
C373 H393 0.930 . S
C374 C375 1.474 . S
C374 C376 1.285 . S
C374 H394 0.929 . S
C375 C372 1.461 . S
C375 C374 1.474 . S
C376 C371 1.342 . S
C376 C374 1.285 . S
C376 H395 0.930 . S
C377 C380 1.424 . S
C377 C382 1.245 . S
C377 C383 1.428 . S
C378 C381 1.260 . S
C378 C382 1.477 . S
C378 H396 0.932 . S
C379 C380 1.384 . S
C379 C381 1.479 . S
C379 H397 0.929 . S
C380 C377 1.424 . S
C380 C379 1.384 . S
C380 H398 0.928 . S
C381 C378 1.260 . S
C381 C379 1.479 . S
C382 C377 1.245 . S
C382 C378 1.477 . S
C382 H399 0.932 . S
C383 U366 2.882 . S
C383 C377 1.428 . S
C383 O386 1.301 . S
C383 O387 1.282 . S
O384 U366 2.441 . S
O384 C370 1.249 . S
O385 U366 2.420 . S
O385 C370 1.202 . S
O386 U366 2.455 . S
O386 C383 1.301 . S
O387 U366 2.449 . S
O387 C383 1.282 . S
H388 C361 0.931 . S
H389 C363 0.929 . S
H390 C364 0.930 . S
H391 C365 0.931 . S
H392 C372 0.932 . S
H393 C373 0.930 . S
H394 C374 0.929 . S
H395 C376 0.930 . S
H396 C378 0.932 . S
H397 C379 0.929 . S
H398 C380 0.928 . S
H399 C382 0.932 . S
C400 C401 1.264 . S
C400 C405 1.479 . S
C400 C410 1.465 . S
C401 C400 1.264 . S
C401 C403 1.339 . S
C401 H428 0.931 . S
C402 C403 1.395 . S
C402 C404 1.320 . S
C403 C401 1.339 . S
C403 C402 1.395 . S
C403 H429 0.929 . S
C404 C402 1.320 . S
C404 C405 1.405 . S
C404 H430 0.930 . S
C405 C400 1.479 . S
C405 C404 1.405 . S
C405 H431 0.931 . S
U406 O407 2.454 . S
U406 O408 2.458 . S
U406 C409 2.984 . S
U406 C410 2.847 . S
U406 C423 2.882 . S
U406 O424 2.441 . S
U406 O425 2.420 . S
U406 O426 2.455 . S
U406 O427 2.449 . S
O407 U406 2.454 . S
O407 C409 1.353 . S
O408 U406 2.458 . S
O408 C409 1.286 . S
C409 U406 2.984 . S
C409 O407 1.353 . S
C409 O408 1.286 . S
C409 C411 1.363 . S
C410 C400 1.465 . S
C410 U406 2.847 . S
C410 O424 1.249 . S
C410 O425 1.202 . S
C411 C409 1.363 . S
C411 C413 1.408 . S
C411 C416 1.342 . S
C412 C413 1.310 . S
C412 C415 1.461 . S
C412 H432 0.932 . S
C413 C411 1.408 . S
C413 C412 1.310 . S
C413 H433 0.930 . S
C414 C415 1.474 . S
C414 C416 1.285 . S
C414 H434 0.929 . S
C415 C412 1.461 . S
C415 C414 1.474 . S
C416 C411 1.342 . S
C416 C414 1.285 . S
C416 H435 0.930 . S
C417 C420 1.424 . S
C417 C422 1.245 . S
C417 C423 1.428 . S
C418 C421 1.260 . S
C418 C422 1.477 . S
C418 H436 0.932 . S
C419 C420 1.384 . S
C419 C421 1.479 . S
C419 H437 0.929 . S
C420 C417 1.424 . S
C420 C419 1.384 . S
C420 H438 0.928 . S
C421 C418 1.260 . S
C421 C419 1.479 . S
C422 C417 1.245 . S
C422 C418 1.477 . S
C422 H439 0.932 . S
C423 U406 2.882 . S
C423 C417 1.428 . S
C423 O426 1.301 . S
C423 O427 1.282 . S
O424 U406 2.441 . S
O424 C410 1.249 . S
O425 U406 2.420 . S
O425 C410 1.202 . S
O426 U406 2.455 . S
O426 C423 1.301 . S
O427 U406 2.449 . S
O427 C423 1.282 . S
H428 C401 0.931 . S
H429 C403 0.929 . S
H430 C404 0.930 . S
H431 C405 0.931 . S
H432 C412 0.932 . S
H433 C413 0.930 . S
H434 C414 0.929 . S
H435 C416 0.930 . S
H436 C418 0.932 . S
H437 C419 0.929 . S
H438 C420 0.928 . S
H439 C422 0.932 . S
C440 C441 1.264 . S
C440 C445 1.479 . S
C440 C450 1.465 . S
C441 C440 1.264 . S
C441 C443 1.339 . S
C441 H468 0.931 . S
C442 C443 1.395 . S
C442 C444 1.320 . S
C443 C441 1.339 . S
C443 C442 1.395 . S
C443 H469 0.929 . S
C444 C442 1.320 . S
C444 C445 1.405 . S
C444 H470 0.930 . S
C445 C440 1.479 . S
C445 C444 1.405 . S
C445 H471 0.931 . S
U446 O447 2.454 . S
U446 O448 2.458 . S
U446 C449 2.984 . S
U446 C450 2.847 . S
U446 C463 2.882 . S
U446 O464 2.441 . S
U446 O465 2.420 . S
U446 O466 2.455 . S
U446 O467 2.449 . S
O447 U446 2.454 . S
O447 C449 1.353 . S
O448 U446 2.458 . S
O448 C449 1.286 . S
C449 U446 2.984 . S
C449 O447 1.353 . S
C449 O448 1.286 . S
C449 C451 1.363 . S
C450 C440 1.465 . S
C450 U446 2.847 . S
C450 O464 1.249 . S
C450 O465 1.202 . S
C451 C449 1.363 . S
C451 C453 1.408 . S
C451 C456 1.342 . S
C452 C453 1.310 . S
C452 C455 1.461 . S
C452 H472 0.932 . S
C453 C451 1.408 . S
C453 C452 1.310 . S
C453 H473 0.930 . S
C454 C455 1.474 . S
C454 C456 1.285 . S
C454 H474 0.929 . S
C455 C452 1.461 . S
C455 C454 1.474 . S
C456 C451 1.342 . S
C456 C454 1.285 . S
C456 H475 0.930 . S
C457 C460 1.424 . S
C457 C462 1.245 . S
C457 C463 1.428 . S
C458 C461 1.260 . S
C458 C462 1.477 . S
C458 H476 0.932 . S
C459 C460 1.384 . S
C459 C461 1.479 . S
C459 H477 0.929 . S
C460 C457 1.424 . S
C460 C459 1.384 . S
C460 H478 0.928 . S
C461 C458 1.260 . S
C461 C459 1.479 . S
C462 C457 1.245 . S
C462 C458 1.477 . S
C462 H479 0.932 . S
C463 U446 2.882 . S
C463 C457 1.428 . S
C463 O466 1.301 . S
C463 O467 1.282 . S
O464 U446 2.441 . S
O464 C450 1.249 . S
O465 U446 2.420 . S
O465 C450 1.202 . S
O466 U446 2.455 . S
O466 C463 1.301 . S
O467 U446 2.449 . S
O467 C463 1.282 . S
H468 C441 0.931 . S
H469 C443 0.929 . S
H470 C444 0.930 . S
H471 C445 0.931 . S
H472 C452 0.932 . S
H473 C453 0.930 . S
H474 C454 0.929 . S
H475 C456 0.930 . S
H476 C458 0.932 . S
H477 C459 0.929 . S
H478 C460 0.928 . S
H479 C462 0.932 . S
C480 C481 1.264 . S
C480 C485 1.479 . S
C480 C490 1.465 . S
C481 C480 1.264 . S
C481 C483 1.339 . S
C481 H508 0.931 . S
C482 C483 1.395 . S
C482 C484 1.320 . S
C483 C481 1.339 . S
C483 C482 1.395 . S
C483 H509 0.929 . S
C484 C482 1.320 . S
C484 C485 1.405 . S
C484 H510 0.930 . S
C485 C480 1.479 . S
C485 C484 1.405 . S
C485 H511 0.931 . S
U486 O487 2.454 . S
U486 O488 2.458 . S
U486 C489 2.984 . S
U486 C490 2.847 . S
U486 C503 2.882 . S
U486 O504 2.441 . S
U486 O505 2.420 . S
U486 O506 2.455 . S
U486 O507 2.449 . S
O487 U486 2.454 . S
O487 C489 1.353 . S
O488 U486 2.458 . S
O488 C489 1.286 . S
C489 U486 2.984 . S
C489 O487 1.353 . S
C489 O488 1.286 . S
C489 C491 1.363 . S
C490 C480 1.465 . S
C490 U486 2.847 . S
C490 O504 1.249 . S
C490 O505 1.202 . S
C491 C489 1.363 . S
C491 C493 1.408 . S
C491 C496 1.342 . S
C492 C493 1.310 . S
C492 C495 1.461 . S
C492 H512 0.932 . S
C493 C491 1.408 . S
C493 C492 1.310 . S
C493 H513 0.930 . S
C494 C495 1.474 . S
C494 C496 1.285 . S
C494 H514 0.929 . S
C495 C492 1.461 . S
C495 C494 1.474 . S
C496 C491 1.342 . S
C496 C494 1.285 . S
C496 H515 0.930 . S
C497 C500 1.424 . S
C497 C502 1.245 . S
C497 C503 1.428 . S
C498 C501 1.260 . S
C498 C502 1.477 . S
C498 H516 0.932 . S
C499 C500 1.384 . S
C499 C501 1.479 . S
C499 H517 0.929 . S
C500 C497 1.424 . S
C500 C499 1.384 . S
C500 H518 0.928 . S
C501 C498 1.260 . S
C501 C499 1.479 . S
C502 C497 1.245 . S
C502 C498 1.477 . S
C502 H519 0.932 . S
C503 U486 2.882 . S
C503 C497 1.428 . S
C503 O506 1.301 . S
C503 O507 1.282 . S
O504 U486 2.441 . S
O504 C490 1.249 . S
O505 U486 2.420 . S
O505 C490 1.202 . S
O506 U486 2.455 . S
O506 C503 1.301 . S
O507 U486 2.449 . S
O507 C503 1.282 . S
H508 C481 0.931 . S
H509 C483 0.929 . S
H510 C484 0.930 . S
H511 C485 0.931 . S
H512 C492 0.932 . S
H513 C493 0.930 . S
H514 C494 0.929 . S
H515 C496 0.930 . S
H516 C498 0.932 . S
H517 C499 0.929 . S
H518 C500 0.928 . S
H519 C502 0.932 . S
C520 C521 1.264 . S
C520 C525 1.479 . S
C520 C530 1.465 . S
C521 C520 1.264 . S
C521 C523 1.339 . S
C521 H548 0.931 . S
C522 C523 1.395 . S
C522 C524 1.320 . S
C523 C521 1.339 . S
C523 C522 1.395 . S
C523 H549 0.929 . S
C524 C522 1.320 . S
C524 C525 1.405 . S
C524 H550 0.930 . S
C525 C520 1.479 . S
C525 C524 1.405 . S
C525 H551 0.931 . S
U526 O527 2.454 . S
U526 O528 2.458 . S
U526 C529 2.984 . S
U526 C530 2.847 . S
U526 C543 2.882 . S
U526 O544 2.441 . S
U526 O545 2.420 . S
U526 O546 2.455 . S
U526 O547 2.449 . S
O527 U526 2.454 . S
O527 C529 1.353 . S
O528 U526 2.458 . S
O528 C529 1.286 . S
C529 U526 2.984 . S
C529 O527 1.353 . S
C529 O528 1.286 . S
C529 C531 1.363 . S
C530 C520 1.465 . S
C530 U526 2.847 . S
C530 O544 1.249 . S
C530 O545 1.202 . S
C531 C529 1.363 . S
C531 C533 1.408 . S
C531 C536 1.342 . S
C532 C533 1.310 . S
C532 C535 1.461 . S
C532 H552 0.932 . S
C533 C531 1.408 . S
C533 C532 1.310 . S
C533 H553 0.930 . S
C534 C535 1.474 . S
C534 C536 1.285 . S
C534 H554 0.929 . S
C535 C532 1.461 . S
C535 C534 1.474 . S
C536 C531 1.342 . S
C536 C534 1.285 . S
C536 H555 0.930 . S
C537 C540 1.424 . S
C537 C542 1.245 . S
C537 C543 1.428 . S
C538 C541 1.260 . S
C538 C542 1.477 . S
C538 H556 0.932 . S
C539 C540 1.384 . S
C539 C541 1.479 . S
C539 H557 0.929 . S
C540 C537 1.424 . S
C540 C539 1.384 . S
C540 H558 0.928 . S
C541 C538 1.260 . S
C541 C539 1.479 . S
C542 C537 1.245 . S
C542 C538 1.477 . S
C542 H559 0.932 . S
C543 U526 2.882 . S
C543 C537 1.428 . S
C543 O546 1.301 . S
C543 O547 1.282 . S
O544 U526 2.441 . S
O544 C530 1.249 . S
O545 U526 2.420 . S
O545 C530 1.202 . S
O546 U526 2.455 . S
O546 C543 1.301 . S
O547 U526 2.449 . S
O547 C543 1.282 . S
H548 C521 0.931 . S
H549 C523 0.929 . S
H550 C524 0.930 . S
H551 C525 0.931 . S
H552 C532 0.932 . S
H553 C533 0.930 . S
H554 C534 0.929 . S
H555 C536 0.930 . S
H556 C538 0.932 . S
H557 C539 0.929 . S
H558 C540 0.928 . S
H559 C542 0.932 . S
C560 C561 1.264 . S
C560 C565 1.479 . S
C560 C570 1.465 . S
C561 C560 1.264 . S
C561 C563 1.339 . S
C561 H588 0.931 . S
C562 C563 1.395 . S
C562 C564 1.320 . S
C563 C561 1.339 . S
C563 C562 1.395 . S
C563 H589 0.929 . S
C564 C562 1.320 . S
C564 C565 1.405 . S
C564 H590 0.930 . S
C565 C560 1.479 . S
C565 C564 1.405 . S
C565 H591 0.931 . S
U566 O567 2.454 . S
U566 O568 2.458 . S
U566 C569 2.984 . S
U566 C570 2.847 . S
U566 C583 2.882 . S
U566 O584 2.441 . S
U566 O585 2.420 . S
U566 O586 2.455 . S
U566 O587 2.449 . S
O567 U566 2.454 . S
O567 C569 1.353 . S
O568 U566 2.458 . S
O568 C569 1.286 . S
C569 U566 2.984 . S
C569 O567 1.353 . S
C569 O568 1.286 . S
C569 C571 1.363 . S
C570 C560 1.465 . S
C570 U566 2.847 . S
C570 O584 1.249 . S
C570 O585 1.202 . S
C571 C569 1.363 . S
C571 C573 1.408 . S
C571 C576 1.342 . S
C572 C573 1.310 . S
C572 C575 1.461 . S
C572 H592 0.932 . S
C573 C571 1.408 . S
C573 C572 1.310 . S
C573 H593 0.930 . S
C574 C575 1.474 . S
C574 C576 1.285 . S
C574 H594 0.929 . S
C575 C572 1.461 . S
C575 C574 1.474 . S
C576 C571 1.342 . S
C576 C574 1.285 . S
C576 H595 0.930 . S
C577 C580 1.424 . S
C577 C582 1.245 . S
C577 C583 1.428 . S
C578 C581 1.260 . S
C578 C582 1.477 . S
C578 H596 0.932 . S
C579 C580 1.384 . S
C579 C581 1.479 . S
C579 H597 0.929 . S
C580 C577 1.424 . S
C580 C579 1.384 . S
C580 H598 0.928 . S
C581 C578 1.260 . S
C581 C579 1.479 . S
C582 C577 1.245 . S
C582 C578 1.477 . S
C582 H599 0.932 . S
C583 U566 2.882 . S
C583 C577 1.428 . S
C583 O586 1.301 . S
C583 O587 1.282 . S
O584 U566 2.441 . S
O584 C570 1.249 . S
O585 U566 2.420 . S
O585 C570 1.202 . S
O586 U566 2.455 . S
O586 C583 1.301 . S
O587 U566 2.449 . S
O587 C583 1.282 . S
H588 C561 0.931 . S
H589 C563 0.929 . S
H590 C564 0.930 . S
H591 C565 0.931 . S
H592 C572 0.932 . S
H593 C573 0.930 . S
H594 C574 0.929 . S
H595 C576 0.930 . S
H596 C578 0.932 . S
H597 C579 0.929 . S
H598 C580 0.928 . S
H599 C582 0.932 . S
C600 C601 1.264 . S
C600 C605 1.479 . S
C600 C610 1.465 . S
C601 C600 1.264 . S
C601 C603 1.339 . S
C601 H628 0.931 . S
C602 C603 1.395 . S
C602 C604 1.320 . S
C603 C601 1.339 . S
C603 C602 1.395 . S
C603 H629 0.929 . S
C604 C602 1.320 . S
C604 C605 1.405 . S
C604 H630 0.930 . S
C605 C600 1.479 . S
C605 C604 1.405 . S
C605 H631 0.931 . S
U606 O607 2.454 . S
U606 O608 2.458 . S
U606 C609 2.984 . S
U606 C610 2.847 . S
U606 C623 2.882 . S
U606 O624 2.441 . S
U606 O625 2.420 . S
U606 O626 2.455 . S
U606 O627 2.449 . S
O607 U606 2.454 . S
O607 C609 1.353 . S
O608 U606 2.458 . S
O608 C609 1.286 . S
C609 U606 2.984 . S
C609 O607 1.353 . S
C609 O608 1.286 . S
C609 C611 1.363 . S
C610 C600 1.465 . S
C610 U606 2.847 . S
C610 O624 1.249 . S
C610 O625 1.202 . S
C611 C609 1.363 . S
C611 C613 1.408 . S
C611 C616 1.342 . S
C612 C613 1.310 . S
C612 C615 1.461 . S
C612 H632 0.932 . S
C613 C611 1.408 . S
C613 C612 1.310 . S
C613 H633 0.930 . S
C614 C615 1.474 . S
C614 C616 1.285 . S
C614 H634 0.929 . S
C615 C612 1.461 . S
C615 C614 1.474 . S
C616 C611 1.342 . S
C616 C614 1.285 . S
C616 H635 0.930 . S
C617 C620 1.424 . S
C617 C622 1.245 . S
C617 C623 1.428 . S
C618 C621 1.260 . S
C618 C622 1.477 . S
C618 H636 0.932 . S
C619 C620 1.384 . S
C619 C621 1.479 . S
C619 H637 0.929 . S
C620 C617 1.424 . S
C620 C619 1.384 . S
C620 H638 0.928 . S
C621 C618 1.260 . S
C621 C619 1.479 . S
C622 C617 1.245 . S
C622 C618 1.477 . S
C622 H639 0.932 . S
C623 U606 2.882 . S
C623 C617 1.428 . S
C623 O626 1.301 . S
C623 O627 1.282 . S
O624 U606 2.441 . S
O624 C610 1.249 . S
O625 U606 2.420 . S
O625 C610 1.202 . S
O626 U606 2.455 . S
O626 C623 1.301 . S
O627 U606 2.449 . S
O627 C623 1.282 . S
H628 C601 0.931 . S
H629 C603 0.929 . S
H630 C604 0.930 . S
H631 C605 0.931 . S
H632 C612 0.932 . S
H633 C613 0.930 . S
H634 C614 0.929 . S
H635 C616 0.930 . S
H636 C618 0.932 . S
H637 C619 0.929 . S
H638 C620 0.928 . S
H639 C622 0.932 . S
C640 C641 1.264 . S
C640 C645 1.479 . S
C640 C650 1.465 . S
C641 C640 1.264 . S
C641 C643 1.339 . S
C641 H668 0.931 . S
C642 C643 1.395 . S
C642 C644 1.320 . S
C643 C641 1.339 . S
C643 C642 1.395 . S
C643 H669 0.929 . S
C644 C642 1.320 . S
C644 C645 1.405 . S
C644 H670 0.930 . S
C645 C640 1.479 . S
C645 C644 1.405 . S
C645 H671 0.931 . S
U646 O647 2.454 . S
U646 O648 2.458 . S
U646 C649 2.984 . S
U646 C650 2.847 . S
U646 C663 2.882 . S
U646 O664 2.441 . S
U646 O665 2.420 . S
U646 O666 2.455 . S
U646 O667 2.449 . S
O647 U646 2.454 . S
O647 C649 1.353 . S
O648 U646 2.458 . S
O648 C649 1.286 . S
C649 U646 2.984 . S
C649 O647 1.353 . S
C649 O648 1.286 . S
C649 C651 1.363 . S
C650 C640 1.465 . S
C650 U646 2.847 . S
C650 O664 1.249 . S
C650 O665 1.202 . S
C651 C649 1.363 . S
C651 C653 1.408 . S
C651 C656 1.342 . S
C652 C653 1.310 . S
C652 C655 1.461 . S
C652 H672 0.932 . S
C653 C651 1.408 . S
C653 C652 1.310 . S
C653 H673 0.930 . S
C654 C655 1.474 . S
C654 C656 1.285 . S
C654 H674 0.929 . S
C655 C652 1.461 . S
C655 C654 1.474 . S
C656 C651 1.342 . S
C656 C654 1.285 . S
C656 H675 0.930 . S
C657 C660 1.424 . S
C657 C662 1.245 . S
C657 C663 1.428 . S
C658 C661 1.260 . S
C658 C662 1.477 . S
C658 H676 0.932 . S
C659 C660 1.384 . S
C659 C661 1.479 . S
C659 H677 0.929 . S
C660 C657 1.424 . S
C660 C659 1.384 . S
C660 H678 0.928 . S
C661 C658 1.260 . S
C661 C659 1.479 . S
C662 C657 1.245 . S
C662 C658 1.477 . S
C662 H679 0.932 . S
C663 U646 2.882 . S
C663 C657 1.428 . S
C663 O666 1.301 . S
C663 O667 1.282 . S
O664 U646 2.441 . S
O664 C650 1.249 . S
O665 U646 2.420 . S
O665 C650 1.202 . S
O666 U646 2.455 . S
O666 C663 1.301 . S
O667 U646 2.449 . S
O667 C663 1.282 . S
H668 C641 0.931 . S
H669 C643 0.929 . S
H670 C644 0.930 . S
H671 C645 0.931 . S
H672 C652 0.932 . S
H673 C653 0.930 . S
H674 C654 0.929 . S
H675 C656 0.930 . S
H676 C658 0.932 . S
H677 C659 0.929 . S
H678 C660 0.928 . S
H679 C662 0.932 . S
C680 C681 1.264 . S
C680 C685 1.479 . S
C680 C690 1.465 . S
C681 C680 1.264 . S
C681 C683 1.339 . S
C681 H708 0.931 . S
C682 C683 1.395 . S
C682 C684 1.320 . S
C683 C681 1.339 . S
C683 C682 1.395 . S
C683 H709 0.929 . S
C684 C682 1.320 . S
C684 C685 1.405 . S
C684 H710 0.930 . S
C685 C680 1.479 . S
C685 C684 1.405 . S
C685 H711 0.931 . S
U686 O687 2.454 . S
U686 O688 2.458 . S
U686 C689 2.984 . S
U686 C690 2.847 . S
U686 C703 2.882 . S
U686 O704 2.441 . S
U686 O705 2.420 . S
U686 O706 2.455 . S
U686 O707 2.449 . S
O687 U686 2.454 . S
O687 C689 1.353 . S
O688 U686 2.458 . S
O688 C689 1.286 . S
C689 U686 2.984 . S
C689 O687 1.353 . S
C689 O688 1.286 . S
C689 C691 1.363 . S
C690 C680 1.465 . S
C690 U686 2.847 . S
C690 O704 1.249 . S
C690 O705 1.202 . S
C691 C689 1.363 . S
C691 C693 1.408 . S
C691 C696 1.342 . S
C692 C693 1.310 . S
C692 C695 1.461 . S
C692 H712 0.932 . S
C693 C691 1.408 . S
C693 C692 1.310 . S
C693 H713 0.930 . S
C694 C695 1.474 . S
C694 C696 1.285 . S
C694 H714 0.929 . S
C695 C692 1.461 . S
C695 C694 1.474 . S
C696 C691 1.342 . S
C696 C694 1.285 . S
C696 H715 0.930 . S
C697 C700 1.424 . S
C697 C702 1.245 . S
C697 C703 1.428 . S
C698 C701 1.260 . S
C698 C702 1.477 . S
C698 H716 0.932 . S
C699 C700 1.384 . S
C699 C701 1.479 . S
C699 H717 0.929 . S
C700 C697 1.424 . S
C700 C699 1.384 . S
C700 H718 0.928 . S
C701 C698 1.260 . S
C701 C699 1.479 . S
C702 C697 1.245 . S
C702 C698 1.477 . S
C702 H719 0.932 . S
C703 U686 2.882 . S
C703 C697 1.428 . S
C703 O706 1.301 . S
C703 O707 1.282 . S
O704 U686 2.441 . S
O704 C690 1.249 . S
O705 U686 2.420 . S
O705 C690 1.202 . S
O706 U686 2.455 . S
O706 C703 1.301 . S
O707 U686 2.449 . S
O707 C703 1.282 . S
H708 C681 0.931 . S
H709 C683 0.929 . S
H710 C684 0.930 . S
H711 C685 0.931 . S
H712 C692 0.932 . S
H713 C693 0.930 . S
H714 C694 0.929 . S
H715 C696 0.930 . S
H716 C698 0.932 . S
H717 C699 0.929 . S
H718 C700 0.928 . S
H719 C702 0.932 . S
C720 C721 1.387 . S
C720 H724 0.950 . S
C720 C729 1.390 1_545 S
C721 C720 1.387 . S
C721 C723 1.387 . S
H722 C729 0.950 . S
C723 C721 1.387 . S
C723 C725 1.390 1_545 S
C723 H727 0.950 1_556 S
H724 C720 0.950 . S
C725 C723 1.390 1_565 S
C725 C726 1.387 . S
C725 H728 0.950 . S
C726 C725 1.387 . S
C726 C729 1.387 . S
H727 C723 0.950 1_554 S
H728 C725 0.950 . S
C729 C720 1.390 1_565 S
C729 H722 0.950 . S
C729 C726 1.387 . S
C730 C731 1.387 . S
C730 H734 0.950 1_554 S
C730 C739 1.390 1_654 S
C731 C730 1.387 . S
C731 C733 1.387 . S
H732 C739 0.950 . S
C733 C731 1.387 . S
C733 C735 1.390 1_655 S
C733 H737 0.950 . S
H734 C730 0.950 1_556 S
C735 C733 1.390 1_455 S
C735 C736 1.387 . S
C735 H738 0.950 . S
C736 C735 1.387 . S
C736 C739 1.387 1_554 S
H737 C733 0.950 . S
H738 C735 0.950 . S
C739 C730 1.390 1_456 S
C739 H732 0.950 . S
C739 C736 1.387 1_556 S
C740 C741 1.387 . S
C740 H744 0.950 . S
C740 C749 1.390 . S
C741 C740 1.387 . S
C741 C743 1.387 1_556 S
H742 C749 0.950 . S
C743 C741 1.387 1_554 S
C743 C745 1.390 . S
C743 H747 0.950 . S
H744 C740 0.950 . S
C745 C743 1.390 . S
C745 C746 1.387 1_554 S
C745 H748 0.950 . S
C746 C745 1.387 1_556 S
C746 C749 1.387 . S
H747 C743 0.950 . S
H748 C745 0.950 . S
C749 C740 1.390 . S
C749 H742 0.950 . S
C749 C746 1.387 . S
C750 C751 1.387 . S
C750 H754 0.950 . S
C750 C759 1.390 1_545 S
C751 C750 1.387 . S
C751 C753 1.387 . S
H752 C759 0.950 . S
C753 C751 1.387 . S
C753 C755 1.390 1_544 S
C753 H757 0.950 . S
H754 C750 0.950 . S
C755 C753 1.390 1_566 S
C755 C756 1.387 . S
C755 H758 0.950 . S
C756 C755 1.387 . S
C756 C759 1.387 1_556 S
H757 C753 0.950 . S
H758 C755 0.950 . S
C759 C750 1.390 1_565 S
C759 H752 0.950 . S
C759 C756 1.387 1_554 S
C760 C761 1.387 . S
C760 H764 0.950 . S
C760 C769 1.390 1_455 S
C761 C760 1.387 . S
C761 C763 1.387 1_556 S
H762 C769 0.950 . S
C763 C761 1.387 1_554 S
C763 C765 1.390 1_455 S
C763 H767 0.950 . S
H764 C760 0.950 . S
C765 C763 1.390 1_655 S
C765 C766 1.387 1_554 S
C765 H768 0.950 . S
C766 C765 1.387 1_556 S
C766 C769 1.387 . S
H767 C763 0.950 . S
H768 C765 0.950 . S
C769 C760 1.390 1_655 S
C769 H762 0.950 . S
C769 C766 1.387 . S
C770 C771 1.387 . S
C770 H774 0.950 . S
C770 C779 1.390 . S
C771 C770 1.387 . S
C771 C773 1.387 1_556 S
H772 C779 0.950 . S
C773 C771 1.387 1_554 S
C773 C775 1.390 . S
C773 H777 0.950 . S
H774 C770 0.950 . S
C775 C773 1.390 . S
C775 C776 1.387 1_554 S
C775 H778 0.950 . S
C776 C775 1.387 1_556 S
C776 C779 1.387 . S
H777 C773 0.950 . S
H778 C775 0.950 . S
C779 C770 1.390 . S
C779 H772 0.950 . S
C779 C776 1.387 . S
C780 C781 1.387 . S
C780 H784 0.950 . S
C780 C789 1.390 . S
C781 C780 1.387 . S
C781 C783 1.387 . S
H782 C789 0.950 . S
C783 C781 1.387 . S
C783 C785 1.390 . S
C783 H787 0.950 . S
H784 C780 0.950 . S
C785 C783 1.390 . S
C785 C786 1.387 . S
C785 H788 0.950 . S
C786 C785 1.387 . S
C786 C789 1.387 . S
H787 C783 0.950 . S
H788 C785 0.950 . S
C789 C780 1.390 . S
C789 H782 0.950 . S
C789 C786 1.387 . S
C790 C791 1.387 . S
C790 H794 0.950 . S
C790 C799 1.390 . S
C791 C790 1.387 . S
C791 C793 1.387 . S
H792 C799 0.950 . S
C793 C791 1.387 . S
C793 C795 1.390 . S
C793 H797 0.950 . S
H794 C790 0.950 . S
C795 C793 1.390 . S
C795 C796 1.387 . S
C795 H798 0.950 . S
C796 C795 1.387 . S
C796 C799 1.387 . S
H797 C793 0.950 . S
H798 C795 0.950 . S
C799 C790 1.390 . S
C799 H792 0.950 . S
C799 C796 1.387 . S
C800 C801 1.387 . S
C800 H804 0.950 . S
C800 C809 1.390 . S
C801 C800 1.387 . S
C801 C803 1.387 . S
H802 C809 0.950 . S
C803 C801 1.387 . S
C803 C805 1.390 . S
C803 H807 0.950 . S
H804 C800 0.950 . S
C805 C803 1.390 . S
C805 C806 1.387 . S
C805 H808 0.950 . S
C806 C805 1.387 . S
C806 C809 1.387 . S
H807 C803 0.950 . S
H808 C805 0.950 . S
C809 C800 1.390 . S
C809 H802 0.950 . S
C809 C806 1.387 . S
C810 C811 1.387 . S
C810 H814 0.950 . S
C810 C819 1.390 . S
C811 C810 1.387 . S
C811 C813 1.387 . S
H812 C819 0.950 . S
C813 C811 1.387 . S
C813 C815 1.390 . S
C813 H817 0.950 . S
H814 C810 0.950 . S
C815 C813 1.390 . S
C815 C816 1.387 . S
C815 H818 0.950 . S
C816 C815 1.387 . S
C816 C819 1.387 . S
H817 C813 0.950 . S
H818 C815 0.950 . S
C819 C810 1.390 . S
C819 H812 0.950 . S
C819 C816 1.387 . S
C820 C821 1.387 . S
C820 H824 0.950 . S
C820 C829 1.390 . S
C821 C820 1.387 . S
C821 C823 1.387 . S
H822 C829 0.950 . S
C823 C821 1.387 . S
C823 C825 1.390 . S
C823 H827 0.950 . S
H824 C820 0.950 . S
C825 C823 1.390 . S
C825 C826 1.387 . S
C825 H828 0.950 . S
C826 C825 1.387 . S
C826 C829 1.387 . S
H827 C823 0.950 . S
H828 C825 0.950 . S
C829 C820 1.390 . S
C829 H822 0.950 . S
C829 C826 1.387 . S
C830 C831 1.387 . S
C830 H834 0.950 . S
C830 C839 1.390 . S
C831 C830 1.387 . S
C831 C833 1.387 . S
H832 C839 0.950 . S
C833 C831 1.387 . S
C833 C835 1.390 . S
C833 H837 0.950 . S
H834 C830 0.950 . S
C835 C833 1.390 . S
C835 C836 1.387 . S
C835 H838 0.950 . S
C836 C835 1.387 . S
C836 C839 1.387 . S
H837 C833 0.950 . S
H838 C835 0.950 . S
C839 C830 1.390 . S
C839 H832 0.950 . S
C839 C836 1.387 . S
C840 C841 1.387 . S
C840 H844 0.950 . S
C840 C849 1.390 . S
C841 C840 1.387 . S
C841 C843 1.387 . S
H842 C849 0.950 . S
C843 C841 1.387 . S
C843 C845 1.390 . S
C843 H847 0.950 . S
H844 C840 0.950 . S
C845 C843 1.390 . S
C845 C846 1.387 . S
C845 H848 0.950 . S
C846 C845 1.387 . S
C846 C849 1.387 . S
H847 C843 0.950 . S
H848 C845 0.950 . S
C849 C840 1.390 . S
C849 H842 0.950 . S
C849 C846 1.387 . S
C850 C851 1.387 . S
C850 H854 0.950 . S
C850 C859 1.390 . S
C851 C850 1.387 . S
C851 C853 1.387 . S
H852 C859 0.950 . S
C853 C851 1.387 . S
C853 C855 1.390 . S
C853 H857 0.950 . S
H854 C850 0.950 . S
C855 C853 1.390 . S
C855 C856 1.387 . S
C855 H858 0.950 . S
C856 C855 1.387 . S
C856 C859 1.387 . S
H857 C853 0.950 . S
H858 C855 0.950 . S
C859 C850 1.390 . S
C859 H852 0.950 . S
C859 C856 1.387 . S
C860 C861 1.387 . S
C860 H864 0.950 . S
C860 C869 1.390 . S
C861 C860 1.387 . S
C861 C863 1.387 . S
H862 C869 0.950 . S
C863 C861 1.387 . S
C863 C865 1.390 . S
C863 H867 0.950 . S
H864 C860 0.950 . S
C865 C863 1.390 . S
C865 C866 1.387 . S
C865 H868 0.950 . S
C866 C865 1.387 . S
C866 C869 1.387 . S
H867 C863 0.950 . S
H868 C865 0.950 . S
C869 C860 1.390 . S
C869 H862 0.950 . S
C869 C866 1.387 . S
C870 C871 1.387 . S
C870 H874 0.950 . S
C870 C879 1.390 . S
C871 C870 1.387 . S
C871 C873 1.387 . S
H872 C879 0.950 . S
C873 C871 1.387 . S
C873 C875 1.390 . S
C873 H877 0.950 . S
H874 C870 0.950 . S
C875 C873 1.390 . S
C875 C876 1.387 . S
C875 H878 0.950 . S
C876 C875 1.387 . S
C876 C879 1.387 . S
H877 C873 0.950 . S
H878 C875 0.950 . S
C879 C870 1.390 . S
C879 H872 0.950 . S
C879 C876 1.387 . S
C880 C881 1.387 . S
C880 H884 0.950 . S
C880 C889 1.390 . S
C881 C880 1.387 . S
C881 C883 1.387 . S
H882 C889 0.950 . S
C883 C881 1.387 . S
C883 C885 1.390 . S
C883 H887 0.950 . S
H884 C880 0.950 . S
C885 C883 1.390 . S
C885 C886 1.387 . S
C885 H888 0.950 . S
C886 C885 1.387 . S
C886 C889 1.387 . S
H887 C883 0.950 . S
H888 C885 0.950 . S
C889 C880 1.390 . S
C889 H882 0.950 . S
C889 C886 1.387 . S
C890 C891 1.387 . S
C890 H894 0.950 . S
C890 C899 1.390 . S
C891 C890 1.387 . S
C891 C893 1.387 . S
H892 C899 0.950 . S
C893 C891 1.387 . S
C893 C895 1.390 . S
C893 H897 0.950 . S
H894 C890 0.950 . S
C895 C893 1.390 . S
C895 C896 1.387 . S
C895 H898 0.950 . S
C896 C895 1.387 . S
C896 C899 1.387 . S
H897 C893 0.950 . S
H898 C895 0.950 . S
C899 C890 1.390 . S
C899 H892 0.950 . S
C899 C896 1.387 . S
C900 C901 1.387 . S
C900 H904 0.950 . S
C900 C909 1.390 . S
C901 C900 1.387 . S
C901 C903 1.387 . S
H902 C909 0.950 . S
C903 C901 1.387 . S
C903 C905 1.390 . S
C903 H907 0.950 . S
H904 C900 0.950 . S
C905 C903 1.390 . S
C905 C906 1.387 . S
C905 H908 0.950 . S
C906 C905 1.387 . S
C906 C909 1.387 . S
H907 C903 0.950 . S
H908 C905 0.950 . S
C909 C900 1.390 . S
C909 H902 0.950 . S
C909 C906 1.387 . S
C910 C911 1.387 . S
C910 H914 0.950 . S
C910 C919 1.390 . S
C911 C910 1.387 . S
C911 C913 1.387 . S
H912 C919 0.950 . S
C913 C911 1.387 . S
C913 C915 1.390 . S
C913 H917 0.950 . S
H914 C910 0.950 . S
C915 C913 1.390 . S
C915 C916 1.387 . S
C915 H918 0.950 . S
C916 C915 1.387 . S
C916 C919 1.387 . S
H917 C913 0.950 . S
H918 C915 0.950 . S
C919 C910 1.390 . S
C919 H912 0.950 . S
C919 C916 1.387 . S
C920 C921 1.387 . S
C920 H924 0.950 . S
C920 C929 1.390 . S
C921 C920 1.387 . S
C921 C923 1.387 . S
H922 C929 0.950 . S
C923 C921 1.387 . S
C923 C925 1.390 . S
C923 H927 0.950 . S
H924 C920 0.950 . S
C925 C923 1.390 . S
C925 C926 1.387 . S
C925 H928 0.950 . S
C926 C925 1.387 . S
C926 C929 1.387 . S
H927 C923 0.950 . S
H928 C925 0.950 . S
C929 C920 1.390 . S
C929 H922 0.950 . S
C929 C926 1.387 . S
C930 C931 1.387 . S
C930 H934 0.950 . S
C930 C939 1.390 . S
C931 C930 1.387 . S
C931 C933 1.387 . S
H932 C939 0.950 . S
C933 C931 1.387 . S
C933 C935 1.390 . S
C933 H937 0.950 . S
H934 C930 0.950 . S
C935 C933 1.390 . S
C935 C936 1.387 . S
C935 H938 0.950 . S
C936 C935 1.387 . S
C936 C939 1.387 . S
H937 C933 0.950 . S
H938 C935 0.950 . S
C939 C930 1.390 . S
C939 H932 0.950 . S
C939 C936 1.387 . S
C940 C941 1.387 . S
C940 H944 0.950 . S
C940 C949 1.390 . S
C941 C940 1.387 . S
C941 C943 1.387 . S
H942 C949 0.950 . S
C943 C941 1.387 . S
C943 C945 1.390 . S
C943 H947 0.950 . S
H944 C940 0.950 . S
C945 C943 1.390 . S
C945 C946 1.387 . S
C945 H948 0.950 . S
C946 C945 1.387 . S
C946 C949 1.387 . S
H947 C943 0.950 . S
H948 C945 0.950 . S
C949 C940 1.390 . S
C949 H942 0.950 . S
C949 C946 1.387 . S
C950 C951 1.387 . S
C950 H954 0.950 . S
C950 C959 1.390 . S
C951 C950 1.387 . S
C951 C953 1.387 . S
H952 C959 0.950 . S
C953 C951 1.387 . S
C953 C955 1.390 . S
C953 H957 0.950 . S
H954 C950 0.950 . S
C955 C953 1.390 . S
C955 C956 1.387 . S
C955 H958 0.950 . S
C956 C955 1.387 . S
C956 C959 1.387 . S
H957 C953 0.950 . S
H958 C955 0.950 . S
C959 C950 1.390 . S
C959 H952 0.950 . S
C959 C956 1.387 . S
C960 C961 1.387 . S
C960 H964 0.950 . S
C960 C969 1.390 1_455 S
C961 C960 1.387 . S
C961 C963 1.387 . S
H962 C969 0.950 . S
C963 C961 1.387 . S
C963 C965 1.390 1_455 S
C963 H967 0.950 . S
H964 C960 0.950 . S
C965 C963 1.390 1_655 S
C965 C966 1.387 . S
C965 H968 0.950 . S
C966 C965 1.387 . S
C966 C969 1.387 . S
H967 C963 0.950 . S
H968 C965 0.950 . S
C969 C960 1.390 1_655 S
C969 H962 0.950 . S
C969 C966 1.387 . S
C970 C971 1.387 . S
C970 H974 0.950 . S
C970 C979 1.390 . S
C971 C970 1.387 . S
C971 C973 1.387 . S
H972 C979 0.950 . S
C973 C971 1.387 . S
C973 C975 1.390 . S
C973 H977 0.950 . S
H974 C970 0.950 . S
C975 C973 1.390 . S
C975 C976 1.387 . S
C975 H978 0.950 . S
C976 C975 1.387 . S
C976 C979 1.387 . S
H977 C973 0.950 . S
H978 C975 0.950 . S
C979 C970 1.390 . S
C979 H972 0.950 . S
C979 C976 1.387 . S
C980 C981 1.387 . S
C980 H984 0.950 . S
C980 C989 1.390 1_545 S
C981 C980 1.387 . S
C981 C983 1.387 . S
H982 C989 0.950 . S
C983 C981 1.387 . S
C983 C985 1.390 1_545 S
C983 H987 0.950 . S
H984 C980 0.950 . S
C985 C983 1.390 1_565 S
C985 C986 1.387 . S
C985 H988 0.950 . S
C986 C985 1.387 . S
C986 C989 1.387 . S
H987 C983 0.950 . S
H988 C985 0.950 . S
C989 C980 1.390 1_565 S
C989 H982 0.950 . S
C989 C986 1.387 . S
C721 C21 1.524 . S
C726 C221 1.522 . S
C731 C61 1.472 . S
C736 C122 1.480 . S
C741 C82 1.465 . S
C746 C181 1.474 . S
C751 C42 1.473 . S
C756 C162 1.479 . S
C761 C202 1.521 . S
C766 C101 1.507 . S
C771 C2 1.533 . S
C776 C141 1.513 . S
C781 C461 1.521 . S
C786 C261 1.523 . S
C791 C301 1.473 . S
C796 C362 1.480 . S
C801 C322 1.465 . S
C806 C421 1.473 . S
C811 C282 1.473 . S
C816 C402 1.479 . S
C821 C341 1.506 . S
C826 C442 1.520 . S
C831 C242 1.534 . S
C836 C381 1.513 . S
C841 C501 1.523 . S
C846 C701 1.521 . S
C851 C602 1.480 . S
C856 C541 1.473 . S
C861 C661 1.473 . S
C866 C562 1.465 . S
C871 C642 1.480 . S
C876 C522 1.474 . S
C881 C682 1.519 . S
C886 C581 1.507 . S
C891 C621 1.514 . S
C896 C482 1.535 . S
C901 C15 1.506 . S
C906 C415 1.506 . S
C911 C455 1.514 . S
C916 C55 1.511 . S
C921 C375 1.520 . S
C926 C95 1.519 . S
C931 C135 1.519 . S
C936 C575 1.519 . S
C941 C175 1.507 . S
C946 C495 1.506 . S
C951 C535 1.512 . S
C956 C215 1.514 . S
C961 C655 1.507 . S
C966 C255 1.507 . S
C971 C295 1.512 . S
C976 C695 1.514 . S
C981 C335 1.520 . S
C986 C615 1.520 . S
