# Generated by pormake.
# Topology ums, (4)-cn, num edge types: 1
# Building blocks:
#     Node 0, Type 0, BuildingBlock: CEKHIL_clean_sbu_0, # of connection points: 4
#     Node 1, Type 0, BuildingBlock: CEKHIL_clean_sbu_0, # of connection points: 4
#     Node 2, Type 0, BuildingBlock: CEKHIL_clean_sbu_0, # of connection points: 4
#     Node 3, Type 0, BuildingBlock: CEKHIL_clean_sbu_0, # of connection points: 4
#     Node 4, Type 0, BuildingBlock: CEKHIL_clean_sbu_0, # of connection points: 4
#     Node 5, Type 0, BuildingBlock: CEKHIL_clean_sbu_0, # of connection points: 4
#     Node 6, Type 0, BuildingBlock: CEKHIL_clean_sbu_0, # of connection points: 4
#     Node 7, Type 0, BuildingBlock: CEKHIL_clean_sbu_0, # of connection points: 4
#     Node 8, Type 0, BuildingBlock: CEKHIL_clean_sbu_0, # of connection points: 4
#     Node 9, Type 0, BuildingBlock: CEKHIL_clean_sbu_0, # of connection points: 4
#     Node 10, Type 0, BuildingBlock: CEKHIL_clean_sbu_0, # of connection points: 4
#     Node 11, Type 0, BuildingBlock: CEKHIL_clean_sbu_0, # of connection points: 4
#     Node 12, Type 0, BuildingBlock: CEKHIL_clean_sbu_0, # of connection points: 4
#     Node 13, Type 0, BuildingBlock: CEKHIL_clean_sbu_0, # of connection points: 4
#     Node 14, Type 0, BuildingBlock: CEKHIL_clean_sbu_0, # of connection points: 4
#     Node 15, Type 0, BuildingBlock: CEKHIL_clean_sbu_0, # of connection points: 4
#     Node 16, Type 0, BuildingBlock: CEKHIL_clean_sbu_0, # of connection points: 4
#     Node 17, Type 0, BuildingBlock: CEKHIL_clean_sbu_0, # of connection points: 4
#     Node 18, Type 0, BuildingBlock: CEKHIL_clean_sbu_0, # of connection points: 4
#     Node 19, Type 0, BuildingBlock: CEKHIL_clean_sbu_0, # of connection points: 4
#     Node 20, Type 0, BuildingBlock: CEKHIL_clean_sbu_0, # of connection points: 4
#     Node 21, Type 0, BuildingBlock: CEKHIL_clean_sbu_0, # of connection points: 4
#     Node 22, Type 0, BuildingBlock: CEKHIL_clean_sbu_0, # of connection points: 4
#     Node 23, Type 0, BuildingBlock: CEKHIL_clean_sbu_0, # of connection points: 4
#     Node 24, Type 0, BuildingBlock: CEKHIL_clean_sbu_0, # of connection points: 4
#     Node 25, Type 0, BuildingBlock: CEKHIL_clean_sbu_0, # of connection points: 4
#     Node 26, Type 0, BuildingBlock: CEKHIL_clean_sbu_0, # of connection points: 4
#     Node 27, Type 0, BuildingBlock: CEKHIL_clean_sbu_0, # of connection points: 4
#     Node 28, Type 0, BuildingBlock: CEKHIL_clean_sbu_0, # of connection points: 4
#     Node 29, Type 0, BuildingBlock: CEKHIL_clean_sbu_0, # of connection points: 4
#     Node 30, Type 0, BuildingBlock: CEKHIL_clean_sbu_0, # of connection points: 4
#     Node 31, Type 0, BuildingBlock: CEKHIL_clean_sbu_0, # of connection points: 4
#     Node 32, Type 0, BuildingBlock: CEKHIL_clean_sbu_0, # of connection points: 4
#     Node 33, Type 0, BuildingBlock: CEKHIL_clean_sbu_0, # of connection points: 4
#     Node 34, Type 0, BuildingBlock: CEKHIL_clean_sbu_0, # of connection points: 4
#     Node 35, Type 0, BuildingBlock: CEKHIL_clean_sbu_0, # of connection points: 4
#     Edge 36, Type (0, 0), BuildingBlock: OJICUG_clean_linker_0, # of connection points: 2
#     Edge 37, Type (0, 0), BuildingBlock: OJICUG_clean_linker_0, # of connection points: 2
#     Edge 38, Type (0, 0), BuildingBlock: OJICUG_clean_linker_0, # of connection points: 2
#     Edge 39, Type (0, 0), BuildingBlock: OJICUG_clean_linker_0, # of connection points: 2
#     Edge 40, Type (0, 0), BuildingBlock: OJICUG_clean_linker_0, # of connection points: 2
#     Edge 41, Type (0, 0), BuildingBlock: OJICUG_clean_linker_0, # of connection points: 2
#     Edge 42, Type (0, 0), BuildingBlock: OJICUG_clean_linker_0, # of connection points: 2
#     Edge 43, Type (0, 0), BuildingBlock: OJICUG_clean_linker_0, # of connection points: 2
#     Edge 44, Type (0, 0), BuildingBlock: OJICUG_clean_linker_0, # of connection points: 2
#     Edge 45, Type (0, 0), BuildingBlock: OJICUG_clean_linker_0, # of connection points: 2
#     Edge 46, Type (0, 0), BuildingBlock: OJICUG_clean_linker_0, # of connection points: 2
#     Edge 47, Type (0, 0), BuildingBlock: OJICUG_clean_linker_0, # of connection points: 2
#     Edge 48, Type (0, 0), BuildingBlock: OJICUG_clean_linker_0, # of connection points: 2
#     Edge 49, Type (0, 0), BuildingBlock: OJICUG_clean_linker_0, # of connection points: 2
#     Edge 50, Type (0, 0), BuildingBlock: OJICUG_clean_linker_0, # of connection points: 2
#     Edge 51, Type (0, 0), BuildingBlock: OJICUG_clean_linker_0, # of connection points: 2
#     Edge 52, Type (0, 0), BuildingBlock: OJICUG_clean_linker_0, # of connection points: 2
#     Edge 53, Type (0, 0), BuildingBlock: OJICUG_clean_linker_0, # of connection points: 2
#     Edge 54, Type (0, 0), BuildingBlock: OJICUG_clean_linker_0, # of connection points: 2
#     Edge 55, Type (0, 0), BuildingBlock: OJICUG_clean_linker_0, # of connection points: 2
#     Edge 56, Type (0, 0), BuildingBlock: OJICUG_clean_linker_0, # of connection points: 2
#     Edge 57, Type (0, 0), BuildingBlock: OJICUG_clean_linker_0, # of connection points: 2
#     Edge 58, Type (0, 0), BuildingBlock: OJICUG_clean_linker_0, # of connection points: 2
#     Edge 59, Type (0, 0), BuildingBlock: OJICUG_clean_linker_0, # of connection points: 2
#     Edge 60, Type (0, 0), BuildingBlock: OJICUG_clean_linker_0, # of connection points: 2
#     Edge 61, Type (0, 0), BuildingBlock: OJICUG_clean_linker_0, # of connection points: 2
#     Edge 62, Type (0, 0), BuildingBlock: OJICUG_clean_linker_0, # of connection points: 2
#     Edge 63, Type (0, 0), BuildingBlock: OJICUG_clean_linker_0, # of connection points: 2
#     Edge 64, Type (0, 0), BuildingBlock: OJICUG_clean_linker_0, # of connection points: 2
#     Edge 65, Type (0, 0), BuildingBlock: OJICUG_clean_linker_0, # of connection points: 2
#     Edge 66, Type (0, 0), BuildingBlock: OJICUG_clean_linker_0, # of connection points: 2
#     Edge 67, Type (0, 0), BuildingBlock: OJICUG_clean_linker_0, # of connection points: 2
#     Edge 68, Type (0, 0), BuildingBlock: OJICUG_clean_linker_0, # of connection points: 2
#     Edge 69, Type (0, 0), BuildingBlock: OJICUG_clean_linker_0, # of connection points: 2
#     Edge 70, Type (0, 0), BuildingBlock: OJICUG_clean_linker_0, # of connection points: 2
#     Edge 71, Type (0, 0), BuildingBlock: OJICUG_clean_linker_0, # of connection points: 2
#     Edge 72, Type (0, 0), BuildingBlock: OJICUG_clean_linker_0, # of connection points: 2
#     Edge 73, Type (0, 0), BuildingBlock: OJICUG_clean_linker_0, # of connection points: 2
#     Edge 74, Type (0, 0), BuildingBlock: OJICUG_clean_linker_0, # of connection points: 2
#     Edge 75, Type (0, 0), BuildingBlock: OJICUG_clean_linker_0, # of connection points: 2
#     Edge 76, Type (0, 0), BuildingBlock: OJICUG_clean_linker_0, # of connection points: 2
#     Edge 77, Type (0, 0), BuildingBlock: OJICUG_clean_linker_0, # of connection points: 2
#     Edge 78, Type (0, 0), BuildingBlock: OJICUG_clean_linker_0, # of connection points: 2
#     Edge 79, Type (0, 0), BuildingBlock: OJICUG_clean_linker_0, # of connection points: 2
#     Edge 80, Type (0, 0), BuildingBlock: OJICUG_clean_linker_0, # of connection points: 2
#     Edge 81, Type (0, 0), BuildingBlock: OJICUG_clean_linker_0, # of connection points: 2
#     Edge 82, Type (0, 0), BuildingBlock: OJICUG_clean_linker_0, # of connection points: 2
#     Edge 83, Type (0, 0), BuildingBlock: OJICUG_clean_linker_0, # of connection points: 2
#     Edge 84, Type (0, 0), BuildingBlock: OJICUG_clean_linker_0, # of connection points: 2
#     Edge 85, Type (0, 0), BuildingBlock: OJICUG_clean_linker_0, # of connection points: 2
#     Edge 86, Type (0, 0), BuildingBlock: OJICUG_clean_linker_0, # of connection points: 2
#     Edge 87, Type (0, 0), BuildingBlock: OJICUG_clean_linker_0, # of connection points: 2
#     Edge 88, Type (0, 0), BuildingBlock: OJICUG_clean_linker_0, # of connection points: 2
#     Edge 89, Type (0, 0), BuildingBlock: OJICUG_clean_linker_0, # of connection points: 2
#     Edge 90, Type (0, 0), BuildingBlock: OJICUG_clean_linker_0, # of connection points: 2
#     Edge 91, Type (0, 0), BuildingBlock: OJICUG_clean_linker_0, # of connection points: 2
#     Edge 92, Type (0, 0), BuildingBlock: OJICUG_clean_linker_0, # of connection points: 2
#     Edge 93, Type (0, 0), BuildingBlock: OJICUG_clean_linker_0, # of connection points: 2
#     Edge 94, Type (0, 0), BuildingBlock: OJICUG_clean_linker_0, # of connection points: 2
#     Edge 95, Type (0, 0), BuildingBlock: OJICUG_clean_linker_0, # of connection points: 2
#     Edge 96, Type (0, 0), BuildingBlock: OJICUG_clean_linker_0, # of connection points: 2
#     Edge 97, Type (0, 0), BuildingBlock: OJICUG_clean_linker_0, # of connection points: 2
#     Edge 98, Type (0, 0), BuildingBlock: OJICUG_clean_linker_0, # of connection points: 2
#     Edge 99, Type (0, 0), BuildingBlock: OJICUG_clean_linker_0, # of connection points: 2
#     Edge 100, Type (0, 0), BuildingBlock: OJICUG_clean_linker_0, # of connection points: 2
#     Edge 101, Type (0, 0), BuildingBlock: OJICUG_clean_linker_0, # of connection points: 2
#     Edge 102, Type (0, 0), BuildingBlock: OJICUG_clean_linker_0, # of connection points: 2
#     Edge 103, Type (0, 0), BuildingBlock: OJICUG_clean_linker_0, # of connection points: 2
#     Edge 104, Type (0, 0), BuildingBlock: OJICUG_clean_linker_0, # of connection points: 2
#     Edge 105, Type (0, 0), BuildingBlock: OJICUG_clean_linker_0, # of connection points: 2
#     Edge 106, Type (0, 0), BuildingBlock: OJICUG_clean_linker_0, # of connection points: 2
#     Edge 107, Type (0, 0), BuildingBlock: OJICUG_clean_linker_0, # of connection points: 2
# Relax obj value: 0.196
# Max RMSD: 0.151
# Mean RMSD: 0.149
data_MOF--net-ums--node1-CEKHIL_clean_sbu_0--edge1-OJICUG_clean_linker_0
_symmetry_space_group_name_H-M    P1
_symmetry_Int_Tables_number       1
_symmetry_cell_setting            triclinic
loop_
_symmetry_equiv_pos_as_xyz
'x, y, z'
_cell_length_a     72.427635
_cell_length_b     72.338756
_cell_length_c     17.357705
_cell_angle_alpha  90.014446
_cell_angle_beta   89.986304
_cell_angle_gamma 120.03634
loop_
_atom_site_label
_atom_site_type_symbol
_atom_site_fract_x
_atom_site_fract_y
_atom_site_fract_z
_atom_type_partial_charge
Co0 Co 0.19099 0.26949 0.22314 0.0
O1 O 0.21436 0.26757 0.26776 0.0
O2 O 0.18656 0.24076 0.2109 0.0
C3 C 0.21191 0.30062 0.16027 0.0
O4 O 0.16469 0.26562 0.16482 0.0
Co5 Co 0.18402 0.30785 0.25868 0.0
O6 O 0.16228 0.29534 0.17635 0.0
C7 C 0.17325 0.2743 0.3752 0.0
C8 C 0.20505 0.24796 0.2438 0.0
C9 C 0.15594 0.27686 0.148 0.0
O10 O 0.17524 0.26204 0.32584 0.0
O11 O 0.1782 0.29359 0.36117 0.0
O12 O 0.20811 0.28258 0.13024 0.0
O13 O 0.20432 0.29937 0.22831 0.0
Co14 Co 0.74819 0.92573 0.22671 0.0
O15 O 0.75032 0.95121 0.27057 0.0
O16 O 0.77703 0.94982 0.21491 0.0
C17 C 0.71734 0.91579 0.16261 0.0
O18 O 0.7518 0.90298 0.16929 0.0
Co19 Co 0.70941 0.88064 0.26249 0.0
O20 O 0.72174 0.8711 0.18048 0.0
C21 C 0.74277 0.90332 0.37959 0.0
C22 C 0.76995 0.96133 0.24702 0.0
C23 C 0.74029 0.883 0.15243 0.0
O24 O 0.75525 0.91736 0.33003 0.0
O25 O 0.72343 0.88918 0.36539 0.0
O26 O 0.73549 0.92989 0.13305 0.0
O27 O 0.71832 0.90947 0.23102 0.0
Co28 Co 0.09268 0.82731 0.22554 0.0
O29 O 0.06725 0.80394 0.26959 0.0
O30 O 0.06861 0.83207 0.21401 0.0
C31 C 0.10258 0.80635 0.16134 0.0
O32 O 0.11537 0.85367 0.16797 0.0
Co33 Co 0.13773 0.83362 0.26104 0.0
O34 O 0.14722 0.85552 0.17905 0.0
C35 C 0.11514 0.84437 0.37826 0.0
C36 C 0.05714 0.81348 0.24625 0.0
C37 C 0.13533 0.86217 0.15105 0.0
O38 O 0.1011 0.84279 0.3288 0.0
O39 O 0.12926 0.83916 0.36398 0.0
O40 O 0.08848 0.81039 0.13189 0.0
O41 O 0.10892 0.81368 0.2297 0.0
Co42 Co 0.27333 0.18815 0.26876 0.0
O43 O 0.27127 0.21151 0.22465 0.0
O44 O 0.2445 0.18338 0.28023 0.0
C45 C 0.30417 0.20911 0.33297 0.0
O46 O 0.26965 0.16179 0.32637 0.0
Co47 Co 0.31208 0.18184 0.23336 0.0
O48 O 0.29966 0.15993 0.31531 0.0
C49 C 0.27879 0.17111 0.11605 0.0
C50 C 0.25161 0.20196 0.24796 0.0
C51 C 0.28111 0.15328 0.34329 0.0
O52 O 0.2663 0.17266 0.16551 0.0
O53 O 0.29811 0.17633 0.13037 0.0
O54 O 0.28602 0.20507 0.3624 0.0
O55 O 0.3032 0.20178 0.26462 0.0
Co56 Co 0.83028 0.08962 0.26853 0.0
O57 O 0.80691 0.06416 0.22465 0.0
O58 O 0.83497 0.06548 0.28033 0.0
C59 C 0.8094 0.09961 0.33262 0.0
O60 O 0.85664 0.11233 0.32599 0.0
Co61 Co 0.83667 0.13474 0.23276 0.0
O62 O 0.85852 0.14424 0.31482 0.0
C63 C 0.84735 0.11203 0.1157 0.0
C64 C 0.81638 0.05401 0.24821 0.0
C65 C 0.86514 0.13231 0.34287 0.0
O66 O 0.84573 0.09797 0.16524 0.0
O67 O 0.8422 0.12621 0.1299 0.0
O68 O 0.81342 0.08549 0.36217 0.0
O69 O 0.81671 0.10592 0.26422 0.0
Co70 Co 0.929 0.74591 0.27076 0.0
O71 O 0.95429 0.74784 0.22616 0.0
O72 O 0.95327 0.77464 0.28296 0.0
C73 C 0.91882 0.7148 0.3337 0.0
O74 O 0.90654 0.74976 0.32904 0.0
Co75 Co 0.88369 0.70751 0.23526 0.0
O76 O 0.87443 0.72002 0.31755 0.0
C77 C 0.90647 0.74105 0.11867 0.0
C78 C 0.96458 0.76746 0.2501 0.0
C79 C 0.88655 0.7385 0.34588 0.0
O80 O 0.9207 0.75333 0.16803 0.0
O81 O 0.89214 0.72176 0.13272 0.0
O82 O 0.93303 0.73284 0.3637 0.0
O83 O 0.91247 0.71602 0.26564 0.0
Co84 Co 0.83054 0.74598 0.77085 0.0
O85 O 0.80717 0.74793 0.72643 0.0
O86 O 0.835 0.77471 0.78323 0.0
C87 C 0.80964 0.71485 0.83372 0.0
O88 O 0.85685 0.7498 0.82899 0.0
Co89 Co 0.83744 0.70758 0.73499 0.0
O90 O 0.85916 0.72003 0.8174 0.0
C91 C 0.84819 0.74116 0.6186 0.0
C92 C 0.8165 0.76754 0.75046 0.0
C93 C 0.86554 0.73851 0.8458 0.0
O94 O 0.84624 0.75343 0.66805 0.0
O95 O 0.84322 0.72186 0.63254 0.0
O96 O 0.81345 0.73288 0.86382 0.0
O97 O 0.81719 0.7161 0.7656 0.0
Co98 Co 0.27321 0.08965 0.76869 0.0
O99 O 0.27107 0.06418 0.72472 0.0
O100 O 0.24436 0.06555 0.78047 0.0
C101 C 0.30407 0.09959 0.83272 0.0
O102 O 0.26961 0.11239 0.82623 0.0
Co103 Co 0.312 0.13474 0.73291 0.0
O104 O 0.29968 0.14426 0.81506 0.0
C105 C 0.27861 0.11209 0.61589 0.0
C106 C 0.25144 0.05405 0.74825 0.0
C107 C 0.28113 0.13237 0.84314 0.0
O108 O 0.26614 0.09804 0.66544 0.0
O109 O 0.29795 0.12622 0.63007 0.0
O110 O 0.28592 0.08548 0.8623 0.0
O111 O 0.30307 0.10591 0.76434 0.0
Co112 Co 0.92872 0.18798 0.76846 0.0
O113 O 0.95415 0.21134 0.72441 0.0
O114 O 0.95279 0.18321 0.77992 0.0
C115 C 0.91883 0.20893 0.83272 0.0
O116 O 0.90603 0.16161 0.82601 0.0
Co117 Co 0.88368 0.18169 0.733 0.0
O118 O 0.87418 0.15979 0.81497 0.0
C119 C 0.90627 0.17098 0.61569 0.0
C120 C 0.96426 0.2018 0.74771 0.0
C121 C 0.88607 0.15313 0.84295 0.0
O122 O 0.9203 0.17251 0.66516 0.0
O123 O 0.89217 0.17621 0.63001 0.0
O124 O 0.93293 0.20488 0.86215 0.0
O125 O 0.91249 0.20161 0.76435 0.0
Co126 Co 0.74822 0.82738 0.72671 0.0
O127 O 0.7503 0.80401 0.77058 0.0
O128 O 0.77705 0.83216 0.7151 0.0
C129 C 0.71738 0.80645 0.66247 0.0
O130 O 0.75188 0.85376 0.66929 0.0
Co131 Co 0.70945 0.83365 0.76239 0.0
O132 O 0.72183 0.85554 0.68041 0.0
C133 C 0.74275 0.8443 0.87963 0.0
C134 C 0.76995 0.81356 0.74723 0.0
C135 C 0.74038 0.86222 0.65239 0.0
O136 O 0.75525 0.84281 0.83007 0.0
O137 O 0.72342 0.83907 0.86536 0.0
O138 O 0.73553 0.81051 0.63297 0.0
O139 O 0.71836 0.81374 0.73089 0.0
Co140 Co 0.19106 0.92576 0.72557 0.0
O141 O 0.21443 0.9512 0.76956 0.0
O142 O 0.18639 0.94992 0.7139 0.0
C143 C 0.21193 0.91577 0.66143 0.0
O144 O 0.1647 0.90307 0.66804 0.0
Co145 Co 0.18467 0.88063 0.76123 0.0
O146 O 0.16283 0.87116 0.67915 0.0
C147 C 0.17401 0.90333 0.87837 0.0
C148 C 0.20497 0.96137 0.74608 0.0
C149 C 0.15621 0.88308 0.65112 0.0
O150 O 0.1756 0.91739 0.82886 0.0
O151 O 0.17917 0.88916 0.86413 0.0
O152 O 0.20793 0.92991 0.63193 0.0
O153 O 0.20462 0.90945 0.72981 0.0
Co154 Co 0.09242 0.26941 0.72324 0.0
O155 O 0.06711 0.26746 0.76782 0.0
O156 O 0.06815 0.24067 0.7109 0.0
C157 C 0.10263 0.30054 0.66045 0.0
O158 O 0.11489 0.26558 0.66494 0.0
Co159 Co 0.13773 0.3078 0.75895 0.0
O160 O 0.14699 0.29534 0.67648 0.0
C161 C 0.11493 0.2742 0.87534 0.0
C162 C 0.05683 0.24785 0.74379 0.0
C163 C 0.13487 0.27686 0.64809 0.0
O164 O 0.1007 0.26194 0.82594 0.0
O165 O 0.12926 0.2935 0.86138 0.0
O166 O 0.08841 0.28252 0.63036 0.0
O167 O 0.10895 0.29928 0.72851 0.0
Co168 Co 0.85787 0.60306 0.5581 0.0
O169 O 0.88123 0.60106 0.6024 0.0
O170 O 0.85336 0.57431 0.54564 0.0
C171 C 0.8788 0.63419 0.49523 0.0
O172 O 0.83157 0.59928 0.50003 0.0
Co173 Co 0.85104 0.6415 0.59404 0.0
O174 O 0.82931 0.62909 0.51161 0.0
C175 C 0.84024 0.6079 0.71041 0.0
C176 C 0.87187 0.58145 0.57835 0.0
C177 C 0.82291 0.6106 0.48322 0.0
O178 O 0.84218 0.59562 0.66094 0.0
O179 O 0.84523 0.6272 0.69647 0.0
O180 O 0.87495 0.61615 0.46509 0.0
O181 O 0.87126 0.63294 0.56337 0.0
Co182 Co 0.41493 0.25923 0.56243 0.0
O183 O 0.41712 0.28476 0.60615 0.0
O184 O 0.44378 0.28329 0.55047 0.0
C185 C 0.38407 0.2493 0.4984 0.0
O186 O 0.41848 0.23644 0.50507 0.0
Co187 Co 0.37611 0.21417 0.5984 0.0
O188 O 0.38837 0.2046 0.51626 0.0
C189 C 0.40952 0.23684 0.71537 0.0
C190 C 0.43674 0.29484 0.58251 0.0
C191 C 0.40693 0.21646 0.48817 0.0
O192 O 0.42199 0.25087 0.66578 0.0
O193 O 0.39017 0.22271 0.70122 0.0
O194 O 0.40221 0.26337 0.46876 0.0
O195 O 0.38506 0.24301 0.56684 0.0
Co196 Co 0.75967 0.16059 0.56257 0.0
O197 O 0.7342 0.13723 0.60649 0.0
O198 O 0.73564 0.16541 0.55112 0.0
C199 C 0.76952 0.13962 0.49823 0.0
O200 O 0.7824 0.18696 0.50511 0.0
Co201 Co 0.80468 0.16679 0.598 0.0
O202 O 0.81422 0.18871 0.51607 0.0
C203 C 0.78209 0.17747 0.71545 0.0
C204 C 0.72413 0.14682 0.58323 0.0
C205 C 0.80236 0.19541 0.48814 0.0
O206 O 0.7681 0.17601 0.66595 0.0
O207 O 0.79616 0.1722 0.70107 0.0
O208 O 0.75545 0.14371 0.4688 0.0
O209 O 0.77586 0.14691 0.56663 0.0
Co210 Co 0.93984 0.52127 0.60158 0.0
O211 O 0.93783 0.54468 0.55758 0.0
O212 O 0.91107 0.51663 0.61353 0.0
C213 C 0.97079 0.54218 0.66524 0.0
O214 O 0.93609 0.49488 0.65923 0.0
Co215 Co 0.97841 0.51469 0.56586 0.0
O216 O 0.96598 0.49283 0.64792 0.0
C217 C 0.94507 0.50411 0.44884 0.0
C218 C 0.91821 0.53521 0.58121 0.0
C219 C 0.94747 0.48629 0.67608 0.0
O220 O 0.93265 0.50574 0.49839 0.0
O221 O 0.96437 0.50923 0.46303 0.0
O222 O 0.95271 0.53822 0.69504 0.0
O223 O 0.96969 0.53477 0.59695 0.0
Co224 Co 0.49729 0.42316 0.60292 0.0
O225 O 0.4739 0.39771 0.559 0.0
O226 O 0.50188 0.39898 0.61512 0.0
C227 C 0.47641 0.43326 0.66643 0.0
O228 O 0.52365 0.44583 0.66053 0.0
Co229 Co 0.5039 0.46836 0.56699 0.0
O230 O 0.52571 0.47781 0.64916 0.0
C231 C 0.51453 0.44555 0.4502 0.0
C232 C 0.48332 0.38753 0.58287 0.0
C233 C 0.53223 0.46582 0.67736 0.0
O234 O 0.51282 0.43144 0.49975 0.0
O235 O 0.50946 0.45978 0.46429 0.0
O236 O 0.48036 0.41912 0.69631 0.0
O237 O 0.48382 0.43955 0.59813 0.0
Co238 Co 0.59594 0.07959 0.60718 0.0
O239 O 0.6212 0.08145 0.56244 0.0
O240 O 0.62031 0.10823 0.62004 0.0
C241 C 0.58554 0.04829 0.66916 0.0
O242 O 0.57358 0.08352 0.6658 0.0
Co243 Co 0.55049 0.04146 0.57135 0.0
O244 O 0.54134 0.05396 0.654 0.0
C245 C 0.57344 0.07515 0.45537 0.0
C246 C 0.63156 0.10102 0.58687 0.0
C247 C 0.55358 0.07238 0.68259 0.0
O248 O 0.58776 0.08728 0.50474 0.0
O249 O 0.55899 0.0559 0.46918 0.0
O250 O 0.59981 0.06623 0.69966 0.0
O251 O 0.57925 0.04973 0.60126 0.0
Co252 Co 0.49734 0.07957 0.10732 0.0
O253 O 0.47396 0.08146 0.06255 0.0
O254 O 0.50164 0.10823 0.1201 0.0
C255 C 0.4764 0.0483 0.16935 0.0
O256 O 0.52362 0.0835 0.16593 0.0
Co257 Co 0.50462 0.04142 0.0716 0.0
O258 O 0.52631 0.05394 0.15411 0.0
C259 C 0.51541 0.0751 0.95553 0.0
C260 C 0.48318 0.10104 0.08693 0.0
C261 C 0.53249 0.07237 0.18267 0.0
O262 O 0.51321 0.08724 0.00487 0.0
O263 O 0.51059 0.05584 0.96939 0.0
O264 O 0.48009 0.06625 0.19981 0.0
O265 O 0.48414 0.04971 0.10146 0.0
Co266 Co 0.93985 0.42287 0.10165 0.0
O267 O 0.93775 0.39738 0.05787 0.0
O268 O 0.91107 0.39872 0.11404 0.0
C269 C 0.97083 0.43296 0.16507 0.0
O270 O 0.93619 0.44557 0.15916 0.0
Co271 Co 0.97844 0.46804 0.06549 0.0
O272 O 0.96612 0.47754 0.14768 0.0
C273 C 0.94497 0.44522 0.94885 0.0
C274 C 0.91815 0.38723 0.08184 0.0
C275 C 0.94761 0.46557 0.17593 0.0
O276 O 0.9326 0.43112 -0.00155 0.0
O277 O 0.96428 0.45945 0.96286 0.0
O278 O 0.95275 0.41885 0.19503 0.0
O279 O 0.96971 0.43923 0.09674 0.0
Co280 Co 0.59569 0.52162 0.10288 0.0
O281 O 0.62111 0.54501 0.05881 0.0
O282 O 0.6198 0.51696 0.11483 0.0
C283 C 0.58566 0.54257 0.1665 0.0
O284 O 0.57305 0.49526 0.16059 0.0
Co285 Co 0.55055 0.51506 0.0672 0.0
O286 O 0.54111 0.4932 0.14929 0.0
C287 C 0.57328 0.5044 0.95023 0.0
C288 C 0.63125 0.53553 0.08243 0.0
C289 C 0.55308 0.48666 0.17744 0.0
O290 O 0.58735 0.50607 -0.00025 0.0
O291 O 0.55909 0.50952 0.9644 0.0
O292 O 0.59979 0.5386 0.19629 0.0
O293 O 0.57935 0.53515 0.09823 0.0
Co294 Co 0.41478 0.16074 0.06245 0.0
O295 O 0.41686 0.13738 0.10648 0.0
O296 O 0.44362 0.16553 0.051 0.0
C297 C 0.38396 0.13978 -0.00181 0.0
O298 O 0.41846 0.18711 0.0049 0.0
Co299 Co 0.37603 0.16703 0.0978 0.0
O300 O 0.38844 0.18895 0.0159 0.0
C301 C 0.40928 0.17771 0.21523 0.0
C302 C 0.43651 0.14694 0.08319 0.0
C303 C 0.407 0.19561 0.98794 0.0
O304 O 0.42179 0.1762 0.16577 0.0
O305 O 0.38996 0.17248 0.20085 0.0
O306 O 0.40211 0.14384 0.96876 0.0
O307 O 0.38492 0.1471 0.06655 0.0
Co308 Co 0.85807 0.25892 0.06241 0.0
O309 O 0.88143 0.28444 0.10602 0.0
O310 O 0.85331 0.28301 0.05045 0.0
C311 C 0.87896 0.24896 -0.0017 0.0
O312 O 0.8317 0.23615 0.00517 0.0
Co313 Co 0.85179 0.21385 0.09838 0.0
O314 O 0.82993 0.20429 0.01634 0.0
C315 C 0.8411 0.23656 0.21542 0.0
C316 C 0.87191 0.29454 0.08237 0.0
C317 C 0.82325 0.21616 0.98829 0.0
O318 O 0.84267 0.2506 0.16583 0.0
O319 O 0.84629 0.22241 0.20123 0.0
O320 O 0.8749 0.26303 0.96868 0.0
O321 O 0.87169 0.24267 0.06676 0.0
Co322 Co 0.75941 0.60315 0.05825 0.0
O323 O 0.7341 0.60121 0.1028 0.0
O324 O 0.73514 0.57441 0.04607 0.0
C325 C 0.76958 0.63425 0.99527 0.0
O326 O 0.78187 0.59929 -2e-05 0.0
Co327 Co 0.80472 0.64155 0.0937 0.0
O328 O 0.81398 0.62905 0.0114 0.0
C329 C 0.78194 0.60804 0.21037 0.0
C330 C 0.72382 0.58159 0.07887 0.0
C331 C 0.80185 0.61056 0.98311 0.0
O332 O 0.76771 0.59574 0.16102 0.0
O333 O 0.79625 0.62733 0.19628 0.0
O334 O 0.75537 0.6162 0.96528 0.0
O335 O 0.77593 0.63303 0.06333 0.0
Co336 Co 0.52386 0.93597 0.8898 0.0
O337 O 0.54726 0.93409 0.93442 0.0
O338 O 0.51956 0.90731 0.87701 0.0
C339 C 0.54477 0.96723 0.82768 0.0
O340 O 0.49755 0.93203 0.83132 0.0
Co341 Co 0.51657 0.97412 0.92554 0.0
O342 O 0.49486 0.96159 0.84313 0.0
C343 C 0.50592 0.9405 0.04176 0.0
C344 C 0.53803 0.91452 0.91004 0.0
C345 C 0.48867 0.94316 0.8146 0.0
O346 O 0.50803 0.92833 0.99236 0.0
O347 O 0.51075 0.95977 0.02786 0.0
O348 O 0.54106 0.94927 0.79722 0.0
O349 O 0.53705 0.96583 0.8956 0.0
Co350 Co 0.08201 0.59244 0.89197 0.0
O351 O 0.08404 0.61788 0.93586 0.0
O352 O 0.11076 0.61665 0.87964 0.0
C353 C 0.05102 0.58231 0.82855 0.0
O354 O 0.08573 0.56979 0.83435 0.0
Co355 Co 0.04347 0.54723 0.92801 0.0
O356 O 0.05584 0.53779 0.8458 0.0
C357 C 0.07694 0.57007 0.04468 0.0
C358 C 0.10363 0.62809 0.91189 0.0
C359 C 0.07435 0.54979 0.81756 0.0
O360 O 0.08929 0.58419 0.99511 0.0
O361 O 0.05764 0.55581 0.03064 0.0
O362 O 0.06909 0.59645 0.79862 0.0
O363 O 0.05215 0.57603 0.89685 0.0
Co364 Co 0.42629 0.49432 0.89355 0.0
O365 O 0.40087 0.4709 0.93751 0.0
O366 O 0.40214 0.49894 0.88158 0.0
C367 C 0.43634 0.47342 0.82988 0.0
O368 O 0.44892 0.52072 0.83594 0.0
Co369 Co 0.47143 0.50091 0.92926 0.0
O370 O 0.48087 0.52278 0.84721 0.0
C371 C 0.44864 0.51147 0.04631 0.0
C372 C 0.3907 0.48036 0.91384 0.0
C373 C 0.46889 0.52932 0.81908 0.0
O374 O 0.43459 0.50983 0.99677 0.0
O375 O 0.46284 0.50636 0.0321 0.0
O376 O 0.42222 0.47738 0.80008 0.0
O377 O 0.44264 0.48082 0.89818 0.0
Co378 Co 0.60662 0.85498 0.93289 0.0
O379 O 0.60448 0.87834 0.88919 0.0
O380 O 0.57776 0.85014 0.94458 0.0
C381 C 0.63745 0.87593 0.99713 0.0
O382 O 0.603 0.8286 0.99017 0.0
Co383 Co 0.64542 0.84879 0.89708 0.0
O384 O 0.63308 0.82688 0.97903 0.0
C385 C 0.61212 0.83813 0.77985 0.0
C386 C 0.58483 0.86874 0.91257 0.0
C387 C 0.61452 0.82016 0.00705 0.0
O388 O 0.5996 0.83958 0.82945 0.0
O389 O 0.63146 0.84338 0.7941 0.0
O390 O 0.6193 0.87183 0.02668 0.0
O391 O 0.63648 0.86867 0.92867 0.0
Co392 Co 0.16334 0.75639 0.9315 0.0
O393 O 0.14 0.73082 0.88801 0.0
O394 O 0.16819 0.73236 0.94343 0.0
C395 C 0.14241 0.7663 0.99571 0.0
O396 O 0.1897 0.77922 0.98862 0.0
Co397 Co 0.16949 0.8014 0.89547 0.0
O398 O 0.19137 0.81103 0.97744 0.0
C399 C 0.18015 0.7787 0.77834 0.0
C400 C 0.14959 0.72077 0.91158 0.0
C401 C 0.19811 0.7992 0.00547 0.0
O402 O 0.1787 0.76472 0.82799 0.0
O403 O 0.17489 0.7928 0.79254 0.0
O404 O 0.14654 0.75225 0.02532 0.0
O405 O 0.14965 0.77257 0.92721 0.0
Co406 Co 0.26253 0.41237 0.93606 0.0
O407 O 0.28792 0.41442 0.89182 0.0
O408 O 0.28673 0.44114 0.94857 0.0
C409 C 0.25237 0.38125 -0.00109 0.0
O410 O 0.23998 0.41611 0.99408 0.0
Co411 Co 0.2173 0.3739 0.9001 0.0
O412 O 0.20794 0.38628 0.98251 0.0
C413 C 0.24011 0.40749 0.78369 0.0
C414 C 0.29813 0.43403 0.91592 0.0
C415 C 0.21999 0.40478 0.01088 0.0
O416 O 0.25428 0.41979 0.83319 0.0
O417 O 0.22581 0.38818 0.79764 0.0
O418 O 0.26653 0.39929 0.02907 0.0
O419 O 0.24608 0.38249 0.93076 0.0
Co420 Co 0.16403 0.41228 0.43608 0.0
O421 O 0.14067 0.41425 0.39168 0.0
O422 O 0.16854 0.44103 0.44834 0.0
C423 C 0.14309 0.38117 0.49906 0.0
O424 O 0.19034 0.41609 0.49421 0.0
Co425 Co 0.17089 0.37384 0.40047 0.0
O426 O 0.19266 0.38632 0.48272 0.0
C427 C 0.18158 0.40735 0.2838 0.0
C428 C 0.15003 0.43387 0.41562 0.0
C429 C 0.19905 0.40481 0.51103 0.0
O430 O 0.17971 0.41966 0.33323 0.0
O431 O 0.17658 0.38804 0.29788 0.0
O432 O 0.14695 0.39922 0.52911 0.0
O433 O 0.15065 0.38239 0.43096 0.0
Co434 Co 0.60665 0.75668 0.43285 0.0
O435 O 0.60452 0.73116 0.38919 0.0
O436 O 0.57781 0.73258 0.44474 0.0
C437 C 0.6375 0.76662 0.49699 0.0
O438 O 0.60305 0.77944 0.49012 0.0
Co439 Co 0.64544 0.80175 0.39697 0.0
O440 O 0.63312 0.81131 0.47896 0.0
C441 C 0.6121 0.77903 0.27983 0.0
C442 C 0.58489 0.72106 0.41281 0.0
C443 C 0.61456 0.79943 0.50699 0.0
O444 O 0.59961 0.76501 0.32942 0.0
O445 O 0.63144 0.79317 0.29406 0.0
O446 O 0.61935 0.75255 0.52658 0.0
O447 O 0.63653 0.77292 0.42854 0.0
Co448 Co 0.26157 0.85472 0.4314 0.0
O449 O 0.28707 0.8781 0.38774 0.0
O450 O 0.28559 0.84989 0.44301 0.0
C451 C 0.2517 0.87567 0.49577 0.0
O452 O 0.23881 0.82832 0.48865 0.0
Co453 Co 0.21658 0.84853 0.39579 0.0
O454 O 0.20701 0.82659 0.47765 0.0
C455 C 0.23923 0.83793 0.27835 0.0
C456 C 0.29713 0.86851 0.4111 0.0
C457 C 0.21885 0.81987 0.50557 0.0
O458 O 0.25319 0.83935 0.32791 0.0
O459 O 0.22515 0.84319 0.29272 0.0
O460 O 0.26575 0.87155 0.52526 0.0
O461 O 0.24539 0.86841 0.42732 0.0
Co462 Co 0.08203 0.49402 0.39195 0.0
O463 O 0.08404 0.47062 0.43601 0.0
O464 O 0.1108 0.49865 0.37997 0.0
C465 C 0.05107 0.4731 0.32837 0.0
O466 O 0.08579 0.5204 0.33425 0.0
Co467 Co 0.04349 0.50063 0.42771 0.0
O468 O 0.05592 0.52248 0.34562 0.0
C469 C 0.07687 0.51126 0.54463 0.0
C470 C 0.10367 0.48008 0.41235 0.0
C471 C 0.07442 0.52901 0.31743 0.0
O472 O 0.08926 0.50957 0.49509 0.0
O473 O 0.05757 0.50616 0.53048 0.0
O474 O 0.06915 0.47705 0.29855 0.0
O475 O 0.05218 0.48052 0.39665 0.0
Co476 Co 0.52462 0.59274 0.39342 0.0
O477 O 0.54799 0.61824 0.43718 0.0
O478 O 0.51996 0.61687 0.38107 0.0
C479 C 0.54553 0.58267 0.32994 0.0
O480 O 0.49827 0.57003 0.33594 0.0
Co481 Co 0.51808 0.54759 0.42954 0.0
O482 O 0.49626 0.53807 0.34742 0.0
C483 C 0.50742 0.5704 0.54625 0.0
C484 C 0.53852 0.62837 0.41324 0.0
C485 C 0.4897 0.55003 0.31919 0.0
O486 O 0.50911 0.58448 0.49664 0.0
O487 O 0.51252 0.55618 0.53221 0.0
O488 O 0.54154 0.59677 0.3 0.0
O489 O 0.53814 0.5764 0.39827 0.0
Co490 Co 0.42533 0.93593 0.3898 0.0
O491 O 0.4 0.93399 0.43422 0.0
O492 O 0.40102 0.90727 0.37671 0.0
C493 C 0.4357 0.96722 0.32784 0.0
O494 O 0.44776 0.93206 0.33146 0.0
Co495 Co 0.47072 0.9741 0.42597 0.0
O496 O 0.47996 0.96166 0.34338 0.0
C497 C 0.44774 0.94039 0.54186 0.0
C498 C 0.3897 0.91442 0.40967 0.0
C499 C 0.46776 0.94323 0.31476 0.0
O500 O 0.43345 0.92824 0.49238 0.0
O501 O 0.46217 0.95966 0.52811 0.0
O502 O 0.42149 0.94927 0.29724 0.0
O503 O 0.44196 0.96579 0.39582 0.0
C504 C 0.24991 0.2355 0.24566 0.0
C505 C 0.23907 0.21308 0.24543 0.0
H506 H 0.24768 0.26386 0.24745 0.0
C507 C 0.21662 0.20191 0.24586 0.0
H508 H 0.26719 0.24461 0.24614 0.0
C509 C 0.20532 0.21308 0.24498 0.0
C510 C 0.21631 0.23555 0.24638 0.0
H511 H 0.20784 0.18462 0.24596 0.0
H512 H 0.18805 0.20417 0.24408 0.0
C513 C 0.23871 0.24657 0.24716 0.0
C514 C 0.8162 0.01889 0.24768 0.0
C515 C 0.80517 0.03031 0.24635 0.0
H516 H 0.81373 0.98793 0.24737 0.0
C517 C 0.78277 0.01883 0.24648 0.0
H518 H 0.83347 0.02732 0.24791 0.0
C519 C 0.77161 0.99655 0.24874 0.0
C520 C 0.78248 0.98503 0.24889 0.0
H521 H 0.77376 0.0271 0.24628 0.0
H522 H 0.75433 0.98832 0.24892 0.0
C523 C 0.80493 0.9964 0.24758 0.0
C524 C 0.99964 0.76887 0.24684 0.0
C525 C 0.98825 0.77987 0.24757 0.0
H526 H 0.03008 0.77084 0.24797 0.0
C527 C 0.99972 0.80234 0.24902 0.0
H528 H 0.99133 0.75157 0.24652 0.0
C529 C 0.02218 0.81352 0.24822 0.0
C530 C 0.03348 0.80236 0.24869 0.0
H531 H 0.99135 0.81124 0.24989 0.0
H532 H 0.03069 0.83081 0.24814 0.0
C533 C 0.02191 0.77993 0.24842 0.0
C534 C 0.78284 0.76895 0.74742 0.0
C535 C 0.80524 0.77995 0.7481 0.0
H536 H 0.75437 0.77092 0.74874 0.0
C537 C 0.81624 0.80243 0.74965 0.0
H538 H 0.77386 0.75165 0.74702 0.0
C539 C 0.80494 0.8136 0.749 0.0
C540 C 0.78249 0.80244 0.74952 0.0
H541 H 0.83351 0.81133 0.75048 0.0
H542 H 0.81372 0.83089 0.749 0.0
C543 C 0.77164 0.78001 0.74915 0.0
C544 C 0.24976 0.01882 0.74611 0.0
C545 C 0.23889 0.03036 0.74617 0.0
H546 H 0.24759 0.98826 0.74816 0.0
C547 C 0.21644 0.01899 0.74739 0.0
H548 H 0.26703 0.02705 0.74599 0.0
C549 C 0.20517 0.9965 0.74703 0.0
C550 C 0.21619 0.98507 0.74816 0.0
H551 H 0.20765 0.02747 0.74775 0.0
H552 H 0.1879 0.98807 0.74675 0.0
C553 C 0.23859 0.99654 0.74812 0.0
C554 C 0.02176 0.24643 0.7471 0.0
C555 C 0.03316 0.23543 0.74631 0.0
H556 H 0.99132 0.24445 0.74604 0.0
C557 C 0.02169 0.21295 0.74482 0.0
H558 H 0.03007 0.26372 0.74746 0.0
C559 C 0.99923 0.20178 0.74565 0.0
C560 C 0.98793 0.21293 0.74524 0.0
H561 H 0.03006 0.20406 0.74391 0.0
H562 H 0.99072 0.18448 0.7457 0.0
C563 C 0.9995 0.23536 0.74555 0.0
C564 C 0.87203 0.54652 0.5792 0.0
C565 C 0.88308 0.56899 0.58061 0.0
H566 H 0.87445 0.518 0.57988 0.0
C567 C 0.90548 0.57995 0.58103 0.0
H568 H 0.85476 0.53766 0.57857 0.0
C569 C 0.91663 0.56883 0.5792 0.0
C570 C 0.90573 0.5464 0.57898 0.0
H571 H 0.9145 0.59724 0.58131 0.0
H572 H 0.9339 0.57788 0.57941 0.0
C573 C 0.88328 0.5353 0.57976 0.0
C574 C 0.47175 0.32988 0.58289 0.0
C575 C 0.4493 0.31854 0.58417 0.0
H576 H 0.50032 0.36078 0.58305 0.0
C577 C 0.43846 0.3301 0.58377 0.0
H578 H 0.48053 0.32138 0.58287 0.0
C579 C 0.44965 0.35238 0.58128 0.0
C580 C 0.47206 0.36382 0.58119 0.0
H581 H 0.42119 0.32189 0.58391 0.0
H582 H 0.44068 0.36068 0.5809 0.0
C583 C 0.48305 0.35237 0.58278 0.0
C584 C 0.68884 0.11332 0.585 0.0
C585 C 0.70047 0.13574 0.58563 0.0
H586 H 0.65821 0.08501 0.58276 0.0
C587 C 0.68923 0.14695 0.58547 0.0
H588 H 0.69697 0.10418 0.58432 0.0
C589 C 0.66677 0.13584 0.58622 0.0
C590 C 0.65524 0.11337 0.58441 0.0
H591 H 0.69778 0.16425 0.58567 0.0
H592 H 0.65844 0.14478 0.58733 0.0
C593 C 0.66657 0.10231 0.58337 0.0
C594 C 0.44948 0.10237 0.08344 0.0
C595 C 0.47188 0.11341 0.08444 0.0
H596 H 0.42098 0.10429 0.08441 0.0
C597 C 0.48284 0.13588 0.08618 0.0
H598 H 0.44053 0.08507 0.08289 0.0
C599 C 0.47152 0.14702 0.08541 0.0
C600 C 0.44907 0.13583 0.08562 0.0
H601 H 0.50011 0.1448 0.08726 0.0
H602 H 0.48028 0.16431 0.08556 0.0
C603 C 0.43825 0.11341 0.08506 0.0
C604 C 0.90549 0.32977 0.08325 0.0
C605 C 0.88309 0.31824 0.08384 0.0
H606 H 0.93388 0.36032 0.08001 0.0
C607 C 0.87201 0.32962 0.08249 0.0
H608 H 0.91452 0.32153 0.08344 0.0
C609 C 0.88323 0.35211 0.08213 0.0
C610 C 0.90568 0.36352 0.08037 0.0
H611 H 0.85474 0.32115 0.08259 0.0
H612 H 0.87439 0.36054 0.08236 0.0
C613 C 0.9166 0.35205 0.08052 0.0
C614 C 0.66622 0.53553 0.08075 0.0
C615 C 0.65492 0.54667 0.08005 0.0
H616 H 0.69706 0.53781 0.07932 0.0
C617 C 0.66648 0.5691 0.08018 0.0
H618 H 0.65772 0.51823 0.08094 0.0
C619 C 0.68874 0.58018 0.08184 0.0
C620 C 0.70015 0.56918 0.08133 0.0
H621 H 0.65829 0.57818 0.08045 0.0
H622 H 0.69705 0.59747 0.08204 0.0
C623 C 0.68869 0.54671 0.08002 0.0
C624 C 0.53843 0.87971 0.91036 0.0
C625 C 0.54937 0.90218 0.91228 0.0
H626 H 0.54105 0.8513 0.91052 0.0
C627 C 0.57177 0.91324 0.91316 0.0
H628 H 0.52117 0.87076 0.90936 0.0
C629 C 0.58303 0.90224 0.91123 0.0
C630 C 0.57223 0.87981 0.91047 0.0
H631 H 0.5807 0.93054 0.91384 0.0
H632 H 0.6003 0.91138 0.91179 0.0
C633 C 0.54979 0.8686 0.91082 0.0
C634 C 0.13848 0.66328 0.91161 0.0
C635 C 0.11604 0.6518 0.91341 0.0
H636 H 0.16691 0.69429 0.91117 0.0
C637 C 0.10504 0.66321 0.91336 0.0
H638 H 0.14737 0.6549 0.91131 0.0
C639 C 0.11609 0.68549 0.91069 0.0
C640 C 0.13849 0.69708 0.91007 0.0
H641 H 0.08777 0.65488 0.9139 0.0
H642 H 0.107 0.69367 0.91058 0.0
C643 C 0.14964 0.68577 0.91131 0.0
C644 C 0.33327 0.43558 0.91352 0.0
C645 C 0.3218 0.44651 0.91384 0.0
H646 H 0.36377 0.43768 0.91542 0.0
C647 C 0.3332 0.46898 0.91536 0.0
H648 H 0.32501 0.41828 0.91316 0.0
C649 C 0.35567 0.48023 0.91502 0.0
C650 C 0.36703 0.46914 0.9159 0.0
H651 H 0.32477 0.47783 0.91592 0.0
H652 H 0.36412 0.49752 0.91497 0.0
C653 C 0.35553 0.44672 0.91557 0.0
C654 C 0.10526 0.44647 0.41453 0.0
C655 C 0.11615 0.4689 0.41466 0.0
H656 H 0.1074 0.41806 0.41259 0.0
C657 C 0.1386 0.48001 0.4139 0.0
H658 H 0.08798 0.43741 0.41431 0.0
C659 C 0.14985 0.46879 0.41455 0.0
C660 C 0.13881 0.44632 0.41324 0.0
H661 H 0.14742 0.4973 0.4137 0.0
H662 H 0.16712 0.47766 0.41519 0.0
C663 C 0.11641 0.43535 0.4128 0.0
C664 C 0.57213 0.66357 0.4146 0.0
C665 C 0.54973 0.65208 0.41474 0.0
H666 H 0.60055 0.6941 0.41172 0.0
C667 C 0.53868 0.66348 0.413 0.0
H668 H 0.58115 0.65531 0.4151 0.0
C669 C 0.54994 0.68597 0.41266 0.0
C670 C 0.57238 0.69736 0.41133 0.0
H671 H 0.52141 0.65503 0.41276 0.0
H672 H 0.54112 0.69443 0.41257 0.0
C673 C 0.58328 0.68585 0.41189 0.0
C674 C 0.35465 0.91308 0.41237 0.0
C675 C 0.36602 0.90205 0.41163 0.0
H676 H 0.32423 0.91116 0.41064 0.0
C677 C 0.35452 0.87958 0.40951 0.0
H678 H 0.36299 0.93038 0.41319 0.0
C679 C 0.33206 0.86843 0.40967 0.0
C680 C 0.32079 0.87962 0.40921 0.0
H681 H 0.36287 0.87066 0.40859 0.0
H682 H 0.32353 0.85114 0.40925 0.0
C683 C 0.33239 0.90204 0.41015 0.0
C684 C 0.12801 0.25526 0.95788 0.0
C685 C 0.11667 0.26626 0.95134 0.0
H686 H 0.14943 0.24982 0.02682 0.0
C687 C 0.11456 0.27654 0.01641 0.0
H688 H 0.13028 0.24767 0.90781 0.0
C689 C 0.12572 0.27808 0.0839 0.0
C690 C 0.13926 0.26938 0.0875 0.0
H691 H 0.10621 0.28544 0.0123 0.0
H692 H 0.12519 0.28767 0.13085 0.0
C693 C 0.13918 0.25672 0.02581 0.0
C694 C 0.73836 0.85121 0.08812 0.0
C695 C 0.74756 0.87353 0.09212 0.0
H696 H 0.73054 0.82424 0.01623 0.0
C697 C 0.76056 0.88602 0.03089 0.0
H698 H 0.7285 0.84114 0.13471 0.0
C699 C 0.76191 0.87621 0.963 0.0
C700 C 0.75046 0.85386 0.956 0.0
H701 H 0.76785 0.90324 0.03223 0.0
H702 H 0.76984 0.88608 0.91327 0.0
C703 C 0.73978 0.84149 0.02066 0.0
C704 C 0.16705 0.8921 0.08686 0.0
C705 C 0.14477 0.87892 0.09075 0.0
H706 H 0.19401 0.91131 0.01507 0.0
C707 C 0.1323 0.87937 0.02942 0.0
H708 H 0.17711 0.89235 0.13354 0.0
C709 C 0.14211 0.89055 0.96154 0.0
C710 C 0.16443 0.9015 0.95467 0.0
H711 H 0.1151 0.86939 0.03067 0.0
H712 H 0.13226 0.88856 0.91173 0.0
C713 C 0.17677 0.90325 0.01942 0.0
C714 C 0.25951 0.12491 0.53283 0.0
C715 C 0.27086 0.11393 0.53963 0.0
H716 H 0.25368 0.14609 0.46379 0.0
C717 C 0.28144 0.11217 0.47482 0.0
H718 H 0.25167 0.1269 0.58268 0.0
C719 C 0.28287 0.12333 0.4074 0.0
C720 C 0.27379 0.13653 0.40358 0.0
H721 H 0.29059 0.10409 0.47912 0.0
H722 H 0.29266 0.12306 0.36069 0.0
C723 C 0.26088 0.13609 0.46497 0.0
C724 C 0.88233 0.12926 0.46445 0.0
C725 C 0.88187 0.14176 0.40321 0.0
H726 H 0.89152 0.12918 0.58209 0.0
C727 C 0.89501 0.16407 0.4072 0.0
H728 H 0.87238 0.11204 0.46312 0.0
C729 C 0.90614 0.17379 0.47467 0.0
C730 C 0.90442 0.16141 0.53934 0.0
H731 H 0.89526 0.17415 0.3606 0.0
H732 H 0.91419 0.19104 0.4791 0.0
C733 C 0.89349 0.13906 0.53235 0.0
C734 C 0.88019 0.76012 0.53595 0.0
C735 C 0.85786 0.7491 0.54256 0.0
H736 H 0.90707 0.7656 0.46695 0.0
C737 C 0.84547 0.73878 0.47753 0.0
H738 H 0.89005 0.76774 0.58598 0.0
C739 C 0.8551 0.73725 0.41003 0.0
C740 C 0.87733 0.74598 0.40638 0.0
H741 H 0.82822 0.72986 0.48169 0.0
H742 H 0.84498 0.72763 0.36312 0.0
C743 C 0.88991 0.75867 0.46801 0.0
C744 C 0.88234 0.75864 0.96799 0.0
C745 C 0.8822 0.74593 0.90636 0.0
H746 H 0.89125 0.7677 0.08596 0.0
C747 C 0.89565 0.73714 0.91008 0.0
H748 H 0.87215 0.76562 0.96686 0.0
C749 C 0.90678 0.73863 0.97762 0.0
C750 C 0.90473 0.74897 0.04262 0.0
H751 H 0.89614 0.72751 0.86317 0.0
H752 H 0.91506 0.72966 0.98181 0.0
C753 C 0.89348 0.76005 0.03596 0.0
C754 C 0.28309 0.16416 0.90751 0.0
C755 C 0.27389 0.14184 0.90354 0.0
H756 H 0.29094 0.19114 0.97939 0.0
C757 C 0.26094 0.12936 0.96486 0.0
H758 H 0.29292 0.17422 0.86085 0.0
C759 C 0.25962 0.13918 0.03279 0.0
C760 C 0.27107 0.16153 0.03971 0.0
H761 H 0.25365 0.11214 0.96355 0.0
H762 H 0.25172 0.12932 0.08256 0.0
C763 C 0.28171 0.17389 0.975 0.0
C764 C 0.87926 0.12479 0.03258 0.0
C765 C 0.85693 0.11384 0.03942 0.0
H766 H 0.90628 0.14592 0.96346 0.0
C767 C 0.8446 0.11209 0.97463 0.0
H768 H 0.8891 0.12678 0.08242 0.0
C769 C 0.85433 0.12321 0.90715 0.0
C770 C 0.87662 0.13638 0.90328 0.0
H771 H 0.82737 0.10403 0.97896 0.0
H772 H 0.84428 0.12295 0.86045 0.0
C773 C 0.88908 0.13594 0.96467 0.0
C774 C 0.73988 0.90321 0.52063 0.0
C775 C 0.75051 0.9015 0.4559 0.0
H776 H 0.72866 0.89232 0.63477 0.0
C777 C 0.76193 0.89059 0.46281 0.0
H778 H 0.73067 0.91123 0.51625 0.0
C779 C 0.7606 0.87945 0.53073 0.0
C780 C 0.74765 0.87897 0.59205 0.0
H781 H 0.76982 0.88864 0.41301 0.0
H782 H 0.76786 0.86951 0.53199 0.0
C783 C 0.73849 0.89209 0.58812 0.0
C784 C 0.11523 0.8416 0.5193 0.0
C785 C 0.11699 0.85397 0.45456 0.0
H786 H 0.12607 0.84125 0.63347 0.0
C787 C 0.12793 0.87632 0.46147 0.0
H788 H 0.10717 0.82435 0.51492 0.0
C789 C 0.13907 0.88613 0.5294 0.0
C790 C 0.13949 0.87364 0.59074 0.0
H791 H 0.12992 0.88618 0.41167 0.0
H792 H 0.14903 0.90335 0.53068 0.0
C793 C 0.12633 0.85133 0.5868 0.0
C794 C 0.13154 0.25674 0.52586 0.0
C795 C 0.14411 0.26943 0.58751 0.0
H796 H 0.13138 0.24769 0.40786 0.0
C797 C 0.16634 0.27819 0.58379 0.0
H798 H 0.11437 0.24979 0.52698 0.0
C799 C 0.17598 0.27668 0.51624 0.0
C800 C 0.16358 0.26637 0.45123 0.0
H801 H 0.17646 0.2878 0.63071 0.0
H802 H 0.19322 0.28563 0.51206 0.0
C803 C 0.14125 0.25531 0.45787 0.0
C804 C 0.80605 0.59045 0.36111 0.0
C805 C 0.80623 0.6032 0.42268 0.0
H806 H 0.7971 0.58135 0.24319 0.0
C807 C 0.79282 0.61203 0.41893 0.0
H808 H 0.81621 0.58344 0.36225 0.0
C809 C 0.78168 0.61053 0.35141 0.0
C810 C 0.78369 0.60014 0.28646 0.0
H811 H 0.79237 0.62169 0.46579 0.0
H812 H 0.77343 0.61952 0.3472 0.0
C813 C 0.7949 0.58902 0.29316 0.0
C814 C 0.42847 0.20961 0.29864 0.0
C815 C 0.41697 0.18727 0.29163 0.0
H816 H 0.43449 0.23666 0.36791 0.0
C817 C 0.40626 0.1749 0.35627 0.0
H818 H 0.43642 0.21947 0.24891 0.0
C819 C 0.40489 0.18464 0.42376 0.0
C820 C 0.41414 0.20696 0.4278 0.0
H821 H 0.397 0.15765 0.3518 0.0
H822 H 0.39501 0.17457 0.47034 0.0
C823 C 0.42715 0.21944 0.36657 0.0
C824 C 0.84386 0.23644 0.35647 0.0
C825 C 0.83152 0.23474 0.29173 0.0
H826 H 0.84417 0.22551 0.47056 0.0
C827 C 0.8092 0.22383 0.29864 0.0
H828 H 0.86109 0.24446 0.3521 0.0
C829 C 0.79938 0.21266 0.36653 0.0
C830 C 0.81183 0.21216 0.42784 0.0
H831 H 0.79936 0.22188 0.24885 0.0
H832 H 0.78217 0.20272 0.36778 0.0
C833 C 0.83412 0.2253 0.42392 0.0
C834 C 0.94908 0.45625 0.74029 0.0
C835 C 0.94011 0.46955 0.73647 0.0
H836 H 0.95671 0.43695 0.81203 0.0
C837 C 0.92728 0.46923 0.79794 0.0
H838 H 0.95881 0.45591 0.69351 0.0
C839 C 0.92589 0.45806 0.86586 0.0
C840 C 0.93713 0.44698 0.87264 0.0
H841 H 0.92016 0.4793 0.79676 0.0
H842 H 0.91812 0.46015 0.91575 0.0
C843 C 0.94762 0.4451 0.80777 0.0
C844 C 0.56044 0.47245 0.86707 0.0
C845 C 0.57149 0.49481 0.87396 0.0
H846 H 0.53924 0.44547 0.79788 0.0
C847 C 0.57333 0.5072 0.80919 0.0
H848 H 0.55838 0.46258 0.9169 0.0
C849 C 0.5622 0.49751 0.74168 0.0
C850 C 0.54894 0.47521 0.73777 0.0
H851 H 0.58146 0.52445 0.81356 0.0
H852 H 0.56254 0.50761 0.69499 0.0
C853 C 0.54929 0.46268 0.79913 0.0
C854 C 0.5571 0.09247 0.80505 0.0
C855 C 0.54447 0.07991 0.74329 0.0
H856 H 0.55733 0.10145 0.92317 0.0
C857 C 0.52226 0.07139 0.74692 0.0
H858 H 0.57425 0.09925 0.80399 0.0
C859 C 0.51269 0.07297 0.8145 0.0
C860 C 0.52511 0.08313 0.87963 0.0
H861 H 0.5121 0.06188 0.6999 0.0
H862 H 0.49544 0.06418 0.81861 0.0
C863 C 0.54744 0.09397 0.87307 0.0
C864 C 0.54909 0.0925 0.30502 0.0
C865 C 0.54915 0.07992 0.24327 0.0
H866 H 0.55788 0.10151 0.42308 0.0
C867 C 0.56284 0.07141 0.24684 0.0
H868 H 0.53871 0.09926 0.30401 0.0
C869 C 0.57403 0.07302 0.31435 0.0
C870 C 0.57178 0.08319 0.37948 0.0
H871 H 0.56349 0.06189 0.19982 0.0
H872 H 0.5825 0.06424 0.31843 0.0
C873 C 0.56027 0.09402 0.37297 0.0
C874 C 0.94938 0.49727 0.24032 0.0
C875 C 0.9403 0.47497 0.23633 0.0
H876 H 0.95707 0.52421 0.31225 0.0
C877 C 0.92736 0.46244 0.29758 0.0
H878 H 0.95919 0.50737 0.1937 0.0
C879 C 0.92596 0.47221 0.36552 0.0
C880 C 0.9373 0.49456 0.37251 0.0
H881 H 0.92015 0.44522 0.29625 0.0
H882 H 0.91809 0.46232 0.41527 0.0
C883 C 0.94791 0.50695 0.30781 0.0
C884 C 0.54645 0.4584 0.36711 0.0
C885 C 0.52412 0.44732 0.37395 0.0
H886 H 0.57341 0.47965 0.298 0.0
C887 C 0.51175 0.44547 0.30914 0.0
H888 H 0.5563 0.46047 0.41697 0.0
C889 C 0.52144 0.45663 0.24167 0.0
C890 C 0.5437 0.46993 0.23782 0.0
H891 H 0.49452 0.43731 0.31347 0.0
H892 H 0.51135 0.45629 0.19496 0.0
C893 C 0.55622 0.46958 0.2992 0.0
C894 C 0.42862 0.22401 0.79844 0.0
C895 C 0.41727 0.23499 0.79164 0.0
H896 H 0.43444 0.20283 0.86746 0.0
C897 C 0.40668 0.23674 0.85644 0.0
H898 H 0.43647 0.22203 0.7486 0.0
C899 C 0.40524 0.22557 0.92386 0.0
C900 C 0.41432 0.21237 0.92767 0.0
H901 H 0.39752 0.24482 0.85216 0.0
H902 H 0.39544 0.22583 0.97055 0.0
C903 C 0.42724 0.21282 0.86629 0.0
C904 C 0.78232 0.17464 0.85645 0.0
C905 C 0.78396 0.18701 0.79187 0.0
H906 H 0.79327 0.17428 0.97042 0.0
C907 C 0.79481 0.20936 0.79896 0.0
H908 H 0.77433 0.15739 0.85193 0.0
C909 C 0.80597 0.21916 0.86686 0.0
C910 C 0.80652 0.20667 0.92799 0.0
H911 H 0.79671 0.21923 0.74929 0.0
H912 H 0.81586 0.23639 0.86824 0.0
C913 C 0.79345 0.18435 0.92391 0.0
C914 C 0.83331 0.61182 0.91896 0.0
C915 C 0.81108 0.60309 0.92261 0.0
H916 H 0.8602 0.61921 0.84735 0.0
C917 C 0.79851 0.5904 0.86096 0.0
H918 H 0.84343 0.62143 0.96589 0.0
C919 C 0.80824 0.58894 0.79303 0.0
C920 C 0.83057 0.59997 0.78644 0.0
H921 H 0.78135 0.58347 0.86201 0.0
H922 H 0.79837 0.58132 0.743 0.0
C923 C 0.84295 0.61028 0.85148 0.0
C924 C 0.46087 0.9215 0.6243 0.0
C925 C 0.44939 0.93235 0.61777 0.0
H926 H 0.48242 0.91624 0.69326 0.0
C927 C 0.44714 0.94252 0.68292 0.0
H928 H 0.46326 0.914 0.57419 0.0
C929 C 0.45832 0.94413 0.75044 0.0
C930 C 0.472 0.9356 0.75401 0.0
H931 H 0.43869 0.95132 0.67882 0.0
H932 H 0.45769 0.95365 0.79744 0.0
C933 C 0.47205 0.92302 0.69226 0.0
C934 C 0.09457 0.55296 0.69578 0.0
C935 C 0.08168 0.54042 0.75712 0.0
H936 H 0.10378 0.55309 0.57802 0.0
C937 C 0.07266 0.51812 0.75317 0.0
H938 H 0.10173 0.57018 0.69709 0.0
C939 C 0.07413 0.50845 0.68564 0.0
C940 C 0.08467 0.52085 0.62089 0.0
H941 H 0.06289 0.50801 0.79984 0.0
H942 H 0.06501 0.49119 0.68125 0.0
C943 C 0.09597 0.5432 0.62783 0.0
C944 C 0.46574 0.54639 0.69731 0.0
C945 C 0.47826 0.54605 0.75869 0.0
H946 H 0.46564 0.55548 0.57954 0.0
C947 C 0.50053 0.55935 0.75479 0.0
H948 H 0.44855 0.53633 0.69856 0.0
C949 C 0.51021 0.5705 0.68729 0.0
C950 C 0.49783 0.56863 0.62249 0.0
H951 H 0.51062 0.55969 0.8015 0.0
H952 H 0.52744 0.57864 0.68295 0.0
C953 C 0.47551 0.55756 0.62937 0.0
C954 C 0.59426 0.80287 0.12858 0.0
C955 C 0.60726 0.80341 0.06735 0.0
H956 H 0.58498 0.79362 0.24621 0.0
C957 C 0.61648 0.79033 0.07134 0.0
H958 H 0.58696 0.81277 0.12726 0.0
C959 C 0.61507 0.77919 0.1388 0.0
C960 C 0.60438 0.78085 0.20347 0.0
H961 H 0.62634 0.79014 0.02475 0.0
H962 H 0.62431 0.77121 0.14322 0.0
C963 C 0.59291 0.7917 0.19648 0.0
C964 C 0.22661 0.80607 0.19474 0.0
C965 C 0.23738 0.82842 0.20187 0.0
H966 H 0.20561 0.77902 0.12543 0.0
C967 C 0.23897 0.84078 0.13733 0.0
H968 H 0.22475 0.79621 0.24438 0.0
C969 C 0.22785 0.83105 0.06987 0.0
C970 C 0.21484 0.80872 0.06575 0.0
H971 H 0.2469 0.85803 0.14188 0.0
H972 H 0.22798 0.84111 0.0234 0.0
C973 C 0.21545 0.79625 0.12684 0.0
C974 C 0.18846 0.4033 0.07523 0.0
C975 C 0.21071 0.41217 0.07142 0.0
H976 H 0.16157 0.39578 0.14702 0.0
C977 C 0.22326 0.42495 0.13293 0.0
H978 H 0.17834 0.39361 0.02842 0.0
C979 C 0.21353 0.42637 0.20089 0.0
C980 C 0.1912 0.41522 0.20765 0.0
H981 H 0.24044 0.43199 0.13174 0.0
H982 H 0.2234 0.43409 0.25082 0.0
C983 C 0.17881 0.4048 0.14275 0.0
C984 C 0.24038 0.40503 0.64265 0.0
C985 C 0.23836 0.4154 0.70763 0.0
H986 H 0.22968 0.39384 0.52832 0.0
C987 C 0.2271 0.42647 0.70098 0.0
H988 H 0.24867 0.39607 0.64684 0.0
C989 C 0.21591 0.42501 0.63307 0.0
C990 C 0.21575 0.41227 0.57149 0.0
H991 H 0.22489 0.43413 0.75096 0.0
H992 H 0.20572 0.43198 0.63198 0.0
C993 C 0.22921 0.40349 0.57518 0.0
C994 C 0.61513 0.84095 0.63883 0.0
C995 C 0.60442 0.82858 0.70344 0.0
H996 H 0.62643 0.8413 0.52482 0.0
C997 C 0.59293 0.80623 0.69638 0.0
H998 H 0.62439 0.8582 0.64333 0.0
C999 C 0.59428 0.79642 0.62847 0.0
C1000 C 0.60731 0.80891 0.5673 0.0
H1001 H 0.58497 0.79636 0.74608 0.0
H1002 H 0.58696 0.77919 0.6271 0.0
C1003 C 0.61654 0.83123 0.57136 0.0
C1004 C 0.21201 0.79139 0.69494 0.0
C1005 C 0.18969 0.78053 0.70194 0.0
H1006 H 0.23903 0.81248 0.62574 0.0
C1007 C 0.17735 0.77887 0.63728 0.0
H1008 H 0.22185 0.79331 0.74466 0.0
C1009 C 0.18707 0.79002 0.56983 0.0
C1010 C 0.20937 0.80311 0.56584 0.0
H1011 H 0.16012 0.77088 0.64172 0.0
H1012 H 0.17702 0.78983 0.52327 0.0
C1013 C 0.22182 0.80256 0.62705 0.0
C1014 C 0.09601 0.55722 0.12765 0.0
C1015 C 0.08478 0.56832 0.12087 0.0
H1016 H 0.10172 0.53597 0.19673 0.0
C1017 C 0.0743 0.57021 0.18575 0.0
H1018 H 0.10377 0.55512 0.07774 0.0
C1019 C 0.07284 0.55906 0.25323 0.0
C1020 C 0.08179 0.54574 0.25703 0.0
H1021 H 0.06523 0.57837 0.18147 0.0
H1022 H 0.06311 0.55941 0.3 0.0
C1023 C 0.09462 0.54605 0.19557 0.0
C1024 C 0.4614 0.54337 0.12965 0.0
C1025 C 0.45042 0.52102 0.12265 0.0
H1026 H 0.48256 0.57036 0.19889 0.0
C1027 C 0.44864 0.50863 0.18733 0.0
H1028 H 0.46341 0.55326 0.0799 0.0
C1029 C 0.45978 0.51831 0.25481 0.0
C1030 C 0.47299 0.54062 0.25881 0.0
H1031 H 0.44055 0.49137 0.18287 0.0
H1032 H 0.4595 0.50821 0.30141 0.0
C1033 C 0.47257 0.55315 0.19757 0.0
C1034 C 0.47395 0.92159 0.12447 0.0
C1035 C 0.49628 0.93252 0.11778 0.0
H1036 H 0.44713 0.91623 0.19361 0.0
C1037 C 0.50871 0.94277 0.18279 0.0
H1038 H 0.46406 0.91402 0.07446 0.0
C1039 C 0.49913 0.94436 0.25036 0.0
C1040 C 0.47691 0.93573 0.25411 0.0
H1041 H 0.52595 0.95163 0.17856 0.0
H1042 H 0.50929 0.95393 0.29727 0.0
C1043 C 0.46429 0.92309 0.19249 0.0
C1044 C 0.23327 0.34137 -0.00079 0.0
C1045 C 0.24289 0.3607 0.04054 0.0
H1046 H 0.21629 0.30713 0.0047 0.0
C1047 C 0.24273 0.3601 0.1213 0.0
H1048 H 0.2332 0.3414 0.93679 0.0
C1049 C 0.23266 0.3405 0.16001 0.0
C1050 C 0.22303 0.32117 0.11867 0.0
H1051 H 0.24992 0.37474 0.15451 0.0
H1052 H 0.23243 0.34047 0.22242 0.0
C1053 C 0.22367 0.32177 0.03792 0.0
C1054 C 0.67751 0.89665 0.16034 0.0
C1055 C 0.69697 0.90641 0.12 0.0
H1056 H 0.64333 0.8797 0.15306 0.0
C1057 C 0.69669 0.90657 0.03922 0.0
H1058 H 0.67728 0.89634 0.22274 0.0
C1059 C 0.67727 0.89666 -0.00051 0.0
C1060 C 0.65781 0.88689 0.03982 0.0
H1061 H 0.71144 0.91388 0.00676 0.0
H1062 H 0.6775 0.89668 0.93708 0.0
C1063 C 0.65809 0.8872 0.1206 0.0
C1064 C 0.12169 0.7854 -0.0019 0.0
C1065 C 0.13146 0.77571 0.0384 0.0
H1066 H 0.10446 0.80235 0.00544 0.0
C1067 C 0.13116 0.77569 0.11918 0.0
H1068 H 0.12167 0.7856 0.93569 0.0
C1069 C 0.12171 0.78566 0.15895 0.0
C1070 C 0.11194 0.79535 0.11866 0.0
H1071 H 0.13867 0.76843 0.15162 0.0
H1072 H 0.12202 0.78574 0.22135 0.0
C1073 C 0.11178 0.79491 0.03787 0.0
C1074 C 0.32482 0.22059 0.45639 0.0
C1075 C 0.32453 0.22015 0.37561 0.0
H1076 H 0.34402 0.22993 0.55853 0.0
C1077 C 0.344 0.22988 0.33527 0.0
H1078 H 0.31006 0.21313 0.48886 0.0
C1079 C 0.36341 0.23987 0.37499 0.0
C1080 C 0.3637 0.23986 0.45577 0.0
H1081 H 0.34422 0.22979 0.27286 0.0
H1082 H 0.37817 0.24715 0.34252 0.0
C1083 C 0.34424 0.23013 0.49612 0.0
C1084 C 0.78856 0.11884 0.4958 0.0
C1085 C 0.77888 0.12862 0.4555 0.0
H1086 H 0.80546 0.10157 0.48848 0.0
C1087 C 0.77883 0.1283 0.37471 0.0
H1088 H 0.78879 0.11884 0.55821 0.0
C1089 C 0.78876 0.11881 0.33495 0.0
C1090 C 0.79845 0.10902 0.37525 0.0
H1091 H 0.77158 0.13581 0.34229 0.0
H1092 H 0.78883 0.1191 0.27254 0.0
C1093 C 0.79803 0.10889 0.45604 0.0
C1094 C 0.90945 0.69366 0.45608 0.0
C1095 C 0.90942 0.69425 0.37533 0.0
H1096 H 0.89941 0.67405 0.55725 0.0
C1097 C 0.89974 0.67491 0.33403 0.0
H1098 H 0.9167 0.70831 0.48927 0.0
C1099 C 0.89026 0.65532 0.37278 0.0
C1100 C 0.88982 0.65473 0.45354 0.0
H1101 H 0.89953 0.67493 0.27163 0.0
H1102 H 0.88283 0.64067 0.3396 0.0
C1103 C 0.8995 0.67407 0.49484 0.0
C1104 C 0.78895 0.67497 0.83411 0.0
C1105 C 0.79861 0.69431 0.8754 0.0
H1106 H 0.77175 0.64073 0.83968 0.0
C1107 C 0.79814 0.69372 0.95616 0.0
H1108 H 0.78906 0.67499 0.77169 0.0
C1109 C 0.78864 0.67413 0.99491 0.0
C1110 C 0.77899 0.65479 0.95362 0.0
H1111 H 0.80555 0.70837 0.98934 0.0
H1112 H 0.78883 0.67411 0.05732 0.0
C1113 C 0.77899 0.65538 0.87286 0.0
C1114 C 0.36331 0.12832 0.87475 0.0
C1115 C 0.3636 0.12874 0.95554 0.0
H1116 H 0.34412 0.11901 0.77262 0.0
C1117 C 0.34413 0.11898 0.99587 0.0
H1118 H 0.37807 0.13581 0.8423 0.0
C1119 C 0.32472 0.10898 0.95615 0.0
C1120 C 0.32443 0.10903 0.87536 0.0
H1121 H 0.34391 0.11904 0.05828 0.0
H1122 H 0.30996 0.10168 0.98861 0.0
C1123 C 0.3439 0.11878 0.83502 0.0
C1124 C 0.89973 0.22965 0.83511 0.0
C1125 C 0.90946 0.21992 0.87542 0.0
H1126 H 0.8828 0.24689 0.84242 0.0
C1127 C 0.90957 0.22031 0.95621 0.0
H1128 H 0.89946 0.2296 0.77271 0.0
C1129 C 0.89965 0.2298 0.99597 0.0
C1130 C 0.88991 0.23954 0.95565 0.0
H1131 H 0.91686 0.21284 0.98864 0.0
H1132 H 0.89962 0.22956 0.05837 0.0
C1133 C 0.89027 0.2396 0.87487 0.0
C1134 C 0.69674 0.79517 0.539 0.0
C1135 C 0.69702 0.7955 0.61979 0.0
H1136 H 0.67755 0.78601 0.43686 0.0
C1137 C 0.67756 0.78577 0.66011 0.0
H1138 H 0.7115 0.80264 0.50655 0.0
C1139 C 0.65815 0.77587 0.62038 0.0
C1140 C 0.65786 0.776 0.5396 0.0
H1141 H 0.67734 0.78578 0.72252 0.0
H1142 H 0.64339 0.76858 0.65284 0.0
C1143 C 0.67733 0.78573 0.49926 0.0
C1144 C 0.23252 0.89654 0.65905 0.0
C1145 C 0.22286 0.90634 0.61876 0.0
H1146 H 0.24966 0.87949 0.65169 0.0
C1147 C 0.22325 0.90645 0.53797 0.0
H1148 H 0.23247 0.89626 0.72145 0.0
C1149 C 0.23269 0.89648 0.4982 0.0
C1150 C 0.24236 0.88668 0.53848 0.0
H1151 H 0.21584 0.9138 0.50555 0.0
H1152 H 0.23245 0.89647 0.43579 0.0
C1153 C 0.24242 0.88702 0.61927 0.0
C1154 C 0.13141 0.36002 0.62144 0.0
C1155 C 0.13197 0.36063 0.54069 0.0
H1156 H 0.12194 0.3404 0.72257 0.0
C1157 C 0.12227 0.3413 0.49936 0.0
H1158 H 0.13885 0.37467 0.65465 0.0
C1159 C 0.1122 0.3217 0.53807 0.0
C1160 C 0.11212 0.32109 0.61883 0.0
H1161 H 0.12244 0.34132 0.43694 0.0
H1162 H 0.10494 0.30705 0.50486 0.0
C1163 C 0.12181 0.34042 0.66016 0.0
C1164 C 0.03011 0.5729 0.70573 0.0
C1165 C 0.03056 0.57286 0.78649 0.0
H1166 H 1.01071 0.56286 0.60412 0.0
C1167 C 0.01118 0.56314 0.82736 0.0
H1168 H 0.0448 0.58018 0.67286 0.0
C1169 C 0.99168 0.55363 0.78817 0.0
C1170 C 0.99123 0.55321 0.70739 0.0
H1171 H 0.01109 0.56292 0.88977 0.0
H1172 H 0.97699 0.54617 0.82102 0.0
C1173 C 1.01061 0.56293 0.66653 0.0
C1174 C 0.44575 0.46194 0.70694 0.0
C1175 C 0.44575 0.46238 0.78772 0.0
H1176 H 0.45584 0.45261 0.60531 0.0
C1177 C 0.45542 0.45267 0.82855 0.0
H1178 H 0.43851 0.46939 0.67412 0.0
C1179 C 0.46493 0.44268 0.78932 0.0
C1180 C 0.4654 0.4427 0.70855 0.0
H1181 H 0.45561 0.45276 0.89096 0.0
H1182 H 0.47235 0.43541 0.82216 0.0
C1183 C 0.45573 0.45241 0.66772 0.0
C1184 C 0.55668 0.98871 0.70606 0.0
C1185 C 0.55598 0.98789 0.78678 0.0
H1186 H 0.56635 0.00862 0.60565 0.0
C1187 C 0.56562 1.00711 0.82881 0.0
H1188 H 0.5493 0.97416 0.67233 0.0
C1189 C 0.57577 0.02681 0.79081 0.0
C1190 C 0.57599 0.02764 0.71008 0.0
H1191 H 0.56533 1.00691 0.89122 0.0
H1192 H 0.58297 0.04137 0.82453 0.0
C1193 C 0.56637 0.00842 0.66806 0.0
C1194 C 0.46448 0.02681 0.29096 0.0
C1195 C 0.4652 0.02763 0.21024 0.0
H1196 H 0.45482 1.0069 0.39137 0.0
C1197 C 0.45561 0.00842 0.16821 0.0
H1198 H 0.47183 0.04136 0.3247 0.0
C1199 C 0.44548 0.98871 0.20621 0.0
C1200 C 0.44524 0.98788 0.28693 0.0
H1201 H 0.45591 0.00862 0.10581 0.0
H1202 H 0.43831 0.97416 0.17247 0.0
C1203 C 0.45482 1.0071 0.32896 0.0
C1204 C 0.01124 0.45238 0.3271 0.0
C1205 C 0.03062 0.46207 0.28624 0.0
H1206 H 0.97706 0.43514 0.32078 0.0
C1207 C 0.03017 0.46161 0.20546 0.0
H1208 H 0.01115 0.45248 0.38951 0.0
C1209 C 1.01067 0.45209 0.16627 0.0
C1210 C 0.99129 0.4424 0.20714 0.0
H1211 H 0.04486 0.46904 0.17261 0.0
H1212 H 1.01076 0.45228 0.10386 0.0
C1213 C 0.99174 0.4424 0.28791 0.0
C1214 C 0.56655 0.56329 0.16784 0.0
C1215 C 0.57625 0.5536 0.20867 0.0
H1216 H 0.54959 0.58051 0.17421 0.0
C1217 C 0.57625 0.55405 0.28945 0.0
H1218 H 0.56637 0.56319 0.10543 0.0
C1219 C 0.56625 0.56356 0.32867 0.0
C1220 C 0.55656 0.57325 0.28783 0.0
H1221 H 0.5835 0.54662 0.32228 0.0
H1222 H 0.56615 0.56337 0.39108 0.0
C1223 C 0.55703 0.57326 0.20706 0.0
loop_
_geom_bond_atom_site_label_1
_geom_bond_atom_site_label_2
_geom_bond_distance
_geom_bond_site_symmetry_2
_ccdc_geom_bond_type
Co0 O1 2.216 . S
Co0 O2 2.091 . S
Co0 O4 2.004 . S
Co0 O10 2.021 . S
Co0 O12 2.137 . S
Co0 O13 2.244 . S
O1 Co0 2.216 . S
O1 C8 1.247 . S
O2 Co0 2.091 . S
O2 C8 1.261 . S
C3 O12 1.247 . S
C3 O13 1.272 . S
O4 Co0 2.004 . S
O4 C9 1.259 . S
Co5 O6 2.061 . S
Co5 O11 2.052 . S
Co5 O13 2.135 . S
O6 Co5 2.061 . S
O6 C9 1.235 . S
C7 O10 1.238 . S
C7 O11 1.241 . S
C8 O1 1.247 . S
C8 O2 1.261 . S
C9 O4 1.259 . S
C9 O6 1.235 . S
O10 Co0 2.021 . S
O10 C7 1.238 . S
O11 Co5 2.052 . S
O11 C7 1.241 . S
O12 Co0 2.137 . S
O12 C3 1.247 . S
O13 Co0 2.244 . S
O13 C3 1.272 . S
O13 Co5 2.135 . S
Co14 O15 2.216 . S
Co14 O16 2.091 . S
Co14 O18 2.004 . S
Co14 O24 2.021 . S
Co14 O26 2.137 . S
Co14 O27 2.244 . S
O15 Co14 2.216 . S
O15 C22 1.247 . S
O16 Co14 2.091 . S
O16 C22 1.261 . S
C17 O26 1.247 . S
C17 O27 1.272 . S
O18 Co14 2.004 . S
O18 C23 1.259 . S
Co19 O20 2.061 . S
Co19 O25 2.052 . S
Co19 O27 2.135 . S
O20 Co19 2.061 . S
O20 C23 1.235 . S
C21 O24 1.238 . S
C21 O25 1.241 . S
C22 O15 1.247 . S
C22 O16 1.261 . S
C23 O18 1.259 . S
C23 O20 1.235 . S
O24 Co14 2.021 . S
O24 C21 1.238 . S
O25 Co19 2.052 . S
O25 C21 1.241 . S
O26 Co14 2.137 . S
O26 C17 1.247 . S
O27 Co14 2.244 . S
O27 C17 1.272 . S
O27 Co19 2.135 . S
Co28 O29 2.216 . S
Co28 O30 2.091 . S
Co28 O32 2.004 . S
Co28 O38 2.021 . S
Co28 O40 2.137 . S
Co28 O41 2.244 . S
O29 Co28 2.216 . S
O29 C36 1.247 . S
O30 Co28 2.091 . S
O30 C36 1.261 . S
C31 O40 1.247 . S
C31 O41 1.272 . S
O32 Co28 2.004 . S
O32 C37 1.259 . S
Co33 O34 2.061 . S
Co33 O39 2.052 . S
Co33 O41 2.135 . S
O34 Co33 2.061 . S
O34 C37 1.235 . S
C35 O38 1.238 . S
C35 O39 1.241 . S
C36 O29 1.247 . S
C36 O30 1.261 . S
C37 O32 1.259 . S
C37 O34 1.235 . S
O38 Co28 2.021 . S
O38 C35 1.238 . S
O39 Co33 2.052 . S
O39 C35 1.241 . S
O40 Co28 2.137 . S
O40 C31 1.247 . S
O41 Co28 2.244 . S
O41 C31 1.272 . S
O41 Co33 2.135 . S
Co42 O43 2.216 . S
Co42 O44 2.091 . S
Co42 O46 2.004 . S
Co42 O52 2.021 . S
Co42 O54 2.137 . S
Co42 O55 2.244 . S
O43 Co42 2.216 . S
O43 C50 1.247 . S
O44 Co42 2.091 . S
O44 C50 1.261 . S
C45 O54 1.247 . S
C45 O55 1.272 . S
O46 Co42 2.004 . S
O46 C51 1.259 . S
Co47 O48 2.061 . S
Co47 O53 2.052 . S
Co47 O55 2.135 . S
O48 Co47 2.061 . S
O48 C51 1.235 . S
C49 O52 1.238 . S
C49 O53 1.241 . S
C50 O43 1.247 . S
C50 O44 1.261 . S
C51 O46 1.259 . S
C51 O48 1.235 . S
O52 Co42 2.021 . S
O52 C49 1.238 . S
O53 Co47 2.052 . S
O53 C49 1.241 . S
O54 Co42 2.137 . S
O54 C45 1.247 . S
O55 Co42 2.244 . S
O55 C45 1.272 . S
O55 Co47 2.135 . S
Co56 O57 2.216 . S
Co56 O58 2.091 . S
Co56 O60 2.004 . S
Co56 O66 2.021 . S
Co56 O68 2.137 . S
Co56 O69 2.244 . S
O57 Co56 2.216 . S
O57 C64 1.247 . S
O58 Co56 2.091 . S
O58 C64 1.261 . S
C59 O68 1.247 . S
C59 O69 1.272 . S
O60 Co56 2.004 . S
O60 C65 1.259 . S
Co61 O62 2.061 . S
Co61 O67 2.052 . S
Co61 O69 2.135 . S
O62 Co61 2.061 . S
O62 C65 1.235 . S
C63 O66 1.238 . S
C63 O67 1.241 . S
C64 O57 1.247 . S
C64 O58 1.261 . S
C65 O60 1.259 . S
C65 O62 1.235 . S
O66 Co56 2.021 . S
O66 C63 1.238 . S
O67 Co61 2.052 . S
O67 C63 1.241 . S
O68 Co56 2.137 . S
O68 C59 1.247 . S
O69 Co56 2.244 . S
O69 C59 1.272 . S
O69 Co61 2.135 . S
Co70 O71 2.216 . S
Co70 O72 2.091 . S
Co70 O74 2.004 . S
Co70 O80 2.021 . S
Co70 O82 2.137 . S
Co70 O83 2.244 . S
O71 Co70 2.216 . S
O71 C78 1.247 . S
O72 Co70 2.091 . S
O72 C78 1.261 . S
C73 O82 1.247 . S
C73 O83 1.272 . S
O74 Co70 2.004 . S
O74 C79 1.259 . S
Co75 O76 2.061 . S
Co75 O81 2.052 . S
Co75 O83 2.135 . S
O76 Co75 2.061 . S
O76 C79 1.235 . S
C77 O80 1.238 . S
C77 O81 1.241 . S
C78 O71 1.247 . S
C78 O72 1.261 . S
C79 O74 1.259 . S
C79 O76 1.235 . S
O80 Co70 2.021 . S
O80 C77 1.238 . S
O81 Co75 2.052 . S
O81 C77 1.241 . S
O82 Co70 2.137 . S
O82 C73 1.247 . S
O83 Co70 2.244 . S
O83 C73 1.272 . S
O83 Co75 2.135 . S
Co84 O85 2.216 . S
Co84 O86 2.091 . S
Co84 O88 2.004 . S
Co84 O94 2.021 . S
Co84 O96 2.137 . S
Co84 O97 2.244 . S
O85 Co84 2.216 . S
O85 C92 1.247 . S
O86 Co84 2.091 . S
O86 C92 1.261 . S
C87 O96 1.247 . S
C87 O97 1.272 . S
O88 Co84 2.004 . S
O88 C93 1.259 . S
Co89 O90 2.061 . S
Co89 O95 2.052 . S
Co89 O97 2.135 . S
O90 Co89 2.061 . S
O90 C93 1.235 . S
C91 O94 1.238 . S
C91 O95 1.241 . S
C92 O85 1.247 . S
C92 O86 1.261 . S
C93 O88 1.259 . S
C93 O90 1.235 . S
O94 Co84 2.021 . S
O94 C91 1.238 . S
O95 Co89 2.052 . S
O95 C91 1.241 . S
O96 Co84 2.137 . S
O96 C87 1.247 . S
O97 Co84 2.244 . S
O97 C87 1.272 . S
O97 Co89 2.135 . S
Co98 O99 2.216 . S
Co98 O100 2.091 . S
Co98 O102 2.004 . S
Co98 O108 2.021 . S
Co98 O110 2.137 . S
Co98 O111 2.244 . S
O99 Co98 2.216 . S
O99 C106 1.247 . S
O100 Co98 2.091 . S
O100 C106 1.261 . S
C101 O110 1.247 . S
C101 O111 1.272 . S
O102 Co98 2.004 . S
O102 C107 1.259 . S
Co103 O104 2.061 . S
Co103 O109 2.052 . S
Co103 O111 2.135 . S
O104 Co103 2.061 . S
O104 C107 1.235 . S
C105 O108 1.238 . S
C105 O109 1.241 . S
C106 O99 1.247 . S
C106 O100 1.261 . S
C107 O102 1.259 . S
C107 O104 1.235 . S
O108 Co98 2.021 . S
O108 C105 1.238 . S
O109 Co103 2.052 . S
O109 C105 1.241 . S
O110 Co98 2.137 . S
O110 C101 1.247 . S
O111 Co98 2.244 . S
O111 C101 1.272 . S
O111 Co103 2.135 . S
Co112 O113 2.216 . S
Co112 O114 2.091 . S
Co112 O116 2.004 . S
Co112 O122 2.021 . S
Co112 O124 2.137 . S
Co112 O125 2.244 . S
O113 Co112 2.216 . S
O113 C120 1.247 . S
O114 Co112 2.091 . S
O114 C120 1.261 . S
C115 O124 1.247 . S
C115 O125 1.272 . S
O116 Co112 2.004 . S
O116 C121 1.259 . S
Co117 O118 2.061 . S
Co117 O123 2.052 . S
Co117 O125 2.135 . S
O118 Co117 2.061 . S
O118 C121 1.235 . S
C119 O122 1.238 . S
C119 O123 1.241 . S
C120 O113 1.247 . S
C120 O114 1.261 . S
C121 O116 1.259 . S
C121 O118 1.235 . S
O122 Co112 2.021 . S
O122 C119 1.238 . S
O123 Co117 2.052 . S
O123 C119 1.241 . S
O124 Co112 2.137 . S
O124 C115 1.247 . S
O125 Co112 2.244 . S
O125 C115 1.272 . S
O125 Co117 2.135 . S
Co126 O127 2.216 . S
Co126 O128 2.091 . S
Co126 O130 2.004 . S
Co126 O136 2.021 . S
Co126 O138 2.137 . S
Co126 O139 2.244 . S
O127 Co126 2.216 . S
O127 C134 1.247 . S
O128 Co126 2.091 . S
O128 C134 1.261 . S
C129 O138 1.247 . S
C129 O139 1.272 . S
O130 Co126 2.004 . S
O130 C135 1.259 . S
Co131 O132 2.061 . S
Co131 O137 2.052 . S
Co131 O139 2.135 . S
O132 Co131 2.061 . S
O132 C135 1.235 . S
C133 O136 1.238 . S
C133 O137 1.241 . S
C134 O127 1.247 . S
C134 O128 1.261 . S
C135 O130 1.259 . S
C135 O132 1.235 . S
O136 Co126 2.021 . S
O136 C133 1.238 . S
O137 Co131 2.052 . S
O137 C133 1.241 . S
O138 Co126 2.137 . S
O138 C129 1.247 . S
O139 Co126 2.244 . S
O139 C129 1.272 . S
O139 Co131 2.135 . S
Co140 O141 2.216 . S
Co140 O142 2.091 . S
Co140 O144 2.004 . S
Co140 O150 2.021 . S
Co140 O152 2.137 . S
Co140 O153 2.244 . S
O141 Co140 2.216 . S
O141 C148 1.247 . S
O142 Co140 2.091 . S
O142 C148 1.261 . S
C143 O152 1.247 . S
C143 O153 1.272 . S
O144 Co140 2.004 . S
O144 C149 1.259 . S
Co145 O146 2.061 . S
Co145 O151 2.052 . S
Co145 O153 2.135 . S
O146 Co145 2.061 . S
O146 C149 1.235 . S
C147 O150 1.238 . S
C147 O151 1.241 . S
C148 O141 1.247 . S
C148 O142 1.261 . S
C149 O144 1.259 . S
C149 O146 1.235 . S
O150 Co140 2.021 . S
O150 C147 1.238 . S
O151 Co145 2.052 . S
O151 C147 1.241 . S
O152 Co140 2.137 . S
O152 C143 1.247 . S
O153 Co140 2.244 . S
O153 C143 1.272 . S
O153 Co145 2.135 . S
Co154 O155 2.216 . S
Co154 O156 2.091 . S
Co154 O158 2.004 . S
Co154 O164 2.021 . S
Co154 O166 2.137 . S
Co154 O167 2.244 . S
O155 Co154 2.216 . S
O155 C162 1.247 . S
O156 Co154 2.091 . S
O156 C162 1.261 . S
C157 O166 1.247 . S
C157 O167 1.272 . S
O158 Co154 2.004 . S
O158 C163 1.259 . S
Co159 O160 2.061 . S
Co159 O165 2.052 . S
Co159 O167 2.135 . S
O160 Co159 2.061 . S
O160 C163 1.235 . S
C161 O164 1.238 . S
C161 O165 1.241 . S
C162 O155 1.247 . S
C162 O156 1.261 . S
C163 O158 1.259 . S
C163 O160 1.235 . S
O164 Co154 2.021 . S
O164 C161 1.238 . S
O165 Co159 2.052 . S
O165 C161 1.241 . S
O166 Co154 2.137 . S
O166 C157 1.247 . S
O167 Co154 2.244 . S
O167 C157 1.272 . S
O167 Co159 2.135 . S
Co168 O169 2.216 . S
Co168 O170 2.091 . S
Co168 O172 2.004 . S
Co168 O178 2.021 . S
Co168 O180 2.137 . S
Co168 O181 2.244 . S
O169 Co168 2.216 . S
O169 C176 1.247 . S
O170 Co168 2.091 . S
O170 C176 1.261 . S
C171 O180 1.247 . S
C171 O181 1.272 . S
O172 Co168 2.004 . S
O172 C177 1.259 . S
Co173 O174 2.061 . S
Co173 O179 2.052 . S
Co173 O181 2.135 . S
O174 Co173 2.061 . S
O174 C177 1.235 . S
C175 O178 1.238 . S
C175 O179 1.241 . S
C176 O169 1.247 . S
C176 O170 1.261 . S
C177 O172 1.259 . S
C177 O174 1.235 . S
O178 Co168 2.021 . S
O178 C175 1.238 . S
O179 Co173 2.052 . S
O179 C175 1.241 . S
O180 Co168 2.137 . S
O180 C171 1.247 . S
O181 Co168 2.244 . S
O181 C171 1.272 . S
O181 Co173 2.135 . S
Co182 O183 2.216 . S
Co182 O184 2.091 . S
Co182 O186 2.004 . S
Co182 O192 2.021 . S
Co182 O194 2.137 . S
Co182 O195 2.244 . S
O183 Co182 2.216 . S
O183 C190 1.247 . S
O184 Co182 2.091 . S
O184 C190 1.261 . S
C185 O194 1.247 . S
C185 O195 1.272 . S
O186 Co182 2.004 . S
O186 C191 1.259 . S
Co187 O188 2.061 . S
Co187 O193 2.052 . S
Co187 O195 2.135 . S
O188 Co187 2.061 . S
O188 C191 1.235 . S
C189 O192 1.238 . S
C189 O193 1.241 . S
C190 O183 1.247 . S
C190 O184 1.261 . S
C191 O186 1.259 . S
C191 O188 1.235 . S
O192 Co182 2.021 . S
O192 C189 1.238 . S
O193 Co187 2.052 . S
O193 C189 1.241 . S
O194 Co182 2.137 . S
O194 C185 1.247 . S
O195 Co182 2.244 . S
O195 C185 1.272 . S
O195 Co187 2.135 . S
Co196 O197 2.216 . S
Co196 O198 2.091 . S
Co196 O200 2.004 . S
Co196 O206 2.021 . S
Co196 O208 2.137 . S
Co196 O209 2.244 . S
O197 Co196 2.216 . S
O197 C204 1.247 . S
O198 Co196 2.091 . S
O198 C204 1.261 . S
C199 O208 1.247 . S
C199 O209 1.272 . S
O200 Co196 2.004 . S
O200 C205 1.259 . S
Co201 O202 2.061 . S
Co201 O207 2.052 . S
Co201 O209 2.135 . S
O202 Co201 2.061 . S
O202 C205 1.235 . S
C203 O206 1.238 . S
C203 O207 1.241 . S
C204 O197 1.247 . S
C204 O198 1.261 . S
C205 O200 1.259 . S
C205 O202 1.235 . S
O206 Co196 2.021 . S
O206 C203 1.238 . S
O207 Co201 2.052 . S
O207 C203 1.241 . S
O208 Co196 2.137 . S
O208 C199 1.247 . S
O209 Co196 2.244 . S
O209 C199 1.272 . S
O209 Co201 2.135 . S
Co210 O211 2.216 . S
Co210 O212 2.091 . S
Co210 O214 2.004 . S
Co210 O220 2.021 . S
Co210 O222 2.137 . S
Co210 O223 2.244 . S
O211 Co210 2.216 . S
O211 C218 1.247 . S
O212 Co210 2.091 . S
O212 C218 1.261 . S
C213 O222 1.247 . S
C213 O223 1.272 . S
O214 Co210 2.004 . S
O214 C219 1.259 . S
Co215 O216 2.061 . S
Co215 O221 2.052 . S
Co215 O223 2.135 . S
O216 Co215 2.061 . S
O216 C219 1.235 . S
C217 O220 1.238 . S
C217 O221 1.241 . S
C218 O211 1.247 . S
C218 O212 1.261 . S
C219 O214 1.259 . S
C219 O216 1.235 . S
O220 Co210 2.021 . S
O220 C217 1.238 . S
O221 Co215 2.052 . S
O221 C217 1.241 . S
O222 Co210 2.137 . S
O222 C213 1.247 . S
O223 Co210 2.244 . S
O223 C213 1.272 . S
O223 Co215 2.135 . S
Co224 O225 2.216 . S
Co224 O226 2.091 . S
Co224 O228 2.004 . S
Co224 O234 2.021 . S
Co224 O236 2.137 . S
Co224 O237 2.244 . S
O225 Co224 2.216 . S
O225 C232 1.247 . S
O226 Co224 2.091 . S
O226 C232 1.261 . S
C227 O236 1.247 . S
C227 O237 1.272 . S
O228 Co224 2.004 . S
O228 C233 1.259 . S
Co229 O230 2.061 . S
Co229 O235 2.052 . S
Co229 O237 2.135 . S
O230 Co229 2.061 . S
O230 C233 1.235 . S
C231 O234 1.238 . S
C231 O235 1.241 . S
C232 O225 1.247 . S
C232 O226 1.261 . S
C233 O228 1.259 . S
C233 O230 1.235 . S
O234 Co224 2.021 . S
O234 C231 1.238 . S
O235 Co229 2.052 . S
O235 C231 1.241 . S
O236 Co224 2.137 . S
O236 C227 1.247 . S
O237 Co224 2.244 . S
O237 C227 1.272 . S
O237 Co229 2.135 . S
Co238 O239 2.216 . S
Co238 O240 2.091 . S
Co238 O242 2.004 . S
Co238 O248 2.021 . S
Co238 O250 2.137 . S
Co238 O251 2.244 . S
O239 Co238 2.216 . S
O239 C246 1.247 . S
O240 Co238 2.091 . S
O240 C246 1.261 . S
C241 O250 1.247 . S
C241 O251 1.272 . S
O242 Co238 2.004 . S
O242 C247 1.259 . S
Co243 O244 2.061 . S
Co243 O249 2.052 . S
Co243 O251 2.135 . S
O244 Co243 2.061 . S
O244 C247 1.235 . S
C245 O248 1.238 . S
C245 O249 1.241 . S
C246 O239 1.247 . S
C246 O240 1.261 . S
C247 O242 1.259 . S
C247 O244 1.235 . S
O248 Co238 2.021 . S
O248 C245 1.238 . S
O249 Co243 2.052 . S
O249 C245 1.241 . S
O250 Co238 2.137 . S
O250 C241 1.247 . S
O251 Co238 2.244 . S
O251 C241 1.272 . S
O251 Co243 2.135 . S
Co252 O253 2.216 . S
Co252 O254 2.091 . S
Co252 O256 2.004 . S
Co252 O262 2.021 . S
Co252 O264 2.137 . S
Co252 O265 2.244 . S
O253 Co252 2.216 . S
O253 C260 1.247 . S
O254 Co252 2.091 . S
O254 C260 1.261 . S
C255 O264 1.247 . S
C255 O265 1.272 . S
O256 Co252 2.004 . S
O256 C261 1.259 . S
Co257 O258 2.061 . S
Co257 O263 2.052 . S
Co257 O265 2.135 . S
O258 Co257 2.061 . S
O258 C261 1.235 . S
C259 O262 1.238 . S
C259 O263 1.241 . S
C260 O253 1.247 . S
C260 O254 1.261 . S
C261 O256 1.259 . S
C261 O258 1.235 . S
O262 Co252 2.021 . S
O262 C259 1.238 . S
O263 Co257 2.052 . S
O263 C259 1.241 . S
O264 Co252 2.137 . S
O264 C255 1.247 . S
O265 Co252 2.244 . S
O265 C255 1.272 . S
O265 Co257 2.135 . S
Co266 O267 2.216 . S
Co266 O268 2.091 . S
Co266 O270 2.004 . S
Co266 O276 2.021 . S
Co266 O278 2.137 . S
Co266 O279 2.244 . S
O267 Co266 2.216 . S
O267 C274 1.247 . S
O268 Co266 2.091 . S
O268 C274 1.261 . S
C269 O278 1.247 . S
C269 O279 1.272 . S
O270 Co266 2.004 . S
O270 C275 1.259 . S
Co271 O272 2.061 . S
Co271 O277 2.052 . S
Co271 O279 2.135 . S
O272 Co271 2.061 . S
O272 C275 1.235 . S
C273 O276 1.238 . S
C273 O277 1.241 . S
C274 O267 1.247 . S
C274 O268 1.261 . S
C275 O270 1.259 . S
C275 O272 1.235 . S
O276 Co266 2.021 . S
O276 C273 1.238 . S
O277 Co271 2.052 . S
O277 C273 1.241 . S
O278 Co266 2.137 . S
O278 C269 1.247 . S
O279 Co266 2.244 . S
O279 C269 1.272 . S
O279 Co271 2.135 . S
Co280 O281 2.216 . S
Co280 O282 2.091 . S
Co280 O284 2.004 . S
Co280 O290 2.021 . S
Co280 O292 2.137 . S
Co280 O293 2.244 . S
O281 Co280 2.216 . S
O281 C288 1.247 . S
O282 Co280 2.091 . S
O282 C288 1.261 . S
C283 O292 1.247 . S
C283 O293 1.272 . S
O284 Co280 2.004 . S
O284 C289 1.259 . S
Co285 O286 2.061 . S
Co285 O291 2.052 . S
Co285 O293 2.135 . S
O286 Co285 2.061 . S
O286 C289 1.235 . S
C287 O290 1.238 . S
C287 O291 1.241 . S
C288 O281 1.247 . S
C288 O282 1.261 . S
C289 O284 1.259 . S
C289 O286 1.235 . S
O290 Co280 2.021 . S
O290 C287 1.238 . S
O291 Co285 2.052 . S
O291 C287 1.241 . S
O292 Co280 2.137 . S
O292 C283 1.247 . S
O293 Co280 2.244 . S
O293 C283 1.272 . S
O293 Co285 2.135 . S
Co294 O295 2.216 1_556 S
Co294 O296 2.091 . S
Co294 O298 2.004 . S
Co294 O304 2.021 1_556 S
Co294 O306 2.137 . S
Co294 O307 2.244 . S
O295 Co294 2.216 1_554 S
O295 C302 1.247 . S
O296 Co294 2.091 . S
O296 C302 1.261 1_556 S
C297 O306 1.247 . S
C297 O307 1.272 . S
O298 Co294 2.004 . S
O298 C303 1.259 . S
Co299 O300 2.061 1_554 S
Co299 O305 2.052 . S
Co299 O307 2.135 1_554 S
O300 Co299 2.061 1_556 S
O300 C303 1.235 . S
C301 O304 1.238 . S
C301 O305 1.241 . S
C302 O295 1.247 . S
C302 O296 1.261 1_554 S
C303 O298 1.259 . S
C303 O300 1.235 . S
O304 Co294 2.021 1_554 S
O304 C301 1.238 . S
O305 Co299 2.052 . S
O305 C301 1.241 . S
O306 Co294 2.137 . S
O306 C297 1.247 . S
O307 Co294 2.244 . S
O307 C297 1.272 . S
O307 Co299 2.135 1_556 S
Co308 O309 2.216 1_556 S
Co308 O310 2.091 . S
Co308 O312 2.004 . S
Co308 O318 2.021 1_556 S
Co308 O320 2.137 . S
Co308 O321 2.244 . S
O309 Co308 2.216 1_554 S
O309 C316 1.247 . S
O310 Co308 2.091 . S
O310 C316 1.261 1_556 S
C311 O320 1.247 . S
C311 O321 1.272 . S
O312 Co308 2.004 . S
O312 C317 1.259 . S
Co313 O314 2.061 1_554 S
Co313 O319 2.052 . S
Co313 O321 2.135 1_554 S
O314 Co313 2.061 1_556 S
O314 C317 1.235 . S
C315 O318 1.238 . S
C315 O319 1.241 . S
C316 O309 1.247 . S
C316 O310 1.261 1_554 S
C317 O312 1.259 . S
C317 O314 1.235 . S
O318 Co308 2.021 1_554 S
O318 C315 1.238 . S
O319 Co313 2.052 . S
O319 C315 1.241 . S
O320 Co308 2.137 . S
O320 C311 1.247 . S
O321 Co308 2.244 . S
O321 C311 1.272 . S
O321 Co313 2.135 1_556 S
Co322 O323 2.216 1_556 S
Co322 O324 2.091 . S
Co322 O326 2.004 . S
Co322 O332 2.021 1_556 S
Co322 O334 2.137 . S
Co322 O335 2.244 . S
O323 Co322 2.216 1_554 S
O323 C330 1.247 . S
O324 Co322 2.091 . S
O324 C330 1.261 1_556 S
C325 O334 1.247 . S
C325 O335 1.272 . S
O326 Co322 2.004 . S
O326 C331 1.259 . S
Co327 O328 2.061 1_554 S
Co327 O333 2.052 . S
Co327 O335 2.135 1_554 S
O328 Co327 2.061 1_556 S
O328 C331 1.235 . S
C329 O332 1.238 . S
C329 O333 1.241 . S
C330 O323 1.247 . S
C330 O324 1.261 1_554 S
C331 O326 1.259 . S
C331 O328 1.235 . S
O332 Co322 2.021 1_554 S
O332 C329 1.238 . S
O333 Co327 2.052 . S
O333 C329 1.241 . S
O334 Co322 2.137 . S
O334 C325 1.247 . S
O335 Co322 2.244 . S
O335 C325 1.272 . S
O335 Co327 2.135 1_556 S
Co336 O337 2.216 . S
Co336 O338 2.091 . S
Co336 O340 2.004 . S
Co336 O346 2.021 . S
Co336 O348 2.137 . S
Co336 O349 2.244 . S
O337 Co336 2.216 . S
O337 C344 1.247 . S
O338 Co336 2.091 . S
O338 C344 1.261 . S
C339 O348 1.247 . S
C339 O349 1.272 . S
O340 Co336 2.004 . S
O340 C345 1.259 . S
Co341 O342 2.061 . S
Co341 O347 2.052 . S
Co341 O349 2.135 . S
O342 Co341 2.061 . S
O342 C345 1.235 . S
C343 O346 1.238 . S
C343 O347 1.241 . S
C344 O337 1.247 . S
C344 O338 1.261 . S
C345 O340 1.259 . S
C345 O342 1.235 . S
O346 Co336 2.021 . S
O346 C343 1.238 . S
O347 Co341 2.052 . S
O347 C343 1.241 . S
O348 Co336 2.137 . S
O348 C339 1.247 . S
O349 Co336 2.244 . S
O349 C339 1.272 . S
O349 Co341 2.135 . S
Co350 O351 2.216 . S
Co350 O352 2.091 . S
Co350 O354 2.004 . S
Co350 O360 2.021 . S
Co350 O362 2.137 . S
Co350 O363 2.244 . S
O351 Co350 2.216 . S
O351 C358 1.247 . S
O352 Co350 2.091 . S
O352 C358 1.261 . S
C353 O362 1.247 . S
C353 O363 1.272 . S
O354 Co350 2.004 . S
O354 C359 1.259 . S
Co355 O356 2.061 . S
Co355 O361 2.052 . S
Co355 O363 2.135 . S
O356 Co355 2.061 . S
O356 C359 1.235 . S
C357 O360 1.238 . S
C357 O361 1.241 . S
C358 O351 1.247 . S
C358 O352 1.261 . S
C359 O354 1.259 . S
C359 O356 1.235 . S
O360 Co350 2.021 . S
O360 C357 1.238 . S
O361 Co355 2.052 . S
O361 C357 1.241 . S
O362 Co350 2.137 . S
O362 C353 1.247 . S
O363 Co350 2.244 . S
O363 C353 1.272 . S
O363 Co355 2.135 . S
Co364 O365 2.216 . S
Co364 O366 2.091 . S
Co364 O368 2.004 . S
Co364 O374 2.021 . S
Co364 O376 2.137 . S
Co364 O377 2.244 . S
O365 Co364 2.216 . S
O365 C372 1.247 . S
O366 Co364 2.091 . S
O366 C372 1.261 . S
C367 O376 1.247 . S
C367 O377 1.272 . S
O368 Co364 2.004 . S
O368 C373 1.259 . S
Co369 O370 2.061 . S
Co369 O375 2.052 . S
Co369 O377 2.135 . S
O370 Co369 2.061 . S
O370 C373 1.235 . S
C371 O374 1.238 . S
C371 O375 1.241 . S
C372 O365 1.247 . S
C372 O366 1.261 . S
C373 O368 1.259 . S
C373 O370 1.235 . S
O374 Co364 2.021 . S
O374 C371 1.238 . S
O375 Co369 2.052 . S
O375 C371 1.241 . S
O376 Co364 2.137 . S
O376 C367 1.247 . S
O377 Co364 2.244 . S
O377 C367 1.272 . S
O377 Co369 2.135 . S
Co378 O379 2.216 1_554 S
Co378 O380 2.091 . S
Co378 O382 2.004 . S
Co378 O388 2.021 1_554 S
Co378 O390 2.137 . S
Co378 O391 2.244 . S
O379 Co378 2.216 1_556 S
O379 C386 1.247 . S
O380 Co378 2.091 . S
O380 C386 1.261 1_554 S
C381 O390 1.247 . S
C381 O391 1.272 . S
O382 Co378 2.004 . S
O382 C387 1.259 . S
Co383 O384 2.061 1_556 S
Co383 O389 2.052 . S
Co383 O391 2.135 1_556 S
O384 Co383 2.061 1_554 S
O384 C387 1.235 . S
C385 O388 1.238 . S
C385 O389 1.241 . S
C386 O379 1.247 . S
C386 O380 1.261 1_556 S
C387 O382 1.259 . S
C387 O384 1.235 . S
O388 Co378 2.021 1_556 S
O388 C385 1.238 . S
O389 Co383 2.052 . S
O389 C385 1.241 . S
O390 Co378 2.137 . S
O390 C381 1.247 . S
O391 Co378 2.244 . S
O391 C381 1.272 . S
O391 Co383 2.135 1_554 S
Co392 O393 2.216 1_554 S
Co392 O394 2.091 . S
Co392 O396 2.004 . S
Co392 O402 2.021 1_554 S
Co392 O404 2.137 . S
Co392 O405 2.244 . S
O393 Co392 2.216 1_556 S
O393 C400 1.247 . S
O394 Co392 2.091 . S
O394 C400 1.261 1_554 S
C395 O404 1.247 . S
C395 O405 1.272 . S
O396 Co392 2.004 . S
O396 C401 1.259 . S
Co397 O398 2.061 1_556 S
Co397 O403 2.052 . S
Co397 O405 2.135 1_556 S
O398 Co397 2.061 1_554 S
O398 C401 1.235 . S
C399 O402 1.238 . S
C399 O403 1.241 . S
C400 O393 1.247 . S
C400 O394 1.261 1_556 S
C401 O396 1.259 . S
C401 O398 1.235 . S
O402 Co392 2.021 1_556 S
O402 C399 1.238 . S
O403 Co397 2.052 . S
O403 C399 1.241 . S
O404 Co392 2.137 . S
O404 C395 1.247 . S
O405 Co392 2.244 . S
O405 C395 1.272 . S
O405 Co397 2.135 1_554 S
Co406 O407 2.216 1_554 S
Co406 O408 2.091 . S
Co406 O410 2.004 . S
Co406 O416 2.021 1_554 S
Co406 O418 2.137 . S
Co406 O419 2.244 . S
O407 Co406 2.216 1_556 S
O407 C414 1.247 . S
O408 Co406 2.091 . S
O408 C414 1.261 1_554 S
C409 O418 1.247 . S
C409 O419 1.272 . S
O410 Co406 2.004 . S
O410 C415 1.259 . S
Co411 O412 2.061 1_556 S
Co411 O417 2.052 . S
Co411 O419 2.135 1_556 S
O412 Co411 2.061 1_554 S
O412 C415 1.235 . S
C413 O416 1.238 . S
C413 O417 1.241 . S
C414 O407 1.247 . S
C414 O408 1.261 1_556 S
C415 O410 1.259 . S
C415 O412 1.235 . S
O416 Co406 2.021 1_556 S
O416 C413 1.238 . S
O417 Co411 2.052 . S
O417 C413 1.241 . S
O418 Co406 2.137 . S
O418 C409 1.247 . S
O419 Co406 2.244 . S
O419 C409 1.272 . S
O419 Co411 2.135 1_554 S
Co420 O421 2.216 . S
Co420 O422 2.091 . S
Co420 O424 2.004 . S
Co420 O430 2.021 . S
Co420 O432 2.137 . S
Co420 O433 2.244 . S
O421 Co420 2.216 . S
O421 C428 1.247 . S
O422 Co420 2.091 . S
O422 C428 1.261 . S
C423 O432 1.247 . S
C423 O433 1.272 . S
O424 Co420 2.004 . S
O424 C429 1.259 . S
Co425 O426 2.061 . S
Co425 O431 2.052 . S
Co425 O433 2.135 . S
O426 Co425 2.061 . S
O426 C429 1.235 . S
C427 O430 1.238 . S
C427 O431 1.241 . S
C428 O421 1.247 . S
C428 O422 1.261 . S
C429 O424 1.259 . S
C429 O426 1.235 . S
O430 Co420 2.021 . S
O430 C427 1.238 . S
O431 Co425 2.052 . S
O431 C427 1.241 . S
O432 Co420 2.137 . S
O432 C423 1.247 . S
O433 Co420 2.244 . S
O433 C423 1.272 . S
O433 Co425 2.135 . S
Co434 O435 2.216 . S
Co434 O436 2.091 . S
Co434 O438 2.004 . S
Co434 O444 2.021 . S
Co434 O446 2.137 . S
Co434 O447 2.244 . S
O435 Co434 2.216 . S
O435 C442 1.247 . S
O436 Co434 2.091 . S
O436 C442 1.261 . S
C437 O446 1.247 . S
C437 O447 1.272 . S
O438 Co434 2.004 . S
O438 C443 1.259 . S
Co439 O440 2.061 . S
Co439 O445 2.052 . S
Co439 O447 2.135 . S
O440 Co439 2.061 . S
O440 C443 1.235 . S
C441 O444 1.238 . S
C441 O445 1.241 . S
C442 O435 1.247 . S
C442 O436 1.261 . S
C443 O438 1.259 . S
C443 O440 1.235 . S
O444 Co434 2.021 . S
O444 C441 1.238 . S
O445 Co439 2.052 . S
O445 C441 1.241 . S
O446 Co434 2.137 . S
O446 C437 1.247 . S
O447 Co434 2.244 . S
O447 C437 1.272 . S
O447 Co439 2.135 . S
Co448 O449 2.216 . S
Co448 O450 2.091 . S
Co448 O452 2.004 . S
Co448 O458 2.021 . S
Co448 O460 2.137 . S
Co448 O461 2.244 . S
O449 Co448 2.216 . S
O449 C456 1.247 . S
O450 Co448 2.091 . S
O450 C456 1.261 . S
C451 O460 1.247 . S
C451 O461 1.272 . S
O452 Co448 2.004 . S
O452 C457 1.259 . S
Co453 O454 2.061 . S
Co453 O459 2.052 . S
Co453 O461 2.135 . S
O454 Co453 2.061 . S
O454 C457 1.235 . S
C455 O458 1.238 . S
C455 O459 1.241 . S
C456 O449 1.247 . S
C456 O450 1.261 . S
C457 O452 1.259 . S
C457 O454 1.235 . S
O458 Co448 2.021 . S
O458 C455 1.238 . S
O459 Co453 2.052 . S
O459 C455 1.241 . S
O460 Co448 2.137 . S
O460 C451 1.247 . S
O461 Co448 2.244 . S
O461 C451 1.272 . S
O461 Co453 2.135 . S
Co462 O463 2.216 . S
Co462 O464 2.091 . S
Co462 O466 2.004 . S
Co462 O472 2.021 . S
Co462 O474 2.137 . S
Co462 O475 2.244 . S
O463 Co462 2.216 . S
O463 C470 1.247 . S
O464 Co462 2.091 . S
O464 C470 1.261 . S
C465 O474 1.247 . S
C465 O475 1.272 . S
O466 Co462 2.004 . S
O466 C471 1.259 . S
Co467 O468 2.061 . S
Co467 O473 2.052 . S
Co467 O475 2.135 . S
O468 Co467 2.061 . S
O468 C471 1.235 . S
C469 O472 1.238 . S
C469 O473 1.241 . S
C470 O463 1.247 . S
C470 O464 1.261 . S
C471 O466 1.259 . S
C471 O468 1.235 . S
O472 Co462 2.021 . S
O472 C469 1.238 . S
O473 Co467 2.052 . S
O473 C469 1.241 . S
O474 Co462 2.137 . S
O474 C465 1.247 . S
O475 Co462 2.244 . S
O475 C465 1.272 . S
O475 Co467 2.135 . S
Co476 O477 2.216 . S
Co476 O478 2.091 . S
Co476 O480 2.004 . S
Co476 O486 2.021 . S
Co476 O488 2.137 . S
Co476 O489 2.244 . S
O477 Co476 2.216 . S
O477 C484 1.247 . S
O478 Co476 2.091 . S
O478 C484 1.261 . S
C479 O488 1.247 . S
C479 O489 1.272 . S
O480 Co476 2.004 . S
O480 C485 1.259 . S
Co481 O482 2.061 . S
Co481 O487 2.052 . S
Co481 O489 2.135 . S
O482 Co481 2.061 . S
O482 C485 1.235 . S
C483 O486 1.238 . S
C483 O487 1.241 . S
C484 O477 1.247 . S
C484 O478 1.261 . S
C485 O480 1.259 . S
C485 O482 1.235 . S
O486 Co476 2.021 . S
O486 C483 1.238 . S
O487 Co481 2.052 . S
O487 C483 1.241 . S
O488 Co476 2.137 . S
O488 C479 1.247 . S
O489 Co476 2.244 . S
O489 C479 1.272 . S
O489 Co481 2.135 . S
Co490 O491 2.216 . S
Co490 O492 2.091 . S
Co490 O494 2.004 . S
Co490 O500 2.021 . S
Co490 O502 2.137 . S
Co490 O503 2.244 . S
O491 Co490 2.216 . S
O491 C498 1.247 . S
O492 Co490 2.091 . S
O492 C498 1.261 . S
C493 O502 1.247 . S
C493 O503 1.272 . S
O494 Co490 2.004 . S
O494 C499 1.259 . S
Co495 O496 2.061 . S
Co495 O501 2.052 . S
Co495 O503 2.135 . S
O496 Co495 2.061 . S
O496 C499 1.235 . S
C497 O500 1.238 . S
C497 O501 1.241 . S
C498 O491 1.247 . S
C498 O492 1.261 . S
C499 O494 1.259 . S
C499 O496 1.235 . S
O500 Co490 2.021 . S
O500 C497 1.238 . S
O501 Co495 2.052 . S
O501 C497 1.241 . S
O502 Co490 2.137 . S
O502 C493 1.247 . S
O503 Co490 2.244 . S
O503 C493 1.272 . S
O503 Co495 2.135 . S
C504 C505 1.387 . S
C504 H508 0.950 . S
C504 C513 1.390 . S
C505 C504 1.387 . S
C505 C507 1.387 . S
H506 C513 0.950 . S
C507 C505 1.387 . S
C507 C509 1.390 . S
C507 H511 0.950 . S
H508 C504 0.950 . S
C509 C507 1.390 . S
C509 C510 1.387 . S
C509 H512 0.950 . S
C510 C509 1.387 . S
C510 C513 1.387 . S
H511 C507 0.950 . S
H512 C509 0.950 . S
C513 C504 1.390 . S
C513 H506 0.950 . S
C513 C510 1.387 . S
C514 C515 1.387 . S
C514 H518 0.950 . S
C514 C523 1.390 1_545 S
C515 C514 1.387 . S
C515 C517 1.387 . S
H516 C523 0.950 . S
C517 C515 1.387 . S
C517 C519 1.390 1_545 S
C517 H521 0.950 . S
H518 C514 0.950 . S
C519 C517 1.390 1_565 S
C519 C520 1.387 . S
C519 H522 0.950 . S
C520 C519 1.387 . S
C520 C523 1.387 . S
H521 C517 0.950 . S
H522 C519 0.950 . S
C523 C514 1.390 1_565 S
C523 H516 0.950 . S
C523 C520 1.387 . S
C524 C525 1.387 . S
C524 H528 0.950 . S
C524 C533 1.390 1_655 S
C525 C524 1.387 . S
C525 C527 1.387 . S
H526 C533 0.950 . S
C527 C525 1.387 . S
C527 C529 1.390 1_655 S
C527 H531 0.950 . S
H528 C524 0.950 . S
C529 C527 1.390 1_455 S
C529 C530 1.387 . S
C529 H532 0.950 . S
C530 C529 1.387 . S
C530 C533 1.387 . S
H531 C527 0.950 . S
H532 C529 0.950 . S
C533 C524 1.390 1_455 S
C533 H526 0.950 . S
C533 C530 1.387 . S
C534 C535 1.387 . S
C534 H538 0.950 . S
C534 C543 1.390 . S
C535 C534 1.387 . S
C535 C537 1.387 . S
H536 C543 0.950 . S
C537 C535 1.387 . S
C537 C539 1.390 . S
C537 H541 0.950 . S
H538 C534 0.950 . S
C539 C537 1.390 . S
C539 C540 1.387 . S
C539 H542 0.950 . S
C540 C539 1.387 . S
C540 C543 1.387 . S
H541 C537 0.950 . S
H542 C539 0.950 . S
C543 C534 1.390 . S
C543 H536 0.950 . S
C543 C540 1.387 . S
C544 C545 1.387 . S
C544 H548 0.950 . S
C544 C553 1.390 1_545 S
C545 C544 1.387 . S
C545 C547 1.387 . S
H546 C553 0.950 . S
C547 C545 1.387 . S
C547 C549 1.390 1_545 S
C547 H551 0.950 . S
H548 C544 0.950 . S
C549 C547 1.390 1_565 S
C549 C550 1.387 . S
C549 H552 0.950 . S
C550 C549 1.387 . S
C550 C553 1.387 . S
H551 C547 0.950 . S
H552 C549 0.950 . S
C553 C544 1.390 1_565 S
C553 H546 0.950 . S
C553 C550 1.387 . S
C554 C555 1.387 . S
C554 H558 0.950 . S
C554 C563 1.390 1_455 S
C555 C554 1.387 . S
C555 C557 1.387 . S
H556 C563 0.950 . S
C557 C555 1.387 . S
C557 C559 1.390 1_455 S
C557 H561 0.950 . S
H558 C554 0.950 . S
C559 C557 1.390 1_655 S
C559 C560 1.387 . S
C559 H562 0.950 . S
C560 C559 1.387 . S
C560 C563 1.387 . S
H561 C557 0.950 . S
H562 C559 0.950 . S
C563 C554 1.390 1_655 S
C563 H556 0.950 . S
C563 C560 1.387 . S
C564 C565 1.387 . S
C564 H568 0.950 . S
C564 C573 1.390 . S
C565 C564 1.387 . S
C565 C567 1.387 . S
H566 C573 0.950 . S
C567 C565 1.387 . S
C567 C569 1.390 . S
C567 H571 0.950 . S
H568 C564 0.950 . S
C569 C567 1.390 . S
C569 C570 1.387 . S
C569 H572 0.950 . S
C570 C569 1.387 . S
C570 C573 1.387 . S
H571 C567 0.950 . S
H572 C569 0.950 . S
C573 C564 1.390 . S
C573 H566 0.950 . S
C573 C570 1.387 . S
C574 C575 1.387 . S
C574 H578 0.950 . S
C574 C583 1.390 . S
C575 C574 1.387 . S
C575 C577 1.387 . S
H576 C583 0.950 . S
C577 C575 1.387 . S
C577 C579 1.390 . S
C577 H581 0.950 . S
H578 C574 0.950 . S
C579 C577 1.390 . S
C579 C580 1.387 . S
C579 H582 0.950 . S
C580 C579 1.387 . S
C580 C583 1.387 . S
H581 C577 0.950 . S
H582 C579 0.950 . S
C583 C574 1.390 . S
C583 H576 0.950 . S
C583 C580 1.387 . S
C584 C585 1.387 . S
C584 H588 0.950 . S
C584 C593 1.390 . S
C585 C584 1.387 . S
C585 C587 1.387 . S
H586 C593 0.950 . S
C587 C585 1.387 . S
C587 C589 1.390 . S
C587 H591 0.950 . S
H588 C584 0.950 . S
C589 C587 1.390 . S
C589 C590 1.387 . S
C589 H592 0.950 . S
C590 C589 1.387 . S
C590 C593 1.387 . S
H591 C587 0.950 . S
H592 C589 0.950 . S
C593 C584 1.390 . S
C593 H586 0.950 . S
C593 C590 1.387 . S
C594 C595 1.387 . S
C594 H598 0.956 . S
C594 C603 1.390 . S
C595 C594 1.387 . S
C595 C597 1.387 . S
H596 C603 0.950 1_556 S
C597 C595 1.387 . S
C597 C599 1.390 . S
C597 H601 0.950 . S
H598 C594 0.956 . S
C599 C597 1.390 . S
C599 C600 1.387 . S
C599 H602 0.950 . S
C600 C599 1.387 . S
C600 C603 1.387 . S
H601 C597 0.950 . S
H602 C599 0.950 . S
C603 C594 1.390 . S
C603 H596 0.950 1_554 S
C603 C600 1.387 . S
C604 C605 1.387 . S
C604 H608 0.950 . S
C604 C613 1.390 . S
C605 C604 1.387 . S
C605 C607 1.387 . S
H606 C613 0.950 . S
C607 C605 1.387 . S
C607 C609 1.390 . S
C607 H611 0.950 . S
H608 C604 0.950 . S
C609 C607 1.390 . S
C609 C610 1.387 . S
C609 H612 0.950 . S
C610 C609 1.387 . S
C610 C613 1.387 . S
H611 C607 0.950 . S
H612 C609 0.950 . S
C613 C604 1.390 . S
C613 H606 0.950 . S
C613 C610 1.387 . S
C614 C615 1.387 . S
C614 H618 0.950 . S
C614 C623 1.390 . S
C615 C614 1.387 . S
C615 C617 1.387 . S
H616 C623 0.950 1_556 S
C617 C615 1.387 . S
C617 C619 1.390 . S
C617 H621 0.950 . S
H618 C614 0.950 . S
C619 C617 1.390 . S
C619 C620 1.387 . S
C619 H622 0.950 . S
C620 C619 1.387 . S
C620 C623 1.387 . S
H621 C617 0.950 . S
H622 C619 0.950 . S
C623 C614 1.390 . S
C623 H616 0.950 1_554 S
C623 C620 1.387 . S
C624 C625 1.387 . S
C624 H628 0.950 . S
C624 C633 1.390 . S
C625 C624 1.387 . S
C625 C627 1.387 . S
H626 C633 0.950 . S
C627 C625 1.387 . S
C627 C629 1.390 . S
C627 H631 0.950 . S
H628 C624 0.950 . S
C629 C627 1.390 . S
C629 C630 1.387 . S
C629 H632 0.950 1_556 S
C630 C629 1.387 . S
C630 C633 1.387 . S
H631 C627 0.950 . S
H632 C629 0.950 1_554 S
C633 C624 1.390 . S
C633 H626 0.950 . S
C633 C630 1.387 . S
C634 C635 1.387 . S
C634 H638 0.950 . S
C634 C643 1.390 . S
C635 C634 1.387 . S
C635 C637 1.387 . S
H636 C643 0.950 . S
C637 C635 1.387 . S
C637 C639 1.390 . S
C637 H641 0.950 . S
H638 C634 0.950 . S
C639 C637 1.390 . S
C639 C640 1.387 . S
C639 H642 0.950 . S
C640 C639 1.387 . S
C640 C643 1.387 . S
H641 C637 0.950 . S
H642 C639 0.950 . S
C643 C634 1.390 . S
C643 H636 0.950 . S
C643 C640 1.387 . S
C644 C645 1.387 . S
C644 H648 0.950 . S
C644 C653 1.390 . S
C645 C644 1.387 . S
C645 C647 1.387 . S
H646 C653 0.950 . S
C647 C645 1.387 . S
C647 C649 1.390 . S
C647 H651 0.950 1_556 S
H648 C644 0.950 . S
C649 C647 1.390 . S
C649 C650 1.387 . S
C649 H652 0.950 . S
C650 C649 1.387 . S
C650 C653 1.387 . S
H651 C647 0.950 1_554 S
H652 C649 0.950 . S
C653 C644 1.390 . S
C653 H646 0.950 . S
C653 C650 1.387 . S
C654 C655 1.387 . S
C654 H658 0.950 . S
C654 C663 1.390 . S
C655 C654 1.387 . S
C655 C657 1.387 . S
H656 C663 0.950 . S
C657 C655 1.387 . S
C657 C659 1.390 . S
C657 H661 0.950 . S
H658 C654 0.950 . S
C659 C657 1.390 . S
C659 C660 1.387 . S
C659 H662 0.950 . S
C660 C659 1.387 . S
C660 C663 1.387 . S
H661 C657 0.950 . S
H662 C659 0.950 . S
C663 C654 1.390 . S
C663 H656 0.950 . S
C663 C660 1.387 . S
C664 C665 1.387 . S
C664 H668 0.950 . S
C664 C673 1.390 . S
C665 C664 1.387 . S
C665 C667 1.387 . S
H666 C673 0.950 . S
C667 C665 1.387 . S
C667 C669 1.390 . S
C667 H671 0.950 . S
H668 C664 0.950 . S
C669 C667 1.390 . S
C669 C670 1.387 . S
C669 H672 0.950 . S
C670 C669 1.387 . S
C670 C673 1.387 . S
H671 C667 0.950 . S
H672 C669 0.950 . S
C673 C664 1.390 . S
C673 H666 0.950 . S
C673 C670 1.387 . S
C674 C675 1.387 . S
C674 H678 0.950 . S
C674 C683 1.390 . S
C675 C674 1.387 . S
C675 C677 1.387 . S
H676 C683 0.950 . S
C677 C675 1.387 . S
C677 C679 1.390 . S
C677 H681 0.950 . S
H678 C674 0.950 . S
C679 C677 1.390 . S
C679 C680 1.387 . S
C679 H682 0.950 . S
C680 C679 1.387 . S
C680 C683 1.387 . S
H681 C677 0.950 . S
H682 C679 0.950 . S
C683 C674 1.390 . S
C683 H676 0.950 . S
C683 C680 1.387 . S
C684 C685 1.387 . S
C684 H688 0.950 . S
C684 C693 1.390 . S
C685 C684 1.387 . S
C685 C687 1.387 . S
H686 C693 0.950 . S
C687 C685 1.387 . S
C687 C689 1.390 . S
C687 H691 0.950 . S
H688 C684 0.950 . S
C689 C687 1.390 . S
C689 C690 1.387 . S
C689 H692 0.950 . S
C690 C689 1.387 . S
C690 C693 1.387 . S
H691 C687 0.950 . S
H692 C689 0.950 . S
C693 C684 1.390 . S
C693 H686 0.950 . S
C693 C690 1.387 . S
C694 C695 1.387 . S
C694 H698 0.953 . S
C694 C703 1.390 . S
C695 C694 1.387 . S
C695 C697 1.387 . S
H696 C703 0.950 . S
C697 C695 1.387 . S
C697 C699 1.390 . S
C697 H701 0.950 . S
H698 C694 0.953 . S
C699 C697 1.390 . S
C699 C700 1.387 . S
C699 H702 0.950 . S
C700 C699 1.387 . S
C700 C703 1.387 . S
H701 C697 0.950 . S
H702 C699 0.950 . S
C703 C694 1.390 . S
C703 H696 0.950 . S
C703 C700 1.387 . S
C704 C705 1.387 . S
C704 H708 0.950 . S
C704 C713 1.390 . S
C705 C704 1.387 . S
C705 C707 1.387 . S
H706 C713 0.950 . S
C707 C705 1.387 . S
C707 C709 1.390 . S
C707 H711 0.950 . S
H708 C704 0.950 . S
C709 C707 1.390 . S
C709 C710 1.387 . S
C709 H712 0.950 . S
C710 C709 1.387 . S
C710 C713 1.387 . S
H711 C707 0.950 . S
H712 C709 0.950 . S
C713 C704 1.390 . S
C713 H706 0.950 . S
C713 C710 1.387 . S
C714 C715 1.387 . S
C714 H718 0.950 . S
C714 C723 1.390 . S
C715 C714 1.387 . S
C715 C717 1.387 . S
H716 C723 0.950 . S
C717 C715 1.387 . S
C717 C719 1.390 . S
C717 H721 0.950 . S
H718 C714 0.950 . S
C719 C717 1.390 . S
C719 C720 1.387 . S
C719 H722 0.950 . S
C720 C719 1.387 . S
C720 C723 1.387 . S
H721 C717 0.950 . S
H722 C719 0.950 . S
C723 C714 1.390 . S
C723 H716 0.950 . S
C723 C720 1.387 . S
C724 C725 1.387 . S
C724 H728 0.950 . S
C724 C733 1.390 . S
C725 C724 1.387 . S
C725 C727 1.387 . S
H726 C733 0.950 . S
C727 C725 1.387 . S
C727 C729 1.390 . S
C727 H731 0.950 . S
H728 C724 0.950 . S
C729 C727 1.390 . S
C729 C730 1.387 . S
C729 H732 0.950 . S
C730 C729 1.387 . S
C730 C733 1.387 . S
H731 C727 0.950 . S
H732 C729 0.950 . S
C733 C724 1.390 . S
C733 H726 0.950 . S
C733 C730 1.387 . S
C734 C735 1.387 . S
C734 H738 0.950 . S
C734 C743 1.390 . S
C735 C734 1.387 . S
C735 C737 1.387 . S
H736 C743 0.950 . S
C737 C735 1.387 . S
C737 C739 1.390 . S
C737 H741 0.950 . S
H738 C734 0.950 . S
C739 C737 1.390 . S
C739 C740 1.387 . S
C739 H742 0.950 . S
C740 C739 1.387 . S
C740 C743 1.387 . S
H741 C737 0.950 . S
H742 C739 0.950 . S
C743 C734 1.390 . S
C743 H736 0.950 . S
C743 C740 1.387 . S
C744 C745 1.387 . S
C744 H748 0.950 . S
C744 C753 1.390 . S
C745 C744 1.387 . S
C745 C747 1.387 . S
H746 C753 0.950 . S
C747 C745 1.387 . S
C747 C749 1.390 . S
C747 H751 0.950 . S
H748 C744 0.950 . S
C749 C747 1.390 . S
C749 C750 1.387 . S
C749 H752 0.950 . S
C750 C749 1.387 . S
C750 C753 1.387 . S
H751 C747 0.950 . S
H752 C749 0.950 . S
C753 C744 1.390 . S
C753 H746 0.950 . S
C753 C750 1.387 . S
C754 C755 1.387 . S
C754 H758 0.950 1_554 S
C754 C763 1.390 . S
C755 C754 1.387 . S
C755 C757 1.387 . S
H756 C763 0.950 . S
C757 C755 1.387 . S
C757 C759 1.390 . S
C757 H761 0.950 . S
H758 C754 0.950 1_556 S
C759 C757 1.390 . S
C759 C760 1.387 . S
C759 H762 0.950 . S
C760 C759 1.387 . S
C760 C763 1.387 . S
H761 C757 0.950 . S
H762 C759 0.950 . S
C763 C754 1.390 . S
C763 H756 0.950 . S
C763 C760 1.387 . S
C764 C765 1.387 . S
C764 H768 0.950 . S
C764 C773 1.390 . S
C765 C764 1.387 . S
C765 C767 1.387 . S
H766 C773 0.950 . S
C767 C765 1.387 . S
C767 C769 1.390 . S
C767 H771 0.950 . S
H768 C764 0.950 . S
C769 C767 1.390 . S
C769 C770 1.387 . S
C769 H772 0.950 . S
C770 C769 1.387 . S
C770 C773 1.387 . S
H771 C767 0.950 . S
H772 C769 0.950 . S
C773 C764 1.390 . S
C773 H766 0.950 . S
C773 C770 1.387 . S
C774 C775 1.387 . S
C774 H778 0.950 . S
C774 C783 1.390 . S
C775 C774 1.387 . S
C775 C777 1.387 . S
H776 C783 0.950 . S
C777 C775 1.387 . S
C777 C779 1.390 . S
C777 H781 0.950 . S
H778 C774 0.950 . S
C779 C777 1.390 . S
C779 C780 1.387 . S
C779 H782 0.950 . S
C780 C779 1.387 . S
C780 C783 1.387 . S
H781 C777 0.950 . S
H782 C779 0.950 . S
C783 C774 1.390 . S
C783 H776 0.950 . S
C783 C780 1.387 . S
C784 C785 1.387 . S
C784 H788 0.950 . S
C784 C793 1.390 . S
C785 C784 1.387 . S
C785 C787 1.387 . S
H786 C793 0.950 . S
C787 C785 1.387 . S
C787 C789 1.390 . S
C787 H791 0.950 . S
H788 C784 0.950 . S
C789 C787 1.390 . S
C789 C790 1.387 . S
C789 H792 0.950 . S
C790 C789 1.387 . S
C790 C793 1.387 . S
H791 C787 0.950 . S
H792 C789 0.950 . S
C793 C784 1.390 . S
C793 H786 0.950 . S
C793 C790 1.387 . S
C794 C795 1.387 . S
C794 H798 0.950 . S
C794 C803 1.390 . S
C795 C794 1.387 . S
C795 C797 1.387 . S
H796 C803 0.950 . S
C797 C795 1.387 . S
C797 C799 1.390 . S
C797 H801 0.950 . S
H798 C794 0.950 . S
C799 C797 1.390 . S
C799 C800 1.387 . S
C799 H802 0.950 . S
C800 C799 1.387 . S
C800 C803 1.387 . S
H801 C797 0.950 . S
H802 C799 0.950 . S
C803 C794 1.390 . S
C803 H796 0.950 . S
C803 C800 1.387 . S
C804 C805 1.387 . S
C804 H808 0.950 . S
C804 C813 1.390 . S
C805 C804 1.387 . S
C805 C807 1.387 . S
H806 C813 0.950 . S
C807 C805 1.387 . S
C807 C809 1.390 . S
C807 H811 0.950 . S
H808 C804 0.950 . S
C809 C807 1.390 . S
C809 C810 1.387 . S
C809 H812 0.950 . S
C810 C809 1.387 . S
C810 C813 1.387 . S
H811 C807 0.950 . S
H812 C809 0.950 . S
C813 C804 1.390 . S
C813 H806 0.950 . S
C813 C810 1.387 . S
C814 C815 1.387 . S
C814 H818 0.950 . S
C814 C823 1.390 . S
C815 C814 1.387 . S
C815 C817 1.387 . S
H816 C823 0.950 . S
C817 C815 1.387 . S
C817 C819 1.390 . S
C817 H821 0.950 . S
H818 C814 0.950 . S
C819 C817 1.390 . S
C819 C820 1.387 . S
C819 H822 0.950 . S
C820 C819 1.387 . S
C820 C823 1.387 . S
H821 C817 0.950 . S
H822 C819 0.950 . S
C823 C814 1.390 . S
C823 H816 0.950 . S
C823 C820 1.387 . S
C824 C825 1.387 . S
C824 H828 0.950 . S
C824 C833 1.390 . S
C825 C824 1.387 . S
C825 C827 1.387 . S
H826 C833 0.950 . S
C827 C825 1.387 . S
C827 C829 1.390 . S
C827 H831 0.950 . S
H828 C824 0.950 . S
C829 C827 1.390 . S
C829 C830 1.387 . S
C829 H832 0.950 . S
C830 C829 1.387 . S
C830 C833 1.387 . S
H831 C827 0.950 . S
H832 C829 0.950 . S
C833 C824 1.390 . S
C833 H826 0.950 . S
C833 C830 1.387 . S
C834 C835 1.387 . S
C834 H838 0.950 . S
C834 C843 1.390 . S
C835 C834 1.387 . S
C835 C837 1.387 . S
H836 C843 0.950 . S
C837 C835 1.387 . S
C837 C839 1.390 1_556 S
C837 H841 0.950 . S
H838 C834 0.950 . S
C839 C837 1.390 1_554 S
C839 C840 1.388 . S
C839 H842 0.950 . S
C840 C839 1.388 . S
C840 C843 1.382 1_554 S
H841 C837 0.950 . S
H842 C839 0.950 . S
C843 C834 1.390 . S
C843 H836 0.950 . S
C843 C840 1.382 1_556 S
C844 C845 1.387 1_556 S
C844 H848 0.950 1_556 S
C844 C853 1.390 . S
C845 C844 1.387 1_554 S
C845 C847 1.386 1_554 S
H846 C853 0.950 . S
C847 C845 1.386 1_556 S
C847 C849 1.390 . S
C847 H851 0.950 . S
H848 C844 0.950 1_554 S
C849 C847 1.390 . S
C849 C850 1.387 . S
C849 H852 0.950 . S
C850 C849 1.387 . S
C850 C853 1.387 . S
H851 C847 0.950 . S
H852 C849 0.950 . S
C853 C844 1.390 . S
C853 H846 0.950 . S
C853 C850 1.387 . S
C854 C855 1.387 . S
C854 H858 0.950 . S
C854 C863 1.390 . S
C855 C854 1.387 . S
C855 C857 1.387 . S
H856 C863 0.950 . S
C857 C855 1.387 . S
C857 C859 1.390 . S
C857 H861 0.950 . S
H858 C854 0.950 . S
C859 C857 1.390 . S
C859 C860 1.387 1_556 S
C859 H862 0.950 . S
C860 C859 1.387 1_554 S
C860 C863 1.387 1_554 S
H861 C857 0.950 . S
H862 C859 0.950 . S
C863 C854 1.390 . S
C863 H856 0.950 . S
C863 C860 1.387 1_556 S
C864 C865 1.387 . S
C864 H868 0.950 . S
C864 C873 1.390 . S
C865 C864 1.387 . S
C865 C867 1.387 . S
H866 C873 0.950 . S
C867 C865 1.387 . S
C867 C869 1.390 . S
C867 H871 0.950 . S
H868 C864 0.950 . S
C869 C867 1.390 . S
C869 C870 1.387 . S
C869 H872 0.950 . S
C870 C869 1.387 . S
C870 C873 1.387 . S
H871 C867 0.950 . S
H872 C869 0.950 . S
C873 C864 1.390 . S
C873 H866 0.950 . S
C873 C870 1.387 . S
C874 C875 1.387 . S
C874 H878 0.950 . S
C874 C883 1.390 . S
C875 C874 1.387 . S
C875 C877 1.387 . S
H876 C883 0.950 . S
C877 C875 1.387 . S
C877 C879 1.390 . S
C877 H881 0.950 . S
H878 C874 0.950 . S
C879 C877 1.390 . S
C879 C880 1.387 . S
C879 H882 0.950 . S
C880 C879 1.387 . S
C880 C883 1.387 . S
H881 C877 0.950 . S
H882 C879 0.950 . S
C883 C874 1.390 . S
C883 H876 0.950 . S
C883 C880 1.387 . S
C884 C885 1.387 . S
C884 H888 0.950 . S
C884 C893 1.390 . S
C885 C884 1.387 . S
C885 C887 1.387 . S
H886 C893 0.950 . S
C887 C885 1.387 . S
C887 C889 1.390 . S
C887 H891 0.950 . S
H888 C884 0.950 . S
C889 C887 1.390 . S
C889 C890 1.387 . S
C889 H892 0.950 . S
C890 C889 1.387 . S
C890 C893 1.387 . S
H891 C887 0.950 . S
H892 C889 0.950 . S
C893 C884 1.390 . S
C893 H886 0.950 . S
C893 C890 1.387 . S
C894 C895 1.387 . S
C894 H898 0.950 . S
C894 C903 1.390 . S
C895 C894 1.387 . S
C895 C897 1.387 . S
H896 C903 0.950 . S
C897 C895 1.387 . S
C897 C899 1.390 . S
C897 H901 0.950 . S
H898 C894 0.950 . S
C899 C897 1.390 . S
C899 C900 1.387 . S
C899 H902 0.950 . S
C900 C899 1.387 . S
C900 C903 1.387 . S
H901 C897 0.950 . S
H902 C899 0.950 . S
C903 C894 1.390 . S
C903 H896 0.950 . S
C903 C900 1.387 . S
C904 C905 1.387 . S
C904 H908 0.950 . S
C904 C913 1.390 . S
C905 C904 1.387 . S
C905 C907 1.387 . S
H906 C913 0.950 . S
C907 C905 1.387 . S
C907 C909 1.390 . S
C907 H911 0.950 . S
H908 C904 0.950 . S
C909 C907 1.390 . S
C909 C910 1.387 . S
C909 H912 0.950 . S
C910 C909 1.387 . S
C910 C913 1.387 . S
H911 C907 0.950 . S
H912 C909 0.950 . S
C913 C904 1.390 . S
C913 H906 0.950 . S
C913 C910 1.387 . S
C914 C915 1.387 . S
C914 H918 0.950 . S
C914 C923 1.390 . S
C915 C914 1.387 . S
C915 C917 1.387 . S
H916 C923 0.950 . S
C917 C915 1.387 . S
C917 C919 1.390 . S
C917 H921 0.950 . S
H918 C914 0.950 . S
C919 C917 1.390 . S
C919 C920 1.387 . S
C919 H922 0.950 . S
C920 C919 1.387 . S
C920 C923 1.387 . S
H921 C917 0.950 . S
H922 C919 0.950 . S
C923 C914 1.390 . S
C923 H916 0.950 . S
C923 C920 1.387 . S
C924 C925 1.387 . S
C924 H928 0.950 . S
C924 C933 1.390 . S
C925 C924 1.387 . S
C925 C927 1.387 . S
H926 C933 0.950 . S
C927 C925 1.387 . S
C927 C929 1.390 . S
C927 H931 0.950 . S
H928 C924 0.950 . S
C929 C927 1.390 . S
C929 C930 1.387 . S
C929 H932 0.950 . S
C930 C929 1.387 . S
C930 C933 1.387 . S
H931 C927 0.950 . S
H932 C929 0.950 . S
C933 C924 1.390 . S
C933 H926 0.950 . S
C933 C930 1.387 . S
C934 C935 1.387 . S
C934 H938 0.950 . S
C934 C943 1.390 . S
C935 C934 1.387 . S
C935 C937 1.387 . S
H936 C943 0.950 . S
C937 C935 1.387 . S
C937 C939 1.390 . S
C937 H941 0.950 . S
H938 C934 0.950 . S
C939 C937 1.390 . S
C939 C940 1.387 . S
C939 H942 0.950 . S
C940 C939 1.387 . S
C940 C943 1.387 . S
H941 C937 0.950 . S
H942 C939 0.950 . S
C943 C934 1.390 . S
C943 H936 0.950 . S
C943 C940 1.387 . S
C944 C945 1.387 . S
C944 H948 0.950 . S
C944 C953 1.390 . S
C945 C944 1.387 . S
C945 C947 1.387 . S
H946 C953 0.950 . S
C947 C945 1.387 . S
C947 C949 1.390 . S
C947 H951 0.950 . S
H948 C944 0.950 . S
C949 C947 1.390 . S
C949 C950 1.387 . S
C949 H952 0.950 . S
C950 C949 1.387 . S
C950 C953 1.387 . S
H951 C947 0.950 . S
H952 C949 0.950 . S
C953 C944 1.390 . S
C953 H946 0.950 . S
C953 C950 1.387 . S
C954 C955 1.387 . S
C954 H958 0.950 . S
C954 C963 1.390 . S
C955 C954 1.387 . S
C955 C957 1.387 . S
H956 C963 0.950 . S
C957 C955 1.387 . S
C957 C959 1.390 . S
C957 H961 0.950 . S
H958 C954 0.950 . S
C959 C957 1.390 . S
C959 C960 1.387 . S
C959 H962 0.950 . S
C960 C959 1.387 . S
C960 C963 1.387 . S
H961 C957 0.950 . S
H962 C959 0.950 . S
C963 C954 1.390 . S
C963 H956 0.950 . S
C963 C960 1.387 . S
C964 C965 1.387 . S
C964 H968 0.950 . S
C964 C973 1.390 . S
C965 C964 1.387 . S
C965 C967 1.387 . S
H966 C973 0.950 . S
C967 C965 1.387 . S
C967 C969 1.390 . S
C967 H971 0.950 . S
H968 C964 0.950 . S
C969 C967 1.390 . S
C969 C970 1.387 . S
C969 H972 0.950 . S
C970 C969 1.387 . S
C970 C973 1.387 . S
H971 C967 0.950 . S
H972 C969 0.950 . S
C973 C964 1.390 . S
C973 H966 0.950 . S
C973 C970 1.387 . S
C974 C975 1.387 . S
C974 H978 0.950 . S
C974 C983 1.390 . S
C975 C974 1.387 . S
C975 C977 1.387 . S
H976 C983 0.950 . S
C977 C975 1.387 . S
C977 C979 1.390 . S
C977 H981 0.950 . S
H978 C974 0.950 . S
C979 C977 1.390 . S
C979 C980 1.387 . S
C979 H982 0.950 . S
C980 C979 1.387 . S
C980 C983 1.387 . S
H981 C977 0.950 . S
H982 C979 0.950 . S
C983 C974 1.390 . S
C983 H976 0.950 . S
C983 C980 1.387 . S
C984 C985 1.387 . S
C984 H988 0.950 . S
C984 C993 1.390 . S
C985 C984 1.387 . S
C985 C987 1.387 . S
H986 C993 0.950 . S
C987 C985 1.387 . S
C987 C989 1.390 . S
C987 H991 0.950 . S
H988 C984 0.950 . S
C989 C987 1.390 . S
C989 C990 1.387 . S
C989 H992 0.950 . S
C990 C989 1.387 . S
C990 C993 1.387 . S
H991 C987 0.950 . S
H992 C989 0.950 . S
C993 C984 1.390 . S
C993 H986 0.950 . S
C993 C990 1.387 . S
C994 C995 1.387 . S
C994 H998 0.950 . S
C994 C1003 1.390 . S
C995 C994 1.387 . S
C995 C997 1.387 . S
H996 C1003 0.950 . S
C997 C995 1.387 . S
C997 C999 1.390 . S
C997 H1001 0.950 . S
H998 C994 0.950 . S
C999 C997 1.390 . S
C999 C1000 1.387 . S
C999 H1002 0.950 . S
C1000 C999 1.387 . S
C1000 C1003 1.387 . S
H1001 C997 0.950 . S
H1002 C999 0.950 . S
C1003 C994 1.390 . S
C1003 H996 0.950 . S
C1003 C1000 1.387 . S
C1004 C1005 1.387 . S
C1004 H1008 0.950 . S
C1004 C1013 1.390 . S
C1005 C1004 1.387 . S
C1005 C1007 1.387 . S
H1006 C1013 0.950 . S
C1007 C1005 1.387 . S
C1007 C1009 1.390 . S
C1007 H1011 0.950 . S
H1008 C1004 0.950 . S
C1009 C1007 1.390 . S
C1009 C1010 1.387 . S
C1009 H1012 0.950 . S
C1010 C1009 1.387 . S
C1010 C1013 1.387 . S
H1011 C1007 0.950 . S
H1012 C1009 0.950 . S
C1013 C1004 1.390 . S
C1013 H1006 0.950 . S
C1013 C1010 1.387 . S
C1014 C1015 1.387 1_554 S
C1014 H1018 0.950 1_554 S
C1014 C1023 1.390 . S
C1015 C1014 1.387 1_556 S
C1015 C1017 1.382 1_556 S
H1016 C1023 0.950 . S
C1017 C1015 1.382 1_554 S
C1017 C1019 1.390 . S
C1017 H1021 0.950 . S
H1018 C1014 0.950 1_556 S
C1019 C1017 1.390 . S
C1019 C1020 1.387 . S
C1019 H1022 0.950 . S
C1020 C1019 1.387 . S
C1020 C1023 1.387 . S
H1021 C1017 0.950 . S
H1022 C1019 0.950 . S
C1023 C1014 1.390 . S
C1023 H1016 0.950 . S
C1023 C1020 1.387 . S
C1024 C1025 1.384 1_554 S
C1024 H1028 0.950 . S
C1024 C1033 1.390 . S
C1025 C1024 1.384 1_556 S
C1025 C1027 1.385 1_556 S
H1026 C1033 0.950 . S
C1027 C1025 1.385 1_554 S
C1027 C1029 1.390 . S
C1027 H1031 0.950 . S
H1028 C1024 0.950 . S
C1029 C1027 1.390 . S
C1029 C1030 1.387 . S
C1029 H1032 0.950 . S
C1030 C1029 1.387 . S
C1030 C1033 1.387 . S
H1031 C1027 0.950 . S
H1032 C1029 0.950 . S
C1033 C1024 1.390 . S
C1033 H1026 0.950 . S
C1033 C1030 1.387 . S
C1034 C1035 1.384 1_554 S
C1034 H1038 0.950 . S
C1034 C1043 1.390 . S
C1035 C1034 1.384 1_556 S
C1035 C1037 1.385 1_556 S
H1036 C1043 0.950 . S
C1037 C1035 1.385 1_554 S
C1037 C1039 1.390 . S
C1037 H1041 0.952 . S
H1038 C1034 0.950 . S
C1039 C1037 1.390 . S
C1039 C1040 1.387 . S
C1039 H1042 0.950 . S
C1040 C1039 1.387 . S
C1040 C1043 1.387 . S
H1041 C1037 0.952 . S
H1042 C1039 0.950 . S
C1043 C1034 1.390 . S
C1043 H1036 0.950 . S
C1043 C1040 1.387 . S
C1044 C1045 1.387 . S
C1044 H1048 0.950 . S
C1044 C1053 1.390 . S
C1045 C1044 1.387 . S
C1045 C1047 1.387 . S
H1046 C1053 0.950 . S
C1047 C1045 1.387 . S
C1047 C1049 1.390 . S
C1047 H1051 0.950 . S
H1048 C1044 0.950 . S
C1049 C1047 1.390 . S
C1049 C1050 1.387 . S
C1049 H1052 0.950 . S
C1050 C1049 1.387 . S
C1050 C1053 1.387 . S
H1051 C1047 0.950 . S
H1052 C1049 0.950 . S
C1053 C1044 1.390 . S
C1053 H1046 0.950 . S
C1053 C1050 1.387 . S
C1054 C1055 1.387 . S
C1054 H1058 0.950 . S
C1054 C1063 1.390 . S
C1055 C1054 1.387 . S
C1055 C1057 1.387 . S
H1056 C1063 0.950 . S
C1057 C1055 1.387 . S
C1057 C1059 1.388 1_554 S
C1057 H1061 0.950 1_554 S
H1058 C1054 0.950 . S
C1059 C1057 1.388 1_556 S
C1059 C1060 1.377 1_556 S
C1059 H1062 0.962 . S
C1060 C1059 1.377 1_554 S
C1060 C1063 1.387 . S
H1061 C1057 0.950 1_556 S
H1062 C1059 0.962 . S
C1063 C1054 1.390 . S
C1063 H1056 0.950 . S
C1063 C1060 1.387 . S
C1064 C1065 1.387 . S
C1064 H1068 0.950 1_554 S
C1064 C1073 1.390 . S
C1065 C1064 1.387 . S
C1065 C1067 1.387 . S
H1066 C1073 0.950 1_556 S
C1067 C1065 1.387 . S
C1067 C1069 1.390 . S
C1067 H1071 0.950 . S
H1068 C1064 0.950 1_556 S
C1069 C1067 1.390 . S
C1069 C1070 1.387 . S
C1069 H1072 0.950 . S
C1070 C1069 1.387 . S
C1070 C1073 1.387 . S
H1071 C1067 0.950 . S
H1072 C1069 0.950 . S
C1073 C1064 1.390 . S
C1073 H1066 0.950 1_554 S
C1073 C1070 1.387 . S
C1074 C1075 1.387 . S
C1074 H1078 0.950 . S
C1074 C1083 1.390 . S
C1075 C1074 1.387 . S
C1075 C1077 1.387 . S
H1076 C1083 0.950 . S
C1077 C1075 1.387 . S
C1077 C1079 1.390 . S
C1077 H1081 0.950 . S
H1078 C1074 0.950 . S
C1079 C1077 1.390 . S
C1079 C1080 1.387 . S
C1079 H1082 0.950 . S
C1080 C1079 1.387 . S
C1080 C1083 1.387 . S
H1081 C1077 0.950 . S
H1082 C1079 0.950 . S
C1083 C1074 1.390 . S
C1083 H1076 0.950 . S
C1083 C1080 1.387 . S
C1084 C1085 1.387 . S
C1084 H1088 0.950 . S
C1084 C1093 1.390 . S
C1085 C1084 1.387 . S
C1085 C1087 1.387 . S
H1086 C1093 0.950 . S
C1087 C1085 1.387 . S
C1087 C1089 1.390 . S
C1087 H1091 0.950 . S
H1088 C1084 0.950 . S
C1089 C1087 1.390 . S
C1089 C1090 1.387 . S
C1089 H1092 0.950 . S
C1090 C1089 1.387 . S
C1090 C1093 1.387 . S
H1091 C1087 0.950 . S
H1092 C1089 0.950 . S
C1093 C1084 1.390 . S
C1093 H1086 0.950 . S
C1093 C1090 1.387 . S
C1094 C1095 1.387 . S
C1094 H1098 0.950 . S
C1094 C1103 1.390 . S
C1095 C1094 1.387 . S
C1095 C1097 1.387 . S
H1096 C1103 0.950 . S
C1097 C1095 1.387 . S
C1097 C1099 1.390 . S
C1097 H1101 0.950 . S
H1098 C1094 0.950 . S
C1099 C1097 1.390 . S
C1099 C1100 1.387 . S
C1099 H1102 0.950 . S
C1100 C1099 1.387 . S
C1100 C1103 1.387 . S
H1101 C1097 0.950 . S
H1102 C1099 0.950 . S
C1103 C1094 1.390 . S
C1103 H1096 0.950 . S
C1103 C1100 1.387 . S
C1104 C1105 1.387 . S
C1104 H1108 0.950 . S
C1104 C1113 1.390 . S
C1105 C1104 1.387 . S
C1105 C1107 1.387 . S
H1106 C1113 0.950 . S
C1107 C1105 1.387 . S
C1107 C1109 1.390 . S
C1107 H1111 0.950 . S
H1108 C1104 0.950 . S
C1109 C1107 1.390 . S
C1109 C1110 1.387 . S
C1109 H1112 0.950 . S
C1110 C1109 1.387 . S
C1110 C1113 1.387 . S
H1111 C1107 0.950 . S
H1112 C1109 0.950 . S
C1113 C1104 1.390 . S
C1113 H1106 0.950 . S
C1113 C1110 1.387 . S
C1114 C1115 1.387 . S
C1114 H1118 0.950 . S
C1114 C1123 1.390 . S
C1115 C1114 1.387 . S
C1115 C1117 1.387 . S
H1116 C1123 0.950 . S
C1117 C1115 1.387 . S
C1117 C1119 1.390 . S
C1117 H1121 0.950 1_556 S
H1118 C1114 0.950 . S
C1119 C1117 1.390 . S
C1119 C1120 1.387 . S
C1119 H1122 0.950 1_556 S
C1120 C1119 1.387 . S
C1120 C1123 1.387 . S
H1121 C1117 0.950 1_554 S
H1122 C1119 0.950 1_554 S
C1123 C1114 1.390 . S
C1123 H1116 0.950 . S
C1123 C1120 1.387 . S
C1124 C1125 1.387 . S
C1124 H1128 0.950 . S
C1124 C1133 1.390 . S
C1125 C1124 1.387 . S
C1125 C1127 1.387 . S
H1126 C1133 0.950 . S
C1127 C1125 1.387 . S
C1127 C1129 1.389 1_556 S
C1127 H1131 0.950 1_556 S
H1128 C1124 0.950 . S
C1129 C1127 1.389 1_554 S
C1129 C1130 1.380 1_554 S
C1129 H1132 0.959 . S
C1130 C1129 1.380 1_556 S
C1130 C1133 1.387 . S
H1131 C1127 0.950 1_554 S
H1132 C1129 0.959 . S
C1133 C1124 1.390 . S
C1133 H1126 0.950 . S
C1133 C1130 1.387 . S
C1134 C1135 1.387 . S
C1134 H1138 0.950 . S
C1134 C1143 1.390 . S
C1135 C1134 1.387 . S
C1135 C1137 1.387 . S
H1136 C1143 0.950 . S
C1137 C1135 1.387 . S
C1137 C1139 1.390 . S
C1137 H1141 0.950 . S
H1138 C1134 0.950 . S
C1139 C1137 1.390 . S
C1139 C1140 1.387 . S
C1139 H1142 0.950 . S
C1140 C1139 1.387 . S
C1140 C1143 1.387 . S
H1141 C1137 0.950 . S
H1142 C1139 0.950 . S
C1143 C1134 1.390 . S
C1143 H1136 0.950 . S
C1143 C1140 1.387 . S
C1144 C1145 1.387 . S
C1144 H1148 0.950 . S
C1144 C1153 1.390 . S
C1145 C1144 1.387 . S
C1145 C1147 1.387 . S
H1146 C1153 0.950 . S
C1147 C1145 1.387 . S
C1147 C1149 1.390 . S
C1147 H1151 0.950 . S
H1148 C1144 0.950 . S
C1149 C1147 1.390 . S
C1149 C1150 1.387 . S
C1149 H1152 0.950 . S
C1150 C1149 1.387 . S
C1150 C1153 1.387 . S
H1151 C1147 0.950 . S
H1152 C1149 0.950 . S
C1153 C1144 1.390 . S
C1153 H1146 0.950 . S
C1153 C1150 1.387 . S
C1154 C1155 1.387 . S
C1154 H1158 0.950 . S
C1154 C1163 1.390 . S
C1155 C1154 1.387 . S
C1155 C1157 1.387 . S
H1156 C1163 0.950 . S
C1157 C1155 1.387 . S
C1157 C1159 1.390 . S
C1157 H1161 0.950 . S
H1158 C1154 0.950 . S
C1159 C1157 1.390 . S
C1159 C1160 1.387 . S
C1159 H1162 0.950 . S
C1160 C1159 1.387 . S
C1160 C1163 1.387 . S
H1161 C1157 0.950 . S
H1162 C1159 0.950 . S
C1163 C1154 1.390 . S
C1163 H1156 0.950 . S
C1163 C1160 1.387 . S
C1164 C1165 1.387 . S
C1164 H1168 0.950 . S
C1164 C1173 1.390 1_455 S
C1165 C1164 1.387 . S
C1165 C1167 1.387 . S
H1166 C1173 0.950 . S
C1167 C1165 1.387 . S
C1167 C1169 1.390 1_455 S
C1167 H1171 0.950 . S
H1168 C1164 0.950 . S
C1169 C1167 1.390 1_655 S
C1169 C1170 1.387 . S
C1169 H1172 0.950 . S
C1170 C1169 1.387 . S
C1170 C1173 1.387 . S
H1171 C1167 0.950 . S
H1172 C1169 0.950 . S
C1173 C1164 1.390 1_655 S
C1173 H1166 0.950 . S
C1173 C1170 1.387 . S
C1174 C1175 1.387 . S
C1174 H1178 0.950 . S
C1174 C1183 1.390 . S
C1175 C1174 1.387 . S
C1175 C1177 1.387 . S
H1176 C1183 0.950 . S
C1177 C1175 1.387 . S
C1177 C1179 1.390 . S
C1177 H1181 0.950 . S
H1178 C1174 0.950 . S
C1179 C1177 1.390 . S
C1179 C1180 1.387 . S
C1179 H1182 0.950 . S
C1180 C1179 1.387 . S
C1180 C1183 1.387 . S
H1181 C1177 0.950 . S
H1182 C1179 0.950 . S
C1183 C1174 1.390 . S
C1183 H1176 0.950 . S
C1183 C1180 1.387 . S
C1184 C1185 1.387 . S
C1184 H1188 0.950 . S
C1184 C1193 1.390 1_565 S
C1185 C1184 1.387 . S
C1185 C1187 1.387 . S
H1186 C1193 0.950 . S
C1187 C1185 1.387 . S
C1187 C1189 1.390 1_565 S
C1187 H1191 0.950 . S
H1188 C1184 0.950 . S
C1189 C1187 1.390 1_545 S
C1189 C1190 1.387 . S
C1189 H1192 0.950 . S
C1190 C1189 1.387 . S
C1190 C1193 1.387 . S
H1191 C1187 0.950 . S
H1192 C1189 0.950 . S
C1193 C1184 1.390 1_545 S
C1193 H1186 0.950 . S
C1193 C1190 1.387 . S
C1194 C1195 1.387 . S
C1194 H1198 0.950 . S
C1194 C1203 1.390 1_545 S
C1195 C1194 1.387 . S
C1195 C1197 1.387 . S
H1196 C1203 0.950 . S
C1197 C1195 1.387 . S
C1197 C1199 1.390 1_545 S
C1197 H1201 0.950 . S
H1198 C1194 0.950 . S
C1199 C1197 1.390 1_565 S
C1199 C1200 1.387 . S
C1199 H1202 0.950 . S
C1200 C1199 1.387 . S
C1200 C1203 1.387 . S
H1201 C1197 0.950 . S
H1202 C1199 0.950 . S
C1203 C1194 1.390 1_565 S
C1203 H1196 0.950 . S
C1203 C1200 1.387 . S
C1204 C1205 1.387 . S
C1204 H1208 0.950 . S
C1204 C1213 1.390 1_455 S
C1205 C1204 1.387 . S
C1205 C1207 1.387 . S
H1206 C1213 0.950 . S
C1207 C1205 1.387 . S
C1207 C1209 1.390 1_455 S
C1207 H1211 0.950 . S
H1208 C1204 0.950 . S
C1209 C1207 1.390 1_655 S
C1209 C1210 1.387 . S
C1209 H1212 0.950 . S
C1210 C1209 1.387 . S
C1210 C1213 1.387 . S
H1211 C1207 0.950 . S
H1212 C1209 0.950 . S
C1213 C1204 1.390 1_655 S
C1213 H1206 0.950 . S
C1213 C1210 1.387 . S
C1214 C1215 1.387 . S
C1214 H1218 0.950 . S
C1214 C1223 1.390 . S
C1215 C1214 1.387 . S
C1215 C1217 1.387 . S
H1216 C1223 0.950 . S
C1217 C1215 1.387 . S
C1217 C1219 1.390 . S
C1217 H1221 0.950 . S
H1218 C1214 0.950 . S
C1219 C1217 1.390 . S
C1219 C1220 1.387 . S
C1219 H1222 0.950 . S
C1220 C1219 1.387 . S
C1220 C1223 1.387 . S
H1221 C1217 0.950 . S
H1222 C1219 0.950 . S
C1223 C1214 1.390 . S
C1223 H1216 0.950 . S
C1223 C1220 1.387 . S
C505 C50 1.235 . S
C510 C8 1.235 . S
C515 C64 1.235 . S
C520 C22 1.236 . S
C525 C78 1.236 . S
C530 C36 1.235 . S
C535 C92 1.235 . S
C540 C134 1.235 . S
C545 C106 1.236 . S
C550 C148 1.236 . S
C555 C162 1.235 . S
C560 C120 1.236 . S
C565 C176 1.226 . S
C570 C218 1.226 . S
C575 C190 1.226 . S
C580 C232 1.226 . S
C585 C204 1.226 . S
C590 C246 1.226 . S
C595 C260 1.224 . S
C600 C302 1.223 . S
C605 C316 1.224 . S
C610 C274 1.224 . S
C615 C288 1.224 . S
C620 C330 1.223 . S
C625 C344 1.224 . S
C630 C386 1.223 . S
C635 C358 1.224 . S
C640 C400 1.224 . S
C645 C414 1.224 . S
C650 C372 1.224 . S
C655 C470 1.226 . S
C660 C428 1.226 . S
C665 C484 1.226 . S
C670 C442 1.226 . S
C675 C498 1.226 . S
C680 C456 1.226 . S
C685 C161 1.490 . S
C690 C9 1.532 1_556 S
C695 C23 1.532 1_556 S
C700 C133 1.487 . S
C705 C37 1.532 1_556 S
C710 C147 1.487 . S
C715 C105 1.498 . S
C720 C51 1.539 . S
C725 C65 1.540 . S
C730 C119 1.498 . S
C735 C91 1.498 . S
C740 C79 1.540 . S
C745 C93 1.531 1_554 S
C750 C77 1.488 . S
C755 C107 1.530 1_554 S
C760 C49 1.490 . S
C765 C63 1.488 . S
C770 C121 1.532 1_554 S
C775 C21 1.497 . S
C780 C135 1.540 . S
C785 C35 1.498 . S
C790 C149 1.540 . S
C795 C163 1.540 . S
C800 C7 1.496 . S
C805 C177 1.510 . S
C810 C329 1.465 . S
C815 C301 1.464 . S
C820 C191 1.509 . S
C825 C315 1.464 . S
C830 C205 1.511 . S
C835 C219 1.540 . S
C840 C273 1.488 . S
C845 C287 1.488 . S
C850 C233 1.538 . S
C855 C247 1.539 . S
C860 C259 1.487 . S
C865 C261 1.535 . S
C870 C245 1.482 . S
C875 C275 1.536 . S
C880 C217 1.483 . S
C885 C231 1.481 . S
C890 C289 1.537 . S
C895 C189 1.506 . S
C900 C303 1.558 . S
C905 C203 1.509 . S
C910 C317 1.556 . S
C915 C331 1.555 . S
C920 C175 1.508 . S
C925 C497 1.483 . S
C930 C345 1.536 . S
C935 C359 1.535 . S
C940 C469 1.484 . S
C945 C373 1.534 . S
C950 C483 1.483 . S
C955 C387 1.555 . S
C960 C441 1.510 . S
C965 C455 1.507 . S
C970 C401 1.557 . S
C975 C415 1.555 . S
C980 C427 1.507 . S
C985 C413 1.466 . S
C990 C429 1.510 . S
C995 C385 1.466 . S
C1000 C443 1.509 . S
C1005 C399 1.463 . S
C1010 C457 1.511 . S
C1015 C357 1.490 . S
C1020 C471 1.539 . S
C1025 C371 1.491 . S
C1030 C485 1.538 . S
C1035 C343 1.492 . S
C1040 C499 1.538 . S
C1045 C409 1.449 . S
C1050 C3 1.449 . S
C1055 C17 1.448 . S
C1060 C381 1.451 . S
C1065 C395 1.449 . S
C1070 C31 1.450 . S
C1075 C45 1.452 . S
C1080 C185 1.451 . S
C1085 C199 1.451 . S
C1090 C59 1.452 . S
C1095 C73 1.451 . S
C1100 C171 1.451 . S
C1105 C87 1.449 . S
C1110 C325 1.450 . S
C1115 C297 1.449 . S
C1120 C101 1.450 . S
C1125 C115 1.450 . S
C1130 C311 1.449 . S
C1135 C129 1.451 . S
C1140 C437 1.452 . S
C1145 C143 1.452 . S
C1150 C451 1.451 . S
C1155 C423 1.452 . S
C1160 C157 1.452 . S
C1165 C353 1.454 . S
C1170 C213 1.453 . S
C1175 C367 1.454 . S
C1180 C227 1.453 . S
C1185 C339 1.453 . S
C1190 C241 1.453 . S
C1195 C255 1.454 . S
C1200 C493 1.454 . S
C1205 C465 1.454 . S
C1210 C269 1.453 . S
C1215 C283 1.454 . S
C1220 C479 1.453 . S
