# Generated by pormake.
# Topology ukg, (4)-cn, num edge types: 1
# Building blocks:
#     Node 0, Type 0, BuildingBlock: ESEHIV_clean_sbu_0, # of connection points: 4
#     Node 1, Type 0, BuildingBlock: ESEHIV_clean_sbu_0, # of connection points: 4
#     Node 2, Type 0, BuildingBlock: ESEHIV_clean_sbu_0, # of connection points: 4
#     Node 3, Type 0, BuildingBlock: ESEHIV_clean_sbu_0, # of connection points: 4
#     Node 4, Type 0, BuildingBlock: ESEHIV_clean_sbu_0, # of connection points: 4
#     Node 5, Type 0, BuildingBlock: ESEHIV_clean_sbu_0, # of connection points: 4
#     Node 6, Type 0, BuildingBlock: ESEHIV_clean_sbu_0, # of connection points: 4
#     Node 7, Type 0, BuildingBlock: ESEHIV_clean_sbu_0, # of connection points: 4
#     Edge 8, Type (0, 0), BuildingBlock: EZIPEK_clean_linker_0, # of connection points: 2
#     Edge 9, Type (0, 0), BuildingBlock: EZIPEK_clean_linker_0, # of connection points: 2
#     Edge 10, Type (0, 0), BuildingBlock: EZIPEK_clean_linker_0, # of connection points: 2
#     Edge 11, Type (0, 0), BuildingBlock: EZIPEK_clean_linker_0, # of connection points: 2
#     Edge 12, Type (0, 0), BuildingBlock: EZIPEK_clean_linker_0, # of connection points: 2
#     Edge 13, Type (0, 0), BuildingBlock: EZIPEK_clean_linker_0, # of connection points: 2
#     Edge 14, Type (0, 0), BuildingBlock: EZIPEK_clean_linker_0, # of connection points: 2
#     Edge 15, Type (0, 0), BuildingBlock: EZIPEK_clean_linker_0, # of connection points: 2
#     Edge 16, Type (0, 0), BuildingBlock: EZIPEK_clean_linker_0, # of connection points: 2
#     Edge 17, Type (0, 0), BuildingBlock: EZIPEK_clean_linker_0, # of connection points: 2
#     Edge 18, Type (0, 0), BuildingBlock: EZIPEK_clean_linker_0, # of connection points: 2
#     Edge 19, Type (0, 0), BuildingBlock: EZIPEK_clean_linker_0, # of connection points: 2
#     Edge 20, Type (0, 0), BuildingBlock: EZIPEK_clean_linker_0, # of connection points: 2
#     Edge 21, Type (0, 0), BuildingBlock: EZIPEK_clean_linker_0, # of connection points: 2
#     Edge 22, Type (0, 0), BuildingBlock: EZIPEK_clean_linker_0, # of connection points: 2
#     Edge 23, Type (0, 0), BuildingBlock: EZIPEK_clean_linker_0, # of connection points: 2
# Relax obj value: 0.138
# Max RMSD: 0.199
# Mean RMSD: 0.179
data_MOF--net-ukg--node1-ESEHIV_clean_sbu_0--edge1-EZIPEK_clean_linker_0
_symmetry_space_group_name_H-M    P1
_symmetry_Int_Tables_number       1
_symmetry_cell_setting            triclinic
loop_
_symmetry_equiv_pos_as_xyz
'x, y, z'
_cell_length_a     23.63545
_cell_length_b     23.684307
_cell_length_c     32.31751
_cell_angle_alpha  90.522973
_cell_angle_beta   90.403449
_cell_angle_gamma 90.466775
loop_
_atom_site_label
_atom_site_type_symbol
_atom_site_fract_x
_atom_site_fract_y
_atom_site_fract_z
_atom_type_partial_charge
Cu0 Cu 0.06859 0.67751 0.16132 0.0
N1 N 1.02834 0.74537 0.15988 0.0
N2 N 0.98384 0.81917 0.18793 0.0
C3 C 1.00094 0.7656 0.1932 0.0
C4 C 1.00099 0.83367 0.14977 0.0
C5 C 1.02835 0.7879 0.13241 0.0
O6 O 1.02469 0.63215 0.20052 0.0
C7 C 0.17433 0.7342 0.15842 0.0
O8 O 0.15343 0.75016 0.12272 0.0
H9 H 0.99662 0.7427 0.22186 0.0
H10 H 0.04954 0.78728 0.10294 0.0
N11 N 0.07032 0.63929 0.10964 0.0
N12 N 0.06978 0.57024 0.06161 0.0
C13 C 0.06846 0.58282 0.10254 0.0
C14 C 0.0732 0.66263 0.07184 0.0
C15 C 0.07299 0.62027 0.04228 0.0
C16 C 0.97466 0.61669 0.18973 0.0
O17 O 0.95814 0.62451 0.15132 0.0
H18 H 0.06605 0.55164 0.12675 0.0
H19 H 0.07552 0.70735 0.06595 0.0
O20 O 0.14571 0.69956 0.18035 0.0
H21 H 0.99622 0.87504 0.13628 0.0
H22 H 0.07512 0.62565 1.00909 0.0
Cu23 Cu 0.37412 0.58688 0.65106 0.0
N24 N 0.30844 0.54613 0.63828 0.0
N25 N 0.22991 0.49725 0.65142 0.0
C26 C 0.27063 0.53125 0.66709 0.0
C27 C 0.24165 0.4908 0.6109 0.0
C28 C 0.29054 0.52132 0.60278 0.0
O29 O 0.41812 0.54136 0.69155 0.0
C30 C 0.30775 0.68727 0.65666 0.0
O31 O 0.28866 0.668 0.62092 0.0
H32 H 0.27458 0.54274 0.6995 0.0
H33 H 0.3126 0.52343 0.57362 0.0
N34 N 0.41782 0.60029 0.60321 0.0
N35 N 0.47663 0.59077 0.54916 0.0
C36 C 0.44527 0.56362 0.57804 0.0
C37 C 0.43185 0.65189 0.5893 0.0
C38 C 0.46789 0.6462 0.55621 0.0
C39 C 0.41085 0.48793 0.69575 0.0
O40 O 0.37536 0.46164 0.67065 0.0
H41 H 0.44398 0.51823 0.58168 0.0
H42 H 0.41802 0.69116 0.60308 0.0
O43 O 0.34679 0.65962 0.67519 0.0
H44 H 0.21806 0.4642 0.58939 0.0
H45 H 0.48746 0.68024 0.53919 0.0
Cu46 Cu 0.47869 0.92958 0.18325 0.0
N47 N 0.53361 0.87287 0.18544 0.0
N48 N 0.59589 0.81554 0.21578 0.0
C49 C 0.55685 0.85571 0.22129 0.0
C50 C 0.59736 0.80601 0.17457 0.0
C51 C 0.55891 0.84188 0.1558 0.0
O52 O 0.50779 0.98614 0.22344 0.0
C53 C 0.38775 0.8516 0.17692 0.0
O54 O 0.41994 0.83209 0.14715 0.0
H55 H 0.54532 0.87165 0.25133 0.0
H56 H 0.5501 0.84508 0.12302 0.0
N57 N 0.4708 0.96255 0.13005 0.0
N58 N 0.48132 1.01451 0.07235 0.0
C59 C 0.50772 0.9907 0.10544 0.0
C60 C 0.42018 0.96819 0.11127 0.0
C61 C 0.42641 0.99991 0.07618 0.0
C62 C 0.509 0.97708 0.26231 0.0
O63 O 0.47425 0.93907 0.27746 0.0
H64 H 0.55233 0.99569 0.11248 0.0
H65 H 0.38073 0.95203 0.12311 0.0
O66 O 0.4054 0.89422 0.19816 0.0
H67 H 0.6243 0.77566 0.15929 0.0
H68 H 0.39273 1.01283 0.05553 0.0
Cu69 Cu 0.10611 0.97931 0.71913 0.0
N70 N 0.152 0.04087 0.73527 0.0
N71 N 0.19946 0.10335 0.77488 0.0
C72 C 0.16795 0.05549 0.77415 0.0
C73 C 0.20352 0.11953 0.73516 0.0
C74 C 0.17401 0.08116 0.71086 0.0
O75 O 0.04366 0.97282 0.75871 0.0
C76 C 0.19511 0.89938 0.69765 0.0
O77 O 0.21665 0.94172 0.67689 0.0
H78 H 0.15664 0.03173 0.80135 0.0
H79 H 0.16846 0.08321 0.67774 0.0
N80 N 0.07608 0.98939 0.66509 0.0
N81 N 1.01772 0.99437 0.61011 0.0
C82 C 1.02193 0.98439 0.65121 0.0
C83 C 0.10656 1.00169 0.6312 0.0
C84 C 0.07082 1.00509 0.59749 0.0
C85 C 1.01829 1.00368 0.78559 0.0
O86 O 0.97769 0.97987 0.807 0.0
H87 H 0.9864 0.97364 0.67065 0.0
H88 H 0.15191 1.00756 0.63085 0.0
O89 O 0.15009 0.90754 0.71876 0.0
H90 H 0.22565 0.15689 0.72466 0.0
H91 H 0.08278 1.01469 0.56604 0.0
Cu92 Cu 1.01015 0.34621 0.87318 0.0
N93 N 0.93522 0.36356 0.85975 0.0
N94 N 0.84272 0.37804 0.86841 0.0
C95 C 0.88833 0.34822 0.88057 0.0
C96 C 0.86148 0.41322 0.83887 0.0
C97 C 0.91853 0.40425 0.83363 0.0
O98 O 1.02084 0.38031 0.92826 0.0
C99 C 1.00175 0.23718 0.83592 0.0
O100 O 0.96087 0.26182 0.81529 0.0
H101 H 0.88818 0.31812 0.90558 0.0
H102 H 0.94652 0.42796 0.81382 0.0
N103 N 0.05847 0.38658 0.83878 0.0
N104 N 0.10546 0.41926 0.7844 0.0
C105 C 0.0639 0.38427 0.79726 0.0
C106 C 0.09755 0.42429 0.85216 0.0
C107 C 0.12663 0.44448 0.81868 0.0
C108 C 0.05975 0.37449 0.95528 0.0
O109 O 0.09682 0.33385 0.95105 0.0
H110 H 0.03844 0.35752 0.77704 0.0
H111 H 0.10447 0.43627 0.88413 0.0
O112 O 1.02712 0.26526 0.86466 0.0
H113 H 0.83596 0.44425 0.82314 0.0
H114 H 0.16071 0.47531 0.81928 0.0
Cu115 Cu 0.74399 0.55612 0.38315 0.0
N116 N 0.79144 0.51707 0.41928 0.0
N117 N 0.83128 0.43361 0.43215 0.0
C118 C 0.78365 0.4608 0.42146 0.0
C119 C 0.87042 0.47457 0.43868 0.0
C120 C 0.84564 0.52626 0.43087 0.0
O121 O 0.66669 0.53644 0.40097 0.0
C122 C 0.82319 0.56203 0.3225 0.0
O123 O 0.84564 0.59178 0.35294 0.0
H124 H 0.74639 0.43958 0.40905 0.0
H125 H 0.86754 0.56638 0.42888 0.0
N126 N 0.74267 0.63458 0.38104 0.0
N127 N 0.71581 0.71257 0.3484 0.0
C128 C 0.71327 0.65611 0.34935 0.0
C129 C 0.76508 0.67939 0.40151 0.0
C130 C 0.74809 0.72817 0.38129 0.0
C131 C 0.65747 0.55474 0.43777 0.0
O132 O 0.69891 0.58087 0.45758 0.0
H133 H 0.68995 0.63036 0.32712 0.0
H134 H 0.79195 0.67687 0.42865 0.0
O135 O 0.7746 0.53853 0.32785 0.0
H136 H 0.91495 0.46728 0.44436 0.0
H137 H 0.75865 0.7713 0.38984 0.0
Cu138 Cu 0.48661 0.27106 0.89772 0.0
N139 N 0.53194 0.32166 0.92786 0.0
N140 N 0.61733 0.36304 0.9301 0.0
C141 C 0.58819 0.31434 0.92536 0.0
C142 C 0.57792 0.40275 0.93738 0.0
C143 C 0.52504 0.37703 0.93604 0.0
O144 O 0.51203 0.19575 0.91609 0.0
C145 C 0.46605 0.3452 0.83415 0.0
O146 O 0.43478 0.36459 0.86446 0.0
H147 H 0.60671 0.27596 0.91326 0.0
H148 H 0.48486 0.39852 0.93517 0.0
N149 N 0.4087 0.2683 0.90661 0.0
N150 N 0.32325 0.23248 0.89197 0.0
C151 C 0.3763 0.2407 0.87866 0.0
C152 C 0.37472 0.27846 0.93914 0.0
C153 C 0.32151 0.25599 0.93013 0.0
C154 C 0.50415 0.18916 0.95504 0.0
O155 O 0.48405 0.23199 0.97627 0.0
H156 H 0.39252 0.22351 0.84997 0.0
H157 H 0.38837 0.29744 0.96813 0.0
O158 O 0.4939 0.29956 0.84028 0.0
H159 H 0.58619 0.44777 0.93838 0.0
H160 H 0.2855 0.25444 0.95061 0.0
Cu161 Cu 0.80546 0.0364 0.40482 0.0
N162 N 0.84224 0.10561 0.39654 0.0
N163 N 0.8615 0.19777 0.40219 0.0
C164 C 0.823 0.15653 0.40868 0.0
C165 C 0.90666 0.17224 0.38533 0.0
C166 C 0.89478 0.11519 0.3821 0.0
O167 O 0.81892 1.0187 0.46347 0.0
C168 C 0.69144 1.00298 0.38221 0.0
O169 O 0.70362 0.95487 0.39993 0.0
H170 H 0.78198 0.16317 0.42251 0.0
H171 H 0.92303 0.08285 0.37097 0.0
N172 N 0.83739 0.9784 0.37304 0.0
N173 N 0.87655 0.92775 0.32237 0.0
C174 C 0.86431 0.98017 0.33634 0.0
C175 C 0.83295 0.92322 0.3823 0.0
C176 C 0.85702 0.8919 0.35112 0.0
C177 C 0.87097 1.01124 0.47302 0.0
O178 O 0.90897 1.01267 0.44362 0.0
H179 H 0.87391 1.01863 0.3199 0.0
H180 H 0.81273 0.90693 0.40968 0.0
O181 O 0.72698 0.04374 0.38461 0.0
H182 H 0.94538 0.19336 0.37632 0.0
H183 H 0.86023 0.84634 0.34961 0.0
C184 C 0.11704 0.45006 0.99384 0.0
C185 C 0.0657 0.41852 0.98877 0.0
C186 C 1.01795 0.48523 0.03577 0.0
C187 C 0.06941 0.51539 0.04147 0.0
N188 N 0.17008 0.51975 0.03438 0.0
N189 N 0.97119 0.39875 1.01262 0.0
C190 C 0.11967 0.49523 1.02331 0.0
C191 C 1.01734 0.43389 1.01224 0.0
N192 N 0.16205 0.44007 0.96854 0.0
N193 N 0.96921 0.50713 0.05137 0.0
H194 H 0.96997 0.36024 0.99669 0.0
H195 H 0.93649 0.40496 0.03176 0.0
H196 H 0.96872 0.54414 0.06912 0.0
H197 H 0.92912 0.49094 0.04445 0.0
H198 H 0.19773 0.46609 0.96765 0.0
H199 H 0.16233 0.40884 0.9457 0.0
H200 H 0.20919 0.50374 1.02569 0.0
H201 H 0.17269 0.55313 0.05565 0.0
C202 C 0.56499 0.53923 0.53096 0.0
C203 C 0.51533 0.56802 0.51856 0.0
C204 C 0.55306 0.57545 0.44774 0.0
C205 C 0.60291 0.54718 0.46046 0.0
N206 N 0.64789 0.48666 0.50983 0.0
N207 N 0.45548 0.59942 0.46324 0.0
C208 C 0.60565 0.52361 0.50064 0.0
C209 C 0.50726 0.58125 0.47614 0.0
N210 N 0.57576 0.53079 0.57199 0.0
N211 N 0.55075 0.59983 0.40965 0.0
H212 H 0.42144 0.60305 0.48348 0.0
H213 H 0.44489 0.60551 0.43227 0.0
H214 H 0.58271 0.59532 0.38784 0.0
H215 H 0.51862 0.62695 0.40051 0.0
H216 H 0.61416 0.51569 0.58315 0.0
H217 H 0.54841 0.5435 0.59533 0.0
H218 H 0.64968 0.46413 0.53734 0.0
H219 H 0.67774 0.47425 0.48795 0.0
C220 C 0.52911 0.10426 0.05048 0.0
C221 C 0.50297 0.0517 0.04032 0.0
C222 C 0.49094 0.08342 0.96813 0.0
C223 C 0.51643 0.13619 0.97869 0.0
N224 N 0.57874 0.18698 1.02522 0.0
N225 N 0.47621 0.98521 0.98705 0.0
C226 C 0.54227 0.14284 1.01829 0.0
C227 C 0.48988 0.03935 0.99815 0.0
N228 N 0.53704 0.11991 0.09087 0.0
N229 N 0.46457 0.07621 0.93073 0.0
H230 H 0.47649 0.95241 1.00842 0.0
H231 H 0.47055 0.97206 0.95645 0.0
H232 H 0.4653 0.10661 0.90768 0.0
H233 H 0.43937 0.04118 0.92345 0.0
H234 H 0.55036 0.16028 0.09982 0.0
H235 H 0.52521 0.09482 0.11564 0.0
H236 H 0.60248 0.19164 0.05236 0.0
H237 H 0.58971 0.21516 1.00187 0.0
C238 C 0.91461 0.94948 0.52692 0.0
C239 C 0.89142 1.00262 0.51629 0.0
C240 C 0.94113 0.04709 0.57544 0.0
C241 C 0.96791 0.99505 0.58381 0.0
N242 N 0.97349 0.895 0.57407 0.0
N243 N 0.87221 0.09914 0.53457 0.0
C244 C 0.95186 0.9455 0.56177 0.0
C245 C 0.90085 0.05042 0.54234 0.0
N246 N 0.90251 0.90353 0.50242 0.0
N247 N 0.95674 0.09369 0.59812 0.0
H248 H 0.84293 0.10239 0.51042 0.0
H249 H 0.87426 0.13507 0.55326 0.0
H250 H 0.98487 0.09141 0.62308 0.0
H251 H 0.94351 0.13452 0.59191 0.0
H252 H 0.92156 0.86436 0.50538 0.0
H253 H 0.87307 0.90504 0.47823 0.0
H254 H 0.9619 0.85608 0.56137 0.0
H255 H 1.00128 0.8919 0.59916 0.0
C256 C 0.27821 0.73303 0.17946 0.0
C257 C 0.22709 0.76316 0.1741 0.0
C258 C 0.27996 0.85333 0.17992 0.0
C259 C 0.3315 0.82318 0.18396 0.0
N260 N 0.37741 0.73568 0.20001 0.0
N261 N 0.17716 0.85089 0.18058 0.0
C262 C 0.32971 0.76336 0.18776 0.0
C263 C 0.22745 0.82301 0.1781 0.0
N264 N 0.27822 0.67571 0.17435 0.0
N265 N 0.28103 0.9106 0.17527 0.0
H266 H 0.13818 0.83001 0.17908 0.0
H267 H 0.17392 0.89362 0.18798 0.0
H268 H 0.31764 0.93496 0.17836 0.0
H269 H 0.24597 0.93392 0.16623 0.0
H270 H 0.31497 0.65187 0.17278 0.0
H271 H 0.24134 0.65218 0.16912 0.0
H272 H 0.37812 0.69287 0.20702 0.0
H273 H 0.41512 0.75691 0.20726 0.0
C274 C 0.31153 0.78805 0.68625 0.0
C275 C 0.27995 0.73872 0.6753 0.0
C276 C 0.19161 0.79326 0.68193 0.0
C277 C 0.22293 0.84218 0.69446 0.0
N278 N 0.31174 0.88067 0.71926 0.0
N279 N 0.18947 0.69109 0.67531 0.0
C280 C 0.28264 0.83776 0.69995 0.0
C281 C 0.21983 0.74041 0.67721 0.0
N282 N 0.36891 0.78876 0.68154 0.0
N283 N 0.1356 0.79749 0.67177 0.0
H284 H 0.20866 0.65165 0.67323 0.0
H285 H 0.14604 0.68893 0.68048 0.0
H286 H 0.11329 0.83518 0.67329 0.0
H287 H 0.11251 0.76461 0.658 0.0
H288 H 0.39341 0.82537 0.68428 0.0
H289 H 0.39166 0.75367 0.6717 0.0
H290 H 0.35422 0.8779 0.72775 0.0
H291 H 0.2919 0.91666 0.7308 0.0
C292 C 0.71917 0.38331 0.94224 0.0
C293 C 0.67374 0.37225 0.91453 0.0
C294 C 0.74058 0.36054 0.85752 0.0
C295 C 0.78588 0.37533 0.88448 0.0
N296 N 0.81757 0.41185 0.95055 0.0
N297 N 0.63969 0.36399 0.84436 0.0
C298 C 0.77503 0.38979 0.92643 0.0
C299 C 0.68407 0.3651 0.87164 0.0
N300 N 0.70886 0.38621 0.98369 0.0
N301 N 0.75179 0.33971 0.81892 0.0
H302 H 0.59789 0.36894 0.85371 0.0
H303 H 0.64468 0.36405 0.81236 0.0
H304 H 0.79289 0.33382 0.80826 0.0
H305 H 0.72073 0.32307 0.79919 0.0
H306 H 0.74071 0.38836 1.00608 0.0
H307 H 0.6681 0.38267 0.99566 0.0
H308 H 0.81135 0.42782 0.98028 0.0
H309 H 0.85829 0.41886 0.93941 0.0
C310 C 0.85145 0.33781 0.45837 0.0
C311 C 0.84175 0.37435 0.42464 0.0
C312 C 0.84207 0.29331 0.37662 0.0
C313 C 0.85493 0.25734 0.40996 0.0
N314 N 0.87878 0.24427 0.48149 0.0
N315 N 0.83726 0.38882 0.35095 0.0
C316 C 0.86161 0.27935 0.45064 0.0
C317 C 0.83973 0.35257 0.3835 0.0
N318 N 0.84903 0.359 0.49774 0.0
N319 N 0.83022 0.27028 0.3386 0.0
H320 H 0.83507 0.43237 0.35479 0.0
H321 H 0.84196 0.37632 0.32021 0.0
H322 H 0.83186 0.22693 0.33275 0.0
H323 H 0.81448 0.29328 0.31381 0.0
H324 H 0.8504 0.33416 0.52411 0.0
H325 H 0.84196 0.40168 0.50391 0.0
H326 H 0.88942 0.25801 0.51124 0.0
H327 H 0.88602 0.20137 0.47637 0.0
C328 C 0.83762 0.60055 0.25164 0.0
C329 C 0.85452 0.56217 0.28261 0.0
C330 C 0.94606 0.55099 0.24741 0.0
C331 C 0.9327 0.5964 0.22086 0.0
N332 N 0.86836 0.67175 0.20337 0.0
N333 N 0.92836 0.50581 0.31298 0.0
C334 C 0.87884 0.62277 0.22406 0.0
C335 C 0.90962 0.53838 0.28112 0.0
N336 N 0.78253 0.61722 0.24936 0.0
N337 N 0.99292 0.51913 0.24005 0.0
H338 H 0.90301 0.49522 0.33801 0.0
H339 H 0.9702 0.49288 0.31605 0.0
H340 H 1.02002 0.52656 0.21531 0.0
H341 H 1.00172 0.48213 0.25596 0.0
H342 H 0.76657 0.64161 0.22535 0.0
H343 H 0.75154 0.60164 0.26908 0.0
H344 H 0.83229 0.6959 0.20807 0.0
H345 H 0.89817 0.69193 0.18496 0.0
C346 C 0.44729 0.47578 0.77033 0.0
C347 C 0.43917 0.45411 0.72945 0.0
C348 C 0.46006 0.35837 0.7554 0.0
C349 C 0.46938 0.38066 0.79578 0.0
N350 N 0.49502 0.46318 0.83606 0.0
N351 N 0.46029 0.37784 0.6819 0.0
C352 C 0.47097 0.4403 0.80117 0.0
C353 C 0.45279 0.39632 0.72161 0.0
N354 N 0.42868 0.52825 0.78129 0.0
N355 N 0.45517 0.30148 0.74918 0.0
H356 H 0.45938 0.40507 0.6567 0.0
H357 H 0.47439 0.33737 0.67466 0.0
H358 H 0.4604 0.27225 0.77275 0.0
H359 H 0.4419 0.28372 0.72109 0.0
H360 H 0.42901 0.54276 0.81185 0.0
H361 H 0.4072 0.555 0.76142 0.0
H362 H 0.5014 0.5065 0.84011 0.0
H363 H 0.51464 0.43838 0.85838 0.0
C364 C 0.54727 1.02158 0.32856 0.0
C365 C 0.55788 0.99692 0.289 0.0
C366 C 0.65595 0.97823 0.31076 0.0
C367 C 0.64588 1.00391 0.34983 0.0
N368 N 0.58553 0.05931 0.39352 0.0
N369 N 0.62882 0.96871 0.23897 0.0
C370 C 0.59264 1.0288 0.35788 0.0
C371 C 0.61417 0.98078 0.27891 0.0
N372 N 0.49346 0.03736 0.33826 0.0
N373 N 0.705 0.94943 0.30422 0.0
H374 H 0.60139 0.97117 0.21387 0.0
H375 H 0.67048 0.96241 0.22978 0.0
H376 H 0.73828 0.94868 0.32548 0.0
H377 H 0.71078 0.92246 0.279 0.0
H378 H 0.48095 0.04906 0.36791 0.0
H379 H 0.46053 0.03684 0.31657 0.0
H380 H 0.54975 0.08316 0.39976 0.0
H381 H 0.61749 0.06401 0.41576 0.0
C382 C 1.03019 0.13528 0.85185 0.0
C383 C 1.0195 0.17873 0.82276 0.0
C384 C 1.02045 0.10766 0.76642 0.0
C385 C 1.03179 0.06447 0.79533 0.0
N386 N 0.06483 0.04036 0.86337 0.0
N387 N 1.02594 0.20745 0.75137 0.0
C388 C 0.04275 0.07964 0.83729 0.0
C389 C 1.02126 0.16522 0.7797 0.0
N390 N 1.02429 0.14545 0.89327 0.0
N391 N 1.00542 0.09391 0.72679 0.0
H392 H 1.03083 0.24978 0.75994 0.0
H393 H 1.03247 0.19985 0.71996 0.0
H394 H 1.00364 0.05237 0.7163 0.0
H395 H 0.99042 0.12323 0.7056 0.0
H396 H 1.0255 0.11368 0.91533 0.0
H397 H 1.01291 0.18446 0.90556 0.0
H398 H 0.07882 0.04996 0.89328 0.0
H399 H 0.07477 0.99961 0.85334 0.0
C400 C 0.16721 0.39488 0.72612 0.0
C401 C 0.12471 0.42964 0.74304 0.0
C402 C 0.13984 0.49911 0.68846 0.0
C403 C 0.18803 0.46876 0.67577 0.0
N404 N 0.24788 0.3876 0.68022 0.0
N405 N 0.06572 0.51121 0.7397 0.0
C406 C 0.20099 0.41576 0.6933 0.0
C407 C 0.10886 0.48033 0.72341 0.0
N408 N 0.17575 0.34264 0.74241 0.0
N409 N 0.12529 0.54664 0.66742 0.0
H410 H 0.04161 0.49667 0.76443 0.0
H411 H 0.05411 0.55102 0.72952 0.0
H412 H 0.14813 0.56047 0.64184 0.0
H413 H 0.0895 0.5705 0.67345 0.0
H414 H 0.20331 0.31295 0.73015 0.0
H415 H 0.15169 0.32744 0.76686 0.0
H416 H 0.26385 0.35177 0.69438 0.0
H417 H 0.27238 0.40156 0.65558 0.0
C418 C 0.62695 0.74371 0.31638 0.0
C419 C 0.6868 0.74627 0.31811 0.0
C420 C 0.68711 0.79649 0.25183 0.0
C421 C 0.62755 0.78898 0.24862 0.0
N422 N 0.54112 0.75092 0.27667 0.0
N423 N 0.77497 0.76815 0.28502 0.0
C424 C 0.59781 0.76131 0.28058 0.0
C425 C 0.7173 0.77113 0.2852 0.0
N426 N 0.59644 0.72321 0.34857 0.0
N427 N 0.71439 0.82983 0.224 0.0
H428 H 0.79799 0.75034 0.30918 0.0
H429 H 0.79973 0.77984 0.25994 0.0
H430 H 0.69341 0.8503 0.20005 0.0
H431 H 0.75684 0.84107 0.2268 0.0
H432 H 0.61442 0.71075 0.37661 0.0
H433 H 0.61442 0.71075 0.37661 0.0
H434 H 0.5177 0.7311 0.29974 0.0
H435 H 0.5185 0.75932 0.24962 0.0
C436 C 0.29372 0.13885 0.86635 0.0
C437 C 0.28209 0.19706 0.87105 0.0
C438 C 0.20546 0.18817 0.82004 0.0
C439 C 0.22352 0.13263 0.81033 0.0
N440 N 0.2877 0.0559 0.82199 0.0
N441 N 0.22785 0.2784 0.85288 0.0
C442 C 0.26779 0.10767 0.83343 0.0
C443 C 0.23739 0.22188 0.84859 0.0
N444 N 0.33034 0.11402 0.89333 0.0
N445 N 0.15758 0.20831 0.80186 0.0
H446 H 0.25024 0.30357 0.8741 0.0
H447 H 0.19993 0.30077 0.83429 0.0
H448 H 0.13471 0.18478 0.78003 0.0
H449 H 0.13816 0.2457 0.81088 0.0
H450 H 0.33744 0.07071 0.89409 0.0
H451 H 0.34952 0.13656 0.91763 0.0
H452 H 0.32371 0.03786 0.83486 0.0
H453 H 0.27088 0.03271 0.7972 0.0
C454 C 0.90304 0.87402 0.21493 0.0
C455 C 0.95948 0.85512 0.21925 0.0
C456 C 0.96388 0.89354 0.28992 0.0
C457 C 0.90723 0.91154 0.28584 0.0
N458 N 0.8276 0.9323 0.24236 0.0
N459 N 0.04812 0.85861 0.25605 0.0
C460 C 0.87843 0.90634 0.24744 0.0
C461 C 0.99133 0.8686 0.25539 0.0
N462 N 0.87222 0.85835 0.18076 0.0
N463 N 0.99069 0.89928 0.32731 0.0
H464 H 0.06917 0.84146 0.23073 0.0
H465 H 0.0751 0.87163 0.27994 0.0
H466 H 0.97248 0.92048 0.35227 0.0
H467 H 1.02962 0.88125 0.33416 0.0
H468 H 0.82935 0.86665 0.177 0.0
H469 H 0.88889 0.83362 0.15702 0.0
H470 H 0.80635 0.93466 0.21412 0.0
H471 H 0.80919 0.95602 0.26591 0.0
loop_
_geom_bond_atom_site_label_1
_geom_bond_atom_site_label_2
_geom_bond_distance
_geom_bond_site_symmetry_2
_ccdc_geom_bond_type
Cu0 N1 1.999 . S
Cu0 O6 1.974 . S
Cu0 N11 1.985 1_655 S
Cu0 O20 1.959 1_655 S
N1 Cu0 1.999 . S
N1 C3 1.263 . S
N1 C5 1.389 . S
N2 C3 1.358 . S
N2 C4 1.400 . S
C3 N1 1.263 . S
C3 N2 1.358 . S
C3 H9 0.930 . S
C4 N2 1.400 . S
C4 C5 1.351 . S
C4 H21 0.930 . S
C5 N1 1.389 . S
C5 C4 1.351 . S
C5 H10 0.930 1_655 S
O6 Cu0 1.974 . S
O6 C16 1.282 . S
C7 O8 1.261 . S
C7 O20 1.251 . S
O8 C7 1.261 . S
H9 C3 0.930 . S
H10 C5 0.930 1_455 S
N11 Cu0 1.985 1_455 S
N11 C13 1.335 . S
N11 C14 1.390 1_455 S
N12 C13 1.345 . S
N12 C15 1.336 . S
C13 N11 1.335 . S
C13 N12 1.345 . S
C13 H18 0.930 . S
C14 N11 1.390 1_655 S
C14 C15 1.346 1_655 S
C14 H19 0.930 . S
C15 N12 1.336 . S
C15 C14 1.346 1_455 S
C15 H22 0.929 1_455 S
C16 O6 1.282 . S
C16 O17 1.216 . S
O17 C16 1.216 . S
H18 C13 0.930 . S
H19 C14 0.930 . S
O20 Cu0 1.959 1_455 S
O20 C7 1.251 . S
H21 C4 0.930 . S
H22 C15 0.929 1_655 S
Cu23 N24 1.999 . S
Cu23 O29 1.974 . S
Cu23 N34 1.985 . S
Cu23 O43 1.959 . S
N24 Cu23 1.999 . S
N24 C26 1.263 . S
N24 C28 1.389 . S
N25 C26 1.358 . S
N25 C27 1.400 . S
C26 N24 1.263 . S
C26 N25 1.358 . S
C26 H32 0.930 . S
C27 N25 1.400 . S
C27 C28 1.351 . S
C27 H44 0.930 . S
C28 N24 1.389 . S
C28 C27 1.351 . S
C28 H33 0.930 . S
O29 Cu23 1.974 . S
O29 C39 1.282 . S
C30 O31 1.261 . S
C30 O43 1.251 . S
O31 C30 1.261 . S
H32 C26 0.930 . S
H33 C28 0.930 . S
N34 Cu23 1.985 . S
N34 C36 1.335 . S
N34 C37 1.390 . S
N35 C36 1.345 . S
N35 C38 1.336 . S
C36 N34 1.335 . S
C36 N35 1.345 . S
C36 H41 0.930 . S
C37 N34 1.390 . S
C37 C38 1.346 . S
C37 H42 0.930 . S
C38 N35 1.336 . S
C38 C37 1.346 . S
C38 H45 0.929 . S
C39 O29 1.282 . S
C39 O40 1.216 . S
O40 C39 1.216 . S
H41 C36 0.930 . S
H42 C37 0.930 . S
O43 Cu23 1.959 . S
O43 C30 1.251 . S
H44 C27 0.930 . S
H45 C38 0.929 . S
Cu46 N47 1.999 . S
Cu46 O52 1.974 . S
Cu46 N57 1.985 . S
Cu46 O66 1.959 . S
N47 Cu46 1.999 . S
N47 C49 1.263 . S
N47 C51 1.389 . S
N48 C49 1.358 . S
N48 C50 1.400 . S
C49 N47 1.263 . S
C49 N48 1.358 . S
C49 H55 0.930 . S
C50 N48 1.400 . S
C50 C51 1.351 . S
C50 H67 0.930 . S
C51 N47 1.389 . S
C51 C50 1.351 . S
C51 H56 0.930 . S
O52 Cu46 1.974 . S
O52 C62 1.282 . S
C53 O54 1.261 . S
C53 O66 1.251 . S
O54 C53 1.261 . S
H55 C49 0.930 . S
H56 C51 0.930 . S
N57 Cu46 1.985 . S
N57 C59 1.335 . S
N57 C60 1.390 . S
N58 C59 1.345 . S
N58 C61 1.336 1_565 S
C59 N57 1.335 . S
C59 N58 1.345 . S
C59 H64 0.930 . S
C60 N57 1.390 . S
C60 C61 1.346 1_565 S
C60 H65 0.930 . S
C61 N58 1.336 1_545 S
C61 C60 1.346 1_545 S
C61 H68 0.929 . S
C62 O52 1.282 . S
C62 O63 1.216 . S
O63 C62 1.216 . S
H64 C59 0.930 . S
H65 C60 0.930 . S
O66 Cu46 1.959 . S
O66 C53 1.251 . S
H67 C50 0.930 . S
H68 C61 0.929 . S
Cu69 N70 1.999 . S
Cu69 O75 1.974 . S
Cu69 N80 1.985 1_545 S
Cu69 O89 1.959 1_545 S
N70 Cu69 1.999 . S
N70 C72 1.263 . S
N70 C74 1.389 . S
N71 C72 1.358 . S
N71 C73 1.400 . S
C72 N70 1.263 . S
C72 N71 1.358 . S
C72 H78 0.930 . S
C73 N71 1.400 . S
C73 C74 1.351 . S
C73 H90 0.930 . S
C74 N70 1.389 . S
C74 C73 1.351 . S
C74 H79 0.930 1_545 S
O75 Cu69 1.974 . S
O75 C85 1.282 . S
C76 O77 1.261 . S
C76 O89 1.251 . S
O77 C76 1.261 . S
H78 C72 0.930 . S
H79 C74 0.930 1_565 S
N80 Cu69 1.985 1_565 S
N80 C82 1.335 . S
N80 C83 1.390 1_565 S
N81 C82 1.345 . S
N81 C84 1.336 1_455 S
C82 N80 1.335 . S
C82 N81 1.345 . S
C82 H87 0.930 . S
C83 N80 1.390 1_545 S
C83 C84 1.346 1_445 S
C83 H88 0.930 . S
C84 N81 1.336 1_655 S
C84 C83 1.346 1_665 S
C84 H91 0.929 1_565 S
C85 O75 1.282 . S
C85 O86 1.216 . S
O86 C85 1.216 . S
H87 C82 0.930 . S
H88 C83 0.930 . S
O89 Cu69 1.959 1_565 S
O89 C76 1.251 . S
H90 C73 0.930 . S
H91 C84 0.929 1_545 S
Cu92 N93 1.999 . S
Cu92 O98 1.974 . S
Cu92 N103 1.985 1_655 S
Cu92 O112 1.960 . S
N93 Cu92 1.999 . S
N93 C95 1.263 . S
N93 C97 1.389 . S
N94 C95 1.358 . S
N94 C96 1.400 . S
C95 N93 1.263 . S
C95 N94 1.358 . S
C95 H101 0.930 . S
C96 N94 1.400 . S
C96 C97 1.351 . S
C96 H113 0.930 . S
C97 N93 1.389 . S
C97 C96 1.351 . S
C97 H102 0.930 . S
O98 Cu92 1.974 . S
O98 C108 1.282 . S
C99 O100 1.261 . S
C99 O112 1.248 1_455 S
O100 C99 1.261 . S
H101 C95 0.930 . S
H102 C97 0.930 . S
N103 Cu92 1.985 1_455 S
N103 C105 1.335 . S
N103 C106 1.390 . S
N104 C105 1.345 . S
N104 C107 1.336 . S
C105 N103 1.335 . S
C105 N104 1.345 . S
C105 H110 0.930 . S
C106 N103 1.390 . S
C106 C107 1.346 . S
C106 H111 0.930 . S
C107 N104 1.336 . S
C107 C106 1.346 . S
C107 H114 0.929 . S
C108 O98 1.282 . S
C108 O109 1.216 1_655 S
O109 C108 1.216 1_455 S
H110 C105 0.930 . S
H111 C106 0.930 . S
O112 Cu92 1.960 . S
O112 C99 1.248 1_655 S
H113 C96 0.930 . S
H114 C107 0.929 . S
Cu115 N116 1.999 . S
Cu115 O121 1.974 . S
Cu115 N126 1.985 . S
Cu115 O135 1.959 . S
N116 Cu115 1.999 . S
N116 C118 1.263 . S
N116 C120 1.389 . S
N117 C118 1.358 . S
N117 C119 1.400 . S
C118 N116 1.263 . S
C118 N117 1.358 . S
C118 H124 0.930 . S
C119 N117 1.400 . S
C119 C120 1.351 . S
C119 H136 0.930 . S
C120 N116 1.389 . S
C120 C119 1.351 . S
C120 H125 0.930 . S
O121 Cu115 1.974 . S
O121 C131 1.282 . S
C122 O123 1.261 . S
C122 O135 1.251 . S
O123 C122 1.261 . S
H124 C118 0.930 . S
H125 C120 0.930 . S
N126 Cu115 1.985 . S
N126 C128 1.335 . S
N126 C129 1.390 . S
N127 C128 1.345 . S
N127 C130 1.336 . S
C128 N126 1.335 . S
C128 N127 1.345 . S
C128 H133 0.930 . S
C129 N126 1.390 . S
C129 C130 1.346 . S
C129 H134 0.930 . S
C130 N127 1.336 . S
C130 C129 1.346 . S
C130 H137 0.929 . S
C131 O121 1.282 . S
C131 O132 1.216 . S
O132 C131 1.216 . S
H133 C128 0.930 . S
H134 C129 0.930 . S
O135 Cu115 1.959 . S
O135 C122 1.251 . S
H136 C119 0.930 . S
H137 C130 0.929 . S
Cu138 N139 1.999 . S
Cu138 O144 1.974 . S
Cu138 N149 1.985 . S
Cu138 O158 1.959 . S
N139 Cu138 1.999 . S
N139 C141 1.263 . S
N139 C143 1.389 . S
N140 C141 1.358 . S
N140 C142 1.400 . S
C141 N139 1.263 . S
C141 N140 1.358 . S
C141 H147 0.930 . S
C142 N140 1.400 . S
C142 C143 1.351 . S
C142 H159 0.930 . S
C143 N139 1.389 . S
C143 C142 1.351 . S
C143 H148 0.930 . S
O144 Cu138 1.974 . S
O144 C154 1.282 . S
C145 O146 1.261 . S
C145 O158 1.251 . S
O146 C145 1.261 . S
H147 C141 0.930 . S
H148 C143 0.930 . S
N149 Cu138 1.985 . S
N149 C151 1.335 . S
N149 C152 1.390 . S
N150 C151 1.345 . S
N150 C153 1.336 . S
C151 N149 1.335 . S
C151 N150 1.345 . S
C151 H156 0.930 . S
C152 N149 1.390 . S
C152 C153 1.346 . S
C152 H157 0.930 . S
C153 N150 1.336 . S
C153 C152 1.346 . S
C153 H160 0.929 . S
C154 O144 1.282 . S
C154 O155 1.216 . S
O155 C154 1.216 . S
H156 C151 0.930 . S
H157 C152 0.930 . S
O158 Cu138 1.959 . S
O158 C145 1.251 . S
H159 C142 0.930 . S
H160 C153 0.929 . S
Cu161 N162 1.999 . S
Cu161 O167 1.974 . S
Cu161 N172 1.985 1_545 S
Cu161 O181 1.959 . S
N162 Cu161 1.999 . S
N162 C164 1.263 . S
N162 C166 1.389 . S
N163 C164 1.358 . S
N163 C165 1.400 . S
C164 N162 1.263 . S
C164 N163 1.358 . S
C164 H170 0.930 . S
C165 N163 1.400 . S
C165 C166 1.351 . S
C165 H182 0.930 . S
C166 N162 1.389 . S
C166 C165 1.351 . S
C166 H171 0.930 . S
O167 Cu161 1.974 . S
O167 C177 1.282 . S
C168 O169 1.261 . S
C168 O181 1.251 1_565 S
O169 C168 1.261 . S
H170 C164 0.930 . S
H171 C166 0.930 . S
N172 Cu161 1.985 1_565 S
N172 C174 1.335 . S
N172 C175 1.390 . S
N173 C174 1.345 . S
N173 C176 1.336 . S
C174 N172 1.335 . S
C174 N173 1.345 . S
C174 H179 0.930 . S
C175 N172 1.390 . S
C175 C176 1.346 . S
C175 H180 0.930 . S
C176 N173 1.336 . S
C176 C175 1.346 . S
C176 H183 0.929 . S
C177 O167 1.282 . S
C177 O178 1.216 1_545 S
O178 C177 1.216 1_565 S
H179 C174 0.930 . S
H180 C175 0.930 . S
O181 Cu161 1.959 . S
O181 C168 1.251 1_545 S
H182 C165 0.930 . S
H183 C176 0.929 . S
C184 C185 1.363 1_455 S
C184 C190 1.379 . S
C184 N192 1.356 . S
C185 C184 1.363 1_655 S
C185 C191 1.363 1_556 S
C186 C187 1.364 1_655 S
C186 C191 1.378 . S
C186 N193 1.356 . S
C187 C186 1.364 1_455 S
C187 C190 1.363 1_554 S
N188 C190 1.356 . S
N188 H200 0.984 . S
N188 H201 0.985 . S
N189 C191 1.356 . S
N189 H194 0.984 1_554 S
N189 H195 0.985 . S
C190 C184 1.379 . S
C190 C187 1.363 1_556 S
C190 N188 1.356 . S
C191 C185 1.363 1_554 S
C191 C186 1.378 . S
C191 N189 1.356 . S
N192 C184 1.356 . S
N192 H198 0.984 . S
N192 H199 0.984 . S
N193 C186 1.356 . S
N193 H196 0.984 1_655 S
N193 H197 0.985 . S
H194 N189 0.984 1_556 S
H195 N189 0.985 . S
H196 N193 0.984 1_455 S
H197 N193 0.985 . S
H198 N192 0.984 . S
H199 N192 0.984 . S
H200 N188 0.984 . S
H201 N188 0.985 . S
C202 C203 1.363 . S
C202 C208 1.379 . S
C202 N210 1.356 . S
C203 C202 1.363 . S
C203 C209 1.363 . S
C204 C205 1.363 . S
C204 C209 1.379 . S
C204 N211 1.356 . S
C205 C204 1.363 . S
C205 C208 1.363 . S
N206 C208 1.356 . S
N206 H218 0.984 . S
N206 H219 0.985 . S
N207 C209 1.356 . S
N207 H212 0.984 . S
N207 H213 0.985 . S
C208 C202 1.379 . S
C208 C205 1.363 . S
C208 N206 1.356 . S
C209 C203 1.363 . S
C209 C204 1.379 . S
C209 N207 1.356 . S
N210 C202 1.356 . S
N210 H216 0.984 . S
N210 H217 0.984 . S
N211 C204 1.356 . S
N211 H214 0.984 . S
N211 H215 0.985 . S
H212 N207 0.984 . S
H213 N207 0.985 . S
H214 N211 0.984 . S
H215 N211 0.985 . S
H216 N210 0.984 . S
H217 N210 0.984 . S
H218 N206 0.984 . S
H219 N206 0.985 . S
C220 C221 1.363 . S
C220 C226 1.385 . S
C220 N228 1.356 . S
C221 C220 1.363 . S
C221 C227 1.363 1_554 S
C222 C223 1.363 . S
C222 C227 1.379 . S
C222 N229 1.356 . S
C223 C222 1.363 . S
C223 C226 1.353 1_556 S
N224 C226 1.357 . S
N224 H236 0.984 . S
N224 H237 0.985 1_554 S
N225 C227 1.356 . S
N225 H230 0.984 1_545 S
N225 H231 0.985 . S
C226 C220 1.385 . S
C226 C223 1.353 1_554 S
C226 N224 1.357 . S
C227 C221 1.363 1_556 S
C227 C222 1.379 . S
C227 N225 1.356 . S
N228 C220 1.356 . S
N228 H234 0.984 . S
N228 H235 0.984 . S
N229 C222 1.356 . S
N229 H232 0.984 . S
N229 H233 0.985 . S
H230 N225 0.984 1_565 S
H231 N225 0.985 . S
H232 N229 0.984 . S
H233 N229 0.985 . S
H234 N228 0.984 . S
H235 N228 0.984 . S
H236 N224 0.984 . S
H237 N224 0.985 1_556 S
C238 C239 1.363 . S
C238 C244 1.379 . S
C238 N246 1.356 . S
C239 C238 1.363 . S
C239 C245 1.363 1_545 S
C240 C241 1.363 . S
C240 C245 1.379 . S
C240 N247 1.356 . S
C241 C240 1.363 . S
C241 C244 1.363 1_565 S
N242 C244 1.356 . S
N242 H254 0.984 . S
N242 H255 0.985 1_655 S
N243 C245 1.356 . S
N243 H248 0.984 . S
N243 H249 0.985 . S
C244 C238 1.379 . S
C244 C241 1.363 1_545 S
C244 N242 1.356 . S
C245 C239 1.363 1_565 S
C245 C240 1.379 . S
C245 N243 1.356 . S
N246 C238 1.356 . S
N246 H252 0.984 . S
N246 H253 0.984 . S
N247 C240 1.356 . S
N247 H250 0.984 . S
N247 H251 0.985 . S
H248 N243 0.984 . S
H249 N243 0.985 . S
H250 N247 0.984 . S
H251 N247 0.985 . S
H252 N246 0.984 . S
H253 N246 0.984 . S
H254 N242 0.984 . S
H255 N242 0.985 1_455 S
C256 C257 1.363 . S
C256 C262 1.379 . S
C256 N264 1.356 . S
C257 C256 1.363 . S
C257 C263 1.363 . S
C258 C259 1.363 . S
C258 C263 1.379 . S
C258 N265 1.356 . S
C259 C258 1.363 . S
C259 C262 1.363 . S
N260 C262 1.356 . S
N260 H272 0.984 . S
N260 H273 0.985 . S
N261 C263 1.356 . S
N261 H266 0.984 . S
N261 H267 0.985 . S
C262 C256 1.379 . S
C262 C259 1.363 . S
C262 N260 1.356 . S
C263 C257 1.363 . S
C263 C258 1.379 . S
C263 N261 1.356 . S
N264 C256 1.356 . S
N264 H270 0.984 . S
N264 H271 0.984 . S
N265 C258 1.356 . S
N265 H268 0.984 . S
N265 H269 0.985 . S
H266 N261 0.984 . S
H267 N261 0.985 . S
H268 N265 0.984 . S
H269 N265 0.985 . S
H270 N264 0.984 . S
H271 N264 0.984 . S
H272 N260 0.984 . S
H273 N260 0.985 . S
C274 C275 1.363 . S
C274 C280 1.379 . S
C274 N282 1.356 . S
C275 C274 1.363 . S
C275 C281 1.363 . S
C276 C277 1.363 . S
C276 C281 1.379 . S
C276 N283 1.356 . S
C277 C276 1.363 . S
C277 C280 1.363 . S
N278 C280 1.356 . S
N278 H290 0.984 . S
N278 H291 0.985 . S
N279 C281 1.356 . S
N279 H284 0.984 . S
N279 H285 0.985 . S
C280 C274 1.379 . S
C280 C277 1.363 . S
C280 N278 1.356 . S
C281 C275 1.363 . S
C281 C276 1.379 . S
C281 N279 1.356 . S
N282 C274 1.356 . S
N282 H288 0.984 . S
N282 H289 0.984 . S
N283 C276 1.356 . S
N283 H286 0.984 . S
N283 H287 0.985 . S
H284 N279 0.984 . S
H285 N279 0.985 . S
H286 N283 0.984 . S
H287 N283 0.985 . S
H288 N282 0.984 . S
H289 N282 0.984 . S
H290 N278 0.984 . S
H291 N278 0.985 . S
C292 C293 1.363 . S
C292 C298 1.379 . S
C292 N300 1.356 . S
C293 C292 1.363 . S
C293 C299 1.363 . S
C294 C295 1.363 . S
C294 C299 1.379 . S
C294 N301 1.356 . S
C295 C294 1.363 . S
C295 C298 1.363 . S
N296 C298 1.356 . S
N296 H308 0.984 . S
N296 H309 0.985 . S
N297 C299 1.356 . S
N297 H302 0.984 . S
N297 H303 0.985 . S
C298 C292 1.379 . S
C298 C295 1.363 . S
C298 N296 1.356 . S
C299 C293 1.363 . S
C299 C294 1.379 . S
C299 N297 1.356 . S
N300 C292 1.356 . S
N300 H306 0.984 . S
N300 H307 0.984 . S
N301 C294 1.356 . S
N301 H304 0.984 . S
N301 H305 0.985 . S
H302 N297 0.984 . S
H303 N297 0.985 . S
H304 N301 0.984 . S
H305 N301 0.985 . S
H306 N300 0.984 . S
H307 N300 0.984 . S
H308 N296 0.984 . S
H309 N296 0.985 . S
C310 C311 1.363 . S
C310 C316 1.379 . S
C310 N318 1.356 . S
C311 C310 1.363 . S
C311 C317 1.363 . S
C312 C313 1.363 . S
C312 C317 1.379 . S
C312 N319 1.356 . S
C313 C312 1.363 . S
C313 C316 1.363 . S
N314 C316 1.356 . S
N314 H326 0.984 . S
N314 H327 0.985 . S
N315 C317 1.356 . S
N315 H320 0.984 . S
N315 H321 0.985 . S
C316 C310 1.379 . S
C316 C313 1.363 . S
C316 N314 1.356 . S
C317 C311 1.363 . S
C317 C312 1.379 . S
C317 N315 1.356 . S
N318 C310 1.356 . S
N318 H324 0.984 . S
N318 H325 0.984 . S
N319 C312 1.356 . S
N319 H322 0.984 . S
N319 H323 0.985 . S
H320 N315 0.984 . S
H321 N315 0.985 . S
H322 N319 0.984 . S
H323 N319 0.985 . S
H324 N318 0.984 . S
H325 N318 0.984 . S
H326 N314 0.984 . S
H327 N314 0.985 . S
C328 C329 1.363 . S
C328 C334 1.379 . S
C328 N336 1.356 . S
C329 C328 1.363 . S
C329 C335 1.363 . S
C330 C331 1.363 . S
C330 C335 1.379 . S
C330 N337 1.356 . S
C331 C330 1.363 . S
C331 C334 1.363 . S
N332 C334 1.356 . S
N332 H344 0.984 . S
N332 H345 0.985 . S
N333 C335 1.356 . S
N333 H338 0.984 . S
N333 H339 0.985 . S
C334 C328 1.379 . S
C334 C331 1.363 . S
C334 N332 1.356 . S
C335 C329 1.363 . S
C335 C330 1.379 . S
C335 N333 1.356 . S
N336 C328 1.356 . S
N336 H342 0.984 . S
N336 H343 0.984 . S
N337 C330 1.356 . S
N337 H340 0.984 . S
N337 H341 0.985 . S
H338 N333 0.984 . S
H339 N333 0.985 . S
H340 N337 0.984 . S
H341 N337 0.985 . S
H342 N336 0.984 . S
H343 N336 0.984 . S
H344 N332 0.984 . S
H345 N332 0.985 . S
C346 C347 1.363 . S
C346 C352 1.379 . S
C346 N354 1.356 . S
C347 C346 1.363 . S
C347 C353 1.363 . S
C348 C349 1.363 . S
C348 C353 1.379 . S
C348 N355 1.356 . S
C349 C348 1.363 . S
C349 C352 1.363 . S
N350 C352 1.356 . S
N350 H362 0.984 . S
N350 H363 0.985 . S
N351 C353 1.356 . S
N351 H356 0.984 . S
N351 H357 0.985 . S
C352 C346 1.379 . S
C352 C349 1.363 . S
C352 N350 1.356 . S
C353 C347 1.363 . S
C353 C348 1.379 . S
C353 N351 1.356 . S
N354 C346 1.356 . S
N354 H360 0.984 . S
N354 H361 0.984 . S
N355 C348 1.356 . S
N355 H358 0.984 . S
N355 H359 0.985 . S
H356 N351 0.984 . S
H357 N351 0.985 . S
H358 N355 0.984 . S
H359 N355 0.985 . S
H360 N354 0.984 . S
H361 N354 0.984 . S
H362 N350 0.984 . S
H363 N350 0.985 . S
C364 C365 1.363 . S
C364 C370 1.379 1_565 S
C364 N372 1.356 1_565 S
C365 C364 1.363 . S
C365 C371 1.363 . S
C366 C367 1.363 . S
C366 C371 1.379 . S
C366 N373 1.356 . S
C367 C366 1.363 . S
C367 C370 1.362 1_565 S
N368 C370 1.357 . S
N368 H380 0.984 . S
N368 H381 0.985 . S
N369 C371 1.356 . S
N369 H374 0.984 . S
N369 H375 0.985 . S
C370 C364 1.379 1_545 S
C370 C367 1.362 1_545 S
C370 N368 1.357 . S
C371 C365 1.363 . S
C371 C366 1.379 . S
C371 N369 1.356 . S
N372 C364 1.356 1_545 S
N372 H378 0.984 . S
N372 H379 0.984 1_545 S
N373 C366 1.356 . S
N373 H376 0.984 . S
N373 H377 0.985 . S
H374 N369 0.984 . S
H375 N369 0.985 . S
H376 N373 0.984 . S
H377 N373 0.985 . S
H378 N372 0.984 . S
H379 N372 0.984 1_565 S
H380 N368 0.984 . S
H381 N368 0.985 . S
C382 C383 1.363 . S
C382 C388 1.379 . S
C382 N390 1.356 . S
C383 C382 1.363 . S
C383 C389 1.363 . S
C384 C385 1.363 . S
C384 C389 1.379 . S
C384 N391 1.356 . S
C385 C384 1.363 . S
C385 C388 1.363 . S
N386 C388 1.356 . S
N386 H398 0.984 . S
N386 H399 0.985 . S
N387 C389 1.356 1_655 S
N387 H392 0.984 . S
N387 H393 0.985 . S
C388 C382 1.379 . S
C388 C385 1.363 . S
C388 N386 1.356 . S
C389 C383 1.363 . S
C389 C384 1.379 . S
C389 N387 1.356 1_455 S
N390 C382 1.356 . S
N390 H396 0.984 . S
N390 H397 0.984 . S
N391 C384 1.356 . S
N391 H394 0.984 . S
N391 H395 0.985 1_455 S
H392 N387 0.984 . S
H393 N387 0.985 . S
H394 N391 0.984 . S
H395 N391 0.985 1_655 S
H396 N390 0.984 . S
H397 N390 0.984 . S
H398 N386 0.984 . S
H399 N386 0.985 . S
C400 C401 1.363 . S
C400 C406 1.379 . S
C400 N408 1.356 . S
C401 C400 1.363 . S
C401 C407 1.363 . S
C402 C403 1.363 . S
C402 C407 1.379 . S
C402 N409 1.356 . S
C403 C402 1.363 . S
C403 C406 1.363 . S
N404 C406 1.356 . S
N404 H416 0.984 . S
N404 H417 0.985 . S
N405 C407 1.356 . S
N405 H410 0.984 . S
N405 H411 0.985 . S
C406 C400 1.379 . S
C406 C403 1.363 . S
C406 N404 1.356 . S
C407 C401 1.363 . S
C407 C402 1.379 . S
C407 N405 1.356 . S
N408 C400 1.356 . S
N408 H414 0.984 . S
N408 H415 0.984 . S
N409 C402 1.356 . S
N409 H412 0.984 . S
N409 H413 0.985 . S
H410 N405 0.984 . S
H411 N405 0.985 . S
H412 N409 0.984 . S
H413 N409 0.985 . S
H414 N408 0.984 . S
H415 N408 0.984 . S
H416 N404 0.984 . S
H417 N404 0.985 . S
C418 C419 1.363 . S
C418 C424 1.379 . S
C418 N426 1.356 . S
C419 C418 1.363 . S
C419 C425 1.363 . S
C420 C421 1.363 . S
C420 C425 1.379 . S
C420 N427 1.356 . S
C421 C420 1.363 . S
C421 C424 1.363 . S
N422 C424 1.356 . S
N422 H434 0.984 . S
N422 H435 0.985 . S
N423 C425 1.356 . S
N423 H428 0.984 . S
N423 H429 0.985 . S
C424 C418 1.379 . S
C424 C421 1.363 . S
C424 N422 1.356 . S
C425 C419 1.363 . S
C425 C420 1.379 . S
C425 N423 1.356 . S
N426 C418 1.356 . S
N426 H432 0.984 . S
N426 H433 0.984 . S
N427 C420 1.356 . S
N427 H430 0.984 . S
N427 H431 0.985 . S
H428 N423 0.984 . S
H429 N423 0.985 . S
H430 N427 0.984 . S
H431 N427 0.985 . S
H432 N426 0.984 . S
H433 N426 0.984 . S
H434 N422 0.984 . S
H435 N422 0.985 . S
C436 C437 1.363 . S
C436 C442 1.379 . S
C436 N444 1.356 . S
C437 C436 1.363 . S
C437 C443 1.363 . S
C438 C439 1.363 . S
C438 C443 1.379 . S
C438 N445 1.356 . S
C439 C438 1.363 . S
C439 C442 1.363 . S
N440 C442 1.356 . S
N440 H452 0.984 1_545 S
N440 H453 0.985 1_545 S
N441 C443 1.356 . S
N441 H446 0.984 . S
N441 H447 0.985 . S
C442 C436 1.379 . S
C442 C439 1.363 . S
C442 N440 1.356 . S
C443 C437 1.363 . S
C443 C438 1.379 . S
C443 N441 1.356 . S
N444 C436 1.356 . S
N444 H450 0.984 . S
N444 H451 0.984 . S
N445 C438 1.356 . S
N445 H448 0.984 . S
N445 H449 0.985 . S
H446 N441 0.984 . S
H447 N441 0.985 . S
H448 N445 0.984 . S
H449 N445 0.985 . S
H450 N444 0.984 . S
H451 N444 0.984 . S
H452 N440 0.984 1_565 S
H453 N440 0.985 1_565 S
C454 C455 1.363 . S
C454 C460 1.379 . S
C454 N462 1.356 . S
C455 C454 1.363 . S
C455 C461 1.363 . S
C456 C457 1.363 . S
C456 C461 1.379 . S
C456 N463 1.356 . S
C457 C456 1.363 . S
C457 C460 1.363 . S
N458 C460 1.356 . S
N458 H470 0.984 . S
N458 H471 0.985 . S
N459 C461 1.356 . S
N459 H464 0.984 1_655 S
N459 H465 0.985 1_655 S
C460 C454 1.379 . S
C460 C457 1.363 . S
C460 N458 1.356 . S
C461 C455 1.363 . S
C461 C456 1.379 . S
C461 N459 1.356 . S
N462 C454 1.356 . S
N462 H468 0.984 . S
N462 H469 0.984 . S
N463 C456 1.356 . S
N463 H466 0.984 . S
N463 H467 0.985 . S
H464 N459 0.984 1_455 S
H465 N459 0.985 1_455 S
H466 N463 0.984 . S
H467 N463 0.985 . S
H468 N462 0.984 . S
H469 N462 0.984 . S
H470 N458 0.984 . S
H471 N458 0.985 . S
C185 C108 1.844 . S
C187 N12 1.740 . S
C203 N35 1.708 . S
C205 C131 1.815 . S
C221 N58 1.669 1_545 S
C223 C154 1.776 . S
C239 C177 1.808 . S
C241 N81 1.704 1_655 S
C257 C7 2.583 . S
C259 C53 2.583 . S
C275 C30 2.581 . S
C277 C76 2.590 . S
C293 N140 1.818 . S
C295 N94 1.810 . S
C311 N117 1.807 . S
C313 N163 1.821 . S
C329 C122 1.821 . S
C331 C16 1.725 . S
C347 C39 1.737 . S
C349 C145 1.847 . S
C365 C62 1.700 . S
C367 C168 1.805 . S
C383 C99 1.779 . S
C385 C85 1.689 . S
C401 N104 1.353 . S
C403 N25 1.476 . S
C419 N127 1.394 . S
C421 N48 1.528 . S
C437 N150 1.386 . S
C439 N71 1.512 . S
C455 N2 1.459 . S
C457 N173 1.347 . S
