# Generated by pormake.
# Topology uog, (4)-cn, num edge types: 1
# Building blocks:
#     Node 0, Type 0, BuildingBlock: KOZSID_clean_sbu_0, # of connection points: 4
#     Node 1, Type 0, BuildingBlock: KOZSID_clean_sbu_0, # of connection points: 4
#     Node 2, Type 0, BuildingBlock: KOZSID_clean_sbu_0, # of connection points: 4
#     Node 3, Type 0, BuildingBlock: KOZSID_clean_sbu_0, # of connection points: 4
#     Node 4, Type 0, BuildingBlock: KOZSID_clean_sbu_0, # of connection points: 4
#     Node 5, Type 0, BuildingBlock: KOZSID_clean_sbu_0, # of connection points: 4
#     Edge 6, Type (0, 0), BuildingBlock: CIFDUS_clean_linker_0, # of connection points: 2
#     Edge 7, Type (0, 0), BuildingBlock: CIFDUS_clean_linker_0, # of connection points: 2
#     Edge 8, Type (0, 0), BuildingBlock: CIFDUS_clean_linker_0, # of connection points: 2
#     Edge 9, Type (0, 0), BuildingBlock: CIFDUS_clean_linker_0, # of connection points: 2
#     Edge 10, Type (0, 0), BuildingBlock: CIFDUS_clean_linker_0, # of connection points: 2
#     Edge 11, Type (0, 0), BuildingBlock: CIFDUS_clean_linker_0, # of connection points: 2
#     Edge 12, Type (0, 0), BuildingBlock: CIFDUS_clean_linker_0, # of connection points: 2
#     Edge 13, Type (0, 0), BuildingBlock: CIFDUS_clean_linker_0, # of connection points: 2
#     Edge 14, Type (0, 0), BuildingBlock: CIFDUS_clean_linker_0, # of connection points: 2
#     Edge 15, Type (0, 0), BuildingBlock: CIFDUS_clean_linker_0, # of connection points: 2
#     Edge 16, Type (0, 0), BuildingBlock: CIFDUS_clean_linker_0, # of connection points: 2
#     Edge 17, Type (0, 0), BuildingBlock: CIFDUS_clean_linker_0, # of connection points: 2
# Relax obj value: 0.022
# Max RMSD: 0.260
# Mean RMSD: 0.260
data_MOF--net-uog--node1-KOZSID_clean_sbu_0--edge1-CIFDUS_clean_linker_0
_symmetry_space_group_name_H-M    P1
_symmetry_Int_Tables_number       1
_symmetry_cell_setting            triclinic
loop_
_symmetry_equiv_pos_as_xyz
'x, y, z'
_cell_length_a     34.231143
_cell_length_b     34.335886
_cell_length_c     41.633489
_cell_angle_alpha  89.980428
_cell_angle_beta   89.854904
_cell_angle_gamma 120.02149
loop_
_atom_site_label
_atom_site_type_symbol
_atom_site_fract_x
_atom_site_fract_y
_atom_site_fract_z
_atom_type_partial_charge
C0 C 0.58841 0.31961 0.23657 0.0
C1 C 0.54985 0.3023 0.25538 0.0
C2 C 0.51383 0.28001 0.23491 0.0
C3 C 0.5323 0.28489 0.20476 0.0
N4 N 0.57761 0.30865 0.20495 0.0
Co5 Co 0.61704 0.32486 0.16599 0.0
N6 N 0.56654 0.28556 0.13655 0.0
C7 C 0.52272 0.26234 0.14481 0.0
C8 C 0.49628 0.23304 0.12121 0.0
C9 C 0.52533 0.23796 0.09661 0.0
C10 C 0.5681 0.27051 0.1063 0.0
N11 N 0.65682 0.34509 0.12714 0.0
C12 C 0.64794 0.33082 0.09631 0.0
C13 C 0.68162 0.36052 0.07557 0.0
C14 C 0.71349 0.39393 0.09414 0.0
C15 C 0.69708 0.38316 0.12485 0.0
N16 N 0.66925 0.36352 0.19446 0.0
C17 C 0.71024 0.39636 0.18462 0.0
C18 C 0.73946 0.41893 0.20911 0.0
C19 C 0.71544 0.39998 0.2364 0.0
C20 C 0.67255 0.36683 0.2269 0.0
N21 N 0.6248 0.27017 0.17317 0.0
C22 C 0.6041 0.17732 0.17332 0.0
C23 C 0.63069 0.20822 0.14901 0.0
C24 C 0.6409 0.2538 0.14958 0.0
C25 C 0.59299 0.19625 0.19917 0.0
C26 C 0.60432 0.24186 0.19898 0.0
N27 N 0.60501 0.3761 0.15925 0.0
C28 C 0.59037 0.43328 0.18188 0.0
C29 C 0.57446 0.43986 0.15248 0.0
C30 C 0.57566 0.41441 0.12627 0.0
C31 C 0.59047 0.38281 0.13016 0.0
C32 C 0.60593 0.40222 0.18461 0.0
H33 H 0.58914 0.36312 0.10958 0.0
H34 H 0.61778 0.39896 0.20777 0.0
H35 H 0.66102 0.27497 0.13018 0.0
H36 H 0.5943 0.25244 0.21997 0.0
C37 C 0.50912 0.26433 0.17634 0.0
C38 C 0.63484 0.34439 0.24944 0.0
C39 C 0.60957 0.28805 0.08616 0.0
C40 C 0.72041 0.40536 0.15225 0.0
H41 H 0.54808 0.30493 0.28118 0.0
H42 H 0.47846 0.26142 0.2414 0.0
H43 H 0.46044 0.20928 0.12233 0.0
H44 H 0.51594 0.21907 0.07447 0.0
H45 H 0.68333 0.35793 0.04976 0.0
H46 H 0.74526 0.42214 0.08628 0.0
H47 H 0.77381 0.44659 0.20734 0.0
H48 H 0.72755 0.41113 0.26053 0.0
H49 H 0.64346 0.19757 0.12913 0.0
H50 H 0.57384 0.17588 0.21941 0.0
H51 H 0.59134 0.45247 0.2028 0.0
H52 H 0.56407 0.41799 0.10287 0.0
C53 C 0.29292 0.56659 0.56808 0.0
C54 C 0.25908 0.52722 0.58171 0.0
C55 C 0.23911 0.49712 0.55703 0.0
C56 C 0.26179 0.51967 0.52972 0.0
N57 N 0.29544 0.56179 0.53574 0.0
Co58 Co 0.33156 0.60709 0.50207 0.0
N59 N 0.3119 0.56152 0.46706 0.0
C60 C 0.27732 0.519 0.46902 0.0
C61 C 0.27062 0.49555 0.44088 0.0
C62 C 0.30299 0.52527 0.4199 0.0
C63 C 0.32782 0.56535 0.43638 0.0
N64 N 0.36701 0.65337 0.46873 0.0
C65 C 0.38228 0.64898 0.43971 0.0
C66 C 0.41166 0.69089 0.42627 0.0
C67 C 0.41341 0.72239 0.44682 0.0
C68 C 0.38615 0.69836 0.47193 0.0
N69 N 0.35364 0.65408 0.53639 0.0
C70 C 0.37446 0.69895 0.53165 0.0
C71 C 0.38437 0.72368 0.55914 0.0
C72 C 0.36804 0.69275 0.58312 0.0
C73 C 0.34896 0.65044 0.56874 0.0
N74 N 0.38366 0.59667 0.50959 0.0
C75 C 0.4531 0.57322 0.51218 0.0
C76 C 0.46351 0.61851 0.50967 0.0
C77 C 0.4284 0.6295 0.50836 0.0
C78 C 0.4073 0.54091 0.51492 0.0
C79 C 0.37387 0.55304 0.51365 0.0
N80 N 0.27597 0.61264 0.49503 0.0
C81 C 0.21028 0.60837 0.52157 0.0
C82 C 0.18088 0.58372 0.49626 0.0
C83 C 0.20242 0.57958 0.46849 0.0
C84 C 0.2496 0.59528 0.46808 0.0
C85 C 0.25653 0.62183 0.52065 0.0
H86 H 0.26375 0.5904 0.44633 0.0
H87 H 0.27527 0.6371 0.54205 0.0
H88 H 0.43748 0.66429 0.50545 0.0
H89 H 0.33965 0.52603 0.51476 0.0
C90 C 0.25461 0.50198 0.49839 0.0
C91 C 0.3199 0.60864 0.5862 0.0
C92 C 0.36475 0.60688 0.42167 0.0
C93 C 0.38712 0.71726 0.50133 0.0
H94 H 0.24924 0.52132 0.60676 0.0
H95 H 0.21132 0.46292 0.55883 0.0
H96 H 0.24567 0.4608 0.43627 0.0
H97 H 0.30773 0.51841 0.39526 0.0
H98 H 0.42951 0.69818 0.40361 0.0
H99 H 0.43436 0.75854 0.44467 0.0
H100 H 0.40102 0.75991 0.56146 0.0
H101 H 0.36806 0.70099 0.60815 0.0
H102 H 0.49832 0.64506 0.50745 0.0
H103 H 0.39693 0.50561 0.51731 0.0
H104 H 0.19795 0.6165 0.54298 0.0
H105 H 0.1831 0.56271 0.44735 0.0
C106 C 0.74671 0.26662 0.90317 0.0
C107 C 0.75811 0.23688 0.91698 0.0
C108 C 0.77883 0.22549 0.89349 0.0
C109 C 0.77859 0.24832 0.86647 0.0
N110 N 0.75953 0.2739 0.87151 0.0
Co111 Co 0.74618 0.30589 0.83689 0.0
N112 N 0.78123 0.29485 0.80324 0.0
C113 C 0.80082 0.2697 0.80698 0.0
C114 C 0.82775 0.2731 0.78129 0.0
C115 C 0.82519 0.30261 0.76015 0.0
C116 C 0.79658 0.31546 0.77403 0.0
N117 N 0.7278 0.33352 0.80222 0.0
C118 C 0.74077 0.34198 0.7711 0.0
C119 C 0.71436 0.35491 0.75393 0.0
C120 C 0.68508 0.35657 0.77544 0.0
C121 C 0.69473 0.34379 0.80417 0.0
N122 N 0.71392 0.32127 0.87019 0.0
C123 C 0.69045 0.34257 0.86494 0.0
C124 C 0.67851 0.35592 0.89243 0.0
C125 C 0.69435 0.34116 0.9168 0.0
C126 C 0.71362 0.318 0.90269 0.0
N127 N 0.80453 0.36413 0.84572 0.0
C128 C 0.89711 0.43653 0.84509 0.0
C129 C 0.86318 0.43795 0.82668 0.0
C130 C 0.81767 0.40239 0.82781 0.0
C131 C 0.88208 0.39935 0.86569 0.0
C132 C 0.83668 0.36435 0.86573 0.0
N133 N 0.69066 0.24623 0.82777 0.0
C134 C 0.62805 0.17554 0.84777 0.0
C135 C 0.62492 0.15259 0.81891 0.0
C136 C 0.65408 0.17945 0.79396 0.0
C137 C 0.68559 0.22558 0.79863 0.0
C138 C 0.66063 0.22155 0.85166 0.0
H139 H 0.70708 0.24393 0.77866 0.0
H140 H 0.66208 0.23636 0.87466 0.0
H141 H 0.79383 0.40598 0.81321 0.0
H142 H 0.82915 0.33723 0.88191 0.0
C143 C 0.79725 0.24817 0.8364 0.0
C144 C 0.72265 0.28633 0.92046 0.0
C145 C 0.7819 0.34482 0.7584 0.0
C146 C 0.67997 0.3493 0.83397 0.0
H147 H 0.75171 0.2242 0.94133 0.0
H148 H 0.79225 0.20301 0.89584 0.0
H149 H 0.84817 0.25734 0.77871 0.0
H150 H 0.8424 0.31339 0.73728 0.0
H151 H 0.71777 0.36473 0.72891 0.0
H152 H 0.66162 0.36843 0.77106 0.0
H153 H 0.65997 0.37371 0.89453 0.0
H154 H 0.68985 0.3449 0.94212 0.0
H155 H 0.87149 0.4657 0.81052 0.0
H156 H 0.90527 0.39666 0.8819 0.0
H157 H 0.60584 0.15826 0.86777 0.0
H158 H 0.65417 0.16505 0.77091 0.0
C159 C 0.50662 0.74408 0.23442 0.0
C160 C 0.5482 0.7648 0.24956 0.0
C161 C 0.5786 0.79628 0.22833 0.0
C162 C 0.55406 0.79343 0.20142 0.0
N163 N 0.5103 0.76213 0.20446 0.0
Co164 Co 0.46323 0.74873 0.17155 0.0
N165 N 0.50746 0.78062 0.13638 0.0
C166 C 0.5517 0.80966 0.14089 0.0
C167 C 0.57451 0.82647 0.11246 0.0
C168 C 0.54242 0.80764 0.08874 0.0
C169 C 0.50137 0.78063 0.10395 0.0
N170 N 0.41431 0.73426 0.13974 0.0
C171 C 0.4162 0.74217 0.10774 0.0
C172 C 0.37589 0.73866 0.097 0.0
C173 C 0.34743 0.7262 0.12248 0.0
C174 C 0.37199 0.72433 0.14752 0.0
N175 N 0.41809 0.71688 0.20623 0.0
C176 C 0.3735 0.70222 0.20487 0.0
C177 C 0.34855 0.66936 0.22685 0.0
C178 C 0.3792 0.66319 0.24343 0.0
C179 C 0.42167 0.69488 0.23195 0.0
N180 N 0.46636 0.80799 0.18104 0.0
C181 C 0.49736 0.90268 0.18833 0.0
C182 C 0.47987 0.87986 0.15923 0.0
C183 C 0.46513 0.83366 0.15611 0.0
C184 C 0.49557 0.87528 0.21446 0.0
C185 C 0.47958 0.82852 0.21045 0.0
N186 N 0.46516 0.69209 0.1617 0.0
C187 C 0.43609 0.61116 0.16582 0.0
C188 C 0.47889 0.61606 0.15897 0.0
C189 C 0.51361 0.65975 0.1523 0.0
C190 C 0.50636 0.69652 0.15413 0.0
C191 C 0.42976 0.64921 0.16642 0.0
H192 H 0.53563 0.72894 0.15091 0.0
H193 H 0.3966 0.64393 0.17186 0.0
H194 H 0.4553 0.81996 0.1325 0.0
H195 H 0.48026 0.80961 0.23096 0.0
C196 C 0.57104 0.81495 0.17163 0.0
C197 C 0.46392 0.70879 0.24945 0.0
C198 C 0.45685 0.75897 0.08756 0.0
C199 C 0.35487 0.70995 0.17801 0.0
H200 H 0.55579 0.75782 0.27337 0.0
H201 H 0.61453 0.81776 0.23183 0.0
H202 H 0.61039 0.84881 0.10922 0.0
H203 H 0.54867 0.81361 0.06325 0.0
H204 H 0.368 0.74665 0.07369 0.0
H205 H 0.31318 0.72009 0.12285 0.0
H206 H 0.31217 0.64963 0.22884 0.0
H207 H 0.37099 0.63866 0.26234 0.0
H208 H 0.47813 0.89754 0.13828 0.0
H209 H 0.50803 0.88982 0.23784 0.0
H210 H 0.40764 0.57816 0.17091 0.0
H211 H 0.5474 0.66618 0.14732 0.0
C212 C 0.80524 0.49077 0.57162 0.0
C213 C 0.83745 0.53202 0.58365 0.0
C214 C 0.84639 0.56304 0.55973 0.0
C215 C 0.81935 0.53908 0.53434 0.0
N216 N 0.79358 0.49499 0.54074 0.0
Co217 Co 0.75501 0.44761 0.50856 0.0
N218 N 0.77342 0.49075 0.47165 0.0
C219 C 0.80033 0.53556 0.47394 0.0
C220 C 0.80636 0.55736 0.4451 0.0
C221 C 0.78147 0.52422 0.4232 0.0
C222 C 0.76128 0.48383 0.43989 0.0
N223 N 0.71723 0.39837 0.47733 0.0
C224 C 0.71209 0.39885 0.44493 0.0
C225 C 0.67816 0.35705 0.43408 0.0
C226 C 0.66194 0.32959 0.46001 0.0
C227 C 0.68591 0.3558 0.48531 0.0
N228 N 0.73336 0.40423 0.54558 0.0
C229 C 0.69698 0.36262 0.54549 0.0
C230 C 0.68397 0.34317 0.57522 0.0
C231 C 0.71404 0.37441 0.59586 0.0
C232 C 0.74394 0.41082 0.57723 0.0
N233 N 0.70354 0.45943 0.51635 0.0
C234 C 0.6415 0.49266 0.52263 0.0
C235 C 0.64615 0.47392 0.49389 0.0
C236 C 0.67651 0.45761 0.49135 0.0
C237 C 0.6677 0.49227 0.54872 0.0
C238 C 0.69799 0.47557 0.54516 0.0
N239 N 0.80938 0.44017 0.49972 0.0
C240 C 0.88065 0.44987 0.52032 0.0
C241 C 0.9032 0.46646 0.49073 0.0
C242 C 0.87525 0.46407 0.46503 0.0
C243 C 0.82908 0.44981 0.4698 0.0
C244 C 0.83437 0.43654 0.52402 0.0
H245 H 0.8103 0.44877 0.44901 0.0
H246 H 0.81955 0.4245 0.54696 0.0
H247 H 0.67886 0.44526 0.46833 0.0
H248 H 0.71774 0.47697 0.56573 0.0
C249 C 0.82038 0.55544 0.50331 0.0
C250 C 0.78506 0.44821 0.59028 0.0
C251 C 0.73289 0.43932 0.42444 0.0
C252 C 0.67707 0.34203 0.51697 0.0
H253 H 0.85291 0.53886 0.60714 0.0
H254 H 0.87084 0.59863 0.56042 0.0
H255 H 0.8269 0.59305 0.44042 0.0
H256 H 0.77902 0.52916 0.39778 0.0
H257 H 0.66362 0.34749 0.41043 0.0
H258 H 0.63416 0.29527 0.46061 0.0
H259 H 0.65636 0.30999 0.5811 0.0
H260 H 0.71496 0.37044 0.6216 0.0
H261 H 0.62774 0.47327 0.47261 0.0
H262 H 0.66523 0.50508 0.57191 0.0
H263 H 0.89841 0.44743 0.54095 0.0
H264 H 0.8887 0.4747 0.4411 0.0
C265 C 0.32535 0.76477 0.90225 0.0
C266 C 0.31933 0.79776 0.9167 0.0
C267 C 0.30944 0.81875 0.89254 0.0
C268 C 0.30989 0.79747 0.8647 0.0
N269 N 0.31866 0.76388 0.8699 0.0
Co270 Co 0.32732 0.72855 0.83551 0.0
N271 N 0.30088 0.74904 0.80134 0.0
C272 C 0.29346 0.78383 0.80395 0.0
C273 C 0.27737 0.79191 0.77598 0.0
C274 C 0.27468 0.76025 0.75442 0.0
C275 C 0.28907 0.73433 0.77046 0.0
N276 N 0.33682 0.69316 0.80164 0.0
C277 C 0.31195 0.67509 0.77495 0.0
C278 C 0.31617 0.63915 0.76383 0.0
C279 C 0.34837 0.63787 0.78206 0.0
C280 C 0.36002 0.67108 0.80443 0.0
N281 N 0.35333 0.70618 0.86884 0.0
C282 C 0.37849 0.68669 0.8631 0.0
C283 C 0.39527 0.67769 0.89 0.0
C284 C 0.38065 0.69302 0.9146 0.0
C285 C 0.35521 0.71043 0.90121 0.0
N286 N 0.26489 0.67666 0.84354 0.0
C287 C 0.17221 0.60579 0.84644 0.0
C288 C 0.20829 0.59694 0.84311 0.0
C289 C 0.25393 0.63244 0.84207 0.0
C290 C 0.18478 0.65134 0.84949 0.0
C291 C 0.23031 0.68553 0.84781 0.0
N292 N 0.38846 0.78365 0.82783 0.0
C293 C 0.45095 0.84892 0.85334 0.0
C294 C 0.45638 0.87762 0.8274 0.0
C295 C 0.43029 0.85597 0.79994 0.0
C296 C 0.39777 0.80923 0.80039 0.0
C297 C 0.41722 0.80323 0.85326 0.0
H298 H 0.37831 0.79486 0.77891 0.0
H299 H 0.41312 0.78516 0.87513 0.0
H300 H 0.28014 0.62397 0.83925 0.0
H301 H 0.23703 0.71953 0.84927 0.0
C302 C 0.29927 0.80562 0.83365 0.0
C303 C 0.34024 0.73696 0.91961 0.0
C304 C 0.2933 0.69746 0.75546 0.0
C305 C 0.3812 0.67205 0.83278 0.0
H306 H 0.32269 0.80632 0.94194 0.0
H307 H 0.30261 0.84616 0.89505 0.0
H308 H 0.26819 0.81741 0.77181 0.0
H309 H 0.26363 0.75678 0.72973 0.0
H310 H 0.29922 0.61738 0.74363 0.0
H311 H 0.3593 0.61326 0.78076 0.0
H312 H 0.41556 0.66165 0.89156 0.0
H313 H 0.38991 0.69311 0.93939 0.0
H314 H 0.20168 0.56284 0.84054 0.0
H315 H 0.15966 0.66121 0.85322 0.0
H316 H 0.47159 0.86157 0.87461 0.0
H317 H 0.43324 0.87501 0.77849 0.0
H318 H 0.57384 0.11158 0.22253 0.0
H319 H 0.59429 0.12482 0.11965 0.0
H320 H 0.56605 0.04459 0.11562 0.0
H321 H 0.53412 0.9693 0.14037 0.0
H322 H 0.50666 0.9547 0.24239 0.0
H323 H 0.53867 0.03567 0.24697 0.0
C324 C 0.57193 0.09755 0.19895 0.0
C325 C 0.58729 0.12643 0.17149 0.0
C326 C 0.55403 0.05009 0.19642 0.0
C327 C 0.58441 0.10546 0.14164 0.0
C328 C 0.56753 0.05875 0.13915 0.0
C329 C 0.53415 0.9831 0.16374 0.0
C330 C 0.51722 0.95396 0.19097 0.0
C331 C 0.55195 0.03049 0.1663 0.0
C332 C 0.51957 0.9747 0.2208 0.0
C333 C 0.53778 1.02164 0.22349 0.0
H334 H 0.5347 0.60151 0.54519 0.0
H335 H 0.44887 0.50806 0.47293 0.0
H336 H 0.49727 0.47498 0.47025 0.0
H337 H 0.56238 0.46976 0.48922 0.0
H338 H 0.65051 0.56338 0.56064 0.0
H339 H 0.60287 0.59764 0.56315 0.0
C340 C 0.52689 0.5743 0.52857 0.0
C341 C 0.48749 0.55751 0.50935 0.0
C342 C 0.55516 0.55458 0.52727 0.0
C343 C 0.47832 0.52177 0.48827 0.0
C344 C 0.50615 0.50262 0.4867 0.0
C345 C 0.57193 0.498 0.50517 0.0
C346 C 0.61085 0.5133 0.52473 0.0
C347 C 0.54446 0.51829 0.50626 0.0
C348 C 0.62088 0.54965 0.54555 0.0
C349 C 0.59362 0.56983 0.54681 0.0
H350 H 0.97444 0.43081 0.85805 0.0
H351 H 0.93501 0.52673 0.82806 0.0
H352 H 1.01397 0.58486 0.82441 0.0
H353 H 0.09499 0.60995 0.82991 0.0
H354 H 0.13441 0.51593 0.86449 0.0
H355 H 0.05556 0.45685 0.86586 0.0
C356 C 0.98253 0.46443 0.85114 0.0
C357 C 0.94708 0.47314 0.8433 0.0
C358 C 1.02883 0.49878 0.84971 0.0
C359 C 0.96014 0.51751 0.83373 0.0
C360 C 1.00587 0.55139 0.83187 0.0
C361 C 0.08693 0.57691 0.8383 0.0
C362 C 0.12237 0.56864 0.84707 0.0
C363 C 1.04066 0.54261 0.83986 0.0
C364 C 0.10936 0.52439 0.85694 0.0
C365 C 0.06366 0.49018 0.85805 0.0
H366 H 0.11201 0.5504 0.44905 0.0
H367 H 0.12912 0.56428 0.55215 0.0
H368 H 0.04896 0.53256 0.55903 0.0
H369 H 0.97217 0.50042 0.53697 0.0
H370 H 0.95322 0.47707 0.43469 0.0
H371 H 1.03408 0.51212 0.42728 0.0
C372 C 0.09884 0.54654 0.47321 0.0
C373 C 0.12916 0.5621 0.49975 0.0
C374 C 0.05103 0.52604 0.47754 0.0
C375 C 0.10903 0.55547 0.53059 0.0
C376 C 0.06215 0.5363 0.53484 0.0
C377 C 0.985 0.50207 0.51293 0.0
C378 C 0.95448 0.48589 0.48658 0.0
C379 C 1.03257 0.52147 0.50857 0.0
C380 C 0.97405 0.48976 0.45584 0.0
C381 C 1.02111 0.50973 0.45141 0.0
H382 H 0.49736 0.94438 0.7791 0.0
H383 H 0.48515 0.93017 0.88246 0.0
H384 H 0.53557 1.0099 0.88859 0.0
H385 H 0.58442 0.08511 0.86582 0.0
H386 H 0.58972 0.10222 0.76273 0.0
H387 H 0.54173 1.02158 0.75614 0.0
C388 C 0.5052 0.95825 0.8031 0.0
C389 C 0.48743 0.92894 0.83013 0.0
C390 C 0.53373 1.0058 0.80686 0.0
C391 C 0.49892 0.94963 0.86076 0.0
C392 C 0.52771 0.99619 0.86451 0.0
C393 C 0.57491 0.07199 0.84173 0.0
C394 C 0.59242 0.10171 0.81497 0.0
C395 C 0.54559 1.0248 0.83782 0.0
C396 C 0.57892 0.08179 0.78422 0.0
C397 C 0.55063 0.03495 0.78026 0.0
H398 H 0.5309 0.59657 0.11789 0.0
H399 H 0.45101 0.5485 0.20429 0.0
H400 H 0.47337 0.49131 0.21046 0.0
H401 H 0.51797 0.45558 0.19229 0.0
H402 H 0.59452 0.50176 0.10431 0.0
H403 H 0.57146 0.55819 0.09807 0.0
C404 C 0.51806 0.57349 0.13805 0.0
C405 C 0.489 0.5775 0.1606 0.0
C406 C 0.53085 0.54003 0.14134 0.0
C407 C 0.4728 0.54649 0.18626 0.0
C408 C 0.48598 0.51377 0.18997 0.0
C409 C 0.52968 0.47796 0.17172 0.0
C410 C 0.55843 0.47391 0.14886 0.0
C411 C 0.51539 0.51033 0.16784 0.0
C412 C 0.57238 0.5033 0.12225 0.0
C413 C 0.55922 0.53594 0.11869 0.0
H414 H 0.63494 0.25481 0.93998 0.0
H415 H 0.7653 0.28712 0.97683 0.0
H416 H 0.73631 0.27804 0.03182 0.0
H417 H 0.67822 0.27353 0.06936 0.0
H418 H 0.55639 0.26316 0.0313 0.0
H419 H 0.57673 0.25028 0.97765 0.0
C420 C 0.65698 0.25943 0.96005 0.0
C421 C 0.70256 0.27175 0.95391 0.0
C422 C 0.64123 0.2583 0.99173 0.0
C423 C 0.73015 0.27708 0.98043 0.0
C424 C 0.71363 0.27249 0.01201 0.0
C425 C 0.65546 0.26728 0.04945 0.0
C426 C 0.61495 0.26814 0.05502 0.0
C427 C 0.66978 0.2648 0.01797 0.0
C428 C 0.58657 0.26081 0.02858 0.0
C429 C 0.5989 0.25455 0.99753 0.0
H430 H 0.41147 0.71569 0.29565 0.0
H431 H 0.50493 0.66774 0.28192 0.0
H432 H 0.48107 0.62778 0.33391 0.0
H433 H 0.42881 0.60328 0.38241 0.0
H434 H 0.31871 0.63046 0.38186 0.0
H435 H 0.34993 0.67724 0.33416 0.0
C436 C 0.42648 0.69607 0.30369 0.0
C437 C 0.45954 0.69434 0.28433 0.0
C438 C 0.40728 0.66707 0.33015 0.0
C439 C 0.4795 0.66993 0.29604 0.0
C440 C 0.46491 0.64604 0.32539 0.0
C441 C 0.41042 0.61749 0.37085 0.0
C442 C 0.37132 0.61336 0.38594 0.0
C443 C 0.42758 0.64305 0.34216 0.0
C444 C 0.34825 0.63242 0.37062 0.0
C445 C 0.36687 0.66031 0.34385 0.0
H446 H 0.80056 0.32847 0.69638 0.0
H447 H 0.81194 0.43456 0.75776 0.0
H448 H 0.81973 0.48072 0.71102 0.0
H449 H 0.80788 0.48431 0.65208 0.0
H450 H 0.80745 0.38242 0.59129 0.0
H451 H 0.81242 0.34287 0.63779 0.0
C452 C 0.80722 0.36255 0.69973 0.0
C453 C 0.80505 0.37742 0.7309 0.0
C454 C 0.81284 0.38985 0.67247 0.0
C455 C 0.81321 0.42184 0.73422 0.0
C456 C 0.81719 0.44829 0.70733 0.0
C457 C 0.81122 0.4548 0.64881 0.0
C458 C 0.80684 0.43671 0.61768 0.0
C459 C 0.81487 0.43183 0.67615 0.0
C460 C 0.8109 0.39784 0.61454 0.0
C461 C 0.81308 0.37445 0.6414 0.0
H462 H 0.40911 0.8082 0.9518 0.0
H463 H 0.29776 0.67346 0.96496 0.0
H464 H 0.33355 0.66449 0.01284 0.0
H465 H 0.39856 0.69272 0.04869 0.0
H466 H 0.49532 0.83464 0.04797 0.0
H467 H 0.4667 0.8422 0.99585 0.0
C468 C 0.39173 0.77771 0.96604 0.0
C469 C 0.35079 0.74137 0.95471 0.0
C470 C 0.41194 0.77316 0.99436 0.0
C471 C 0.32882 0.70202 0.9734 0.0
C472 C 0.34997 0.69642 1.00025 0.0
C473 C 0.41402 0.72525 0.03683 0.0
C474 C 0.4501 0.76262 0.05208 0.0
C475 C 0.39231 0.73117 0.01018 0.0
C476 C 0.46895 0.80471 0.03658 0.0
C477 C 0.45136 0.80942 0.00723 0.0
H478 H 0.74114 0.38629 0.37948 0.0
H479 H 0.68971 0.47692 0.39187 0.0
H480 H 0.65126 0.45344 0.33978 0.0
H481 H 0.62918 0.40363 0.29127 0.0
H482 H 0.67152 0.30504 0.28462 0.0
H483 H 0.71381 0.33262 0.33465 0.0
C484 C 0.72208 0.40145 0.3705 0.0
C485 C 0.71883 0.43373 0.38957 0.0
C486 C 0.69641 0.38451 0.3422 0.0
C487 C 0.69357 0.45265 0.37764 0.0
C488 C 0.67068 0.43841 0.34813 0.0
C489 C 0.64623 0.38713 0.30152 0.0
C490 C 0.64623 0.35145 0.28455 0.0
C491 C 0.67077 0.40339 0.33056 0.0
C492 C 0.66985 0.33151 0.29762 0.0
C493 C 0.69489 0.34799 0.32588 0.0
H494 H 0.36065 0.7042 0.71764 0.0
H495 H 0.22128 0.6696 0.71328 0.0
H496 H 0.21455 0.63497 0.66012 0.0
H497 H 0.24871 0.61002 0.61642 0.0
H498 H 0.37903 0.62331 0.63339 0.0
H499 H 0.38731 0.66584 0.6823 0.0
C500 C 0.32861 0.6891 0.70509 0.0
C501 C 0.29146 0.68932 0.71971 0.0
C502 C 0.32272 0.66262 0.67788 0.0
C503 C 0.25057 0.6703 0.70271 0.0
C504 C 0.2464 0.64933 0.67275 0.0
C505 C 0.27788 0.62038 0.63168 0.0
C506 C 0.31341 0.61361 0.6212 0.0
C507 C 0.28185 0.64376 0.66066 0.0
C508 C 0.35111 0.62749 0.64115 0.0
C509 C 0.35639 0.65295 0.66862 0.0
loop_
_geom_bond_atom_site_label_1
_geom_bond_atom_site_label_2
_geom_bond_distance
_geom_bond_site_symmetry_2
_ccdc_geom_bond_type
C0 C1 1.443 . S
C0 N4 1.376 . S
C0 C38 1.389 . S
C1 C0 1.443 . S
C1 C2 1.340 . S
C1 H41 0.951 . S
C2 C1 1.340 . S
C2 C3 1.439 . S
C2 H42 0.950 . S
C3 C2 1.439 . S
C3 N4 1.374 . S
C3 C37 1.395 . S
N4 C0 1.376 . S
N4 C3 1.374 . S
N4 Co5 2.008 . S
Co5 N4 2.008 . S
Co5 N6 1.995 . S
Co5 N11 2.008 . S
Co5 N16 1.995 . S
Co5 N21 2.282 . S
Co5 N27 2.282 . S
N6 Co5 1.995 . S
N6 C7 1.376 . S
N6 C10 1.383 . S
C7 N6 1.376 . S
C7 C8 1.446 . S
C7 C37 1.391 . S
C8 C7 1.446 . S
C8 C9 1.339 . S
C8 H43 0.949 . S
C9 C8 1.339 . S
C9 C10 1.439 . S
C9 H44 0.950 . S
C10 N6 1.383 . S
C10 C9 1.439 . S
C10 C39 1.392 . S
N11 Co5 2.008 . S
N11 C12 1.376 . S
N11 C15 1.374 . S
C12 N11 1.376 . S
C12 C13 1.443 . S
C12 C39 1.389 . S
C13 C12 1.443 . S
C13 C14 1.340 . S
C13 H45 0.951 . S
C14 C13 1.340 . S
C14 C15 1.439 . S
C14 H46 0.950 . S
C15 N11 1.374 . S
C15 C14 1.439 . S
C15 C40 1.395 . S
N16 Co5 1.995 . S
N16 C17 1.376 . S
N16 C20 1.383 . S
C17 N16 1.376 . S
C17 C18 1.446 . S
C17 C40 1.391 . S
C18 C17 1.446 . S
C18 C19 1.339 . S
C18 H47 0.949 . S
C19 C18 1.339 . S
C19 C20 1.439 . S
C19 H48 0.950 . S
C20 N16 1.383 . S
C20 C19 1.439 . S
C20 C38 1.392 . S
N21 Co5 2.282 . S
N21 C24 1.332 . S
N21 C26 1.332 . S
C22 C23 1.386 . S
C22 C25 1.388 . S
C23 C22 1.386 . S
C23 C24 1.382 . S
C23 H49 0.950 . S
C24 N21 1.332 . S
C24 C23 1.382 . S
C24 H35 0.952 . S
C25 C22 1.388 . S
C25 C26 1.382 . S
C25 H50 0.950 . S
C26 N21 1.332 . S
C26 C25 1.382 . S
C26 H36 0.948 . S
N27 Co5 2.282 . S
N27 C31 1.332 . S
N27 C32 1.332 . S
C28 C29 1.388 . S
C28 C32 1.382 . S
C28 H51 0.950 . S
C29 C28 1.388 . S
C29 C30 1.386 . S
C30 C29 1.386 . S
C30 C31 1.382 . S
C30 H52 0.950 . S
C31 N27 1.332 . S
C31 C30 1.382 . S
C31 H33 0.952 . S
C32 N27 1.332 . S
C32 C28 1.382 . S
C32 H34 0.948 . S
H33 C31 0.952 . S
H34 C32 0.948 . S
H35 C24 0.952 . S
H36 C26 0.948 . S
C37 C3 1.395 . S
C37 C7 1.391 . S
C38 C0 1.389 . S
C38 C20 1.392 . S
C39 C10 1.392 . S
C39 C12 1.389 . S
C40 C15 1.395 . S
C40 C17 1.391 . S
H41 C1 0.951 . S
H42 C2 0.950 . S
H43 C8 0.949 . S
H44 C9 0.950 . S
H45 C13 0.951 . S
H46 C14 0.950 . S
H47 C18 0.949 . S
H48 C19 0.950 . S
H49 C23 0.950 . S
H50 C25 0.950 . S
H51 C28 0.950 . S
H52 C30 0.950 . S
C53 C54 1.443 . S
C53 N57 1.376 . S
C53 C91 1.389 . S
C54 C53 1.443 . S
C54 C55 1.340 . S
C54 H94 0.951 . S
C55 C54 1.340 . S
C55 C56 1.439 . S
C55 H95 0.950 . S
C56 C55 1.439 . S
C56 N57 1.374 . S
C56 C90 1.395 . S
N57 C53 1.376 . S
N57 C56 1.374 . S
N57 Co58 2.008 . S
Co58 N57 2.008 . S
Co58 N59 1.995 . S
Co58 N64 2.008 . S
Co58 N69 1.995 . S
Co58 N74 2.282 . S
Co58 N80 2.282 . S
N59 Co58 1.995 . S
N59 C60 1.376 . S
N59 C63 1.383 . S
C60 N59 1.376 . S
C60 C61 1.446 . S
C60 C90 1.391 . S
C61 C60 1.446 . S
C61 C62 1.339 . S
C61 H96 0.949 . S
C62 C61 1.339 . S
C62 C63 1.439 . S
C62 H97 0.950 . S
C63 N59 1.383 . S
C63 C62 1.439 . S
C63 C92 1.392 . S
N64 Co58 2.008 . S
N64 C65 1.376 . S
N64 C68 1.374 . S
C65 N64 1.376 . S
C65 C66 1.443 . S
C65 C92 1.389 . S
C66 C65 1.443 . S
C66 C67 1.340 . S
C66 H98 0.951 . S
C67 C66 1.340 . S
C67 C68 1.439 . S
C67 H99 0.950 . S
C68 N64 1.374 . S
C68 C67 1.439 . S
C68 C93 1.395 . S
N69 Co58 1.995 . S
N69 C70 1.376 . S
N69 C73 1.383 . S
C70 N69 1.376 . S
C70 C71 1.446 . S
C70 C93 1.391 . S
C71 C70 1.446 . S
C71 C72 1.339 . S
C71 H100 0.949 . S
C72 C71 1.339 . S
C72 C73 1.439 . S
C72 H101 0.950 . S
C73 N69 1.383 . S
C73 C72 1.439 . S
C73 C91 1.392 . S
N74 Co58 2.282 . S
N74 C77 1.332 . S
N74 C79 1.332 . S
C75 C76 1.386 . S
C75 C78 1.388 . S
C76 C75 1.386 . S
C76 C77 1.382 . S
C76 H102 0.950 . S
C77 N74 1.332 . S
C77 C76 1.382 . S
C77 H88 0.952 . S
C78 C75 1.388 . S
C78 C79 1.382 . S
C78 H103 0.950 . S
C79 N74 1.332 . S
C79 C78 1.382 . S
C79 H89 0.948 . S
N80 Co58 2.282 . S
N80 C84 1.332 . S
N80 C85 1.332 . S
C81 C82 1.388 . S
C81 C85 1.382 . S
C81 H104 0.950 . S
C82 C81 1.388 . S
C82 C83 1.386 . S
C83 C82 1.386 . S
C83 C84 1.382 . S
C83 H105 0.950 . S
C84 N80 1.332 . S
C84 C83 1.382 . S
C84 H86 0.952 . S
C85 N80 1.332 . S
C85 C81 1.382 . S
C85 H87 0.948 . S
H86 C84 0.952 . S
H87 C85 0.948 . S
H88 C77 0.952 . S
H89 C79 0.948 . S
C90 C56 1.395 . S
C90 C60 1.391 . S
C91 C53 1.389 . S
C91 C73 1.392 . S
C92 C63 1.392 . S
C92 C65 1.389 . S
C93 C68 1.395 . S
C93 C70 1.391 . S
H94 C54 0.951 . S
H95 C55 0.950 . S
H96 C61 0.949 . S
H97 C62 0.950 . S
H98 C66 0.951 . S
H99 C67 0.950 . S
H100 C71 0.949 . S
H101 C72 0.950 . S
H102 C76 0.950 . S
H103 C78 0.950 . S
H104 C81 0.950 . S
H105 C83 0.950 . S
C106 C107 1.443 . S
C106 N110 1.376 . S
C106 C144 1.389 . S
C107 C106 1.443 . S
C107 C108 1.340 . S
C107 H147 0.951 . S
C108 C107 1.340 . S
C108 C109 1.439 . S
C108 H148 0.950 . S
C109 C108 1.439 . S
C109 N110 1.374 . S
C109 C143 1.395 . S
N110 C106 1.376 . S
N110 C109 1.374 . S
N110 Co111 2.008 . S
Co111 N110 2.008 . S
Co111 N112 1.995 . S
Co111 N117 2.008 . S
Co111 N122 1.995 . S
Co111 N127 2.282 . S
Co111 N133 2.282 . S
N112 Co111 1.995 . S
N112 C113 1.376 . S
N112 C116 1.383 . S
C113 N112 1.376 . S
C113 C114 1.446 . S
C113 C143 1.391 . S
C114 C113 1.446 . S
C114 C115 1.339 . S
C114 H149 0.949 . S
C115 C114 1.339 . S
C115 C116 1.439 . S
C115 H150 0.950 . S
C116 N112 1.383 . S
C116 C115 1.439 . S
C116 C145 1.392 . S
N117 Co111 2.008 . S
N117 C118 1.376 . S
N117 C121 1.374 . S
C118 N117 1.376 . S
C118 C119 1.443 . S
C118 C145 1.389 . S
C119 C118 1.443 . S
C119 C120 1.340 . S
C119 H151 0.951 . S
C120 C119 1.340 . S
C120 C121 1.439 . S
C120 H152 0.950 . S
C121 N117 1.374 . S
C121 C120 1.439 . S
C121 C146 1.395 . S
N122 Co111 1.995 . S
N122 C123 1.376 . S
N122 C126 1.383 . S
C123 N122 1.376 . S
C123 C124 1.446 . S
C123 C146 1.391 . S
C124 C123 1.446 . S
C124 C125 1.339 . S
C124 H153 0.949 . S
C125 C124 1.339 . S
C125 C126 1.439 . S
C125 H154 0.950 . S
C126 N122 1.383 . S
C126 C125 1.439 . S
C126 C144 1.392 . S
N127 Co111 2.282 . S
N127 C130 1.332 . S
N127 C132 1.332 . S
C128 C129 1.386 . S
C128 C131 1.388 . S
C129 C128 1.386 . S
C129 C130 1.382 . S
C129 H155 0.950 . S
C130 N127 1.332 . S
C130 C129 1.382 . S
C130 H141 0.952 . S
C131 C128 1.388 . S
C131 C132 1.382 . S
C131 H156 0.950 . S
C132 N127 1.332 . S
C132 C131 1.382 . S
C132 H142 0.948 . S
N133 Co111 2.282 . S
N133 C137 1.332 . S
N133 C138 1.332 . S
C134 C135 1.388 . S
C134 C138 1.382 . S
C134 H157 0.950 . S
C135 C134 1.388 . S
C135 C136 1.386 . S
C136 C135 1.386 . S
C136 C137 1.382 . S
C136 H158 0.950 . S
C137 N133 1.332 . S
C137 C136 1.382 . S
C137 H139 0.952 . S
C138 N133 1.332 . S
C138 C134 1.382 . S
C138 H140 0.948 . S
H139 C137 0.952 . S
H140 C138 0.948 . S
H141 C130 0.952 . S
H142 C132 0.948 . S
C143 C109 1.395 . S
C143 C113 1.391 . S
C144 C106 1.389 . S
C144 C126 1.392 . S
C145 C116 1.392 . S
C145 C118 1.389 . S
C146 C121 1.395 . S
C146 C123 1.391 . S
H147 C107 0.951 . S
H148 C108 0.950 . S
H149 C114 0.949 . S
H150 C115 0.950 . S
H151 C119 0.951 . S
H152 C120 0.950 . S
H153 C124 0.949 . S
H154 C125 0.950 . S
H155 C129 0.950 . S
H156 C131 0.950 . S
H157 C134 0.950 . S
H158 C136 0.950 . S
C159 C160 1.443 . S
C159 N163 1.376 . S
C159 C197 1.389 . S
C160 C159 1.443 . S
C160 C161 1.340 . S
C160 H200 0.951 . S
C161 C160 1.340 . S
C161 C162 1.439 . S
C161 H201 0.950 . S
C162 C161 1.439 . S
C162 N163 1.374 . S
C162 C196 1.395 . S
N163 C159 1.376 . S
N163 C162 1.374 . S
N163 Co164 2.008 . S
Co164 N163 2.008 . S
Co164 N165 1.995 . S
Co164 N170 2.008 . S
Co164 N175 1.995 . S
Co164 N180 2.282 . S
Co164 N186 2.282 . S
N165 Co164 1.995 . S
N165 C166 1.376 . S
N165 C169 1.383 . S
C166 N165 1.376 . S
C166 C167 1.446 . S
C166 C196 1.391 . S
C167 C166 1.446 . S
C167 C168 1.339 . S
C167 H202 0.949 . S
C168 C167 1.339 . S
C168 C169 1.439 . S
C168 H203 0.950 . S
C169 N165 1.383 . S
C169 C168 1.439 . S
C169 C198 1.392 . S
N170 Co164 2.008 . S
N170 C171 1.376 . S
N170 C174 1.374 . S
C171 N170 1.376 . S
C171 C172 1.443 . S
C171 C198 1.389 . S
C172 C171 1.443 . S
C172 C173 1.340 . S
C172 H204 0.951 . S
C173 C172 1.340 . S
C173 C174 1.439 . S
C173 H205 0.950 . S
C174 N170 1.374 . S
C174 C173 1.439 . S
C174 C199 1.395 . S
N175 Co164 1.995 . S
N175 C176 1.376 . S
N175 C179 1.383 . S
C176 N175 1.376 . S
C176 C177 1.446 . S
C176 C199 1.391 . S
C177 C176 1.446 . S
C177 C178 1.339 . S
C177 H206 0.949 . S
C178 C177 1.339 . S
C178 C179 1.439 . S
C178 H207 0.950 . S
C179 N175 1.383 . S
C179 C178 1.439 . S
C179 C197 1.392 . S
N180 Co164 2.282 . S
N180 C183 1.332 . S
N180 C185 1.332 . S
C181 C182 1.386 . S
C181 C184 1.388 . S
C182 C181 1.386 . S
C182 C183 1.382 . S
C182 H208 0.950 . S
C183 N180 1.332 . S
C183 C182 1.382 . S
C183 H194 0.952 . S
C184 C181 1.388 . S
C184 C185 1.382 . S
C184 H209 0.950 . S
C185 N180 1.332 . S
C185 C184 1.382 . S
C185 H195 0.948 . S
N186 Co164 2.282 . S
N186 C190 1.332 . S
N186 C191 1.332 . S
C187 C188 1.388 . S
C187 C191 1.382 . S
C187 H210 0.950 . S
C188 C187 1.388 . S
C188 C189 1.386 . S
C189 C188 1.386 . S
C189 C190 1.382 . S
C189 H211 0.950 . S
C190 N186 1.332 . S
C190 C189 1.382 . S
C190 H192 0.952 . S
C191 N186 1.332 . S
C191 C187 1.382 . S
C191 H193 0.948 . S
H192 C190 0.952 . S
H193 C191 0.948 . S
H194 C183 0.952 . S
H195 C185 0.948 . S
C196 C162 1.395 . S
C196 C166 1.391 . S
C197 C159 1.389 . S
C197 C179 1.392 . S
C198 C169 1.392 . S
C198 C171 1.389 . S
C199 C174 1.395 . S
C199 C176 1.391 . S
H200 C160 0.951 . S
H201 C161 0.950 . S
H202 C167 0.949 . S
H203 C168 0.950 . S
H204 C172 0.951 . S
H205 C173 0.950 . S
H206 C177 0.949 . S
H207 C178 0.950 . S
H208 C182 0.950 . S
H209 C184 0.950 . S
H210 C187 0.950 . S
H211 C189 0.950 . S
C212 C213 1.443 . S
C212 N216 1.376 . S
C212 C250 1.389 . S
C213 C212 1.443 . S
C213 C214 1.340 . S
C213 H253 0.951 . S
C214 C213 1.340 . S
C214 C215 1.439 . S
C214 H254 0.950 . S
C215 C214 1.439 . S
C215 N216 1.374 . S
C215 C249 1.395 . S
N216 C212 1.376 . S
N216 C215 1.374 . S
N216 Co217 2.008 . S
Co217 N216 2.008 . S
Co217 N218 1.995 . S
Co217 N223 2.008 . S
Co217 N228 1.995 . S
Co217 N233 2.282 . S
Co217 N239 2.282 . S
N218 Co217 1.995 . S
N218 C219 1.376 . S
N218 C222 1.383 . S
C219 N218 1.376 . S
C219 C220 1.446 . S
C219 C249 1.391 . S
C220 C219 1.446 . S
C220 C221 1.339 . S
C220 H255 0.949 . S
C221 C220 1.339 . S
C221 C222 1.439 . S
C221 H256 0.950 . S
C222 N218 1.383 . S
C222 C221 1.439 . S
C222 C251 1.392 . S
N223 Co217 2.008 . S
N223 C224 1.376 . S
N223 C227 1.374 . S
C224 N223 1.376 . S
C224 C225 1.443 . S
C224 C251 1.389 . S
C225 C224 1.443 . S
C225 C226 1.340 . S
C225 H257 0.951 . S
C226 C225 1.340 . S
C226 C227 1.439 . S
C226 H258 0.950 . S
C227 N223 1.374 . S
C227 C226 1.439 . S
C227 C252 1.395 . S
N228 Co217 1.995 . S
N228 C229 1.376 . S
N228 C232 1.383 . S
C229 N228 1.376 . S
C229 C230 1.446 . S
C229 C252 1.391 . S
C230 C229 1.446 . S
C230 C231 1.339 . S
C230 H259 0.949 . S
C231 C230 1.339 . S
C231 C232 1.439 . S
C231 H260 0.950 . S
C232 N228 1.383 . S
C232 C231 1.439 . S
C232 C250 1.392 . S
N233 Co217 2.282 . S
N233 C236 1.332 . S
N233 C238 1.332 . S
C234 C235 1.386 . S
C234 C237 1.388 . S
C235 C234 1.386 . S
C235 C236 1.382 . S
C235 H261 0.950 . S
C236 N233 1.332 . S
C236 C235 1.382 . S
C236 H247 0.952 . S
C237 C234 1.388 . S
C237 C238 1.382 . S
C237 H262 0.950 . S
C238 N233 1.332 . S
C238 C237 1.382 . S
C238 H248 0.948 . S
N239 Co217 2.282 . S
N239 C243 1.332 . S
N239 C244 1.332 . S
C240 C241 1.388 . S
C240 C244 1.382 . S
C240 H263 0.950 . S
C241 C240 1.388 . S
C241 C242 1.386 . S
C242 C241 1.386 . S
C242 C243 1.382 . S
C242 H264 0.950 . S
C243 N239 1.332 . S
C243 C242 1.382 . S
C243 H245 0.952 . S
C244 N239 1.332 . S
C244 C240 1.382 . S
C244 H246 0.948 . S
H245 C243 0.952 . S
H246 C244 0.948 . S
H247 C236 0.952 . S
H248 C238 0.948 . S
C249 C215 1.395 . S
C249 C219 1.391 . S
C250 C212 1.389 . S
C250 C232 1.392 . S
C251 C222 1.392 . S
C251 C224 1.389 . S
C252 C227 1.395 . S
C252 C229 1.391 . S
H253 C213 0.951 . S
H254 C214 0.950 . S
H255 C220 0.949 . S
H256 C221 0.950 . S
H257 C225 0.951 . S
H258 C226 0.950 . S
H259 C230 0.949 . S
H260 C231 0.950 . S
H261 C235 0.950 . S
H262 C237 0.950 . S
H263 C240 0.950 . S
H264 C242 0.950 . S
C265 C266 1.443 . S
C265 N269 1.376 . S
C265 C303 1.389 . S
C266 C265 1.443 . S
C266 C267 1.340 . S
C266 H306 0.951 . S
C267 C266 1.340 . S
C267 C268 1.439 . S
C267 H307 0.950 . S
C268 C267 1.439 . S
C268 N269 1.374 . S
C268 C302 1.395 . S
N269 C265 1.376 . S
N269 C268 1.374 . S
N269 Co270 2.008 . S
Co270 N269 2.008 . S
Co270 N271 1.995 . S
Co270 N276 2.008 . S
Co270 N281 1.995 . S
Co270 N286 2.282 . S
Co270 N292 2.282 . S
N271 Co270 1.995 . S
N271 C272 1.376 . S
N271 C275 1.383 . S
C272 N271 1.376 . S
C272 C273 1.446 . S
C272 C302 1.391 . S
C273 C272 1.446 . S
C273 C274 1.339 . S
C273 H308 0.949 . S
C274 C273 1.339 . S
C274 C275 1.439 . S
C274 H309 0.950 . S
C275 N271 1.383 . S
C275 C274 1.439 . S
C275 C304 1.392 . S
N276 Co270 2.008 . S
N276 C277 1.376 . S
N276 C280 1.374 . S
C277 N276 1.376 . S
C277 C278 1.443 . S
C277 C304 1.389 . S
C278 C277 1.443 . S
C278 C279 1.340 . S
C278 H310 0.951 . S
C279 C278 1.340 . S
C279 C280 1.439 . S
C279 H311 0.950 . S
C280 N276 1.374 . S
C280 C279 1.439 . S
C280 C305 1.395 . S
N281 Co270 1.995 . S
N281 C282 1.376 . S
N281 C285 1.383 . S
C282 N281 1.376 . S
C282 C283 1.446 . S
C282 C305 1.391 . S
C283 C282 1.446 . S
C283 C284 1.339 . S
C283 H312 0.949 . S
C284 C283 1.339 . S
C284 C285 1.439 . S
C284 H313 0.950 . S
C285 N281 1.383 . S
C285 C284 1.439 . S
C285 C303 1.392 . S
N286 Co270 2.282 . S
N286 C289 1.332 . S
N286 C291 1.332 . S
C287 C288 1.386 . S
C287 C290 1.388 . S
C288 C287 1.386 . S
C288 C289 1.382 . S
C288 H314 0.950 . S
C289 N286 1.332 . S
C289 C288 1.382 . S
C289 H300 0.952 . S
C290 C287 1.388 . S
C290 C291 1.382 . S
C290 H315 0.950 . S
C291 N286 1.332 . S
C291 C290 1.382 . S
C291 H301 0.948 . S
N292 Co270 2.282 . S
N292 C296 1.332 . S
N292 C297 1.332 . S
C293 C294 1.388 . S
C293 C297 1.382 . S
C293 H316 0.950 . S
C294 C293 1.388 . S
C294 C295 1.386 . S
C295 C294 1.386 . S
C295 C296 1.382 . S
C295 H317 0.950 . S
C296 N292 1.332 . S
C296 C295 1.382 . S
C296 H298 0.952 . S
C297 N292 1.332 . S
C297 C293 1.382 . S
C297 H299 0.948 . S
H298 C296 0.952 . S
H299 C297 0.948 . S
H300 C289 0.952 . S
H301 C291 0.948 . S
C302 C268 1.395 . S
C302 C272 1.391 . S
C303 C265 1.389 . S
C303 C285 1.392 . S
C304 C275 1.392 . S
C304 C277 1.389 . S
C305 C280 1.395 . S
C305 C282 1.391 . S
H306 C266 0.951 . S
H307 C267 0.950 . S
H308 C273 0.949 . S
H309 C274 0.950 . S
H310 C278 0.951 . S
H311 C279 0.950 . S
H312 C283 0.949 . S
H313 C284 0.950 . S
H314 C288 0.950 . S
H315 C290 0.950 . S
H316 C293 0.950 . S
H317 C295 0.950 . S
H318 C324 0.930 . S
H319 C327 0.930 . S
H320 C328 0.930 . S
H321 C329 0.930 . S
H322 C332 0.930 . S
H323 C333 0.930 . S
C324 H318 0.930 . S
C324 C325 1.355 . S
C324 C326 1.415 . S
C325 C324 1.355 . S
C325 C327 1.419 . S
C326 C324 1.415 . S
C326 C331 1.425 1_545 S
C326 C333 1.409 1_545 S
C327 H319 0.930 . S
C327 C325 1.419 . S
C327 C328 1.362 . S
C328 H320 0.930 . S
C328 C327 1.362 . S
C328 C331 1.409 1_545 S
C329 H321 0.930 . S
C329 C330 1.355 . S
C329 C331 1.415 . S
C330 C329 1.355 . S
C330 C332 1.419 . S
C331 C326 1.425 1_565 S
C331 C328 1.409 1_565 S
C331 C329 1.415 . S
C332 H322 0.930 . S
C332 C330 1.419 . S
C332 C333 1.362 . S
C333 H323 0.930 . S
C333 C326 1.409 1_565 S
C333 C332 1.362 . S
H334 C340 0.930 . S
H335 C343 0.930 . S
H336 C344 0.930 . S
H337 C345 0.930 . S
H338 C348 0.930 . S
H339 C349 0.930 . S
C340 H334 0.930 . S
C340 C341 1.355 . S
C340 C342 1.415 . S
C341 C340 1.355 . S
C341 C343 1.419 . S
C342 C340 1.415 . S
C342 C347 1.425 . S
C342 C349 1.409 . S
C343 H335 0.930 . S
C343 C341 1.419 . S
C343 C344 1.362 . S
C344 H336 0.930 . S
C344 C343 1.362 . S
C344 C347 1.409 . S
C345 H337 0.930 . S
C345 C346 1.355 . S
C345 C347 1.415 . S
C346 C345 1.355 . S
C346 C348 1.419 . S
C347 C342 1.425 . S
C347 C344 1.409 . S
C347 C345 1.415 . S
C348 H338 0.930 . S
C348 C346 1.419 . S
C348 C349 1.362 . S
C349 H339 0.930 . S
C349 C342 1.409 . S
C349 C348 1.362 . S
H350 C356 0.930 . S
H351 C359 0.930 . S
H352 C360 0.930 . S
H353 C361 0.930 . S
H354 C364 0.930 . S
H355 C365 0.930 . S
C356 H350 0.930 . S
C356 C357 1.355 . S
C356 C358 1.415 . S
C357 C356 1.355 . S
C357 C359 1.419 . S
C358 C356 1.415 . S
C358 C363 1.425 1_655 S
C358 C365 1.409 1_655 S
C359 H351 0.930 . S
C359 C357 1.419 . S
C359 C360 1.362 . S
C360 H352 0.930 . S
C360 C359 1.362 . S
C360 C363 1.409 1_655 S
C361 H353 0.930 . S
C361 C362 1.355 . S
C361 C363 1.415 . S
C362 C361 1.355 . S
C362 C364 1.419 . S
C363 C358 1.425 1_455 S
C363 C360 1.409 1_455 S
C363 C361 1.415 . S
C364 H354 0.930 . S
C364 C362 1.419 . S
C364 C365 1.362 . S
C365 H355 0.930 . S
C365 C358 1.409 1_455 S
C365 C364 1.362 . S
H366 C372 0.930 . S
H367 C375 0.930 . S
H368 C376 0.930 . S
H369 C377 0.930 . S
H370 C380 0.930 . S
H371 C381 0.930 . S
C372 H366 0.930 . S
C372 C373 1.355 . S
C372 C374 1.415 . S
C373 C372 1.355 . S
C373 C375 1.419 . S
C374 C372 1.415 . S
C374 C379 1.425 1_455 S
C374 C381 1.409 1_455 S
C375 H367 0.930 . S
C375 C373 1.419 . S
C375 C376 1.362 . S
C376 H368 0.930 . S
C376 C375 1.362 . S
C376 C379 1.409 1_455 S
C377 H369 0.930 . S
C377 C378 1.355 . S
C377 C379 1.415 . S
C378 C377 1.355 . S
C378 C380 1.419 . S
C379 C374 1.425 1_655 S
C379 C376 1.409 1_655 S
C379 C377 1.415 . S
C380 H370 0.930 . S
C380 C378 1.419 . S
C380 C381 1.362 . S
C381 H371 0.930 . S
C381 C374 1.409 1_655 S
C381 C380 1.362 . S
H382 C388 0.930 . S
H383 C391 0.930 . S
H384 C392 0.930 . S
H385 C393 0.930 . S
H386 C396 0.930 . S
H387 C397 0.930 . S
C388 H382 0.930 . S
C388 C389 1.355 . S
C388 C390 1.415 . S
C389 C388 1.355 . S
C389 C391 1.419 . S
C390 C388 1.415 . S
C390 C395 1.425 1_565 S
C390 C397 1.409 1_565 S
C391 H383 0.930 . S
C391 C389 1.419 . S
C391 C392 1.362 . S
C392 H384 0.930 . S
C392 C391 1.362 . S
C392 C395 1.409 1_565 S
C393 H385 0.930 . S
C393 C394 1.355 . S
C393 C395 1.415 . S
C394 C393 1.355 . S
C394 C396 1.419 . S
C395 C390 1.425 1_545 S
C395 C392 1.409 1_545 S
C395 C393 1.415 . S
C396 H386 0.930 . S
C396 C394 1.419 . S
C396 C397 1.362 . S
C397 H387 0.930 . S
C397 C390 1.409 1_545 S
C397 C396 1.362 . S
H398 C404 0.930 . S
H399 C407 0.930 . S
H400 C408 0.930 . S
H401 C409 0.930 . S
H402 C412 0.930 . S
H403 C413 0.930 . S
C404 H398 0.930 . S
C404 C405 1.355 . S
C404 C406 1.415 . S
C405 C404 1.355 . S
C405 C407 1.419 . S
C406 C404 1.415 . S
C406 C411 1.425 . S
C406 C413 1.409 . S
C407 H399 0.930 . S
C407 C405 1.419 . S
C407 C408 1.362 . S
C408 H400 0.930 . S
C408 C407 1.362 . S
C408 C411 1.409 . S
C409 H401 0.930 . S
C409 C410 1.355 . S
C409 C411 1.415 . S
C410 C409 1.355 . S
C410 C412 1.419 . S
C411 C406 1.425 . S
C411 C408 1.409 . S
C411 C409 1.415 . S
C412 H402 0.930 . S
C412 C410 1.419 . S
C412 C413 1.362 . S
C413 H403 0.930 . S
C413 C406 1.409 . S
C413 C412 1.362 . S
H414 C420 0.930 . S
H415 C423 0.930 . S
H416 C424 0.930 . S
H417 C425 0.930 . S
H418 C428 0.930 . S
H419 C429 0.930 . S
C420 H414 0.930 . S
C420 C421 1.355 . S
C420 C422 1.415 . S
C421 C420 1.355 . S
C421 C423 1.419 . S
C422 C420 1.415 . S
C422 C427 1.425 1_556 S
C422 C429 1.409 . S
C423 H415 0.930 . S
C423 C421 1.419 . S
C423 C424 1.362 1_556 S
C424 H416 0.930 . S
C424 C423 1.362 1_554 S
C424 C427 1.409 . S
C425 H417 0.930 . S
C425 C426 1.355 . S
C425 C427 1.415 . S
C426 C425 1.355 . S
C426 C428 1.419 . S
C427 C422 1.425 1_554 S
C427 C424 1.409 . S
C427 C425 1.415 . S
C428 H418 0.930 . S
C428 C426 1.419 . S
C428 C429 1.362 1_554 S
C429 H419 0.930 . S
C429 C422 1.409 . S
C429 C428 1.362 1_556 S
H430 C436 0.930 . S
H431 C439 0.930 . S
H432 C440 0.930 . S
H433 C441 0.930 . S
H434 C444 0.930 . S
H435 C445 0.930 . S
C436 H430 0.930 . S
C436 C437 1.355 . S
C436 C438 1.415 . S
C437 C436 1.355 . S
C437 C439 1.419 . S
C438 C436 1.415 . S
C438 C443 1.425 . S
C438 C445 1.409 . S
C439 H431 0.930 . S
C439 C437 1.419 . S
C439 C440 1.362 . S
C440 H432 0.930 . S
C440 C439 1.362 . S
C440 C443 1.409 . S
C441 H433 0.930 . S
C441 C442 1.355 . S
C441 C443 1.415 . S
C442 C441 1.355 . S
C442 C444 1.419 . S
C443 C438 1.425 . S
C443 C440 1.409 . S
C443 C441 1.415 . S
C444 H434 0.930 . S
C444 C442 1.419 . S
C444 C445 1.362 . S
C445 H435 0.930 . S
C445 C438 1.409 . S
C445 C444 1.362 . S
H446 C452 0.930 . S
H447 C455 0.930 . S
H448 C456 0.930 . S
H449 C457 0.930 . S
H450 C460 0.930 . S
H451 C461 0.930 . S
C452 H446 0.930 . S
C452 C453 1.355 . S
C452 C454 1.415 . S
C453 C452 1.355 . S
C453 C455 1.419 . S
C454 C452 1.415 . S
C454 C459 1.425 . S
C454 C461 1.409 . S
C455 H447 0.930 . S
C455 C453 1.419 . S
C455 C456 1.362 . S
C456 H448 0.930 . S
C456 C455 1.362 . S
C456 C459 1.409 . S
C457 H449 0.930 . S
C457 C458 1.355 . S
C457 C459 1.415 . S
C458 C457 1.355 . S
C458 C460 1.419 . S
C459 C454 1.425 . S
C459 C456 1.409 . S
C459 C457 1.415 . S
C460 H450 0.930 . S
C460 C458 1.419 . S
C460 C461 1.362 . S
C461 H451 0.930 . S
C461 C454 1.409 . S
C461 C460 1.362 . S
H462 C468 0.930 . S
H463 C471 0.930 . S
H464 C472 0.933 . S
H465 C473 0.930 . S
H466 C476 0.930 . S
H467 C477 0.933 . S
C468 H462 0.930 . S
C468 C469 1.355 . S
C468 C470 1.415 . S
C469 C468 1.355 . S
C469 C471 1.419 . S
C470 C468 1.415 . S
C470 C475 1.425 1_556 S
C470 C477 1.411 . S
C471 H463 0.930 . S
C471 C469 1.419 . S
C471 C472 1.358 1_556 S
C472 H464 0.933 . S
C472 C471 1.358 1_554 S
C472 C475 1.411 . S
C473 H465 0.930 . S
C473 C474 1.355 . S
C473 C475 1.415 . S
C474 C473 1.355 . S
C474 C476 1.419 . S
C475 C470 1.425 1_554 S
C475 C472 1.411 . S
C475 C473 1.415 . S
C476 H466 0.930 . S
C476 C474 1.419 . S
C476 C477 1.358 1_554 S
C477 H467 0.933 . S
C477 C470 1.411 . S
C477 C476 1.358 1_556 S
H478 C484 0.930 . S
H479 C487 0.930 . S
H480 C488 0.930 . S
H481 C489 0.930 . S
H482 C492 0.930 . S
H483 C493 0.930 . S
C484 H478 0.930 . S
C484 C485 1.355 . S
C484 C486 1.415 . S
C485 C484 1.355 . S
C485 C487 1.419 . S
C486 C484 1.415 . S
C486 C491 1.425 . S
C486 C493 1.409 . S
C487 H479 0.930 . S
C487 C485 1.419 . S
C487 C488 1.362 . S
C488 H480 0.930 . S
C488 C487 1.362 . S
C488 C491 1.409 . S
C489 H481 0.930 . S
C489 C490 1.355 . S
C489 C491 1.415 . S
C490 C489 1.355 . S
C490 C492 1.419 . S
C491 C486 1.425 . S
C491 C488 1.409 . S
C491 C489 1.415 . S
C492 H482 0.930 . S
C492 C490 1.419 . S
C492 C493 1.362 . S
C493 H483 0.930 . S
C493 C486 1.409 . S
C493 C492 1.362 . S
H494 C500 0.930 . S
H495 C503 0.930 . S
H496 C504 0.930 . S
H497 C505 0.930 . S
H498 C508 0.930 . S
H499 C509 0.930 . S
C500 H494 0.930 . S
C500 C501 1.355 . S
C500 C502 1.415 . S
C501 C500 1.355 . S
C501 C503 1.419 . S
C502 C500 1.415 . S
C502 C507 1.425 . S
C502 C509 1.409 . S
C503 H495 0.930 . S
C503 C501 1.419 . S
C503 C504 1.362 . S
C504 H496 0.930 . S
C504 C503 1.362 . S
C504 C507 1.409 . S
C505 H497 0.930 . S
C505 C506 1.355 . S
C505 C507 1.415 . S
C506 C505 1.355 . S
C506 C508 1.419 . S
C507 C502 1.425 . S
C507 C504 1.409 . S
C507 C505 1.415 . S
C508 H498 0.930 . S
C508 C506 1.419 . S
C508 C509 1.362 . S
C509 H499 0.930 . S
C509 C502 1.409 . S
C509 C508 1.362 . S
C325 C22 1.666 . S
C330 C181 1.658 . S
C341 C75 1.643 . S
C346 C234 1.639 . S
C357 C128 1.677 . S
C362 C287 1.682 . S
C373 C82 1.654 . S
C378 C241 1.648 . S
C389 C294 1.664 . S
C394 C135 1.656 . S
C405 C188 1.655 . S
C410 C29 1.649 . S
C421 C144 2.324 . S
C426 C39 2.300 . S
C437 C197 2.320 . S
C442 C92 2.285 . S
C453 C145 2.266 . S
C458 C250 2.272 . S
C469 C303 2.289 . S
C474 C198 2.300 . S
C485 C251 2.311 . S
C490 C38 2.317 . S
C501 C304 2.298 . S
C506 C91 2.287 . S
