# Generated by pormake.
# Topology fnr, (5)-cn, num edge types: 1
# Building blocks:
#     Node 0, Type 0, BuildingBlock: XOMCOT_clean_sbu_0, # of connection points: 5
#     Node 1, Type 0, BuildingBlock: XOMCOT_clean_sbu_0, # of connection points: 5
#     Node 2, Type 0, BuildingBlock: XOMCOT_clean_sbu_0, # of connection points: 5
#     Node 3, Type 0, BuildingBlock: XOMCOT_clean_sbu_0, # of connection points: 5
#     Node 4, Type 0, BuildingBlock: XOMCOT_clean_sbu_0, # of connection points: 5
#     Node 5, Type 0, BuildingBlock: XOMCOT_clean_sbu_0, # of connection points: 5
#     Node 6, Type 0, BuildingBlock: XOMCOT_clean_sbu_0, # of connection points: 5
#     Node 7, Type 0, BuildingBlock: XOMCOT_clean_sbu_0, # of connection points: 5
#     Node 8, Type 0, BuildingBlock: XOMCOT_clean_sbu_0, # of connection points: 5
#     Node 9, Type 0, BuildingBlock: XOMCOT_clean_sbu_0, # of connection points: 5
#     Node 10, Type 0, BuildingBlock: XOMCOT_clean_sbu_0, # of connection points: 5
#     Node 11, Type 0, BuildingBlock: XOMCOT_clean_sbu_0, # of connection points: 5
#     Edge 12, Type (0, 0), BuildingBlock: MIFKUJ_clean_linker_0, # of connection points: 2
#     Edge 13, Type (0, 0), BuildingBlock: MIFKUJ_clean_linker_0, # of connection points: 2
#     Edge 14, Type (0, 0), BuildingBlock: MIFKUJ_clean_linker_0, # of connection points: 2
#     Edge 15, Type (0, 0), BuildingBlock: MIFKUJ_clean_linker_0, # of connection points: 2
#     Edge 16, Type (0, 0), BuildingBlock: MIFKUJ_clean_linker_0, # of connection points: 2
#     Edge 17, Type (0, 0), BuildingBlock: MIFKUJ_clean_linker_0, # of connection points: 2
#     Edge 18, Type (0, 0), BuildingBlock: MIFKUJ_clean_linker_0, # of connection points: 2
#     Edge 19, Type (0, 0), BuildingBlock: MIFKUJ_clean_linker_0, # of connection points: 2
#     Edge 20, Type (0, 0), BuildingBlock: MIFKUJ_clean_linker_0, # of connection points: 2
#     Edge 21, Type (0, 0), BuildingBlock: MIFKUJ_clean_linker_0, # of connection points: 2
#     Edge 22, Type (0, 0), BuildingBlock: MIFKUJ_clean_linker_0, # of connection points: 2
#     Edge 23, Type (0, 0), BuildingBlock: MIFKUJ_clean_linker_0, # of connection points: 2
#     Edge 24, Type (0, 0), BuildingBlock: MIFKUJ_clean_linker_0, # of connection points: 2
#     Edge 25, Type (0, 0), BuildingBlock: MIFKUJ_clean_linker_0, # of connection points: 2
#     Edge 26, Type (0, 0), BuildingBlock: MIFKUJ_clean_linker_0, # of connection points: 2
#     Edge 27, Type (0, 0), BuildingBlock: MIFKUJ_clean_linker_0, # of connection points: 2
#     Edge 28, Type (0, 0), BuildingBlock: MIFKUJ_clean_linker_0, # of connection points: 2
#     Edge 29, Type (0, 0), BuildingBlock: MIFKUJ_clean_linker_0, # of connection points: 2
#     Edge 30, Type (0, 0), BuildingBlock: MIFKUJ_clean_linker_0, # of connection points: 2
#     Edge 31, Type (0, 0), BuildingBlock: MIFKUJ_clean_linker_0, # of connection points: 2
#     Edge 32, Type (0, 0), BuildingBlock: MIFKUJ_clean_linker_0, # of connection points: 2
#     Edge 33, Type (0, 0), BuildingBlock: MIFKUJ_clean_linker_0, # of connection points: 2
#     Edge 34, Type (0, 0), BuildingBlock: MIFKUJ_clean_linker_0, # of connection points: 2
#     Edge 35, Type (0, 0), BuildingBlock: MIFKUJ_clean_linker_0, # of connection points: 2
#     Edge 36, Type (0, 0), BuildingBlock: MIFKUJ_clean_linker_0, # of connection points: 2
#     Edge 37, Type (0, 0), BuildingBlock: MIFKUJ_clean_linker_0, # of connection points: 2
#     Edge 38, Type (0, 0), BuildingBlock: MIFKUJ_clean_linker_0, # of connection points: 2
#     Edge 39, Type (0, 0), BuildingBlock: MIFKUJ_clean_linker_0, # of connection points: 2
#     Edge 40, Type (0, 0), BuildingBlock: MIFKUJ_clean_linker_0, # of connection points: 2
#     Edge 41, Type (0, 0), BuildingBlock: MIFKUJ_clean_linker_0, # of connection points: 2
# Relax obj value: 0.285
# Max RMSD: 0.220
# Mean RMSD: 0.220
data_MOF--net-fnr--node1-XOMCOT_clean_sbu_0--edge1-MIFKUJ_clean_linker_0
_symmetry_space_group_name_H-M    P1
_symmetry_Int_Tables_number       1
_symmetry_cell_setting            triclinic
loop_
_symmetry_equiv_pos_as_xyz
'x, y, z'
_cell_length_a     51.5485
_cell_length_b     51.560854
_cell_length_c     66.176963
_cell_angle_alpha  89.970296
_cell_angle_beta   89.982984
_cell_angle_gamma 120.03062
loop_
_atom_site_label
_atom_site_type_symbol
_atom_site_fract_x
_atom_site_fract_y
_atom_site_fract_z
_atom_type_partial_charge
Co0 Co 0.39399 0.15946 0.08225 0.0
C1 C 0.35871 0.18068 0.05982 0.0
C2 C 0.33395 0.15443 0.08537 0.0
C3 C 0.316 0.1621 0.07462 0.0
N4 N 0.36101 0.16645 0.07631 0.0
N5 N 0.33155 0.17858 0.05855 0.0
H6 H 0.37628 0.19157 0.04865 0.0
H7 H 0.32672 0.13997 0.09836 0.0
C8 C 0.42342 0.22623 0.07895 0.0
O9 O 0.40105 0.22483 0.08937 0.0
N10 N 0.42645 0.15205 0.08766 0.0
C11 C 0.42552 0.13083 0.10002 0.0
C12 C 0.45316 0.13282 0.09981 0.0
C13 C 0.45453 0.16676 0.08017 0.0
N14 N 0.47131 0.15545 0.08738 0.0
C15 C 0.37169 0.14841 0.12281 0.0
C16 C 0.42019 0.19663 0.14071 0.0
C17 C 0.39625 0.17655 0.15291 0.0
C18 C 0.37189 0.15212 0.14365 0.0
C19 C 0.41901 0.19211 0.11978 0.0
N20 N 0.39431 0.16891 0.11089 0.0
H21 H 0.35385 0.12803 0.1165 0.0
H22 H 0.43864 0.20658 0.11099 0.0
H23 H 0.40618 0.11519 0.1087 0.0
H24 H 0.46248 0.18511 0.06954 0.0
O25 O 0.36611 0.1171 0.08353 0.0
O26 O 0.38906 0.14173 0.05566 0.0
O27 O 0.42403 0.20229 0.075 0.0
C28 C 0.37051 0.11635 0.06428 0.0
H29 H 0.29314 0.15583 0.07831 0.0
H30 H 0.45963 0.11914 0.10847 0.0
H31 H 0.43992 0.21535 0.14727 0.0
H32 H 0.35364 0.13509 0.15254 0.0
Co33 Co 0.23096 0.3974 0.58212 0.0
C34 C 0.17075 0.3691 0.56471 0.0
C35 C 0.17127 0.34673 0.59197 0.0
C36 C 0.14312 0.33112 0.58352 0.0
N37 N 0.18843 0.37053 0.58015 0.0
N38 N 0.14289 0.34512 0.56632 0.0
H39 H 0.17871 0.3843 0.55197 0.0
H40 H 0.179 0.34053 0.60533 0.0
C41 C 0.23482 0.45707 0.58704 0.0
O42 O 0.25377 0.46278 0.60195 0.0
N43 N 0.27428 0.42434 0.5831 0.0
C44 C 0.2957 0.41844 0.58962 0.0
C45 C 0.32353 0.44314 0.58629 0.0
C46 C 0.28974 0.4518 0.57464 0.0
N47 N 0.31948 0.46405 0.57709 0.0
C48 C 0.24209 0.38974 0.62335 0.0
C49 C 0.20637 0.40927 0.64099 0.0
C50 C 0.22355 0.40158 0.65346 0.0
C51 C 0.24088 0.39091 0.6443 0.0
C52 C 0.20805 0.40744 0.61994 0.0
N53 N 0.22718 0.39944 0.61135 0.0
H54 H 0.25452 0.38019 0.61687 0.0
H55 H 0.19404 0.41258 0.61058 0.0
H56 H 0.29184 0.39747 0.59587 0.0
H57 H 0.27978 0.46285 0.56659 0.0
O58 O 0.2371 0.36365 0.58148 0.0
O59 O 0.23588 0.38826 0.55436 0.0
O60 O 0.2238 0.43227 0.57738 0.0
C61 C 0.23939 0.36688 0.562 0.0
H62 H 0.12453 0.31062 0.58937 0.0
H63 H 0.34496 0.44586 0.59075 0.0
H64 H 0.192 0.41689 0.64736 0.0
H65 H 0.2531 0.38296 0.65323 0.0
Co66 Co 0.83457 0.23747 0.07479 0.0
C67 C 0.7999 0.17602 0.05847 0.0
C68 C 0.82467 0.17748 0.08496 0.0
C69 C 0.80966 0.1485 0.07785 0.0
N70 N 0.81824 0.19461 0.07295 0.0
N71 N 0.7942 0.14763 0.06116 0.0
H72 H 0.79123 0.18322 0.04613 0.0
H73 H 0.83972 0.18558 0.09775 0.0
C74 C 0.7812 0.24362 0.08335 0.0
O75 O 0.79729 0.26318 0.09735 0.0
N76 N 0.85131 0.28095 0.07558 0.0
C77 C 0.87842 0.30239 0.08232 0.0
C78 C 0.88158 0.33016 0.07877 0.0
C79 C 0.83947 0.2964 0.06677 0.0
N80 N 0.85685 0.32629 0.0692 0.0
C81 C 0.85794 0.24823 0.11512 0.0
C82 C 0.80443 0.21345 0.13514 0.0
C83 C 0.83075 0.2297 0.14649 0.0
C84 C 0.85779 0.24675 0.13613 0.0
C85 C 0.80562 0.21562 0.11401 0.0
N86 N 0.83198 0.2342 0.10427 0.0
H87 H 0.87925 0.25989 0.10763 0.0
H88 H 0.78534 0.20212 0.1055 0.0
H89 H 0.89551 0.29867 0.0887 0.0
H90 H 0.81862 0.28606 0.05847 0.0
O91 O 0.87403 0.24309 0.0718 0.0
O92 O 0.84541 0.24175 0.04631 0.0
O93 O 0.7925 0.23097 0.07271 0.0
C94 C 0.87088 0.24492 0.0525 0.0
H95 H 0.81091 0.12972 0.08404 0.0
H96 H 0.90047 0.3515 0.08317 0.0
H97 H 0.78311 0.19934 0.14248 0.0
H98 H 0.8789 0.25834 0.14416 0.0
Co99 Co 0.5957 0.8278 0.55778 0.0
C100 C 0.64439 0.81263 0.55125 0.0
C101 C 0.60391 0.78516 0.53453 0.0
C102 C 0.62358 0.77528 0.53064 0.0
N103 N 0.61662 0.80822 0.54761 0.0
N104 N 0.64889 0.7924 0.54112 0.0
H105 H 0.66057 0.82972 0.5612 0.0
H106 H 0.58172 0.77615 0.52818 0.0
C107 C 0.53884 0.77544 0.57344 0.0
O108 O 0.54058 0.79102 0.58962 0.0
N109 N 0.5729 0.84657 0.56672 0.0
C110 C 0.58188 0.87349 0.57542 0.0
C111 C 0.55742 0.87758 0.57731 0.0
C112 C 0.54364 0.83575 0.56246 0.0
N113 N 0.53342 0.85351 0.56937 0.0
C114 C 0.62403 0.85028 0.59603 0.0
C115 C 0.60359 0.79561 0.6148 0.0
C116 C 0.61727 0.82177 0.62662 0.0
C117 C 0.62911 0.84941 0.61664 0.0
C118 C 0.59963 0.79763 0.59403 0.0
N119 N 0.60723 0.82458 0.58536 0.0
H120 H 0.63335 0.87177 0.58874 0.0
H121 H 0.58923 0.77733 0.58515 0.0
H122 H 0.60456 0.88966 0.57957 0.0
H123 H 0.52991 0.81537 0.55409 0.0
O124 O 0.62931 0.86622 0.55121 0.0
O125 O 0.59166 0.83872 0.53036 0.0
O126 O 0.55845 0.78707 0.55942 0.0
C127 C 0.61685 0.86342 0.53369 0.0
H128 H 0.61981 0.7571 0.52064 0.0
H129 H 0.55721 0.89653 0.58416 0.0
H130 H 0.59485 0.77367 0.62154 0.0
H131 H 0.64173 0.87035 0.62471 0.0
Co132 Co 0.75724 0.59691 0.07094 0.0
C133 C 0.8163 0.62965 0.0506 0.0
C134 C 0.81286 0.65424 0.07564 0.0
C135 C 0.84031 0.67142 0.06659 0.0
N136 N 0.79791 0.62807 0.06567 0.0
N137 N 0.84248 0.65606 0.05078 0.0
H138 H 0.81025 0.61221 0.03944 0.0
H139 H 0.80422 0.6606 0.08844 0.0
C140 C 0.76091 0.54118 0.07594 0.0
O141 O 0.74303 0.5347 0.09162 0.0
N142 N 0.71571 0.56577 0.07583 0.0
C143 C 0.69579 0.56743 0.08825 0.0
C144 C 0.66942 0.54058 0.08805 0.0
C145 C 0.70017 0.5383 0.0672 0.0
N146 N 0.67229 0.52219 0.07499 0.0
C147 C 0.75539 0.61206 0.11245 0.0
C148 C 0.79323 0.5936 0.12789 0.0
C149 C 0.77845 0.60294 0.14133 0.0
C150 C 0.76026 0.61336 0.1332 0.0
C151 C 0.78786 0.59296 0.10708 0.0
N152 N 0.76709 0.59968 0.09975 0.0
H153 H 0.74257 0.62167 0.10666 0.0
H154 H 0.80049 0.58702 0.09698 0.0
H155 H 0.69944 0.58675 0.09673 0.0
H156 H 0.70944 0.52976 0.05612 0.0
O157 O 0.74464 0.62629 0.07012 0.0
O158 O 0.74616 0.60107 0.04351 0.0
O159 O 0.76932 0.56547 0.06604 0.0
C160 C 0.74015 0.62092 0.05091 0.0
H161 H 0.85736 0.69354 0.07138 0.0
H162 H 0.64959 0.53493 0.09687 0.0
H163 H 0.80846 0.58645 0.13333 0.0
H164 H 0.75005 0.6228 0.14278 0.0
Co165 Co 0.16524 0.76535 0.57815 0.0
C166 C 0.19378 0.82642 0.56094 0.0
C167 C 0.16769 0.82227 0.58731 0.0
C168 C 0.17872 0.85057 0.57944 0.0
N169 N 0.17727 0.80724 0.57577 0.0
N170 N 0.195 0.85318 0.56277 0.0
H171 H 0.20359 0.82042 0.54864 0.0
H172 H 0.15305 0.81306 0.60025 0.0
C173 C 0.22205 0.76461 0.58446 0.0
O174 O 0.2078 0.74476 0.59876 0.0
N175 N 0.15269 0.72286 0.57965 0.0
C176 C 0.1293 0.70068 0.58968 0.0
C177 C 0.12848 0.67405 0.58598 0.0
C178 C 0.1646 0.70887 0.56907 0.0
N179 N 0.15089 0.67922 0.57315 0.0
C180 C 0.14464 0.75651 0.6192 0.0
C181 C 0.19943 0.7922 0.6374 0.0
C182 C 0.1741 0.77577 0.64966 0.0
C183 C 0.14632 0.75852 0.64019 0.0
C184 C 0.19663 0.7897 0.61634 0.0
N185 N 0.1698 0.77022 0.60751 0.0
H186 H 0.12279 0.74452 0.61243 0.0
H187 H 0.21611 0.80354 0.6072 0.0
H188 H 0.11327 0.70298 0.59877 0.0
H189 H 0.18315 0.72027 0.55868 0.0
O190 O 0.12409 0.75531 0.57642 0.0
O191 O 0.15221 0.75903 0.55005 0.0
O192 O 0.20855 0.77575 0.57455 0.0
C193 C 0.12621 0.75339 0.55702 0.0
H194 H 0.17479 0.86778 0.58551 0.0
H195 H 0.11292 0.65265 0.59269 0.0
H196 H 0.22127 0.80665 0.64396 0.0
H197 H 0.12581 0.74702 0.64889 0.0
Co198 Co 0.81069 0.5966 0.42897 0.0
C199 C 0.79484 0.64198 0.44354 0.0
C200 C 0.7561 0.60023 0.43557 0.0
C201 C 0.74674 0.61921 0.44258 0.0
N202 N 0.7863 0.61438 0.43605 0.0
N203 N 0.77102 0.64547 0.44763 0.0
H204 H 0.81786 0.65911 0.44612 0.0
H205 H 0.74146 0.57735 0.43093 0.0
C206 C 0.76637 0.53218 0.41967 0.0
O207 O 0.78381 0.53368 0.40469 0.0
N208 N 0.83485 0.57836 0.4227 0.0
C209 C 0.85614 0.58525 0.40848 0.0
C210 C 0.86645 0.56528 0.40993 0.0
C211 C 0.83358 0.55521 0.43308 0.0
N212 N 0.85214 0.54641 0.42537 0.0
C213 C 0.82745 0.62272 0.38947 0.0
C214 C 0.77388 0.58617 0.37014 0.0
C215 C 0.79874 0.60603 0.35853 0.0
C216 C 0.82545 0.62528 0.36863 0.0
C217 C 0.77685 0.58453 0.39105 0.0
N218 N 0.80407 0.60102 0.40029 0.0
H219 H 0.84842 0.63776 0.39672 0.0
H220 H 0.75714 0.56955 0.39951 0.0
H221 H 0.86392 0.60324 0.3977 0.0
H222 H 0.81817 0.54405 0.44543 0.0
O223 O 0.84687 0.63436 0.4327 0.0
O224 O 0.8244 0.60044 0.45675 0.0
O225 O 0.77381 0.5552 0.43078 0.0
C226 C 0.84711 0.62602 0.45117 0.0
H227 H 0.72366 0.6136 0.44453 0.0
H228 H 0.88294 0.56448 0.40022 0.0
H229 H 0.75247 0.57136 0.36315 0.0
H230 H 0.84486 0.64207 0.36049 0.0
Co231 Co 0.20841 0.80011 0.93574 0.0
C232 C 0.14307 0.77721 0.94346 0.0
C233 C 0.16081 0.75319 0.95948 0.0
C234 C 0.13084 0.74008 0.96373 0.0
N235 N 0.16847 0.77614 0.94659 0.0
N236 N 0.11972 0.75509 0.9537 0.0
H237 H 0.14162 0.7934 0.93381 0.0
H238 H 0.17607 0.74651 0.96551 0.0
C239 C 0.22402 0.75393 0.92216 0.0
O240 O 0.23822 0.77068 0.90646 0.0
N241 N 0.24945 0.8238 0.92591 0.0
C242 C 0.262 0.84739 0.91315 0.0
C243 C 0.29225 0.85738 0.91165 0.0
C244 C 0.27258 0.82082 0.93261 0.0
N245 N 0.29885 0.84044 0.92379 0.0
C246 C 0.19385 0.81655 0.89782 0.0
C247 C 0.17161 0.76165 0.8791 0.0
C248 C 0.17776 0.78676 0.86732 0.0
C249 C 0.1873 0.81408 0.87725 0.0
C250 C 0.17805 0.76513 0.8998 0.0
N251 N 0.19197 0.79296 0.9084 0.0
H252 H 0.20136 0.83786 0.90507 0.0
H253 H 0.17262 0.74549 0.90866 0.0
H254 H 0.25063 0.85736 0.90561 0.0
H255 H 0.27007 0.80439 0.94379 0.0
O256 O 0.20761 0.8362 0.9415 0.0
O257 O 0.22356 0.8139 0.96273 0.0
O258 O 0.21177 0.76281 0.93511 0.0
C259 C 0.21932 0.8363 0.95889 0.0
H260 H 0.11817 0.72125 0.97375 0.0
H261 H 0.30798 0.87542 0.90205 0.0
H262 H 0.1631 0.73974 0.87237 0.0
H263 H 0.19042 0.83368 0.86912 0.0
Co264 Co 0.4059 0.21404 0.43536 0.0
C265 C 0.36521 0.15026 0.44798 0.0
C266 C 0.40947 0.16991 0.46068 0.0
C267 C 0.39343 0.14065 0.46689 0.0
N268 N 0.39204 0.17591 0.44864 0.0
N269 N 0.36574 0.12835 0.45894 0.0
H270 H 0.34608 0.14753 0.43946 0.0
H271 H 0.43239 0.18576 0.4647 0.0
C272 C 0.46565 0.23002 0.41898 0.0
O273 O 0.45745 0.23812 0.40244 0.0
N274 N 0.4218 0.25369 0.42326 0.0
C275 C 0.41503 0.26384 0.40635 0.0
C276 C 0.43742 0.293 0.40286 0.0
C277 C 0.44733 0.27738 0.43017 0.0
N278 N 0.45777 0.30129 0.41782 0.0
C279 C 0.37407 0.19431 0.39777 0.0
C280 C 0.40433 0.16672 0.3831 0.0
C281 C 0.38624 0.17202 0.36984 0.0
C282 C 0.36967 0.18451 0.37776 0.0
C283 C 0.40803 0.17698 0.40302 0.0
N284 N 0.39551 0.19351 0.40934 0.0
H285 H 0.3614 0.20418 0.40357 0.0
H286 H 0.42213 0.17285 0.41302 0.0
H287 H 0.39627 0.25125 0.39648 0.0
H288 H 0.45961 0.27607 0.44303 0.0
O289 O 0.3685 0.21231 0.44077 0.0
O290 O 0.40766 0.23241 0.46134 0.0
O291 O 0.44775 0.21978 0.43409 0.0
C292 C 0.38044 0.22655 0.45744 0.0
H293 H 0.40133 0.12927 0.47673 0.0
H294 H 0.43928 0.30656 0.38985 0.0
H295 H 0.41623 0.15559 0.37799 0.0
H296 H 0.35469 0.18831 0.36837 0.0
Co297 Co 0.1973 0.40205 0.93806 0.0
C298 C 0.22035 0.36092 0.9483 0.0
C299 C 0.24442 0.40374 0.96303 0.0
C300 C 0.25731 0.38705 0.96837 0.0
N301 N 0.22152 0.38756 0.95031 0.0
N302 N 0.24225 0.36022 0.95913 0.0
H303 H 0.20413 0.3427 0.93904 0.0
H304 H 0.25118 0.42612 0.9682 0.0
C305 C 0.24342 0.46375 0.92356 0.0
O306 O 0.22808 0.45939 0.90681 0.0
N307 N 0.17306 0.41764 0.92663 0.0
C308 C 0.14801 0.40426 0.91514 0.0
C309 C 0.13845 0.42452 0.91142 0.0
C310 C 0.17709 0.44503 0.93069 0.0
N311 N 0.1571 0.4501 0.92111 0.0
C312 C 0.18266 0.37039 0.90052 0.0
C313 C 0.23823 0.40354 0.88266 0.0
C314 C 0.21342 0.38511 0.87047 0.0
C315 C 0.18582 0.36684 0.87998 0.0
C316 C 0.23403 0.40593 0.90333 0.0
N317 N 0.20585 0.39199 0.91141 0.0
H318 H 0.16112 0.35646 0.90745 0.0
H319 H 0.25327 0.42022 0.91252 0.0
H320 H 0.13695 0.38142 0.90989 0.0
H321 H 0.19476 0.46138 0.94022 0.0
O322 O 0.16148 0.36483 0.94396 0.0
O323 O 0.18194 0.40416 0.96439 0.0
O324 O 0.23419 0.44345 0.9372 0.0
C325 C 0.16003 0.37715 0.96071 0.0
H326 H 0.27593 0.39384 0.97867 0.0
H327 H 0.11993 0.4211 0.9019 0.0
H328 H 0.26031 0.41724 0.87622 0.0
H329 H 0.16646 0.35072 0.87149 0.0
Co330 Co 0.79862 0.19764 0.42824 0.0
C331 C 0.86119 0.21218 0.44009 0.0
C332 C 0.8291 0.19126 0.46387 0.0
C333 C 0.85655 0.19737 0.47093 0.0
N334 N 0.83167 0.20037 0.44444 0.0
N335 N 0.87672 0.21068 0.45606 0.0
H336 H 0.87152 0.22271 0.42592 0.0
H337 H 0.80891 0.18167 0.47285 0.0
C338 C 0.83357 0.26337 0.43764 0.0
O339 O 0.85792 0.26363 0.43162 0.0
N340 N 0.76543 0.19454 0.413 0.0
C341 C 0.75467 0.18076 0.39517 0.0
C342 C 0.72931 0.18218 0.39062 0.0
C343 C 0.74659 0.20386 0.41917 0.0
N344 N 0.72426 0.19663 0.40579 0.0
C345 C 0.83297 0.19507 0.39534 0.0
C346 C 0.83282 0.24042 0.37309 0.0
C347 C 0.84101 0.22132 0.36356 0.0
C348 C 0.84204 0.19907 0.37514 0.0
C349 C 0.82361 0.23547 0.39325 0.0
N350 N 0.82321 0.21266 0.40405 0.0
H351 H 0.83192 0.17653 0.40367 0.0
H352 H 0.81407 0.2482 0.39947 0.0
H353 H 0.76423 0.16995 0.38634 0.0
H354 H 0.74909 0.21539 0.43331 0.0
O355 O 0.78381 0.15548 0.42407 0.0
O356 O 0.77046 0.17445 0.44938 0.0
O357 O 0.80837 0.23901 0.4373 0.0
C358 C 0.76775 0.15084 0.44024 0.0
H359 H 0.86163 0.19391 0.48623 0.0
H360 H 0.71517 0.17243 0.37751 0.0
H361 H 0.83104 0.25743 0.3646 0.0
H362 H 0.84832 0.18389 0.36835 0.0
Co363 Co 0.60987 0.80152 0.91626 0.0
C364 C 0.63862 0.8624 0.93387 0.0
C365 C 0.66258 0.86039 0.90791 0.0
C366 C 0.67759 0.88904 0.91556 0.0
N367 N 0.63802 0.84382 0.91927 0.0
N368 N 0.66259 0.8903 0.93192 0.0
H369 H 0.62201 0.85553 0.94575 0.0
H370 H 0.66943 0.85207 0.89519 0.0
C371 C 0.55179 0.79944 0.90831 0.0
O372 O 0.54801 0.78115 0.89332 0.0
N373 N 0.58169 0.75849 0.91405 0.0
C374 C 0.58741 0.73704 0.90738 0.0
C375 C 0.56259 0.70931 0.91048 0.0
C376 C 0.55387 0.74305 0.92213 0.0
N377 N 0.54146 0.71322 0.91955 0.0
C378 C 0.62203 0.79245 0.8754 0.0
C379 C 0.60434 0.829 0.85679 0.0
C380 C 0.61305 0.81226 0.84467 0.0
C381 C 0.62293 0.79462 0.85441 0.0
C382 C 0.60435 0.82656 0.87789 0.0
N383 N 0.61115 0.80682 0.88691 0.0
H384 H 0.63092 0.77972 0.88233 0.0
H385 H 0.59856 0.84037 0.88694 0.0
H386 H 0.60852 0.74074 0.90155 0.0
H387 H 0.54305 0.75317 0.9303 0.0
O388 O 0.64232 0.79344 0.91864 0.0
O389 O 0.61565 0.79479 0.94443 0.0
O390 O 0.57542 0.80986 0.91927 0.0
C391 C 0.63678 0.78998 0.93788 0.0
H392 H 0.69853 0.90727 0.90993 0.0
H393 H 0.56022 0.68794 0.90629 0.0
H394 H 0.5972 0.84357 0.85013 0.0
H395 H 0.63177 0.78279 0.84593 0.0
H396 H 0.75871 0.28085 0.08814 0.0
H397 H 0.70679 0.26886 0.08457 0.0
H398 H 0.68096 0.17761 0.06937 0.0
H399 H 0.73353 0.19035 0.0714 0.0
H400 H 0.64892 0.1919 0.04847 0.0
H401 H 0.67354 0.20263 0.11916 0.0
H402 H 0.70237 0.22807 0.14977 0.0
H403 H 0.68264 0.29894 0.14096 0.0
H404 H 0.65401 0.2741 0.11015 0.0
H405 H 0.49776 0.12183 0.08429 0.0
H406 H 0.55127 0.13985 0.07956 0.0
H407 H 0.56886 0.2308 0.07702 0.0
H408 H 0.51524 0.21287 0.0817 0.0
H409 H 0.60475 0.21953 0.10533 0.0
H410 H 0.57537 0.20357 0.0356 0.0
H411 H 0.54462 0.17459 0.00654 0.0
H412 H 0.57103 0.10862 0.01589 0.0
H413 H 0.60161 0.13699 0.04521 0.0
C414 C 0.74199 0.25834 0.08378 0.0
C415 C 0.75002 0.23646 0.08013 0.0
C416 C 0.71224 0.25141 0.08193 0.0
C417 C 0.68967 0.22207 0.0773 0.0
C418 C 0.69786 0.20038 0.07306 0.0
C419 C 0.72785 0.20761 0.07426 0.0
C420 C 0.65754 0.21381 0.07746 0.0
C421 C 0.63928 0.19769 0.06104 0.0
C422 C 0.64484 0.22178 0.09365 0.0
C423 C 0.66191 0.23667 0.11224 0.0
C424 C 0.67552 0.22374 0.12369 0.0
C425 C 0.6918 0.23804 0.14108 0.0
C426 C 0.69441 0.26515 0.14727 0.0
C427 C 0.68065 0.27797 0.13613 0.0
C428 C 0.66438 0.26378 0.11871 0.0
C429 C 0.51305 0.14564 0.08263 0.0
C430 C 0.50244 0.16596 0.0834 0.0
C431 C 0.54351 0.15587 0.0798 0.0
C432 C 0.5639 0.18663 0.07789 0.0
C433 C 0.55338 0.20699 0.07844 0.0
C434 C 0.52282 0.19673 0.08098 0.0
C435 C 0.59639 0.19747 0.07654 0.0
C436 C 0.61462 0.214 0.09276 0.0
C437 C 0.60883 0.18932 0.06041 0.0
C438 C 0.59059 0.1723 0.04271 0.0
C439 C 0.57443 0.18276 0.03157 0.0
C440 C 0.55706 0.16646 0.01503 0.0
C441 C 0.55581 0.13974 0.0094 0.0
C442 C 0.57199 0.12931 0.02028 0.0
C443 C 0.58938 0.14551 0.03684 0.0
H444 H 0.54236 0.12716 0.99659 0.0
H445 H 0.70703 0.27619 0.16074 0.0
H446 H 0.37217 0.48714 0.5572 0.0
H447 H 0.40954 0.54062 0.55352 0.0
H448 H 0.35335 0.56343 0.58895 0.0
H449 H 0.31584 0.51033 0.59167 0.0
H450 H 0.37546 0.60119 0.56067 0.0
H451 H 0.41711 0.56201 0.60843 0.0
H452 H 0.43449 0.52823 0.62096 0.0
H453 H 0.4998 0.55735 0.57336 0.0
H454 H 0.48254 0.59103 0.56039 0.0
H455 H 0.48721 0.74589 0.59549 0.0
H456 H 0.44937 0.6926 0.59369 0.0
H457 H 0.49976 0.68008 0.54648 0.0
H458 H 0.53756 0.73319 0.54809 0.0
H459 H 0.48168 0.63788 0.57864 0.0
H460 H 0.43932 0.68069 0.53329 0.0
H461 H 0.42252 0.71652 0.52473 0.0
H462 H 0.35845 0.68207 0.57314 0.0
H463 H 0.37502 0.64618 0.58206 0.0
C464 C 0.36799 0.5038 0.564 0.0
C465 C 0.34128 0.49504 0.57452 0.0
C466 C 0.38926 0.53423 0.56203 0.0
C467 C 0.38446 0.55613 0.57119 0.0
C468 C 0.35755 0.54711 0.58162 0.0
C469 C 0.33613 0.51686 0.58316 0.0
C470 C 0.40749 0.58842 0.57037 0.0
C471 C 0.39861 0.60914 0.56477 0.0
C472 C 0.43784 0.59895 0.57552 0.0
C473 C 0.44831 0.57878 0.58331 0.0
C474 C 0.43504 0.56104 0.60055 0.0
C475 C 0.44488 0.54194 0.60774 0.0
C476 C 0.46817 0.54058 0.59793 0.0
C477 C 0.48172 0.55838 0.58093 0.0
C478 C 0.47193 0.5775 0.57365 0.0
C479 C 0.49015 0.7318 0.58468 0.0
C480 C 0.5153 0.7437 0.57192 0.0
C481 C 0.46851 0.70144 0.58363 0.0
C482 C 0.47183 0.68256 0.5699 0.0
C483 C 0.49687 0.69437 0.55715 0.0
C484 C 0.51833 0.72473 0.55803 0.0
C485 C 0.44946 0.6503 0.56911 0.0
C486 C 0.45852 0.62971 0.57441 0.0
C487 C 0.41918 0.63996 0.56419 0.0
C488 C 0.40855 0.66089 0.55842 0.0
C489 C 0.42171 0.68082 0.54214 0.0
C490 C 0.41221 0.70112 0.53721 0.0
C491 C 0.38945 0.7016 0.54839 0.0
C492 C 0.37603 0.68166 0.56446 0.0
C493 C 0.38543 0.66128 0.56943 0.0
H494 H 0.38223 0.71741 0.54457 0.0
H495 H 0.47577 0.52578 0.60352 0.0
H496 H 0.89463 0.38484 0.06016 0.0
H497 H 0.88136 0.42398 0.05601 0.0
H498 H 0.7881 0.35835 0.06496 0.0
H499 H 0.80122 0.31924 0.0685 0.0
H500 H 0.79142 0.3956 0.03771 0.0
H501 H 0.83457 0.40605 0.10365 0.0
H502 H 0.87334 0.41267 0.12827 0.0
H503 H 0.93532 0.49709 0.10116 0.0
H504 H 0.89701 0.49077 0.0762 0.0
H505 H 0.73384 0.48143 0.0832 0.0
H506 H 0.75335 0.44771 0.07649 0.0
H507 H 0.83337 0.52093 0.05067 0.0
H508 H 0.81358 0.55486 0.05695 0.0
H509 H 0.84119 0.4844 0.08258 0.0
H510 H 0.79174 0.47425 0.0192 0.0
H511 H 0.74942 0.46595 0.99746 0.0
H512 H 0.69516 0.37851 0.02329 0.0
H513 H 0.73703 0.38647 0.04541 0.0
C514 C 0.8713 0.37878 0.06109 0.0
C515 C 0.849 0.34894 0.06481 0.0
C516 C 0.86372 0.40117 0.05877 0.0
C517 C 0.83375 0.39431 0.06056 0.0
C518 C 0.81138 0.36432 0.0635 0.0
C519 C 0.8189 0.3419 0.06552 0.0
C520 C 0.82564 0.4183 0.06028 0.0
C521 C 0.80228 0.41493 0.04759 0.0
C522 C 0.84002 0.44388 0.07292 0.0
C523 C 0.86306 0.44776 0.08791 0.0
C524 C 0.85655 0.42592 0.10285 0.0
C525 C 0.87842 0.42963 0.11687 0.0
C526 C 0.90681 0.45523 0.11624 0.0
C527 C 0.91335 0.47723 0.1016 0.0
C528 C 0.89156 0.4736 0.08752 0.0
C529 C 0.7555 0.49033 0.07595 0.0
C530 C 0.77222 0.52076 0.07062 0.0
C531 C 0.76655 0.47102 0.07207 0.0
C532 C 0.79474 0.48183 0.06306 0.0
C533 C 0.81152 0.51219 0.0576 0.0
C534 C 0.80016 0.53146 0.06111 0.0
C535 C 0.80688 0.46137 0.06023 0.0
C536 C 0.83083 0.46535 0.07242 0.0
C537 C 0.79263 0.43605 0.04748 0.0
C538 C 0.76748 0.43106 0.03407 0.0
C539 C 0.77071 0.45335 0.02036 0.0
C540 C 0.74681 0.44868 0.00795 0.0
C541 C 0.7196 0.42174 0.00902 0.0
C542 C 0.71625 0.39937 0.02248 0.0
C543 C 0.74008 0.40393 0.03494 0.0
H544 H 0.70112 0.41818 0.99941 0.0
H545 H 0.92371 0.45807 0.12711 0.0
H546 H 0.51145 0.89015 0.56059 0.0
H547 H 0.4585 0.87664 0.56028 0.0
H548 H 0.43334 0.78709 0.57984 0.0
H549 H 0.48586 0.80022 0.57884 0.0
H550 H 0.39526 0.7813 0.55467 0.0
H551 H 0.43616 0.84584 0.61211 0.0
H552 H 0.47071 0.89183 0.63069 0.0
H553 H 0.44337 0.94266 0.59401 0.0
H554 H 0.4089 0.897 0.57504 0.0
H555 H 0.253 0.73759 0.59708 0.0
H556 H 0.30602 0.75454 0.59224 0.0
H557 H 0.31674 0.83089 0.55848 0.0
H558 H 0.26337 0.81405 0.56335 0.0
H559 H 0.3613 0.84508 0.58833 0.0
H560 H 0.31518 0.77429 0.53367 0.0
H561 H 0.27793 0.72502 0.51996 0.0
H562 H 0.31365 0.68215 0.55718 0.0
H563 H 0.35064 0.73107 0.57152 0.0
C564 C 0.49447 0.86767 0.56482 0.0
C565 C 0.50259 0.84622 0.56974 0.0
C566 C 0.46423 0.85992 0.56476 0.0
C567 C 0.44168 0.83089 0.57037 0.0
C568 C 0.45005 0.80957 0.57535 0.0
C569 C 0.48009 0.81708 0.57486 0.0
C570 C 0.40941 0.82245 0.57108 0.0
C571 C 0.38798 0.79524 0.56221 0.0
C572 C 0.39953 0.8406 0.58065 0.0
C573 C 0.42023 0.86808 0.59201 0.0
C574 C 0.43769 0.86687 0.60791 0.0
C575 C 0.45722 0.89286 0.61853 0.0
C576 C 0.4593 0.92016 0.61349 0.0
C577 C 0.44178 0.92151 0.59786 0.0
C578 C 0.42223 0.89558 0.58718 0.0
C579 C 0.26656 0.75798 0.58859 0.0
C580 C 0.25397 0.77452 0.58061 0.0
C581 C 0.29687 0.76757 0.58577 0.0
C582 C 0.31529 0.79388 0.5749 0.0
C583 C 0.30287 0.8105 0.5669 0.0
C584 C 0.27238 0.80078 0.5696 0.0
C585 C 0.34758 0.80404 0.57217 0.0
C586 C 0.36886 0.83147 0.58064 0.0
C587 C 0.35725 0.7857 0.56279 0.0
C588 C 0.33564 0.75636 0.55371 0.0
C589 C 0.31501 0.75434 0.539 0.0
C590 C 0.2939 0.72646 0.53115 0.0
C591 C 0.29336 0.70046 0.53776 0.0
C592 C 0.31404 0.7023 0.55214 0.0
C593 C 0.33509 0.7301 0.56012 0.0
H594 H 0.27697 0.67889 0.53171 0.0
H595 H 0.47443 0.94027 0.62172 0.0
H596 H 0.65655 0.4909 0.03984 0.0
H597 H 0.61699 0.43813 0.03546 0.0
H598 H 0.60128 0.43044 0.09977 0.0
H599 H 0.64014 0.48279 0.10407 0.0
H600 H 0.60186 0.38028 0.08238 0.0
H601 H 0.55797 0.44407 0.07234 0.0
H602 H 0.55411 0.48451 0.05521 0.0
H603 H 0.53876 0.43851 0.99855 0.0
H604 H 0.54295 0.39798 0.01533 0.0
H605 H 0.43121 0.28179 0.08671 0.0
H606 H 0.47609 0.33032 0.08096 0.0
H607 H 0.51982 0.2864 0.05358 0.0
H608 H 0.47512 0.23768 0.0595 0.0
H609 H 0.50824 0.36089 0.04805 0.0
H610 H 0.59545 0.32696 0.06809 0.0
H611 H 0.59887 0.28696 0.08624 0.0
H612 H 0.52631 0.27346 0.12499 0.0
H613 H 0.52298 0.31389 0.10742 0.0
C614 C 0.64478 0.47771 0.05297 0.0
C615 C 0.65103 0.49088 0.07225 0.0
C616 C 0.62226 0.44771 0.05049 0.0
C617 C 0.60619 0.43044 0.06731 0.0
C618 C 0.61342 0.44331 0.08661 0.0
C619 C 0.63542 0.47325 0.08903 0.0
C620 C 0.58041 0.39962 0.06504 0.0
C621 C 0.58152 0.3759 0.07462 0.0
C622 C 0.55385 0.394 0.05506 0.0
C623 C 0.55114 0.41822 0.04503 0.0
C624 C 0.55403 0.44272 0.0562 0.0
C625 C 0.55173 0.46562 0.04656 0.0
C626 C 0.54629 0.46413 0.02579 0.0
C627 C 0.54304 0.43967 0.01463 0.0
C628 C 0.54536 0.41673 0.02419 0.0
C629 C 0.45025 0.2824 0.07932 0.0
C630 C 0.44963 0.25577 0.07379 0.0
C631 C 0.47587 0.31021 0.07595 0.0
C632 C 0.50145 0.312 0.06704 0.0
C633 C 0.50049 0.28554 0.06071 0.0
C634 C 0.47486 0.25769 0.0641 0.0
C635 C 0.5295 0.34147 0.06556 0.0
C636 C 0.52879 0.36499 0.05536 0.0
C637 C 0.55641 0.34691 0.07507 0.0
C638 C 0.55871 0.32316 0.08623 0.0
C639 C 0.58033 0.31554 0.08055 0.0
C640 C 0.58226 0.29281 0.09074 0.0
C641 C 0.56269 0.27754 0.10667 0.0
C642 C 0.54136 0.2852 0.11259 0.0
C643 C 0.53947 0.30806 0.10253 0.0
H644 H 0.56411 0.25982 0.11446 0.0
H645 H 0.54452 0.48188 0.01835 0.0
H646 H 0.18016 0.4501 0.57791 0.0
H647 H 0.16845 0.48959 0.57033 0.0
H648 H 0.26271 0.55565 0.5731 0.0
H649 H 0.27386 0.51644 0.5824 0.0
H650 H 0.23742 0.57836 0.59032 0.0
H651 H 0.2171 0.52987 0.52662 0.0
H652 H 0.19543 0.48797 0.50237 0.0
H653 H 0.10678 0.46845 0.51856 0.0
H654 H 0.12789 0.50999 0.54311 0.0
H655 H 0.2066 0.69181 0.56118 0.0
H656 H 0.22377 0.65593 0.55612 0.0
H657 H 0.13446 0.58305 0.5679 0.0
H658 H 0.11677 0.61861 0.57191 0.0
H659 H 0.16236 0.56783 0.53924 0.0
H660 H 0.18854 0.61675 0.6062 0.0
H661 H 0.21393 0.66273 0.62681 0.0
H662 H 0.29806 0.6857 0.59904 0.0
H663 H 0.27308 0.63991 0.57818 0.0
C664 C 0.19828 0.47308 0.57676 0.0
C665 C 0.22787 0.48034 0.58075 0.0
C666 C 0.19167 0.49569 0.57222 0.0
C667 C 0.21471 0.52582 0.5707 0.0
C668 C 0.24441 0.53277 0.57422 0.0
C669 C 0.25084 0.51033 0.57947 0.0
C670 C 0.20779 0.55027 0.56666 0.0
C671 C 0.22144 0.57611 0.57882 0.0
C672 C 0.18693 0.5478 0.55171 0.0
C673 C 0.1741 0.52293 0.53683 0.0
C674 C 0.19297 0.51654 0.5251 0.0
C675 C 0.18079 0.49286 0.51128 0.0
C676 C 0.14974 0.47552 0.50896 0.0
C677 C 0.13082 0.48189 0.52039 0.0
C678 C 0.14289 0.50553 0.53423 0.0
C679 C 0.19037 0.66815 0.56214 0.0
C680 C 0.16031 0.65818 0.56733 0.0
C681 C 0.20032 0.64763 0.5594 0.0
C682 C 0.18055 0.61681 0.56212 0.0
C683 C 0.15019 0.60672 0.56591 0.0
C684 C 0.14017 0.62715 0.56844 0.0
C685 C 0.19165 0.5952 0.56306 0.0
C686 C 0.1787 0.56997 0.55042 0.0
C687 C 0.21381 0.59859 0.57712 0.0
C688 C 0.22894 0.62508 0.59055 0.0
C689 C 0.21246 0.63159 0.60453 0.0
C690 C 0.22676 0.65763 0.61623 0.0
C691 C 0.25757 0.67717 0.61419 0.0
C692 C 0.2742 0.67057 0.60059 0.0
C693 C 0.26 0.64456 0.58885 0.0
H694 H 0.26857 0.6974 0.62317 0.0
H695 H 0.14035 0.45717 0.49827 0.0
H696 H 0.8587 0.50944 0.39974 0.0
H697 H 0.85399 0.46101 0.40788 0.0
H698 H 0.84162 0.47378 0.4708 0.0
H699 H 0.84624 0.52246 0.46265 0.0
H700 H 0.87999 0.44919 0.46362 0.0
H701 H 0.78323 0.43177 0.44796 0.0
H702 H 0.74547 0.43708 0.42841 0.0
H703 H 0.75908 0.39319 0.37779 0.0
H704 H 0.79767 0.38847 0.39681 0.0
H705 H 0.78807 0.27225 0.45078 0.0
H706 H 0.78962 0.32014 0.45532 0.0
H707 H 0.88277 0.36719 0.43776 0.0
H708 H 0.88168 0.31976 0.43392 0.0
H709 H 0.79753 0.36051 0.42948 0.0
H710 H 0.92084 0.43505 0.45754 0.0
H711 H 0.95673 0.43055 0.47982 0.0
H712 H 0.88398 0.35822 0.51177 0.0
H713 H 0.84762 0.36253 0.48987 0.0
C714 C 0.85555 0.50221 0.41535 0.0
C715 C 0.85273 0.51962 0.43056 0.0
C716 C 0.85265 0.47447 0.41996 0.0
C717 C 0.84715 0.46375 0.4399 0.0
C718 C 0.84574 0.48167 0.45531 0.0
C719 C 0.84824 0.50931 0.45064 0.0
C720 C 0.84152 0.43318 0.44423 0.0
C721 C 0.86193 0.42971 0.45627 0.0
C722 C 0.81722 0.40774 0.43524 0.0
C723 C 0.7936 0.41 0.42379 0.0
C724 C 0.77842 0.4235 0.43259 0.0
C725 C 0.75685 0.42641 0.4216 0.0
C726 C 0.74988 0.41547 0.40188 0.0
C727 C 0.76451 0.40165 0.39308 0.0
C728 C 0.78628 0.39889 0.40396 0.0
C729 C 0.809 0.29284 0.44821 0.0
C730 C 0.83476 0.29214 0.44201 0.0
C731 C 0.80983 0.3202 0.45074 0.0
C732 C 0.83639 0.34739 0.44711 0.0
C733 C 0.86217 0.34666 0.44115 0.0
C734 C 0.86145 0.3194 0.43882 0.0
C735 C 0.83689 0.37648 0.44818 0.0
C736 C 0.81543 0.37976 0.43711 0.0
C737 C 0.85975 0.40158 0.45857 0.0
C738 C 0.88149 0.39903 0.47196 0.0
C739 C 0.91248 0.4183 0.46939 0.0
C740 C 0.93291 0.41575 0.48194 0.0
C741 C 0.92264 0.39411 0.49719 0.0
C742 C 0.89191 0.37495 0.49992 0.0
C743 C 0.87137 0.3774 0.48743 0.0
H744 H 0.9385 0.39221 0.5069 0.0
H745 H 0.73311 0.41769 0.39342 0.0
H746 H 0.30818 0.79528 0.93569 0.0
H747 H 0.35562 0.79572 0.93658 0.0
H748 H 0.40186 0.8875 0.91626 0.0
H749 H 0.35442 0.88753 0.91574 0.0
H750 H 0.41769 0.85356 0.89428 0.0
H751 H 0.41171 0.87201 0.96371 0.0
H752 H 0.38832 0.86452 0.9973 0.0
H753 H 0.37886 0.77704 0.00102 0.0
H754 H 0.40175 0.78379 0.96728 0.0
H755 H 0.55224 0.83913 0.9364 0.0
H756 H 0.51349 0.85289 0.94179 0.0
H757 H 0.4597 0.79143 0.89486 0.0
H758 H 0.49806 0.77787 0.88926 0.0
H759 H 0.45454 0.82079 0.95273 0.0
H760 H 0.42544 0.8204 0.86784 0.0
H761 H 0.45096 0.83119 0.8348 0.0
H762 H 0.53512 0.89016 0.86332 0.0
H763 H 0.51006 0.88009 0.89648 0.0
C764 C 0.32841 0.81583 0.93183 0.0
C765 C 0.32728 0.84139 0.92562 0.0
C766 C 0.35561 0.816 0.93229 0.0
C767 C 0.38237 0.84169 0.92659 0.0
C768 C 0.38149 0.8674 0.92068 0.0
C769 C 0.35428 0.86731 0.92031 0.0
C770 C 0.41084 0.84094 0.92569 0.0
C771 C 0.42584 0.84659 0.9071 0.0
C772 C 0.42193 0.8325 0.94253 0.0
C773 C 0.40828 0.82834 0.96288 0.0
C774 C 0.40444 0.85107 0.97162 0.0
C775 C 0.3913 0.84698 0.9907 0.0
C776 C 0.38207 0.8203 0.00127 0.0
C777 C 0.38601 0.79769 0.9928 0.0
C778 C 0.39911 0.80166 0.97371 0.0
C779 C 0.53214 0.82856 0.92725 0.0
C780 C 0.5284 0.80758 0.91228 0.0
C781 C 0.50999 0.83639 0.93038 0.0
C782 C 0.48387 0.82353 0.91853 0.0
C783 C 0.47989 0.80211 0.90393 0.0
C784 C 0.50189 0.79432 0.90079 0.0
C785 C 0.46061 0.8323 0.92113 0.0
C786 C 0.44658 0.82811 0.93999 0.0
C787 C 0.45069 0.84261 0.90463 0.0
C788 C 0.46587 0.84931 0.88467 0.0
C789 C 0.44936 0.83582 0.86705 0.0
C790 C 0.46375 0.84178 0.8483 0.0
C791 C 0.49465 0.86129 0.84697 0.0
C792 C 0.5112 0.87498 0.86438 0.0
C793 C 0.49692 0.86913 0.88316 0.0
H794 H 0.50576 0.86584 0.83245 0.0
H795 H 0.3719 0.81717 0.01605 0.0
H796 H 0.72582 0.51824 0.45041 0.0
H797 H 0.67352 0.47749 0.45118 0.0
H798 H 0.68514 0.44646 0.39328 0.0
H799 H 0.73754 0.48656 0.39253 0.0
H800 H 0.63444 0.46094 0.39887 0.0
H801 H 0.67392 0.3987 0.42457 0.0
H802 H 0.70415 0.38688 0.44771 0.0
H803 H 0.65936 0.39829 0.49873 0.0
H804 H 0.62867 0.40991 0.47585 0.0
H805 H 0.49467 0.32811 0.38607 0.0
H806 H 0.54729 0.36738 0.38743 0.0
H807 H 0.54119 0.37162 0.45229 0.0
H808 H 0.48871 0.33144 0.45092 0.0
H809 H 0.58988 0.37224 0.44407 0.0
H810 H 0.54585 0.42804 0.41882 0.0
H811 H 0.51494 0.43991 0.39646 0.0
H812 H 0.5687 0.4445 0.34552 0.0
H813 H 0.59971 0.43226 0.36753 0.0
C814 C 0.71739 0.50248 0.43798 0.0
C815 C 0.73582 0.50579 0.42135 0.0
C816 C 0.68754 0.47923 0.43846 0.0
C817 C 0.67554 0.45915 0.42223 0.0
C818 C 0.69404 0.46182 0.40591 0.0
C819 C 0.724 0.48473 0.40555 0.0
C820 C 0.64319 0.43663 0.42171 0.0
C821 C 0.62463 0.44126 0.4085 0.0
C822 C 0.63045 0.41168 0.43478 0.0
C823 C 0.64923 0.40538 0.44855 0.0
C824 C 0.67071 0.3989 0.44073 0.0
C825 C 0.68784 0.39215 0.45378 0.0
C826 C 0.6838 0.392 0.47467 0.0
C827 C 0.66253 0.3985 0.48255 0.0
C828 C 0.64519 0.40506 0.46956 0.0
C829 C 0.5044 0.33789 0.40055 0.0
C830 C 0.48754 0.32697 0.41838 0.0
C831 C 0.53454 0.36034 0.40135 0.0
C832 C 0.54829 0.3729 0.41996 0.0
C833 C 0.53122 0.36236 0.43775 0.0
C834 C 0.50122 0.33954 0.43697 0.0
C835 C 0.5807 0.39607 0.42091 0.0
C836 C 0.5994 0.39177 0.43431 0.0
C837 C 0.59352 0.42156 0.4081 0.0
C838 C 0.57493 0.42896 0.39481 0.0
C839 C 0.55095 0.43136 0.40282 0.0
C840 C 0.53343 0.43819 0.39022 0.0
C841 C 0.5398 0.44288 0.36957 0.0
C842 C 0.56376 0.44083 0.36151 0.0
C843 C 0.58134 0.43398 0.37405 0.0
H844 H 0.52622 0.44817 0.35984 0.0
H845 H 0.69707 0.38676 0.48475 0.0
H846 H 0.25314 0.72908 0.90272 0.0
H847 H 0.23898 0.67614 0.90198 0.0
H848 H 0.16447 0.65493 0.94168 0.0
H849 H 0.17917 0.70771 0.9431 0.0
H850 H 0.18787 0.62342 0.95231 0.0
H851 H 0.15615 0.64307 0.88936 0.0
H852 H 0.16131 0.66945 0.85721 0.0
H853 H 0.22634 0.64657 0.83665 0.0
H854 H 0.22193 0.62045 0.86882 0.0
H855 H 0.11578 0.46568 0.93056 0.0
H856 H 0.12329 0.5169 0.92964 0.0
H857 H 0.21183 0.54976 0.90496 0.0
H858 H 0.20446 0.499 0.90632 0.0
H859 H 0.17641 0.57335 0.88621 0.0
H860 H 0.20897 0.55678 0.95177 0.0
H861 H 0.20089 0.52936 0.98383 0.0
H862 H 0.12887 0.54508 0.99887 0.0
H863 H 0.13625 0.57222 0.96671 0.0
C864 C 0.23393 0.71312 0.91142 0.0
C865 C 0.21726 0.72254 0.92293 0.0
C866 C 0.2257 0.68286 0.91088 0.0
C867 C 0.20024 0.66142 0.92143 0.0
C868 C 0.18414 0.67098 0.93338 0.0
C869 C 0.19263 0.70124 0.9342 0.0
C870 C 0.19019 0.62902 0.91992 0.0
C871 C 0.18492 0.61245 0.93782 0.0
C872 C 0.18637 0.61457 0.90104 0.0
C873 C 0.18889 0.63002 0.88158 0.0
C874 C 0.1717 0.64383 0.87804 0.0
C875 C 0.17447 0.65872 0.85981 0.0
C876 C 0.19418 0.65973 0.84492 0.0
C877 C 0.2111 0.64579 0.84821 0.0
C878 C 0.20846 0.63092 0.86643 0.0
C879 C 0.13654 0.48393 0.9247 0.0
C880 C 0.15966 0.47885 0.91861 0.0
C881 C 0.14086 0.51299 0.9242 0.0
C882 C 0.16815 0.53698 0.91726 0.0
C883 C 0.19063 0.53151 0.91029 0.0
C884 C 0.18651 0.50271 0.91116 0.0
C885 C 0.17444 0.56819 0.91853 0.0
C886 C 0.17904 0.58444 0.90062 0.0
C887 C 0.17713 0.58223 0.93735 0.0
C888 C 0.17291 0.56619 0.95674 0.0
C889 C 0.19124 0.55415 0.96183 0.0
C890 C 0.18682 0.53871 0.98003 0.0
C891 C 0.16431 0.5354 0.99335 0.0
C892 C 0.14625 0.54761 0.98852 0.0
C893 C 0.15054 0.56303 0.97031 0.0
H894 H 0.16093 0.52344 0.00744 0.0
H895 H 0.1963 0.67127 0.83081 0.0
H896 H 0.4953 0.22368 0.45133 0.0
H897 H 0.54121 0.22036 0.45039 0.0
H898 H 0.54507 0.23093 0.38563 0.0
H899 H 0.49982 0.23475 0.3864 0.0
H900 H 0.54918 0.1806 0.40036 0.0
H901 H 0.59243 0.28701 0.41002 0.0
H902 H 0.59787 0.33167 0.42746 0.0
H903 H 0.624 0.30539 0.48187 0.0
H904 H 0.61834 0.26028 0.46477 0.0
H905 H 0.69152 0.20182 0.37569 0.0
H906 H 0.64841 0.20909 0.37936 0.0
H907 H 0.65754 0.2107 0.4442 0.0
H908 H 0.70044 0.20319 0.44069 0.0
H909 H 0.64634 0.25419 0.43119 0.0
H910 H 0.60476 0.14874 0.42165 0.0
H911 H 0.59776 0.10299 0.40486 0.0
H912 H 0.56716 0.12618 0.35115 0.0
H913 H 0.57441 0.17233 0.36753 0.0
C914 C 0.5061 0.22552 0.43693 0.0
C915 C 0.49399 0.22948 0.41895 0.0
C916 C 0.53227 0.22368 0.43643 0.0
C917 C 0.54637 0.2254 0.41793 0.0
C918 C 0.53443 0.22954 0.40002 0.0
C919 C 0.50864 0.23183 0.40054 0.0
C920 C 0.57304 0.22186 0.41699 0.0
C921 C 0.57053 0.19681 0.40691 0.0
C922 C 0.60053 0.24268 0.426 0.0
C923 C 0.60454 0.27005 0.4362 0.0
C924 C 0.59909 0.29061 0.42575 0.0
C925 C 0.60227 0.31604 0.43556 0.0
C926 C 0.61104 0.32122 0.45581 0.0
C927 C 0.61706 0.30123 0.46621 0.0
C928 C 0.6139 0.27575 0.45646 0.0
C929 C 0.68426 0.20354 0.39073 0.0
C930 C 0.69938 0.20178 0.40788 0.0
C931 C 0.6597 0.2078 0.3928 0.0
C932 C 0.64963 0.21014 0.41206 0.0
C933 C 0.66502 0.20903 0.4292 0.0
C934 C 0.6896 0.20481 0.42714 0.0
C935 C 0.62262 0.21304 0.41431 0.0
C936 C 0.62499 0.23789 0.42468 0.0
C937 C 0.59488 0.19192 0.40564 0.0
C938 C 0.59041 0.16414 0.39575 0.0
C939 C 0.59678 0.14421 0.4062 0.0
C940 C 0.59272 0.11819 0.39677 0.0
C941 C 0.5821 0.11172 0.37694 0.0
C942 C 0.57543 0.13124 0.36651 0.0
C943 C 0.57948 0.15732 0.37586 0.0
H944 H 0.57896 0.09155 0.36966 0.0
H945 H 0.61314 0.3407 0.46346 0.0
H946 H 0.26062 0.51932 0.90863 0.0
H947 H 0.30994 0.56436 0.91127 0.0
H948 H 0.34211 0.51466 0.94536 0.0
H949 H 0.29225 0.47018 0.94383 0.0
H950 H 0.36667 0.56691 0.96003 0.0
H951 H 0.35496 0.53024 0.89225 0.0
H952 H 0.33024 0.51319 0.85913 0.0
H953 H 0.33847 0.59925 0.8489 0.0
H954 H 0.36289 0.61668 0.8821 0.0
H955 H 0.52234 0.65676 0.93253 0.0
H956 H 0.47012 0.61651 0.93639 0.0
H957 H 0.43976 0.67768 0.91939 0.0
H958 H 0.49193 0.71803 0.91574 0.0
H959 H 0.41436 0.62189 0.89676 0.0
H960 H 0.43107 0.65798 0.9655 0.0
H961 H 0.45867 0.67251 0.99776 0.0
H962 H 0.44462 0.58358 0.00476 0.0
H963 H 0.4173 0.56863 0.97237 0.0
C964 C 0.27819 0.51815 0.91682 0.0
C965 C 0.27273 0.49129 0.92592 0.0
C966 C 0.30645 0.54384 0.91823 0.0
C967 C 0.33012 0.54283 0.92808 0.0
C968 C 0.32435 0.51612 0.93764 0.0
C969 C 0.29586 0.49066 0.93672 0.0
C970 C 0.36104 0.56922 0.92789 0.0
C971 C 0.37711 0.57869 0.94613 0.0
C972 C 0.37481 0.58495 0.90983 0.0
C973 C 0.36047 0.57466 0.88974 0.0
C974 C 0.35134 0.54547 0.88298 0.0
C975 C 0.3374 0.53574 0.86419 0.0
C976 C 0.33271 0.55509 0.85194 0.0
C977 C 0.34207 0.58426 0.85842 0.0
C978 C 0.35598 0.59409 0.87722 0.0
C979 C 0.50448 0.66161 0.92984 0.0
C980 C 0.51109 0.69043 0.92383 0.0
C981 C 0.47474 0.63871 0.93211 0.0
C982 C 0.45116 0.64419 0.92817 0.0
C983 C 0.45769 0.67307 0.92253 0.0
C984 C 0.48743 0.6961 0.92059 0.0
C985 C 0.4197 0.61933 0.92881 0.0
C986 C 0.40367 0.61014 0.91063 0.0
C987 C 0.40633 0.60343 0.94679 0.0
C988 C 0.42236 0.61227 0.96642 0.0
C989 C 0.43406 0.64158 0.97384 0.0
C990 C 0.44962 0.64988 0.99216 0.0
C991 C 0.45346 0.629 0.00328 0.0
C992 C 0.44165 0.59974 0.99612 0.0
C993 C 0.42609 0.59133 0.9778 0.0
H994 H 0.46554 0.63548 0.01745 0.0
H995 H 0.32188 0.54751 0.83741 0.0
H996 H 0.43431 0.18261 0.34648 0.0
H997 H 0.43679 0.18151 0.30973 0.0
H998 H 0.3424 0.1516 0.30602 0.0
H999 H 0.33938 0.15127 0.34289 0.0
H1000 H 0.35792 0.12434 0.2781 0.0
H1001 H 0.39521 0.2256 0.30041 0.0
H1002 H 0.42757 0.27098 0.32027 0.0
H1003 H 0.50566 0.2775 0.29208 0.0
H1004 H 0.47377 0.23187 0.27227 0.0
H1005 H 0.3506 0.16744 0.17825 0.0
H1006 H 0.35025 0.16604 0.21515 0.0
H1007 H 0.44344 0.19054 0.21524 0.0
H1008 H 0.44391 0.19165 0.17822 0.0
H1009 H 0.43002 0.22005 0.2448 0.0
H1010 H 0.3917 0.1192 0.22154 0.0
H1011 H 0.35863 0.07418 0.2016 0.0
H1012 H 0.28156 0.06741 0.23153 0.0
H1013 H 0.31416 0.11269 0.25144 0.0
C1014 C 0.41386 0.17499 0.33793 0.0
C1015 C 0.38666 0.16724 0.3477 0.0
C1016 C 0.41542 0.17477 0.31686 0.0
C1017 C 0.38994 0.16716 0.30511 0.0
C1018 C 0.36242 0.15783 0.31479 0.0
C1019 C 0.36078 0.15787 0.33588 0.0
C1020 C 0.39223 0.17024 0.28278 0.0
C1021 C 0.37346 0.14535 0.27083 0.0
C1022 C 0.41292 0.19753 0.27327 0.0
C1023 C 0.43212 0.22515 0.28501 0.0
C1024 C 0.4193 0.23659 0.29855 0.0
C1025 C 0.43755 0.26237 0.30979 0.0
C1026 C 0.46866 0.27707 0.30748 0.0
C1027 C 0.48157 0.26607 0.29388 0.0
C1028 C 0.46342 0.24026 0.28263 0.0
C1029 C 0.37106 0.17261 0.18611 0.0
C1030 C 0.3972 0.17936 0.17529 0.0
C1031 C 0.37082 0.17182 0.20719 0.0
C1032 C 0.39668 0.17767 0.2179 0.0
C1033 C 0.42322 0.18585 0.20723 0.0
C1034 C 0.42348 0.18662 0.18609 0.0
C1035 C 0.3956 0.1742 0.24018 0.0
C1036 C 0.41458 0.19902 0.2521 0.0
C1037 C 0.37501 0.1469 0.24966 0.0
C1038 C 0.35536 0.11949 0.23785 0.0
C1039 C 0.36769 0.10824 0.22376 0.0
C1040 C 0.34903 0.08266 0.21248 0.0
C1041 C 0.31801 0.06798 0.21526 0.0
C1042 C 0.30559 0.07882 0.22938 0.0
C1043 C 0.32415 0.10443 0.24068 0.0
H1044 H 0.3036 0.04818 0.20651 0.0
H1045 H 0.48275 0.29702 0.3162 0.0
H1046 H 0.27065 0.41922 0.67942 0.0
H1047 H 0.26947 0.41778 0.71626 0.0
H1048 H 0.17521 0.38879 0.71541 0.0
H1049 H 0.17581 0.389 0.67837 0.0
H1050 H 0.21165 0.43557 0.74495 0.0
H1051 H 0.19092 0.33786 0.72256 0.0
H1052 H 0.20094 0.30319 0.70292 0.0
H1053 H 0.28581 0.33688 0.7327 0.0
H1054 H 0.27648 0.37212 0.75229 0.0
H1055 H 0.17168 0.38245 0.84395 0.0
H1056 H 0.17496 0.38678 0.80738 0.0
H1057 H 0.26349 0.39759 0.80922 0.0
H1058 H 0.25982 0.39174 0.84605 0.0
H1059 H 0.23185 0.36162 0.77895 0.0
H1060 H 0.25367 0.45786 0.80206 0.0
H1061 H 0.24619 0.49434 0.82154 0.0
H1062 H 0.16318 0.46651 0.79055 0.0
H1063 H 0.16995 0.42953 0.77107 0.0
C1064 C 0.24956 0.41234 0.687 0.0
C1065 C 0.22319 0.40374 0.67587 0.0
C1066 C 0.24902 0.41175 0.70806 0.0
C1067 C 0.22221 0.40287 0.71848 0.0
C1068 C 0.19612 0.39568 0.70757 0.0
C1069 C 0.19654 0.39594 0.68641 0.0
C1070 C 0.22132 0.39991 0.74074 0.0
C1071 C 0.21565 0.41917 0.75243 0.0
C1072 C 0.22759 0.37917 0.75039 0.0
C1073 C 0.23314 0.35785 0.73873 0.0
C1074 C 0.21184 0.33807 0.72478 0.0
C1075 C 0.21737 0.31828 0.71369 0.0
C1076 C 0.24403 0.31789 0.71652 0.0
C1077 C 0.26518 0.33724 0.7305 0.0
C1078 C 0.25978 0.35711 0.74161 0.0
C1079 C 0.19168 0.38514 0.83665 0.0
C1080 C 0.21544 0.38655 0.84803 0.0
C1081 C 0.19368 0.38809 0.81569 0.0
C1082 C 0.21968 0.39307 0.80558 0.0
C1083 C 0.24329 0.39397 0.81675 0.0
C1084 C 0.24123 0.39082 0.83781 0.0
C1085 C 0.22191 0.39715 0.78332 0.0
C1086 C 0.2279 0.37812 0.77156 0.0
C1087 C 0.2163 0.41839 0.77363 0.0
C1088 C 0.2122 0.44072 0.78523 0.0
C1089 C 0.23371 0.45935 0.7995 0.0
C1090 C 0.22961 0.48015 0.81053 0.0
C1091 C 0.20418 0.48269 0.80732 0.0
C1092 C 0.18284 0.46449 0.79303 0.0
C1093 C 0.18682 0.44363 0.78198 0.0
H1094 H 0.20105 0.4988 0.81587 0.0
H1095 H 0.24827 0.30254 0.70791 0.0
H1096 H 0.81607 0.17413 0.33755 0.0
H1097 H 0.816 0.17557 0.30071 0.0
H1098 H 0.87287 0.2717 0.30215 0.0
H1099 H 0.87238 0.27038 0.33918 0.0
H1100 H 0.82875 0.25756 0.27731 0.0
H1101 H 0.89843 0.22284 0.28658 0.0
H1102 H 0.91681 0.19034 0.29997 0.0
H1103 H 0.84401 0.11408 0.2711 0.0
H1104 H 0.82495 0.14606 0.25776 0.0
H1105 H 0.86197 0.27607 0.17261 0.0
H1106 H 0.86462 0.2741 0.20934 0.0
H1107 H 0.80162 0.17915 0.20816 0.0
H1108 H 0.79956 0.18079 0.17119 0.0
H1109 H 0.84918 0.19262 0.23262 0.0
H1110 H 0.77991 0.22837 0.22346 0.0
H1111 H 0.76275 0.26172 0.20978 0.0
H1112 H 0.83674 0.33729 0.23833 0.0
H1113 H 0.85459 0.30444 0.25196 0.0
C1114 C 0.82914 0.19552 0.33002 0.0
C1115 C 0.84443 0.22214 0.34126 0.0
C1116 C 0.82906 0.19632 0.30892 0.0
C1117 C 0.8447 0.22371 0.29857 0.0
C1118 C 0.86061 0.25029 0.30977 0.0
C1119 C 0.86041 0.24953 0.33091 0.0
C1120 C 0.84297 0.22475 0.27616 0.0
C1121 C 0.83372 0.24371 0.26755 0.0
C1122 C 0.84863 0.20609 0.26338 0.0
C1123 C 0.86012 0.18682 0.27132 0.0
C1124 C 0.88621 0.1991 0.28321 0.0
C1125 C 0.89678 0.18078 0.29077 0.0
C1126 C 0.88155 0.15015 0.28643 0.0
C1127 C 0.85577 0.1378 0.27447 0.0
C1128 C 0.84509 0.15602 0.26688 0.0
C1129 C 0.84872 0.25472 0.18014 0.0
C1130 C 0.8306 0.22856 0.16895 0.0
C1131 C 0.85007 0.25368 0.20117 0.0
C1132 C 0.83313 0.22652 0.21153 0.0
C1133 C 0.81483 0.20036 0.20046 0.0
C1134 C 0.81346 0.20138 0.17936 0.0
C1135 C 0.83507 0.22546 0.23388 0.0
C1136 C 0.8443 0.20648 0.24244 0.0
C1137 C 0.82958 0.24423 0.24662 0.0
C1138 C 0.81873 0.26397 0.23859 0.0
C1139 C 0.79264 0.25213 0.2267 0.0
C1140 C 0.78277 0.27094 0.21898 0.0
C1141 C 0.79868 0.30162 0.22315 0.0
C1142 C 0.82445 0.31353 0.2351 0.0
C1143 C 0.83444 0.29482 0.24285 0.0
H1144 H 0.79101 0.31614 0.21714 0.0
H1145 H 0.88977 0.136 0.2923 0.0
H1146 H 0.60025 0.7666 0.81805 0.0
H1147 H 0.60187 0.76857 0.78125 0.0
H1148 H 0.62383 0.86088 0.78291 0.0
H1149 H 0.62398 0.85984 0.81989 0.0
H1150 H 0.57464 0.81917 0.75474 0.0
H1151 H 0.67759 0.85257 0.77326 0.0
H1152 H 0.71708 0.84792 0.79107 0.0
H1153 H 0.69041 0.76477 0.76064 0.0
H1154 H 0.65042 0.76869 0.74288 0.0
H1155 H 0.61293 0.85958 0.6537 0.0
H1156 H 0.61292 0.85756 0.6903 0.0
H1157 H 0.62028 0.77789 0.68783 0.0
H1158 H 0.62264 0.78101 0.65094 0.0
H1159 H 0.65371 0.8115 0.71692 0.0
H1160 H 0.55242 0.77578 0.69818 0.0
H1161 H 0.51013 0.77582 0.68082 0.0
H1162 H 0.52906 0.85652 0.71188 0.0
H1163 H 0.57176 0.85721 0.72922 0.0
C1164 C 0.60592 0.78756 0.81072 0.0
C1165 C 0.61237 0.8132 0.82213 0.0
C1166 C 0.60656 0.7885 0.78964 0.0
C1167 C 0.61314 0.81489 0.77943 0.0
C1168 C 0.61868 0.84028 0.79059 0.0
C1169 C 0.61856 0.83955 0.81175 0.0
C1170 C 0.61451 0.81591 0.75708 0.0
C1171 C 0.59213 0.81796 0.74641 0.0
C1172 C 0.63665 0.81304 0.74634 0.0
C1173 C 0.66081 0.81077 0.75691 0.0
C1174 C 0.67996 0.83315 0.77051 0.0
C1175 C 0.70247 0.83068 0.78057 0.0
C1176 C 0.7062 0.80602 0.77703 0.0
C1177 C 0.68747 0.78383 0.76339 0.0
C1178 C 0.66489 0.78618 0.75331 0.0
C1179 C 0.61524 0.84193 0.6608 0.0
C1180 C 0.61791 0.82051 0.64916 0.0
C1181 C 0.61467 0.84051 0.68186 0.0
C1182 C 0.6159 0.81719 0.69191 0.0
C1183 C 0.61905 0.796 0.68044 0.0
C1184 C 0.6201 0.79765 0.65929 0.0
C1185 C 0.61396 0.81516 0.71436 0.0
C1186 C 0.63614 0.81276 0.72512 0.0
C1187 C 0.59121 0.81705 0.7252 0.0
C1188 C 0.56547 0.81669 0.71486 0.0
C1189 C 0.5477 0.79366 0.7012 0.0
C1190 C 0.52364 0.79354 0.69138 0.0
C1191 C 0.51695 0.8162 0.69521 0.0
C1192 C 0.53428 0.839 0.70891 0.0
C1193 C 0.55841 0.83925 0.71875 0.0
H1194 H 0.49831 0.81606 0.68759 0.0
H1195 H 0.72364 0.80415 0.78483 0.0
H1196 H 0.73523 0.58785 0.17008 0.0
H1197 H 0.74075 0.5892 0.20669 0.0
H1198 H 0.83417 0.61644 0.20005 0.0
H1199 H 0.82911 0.61599 0.16319 0.0
H1200 H 0.80325 0.57083 0.22946 0.0
H1201 H 0.8182 0.66776 0.21211 0.0
H1202 H 0.80568 0.70303 0.19568 0.0
H1203 H 0.72356 0.66581 0.22939 0.0
H1204 H 0.73538 0.62999 0.2458 0.0
H1205 H 0.842 0.61304 0.33156 0.0
H1206 H 0.83983 0.61303 0.29478 0.0
H1207 H 0.74967 0.59788 0.2976 0.0
H1208 H 0.75218 0.59932 0.33453 0.0
H1209 H 0.7809 0.63852 0.26973 0.0
H1210 H 0.76429 0.54093 0.28645 0.0
H1211 H 0.77519 0.50435 0.30264 0.0
H1212 H 0.85828 0.54097 0.27012 0.0
H1213 H 0.84807 0.57807 0.25393 0.0
C1214 C 0.75708 0.59445 0.17633 0.0
C1215 C 0.78183 0.60222 0.16363 0.0
C1216 C 0.76012 0.59504 0.19728 0.0
C1217 C 0.78793 0.60327 0.20605 0.0
C1218 C 0.81252 0.61007 0.19353 0.0
C1219 C 0.80955 0.60969 0.17248 0.0
C1220 C 0.79117 0.60517 0.22833 0.0
C1221 C 0.79886 0.58595 0.23829 0.0
C1222 C 0.78464 0.62436 0.2398 0.0
C1223 C 0.77756 0.646 0.23005 0.0
C1224 C 0.79736 0.66692 0.2159 0.0
C1225 C 0.79041 0.68705 0.20661 0.0
C1226 C 0.76381 0.68661 0.21145 0.0
C1227 C 0.74414 0.6661 0.22563 0.0
C1228 C 0.75097 0.6459 0.23495 0.0
C1229 C 0.82183 0.61014 0.32441 0.0
C1230 C 0.79727 0.60624 0.33607 0.0
C1231 C 0.82049 0.60974 0.30334 0.0
C1232 C 0.79443 0.60499 0.29341 0.0
C1233 C 0.76998 0.60143 0.30494 0.0
C1234 C 0.77135 0.602 0.32606 0.0
C1235 C 0.7928 0.604 0.27099 0.0
C1236 C 0.78541 0.62343 0.26096 0.0
C1237 C 0.79939 0.58483 0.25948 0.0
C1238 C 0.80555 0.56248 0.26914 0.0
C1239 C 0.785 0.54134 0.28287 0.0
C1240 C 0.79103 0.52049 0.29202 0.0
C1241 C 0.81745 0.52039 0.28745 0.0
C1242 C 0.83785 0.5411 0.27367 0.0
C1243 C 0.83193 0.56203 0.26449 0.0
H1244 H 0.82208 0.50422 0.29455 0.0
H1245 H 0.75847 0.70221 0.20425 0.0
H1246 H 0.21482 0.82926 0.84023 0.0
H1247 H 0.21304 0.82679 0.8035 0.0
H1248 H 0.13618 0.73782 0.8063 0.0
H1249 H 0.13707 0.74037 0.84328 0.0
H1250 H 0.18165 0.74353 0.77961 0.0
H1251 H 0.12537 0.79292 0.79329 0.0
H1252 H 0.11645 0.83129 0.8087 0.0
H1253 H 0.19365 0.90054 0.77815 0.0
H1254 H 0.20329 0.86258 0.76278 0.0
H1255 H 0.14312 0.72975 0.67624 0.0
H1256 H 0.14377 0.73164 0.71299 0.0
H1257 H 0.21117 0.8253 0.71102 0.0
H1258 H 0.20941 0.82402 0.67407 0.0
H1259 H 0.17018 0.81695 0.73764 0.0
H1260 H 0.22773 0.76959 0.72421 0.0
H1261 H 0.239 0.73259 0.70917 0.0
H1262 H 0.16296 0.6614 0.73943 0.0
H1263 H 0.15097 0.69794 0.75445 0.0
C1264 C 0.19707 0.80934 0.83314 0.0
C1265 C 0.17585 0.78514 0.84484 0.0
C1266 C 0.19627 0.80792 0.81209 0.0
C1267 C 0.17436 0.78224 0.8022 0.0
C1268 C 0.15328 0.75786 0.81369 0.0
C1269 C 0.1539 0.75934 0.83483 0.0
C1270 C 0.17393 0.78086 0.77983 0.0
C1271 C 0.17866 0.75924 0.77038 0.0
C1272 C 0.17106 0.80205 0.76789 0.0
C1273 C 0.16521 0.82491 0.77703 0.0
C1274 C 0.14059 0.81634 0.78999 0.0
C1275 C 0.13538 0.83802 0.79869 0.0
C1276 C 0.15452 0.86834 0.79445 0.0
C1277 C 0.17887 0.87705 0.78144 0.0
C1278 C 0.1842 0.85546 0.77272 0.0
C1279 C 0.15794 0.75087 0.68357 0.0
C1280 C 0.1761 0.77679 0.67212 0.0
C1281 C 0.15857 0.7518 0.70464 0.0
C1282 C 0.1778 0.77851 0.71482 0.0
C1283 C 0.19621 0.80439 0.70349 0.0
C1284 C 0.1954 0.80355 0.68235 0.0
C1285 C 0.17792 0.77956 0.73728 0.0
C1286 C 0.17315 0.80116 0.74679 0.0
C1287 C 0.18111 0.75854 0.74927 0.0
C1288 C 0.18829 0.73649 0.7403 0.0
C1289 C 0.21327 0.74602 0.72754 0.0
C1290 C 0.21981 0.72513 0.71903 0.0
C1291 C 0.20166 0.69466 0.7233 0.0
C1292 C 0.17697 0.68501 0.73612 0.0
C1293 C 0.17031 0.70581 0.74465 0.0
H1294 H 0.20677 0.67852 0.7167 0.0
H1295 H 0.15044 0.88509 0.8012 0.0
H1296 H 0.20972 0.88331 0.95517 0.0
H1297 H 0.23445 0.93049 0.97368 0.0
H1298 H 0.27907 0.89638 0.01126 0.0
H1299 H 0.25464 0.84903 0.99251 0.0
H1300 H 0.23641 0.94763 0.01192 0.0
H1301 H 0.35117 0.95375 0.01894 0.0
H1302 H 0.37935 0.93298 0.00186 0.0
H1303 H 0.33286 0.92567 0.94645 0.0
H1304 H 0.30483 0.94691 0.96309 0.0
H1305 H 0.32975 0.06182 0.07915 0.0
H1306 H 0.30372 0.01432 0.06113 0.0
H1307 H 0.35005 0.05818 0.00622 0.0
H1308 H 0.37657 0.10615 0.02429 0.0
H1309 H 0.34767 0.00375 0.0122 0.0
H1310 H 0.28011 0.04179 0.01162 0.0
H1311 H 0.25112 0.06334 0.02633 0.0
H1312 H 0.20268 0.98541 0.06369 0.0
H1313 H 0.23174 0.96358 0.04943 0.0
C1314 C 0.22446 0.88564 0.96757 0.0
C1315 C 0.23044 0.86257 0.9723 0.0
C1316 C 0.23853 0.91262 0.97815 0.0
C1317 C 0.25894 0.9171 0.99361 0.0
C1318 C 0.26371 0.8935 0.99915 0.0
C1319 C 0.24959 0.86641 0.98854 0.0
C1320 C 0.27633 0.94705 0.00307 0.0
C1321 C 0.26073 0.95983 0.01207 0.0
C1322 C 0.30807 0.9633 0.00273 0.0
C1323 C 0.32569 0.95164 0.99235 0.0
C1324 C 0.34713 0.94791 0.00308 0.0
C1325 C 0.36305 0.93603 0.99347 0.0
C1326 C 0.35783 0.92792 0.9731 0.0
C1327 C 0.33683 0.93189 0.96224 0.0
C1328 C 0.32092 0.94385 0.97175 0.0
C1329 C 0.33449 0.06145 0.06324 0.0
C1330 C 0.3551 0.08777 0.05309 0.0
C1331 C 0.31954 0.03426 0.05297 0.0
C1332 C 0.32476 0.0328 0.03232 0.0
C1333 C 0.34573 0.05889 0.02217 0.0
C1334 C 0.36072 0.08625 0.03247 0.0
C1335 C 0.3077 0.004 0.02141 0.0
C1336 C 0.32336 0.99147 0.01211 0.0
C1337 C 0.27599 0.98822 0.02106 0.0
C1338 C 0.25829 1.00117 0.02958 0.0
C1339 C 0.26344 0.02934 0.02308 0.0
C1340 C 0.24697 0.0416 0.03133 0.0
C1341 C 0.22512 0.02578 0.04597 0.0
C1342 C 0.21964 0.99765 0.05236 0.0
C1343 C 0.23608 0.98531 0.04419 0.0
H1344 H 0.21239 0.0353 0.05233 0.0
H1345 H 0.37008 0.9186 0.96572 0.0
H1346 H 0.24065 0.31727 0.57407 0.0
H1347 H 0.26276 0.29156 0.55645 0.0
H1348 H 0.28137 0.34965 0.50495 0.0
H1349 H 0.25951 0.37597 0.52276 0.0
H1350 H 0.25226 0.26058 0.52265 0.0
H1351 H 0.35046 0.36626 0.48614 0.0
H1352 H 0.379 0.42084 0.49199 0.0
H1353 H 0.35925 0.40672 0.55542 0.0
H1354 H 0.33112 0.35208 0.55 0.0
H1355 H 0.32519 0.21919 0.4507 0.0
H1356 H 0.30025 0.24134 0.4691 0.0
H1357 H 0.37414 0.28183 0.51102 0.0
H1358 H 0.39986 0.26023 0.49216 0.0
H1359 H 0.35801 0.32124 0.5002 0.0
H1360 H 0.3064 0.22068 0.5245 0.0
H1361 H 0.27882 0.16556 0.52208 0.0
H1362 H 0.20805 0.1682 0.48964 0.0
H1363 H 0.23541 0.22338 0.49161 0.0
C1364 C 0.24909 0.32439 0.55888 0.0
C1365 C 0.24856 0.34881 0.54984 0.0
C1366 C 0.26165 0.30957 0.54881 0.0
C1367 C 0.27411 0.31893 0.52952 0.0
C1368 C 0.27225 0.34234 0.51997 0.0
C1369 C 0.25958 0.35721 0.53008 0.0
C1370 C 0.29033 0.30506 0.52002 0.0
C1371 C 0.27532 0.27384 0.51763 0.0
C1372 C 0.32073 0.32229 0.51409 0.0
C1373 C 0.3384 0.35509 0.5176 0.0
C1374 C 0.35237 0.37481 0.50134 0.0
C1375 C 0.36846 0.40575 0.50459 0.0
C1376 C 0.37085 0.41725 0.52405 0.0
C1377 C 0.35732 0.3978 0.54034 0.0
C1378 C 0.3413 0.36684 0.53719 0.0
C1379 C 0.33611 0.23255 0.46395 0.0
C1380 C 0.36448 0.23783 0.47004 0.0
C1381 C 0.32173 0.24516 0.4745 0.0
C1382 C 0.33512 0.263 0.49159 0.0
C1383 C 0.36336 0.26811 0.49788 0.0
C1384 C 0.37793 0.2556 0.4872 0.0
C1385 C 0.31975 0.27674 0.50247 0.0
C1386 C 0.33492 0.30795 0.50514 0.0
C1387 C 0.28971 0.25941 0.50918 0.0
C1388 C 0.27309 0.2262 0.50807 0.0
C1389 C 0.28505 0.20952 0.51673 0.0
C1390 C 0.26945 0.17827 0.51545 0.0
C1391 C 0.24173 0.16339 0.50568 0.0
C1392 C 0.22953 0.17975 0.4972 0.0
C1393 C 0.24506 0.21102 0.49841 0.0
H1394 H 0.22969 0.13919 0.5047 0.0
H1395 H 0.38323 0.44121 0.52652 0.0
H1396 H 0.91373 0.22991 0.057 0.0
H1397 H 0.96196 0.25198 0.03971 0.0
H1398 H 0.93556 0.30247 0.00133 0.0
H1399 H 0.88654 0.27946 0.01831 0.0
H1400 H 0.97059 0.2867 0.98089 0.0
H1401 H 0.97576 0.3343 0.04316 0.0
H1402 H 0.96718 0.33691 0.07956 0.0
H1403 H 0.02292 0.29929 0.09342 0.0
H1404 H 0.03136 0.29588 0.05706 0.0
H1405 H 0.14113 0.40312 0.98877 0.0
H1406 H 0.09097 0.38102 0.00374 0.0
H1407 H 0.06639 0.29667 0.97507 0.0
H1408 H 0.11607 0.31873 0.95979 0.0
H1409 H 0.05659 0.33624 0.02822 0.0
H1410 H 0.99589 0.26528 0.95679 0.0
H1411 H 0.00408 0.26789 0.91994 0.0
H1412 H 0.05978 0.36351 0.92348 0.0
H1413 H 0.05144 0.36155 0.96026 0.0
C1414 C 0.91792 0.24513 0.04453 0.0
C1415 C 0.89659 0.25318 0.03903 0.0
C1416 C 0.94554 0.25787 0.03474 0.0
C1417 C 0.95269 0.27952 0.01963 0.0
C1418 C 0.93058 0.28597 0.01306 0.0
C1419 C 0.90258 0.27276 0.02269 0.0
C1420 C 0.98395 0.29689 0.01201 0.0
C1421 C 0.98939 0.29751 0.99121 0.0
C1422 C 0.00848 0.31205 0.02544 0.0
C1423 C 0.00403 0.31465 0.04736 0.0
C1424 C 0.98607 0.32643 0.05396 0.0
C1425 C 0.98122 0.32805 0.07459 0.0
C1426 C 0.99447 0.31824 0.0888 0.0
C1427 C 0.01266 0.30686 0.0824 0.0
C1428 C 0.0175 0.3051 0.06177 0.0
C1429 C 0.12521 0.3797 0.98603 0.0
C1430 C 0.13242 0.36269 0.97301 0.0
C1431 C 0.09653 0.36713 0.99451 0.0
C1432 C 0.0747 0.3374 0.99012 0.0
C1433 C 0.08262 0.31986 0.97826 0.0
C1434 C 0.11111 0.33244 0.96967 0.0
C1435 C 0.0433 0.32491 0.99717 0.0
C1436 C 0.03783 0.32542 0.01787 0.0
C1437 C 0.01877 0.31176 0.98357 0.0
C1438 C 0.02324 0.3132 0.96134 0.0
C1439 C 0.00972 0.28688 0.94969 0.0
C1440 C 0.0144 0.28824 0.92881 0.0
C1441 C 0.0325 0.31583 0.91938 0.0
C1442 C 0.04582 0.34214 0.9308 0.0
C1443 C 0.04112 0.34091 0.95167 0.0
H1444 H 0.03615 0.31682 0.90323 0.0
H1445 H 0.99068 0.31949 0.10476 0.0
H1446 H 0.67504 0.90662 0.53065 0.0
H1447 H 0.69563 0.9533 0.51159 0.0
H1448 H 0.60839 0.92499 0.48617 0.0
H1449 H 0.58778 0.87751 0.50486 0.0
H1450 H 0.65166 0.95698 0.45899 0.0
H1451 H 0.63104 0.9697 0.52687 0.0
H1452 H 0.63167 0.96506 0.56393 0.0
H1453 H 0.72759 0.01958 0.56401 0.0
H1454 H 0.72759 0.02408 0.5269 0.0
H1455 H 0.72501 0.13311 0.46974 0.0
H1456 H 0.69282 0.08229 0.48269 0.0
H1457 H 0.73464 0.04908 0.44169 0.0
H1458 H 0.76594 0.09946 0.42825 0.0
H1459 H 0.70508 0.04734 0.5022 0.0
H1460 H 0.68898 0.97759 0.4289 0.0
H1461 H 0.68268 0.98164 0.3923 0.0
H1462 H 0.64965 0.04195 0.40369 0.0
H1463 H 0.65533 0.03793 0.44036 0.0
C1464 C 0.66036 0.91008 0.52068 0.0
C1465 C 0.62979 0.88865 0.51934 0.0
C1466 C 0.67211 0.9368 0.50987 0.0
C1467 C 0.65338 0.94297 0.49789 0.0
C1468 C 0.6232 0.92076 0.49544 0.0
C1469 C 0.61147 0.89366 0.50607 0.0
C1470 C 0.66508 0.97341 0.48928 0.0
C1471 C 0.6633 0.97678 0.46839 0.0
C1472 C 0.67921 0.99922 0.50168 0.0
C1473 C 0.67932 0.99707 0.52407 0.0
C1474 C 0.65229 0.98057 0.53478 0.0
C1475 C 0.65253 0.97796 0.55579 0.0
C1476 C 0.67965 0.99199 0.56631 0.0
C1477 C 0.70659 0.00872 0.55584 0.0
C1478 C 0.70649 0.01133 0.53481 0.0
C1479 C 0.72712 0.11489 0.4634 0.0
C1480 C 0.74794 0.12023 0.44797 0.0
C1481 C 0.70873 0.08586 0.4708 0.0
C1482 C 0.71096 0.06169 0.463 0.0
C1483 C 0.73188 0.06712 0.44763 0.0
C1484 C 0.74996 0.09602 0.44005 0.0
C1485 C 0.69279 0.03112 0.4717 0.0
C1486 C 0.69328 0.02767 0.49271 0.0
C1487 C 0.67662 0.00535 0.45944 0.0
C1488 C 0.67283 0.00763 0.43739 0.0
C1489 C 0.68023 0.99159 0.42361 0.0
C1490 C 0.6768 0.99391 0.40284 0.0
C1491 C 0.66585 0.0121 0.39567 0.0
C1492 C 0.65823 0.02795 0.40926 0.0
C1493 C 0.66159 0.02569 0.43003 0.0
H1494 H 0.66323 0.01388 0.37959 0.0
H1495 H 0.6798 0.98994 0.58258 0.0
H1496 H 0.7428 0.62829 0.00968 0.0
H1497 H 0.72579 0.6575 0.98998 0.0
H1498 H 0.69422 0.67813 0.04463 0.0
H1499 H 0.71143 0.64956 0.06431 0.0
H1500 H 0.65319 0.6603 0.01128 0.0
H1501 H 0.75819 0.72863 0.02708 0.0
H1502 H 0.81172 0.74351 0.02692 0.0
H1503 H 0.81095 0.74009 0.96208 0.0
H1504 H 0.75725 0.72476 0.96188 0.0
H1505 H 0.62783 0.77585 0.97833 0.0
H1506 H 0.64695 0.74845 0.99779 0.0
H1507 H 0.69581 0.74638 0.94544 0.0
H1508 H 0.67777 0.77448 0.92628 0.0
H1509 H 0.72808 0.75356 0.97684 0.0
H1510 H 0.62656 0.6865 0.95884 0.0
H1511 H 0.57243 0.66839 0.95626 0.0
H1512 H 0.56509 0.66451 0.02096 0.0
H1513 H 0.61933 0.68315 0.02393 0.0
C1514 C 0.73204 0.6389 0.01742 0.0
C1515 C 0.72858 0.6368 0.03852 0.0
C1516 C 0.72241 0.65561 0.00619 0.0
C1517 C 0.70885 0.67006 0.01589 0.0
C1518 C 0.7046 0.66715 0.03686 0.0
C1519 C 0.71459 0.65093 0.04808 0.0
C1520 C 0.69993 0.68912 0.00447 0.0
C1521 C 0.66954 0.68085 0.0039 0.0
C1522 C 0.72122 0.71543 0.99436 0.0
C1523 C 0.75364 0.72526 0.99448 0.0
C1524 C 0.76938 0.73086 0.0128 0.0
C1525 C 0.79976 0.7394 0.01277 0.0
C1526 C 0.81471 0.74267 0.9945 0.0
C1527 C 0.79933 0.73752 0.97622 0.0
C1528 C 0.76893 0.72893 0.97617 0.0
C1529 C 0.64309 0.77002 0.97112 0.0
C1530 C 0.65113 0.7772 0.95074 0.0
C1531 C 0.65382 0.75414 0.98218 0.0
C1532 C 0.67236 0.74475 0.97296 0.0
C1533 C 0.6815 0.75323 0.95291 0.0
C1534 C 0.67107 0.7693 0.94195 0.0
C1535 C 0.68121 0.72499 0.98376 0.0
C1536 C 0.71161 0.73304 0.98419 0.0
C1537 C 0.6598 0.69805 0.99331 0.0
C1538 C 0.62709 0.68654 0.99161 0.0
C1539 C 0.61345 0.682 0.97252 0.0
C1540 C 0.58274 0.67162 0.97099 0.0
C1541 C 0.56534 0.66537 0.98844 0.0
C1542 C 0.57861 0.66942 0.00746 0.0
C1543 C 0.60934 0.67989 0.00908 0.0
H1544 H 0.54156 0.65733 0.98722 0.0
H1545 H 0.83821 0.74923 0.9945 0.0
H1546 H 0.89461 0.68122 0.44347 0.0
H1547 H 0.94293 0.70566 0.4606 0.0
H1548 H 0.90911 0.63448 0.50472 0.0
H1549 H 0.86065 0.6094 0.48727 0.0
H1550 H 0.96439 0.72802 0.4965 0.0
H1551 H 0.96413 0.61802 0.51526 0.0
H1552 H 0.93966 0.56592 0.50285 0.0
H1553 H 0.93073 0.5953 0.44387 0.0
H1554 H 0.95571 0.64762 0.4558 0.0
H1555 H 0.07417 0.75056 0.56775 0.0
H1556 H 0.02852 0.73205 0.54797 0.0
H1557 H 0.0715 0.71605 0.49743 0.0
H1558 H 0.11777 0.73466 0.51738 0.0
H1559 H 0.01478 0.66807 0.50493 0.0
H1560 H 0.05932 0.77286 0.49455 0.0
H1561 H 0.08449 0.82627 0.50394 0.0
H1562 H 0.00852 0.81018 0.53993 0.0
H1563 H 0.98305 0.75656 0.53099 0.0
C1564 C 0.89725 0.67095 0.45701 0.0
C1565 C 0.87392 0.64321 0.46392 0.0
C1566 C 0.92492 0.68502 0.46681 0.0
C1567 C 0.92985 0.67164 0.4837 0.0
C1568 C 0.90595 0.64493 0.49147 0.0
C1569 C 0.8782 0.63074 0.4816 0.0
C1570 C 0.96048 0.68477 0.49232 0.0
C1571 C 0.97536 0.71489 0.49839 0.0
C1572 C 0.97526 0.66795 0.49409 0.0
C1573 C 0.96154 0.63671 0.48651 0.0
C1574 C 0.95718 0.61339 0.4996 0.0
C1575 C 0.94319 0.58382 0.49265 0.0
C1576 C 0.93355 0.5773 0.4726 0.0
C1577 C 0.93814 0.60037 0.4594 0.0
C1578 C 0.95224 0.62999 0.46625 0.0
C1579 C 0.0741 0.74332 0.55237 0.0
C1580 C 0.09961 0.74411 0.54409 0.0
C1581 C 0.04795 0.73281 0.54106 0.0
C1582 C 0.04664 0.72284 0.52119 0.0
C1583 C 0.07209 0.72368 0.51275 0.0
C1584 C 0.09851 0.73447 0.52409 0.0
C1585 C 0.01827 0.71105 0.50965 0.0
C1586 C 0.00383 0.6812 0.50298 0.0
C1587 C 0.00419 0.72834 0.50681 0.0
C1588 C 0.01936 0.76062 0.51221 0.0
C1589 C 0.04807 0.78065 0.50459 0.0
C1590 C 0.06237 0.81098 0.50981 0.0
C1591 C 0.04814 0.8216 0.52256 0.0
C1592 C 0.01953 0.80191 0.53007 0.0
C1593 C 0.00513 0.77156 0.52491 0.0
H1594 H 0.05925 0.84508 0.52658 0.0
H1595 H 0.92257 0.55437 0.46729 0.0
H1596 H 0.76078 0.08991 0.07291 0.0
H1597 H 0.73469 0.04587 0.05121 0.0
H1598 H 0.76359 0.1029 0.99853 0.0
H1599 H 0.78896 0.14711 0.02035 0.0
H1600 H 0.7091 0.05967 0.99261 0.0
H1601 H 0.79898 0.06319 0.01512 0.0
H1602 H 0.83604 0.0659 0.03985 0.0
H1603 H 0.76936 0.98337 0.06674 0.0
H1604 H 0.73177 0.98038 0.04234 0.0
H1605 H 0.69352 0.94886 0.92136 0.0
H1606 H 0.71222 0.99219 0.94381 0.0
H1607 H 0.67132 0.93331 0.99473 0.0
H1608 H 0.65281 0.88975 0.97229 0.0
H1609 H 0.73038 0.9766 0.00177 0.0
H1610 H 0.64118 0.97312 0.97665 0.0
H1611 H 0.60658 0.97116 0.95019 0.0
H1612 H 0.67545 0.0549 0.92608 0.0
H1613 H 0.71061 0.05715 0.95223 0.0
C1614 C 0.76148 0.09302 0.05671 0.0
C1615 C 0.77712 0.12194 0.04833 0.0
C1616 C 0.74664 0.06782 0.04428 0.0
C1617 C 0.74769 0.07087 0.02314 0.0
C1618 C 0.76249 0.09985 0.01476 0.0
C1619 C 0.77696 0.12514 0.02724 0.0
C1620 C 0.73393 0.04386 0.00982 0.0
C1621 C 0.71405 0.0417 0.9945 0.0
C1622 C 0.73993 0.02004 0.01236 0.0
C1623 C 0.76249 0.02173 0.02704 0.0
C1624 C 0.79217 0.04574 0.02641 0.0
C1625 C 0.81328 0.0473 0.04035 0.0
C1626 C 0.80504 0.02486 0.05489 0.0
C1627 C 0.77569 1.00076 0.05549 0.0
C1628 C 0.75448 0.99911 0.0416 0.0
C1629 C 0.68845 0.94511 0.93733 0.0
C1630 C 0.67172 0.91581 0.94504 0.0
C1631 C 0.69897 0.96993 0.95013 0.0
C1632 C 0.69304 0.96605 0.97095 0.0
C1633 C 0.6761 0.93685 0.9787 0.0
C1634 C 0.66534 0.91198 0.96585 0.0
C1635 C 0.70557 0.99245 0.98469 0.0
C1636 C 0.72531 0.99453 1.00001 0.0
C1637 C 0.69981 0.01634 0.98193 0.0
C1638 C 0.6786 0.01517 0.96631 0.0
C1639 C 0.64902 0.99101 0.96562 0.0
C1640 C 0.62929 0.98987 0.95069 0.0
C1641 C 0.63883 0.01286 0.93644 0.0
C1642 C 0.66809 0.03709 0.93712 0.0
C1643 C 0.68792 0.03833 0.95201 0.0
H1644 H 0.62353 0.01193 0.92488 0.0
H1645 H 0.82142 0.02611 0.06567 0.0
H1646 H 0.81219 0.68689 0.47342 0.0
H1647 H 0.80759 0.72565 0.49193 0.0
H1648 H 0.72359 0.69872 0.46187 0.0
H1649 H 0.72878 0.66131 0.44284 0.0
H1650 H 0.75177 0.75621 0.46593 0.0
H1651 H 0.72928 0.67152 0.5102 0.0
H1652 H 0.74201 0.63747 0.52826 0.0
H1653 H 0.81425 0.71252 0.55854 0.0
H1654 H 0.80208 0.74701 0.54048 0.0
H1655 H 0.64991 0.74224 0.54916 0.0
H1656 H 0.68773 0.73049 0.53747 0.0
H1657 H 0.74374 0.82226 0.51841 0.0
H1658 H 0.7052 0.83378 0.53003 0.0
H1659 H 0.74482 0.74521 0.54052 0.0
H1660 H 0.7699 0.81973 0.4712 0.0
H1661 H 0.74941 0.84714 0.4527 0.0
H1662 H 0.66048 0.78234 0.47185 0.0
H1663 H 0.68043 0.75441 0.4902 0.0
C1664 C 0.79312 0.68974 0.47044 0.0
C1665 C 0.77059 0.67063 0.45687 0.0
C1666 C 0.79038 0.71174 0.48117 0.0
C1667 C 0.76497 0.71485 0.47858 0.0
C1668 C 0.74338 0.69683 0.46423 0.0
C1669 C 0.74619 0.67512 0.45349 0.0
C1670 C 0.75914 0.73498 0.4916 0.0
C1671 C 0.75087 0.75425 0.48227 0.0
C1672 C 0.75782 0.73251 0.51295 0.0
C1673 C 0.76504 0.71182 0.52383 0.0
C1674 C 0.74799 0.68073 0.52062 0.0
C1675 C 0.75508 0.66137 0.53086 0.0
C1676 C 0.77899 0.67284 0.54449 0.0
C1677 C 0.79579 0.70368 0.54795 0.0
C1678 C 0.78881 0.72314 0.53772 0.0
C1679 C 0.67086 0.76011 0.54322 0.0
C1680 C 0.67474 0.78881 0.5404 0.0
C1681 C 0.69251 0.75345 0.53654 0.0
C1682 C 0.71841 0.77533 0.52671 0.0
C1683 C 0.72378 0.80492 0.52577 0.0
C1684 C 0.70197 0.8116 0.53255 0.0
C1685 C 0.73642 0.76549 0.51476 0.0
C1686 C 0.74699 0.74818 0.52425 0.0
C1687 C 0.73897 0.76896 0.49348 0.0
C1688 C 0.7267 0.78529 0.48226 0.0
C1689 C 0.74598 0.81135 0.4714 0.0
C1690 C 0.73446 0.82695 0.46095 0.0
C1691 C 0.70368 0.81656 0.46117 0.0
C1692 C 0.68432 0.79043 0.47174 0.0
C1693 C 0.69571 0.77471 0.48216 0.0
H1694 H 0.69482 0.8287 0.4531 0.0
H1695 H 0.78445 0.65781 0.5524 0.0
H1696 H 0.88388 0.71361 0.04178 0.0
H1697 H 0.92808 0.73095 0.02052 0.0
H1698 H 0.90213 0.63944 0.0065 0.0
H1699 H 0.85827 0.62181 0.02848 0.0
H1700 H 0.95952 0.67029 0.01659 0.0
H1701 H 0.89635 0.68652 0.97155 0.0
H1702 H 0.86284 0.70568 0.96183 0.0
H1703 H 0.93393 0.79591 0.97164 0.0
H1704 H 0.96775 0.77727 0.98176 0.0
H1705 H 0.07098 0.70192 0.94674 0.0
H1706 H 0.01986 0.68636 0.95762 0.0
H1707 H 0.04862 0.77689 0.97638 0.0
H1708 H 0.09987 0.79257 0.96487 0.0
H1709 H 0.98884 0.74651 0.96235 0.0
H1710 H 0.05033 0.73045 0.0096 0.0
H1711 H 0.0841 0.71196 0.02007 0.0
H1712 H 0.01564 0.62172 0.00684 0.0
H1713 H 0.98163 0.63976 0.99594 0.0
C1714 C 0.88754 0.69708 0.03428 0.0
C1715 C 0.86753 0.66624 0.03703 0.0
C1716 C 0.9127 0.70709 0.02186 0.0
C1717 C 0.91834 0.68655 0.01168 0.0
C1718 C 0.8982 0.65574 0.01412 0.0
C1719 C 0.873 0.64568 0.0266 0.0
C1720 C 0.94616 0.69722 0.99949 0.0
C1721 C 0.96557 0.68651 0.00448 0.0
C1722 C 0.95462 0.71914 0.98408 0.0
C1723 C 0.93453 0.73047 0.97758 0.0
C1724 C 0.9048 0.71045 0.97175 0.0
C1725 C 0.88575 0.72121 0.96617 0.0
C1726 C 0.89623 0.75199 0.96617 0.0
C1727 C 0.92583 0.77207 0.97167 0.0
C1728 C 0.94497 0.76142 0.97731 0.0
C1729 C 0.06604 0.71864 0.95251 0.0
C1730 C 0.08916 0.74835 0.95504 0.0
C1731 C 0.03694 0.70976 0.95881 0.0
C1732 C 0.03055 0.73031 0.96824 0.0
C1733 C 0.05306 0.76064 0.9692 0.0
C1734 C 0.08225 0.76962 0.96259 0.0
C1735 C 1.00183 0.71926 0.97938 0.0
C1736 C 0.98248 0.73005 0.97433 0.0
C1737 C 0.99334 0.69746 0.99484 0.0
C1738 C 0.01354 0.68649 0.00177 0.0
C1739 C 0.04254 0.70669 0.00881 0.0
C1740 C 0.06172 0.69629 0.01482 0.0
C1741 C 0.05204 0.66569 0.01408 0.0
C1742 C 0.02312 0.64542 0.00738 0.0
C1743 C 0.00388 0.65572 0.00129 0.0
H1744 H 0.06693 0.65769 0.01874 0.0
H1745 H 0.88142 0.76027 0.96188 0.0
H1746 H 0.1808 0.89693 0.55755 0.0
H1747 H 0.20635 0.94121 0.53622 0.0
H1748 H 0.26685 0.91192 0.51551 0.0
H1749 H 0.24202 0.86794 0.5375 0.0
H1750 H 0.29677 0.96952 0.52545 0.0
H1751 H 0.21 0.90792 0.48519 0.0
H1752 H 0.15587 0.87608 0.47872 0.0
H1753 H 0.14221 0.94966 0.4928 0.0
H1754 H 0.19621 0.98183 0.49966 0.0
H1755 H 0.36915 0.07895 0.45246 0.0
H1756 H 0.33505 0.02879 0.46568 0.0
H1757 H 0.27662 0.05961 0.48826 0.0
H1758 H 0.31056 0.10978 0.47428 0.0
H1759 H 0.24461 1.00052 0.47636 0.0
H1760 H 0.32989 0.06094 0.51838 0.0
H1761 H 0.38374 0.09319 0.5256 0.0
H1762 H 0.39955 0.02171 0.50916 0.0
H1763 H 0.34583 0.98918 0.50151 0.0
C1764 C 0.19964 0.89987 0.5486 0.0
C1765 C 0.2094 0.87879 0.5494 0.0
C1766 C 0.21402 0.92512 0.53615 0.0
C1767 C 0.23833 0.92981 0.52402 0.0
C1768 C 0.24804 0.90874 0.52465 0.0
C1769 C 0.23369 0.88347 0.53715 0.0
C1770 C 0.2545 0.9574 0.51146 0.0
C1771 C 0.2854 0.97596 0.51446 0.0
C1772 C 0.23956 0.96639 0.49754 0.0
C1773 C 0.20714 0.94722 0.49311 0.0
C1774 C 0.19543 0.91726 0.48703 0.0
C1775 C 0.16477 0.89916 0.48328 0.0
C1776 C 0.1456 0.91082 0.48539 0.0
C1777 C 0.15708 0.94065 0.49119 0.0
C1778 C 0.18772 0.95884 0.49499 0.0
C1779 C 0.34851 0.07464 0.45968 0.0
C1780 C 0.34237 0.09802 0.46242 0.0
C1781 C 0.32915 0.0461 0.46735 0.0
C1782 C 0.30365 0.04059 0.47843 0.0
C1783 C 0.29623 0.06335 0.47984 0.0
C1784 C 0.31549 0.09192 0.47183 0.0
C1785 C 0.28685 0.01234 0.49025 0.0
C1786 C 0.25591 0.99385 0.48723 0.0
C1787 C 0.30166 0.00338 0.50428 0.0
C1788 C 0.33389 0.02273 0.5092 0.0
C1789 C 0.34488 0.05216 0.5162 0.0
C1790 C 0.37538 0.07049 0.52037 0.0
C1791 C 0.39506 0.05953 0.5178 0.0
C1792 C 0.38428 0.03018 0.51112 0.0
C1793 C 0.35381 0.01179 0.50687 0.0
H1794 H 0.41867 0.07375 0.52103 0.0
H1795 H 0.12187 0.89675 0.48251 0.0
H1796 H 0.29636 0.3647 0.96144 0.0
H1797 H 0.30704 0.32559 0.97185 0.0
H1798 H 0.21227 0.26171 0.97362 0.0
H1799 H 0.20156 0.30124 0.96323 0.0
H1800 H 0.2401 0.26371 0.0089 0.0
H1801 H 0.25607 0.25284 0.9396 0.0
H1802 H 0.27584 0.26909 0.90516 0.0
H1803 H 0.3658 0.30679 0.92741 0.0
H1804 H 0.34661 0.29118 0.96205 0.0
H1805 H 0.27457 0.15587 0.04536 0.0
H1806 H 0.25571 0.17987 0.02251 0.0
H1807 H 0.34551 0.25406 0.01462 0.0
H1808 H 0.36455 0.22998 0.03748 0.0
H1809 H 0.31406 0.23973 0.97926 0.0
H1810 H 0.29843 0.25813 0.04853 0.0
H1811 H 0.27954 0.24371 0.08334 0.0
H1812 H 0.1894 0.19343 0.06104 0.0
H1813 H 0.20783 0.20723 0.02604 0.0
C1814 C 0.27785 0.34217 0.96368 0.0
C1815 C 0.24816 0.33596 0.96168 0.0
C1816 C 0.28395 0.31977 0.96947 0.0
C1817 C 0.26047 0.29066 0.97343 0.0
C1818 C 0.23073 0.28401 0.97055 0.0
C1819 C 0.22462 0.30648 0.96452 0.0
C1820 C 0.26723 0.26857 0.98284 0.0
C1821 C 0.25565 0.2578 0.00217 0.0
C1822 C 0.28816 0.26156 0.9743 0.0
C1823 C 0.29987 0.27097 0.95347 0.0
C1824 C 0.28008 0.2648 0.93719 0.0
C1825 C 0.29119 0.27386 0.91762 0.0
C1826 C 0.32206 0.289 0.91411 0.0
C1827 C 0.34189 0.29506 0.93016 0.0
C1828 C 0.3309 0.28606 0.94976 0.0
C1829 C 0.29032 0.17725 0.03871 0.0
C1830 C 0.32101 0.19127 0.04345 0.0
C1831 C 0.27952 0.19088 0.0256 0.0
C1832 C 0.29912 0.21899 0.01713 0.0
C1833 C 0.32998 0.23237 0.02101 0.0
C1834 C 0.34084 0.21861 0.03406 0.0
C1835 C 0.28725 0.23535 0.00538 0.0
C1836 C 0.298 0.24513 0.98574 0.0
C1837 C 0.26564 0.24164 0.01364 0.0
C1838 C 0.25453 0.2334 0.03467 0.0
C1839 C 0.2746 0.24379 0.05104 0.0
C1840 C 0.26398 0.23577 0.07081 0.0
C1841 C 0.23329 0.21758 0.0744 0.0
C1842 C 0.21316 0.20746 0.05823 0.0
C1843 C 0.22368 0.21538 0.03843 0.0
H1844 H 0.22511 0.21141 0.08971 0.0
H1845 H 0.33061 0.296 0.89894 0.0
H1846 H 0.09922 0.28782 0.5595 0.0
H1847 H 0.05973 0.27017 0.53418 0.0
H1848 H 0.09327 0.36088 0.5137 0.0
H1849 H 0.13263 0.37891 0.53952 0.0
H1850 H 0.03252 0.33066 0.51723 0.0
H1851 H 0.10534 0.31408 0.48524 0.0
H1852 H 0.14211 0.297 0.48227 0.0
H1853 H 0.07237 0.20604 0.49179 0.0
H1854 H 0.03523 0.22261 0.49514 0.0
H1855 H 0.91872 0.26552 0.44274 0.0
H1856 H 0.97113 0.29357 0.45406 0.0
H1857 H 0.95846 0.21609 0.48734 0.0
H1858 H 0.9064 0.18819 0.47597 0.0
H1859 H 0.01521 0.24785 0.47085 0.0
H1860 H 0.94616 0.26677 0.51012 0.0
H1861 H 0.90863 0.28287 0.51327 0.0
H1862 H 0.97184 0.36952 0.48964 0.0
H1863 H 0.00966 0.35375 0.48612 0.0
C1864 C 0.0981 0.30412 0.5498 0.0
C1865 C 0.11914 0.33481 0.55158 0.0
C1866 C 0.0757 0.29393 0.53513 0.0
C1867 C 0.07385 0.31414 0.52181 0.0
C1868 C 0.09445 0.34487 0.52371 0.0
C1869 C 0.117 0.35511 0.53839 0.0
C1870 C 0.04982 0.30289 0.50631 0.0
C1871 C 0.02918 0.31309 0.50673 0.0
C1872 C 0.04529 0.2798 0.4927 0.0
C1873 C 0.0675 0.26963 0.49055 0.0
C1874 C 0.09786 0.29045 0.48684 0.0
C1875 C 0.11877 0.28086 0.48507 0.0
C1876 C 0.10959 0.25046 0.48686 0.0
C1877 C 0.07945 0.22958 0.4904 0.0
C1878 C 0.05845 0.23906 0.49221 0.0
C1879 C 0.92753 0.25427 0.45188 0.0
C1880 C 0.90861 0.22482 0.45864 0.0
C1881 C 0.95733 0.27032 0.45845 0.0
C1882 C 0.96853 0.25702 0.47177 0.0
C1883 C 0.9503 0.22681 0.4771 0.0
C1884 C 0.92058 0.21093 0.47068 0.0
C1885 C 0.99761 0.27503 0.48225 0.0
C1886 C 0.01912 0.26603 0.48095 0.0
C1887 C 0.00297 0.29922 0.49505 0.0
C1888 C 0.98058 0.30899 0.49765 0.0
C1889 C 0.952 0.28921 0.50552 0.0
C1890 C 0.93069 0.29827 0.50737 0.0
C1891 C 0.93781 0.32716 0.5016 0.0
C1892 C 0.96634 0.34713 0.49407 0.0
C1893 C 0.98772 0.33815 0.49215 0.0
H1894 H 0.92124 0.33407 0.503 0.0
H1895 H 0.12581 0.24308 0.48549 0.0
loop_
_geom_bond_atom_site_label_1
_geom_bond_atom_site_label_2
_geom_bond_distance
_geom_bond_site_symmetry_2
_ccdc_geom_bond_type
Co0 N4 2.148 . S
Co0 N10 2.128 . S
Co0 N20 2.194 . S
Co0 O25 2.351 . S
Co0 O26 2.155 . S
Co0 O27 2.096 . S
C1 N4 1.301 . S
C1 N5 1.328 . S
C1 H6 0.930 . S
C2 C3 1.333 . S
C2 N4 1.317 . S
C2 H7 0.930 . S
C3 C2 1.333 . S
C3 N5 1.350 . S
C3 H29 0.931 . S
N4 Co0 2.148 . S
N4 C1 1.301 . S
N4 C2 1.317 . S
N5 C1 1.328 . S
N5 C3 1.350 . S
H6 C1 0.930 . S
H7 C2 0.930 . S
C8 O9 1.224 . S
C8 O27 1.247 . S
O9 C8 1.224 . S
N10 Co0 2.128 . S
N10 C11 1.355 . S
N10 C13 1.311 . S
C11 N10 1.355 . S
C11 C12 1.363 . S
C11 H23 0.929 . S
C12 C11 1.363 . S
C12 N14 1.375 . S
C12 H30 0.931 . S
C13 N10 1.311 . S
C13 N14 1.347 . S
C13 H24 0.929 . S
N14 C12 1.375 . S
N14 C13 1.347 . S
C15 C18 1.365 . S
C15 N20 1.328 . S
C15 H21 0.929 . S
C16 C17 1.362 . S
C16 C19 1.378 . S
C16 H31 0.929 . S
C17 C16 1.362 . S
C17 C18 1.366 . S
C18 C15 1.365 . S
C18 C17 1.366 . S
C18 H32 0.930 . S
C19 C16 1.378 . S
C19 N20 1.315 . S
C19 H22 0.930 . S
N20 Co0 2.194 . S
N20 C15 1.328 . S
N20 C19 1.315 . S
H21 C15 0.929 . S
H22 C19 0.930 . S
H23 C11 0.929 . S
H24 C13 0.929 . S
O25 Co0 2.351 . S
O25 C28 1.244 . S
O26 Co0 2.155 . S
O26 C28 1.240 . S
O27 Co0 2.096 . S
O27 C8 1.247 . S
C28 O25 1.244 . S
C28 O26 1.240 . S
H29 C3 0.931 . S
H30 C12 0.931 . S
H31 C16 0.929 . S
H32 C18 0.930 . S
Co33 N37 2.148 . S
Co33 N43 2.128 . S
Co33 N53 2.194 . S
Co33 O58 2.351 . S
Co33 O59 2.155 . S
Co33 O60 2.096 . S
C34 N37 1.301 . S
C34 N38 1.328 . S
C34 H39 0.930 . S
C35 C36 1.333 . S
C35 N37 1.317 . S
C35 H40 0.930 . S
C36 C35 1.333 . S
C36 N38 1.350 . S
C36 H62 0.931 . S
N37 Co33 2.148 . S
N37 C34 1.301 . S
N37 C35 1.317 . S
N38 C34 1.328 . S
N38 C36 1.350 . S
H39 C34 0.930 . S
H40 C35 0.930 . S
C41 O42 1.224 . S
C41 O60 1.247 . S
O42 C41 1.224 . S
N43 Co33 2.128 . S
N43 C44 1.355 . S
N43 C46 1.311 . S
C44 N43 1.355 . S
C44 C45 1.363 . S
C44 H56 0.929 . S
C45 C44 1.363 . S
C45 N47 1.375 . S
C45 H63 0.931 . S
C46 N43 1.311 . S
C46 N47 1.347 . S
C46 H57 0.929 . S
N47 C45 1.375 . S
N47 C46 1.347 . S
C48 C51 1.365 . S
C48 N53 1.328 . S
C48 H54 0.929 . S
C49 C50 1.362 . S
C49 C52 1.378 . S
C49 H64 0.929 . S
C50 C49 1.362 . S
C50 C51 1.366 . S
C51 C48 1.365 . S
C51 C50 1.366 . S
C51 H65 0.930 . S
C52 C49 1.378 . S
C52 N53 1.315 . S
C52 H55 0.930 . S
N53 Co33 2.194 . S
N53 C48 1.328 . S
N53 C52 1.315 . S
H54 C48 0.929 . S
H55 C52 0.930 . S
H56 C44 0.929 . S
H57 C46 0.929 . S
O58 Co33 2.351 . S
O58 C61 1.244 . S
O59 Co33 2.155 . S
O59 C61 1.240 . S
O60 Co33 2.096 . S
O60 C41 1.247 . S
C61 O58 1.244 . S
C61 O59 1.240 . S
H62 C36 0.931 . S
H63 C45 0.931 . S
H64 C49 0.929 . S
H65 C51 0.930 . S
Co66 N70 2.148 . S
Co66 N76 2.128 . S
Co66 N86 2.194 . S
Co66 O91 2.351 . S
Co66 O92 2.155 . S
Co66 O93 2.096 . S
C67 N70 1.301 . S
C67 N71 1.328 . S
C67 H72 0.930 . S
C68 C69 1.333 . S
C68 N70 1.317 . S
C68 H73 0.930 . S
C69 C68 1.333 . S
C69 N71 1.350 . S
C69 H95 0.931 . S
N70 Co66 2.148 . S
N70 C67 1.301 . S
N70 C68 1.317 . S
N71 C67 1.328 . S
N71 C69 1.350 . S
H72 C67 0.930 . S
H73 C68 0.930 . S
C74 O75 1.224 . S
C74 O93 1.247 . S
O75 C74 1.224 . S
N76 Co66 2.128 . S
N76 C77 1.355 . S
N76 C79 1.311 . S
C77 N76 1.355 . S
C77 C78 1.363 . S
C77 H89 0.929 . S
C78 C77 1.363 . S
C78 N80 1.375 . S
C78 H96 0.931 . S
C79 N76 1.311 . S
C79 N80 1.347 . S
C79 H90 0.929 . S
N80 C78 1.375 . S
N80 C79 1.347 . S
C81 C84 1.365 . S
C81 N86 1.328 . S
C81 H87 0.929 . S
C82 C83 1.362 . S
C82 C85 1.378 . S
C82 H97 0.929 . S
C83 C82 1.362 . S
C83 C84 1.366 . S
C84 C81 1.365 . S
C84 C83 1.366 . S
C84 H98 0.930 . S
C85 C82 1.378 . S
C85 N86 1.315 . S
C85 H88 0.930 . S
N86 Co66 2.194 . S
N86 C81 1.328 . S
N86 C85 1.315 . S
H87 C81 0.929 . S
H88 C85 0.930 . S
H89 C77 0.929 . S
H90 C79 0.929 . S
O91 Co66 2.351 . S
O91 C94 1.244 . S
O92 Co66 2.155 . S
O92 C94 1.240 . S
O93 Co66 2.096 . S
O93 C74 1.247 . S
C94 O91 1.244 . S
C94 O92 1.240 . S
H95 C69 0.931 . S
H96 C78 0.931 . S
H97 C82 0.929 . S
H98 C84 0.930 . S
Co99 N103 2.148 . S
Co99 N109 2.128 . S
Co99 N119 2.194 . S
Co99 O124 2.351 . S
Co99 O125 2.155 . S
Co99 O126 2.096 . S
C100 N103 1.301 . S
C100 N104 1.328 . S
C100 H105 0.930 . S
C101 C102 1.333 . S
C101 N103 1.317 . S
C101 H106 0.930 . S
C102 C101 1.333 . S
C102 N104 1.350 . S
C102 H128 0.931 . S
N103 Co99 2.148 . S
N103 C100 1.301 . S
N103 C101 1.317 . S
N104 C100 1.328 . S
N104 C102 1.350 . S
H105 C100 0.930 . S
H106 C101 0.930 . S
C107 O108 1.224 . S
C107 O126 1.247 . S
O108 C107 1.224 . S
N109 Co99 2.128 . S
N109 C110 1.355 . S
N109 C112 1.311 . S
C110 N109 1.355 . S
C110 C111 1.363 . S
C110 H122 0.929 . S
C111 C110 1.363 . S
C111 N113 1.375 . S
C111 H129 0.931 . S
C112 N109 1.311 . S
C112 N113 1.347 . S
C112 H123 0.929 . S
N113 C111 1.375 . S
N113 C112 1.347 . S
C114 C117 1.365 . S
C114 N119 1.328 . S
C114 H120 0.929 . S
C115 C116 1.362 . S
C115 C118 1.378 . S
C115 H130 0.929 . S
C116 C115 1.362 . S
C116 C117 1.366 . S
C117 C114 1.365 . S
C117 C116 1.366 . S
C117 H131 0.930 . S
C118 C115 1.378 . S
C118 N119 1.315 . S
C118 H121 0.930 . S
N119 Co99 2.194 . S
N119 C114 1.328 . S
N119 C118 1.315 . S
H120 C114 0.929 . S
H121 C118 0.930 . S
H122 C110 0.929 . S
H123 C112 0.929 . S
O124 Co99 2.351 . S
O124 C127 1.244 . S
O125 Co99 2.155 . S
O125 C127 1.240 . S
O126 Co99 2.096 . S
O126 C107 1.247 . S
C127 O124 1.244 . S
C127 O125 1.240 . S
H128 C102 0.931 . S
H129 C111 0.931 . S
H130 C115 0.929 . S
H131 C117 0.930 . S
Co132 N136 2.148 . S
Co132 N142 2.128 . S
Co132 N152 2.194 . S
Co132 O157 2.351 . S
Co132 O158 2.155 . S
Co132 O159 2.096 . S
C133 N136 1.301 . S
C133 N137 1.328 . S
C133 H138 0.930 . S
C134 C135 1.333 . S
C134 N136 1.317 . S
C134 H139 0.930 . S
C135 C134 1.333 . S
C135 N137 1.350 . S
C135 H161 0.931 . S
N136 Co132 2.148 . S
N136 C133 1.301 . S
N136 C134 1.317 . S
N137 C133 1.328 . S
N137 C135 1.350 . S
H138 C133 0.930 . S
H139 C134 0.930 . S
C140 O141 1.224 . S
C140 O159 1.247 . S
O141 C140 1.224 . S
N142 Co132 2.128 . S
N142 C143 1.355 . S
N142 C145 1.311 . S
C143 N142 1.355 . S
C143 C144 1.363 . S
C143 H155 0.929 . S
C144 C143 1.363 . S
C144 N146 1.375 . S
C144 H162 0.931 . S
C145 N142 1.311 . S
C145 N146 1.347 . S
C145 H156 0.929 . S
N146 C144 1.375 . S
N146 C145 1.347 . S
C147 C150 1.365 . S
C147 N152 1.328 . S
C147 H153 0.929 . S
C148 C149 1.362 . S
C148 C151 1.378 . S
C148 H163 0.929 . S
C149 C148 1.362 . S
C149 C150 1.366 . S
C150 C147 1.365 . S
C150 C149 1.366 . S
C150 H164 0.930 . S
C151 C148 1.378 . S
C151 N152 1.315 . S
C151 H154 0.930 . S
N152 Co132 2.194 . S
N152 C147 1.328 . S
N152 C151 1.315 . S
H153 C147 0.929 . S
H154 C151 0.930 . S
H155 C143 0.929 . S
H156 C145 0.929 . S
O157 Co132 2.351 . S
O157 C160 1.244 . S
O158 Co132 2.155 . S
O158 C160 1.240 . S
O159 Co132 2.096 . S
O159 C140 1.247 . S
C160 O157 1.244 . S
C160 O158 1.240 . S
H161 C135 0.931 . S
H162 C144 0.931 . S
H163 C148 0.929 . S
H164 C150 0.930 . S
Co165 N169 2.148 . S
Co165 N175 2.128 . S
Co165 N185 2.194 . S
Co165 O190 2.351 . S
Co165 O191 2.155 . S
Co165 O192 2.096 . S
C166 N169 1.301 . S
C166 N170 1.328 . S
C166 H171 0.930 . S
C167 C168 1.333 . S
C167 N169 1.317 . S
C167 H172 0.930 . S
C168 C167 1.333 . S
C168 N170 1.350 . S
C168 H194 0.931 . S
N169 Co165 2.148 . S
N169 C166 1.301 . S
N169 C167 1.317 . S
N170 C166 1.328 . S
N170 C168 1.350 . S
H171 C166 0.930 . S
H172 C167 0.930 . S
C173 O174 1.224 . S
C173 O192 1.247 . S
O174 C173 1.224 . S
N175 Co165 2.128 . S
N175 C176 1.355 . S
N175 C178 1.311 . S
C176 N175 1.355 . S
C176 C177 1.363 . S
C176 H188 0.929 . S
C177 C176 1.363 . S
C177 N179 1.375 . S
C177 H195 0.931 . S
C178 N175 1.311 . S
C178 N179 1.347 . S
C178 H189 0.929 . S
N179 C177 1.375 . S
N179 C178 1.347 . S
C180 C183 1.365 . S
C180 N185 1.328 . S
C180 H186 0.929 . S
C181 C182 1.362 . S
C181 C184 1.378 . S
C181 H196 0.929 . S
C182 C181 1.362 . S
C182 C183 1.366 . S
C183 C180 1.365 . S
C183 C182 1.366 . S
C183 H197 0.930 . S
C184 C181 1.378 . S
C184 N185 1.315 . S
C184 H187 0.930 . S
N185 Co165 2.194 . S
N185 C180 1.328 . S
N185 C184 1.315 . S
H186 C180 0.929 . S
H187 C184 0.930 . S
H188 C176 0.929 . S
H189 C178 0.929 . S
O190 Co165 2.351 . S
O190 C193 1.244 . S
O191 Co165 2.155 . S
O191 C193 1.240 . S
O192 Co165 2.096 . S
O192 C173 1.247 . S
C193 O190 1.244 . S
C193 O191 1.240 . S
H194 C168 0.931 . S
H195 C177 0.931 . S
H196 C181 0.929 . S
H197 C183 0.930 . S
Co198 N202 2.148 . S
Co198 N208 2.128 . S
Co198 N218 2.194 . S
Co198 O223 2.351 . S
Co198 O224 2.155 . S
Co198 O225 2.096 . S
C199 N202 1.301 . S
C199 N203 1.328 . S
C199 H204 0.930 . S
C200 C201 1.333 . S
C200 N202 1.317 . S
C200 H205 0.930 . S
C201 C200 1.333 . S
C201 N203 1.350 . S
C201 H227 0.931 . S
N202 Co198 2.148 . S
N202 C199 1.301 . S
N202 C200 1.317 . S
N203 C199 1.328 . S
N203 C201 1.350 . S
H204 C199 0.930 . S
H205 C200 0.930 . S
C206 O207 1.224 . S
C206 O225 1.247 . S
O207 C206 1.224 . S
N208 Co198 2.128 . S
N208 C209 1.355 . S
N208 C211 1.311 . S
C209 N208 1.355 . S
C209 C210 1.363 . S
C209 H221 0.929 . S
C210 C209 1.363 . S
C210 N212 1.375 . S
C210 H228 0.931 . S
C211 N208 1.311 . S
C211 N212 1.347 . S
C211 H222 0.929 . S
N212 C210 1.375 . S
N212 C211 1.347 . S
C213 C216 1.365 . S
C213 N218 1.328 . S
C213 H219 0.929 . S
C214 C215 1.362 . S
C214 C217 1.378 . S
C214 H229 0.929 . S
C215 C214 1.362 . S
C215 C216 1.366 . S
C216 C213 1.365 . S
C216 C215 1.366 . S
C216 H230 0.930 . S
C217 C214 1.378 . S
C217 N218 1.315 . S
C217 H220 0.930 . S
N218 Co198 2.194 . S
N218 C213 1.328 . S
N218 C217 1.315 . S
H219 C213 0.929 . S
H220 C217 0.930 . S
H221 C209 0.929 . S
H222 C211 0.929 . S
O223 Co198 2.351 . S
O223 C226 1.244 . S
O224 Co198 2.155 . S
O224 C226 1.240 . S
O225 Co198 2.096 . S
O225 C206 1.247 . S
C226 O223 1.244 . S
C226 O224 1.240 . S
H227 C201 0.931 . S
H228 C210 0.931 . S
H229 C214 0.929 . S
H230 C216 0.930 . S
Co231 N235 2.148 . S
Co231 N241 2.128 . S
Co231 N251 2.194 . S
Co231 O256 2.351 . S
Co231 O257 2.155 . S
Co231 O258 2.096 . S
C232 N235 1.301 . S
C232 N236 1.328 . S
C232 H237 0.930 . S
C233 C234 1.333 . S
C233 N235 1.317 . S
C233 H238 0.930 . S
C234 C233 1.333 . S
C234 N236 1.350 . S
C234 H260 0.931 . S
N235 Co231 2.148 . S
N235 C232 1.301 . S
N235 C233 1.317 . S
N236 C232 1.328 . S
N236 C234 1.350 . S
H237 C232 0.930 . S
H238 C233 0.930 . S
C239 O240 1.224 . S
C239 O258 1.247 . S
O240 C239 1.224 . S
N241 Co231 2.128 . S
N241 C242 1.355 . S
N241 C244 1.311 . S
C242 N241 1.355 . S
C242 C243 1.363 . S
C242 H254 0.929 . S
C243 C242 1.363 . S
C243 N245 1.375 . S
C243 H261 0.931 . S
C244 N241 1.311 . S
C244 N245 1.347 . S
C244 H255 0.929 . S
N245 C243 1.375 . S
N245 C244 1.347 . S
C246 C249 1.365 . S
C246 N251 1.328 . S
C246 H252 0.929 . S
C247 C248 1.362 . S
C247 C250 1.378 . S
C247 H262 0.929 . S
C248 C247 1.362 . S
C248 C249 1.366 . S
C249 C246 1.365 . S
C249 C248 1.366 . S
C249 H263 0.930 . S
C250 C247 1.378 . S
C250 N251 1.315 . S
C250 H253 0.930 . S
N251 Co231 2.194 . S
N251 C246 1.328 . S
N251 C250 1.315 . S
H252 C246 0.929 . S
H253 C250 0.930 . S
H254 C242 0.929 . S
H255 C244 0.929 . S
O256 Co231 2.351 . S
O256 C259 1.244 . S
O257 Co231 2.155 . S
O257 C259 1.240 . S
O258 Co231 2.096 . S
O258 C239 1.247 . S
C259 O256 1.244 . S
C259 O257 1.240 . S
H260 C234 0.931 . S
H261 C243 0.931 . S
H262 C247 0.929 . S
H263 C249 0.930 . S
Co264 N268 2.148 . S
Co264 N274 2.128 . S
Co264 N284 2.194 . S
Co264 O289 2.351 . S
Co264 O290 2.155 . S
Co264 O291 2.096 . S
C265 N268 1.301 . S
C265 N269 1.328 . S
C265 H270 0.930 . S
C266 C267 1.333 . S
C266 N268 1.317 . S
C266 H271 0.930 . S
C267 C266 1.333 . S
C267 N269 1.350 . S
C267 H293 0.931 . S
N268 Co264 2.148 . S
N268 C265 1.301 . S
N268 C266 1.317 . S
N269 C265 1.328 . S
N269 C267 1.350 . S
H270 C265 0.930 . S
H271 C266 0.930 . S
C272 O273 1.224 . S
C272 O291 1.247 . S
O273 C272 1.224 . S
N274 Co264 2.128 . S
N274 C275 1.355 . S
N274 C277 1.311 . S
C275 N274 1.355 . S
C275 C276 1.363 . S
C275 H287 0.929 . S
C276 C275 1.363 . S
C276 N278 1.375 . S
C276 H294 0.931 . S
C277 N274 1.311 . S
C277 N278 1.347 . S
C277 H288 0.929 . S
N278 C276 1.375 . S
N278 C277 1.347 . S
C279 C282 1.365 . S
C279 N284 1.328 . S
C279 H285 0.929 . S
C280 C281 1.362 . S
C280 C283 1.378 . S
C280 H295 0.929 . S
C281 C280 1.362 . S
C281 C282 1.366 . S
C282 C279 1.365 . S
C282 C281 1.366 . S
C282 H296 0.930 . S
C283 C280 1.378 . S
C283 N284 1.315 . S
C283 H286 0.930 . S
N284 Co264 2.194 . S
N284 C279 1.328 . S
N284 C283 1.315 . S
H285 C279 0.929 . S
H286 C283 0.930 . S
H287 C275 0.929 . S
H288 C277 0.929 . S
O289 Co264 2.351 . S
O289 C292 1.244 . S
O290 Co264 2.155 . S
O290 C292 1.240 . S
O291 Co264 2.096 . S
O291 C272 1.247 . S
C292 O289 1.244 . S
C292 O290 1.240 . S
H293 C267 0.931 . S
H294 C276 0.931 . S
H295 C280 0.929 . S
H296 C282 0.930 . S
Co297 N301 2.148 . S
Co297 N307 2.128 . S
Co297 N317 2.194 . S
Co297 O322 2.351 . S
Co297 O323 2.155 . S
Co297 O324 2.096 . S
C298 N301 1.301 . S
C298 N302 1.328 . S
C298 H303 0.930 . S
C299 C300 1.333 . S
C299 N301 1.317 . S
C299 H304 0.930 . S
C300 C299 1.333 . S
C300 N302 1.350 . S
C300 H326 0.931 . S
N301 Co297 2.148 . S
N301 C298 1.301 . S
N301 C299 1.317 . S
N302 C298 1.328 . S
N302 C300 1.350 . S
H303 C298 0.930 . S
H304 C299 0.930 . S
C305 O306 1.224 . S
C305 O324 1.247 . S
O306 C305 1.224 . S
N307 Co297 2.128 . S
N307 C308 1.355 . S
N307 C310 1.311 . S
C308 N307 1.355 . S
C308 C309 1.363 . S
C308 H320 0.929 . S
C309 C308 1.363 . S
C309 N311 1.375 . S
C309 H327 0.931 . S
C310 N307 1.311 . S
C310 N311 1.347 . S
C310 H321 0.929 . S
N311 C309 1.375 . S
N311 C310 1.347 . S
C312 C315 1.365 . S
C312 N317 1.328 . S
C312 H318 0.929 . S
C313 C314 1.362 . S
C313 C316 1.378 . S
C313 H328 0.929 . S
C314 C313 1.362 . S
C314 C315 1.366 . S
C315 C312 1.365 . S
C315 C314 1.366 . S
C315 H329 0.930 . S
C316 C313 1.378 . S
C316 N317 1.315 . S
C316 H319 0.930 . S
N317 Co297 2.194 . S
N317 C312 1.328 . S
N317 C316 1.315 . S
H318 C312 0.929 . S
H319 C316 0.930 . S
H320 C308 0.929 . S
H321 C310 0.929 . S
O322 Co297 2.351 . S
O322 C325 1.244 . S
O323 Co297 2.155 . S
O323 C325 1.240 . S
O324 Co297 2.096 . S
O324 C305 1.247 . S
C325 O322 1.244 . S
C325 O323 1.240 . S
H326 C300 0.931 . S
H327 C309 0.931 . S
H328 C313 0.929 . S
H329 C315 0.930 . S
Co330 N334 2.148 . S
Co330 N340 2.128 . S
Co330 N350 2.194 . S
Co330 O355 2.351 . S
Co330 O356 2.155 . S
Co330 O357 2.096 . S
C331 N334 1.301 . S
C331 N335 1.328 . S
C331 H336 0.930 . S
C332 C333 1.333 . S
C332 N334 1.317 . S
C332 H337 0.930 . S
C333 C332 1.333 . S
C333 N335 1.350 . S
C333 H359 0.931 . S
N334 Co330 2.148 . S
N334 C331 1.301 . S
N334 C332 1.317 . S
N335 C331 1.328 . S
N335 C333 1.350 . S
H336 C331 0.930 . S
H337 C332 0.930 . S
C338 O339 1.224 . S
C338 O357 1.247 . S
O339 C338 1.224 . S
N340 Co330 2.128 . S
N340 C341 1.355 . S
N340 C343 1.311 . S
C341 N340 1.355 . S
C341 C342 1.363 . S
C341 H353 0.929 . S
C342 C341 1.363 . S
C342 N344 1.375 . S
C342 H360 0.931 . S
C343 N340 1.311 . S
C343 N344 1.347 . S
C343 H354 0.929 . S
N344 C342 1.375 . S
N344 C343 1.347 . S
C345 C348 1.365 . S
C345 N350 1.328 . S
C345 H351 0.929 . S
C346 C347 1.362 . S
C346 C349 1.378 . S
C346 H361 0.929 . S
C347 C346 1.362 . S
C347 C348 1.366 . S
C348 C345 1.365 . S
C348 C347 1.366 . S
C348 H362 0.930 . S
C349 C346 1.378 . S
C349 N350 1.315 . S
C349 H352 0.930 . S
N350 Co330 2.194 . S
N350 C345 1.328 . S
N350 C349 1.315 . S
H351 C345 0.929 . S
H352 C349 0.930 . S
H353 C341 0.929 . S
H354 C343 0.929 . S
O355 Co330 2.351 . S
O355 C358 1.244 . S
O356 Co330 2.155 . S
O356 C358 1.240 . S
O357 Co330 2.096 . S
O357 C338 1.247 . S
C358 O355 1.244 . S
C358 O356 1.240 . S
H359 C333 0.931 . S
H360 C342 0.931 . S
H361 C346 0.929 . S
H362 C348 0.930 . S
Co363 N367 2.148 . S
Co363 N373 2.128 . S
Co363 N383 2.194 . S
Co363 O388 2.351 . S
Co363 O389 2.155 . S
Co363 O390 2.096 . S
C364 N367 1.301 . S
C364 N368 1.328 . S
C364 H369 0.930 . S
C365 C366 1.333 . S
C365 N367 1.317 . S
C365 H370 0.930 . S
C366 C365 1.333 . S
C366 N368 1.350 . S
C366 H392 0.931 . S
N367 Co363 2.148 . S
N367 C364 1.301 . S
N367 C365 1.317 . S
N368 C364 1.328 . S
N368 C366 1.350 . S
H369 C364 0.930 . S
H370 C365 0.930 . S
C371 O372 1.224 . S
C371 O390 1.247 . S
O372 C371 1.224 . S
N373 Co363 2.128 . S
N373 C374 1.355 . S
N373 C376 1.311 . S
C374 N373 1.355 . S
C374 C375 1.363 . S
C374 H386 0.929 . S
C375 C374 1.363 . S
C375 N377 1.375 . S
C375 H393 0.931 . S
C376 N373 1.311 . S
C376 N377 1.347 . S
C376 H387 0.929 . S
N377 C375 1.375 . S
N377 C376 1.347 . S
C378 C381 1.365 . S
C378 N383 1.328 . S
C378 H384 0.929 . S
C379 C380 1.362 . S
C379 C382 1.378 . S
C379 H394 0.929 . S
C380 C379 1.362 . S
C380 C381 1.366 . S
C381 C378 1.365 . S
C381 C380 1.366 . S
C381 H395 0.930 . S
C382 C379 1.378 . S
C382 N383 1.315 . S
C382 H385 0.930 . S
N383 Co363 2.194 . S
N383 C378 1.328 . S
N383 C382 1.315 . S
H384 C378 0.929 . S
H385 C382 0.930 . S
H386 C374 0.929 . S
H387 C376 0.929 . S
O388 Co363 2.351 . S
O388 C391 1.244 . S
O389 Co363 2.155 . S
O389 C391 1.240 . S
O390 Co363 2.096 . S
O390 C371 1.247 . S
C391 O388 1.244 . S
C391 O389 1.240 . S
H392 C366 0.931 . S
H393 C375 0.931 . S
H394 C379 0.929 . S
H395 C381 0.930 . S
H396 C414 0.951 . S
H397 C416 0.951 . S
H398 C418 0.950 . S
H399 C419 0.950 . S
H400 C421 0.950 . S
H401 C424 0.950 . S
H402 C425 0.950 . S
H403 C427 0.950 . S
H404 C428 0.950 . S
H405 C429 0.951 . S
H406 C431 0.951 . S
H407 C433 0.950 . S
H408 C434 0.950 . S
H409 C436 0.950 . S
H410 C439 0.950 . S
H411 C440 0.950 . S
H412 C442 0.950 . S
H413 C443 0.950 . S
C414 H396 0.951 . S
C414 C415 1.366 . S
C414 C416 1.388 . S
C415 C414 1.366 . S
C415 C419 1.385 . S
C416 H397 0.951 . S
C416 C414 1.388 . S
C416 C417 1.366 . S
C417 C416 1.366 . S
C417 C418 1.414 . S
C417 C420 1.499 . S
C418 H398 0.950 . S
C418 C417 1.414 . S
C418 C419 1.374 . S
C419 H399 0.950 . S
C419 C415 1.385 . S
C419 C418 1.374 . S
C420 C417 1.499 . S
C420 C421 1.373 . S
C420 C422 1.389 . S
C421 H400 0.950 . S
C421 C420 1.373 . S
C421 C437 1.377 . S
C422 C420 1.389 . S
C422 C423 1.524 . S
C422 C436 1.377 . S
C423 C422 1.524 . S
C423 C424 1.397 . S
C423 C428 1.363 . S
C424 H401 0.950 . S
C424 C423 1.397 . S
C424 C425 1.334 . S
C425 H402 0.950 . S
C425 C424 1.334 . S
C425 C426 1.287 . S
C426 C425 1.287 . S
C426 C427 1.524 . S
C426 H445 0.913 . S
C427 H403 0.950 . S
C427 C426 1.524 . S
C427 C428 1.415 . S
C428 H404 0.950 . S
C428 C423 1.363 . S
C428 C427 1.415 . S
C429 H405 0.951 . S
C429 C430 1.366 . S
C429 C431 1.388 . S
C430 C429 1.366 . S
C430 C434 1.385 . S
C431 H406 0.951 . S
C431 C429 1.388 . S
C431 C432 1.366 . S
C432 C431 1.366 . S
C432 C433 1.414 . S
C432 C435 1.499 . S
C433 H407 0.950 . S
C433 C432 1.414 . S
C433 C434 1.374 . S
C434 H408 0.950 . S
C434 C430 1.385 . S
C434 C433 1.374 . S
C435 C432 1.499 . S
C435 C436 1.373 . S
C435 C437 1.389 . S
C436 H409 0.950 . S
C436 C422 1.377 . S
C436 C435 1.373 . S
C437 C421 1.377 . S
C437 C435 1.389 . S
C437 C438 1.524 . S
C438 C437 1.524 . S
C438 C439 1.397 . S
C438 C443 1.363 . S
C439 H410 0.950 . S
C439 C438 1.397 . S
C439 C440 1.334 . S
C440 H411 0.950 . S
C440 C439 1.334 . S
C440 C441 1.287 . S
C441 C440 1.287 . S
C441 C442 1.524 . S
C441 H444 0.999 . S
C442 H412 0.950 . S
C442 C441 1.524 . S
C442 C443 1.415 . S
C443 H413 0.950 . S
C443 C438 1.363 . S
C443 C442 1.415 . S
H444 C441 0.999 . S
H445 C426 0.913 . S
H446 C464 0.951 . S
H447 C466 0.951 . S
H448 C468 0.950 . S
H449 C469 0.950 . S
H450 C471 0.950 . S
H451 C474 0.950 . S
H452 C475 0.950 . S
H453 C477 0.950 . S
H454 C478 0.950 . S
H455 C479 0.951 . S
H456 C481 0.951 . S
H457 C483 0.950 . S
H458 C484 0.950 . S
H459 C486 0.950 . S
H460 C489 0.950 . S
H461 C490 0.950 . S
H462 C492 0.950 . S
H463 C493 0.950 . S
C464 H446 0.951 . S
C464 C465 1.366 . S
C464 C466 1.388 . S
C465 C464 1.366 . S
C465 C469 1.385 . S
C466 H447 0.951 . S
C466 C464 1.388 . S
C466 C467 1.366 . S
C467 C466 1.366 . S
C467 C468 1.414 . S
C467 C470 1.499 . S
C468 H448 0.950 . S
C468 C467 1.414 . S
C468 C469 1.374 . S
C469 H449 0.950 . S
C469 C465 1.385 . S
C469 C468 1.374 . S
C470 C467 1.499 . S
C470 C471 1.373 . S
C470 C472 1.389 . S
C471 H450 0.950 . S
C471 C470 1.373 . S
C471 C487 1.377 . S
C472 C470 1.389 . S
C472 C473 1.524 . S
C472 C486 1.377 . S
C473 C472 1.524 . S
C473 C474 1.397 . S
C473 C478 1.363 . S
C474 H451 0.950 . S
C474 C473 1.397 . S
C474 C475 1.334 . S
C475 H452 0.950 . S
C475 C474 1.334 . S
C475 C476 1.287 . S
C476 C475 1.287 . S
C476 C477 1.524 . S
C476 H495 0.913 . S
C477 H453 0.950 . S
C477 C476 1.524 . S
C477 C478 1.415 . S
C478 H454 0.950 . S
C478 C473 1.363 . S
C478 C477 1.415 . S
C479 H455 0.951 . S
C479 C480 1.366 . S
C479 C481 1.388 . S
C480 C479 1.366 . S
C480 C484 1.385 . S
C481 H456 0.951 . S
C481 C479 1.388 . S
C481 C482 1.366 . S
C482 C481 1.366 . S
C482 C483 1.414 . S
C482 C485 1.499 . S
C483 H457 0.950 . S
C483 C482 1.414 . S
C483 C484 1.374 . S
C484 H458 0.950 . S
C484 C480 1.385 . S
C484 C483 1.374 . S
C485 C482 1.499 . S
C485 C486 1.373 . S
C485 C487 1.389 . S
C486 H459 0.950 . S
C486 C472 1.377 . S
C486 C485 1.373 . S
C487 C471 1.377 . S
C487 C485 1.389 . S
C487 C488 1.524 . S
C488 C487 1.524 . S
C488 C489 1.397 . S
C488 C493 1.363 . S
C489 H460 0.950 . S
C489 C488 1.397 . S
C489 C490 1.334 . S
C490 H461 0.950 . S
C490 C489 1.334 . S
C490 C491 1.287 . S
C491 C490 1.287 . S
C491 C492 1.524 . S
C491 H494 0.999 . S
C492 H462 0.950 . S
C492 C491 1.524 . S
C492 C493 1.415 . S
C493 H463 0.950 . S
C493 C488 1.363 . S
C493 C492 1.415 . S
H494 C491 0.999 . S
H495 C476 0.913 . S
H496 C514 0.951 . S
H497 C516 0.951 . S
H498 C518 0.950 . S
H499 C519 0.950 . S
H500 C521 0.950 . S
H501 C524 0.950 . S
H502 C525 0.950 . S
H503 C527 0.950 . S
H504 C528 0.950 . S
H505 C529 0.951 . S
H506 C531 0.951 . S
H507 C533 0.950 . S
H508 C534 0.950 . S
H509 C536 0.950 . S
H510 C539 0.950 . S
H511 C540 0.950 . S
H512 C542 0.950 . S
H513 C543 0.950 . S
C514 H496 0.951 . S
C514 C515 1.366 . S
C514 C516 1.388 . S
C515 C514 1.366 . S
C515 C519 1.385 . S
C516 H497 0.951 . S
C516 C514 1.388 . S
C516 C517 1.366 . S
C517 C516 1.366 . S
C517 C518 1.414 . S
C517 C520 1.499 . S
C518 H498 0.950 . S
C518 C517 1.414 . S
C518 C519 1.374 . S
C519 H499 0.950 . S
C519 C515 1.385 . S
C519 C518 1.374 . S
C520 C517 1.499 . S
C520 C521 1.373 . S
C520 C522 1.389 . S
C521 H500 0.950 . S
C521 C520 1.373 . S
C521 C537 1.377 . S
C522 C520 1.389 . S
C522 C523 1.524 . S
C522 C536 1.377 . S
C523 C522 1.524 . S
C523 C524 1.397 . S
C523 C528 1.363 . S
C524 H501 0.950 . S
C524 C523 1.397 . S
C524 C525 1.334 . S
C525 H502 0.950 . S
C525 C524 1.334 . S
C525 C526 1.287 . S
C526 C525 1.287 . S
C526 C527 1.524 . S
C526 H545 0.913 . S
C527 H503 0.950 . S
C527 C526 1.524 . S
C527 C528 1.415 . S
C528 H504 0.950 . S
C528 C523 1.363 . S
C528 C527 1.415 . S
C529 H505 0.951 . S
C529 C530 1.366 . S
C529 C531 1.388 . S
C530 C529 1.366 . S
C530 C534 1.385 . S
C531 H506 0.951 . S
C531 C529 1.388 . S
C531 C532 1.366 . S
C532 C531 1.366 . S
C532 C533 1.414 . S
C532 C535 1.499 . S
C533 H507 0.950 . S
C533 C532 1.414 . S
C533 C534 1.374 . S
C534 H508 0.950 . S
C534 C530 1.385 . S
C534 C533 1.374 . S
C535 C532 1.499 . S
C535 C536 1.373 . S
C535 C537 1.389 . S
C536 H509 0.950 . S
C536 C522 1.377 . S
C536 C535 1.373 . S
C537 C521 1.377 . S
C537 C535 1.389 . S
C537 C538 1.524 . S
C538 C537 1.524 . S
C538 C539 1.397 . S
C538 C543 1.363 . S
C539 H510 0.950 . S
C539 C538 1.397 . S
C539 C540 1.334 . S
C540 H511 0.950 . S
C540 C539 1.334 . S
C540 C541 1.287 . S
C541 C540 1.287 . S
C541 C542 1.524 . S
C541 H544 0.999 . S
C542 H512 0.950 . S
C542 C541 1.524 . S
C542 C543 1.415 . S
C543 H513 0.950 . S
C543 C538 1.363 . S
C543 C542 1.415 . S
H544 C541 0.999 . S
H545 C526 0.913 . S
H546 C564 0.951 . S
H547 C566 0.951 . S
H548 C568 0.950 . S
H549 C569 0.950 . S
H550 C571 0.950 . S
H551 C574 0.950 . S
H552 C575 0.950 . S
H553 C577 0.950 . S
H554 C578 0.950 . S
H555 C579 0.951 . S
H556 C581 0.951 . S
H557 C583 0.950 . S
H558 C584 0.950 . S
H559 C586 0.950 . S
H560 C589 0.950 . S
H561 C590 0.950 . S
H562 C592 0.950 . S
H563 C593 0.950 . S
C564 H546 0.951 . S
C564 C565 1.366 . S
C564 C566 1.388 . S
C565 C564 1.366 . S
C565 C569 1.385 . S
C566 H547 0.951 . S
C566 C564 1.388 . S
C566 C567 1.366 . S
C567 C566 1.366 . S
C567 C568 1.414 . S
C567 C570 1.499 . S
C568 H548 0.950 . S
C568 C567 1.414 . S
C568 C569 1.374 . S
C569 H549 0.950 . S
C569 C565 1.385 . S
C569 C568 1.374 . S
C570 C567 1.499 . S
C570 C571 1.373 . S
C570 C572 1.389 . S
C571 H550 0.950 . S
C571 C570 1.373 . S
C571 C587 1.377 . S
C572 C570 1.389 . S
C572 C573 1.524 . S
C572 C586 1.377 . S
C573 C572 1.524 . S
C573 C574 1.397 . S
C573 C578 1.363 . S
C574 H551 0.950 . S
C574 C573 1.397 . S
C574 C575 1.334 . S
C575 H552 0.950 . S
C575 C574 1.334 . S
C575 C576 1.287 . S
C576 C575 1.287 . S
C576 C577 1.524 . S
C576 H595 0.913 . S
C577 H553 0.950 . S
C577 C576 1.524 . S
C577 C578 1.415 . S
C578 H554 0.950 . S
C578 C573 1.363 . S
C578 C577 1.415 . S
C579 H555 0.951 . S
C579 C580 1.366 . S
C579 C581 1.388 . S
C580 C579 1.366 . S
C580 C584 1.385 . S
C581 H556 0.951 . S
C581 C579 1.388 . S
C581 C582 1.366 . S
C582 C581 1.366 . S
C582 C583 1.414 . S
C582 C585 1.499 . S
C583 H557 0.950 . S
C583 C582 1.414 . S
C583 C584 1.374 . S
C584 H558 0.950 . S
C584 C580 1.385 . S
C584 C583 1.374 . S
C585 C582 1.499 . S
C585 C586 1.373 . S
C585 C587 1.389 . S
C586 H559 0.950 . S
C586 C572 1.377 . S
C586 C585 1.373 . S
C587 C571 1.377 . S
C587 C585 1.389 . S
C587 C588 1.524 . S
C588 C587 1.524 . S
C588 C589 1.397 . S
C588 C593 1.363 . S
C589 H560 0.950 . S
C589 C588 1.397 . S
C589 C590 1.334 . S
C590 H561 0.950 . S
C590 C589 1.334 . S
C590 C591 1.287 . S
C591 C590 1.287 . S
C591 C592 1.524 . S
C591 H594 0.999 . S
C592 H562 0.950 . S
C592 C591 1.524 . S
C592 C593 1.415 . S
C593 H563 0.950 . S
C593 C588 1.363 . S
C593 C592 1.415 . S
H594 C591 0.999 . S
H595 C576 0.913 . S
H596 C614 0.951 . S
H597 C616 0.951 . S
H598 C618 0.950 . S
H599 C619 0.950 . S
H600 C621 0.950 . S
H601 C624 0.950 . S
H602 C625 0.950 . S
H603 C627 0.950 . S
H604 C628 0.950 . S
H605 C629 0.951 . S
H606 C631 0.951 . S
H607 C633 0.950 . S
H608 C634 0.950 . S
H609 C636 0.950 . S
H610 C639 0.950 . S
H611 C640 0.950 . S
H612 C642 0.950 . S
H613 C643 0.950 . S
C614 H596 0.951 . S
C614 C615 1.366 . S
C614 C616 1.388 . S
C615 C614 1.366 . S
C615 C619 1.385 . S
C616 H597 0.951 . S
C616 C614 1.388 . S
C616 C617 1.366 . S
C617 C616 1.366 . S
C617 C618 1.414 . S
C617 C620 1.499 . S
C618 H598 0.950 . S
C618 C617 1.414 . S
C618 C619 1.374 . S
C619 H599 0.950 . S
C619 C615 1.385 . S
C619 C618 1.374 . S
C620 C617 1.499 . S
C620 C621 1.373 . S
C620 C622 1.389 . S
C621 H600 0.950 . S
C621 C620 1.373 . S
C621 C637 1.377 . S
C622 C620 1.389 . S
C622 C623 1.524 . S
C622 C636 1.377 . S
C623 C622 1.524 . S
C623 C624 1.397 . S
C623 C628 1.363 . S
C624 H601 0.950 . S
C624 C623 1.397 . S
C624 C625 1.334 . S
C625 H602 0.950 . S
C625 C624 1.334 . S
C625 C626 1.287 . S
C626 C625 1.287 . S
C626 C627 1.524 . S
C626 H645 0.913 . S
C627 H603 0.950 . S
C627 C626 1.524 . S
C627 C628 1.415 . S
C628 H604 0.950 . S
C628 C623 1.363 . S
C628 C627 1.415 . S
C629 H605 0.951 . S
C629 C630 1.366 . S
C629 C631 1.388 . S
C630 C629 1.366 . S
C630 C634 1.385 . S
C631 H606 0.951 . S
C631 C629 1.388 . S
C631 C632 1.366 . S
C632 C631 1.366 . S
C632 C633 1.414 . S
C632 C635 1.499 . S
C633 H607 0.950 . S
C633 C632 1.414 . S
C633 C634 1.374 . S
C634 H608 0.950 . S
C634 C630 1.385 . S
C634 C633 1.374 . S
C635 C632 1.499 . S
C635 C636 1.373 . S
C635 C637 1.389 . S
C636 H609 0.950 . S
C636 C622 1.377 . S
C636 C635 1.373 . S
C637 C621 1.377 . S
C637 C635 1.389 . S
C637 C638 1.524 . S
C638 C637 1.524 . S
C638 C639 1.397 . S
C638 C643 1.363 . S
C639 H610 0.950 . S
C639 C638 1.397 . S
C639 C640 1.334 . S
C640 H611 0.950 . S
C640 C639 1.334 . S
C640 C641 1.287 . S
C641 C640 1.287 . S
C641 C642 1.524 . S
C641 H644 0.999 . S
C642 H612 0.950 . S
C642 C641 1.524 . S
C642 C643 1.415 . S
C643 H613 0.950 . S
C643 C638 1.363 . S
C643 C642 1.415 . S
H644 C641 0.999 . S
H645 C626 0.913 . S
H646 C664 0.951 . S
H647 C666 0.951 . S
H648 C668 0.950 . S
H649 C669 0.950 . S
H650 C671 0.950 . S
H651 C674 0.950 . S
H652 C675 0.950 . S
H653 C677 0.950 . S
H654 C678 0.950 . S
H655 C679 0.951 . S
H656 C681 0.951 . S
H657 C683 0.950 . S
H658 C684 0.950 . S
H659 C686 0.950 . S
H660 C689 0.950 . S
H661 C690 0.950 . S
H662 C692 0.950 . S
H663 C693 0.950 . S
C664 H646 0.951 . S
C664 C665 1.366 . S
C664 C666 1.388 . S
C665 C664 1.366 . S
C665 C669 1.385 . S
C666 H647 0.951 . S
C666 C664 1.388 . S
C666 C667 1.366 . S
C667 C666 1.366 . S
C667 C668 1.414 . S
C667 C670 1.499 . S
C668 H648 0.950 . S
C668 C667 1.414 . S
C668 C669 1.374 . S
C669 H649 0.950 . S
C669 C665 1.385 . S
C669 C668 1.374 . S
C670 C667 1.499 . S
C670 C671 1.373 . S
C670 C672 1.389 . S
C671 H650 0.950 . S
C671 C670 1.373 . S
C671 C687 1.377 . S
C672 C670 1.389 . S
C672 C673 1.524 . S
C672 C686 1.377 . S
C673 C672 1.524 . S
C673 C674 1.397 . S
C673 C678 1.363 . S
C674 H651 0.950 . S
C674 C673 1.397 . S
C674 C675 1.334 . S
C675 H652 0.950 . S
C675 C674 1.334 . S
C675 C676 1.287 . S
C676 C675 1.287 . S
C676 C677 1.524 . S
C676 H695 0.913 . S
C677 H653 0.950 . S
C677 C676 1.524 . S
C677 C678 1.415 . S
C678 H654 0.950 . S
C678 C673 1.363 . S
C678 C677 1.415 . S
C679 H655 0.951 . S
C679 C680 1.366 . S
C679 C681 1.388 . S
C680 C679 1.366 . S
C680 C684 1.385 . S
C681 H656 0.951 . S
C681 C679 1.388 . S
C681 C682 1.366 . S
C682 C681 1.366 . S
C682 C683 1.414 . S
C682 C685 1.499 . S
C683 H657 0.950 . S
C683 C682 1.414 . S
C683 C684 1.374 . S
C684 H658 0.950 . S
C684 C680 1.385 . S
C684 C683 1.374 . S
C685 C682 1.499 . S
C685 C686 1.373 . S
C685 C687 1.389 . S
C686 H659 0.950 . S
C686 C672 1.377 . S
C686 C685 1.373 . S
C687 C671 1.377 . S
C687 C685 1.389 . S
C687 C688 1.524 . S
C688 C687 1.524 . S
C688 C689 1.397 . S
C688 C693 1.363 . S
C689 H660 0.950 . S
C689 C688 1.397 . S
C689 C690 1.334 . S
C690 H661 0.950 . S
C690 C689 1.334 . S
C690 C691 1.287 . S
C691 C690 1.287 . S
C691 C692 1.524 . S
C691 H694 0.999 . S
C692 H662 0.950 . S
C692 C691 1.524 . S
C692 C693 1.415 . S
C693 H663 0.950 . S
C693 C688 1.363 . S
C693 C692 1.415 . S
H694 C691 0.999 . S
H695 C676 0.913 . S
H696 C714 0.951 . S
H697 C716 0.951 . S
H698 C718 0.950 . S
H699 C719 0.950 . S
H700 C721 0.950 . S
H701 C724 0.950 . S
H702 C725 0.950 . S
H703 C727 0.950 . S
H704 C728 0.950 . S
H705 C729 0.951 . S
H706 C731 0.951 . S
H707 C733 0.950 . S
H708 C734 0.950 . S
H709 C736 0.950 . S
H710 C739 0.950 . S
H711 C740 0.950 . S
H712 C742 0.950 . S
H713 C743 0.950 . S
C714 H696 0.951 . S
C714 C715 1.366 . S
C714 C716 1.388 . S
C715 C714 1.366 . S
C715 C719 1.385 . S
C716 H697 0.951 . S
C716 C714 1.388 . S
C716 C717 1.366 . S
C717 C716 1.366 . S
C717 C718 1.414 . S
C717 C720 1.499 . S
C718 H698 0.950 . S
C718 C717 1.414 . S
C718 C719 1.374 . S
C719 H699 0.950 . S
C719 C715 1.385 . S
C719 C718 1.374 . S
C720 C717 1.499 . S
C720 C721 1.373 . S
C720 C722 1.389 . S
C721 H700 0.950 . S
C721 C720 1.373 . S
C721 C737 1.377 . S
C722 C720 1.389 . S
C722 C723 1.524 . S
C722 C736 1.377 . S
C723 C722 1.524 . S
C723 C724 1.397 . S
C723 C728 1.363 . S
C724 H701 0.950 . S
C724 C723 1.397 . S
C724 C725 1.334 . S
C725 H702 0.950 . S
C725 C724 1.334 . S
C725 C726 1.287 . S
C726 C725 1.287 . S
C726 C727 1.524 . S
C726 H745 0.913 . S
C727 H703 0.950 . S
C727 C726 1.524 . S
C727 C728 1.415 . S
C728 H704 0.950 . S
C728 C723 1.363 . S
C728 C727 1.415 . S
C729 H705 0.951 . S
C729 C730 1.366 . S
C729 C731 1.388 . S
C730 C729 1.366 . S
C730 C734 1.385 . S
C731 H706 0.951 . S
C731 C729 1.388 . S
C731 C732 1.366 . S
C732 C731 1.366 . S
C732 C733 1.414 . S
C732 C735 1.499 . S
C733 H707 0.950 . S
C733 C732 1.414 . S
C733 C734 1.374 . S
C734 H708 0.950 . S
C734 C730 1.385 . S
C734 C733 1.374 . S
C735 C732 1.499 . S
C735 C736 1.373 . S
C735 C737 1.389 . S
C736 H709 0.950 . S
C736 C722 1.377 . S
C736 C735 1.373 . S
C737 C721 1.377 . S
C737 C735 1.389 . S
C737 C738 1.524 . S
C738 C737 1.524 . S
C738 C739 1.397 . S
C738 C743 1.363 . S
C739 H710 0.950 . S
C739 C738 1.397 . S
C739 C740 1.334 . S
C740 H711 0.950 . S
C740 C739 1.334 . S
C740 C741 1.287 . S
C741 C740 1.287 . S
C741 C742 1.524 . S
C741 H744 0.999 . S
C742 H712 0.950 . S
C742 C741 1.524 . S
C742 C743 1.415 . S
C743 H713 0.950 . S
C743 C738 1.363 . S
C743 C742 1.415 . S
H744 C741 0.999 . S
H745 C726 0.913 . S
H746 C764 0.951 . S
H747 C766 0.951 . S
H748 C768 0.950 . S
H749 C769 0.950 . S
H750 C771 0.950 . S
H751 C774 0.950 . S
H752 C775 0.950 . S
H753 C777 0.950 . S
H754 C778 0.950 . S
H755 C779 0.951 . S
H756 C781 0.951 . S
H757 C783 0.950 . S
H758 C784 0.950 . S
H759 C786 0.950 . S
H760 C789 0.950 . S
H761 C790 0.950 . S
H762 C792 0.950 . S
H763 C793 0.950 . S
C764 H746 0.951 . S
C764 C765 1.366 . S
C764 C766 1.388 . S
C765 C764 1.366 . S
C765 C769 1.385 . S
C766 H747 0.951 . S
C766 C764 1.388 . S
C766 C767 1.366 . S
C767 C766 1.366 . S
C767 C768 1.414 . S
C767 C770 1.499 . S
C768 H748 0.950 . S
C768 C767 1.414 . S
C768 C769 1.374 . S
C769 H749 0.950 . S
C769 C765 1.385 . S
C769 C768 1.374 . S
C770 C767 1.499 . S
C770 C771 1.373 . S
C770 C772 1.389 . S
C771 H750 0.950 . S
C771 C770 1.373 . S
C771 C787 1.377 . S
C772 C770 1.389 . S
C772 C773 1.524 . S
C772 C786 1.377 . S
C773 C772 1.524 . S
C773 C774 1.397 . S
C773 C778 1.363 . S
C774 H751 0.950 . S
C774 C773 1.397 . S
C774 C775 1.334 . S
C775 H752 0.950 . S
C775 C774 1.334 . S
C775 C776 1.287 . S
C776 C775 1.287 . S
C776 C777 1.524 . S
C776 H795 0.913 . S
C777 H753 0.950 . S
C777 C776 1.524 . S
C777 C778 1.415 . S
C778 H754 0.950 . S
C778 C773 1.363 . S
C778 C777 1.415 . S
C779 H755 0.951 . S
C779 C780 1.366 . S
C779 C781 1.388 . S
C780 C779 1.366 . S
C780 C784 1.385 . S
C781 H756 0.951 . S
C781 C779 1.388 . S
C781 C782 1.366 . S
C782 C781 1.366 . S
C782 C783 1.414 . S
C782 C785 1.499 . S
C783 H757 0.950 . S
C783 C782 1.414 . S
C783 C784 1.374 . S
C784 H758 0.950 . S
C784 C780 1.385 . S
C784 C783 1.374 . S
C785 C782 1.499 . S
C785 C786 1.373 . S
C785 C787 1.389 . S
C786 H759 0.950 . S
C786 C772 1.377 . S
C786 C785 1.373 . S
C787 C771 1.377 . S
C787 C785 1.389 . S
C787 C788 1.524 . S
C788 C787 1.524 . S
C788 C789 1.397 . S
C788 C793 1.363 . S
C789 H760 0.950 . S
C789 C788 1.397 . S
C789 C790 1.334 . S
C790 H761 0.950 . S
C790 C789 1.334 . S
C790 C791 1.287 . S
C791 C790 1.287 . S
C791 C792 1.524 . S
C791 H794 0.999 . S
C792 H762 0.950 . S
C792 C791 1.524 . S
C792 C793 1.415 . S
C793 H763 0.950 . S
C793 C788 1.363 . S
C793 C792 1.415 . S
H794 C791 0.999 . S
H795 C776 0.913 . S
H796 C814 0.951 . S
H797 C816 0.951 . S
H798 C818 0.950 . S
H799 C819 0.950 . S
H800 C821 0.950 . S
H801 C824 0.950 . S
H802 C825 0.950 . S
H803 C827 0.950 . S
H804 C828 0.950 . S
H805 C829 0.951 . S
H806 C831 0.951 . S
H807 C833 0.950 . S
H808 C834 0.950 . S
H809 C836 0.950 . S
H810 C839 0.950 . S
H811 C840 0.950 . S
H812 C842 0.950 . S
H813 C843 0.950 . S
C814 H796 0.951 . S
C814 C815 1.366 . S
C814 C816 1.388 . S
C815 C814 1.366 . S
C815 C819 1.385 . S
C816 H797 0.951 . S
C816 C814 1.388 . S
C816 C817 1.366 . S
C817 C816 1.366 . S
C817 C818 1.414 . S
C817 C820 1.499 . S
C818 H798 0.950 . S
C818 C817 1.414 . S
C818 C819 1.374 . S
C819 H799 0.950 . S
C819 C815 1.385 . S
C819 C818 1.374 . S
C820 C817 1.499 . S
C820 C821 1.373 . S
C820 C822 1.389 . S
C821 H800 0.950 . S
C821 C820 1.373 . S
C821 C837 1.377 . S
C822 C820 1.389 . S
C822 C823 1.524 . S
C822 C836 1.377 . S
C823 C822 1.524 . S
C823 C824 1.397 . S
C823 C828 1.363 . S
C824 H801 0.950 . S
C824 C823 1.397 . S
C824 C825 1.334 . S
C825 H802 0.950 . S
C825 C824 1.334 . S
C825 C826 1.287 . S
C826 C825 1.287 . S
C826 C827 1.524 . S
C826 H845 0.913 . S
C827 H803 0.950 . S
C827 C826 1.524 . S
C827 C828 1.415 . S
C828 H804 0.950 . S
C828 C823 1.363 . S
C828 C827 1.415 . S
C829 H805 0.951 . S
C829 C830 1.366 . S
C829 C831 1.388 . S
C830 C829 1.366 . S
C830 C834 1.385 . S
C831 H806 0.951 . S
C831 C829 1.388 . S
C831 C832 1.366 . S
C832 C831 1.366 . S
C832 C833 1.414 . S
C832 C835 1.499 . S
C833 H807 0.950 . S
C833 C832 1.414 . S
C833 C834 1.374 . S
C834 H808 0.950 . S
C834 C830 1.385 . S
C834 C833 1.374 . S
C835 C832 1.499 . S
C835 C836 1.373 . S
C835 C837 1.389 . S
C836 H809 0.950 . S
C836 C822 1.377 . S
C836 C835 1.373 . S
C837 C821 1.377 . S
C837 C835 1.389 . S
C837 C838 1.524 . S
C838 C837 1.524 . S
C838 C839 1.397 . S
C838 C843 1.363 . S
C839 H810 0.950 . S
C839 C838 1.397 . S
C839 C840 1.334 . S
C840 H811 0.950 . S
C840 C839 1.334 . S
C840 C841 1.287 . S
C841 C840 1.287 . S
C841 C842 1.524 . S
C841 H844 0.999 . S
C842 H812 0.950 . S
C842 C841 1.524 . S
C842 C843 1.415 . S
C843 H813 0.950 . S
C843 C838 1.363 . S
C843 C842 1.415 . S
H844 C841 0.999 . S
H845 C826 0.913 . S
H846 C864 0.951 . S
H847 C866 0.951 . S
H848 C868 0.950 . S
H849 C869 0.950 . S
H850 C871 0.950 . S
H851 C874 0.950 . S
H852 C875 0.950 . S
H853 C877 0.950 . S
H854 C878 0.950 . S
H855 C879 0.951 . S
H856 C881 0.951 . S
H857 C883 0.950 . S
H858 C884 0.950 . S
H859 C886 0.950 . S
H860 C889 0.950 . S
H861 C890 0.950 . S
H862 C892 0.950 . S
H863 C893 0.950 . S
C864 H846 0.951 . S
C864 C865 1.366 . S
C864 C866 1.388 . S
C865 C864 1.366 . S
C865 C869 1.385 . S
C866 H847 0.951 . S
C866 C864 1.388 . S
C866 C867 1.366 . S
C867 C866 1.366 . S
C867 C868 1.414 . S
C867 C870 1.499 . S
C868 H848 0.950 . S
C868 C867 1.414 . S
C868 C869 1.374 . S
C869 H849 0.950 . S
C869 C865 1.385 . S
C869 C868 1.374 . S
C870 C867 1.499 . S
C870 C871 1.373 . S
C870 C872 1.389 . S
C871 H850 0.950 . S
C871 C870 1.373 . S
C871 C887 1.377 . S
C872 C870 1.389 . S
C872 C873 1.524 . S
C872 C886 1.377 . S
C873 C872 1.524 . S
C873 C874 1.397 . S
C873 C878 1.363 . S
C874 H851 0.950 . S
C874 C873 1.397 . S
C874 C875 1.334 . S
C875 H852 0.950 . S
C875 C874 1.334 . S
C875 C876 1.287 . S
C876 C875 1.287 . S
C876 C877 1.524 . S
C876 H895 0.913 . S
C877 H853 0.950 . S
C877 C876 1.524 . S
C877 C878 1.415 . S
C878 H854 0.950 . S
C878 C873 1.363 . S
C878 C877 1.415 . S
C879 H855 0.951 . S
C879 C880 1.366 . S
C879 C881 1.388 . S
C880 C879 1.366 . S
C880 C884 1.385 . S
C881 H856 0.951 . S
C881 C879 1.388 . S
C881 C882 1.366 . S
C882 C881 1.366 . S
C882 C883 1.414 . S
C882 C885 1.499 . S
C883 H857 0.950 . S
C883 C882 1.414 . S
C883 C884 1.374 . S
C884 H858 0.950 . S
C884 C880 1.385 . S
C884 C883 1.374 . S
C885 C882 1.499 . S
C885 C886 1.373 . S
C885 C887 1.389 . S
C886 H859 0.950 . S
C886 C872 1.377 . S
C886 C885 1.373 . S
C887 C871 1.377 . S
C887 C885 1.389 . S
C887 C888 1.524 . S
C888 C887 1.524 . S
C888 C889 1.397 . S
C888 C893 1.363 . S
C889 H860 0.950 . S
C889 C888 1.397 . S
C889 C890 1.334 . S
C890 H861 0.950 . S
C890 C889 1.334 . S
C890 C891 1.287 . S
C891 C890 1.287 . S
C891 C892 1.524 . S
C891 H894 0.999 . S
C892 H862 0.950 . S
C892 C891 1.524 . S
C892 C893 1.415 . S
C893 H863 0.950 . S
C893 C888 1.363 . S
C893 C892 1.415 . S
H894 C891 0.999 . S
H895 C876 0.913 . S
H896 C914 0.951 . S
H897 C916 0.951 . S
H898 C918 0.950 . S
H899 C919 0.950 . S
H900 C921 0.950 . S
H901 C924 0.950 . S
H902 C925 0.950 . S
H903 C927 0.950 . S
H904 C928 0.950 . S
H905 C929 0.951 . S
H906 C931 0.951 . S
H907 C933 0.950 . S
H908 C934 0.950 . S
H909 C936 0.950 . S
H910 C939 0.950 . S
H911 C940 0.950 . S
H912 C942 0.950 . S
H913 C943 0.950 . S
C914 H896 0.951 . S
C914 C915 1.366 . S
C914 C916 1.388 . S
C915 C914 1.366 . S
C915 C919 1.385 . S
C916 H897 0.951 . S
C916 C914 1.388 . S
C916 C917 1.366 . S
C917 C916 1.366 . S
C917 C918 1.414 . S
C917 C920 1.499 . S
C918 H898 0.950 . S
C918 C917 1.414 . S
C918 C919 1.374 . S
C919 H899 0.950 . S
C919 C915 1.385 . S
C919 C918 1.374 . S
C920 C917 1.499 . S
C920 C921 1.373 . S
C920 C922 1.389 . S
C921 H900 0.950 . S
C921 C920 1.373 . S
C921 C937 1.377 . S
C922 C920 1.389 . S
C922 C923 1.524 . S
C922 C936 1.377 . S
C923 C922 1.524 . S
C923 C924 1.397 . S
C923 C928 1.363 . S
C924 H901 0.950 . S
C924 C923 1.397 . S
C924 C925 1.334 . S
C925 H902 0.950 . S
C925 C924 1.334 . S
C925 C926 1.287 . S
C926 C925 1.287 . S
C926 C927 1.524 . S
C926 H945 0.913 . S
C927 H903 0.950 . S
C927 C926 1.524 . S
C927 C928 1.415 . S
C928 H904 0.950 . S
C928 C923 1.363 . S
C928 C927 1.415 . S
C929 H905 0.951 . S
C929 C930 1.366 . S
C929 C931 1.388 . S
C930 C929 1.366 . S
C930 C934 1.385 . S
C931 H906 0.951 . S
C931 C929 1.388 . S
C931 C932 1.366 . S
C932 C931 1.366 . S
C932 C933 1.414 . S
C932 C935 1.499 . S
C933 H907 0.950 . S
C933 C932 1.414 . S
C933 C934 1.374 . S
C934 H908 0.950 . S
C934 C930 1.385 . S
C934 C933 1.374 . S
C935 C932 1.499 . S
C935 C936 1.373 . S
C935 C937 1.389 . S
C936 H909 0.950 . S
C936 C922 1.377 . S
C936 C935 1.373 . S
C937 C921 1.377 . S
C937 C935 1.389 . S
C937 C938 1.524 . S
C938 C937 1.524 . S
C938 C939 1.397 . S
C938 C943 1.363 . S
C939 H910 0.950 . S
C939 C938 1.397 . S
C939 C940 1.334 . S
C940 H911 0.950 . S
C940 C939 1.334 . S
C940 C941 1.287 . S
C941 C940 1.287 . S
C941 C942 1.524 . S
C941 H944 0.999 . S
C942 H912 0.950 . S
C942 C941 1.524 . S
C942 C943 1.415 . S
C943 H913 0.950 . S
C943 C938 1.363 . S
C943 C942 1.415 . S
H944 C941 0.999 . S
H945 C926 0.913 . S
H946 C964 0.951 . S
H947 C966 0.951 . S
H948 C968 0.950 . S
H949 C969 0.950 . S
H950 C971 0.950 . S
H951 C974 0.950 . S
H952 C975 0.950 . S
H953 C977 0.950 . S
H954 C978 0.950 . S
H955 C979 0.951 . S
H956 C981 0.951 . S
H957 C983 0.950 . S
H958 C984 0.950 . S
H959 C986 0.950 . S
H960 C989 0.950 . S
H961 C990 0.950 . S
H962 C992 0.950 . S
H963 C993 0.950 . S
C964 H946 0.951 . S
C964 C965 1.366 . S
C964 C966 1.388 . S
C965 C964 1.366 . S
C965 C969 1.385 . S
C966 H947 0.951 . S
C966 C964 1.388 . S
C966 C967 1.366 . S
C967 C966 1.366 . S
C967 C968 1.414 . S
C967 C970 1.499 . S
C968 H948 0.950 . S
C968 C967 1.414 . S
C968 C969 1.374 . S
C969 H949 0.950 . S
C969 C965 1.385 . S
C969 C968 1.374 . S
C970 C967 1.499 . S
C970 C971 1.373 . S
C970 C972 1.389 . S
C971 H950 0.950 . S
C971 C970 1.373 . S
C971 C987 1.377 . S
C972 C970 1.389 . S
C972 C973 1.524 . S
C972 C986 1.377 . S
C973 C972 1.524 . S
C973 C974 1.397 . S
C973 C978 1.363 . S
C974 H951 0.950 . S
C974 C973 1.397 . S
C974 C975 1.334 . S
C975 H952 0.950 . S
C975 C974 1.334 . S
C975 C976 1.287 . S
C976 C975 1.287 . S
C976 C977 1.524 . S
C976 H995 0.913 . S
C977 H953 0.950 . S
C977 C976 1.524 . S
C977 C978 1.415 . S
C978 H954 0.950 . S
C978 C973 1.363 . S
C978 C977 1.415 . S
C979 H955 0.951 . S
C979 C980 1.366 . S
C979 C981 1.388 . S
C980 C979 1.366 . S
C980 C984 1.385 . S
C981 H956 0.951 . S
C981 C979 1.388 . S
C981 C982 1.366 . S
C982 C981 1.366 . S
C982 C983 1.414 . S
C982 C985 1.499 . S
C983 H957 0.950 . S
C983 C982 1.414 . S
C983 C984 1.374 . S
C984 H958 0.950 . S
C984 C980 1.385 . S
C984 C983 1.374 . S
C985 C982 1.499 . S
C985 C986 1.373 . S
C985 C987 1.389 . S
C986 H959 0.950 . S
C986 C972 1.377 . S
C986 C985 1.373 . S
C987 C971 1.377 . S
C987 C985 1.389 . S
C987 C988 1.524 . S
C988 C987 1.524 . S
C988 C989 1.397 . S
C988 C993 1.363 . S
C989 H960 0.950 . S
C989 C988 1.397 . S
C989 C990 1.334 . S
C990 H961 0.950 . S
C990 C989 1.334 . S
C990 C991 1.287 . S
C991 C990 1.287 . S
C991 C992 1.524 . S
C991 H994 0.999 . S
C992 H962 0.950 . S
C992 C991 1.524 . S
C992 C993 1.415 . S
C993 H963 0.950 . S
C993 C988 1.363 . S
C993 C992 1.415 . S
H994 C991 0.999 . S
H995 C976 0.913 . S
H996 C1014 0.951 . S
H997 C1016 0.951 . S
H998 C1018 0.950 . S
H999 C1019 0.950 . S
H1000 C1021 0.950 . S
H1001 C1024 0.950 . S
H1002 C1025 0.950 . S
H1003 C1027 0.950 . S
H1004 C1028 0.950 . S
H1005 C1029 0.951 . S
H1006 C1031 0.951 . S
H1007 C1033 0.950 . S
H1008 C1034 0.950 . S
H1009 C1036 0.950 . S
H1010 C1039 0.950 . S
H1011 C1040 0.950 . S
H1012 C1042 0.950 . S
H1013 C1043 0.950 . S
C1014 H996 0.951 . S
C1014 C1015 1.366 . S
C1014 C1016 1.388 . S
C1015 C1014 1.366 . S
C1015 C1019 1.385 . S
C1016 H997 0.951 . S
C1016 C1014 1.388 . S
C1016 C1017 1.366 . S
C1017 C1016 1.366 . S
C1017 C1018 1.414 . S
C1017 C1020 1.499 . S
C1018 H998 0.950 . S
C1018 C1017 1.414 . S
C1018 C1019 1.374 . S
C1019 H999 0.950 . S
C1019 C1015 1.385 . S
C1019 C1018 1.374 . S
C1020 C1017 1.499 . S
C1020 C1021 1.373 . S
C1020 C1022 1.389 . S
C1021 H1000 0.950 . S
C1021 C1020 1.373 . S
C1021 C1037 1.377 . S
C1022 C1020 1.389 . S
C1022 C1023 1.524 . S
C1022 C1036 1.377 . S
C1023 C1022 1.524 . S
C1023 C1024 1.397 . S
C1023 C1028 1.363 . S
C1024 H1001 0.950 . S
C1024 C1023 1.397 . S
C1024 C1025 1.334 . S
C1025 H1002 0.950 . S
C1025 C1024 1.334 . S
C1025 C1026 1.287 . S
C1026 C1025 1.287 . S
C1026 C1027 1.524 . S
C1026 H1045 0.913 . S
C1027 H1003 0.950 . S
C1027 C1026 1.524 . S
C1027 C1028 1.415 . S
C1028 H1004 0.950 . S
C1028 C1023 1.363 . S
C1028 C1027 1.415 . S
C1029 H1005 0.951 . S
C1029 C1030 1.366 . S
C1029 C1031 1.388 . S
C1030 C1029 1.366 . S
C1030 C1034 1.385 . S
C1031 H1006 0.951 . S
C1031 C1029 1.388 . S
C1031 C1032 1.366 . S
C1032 C1031 1.366 . S
C1032 C1033 1.414 . S
C1032 C1035 1.499 . S
C1033 H1007 0.950 . S
C1033 C1032 1.414 . S
C1033 C1034 1.374 . S
C1034 H1008 0.950 . S
C1034 C1030 1.385 . S
C1034 C1033 1.374 . S
C1035 C1032 1.499 . S
C1035 C1036 1.373 . S
C1035 C1037 1.389 . S
C1036 H1009 0.950 . S
C1036 C1022 1.377 . S
C1036 C1035 1.373 . S
C1037 C1021 1.377 . S
C1037 C1035 1.389 . S
C1037 C1038 1.524 . S
C1038 C1037 1.524 . S
C1038 C1039 1.397 . S
C1038 C1043 1.363 . S
C1039 H1010 0.950 . S
C1039 C1038 1.397 . S
C1039 C1040 1.334 . S
C1040 H1011 0.950 . S
C1040 C1039 1.334 . S
C1040 C1041 1.287 . S
C1041 C1040 1.287 . S
C1041 C1042 1.524 . S
C1041 H1044 0.999 . S
C1042 H1012 0.950 . S
C1042 C1041 1.524 . S
C1042 C1043 1.415 . S
C1043 H1013 0.950 . S
C1043 C1038 1.363 . S
C1043 C1042 1.415 . S
H1044 C1041 0.999 . S
H1045 C1026 0.913 . S
H1046 C1064 0.951 . S
H1047 C1066 0.951 . S
H1048 C1068 0.950 . S
H1049 C1069 0.950 . S
H1050 C1071 0.950 . S
H1051 C1074 0.950 . S
H1052 C1075 0.950 . S
H1053 C1077 0.950 . S
H1054 C1078 0.950 . S
H1055 C1079 0.951 . S
H1056 C1081 0.951 . S
H1057 C1083 0.950 . S
H1058 C1084 0.950 . S
H1059 C1086 0.950 . S
H1060 C1089 0.950 . S
H1061 C1090 0.950 . S
H1062 C1092 0.950 . S
H1063 C1093 0.950 . S
C1064 H1046 0.951 . S
C1064 C1065 1.366 . S
C1064 C1066 1.388 . S
C1065 C1064 1.366 . S
C1065 C1069 1.385 . S
C1066 H1047 0.951 . S
C1066 C1064 1.388 . S
C1066 C1067 1.366 . S
C1067 C1066 1.366 . S
C1067 C1068 1.414 . S
C1067 C1070 1.499 . S
C1068 H1048 0.950 . S
C1068 C1067 1.414 . S
C1068 C1069 1.374 . S
C1069 H1049 0.950 . S
C1069 C1065 1.385 . S
C1069 C1068 1.374 . S
C1070 C1067 1.499 . S
C1070 C1071 1.373 . S
C1070 C1072 1.389 . S
C1071 H1050 0.950 . S
C1071 C1070 1.373 . S
C1071 C1087 1.377 . S
C1072 C1070 1.389 . S
C1072 C1073 1.524 . S
C1072 C1086 1.377 . S
C1073 C1072 1.524 . S
C1073 C1074 1.397 . S
C1073 C1078 1.363 . S
C1074 H1051 0.950 . S
C1074 C1073 1.397 . S
C1074 C1075 1.334 . S
C1075 H1052 0.950 . S
C1075 C1074 1.334 . S
C1075 C1076 1.287 . S
C1076 C1075 1.287 . S
C1076 C1077 1.524 . S
C1076 H1095 0.913 . S
C1077 H1053 0.950 . S
C1077 C1076 1.524 . S
C1077 C1078 1.415 . S
C1078 H1054 0.950 . S
C1078 C1073 1.363 . S
C1078 C1077 1.415 . S
C1079 H1055 0.951 . S
C1079 C1080 1.366 . S
C1079 C1081 1.388 . S
C1080 C1079 1.366 . S
C1080 C1084 1.385 . S
C1081 H1056 0.951 . S
C1081 C1079 1.388 . S
C1081 C1082 1.366 . S
C1082 C1081 1.366 . S
C1082 C1083 1.414 . S
C1082 C1085 1.499 . S
C1083 H1057 0.950 . S
C1083 C1082 1.414 . S
C1083 C1084 1.374 . S
C1084 H1058 0.950 . S
C1084 C1080 1.385 . S
C1084 C1083 1.374 . S
C1085 C1082 1.499 . S
C1085 C1086 1.373 . S
C1085 C1087 1.389 . S
C1086 H1059 0.950 . S
C1086 C1072 1.377 . S
C1086 C1085 1.373 . S
C1087 C1071 1.377 . S
C1087 C1085 1.389 . S
C1087 C1088 1.524 . S
C1088 C1087 1.524 . S
C1088 C1089 1.397 . S
C1088 C1093 1.363 . S
C1089 H1060 0.950 . S
C1089 C1088 1.397 . S
C1089 C1090 1.334 . S
C1090 H1061 0.950 . S
C1090 C1089 1.334 . S
C1090 C1091 1.287 . S
C1091 C1090 1.287 . S
C1091 C1092 1.524 . S
C1091 H1094 0.999 . S
C1092 H1062 0.950 . S
C1092 C1091 1.524 . S
C1092 C1093 1.415 . S
C1093 H1063 0.950 . S
C1093 C1088 1.363 . S
C1093 C1092 1.415 . S
H1094 C1091 0.999 . S
H1095 C1076 0.913 . S
H1096 C1114 0.951 . S
H1097 C1116 0.951 . S
H1098 C1118 0.950 . S
H1099 C1119 0.950 . S
H1100 C1121 0.950 . S
H1101 C1124 0.950 . S
H1102 C1125 0.950 . S
H1103 C1127 0.950 . S
H1104 C1128 0.950 . S
H1105 C1129 0.951 . S
H1106 C1131 0.951 . S
H1107 C1133 0.950 . S
H1108 C1134 0.950 . S
H1109 C1136 0.950 . S
H1110 C1139 0.950 . S
H1111 C1140 0.950 . S
H1112 C1142 0.950 . S
H1113 C1143 0.950 . S
C1114 H1096 0.951 . S
C1114 C1115 1.366 . S
C1114 C1116 1.388 . S
C1115 C1114 1.366 . S
C1115 C1119 1.385 . S
C1116 H1097 0.951 . S
C1116 C1114 1.388 . S
C1116 C1117 1.366 . S
C1117 C1116 1.366 . S
C1117 C1118 1.414 . S
C1117 C1120 1.499 . S
C1118 H1098 0.950 . S
C1118 C1117 1.414 . S
C1118 C1119 1.374 . S
C1119 H1099 0.950 . S
C1119 C1115 1.385 . S
C1119 C1118 1.374 . S
C1120 C1117 1.499 . S
C1120 C1121 1.373 . S
C1120 C1122 1.389 . S
C1121 H1100 0.950 . S
C1121 C1120 1.373 . S
C1121 C1137 1.377 . S
C1122 C1120 1.389 . S
C1122 C1123 1.524 . S
C1122 C1136 1.377 . S
C1123 C1122 1.524 . S
C1123 C1124 1.397 . S
C1123 C1128 1.363 . S
C1124 H1101 0.950 . S
C1124 C1123 1.397 . S
C1124 C1125 1.334 . S
C1125 H1102 0.950 . S
C1125 C1124 1.334 . S
C1125 C1126 1.287 . S
C1126 C1125 1.287 . S
C1126 C1127 1.524 . S
C1126 H1145 0.913 . S
C1127 H1103 0.950 . S
C1127 C1126 1.524 . S
C1127 C1128 1.415 . S
C1128 H1104 0.950 . S
C1128 C1123 1.363 . S
C1128 C1127 1.415 . S
C1129 H1105 0.951 . S
C1129 C1130 1.366 . S
C1129 C1131 1.388 . S
C1130 C1129 1.366 . S
C1130 C1134 1.385 . S
C1131 H1106 0.951 . S
C1131 C1129 1.388 . S
C1131 C1132 1.366 . S
C1132 C1131 1.366 . S
C1132 C1133 1.414 . S
C1132 C1135 1.499 . S
C1133 H1107 0.950 . S
C1133 C1132 1.414 . S
C1133 C1134 1.374 . S
C1134 H1108 0.950 . S
C1134 C1130 1.385 . S
C1134 C1133 1.374 . S
C1135 C1132 1.499 . S
C1135 C1136 1.373 . S
C1135 C1137 1.389 . S
C1136 H1109 0.950 . S
C1136 C1122 1.377 . S
C1136 C1135 1.373 . S
C1137 C1121 1.377 . S
C1137 C1135 1.389 . S
C1137 C1138 1.524 . S
C1138 C1137 1.524 . S
C1138 C1139 1.397 . S
C1138 C1143 1.363 . S
C1139 H1110 0.950 . S
C1139 C1138 1.397 . S
C1139 C1140 1.334 . S
C1140 H1111 0.950 . S
C1140 C1139 1.334 . S
C1140 C1141 1.287 . S
C1141 C1140 1.287 . S
C1141 C1142 1.524 . S
C1141 H1144 0.999 . S
C1142 H1112 0.950 . S
C1142 C1141 1.524 . S
C1142 C1143 1.415 . S
C1143 H1113 0.950 . S
C1143 C1138 1.363 . S
C1143 C1142 1.415 . S
H1144 C1141 0.999 . S
H1145 C1126 0.913 . S
H1146 C1164 0.951 . S
H1147 C1166 0.951 . S
H1148 C1168 0.950 . S
H1149 C1169 0.950 . S
H1150 C1171 0.950 . S
H1151 C1174 0.950 . S
H1152 C1175 0.950 . S
H1153 C1177 0.950 . S
H1154 C1178 0.950 . S
H1155 C1179 0.951 . S
H1156 C1181 0.951 . S
H1157 C1183 0.950 . S
H1158 C1184 0.950 . S
H1159 C1186 0.950 . S
H1160 C1189 0.950 . S
H1161 C1190 0.950 . S
H1162 C1192 0.950 . S
H1163 C1193 0.950 . S
C1164 H1146 0.951 . S
C1164 C1165 1.366 . S
C1164 C1166 1.388 . S
C1165 C1164 1.366 . S
C1165 C1169 1.385 . S
C1166 H1147 0.951 . S
C1166 C1164 1.388 . S
C1166 C1167 1.366 . S
C1167 C1166 1.366 . S
C1167 C1168 1.414 . S
C1167 C1170 1.499 . S
C1168 H1148 0.950 . S
C1168 C1167 1.414 . S
C1168 C1169 1.374 . S
C1169 H1149 0.950 . S
C1169 C1165 1.385 . S
C1169 C1168 1.374 . S
C1170 C1167 1.499 . S
C1170 C1171 1.373 . S
C1170 C1172 1.389 . S
C1171 H1150 0.950 . S
C1171 C1170 1.373 . S
C1171 C1187 1.377 . S
C1172 C1170 1.389 . S
C1172 C1173 1.524 . S
C1172 C1186 1.377 . S
C1173 C1172 1.524 . S
C1173 C1174 1.397 . S
C1173 C1178 1.363 . S
C1174 H1151 0.950 . S
C1174 C1173 1.397 . S
C1174 C1175 1.334 . S
C1175 H1152 0.950 . S
C1175 C1174 1.334 . S
C1175 C1176 1.287 . S
C1176 C1175 1.287 . S
C1176 C1177 1.524 . S
C1176 H1195 0.913 . S
C1177 H1153 0.950 . S
C1177 C1176 1.524 . S
C1177 C1178 1.415 . S
C1178 H1154 0.950 . S
C1178 C1173 1.363 . S
C1178 C1177 1.415 . S
C1179 H1155 0.951 . S
C1179 C1180 1.366 . S
C1179 C1181 1.388 . S
C1180 C1179 1.366 . S
C1180 C1184 1.385 . S
C1181 H1156 0.951 . S
C1181 C1179 1.388 . S
C1181 C1182 1.366 . S
C1182 C1181 1.366 . S
C1182 C1183 1.414 . S
C1182 C1185 1.499 . S
C1183 H1157 0.950 . S
C1183 C1182 1.414 . S
C1183 C1184 1.374 . S
C1184 H1158 0.950 . S
C1184 C1180 1.385 . S
C1184 C1183 1.374 . S
C1185 C1182 1.499 . S
C1185 C1186 1.373 . S
C1185 C1187 1.389 . S
C1186 H1159 0.950 . S
C1186 C1172 1.377 . S
C1186 C1185 1.373 . S
C1187 C1171 1.377 . S
C1187 C1185 1.389 . S
C1187 C1188 1.524 . S
C1188 C1187 1.524 . S
C1188 C1189 1.397 . S
C1188 C1193 1.363 . S
C1189 H1160 0.950 . S
C1189 C1188 1.397 . S
C1189 C1190 1.334 . S
C1190 H1161 0.950 . S
C1190 C1189 1.334 . S
C1190 C1191 1.287 . S
C1191 C1190 1.287 . S
C1191 C1192 1.524 . S
C1191 H1194 0.999 . S
C1192 H1162 0.950 . S
C1192 C1191 1.524 . S
C1192 C1193 1.415 . S
C1193 H1163 0.950 . S
C1193 C1188 1.363 . S
C1193 C1192 1.415 . S
H1194 C1191 0.999 . S
H1195 C1176 0.913 . S
H1196 C1214 0.951 . S
H1197 C1216 0.951 . S
H1198 C1218 0.950 . S
H1199 C1219 0.950 . S
H1200 C1221 0.950 . S
H1201 C1224 0.950 . S
H1202 C1225 0.950 . S
H1203 C1227 0.950 . S
H1204 C1228 0.950 . S
H1205 C1229 0.951 . S
H1206 C1231 0.951 . S
H1207 C1233 0.950 . S
H1208 C1234 0.950 . S
H1209 C1236 0.950 . S
H1210 C1239 0.950 . S
H1211 C1240 0.950 . S
H1212 C1242 0.950 . S
H1213 C1243 0.950 . S
C1214 H1196 0.951 . S
C1214 C1215 1.366 . S
C1214 C1216 1.388 . S
C1215 C1214 1.366 . S
C1215 C1219 1.385 . S
C1216 H1197 0.951 . S
C1216 C1214 1.388 . S
C1216 C1217 1.366 . S
C1217 C1216 1.366 . S
C1217 C1218 1.414 . S
C1217 C1220 1.499 . S
C1218 H1198 0.950 . S
C1218 C1217 1.414 . S
C1218 C1219 1.374 . S
C1219 H1199 0.950 . S
C1219 C1215 1.385 . S
C1219 C1218 1.374 . S
C1220 C1217 1.499 . S
C1220 C1221 1.373 . S
C1220 C1222 1.389 . S
C1221 H1200 0.950 . S
C1221 C1220 1.373 . S
C1221 C1237 1.377 . S
C1222 C1220 1.389 . S
C1222 C1223 1.524 . S
C1222 C1236 1.377 . S
C1223 C1222 1.524 . S
C1223 C1224 1.397 . S
C1223 C1228 1.363 . S
C1224 H1201 0.950 . S
C1224 C1223 1.397 . S
C1224 C1225 1.334 . S
C1225 H1202 0.950 . S
C1225 C1224 1.334 . S
C1225 C1226 1.287 . S
C1226 C1225 1.287 . S
C1226 C1227 1.524 . S
C1226 H1245 0.913 . S
C1227 H1203 0.950 . S
C1227 C1226 1.524 . S
C1227 C1228 1.415 . S
C1228 H1204 0.950 . S
C1228 C1223 1.363 . S
C1228 C1227 1.415 . S
C1229 H1205 0.951 . S
C1229 C1230 1.366 . S
C1229 C1231 1.388 . S
C1230 C1229 1.366 . S
C1230 C1234 1.385 . S
C1231 H1206 0.951 . S
C1231 C1229 1.388 . S
C1231 C1232 1.366 . S
C1232 C1231 1.366 . S
C1232 C1233 1.414 . S
C1232 C1235 1.499 . S
C1233 H1207 0.950 . S
C1233 C1232 1.414 . S
C1233 C1234 1.374 . S
C1234 H1208 0.950 . S
C1234 C1230 1.385 . S
C1234 C1233 1.374 . S
C1235 C1232 1.499 . S
C1235 C1236 1.373 . S
C1235 C1237 1.389 . S
C1236 H1209 0.950 . S
C1236 C1222 1.377 . S
C1236 C1235 1.373 . S
C1237 C1221 1.377 . S
C1237 C1235 1.389 . S
C1237 C1238 1.524 . S
C1238 C1237 1.524 . S
C1238 C1239 1.397 . S
C1238 C1243 1.363 . S
C1239 H1210 0.950 . S
C1239 C1238 1.397 . S
C1239 C1240 1.334 . S
C1240 H1211 0.950 . S
C1240 C1239 1.334 . S
C1240 C1241 1.287 . S
C1241 C1240 1.287 . S
C1241 C1242 1.524 . S
C1241 H1244 0.999 . S
C1242 H1212 0.950 . S
C1242 C1241 1.524 . S
C1242 C1243 1.415 . S
C1243 H1213 0.950 . S
C1243 C1238 1.363 . S
C1243 C1242 1.415 . S
H1244 C1241 0.999 . S
H1245 C1226 0.913 . S
H1246 C1264 0.951 . S
H1247 C1266 0.951 . S
H1248 C1268 0.950 . S
H1249 C1269 0.950 . S
H1250 C1271 0.950 . S
H1251 C1274 0.950 . S
H1252 C1275 0.950 . S
H1253 C1277 0.950 . S
H1254 C1278 0.950 . S
H1255 C1279 0.951 . S
H1256 C1281 0.951 . S
H1257 C1283 0.950 . S
H1258 C1284 0.950 . S
H1259 C1286 0.950 . S
H1260 C1289 0.950 . S
H1261 C1290 0.950 . S
H1262 C1292 0.950 . S
H1263 C1293 0.950 . S
C1264 H1246 0.951 . S
C1264 C1265 1.366 . S
C1264 C1266 1.388 . S
C1265 C1264 1.366 . S
C1265 C1269 1.385 . S
C1266 H1247 0.951 . S
C1266 C1264 1.388 . S
C1266 C1267 1.366 . S
C1267 C1266 1.366 . S
C1267 C1268 1.414 . S
C1267 C1270 1.499 . S
C1268 H1248 0.950 . S
C1268 C1267 1.414 . S
C1268 C1269 1.374 . S
C1269 H1249 0.950 . S
C1269 C1265 1.385 . S
C1269 C1268 1.374 . S
C1270 C1267 1.499 . S
C1270 C1271 1.373 . S
C1270 C1272 1.389 . S
C1271 H1250 0.950 . S
C1271 C1270 1.373 . S
C1271 C1287 1.377 . S
C1272 C1270 1.389 . S
C1272 C1273 1.524 . S
C1272 C1286 1.377 . S
C1273 C1272 1.524 . S
C1273 C1274 1.397 . S
C1273 C1278 1.363 . S
C1274 H1251 0.950 . S
C1274 C1273 1.397 . S
C1274 C1275 1.334 . S
C1275 H1252 0.950 . S
C1275 C1274 1.334 . S
C1275 C1276 1.287 . S
C1276 C1275 1.287 . S
C1276 C1277 1.524 . S
C1276 H1295 0.913 . S
C1277 H1253 0.950 . S
C1277 C1276 1.524 . S
C1277 C1278 1.415 . S
C1278 H1254 0.950 . S
C1278 C1273 1.363 . S
C1278 C1277 1.415 . S
C1279 H1255 0.951 . S
C1279 C1280 1.366 . S
C1279 C1281 1.388 . S
C1280 C1279 1.366 . S
C1280 C1284 1.385 . S
C1281 H1256 0.951 . S
C1281 C1279 1.388 . S
C1281 C1282 1.366 . S
C1282 C1281 1.366 . S
C1282 C1283 1.414 . S
C1282 C1285 1.499 . S
C1283 H1257 0.950 . S
C1283 C1282 1.414 . S
C1283 C1284 1.374 . S
C1284 H1258 0.950 . S
C1284 C1280 1.385 . S
C1284 C1283 1.374 . S
C1285 C1282 1.499 . S
C1285 C1286 1.373 . S
C1285 C1287 1.389 . S
C1286 H1259 0.950 . S
C1286 C1272 1.377 . S
C1286 C1285 1.373 . S
C1287 C1271 1.377 . S
C1287 C1285 1.389 . S
C1287 C1288 1.524 . S
C1288 C1287 1.524 . S
C1288 C1289 1.397 . S
C1288 C1293 1.363 . S
C1289 H1260 0.950 . S
C1289 C1288 1.397 . S
C1289 C1290 1.334 . S
C1290 H1261 0.950 . S
C1290 C1289 1.334 . S
C1290 C1291 1.287 . S
C1291 C1290 1.287 . S
C1291 C1292 1.524 . S
C1291 H1294 0.999 . S
C1292 H1262 0.950 . S
C1292 C1291 1.524 . S
C1292 C1293 1.415 . S
C1293 H1263 0.950 . S
C1293 C1288 1.363 . S
C1293 C1292 1.415 . S
H1294 C1291 0.999 . S
H1295 C1276 0.913 . S
H1296 C1314 0.951 . S
H1297 C1316 0.951 . S
H1298 C1318 0.950 . S
H1299 C1319 0.950 . S
H1300 C1321 0.950 . S
H1301 C1324 0.950 . S
H1302 C1325 0.950 . S
H1303 C1327 0.950 . S
H1304 C1328 0.950 1_545 S
H1305 C1329 0.951 . S
H1306 C1331 0.951 . S
H1307 C1333 0.950 . S
H1308 C1334 0.950 . S
H1309 C1336 0.950 . S
H1310 C1339 0.950 . S
H1311 C1340 0.950 . S
H1312 C1342 0.950 . S
H1313 C1343 0.950 1_565 S
C1314 H1296 0.951 . S
C1314 C1315 1.366 . S
C1314 C1316 1.388 . S
C1315 C1314 1.366 . S
C1315 C1319 1.385 . S
C1316 H1297 0.951 . S
C1316 C1314 1.388 . S
C1316 C1317 1.366 . S
C1317 C1316 1.366 . S
C1317 C1318 1.414 . S
C1317 C1320 1.499 . S
C1318 H1298 0.950 . S
C1318 C1317 1.414 . S
C1318 C1319 1.374 . S
C1319 H1299 0.950 . S
C1319 C1315 1.385 . S
C1319 C1318 1.374 . S
C1320 C1317 1.499 . S
C1320 C1321 1.373 . S
C1320 C1322 1.389 . S
C1321 H1300 0.950 . S
C1321 C1320 1.373 . S
C1321 C1337 1.377 1_566 S
C1322 C1320 1.389 . S
C1322 C1323 1.526 . S
C1322 C1336 1.377 1_566 S
C1323 C1322 1.526 . S
C1323 C1324 1.385 1_556 S
C1323 C1328 1.372 . S
C1324 H1301 0.950 . S
C1324 C1323 1.385 1_554 S
C1324 C1325 1.334 . S
C1325 H1302 0.950 . S
C1325 C1324 1.334 . S
C1325 C1326 1.287 . S
C1326 C1325 1.287 . S
C1326 C1327 1.524 1_554 S
C1326 H1345 0.913 . S
C1327 H1303 0.950 . S
C1327 C1326 1.524 1_556 S
C1327 C1328 1.415 . S
C1328 H1304 0.950 1_565 S
C1328 C1323 1.372 . S
C1328 C1327 1.415 . S
C1329 H1305 0.951 . S
C1329 C1330 1.366 . S
C1329 C1331 1.388 . S
C1330 C1329 1.366 . S
C1330 C1334 1.385 . S
C1331 H1306 0.951 . S
C1331 C1329 1.388 . S
C1331 C1332 1.366 . S
C1332 C1331 1.366 . S
C1332 C1333 1.414 . S
C1332 C1335 1.499 . S
C1333 H1307 0.950 . S
C1333 C1332 1.414 . S
C1333 C1334 1.374 . S
C1334 H1308 0.950 . S
C1334 C1330 1.385 . S
C1334 C1333 1.374 . S
C1335 C1332 1.499 . S
C1335 C1336 1.373 . S
C1335 C1337 1.389 . S
C1336 H1309 0.950 . S
C1336 C1322 1.377 1_544 S
C1336 C1335 1.373 . S
C1337 C1321 1.377 1_544 S
C1337 C1335 1.389 . S
C1337 C1338 1.526 . S
C1338 C1337 1.526 . S
C1338 C1339 1.384 1_554 S
C1338 C1343 1.372 . S
C1339 H1310 0.950 . S
C1339 C1338 1.384 1_556 S
C1339 C1340 1.334 . S
C1340 H1311 0.950 . S
C1340 C1339 1.334 . S
C1340 C1341 1.287 . S
C1341 C1340 1.287 . S
C1341 C1342 1.524 1_556 S
C1341 H1344 0.999 . S
C1342 H1312 0.950 . S
C1342 C1341 1.524 1_554 S
C1342 C1343 1.415 . S
C1343 H1313 0.950 1_545 S
C1343 C1338 1.372 . S
C1343 C1342 1.415 . S
H1344 C1341 0.999 . S
H1345 C1326 0.913 . S
H1346 C1364 0.951 . S
H1347 C1366 0.951 . S
H1348 C1368 0.950 . S
H1349 C1369 0.950 . S
H1350 C1371 0.950 . S
H1351 C1374 0.950 . S
H1352 C1375 0.950 . S
H1353 C1377 0.950 . S
H1354 C1378 0.950 . S
H1355 C1379 0.951 . S
H1356 C1381 0.951 . S
H1357 C1383 0.950 . S
H1358 C1384 0.950 . S
H1359 C1386 0.950 . S
H1360 C1389 0.950 . S
H1361 C1390 0.950 . S
H1362 C1392 0.950 . S
H1363 C1393 0.950 . S
C1364 H1346 0.951 . S
C1364 C1365 1.366 . S
C1364 C1366 1.388 . S
C1365 C1364 1.366 . S
C1365 C1369 1.385 . S
C1366 H1347 0.951 . S
C1366 C1364 1.388 . S
C1366 C1367 1.366 . S
C1367 C1366 1.366 . S
C1367 C1368 1.414 . S
C1367 C1370 1.499 . S
C1368 H1348 0.950 . S
C1368 C1367 1.414 . S
C1368 C1369 1.374 . S
C1369 H1349 0.950 . S
C1369 C1365 1.385 . S
C1369 C1368 1.374 . S
C1370 C1367 1.499 . S
C1370 C1371 1.373 . S
C1370 C1372 1.389 . S
C1371 H1350 0.950 . S
C1371 C1370 1.373 . S
C1371 C1387 1.377 . S
C1372 C1370 1.389 . S
C1372 C1373 1.524 . S
C1372 C1386 1.377 . S
C1373 C1372 1.524 . S
C1373 C1374 1.397 . S
C1373 C1378 1.363 . S
C1374 H1351 0.950 . S
C1374 C1373 1.397 . S
C1374 C1375 1.334 . S
C1375 H1352 0.950 . S
C1375 C1374 1.334 . S
C1375 C1376 1.287 . S
C1376 C1375 1.287 . S
C1376 C1377 1.524 . S
C1376 H1395 0.913 . S
C1377 H1353 0.950 . S
C1377 C1376 1.524 . S
C1377 C1378 1.415 . S
C1378 H1354 0.950 . S
C1378 C1373 1.363 . S
C1378 C1377 1.415 . S
C1379 H1355 0.951 . S
C1379 C1380 1.366 . S
C1379 C1381 1.388 . S
C1380 C1379 1.366 . S
C1380 C1384 1.385 . S
C1381 H1356 0.951 . S
C1381 C1379 1.388 . S
C1381 C1382 1.366 . S
C1382 C1381 1.366 . S
C1382 C1383 1.414 . S
C1382 C1385 1.499 . S
C1383 H1357 0.950 . S
C1383 C1382 1.414 . S
C1383 C1384 1.374 . S
C1384 H1358 0.950 . S
C1384 C1380 1.385 . S
C1384 C1383 1.374 . S
C1385 C1382 1.499 . S
C1385 C1386 1.373 . S
C1385 C1387 1.389 . S
C1386 H1359 0.950 . S
C1386 C1372 1.377 . S
C1386 C1385 1.373 . S
C1387 C1371 1.377 . S
C1387 C1385 1.389 . S
C1387 C1388 1.524 . S
C1388 C1387 1.524 . S
C1388 C1389 1.397 . S
C1388 C1393 1.363 . S
C1389 H1360 0.950 . S
C1389 C1388 1.397 . S
C1389 C1390 1.334 . S
C1390 H1361 0.950 . S
C1390 C1389 1.334 . S
C1390 C1391 1.287 . S
C1391 C1390 1.287 . S
C1391 C1392 1.524 . S
C1391 H1394 0.999 . S
C1392 H1362 0.950 . S
C1392 C1391 1.524 . S
C1392 C1393 1.415 . S
C1393 H1363 0.950 . S
C1393 C1388 1.363 . S
C1393 C1392 1.415 . S
H1394 C1391 0.999 . S
H1395 C1376 0.913 . S
H1396 C1414 0.951 . S
H1397 C1416 0.951 . S
H1398 C1418 0.950 . S
H1399 C1419 0.950 . S
H1400 C1421 0.950 . S
H1401 C1424 0.950 . S
H1402 C1425 0.950 . S
H1403 C1427 0.950 . S
H1404 C1428 0.950 . S
H1405 C1429 0.951 . S
H1406 C1431 0.951 . S
H1407 C1433 0.950 . S
H1408 C1434 0.950 . S
H1409 C1436 0.950 . S
H1410 C1439 0.950 . S
H1411 C1440 0.950 . S
H1412 C1442 0.950 . S
H1413 C1443 0.950 . S
C1414 H1396 0.951 . S
C1414 C1415 1.366 . S
C1414 C1416 1.388 . S
C1415 C1414 1.366 . S
C1415 C1419 1.385 . S
C1416 H1397 0.951 . S
C1416 C1414 1.388 . S
C1416 C1417 1.366 . S
C1417 C1416 1.366 . S
C1417 C1418 1.414 . S
C1417 C1420 1.499 . S
C1418 H1398 0.950 . S
C1418 C1417 1.414 . S
C1418 C1419 1.374 . S
C1419 H1399 0.950 . S
C1419 C1415 1.385 . S
C1419 C1418 1.374 . S
C1420 C1417 1.499 . S
C1420 C1421 1.373 1_554 S
C1420 C1422 1.366 1_655 S
C1421 H1400 0.950 . S
C1421 C1420 1.373 1_556 S
C1421 C1437 1.398 . S
C1422 C1420 1.366 1_455 S
C1422 C1423 1.528 . S
C1422 C1436 1.398 . S
C1423 C1422 1.528 . S
C1423 C1424 1.397 1_455 S
C1423 C1428 1.363 . S
C1424 H1401 0.950 . S
C1424 C1423 1.397 1_655 S
C1424 C1425 1.334 . S
C1425 H1402 0.950 . S
C1425 C1424 1.334 . S
C1425 C1426 1.287 1_655 S
C1426 C1425 1.287 1_455 S
C1426 C1427 1.524 . S
C1426 H1445 0.913 . S
C1427 H1403 0.950 . S
C1427 C1426 1.524 . S
C1427 C1428 1.415 . S
C1428 H1404 0.950 . S
C1428 C1423 1.363 . S
C1428 C1427 1.415 . S
C1429 H1405 0.951 . S
C1429 C1430 1.366 . S
C1429 C1431 1.388 . S
C1430 C1429 1.366 . S
C1430 C1434 1.385 . S
C1431 H1406 0.951 . S
C1431 C1429 1.388 . S
C1431 C1432 1.366 . S
C1432 C1431 1.366 . S
C1432 C1433 1.414 . S
C1432 C1435 1.499 . S
C1433 H1407 0.950 . S
C1433 C1432 1.414 . S
C1433 C1434 1.374 . S
C1434 H1408 0.950 . S
C1434 C1430 1.385 . S
C1434 C1433 1.374 . S
C1435 C1432 1.499 . S
C1435 C1436 1.373 1_556 S
C1435 C1437 1.366 1_455 S
C1436 H1409 0.950 . S
C1436 C1422 1.398 . S
C1436 C1435 1.373 1_554 S
C1437 C1421 1.398 . S
C1437 C1435 1.366 1_655 S
C1437 C1438 1.528 . S
C1438 C1437 1.528 . S
C1438 C1439 1.397 1_655 S
C1438 C1443 1.363 . S
C1439 H1410 0.950 . S
C1439 C1438 1.397 1_455 S
C1439 C1440 1.334 . S
C1440 H1411 0.950 . S
C1440 C1439 1.334 . S
C1440 C1441 1.287 1_455 S
C1441 C1440 1.287 1_655 S
C1441 C1442 1.524 . S
C1441 H1444 0.999 . S
C1442 H1412 0.950 . S
C1442 C1441 1.524 . S
C1442 C1443 1.415 . S
C1443 H1413 0.950 . S
C1443 C1438 1.363 . S
C1443 C1442 1.415 . S
H1444 C1441 0.999 . S
H1445 C1426 0.913 . S
H1446 C1464 0.951 . S
H1447 C1466 0.951 . S
H1448 C1468 0.950 . S
H1449 C1469 0.950 . S
H1450 C1471 0.950 . S
H1451 C1474 0.950 . S
H1452 C1475 0.950 . S
H1453 C1477 0.946 . S
H1454 C1478 0.951 . S
H1455 C1479 0.951 . S
H1456 C1481 0.951 . S
H1457 C1483 0.950 . S
H1458 C1484 0.950 . S
H1459 C1486 0.950 . S
H1460 C1489 0.950 . S
H1461 C1490 0.950 . S
H1462 C1492 0.946 . S
H1463 C1493 0.951 . S
C1464 H1446 0.951 . S
C1464 C1465 1.366 . S
C1464 C1466 1.388 . S
C1465 C1464 1.366 . S
C1465 C1469 1.385 . S
C1466 H1447 0.951 . S
C1466 C1464 1.388 . S
C1466 C1467 1.366 . S
C1467 C1466 1.366 . S
C1467 C1468 1.414 . S
C1467 C1470 1.499 . S
C1468 H1448 0.950 . S
C1468 C1467 1.414 . S
C1468 C1469 1.374 . S
C1469 H1449 0.950 . S
C1469 C1465 1.385 . S
C1469 C1468 1.374 . S
C1470 C1467 1.499 . S
C1470 C1471 1.373 . S
C1470 C1472 1.389 . S
C1471 H1450 0.950 . S
C1471 C1470 1.373 . S
C1471 C1487 1.377 1_565 S
C1472 C1470 1.389 . S
C1472 C1473 1.524 . S
C1472 C1486 1.377 1_565 S
C1473 C1472 1.524 . S
C1473 C1474 1.397 . S
C1473 C1478 1.366 1_565 S
C1474 H1451 0.950 . S
C1474 C1473 1.397 . S
C1474 C1475 1.334 . S
C1475 H1452 0.950 . S
C1475 C1474 1.334 . S
C1475 C1476 1.287 . S
C1476 C1475 1.287 . S
C1476 C1477 1.525 1_565 S
C1476 H1495 0.913 . S
C1477 H1453 0.946 . S
C1477 C1476 1.525 1_545 S
C1477 C1478 1.414 . S
C1478 H1454 0.951 . S
C1478 C1473 1.366 1_545 S
C1478 C1477 1.414 . S
C1479 H1455 0.951 . S
C1479 C1480 1.366 . S
C1479 C1481 1.388 . S
C1480 C1479 1.366 . S
C1480 C1484 1.385 . S
C1481 H1456 0.951 . S
C1481 C1479 1.388 . S
C1481 C1482 1.366 . S
C1482 C1481 1.366 . S
C1482 C1483 1.414 . S
C1482 C1485 1.499 . S
C1483 H1457 0.950 . S
C1483 C1482 1.414 . S
C1483 C1484 1.374 . S
C1484 H1458 0.950 . S
C1484 C1480 1.385 . S
C1484 C1483 1.374 . S
C1485 C1482 1.499 . S
C1485 C1486 1.373 . S
C1485 C1487 1.389 . S
C1486 H1459 0.950 . S
C1486 C1472 1.377 1_545 S
C1486 C1485 1.373 . S
C1487 C1471 1.377 1_545 S
C1487 C1485 1.389 . S
C1487 C1488 1.524 . S
C1488 C1487 1.524 . S
C1488 C1489 1.397 . S
C1488 C1493 1.366 1_545 S
C1489 H1460 0.950 . S
C1489 C1488 1.397 . S
C1489 C1490 1.334 . S
C1490 H1461 0.950 . S
C1490 C1489 1.334 . S
C1490 C1491 1.287 . S
C1491 C1490 1.287 . S
C1491 C1492 1.525 1_545 S
C1491 H1494 0.999 . S
C1492 H1462 0.946 . S
C1492 C1491 1.525 1_565 S
C1492 C1493 1.414 . S
C1493 H1463 0.951 . S
C1493 C1488 1.366 1_565 S
C1493 C1492 1.414 . S
H1494 C1491 0.999 . S
H1495 C1476 0.913 . S
H1496 C1514 0.951 . S
H1497 C1516 0.951 . S
H1498 C1518 0.950 . S
H1499 C1519 0.950 . S
H1500 C1521 0.950 . S
H1501 C1524 0.950 . S
H1502 C1525 0.950 . S
H1503 C1527 0.950 . S
H1504 C1528 0.950 . S
H1505 C1529 0.951 . S
H1506 C1531 0.951 . S
H1507 C1533 0.950 . S
H1508 C1534 0.950 . S
H1509 C1536 0.950 . S
H1510 C1539 0.950 . S
H1511 C1540 0.950 . S
H1512 C1542 0.950 . S
H1513 C1543 0.950 . S
C1514 H1496 0.951 . S
C1514 C1515 1.366 . S
C1514 C1516 1.388 . S
C1515 C1514 1.366 . S
C1515 C1519 1.385 . S
C1516 H1497 0.951 . S
C1516 C1514 1.388 . S
C1516 C1517 1.366 . S
C1517 C1516 1.366 . S
C1517 C1518 1.414 . S
C1517 C1520 1.499 . S
C1518 H1498 0.950 . S
C1518 C1517 1.414 . S
C1518 C1519 1.374 . S
C1519 H1499 0.950 . S
C1519 C1515 1.385 . S
C1519 C1518 1.374 . S
C1520 C1517 1.499 . S
C1520 C1521 1.365 1_554 S
C1520 C1522 1.389 . S
C1521 H1500 0.950 . S
C1521 C1520 1.365 1_556 S
C1521 C1537 1.385 . S
C1522 C1520 1.389 . S
C1522 C1523 1.524 . S
C1522 C1536 1.385 . S
C1523 C1522 1.524 . S
C1523 C1524 1.397 . S
C1523 C1528 1.363 . S
C1524 H1501 0.950 . S
C1524 C1523 1.397 . S
C1524 C1525 1.334 . S
C1525 H1502 0.950 . S
C1525 C1524 1.334 . S
C1525 C1526 1.287 . S
C1526 C1525 1.287 . S
C1526 C1527 1.524 . S
C1526 H1545 0.913 . S
C1527 H1503 0.950 . S
C1527 C1526 1.524 . S
C1527 C1528 1.415 . S
C1528 H1504 0.950 . S
C1528 C1523 1.363 . S
C1528 C1527 1.415 . S
C1529 H1505 0.951 . S
C1529 C1530 1.366 . S
C1529 C1531 1.388 . S
C1530 C1529 1.366 . S
C1530 C1534 1.385 . S
C1531 H1506 0.951 . S
C1531 C1529 1.388 . S
C1531 C1532 1.366 . S
C1532 C1531 1.366 . S
C1532 C1533 1.414 . S
C1532 C1535 1.499 . S
C1533 H1507 0.950 . S
C1533 C1532 1.414 . S
C1533 C1534 1.374 . S
C1534 H1508 0.950 . S
C1534 C1530 1.385 . S
C1534 C1533 1.374 . S
C1535 C1532 1.499 . S
C1535 C1536 1.365 1_556 S
C1535 C1537 1.389 . S
C1536 H1509 0.950 . S
C1536 C1522 1.385 . S
C1536 C1535 1.365 1_554 S
C1537 C1521 1.385 . S
C1537 C1535 1.389 . S
C1537 C1538 1.524 . S
C1538 C1537 1.524 . S
C1538 C1539 1.397 . S
C1538 C1543 1.363 . S
C1539 H1510 0.950 . S
C1539 C1538 1.397 . S
C1539 C1540 1.334 . S
C1540 H1511 0.950 . S
C1540 C1539 1.334 . S
C1540 C1541 1.287 . S
C1541 C1540 1.287 . S
C1541 C1542 1.524 . S
C1541 H1544 0.999 . S
C1542 H1512 0.950 . S
C1542 C1541 1.524 . S
C1542 C1543 1.415 . S
C1543 H1513 0.950 . S
C1543 C1538 1.363 . S
C1543 C1542 1.415 . S
H1544 C1541 0.999 . S
H1545 C1526 0.913 . S
H1546 C1564 0.951 . S
H1547 C1566 0.951 . S
H1548 C1568 0.950 . S
H1549 C1569 0.950 . S
H1550 C1571 0.950 . S
H1551 C1574 0.950 . S
H1552 C1575 0.950 . S
H1553 C1577 0.950 . S
H1554 C1578 0.950 1_455 S
H1555 C1579 0.951 . S
H1556 C1581 0.951 . S
H1557 C1583 0.950 . S
H1558 C1584 0.950 . S
H1559 C1586 0.950 . S
H1560 C1589 0.950 . S
H1561 C1590 0.950 . S
H1562 C1592 0.950 . S
H1563 C1593 0.950 1_655 S
C1564 H1546 0.951 . S
C1564 C1565 1.366 . S
C1564 C1566 1.388 . S
C1565 C1564 1.366 . S
C1565 C1569 1.385 . S
C1566 H1547 0.951 . S
C1566 C1564 1.388 . S
C1566 C1567 1.366 . S
C1567 C1566 1.366 . S
C1567 C1568 1.414 . S
C1567 C1570 1.499 . S
C1568 H1548 0.950 . S
C1568 C1567 1.414 . S
C1568 C1569 1.374 . S
C1569 H1549 0.950 . S
C1569 C1565 1.385 . S
C1569 C1568 1.374 . S
C1570 C1567 1.499 . S
C1570 C1571 1.373 . S
C1570 C1572 1.389 . S
C1571 H1550 0.950 . S
C1571 C1570 1.373 . S
C1571 C1587 1.377 1_655 S
C1572 C1570 1.389 . S
C1572 C1573 1.524 . S
C1572 C1586 1.377 1_655 S
C1573 C1572 1.524 . S
C1573 C1574 1.397 . S
C1573 C1578 1.363 . S
C1574 H1551 0.950 . S
C1574 C1573 1.397 . S
C1574 C1575 1.334 . S
C1575 H1552 0.950 . S
C1575 C1574 1.334 . S
C1575 C1576 1.287 . S
C1576 C1575 1.287 . S
C1576 C1577 1.524 . S
C1576 H1595 0.913 . S
C1577 H1553 0.950 . S
C1577 C1576 1.524 . S
C1577 C1578 1.415 . S
C1578 H1554 0.950 1_655 S
C1578 C1573 1.363 . S
C1578 C1577 1.415 . S
C1579 H1555 0.951 . S
C1579 C1580 1.366 . S
C1579 C1581 1.388 . S
C1580 C1579 1.366 . S
C1580 C1584 1.385 . S
C1581 H1556 0.951 . S
C1581 C1579 1.388 . S
C1581 C1582 1.366 . S
C1582 C1581 1.366 . S
C1582 C1583 1.414 . S
C1582 C1585 1.499 . S
C1583 H1557 0.950 . S
C1583 C1582 1.414 . S
C1583 C1584 1.374 . S
C1584 H1558 0.950 . S
C1584 C1580 1.385 . S
C1584 C1583 1.374 . S
C1585 C1582 1.499 . S
C1585 C1586 1.373 . S
C1585 C1587 1.389 . S
C1586 H1559 0.950 . S
C1586 C1572 1.377 1_455 S
C1586 C1585 1.373 . S
C1587 C1571 1.377 1_455 S
C1587 C1585 1.389 . S
C1587 C1588 1.524 . S
C1588 C1587 1.524 . S
C1588 C1589 1.397 . S
C1588 C1593 1.363 . S
C1589 H1560 0.950 . S
C1589 C1588 1.397 . S
C1589 C1590 1.334 . S
C1590 H1561 0.950 . S
C1590 C1589 1.334 . S
C1590 C1591 1.287 . S
C1591 C1590 1.287 . S
C1591 C1592 1.524 . S
C1591 H1594 0.999 . S
C1592 H1562 0.950 . S
C1592 C1591 1.524 . S
C1592 C1593 1.415 . S
C1593 H1563 0.950 1_455 S
C1593 C1588 1.363 . S
C1593 C1592 1.415 . S
H1594 C1591 0.999 . S
H1595 C1576 0.913 . S
H1596 C1614 0.951 . S
H1597 C1616 0.951 . S
H1598 C1618 0.950 . S
H1599 C1619 0.950 . S
H1600 C1621 0.950 . S
H1601 C1624 0.950 . S
H1602 C1625 0.950 . S
H1603 C1627 0.950 . S
H1604 C1628 0.950 . S
H1605 C1629 0.951 . S
H1606 C1631 0.951 . S
H1607 C1633 0.950 . S
H1608 C1634 0.950 . S
H1609 C1636 0.950 . S
H1610 C1639 0.950 . S
H1611 C1640 0.950 . S
H1612 C1642 0.950 . S
H1613 C1643 0.950 . S
C1614 H1596 0.951 . S
C1614 C1615 1.366 . S
C1614 C1616 1.388 . S
C1615 C1614 1.366 . S
C1615 C1619 1.385 . S
C1616 H1597 0.951 . S
C1616 C1614 1.388 . S
C1616 C1617 1.366 . S
C1617 C1616 1.366 . S
C1617 C1618 1.414 . S
C1617 C1620 1.499 . S
C1618 H1598 0.950 . S
C1618 C1617 1.414 . S
C1618 C1619 1.374 . S
C1619 H1599 0.950 . S
C1619 C1615 1.385 . S
C1619 C1618 1.374 . S
C1620 C1617 1.499 . S
C1620 C1621 1.373 1_554 S
C1620 C1622 1.389 1_545 S
C1621 H1600 0.950 . S
C1621 C1620 1.373 1_556 S
C1621 C1637 1.377 . S
C1622 C1620 1.389 1_565 S
C1622 C1623 1.524 . S
C1622 C1636 1.377 . S
C1623 C1622 1.524 . S
C1623 C1624 1.397 1_565 S
C1623 C1628 1.363 . S
C1624 H1601 0.950 . S
C1624 C1623 1.397 1_545 S
C1624 C1625 1.334 . S
C1625 H1602 0.950 . S
C1625 C1624 1.334 . S
C1625 C1626 1.287 1_545 S
C1626 C1625 1.287 1_565 S
C1626 C1627 1.524 . S
C1626 H1645 0.913 . S
C1627 H1603 0.950 . S
C1627 C1626 1.524 . S
C1627 C1628 1.415 . S
C1628 H1604 0.950 . S
C1628 C1623 1.363 . S
C1628 C1627 1.415 . S
C1629 H1605 0.951 . S
C1629 C1630 1.366 . S
C1629 C1631 1.388 . S
C1630 C1629 1.366 . S
C1630 C1634 1.385 . S
C1631 H1606 0.951 . S
C1631 C1629 1.388 . S
C1631 C1632 1.366 . S
C1632 C1631 1.366 . S
C1632 C1633 1.414 . S
C1632 C1635 1.499 . S
C1633 H1607 0.950 . S
C1633 C1632 1.414 . S
C1633 C1634 1.374 . S
C1634 H1608 0.950 . S
C1634 C1630 1.385 . S
C1634 C1633 1.374 . S
C1635 C1632 1.499 . S
C1635 C1636 1.373 1_556 S
C1635 C1637 1.389 1_565 S
C1636 H1609 0.950 . S
C1636 C1622 1.377 . S
C1636 C1635 1.373 1_554 S
C1637 C1621 1.377 . S
C1637 C1635 1.389 1_545 S
C1637 C1638 1.524 . S
C1638 C1637 1.524 . S
C1638 C1639 1.397 1_545 S
C1638 C1643 1.363 . S
C1639 H1610 0.950 . S
C1639 C1638 1.397 1_565 S
C1639 C1640 1.334 . S
C1640 H1611 0.950 . S
C1640 C1639 1.334 . S
C1640 C1641 1.287 1_565 S
C1641 C1640 1.287 1_545 S
C1641 C1642 1.524 . S
C1641 H1644 0.999 . S
C1642 H1612 0.950 . S
C1642 C1641 1.524 . S
C1642 C1643 1.415 . S
C1643 H1613 0.950 . S
C1643 C1638 1.363 . S
C1643 C1642 1.415 . S
H1644 C1641 0.999 . S
H1645 C1626 0.913 . S
H1646 C1664 0.951 . S
H1647 C1666 0.951 . S
H1648 C1668 0.950 . S
H1649 C1669 0.950 . S
H1650 C1671 0.950 . S
H1651 C1674 0.950 . S
H1652 C1675 0.950 . S
H1653 C1677 0.950 . S
H1654 C1678 0.950 . S
H1655 C1679 0.951 . S
H1656 C1681 0.951 . S
H1657 C1683 0.950 . S
H1658 C1684 0.950 . S
H1659 C1686 0.950 . S
H1660 C1689 0.950 . S
H1661 C1690 0.950 . S
H1662 C1692 0.950 . S
H1663 C1693 0.950 . S
C1664 H1646 0.951 . S
C1664 C1665 1.366 . S
C1664 C1666 1.388 . S
C1665 C1664 1.366 . S
C1665 C1669 1.385 . S
C1666 H1647 0.951 . S
C1666 C1664 1.388 . S
C1666 C1667 1.366 . S
C1667 C1666 1.366 . S
C1667 C1668 1.414 . S
C1667 C1670 1.499 . S
C1668 H1648 0.950 . S
C1668 C1667 1.414 . S
C1668 C1669 1.374 . S
C1669 H1649 0.950 . S
C1669 C1665 1.385 . S
C1669 C1668 1.374 . S
C1670 C1667 1.499 . S
C1670 C1671 1.373 . S
C1670 C1672 1.389 . S
C1671 H1650 0.950 . S
C1671 C1670 1.373 . S
C1671 C1687 1.377 . S
C1672 C1670 1.389 . S
C1672 C1673 1.524 . S
C1672 C1686 1.377 . S
C1673 C1672 1.524 . S
C1673 C1674 1.397 . S
C1673 C1678 1.363 . S
C1674 H1651 0.950 . S
C1674 C1673 1.397 . S
C1674 C1675 1.334 . S
C1675 H1652 0.950 . S
C1675 C1674 1.334 . S
C1675 C1676 1.287 . S
C1676 C1675 1.287 . S
C1676 C1677 1.524 . S
C1676 H1695 0.913 . S
C1677 H1653 0.950 . S
C1677 C1676 1.524 . S
C1677 C1678 1.415 . S
C1678 H1654 0.950 . S
C1678 C1673 1.363 . S
C1678 C1677 1.415 . S
C1679 H1655 0.951 . S
C1679 C1680 1.366 . S
C1679 C1681 1.388 . S
C1680 C1679 1.366 . S
C1680 C1684 1.385 . S
C1681 H1656 0.951 . S
C1681 C1679 1.388 . S
C1681 C1682 1.366 . S
C1682 C1681 1.366 . S
C1682 C1683 1.414 . S
C1682 C1685 1.499 . S
C1683 H1657 0.950 . S
C1683 C1682 1.414 . S
C1683 C1684 1.374 . S
C1684 H1658 0.950 . S
C1684 C1680 1.385 . S
C1684 C1683 1.374 . S
C1685 C1682 1.499 . S
C1685 C1686 1.373 . S
C1685 C1687 1.389 . S
C1686 H1659 0.950 . S
C1686 C1672 1.377 . S
C1686 C1685 1.373 . S
C1687 C1671 1.377 . S
C1687 C1685 1.389 . S
C1687 C1688 1.524 . S
C1688 C1687 1.524 . S
C1688 C1689 1.397 . S
C1688 C1693 1.363 . S
C1689 H1660 0.950 . S
C1689 C1688 1.397 . S
C1689 C1690 1.334 . S
C1690 H1661 0.950 . S
C1690 C1689 1.334 . S
C1690 C1691 1.287 . S
C1691 C1690 1.287 . S
C1691 C1692 1.524 . S
C1691 H1694 0.999 . S
C1692 H1662 0.950 . S
C1692 C1691 1.524 . S
C1692 C1693 1.415 . S
C1693 H1663 0.950 . S
C1693 C1688 1.363 . S
C1693 C1692 1.415 . S
H1694 C1691 0.999 . S
H1695 C1676 0.913 . S
H1696 C1714 0.951 . S
H1697 C1716 0.951 . S
H1698 C1718 0.950 . S
H1699 C1719 0.950 . S
H1700 C1721 0.950 . S
H1701 C1724 0.950 . S
H1702 C1725 0.950 . S
H1703 C1727 0.950 . S
H1704 C1728 0.950 . S
H1705 C1729 0.951 . S
H1706 C1731 0.951 . S
H1707 C1733 0.950 . S
H1708 C1734 0.950 . S
H1709 C1736 0.950 . S
H1710 C1739 0.950 . S
H1711 C1740 0.950 . S
H1712 C1742 0.950 . S
H1713 C1743 0.950 . S
C1714 H1696 0.951 . S
C1714 C1715 1.366 . S
C1714 C1716 1.388 . S
C1715 C1714 1.366 . S
C1715 C1719 1.385 . S
C1716 H1697 0.951 . S
C1716 C1714 1.388 . S
C1716 C1717 1.366 . S
C1717 C1716 1.366 . S
C1717 C1718 1.414 . S
C1717 C1720 1.499 . S
C1718 H1698 0.950 . S
C1718 C1717 1.414 . S
C1718 C1719 1.374 . S
C1719 H1699 0.950 . S
C1719 C1715 1.385 . S
C1719 C1718 1.374 . S
C1720 C1717 1.499 . S
C1720 C1721 1.373 . S
C1720 C1722 1.389 1_554 S
C1721 H1700 0.950 . S
C1721 C1720 1.373 . S
C1721 C1737 1.377 1_655 S
C1722 C1720 1.389 1_556 S
C1722 C1723 1.524 . S
C1722 C1736 1.377 1_655 S
C1723 C1722 1.524 . S
C1723 C1724 1.397 . S
C1723 C1728 1.363 . S
C1724 H1701 0.950 . S
C1724 C1723 1.397 . S
C1724 C1725 1.334 . S
C1725 H1702 0.950 . S
C1725 C1724 1.334 . S
C1725 C1726 1.287 . S
C1726 C1725 1.287 . S
C1726 C1727 1.524 . S
C1726 H1745 0.913 . S
C1727 H1703 0.950 . S
C1727 C1726 1.524 . S
C1727 C1728 1.415 . S
C1728 H1704 0.950 . S
C1728 C1723 1.363 . S
C1728 C1727 1.415 . S
C1729 H1705 0.951 . S
C1729 C1730 1.366 . S
C1729 C1731 1.388 . S
C1730 C1729 1.366 . S
C1730 C1734 1.385 . S
C1731 H1706 0.951 . S
C1731 C1729 1.388 . S
C1731 C1732 1.366 . S
C1732 C1731 1.366 . S
C1732 C1733 1.414 . S
C1732 C1735 1.499 . S
C1733 H1707 0.950 . S
C1733 C1732 1.414 . S
C1733 C1734 1.374 . S
C1734 H1708 0.950 . S
C1734 C1730 1.385 . S
C1734 C1733 1.374 . S
C1735 C1732 1.499 . S
C1735 C1736 1.373 . S
C1735 C1737 1.389 1_556 S
C1736 H1709 0.950 . S
C1736 C1722 1.377 1_455 S
C1736 C1735 1.373 . S
C1737 C1721 1.377 1_455 S
C1737 C1735 1.389 1_554 S
C1737 C1738 1.524 . S
C1738 C1737 1.524 . S
C1738 C1739 1.397 . S
C1738 C1743 1.363 . S
C1739 H1710 0.950 . S
C1739 C1738 1.397 . S
C1739 C1740 1.334 . S
C1740 H1711 0.950 . S
C1740 C1739 1.334 . S
C1740 C1741 1.287 . S
C1741 C1740 1.287 . S
C1741 C1742 1.524 . S
C1741 H1744 0.999 . S
C1742 H1712 0.950 . S
C1742 C1741 1.524 . S
C1742 C1743 1.415 . S
C1743 H1713 0.950 . S
C1743 C1738 1.363 . S
C1743 C1742 1.415 . S
H1744 C1741 0.999 . S
H1745 C1726 0.913 . S
H1746 C1764 0.951 . S
H1747 C1766 0.951 . S
H1748 C1768 0.950 . S
H1749 C1769 0.950 . S
H1750 C1771 0.950 . S
H1751 C1774 0.950 . S
H1752 C1775 0.950 . S
H1753 C1777 0.950 . S
H1754 C1778 0.977 . S
H1755 C1779 0.951 . S
H1756 C1781 0.951 . S
H1757 C1783 0.950 . S
H1758 C1784 0.950 . S
H1759 C1786 0.950 . S
H1760 C1789 0.950 . S
H1761 C1790 0.950 . S
H1762 C1792 0.950 . S
H1763 C1793 0.977 . S
C1764 H1746 0.951 . S
C1764 C1765 1.366 . S
C1764 C1766 1.388 . S
C1765 C1764 1.366 . S
C1765 C1769 1.385 . S
C1766 H1747 0.951 . S
C1766 C1764 1.388 . S
C1766 C1767 1.366 . S
C1767 C1766 1.366 . S
C1767 C1768 1.414 . S
C1767 C1770 1.499 . S
C1768 H1748 0.950 . S
C1768 C1767 1.414 . S
C1768 C1769 1.374 . S
C1769 H1749 0.950 . S
C1769 C1765 1.385 . S
C1769 C1768 1.374 . S
C1770 C1767 1.499 . S
C1770 C1771 1.373 . S
C1770 C1772 1.389 . S
C1771 H1750 0.950 . S
C1771 C1770 1.373 . S
C1771 C1787 1.377 1_565 S
C1772 C1770 1.389 . S
C1772 C1773 1.524 . S
C1772 C1786 1.377 1_565 S
C1773 C1772 1.524 . S
C1773 C1774 1.397 . S
C1773 C1778 1.363 . S
C1774 H1751 0.950 . S
C1774 C1773 1.397 . S
C1774 C1775 1.334 . S
C1775 H1752 0.950 . S
C1775 C1774 1.334 . S
C1775 C1776 1.287 . S
C1776 C1775 1.287 . S
C1776 C1777 1.524 . S
C1776 H1795 0.913 . S
C1777 H1753 0.950 . S
C1777 C1776 1.524 . S
C1777 C1778 1.415 . S
C1778 H1754 0.977 . S
C1778 C1773 1.363 . S
C1778 C1777 1.415 . S
C1779 H1755 0.951 . S
C1779 C1780 1.366 . S
C1779 C1781 1.388 . S
C1780 C1779 1.366 . S
C1780 C1784 1.385 . S
C1781 H1756 0.951 . S
C1781 C1779 1.388 . S
C1781 C1782 1.366 . S
C1782 C1781 1.366 . S
C1782 C1783 1.414 . S
C1782 C1785 1.499 . S
C1783 H1757 0.950 . S
C1783 C1782 1.414 . S
C1783 C1784 1.374 . S
C1784 H1758 0.950 . S
C1784 C1780 1.385 . S
C1784 C1783 1.374 . S
C1785 C1782 1.499 . S
C1785 C1786 1.373 . S
C1785 C1787 1.389 . S
C1786 H1759 0.950 . S
C1786 C1772 1.377 1_545 S
C1786 C1785 1.373 . S
C1787 C1771 1.377 1_545 S
C1787 C1785 1.389 . S
C1787 C1788 1.524 . S
C1788 C1787 1.524 . S
C1788 C1789 1.397 . S
C1788 C1793 1.363 . S
C1789 H1760 0.950 . S
C1789 C1788 1.397 . S
C1789 C1790 1.334 . S
C1790 H1761 0.950 . S
C1790 C1789 1.334 . S
C1790 C1791 1.287 . S
C1791 C1790 1.287 . S
C1791 C1792 1.524 . S
C1791 H1794 0.999 . S
C1792 H1762 0.950 . S
C1792 C1791 1.524 . S
C1792 C1793 1.415 . S
C1793 H1763 0.977 . S
C1793 C1788 1.363 . S
C1793 C1792 1.415 . S
H1794 C1791 0.999 . S
H1795 C1776 0.913 . S
H1796 C1814 0.951 . S
H1797 C1816 0.951 . S
H1798 C1818 0.950 . S
H1799 C1819 0.950 . S
H1800 C1821 0.950 . S
H1801 C1824 0.950 . S
H1802 C1825 0.950 . S
H1803 C1827 0.950 . S
H1804 C1828 0.950 . S
H1805 C1829 0.951 . S
H1806 C1831 0.951 . S
H1807 C1833 0.950 . S
H1808 C1834 0.950 . S
H1809 C1836 0.950 . S
H1810 C1839 0.950 . S
H1811 C1840 0.950 . S
H1812 C1842 0.950 . S
H1813 C1843 0.950 . S
C1814 H1796 0.951 . S
C1814 C1815 1.366 . S
C1814 C1816 1.388 . S
C1815 C1814 1.366 . S
C1815 C1819 1.385 . S
C1816 H1797 0.951 . S
C1816 C1814 1.388 . S
C1816 C1817 1.366 . S
C1817 C1816 1.366 . S
C1817 C1818 1.414 . S
C1817 C1820 1.499 . S
C1818 H1798 0.950 . S
C1818 C1817 1.414 . S
C1818 C1819 1.374 . S
C1819 H1799 0.950 . S
C1819 C1815 1.385 . S
C1819 C1818 1.374 . S
C1820 C1817 1.499 . S
C1820 C1821 1.373 1_556 S
C1820 C1822 1.389 . S
C1821 H1800 0.950 . S
C1821 C1820 1.373 1_554 S
C1821 C1837 1.377 . S
C1822 C1820 1.389 . S
C1822 C1823 1.524 . S
C1822 C1836 1.377 . S
C1823 C1822 1.524 . S
C1823 C1824 1.397 . S
C1823 C1828 1.363 . S
C1824 H1801 0.950 . S
C1824 C1823 1.397 . S
C1824 C1825 1.334 . S
C1825 H1802 0.950 . S
C1825 C1824 1.334 . S
C1825 C1826 1.287 . S
C1826 C1825 1.287 . S
C1826 C1827 1.524 . S
C1826 H1845 0.913 . S
C1827 H1803 0.950 . S
C1827 C1826 1.524 . S
C1827 C1828 1.415 . S
C1828 H1804 0.950 . S
C1828 C1823 1.363 . S
C1828 C1827 1.415 . S
C1829 H1805 0.951 . S
C1829 C1830 1.366 . S
C1829 C1831 1.388 . S
C1830 C1829 1.366 . S
C1830 C1834 1.385 . S
C1831 H1806 0.951 . S
C1831 C1829 1.388 . S
C1831 C1832 1.366 . S
C1832 C1831 1.366 . S
C1832 C1833 1.414 . S
C1832 C1835 1.499 . S
C1833 H1807 0.950 . S
C1833 C1832 1.414 . S
C1833 C1834 1.374 . S
C1834 H1808 0.950 . S
C1834 C1830 1.385 . S
C1834 C1833 1.374 . S
C1835 C1832 1.499 . S
C1835 C1836 1.373 1_554 S
C1835 C1837 1.389 . S
C1836 H1809 0.950 . S
C1836 C1822 1.377 . S
C1836 C1835 1.373 1_556 S
C1837 C1821 1.377 . S
C1837 C1835 1.389 . S
C1837 C1838 1.524 . S
C1838 C1837 1.524 . S
C1838 C1839 1.397 . S
C1838 C1843 1.363 . S
C1839 H1810 0.950 . S
C1839 C1838 1.397 . S
C1839 C1840 1.334 . S
C1840 H1811 0.950 . S
C1840 C1839 1.334 . S
C1840 C1841 1.287 . S
C1841 C1840 1.287 . S
C1841 C1842 1.524 . S
C1841 H1844 0.999 . S
C1842 H1812 0.950 . S
C1842 C1841 1.524 . S
C1842 C1843 1.415 . S
C1843 H1813 0.950 . S
C1843 C1838 1.363 . S
C1843 C1842 1.415 . S
H1844 C1841 0.999 . S
H1845 C1826 0.913 . S
H1846 C1864 0.951 . S
H1847 C1866 0.951 . S
H1848 C1868 0.950 . S
H1849 C1869 0.950 . S
H1850 C1871 0.950 . S
H1851 C1874 0.950 . S
H1852 C1875 0.950 . S
H1853 C1877 0.950 . S
H1854 C1878 0.950 . S
H1855 C1879 0.951 . S
H1856 C1881 0.951 . S
H1857 C1883 0.950 . S
H1858 C1884 0.950 . S
H1859 C1886 0.950 . S
H1860 C1889 0.950 . S
H1861 C1890 0.950 . S
H1862 C1892 0.950 . S
H1863 C1893 0.950 . S
C1864 H1846 0.951 . S
C1864 C1865 1.366 . S
C1864 C1866 1.388 . S
C1865 C1864 1.366 . S
C1865 C1869 1.385 . S
C1866 H1847 0.951 . S
C1866 C1864 1.388 . S
C1866 C1867 1.366 . S
C1867 C1866 1.366 . S
C1867 C1868 1.414 . S
C1867 C1870 1.499 . S
C1868 H1848 0.950 . S
C1868 C1867 1.414 . S
C1868 C1869 1.374 . S
C1869 H1849 0.950 . S
C1869 C1865 1.385 . S
C1869 C1868 1.374 . S
C1870 C1867 1.499 . S
C1870 C1871 1.373 . S
C1870 C1872 1.389 . S
C1871 H1850 0.950 . S
C1871 C1870 1.373 . S
C1871 C1887 1.377 1_455 S
C1872 C1870 1.389 . S
C1872 C1873 1.524 . S
C1872 C1886 1.377 1_455 S
C1873 C1872 1.524 . S
C1873 C1874 1.397 . S
C1873 C1878 1.363 . S
C1874 H1851 0.950 . S
C1874 C1873 1.397 . S
C1874 C1875 1.334 . S
C1875 H1852 0.950 . S
C1875 C1874 1.334 . S
C1875 C1876 1.287 . S
C1876 C1875 1.287 . S
C1876 C1877 1.524 . S
C1876 H1895 0.913 . S
C1877 H1853 0.950 . S
C1877 C1876 1.524 . S
C1877 C1878 1.415 . S
C1878 H1854 0.950 . S
C1878 C1873 1.363 . S
C1878 C1877 1.415 . S
C1879 H1855 0.951 . S
C1879 C1880 1.366 . S
C1879 C1881 1.388 . S
C1880 C1879 1.366 . S
C1880 C1884 1.385 . S
C1881 H1856 0.951 . S
C1881 C1879 1.388 . S
C1881 C1882 1.366 . S
C1882 C1881 1.366 . S
C1882 C1883 1.414 . S
C1882 C1885 1.499 . S
C1883 H1857 0.950 . S
C1883 C1882 1.414 . S
C1883 C1884 1.374 . S
C1884 H1858 0.950 . S
C1884 C1880 1.385 . S
C1884 C1883 1.374 . S
C1885 C1882 1.499 . S
C1885 C1886 1.373 . S
C1885 C1887 1.389 . S
C1886 H1859 0.950 . S
C1886 C1872 1.377 1_655 S
C1886 C1885 1.373 . S
C1887 C1871 1.377 1_655 S
C1887 C1885 1.389 . S
C1887 C1888 1.524 . S
C1888 C1887 1.524 . S
C1888 C1889 1.397 . S
C1888 C1893 1.363 . S
C1889 H1860 0.950 . S
C1889 C1888 1.397 . S
C1889 C1890 1.334 . S
C1890 H1861 0.950 . S
C1890 C1889 1.334 . S
C1890 C1891 1.287 . S
C1891 C1890 1.287 . S
C1891 C1892 1.524 . S
C1891 H1894 0.999 . S
C1892 H1862 0.950 . S
C1892 C1891 1.524 . S
C1892 C1893 1.415 . S
C1893 H1863 0.950 . S
C1893 C1888 1.363 . S
C1893 C1892 1.415 . S
H1894 C1891 0.999 . S
H1895 C1876 0.913 . S
C415 C74 1.507 . S
C430 N14 1.538 . S
C465 N47 1.538 . S
C480 C107 1.506 . S
C515 N80 1.538 . S
C530 C140 1.506 . S
C565 N113 1.538 . S
C580 C173 1.507 . S
C615 N146 1.538 . S
C630 C8 1.507 . S
C665 C41 1.507 . S
C680 N179 1.538 . S
C715 N212 1.538 . S
C730 C338 1.507 . S
C765 N245 1.538 . S
C780 C371 1.507 . S
C815 C206 1.507 . S
C830 N278 1.538 . S
C865 C239 1.507 . S
C880 N311 1.538 . S
C915 C272 1.506 . S
C930 N344 1.538 . S
C965 C305 1.507 . S
C980 N377 1.538 . S
C1015 C281 1.199 . S
C1030 C17 1.199 . S
C1065 C50 1.199 . S
C1080 C314 1.199 . S
C1115 C347 1.199 . S
C1130 C83 1.199 . S
C1165 C380 1.199 . S
C1180 C116 1.199 . S
C1215 C149 1.199 . S
C1230 C215 1.200 . S
C1265 C248 1.199 . S
C1280 C182 1.200 . S
C1315 C259 1.208 . S
C1330 C28 1.207 . S
C1365 C61 1.207 . S
C1380 C292 1.207 . S
C1415 C94 1.208 . S
C1430 C325 1.208 . S
C1465 C127 1.208 . S
C1480 C358 1.208 . S
C1515 C160 1.207 . S
C1530 C391 1.208 . S
C1565 C226 1.208 . S
C1580 C193 1.207 . S
C1615 N71 1.485 . S
C1630 N368 1.486 . S
C1665 N203 1.486 . S
C1680 N104 1.486 . S
C1715 N137 1.486 . S
C1730 N236 1.487 . S
C1765 N170 1.485 . S
C1780 N269 1.487 . S
C1815 N302 1.485 . S
C1830 N5 1.486 . S
C1865 N38 1.486 . S
C1880 N335 1.487 . S
