# Generated by pormake.
# Topology wna, (6)-cn, num edge types: 1
# Building blocks:
#     Node 0, Type 0, BuildingBlock: INOVEN_clean_sbu_0, # of connection points: 6
#     Node 1, Type 0, BuildingBlock: INOVEN_clean_sbu_0, # of connection points: 6
#     Node 2, Type 0, BuildingBlock: INOVEN_clean_sbu_0, # of connection points: 6
#     Node 3, Type 0, BuildingBlock: INOVEN_clean_sbu_0, # of connection points: 6
#     Node 4, Type 0, BuildingBlock: INOVEN_clean_sbu_0, # of connection points: 6
#     Node 5, Type 0, BuildingBlock: INOVEN_clean_sbu_0, # of connection points: 6
#     Node 6, Type 0, BuildingBlock: INOVEN_clean_sbu_0, # of connection points: 6
#     Node 7, Type 0, BuildingBlock: INOVEN_clean_sbu_0, # of connection points: 6
#     Node 8, Type 0, BuildingBlock: INOVEN_clean_sbu_0, # of connection points: 6
#     Node 9, Type 0, BuildingBlock: INOVEN_clean_sbu_0, # of connection points: 6
#     Node 10, Type 0, BuildingBlock: INOVEN_clean_sbu_0, # of connection points: 6
#     Node 11, Type 0, BuildingBlock: INOVEN_clean_sbu_0, # of connection points: 6
#     Node 12, Type 0, BuildingBlock: INOVEN_clean_sbu_0, # of connection points: 6
#     Node 13, Type 0, BuildingBlock: INOVEN_clean_sbu_0, # of connection points: 6
#     Node 14, Type 0, BuildingBlock: INOVEN_clean_sbu_0, # of connection points: 6
#     Node 15, Type 0, BuildingBlock: INOVEN_clean_sbu_0, # of connection points: 6
#     Node 16, Type 0, BuildingBlock: INOVEN_clean_sbu_0, # of connection points: 6
#     Node 17, Type 0, BuildingBlock: INOVEN_clean_sbu_0, # of connection points: 6
#     Node 18, Type 0, BuildingBlock: INOVEN_clean_sbu_0, # of connection points: 6
#     Node 19, Type 0, BuildingBlock: INOVEN_clean_sbu_0, # of connection points: 6
#     Node 20, Type 0, BuildingBlock: INOVEN_clean_sbu_0, # of connection points: 6
#     Node 21, Type 0, BuildingBlock: INOVEN_clean_sbu_0, # of connection points: 6
#     Node 22, Type 0, BuildingBlock: INOVEN_clean_sbu_0, # of connection points: 6
#     Node 23, Type 0, BuildingBlock: INOVEN_clean_sbu_0, # of connection points: 6
#     Node 24, Type 0, BuildingBlock: INOVEN_clean_sbu_0, # of connection points: 6
#     Node 25, Type 0, BuildingBlock: INOVEN_clean_sbu_0, # of connection points: 6
#     Node 26, Type 0, BuildingBlock: INOVEN_clean_sbu_0, # of connection points: 6
#     Node 27, Type 0, BuildingBlock: INOVEN_clean_sbu_0, # of connection points: 6
#     Node 28, Type 0, BuildingBlock: INOVEN_clean_sbu_0, # of connection points: 6
#     Node 29, Type 0, BuildingBlock: INOVEN_clean_sbu_0, # of connection points: 6
#     Node 30, Type 0, BuildingBlock: INOVEN_clean_sbu_0, # of connection points: 6
#     Node 31, Type 0, BuildingBlock: INOVEN_clean_sbu_0, # of connection points: 6
#     Node 32, Type 0, BuildingBlock: INOVEN_clean_sbu_0, # of connection points: 6
#     Node 33, Type 0, BuildingBlock: INOVEN_clean_sbu_0, # of connection points: 6
#     Node 34, Type 0, BuildingBlock: INOVEN_clean_sbu_0, # of connection points: 6
#     Node 35, Type 0, BuildingBlock: INOVEN_clean_sbu_0, # of connection points: 6
#     Edge 36, Type (0, 0), BuildingBlock: XIVTED_clean_linker_0, # of connection points: 2
#     Edge 37, Type (0, 0), BuildingBlock: XIVTED_clean_linker_0, # of connection points: 2
#     Edge 38, Type (0, 0), BuildingBlock: XIVTED_clean_linker_0, # of connection points: 2
#     Edge 39, Type (0, 0), BuildingBlock: XIVTED_clean_linker_0, # of connection points: 2
#     Edge 40, Type (0, 0), BuildingBlock: XIVTED_clean_linker_0, # of connection points: 2
#     Edge 41, Type (0, 0), BuildingBlock: XIVTED_clean_linker_0, # of connection points: 2
#     Edge 42, Type (0, 0), BuildingBlock: XIVTED_clean_linker_0, # of connection points: 2
#     Edge 43, Type (0, 0), BuildingBlock: XIVTED_clean_linker_0, # of connection points: 2
#     Edge 44, Type (0, 0), BuildingBlock: XIVTED_clean_linker_0, # of connection points: 2
#     Edge 45, Type (0, 0), BuildingBlock: XIVTED_clean_linker_0, # of connection points: 2
#     Edge 46, Type (0, 0), BuildingBlock: XIVTED_clean_linker_0, # of connection points: 2
#     Edge 47, Type (0, 0), BuildingBlock: XIVTED_clean_linker_0, # of connection points: 2
#     Edge 48, Type (0, 0), BuildingBlock: XIVTED_clean_linker_0, # of connection points: 2
#     Edge 49, Type (0, 0), BuildingBlock: XIVTED_clean_linker_0, # of connection points: 2
#     Edge 50, Type (0, 0), BuildingBlock: XIVTED_clean_linker_0, # of connection points: 2
#     Edge 51, Type (0, 0), BuildingBlock: XIVTED_clean_linker_0, # of connection points: 2
#     Edge 52, Type (0, 0), BuildingBlock: XIVTED_clean_linker_0, # of connection points: 2
#     Edge 53, Type (0, 0), BuildingBlock: XIVTED_clean_linker_0, # of connection points: 2
#     Edge 54, Type (0, 0), BuildingBlock: XIVTED_clean_linker_0, # of connection points: 2
#     Edge 55, Type (0, 0), BuildingBlock: XIVTED_clean_linker_0, # of connection points: 2
#     Edge 56, Type (0, 0), BuildingBlock: XIVTED_clean_linker_0, # of connection points: 2
#     Edge 57, Type (0, 0), BuildingBlock: XIVTED_clean_linker_0, # of connection points: 2
#     Edge 58, Type (0, 0), BuildingBlock: XIVTED_clean_linker_0, # of connection points: 2
#     Edge 59, Type (0, 0), BuildingBlock: XIVTED_clean_linker_0, # of connection points: 2
#     Edge 60, Type (0, 0), BuildingBlock: XIVTED_clean_linker_0, # of connection points: 2
#     Edge 61, Type (0, 0), BuildingBlock: XIVTED_clean_linker_0, # of connection points: 2
#     Edge 62, Type (0, 0), BuildingBlock: XIVTED_clean_linker_0, # of connection points: 2
#     Edge 63, Type (0, 0), BuildingBlock: XIVTED_clean_linker_0, # of connection points: 2
#     Edge 64, Type (0, 0), BuildingBlock: XIVTED_clean_linker_0, # of connection points: 2
#     Edge 65, Type (0, 0), BuildingBlock: XIVTED_clean_linker_0, # of connection points: 2
#     Edge 66, Type (0, 0), BuildingBlock: XIVTED_clean_linker_0, # of connection points: 2
#     Edge 67, Type (0, 0), BuildingBlock: XIVTED_clean_linker_0, # of connection points: 2
#     Edge 68, Type (0, 0), BuildingBlock: XIVTED_clean_linker_0, # of connection points: 2
#     Edge 69, Type (0, 0), BuildingBlock: XIVTED_clean_linker_0, # of connection points: 2
#     Edge 70, Type (0, 0), BuildingBlock: XIVTED_clean_linker_0, # of connection points: 2
#     Edge 71, Type (0, 0), BuildingBlock: XIVTED_clean_linker_0, # of connection points: 2
#     Edge 72, Type (0, 0), BuildingBlock: XIVTED_clean_linker_0, # of connection points: 2
#     Edge 73, Type (0, 0), BuildingBlock: XIVTED_clean_linker_0, # of connection points: 2
#     Edge 74, Type (0, 0), BuildingBlock: XIVTED_clean_linker_0, # of connection points: 2
#     Edge 75, Type (0, 0), BuildingBlock: XIVTED_clean_linker_0, # of connection points: 2
#     Edge 76, Type (0, 0), BuildingBlock: XIVTED_clean_linker_0, # of connection points: 2
#     Edge 77, Type (0, 0), BuildingBlock: XIVTED_clean_linker_0, # of connection points: 2
#     Edge 78, Type (0, 0), BuildingBlock: XIVTED_clean_linker_0, # of connection points: 2
#     Edge 79, Type (0, 0), BuildingBlock: XIVTED_clean_linker_0, # of connection points: 2
#     Edge 80, Type (0, 0), BuildingBlock: XIVTED_clean_linker_0, # of connection points: 2
#     Edge 81, Type (0, 0), BuildingBlock: XIVTED_clean_linker_0, # of connection points: 2
#     Edge 82, Type (0, 0), BuildingBlock: XIVTED_clean_linker_0, # of connection points: 2
#     Edge 83, Type (0, 0), BuildingBlock: XIVTED_clean_linker_0, # of connection points: 2
#     Edge 84, Type (0, 0), BuildingBlock: XIVTED_clean_linker_0, # of connection points: 2
#     Edge 85, Type (0, 0), BuildingBlock: XIVTED_clean_linker_0, # of connection points: 2
#     Edge 86, Type (0, 0), BuildingBlock: XIVTED_clean_linker_0, # of connection points: 2
#     Edge 87, Type (0, 0), BuildingBlock: XIVTED_clean_linker_0, # of connection points: 2
#     Edge 88, Type (0, 0), BuildingBlock: XIVTED_clean_linker_0, # of connection points: 2
#     Edge 89, Type (0, 0), BuildingBlock: XIVTED_clean_linker_0, # of connection points: 2
#     Edge 90, Type (0, 0), BuildingBlock: XIVTED_clean_linker_0, # of connection points: 2
#     Edge 91, Type (0, 0), BuildingBlock: XIVTED_clean_linker_0, # of connection points: 2
#     Edge 92, Type (0, 0), BuildingBlock: XIVTED_clean_linker_0, # of connection points: 2
#     Edge 93, Type (0, 0), BuildingBlock: XIVTED_clean_linker_0, # of connection points: 2
#     Edge 94, Type (0, 0), BuildingBlock: XIVTED_clean_linker_0, # of connection points: 2
#     Edge 95, Type (0, 0), BuildingBlock: XIVTED_clean_linker_0, # of connection points: 2
#     Edge 96, Type (0, 0), BuildingBlock: XIVTED_clean_linker_0, # of connection points: 2
#     Edge 97, Type (0, 0), BuildingBlock: XIVTED_clean_linker_0, # of connection points: 2
#     Edge 98, Type (0, 0), BuildingBlock: XIVTED_clean_linker_0, # of connection points: 2
#     Edge 99, Type (0, 0), BuildingBlock: XIVTED_clean_linker_0, # of connection points: 2
#     Edge 100, Type (0, 0), BuildingBlock: XIVTED_clean_linker_0, # of connection points: 2
#     Edge 101, Type (0, 0), BuildingBlock: XIVTED_clean_linker_0, # of connection points: 2
#     Edge 102, Type (0, 0), BuildingBlock: XIVTED_clean_linker_0, # of connection points: 2
#     Edge 103, Type (0, 0), BuildingBlock: XIVTED_clean_linker_0, # of connection points: 2
#     Edge 104, Type (0, 0), BuildingBlock: XIVTED_clean_linker_0, # of connection points: 2
#     Edge 105, Type (0, 0), BuildingBlock: XIVTED_clean_linker_0, # of connection points: 2
#     Edge 106, Type (0, 0), BuildingBlock: XIVTED_clean_linker_0, # of connection points: 2
#     Edge 107, Type (0, 0), BuildingBlock: XIVTED_clean_linker_0, # of connection points: 2
#     Edge 108, Type (0, 0), BuildingBlock: XIVTED_clean_linker_0, # of connection points: 2
#     Edge 109, Type (0, 0), BuildingBlock: XIVTED_clean_linker_0, # of connection points: 2
#     Edge 110, Type (0, 0), BuildingBlock: XIVTED_clean_linker_0, # of connection points: 2
#     Edge 111, Type (0, 0), BuildingBlock: XIVTED_clean_linker_0, # of connection points: 2
#     Edge 112, Type (0, 0), BuildingBlock: XIVTED_clean_linker_0, # of connection points: 2
#     Edge 113, Type (0, 0), BuildingBlock: XIVTED_clean_linker_0, # of connection points: 2
#     Edge 114, Type (0, 0), BuildingBlock: XIVTED_clean_linker_0, # of connection points: 2
#     Edge 115, Type (0, 0), BuildingBlock: XIVTED_clean_linker_0, # of connection points: 2
#     Edge 116, Type (0, 0), BuildingBlock: XIVTED_clean_linker_0, # of connection points: 2
#     Edge 117, Type (0, 0), BuildingBlock: XIVTED_clean_linker_0, # of connection points: 2
#     Edge 118, Type (0, 0), BuildingBlock: XIVTED_clean_linker_0, # of connection points: 2
#     Edge 119, Type (0, 0), BuildingBlock: XIVTED_clean_linker_0, # of connection points: 2
#     Edge 120, Type (0, 0), BuildingBlock: XIVTED_clean_linker_0, # of connection points: 2
#     Edge 121, Type (0, 0), BuildingBlock: XIVTED_clean_linker_0, # of connection points: 2
#     Edge 122, Type (0, 0), BuildingBlock: XIVTED_clean_linker_0, # of connection points: 2
#     Edge 123, Type (0, 0), BuildingBlock: XIVTED_clean_linker_0, # of connection points: 2
#     Edge 124, Type (0, 0), BuildingBlock: XIVTED_clean_linker_0, # of connection points: 2
#     Edge 125, Type (0, 0), BuildingBlock: XIVTED_clean_linker_0, # of connection points: 2
#     Edge 126, Type (0, 0), BuildingBlock: XIVTED_clean_linker_0, # of connection points: 2
#     Edge 127, Type (0, 0), BuildingBlock: XIVTED_clean_linker_0, # of connection points: 2
#     Edge 128, Type (0, 0), BuildingBlock: XIVTED_clean_linker_0, # of connection points: 2
#     Edge 129, Type (0, 0), BuildingBlock: XIVTED_clean_linker_0, # of connection points: 2
#     Edge 130, Type (0, 0), BuildingBlock: XIVTED_clean_linker_0, # of connection points: 2
#     Edge 131, Type (0, 0), BuildingBlock: XIVTED_clean_linker_0, # of connection points: 2
#     Edge 132, Type (0, 0), BuildingBlock: XIVTED_clean_linker_0, # of connection points: 2
#     Edge 133, Type (0, 0), BuildingBlock: XIVTED_clean_linker_0, # of connection points: 2
#     Edge 134, Type (0, 0), BuildingBlock: XIVTED_clean_linker_0, # of connection points: 2
#     Edge 135, Type (0, 0), BuildingBlock: XIVTED_clean_linker_0, # of connection points: 2
#     Edge 136, Type (0, 0), BuildingBlock: XIVTED_clean_linker_0, # of connection points: 2
#     Edge 137, Type (0, 0), BuildingBlock: XIVTED_clean_linker_0, # of connection points: 2
#     Edge 138, Type (0, 0), BuildingBlock: XIVTED_clean_linker_0, # of connection points: 2
#     Edge 139, Type (0, 0), BuildingBlock: XIVTED_clean_linker_0, # of connection points: 2
#     Edge 140, Type (0, 0), BuildingBlock: XIVTED_clean_linker_0, # of connection points: 2
#     Edge 141, Type (0, 0), BuildingBlock: XIVTED_clean_linker_0, # of connection points: 2
#     Edge 142, Type (0, 0), BuildingBlock: XIVTED_clean_linker_0, # of connection points: 2
#     Edge 143, Type (0, 0), BuildingBlock: XIVTED_clean_linker_0, # of connection points: 2
# Relax obj value: 0.156
# Max RMSD: 0.228
# Mean RMSD: 0.210
data_MOF--net-wna--node1-INOVEN_clean_sbu_0--edge1-XIVTED_clean_linker_0
_symmetry_space_group_name_H-M    P1
_symmetry_Int_Tables_number       1
_symmetry_cell_setting            triclinic
loop_
_symmetry_equiv_pos_as_xyz
'x, y, z'
_cell_length_a     41.019705
_cell_length_b     41.102046
_cell_length_c     151.46438
_cell_angle_alpha  90.010352
_cell_angle_beta   89.944401
_cell_angle_gamma 120.02784
loop_
_atom_site_label
_atom_site_type_symbol
_atom_site_fract_x
_atom_site_fract_y
_atom_site_fract_z
_atom_type_partial_charge
Gd0 Gd 0.11843 0.25571 0.17198 0.0
Gd1 Gd 0.12529 0.24631 0.19162 0.0
C2 C 0.2013 0.30113 0.18119 0.0
C3 C 0.11365 0.28048 0.15656 0.0
C4 C 0.1311 0.29615 0.14787 0.0
C5 C 0.14477 0.278 0.14238 0.0
C6 C 0.12894 0.3268 0.1445 0.0
C7 C 0.15009 0.31862 0.13002 0.0
C8 C 0.13836 0.33795 0.13569 0.0
C9 C 0.15429 0.28922 0.13355 0.0
C10 C 0.13367 0.20047 0.17578 0.0
C11 C 0.04645 0.19107 0.18181 0.0
C12 C 0.12557 0.22508 0.20776 0.0
C13 C 0.10469 0.21681 0.2162 0.0
C14 C 0.09143 0.23998 0.21954 0.0
C15 C 0.10013 0.18633 0.2213 0.0
C16 C 0.07121 0.20331 0.23319 0.0
C17 C 0.08356 0.1796 0.22968 0.0
C18 C 0.07485 0.23329 0.22795 0.0
C19 C 0.10548 0.29851 0.18721 0.0
O20 O 0.17967 0.30028 0.17458 0.0
O21 O 0.18669 0.27807 0.18799 0.0
O22 O 0.10353 0.24543 0.15821 0.0
O23 O 0.12565 0.30204 0.16357 0.0
O24 O 0.11555 0.20101 0.16882 0.0
O25 O 0.14691 0.23131 0.17987 0.0
O26 O 0.06893 0.19551 0.1885 0.0
O27 O 0.05768 0.21552 0.17524 0.0
O28 O 0.14386 0.26011 0.20516 0.0
O29 O 0.10948 0.20147 0.20124 0.0
O30 O 0.12651 0.30158 0.19387 0.0
O31 O 0.09395 0.26703 0.18366 0.0
H32 H 0.14656 0.25412 0.14477 0.0
H33 H 0.1183 0.34113 0.14857 0.0
H34 H 0.13546 0.36115 0.13326 0.0
H35 H 0.16306 0.27358 0.12938 0.0
H36 H 0.09459 0.26373 0.21575 0.0
H37 H 0.11008 0.16805 0.21886 0.0
H38 H 0.08058 0.15581 0.23342 0.0
H39 H 0.06593 0.2523 0.23044 0.0
Gd40 Gd 0.7678 0.86309 0.17182 0.0
Gd41 Gd 0.78047 0.88318 0.19259 0.0
C42 C 0.72405 0.90253 0.18125 0.0
C43 C 0.74019 0.82979 0.15689 0.0
C44 C 0.72642 0.83198 0.148 0.0
C45 C 0.74434 0.86482 0.14284 0.0
C46 C 0.69755 0.79899 0.1442 0.0
C47 C 0.70683 0.83047 0.13 0.0
C48 C 0.68784 0.7982 0.13532 0.0
C49 C 0.73451 0.8641 0.13393 0.0
C50 C 0.82447 0.93282 0.17562 0.0
C51 C 0.83222 0.85661 0.18233 0.0
C52 C 0.8041 0.91289 0.20799 0.0
C53 C 0.81068 0.90174 0.21682 0.0
C54 C 0.78597 0.86628 0.22046 0.0
C55 C 0.84189 0.9274 0.22178 0.0
C56 C 0.82314 0.8829 0.23404 0.0
C57 C 0.84812 0.91813 0.23027 0.0
C58 C 0.7921 0.857 0.22898 0.0
C59 C 0.7333 0.80757 0.18958 0.0
O60 O 0.72823 0.88608 0.1741 0.0
O61 O 0.74255 0.90617 0.18873 0.0
O62 O 0.77626 0.85116 0.15842 0.0
O63 O 0.71909 0.82576 0.16378 0.0
O64 O 0.82209 0.91503 0.16833 0.0
O65 O 0.79421 0.91492 0.17997 0.0
O66 O 0.83035 0.87768 0.1887 0.0
O67 O 0.80628 0.84139 0.17605 0.0
O68 O 0.76894 0.89819 0.20543 0.0
O69 O 0.82686 0.91506 0.20163 0.0
O70 O 0.74142 0.8224 0.19738 0.0
O71 O 0.75051 0.83397 0.18426 0.0
H72 H 0.76686 0.89064 0.1456 0.0
H73 H 0.68342 0.77329 0.14803 0.0
H74 H 0.66595 0.772 0.13257 0.0
H75 H 0.74982 0.88942 0.13003 0.0
H76 H 0.76169 0.84587 0.21677 0.0
H77 H 0.86145 0.95483 0.2191 0.0
H78 H 0.87272 0.93858 0.23386 0.0
H79 H 0.77202 0.82977 0.23165 0.0
Gd80 Gd 0.16191 0.90814 0.17197 0.0
Gd81 Gd 0.14018 0.9 0.19257 0.0
C82 C 0.12202 0.82483 0.18121 0.0
C83 C 0.19588 0.91414 0.15711 0.0
C84 C 0.19316 0.89841 0.14819 0.0
C85 C 0.15965 0.88256 0.14327 0.0
C86 C 0.22615 0.90343 0.14416 0.0
C87 C 0.1932 0.88023 0.13016 0.0
C88 C 0.22621 0.89447 0.13526 0.0
C89 C 0.15964 0.87341 0.13433 0.0
C90 C 0.09169 0.89512 0.17546 0.0
C91 C 0.16916 0.97888 0.1825 0.0
C92 C 0.1093 0.89358 0.20785 0.0
C93 C 0.12063 0.91128 0.21667 0.0
C94 C 0.15793 0.92717 0.21966 0.0
C95 C 0.09361 0.91187 0.22223 0.0
C96 C 0.14072 0.94321 0.23379 0.0
C97 C 0.10349 0.92765 0.23069 0.0
C98 C 0.16785 0.9429 0.22813 0.0
C99 C 0.21618 0.92816 0.18997 0.0
O100 O 0.13919 0.84578 0.17416 0.0
O101 O 0.11741 0.83924 0.18866 0.0
O102 O 0.17545 0.9298 0.15869 0.0
O103 O 0.19867 0.89599 0.16392 0.0
O104 O 0.11042 0.91112 0.16831 0.0
O105 O 0.10907 0.88237 0.17985 0.0
O106 O 0.14673 0.95576 0.18868 0.0
O107 O 0.18497 0.96809 0.17639 0.0
O108 O 0.12384 0.87297 0.20534 0.0
O109 O 0.10789 0.9145 0.20149 0.0
O110 O 0.20047 0.92129 0.19769 0.0
O111 O 0.19034 0.91923 0.18449 0.0
H112 H 0.13384 0.87855 0.14623 0.0
H113 H 0.25233 0.91569 0.14782 0.0
H114 H 0.25239 0.89946 0.13231 0.0
H115 H 0.13377 0.86262 0.1306 0.0
H116 H 0.17934 0.92712 0.21548 0.0
H117 H 0.06472 0.89996 0.22004 0.0
H118 H 0.08193 0.92793 0.23476 0.0
H119 H 0.19668 0.95419 0.23029 0.0
Gd120 Gd 0.26194 0.11121 0.35572 0.0
Gd121 Gd 0.25203 0.11702 0.33607 0.0
C122 C 0.30637 0.1936 0.34624 0.0
C123 C 0.28723 0.10807 0.37121 0.0
C124 C 0.30088 0.12647 0.37991 0.0
C125 C 0.28064 0.13934 0.3849 0.0
C126 C 0.33193 0.12646 0.38379 0.0
C127 C 0.32043 0.14878 0.39775 0.0
C128 C 0.34167 0.13756 0.39259 0.0
C129 C 0.29031 0.15035 0.39371 0.0
C130 C 0.20591 0.12537 0.3519 0.0
C131 C 0.19802 0.03843 0.34607 0.0
C132 C 0.22983 0.11514 0.31991 0.0
C133 C 0.22048 0.09251 0.31168 0.0
C134 C 0.24765 0.08782 0.30707 0.0
C135 C 0.18436 0.07763 0.30802 0.0
C136 C 0.20299 0.05493 0.29515 0.0
C137 C 0.17566 0.05898 0.29987 0.0
C138 C 0.239 0.06929 0.2989 0.0
C139 C 0.30515 0.09847 0.34056 0.0
O140 O 0.30591 0.17241 0.3529 0.0
O141 O 0.28329 0.17852 0.33945 0.0
O142 O 0.25162 0.09481 0.3694 0.0
O143 O 0.30916 0.12197 0.36429 0.0
O144 O 0.20697 0.10784 0.35891 0.0
O145 O 0.23672 0.13872 0.34776 0.0
O146 O 0.20185 0.06051 0.33935 0.0
O147 O 0.22276 0.05022 0.35259 0.0
O148 O 0.26512 0.13361 0.32237 0.0
O149 O 0.20661 0.10075 0.32658 0.0
O150 O 0.30789 0.11911 0.33385 0.0
O151 O 0.27359 0.08671 0.34412 0.0
H152 H 0.25652 0.13964 0.38209 0.0
H153 H 0.34771 0.11625 0.38013 0.0
H154 H 0.36478 0.13558 0.39547 0.0
H155 H 0.2737 0.15943 0.39743 0.0
H156 H 0.2758 0.09894 0.3097 0.0
H157 H 0.16298 0.08117 0.31137 0.0
H158 H 0.14779 0.04875 0.29716 0.0
H159 H 0.26061 0.06627 0.29552 0.0
Gd160 Gd 0.91231 0.15476 0.35571 0.0
Gd161 Gd 0.90549 0.13745 0.3362 0.0
C162 C 0.82923 0.11544 0.34654 0.0
C163 C 0.91652 0.1847 0.37105 0.0
C164 C 0.89902 0.18243 0.37976 0.0
C165 C 0.88588 0.15056 0.38521 0.0
C166 C 0.90062 0.21489 0.3832 0.0
C167 C 0.88012 0.1852 0.39765 0.0
C168 C 0.89125 0.21628 0.39202 0.0
C169 C 0.87642 0.15191 0.39406 0.0
C170 C 0.89844 0.0845 0.35223 0.0
C171 C 0.98471 0.16276 0.34599 0.0
C172 C 0.90636 0.11622 0.32008 0.0
C173 C 0.92796 0.12979 0.31173 0.0
C174 C 0.93376 0.16282 0.30753 0.0
C175 C 0.94094 0.10788 0.30757 0.0
C176 C 0.96402 0.15094 0.29502 0.0
C177 C 0.95883 0.11834 0.29933 0.0
C178 C 0.95153 0.17322 0.29926 0.0
C179 C 0.92405 0.20936 0.34034 0.0
O180 O 0.85073 0.13686 0.35309 0.0
O181 O 0.8441 0.10693 0.3398 0.0
O182 O 0.92797 0.16076 0.36944 0.0
O183 O 0.90353 0.19313 0.36404 0.0
O184 O 0.91663 0.104 0.35908 0.0
O185 O 0.88446 0.1012 0.34804 0.0
O186 O 0.9622 0.14394 0.33937 0.0
O187 O 0.97327 0.17623 0.35247 0.0
O188 O 0.88689 0.13182 0.32263 0.0
O189 O 0.92242 0.10903 0.32666 0.0
O190 O 0.90284 0.19066 0.33378 0.0
O191 O 0.93628 0.19014 0.34397 0.0
H192 H 0.88451 0.12515 0.38276 0.0
H193 H 0.91082 0.23989 0.37916 0.0
H194 H 0.89375 0.24214 0.39451 0.0
H195 H 0.86811 0.1275 0.39819 0.0
H196 H 0.92415 0.18039 0.31056 0.0
H197 H 0.93654 0.08213 0.31061 0.0
H198 H 0.96761 0.10022 0.29623 0.0
H199 H 0.95548 0.19874 0.2962 0.0
Gd200 Gd 0.86896 0.7621 0.35595 0.0
Gd201 Gd 0.88523 0.77171 0.33629 0.0
C202 C 0.90726 0.71754 0.34662 0.0
C203 C 0.84017 0.73703 0.37145 0.0
C204 C 0.84448 0.7231 0.38016 0.0
C205 C 0.87705 0.74352 0.38532 0.0
C206 C 0.81343 0.6915 0.38388 0.0
C207 C 0.84616 0.7026 0.39799 0.0
C208 C 0.81425 0.68129 0.39267 0.0
C209 C 0.87786 0.73338 0.39413 0.0
C210 C 0.93932 0.81782 0.35214 0.0
C211 C 0.86051 0.82599 0.34614 0.0
C212 C 0.90619 0.7937 0.32014 0.0
C213 C 0.89331 0.8032 0.31189 0.0
C214 C 0.85809 0.77863 0.30809 0.0
C215 C 0.91786 0.83657 0.30742 0.0
C216 C 0.87298 0.82012 0.29532 0.0
C217 C 0.90783 0.845 0.29925 0.0
C218 C 0.84809 0.78697 0.29989 0.0
C219 C 0.81342 0.71873 0.34074 0.0
O220 O 0.88645 0.71821 0.35326 0.0
O221 O 0.91535 0.74042 0.33979 0.0
O222 O 0.86294 0.7725 0.36964 0.0
O223 O 0.83189 0.71516 0.36452 0.0
O224 O 0.9206 0.81695 0.35912 0.0
O225 O 0.9219 0.78701 0.34804 0.0
O226 O 0.87859 0.82174 0.33942 0.0
O227 O 0.84768 0.80169 0.35274 0.0
O228 O 0.88881 0.75847 0.32261 0.0
O229 O 0.91502 0.81694 0.32679 0.0
O230 O 0.83158 0.71595 0.33407 0.0
O231 O 0.83307 0.75029 0.34429 0.0
H232 H 0.90147 0.76809 0.38265 0.0
H233 H 0.78782 0.67556 0.38009 0.0
H234 H 0.78916 0.65768 0.39541 0.0
H235 H 0.90314 0.75009 0.39796 0.0
H236 H 0.83847 0.7527 0.31138 0.0
H237 H 0.94527 0.85584 0.31016 0.0
H238 H 0.92793 0.87053 0.2959 0.0
H239 H 0.82083 0.7674 0.29713 0.0
Gd240 Gd 0.90499 0.77135 0.83652 0.0
Gd241 Gd 0.91234 0.76305 0.85609 0.0
C242 C 0.98412 0.82697 0.84613 0.0
C243 C 0.90492 0.79126 0.82024 0.0
C244 C 0.92532 0.79724 0.81173 0.0
C245 C 0.90918 0.77037 0.80497 0.0
C246 C 0.95923 0.83069 0.80998 0.0
C247 C 0.95978 0.81054 0.79482 0.0
C248 C 0.97628 0.8372 0.80165 0.0
C249 C 0.92623 0.77684 0.79665 0.0
C250 C 0.92429 0.71883 0.84099 0.0
C251 C 0.82909 0.71775 0.84706 0.0
C252 C 0.9166 0.73904 0.87166 0.0
C253 C 0.89813 0.72481 0.88034 0.0
C254 C 0.88523 0.74466 0.88546 0.0
C255 C 0.89794 0.69344 0.88405 0.0
C256 C 0.87516 0.70368 0.89809 0.0
C257 C 0.88652 0.68292 0.89281 0.0
C258 C 0.87389 0.73421 0.89424 0.0
C259 C 0.8977 0.8186 0.85211 0.0
O260 O 0.96134 0.82243 0.8395 0.0
O261 O 0.97311 0.80258 0.85271 0.0
O262 O 0.88496 0.75667 0.82306 0.0
O263 O 0.92192 0.81524 0.82665 0.0
O264 O 0.90289 0.7157 0.83441 0.0
O265 O 0.93637 0.75048 0.8445 0.0
O266 O 0.85093 0.71858 0.85362 0.0
O267 O 0.84363 0.74063 0.84023 0.0
O268 O 0.92838 0.77426 0.86979 0.0
O269 O 0.90371 0.71692 0.86476 0.0
O270 O 0.91603 0.81832 0.85905 0.0
O271 O 0.88389 0.78739 0.84818 0.0
H272 H 0.88291 0.74446 0.80605 0.0
H273 H 0.97226 0.85224 0.815 0.0
H274 H 1.00183 0.86369 0.80048 0.0
H275 H 0.91295 0.75538 0.79163 0.0
H276 H 0.88506 0.76903 0.88279 0.0
H277 H 0.90818 0.67794 0.88029 0.0
H278 H 0.8883 0.65952 0.89555 0.0
H279 H 0.86474 0.75048 0.89805 0.0
Gd280 Gd 0.24935 0.13486 0.83485 0.0
Gd281 Gd 0.26298 0.15584 0.85559 0.0
C282 C 0.19963 0.16398 0.84508 0.0
C283 C 0.22402 0.10447 0.81959 0.0
C284 C 0.21619 0.11558 0.8109 0.0
C285 C 0.2379 0.1524 0.80766 0.0
C286 C 0.18667 0.08875 0.80571 0.0
C287 C 0.20107 0.13505 0.79403 0.0
C288 C 0.17914 0.09833 0.79739 0.0
C289 C 0.23047 0.16201 0.79932 0.0
C290 C 0.29742 0.21042 0.83767 0.0
C291 C 0.3059 0.11561 0.84612 0.0
C292 C 0.29104 0.1893 0.87047 0.0
C293 C 0.30484 0.18725 0.87936 0.0
C294 C 0.28782 0.15408 0.88441 0.0
C295 C 0.3327 0.22057 0.88326 0.0
C296 C 0.32414 0.18862 0.89737 0.0
C297 C 0.34225 0.22129 0.89215 0.0
C298 C 0.29752 0.15474 0.89333 0.0
C299 C 0.20559 0.08617 0.85189 0.0
O300 O 0.20059 0.14219 0.83877 0.0
O301 O 0.22574 0.17888 0.85132 0.0
O302 O 0.25954 0.11967 0.82189 0.0
O303 O 0.20198 0.10217 0.82614 0.0
O304 O 0.28894 0.19521 0.8299 0.0
O305 O 0.28003 0.18438 0.84306 0.0
O306 O 0.30223 0.13255 0.85324 0.0
O307 O 0.28704 0.1116 0.83868 0.0
O308 O 0.25491 0.1681 0.86899 0.0
O309 O 0.31197 0.19292 0.86358 0.0
O310 O 0.2082 0.10433 0.85913 0.0
O311 O 0.23589 0.10377 0.84755 0.0
H312 H 0.26079 0.17369 0.81155 0.0
H313 H 0.16941 0.06024 0.8081 0.0
H314 H 0.15583 0.07693 0.79362 0.0
H315 H 0.24824 0.19044 0.79695 0.0
H316 H 0.26608 0.12802 0.88156 0.0
H317 H 0.34611 0.24651 0.87951 0.0
H318 H 0.36332 0.24771 0.895 0.0
H319 H 0.28292 0.1291 0.89716 0.0
Gd320 Gd 0.88744 0.11987 0.83609 0.0
Gd321 Gd 0.87069 0.11146 0.85557 0.0
C322 C 0.86129 0.03976 0.84548 0.0
C323 C 0.90877 0.1197 0.81992 0.0
C324 C 0.89656 0.09755 0.81161 0.0
C325 C 0.8638 0.09082 0.80709 0.0
C326 C 0.91971 0.08528 0.80778 0.0
C327 C 0.87867 0.06147 0.79487 0.0
C328 C 0.91086 0.06739 0.79954 0.0
C329 C 0.85496 0.07297 0.79883 0.0
C330 C 0.81535 0.10098 0.84038 0.0
C331 C 0.90922 0.19516 0.84679 0.0
C332 C 0.84274 0.10667 0.87123 0.0
C333 C 0.84897 0.12373 0.88017 0.0
C334 C 0.86051 0.10897 0.88709 0.0
C335 C 0.83921 0.15119 0.88218 0.0
C336 C 0.85096 0.14746 0.89789 0.0
C337 C 0.84033 0.16301 0.89093 0.0
C338 C 0.86157 0.12069 0.8958 0.0
C339 C 0.94124 0.12602 0.8518 0.0
O340 O 0.88057 0.06276 0.83896 0.0
O341 O 0.8476 0.05084 0.85196 0.0
O342 O 0.8908 0.13693 0.82242 0.0
O343 O 0.91801 0.10556 0.82655 0.0
O344 O 0.83414 0.12271 0.83388 0.0
O345 O 0.8346 0.08849 0.8439 0.0
O346 O 0.88805 0.17287 0.85328 0.0
O347 O 0.91747 0.18117 0.83983 0.0
O348 O 0.86322 0.09175 0.86903 0.0
O349 O 0.83591 0.12272 0.86456 0.0
O350 O 0.92183 0.107 0.85858 0.0
O351 O 0.92422 0.14024 0.84786 0.0
H352 H 0.84538 0.10004 0.80983 0.0
H353 H 0.94517 0.09017 0.81109 0.0
H354 H 0.92945 0.05836 0.79682 0.0
H355 H 0.83013 0.06926 0.79542 0.0
H356 H 0.86748 0.08721 0.88582 0.0
H357 H 0.82976 0.16284 0.87704 0.0
H358 H 0.83237 0.18399 0.89226 0.0
H359 H 0.86923 0.10747 0.90094 0.0
Gd360 Gd 0.77985 0.89882 0.69292 0.0
Gd361 Gd 0.76723 0.90726 0.67221 0.0
C362 C 0.83097 0.97782 0.68282 0.0
C363 C 0.80409 0.89289 0.70825 0.0
C364 C 0.8109 0.91117 0.71701 0.0
C365 C 0.78836 0.92544 0.72021 0.0
C366 C 0.84036 0.91421 0.72229 0.0
C367 C 0.82448 0.94508 0.73394 0.0
C368 C 0.84712 0.93098 0.73065 0.0
C369 C 0.79499 0.94209 0.72859 0.0
C370 C 0.73222 0.92697 0.69016 0.0
C371 C 0.72415 0.82346 0.68137 0.0
C372 C 0.73964 0.91314 0.6573 0.0
C373 C 0.72629 0.89732 0.64838 0.0
C374 C 0.74364 0.88127 0.64341 0.0
C375 C 0.69846 0.9026 0.64439 0.0
C376 C 0.70768 0.87918 0.63035 0.0
C377 C 0.68925 0.89366 0.63549 0.0
C378 C 0.73429 0.87212 0.63448 0.0
C379 C 0.82434 0.8946 0.67594 0.0
O380 O 0.82946 0.95469 0.6891 0.0
O381 O 0.80478 0.9672 0.67661 0.0
O382 O 0.76883 0.87241 0.70577 0.0
O383 O 0.82658 0.91325 0.70183 0.0
O384 O 0.74059 0.91992 0.6979 0.0
O385 O 0.74944 0.9182 0.68472 0.0
O386 O 0.72848 0.84456 0.67431 0.0
O387 O 0.74218 0.83789 0.68893 0.0
O388 O 0.77573 0.92819 0.65886 0.0
O389 O 0.7185 0.89561 0.66414 0.0
O390 O 0.8221 0.91054 0.66873 0.0
O391 O 0.79387 0.88177 0.68021 0.0
H392 H 0.7656 0.9237 0.71624 0.0
H393 H 0.85808 0.90337 0.71997 0.0
H394 H 0.86976 0.93232 0.7346 0.0
H395 H 0.7773 0.95305 0.73084 0.0
H396 H 0.76536 0.87708 0.64633 0.0
H397 H 0.68479 0.91504 0.64808 0.0
H398 H 0.66816 0.89883 0.63258 0.0
H399 H 0.74914 0.86116 0.63072 0.0
Gd400 Gd 0.12601 0.88384 0.6917 0.0
Gd401 Gd 0.11889 0.86769 0.67221 0.0
C402 C 0.04674 0.85893 0.68213 0.0
C403 C 0.12572 0.90394 0.70796 0.0
C404 C 0.10548 0.88925 0.71647 0.0
C405 C 0.12216 0.87915 0.72324 0.0
C406 C 0.07111 0.88787 0.71822 0.0
C407 C 0.07113 0.86747 0.73338 0.0
C408 C 0.05411 0.87703 0.72655 0.0
C409 C 0.10517 0.86826 0.73155 0.0
C410 C 0.1076 0.81211 0.68737 0.0
C411 C 0.20199 0.90613 0.68129 0.0
C412 C 0.1151 0.83983 0.6566 0.0
C413 C 0.13263 0.84644 0.64771 0.0
C414 C 0.13347 0.8739 0.64201 0.0
C415 C 0.14384 0.8216 0.64441 0.0
C416 C 0.15337 0.84945 0.62973 0.0
C417 C 0.15429 0.82319 0.63554 0.0
C418 C 0.14367 0.87534 0.63314 0.0
C419 C 0.13318 0.93802 0.67594 0.0
O420 O 0.06958 0.87819 0.68865 0.0
O421 O 0.05796 0.84512 0.67569 0.0
O422 O 0.14637 0.89004 0.70514 0.0
O423 O 0.10824 0.91024 0.70154 0.0
O424 O 0.12884 0.83067 0.69394 0.0
O425 O 0.09519 0.8313 0.68381 0.0
O426 O 0.18027 0.88459 0.67479 0.0
O427 O 0.18728 0.91487 0.68802 0.0
O428 O 0.09921 0.85945 0.65877 0.0
O429 O 0.13154 0.83363 0.66329 0.0
O430 O 0.11501 0.91896 0.66905 0.0
O431 O 0.14707 0.92094 0.67998 0.0
H432 H 0.1488 0.88023 0.72215 0.0
H433 H 0.05764 0.89588 0.7132 0.0
H434 H 0.02817 0.87723 0.72772 0.0
H435 H 0.11887 0.86056 0.73657 0.0
H436 H 0.12493 0.89347 0.64431 0.0
H437 H 0.14299 0.79983 0.64861 0.0
H438 H 0.16132 0.80264 0.63313 0.0
H439 H 0.14321 0.89629 0.62888 0.0
Gd440 Gd 0.13957 0.24436 0.69282 0.0
Gd441 Gd 0.15973 0.25661 0.67213 0.0
C442 C 0.16931 0.19494 0.68281 0.0
C443 C 0.10977 0.21941 0.70815 0.0
C444 C 0.12116 0.21136 0.71681 0.0
C445 C 0.15489 0.23742 0.72098 0.0
C446 C 0.09761 0.17699 0.72102 0.0
C447 C 0.14093 0.19489 0.73349 0.0
C448 C 0.10738 0.16879 0.72925 0.0
C449 C 0.16458 0.22933 0.72924 0.0
C450 C 0.21536 0.29224 0.68996 0.0
C451 C 0.12072 0.30082 0.68152 0.0
C452 C 0.1907 0.28302 0.65689 0.0
C453 C 0.1837 0.29157 0.64779 0.0
C454 C 0.15924 0.26287 0.64201 0.0
C455 C 0.20513 0.3283 0.64449 0.0
C456 C 0.17983 0.30705 0.62969 0.0
C457 C 0.20311 0.33601 0.63555 0.0
C458 C 0.15738 0.27053 0.63308 0.0
C459 C 0.08978 0.19956 0.67601 0.0
O460 O 0.14697 0.19563 0.68902 0.0
O461 O 0.18434 0.22109 0.6766 0.0
O462 O 0.12489 0.25483 0.70582 0.0
O463 O 0.10678 0.19725 0.70158 0.0
O464 O 0.2 0.28357 0.69772 0.0
O465 O 0.18933 0.27522 0.68452 0.0
O466 O 0.13769 0.29679 0.67446 0.0
O467 O 0.11631 0.28203 0.68899 0.0
O468 O 0.17523 0.24759 0.65913 0.0
O469 O 0.19155 0.30455 0.66339 0.0
O470 O 0.1078 0.20179 0.66877 0.0
O471 O 0.10763 0.23004 0.68022 0.0
H472 H 0.17381 0.26408 0.71787 0.0
H473 H 0.07143 0.15646 0.71796 0.0
H474 H 0.08826 0.14219 0.73235 0.0
H475 H 0.19084 0.2499 0.73226 0.0
H476 H 0.14233 0.23421 0.64432 0.0
H477 H 0.22455 0.35087 0.64875 0.0
H478 H 0.22105 0.36438 0.63317 0.0
H479 H 0.13873 0.24766 0.62878 0.0
Gd480 Gd 0.78154 0.58897 0.50547 0.0
Gd481 Gd 0.78861 0.57933 0.52509 0.0
C482 C 0.86462 0.63362 0.51466 0.0
C483 C 0.77779 0.61401 0.48998 0.0
C484 C 0.79608 0.62789 0.48126 0.0
C485 C 0.80831 0.60752 0.47612 0.0
C486 C 0.79666 0.65943 0.47753 0.0
C487 C 0.81851 0.64837 0.46344 0.0
C488 C 0.80781 0.66963 0.46874 0.0
C489 C 0.81938 0.61765 0.46731 0.0
C490 C 0.79605 0.53318 0.5092 0.0
C491 C 0.7092 0.52528 0.51532 0.0
C492 C 0.7875 0.55726 0.54123 0.0
C493 C 0.76499 0.54776 0.54949 0.0
C494 C 0.75773 0.57387 0.55377 0.0
C495 C 0.75268 0.51269 0.55348 0.0
C496 C 0.7274 0.5303 0.56605 0.0
C497 C 0.73404 0.504 0.56164 0.0
C498 C 0.73921 0.56525 0.56196 0.0
C499 C 0.77028 0.63262 0.52076 0.0
O500 O 0.8429 0.63304 0.50811 0.0
O501 O 0.85005 0.61055 0.52147 0.0
O502 O 0.76491 0.57854 0.49179 0.0
O503 O 0.79155 0.63589 0.4969 0.0
O504 O 0.77801 0.53401 0.50227 0.0
O505 O 0.80966 0.56402 0.51329 0.0
O506 O 0.73169 0.52936 0.52198 0.0
O507 O 0.72061 0.54974 0.50876 0.0
O508 O 0.80564 0.59248 0.53876 0.0
O509 O 0.77304 0.53406 0.53457 0.0
O510 O 0.79143 0.63526 0.52736 0.0
O511 O 0.75788 0.60101 0.5172 0.0
H512 H 0.80815 0.58301 0.47879 0.0
H513 H 0.78693 0.67532 0.48131 0.0
H514 H 0.80636 0.69319 0.46599 0.0
H515 H 0.82803 0.60099 0.46349 0.0
H516 H 0.7668 0.60118 0.55087 0.0
H517 H 0.7582 0.49218 0.55038 0.0
H518 H 0.72582 0.47701 0.56461 0.0
H519 H 0.73416 0.58601 0.56509 0.0
Gd520 Gd 0.43324 0.19593 0.50511 0.0
Gd521 Gd 0.44295 0.21288 0.52463 0.0
C522 C 0.38905 0.23487 0.51421 0.0
C523 C 0.40809 0.16697 0.48964 0.0
C524 C 0.39478 0.17191 0.48092 0.0
C525 C 0.41521 0.2051 0.47598 0.0
C526 C 0.36377 0.14104 0.47699 0.0
C527 C 0.37558 0.17523 0.46308 0.0
C528 C 0.3542 0.14266 0.46819 0.0
C529 C 0.40571 0.20672 0.46716 0.0
C530 C 0.48949 0.26628 0.50869 0.0
C531 C 0.49713 0.18775 0.51492 0.0
C532 C 0.46435 0.23365 0.54081 0.0
C533 C 0.47147 0.21979 0.54927 0.0
C534 C 0.44171 0.19696 0.55502 0.0
C535 C 0.50856 0.2321 0.55203 0.0
C536 C 0.48609 0.20002 0.56619 0.0
C537 C 0.51578 0.22227 0.56036 0.0
C538 C 0.44893 0.18713 0.56335 0.0
C539 C 0.38944 0.14103 0.5204 0.0
O540 O 0.38922 0.21334 0.5077 0.0
O541 O 0.4124 0.24358 0.52096 0.0
O542 O 0.44371 0.18896 0.49148 0.0
O543 O 0.38609 0.15943 0.49653 0.0
O544 O 0.48841 0.24705 0.50182 0.0
O545 O 0.45863 0.24934 0.51283 0.0
O546 O 0.49343 0.20675 0.52149 0.0
O547 O 0.4722 0.17406 0.50846 0.0
O548 O 0.42946 0.21878 0.53815 0.0
O549 O 0.48786 0.24052 0.53428 0.0
O550 O 0.38685 0.15971 0.52696 0.0
O551 O 0.42108 0.16023 0.51682 0.0
H552 H 0.43931 0.2294 0.47883 0.0
H553 H 0.34784 0.11499 0.48061 0.0
H554 H 0.33107 0.11773 0.46527 0.0
H555 H 0.42243 0.23247 0.46349 0.0
H556 H 0.41278 0.18734 0.55319 0.0
H557 H 0.53216 0.25 0.5478 0.0
H558 H 0.54474 0.23231 0.56225 0.0
H559 H 0.42534 0.1704 0.56769 0.0
Gd560 Gd 0.82694 0.24107 0.50539 0.0
Gd561 Gd 0.80996 0.2338 0.525 0.0
C562 C 0.78908 0.15818 0.51453 0.0
C563 C 0.85684 0.24602 0.49 0.0
C564 C 0.85464 0.22863 0.48129 0.0
C565 C 0.82162 0.21268 0.47617 0.0
C566 C 0.88784 0.23295 0.47753 0.0
C567 C 0.85624 0.20929 0.4634 0.0
C568 C 0.88866 0.22338 0.4687 0.0
C569 C 0.8224 0.20297 0.46731 0.0
C570 C 0.75627 0.22599 0.50908 0.0
C571 C 0.83418 0.31276 0.51522 0.0
C572 C 0.78806 0.23347 0.54112 0.0
C573 C 0.80073 0.25427 0.54957 0.0
C574 C 0.83713 0.26715 0.55292 0.0
C575 C 0.77494 0.25922 0.55465 0.0
C576 C 0.82089 0.28783 0.56653 0.0
C577 C 0.78486 0.27583 0.56301 0.0
C578 C 0.8471 0.28376 0.56131 0.0
C579 C 0.88218 0.25349 0.5207 0.0
O580 O 0.81026 0.17997 0.50798 0.0
O581 O 0.78028 0.17257 0.52132 0.0
O582 O 0.83233 0.25672 0.49166 0.0
O583 O 0.86582 0.23333 0.49698 0.0
O584 O 0.77523 0.24419 0.50217 0.0
O585 O 0.77368 0.21257 0.5132 0.0
O586 O 0.8157 0.29018 0.52187 0.0
O587 O 0.84779 0.30166 0.50871 0.0
O588 O 0.80462 0.21497 0.53854 0.0
O589 O 0.78084 0.24974 0.53459 0.0
O590 O 0.864 0.23241 0.52733 0.0
O591 O 0.86234 0.26513 0.51712 0.0
H592 H 0.79562 0.20918 0.47888 0.0
H593 H 0.91369 0.24534 0.48133 0.0
H594 H 0.91503 0.22797 0.46596 0.0
H595 H 0.79695 0.19234 0.46342 0.0
H596 H 0.85762 0.26369 0.54914 0.0
H597 H 0.74674 0.24957 0.5522 0.0
H598 H 0.76416 0.27914 0.56673 0.0
H599 H 0.87499 0.29239 0.5638 0.0
Gd600 Gd 0.92981 0.44846 0.6891 0.0
Gd601 Gd 0.9217 0.45508 0.66945 0.0
C602 C 0.97532 0.53121 0.67987 0.0
C603 C 0.95385 0.44391 0.70462 0.0
C604 C 0.9696 0.46112 0.71332 0.0
C605 C 0.9518 0.47524 0.7188 0.0
C606 C 0.99982 0.45818 0.71672 0.0
C607 C 0.99179 0.47936 0.73119 0.0
C608 C 1.01083 0.46722 0.72553 0.0
C609 C 0.9629 0.4844 0.72764 0.0
C610 C 0.87402 0.46269 0.68503 0.0
C611 C 0.86645 0.37611 0.67917 0.0
C612 C 0.90125 0.45431 0.65319 0.0
C613 C 0.89273 0.43227 0.64489 0.0
C614 C 0.91964 0.42589 0.64069 0.0
C615 C 0.8578 0.41965 0.64077 0.0
C616 C 0.87713 0.3958 0.62824 0.0
C617 C 0.85003 0.40156 0.63256 0.0
C618 C 0.91193 0.40791 0.63246 0.0
C619 C 0.97395 0.4356 0.67419 0.0
O620 O 0.97415 0.50975 0.68655 0.0
O621 O 0.9529 0.51643 0.67298 0.0
O622 O 0.91898 0.43453 0.70292 0.0
O623 O 0.97568 0.45529 0.69764 0.0
O624 O 0.87434 0.44445 0.69198 0.0
O625 O 0.90526 0.47644 0.68104 0.0
O626 O 0.87114 0.39843 0.67244 0.0
O627 O 0.89031 0.38766 0.68586 0.0
O628 O 0.93627 0.47247 0.65585 0.0
O629 O 0.87731 0.43949 0.65971 0.0
O630 O 0.97754 0.45678 0.66752 0.0
O631 O 0.94211 0.42399 0.6776 0.0
H632 H 0.92825 0.47763 0.71638 0.0
H633 H 1.01386 0.44718 0.71266 0.0
H634 H 0.03363 0.46364 0.72799 0.0
H635 H 0.94752 0.49352 0.7318 0.0
H636 H 0.94687 0.43525 0.64369 0.0
H637 H 0.8367 0.42452 0.64381 0.0
H638 H 0.82313 0.39309 0.62949 0.0
H639 H 0.93328 0.40353 0.62939 0.0
Gd640 Gd 0.57985 0.48823 0.68949 0.0
Gd641 Gd 0.57171 0.46803 0.66883 0.0
C642 C 0.49593 0.44706 0.68036 0.0
C643 C 0.58425 0.52 0.70459 0.0
C644 C 0.56728 0.51473 0.71349 0.0
C645 C 0.55697 0.48223 0.71851 0.0
C646 C 0.56525 0.54462 0.71739 0.0
C647 C 0.54542 0.51085 0.73141 0.0
C648 C 0.5544 0.54272 0.72623 0.0
C649 C 0.54618 0.48033 0.72738 0.0
C650 C 0.56839 0.41904 0.68567 0.0
C651 C 0.65116 0.49737 0.6788 0.0
C652 C 0.56579 0.43816 0.65345 0.0
C653 C 0.58354 0.4496 0.64463 0.0
C654 C 0.59704 0.48615 0.64137 0.0
C655 C 0.58653 0.42327 0.63932 0.0
C656 C 0.61543 0.46947 0.62747 0.0
C657 C 0.6023 0.43305 0.63085 0.0
C658 C 0.61275 0.49596 0.63288 0.0
C659 C 0.59914 0.5436 0.67167 0.0
O660 O 0.51696 0.46353 0.68745 0.0
O661 O 0.51055 0.44411 0.67276 0.0
O662 O 0.60152 0.50128 0.70278 0.0
O663 O 0.566 0.52298 0.69782 0.0
O664 O 0.58448 0.43749 0.69284 0.0
O665 O 0.5548 0.43604 0.68144 0.0
O666 O 0.62809 0.47534 0.67256 0.0
O667 O 0.64008 0.51239 0.68503 0.0
O668 O 0.54502 0.45247 0.65602 0.0
O669 O 0.58666 0.43651 0.6598 0.0
O670 O 0.59249 0.52831 0.66392 0.0
O671 O 0.5903 0.51761 0.6771 0.0
H672 H 0.55825 0.4587 0.71567 0.0
H673 H 0.57343 0.57012 0.71369 0.0
H674 H 0.55461 0.56695 0.72911 0.0
H675 H 0.53889 0.45511 0.7311 0.0
H676 H 0.59515 0.50705 0.64535 0.0
H677 H 0.5765 0.39498 0.64171 0.0
H678 H 0.60447 0.41205 0.62698 0.0
H679 H 0.62215 0.52413 0.63051 0.0
Gd680 Gd 0.53898 0.09748 0.68898 0.0
Gd681 Gd 0.55561 0.10533 0.66947 0.0
C682 C 0.57849 0.05292 0.68027 0.0
C683 C 0.51043 0.07408 0.70459 0.0
C684 C 0.51608 0.06275 0.71354 0.0
C685 C 0.52965 0.08931 0.72042 0.0
C686 C 0.50365 0.02495 0.71561 0.0
C687 C 0.51673 0.04047 0.73129 0.0
C688 C 0.50411 0.01398 0.72437 0.0
C689 C 0.53004 0.07838 0.72914 0.0
C690 C 0.60919 0.15353 0.68524 0.0
C691 C 0.53077 0.16047 0.67876 0.0
C692 C 0.57575 0.1251 0.65317 0.0
C693 C 0.56169 0.13204 0.64473 0.0
C694 C 0.54855 0.10476 0.63801 0.0
C695 C 0.56405 0.16679 0.64297 0.0
C696 C 0.54134 0.14702 0.62791 0.0
C697 C 0.55396 0.17414 0.63468 0.0
C698 C 0.53837 0.11207 0.62974 0.0
C699 C 0.48365 0.05236 0.67392 0.0
O700 O 0.55736 0.054 0.68678 0.0
O701 O 0.58642 0.075 0.67329 0.0
O702 O 0.53132 0.10947 0.70245 0.0
O703 O 0.50352 0.05135 0.69789 0.0
O704 O 0.58983 0.15284 0.69207 0.0
O705 O 0.59248 0.1224 0.68124 0.0
O706 O 0.54956 0.15606 0.67223 0.0
O707 O 0.51708 0.13612 0.68534 0.0
O708 O 0.55998 0.09038 0.65596 0.0
O709 O 0.58384 0.14914 0.65962 0.0
O710 O 0.50229 0.04902 0.66745 0.0
O711 O 0.50298 0.0843 0.67731 0.0
H712 H 0.53873 0.11855 0.71912 0.0
H713 H 0.49256 1.00365 0.71051 0.0
H714 H 0.49407 0.9846 0.72572 0.0
H715 H 0.53932 0.09958 0.73426 0.0
H716 H 0.54694 0.07793 0.63908 0.0
H717 H 0.57431 0.18861 0.64795 0.0
H718 H 0.5562 0.20121 0.63356 0.0
H719 H 0.52932 0.09068 0.62467 0.0
Gd720 Gd 0.57227 0.10401 0.1695 0.0
Gd721 Gd 0.57996 0.0965 0.18907 0.0
C722 C 0.65218 0.15863 0.17895 0.0
C723 C 0.57219 0.12448 0.15327 0.0
C724 C 0.59317 0.1328 0.14481 0.0
C725 C 0.59988 0.10622 0.14058 0.0
C726 C 0.60412 0.16706 0.14054 0.0
C727 C 0.62625 0.14742 0.12775 0.0
C728 C 0.62052 0.17435 0.13214 0.0
C729 C 0.61627 0.11348 0.13214 0.0
C730 C 0.59075 0.05091 0.17405 0.0
C731 C 0.49626 0.05151 0.1802 0.0
C732 C 0.58428 0.07393 0.20482 0.0
C733 C 0.56696 0.06306 0.21375 0.0
C734 C 0.58007 0.08991 0.22056 0.0
C735 C 0.5412 0.02542 0.21588 0.0
C736 C 0.54346 0.04163 0.2315 0.0
C737 C 0.52947 0.01486 0.22464 0.0
C738 C 0.56846 0.0794 0.22929 0.0
C739 C 0.56605 0.15247 0.18495 0.0
O740 O 0.6294 0.15444 0.17234 0.0
O741 O 0.64084 0.13427 0.18553 0.0
O742 O 0.55397 0.08955 0.15594 0.0
O743 O 0.58792 0.14835 0.15975 0.0
O744 O 0.56941 0.04793 0.16747 0.0
O745 O 0.60322 0.08273 0.17752 0.0
O746 O 0.51818 0.05281 0.18679 0.0
O747 O 0.51079 0.07334 0.17319 0.0
O748 O 0.599 0.10921 0.20256 0.0
O749 O 0.56863 0.05084 0.19816 0.0
O750 O 0.58458 0.15231 0.19185 0.0
O751 O 0.55179 0.12103 0.18112 0.0
H752 H 0.59168 0.07946 0.14368 0.0
H753 H 0.59922 0.188 0.14365 0.0
H754 H 0.62848 0.20108 0.12906 0.0
H755 H 0.61996 0.09195 0.12896 0.0
H756 H 0.60054 0.11904 0.21921 0.0
H757 H 0.53088 1.0039 0.21083 0.0
H758 H 0.50983 0.98558 0.22605 0.0
H759 H 0.58048 0.10079 0.23436 0.0
Gd760 Gd 0.9214 0.47177 0.16963 0.0
Gd761 Gd 0.92972 0.4869 0.18927 0.0
C762 C 0.86669 0.49626 0.17935 0.0
C763 C 0.90052 0.45134 0.15341 0.0
C764 C 0.89208 0.46413 0.14499 0.0
C765 C 0.91904 0.49694 0.14065 0.0
C766 C 0.85728 0.44135 0.14086 0.0
C767 C 0.87709 0.48269 0.12799 0.0
C768 C 0.84981 0.45052 0.13249 0.0
C769 C 0.9116 0.50612 0.13225 0.0
C770 C 0.97402 0.54343 0.17423 0.0
C771 C 0.97504 0.44932 0.18009 0.0
C772 C 0.95366 0.51466 0.20488 0.0
C773 C 0.96748 0.51012 0.21358 0.0
C774 C 0.94704 0.47741 0.21868 0.0
C775 C 0.99904 0.54105 0.21734 0.0
C776 C 0.9878 0.50792 0.23138 0.0
C777 C 1.00916 0.53997 0.22612 0.0
C778 C 0.95709 0.47635 0.22748 0.0
C779 C 0.87378 0.41693 0.18519 0.0
O780 O 0.87092 0.47807 0.17267 0.0
O781 O 0.891 0.50905 0.18595 0.0
O782 O 0.93558 0.468 0.15603 0.0
O783 O 0.87673 0.4431 0.15994 0.0
O784 O 0.97717 0.52562 0.16755 0.0
O785 O 0.94233 0.52354 0.17773 0.0
O786 O 0.97407 0.46997 0.18671 0.0
O787 O 0.95245 0.44143 0.17321 0.0
O788 O 0.91832 0.49157 0.20297 0.0
O789 O 0.97598 0.52379 0.19801 0.0
O790 O 0.87415 0.43543 0.19215 0.0
O791 O 0.90511 0.43437 0.18126 0.0
H792 H 0.94623 0.51508 0.14364 0.0
H793 H 0.83602 0.41587 0.14404 0.0
H794 H 0.82265 0.43216 0.12952 0.0
H795 H 0.93342 0.53094 0.12898 0.0
H796 H 0.92252 0.45308 0.21598 0.0
H797 H 0.01498 0.56676 0.21359 0.0
H798 H 0.03271 0.56497 0.22889 0.0
H799 H 0.94036 0.45098 0.23128 0.0
Gd800 Gd 0.55441 0.45282 0.16916 0.0
Gd801 Gd 0.53777 0.44471 0.18875 0.0
C802 C 0.52817 0.37283 0.17866 0.0
C803 C 0.57522 0.45206 0.15298 0.0
C804 C 0.56188 0.4299 0.14468 0.0
C805 C 0.52904 0.42402 0.14034 0.0
C806 C 0.58383 0.41648 0.14071 0.0
C807 C 0.54122 0.39285 0.12808 0.0
C808 C 0.57361 0.3981 0.13254 0.0
C809 C 0.51888 0.40576 0.13214 0.0
C810 C 0.48266 0.43454 0.17354 0.0
C811 C 0.5769 0.52832 0.17985 0.0
C812 C 0.50982 0.44068 0.20437 0.0
C813 C 0.51623 0.45819 0.21326 0.0
C814 C 0.54375 0.45922 0.21898 0.0
C815 C 0.49115 0.4692 0.21653 0.0
C816 C 0.51895 0.47897 0.23123 0.0
C817 C 0.4926 0.47966 0.2254 0.0
C818 C 0.54505 0.46943 0.22785 0.0
C819 C 0.608 0.45872 0.18489 0.0
O820 O 0.54733 0.3957 0.17212 0.0
O821 O 0.51467 0.38402 0.18518 0.0
O822 O 0.55856 0.47051 0.15553 0.0
O823 O 0.58372 0.43713 0.15957 0.0
O824 O 0.50124 0.45587 0.16697 0.0
O825 O 0.50182 0.42198 0.17705 0.0
O826 O 0.55566 0.5062 0.18635 0.0
O827 O 0.58501 0.51413 0.1729 0.0
O828 O 0.52985 0.42521 0.20221 0.0
O829 O 0.50325 0.4568 0.19767 0.0
O830 O 0.58894 0.44028 0.19177 0.0
O831 O 0.59098 0.47292 0.18095 0.0
H832 H 0.51143 0.43396 0.14321 0.0
H833 H 0.60946 0.42093 0.14386 0.0
H834 H 0.59178 0.38901 0.12959 0.0
H835 H 0.49349 0.40179 0.12897 0.0
H836 H 0.5635 0.45082 0.21671 0.0
H837 H 0.46933 0.4682 0.21232 0.0
H838 H 0.47188 0.48655 0.22778 0.0
H839 H 0.56608 0.46915 0.23211 0.0
Gd840 Gd 0.44674 0.23408 0.02572 0.0
Gd841 Gd 0.4339 0.24179 1.00495 0.0
C842 C 0.49704 0.31288 0.01555 0.0
C843 C 0.47101 0.22819 0.04106 0.0
C844 C 0.47783 0.24612 0.04986 0.0
C845 C 0.45606 0.26131 0.05303 0.0
C846 C 0.50622 0.24746 0.05526 0.0
C847 C 0.49044 0.278 0.06702 0.0
C848 C 0.51251 0.26323 0.06372 0.0
C849 C 0.46226 0.27703 0.06151 0.0
C850 C 0.3989 0.26181 0.02279 0.0
C851 C 0.39035 0.15861 0.01433 0.0
C852 C 0.40638 0.24706 0.98997 0.0
C853 C 0.39292 0.23087 0.98108 0.0
C854 C 0.41389 0.22069 0.97553 0.0
C855 C 0.36077 0.23014 0.97767 0.0
C856 C 0.37258 0.21278 0.9631 0.0
C857 C 0.35068 0.22118 0.96881 0.0
C858 C 0.40374 0.21162 0.96664 0.0
C859 C 0.49096 0.22908 1.00878 0.0
O860 O 0.49593 0.28999 0.02184 0.0
O861 O 0.47088 0.30187 1.00932 0.0
O862 O 0.43574 0.2078 0.03858 0.0
O863 O 0.49348 0.24871 0.03465 0.0
O864 O 0.40712 0.25503 0.03058 0.0
O865 O 0.41641 0.2531 0.01744 0.0
O866 O 0.39429 0.17941 1.00723 0.0
O867 O 0.40909 0.17321 0.0218 0.0
O868 O 0.44248 0.26235 0.99157 0.0
O869 O 0.38522 0.22989 0.99685 0.0
O870 O 0.48868 0.24475 1.00153 0.0
O871 O 0.46053 0.21649 1.01305 0.0
H872 H 0.434 0.26069 0.04898 0.0
H873 H 0.5235 0.23611 0.05294 0.0
H874 H 0.53493 0.26405 0.06766 0.0
H875 H 0.44442 0.28774 0.06382 0.0
H876 H 0.43894 0.22116 0.97796 0.0
H877 H 0.34421 0.238 0.9818 0.0
H878 H 0.32613 0.2217 0.96637 0.0
H879 H 0.42135 0.20546 0.96244 0.0
Gd880 Gd 0.79085 0.21455 0.0246 0.0
Gd881 Gd 0.78375 0.19878 1.00505 0.0
C882 C 0.71162 0.1903 0.01497 0.0
C883 C 0.79063 0.23526 0.0408 0.0
C884 C 0.76927 0.22206 0.04918 0.0
C885 C 0.75705 0.18587 0.05255 0.0
C886 C 0.76293 0.24713 0.05417 0.0
C887 C 0.73367 0.20069 0.06593 0.0
C888 C 0.74532 0.23661 0.06242 0.0
C889 C 0.73951 0.17534 0.06084 0.0
C890 C 0.77162 0.1427 0.02014 0.0
C891 C 0.86696 0.23685 0.01415 0.0
C892 C 0.78002 0.17101 0.98944 0.0
C893 C 0.79821 0.17729 0.98064 0.0
C894 C 0.80106 0.2057 0.97496 0.0
C895 C 0.8081 0.15138 0.97739 0.0
C896 C 0.82043 0.18026 0.96278 0.0
C897 C 0.81927 0.15294 0.96858 0.0
C898 C 0.81199 0.20712 0.96614 0.0
C899 C 0.79817 0.26897 1.0089 0.0
O900 O 0.7343 0.20878 0.02159 0.0
O901 O 0.72284 0.17687 1.00844 0.0
O902 O 0.80912 0.21876 0.03817 0.0
O903 O 0.77479 0.24314 0.03429 0.0
O904 O 0.79283 0.16083 0.02676 0.0
O905 O 0.75969 0.16237 0.01662 0.0
O906 O 0.8452 0.21585 1.00758 0.0
O907 O 0.8523 0.24502 0.02099 0.0
O908 O 0.76523 0.19172 0.99153 0.0
O909 O 0.79523 0.16368 0.9962 0.0
O910 O 0.78002 0.25013 1.00198 0.0
O911 O 0.81203 0.25176 1.01291 0.0
H912 H 0.76146 0.16588 0.04883 0.0
H913 H 0.77233 0.27526 0.05174 0.0
H914 H 0.7418 0.25708 0.06617 0.0
H915 H 0.73048 0.1473 0.06326 0.0
H916 H 0.79356 0.22611 0.97722 0.0
H917 H 0.80569 0.12889 0.98157 0.0
H918 H 0.82526 0.13161 0.96621 0.0
H919 H 0.81313 0.22887 0.96189 0.0
Gd920 Gd 0.80996 0.58149 0.02505 0.0
Gd921 Gd 0.82578 0.58934 1.00544 0.0
C922 C 0.83481 0.52659 0.01555 0.0
C923 C 0.78911 0.56082 0.04127 0.0
C924 C 0.80211 0.55225 0.04961 0.0
C925 C 0.83874 0.57541 0.05288 0.0
C926 C 0.77649 0.52137 0.05468 0.0
C927 C 0.82328 0.53749 0.06631 0.0
C928 C 0.78692 0.51401 0.06291 0.0
C929 C 0.84917 0.56814 0.06115 0.0
C930 C 0.88186 0.63402 0.02052 0.0
C931 C 0.7875 0.6346 0.01439 0.0
C932 C 0.8541 0.61331 0.98986 0.0
C933 C 0.84964 0.62723 0.98117 0.0
C934 C 0.81697 0.60683 0.97605 0.0
C935 C 0.88058 0.65893 0.97746 0.0
C936 C 0.84754 0.64801 0.96341 0.0
C937 C 0.87955 0.66929 0.9687 0.0
C938 C 0.81596 0.61711 0.96727 0.0
C939 C 0.7555 0.53366 1.00945 0.0
O940 O 0.81653 0.5311 0.02218 0.0
O941 O 0.8477 0.5506 1.0089 0.0
O942 O 0.80635 0.59581 0.03863 0.0
O943 O 0.78053 0.53702 0.03475 0.0
O944 O 0.86371 0.63731 0.02712 0.0
O945 O 0.86214 0.60227 0.01706 0.0
O946 O 0.80802 0.63314 1.00779 0.0
O947 O 0.77984 0.61269 0.02138 0.0
O948 O 0.83091 0.57802 0.99177 0.0
O949 O 0.86312 0.63552 0.99675 0.0
O950 O 0.77437 0.53381 1.00257 0.0
O951 O 0.77285 0.56499 1.01335 0.0
H952 H 0.85915 0.59939 0.0491 0.0
H953 H 0.74803 0.50326 0.05233 0.0
H954 H 0.76604 0.49047 0.06672 0.0
H955 H 0.87755 0.58653 0.06349 0.0
H956 H 0.79263 0.5822 0.97872 0.0
H957 H 0.90626 0.67486 0.98122 0.0
H958 H 0.90455 0.69299 0.96595 0.0
H959 H 0.79062 0.60043 0.96345 0.0
Gd960 Gd 0.44988 0.92214 0.83864 0.0
Gd961 Gd 0.45725 0.91399 0.85822 0.0
C962 C 0.5333 0.96714 0.84769 0.0
C963 C 0.44593 0.94588 0.823 0.0
C964 C 0.46371 0.95742 0.81414 0.0
C965 C 0.46437 0.9311 0.8083 0.0
C966 C 0.47537 0.9938 0.811 0.0
C967 C 0.48516 0.97648 0.79622 0.0
C968 C 0.48616 1.0033 0.80216 0.0
C969 C 0.47492 0.94052 0.79945 0.0
C970 C 0.46434 0.86649 0.84255 0.0
C971 C 0.37783 0.85875 0.84869 0.0
C972 C 0.45716 0.89354 0.87445 0.0
C973 C 0.43572 0.88541 0.88282 0.0
C974 C 0.42568 0.91064 0.88648 0.0
C975 C 0.42719 0.85269 0.88753 0.0
C976 C 0.40015 0.871 0.89958 0.0
C977 C 0.40957 0.8455 0.89579 0.0
C978 C 0.40816 0.90354 0.89478 0.0
C979 C 0.43847 0.96688 0.85366 0.0
O980 O 0.51157 0.96625 0.84109 0.0
O981 O 0.5186 0.94457 0.85457 0.0
O982 O 0.43098 0.91044 0.82514 0.0
O983 O 0.46147 0.96856 0.82973 0.0
O984 O 0.44633 0.8671 0.8356 0.0
O985 O 0.47812 0.89755 0.84656 0.0
O986 O 0.40054 0.86339 0.85533 0.0
O987 O 0.38898 0.88289 0.84206 0.0
O988 O 0.4755 0.92846 0.87177 0.0
O989 O 0.44153 0.86965 0.86797 0.0
O990 O 0.45988 0.97 0.86024 0.0
O991 O 0.42613 0.93506 0.85022 0.0
H992 H 0.45544 0.90273 0.81045 0.0
H993 H 0.47464 0.0145 0.8153 0.0
H994 H 0.49358 0.03115 0.79989 0.0
H995 H 0.47437 0.91934 0.7951 0.0
H996 H 0.43181 0.9361 0.883 0.0
H997 H 0.43489 0.83295 0.88489 0.0
H998 H 0.40433 0.82043 0.89932 0.0
H999 H 0.40087 0.92355 0.89743 0.0
Gd1000 Gd 0.09949 0.52977 0.83871 0.0
Gd1001 Gd 0.11306 0.55011 0.8594 0.0
C1002 C 0.05677 0.56995 0.84822 0.0
C1003 C 0.07124 0.49688 0.82378 0.0
C1004 C 0.05824 0.50022 0.81489 0.0
C1005 C 0.07778 0.53304 0.80979 0.0
C1006 C 0.02823 0.46818 0.81106 0.0
C1007 C 0.0395 0.5004 0.7969 0.0
C1008 C 0.01893 0.46823 0.80218 0.0
C1009 C 0.06839 0.53316 0.80088 0.0
C1010 C 0.15718 0.59925 0.84237 0.0
C1011 C 0.16273 0.52131 0.84911 0.0
C1012 C 0.13756 0.57999 0.87474 0.0
C1013 C 0.14416 0.5685 0.88352 0.0
C1014 C 0.12092 0.53201 0.88681 0.0
C1015 C 0.17386 0.59473 0.88877 0.0
C1016 C 0.15655 0.54856 0.90061 0.0
C1017 C 0.18004 0.58491 0.8972 0.0
C1018 C 0.12701 0.52217 0.89526 0.0
C1019 C 0.06492 0.47455 0.8565 0.0
O1020 O 0.06047 0.55325 0.84107 0.0
O1021 O 0.07551 0.57361 0.85566 0.0
O1022 O 0.10742 0.51685 0.82535 0.0
O1023 O 0.05036 0.49382 0.83064 0.0
O1024 O 0.15428 0.58091 0.83514 0.0
O1025 O 0.12697 0.58197 0.84676 0.0
O1026 O 0.16206 0.54328 0.8554 0.0
O1027 O 0.13627 0.50621 0.84295 0.0
O1028 O 0.10234 0.56557 0.87226 0.0
O1029 O 0.15993 0.58179 0.86832 0.0
O1030 O 0.07367 0.48951 0.86429 0.0
O1031 O 0.08201 0.50081 0.85115 0.0
H1032 H 0.10118 0.55813 0.81258 0.0
H1033 H 1.01283 0.44252 0.81486 0.0
H1034 H 0.9961 0.44273 0.79939 0.0
H1035 H 0.08492 0.55837 0.79701 0.0
H1036 H 0.09783 0.51119 0.88288 0.0
H1037 H 0.19226 0.62297 0.88635 0.0
H1038 H 0.20349 0.60582 0.90102 0.0
H1039 H 0.10807 0.49406 0.89766 0.0
Gd1040 Gd 0.49106 0.57249 0.83875 0.0
Gd1041 Gd 0.47513 0.56537 0.8584 0.0
C1042 C 0.45276 0.48937 0.84789 0.0
C1043 C 0.51979 0.57648 0.82323 0.0
C1044 C 0.51574 0.55832 0.81453 0.0
C1045 C 0.48261 0.54459 0.80951 0.0
C1046 C 0.54738 0.55934 0.81069 0.0
C1047 C 0.51403 0.53621 0.7967 0.0
C1048 C 0.54656 0.54837 0.80189 0.0
C1049 C 0.48178 0.53366 0.8007 0.0
C1050 C 0.42072 0.55789 0.84265 0.0
C1051 C 0.49989 0.6446 0.84863 0.0
C1052 C 0.45478 0.56658 0.8746 0.0
C1053 C 0.46802 0.58911 0.88284 0.0
C1054 C 0.50201 0.59714 0.88695 0.0
C1055 C 0.4449 0.60066 0.88701 0.0
C1056 C 0.48866 0.62663 0.89939 0.0
C1057 C 0.4551 0.61926 0.89516 0.0
C1058 C 0.51215 0.61562 0.89513 0.0
C1059 C 0.54702 0.58451 0.85385 0.0
O1060 O 0.47339 0.51112 0.84128 0.0
O1061 O 0.44504 0.50386 0.85485 0.0
O1062 O 0.49662 0.58872 0.82505 0.0
O1063 O 0.52839 0.5631 0.83015 0.0
O1064 O 0.43948 0.57609 0.83571 0.0
O1065 O 0.43816 0.54431 0.84668 0.0
O1066 O 0.48155 0.62211 0.85531 0.0
O1067 O 0.51292 0.63322 0.84206 0.0
O1068 O 0.47195 0.5486 0.87207 0.0
O1069 O 0.44564 0.58087 0.86798 0.0
O1070 O 0.52895 0.56333 0.86049 0.0
O1071 O 0.5272 0.59638 0.85038 0.0
H1072 H 0.45773 0.54349 0.81228 0.0
H1073 H 0.57339 0.57023 0.81438 0.0
H1074 H 0.57206 0.55113 0.79905 0.0
H1075 H 0.45604 0.52386 0.79696 0.0
H1076 H 0.52053 0.58868 0.88392 0.0
H1077 H 0.41841 0.59455 0.88403 0.0
H1078 H 0.43604 0.62685 0.89826 0.0
H1079 H 0.53844 0.62126 0.89812 0.0
Gd1080 Gd 0.59749 0.77819 0.02239 0.0
Gd1081 Gd 0.58401 0.78596 1.0017 0.0
C1082 C 0.64074 0.86142 1.01306 0.0
C1083 C 0.62538 0.7727 0.03731 0.0
C1084 C 0.63881 0.78853 0.04623 0.0
C1085 C 0.61871 0.80014 0.05167 0.0
C1086 C 0.66988 0.78751 0.04975 0.0
C1087 C 0.65861 0.80601 0.06424 0.0
C1088 C 0.6797 0.79615 0.05864 0.0
C1089 C 0.62862 0.80893 0.06058 0.0
C1090 C 0.54029 0.79086 0.01877 0.0
C1091 C 0.53394 0.70718 1.01189 0.0
C1092 C 0.55937 0.79177 0.9864 0.0
C1093 C 0.55257 0.77387 0.97759 0.0
C1094 C 0.57566 0.76057 0.97421 0.0
C1095 C 0.52279 0.77059 0.9724 0.0
C1096 C 0.53976 0.74191 0.96043 0.0
C1097 C 0.5164 0.75479 0.96394 0.0
C1098 C 0.56937 0.74482 0.96573 0.0
C1099 C 0.63197 0.75824 1.00441 0.0
O1100 O 0.637 0.84058 0.02013 0.0
O1101 O 0.6218 0.84685 1.00561 0.0
O1102 O 0.58925 0.75726 0.03575 0.0
O1103 O 0.6464 0.79027 0.03044 0.0
O1104 O 0.54287 0.77518 0.02599 0.0
O1105 O 0.57051 0.80353 0.01441 0.0
O1106 O 0.53484 0.73011 1.00564 0.0
O1107 O 0.56039 0.71812 0.01804 0.0
O1108 O 0.59463 0.81243 0.98886 0.0
O1109 O 0.53706 0.77115 0.99282 0.0
O1110 O 0.62331 0.76497 0.99667 0.0
O1111 O 0.61484 0.76705 1.00986 0.0
H1112 H 0.59449 0.80103 0.04913 0.0
H1113 H 0.68574 0.77853 0.04571 0.0
H1114 H 0.70337 0.79425 0.06118 0.0
H1115 H 0.61166 0.81626 0.0647 0.0
H1116 H 0.59881 0.76267 0.97809 0.0
H1117 H 0.50447 0.78045 0.97489 0.0
H1118 H 0.4929 0.75243 0.96017 0.0
H1119 H 0.58821 0.73563 0.96326 0.0
Gd1120 Gd 0.24713 0.82207 0.02264 0.0
Gd1121 Gd 0.23981 0.80514 1.00309 0.0
C1122 C 0.16387 0.78375 1.01358 0.0
C1123 C 0.2519 0.85208 0.038 0.0
C1124 C 0.23413 0.85005 0.04667 0.0
C1125 C 0.2219 0.81879 0.05228 0.0
C1126 C 0.23453 0.88224 0.04989 0.0
C1127 C 0.21468 0.85364 0.06446 0.0
C1128 C 0.22487 0.88402 0.05867 0.0
C1129 C 0.21218 0.82054 0.06108 0.0
C1130 C 0.23237 0.7517 0.01903 0.0
C1131 C 0.31883 0.82875 1.01282 0.0
C1132 C 0.23949 0.78345 0.98696 0.0
C1133 C 0.26017 0.79597 0.97847 0.0
C1134 C 0.26937 0.83063 0.9746 0.0
C1135 C 0.26848 0.77141 0.97386 0.0
C1136 C 0.29293 0.81483 0.96139 0.0
C1137 C 0.28472 0.78071 0.96544 0.0
C1138 C 0.28559 0.83995 0.96615 0.0
C1139 C 0.25977 0.87733 1.00737 0.0
O1140 O 0.18567 0.80487 0.02013 0.0
O1141 O 0.17841 0.77526 1.00677 0.0
O1142 O 0.26248 0.82747 0.0364 0.0
O1143 O 0.23968 0.86127 0.03097 0.0
O1144 O 0.2506 0.77079 0.02592 0.0
O1145 O 0.21867 0.7688 0.0149 0.0
O1146 O 0.29619 0.81057 1.00617 0.0
O1147 O 0.30783 0.84234 0.01936 0.0
O1148 O 0.22082 0.79982 0.98956 0.0
O1149 O 0.25585 0.77625 0.99347 0.0
O1150 O 0.23846 0.85914 1.00077 0.0
O1151 O 0.2714 0.85748 1.01093 0.0
H1152 H 0.22145 0.79358 0.05001 0.0
H1153 H 0.24402 0.90679 0.04572 0.0
H1154 H 0.22643 0.90969 0.06099 0.0
H1155 H 0.20464 0.79667 0.06535 0.0
H1156 H 0.26327 0.85016 0.97799 0.0
H1157 H 0.26169 0.74454 0.9767 0.0
H1158 H 0.29063 0.76097 0.96209 0.0
H1159 H 0.29125 0.86634 0.96324 0.0
Gd1160 Gd 0.20507 0.43104 0.02237 0.0
Gd1161 Gd 0.22115 0.43907 1.00276 0.0
C1162 C 0.24299 0.38544 1.01343 0.0
C1163 C 0.1758 0.40689 0.03785 0.0
C1164 C 0.1778 0.39151 0.04655 0.0
C1165 C 0.21064 0.40851 0.05174 0.0
C1166 C 0.14456 0.36241 0.05023 0.0
C1167 C 0.17574 0.36995 0.06441 0.0
C1168 C 0.14351 0.35172 0.05904 0.0
C1169 C 0.20963 0.39773 0.06057 0.0
C1170 C 0.27551 0.48641 0.01843 0.0
C1171 C 0.1968 0.49436 1.01232 0.0
C1172 C 0.24176 0.46006 0.98655 0.0
C1173 C 0.22876 0.46966 0.97831 0.0
C1174 C 0.19497 0.44383 0.97412 0.0
C1175 C 0.25188 0.50456 0.97426 0.0
C1176 C 0.20847 0.48732 0.96183 0.0
C1177 C 0.24185 0.51335 0.96614 0.0
C1178 C 0.185 0.45255 0.96597 0.0
C1179 C 0.14911 0.38681 1.00729 0.0
O1180 O 0.22241 0.38699 0.02001 0.0
O1181 O 0.25088 0.40742 1.00643 0.0
O1182 O 0.20085 0.44186 0.03613 0.0
O1183 O 0.16598 0.38507 0.03088 0.0
O1184 O 0.25663 0.48632 0.02531 0.0
O1185 O 0.25807 0.45522 0.01447 0.0
O1186 O 0.21481 0.4896 1.00565 0.0
O1187 O 0.1839 0.47043 0.01898 0.0
O1188 O 0.22398 0.42496 0.9891 0.0
O1189 O 0.2514 0.48365 0.99314 0.0
O1190 O 0.16727 0.38327 1.00073 0.0
O1191 O 0.16898 0.41863 1.01071 0.0
H1192 H 0.23668 0.43118 0.04909 0.0
H1193 H 0.11883 0.34899 0.04639 0.0
H1194 H 0.1171 0.32976 0.06172 0.0
H1195 H 0.23494 0.41248 0.06451 0.0
H1196 H 0.17645 0.41667 0.97706 0.0
H1197 H 0.27823 0.52485 0.9773 0.0
H1198 H 0.26088 0.54018 0.96312 0.0
H1199 H 0.15885 0.43201 0.9629 0.0
Gd1200 Gd 0.23952 0.43847 0.50301 0.0
Gd1201 Gd 0.24694 0.42958 0.5226 0.0
C1202 C 0.31902 0.49284 0.51261 0.0
C1203 C 0.23906 0.45971 0.48687 0.0
C1204 C 0.25969 0.468 0.47838 0.0
C1205 C 0.27055 0.44348 0.47467 0.0
C1206 C 0.26627 0.49994 0.4736 0.0
C1207 C 0.2923 0.48182 0.46129 0.0
C1208 C 0.28243 0.50683 0.46517 0.0
C1209 C 0.2867 0.45034 0.46621 0.0
C1210 C 0.25859 0.3857 0.50736 0.0
C1211 C 0.16379 0.38427 0.51355 0.0
C1212 C 0.25117 0.40591 0.53823 0.0
C1213 C 0.23341 0.39402 0.5471 0.0
C1214 C 0.24233 0.42086 0.55381 0.0
C1215 C 0.21173 0.35574 0.5493 0.0
C1216 C 0.21008 0.37148 0.56481 0.0
C1217 C 0.20006 0.34461 0.55804 0.0
C1218 C 0.2308 0.40977 0.56252 0.0
C1219 C 0.23214 0.48516 0.51875 0.0
O1220 O 0.29628 0.48894 0.50603 0.0
O1221 O 0.30779 0.46811 0.51912 0.0
O1222 O 0.22071 0.42468 0.48947 0.0
O1223 O 0.25531 0.48331 0.49338 0.0
O1224 O 0.23754 0.38288 0.50073 0.0
O1225 O 0.27059 0.41721 0.51093 0.0
O1226 O 0.18567 0.38497 0.52008 0.0
O1227 O 0.17822 0.40729 0.50673 0.0
O1228 O 0.26561 0.44133 0.53613 0.0
O1229 O 0.23599 0.38332 0.53147 0.0
O1230 O 0.25044 0.48468 0.52566 0.0
O1231 O 0.21846 0.45409 0.51477 0.0
H1232 H 0.26579 0.41858 0.47821 0.0
H1233 H 0.25818 0.51927 0.47631 0.0
H1234 H 0.28697 0.53175 0.46168 0.0
H1235 H 0.29368 0.43031 0.46344 0.0
H1236 H 0.25958 0.45059 0.55241 0.0
H1237 H 0.20475 0.3343 0.54433 0.0
H1238 H 0.1837 0.31488 0.5595 0.0
H1239 H 0.23968 0.43137 0.56753 0.0
Gd1240 Gd 0.58618 0.80557 0.50293 0.0
Gd1241 Gd 0.59577 0.82145 0.5226 0.0
C1242 C 0.53174 0.82997 0.51284 0.0
C1243 C 0.5645 0.78436 0.48679 0.0
C1244 C 0.55601 0.79686 0.47835 0.0
C1245 C 0.58223 0.83056 0.47419 0.0
C1246 C 0.52202 0.77302 0.47402 0.0
C1247 C 0.54131 0.81512 0.46129 0.0
C1248 C 0.51469 0.78204 0.46562 0.0
C1249 C 0.57494 0.83959 0.46576 0.0
C1250 C 0.63901 0.87726 0.50736 0.0
C1251 C 0.64041 0.78348 0.51326 0.0
C1252 C 0.62057 0.85026 0.53809 0.0
C1253 C 0.63611 0.84825 0.54678 0.0
C1254 C 0.61681 0.81706 0.55242 0.0
C1255 C 0.66791 0.88046 0.55003 0.0
C1256 C 0.6587 0.85197 0.56463 0.0
C1257 C 0.67913 0.88231 0.55883 0.0
C1258 C 0.62807 0.81888 0.56124 0.0
C1259 C 0.53973 0.75141 0.51868 0.0
O1260 O 0.53586 0.81189 0.50612 0.0
O1261 O 0.55622 0.8428 0.51942 0.0
O1262 O 0.59966 0.80087 0.48934 0.0
O1263 O 0.54101 0.77677 0.49336 0.0
O1264 O 0.64175 0.85936 0.50064 0.0
O1265 O 0.60754 0.85747 0.51097 0.0
O1266 O 0.63984 0.80421 0.51991 0.0
O1267 O 0.61741 0.77543 0.50646 0.0
O1268 O 0.58542 0.82554 0.53641 0.0
O1269 O 0.64225 0.86003 0.53108 0.0
O1270 O 0.54039 0.77002 0.52565 0.0
O1271 O 0.57081 0.76882 0.51466 0.0
H1272 H 0.60877 0.84953 0.47735 0.0
H1273 H 0.50135 0.74687 0.47707 0.0
H1274 H 0.48818 0.76284 0.46248 0.0
H1275 H 0.59623 0.86516 0.46263 0.0
H1276 H 0.59201 0.79186 0.55014 0.0
H1277 H 0.68317 0.90497 0.54586 0.0
H1278 H 0.70326 0.90799 0.56116 0.0
H1279 H 0.61155 0.79504 0.56551 0.0
Gd1280 Gd 0.21798 0.78378 0.50304 0.0
Gd1281 Gd 0.20248 0.77728 0.52264 0.0
C1282 C 0.19304 0.7048 0.51279 0.0
C1283 C 0.23863 0.78309 0.48686 0.0
C1284 C 0.22534 0.76145 0.47852 0.0
C1285 C 0.19086 0.75298 0.47462 0.0
C1286 C 0.24888 0.7512 0.47408 0.0
C1287 C 0.2045 0.72553 0.46182 0.0
C1288 C 0.23859 0.73339 0.46585 0.0
C1289 C 0.1806 0.73528 0.46635 0.0
C1290 C 0.14624 0.76516 0.50756 0.0
C1291 C 0.2403 0.85992 0.51336 0.0
C1292 C 0.17525 0.77366 0.53834 0.0
C1293 C 0.18196 0.79134 0.54722 0.0
C1294 C 0.19719 0.77957 0.55399 0.0
C1295 C 0.16885 0.8161 0.54937 0.0
C1296 C 0.1845 0.81541 0.56493 0.0
C1297 C 0.17026 0.82812 0.55811 0.0
C1298 C 0.1985 0.79146 0.5627 0.0
C1299 C 0.27274 0.79155 0.51869 0.0
O1300 O 0.21171 0.72722 0.50614 0.0
O1301 O 0.17983 0.71635 0.5193 0.0
O1302 O 0.22218 0.80169 0.48945 0.0
O1303 O 0.24669 0.76759 0.49341 0.0
O1304 O 0.16431 0.78596 0.50087 0.0
O1305 O 0.16586 0.75321 0.5111 0.0
O1306 O 0.21939 0.83848 0.51998 0.0
O1307 O 0.24847 0.84508 0.50656 0.0
O1308 O 0.19545 0.75841 0.53615 0.0
O1309 O 0.16823 0.78937 0.53162 0.0
O1310 O 0.25407 0.7736 0.52565 0.0
O1311 O 0.25533 0.8052 0.51469 0.0
H1312 H 0.17203 0.76046 0.47789 0.0
H1313 H 0.27574 0.7577 0.4769 0.0
H1314 H 0.25795 0.72678 0.46252 0.0
H1315 H 0.15393 0.72923 0.46351 0.0
H1316 H 0.20687 0.75991 0.55263 0.0
H1317 H 0.15649 0.82536 0.54435 0.0
H1318 H 0.15964 0.84695 0.55953 0.0
H1319 H 0.20905 0.78044 0.56774 0.0
Gd1320 Gd 0.10892 0.56611 0.35834 0.0
Gd1321 Gd 0.09965 0.57323 0.33876 0.0
C1322 C 0.16334 0.6454 0.34865 0.0
C1323 C 0.13048 0.56602 0.37445 0.0
C1324 C 0.13861 0.58679 0.3829 0.0
C1325 C 0.11383 0.5975 0.38655 0.0
C1326 C 0.17068 0.59377 0.38771 0.0
C1327 C 0.15223 0.61998 0.39991 0.0
C1328 C 0.17748 0.61022 0.39609 0.0
C1329 C 0.12059 0.61393 0.39496 0.0
C1330 C 0.05578 0.58484 0.35404 0.0
C1331 C 0.05505 0.49018 0.34789 0.0
C1332 C 0.0749 0.57709 0.32325 0.0
C1333 C 0.06109 0.5586 0.31457 0.0
C1334 C 0.08138 0.54592 0.30953 0.0
C1335 C 0.0297 0.55816 0.31076 0.0
C1336 C 0.04078 0.53558 0.2968 0.0
C1337 C 0.01957 0.54671 0.302 0.0
C1338 C 0.07133 0.53456 0.30075 0.0
C1339 C 0.15572 0.559 0.34256 0.0
O1340 O 0.15919 0.62287 0.3553 0.0
O1341 O 0.13891 0.63405 0.34207 0.0
O1342 O 0.09537 0.54734 0.37188 0.0
O1343 O 0.15401 0.58232 0.36792 0.0
O1344 O 0.05313 0.56381 0.36066 0.0
O1345 O 0.08734 0.59693 0.35043 0.0
O1346 O 0.05564 0.51176 0.3413 0.0
O1347 O 0.07799 0.5049 0.3547 0.0
O1348 O 0.11041 0.58988 0.32509 0.0
O1349 O 0.05285 0.56347 0.33016 0.0
O1350 O 0.15504 0.57718 0.33564 0.0
O1351 O 0.12461 0.54519 0.34658 0.0
H1352 H 0.08882 0.59244 0.383 0.0
H1353 H 0.19021 0.58581 0.38504 0.0
H1354 H 0.20253 0.61511 0.3996 0.0
H1355 H 0.10037 0.6208 0.39769 0.0
H1356 H 0.10577 0.54595 0.31228 0.0
H1357 H 1.01387 0.56821 0.31446 0.0
H1358 H 0.99614 0.54827 0.29918 0.0
H1359 H 0.08794 0.52559 0.297 0.0
Gd1360 Gd 0.45584 0.546 0.35803 0.0
Gd1361 Gd 0.44871 0.53014 0.33845 0.0
C1362 C 0.37634 0.52066 0.34842 0.0
C1363 C 0.45553 0.5668 0.37422 0.0
C1364 C 0.43426 0.55344 0.38261 0.0
C1365 C 0.42594 0.51897 0.38646 0.0
C1366 C 0.4242 0.57688 0.38716 0.0
C1367 C 0.39909 0.53244 0.39942 0.0
C1368 C 0.40677 0.56651 0.39544 0.0
C1369 C 0.40862 0.50864 0.39478 0.0
C1370 C 0.43759 0.47446 0.35362 0.0
C1371 C 0.53175 0.56804 0.34756 0.0
C1372 C 0.44476 0.5029 0.32275 0.0
C1373 C 0.46213 0.5094 0.31382 0.0
C1374 C 0.44967 0.52395 0.30704 0.0
C1375 C 0.48724 0.49672 0.31164 0.0
C1376 C 0.48556 0.51143 0.29605 0.0
C1377 C 0.49894 0.49787 0.30287 0.0
C1378 C 0.46124 0.52501 0.2983 0.0
C1379 C 0.46311 0.60036 0.34239 0.0
O1380 O 0.39901 0.53954 0.35501 0.0
O1381 O 0.38775 0.50732 0.34191 0.0
O1382 O 0.47447 0.55076 0.37158 0.0
O1383 O 0.43945 0.57438 0.36771 0.0
O1384 O 0.45865 0.49286 0.36023 0.0
O1385 O 0.42516 0.49366 0.35006 0.0
O1386 O 0.50999 0.54683 0.34102 0.0
O1387 O 0.51716 0.57658 0.35435 0.0
O1388 O 0.42949 0.52304 0.32497 0.0
O1389 O 0.46073 0.49603 0.32943 0.0
O1390 O 0.44492 0.58167 0.33546 0.0
O1391 O 0.4769 0.583 0.34634 0.0
H1392 H 0.43328 0.50022 0.38312 0.0
H1393 H 0.43057 0.60371 0.38437 0.0
H1394 H 0.40032 0.58579 0.39884 0.0
H1395 H 0.40269 0.48198 0.39758 0.0
H1396 H 0.42971 0.53326 0.30841 0.0
H1397 H 0.49703 0.48489 0.31666 0.0
H1398 H 0.51807 0.4876 0.30144 0.0
H1399 H 0.4497 0.53502 0.29326 0.0
Gd1400 Gd 0.47575 0.91233 0.35812 0.0
Gd1401 Gd 0.49292 0.92192 0.33862 0.0
C1402 C 0.50186 0.85883 0.34853 0.0
C1403 C 0.45405 0.8906 0.37425 0.0
C1404 C 0.46718 0.88262 0.38265 0.0
C1405 C 0.5032 0.90701 0.38608 0.0
C1406 C 0.44222 0.85093 0.38758 0.0
C1407 C 0.4884 0.86866 0.39942 0.0
C1408 C 0.45267 0.84397 0.39585 0.0
C1409 C 0.51365 0.90014 0.39439 0.0
C1410 C 0.54775 0.96583 0.35395 0.0
C1411 C 0.45436 0.96648 0.34768 0.0
C1412 C 0.52121 0.94641 0.32305 0.0
C1413 C 0.51462 0.95756 0.3142 0.0
C1414 C 0.48649 0.93132 0.30855 0.0
C1415 C 0.53998 0.99343 0.31087 0.0
C1416 C 0.51123 0.97564 0.29627 0.0
C1417 C 0.53821 1.00246 0.30203 0.0
C1418 C 0.48488 0.94025 0.2997 0.0
C1419 C 0.42235 0.86574 0.34224 0.0
O1420 O 0.48243 0.86222 0.35506 0.0
O1421 O 0.51568 0.88387 0.34209 0.0
O1422 O 0.4702 0.92563 0.37167 0.0
O1423 O 0.44692 0.86722 0.3677 0.0
O1424 O 0.52896 0.96825 0.36052 0.0
O1425 O 0.52866 0.93435 0.35033 0.0
O1426 O 0.47606 0.96625 0.34121 0.0
O1427 O 0.44531 0.94308 0.35442 0.0
O1428 O 0.50148 0.91087 0.32516 0.0
O1429 O 0.52739 0.96884 0.32978 0.0
O1430 O 0.4417 0.86676 0.33538 0.0
O1431 O 0.43931 0.89666 0.34631 0.0
H1432 H 0.52312 0.93164 0.38241 0.0
H1433 H 0.41422 0.83186 0.3851 0.0
H1434 H 0.43228 0.81974 0.39956 0.0
H1435 H 0.54156 0.91948 0.39687 0.0
H1436 H 0.46649 0.90336 0.31087 0.0
H1437 H 0.56223 0.01404 0.31503 0.0
H1438 H 0.55914 0.02987 0.2996 0.0
H1439 H 0.46337 0.91912 0.29549 0.0
H1440 H 0.15935 0.18414 0.19098 0.0
H1441 H 0.18817 0.02479 0.16802 0.0
H1442 H 0.13382 0.15193 0.16366 0.0
H1443 H 0.15828 0.01883 0.19554 0.0
H1444 H 0.18501 0.08252 0.16662 0.0
H1445 H 0.17443 0.13351 0.193 0.0
C1446 C 0.15728 0.16668 0.18541 0.0
C1447 C 0.14512 0.17198 0.17716 0.0
C1448 C 0.17962 0.06877 0.17298 0.0
C1449 C 0.16294 0.11499 0.17936 0.0
C1450 C 0.18169 0.03599 0.17381 0.0
C1451 C 0.17323 0.01678 0.1819 0.0
C1452 C 0.1696 0.08283 0.18032 0.0
C1453 C 0.16472 0.03256 0.18916 0.0
C1454 C 0.16578 0.13786 0.18657 0.0
C1455 C 0.14285 0.14863 0.17015 0.0
N1456 N 0.16302 0.06463 0.1882 0.0
N1457 N 0.15179 0.1213 0.17139 0.0
H1458 H 1.00069 0.16166 0.16741 0.0
H1459 H 0.84127 0.9751 0.19087 0.0
H1460 H 1.00729 0.14096 0.19511 0.0
H1461 H 0.87465 0.98054 0.16366 0.0
H1462 H 0.89259 0.04063 0.19285 0.0
H1463 H 0.94353 0.10026 0.16627 0.0
C1464 C 0.98981 0.14453 0.17329 0.0
C1465 C 1.00903 0.15642 0.18136 0.0
C1466 C 0.8884 0.02733 0.18646 0.0
C1467 C 0.94352 0.08601 0.18007 0.0
C1468 C 0.85924 0.99008 0.18533 0.0
C1469 C 0.85396 0.97234 0.17712 0.0
C1470 C 0.91157 0.04699 0.17925 0.0
C1471 C 0.87785 0.99302 0.17012 0.0
C1472 C 0.95731 0.10937 0.17262 0.0
C1473 C 0.99355 0.1328 0.18875 0.0
N1474 N 0.9054 0.0292 0.17133 0.0
N1475 N 0.96173 0.09863 0.18793 0.0
H1476 H 0.04529 0.8986 0.16324 0.0
H1477 H 0.88079 0.86481 0.1957 0.0
H1478 H 0.04721 0.86796 0.19039 0.0
H1479 H 0.8631 0.84283 0.16775 0.0
H1480 H 0.94248 0.8693 0.19428 0.0
H1481 H 0.97991 0.88279 0.16506 0.0
C1482 C 0.03192 0.88851 0.16961 0.0
C1483 C 0.05179 0.88471 0.17669 0.0
C1484 C 0.92483 0.86293 0.18849 0.0
C1485 C 0.97673 0.86686 0.17884 0.0
C1486 C 0.88963 0.86039 0.18928 0.0
C1487 C 0.86671 0.8535 0.18182 0.0
C1488 C 0.93763 0.85944 0.18015 0.0
C1489 C 0.87966 0.84801 0.17368 0.0
C1490 C 0.99447 0.87927 0.17062 0.0
C1491 C 0.0329 0.87137 0.18477 0.0
N1492 N 0.91447 0.85171 0.17304 0.0
N1493 N 0.99648 0.86333 0.18567 0.0
H1494 H 0.18912 0.15119 0.33678 0.0
H1495 H 0.03039 0.17945 0.36043 0.0
H1496 H 0.15747 0.1251 0.36413 0.0
H1497 H 0.02438 0.1525 0.33272 0.0
H1498 H 0.08785 0.17562 0.36161 0.0
H1499 H 0.13842 0.16641 0.33494 0.0
C1500 C 0.17175 0.149 0.34239 0.0
C1501 C 0.17726 0.13668 0.3506 0.0
C1502 C 0.07415 0.17097 0.35525 0.0
C1503 C 0.1202 0.15463 0.34861 0.0
C1504 C 0.04148 0.1734 0.35455 0.0
C1505 C 0.02234 0.16601 0.34648 0.0
C1506 C 0.08814 0.16158 0.34779 0.0
C1507 C 0.03805 0.1581 0.3391 0.0
C1508 C 0.1429 0.15758 0.34134 0.0
C1509 C 0.15403 0.13425 0.35767 0.0
N1510 N 0.06999 0.15598 0.33993 0.0
N1511 N 0.12667 0.14326 0.35653 0.0
H1512 H 0.86838 0.87385 0.33261 0.0
H1513 H 0.90072 0.03841 0.3647 0.0
H1514 H 0.84677 0.85724 0.36061 0.0
H1515 H 0.87105 0.03968 0.33745 0.0
H1516 H 0.88489 0.97311 0.36305 0.0
H1517 H 0.87217 0.93515 0.33386 0.0
C1518 C 0.86392 0.88284 0.339 0.0
C1519 C 0.85738 0.86039 0.34653 0.0
C1520 C 0.8815 0.98747 0.35744 0.0
C1521 C 0.86241 0.93075 0.34801 0.0
C1522 C 0.89072 0.02485 0.35836 0.0
C1523 C 0.8872 0.04446 0.35119 0.0
C1524 C 0.86944 0.96962 0.34923 0.0
C1525 C 0.87405 0.02544 0.34313 0.0
C1526 C 0.86604 0.9178 0.33969 0.0
C1527 C 0.85178 0.87349 0.35463 0.0
N1528 N 0.86607 0.98911 0.34233 0.0
N1529 N 0.85501 0.90802 0.35517 0.0
H1530 H 0.98226 0.83398 0.33706 0.0
H1531 H 0.16888 0.99335 0.3606 0.0
H1532 H 0.9873 0.86658 0.36432 0.0
H1533 H 0.14842 0.99822 0.33282 0.0
H1534 H 0.10761 0.93595 0.36183 0.0
H1535 H 0.0483 0.88447 0.3352 0.0
C1536 C 0.99735 0.85152 0.34265 0.0
C1537 C 0.97935 0.84635 0.35083 0.0
C1538 C 0.11677 0.9494 0.35545 0.0
C1539 C 0.05448 0.90316 0.34883 0.0
C1540 C 0.15185 0.98202 0.35473 0.0
C1541 C 0.16372 1.00083 0.34661 0.0
C1542 C 0.09352 0.93511 0.34799 0.0
C1543 C 0.14025 0.98481 0.33922 0.0
C1544 C 0.03485 0.88025 0.34159 0.0
C1545 C 1.00003 0.86977 0.35788 0.0
N1546 N 0.10619 0.95292 0.34009 0.0
N1547 N 0.03646 0.897 0.35672 0.0
H1548 H 0.87261 0.83501 0.83681 0.0
H1549 H 0.84197 0.99295 0.85974 0.0
H1550 H 0.89764 0.8674 0.86414 0.0
H1551 H 0.87402 1.00122 0.83232 0.0
H1552 H 0.84565 0.93561 0.86102 0.0
H1553 H 0.85786 0.88585 0.83469 0.0
C1554 C 0.87463 0.85255 0.84236 0.0
C1555 C 0.8865 0.84721 0.85065 0.0
C1556 C 0.85145 0.94978 0.8547 0.0
C1557 C 0.86908 0.9044 0.84833 0.0
C1558 C 0.84911 0.98239 0.85394 0.0
C1559 C 0.85796 1.00215 0.84593 0.0
C1560 C 0.8622 0.9364 0.84737 0.0
C1561 C 0.86723 0.98705 0.83865 0.0
C1562 C 0.86634 0.88149 0.84115 0.0
C1563 C 0.8888 0.8707 0.85763 0.0
N1564 N 0.86922 0.9551 0.83955 0.0
N1565 N 0.88001 0.89809 0.85633 0.0
H1566 H 0.18924 0.04292 0.8368 0.0
H1567 H 0.02969 0.85735 0.86053 0.0
H1568 H 0.15459 0.03928 0.86385 0.0
H1569 H 0.02314 0.8766 0.83274 0.0
H1570 H 0.08649 0.91912 0.86158 0.0
H1571 H 0.13793 0.9773 0.83495 0.0
C1572 C 0.17096 0.02834 0.84233 0.0
C1573 C 0.17591 0.04662 0.85046 0.0
C1574 C 0.07281 0.90961 0.85524 0.0
C1575 C 0.11834 0.9718 0.84848 0.0
C1576 C 0.04053 0.87423 0.85461 0.0
C1577 C 0.02143 0.86182 0.84654 0.0
C1578 C 0.08653 0.93264 0.84773 0.0
C1579 C 0.03681 0.88516 0.83911 0.0
C1580 C 0.14182 0.99102 0.84127 0.0
C1581 C 0.15166 0.02639 0.85744 0.0
N1582 N 0.06845 0.91952 0.83987 0.0
N1583 N 0.12415 0.99012 0.85631 0.0
H1584 H 0.98801 0.12413 0.86416 0.0
H1585 H 0.15152 0.15692 0.83172 0.0
H1586 H 0.98607 0.15491 0.83703 0.0
H1587 H 0.17002 0.17941 0.85964 0.0
H1588 H 0.09051 0.15387 0.83317 0.0
H1589 H 0.05372 0.14093 0.8624 0.0
C1590 C 1.00151 0.13459 0.85783 0.0
C1591 C 0.98157 0.13807 0.85072 0.0
C1592 C 0.10823 0.16009 0.83894 0.0
C1593 C 0.05686 0.15692 0.84863 0.0
C1594 C 0.14302 0.16179 0.83813 0.0
C1595 C 0.16588 0.16829 0.84559 0.0
C1596 C 0.09579 0.16404 0.84729 0.0
C1597 C 0.15343 0.17445 0.85372 0.0
C1598 C 0.03912 0.14437 0.85685 0.0
C1599 C 1.00053 0.15187 0.84267 0.0
N1600 N 0.11897 0.17152 0.85438 0.0
N1601 N 0.03707 0.16032 0.8418 0.0
H1602 H 0.84042 0.86788 0.69108 0.0
H1603 H 1.00092 0.84212 0.66772 0.0
H1604 H 0.87533 0.89831 0.66403 0.0
H1605 H 1.00731 0.86954 0.69541 0.0
H1606 H 0.94361 0.84621 0.66655 0.0
H1607 H 0.89178 0.85368 0.69304 0.0
C1608 C 0.85876 0.87145 0.68557 0.0
C1609 C 0.85391 0.88462 0.67741 0.0
C1610 C 0.95736 0.8509 0.6729 0.0
C1611 C 0.91152 0.8675 0.67951 0.0
C1612 C 0.98993 0.84831 0.6736 0.0
C1613 C 1.00913 0.85576 0.68167 0.0
C1614 C 0.94349 0.86045 0.68035 0.0
C1615 C 0.99356 0.86387 0.68905 0.0
C1616 C 0.88792 0.86334 0.68669 0.0
C1617 C 0.87821 0.88848 0.67045 0.0
N1618 N 0.96167 0.8661 0.68821 0.0
N1619 N 0.90576 0.8798 0.67165 0.0
H1620 H 0.16104 0.14633 0.69614 0.0
H1621 H 0.13283 0.98537 0.66352 0.0
H1622 H 0.1867 0.16644 0.66836 0.0
H1623 H 0.15998 0.98178 0.69087 0.0
H1624 H 0.14926 0.05079 0.66537 0.0
H1625 H 0.15847 0.08568 0.69469 0.0
C1626 C 0.16671 0.13826 0.68976 0.0
C1627 C 0.17395 0.16146 0.68234 0.0
C1628 C 0.152 0.0359 0.67096 0.0
C1629 C 0.17025 0.09179 0.68063 0.0
C1630 C 0.14243 0.99846 0.66993 0.0
C1631 C 0.14501 0.97815 0.67707 0.0
C1632 C 0.16342 0.05308 0.67926 0.0
C1633 C 0.1577 0.99656 0.68521 0.0
C1634 C 0.16528 0.10367 0.68896 0.0
C1635 C 0.18114 0.14957 0.67426 0.0
N1636 N 0.16596 0.03293 0.68612 0.0
N1637 N 0.17846 0.1153 0.67359 0.0
H1638 H 0.8595 0.0231 0.66828 0.0
H1639 H 0.04704 0.18378 0.69119 0.0
H1640 H 0.8816 0.01775 0.69593 0.0
H1641 H 0.04198 0.14854 0.66416 0.0
H1642 H 0.98141 0.13266 0.69326 0.0
H1643 H 0.92112 0.08014 0.6669 0.0
C1644 C 0.87693 0.03429 0.6741 0.0
C1645 C 0.86539 0.01544 0.68222 0.0
C1646 C 0.9948 0.13638 0.68688 0.0
C1647 C 0.936 0.08079 0.68068 0.0
C1648 C 0.03214 0.16543 0.68571 0.0
C1649 C 0.05007 0.17014 0.67752 0.0
C1650 C 0.97513 0.11272 0.67975 0.0
C1651 C 0.02938 0.14578 0.6706 0.0
C1652 C 0.91223 0.06669 0.67329 0.0
C1653 C 0.88946 0.03122 0.68953 0.0
N1654 N 0.99307 0.11834 0.67186 0.0
N1655 N 0.92366 0.06295 0.68859 0.0
H1656 H 0.85056 0.35828 0.50078 0.0
H1657 H 0.8226 0.51694 0.52428 0.0
H1658 H 0.82325 0.35199 0.52849 0.0
H1659 H 0.79475 0.48409 0.49706 0.0
H1660 H 0.83768 0.46625 0.52616 0.0
H1661 H 0.84631 0.41537 0.49959 0.0
C1662 C 0.84432 0.36922 0.50665 0.0
C1663 C 0.83698 0.35012 0.51473 0.0
C1664 C 0.82848 0.47045 0.51978 0.0
C1665 C 0.83211 0.41553 0.51339 0.0
C1666 C 0.81998 0.4993 0.51871 0.0
C1667 C 0.80723 0.50448 0.51052 0.0
C1668 C 0.82505 0.44745 0.51256 0.0
C1669 C 0.80426 0.48091 0.50349 0.0
C1670 C 0.84166 0.40168 0.50595 0.0
C1671 C 0.82884 0.36565 0.52211 0.0
N1672 N 0.81324 0.45358 0.50466 0.0
N1673 N 0.82652 0.39743 0.52126 0.0
H1674 H 0.53822 0.31309 0.49633 0.0
H1675 H 0.66933 0.47661 0.52876 0.0
H1676 H 0.50627 0.31038 0.52357 0.0
H1677 H 0.66412 0.49461 0.50085 0.0
H1678 H 0.61196 0.4151 0.52739 0.0
H1679 H 0.58742 0.37851 0.49814 0.0
C1680 C 0.54151 0.32636 0.5027 0.0
C1681 C 0.51818 0.30633 0.50982 0.0
C1682 C 0.62311 0.43281 0.52161 0.0
C1683 C 0.57492 0.38126 0.51197 0.0
C1684 C 0.65586 0.46789 0.52237 0.0
C1685 C 0.67168 0.49079 0.51489 0.0
C1686 C 0.60656 0.4202 0.51328 0.0
C1687 C 0.65296 0.47801 0.50679 0.0
C1688 C 0.5695 0.36379 0.50371 0.0
C1689 C 0.52368 0.32496 0.51792 0.0
N1690 N 0.62177 0.44337 0.50618 0.0
N1691 N 0.55188 0.36135 0.51882 0.0
H1692 H 0.5263 0.17104 0.50051 0.0
H1693 H 0.71328 0.19968 0.52417 0.0
H1694 H 0.54711 0.19839 0.5282 0.0
H1695 H 0.70827 0.22642 0.49685 0.0
H1696 H 0.64725 0.18432 0.52599 0.0
H1697 H 0.58773 0.17513 0.49934 0.0
C1698 C 0.54344 0.17723 0.50638 0.0
C1699 C 0.5316 0.18464 0.51445 0.0
C1700 C 0.6607 0.19332 0.5196 0.0
C1701 C 0.60199 0.18935 0.51315 0.0
C1702 C 0.69819 0.20197 0.51856 0.0
C1703 C 0.7162 0.21451 0.51037 0.0
C1704 C 0.64107 0.19641 0.51234 0.0
C1705 C 0.69552 0.21709 0.5033 0.0
C1706 C 0.57862 0.17981 0.5057 0.0
C1707 C 0.55523 0.19274 0.52183 0.0
N1708 N 0.65909 0.20799 0.50444 0.0
N1709 N 0.58937 0.19499 0.521 0.0
H1710 H 0.85715 0.48821 0.66984 0.0
H1711 H 0.69751 0.51618 0.6932 0.0
H1712 H 0.82572 0.46302 0.69723 0.0
H1713 H 0.69124 0.48718 0.66563 0.0
H1714 H 0.75551 0.51328 0.69446 0.0
H1715 H 0.80623 0.50309 0.66792 0.0
C1716 C 0.83982 0.48619 0.67545 0.0
C1717 C 0.84544 0.47417 0.68368 0.0
C1718 C 0.74165 0.50802 0.68811 0.0
C1719 C 0.78808 0.49175 0.6816 0.0
C1720 C 0.70869 0.50996 0.68737 0.0
C1721 C 0.68929 0.50168 0.67931 0.0
C1722 C 0.75572 0.4983 0.68072 0.0
C1723 C 0.7051 0.49348 0.67199 0.0
C1724 C 0.81082 0.49457 0.67435 0.0
C1725 C 0.8222 0.47193 0.69074 0.0
N1726 N 0.73733 0.4919 0.67287 0.0
N1727 N 0.79471 0.48075 0.68955 0.0
H1728 H 0.54181 0.20986 0.66529 0.0
H1729 H 0.57274 0.3727 0.69771 0.0
H1730 H 0.51529 0.19111 0.69306 0.0
H1731 H 0.54179 0.37532 0.67062 0.0
H1732 H 0.5577 0.30781 0.69573 0.0
H1733 H 0.54643 0.27162 0.6666 0.0
C1734 C 0.53644 0.21846 0.67163 0.0
C1735 C 0.52824 0.19524 0.67909 0.0
C1736 C 0.55398 0.32243 0.69022 0.0
C1737 C 0.5343 0.26608 0.68064 0.0
C1738 C 0.56277 0.3596 0.69132 0.0
C1739 C 0.5586 0.37949 0.68431 0.0
C1740 C 0.54166 0.30502 0.68197 0.0
C1741 C 0.54546 0.36096 0.67619 0.0
C1742 C 0.53905 0.25367 0.67236 0.0
C1743 C 0.52158 0.20791 0.68713 0.0
N1744 N 0.53785 0.32479 0.6752 0.0
N1745 N 0.52534 0.24264 0.68772 0.0
H1746 H 0.81818 0.33678 0.66562 0.0
H1747 H 0.65585 0.20089 0.69776 0.0
H1748 H 0.83628 0.32976 0.69346 0.0
H1749 H 0.6535 0.17162 0.67033 0.0
H1750 H 0.72104 0.25076 0.69603 0.0
H1751 H 0.75738 0.27841 0.66681 0.0
C1752 C 0.80963 0.32275 0.67196 0.0
C1753 C 0.8323 0.33835 0.67947 0.0
C1754 C 0.70649 0.23328 0.6904 0.0
C1755 C 0.76261 0.27202 0.68087 0.0
C1756 C 0.66918 0.2049 0.69136 0.0
C1757 C 0.6493 0.18217 0.68416 0.0
C1758 C 0.72398 0.23972 0.68212 0.0
C1759 C 0.668 0.18856 0.67604 0.0
C1760 C 0.77498 0.28941 0.67261 0.0
C1761 C 0.81981 0.31885 0.68749 0.0
N1762 N 0.70427 0.21718 0.67519 0.0
N1763 N 0.7856 0.28706 0.688 0.0
H1764 H 0.53951 0.16822 0.16979 0.0
H1765 H 0.51006 0.32647 0.19299 0.0
H1766 H 0.56685 0.20162 0.197 0.0
H1767 H 0.53975 0.33388 0.16542 0.0
H1768 H 0.51404 0.26926 0.19421 0.0
H1769 H 0.52423 0.21877 0.16778 0.0
C1770 C 0.54195 0.18593 0.17534 0.0
C1771 C 0.55463 0.18097 0.18356 0.0
C1772 C 0.51924 0.2832 0.18787 0.0
C1773 C 0.53658 0.23779 0.18138 0.0
C1774 C 0.51672 0.31574 0.18715 0.0
C1775 C 0.52485 0.33522 0.17911 0.0
C1776 C 0.52943 0.26964 0.18048 0.0
C1777 C 0.53354 0.31993 0.17177 0.0
C1778 C 0.53335 0.2147 0.17419 0.0
C1779 C 0.5574 0.20464 0.19054 0.0
N1780 N 0.53572 0.28807 0.17263 0.0
N1781 N 0.5483 0.23184 0.18931 0.0
H1782 H 0.85726 0.37487 0.16995 0.0
H1783 H 0.6987 0.18715 0.19325 0.0
H1784 H 0.8249 0.36836 0.19728 0.0
H1785 H 0.69115 0.20925 0.16569 0.0
H1786 H 0.75608 0.24833 0.19444 0.0
H1787 H 0.80629 0.30917 0.16794 0.0
C1788 C 0.8397 0.35953 0.17552 0.0
C1789 C 0.8451 0.37703 0.18378 0.0
C1790 C 0.74206 0.23957 0.18811 0.0
C1791 C 0.78774 0.30226 0.18159 0.0
C1792 C 0.70942 0.20452 0.18741 0.0
C1793 C 0.68985 0.19307 0.17937 0.0
C1794 C 0.75567 0.26329 0.18071 0.0
C1795 C 0.70516 0.21703 0.17203 0.0
C1796 C 0.81068 0.32223 0.17437 0.0
C1797 C 0.82158 0.35603 0.19079 0.0
N1798 N 0.73713 0.25109 0.17288 0.0
N1799 N 0.79413 0.3198 0.18955 0.0
H1800 H 0.83725 0.51271 0.19374 0.0
H1801 H 0.65145 0.486 0.1699 0.0
H1802 H 0.8174 0.48657 0.16597 0.0
H1803 H 0.65549 0.45736 0.19711 0.0
H1804 H 0.71754 0.50142 0.16814 0.0
H1805 H 0.77602 0.50904 0.19482 0.0
C1806 C 0.82036 0.50686 0.18783 0.0
C1807 C 0.83238 0.49963 0.17977 0.0
C1808 C 0.70385 0.49199 0.17449 0.0
C1809 C 0.76223 0.49541 0.18097 0.0
C1810 C 0.66634 0.4833 0.1755 0.0
C1811 C 0.64806 0.47021 0.18364 0.0
C1812 C 0.72319 0.48838 0.18174 0.0
C1813 C 0.66846 0.46712 0.1907 0.0
C1814 C 0.78531 0.50454 0.18847 0.0
C1815 C 0.8091 0.49203 0.17234 0.0
N1816 N 0.7049 0.47627 0.1896 0.0
N1817 N 0.77504 0.48998 0.17312 0.0
H1818 H 0.66616 0.17461 1.00053 0.0
H1819 H 0.50691 0.20235 0.02394 0.0
H1820 H 0.67231 0.20101 0.02828 0.0
H1821 H 0.54175 0.23225 0.99687 0.0
H1822 H 0.55782 0.18748 0.0259 0.0
H1823 H 0.60938 0.17964 0.99936 0.0
C1824 C 0.65523 0.18078 1.00642 0.0
C1825 C 0.67422 0.18765 0.0145 0.0
C1826 C 0.55405 0.19718 0.01954 0.0
C1827 C 0.60917 0.19346 1.01319 0.0
C1828 C 0.52514 0.20567 0.01843 0.0
C1829 C 0.52037 0.21885 1.01026 0.0
C1830 C 0.5775 0.20101 1.01237 0.0
C1831 C 0.54455 0.22242 1.0033 0.0
C1832 C 0.62296 0.18391 1.00573 0.0
C1833 C 0.65872 0.19576 0.0219 0.0
N1834 N 0.57186 0.21338 1.0045 0.0
N1835 N 0.62713 0.19855 0.02107 0.0
H1836 H 0.7986 0.31663 0.99651 0.0
H1837 H 0.82387 0.47719 0.029 0.0
H1838 H 0.82349 0.31215 0.02399 0.0
H1839 H 0.85212 0.49705 1.00132 0.0
H1840 H 0.82073 0.41614 0.02772 0.0
H1841 H 0.8142 0.38171 0.99843 0.0
C1842 C 0.80753 0.32946 1.00296 0.0
C1843 C 0.80974 0.309 1.01011 0.0
C1844 C 0.82817 0.43418 0.02197 0.0
C1845 C 0.82717 0.38358 1.01238 0.0
C1846 C 0.82991 0.46899 0.02268 0.0
C1847 C 0.83809 0.49225 0.01524 0.0
C1848 C 0.83386 0.42226 1.01372 0.0
C1849 C 0.84572 0.48014 1.00724 0.0
C1850 C 0.81661 0.36671 1.00403 0.0
C1851 C 0.82154 0.32708 0.01831 0.0
N1852 N 0.84285 0.44579 1.00666 0.0
N1853 N 0.82936 0.36331 0.01927 0.0
H1854 H 0.5252 0.35853 1.00105 0.0
H1855 H 0.71236 0.51791 0.02449 0.0
H1856 H 0.54676 0.3532 0.02874 0.0
H1857 H 0.70734 0.48509 0.99726 0.0
H1858 H 0.6462 0.46764 0.02633 0.0
H1859 H 0.58637 0.41622 0.99978 0.0
C1860 C 0.54241 0.36987 1.0069 0.0
C1861 C 0.53093 0.35083 0.015 0.0
C1862 C 0.65967 0.47179 0.01995 0.0
C1863 C 0.60095 0.41683 1.01358 0.0
C1864 C 0.69724 0.5004 0.0189 0.0
C1865 C 0.71531 0.50541 1.01073 0.0
C1866 C 0.64001 0.44884 1.01272 0.0
C1867 C 0.69456 0.482 1.00369 0.0
C1868 C 0.57743 0.40263 1.00616 0.0
C1869 C 0.55464 0.36679 0.02235 0.0
N1870 N 0.65806 0.45489 1.00483 0.0
N1871 N 0.58859 0.39881 0.02147 0.0
H1872 H 0.48975 0.84964 0.85775 0.0
H1873 H 0.51776 0.69086 0.83429 0.0
H1874 H 0.46414 0.81804 0.83039 0.0
H1875 H 0.48875 0.68374 0.8619 0.0
H1876 H 0.51446 0.74845 0.83312 0.0
H1877 H 0.50436 0.79862 0.85969 0.0
C1878 C 0.48757 0.83223 0.85216 0.0
C1879 C 0.47556 0.83784 0.84392 0.0
C1880 C 0.50923 0.73447 0.83946 0.0
C1881 C 0.49279 0.78042 0.84603 0.0
C1882 C 0.51133 0.70171 0.84015 0.0
C1883 C 0.50323 0.68222 0.84819 0.0
C1884 C 0.49943 0.74824 0.84688 0.0
C1885 C 0.49491 0.69769 0.85555 0.0
C1886 C 0.49578 0.80319 0.85327 0.0
C1887 C 0.47308 0.81453 0.83687 0.0
N1888 N 0.4931 0.72976 0.85472 0.0
N1889 N 0.48175 0.78702 0.83808 0.0
H1890 H 0.20685 0.64558 0.83012 0.0
H1891 H 0.33866 0.81041 0.86225 0.0
H1892 H 0.17501 0.64341 0.85736 0.0
H1893 H 0.33232 0.82705 0.83432 0.0
H1894 H 0.28158 0.74852 0.86105 0.0
H1895 H 0.25644 0.71072 0.8319 0.0
C1896 C 0.2103 0.65884 0.8365 0.0
C1897 C 0.18679 0.63898 0.84362 0.0
C1898 C 0.29242 0.76601 0.85523 0.0
C1899 C 0.24406 0.71383 0.84572 0.0
C1900 C 0.32501 0.80131 0.85589 0.0
C1901 C 0.34043 0.82397 0.84836 0.0
C1902 C 0.27564 0.75293 0.84694 0.0
C1903 C 0.32148 0.81068 0.8403 0.0
C1904 C 0.23854 0.69617 0.83749 0.0
C1905 C 0.19258 0.65774 0.85172 0.0
N1906 N 0.29047 0.77586 0.83978 0.0
N1907 N 0.221 0.69409 0.85259 0.0
H1908 H 0.37784 0.53087 0.85772 0.0
H1909 H 0.1905 0.50395 0.8345 0.0
H1910 H 0.37245 0.55847 0.83049 0.0
H1911 H 0.2125 0.53006 0.86222 0.0
H1912 H 0.25159 0.50721 0.83312 0.0
H1913 H 0.31177 0.51518 0.85962 0.0
C1914 C 0.36266 0.53328 0.85215 0.0
C1915 C 0.3806 0.5462 0.84396 0.0
C1916 C 0.24276 0.51173 0.83953 0.0
C1917 C 0.30537 0.52769 0.84602 0.0
C1918 C 0.20778 0.50959 0.84034 0.0
C1919 C 0.19647 0.517 0.84848 0.0
C1920 C 0.26637 0.52079 0.84693 0.0
C1921 C 0.22026 0.52447 0.8558 0.0
C1922 C 0.32513 0.52442 0.85323 0.0
C1923 C 0.35977 0.54887 0.83694 0.0
N1924 N 0.25415 0.52629 0.85485 0.0
N1925 N 0.3233 0.53959 0.83812 0.0
H1926 H 0.52378 0.81741 1.00367 0.0
H1927 H 0.36401 0.84364 0.02729 0.0
H1928 H 0.48939 0.78701 0.03075 0.0
H1929 H 0.35811 0.81814 0.99949 0.0
H1930 H 0.42078 0.83858 0.02842 0.0
H1931 H 0.47248 0.83175 1.00179 0.0
C1932 C 0.50556 0.81387 1.0092 0.0
C1933 C 0.51059 0.80072 0.01735 0.0
C1934 C 0.40724 0.83449 0.02205 0.0
C1935 C 0.45297 0.81792 0.01534 0.0
C1936 C 0.37498 0.83763 0.02138 0.0
C1937 C 0.35608 0.83108 1.01329 0.0
C1938 C 0.42113 0.82525 0.01456 0.0
C1939 C 0.37162 0.82316 1.00588 0.0
C1940 C 0.47642 0.82204 1.00813 0.0
C1941 C 0.48639 0.79684 0.02433 0.0
N1942 N 0.40323 0.82039 1.00668 0.0
N1943 N 0.45885 0.80558 0.02318 0.0
H1944 H 0.23291 0.7044 0.03139 0.0
H1945 H 0.20793 0.54391 0.99888 0.0
H1946 H 0.20718 0.70846 1.00395 0.0
H1947 H 0.17981 0.52403 0.02656 0.0
H1948 H 0.2111 0.60498 1.00018 0.0
H1949 H 0.2179 0.63948 0.02946 0.0
C1950 C 0.22393 0.69152 0.02495 0.0
C1951 C 0.22128 0.7118 0.01781 0.0
C1952 C 0.20369 0.58693 1.00592 0.0
C1953 C 0.20454 0.63743 0.01552 0.0
C1954 C 0.20194 0.55212 1.0052 0.0
C1955 C 0.19376 0.52882 1.01264 0.0
C1956 C 0.19802 0.59882 0.01418 0.0
C1957 C 0.1862 0.54094 0.02065 0.0
C1958 C 0.21519 0.65437 0.02386 0.0
C1959 C 0.20945 0.69366 1.00962 0.0
N1960 N 0.18908 0.57529 0.02123 0.0
N1961 N 0.20197 0.65754 1.00865 0.0
H1962 H 0.3184 0.50183 1.00336 0.0
H1963 H 0.50612 0.66185 0.02645 0.0
H1964 H 0.32381 0.53556 0.03053 0.0
H1965 H 0.48368 0.66672 0.99879 0.0
H1966 H 0.44488 0.6043 0.02783 0.0
H1967 H 0.38443 0.55218 1.00141 0.0
C1968 C 0.33357 0.51957 1.00892 0.0
C1969 C 0.31564 0.51477 0.0171 0.0
C1970 C 0.45364 0.61776 0.02144 0.0
C1971 C 0.39085 0.57145 0.01499 0.0
C1972 C 0.4887 0.65044 0.02062 0.0
C1973 C 0.49997 0.6693 1.0125 0.0
C1974 C 0.42988 0.60345 0.01406 0.0
C1975 C 0.47599 0.65326 1.0052 0.0
C1976 C 0.37108 0.54823 1.0078 0.0
C1977 C 0.33648 0.53847 0.02409 0.0
N1978 N 0.44202 0.6213 1.00615 0.0
N1979 N 0.37294 0.56563 0.02289 0.0
H1980 H 0.20503 0.50094 0.50369 0.0
H1981 H 0.17663 0.65936 0.52726 0.0
H1982 H 0.23275 0.53382 0.53092 0.0
H1983 H 0.20302 0.66506 0.49951 0.0
H1984 H 0.18073 0.60217 0.52845 0.0
H1985 H 0.18921 0.55114 0.50184 0.0
C1986 C 0.20744 0.51846 0.50928 0.0
C1987 C 0.22039 0.51346 0.51745 0.0
C1988 C 0.18518 0.61574 0.52208 0.0
C1989 C 0.20177 0.56995 0.51545 0.0
C1990 C 0.18259 0.64825 0.52138 0.0
C1991 C 0.18976 0.66723 0.51328 0.0
C1992 C 0.19451 0.60174 0.51462 0.0
C1993 C 0.19757 0.6515 0.5059 0.0
C1994 C 0.19852 0.54704 0.50822 0.0
C1995 C 0.2231 0.53688 0.52449 0.0
N1996 N 0.19986 0.61971 0.50674 0.0
N1997 N 0.21375 0.56395 0.52334 0.0
H1998 H 0.52339 0.70904 0.50352 0.0
H1999 H 0.36515 0.52159 0.52697 0.0
H2000 H 0.49093 0.70312 0.53082 0.0
H2001 H 0.35818 0.54311 0.49935 0.0
H2002 H 0.42245 0.5829 0.52815 0.0
H2003 H 0.47278 0.64317 0.5016 0.0
C2004 C 0.50586 0.69379 0.5091 0.0
C2005 C 0.51112 0.71149 0.51732 0.0
C2006 C 0.40858 0.57397 0.52181 0.0
C2007 C 0.45419 0.63655 0.51524 0.0
C2008 C 0.376 0.53887 0.52111 0.0
C2009 C 0.35663 0.52726 0.51306 0.0
C2010 C 0.42227 0.59753 0.51439 0.0
C2011 C 0.37204 0.55105 0.5057 0.0
C2012 C 0.47706 0.65639 0.50801 0.0
C2013 C 0.48769 0.69061 0.52436 0.0
N2014 N 0.40393 0.58514 0.50654 0.0
N2015 N 0.46042 0.65428 0.52317 0.0
H2016 H 0.50238 0.84613 0.5273 0.0
H2017 H 0.3157 0.81819 0.5036 0.0
H2018 H 0.4822 0.82026 0.49953 0.0
H2019 H 0.32081 0.79125 0.5309 0.0
H2020 H 0.38183 0.83385 0.50178 0.0
H2021 H 0.44108 0.84229 0.52845 0.0
C2022 C 0.4854 0.8403 0.52141 0.0
C2023 C 0.49736 0.83321 0.51332 0.0
C2024 C 0.36838 0.82475 0.50816 0.0
C2025 C 0.42711 0.82876 0.51461 0.0
C2026 C 0.33083 0.81593 0.50921 0.0
C2027 C 0.31283 0.80324 0.51739 0.0
C2028 C 0.38803 0.82165 0.51542 0.0
C2029 C 0.33355 0.80069 0.52446 0.0
C2030 C 0.4503 0.83787 0.52209 0.0
C2031 C 0.47396 0.82562 0.50592 0.0
N2032 N 0.37001 0.80993 0.52332 0.0
N2033 N 0.43986 0.82346 0.50674 0.0
H2034 H 0.17185 0.53225 0.35762 0.0
H2035 H 0.33057 0.50403 0.334 0.0
H2036 H 0.20467 0.55999 0.33038 0.0
H2037 H 0.33678 0.53096 0.36172 0.0
H2038 H 0.27328 0.50816 0.33284 0.0
H2039 H 0.22239 0.5168 0.35946 0.0
C2040 C 0.18944 0.53475 0.35203 0.0
C2041 C 0.1843 0.54758 0.34385 0.0
C2042 C 0.28698 0.51273 0.3392 0.0
C2043 C 0.24117 0.52936 0.34584 0.0
C2044 C 0.31954 0.51011 0.33989 0.0
C2045 C 0.3387 0.51742 0.34796 0.0
C2046 C 0.27309 0.52219 0.34666 0.0
C2047 C 0.32308 0.5254 0.35535 0.0
C2048 C 0.21821 0.52604 0.35308 0.0
C2049 C 0.20782 0.55042 0.33681 0.0
N2050 N 0.29122 0.52769 0.35452 0.0
N2051 N 0.23507 0.54125 0.33795 0.0
H2052 H 0.4897 0.64284 0.3575 0.0
H2053 H 0.51936 0.83035 0.33413 0.0
H2054 H 0.46279 0.64866 0.33024 0.0
H2055 H 0.49094 0.80865 0.36177 0.0
H2056 H 0.51529 0.76908 0.3329 0.0
H2057 H 0.50542 0.70879 0.35942 0.0
C2058 C 0.48745 0.65809 0.35193 0.0
C2059 C 0.47476 0.64034 0.34372 0.0
C2060 C 0.5104 0.77798 0.33926 0.0
C2061 C 0.49328 0.71536 0.3458 0.0
C2062 C 0.51297 0.81306 0.33998 0.0
C2063 C 0.50521 0.82458 0.34805 0.0
C2064 C 0.50052 0.75438 0.34667 0.0
C2065 C 0.49685 0.80076 0.3554 0.0
C2066 C 0.49631 0.69553 0.35302 0.0
C2067 C 0.47224 0.66121 0.3367 0.0
N2068 N 0.49461 0.76671 0.35454 0.0
N2069 N 0.48155 0.69759 0.33788 0.0
H2070 H 0.21188 0.68501 0.36212 0.0
H2071 H 0.37558 0.81761 0.32982 0.0
H2072 H 0.19402 0.6909 0.33423 0.0
H2073 H 0.37792 0.84856 0.35712 0.0
H2074 H 0.31011 0.76828 0.33158 0.0
H2075 H 0.27328 0.74262 0.36082 0.0
C2076 C 0.22061 0.69867 0.35575 0.0
C2077 C 0.19779 0.68297 0.34826 0.0
C2078 C 0.32475 0.78601 0.33718 0.0
C2079 C 0.26823 0.7484 0.34672 0.0
C2080 C 0.36221 0.81408 0.33619 0.0
C2081 C 0.38218 0.83716 0.34334 0.0
C2082 C 0.30716 0.78023 0.34543 0.0
C2083 C 0.3634 0.83136 0.35144 0.0
C2084 C 0.25561 0.73157 0.35502 0.0
C2085 C 0.21056 0.70195 0.34018 0.0
N2086 N 0.32698 0.80306 0.35231 0.0
N2087 N 0.24514 0.73328 0.3396 0.0
H2088 H 0.25398 0.30588 0.193 0.0
H2089 H 0.43306 0.44592 0.16374 0.0
H2090 H 0.24421 0.34985 0.16788 0.0
H2091 H 0.43902 0.38701 0.18667 0.0
H2092 H 0.36472 0.41633 0.16583 0.0
H2093 H 0.32227 0.34077 0.19148 0.0
C2094 C 0.26612 0.32305 0.18717 0.0
C2095 C 0.24305 0.32467 0.18053 0.0
C2096 C 0.38099 0.40998 0.17042 0.0
C2097 C 0.32187 0.36492 0.17875 0.0
C2098 C 0.42001 0.42694 0.16925 0.0
C2099 C 0.44172 0.41875 0.17502 0.0
C2100 C 0.36354 0.38483 0.17747 0.0
C2101 C 0.42334 0.39398 0.18205 0.0
C2102 C 0.30527 0.34295 0.18631 0.0
C2103 C 0.26074 0.3476 0.17316 0.0
N2104 N 0.3854 0.37789 0.18306 0.0
N2105 N 0.29904 0.36672 0.17245 0.0
H2106 H 0.58033 0.99085 0.16408 0.0
H2107 H 0.71701 0.94788 0.19351 0.0
H2108 H 0.63842 0.0547 0.1872 0.0
H2109 H 0.67853 0.90054 0.16758 0.0
H2110 H 0.68262 0.98183 0.19208 0.0
H2111 H 0.61027 0.95251 0.16603 0.0
C2112 C 0.59922 0.99666 0.1696 0.0
C2113 C 0.60702 0.02615 0.17546 0.0
C2114 C 0.68156 0.96392 0.18671 0.0
C2115 C 0.64136 0.98224 0.17776 0.0
C2116 C 0.70113 0.94431 0.18753 0.0
C2117 C 0.7009 0.92122 0.18064 0.0
C2118 C 0.66123 0.96041 0.17897 0.0
C2119 C 0.67972 0.91801 0.17306 0.0
C2120 C 0.6164 0.97483 0.17069 0.0
C2121 C 0.63173 0.03237 0.1825 0.0
N2122 N 0.66081 0.93737 0.17243 0.0
N2123 N 0.64799 0.01065 0.18345 0.0
H2124 H 0.12663 0.78284 0.16758 0.0
H2125 H 0.96938 0.58546 0.18766 0.0
H2126 H 0.07532 0.77131 0.19315 0.0
H2127 H 0.03406 0.59457 0.16439 0.0
H2128 H 1.00768 0.65359 0.18971 0.0
H2129 H 0.09299 0.71428 0.1662 0.0
C2130 C 0.10851 0.76599 0.17293 0.0
C2131 C 0.10386 0.78314 0.18049 0.0
C2132 C 1.01368 0.64073 0.18418 0.0
C2133 C 0.06489 0.70432 0.1789 0.0
C2134 C 0.99178 0.60181 0.183 0.0
C2135 C 0.99847 0.58433 0.17583 0.0
C2136 C 0.04234 0.66252 0.17809 0.0
C2137 C 0.02792 0.6069 0.17001 0.0
C2138 C 0.08929 0.72676 0.17213 0.0
C2139 C 0.07993 0.75959 0.18719 0.0
N2140 N 0.04857 0.6448 0.17123 0.0
N2141 N 0.06123 0.72156 0.18622 0.0
H2142 H 0.30975 0.24561 0.33441 0.0
H2143 H 0.44958 0.42534 0.36339 0.0
H2144 H 0.35542 0.23711 0.3594 0.0
H2145 H 0.38973 0.43056 0.34054 0.0
H2146 H 0.42046 0.35722 0.36133 0.0
H2147 H 0.34395 0.31383 0.33584 0.0
C2148 C 0.32716 0.25801 0.34019 0.0
C2149 C 0.32947 0.23532 0.34682 0.0
C2150 C 0.41378 0.37326 0.35675 0.0
C2151 C 0.36891 0.31403 0.3485 0.0
C2152 C 0.43047 0.41217 0.35791 0.0
C2153 C 0.4219 0.43361 0.35215 0.0
C2154 C 0.38849 0.35562 0.34975 0.0
C2155 C 0.39698 0.41508 0.34516 0.0
C2156 C 0.34666 0.29712 0.34101 0.0
C2157 C 0.35265 0.25333 0.35413 0.0
N2158 N 0.38114 0.37721 0.34417 0.0
N2159 N 0.37135 0.29156 0.35479 0.0
H2160 H 0.59696 0.02652 0.36387 0.0
H2161 H 0.77694 0.06677 0.33477 0.0
H2162 H 0.59182 0.9624 0.34085 0.0
H2163 H 0.78585 0.12098 0.35979 0.0
H2164 H 0.70864 0.03285 0.33625 0.0
H2165 H 0.66532 0.06555 0.36185 0.0
C2166 C 0.6102 0.02081 0.35836 0.0
C2167 C 0.58872 0.99105 0.35254 0.0
C2168 C 0.72544 0.05224 0.34141 0.0
C2169 C 0.66691 0.03562 0.35018 0.0
C2170 C 0.7646 0.07178 0.34057 0.0
C2171 C 0.78744 0.09678 0.34719 0.0
C2172 C 0.7086 0.0576 0.34893 0.0
C2173 C 0.76951 0.10198 0.35452 0.0
C2174 C 0.64923 0.04303 0.35722 0.0
C2175 C 0.60732 0.98493 0.34551 0.0
N2176 N 0.7312 0.08249 0.35521 0.0
N2177 N 0.64527 1.00693 0.34454 0.0
H2178 H 0.95572 0.71356 0.3348 0.0
H2179 H 0.99501 0.57369 0.36392 0.0
H2180 H 0.90172 0.66888 0.35989 0.0
H2181 H 0.05985 0.63258 0.34094 0.0
H2182 H 0.95636 0.60329 0.36189 0.0
H2183 H 0.98948 0.67909 0.33628 0.0
C2184 C 0.95071 0.69632 0.34062 0.0
C2185 C 0.9258 0.69436 0.34726 0.0
C2186 C 0.97895 0.60965 0.35728 0.0
C2187 C 0.9648 0.6546 0.34899 0.0
C2188 C 1.00097 0.59269 0.35841 0.0
C2189 C 0.03081 0.60083 0.35261 0.0
C2190 C 0.98663 0.63479 0.35024 0.0
C2191 C 0.03723 0.62563 0.34559 0.0
C2192 C 0.97017 0.67667 0.34146 0.0
C2193 C 0.92063 0.67138 0.35461 0.0
N2194 N 0.01541 0.64173 0.34461 0.0
N2195 N 0.94001 0.65251 0.35529 0.0
H2196 H 0.58976 0.63243 0.84067 0.0
H2197 H 0.78677 0.66828 0.86029 0.0
H2198 H 0.59773 0.57451 0.86357 0.0
H2199 H 0.77583 0.71412 0.83557 0.0
H2200 H 0.71794 0.63339 0.86166 0.0
H2201 H 0.65804 0.66233 0.83871 0.0
C2202 C 0.60589 0.62588 0.84527 0.0
C2203 C 0.58805 0.60104 0.85231 0.0
C2204 C 0.73063 0.65093 0.85591 0.0
C2205 C 0.66645 0.6354 0.85015 0.0
C2206 C 0.76999 0.67088 0.85512 0.0
C2207 C 0.78733 0.69436 0.84781 0.0
C2208 C 0.70834 0.6546 0.84937 0.0
C2209 C 0.76393 0.69651 0.84133 0.0
C2210 C 0.64491 0.64295 0.84415 0.0
C2211 C 0.61036 0.59352 0.85805 0.0
N2212 N 0.72584 0.67714 0.84229 0.0
N2213 N 0.64837 0.61078 0.85688 0.0
H2214 H 0.31222 0.06946 0.83397 0.0
H2215 H 0.44928 0.02739 0.86349 0.0
H2216 H 0.35196 0.11831 0.85972 0.0
H2217 H 0.39072 0.9627 0.8405 0.0
H2218 H 0.41958 0.06587 0.86142 0.0
H2219 H 0.34651 0.03543 0.83546 0.0
C2220 C 0.32836 0.07334 0.83992 0.0
C2221 C 0.32897 0.09686 0.84674 0.0
C2222 C 0.41329 0.04334 0.85681 0.0
C2223 C 0.3685 0.0576 0.84849 0.0
C2224 C 0.43033 0.02142 0.85797 0.0
C2225 C 0.42231 0.99167 0.85218 0.0
C2226 C 0.38826 0.03572 0.84975 0.0
C2227 C 0.39756 0.98525 0.84514 0.0
C2228 C 0.34786 0.05369 0.84078 0.0
C2229 C 0.35047 0.10048 0.8543 0.0
N2230 N 0.38142 1.00704 0.84413 0.0
N2231 N 0.36929 0.08107 0.85496 0.0
H2232 H 0.90868 0.23529 0.86128 0.0
H2233 H 0.05203 0.43782 0.84057 0.0
H2234 H 0.95347 0.2502 0.83485 0.0
H2235 H 0.02052 0.41921 0.86805 0.0
H2236 H 1.01136 0.37013 0.83784 0.0
H2237 H 0.94428 0.30341 0.86334 0.0
C2238 C 0.92571 0.25283 0.85587 0.0
C2239 C 0.92809 0.23675 0.84788 0.0
C2240 C 1.01321 0.38089 0.84446 0.0
C2241 C 0.96927 0.31519 0.85024 0.0
C2242 C 0.03629 0.41953 0.84601 0.0
C2243 C 0.03955 0.43413 0.85454 0.0
C2244 C 0.99309 0.35671 0.8515 0.0
C2245 C 0.01884 0.40913 0.86136 0.0
C2246 C 0.94621 0.29183 0.85707 0.0
C2247 C 0.9508 0.26118 0.84114 0.0
N2248 N 0.99656 0.37177 0.8597 0.0
N2249 N 0.97052 0.29905 0.84247 0.0
H2250 H 0.61118 0.59796 0.65981 0.0
H2251 H 0.70912 0.7694 0.69402 0.0
H2252 H 0.6225 0.58188 0.68751 0.0
H2253 H 0.68813 0.78171 0.66664 0.0
H2254 H 0.67653 0.70113 0.69202 0.0
H2255 H 0.63847 0.66525 0.6624 0.0
C2256 C 0.61928 0.60862 0.66646 0.0
C2257 C 0.61447 0.58423 0.67346 0.0
C2258 C 0.67886 0.71876 0.68647 0.0
C2259 C 0.64615 0.66175 0.67649 0.0
C2260 C 0.69746 0.75786 0.6876 0.0
C2261 C 0.70162 0.78168 0.68048 0.0
C2262 C 0.66435 0.70312 0.67814 0.0
C2263 C 0.6858 0.76476 0.67233 0.0
C2264 C 0.63488 0.64714 0.66794 0.0
C2265 C 0.62555 0.59967 0.68194 0.0
N2266 N 0.66814 0.72673 0.67139 0.0
N2267 N 0.64103 0.63747 0.68322 0.0
H2268 H 0.43405 0.99083 0.66429 0.0
H2269 H 0.25453 0.95544 0.69292 0.0
H2270 H 0.4398 0.05786 0.68677 0.0
H2271 H 0.24505 0.89922 0.66817 0.0
H2272 H 0.32283 0.9886 0.69145 0.0
H2273 H 0.3656 0.95275 0.66629 0.0
C2274 C 0.42092 0.99738 0.66968 0.0
C2275 C 0.44261 0.02767 0.67535 0.0
C2276 C 0.3059 0.96895 0.68635 0.0
C2277 C 0.3643 0.98419 0.67769 0.0
C2278 C 0.26674 0.94984 0.68718 0.0
C2279 C 0.24375 0.92448 0.68063 0.0
C2280 C 0.32259 0.96277 0.67892 0.0
C2281 C 0.26152 0.91852 0.67338 0.0
C2282 C 0.38184 0.9757 0.6708 0.0
C2283 C 0.42414 0.03488 0.68222 0.0
N2284 N 0.29984 0.93757 0.6727 0.0
N2285 N 0.38613 0.01338 0.68319 0.0
H2286 H 0.96808 0.38811 0.68755 0.0
H2287 H 0.12611 0.34787 0.66794 0.0
H2288 H 0.03456 0.44456 0.66457 0.0
H2289 H 0.0735 0.30749 0.69336 0.0
H2290 H 0.09271 0.38302 0.66648 0.0
H2291 H 1.00603 0.3579 0.68971 0.0
C2292 C 0.99081 0.39428 0.68298 0.0
C2293 C 0.99811 0.41882 0.67585 0.0
C2294 C 0.08866 0.36665 0.6724 0.0
C2295 C 0.04156 0.38405 0.67824 0.0
C2296 C 0.10774 0.34651 0.67324 0.0
C2297 C 0.10268 0.32449 0.68078 0.0
C2298 C 0.06396 0.36461 0.67911 0.0
C2299 C 0.07844 0.324 0.68742 0.0
C2300 C 1.0125 0.37704 0.68422 0.0
C2301 C 0.02794 0.42581 0.67015 0.0
N2302 N 0.05987 0.34348 0.68641 0.0
N2303 N 0.04837 0.40835 0.67142 0.0
H2304 H 0.90682 0.68308 0.50144 0.0
H2305 H 0.10378 0.71843 0.52092 0.0
H2306 H 0.91792 0.6373 0.52616 0.0
H2307 H 0.09558 0.77513 0.4978 0.0
H2308 H 0.03564 0.68917 0.523 0.0
H2309 H 0.9756 0.71777 0.50002 0.0
C2310 C 0.92363 0.68046 0.5066 0.0
C2311 C 0.90635 0.65703 0.51392 0.0
C2312 C 0.04868 0.70814 0.51749 0.0
C2313 C 0.98528 0.69657 0.5123 0.0
C2314 C 0.08762 0.72484 0.5163 0.0
C2315 C 0.10534 0.74912 0.50916 0.0
C2316 C 0.02712 0.71552 0.51145 0.0
C2317 C 0.08303 0.75653 0.50339 0.0
C2318 C 0.96295 0.70029 0.50578 0.0
C2319 C 0.92978 0.65487 0.52039 0.0
N2320 N 0.04508 0.73963 0.50463 0.0
N2321 N 0.96786 0.67413 0.5194 0.0
H2322 H 0.33947 0.22777 0.50102 0.0
H2323 H 0.30582 0.39009 0.5206 0.0
H2324 H 0.38606 0.28483 0.52569 0.0
H2325 H 0.24811 0.32502 0.49759 0.0
H2326 H 0.33491 0.35112 0.5226 0.0
H2327 H 0.30515 0.26216 0.49964 0.0
C2328 C 0.34234 0.24729 0.50618 0.0
C2329 C 0.36588 0.2534 0.51347 0.0
C2330 C 0.31576 0.34518 0.51712 0.0
C2331 C 0.32678 0.29313 0.5119 0.0
C2332 C 0.29916 0.36747 0.51599 0.0
C2333 C 0.27464 0.36088 0.5089 0.0
C2334 C 0.30803 0.31615 0.5111 0.0
C2335 C 0.26691 0.3311 0.50313 0.0
C2336 C 0.32273 0.26697 0.50538 0.0
C2337 C 0.36839 0.27914 0.51993 0.0
N2338 N 0.28371 0.31 0.50432 0.0
N2339 N 0.34933 0.29811 0.51897 0.0
H2340 H 0.63451 0.91955 0.52072 0.0
H2341 H 0.7965 0.11621 0.50128 0.0
H2342 H 0.69981 0.92785 0.49763 0.0
H2343 H 0.73955 0.1049 0.52604 0.0
H2344 H 0.76242 0.04757 0.49985 0.0
H2345 H 0.67349 0.98751 0.52283 0.0
C2346 C 0.6572 0.93569 0.51612 0.0
C2347 C 0.66385 0.91805 0.50898 0.0
C2348 C 0.75758 0.06014 0.50562 0.0
C2349 C 0.70856 0.99608 0.51129 0.0
C2350 C 0.77708 0.09938 0.50645 0.0
C2351 C 0.77089 0.11656 0.51378 0.0
C2352 C 0.7315 0.03781 0.51215 0.0
C2353 C 0.74529 0.09312 0.52025 0.0
C2354 C 0.67948 0.97453 0.51732 0.0
C2355 C 0.69369 0.94035 0.50322 0.0
N2356 N 0.72647 0.05513 0.51926 0.0
N2357 N 0.71477 0.97819 0.50447 0.0
H2358 H 0.11887 0.76275 0.69726 0.0
H2359 H 0.97995 0.5836 0.668 0.0
H2360 H 0.06005 0.76835 0.67425 0.0
H2361 H 0.0234 0.5743 0.69325 0.0
H2362 H 1.01438 0.65177 0.6695 0.0
H2363 H 0.08942 0.69455 0.69522 0.0
C2364 C 0.09992 0.74964 0.69174 0.0
C2365 C 0.09174 0.77122 0.68594 0.0
C2366 C 0.01654 0.6349 0.67471 0.0
C2367 C 0.05798 0.69318 0.68355 0.0
C2368 C 0.99691 0.59582 0.67385 0.0
C2369 C 0.99853 0.57291 0.68053 0.0
C2370 C 0.03825 0.65159 0.68229 0.0
C2371 C 0.02116 0.5907 0.68794 0.0
C2372 C 0.08305 0.7107 0.6906 0.0
C2373 C 0.06701 0.75277 0.67891 0.0
N2374 N 0.04003 0.62892 0.68862 0.0
N2375 N 0.05101 0.7149 0.67792 0.0
H2376 H 0.26987 0.33364 0.70187 0.0
H2377 H 0.4419 0.4085 0.66766 0.0
H2378 H 0.25369 0.30805 0.67408 0.0
H2379 H 0.45396 0.44052 0.69513 0.0
H2380 H 0.37344 0.37279 0.66963 0.0
H2381 H 0.33734 0.37353 0.69931 0.0
C2382 C 0.28056 0.33656 0.6952 0.0
C2383 C 0.25609 0.3175 0.68818 0.0
C2384 C 0.39107 0.38782 0.67521 0.0
C2385 C 0.33383 0.36321 0.68517 0.0
C2386 C 0.43027 0.40832 0.67409 0.0
C2387 C 0.45406 0.42763 0.68125 0.0
C2388 C 0.37531 0.38635 0.68354 0.0
C2389 C 0.43703 0.42618 0.68941 0.0
C2390 C 0.31918 0.35941 0.69374 0.0
C2391 C 0.27157 0.32235 0.67968 0.0
N2392 N 0.39891 0.40581 0.69033 0.0
N2393 N 0.30948 0.34459 0.67841 0.0
H2394 H 0.68797 0.93686 0.70192 0.0
H2395 H 0.62103 0.04131 0.66802 0.0
H2396 H 0.71914 0.95233 0.67442 0.0
H2397 H 0.58007 0.01327 0.69477 0.0
H2398 H 0.65621 1.0083 0.67008 0.0
H2399 H 0.64797 0.96429 0.69932 0.0
C2400 C 0.68622 0.94588 0.69531 0.0
C2401 C 0.70683 0.94219 0.68837 0.0
C2402 C 0.63936 1.00915 0.67548 0.0
C2403 C 0.66112 0.97404 0.68533 0.0
C2404 C 0.61918 0.02803 0.67432 0.0
C2405 C 0.59753 0.03029 0.68124 0.0
C2406 C 0.63822 0.9925 0.68366 0.0
C2407 C 0.5963 0.01236 0.68924 0.0
C2408 C 0.66331 0.96154 0.69382 0.0
C2409 C 0.70352 0.95442 0.67994 0.0
N2410 N 0.61651 0.9945 0.69024 0.0
N2411 N 0.68127 0.96998 0.67866 0.0
H2412 H 0.27017 0.9386 0.20184 0.0
H2413 H 0.44237 0.03984 0.16787 0.0
H2414 H 0.25494 0.95253 0.17423 0.0
H2415 H 0.45452 0.01261 0.19474 0.0
H2416 H 0.37407 1.00758 0.16992 0.0
H2417 H 0.33766 0.9654 0.19927 0.0
C2418 C 0.28105 0.94716 0.19521 0.0
C2419 C 0.25686 0.94321 0.18823 0.0
C2420 C 0.39163 1.00844 0.17535 0.0
C2421 C 0.33448 0.9743 0.18522 0.0
C2422 C 0.43074 0.02687 0.17419 0.0
C2423 C 0.45448 0.02915 0.18115 0.0
C2424 C 0.37589 0.99226 0.18356 0.0
C2425 C 0.43753 0.01166 0.18917 0.0
C2426 C 0.31965 0.96245 0.19374 0.0
C2427 C 0.27255 0.95484 0.17979 0.0
N2428 N 0.39942 0.99425 0.19017 0.0
N2429 N 0.31038 0.97004 0.17852 0.0
H2430 H 0.02416 0.45607 0.19334 0.0
H2431 H 0.05775 0.29339 0.17398 0.0
H2432 H 0.97834 0.39956 0.16858 0.0
H2433 H 0.1159 0.3594 0.19686 0.0
H2434 H 0.02862 0.33232 0.1719 0.0
H2435 H 0.0583 0.42155 0.19477 0.0
C2436 C 0.02143 0.43664 0.18818 0.0
C2437 C 0.99816 0.43075 0.18084 0.0
C2438 C 0.04788 0.33846 0.17736 0.0
C2439 C 0.03705 0.39082 0.18248 0.0
C2440 C 0.0645 0.31621 0.17855 0.0
C2441 C 0.08919 0.32309 0.18562 0.0
C2442 C 0.05573 0.36774 0.18332 0.0
C2443 C 0.09699 0.35308 0.19132 0.0
C2444 C 0.04094 0.41689 0.189 0.0
C2445 C 0.99582 0.40511 0.17437 0.0
N2446 N 0.08016 0.37413 0.19009 0.0
N2447 N 1.01476 0.38603 0.17536 0.0
H2448 H 0.57597 0.5687 0.19422 0.0
H2449 H 0.72154 0.7708 0.17367 0.0
H2450 H 0.62201 0.58313 0.16794 0.0
H2451 H 0.68783 0.75238 0.20101 0.0
H2452 H 0.68074 0.70314 0.17091 0.0
H2453 H 0.61179 0.6368 0.19627 0.0
C2454 C 0.59333 0.58613 0.18884 0.0
C2455 C 0.59599 0.56992 0.18091 0.0
C2456 C 0.68213 0.71394 0.1775 0.0
C2457 C 0.63743 0.64835 0.18323 0.0
C2458 C 0.70529 0.75257 0.17906 0.0
C2459 C 0.70795 0.7672 0.18757 0.0
C2460 C 0.66137 0.68984 0.1845 0.0
C2461 C 0.68662 0.74227 0.19435 0.0
C2462 C 0.61395 0.62512 0.19003 0.0
C2463 C 0.61911 0.59421 0.17419 0.0
N2464 N 0.6643 0.70494 0.19267 0.0
N2465 N 0.63896 0.63209 0.17551 0.0
H2466 H 0.30681 0.91991 0.0207 0.0
H2467 H 0.34408 0.11618 1.00069 0.0
H2468 H 0.25009 0.92787 0.99756 0.0
H2469 H 0.38407 0.10545 0.02628 0.0
H2470 H 0.30997 0.04762 0.9993 0.0
H2471 H 0.33594 0.98798 0.02275 0.0
C2472 C 0.30037 0.93599 0.01607 0.0
C2473 C 0.27607 0.91822 1.00893 0.0
C2474 C 0.32602 0.06028 1.00524 0.0
C2475 C 0.30957 0.99632 1.01119 0.0
C2476 C 0.34556 0.09951 1.00605 0.0
C2477 C 0.36717 0.11688 1.01361 0.0
C2478 C 0.32828 0.03807 1.01201 0.0
C2479 C 0.36785 0.09355 0.02032 0.0
C2480 C 0.31699 0.97487 0.01724 0.0
C2481 C 0.26868 0.94044 1.00314 0.0
N2482 N 0.34898 0.05552 0.01933 0.0
N2483 N 0.28554 0.97831 1.00436 0.0
H2484 H 0.10608 0.39269 0.02032 0.0
H2485 H 0.90953 0.22969 1.00097 0.0
H2486 H 0.09861 0.32549 0.99772 0.0
H2487 H 0.92008 0.28701 0.02559 0.0
H2488 H 0.97836 0.26405 0.99958 0.0
H2489 H 0.03781 0.3541 0.0223 0.0
C2490 C 0.09006 0.36969 0.0158 0.0
C2491 C 0.10806 0.36237 1.00883 0.0
C2492 C 0.96558 0.26893 1.00531 0.0
C2493 C 0.02966 0.31809 1.01101 0.0
C2494 C 0.92622 0.24927 1.00611 0.0
C2495 C 0.90876 0.25542 1.0134 0.0
C2496 C 0.98777 0.29516 1.01181 0.0
C2497 C 0.93206 0.28125 0.01984 0.0
C2498 C 0.05105 0.34762 0.01693 0.0
C2499 C 0.08588 0.33214 1.00318 0.0
N2500 N 0.97017 0.30022 0.01887 0.0
N2501 N 0.04788 0.31129 1.00435 0.0
H2502 H 0.74537 0.64651 0.0267 0.0
H2503 H 0.67626 0.74846 0.99264 0.0
H2504 H 0.78557 0.67392 0.99987 0.0
H2505 H 0.64574 0.7338 0.02018 0.0
H2506 H 0.71692 0.72183 0.99529 0.0
H2507 H 0.70981 0.67913 0.02462 0.0
C2508 C 0.74699 0.65961 0.02038 0.0
C2509 C 0.76851 0.65725 1.01344 0.0
C2510 C 0.70158 0.7246 1.00079 0.0
C2511 C 0.72739 0.69454 1.011 0.0
C2512 C 0.67829 0.73979 0.99927 0.0
C2513 C 0.65768 0.74346 1.00621 0.0
C2514 C 0.70413 0.71256 1.00931 0.0
C2515 C 0.66135 0.7317 0.01466 0.0
C2516 C 0.7266 0.67824 0.01921 0.0
C2517 C 0.76945 0.67492 1.00542 0.0
N2518 N 0.68397 0.71659 0.01597 0.0
N2519 N 0.74903 0.69252 1.00441 0.0
H2520 H 0.7658 0.11217 0.83049 0.0
H2521 H 0.58588 0.9712 0.85944 0.0
H2522 H 0.77118 0.05248 0.85334 0.0
H2523 H 0.57655 0.01563 0.83434 0.0
H2524 H 0.65417 1.00575 0.85794 0.0
H2525 H 0.69731 0.08209 0.83242 0.0
C2526 C 0.75259 0.0929 0.83594 0.0
C2527 C 0.77422 0.0847 0.84174 0.0
C2528 C 0.63729 1.0081 0.85276 0.0
C2529 C 0.69581 0.05019 0.844 0.0
C2530 C 0.59811 0.98839 0.85362 0.0
C2531 C 0.57513 0.99026 0.84699 0.0
C2532 C 0.65405 0.03018 0.84523 0.0
C2533 C 0.59298 0.01319 0.83962 0.0
C2534 C 0.71347 0.07565 0.83703 0.0
C2535 C 0.7556 0.05951 0.84869 0.0
N2536 N 0.63132 0.03216 0.83893 0.0
N2537 N 0.71757 0.04318 0.84962 0.0
H2538 H 0.91333 0.65835 0.83114 0.0
H2539 H 0.05071 0.61602 0.86044 0.0
H2540 H 0.97233 0.72307 0.85409 0.0
H2541 H 1.01065 0.5675 0.83467 0.0
H2542 H 0.01647 0.65015 0.85903 0.0
H2543 H 0.94303 0.61987 0.83314 0.0
C2544 C 0.93239 0.66433 0.83663 0.0
C2545 C 0.94052 0.69409 0.84243 0.0
C2546 C 0.01504 0.63194 0.8537 0.0
C2547 C 0.97458 0.65003 0.84479 0.0
C2548 C 0.03451 0.61224 0.8545 0.0
C2549 C 0.03379 0.58878 0.84765 0.0
C2550 C 0.99433 0.62814 0.846 0.0
C2551 C 1.01223 0.58528 0.84012 0.0
C2552 C 0.94942 0.6424 0.83776 0.0
C2553 C 0.9654 0.70051 0.84944 0.0
N2554 N 0.99344 0.60473 0.8395 0.0
N2555 N 0.98154 0.67871 0.85042 0.0
H2556 H 0.34273 0.26461 0.82604 0.0
H2557 H 0.40937 0.43534 0.86011 0.0
H2558 H 0.3102 0.24836 0.85345 0.0
H2559 H 0.45197 0.44805 0.83351 0.0
H2560 H 0.37384 0.36716 0.858 0.0
H2561 H 0.38328 0.3318 0.82879 0.0
C2562 C 0.34432 0.27521 0.83266 0.0
C2563 C 0.32318 0.25084 0.83954 0.0
C2564 C 0.39116 0.38484 0.85265 0.0
C2565 C 0.36948 0.3281 0.84275 0.0
C2566 C 0.41154 0.42386 0.85384 0.0
C2567 C 0.43372 0.44771 0.84697 0.0
C2568 C 0.39266 0.36934 0.84449 0.0
C2569 C 0.43533 0.43098 0.83901 0.0
C2570 C 0.36753 0.31363 0.83424 0.0
C2571 C 0.32626 0.26614 0.84799 0.0
N2572 N 0.41492 0.39298 0.83798 0.0
N2573 N 0.34881 0.30382 0.84935 0.0
H2574 H 0.68714 0.90372 0.02669 0.0
H2575 H 0.72517 0.10034 1.00672 0.0
H2576 H 0.64711 0.91473 1.00114 0.0
H2577 H 0.781 0.09199 0.02999 0.0
H2578 H 0.69598 0.03228 1.00464 0.0
H2579 H 0.7214 0.97226 0.02811 0.0
C2580 C 0.68568 0.92045 0.02135 0.0
C2581 C 0.664 0.90315 1.01379 0.0
C2582 C 0.71475 0.0453 1.01018 0.0
C2583 C 0.70309 0.98197 0.01542 0.0
C2584 C 0.7314 0.08417 1.01137 0.0
C2585 C 0.75545 0.10183 0.01855 0.0
C2586 C 0.7219 0.02374 0.01626 0.0
C2587 C 0.7626 0.07951 0.02436 0.0
C2588 C 0.70531 0.95967 0.02217 0.0
C2589 C 0.66336 0.92656 1.0071 0.0
N2590 N 0.74573 0.04165 0.02312 0.0
N2591 N 0.68233 0.96459 1.00809 0.0
H2592 H 0.92471 0.62873 1.00737 0.0
H2593 H 0.12147 0.79101 0.02679 0.0
H2594 H 0.93243 0.69504 0.03017 0.0
H2595 H 0.11063 0.73386 1.00212 0.0
H2596 H 0.05265 0.75682 0.0282 0.0
H2597 H 0.99294 0.66735 1.00537 0.0
C2598 C 0.94078 0.65155 1.01194 0.0
C2599 C 0.92287 0.65859 0.01897 0.0
C2600 C 0.06536 0.75195 0.02245 0.0
C2601 C 1.00122 0.70293 0.01676 0.0
C2602 C 0.10472 0.7715 0.02164 0.0
C2603 C 0.12209 0.76534 0.01434 0.0
C2604 C 0.04311 0.72581 0.01594 0.0
C2605 C 0.09872 0.73962 1.00789 0.0
C2606 C 0.97977 0.67364 1.01079 0.0
C2607 C 0.9451 0.68861 0.02467 0.0
N2608 N 0.06063 0.72075 1.00887 0.0
N2609 N 0.98309 0.7095 0.02347 0.0
H2610 H 0.24253 0.3445 0.02784 0.0
H2611 H 0.38662 0.28661 1.00692 0.0
H2612 H 0.28692 0.37462 1.00139 0.0
H2613 H 0.35356 0.2714 0.03431 0.0
H2614 H 0.34574 0.31348 1.00425 0.0
H2615 H 0.27804 0.31181 0.02979 0.0
C2616 C 0.25945 0.34401 0.0224 0.0
C2617 C 0.26176 0.36259 0.01445 0.0
C2618 C 0.34728 0.30407 1.01084 0.0
C2619 C 0.30286 0.32517 0.01667 0.0
C2620 C 0.37048 0.2886 1.01234 0.0
C2621 C 0.37337 0.27667 0.02084 0.0
C2622 C 0.32672 0.30748 0.01787 0.0
C2623 C 0.35218 0.28027 0.02765 0.0
C2624 C 0.2799 0.32541 0.02354 0.0
C2625 C 0.28431 0.36088 1.00766 0.0
N2626 N 0.32983 0.29531 0.02603 0.0
N2627 N 0.30403 0.34267 1.00893 0.0
H2628 H 0.12159 0.33511 0.52684 0.0
H2629 H 0.92487 0.30085 0.50744 0.0
H2630 H 0.1105 0.38054 0.50206 0.0
H2631 H 0.93268 0.2432 0.53041 0.0
H2632 H 0.99301 0.32992 0.50537 0.0
H2633 H 0.05279 0.30073 0.52829 0.0
C2634 C 0.10478 0.3377 0.52167 0.0
C2635 C 0.12206 0.36095 0.51432 0.0
C2636 C 0.97988 0.31079 0.51084 0.0
C2637 C 0.04315 0.32181 0.51599 0.0
C2638 C 0.94095 0.29419 0.51203 0.0
C2639 C 0.92311 0.26967 0.51912 0.0
C2640 C 1.00133 0.30308 0.51684 0.0
C2641 C 0.94532 0.26199 0.52486 0.0
C2642 C 0.06545 0.31806 0.52251 0.0
C2643 C 0.09865 0.36311 0.50785 0.0
N2644 N 0.98326 0.2788 0.52363 0.0
N2645 N 0.06058 0.34405 0.50886 0.0
H2646 H 0.64405 0.7351 0.50141 0.0
H2647 H 0.78267 0.69387 0.5305 0.0
H2648 H 0.68902 0.78858 0.5265 0.0
H2649 H 0.7225 0.62885 0.50768 0.0
H2650 H 0.75395 0.73325 0.52842 0.0
H2651 H 0.67797 0.7008 0.50287 0.0
C2652 C 0.66125 0.73989 0.50722 0.0
C2653 C 0.66343 0.76477 0.51387 0.0
C2654 C 0.74712 0.71046 0.52385 0.0
C2655 C 0.70254 0.72517 0.51559 0.0
C2656 C 0.76357 0.68803 0.52502 0.0
C2657 C 0.7548 0.65793 0.51928 0.0
C2658 C 0.72187 0.70293 0.51685 0.0
C2659 C 0.72992 0.65166 0.51229 0.0
C2660 C 0.68058 0.72012 0.50805 0.0
C2661 C 0.68635 0.76967 0.52122 0.0
N2662 N 0.71431 0.6739 0.51128 0.0
N2663 N 0.7049 0.74999 0.52189 0.0
H2664 H 0.28845 0.91199 0.50146 0.0
H2665 H 0.32859 0.09198 0.53032 0.0
H2666 H 0.23506 0.90336 0.52661 0.0
H2667 H 0.3933 0.09687 0.50739 0.0
H2668 H 0.28971 0.02372 0.5284 0.0
H2669 H 0.3223 0.98018 0.50285 0.0
C2670 C 0.28359 0.92436 0.50727 0.0
C2671 C 0.25885 0.90163 0.51396 0.0
C2672 C 0.31232 0.03972 0.52377 0.0
C2673 C 0.29796 0.98035 0.51559 0.0
C2674 C 0.33447 0.0787 0.52485 0.0
C2675 C 0.36434 0.1001 0.51903 0.0
C2676 C 0.31991 0.02199 0.51678 0.0
C2677 C 0.37067 0.08144 0.51206 0.0
C2678 C 0.30311 0.96346 0.50807 0.0
C2679 C 0.25386 0.91961 0.5213 0.0
N2680 N 0.34871 0.04353 0.51114 0.0
N2681 N 0.2733 0.95786 0.52193 0.0
H2682 H 0.05101 0.43786 0.35969 0.0
H2683 H 0.91241 0.25849 0.33046 0.0
H2684 H 1.00677 0.44702 0.33454 0.0
H2685 H 0.9717 0.25332 0.35342 0.0
H2686 H 0.94154 0.32667 0.3325 0.0
H2687 H 0.01693 0.36973 0.35816 0.0
C2688 C 0.03395 0.42562 0.35385 0.0
C2689 C 0.03201 0.44848 0.34721 0.0
C2690 C 0.94808 0.31062 0.33711 0.0
C2691 C 0.99268 0.36982 0.34542 0.0
C2692 C 0.93139 0.27169 0.33596 0.0
C2693 C 0.93979 0.25024 0.34176 0.0
C2694 C 0.97318 0.32824 0.34415 0.0
C2695 C 0.96456 0.26879 0.34878 0.0
C2696 C 1.01451 0.38655 0.35298 0.0
C2697 C 1.00925 0.43065 0.33983 0.0
N2698 N 0.98037 0.30664 0.34976 0.0
N2699 N 0.99058 0.39243 0.33912 0.0
H2700 H 0.77053 0.72308 0.354 0.0
H2701 H 0.57426 0.5612 0.33432 0.0
H2702 H 0.76318 0.65805 0.33098 0.0
H2703 H 0.58475 0.61746 0.35911 0.0
H2704 H 0.6431 0.59552 0.33297 0.0
H2705 H 0.70235 0.68404 0.356 0.0
C2706 C 0.75454 0.70045 0.34939 0.0
C2707 C 0.77251 0.69389 0.3423 0.0
C2708 C 0.63029 0.60015 0.33873 0.0
C2709 C 0.69427 0.64911 0.34449 0.0
C2710 C 0.59095 0.58053 0.33951 0.0
C2711 C 0.57349 0.58644 0.34683 0.0
C2712 C 0.65243 0.62609 0.34528 0.0
C2713 C 0.59674 0.61193 0.35333 0.0
C2714 C 0.71559 0.67813 0.35053 0.0
C2715 C 0.75043 0.6641 0.33653 0.0
N2716 N 0.63483 0.63087 0.35238 0.0
N2717 N 0.71247 0.64298 0.33772 0.0
H2718 H 0.30056 0.0517 0.35392 0.0
H2719 H 0.46224 0.01623 0.33448 0.0
H2720 H 0.36585 0.10835 0.33081 0.0
H2721 H 0.40441 0.96996 0.35912 0.0
H2722 H 0.42837 0.05105 0.33306 0.0
H2723 H 0.33924 0.02233 0.356 0.0
C2724 C 0.32318 0.05808 0.3493 0.0
C2725 C 0.3299 0.08237 0.34216 0.0
C2726 C 0.42328 0.03343 0.3388 0.0
C2727 C 0.37429 0.04864 0.34445 0.0
C2728 C 0.44265 0.01353 0.33962 0.0
C2729 C 0.43616 0.98993 0.34692 0.0
C2730 C 0.39705 0.02961 0.34529 0.0
C2731 C 0.41038 0.98766 0.35336 0.0
C2732 C 0.3453 0.04131 0.35049 0.0
C2733 C 0.35967 0.08973 0.3364 0.0
N2734 N 0.39171 1.007 0.35237 0.0
N2735 N 0.3806 0.07277 0.33763 0.0
H2736 H 0.22649 0.3631 0.07514 0.0
H2737 H 0.10628 0.33429 0.11921 0.0
H2738 H 0.1193 0.35892 0.07582 0.0
H2739 H 0.20481 0.3221 0.11873 0.0
H2740 H 0.1133 0.34696 0.10341 0.0
H2741 H 0.2215 0.35126 0.09112 0.0
C2742 C 0.20193 0.35971 0.07863 0.0
C2743 C 0.17316 0.36178 0.07408 0.0
C2744 C 0.13349 0.3416 0.10674 0.0
C2745 C 0.16733 0.34833 0.09238 0.0
C2746 C 0.12969 0.33467 0.11581 0.0
C2747 C 0.15514 0.32734 0.12037 0.0
C2748 C 0.16307 0.34138 0.1021 0.0
C2749 C 0.18439 0.32738 0.1155 0.0
C2750 C 0.19904 0.35281 0.08775 0.0
C2751 C 0.1419 0.35693 0.07898 0.0
N2752 N 0.18762 0.33438 0.10664 0.0
N2753 N 0.13991 0.35058 0.08782 0.0
H2754 H 0.67538 0.76312 0.07508 0.0
H2755 H 0.70054 0.88135 0.11922 0.0
H2756 H 0.65912 0.85901 0.0756 0.0
H2757 H 0.69665 0.77452 0.11858 0.0
H2758 H 0.68918 0.87653 0.10322 0.0
H2759 H 0.68733 0.76991 0.09091 0.0
C2760 C 0.67466 0.78588 0.0785 0.0
C2761 C 0.66646 0.81068 0.07394 0.0
C2762 C 0.69069 0.85412 0.1066 0.0
C2763 C 0.67976 0.81838 0.09224 0.0
C2764 C 0.69734 0.85692 0.11573 0.0
C2765 C 0.69933 0.82818 0.1203 0.0
C2766 C 0.68643 0.82256 0.10197 0.0
C2767 C 0.69474 0.79709 0.11541 0.0
C2768 C 0.6812 0.78956 0.08759 0.0
C2769 C 0.66513 0.83911 0.07883 0.0
N2770 N 0.68866 0.79521 0.10655 0.0
N2771 N 0.67184 0.84227 0.0877 0.0
H2772 H 0.14224 0.82188 0.11966 0.0
H2773 H 0.25671 0.91465 0.07501 0.0
H2774 H 0.24722 0.92696 0.11845 0.0
H2775 H 0.16193 0.80171 0.07599 0.0
H2776 H 0.25021 0.92077 0.09081 0.0
H2777 H 0.14583 0.81495 0.10363 0.0
C2778 C 0.16598 0.8435 0.11603 0.0
C2779 C 0.19462 0.87492 0.12044 0.0
C2780 C 0.23071 0.89463 0.08759 0.0
C2781 C 0.19882 0.86722 0.1021 0.0
C2782 C 0.2342 0.89122 0.07852 0.0
C2783 C 0.20969 0.85767 0.0741 0.0
C2784 C 0.20243 0.86434 0.09237 0.0
C2785 C 0.18162 0.82802 0.07911 0.0
C2786 C 0.16809 0.83945 0.10689 0.0
C2787 C 0.2248 0.90194 0.11539 0.0
N2788 N 0.17871 0.83206 0.08796 0.0
N2789 N 0.22604 0.8975 0.10653 0.0
H2790 H 0.42645 0.20625 0.44947 0.0
H2791 H 0.26963 0.12882 0.41138 0.0
H2792 H 0.30694 0.14419 0.45461 0.0
H2793 H 0.38911 0.18582 0.40621 0.0
H2794 H 0.28279 0.13825 0.42719 0.0
H2795 H 0.41333 0.2031 0.43366 0.0
C2796 C 0.39741 0.19235 0.4473 0.0
C2797 C 0.36778 0.17544 0.45344 0.0
C2798 C 0.30616 0.14887 0.4226 0.0
C2799 C 0.35253 0.17125 0.43524 0.0
C2800 C 0.29868 0.14376 0.41354 0.0
C2801 C 0.32828 0.15652 0.4074 0.0
C2802 C 0.34358 0.16695 0.42561 0.0
C2803 C 0.36533 0.17506 0.41067 0.0
C2804 C 0.38995 0.19031 0.43824 0.0
C2805 C 0.33075 0.15723 0.45016 0.0
N2806 N 0.37188 0.17964 0.41953 0.0
N2807 N 0.32421 0.15557 0.44131 0.0
H2808 H 0.92367 0.24468 0.40847 0.0
H2809 H 0.80543 0.1517 0.45268 0.0
H2810 H 0.82615 0.13337 0.40898 0.0
H2811 H 0.91214 0.25512 0.45193 0.0
H2812 H 0.80997 0.14521 0.43667 0.0
H2813 H 0.91706 0.2499 0.42431 0.0
C2814 C 0.90056 0.22141 0.41189 0.0
C2815 C 0.87527 0.18861 0.40732 0.0
C2816 C 0.83242 0.16922 0.44003 0.0
C2817 C 0.86783 0.19424 0.42563 0.0
C2818 C 0.82979 0.17303 0.44917 0.0
C2819 C 0.85857 0.20389 0.45371 0.0
C2820 C 0.86386 0.19668 0.43537 0.0
C2821 C 0.88956 0.23051 0.44878 0.0
C2822 C 0.89699 0.2243 0.42098 0.0
C2823 C 0.84643 0.15912 0.41221 0.0
N2824 N 0.89129 0.22634 0.43992 0.0
N2825 N 0.84343 0.16266 0.42109 0.0
H2826 H 0.81507 0.63339 0.40613 0.0
H2827 H 0.85677 0.7176 0.4553 0.0
H2828 H 0.87518 0.75214 0.41189 0.0
H2829 H 0.79822 0.59885 0.44954 0.0
H2830 H 0.86585 0.73079 0.43946 0.0
H2831 H 0.8107 0.62021 0.42197 0.0
C2832 C 0.8274 0.65673 0.41071 0.0
C2833 C 0.84546 0.69398 0.40761 0.0
C2834 C 0.85119 0.70183 0.44166 0.0
C2835 C 0.84066 0.679 0.42585 0.0
C2836 C 0.84584 0.69425 0.45072 0.0
C2837 C 0.8266 0.65701 0.45381 0.0
C2838 C 0.83708 0.67199 0.43558 0.0
C2839 C 0.81361 0.62801 0.44751 0.0
C2840 C 0.82503 0.64916 0.41977 0.0
C2841 C 0.86138 0.72298 0.41391 0.0
N2842 N 0.8189 0.6361 0.43873 0.0
N2843 N 0.85843 0.71489 0.4227 0.0
H2844 H 0.83726 0.63423 0.90613 0.0
H2845 H 0.87801 0.71736 0.95538 0.0
H2846 H 0.89462 0.75284 0.91204 0.0
H2847 H 0.81868 0.59873 0.94947 0.0
H2848 H 0.88218 0.73086 0.93956 0.0
H2849 H 0.82801 0.62066 0.92195 0.0
C2850 C 0.84788 0.65746 0.91074 0.0
C2851 C 0.86686 0.69478 0.90769 0.0
C2852 C 0.86805 0.70186 0.94172 0.0
C2853 C 0.85619 0.67936 0.9259 0.0
C2854 C 0.86579 0.69411 0.95077 0.0
C2855 C 0.84802 0.6568 0.95381 0.0
C2856 C 0.85261 0.67214 0.93561 0.0
C2857 C 0.83226 0.62792 0.94748 0.0
C2858 C 0.84244 0.64967 0.91978 0.0
C2859 C 0.87945 0.72363 0.91402 0.0
N2860 N 0.83511 0.63619 0.93871 0.0
N2861 N 0.87409 0.71532 0.92279 0.0
H2862 H 0.33311 0.13897 0.908 0.0
H2863 H 0.35219 0.2534 0.95245 0.0
H2864 H 0.33105 0.24283 0.90895 0.0
H2865 H 0.37482 0.1616 0.9516 0.0
H2866 H 0.33992 0.24648 0.93663 0.0
H2867 H 0.34432 0.14355 0.92401 0.0
C2868 C 0.33495 0.16268 0.91156 0.0
C2869 C 0.33138 0.1907 0.90708 0.0
C2870 C 0.3475 0.22775 0.93988 0.0
C2871 C 0.34406 0.19603 0.92541 0.0
C2872 C 0.35423 0.23148 0.94896 0.0
C2873 C 0.36435 0.20789 0.95342 0.0
C2874 C 0.35071 0.2001 0.93514 0.0
C2875 C 0.36732 0.18056 0.94845 0.0
C2876 C 0.34152 0.16536 0.92069 0.0
C2877 C 0.33423 0.22088 0.91206 0.0
N2878 N 0.36042 0.17733 0.93959 0.0
N2879 N 0.34026 0.22265 0.92091 0.0
H2880 H 0.79854 0.16119 0.90581 0.0
H2881 H 0.87352 0.16734 0.95493 0.0
H2882 H 0.8987 0.15567 0.91161 0.0
H2883 H 0.78448 0.19044 0.94868 0.0
H2884 H 0.88305 0.16262 0.93912 0.0
H2885 H 0.79335 0.17255 0.92144 0.0
C2886 C 0.81978 0.16285 0.91033 0.0
C2887 C 0.84907 0.15728 0.90732 0.0
C2888 C 0.86159 0.16896 0.94121 0.0
C2889 C 0.84274 0.16957 0.92536 0.0
C2890 C 0.85601 0.17149 0.95024 0.0
C2891 C 0.82816 0.17933 0.95317 0.0
C2892 C 0.83891 0.17393 0.93502 0.0
C2893 C 0.80659 0.18481 0.94676 0.0
C2894 C 0.8166 0.16908 0.91929 0.0
C2895 C 0.87525 0.15909 0.91359 0.0
N2896 N 0.81226 0.18178 0.93801 0.0
N2897 N 0.87134 0.16485 0.92228 0.0
H2898 H 0.67792 0.91308 0.57518 0.0
H2899 H 0.69976 0.82066 0.61983 0.0
H2900 H 0.6591 0.80003 0.5762 0.0
H2901 H 0.70027 0.92578 0.61864 0.0
H2902 H 0.68887 0.81354 0.60382 0.0
H2903 H 0.6906 0.9193 0.59098 0.0
C2904 C 0.67685 0.88963 0.5787 0.0
C2905 C 0.66762 0.85603 0.57428 0.0
C2906 C 0.69128 0.83809 0.60708 0.0
C2907 C 0.68167 0.86284 0.59256 0.0
C2908 C 0.69766 0.84226 0.61621 0.0
C2909 C 0.70069 0.87375 0.62063 0.0
C2910 C 0.68833 0.86583 0.60229 0.0
C2911 C 0.6975 0.90071 0.61558 0.0
C2912 C 0.68379 0.89311 0.58777 0.0
C2913 C 0.66587 0.82638 0.57931 0.0
N2914 N 0.69162 0.89617 0.60672 0.0
N2915 N 0.6729 0.8305 0.58816 0.0
H2916 H 0.23591 0.82946 0.57821 0.0
H2917 H 0.11397 0.85616 0.61592 0.0
H2918 H 0.12924 0.82326 0.57336 0.0
H2919 H 0.20775 0.83955 0.6215 0.0
H2920 H 0.12342 0.85145 0.60014 0.0
H2921 H 0.22997 0.83999 0.59387 0.0
C2922 C 0.21122 0.8303 0.58041 0.0
C2923 C 0.18292 0.82516 0.57439 0.0
C2924 C 0.14205 0.84898 0.6048 0.0
C2925 C 0.17624 0.83777 0.59238 0.0
C2926 C 0.13686 0.85195 0.61383 0.0
C2927 C 0.16015 0.84832 0.62008 0.0
C2928 C 0.17092 0.84254 0.60194 0.0
C2929 C 0.18891 0.84221 0.61694 0.0
C2930 C 0.20795 0.83647 0.58937 0.0
C2931 C 0.15204 0.82746 0.57767 0.0
N2932 N 0.19349 0.83955 0.60811 0.0
N2933 N 0.1495 0.83345 0.58642 0.0
H2934 H 0.19046 0.40479 0.57803 0.0
H2935 H 0.18031 0.26379 0.61594 0.0
H2936 H 0.2094 0.31192 0.57335 0.0
H2937 H 0.18153 0.36747 0.62133 0.0
H2938 H 0.18418 0.27748 0.60015 0.0
H2939 H 0.18086 0.38826 0.59369 0.0
C2940 C 0.19262 0.38091 0.58026 0.0
C2941 C 0.20102 0.35991 0.57428 0.0
C2942 C 0.18347 0.2972 0.60477 0.0
C2943 C 0.18952 0.34052 0.59229 0.0
C2944 C 0.18097 0.28926 0.61381 0.0
C2945 C 0.18054 0.31448 0.62001 0.0
C2946 C 0.18537 0.33055 0.60186 0.0
C2947 C 0.18215 0.34737 0.61682 0.0
C2948 C 0.18697 0.37142 0.58922 0.0
C2949 C 0.20257 0.32877 0.57762 0.0
N2950 N 0.18446 0.35443 0.60798 0.0
N2951 N 0.19703 0.32014 0.58637 0.0
H2952 H 1.00512 0.43388 0.74196 0.0
H2953 H 0.03716 0.5536 0.78618 0.0
H2954 H 0.99678 0.53442 0.74253 0.0
H2955 H 0.02617 0.44361 0.78544 0.0
H2956 H 0.02633 0.54982 0.77017 0.0
H2957 H 0.01718 0.43994 0.75779 0.0
C2958 C 1.00622 0.45753 0.74539 0.0
C2959 C 1.00016 0.48383 0.74085 0.0
C2960 C 0.02617 0.5265 0.77353 0.0
C2961 C 1.01353 0.49068 0.75914 0.0
C2962 C 0.03251 0.5287 0.78266 0.0
C2963 C 0.03233 0.49877 0.7872 0.0
C2964 C 0.02005 0.49432 0.76887 0.0
C2965 C 0.02594 0.46712 0.78228 0.0
C2966 C 1.0128 0.46079 0.75448 0.0
C2967 C 1.0011 0.51337 0.74575 0.0
N2968 N 0.02019 0.46581 0.77342 0.0
N2969 N 1.00776 0.51607 0.75462 0.0
H2970 H 0.56802 0.48271 0.7451 0.0
H2971 H 0.48202 0.55425 0.78299 0.0
H2972 H 0.50457 0.53842 0.73982 0.0
H2973 H 0.54788 0.50113 0.78833 0.0
H2974 H 0.4865 0.54497 0.7672 0.0
H2975 H 0.55748 0.4855 0.7609 0.0
C2976 C 0.55147 0.49514 0.74723 0.0
C2977 C 0.53723 0.5104 0.74106 0.0
C2978 C 0.49983 0.53516 0.77182 0.0
C2979 C 0.52549 0.51418 0.75925 0.0
C2980 C 0.49704 0.54019 0.78087 0.0
C2981 C 0.51461 0.5285 0.78706 0.0
C2982 C 0.52036 0.51827 0.76887 0.0
C2983 C 0.53427 0.51108 0.78383 0.0
C2984 C 0.5457 0.49697 0.75629 0.0
C2985 C 0.51657 0.52673 0.7443 0.0
N2986 N 0.53667 0.50659 0.77499 0.0
N2987 N 0.51142 0.52825 0.75314 0.0
H2988 H 0.46146 0.97616 0.7393 0.0
H2989 H 0.54024 0.04132 0.78835 0.0
H2990 H 0.5658 0.07794 0.74498 0.0
H2991 H 0.44661 0.93178 0.78212 0.0
H2992 H 0.54967 0.05576 0.77254 0.0
H2993 H 0.45566 0.95947 0.75492 0.0
C2994 C 0.48346 0.99484 0.74379 0.0
C2995 C 0.51416 0.02865 0.74074 0.0
C2996 C 0.52719 0.02847 0.77463 0.0
C2997 C 0.50717 0.00992 0.75879 0.0
C2998 C 0.52168 0.02028 0.78367 0.0
C2999 C 0.4926 0.98524 0.7866 0.0
C3000 C 0.50323 1.00161 0.76845 0.0
C3001 C 0.46969 0.95897 0.78019 0.0
C3002 C 0.47995 0.98537 0.75275 0.0
C3003 C 0.54128 0.05192 0.74698 0.0
N3004 N 0.47535 0.96776 0.77145 0.0
N3005 N 0.53704 0.04224 0.75568 0.0
H3006 H 0.53194 0.07993 0.24499 0.0
H3007 H 0.50235 0.92924 0.28233 0.0
H3008 H 0.53354 0.97748 0.23974 0.0
H3009 H 0.52252 0.04057 0.28818 0.0
H3010 H 0.50654 0.94364 0.26658 0.0
H3011 H 0.52179 0.06327 0.26064 0.0
C3012 C 0.53016 0.05391 0.2471 0.0
C3013 C 0.53392 0.03026 0.24097 0.0
C3014 C 0.5099 0.96489 0.2713 0.0
C3015 C 0.52175 0.01077 0.25896 0.0
C3016 C 0.50723 0.9566 0.28031 0.0
C3017 C 0.51203 0.98371 0.28663 0.0
C3018 C 0.51723 1.00053 0.26851 0.0
C3019 C 0.51898 0.0189 0.28357 0.0
C3020 C 0.52421 0.04437 0.25605 0.0
C3021 C 0.53045 0.9965 0.24414 0.0
N3022 N 0.52134 0.02627 0.27475 0.0
N3023 N 0.52471 0.98788 0.2529 0.0
H3024 H 0.97158 0.49728 0.28863 0.0
H3025 H 0.05698 0.5387 0.23955 0.0
H3026 H 0.09069 0.55538 0.28297 0.0
H3027 H 0.93788 0.47868 0.24522 0.0
H3028 H 0.06987 0.54287 0.2554 0.0
H3029 H 0.95869 0.48799 0.27279 0.0
C3030 C 0.99506 0.50805 0.28407 0.0
C3031 C 0.03232 0.52725 0.28719 0.0
C3032 C 0.0409 0.52859 0.25318 0.0
C3033 C 0.01769 0.51654 0.26896 0.0
C3034 C 0.0335 0.52633 0.24412 0.0
C3035 C 0.99624 0.50837 0.241 0.0
C3036 C 1.01087 0.51295 0.25924 0.0
C3037 C 0.96705 0.49241 0.24727 0.0
C3038 C 0.98766 0.50259 0.27501 0.0
C3039 C 0.06152 0.54004 0.28092 0.0
N3040 N 0.97497 0.49526 0.25606 0.0
N3041 N 0.05359 0.53465 0.27214 0.0
H3042 H 0.52621 0.44025 0.24512 0.0
H3043 H 0.49822 0.56189 0.28263 0.0
H3044 H 0.50836 0.53298 0.23939 0.0
H3045 H 0.49419 0.45656 0.2877 0.0
H3046 H 0.50846 0.55557 0.26697 0.0
H3047 H 0.52153 0.44998 0.26089 0.0
C3048 C 0.52173 0.46296 0.24717 0.0
C3049 C 0.51775 0.48587 0.24088 0.0
C3050 C 0.50547 0.53392 0.27152 0.0
C3051 C 0.51199 0.49696 0.25901 0.0
C3052 C 0.49947 0.5374 0.28048 0.0
C3053 C 0.49504 0.50961 0.28657 0.0
C3054 C 0.50731 0.50249 0.26856 0.0
C3055 C 0.49783 0.47899 0.28334 0.0
C3056 C 0.51878 0.46831 0.25619 0.0
C3057 C 0.51129 0.51441 0.24397 0.0
N3058 N 0.50365 0.47623 0.27459 0.0
N3059 N 0.50865 0.51916 0.2528 0.0
H3060 H 0.02435 0.14607 0.28873 0.0
H3061 H 1.01223 0.21113 0.23945 0.0
H3062 H 0.94369 0.1786 0.28078 0.0
H3063 H 0.09476 0.18194 0.24795 0.0
H3064 H 0.98734 0.20059 0.25453 0.0
H3065 H 0.05075 0.15982 0.27384 0.0
C3066 C 1.01209 0.15603 0.28385 0.0
C3067 C 0.98157 0.16099 0.28605 0.0
C3068 C 1.01091 0.1965 0.25309 0.0
C3069 C 1.01197 0.17709 0.2689 0.0
C3070 C 0.02528 0.2027 0.24448 0.0
C3071 C 0.0556 0.19724 0.24236 0.0
C3072 C 0.02691 0.18479 0.25968 0.0
C3073 C 0.07095 0.18585 0.24918 0.0
C3074 C 0.02734 0.16406 0.27534 0.0
C3075 C 0.96741 0.17465 0.27945 0.0
N3076 N 0.05646 0.17999 0.25749 0.0
N3077 N 0.98259 0.18204 0.27118 0.0
H3078 H 0.83761 0.77109 0.28157 0.0
H3079 H 0.84953 0.92941 0.24855 0.0
H3080 H 0.88635 0.88801 0.28862 0.0
H3081 H 0.81071 0.8149 0.24061 0.0
H3082 H 0.86049 0.91401 0.26341 0.0
H3083 H 0.82406 0.78564 0.26682 0.0
C3084 C 0.84518 0.79978 0.28006 0.0
C3085 C 0.86325 0.82834 0.28639 0.0
C3086 C 0.84956 0.89222 0.25842 0.0
C3087 C 0.8481 0.84532 0.26941 0.0
C3088 C 0.8435 0.90105 0.24989 0.0
C3089 C 0.82933 0.87353 0.24322 0.0
C3090 C 0.84135 0.85548 0.2604 0.0
C3091 C 0.82128 0.83704 0.2455 0.0
C3092 C 0.83766 0.80811 0.2716 0.0
C3093 C 0.87286 0.8651 0.28395 0.0
N3094 N 0.82744 0.82914 0.25386 0.0
N3095 N 0.86518 0.87248 0.27569 0.0
H3096 H 0.13782 0.99251 0.28957 0.0
H3097 H 0.20609 1.00578 0.23936 0.0
H3098 H 0.24792 0.07608 0.28032 0.0
H3099 H 0.09903 0.91779 0.2491 0.0
H3100 H 0.22205 0.03176 0.25428 0.0
H3101 H 0.1231 0.965 0.27478 0.0
C3102 C 0.15892 1.00517 0.28444 0.0
C3103 C 0.19418 0.03681 0.28624 0.0
C3104 C 0.19507 1.00674 0.25315 0.0
C3105 C 0.17749 1.00517 0.26921 0.0
C3106 C 0.18598 0.99171 0.24462 0.0
C3107 C 0.15104 0.95945 0.24289 0.0
C3108 C 0.1691 0.98955 0.26007 0.0
C3109 C 0.12602 0.943 0.25002 0.0
C3110 C 0.15054 0.98929 0.27599 0.0
C3111 C 0.22053 0.05149 0.27931 0.0
N3112 N 0.1355 0.95821 0.25826 0.0
N3113 N 0.2116 0.0357 0.27112 0.0
H3114 H 0.03488 0.84591 0.7902 0.0
H3115 H 0.99611 0.82622 0.73799 0.0
H3116 H 0.92367 0.7929 0.77875 0.0
H3117 H 0.1072 0.88665 0.74945 0.0
H3118 H 0.96911 0.8119 0.75285 0.0
H3119 H 0.06188 0.85921 0.77535 0.0
C3120 C 0.01608 0.83716 0.78458 0.0
C3121 C 0.97683 0.81821 0.78579 0.0
C3122 C 0.99941 0.82825 0.75211 0.0
C3123 C 1.00772 0.8331 0.76868 0.0
C3124 C 1.01488 0.83663 0.74361 0.0
C3125 C 0.0541 0.85774 0.74241 0.0
C3126 C 0.02322 0.84103 0.75952 0.0
C3127 C 0.07688 0.86985 0.75 0.0
C3128 C 0.03156 0.84461 0.77608 0.0
C3129 C 0.95403 0.80707 0.7782 0.0
N3130 N 0.06114 0.86139 0.7582 0.0
N3131 N 0.96977 0.81471 0.77 0.0
H3132 H 0.13329 0.12809 0.73934 0.0
H3133 H 0.20549 0.20119 0.7885 0.0
H3134 H 0.17156 0.24177 0.74784 0.0
H3135 H 0.17906 0.09169 0.77895 0.0
H3136 H 0.19243 0.2164 0.77379 0.0
H3137 H 0.14844 0.11392 0.75393 0.0
C3138 C 0.14475 0.15008 0.74428 0.0
C3139 C 0.15101 0.18619 0.74232 0.0
C3140 C 0.18952 0.18905 0.77492 0.0
C3141 C 0.1687 0.17013 0.75912 0.0
C3142 C 0.19719 0.18037 0.78333 0.0
C3143 C 0.19336 0.14498 0.78505 0.0
C3144 C 0.17778 0.16219 0.76813 0.0
C3145 C 0.18184 0.11908 0.77804 0.0
C3146 C 0.15361 0.14201 0.75261 0.0
C3147 C 0.16655 0.21364 0.74899 0.0
N3148 N 0.17444 0.12817 0.76993 0.0
N3149 N 0.17468 0.20502 0.75708 0.0
H3150 H 0.92904 0.07244 0.78161 0.0
H3151 H 0.7728 0.93803 0.74654 0.0
H3152 H 0.80996 0.01199 0.78734 0.0
H3153 H 0.89248 0.99237 0.74184 0.0
H3154 H 0.78539 0.9665 0.76126 0.0
H3155 H 0.91578 0.0445 0.76691 0.0
C3156 C 0.90007 0.05305 0.77983 0.0
C3157 C 0.87064 0.04448 0.78582 0.0
C3158 C 0.8089 0.9722 0.757 0.0
C3159 C 0.85514 0.01266 0.7688 0.0
C3160 C 0.80173 0.95612 0.74857 0.0
C3161 C 0.8316 0.96266 0.7429 0.0
C3162 C 0.84625 0.99522 0.75983 0.0
C3163 C 0.86851 0.98601 0.74598 0.0
C3164 C 0.8925 0.03726 0.77138 0.0
C3165 C 0.83361 0.0198 0.78297 0.0
N3166 N 0.87473 1.00139 0.7542 0.0
N3167 N 0.82696 1.00477 0.77469 0.0
H3168 H 0.67507 0.53644 0.62154 0.0
H3169 H 0.66801 0.46362 0.57202 0.0
H3170 H 0.59274 0.4257 0.61246 0.0
H3171 H 0.74526 0.57697 0.58048 0.0
H3172 H 0.64041 0.44925 0.58681 0.0
H3173 H 0.70102 0.55194 0.6066 0.0
C3174 C 0.66222 0.5154 0.61642 0.0
C3175 C 0.63159 0.47959 0.61834 0.0
C3176 C 0.66333 0.47731 0.58544 0.0
C3177 C 0.66168 0.49716 0.60114 0.0
C3178 C 0.67927 0.48551 0.57698 0.0
C3179 C 0.70917 0.52158 0.57496 0.0
C3180 C 0.67739 0.50528 0.59199 0.0
C3181 C 0.72204 0.5489 0.58167 0.0
C3182 C 0.67724 0.52426 0.60787 0.0
C3183 C 0.6167 0.45344 0.61139 0.0
N3184 N 0.70623 0.54015 0.58987 0.0
N3185 N 0.63187 0.46271 0.60314 0.0
H3186 H 0.57898 0.21297 0.61851 0.0
H3187 H 0.44703 0.13411 0.57565 0.0
H3188 H 0.48396 0.10043 0.61666 0.0
H3189 H 0.54276 0.24622 0.57758 0.0
H3190 H 0.45952 0.12137 0.59067 0.0
H3191 H 0.56537 0.22582 0.60364 0.0
C3192 C 0.55502 0.19101 0.61503 0.0
C3193 C 0.53259 0.15552 0.61891 0.0
C3194 C 0.47784 0.14874 0.5878 0.0
C3195 C 0.51709 0.17 0.60172 0.0
C3196 C 0.47062 0.15613 0.57922 0.0
C3197 C 0.49387 0.19134 0.57528 0.0
C3198 C 0.50852 0.17675 0.59255 0.0
C3199 C 0.52434 0.21849 0.58025 0.0
C3200 C 0.54743 0.19832 0.60648 0.0
C3201 C 0.50234 0.12805 0.61394 0.0
N3202 N 0.53069 0.21065 0.58859 0.0
N3203 N 0.4955 0.13586 0.60563 0.0
H3204 H 0.81131 0.33617 0.62202 0.0
H3205 H 0.88813 0.34622 0.57274 0.0
H3206 H 0.92505 0.41516 0.61398 0.0
H3207 H 0.77581 0.2652 0.5813 0.0
H3208 H 0.90274 0.37128 0.58778 0.0
H3209 H 0.79824 0.30961 0.60715 0.0
C3210 C 0.83356 0.34803 0.61713 0.0
C3211 C 0.86934 0.37813 0.61929 0.0
C3212 C 0.8749 0.34801 0.58637 0.0
C3213 C 0.85454 0.34754 0.60217 0.0
C3214 C 0.86656 0.33353 0.57777 0.0
C3215 C 0.83056 0.30358 0.57568 0.0
C3216 C 0.84709 0.33248 0.59297 0.0
C3217 C 0.80372 0.28871 0.58251 0.0
C3218 C 0.82611 0.3327 0.60863 0.0
C3219 C 0.89717 0.39177 0.61267 0.0
N3220 N 0.81251 0.30329 0.5908 0.0
N3221 N 0.88915 0.37652 0.60442 0.0
H3222 H 0.74518 0.16056 0.07891 0.0
H3223 H 0.61067 0.18169 0.11413 0.0
H3224 H 0.68275 0.21723 0.07353 0.0
H3225 H 0.67595 0.12858 0.12019 0.0
H3226 H 0.63572 0.19333 0.09914 0.0
H3227 H 0.71838 0.14618 0.09381 0.0
C3228 C 0.72559 0.16971 0.08082 0.0
C3229 C 0.71637 0.19028 0.07492 0.0
C3230 C 0.64463 0.17914 0.10374 0.0
C3231 C 0.68583 0.17422 0.09207 0.0
C3232 C 0.63051 0.17269 0.11235 0.0
C3233 C 0.64135 0.15434 0.11852 0.0
C3234 C 0.66987 0.16716 0.10118 0.0
C3235 C 0.66649 0.14257 0.11568 0.0
C3236 C 0.71049 0.1617 0.08936 0.0
C3237 C 0.6912 0.20181 0.07786 0.0
N3238 N 0.67993 0.14925 0.10725 0.0
N3239 N 0.67691 0.19368 0.08619 0.0
H3240 H 0.8406 0.43272 0.11451 0.0
H3241 H 0.86539 0.58898 0.07916 0.0
H3242 H 0.89757 0.5514 0.12035 0.0
H3243 H 0.80466 0.46972 0.07401 0.0
H3244 H 0.87978 0.57633 0.09402 0.0
H3245 H 0.82872 0.44621 0.09956 0.0
C3246 C 0.85039 0.46165 0.11269 0.0
C3247 C 0.86992 0.4909 0.11879 0.0
C3248 C 0.86336 0.55293 0.08964 0.0
C3249 C 0.85683 0.50668 0.1015 0.0
C3250 C 0.85534 0.56014 0.08111 0.0
C3251 C 0.83364 0.53039 0.07528 0.0
C3252 C 0.84972 0.51566 0.09239 0.0
C3253 C 0.82098 0.49358 0.07828 0.0
C3254 C 0.84381 0.46936 0.1041 0.0
C3255 C 0.88267 0.52789 0.1159 0.0
N3256 N 0.82916 0.48731 0.08659 0.0
N3257 N 0.87584 0.53469 0.10749 0.0
H3258 H 0.51421 0.41264 0.11363 0.0
H3259 H 0.50857 0.25298 0.08208 0.0
H3260 H 0.5462 0.33223 0.12206 0.0
H3261 H 0.48634 0.33946 0.07293 0.0
H3262 H 0.51979 0.28002 0.09688 0.0
H3263 H 0.50042 0.38417 0.09893 0.0
C3264 C 0.51804 0.3888 0.11243 0.0
C3265 C 0.53148 0.37492 0.11914 0.0
C3266 C 0.51245 0.29311 0.09164 0.0
C3267 C 0.51604 0.34231 0.10221 0.0
C3268 C 0.50625 0.2778 0.08314 0.0
C3269 C 0.49666 0.29398 0.07616 0.0
C3270 C 0.50899 0.32492 0.09325 0.0
C3271 C 0.49326 0.32567 0.07807 0.0
C3272 C 0.5104 0.3727 0.104 0.0
C3273 C 0.5364 0.34427 0.1171 0.0
N3274 N 0.49947 0.34007 0.0864 0.0
N3275 N 0.5287 0.32906 0.10885 0.0
H3276 H 0.41516 0.92181 0.91301 0.0
H3277 H 0.27353 0.76644 0.94733 0.0
H3278 H 0.34598 0.80408 0.90676 0.0
H3279 H 0.3462 0.88289 0.95429 0.0
H3280 H 0.29852 0.78043 0.93233 0.0
H3281 H 0.3884 0.90901 0.92791 0.0
C3282 C 0.3941 0.89332 0.91473 0.0
C3283 C 0.38295 0.86398 0.90858 0.0
C3284 C 0.30906 0.80297 0.93713 0.0
C3285 C 0.35243 0.84905 0.92573 0.0
C3286 C 0.29496 0.79495 0.94574 0.0
C3287 C 0.30791 0.82342 0.95216 0.0
C3288 C 0.3364 0.83984 0.93483 0.0
C3289 C 0.33509 0.86002 0.94958 0.0
C3290 C 0.37902 0.88599 0.92327 0.0
C3291 C 0.35591 0.82754 0.91128 0.0
N3292 N 0.34846 0.86713 0.94114 0.0
N3293 N 0.34167 0.82116 0.91962 0.0
H3294 H 0.21662 0.55428 0.95589 0.0
H3295 H 0.14868 0.48142 0.90649 0.0
H3296 H 0.17853 0.44055 0.94745 0.0
H3297 H 0.17851 0.59244 0.9156 0.0
H3298 H 0.15928 0.46582 0.9214 0.0
H3299 H 0.2032 0.56878 0.94115 0.0
C3300 C 0.2055 0.53233 0.95094 0.0
C3301 C 0.19884 0.49612 0.95296 0.0
C3302 C 0.16347 0.49359 0.92014 0.0
C3303 C 0.18316 0.51256 0.93598 0.0
C3304 C 0.15721 0.5025 0.91161 0.0
C3305 C 0.16275 0.53842 0.90971 0.0
C3306 C 0.17546 0.52075 0.92686 0.0
C3307 C 0.17446 0.56462 0.91666 0.0
C3308 C 0.19766 0.5406 0.94252 0.0
C3309 C 0.18379 0.46874 0.94627 0.0
N3310 N 0.18044 0.5553 0.92488 0.0
N3311 N 0.17665 0.47756 0.9381 0.0
H3312 H 0.51957 0.60976 0.91357 0.0
H3313 H 0.51754 0.76441 0.94558 0.0
H3314 H 0.47989 0.68476 0.90565 0.0
H3315 H 0.54759 0.68286 0.9543 0.0
H3316 H 0.50621 0.7373 0.93079 0.0
H3317 H 0.53338 0.63838 0.92826 0.0
C3318 C 0.51404 0.63246 0.91488 0.0
C3319 C 0.49845 0.64475 0.90831 0.0
C3320 C 0.51529 0.72531 0.93594 0.0
C3321 C 0.51391 0.67751 0.92523 0.0
C3322 C 0.52156 0.74065 0.94443 0.0
C3323 C 0.53339 0.72589 0.95129 0.0
C3324 C 0.52093 0.6949 0.9342 0.0
C3325 C 0.5389 0.69556 0.94925 0.0
C3326 C 0.52171 0.64863 0.9233 0.0
C3327 C 0.49141 0.67394 0.91049 0.0
N3328 N 0.53259 0.6811 0.94092 0.0
N3329 N 0.49917 0.68926 0.91873 0.0
H3330 H 0.27051 0.50762 0.44702 0.0
H3331 H 0.41669 0.49969 0.41308 0.0
H3332 H 0.34786 0.46994 0.45437 0.0
H3333 H 0.34283 0.54246 0.40643 0.0
H3334 H 0.3901 0.48583 0.428 0.0
H3335 H 0.29547 0.51855 0.43202 0.0
C3336 C 0.29296 0.50187 0.44551 0.0
C3337 C 0.30723 0.48809 0.45205 0.0
C3338 C 0.37966 0.49818 0.42327 0.0
C3339 C 0.33572 0.50008 0.43472 0.0
C3340 C 0.39466 0.50588 0.41471 0.0
C3341 C 0.38211 0.5224 0.40845 0.0
C3342 C 0.35176 0.50692 0.42561 0.0
C3343 C 0.35384 0.53025 0.41104 0.0
C3344 C 0.30705 0.5079 0.4369 0.0
C3345 C 0.33572 0.48032 0.44957 0.0
N3346 N 0.33971 0.52248 0.41939 0.0
N3347 N 0.34905 0.48651 0.44113 0.0
H3348 H 0.5275 0.92032 0.41249 0.0
H3349 H 0.50835 0.76542 0.44758 0.0
H3350 H 0.47269 0.80148 0.40698 0.0
H3351 H 0.55896 0.88337 0.45381 0.0
H3352 H 0.49678 0.7787 0.43259 0.0
H3353 H 0.54177 0.90807 0.4274 0.0
C3354 C 0.51873 0.89167 0.41437 0.0
C3355 C 0.49871 0.86189 0.40843 0.0
C3356 C 0.5104 0.80173 0.43722 0.0
C3357 C 0.51467 0.84761 0.42559 0.0
C3358 C 0.51681 0.79413 0.44584 0.0
C3359 C 0.53444 0.82324 0.45206 0.0
C3360 C 0.52171 0.8388 0.43472 0.0
C3361 C 0.54554 0.86 0.44927 0.0
C3362 C 0.52668 0.88468 0.42293 0.0
C3363 C 0.48767 0.82531 0.41134 0.0
N3364 N 0.53893 0.86669 0.44083 0.0
N3365 N 0.49575 0.81926 0.41968 0.0
H3366 H 0.21437 0.66886 0.45514 0.0
H3367 H 0.13978 0.6754 0.40657 0.0
H3368 H 0.17209 0.74254 0.44798 0.0
H3369 H 0.17857 0.59943 0.41431 0.0
H3370 H 0.15036 0.69978 0.42168 0.0
H3371 H 0.2008 0.64288 0.44022 0.0
C3372 C 0.2023 0.67966 0.45043 0.0
C3373 C 0.19455 0.70812 0.45285 0.0
C3374 C 0.15655 0.67777 0.42006 0.0
C3375 C 0.17865 0.67818 0.43567 0.0
C3376 C 0.15035 0.66368 0.41143 0.0
C3377 C 0.15845 0.63536 0.40909 0.0
C3378 C 0.17095 0.66349 0.42645 0.0
C3379 C 0.17254 0.6217 0.41571 0.0
C3380 C 0.19438 0.66466 0.4419 0.0
C3381 C 0.17824 0.72043 0.44647 0.0
N3382 N 0.17833 0.63588 0.42404 0.0
N3383 N 0.17101 0.70554 0.43818 0.0
loop_
_geom_bond_atom_site_label_1
_geom_bond_atom_site_label_2
_geom_bond_distance
_geom_bond_site_symmetry_2
_ccdc_geom_bond_type
Gd0 C3 2.818 . S
Gd0 O20 2.377 . S
Gd0 O22 2.448 . S
Gd0 O23 2.506 . S
Gd0 O24 2.435 . S
Gd0 O25 2.717 . S
Gd0 O27 2.395 . S
Gd0 O31 2.327 . S
Gd1 C12 2.818 . S
Gd1 O21 2.395 . S
Gd1 O25 2.327 . S
Gd1 O26 2.377 . S
Gd1 O28 2.448 . S
Gd1 O29 2.506 . S
Gd1 O30 2.435 . S
Gd1 O31 2.717 . S
C2 O20 1.240 . S
C2 O21 1.240 . S
C3 Gd0 2.818 . S
C3 C4 1.510 . S
C3 O22 1.249 . S
C3 O23 1.252 . S
C4 C3 1.510 . S
C4 C5 1.404 . S
C4 C6 1.352 . S
C5 C4 1.404 . S
C5 C9 1.389 . S
C5 H32 0.930 . S
C6 C4 1.352 . S
C6 C8 1.374 . S
C6 H33 0.931 . S
C7 C8 1.359 . S
C7 C9 1.364 . S
C8 C6 1.374 . S
C8 C7 1.359 . S
C8 H34 0.931 . S
C9 C5 1.389 . S
C9 C7 1.364 . S
C9 H35 0.931 . S
C10 O24 1.256 . S
C10 O25 1.257 . S
C11 O26 1.240 . S
C11 O27 1.240 . S
C12 Gd1 2.818 . S
C12 C13 1.510 . S
C12 O28 1.249 . S
C12 O29 1.252 . S
C13 C12 1.510 . S
C13 C14 1.404 . S
C13 C15 1.352 . S
C14 C13 1.404 . S
C14 C18 1.389 . S
C14 H36 0.930 . S
C15 C13 1.352 . S
C15 C17 1.374 . S
C15 H37 0.931 . S
C16 C17 1.359 . S
C16 C18 1.364 . S
C17 C15 1.374 . S
C17 C16 1.359 . S
C17 H38 0.931 . S
C18 C14 1.389 . S
C18 C16 1.364 . S
C18 H39 0.931 . S
C19 O30 1.256 . S
C19 O31 1.257 . S
O20 Gd0 2.377 . S
O20 C2 1.240 . S
O21 Gd1 2.395 . S
O21 C2 1.240 . S
O22 Gd0 2.448 . S
O22 C3 1.249 . S
O23 Gd0 2.506 . S
O23 C3 1.252 . S
O24 Gd0 2.435 . S
O24 C10 1.256 . S
O25 Gd0 2.717 . S
O25 Gd1 2.327 . S
O25 C10 1.257 . S
O26 Gd1 2.377 . S
O26 C11 1.240 . S
O27 Gd0 2.395 . S
O27 C11 1.240 . S
O28 Gd1 2.448 . S
O28 C12 1.249 . S
O29 Gd1 2.506 . S
O29 C12 1.252 . S
O30 Gd1 2.435 . S
O30 C19 1.256 . S
O31 Gd0 2.327 . S
O31 Gd1 2.717 . S
O31 C19 1.257 . S
H32 C5 0.930 . S
H33 C6 0.931 . S
H34 C8 0.931 . S
H35 C9 0.931 . S
H36 C14 0.930 . S
H37 C15 0.931 . S
H38 C17 0.931 . S
H39 C18 0.931 . S
Gd40 C43 2.818 . S
Gd40 O60 2.377 . S
Gd40 O62 2.448 . S
Gd40 O63 2.506 . S
Gd40 O64 2.435 . S
Gd40 O65 2.717 . S
Gd40 O67 2.395 . S
Gd40 O71 2.327 . S
Gd41 C52 2.818 . S
Gd41 O61 2.395 . S
Gd41 O65 2.327 . S
Gd41 O66 2.377 . S
Gd41 O68 2.448 . S
Gd41 O69 2.506 . S
Gd41 O70 2.435 . S
Gd41 O71 2.717 . S
C42 O60 1.240 . S
C42 O61 1.240 . S
C43 Gd40 2.818 . S
C43 C44 1.510 . S
C43 O62 1.249 . S
C43 O63 1.252 . S
C44 C43 1.510 . S
C44 C45 1.404 . S
C44 C46 1.352 . S
C45 C44 1.404 . S
C45 C49 1.389 . S
C45 H72 0.930 . S
C46 C44 1.352 . S
C46 C48 1.374 . S
C46 H73 0.931 . S
C47 C48 1.359 . S
C47 C49 1.364 . S
C48 C46 1.374 . S
C48 C47 1.359 . S
C48 H74 0.931 . S
C49 C45 1.389 . S
C49 C47 1.364 . S
C49 H75 0.931 . S
C50 O64 1.256 . S
C50 O65 1.257 . S
C51 O66 1.240 . S
C51 O67 1.240 . S
C52 Gd41 2.818 . S
C52 C53 1.510 . S
C52 O68 1.249 . S
C52 O69 1.252 . S
C53 C52 1.510 . S
C53 C54 1.404 . S
C53 C55 1.352 . S
C54 C53 1.404 . S
C54 C58 1.389 . S
C54 H76 0.930 . S
C55 C53 1.352 . S
C55 C57 1.374 . S
C55 H77 0.931 . S
C56 C57 1.359 . S
C56 C58 1.364 . S
C57 C55 1.374 . S
C57 C56 1.359 . S
C57 H78 0.931 . S
C58 C54 1.389 . S
C58 C56 1.364 . S
C58 H79 0.931 . S
C59 O70 1.256 . S
C59 O71 1.257 . S
O60 Gd40 2.377 . S
O60 C42 1.240 . S
O61 Gd41 2.395 . S
O61 C42 1.240 . S
O62 Gd40 2.448 . S
O62 C43 1.249 . S
O63 Gd40 2.506 . S
O63 C43 1.252 . S
O64 Gd40 2.435 . S
O64 C50 1.256 . S
O65 Gd40 2.717 . S
O65 Gd41 2.327 . S
O65 C50 1.257 . S
O66 Gd41 2.377 . S
O66 C51 1.240 . S
O67 Gd40 2.395 . S
O67 C51 1.240 . S
O68 Gd41 2.448 . S
O68 C52 1.249 . S
O69 Gd41 2.506 . S
O69 C52 1.252 . S
O70 Gd41 2.435 . S
O70 C59 1.256 . S
O71 Gd40 2.327 . S
O71 Gd41 2.717 . S
O71 C59 1.257 . S
H72 C45 0.930 . S
H73 C46 0.931 . S
H74 C48 0.931 . S
H75 C49 0.931 . S
H76 C54 0.930 . S
H77 C55 0.931 . S
H78 C57 0.931 . S
H79 C58 0.931 . S
Gd80 C83 2.818 . S
Gd80 O100 2.377 . S
Gd80 O102 2.448 . S
Gd80 O103 2.506 . S
Gd80 O104 2.435 . S
Gd80 O105 2.717 . S
Gd80 O107 2.395 . S
Gd80 O111 2.327 . S
Gd81 C92 2.818 . S
Gd81 O101 2.395 . S
Gd81 O105 2.327 . S
Gd81 O106 2.377 . S
Gd81 O108 2.448 . S
Gd81 O109 2.506 . S
Gd81 O110 2.435 . S
Gd81 O111 2.717 . S
C82 O100 1.240 . S
C82 O101 1.240 . S
C83 Gd80 2.818 . S
C83 C84 1.510 . S
C83 O102 1.249 . S
C83 O103 1.252 . S
C84 C83 1.510 . S
C84 C85 1.404 . S
C84 C86 1.352 . S
C85 C84 1.404 . S
C85 C89 1.389 . S
C85 H112 0.930 . S
C86 C84 1.352 . S
C86 C88 1.374 . S
C86 H113 0.931 . S
C87 C88 1.359 . S
C87 C89 1.364 . S
C88 C86 1.374 . S
C88 C87 1.359 . S
C88 H114 0.931 . S
C89 C85 1.389 . S
C89 C87 1.364 . S
C89 H115 0.931 . S
C90 O104 1.256 . S
C90 O105 1.257 . S
C91 O106 1.240 . S
C91 O107 1.240 . S
C92 Gd81 2.818 . S
C92 C93 1.510 . S
C92 O108 1.249 . S
C92 O109 1.252 . S
C93 C92 1.510 . S
C93 C94 1.404 . S
C93 C95 1.352 . S
C94 C93 1.404 . S
C94 C98 1.389 . S
C94 H116 0.930 . S
C95 C93 1.352 . S
C95 C97 1.374 . S
C95 H117 0.931 . S
C96 C97 1.359 . S
C96 C98 1.364 . S
C97 C95 1.374 . S
C97 C96 1.359 . S
C97 H118 0.931 . S
C98 C94 1.389 . S
C98 C96 1.364 . S
C98 H119 0.931 . S
C99 O110 1.256 . S
C99 O111 1.257 . S
O100 Gd80 2.377 . S
O100 C82 1.240 . S
O101 Gd81 2.395 . S
O101 C82 1.240 . S
O102 Gd80 2.448 . S
O102 C83 1.249 . S
O103 Gd80 2.506 . S
O103 C83 1.252 . S
O104 Gd80 2.435 . S
O104 C90 1.256 . S
O105 Gd80 2.717 . S
O105 Gd81 2.327 . S
O105 C90 1.257 . S
O106 Gd81 2.377 . S
O106 C91 1.240 . S
O107 Gd80 2.395 . S
O107 C91 1.240 . S
O108 Gd81 2.448 . S
O108 C92 1.249 . S
O109 Gd81 2.506 . S
O109 C92 1.252 . S
O110 Gd81 2.435 . S
O110 C99 1.256 . S
O111 Gd80 2.327 . S
O111 Gd81 2.717 . S
O111 C99 1.257 . S
H112 C85 0.930 . S
H113 C86 0.931 . S
H114 C88 0.931 . S
H115 C89 0.931 . S
H116 C94 0.930 . S
H117 C95 0.931 . S
H118 C97 0.931 . S
H119 C98 0.931 . S
Gd120 C123 2.818 . S
Gd120 O140 2.377 . S
Gd120 O142 2.448 . S
Gd120 O143 2.506 . S
Gd120 O144 2.435 . S
Gd120 O145 2.717 . S
Gd120 O147 2.395 . S
Gd120 O151 2.327 . S
Gd121 C132 2.818 . S
Gd121 O141 2.395 . S
Gd121 O145 2.327 . S
Gd121 O146 2.377 . S
Gd121 O148 2.448 . S
Gd121 O149 2.506 . S
Gd121 O150 2.435 . S
Gd121 O151 2.717 . S
C122 O140 1.240 . S
C122 O141 1.240 . S
C123 Gd120 2.818 . S
C123 C124 1.510 . S
C123 O142 1.249 . S
C123 O143 1.252 . S
C124 C123 1.510 . S
C124 C125 1.404 . S
C124 C126 1.352 . S
C125 C124 1.404 . S
C125 C129 1.389 . S
C125 H152 0.930 . S
C126 C124 1.352 . S
C126 C128 1.374 . S
C126 H153 0.931 . S
C127 C128 1.359 . S
C127 C129 1.364 . S
C128 C126 1.374 . S
C128 C127 1.359 . S
C128 H154 0.931 . S
C129 C125 1.389 . S
C129 C127 1.364 . S
C129 H155 0.931 . S
C130 O144 1.256 . S
C130 O145 1.257 . S
C131 O146 1.240 . S
C131 O147 1.240 . S
C132 Gd121 2.818 . S
C132 C133 1.510 . S
C132 O148 1.249 . S
C132 O149 1.252 . S
C133 C132 1.510 . S
C133 C134 1.404 . S
C133 C135 1.352 . S
C134 C133 1.404 . S
C134 C138 1.389 . S
C134 H156 0.930 . S
C135 C133 1.352 . S
C135 C137 1.374 . S
C135 H157 0.931 . S
C136 C137 1.359 . S
C136 C138 1.364 . S
C137 C135 1.374 . S
C137 C136 1.359 . S
C137 H158 0.931 . S
C138 C134 1.389 . S
C138 C136 1.364 . S
C138 H159 0.931 . S
C139 O150 1.256 . S
C139 O151 1.257 . S
O140 Gd120 2.377 . S
O140 C122 1.240 . S
O141 Gd121 2.395 . S
O141 C122 1.240 . S
O142 Gd120 2.448 . S
O142 C123 1.249 . S
O143 Gd120 2.506 . S
O143 C123 1.252 . S
O144 Gd120 2.435 . S
O144 C130 1.256 . S
O145 Gd120 2.717 . S
O145 Gd121 2.327 . S
O145 C130 1.257 . S
O146 Gd121 2.377 . S
O146 C131 1.240 . S
O147 Gd120 2.395 . S
O147 C131 1.240 . S
O148 Gd121 2.448 . S
O148 C132 1.249 . S
O149 Gd121 2.506 . S
O149 C132 1.252 . S
O150 Gd121 2.435 . S
O150 C139 1.256 . S
O151 Gd120 2.327 . S
O151 Gd121 2.717 . S
O151 C139 1.257 . S
H152 C125 0.930 . S
H153 C126 0.931 . S
H154 C128 0.931 . S
H155 C129 0.931 . S
H156 C134 0.930 . S
H157 C135 0.931 . S
H158 C137 0.931 . S
H159 C138 0.931 . S
Gd160 C163 2.818 . S
Gd160 O180 2.377 . S
Gd160 O182 2.448 . S
Gd160 O183 2.506 . S
Gd160 O184 2.435 . S
Gd160 O185 2.717 . S
Gd160 O187 2.395 . S
Gd160 O191 2.327 . S
Gd161 C172 2.818 . S
Gd161 O181 2.395 . S
Gd161 O185 2.327 . S
Gd161 O186 2.377 . S
Gd161 O188 2.448 . S
Gd161 O189 2.506 . S
Gd161 O190 2.435 . S
Gd161 O191 2.717 . S
C162 O180 1.240 . S
C162 O181 1.240 . S
C163 Gd160 2.818 . S
C163 C164 1.510 . S
C163 O182 1.249 . S
C163 O183 1.252 . S
C164 C163 1.510 . S
C164 C165 1.404 . S
C164 C166 1.352 . S
C165 C164 1.404 . S
C165 C169 1.389 . S
C165 H192 0.930 . S
C166 C164 1.352 . S
C166 C168 1.374 . S
C166 H193 0.931 . S
C167 C168 1.359 . S
C167 C169 1.364 . S
C168 C166 1.374 . S
C168 C167 1.359 . S
C168 H194 0.931 . S
C169 C165 1.389 . S
C169 C167 1.364 . S
C169 H195 0.931 . S
C170 O184 1.256 . S
C170 O185 1.257 . S
C171 O186 1.240 . S
C171 O187 1.240 . S
C172 Gd161 2.818 . S
C172 C173 1.510 . S
C172 O188 1.249 . S
C172 O189 1.252 . S
C173 C172 1.510 . S
C173 C174 1.404 . S
C173 C175 1.352 . S
C174 C173 1.404 . S
C174 C178 1.389 . S
C174 H196 0.930 . S
C175 C173 1.352 . S
C175 C177 1.374 . S
C175 H197 0.931 . S
C176 C177 1.359 . S
C176 C178 1.364 . S
C177 C175 1.374 . S
C177 C176 1.359 . S
C177 H198 0.931 . S
C178 C174 1.389 . S
C178 C176 1.364 . S
C178 H199 0.931 . S
C179 O190 1.256 . S
C179 O191 1.257 . S
O180 Gd160 2.377 . S
O180 C162 1.240 . S
O181 Gd161 2.395 . S
O181 C162 1.240 . S
O182 Gd160 2.448 . S
O182 C163 1.249 . S
O183 Gd160 2.506 . S
O183 C163 1.252 . S
O184 Gd160 2.435 . S
O184 C170 1.256 . S
O185 Gd160 2.717 . S
O185 Gd161 2.327 . S
O185 C170 1.257 . S
O186 Gd161 2.377 . S
O186 C171 1.240 . S
O187 Gd160 2.395 . S
O187 C171 1.240 . S
O188 Gd161 2.448 . S
O188 C172 1.249 . S
O189 Gd161 2.506 . S
O189 C172 1.252 . S
O190 Gd161 2.435 . S
O190 C179 1.256 . S
O191 Gd160 2.327 . S
O191 Gd161 2.717 . S
O191 C179 1.257 . S
H192 C165 0.930 . S
H193 C166 0.931 . S
H194 C168 0.931 . S
H195 C169 0.931 . S
H196 C174 0.930 . S
H197 C175 0.931 . S
H198 C177 0.931 . S
H199 C178 0.931 . S
Gd200 C203 2.818 . S
Gd200 O220 2.377 . S
Gd200 O222 2.448 . S
Gd200 O223 2.506 . S
Gd200 O224 2.435 . S
Gd200 O225 2.717 . S
Gd200 O227 2.395 . S
Gd200 O231 2.327 . S
Gd201 C212 2.818 . S
Gd201 O221 2.395 . S
Gd201 O225 2.327 . S
Gd201 O226 2.377 . S
Gd201 O228 2.448 . S
Gd201 O229 2.506 . S
Gd201 O230 2.435 . S
Gd201 O231 2.717 . S
C202 O220 1.240 . S
C202 O221 1.240 . S
C203 Gd200 2.818 . S
C203 C204 1.510 . S
C203 O222 1.249 . S
C203 O223 1.252 . S
C204 C203 1.510 . S
C204 C205 1.404 . S
C204 C206 1.352 . S
C205 C204 1.404 . S
C205 C209 1.389 . S
C205 H232 0.930 . S
C206 C204 1.352 . S
C206 C208 1.374 . S
C206 H233 0.931 . S
C207 C208 1.359 . S
C207 C209 1.364 . S
C208 C206 1.374 . S
C208 C207 1.359 . S
C208 H234 0.931 . S
C209 C205 1.389 . S
C209 C207 1.364 . S
C209 H235 0.931 . S
C210 O224 1.256 . S
C210 O225 1.257 . S
C211 O226 1.240 . S
C211 O227 1.240 . S
C212 Gd201 2.818 . S
C212 C213 1.510 . S
C212 O228 1.249 . S
C212 O229 1.252 . S
C213 C212 1.510 . S
C213 C214 1.404 . S
C213 C215 1.352 . S
C214 C213 1.404 . S
C214 C218 1.389 . S
C214 H236 0.930 . S
C215 C213 1.352 . S
C215 C217 1.374 . S
C215 H237 0.931 . S
C216 C217 1.359 . S
C216 C218 1.364 . S
C217 C215 1.374 . S
C217 C216 1.359 . S
C217 H238 0.931 . S
C218 C214 1.389 . S
C218 C216 1.364 . S
C218 H239 0.931 . S
C219 O230 1.256 . S
C219 O231 1.257 . S
O220 Gd200 2.377 . S
O220 C202 1.240 . S
O221 Gd201 2.395 . S
O221 C202 1.240 . S
O222 Gd200 2.448 . S
O222 C203 1.249 . S
O223 Gd200 2.506 . S
O223 C203 1.252 . S
O224 Gd200 2.435 . S
O224 C210 1.256 . S
O225 Gd200 2.717 . S
O225 Gd201 2.327 . S
O225 C210 1.257 . S
O226 Gd201 2.377 . S
O226 C211 1.240 . S
O227 Gd200 2.395 . S
O227 C211 1.240 . S
O228 Gd201 2.448 . S
O228 C212 1.249 . S
O229 Gd201 2.506 . S
O229 C212 1.252 . S
O230 Gd201 2.435 . S
O230 C219 1.256 . S
O231 Gd200 2.327 . S
O231 Gd201 2.717 . S
O231 C219 1.257 . S
H232 C205 0.930 . S
H233 C206 0.931 . S
H234 C208 0.931 . S
H235 C209 0.931 . S
H236 C214 0.930 . S
H237 C215 0.931 . S
H238 C217 0.931 . S
H239 C218 0.931 . S
Gd240 C243 2.818 . S
Gd240 O260 2.377 . S
Gd240 O262 2.448 . S
Gd240 O263 2.506 . S
Gd240 O264 2.435 . S
Gd240 O265 2.717 . S
Gd240 O267 2.395 . S
Gd240 O271 2.327 . S
Gd241 C252 2.818 . S
Gd241 O261 2.395 . S
Gd241 O265 2.327 . S
Gd241 O266 2.377 . S
Gd241 O268 2.448 . S
Gd241 O269 2.506 . S
Gd241 O270 2.435 . S
Gd241 O271 2.717 . S
C242 O260 1.240 . S
C242 O261 1.240 . S
C243 Gd240 2.818 . S
C243 C244 1.510 . S
C243 O262 1.249 . S
C243 O263 1.252 . S
C244 C243 1.510 . S
C244 C245 1.404 . S
C244 C246 1.352 . S
C245 C244 1.404 . S
C245 C249 1.389 . S
C245 H272 0.930 . S
C246 C244 1.352 . S
C246 C248 1.374 . S
C246 H273 0.931 . S
C247 C248 1.359 . S
C247 C249 1.364 . S
C248 C246 1.374 . S
C248 C247 1.359 . S
C248 H274 0.931 . S
C249 C245 1.389 . S
C249 C247 1.364 . S
C249 H275 0.931 . S
C250 O264 1.256 . S
C250 O265 1.257 . S
C251 O266 1.240 . S
C251 O267 1.240 . S
C252 Gd241 2.818 . S
C252 C253 1.510 . S
C252 O268 1.249 . S
C252 O269 1.252 . S
C253 C252 1.510 . S
C253 C254 1.404 . S
C253 C255 1.352 . S
C254 C253 1.404 . S
C254 C258 1.389 . S
C254 H276 0.930 . S
C255 C253 1.352 . S
C255 C257 1.374 . S
C255 H277 0.931 . S
C256 C257 1.359 . S
C256 C258 1.364 . S
C257 C255 1.374 . S
C257 C256 1.359 . S
C257 H278 0.931 . S
C258 C254 1.389 . S
C258 C256 1.364 . S
C258 H279 0.931 . S
C259 O270 1.256 . S
C259 O271 1.257 . S
O260 Gd240 2.377 . S
O260 C242 1.240 . S
O261 Gd241 2.395 . S
O261 C242 1.240 . S
O262 Gd240 2.448 . S
O262 C243 1.249 . S
O263 Gd240 2.506 . S
O263 C243 1.252 . S
O264 Gd240 2.435 . S
O264 C250 1.256 . S
O265 Gd240 2.717 . S
O265 Gd241 2.327 . S
O265 C250 1.257 . S
O266 Gd241 2.377 . S
O266 C251 1.240 . S
O267 Gd240 2.395 . S
O267 C251 1.240 . S
O268 Gd241 2.448 . S
O268 C252 1.249 . S
O269 Gd241 2.506 . S
O269 C252 1.252 . S
O270 Gd241 2.435 . S
O270 C259 1.256 . S
O271 Gd240 2.327 . S
O271 Gd241 2.717 . S
O271 C259 1.257 . S
H272 C245 0.930 . S
H273 C246 0.931 . S
H274 C248 0.931 . S
H275 C249 0.931 . S
H276 C254 0.930 . S
H277 C255 0.931 . S
H278 C257 0.931 . S
H279 C258 0.931 . S
Gd280 C283 2.818 . S
Gd280 O300 2.377 . S
Gd280 O302 2.448 . S
Gd280 O303 2.506 . S
Gd280 O304 2.435 . S
Gd280 O305 2.717 . S
Gd280 O307 2.395 . S
Gd280 O311 2.327 . S
Gd281 C292 2.818 . S
Gd281 O301 2.395 . S
Gd281 O305 2.327 . S
Gd281 O306 2.377 . S
Gd281 O308 2.448 . S
Gd281 O309 2.506 . S
Gd281 O310 2.435 . S
Gd281 O311 2.717 . S
C282 O300 1.240 . S
C282 O301 1.240 . S
C283 Gd280 2.818 . S
C283 C284 1.510 . S
C283 O302 1.249 . S
C283 O303 1.252 . S
C284 C283 1.510 . S
C284 C285 1.404 . S
C284 C286 1.352 . S
C285 C284 1.404 . S
C285 C289 1.389 . S
C285 H312 0.930 . S
C286 C284 1.352 . S
C286 C288 1.374 . S
C286 H313 0.931 . S
C287 C288 1.359 . S
C287 C289 1.364 . S
C288 C286 1.374 . S
C288 C287 1.359 . S
C288 H314 0.931 . S
C289 C285 1.389 . S
C289 C287 1.364 . S
C289 H315 0.931 . S
C290 O304 1.256 . S
C290 O305 1.257 . S
C291 O306 1.240 . S
C291 O307 1.240 . S
C292 Gd281 2.818 . S
C292 C293 1.510 . S
C292 O308 1.249 . S
C292 O309 1.252 . S
C293 C292 1.510 . S
C293 C294 1.404 . S
C293 C295 1.352 . S
C294 C293 1.404 . S
C294 C298 1.389 . S
C294 H316 0.930 . S
C295 C293 1.352 . S
C295 C297 1.374 . S
C295 H317 0.931 . S
C296 C297 1.359 . S
C296 C298 1.364 . S
C297 C295 1.374 . S
C297 C296 1.359 . S
C297 H318 0.931 . S
C298 C294 1.389 . S
C298 C296 1.364 . S
C298 H319 0.931 . S
C299 O310 1.256 . S
C299 O311 1.257 . S
O300 Gd280 2.377 . S
O300 C282 1.240 . S
O301 Gd281 2.395 . S
O301 C282 1.240 . S
O302 Gd280 2.448 . S
O302 C283 1.249 . S
O303 Gd280 2.506 . S
O303 C283 1.252 . S
O304 Gd280 2.435 . S
O304 C290 1.256 . S
O305 Gd280 2.717 . S
O305 Gd281 2.327 . S
O305 C290 1.257 . S
O306 Gd281 2.377 . S
O306 C291 1.240 . S
O307 Gd280 2.395 . S
O307 C291 1.240 . S
O308 Gd281 2.448 . S
O308 C292 1.249 . S
O309 Gd281 2.506 . S
O309 C292 1.252 . S
O310 Gd281 2.435 . S
O310 C299 1.256 . S
O311 Gd280 2.327 . S
O311 Gd281 2.717 . S
O311 C299 1.257 . S
H312 C285 0.930 . S
H313 C286 0.931 . S
H314 C288 0.931 . S
H315 C289 0.931 . S
H316 C294 0.930 . S
H317 C295 0.931 . S
H318 C297 0.931 . S
H319 C298 0.931 . S
Gd320 C323 2.818 . S
Gd320 O340 2.377 . S
Gd320 O342 2.448 . S
Gd320 O343 2.506 . S
Gd320 O344 2.435 . S
Gd320 O345 2.717 . S
Gd320 O347 2.395 . S
Gd320 O351 2.327 . S
Gd321 C332 2.818 . S
Gd321 O341 2.395 . S
Gd321 O345 2.327 . S
Gd321 O346 2.377 . S
Gd321 O348 2.448 . S
Gd321 O349 2.506 . S
Gd321 O350 2.435 . S
Gd321 O351 2.717 . S
C322 O340 1.240 . S
C322 O341 1.240 . S
C323 Gd320 2.818 . S
C323 C324 1.510 . S
C323 O342 1.249 . S
C323 O343 1.252 . S
C324 C323 1.510 . S
C324 C325 1.404 . S
C324 C326 1.352 . S
C325 C324 1.404 . S
C325 C329 1.389 . S
C325 H352 0.930 . S
C326 C324 1.352 . S
C326 C328 1.374 . S
C326 H353 0.931 . S
C327 C328 1.359 . S
C327 C329 1.364 . S
C328 C326 1.374 . S
C328 C327 1.359 . S
C328 H354 0.931 . S
C329 C325 1.389 . S
C329 C327 1.364 . S
C329 H355 0.931 . S
C330 O344 1.256 . S
C330 O345 1.257 . S
C331 O346 1.240 . S
C331 O347 1.240 . S
C332 Gd321 2.818 . S
C332 C333 1.510 . S
C332 O348 1.249 . S
C332 O349 1.252 . S
C333 C332 1.510 . S
C333 C334 1.404 . S
C333 C335 1.352 . S
C334 C333 1.404 . S
C334 C338 1.389 . S
C334 H356 0.930 . S
C335 C333 1.352 . S
C335 C337 1.374 . S
C335 H357 0.931 . S
C336 C337 1.359 . S
C336 C338 1.364 . S
C337 C335 1.374 . S
C337 C336 1.359 . S
C337 H358 0.931 . S
C338 C334 1.389 . S
C338 C336 1.364 . S
C338 H359 0.931 . S
C339 O350 1.256 . S
C339 O351 1.257 . S
O340 Gd320 2.377 . S
O340 C322 1.240 . S
O341 Gd321 2.395 . S
O341 C322 1.240 . S
O342 Gd320 2.448 . S
O342 C323 1.249 . S
O343 Gd320 2.506 . S
O343 C323 1.252 . S
O344 Gd320 2.435 . S
O344 C330 1.256 . S
O345 Gd320 2.717 . S
O345 Gd321 2.327 . S
O345 C330 1.257 . S
O346 Gd321 2.377 . S
O346 C331 1.240 . S
O347 Gd320 2.395 . S
O347 C331 1.240 . S
O348 Gd321 2.448 . S
O348 C332 1.249 . S
O349 Gd321 2.506 . S
O349 C332 1.252 . S
O350 Gd321 2.435 . S
O350 C339 1.256 . S
O351 Gd320 2.327 . S
O351 Gd321 2.717 . S
O351 C339 1.257 . S
H352 C325 0.930 . S
H353 C326 0.931 . S
H354 C328 0.931 . S
H355 C329 0.931 . S
H356 C334 0.930 . S
H357 C335 0.931 . S
H358 C337 0.931 . S
H359 C338 0.931 . S
Gd360 C363 2.818 . S
Gd360 O380 2.377 . S
Gd360 O382 2.448 . S
Gd360 O383 2.506 . S
Gd360 O384 2.435 . S
Gd360 O385 2.717 . S
Gd360 O387 2.395 . S
Gd360 O391 2.327 . S
Gd361 C372 2.818 . S
Gd361 O381 2.395 . S
Gd361 O385 2.327 . S
Gd361 O386 2.377 . S
Gd361 O388 2.448 . S
Gd361 O389 2.506 . S
Gd361 O390 2.435 . S
Gd361 O391 2.717 . S
C362 O380 1.240 . S
C362 O381 1.240 . S
C363 Gd360 2.818 . S
C363 C364 1.510 . S
C363 O382 1.249 . S
C363 O383 1.252 . S
C364 C363 1.510 . S
C364 C365 1.404 . S
C364 C366 1.352 . S
C365 C364 1.404 . S
C365 C369 1.389 . S
C365 H392 0.930 . S
C366 C364 1.352 . S
C366 C368 1.374 . S
C366 H393 0.931 . S
C367 C368 1.359 . S
C367 C369 1.364 . S
C368 C366 1.374 . S
C368 C367 1.359 . S
C368 H394 0.931 . S
C369 C365 1.389 . S
C369 C367 1.364 . S
C369 H395 0.931 . S
C370 O384 1.256 . S
C370 O385 1.257 . S
C371 O386 1.240 . S
C371 O387 1.240 . S
C372 Gd361 2.818 . S
C372 C373 1.510 . S
C372 O388 1.249 . S
C372 O389 1.252 . S
C373 C372 1.510 . S
C373 C374 1.404 . S
C373 C375 1.352 . S
C374 C373 1.404 . S
C374 C378 1.389 . S
C374 H396 0.930 . S
C375 C373 1.352 . S
C375 C377 1.374 . S
C375 H397 0.931 . S
C376 C377 1.359 . S
C376 C378 1.364 . S
C377 C375 1.374 . S
C377 C376 1.359 . S
C377 H398 0.931 . S
C378 C374 1.389 . S
C378 C376 1.364 . S
C378 H399 0.931 . S
C379 O390 1.256 . S
C379 O391 1.257 . S
O380 Gd360 2.377 . S
O380 C362 1.240 . S
O381 Gd361 2.395 . S
O381 C362 1.240 . S
O382 Gd360 2.448 . S
O382 C363 1.249 . S
O383 Gd360 2.506 . S
O383 C363 1.252 . S
O384 Gd360 2.435 . S
O384 C370 1.256 . S
O385 Gd360 2.717 . S
O385 Gd361 2.327 . S
O385 C370 1.257 . S
O386 Gd361 2.377 . S
O386 C371 1.240 . S
O387 Gd360 2.395 . S
O387 C371 1.240 . S
O388 Gd361 2.448 . S
O388 C372 1.249 . S
O389 Gd361 2.506 . S
O389 C372 1.252 . S
O390 Gd361 2.435 . S
O390 C379 1.256 . S
O391 Gd360 2.327 . S
O391 Gd361 2.717 . S
O391 C379 1.257 . S
H392 C365 0.930 . S
H393 C366 0.931 . S
H394 C368 0.931 . S
H395 C369 0.931 . S
H396 C374 0.930 . S
H397 C375 0.931 . S
H398 C377 0.931 . S
H399 C378 0.931 . S
Gd400 C403 2.818 . S
Gd400 O420 2.377 . S
Gd400 O422 2.448 . S
Gd400 O423 2.506 . S
Gd400 O424 2.435 . S
Gd400 O425 2.717 . S
Gd400 O427 2.395 . S
Gd400 O431 2.327 . S
Gd401 C412 2.818 . S
Gd401 O421 2.395 . S
Gd401 O425 2.327 . S
Gd401 O426 2.377 . S
Gd401 O428 2.448 . S
Gd401 O429 2.506 . S
Gd401 O430 2.435 . S
Gd401 O431 2.717 . S
C402 O420 1.240 . S
C402 O421 1.240 . S
C403 Gd400 2.818 . S
C403 C404 1.510 . S
C403 O422 1.249 . S
C403 O423 1.252 . S
C404 C403 1.510 . S
C404 C405 1.404 . S
C404 C406 1.352 . S
C405 C404 1.404 . S
C405 C409 1.389 . S
C405 H432 0.930 . S
C406 C404 1.352 . S
C406 C408 1.374 . S
C406 H433 0.931 . S
C407 C408 1.359 . S
C407 C409 1.364 . S
C408 C406 1.374 . S
C408 C407 1.359 . S
C408 H434 0.931 . S
C409 C405 1.389 . S
C409 C407 1.364 . S
C409 H435 0.931 . S
C410 O424 1.256 . S
C410 O425 1.257 . S
C411 O426 1.240 . S
C411 O427 1.240 . S
C412 Gd401 2.818 . S
C412 C413 1.510 . S
C412 O428 1.249 . S
C412 O429 1.252 . S
C413 C412 1.510 . S
C413 C414 1.404 . S
C413 C415 1.352 . S
C414 C413 1.404 . S
C414 C418 1.389 . S
C414 H436 0.930 . S
C415 C413 1.352 . S
C415 C417 1.374 . S
C415 H437 0.931 . S
C416 C417 1.359 . S
C416 C418 1.364 . S
C417 C415 1.374 . S
C417 C416 1.359 . S
C417 H438 0.931 . S
C418 C414 1.389 . S
C418 C416 1.364 . S
C418 H439 0.931 . S
C419 O430 1.256 . S
C419 O431 1.257 . S
O420 Gd400 2.377 . S
O420 C402 1.240 . S
O421 Gd401 2.395 . S
O421 C402 1.240 . S
O422 Gd400 2.448 . S
O422 C403 1.249 . S
O423 Gd400 2.506 . S
O423 C403 1.252 . S
O424 Gd400 2.435 . S
O424 C410 1.256 . S
O425 Gd400 2.717 . S
O425 Gd401 2.327 . S
O425 C410 1.257 . S
O426 Gd401 2.377 . S
O426 C411 1.240 . S
O427 Gd400 2.395 . S
O427 C411 1.240 . S
O428 Gd401 2.448 . S
O428 C412 1.249 . S
O429 Gd401 2.506 . S
O429 C412 1.252 . S
O430 Gd401 2.435 . S
O430 C419 1.256 . S
O431 Gd400 2.327 . S
O431 Gd401 2.717 . S
O431 C419 1.257 . S
H432 C405 0.930 . S
H433 C406 0.931 . S
H434 C408 0.931 . S
H435 C409 0.931 . S
H436 C414 0.930 . S
H437 C415 0.931 . S
H438 C417 0.931 . S
H439 C418 0.931 . S
Gd440 C443 2.818 . S
Gd440 O460 2.377 . S
Gd440 O462 2.448 . S
Gd440 O463 2.506 . S
Gd440 O464 2.435 . S
Gd440 O465 2.717 . S
Gd440 O467 2.395 . S
Gd440 O471 2.327 . S
Gd441 C452 2.818 . S
Gd441 O461 2.395 . S
Gd441 O465 2.327 . S
Gd441 O466 2.377 . S
Gd441 O468 2.448 . S
Gd441 O469 2.506 . S
Gd441 O470 2.435 . S
Gd441 O471 2.717 . S
C442 O460 1.240 . S
C442 O461 1.240 . S
C443 Gd440 2.818 . S
C443 C444 1.510 . S
C443 O462 1.249 . S
C443 O463 1.252 . S
C444 C443 1.510 . S
C444 C445 1.404 . S
C444 C446 1.352 . S
C445 C444 1.404 . S
C445 C449 1.389 . S
C445 H472 0.930 . S
C446 C444 1.352 . S
C446 C448 1.374 . S
C446 H473 0.931 . S
C447 C448 1.359 . S
C447 C449 1.364 . S
C448 C446 1.374 . S
C448 C447 1.359 . S
C448 H474 0.931 . S
C449 C445 1.389 . S
C449 C447 1.364 . S
C449 H475 0.931 . S
C450 O464 1.256 . S
C450 O465 1.257 . S
C451 O466 1.240 . S
C451 O467 1.240 . S
C452 Gd441 2.818 . S
C452 C453 1.510 . S
C452 O468 1.249 . S
C452 O469 1.252 . S
C453 C452 1.510 . S
C453 C454 1.404 . S
C453 C455 1.352 . S
C454 C453 1.404 . S
C454 C458 1.389 . S
C454 H476 0.930 . S
C455 C453 1.352 . S
C455 C457 1.374 . S
C455 H477 0.931 . S
C456 C457 1.359 . S
C456 C458 1.364 . S
C457 C455 1.374 . S
C457 C456 1.359 . S
C457 H478 0.931 . S
C458 C454 1.389 . S
C458 C456 1.364 . S
C458 H479 0.931 . S
C459 O470 1.256 . S
C459 O471 1.257 . S
O460 Gd440 2.377 . S
O460 C442 1.240 . S
O461 Gd441 2.395 . S
O461 C442 1.240 . S
O462 Gd440 2.448 . S
O462 C443 1.249 . S
O463 Gd440 2.506 . S
O463 C443 1.252 . S
O464 Gd440 2.435 . S
O464 C450 1.256 . S
O465 Gd440 2.717 . S
O465 Gd441 2.327 . S
O465 C450 1.257 . S
O466 Gd441 2.377 . S
O466 C451 1.240 . S
O467 Gd440 2.395 . S
O467 C451 1.240 . S
O468 Gd441 2.448 . S
O468 C452 1.249 . S
O469 Gd441 2.506 . S
O469 C452 1.252 . S
O470 Gd441 2.435 . S
O470 C459 1.256 . S
O471 Gd440 2.327 . S
O471 Gd441 2.717 . S
O471 C459 1.257 . S
H472 C445 0.930 . S
H473 C446 0.931 . S
H474 C448 0.931 . S
H475 C449 0.931 . S
H476 C454 0.930 . S
H477 C455 0.931 . S
H478 C457 0.931 . S
H479 C458 0.931 . S
Gd480 C483 2.818 . S
Gd480 O500 2.377 . S
Gd480 O502 2.448 . S
Gd480 O503 2.506 . S
Gd480 O504 2.435 . S
Gd480 O505 2.717 . S
Gd480 O507 2.395 . S
Gd480 O511 2.327 . S
Gd481 C492 2.818 . S
Gd481 O501 2.395 . S
Gd481 O505 2.327 . S
Gd481 O506 2.377 . S
Gd481 O508 2.448 . S
Gd481 O509 2.506 . S
Gd481 O510 2.435 . S
Gd481 O511 2.717 . S
C482 O500 1.240 . S
C482 O501 1.240 . S
C483 Gd480 2.818 . S
C483 C484 1.510 . S
C483 O502 1.249 . S
C483 O503 1.252 . S
C484 C483 1.510 . S
C484 C485 1.404 . S
C484 C486 1.352 . S
C485 C484 1.404 . S
C485 C489 1.389 . S
C485 H512 0.930 . S
C486 C484 1.352 . S
C486 C488 1.374 . S
C486 H513 0.931 . S
C487 C488 1.359 . S
C487 C489 1.364 . S
C488 C486 1.374 . S
C488 C487 1.359 . S
C488 H514 0.931 . S
C489 C485 1.389 . S
C489 C487 1.364 . S
C489 H515 0.931 . S
C490 O504 1.256 . S
C490 O505 1.257 . S
C491 O506 1.240 . S
C491 O507 1.240 . S
C492 Gd481 2.818 . S
C492 C493 1.510 . S
C492 O508 1.249 . S
C492 O509 1.252 . S
C493 C492 1.510 . S
C493 C494 1.404 . S
C493 C495 1.352 . S
C494 C493 1.404 . S
C494 C498 1.389 . S
C494 H516 0.930 . S
C495 C493 1.352 . S
C495 C497 1.374 . S
C495 H517 0.931 . S
C496 C497 1.359 . S
C496 C498 1.364 . S
C497 C495 1.374 . S
C497 C496 1.359 . S
C497 H518 0.931 . S
C498 C494 1.389 . S
C498 C496 1.364 . S
C498 H519 0.931 . S
C499 O510 1.256 . S
C499 O511 1.257 . S
O500 Gd480 2.377 . S
O500 C482 1.240 . S
O501 Gd481 2.395 . S
O501 C482 1.240 . S
O502 Gd480 2.448 . S
O502 C483 1.249 . S
O503 Gd480 2.506 . S
O503 C483 1.252 . S
O504 Gd480 2.435 . S
O504 C490 1.256 . S
O505 Gd480 2.717 . S
O505 Gd481 2.327 . S
O505 C490 1.257 . S
O506 Gd481 2.377 . S
O506 C491 1.240 . S
O507 Gd480 2.395 . S
O507 C491 1.240 . S
O508 Gd481 2.448 . S
O508 C492 1.249 . S
O509 Gd481 2.506 . S
O509 C492 1.252 . S
O510 Gd481 2.435 . S
O510 C499 1.256 . S
O511 Gd480 2.327 . S
O511 Gd481 2.717 . S
O511 C499 1.257 . S
H512 C485 0.930 . S
H513 C486 0.931 . S
H514 C488 0.931 . S
H515 C489 0.931 . S
H516 C494 0.930 . S
H517 C495 0.931 . S
H518 C497 0.931 . S
H519 C498 0.931 . S
Gd520 C523 2.818 . S
Gd520 O540 2.377 . S
Gd520 O542 2.448 . S
Gd520 O543 2.506 . S
Gd520 O544 2.435 . S
Gd520 O545 2.717 . S
Gd520 O547 2.395 . S
Gd520 O551 2.327 . S
Gd521 C532 2.818 . S
Gd521 O541 2.395 . S
Gd521 O545 2.327 . S
Gd521 O546 2.377 . S
Gd521 O548 2.448 . S
Gd521 O549 2.506 . S
Gd521 O550 2.435 . S
Gd521 O551 2.717 . S
C522 O540 1.240 . S
C522 O541 1.240 . S
C523 Gd520 2.818 . S
C523 C524 1.510 . S
C523 O542 1.249 . S
C523 O543 1.252 . S
C524 C523 1.510 . S
C524 C525 1.404 . S
C524 C526 1.352 . S
C525 C524 1.404 . S
C525 C529 1.389 . S
C525 H552 0.930 . S
C526 C524 1.352 . S
C526 C528 1.374 . S
C526 H553 0.931 . S
C527 C528 1.359 . S
C527 C529 1.364 . S
C528 C526 1.374 . S
C528 C527 1.359 . S
C528 H554 0.931 . S
C529 C525 1.389 . S
C529 C527 1.364 . S
C529 H555 0.931 . S
C530 O544 1.256 . S
C530 O545 1.257 . S
C531 O546 1.240 . S
C531 O547 1.240 . S
C532 Gd521 2.818 . S
C532 C533 1.510 . S
C532 O548 1.249 . S
C532 O549 1.252 . S
C533 C532 1.510 . S
C533 C534 1.404 . S
C533 C535 1.352 . S
C534 C533 1.404 . S
C534 C538 1.389 . S
C534 H556 0.930 . S
C535 C533 1.352 . S
C535 C537 1.374 . S
C535 H557 0.931 . S
C536 C537 1.359 . S
C536 C538 1.364 . S
C537 C535 1.374 . S
C537 C536 1.359 . S
C537 H558 0.931 . S
C538 C534 1.389 . S
C538 C536 1.364 . S
C538 H559 0.931 . S
C539 O550 1.256 . S
C539 O551 1.257 . S
O540 Gd520 2.377 . S
O540 C522 1.240 . S
O541 Gd521 2.395 . S
O541 C522 1.240 . S
O542 Gd520 2.448 . S
O542 C523 1.249 . S
O543 Gd520 2.506 . S
O543 C523 1.252 . S
O544 Gd520 2.435 . S
O544 C530 1.256 . S
O545 Gd520 2.717 . S
O545 Gd521 2.327 . S
O545 C530 1.257 . S
O546 Gd521 2.377 . S
O546 C531 1.240 . S
O547 Gd520 2.395 . S
O547 C531 1.240 . S
O548 Gd521 2.448 . S
O548 C532 1.249 . S
O549 Gd521 2.506 . S
O549 C532 1.252 . S
O550 Gd521 2.435 . S
O550 C539 1.256 . S
O551 Gd520 2.327 . S
O551 Gd521 2.717 . S
O551 C539 1.257 . S
H552 C525 0.930 . S
H553 C526 0.931 . S
H554 C528 0.931 . S
H555 C529 0.931 . S
H556 C534 0.930 . S
H557 C535 0.931 . S
H558 C537 0.931 . S
H559 C538 0.931 . S
Gd560 C563 2.818 . S
Gd560 O580 2.377 . S
Gd560 O582 2.448 . S
Gd560 O583 2.506 . S
Gd560 O584 2.435 . S
Gd560 O585 2.717 . S
Gd560 O587 2.395 . S
Gd560 O591 2.327 . S
Gd561 C572 2.818 . S
Gd561 O581 2.395 . S
Gd561 O585 2.327 . S
Gd561 O586 2.377 . S
Gd561 O588 2.448 . S
Gd561 O589 2.506 . S
Gd561 O590 2.435 . S
Gd561 O591 2.717 . S
C562 O580 1.240 . S
C562 O581 1.240 . S
C563 Gd560 2.818 . S
C563 C564 1.510 . S
C563 O582 1.249 . S
C563 O583 1.252 . S
C564 C563 1.510 . S
C564 C565 1.404 . S
C564 C566 1.352 . S
C565 C564 1.404 . S
C565 C569 1.389 . S
C565 H592 0.930 . S
C566 C564 1.352 . S
C566 C568 1.374 . S
C566 H593 0.931 . S
C567 C568 1.359 . S
C567 C569 1.364 . S
C568 C566 1.374 . S
C568 C567 1.359 . S
C568 H594 0.931 . S
C569 C565 1.389 . S
C569 C567 1.364 . S
C569 H595 0.931 . S
C570 O584 1.256 . S
C570 O585 1.257 . S
C571 O586 1.240 . S
C571 O587 1.240 . S
C572 Gd561 2.818 . S
C572 C573 1.510 . S
C572 O588 1.249 . S
C572 O589 1.252 . S
C573 C572 1.510 . S
C573 C574 1.404 . S
C573 C575 1.352 . S
C574 C573 1.404 . S
C574 C578 1.389 . S
C574 H596 0.930 . S
C575 C573 1.352 . S
C575 C577 1.374 . S
C575 H597 0.931 . S
C576 C577 1.359 . S
C576 C578 1.364 . S
C577 C575 1.374 . S
C577 C576 1.359 . S
C577 H598 0.931 . S
C578 C574 1.389 . S
C578 C576 1.364 . S
C578 H599 0.931 . S
C579 O590 1.256 . S
C579 O591 1.257 . S
O580 Gd560 2.377 . S
O580 C562 1.240 . S
O581 Gd561 2.395 . S
O581 C562 1.240 . S
O582 Gd560 2.448 . S
O582 C563 1.249 . S
O583 Gd560 2.506 . S
O583 C563 1.252 . S
O584 Gd560 2.435 . S
O584 C570 1.256 . S
O585 Gd560 2.717 . S
O585 Gd561 2.327 . S
O585 C570 1.257 . S
O586 Gd561 2.377 . S
O586 C571 1.240 . S
O587 Gd560 2.395 . S
O587 C571 1.240 . S
O588 Gd561 2.448 . S
O588 C572 1.249 . S
O589 Gd561 2.506 . S
O589 C572 1.252 . S
O590 Gd561 2.435 . S
O590 C579 1.256 . S
O591 Gd560 2.327 . S
O591 Gd561 2.717 . S
O591 C579 1.257 . S
H592 C565 0.930 . S
H593 C566 0.931 . S
H594 C568 0.931 . S
H595 C569 0.931 . S
H596 C574 0.930 . S
H597 C575 0.931 . S
H598 C577 0.931 . S
H599 C578 0.931 . S
Gd600 C603 2.818 . S
Gd600 O620 2.377 . S
Gd600 O622 2.448 . S
Gd600 O623 2.506 . S
Gd600 O624 2.435 . S
Gd600 O625 2.717 . S
Gd600 O627 2.395 . S
Gd600 O631 2.327 . S
Gd601 C612 2.818 . S
Gd601 O621 2.395 . S
Gd601 O625 2.327 . S
Gd601 O626 2.377 . S
Gd601 O628 2.448 . S
Gd601 O629 2.506 . S
Gd601 O630 2.435 . S
Gd601 O631 2.717 . S
C602 O620 1.240 . S
C602 O621 1.240 . S
C603 Gd600 2.818 . S
C603 C604 1.510 . S
C603 O622 1.249 . S
C603 O623 1.252 . S
C604 C603 1.510 . S
C604 C605 1.404 . S
C604 C606 1.352 . S
C605 C604 1.404 . S
C605 C609 1.389 . S
C605 H632 0.930 . S
C606 C604 1.352 . S
C606 C608 1.374 1_655 S
C606 H633 0.931 1_655 S
C607 C608 1.359 1_655 S
C607 C609 1.364 . S
C608 C606 1.374 1_455 S
C608 C607 1.359 1_455 S
C608 H634 0.931 . S
C609 C605 1.389 . S
C609 C607 1.364 . S
C609 H635 0.931 . S
C610 O624 1.256 . S
C610 O625 1.257 . S
C611 O626 1.240 . S
C611 O627 1.240 . S
C612 Gd601 2.818 . S
C612 C613 1.510 . S
C612 O628 1.249 . S
C612 O629 1.252 . S
C613 C612 1.510 . S
C613 C614 1.404 . S
C613 C615 1.352 . S
C614 C613 1.404 . S
C614 C618 1.389 . S
C614 H636 0.930 . S
C615 C613 1.352 . S
C615 C617 1.374 . S
C615 H637 0.931 . S
C616 C617 1.359 . S
C616 C618 1.364 . S
C617 C615 1.374 . S
C617 C616 1.359 . S
C617 H638 0.931 . S
C618 C614 1.389 . S
C618 C616 1.364 . S
C618 H639 0.931 . S
C619 O630 1.256 . S
C619 O631 1.257 . S
O620 Gd600 2.377 . S
O620 C602 1.240 . S
O621 Gd601 2.395 . S
O621 C602 1.240 . S
O622 Gd600 2.448 . S
O622 C603 1.249 . S
O623 Gd600 2.506 . S
O623 C603 1.252 . S
O624 Gd600 2.435 . S
O624 C610 1.256 . S
O625 Gd600 2.717 . S
O625 Gd601 2.327 . S
O625 C610 1.257 . S
O626 Gd601 2.377 . S
O626 C611 1.240 . S
O627 Gd600 2.395 . S
O627 C611 1.240 . S
O628 Gd601 2.448 . S
O628 C612 1.249 . S
O629 Gd601 2.506 . S
O629 C612 1.252 . S
O630 Gd601 2.435 . S
O630 C619 1.256 . S
O631 Gd600 2.327 . S
O631 Gd601 2.717 . S
O631 C619 1.257 . S
H632 C605 0.930 . S
H633 C606 0.931 1_455 S
H634 C608 0.931 . S
H635 C609 0.931 . S
H636 C614 0.930 . S
H637 C615 0.931 . S
H638 C617 0.931 . S
H639 C618 0.931 . S
Gd640 C643 2.818 . S
Gd640 O660 2.377 . S
Gd640 O662 2.448 . S
Gd640 O663 2.506 . S
Gd640 O664 2.435 . S
Gd640 O665 2.717 . S
Gd640 O667 2.395 . S
Gd640 O671 2.327 . S
Gd641 C652 2.818 . S
Gd641 O661 2.395 . S
Gd641 O665 2.327 . S
Gd641 O666 2.377 . S
Gd641 O668 2.448 . S
Gd641 O669 2.506 . S
Gd641 O670 2.435 . S
Gd641 O671 2.717 . S
C642 O660 1.240 . S
C642 O661 1.240 . S
C643 Gd640 2.818 . S
C643 C644 1.510 . S
C643 O662 1.249 . S
C643 O663 1.252 . S
C644 C643 1.510 . S
C644 C645 1.404 . S
C644 C646 1.352 . S
C645 C644 1.404 . S
C645 C649 1.389 . S
C645 H672 0.930 . S
C646 C644 1.352 . S
C646 C648 1.374 . S
C646 H673 0.931 . S
C647 C648 1.359 . S
C647 C649 1.364 . S
C648 C646 1.374 . S
C648 C647 1.359 . S
C648 H674 0.931 . S
C649 C645 1.389 . S
C649 C647 1.364 . S
C649 H675 0.931 . S
C650 O664 1.256 . S
C650 O665 1.257 . S
C651 O666 1.240 . S
C651 O667 1.240 . S
C652 Gd641 2.818 . S
C652 C653 1.510 . S
C652 O668 1.249 . S
C652 O669 1.252 . S
C653 C652 1.510 . S
C653 C654 1.404 . S
C653 C655 1.352 . S
C654 C653 1.404 . S
C654 C658 1.389 . S
C654 H676 0.930 . S
C655 C653 1.352 . S
C655 C657 1.374 . S
C655 H677 0.931 . S
C656 C657 1.359 . S
C656 C658 1.364 . S
C657 C655 1.374 . S
C657 C656 1.359 . S
C657 H678 0.931 . S
C658 C654 1.389 . S
C658 C656 1.364 . S
C658 H679 0.931 . S
C659 O670 1.256 . S
C659 O671 1.257 . S
O660 Gd640 2.377 . S
O660 C642 1.240 . S
O661 Gd641 2.395 . S
O661 C642 1.240 . S
O662 Gd640 2.448 . S
O662 C643 1.249 . S
O663 Gd640 2.506 . S
O663 C643 1.252 . S
O664 Gd640 2.435 . S
O664 C650 1.256 . S
O665 Gd640 2.717 . S
O665 Gd641 2.327 . S
O665 C650 1.257 . S
O666 Gd641 2.377 . S
O666 C651 1.240 . S
O667 Gd640 2.395 . S
O667 C651 1.240 . S
O668 Gd641 2.448 . S
O668 C652 1.249 . S
O669 Gd641 2.506 . S
O669 C652 1.252 . S
O670 Gd641 2.435 . S
O670 C659 1.256 . S
O671 Gd640 2.327 . S
O671 Gd641 2.717 . S
O671 C659 1.257 . S
H672 C645 0.930 . S
H673 C646 0.931 . S
H674 C648 0.931 . S
H675 C649 0.931 . S
H676 C654 0.930 . S
H677 C655 0.931 . S
H678 C657 0.931 . S
H679 C658 0.931 . S
Gd680 C683 2.818 . S
Gd680 O700 2.377 . S
Gd680 O702 2.448 . S
Gd680 O703 2.506 . S
Gd680 O704 2.435 . S
Gd680 O705 2.717 . S
Gd680 O707 2.395 . S
Gd680 O711 2.327 . S
Gd681 C692 2.818 . S
Gd681 O701 2.395 . S
Gd681 O705 2.327 . S
Gd681 O706 2.377 . S
Gd681 O708 2.448 . S
Gd681 O709 2.506 . S
Gd681 O710 2.435 . S
Gd681 O711 2.717 . S
C682 O700 1.240 . S
C682 O701 1.240 . S
C683 Gd680 2.818 . S
C683 C684 1.510 . S
C683 O702 1.249 . S
C683 O703 1.252 . S
C684 C683 1.510 . S
C684 C685 1.404 . S
C684 C686 1.352 . S
C685 C684 1.404 . S
C685 C689 1.389 . S
C685 H712 0.930 . S
C686 C684 1.352 . S
C686 C688 1.374 1_545 S
C686 H713 0.931 1_545 S
C687 C688 1.359 1_545 S
C687 C689 1.364 . S
C688 C686 1.374 1_565 S
C688 C687 1.359 1_565 S
C688 H714 0.931 . S
C689 C685 1.389 . S
C689 C687 1.364 . S
C689 H715 0.931 . S
C690 O704 1.256 . S
C690 O705 1.257 . S
C691 O706 1.240 . S
C691 O707 1.240 . S
C692 Gd681 2.818 . S
C692 C693 1.510 . S
C692 O708 1.249 . S
C692 O709 1.252 . S
C693 C692 1.510 . S
C693 C694 1.404 . S
C693 C695 1.352 . S
C694 C693 1.404 . S
C694 C698 1.389 . S
C694 H716 0.930 . S
C695 C693 1.352 . S
C695 C697 1.374 . S
C695 H717 0.931 . S
C696 C697 1.359 . S
C696 C698 1.364 . S
C697 C695 1.374 . S
C697 C696 1.359 . S
C697 H718 0.931 . S
C698 C694 1.389 . S
C698 C696 1.364 . S
C698 H719 0.931 . S
C699 O710 1.256 . S
C699 O711 1.257 . S
O700 Gd680 2.377 . S
O700 C682 1.240 . S
O701 Gd681 2.395 . S
O701 C682 1.240 . S
O702 Gd680 2.448 . S
O702 C683 1.249 . S
O703 Gd680 2.506 . S
O703 C683 1.252 . S
O704 Gd680 2.435 . S
O704 C690 1.256 . S
O705 Gd680 2.717 . S
O705 Gd681 2.327 . S
O705 C690 1.257 . S
O706 Gd681 2.377 . S
O706 C691 1.240 . S
O707 Gd680 2.395 . S
O707 C691 1.240 . S
O708 Gd681 2.448 . S
O708 C692 1.249 . S
O709 Gd681 2.506 . S
O709 C692 1.252 . S
O710 Gd681 2.435 . S
O710 C699 1.256 . S
O711 Gd680 2.327 . S
O711 Gd681 2.717 . S
O711 C699 1.257 . S
H712 C685 0.930 . S
H713 C686 0.931 1_565 S
H714 C688 0.931 . S
H715 C689 0.931 . S
H716 C694 0.930 . S
H717 C695 0.931 . S
H718 C697 0.931 . S
H719 C698 0.931 . S
Gd720 C723 2.818 . S
Gd720 O740 2.377 . S
Gd720 O742 2.448 . S
Gd720 O743 2.506 . S
Gd720 O744 2.435 . S
Gd720 O745 2.717 . S
Gd720 O747 2.395 . S
Gd720 O751 2.327 . S
Gd721 C732 2.818 . S
Gd721 O741 2.395 . S
Gd721 O745 2.327 . S
Gd721 O746 2.377 . S
Gd721 O748 2.448 . S
Gd721 O749 2.506 . S
Gd721 O750 2.435 . S
Gd721 O751 2.717 . S
C722 O740 1.240 . S
C722 O741 1.240 . S
C723 Gd720 2.818 . S
C723 C724 1.510 . S
C723 O742 1.249 . S
C723 O743 1.252 . S
C724 C723 1.510 . S
C724 C725 1.404 . S
C724 C726 1.352 . S
C725 C724 1.404 . S
C725 C729 1.389 . S
C725 H752 0.930 . S
C726 C724 1.352 . S
C726 C728 1.374 . S
C726 H753 0.931 . S
C727 C728 1.359 . S
C727 C729 1.364 . S
C728 C726 1.374 . S
C728 C727 1.359 . S
C728 H754 0.931 . S
C729 C725 1.389 . S
C729 C727 1.364 . S
C729 H755 0.931 . S
C730 O744 1.256 . S
C730 O745 1.257 . S
C731 O746 1.240 . S
C731 O747 1.240 . S
C732 Gd721 2.818 . S
C732 C733 1.510 . S
C732 O748 1.249 . S
C732 O749 1.252 . S
C733 C732 1.510 . S
C733 C734 1.404 . S
C733 C735 1.352 . S
C734 C733 1.404 . S
C734 C738 1.389 . S
C734 H756 0.930 . S
C735 C733 1.352 . S
C735 C737 1.374 1_545 S
C735 H757 0.931 1_545 S
C736 C737 1.359 1_545 S
C736 C738 1.364 . S
C737 C735 1.374 1_565 S
C737 C736 1.359 1_565 S
C737 H758 0.931 . S
C738 C734 1.389 . S
C738 C736 1.364 . S
C738 H759 0.931 . S
C739 O750 1.256 . S
C739 O751 1.257 . S
O740 Gd720 2.377 . S
O740 C722 1.240 . S
O741 Gd721 2.395 . S
O741 C722 1.240 . S
O742 Gd720 2.448 . S
O742 C723 1.249 . S
O743 Gd720 2.506 . S
O743 C723 1.252 . S
O744 Gd720 2.435 . S
O744 C730 1.256 . S
O745 Gd720 2.717 . S
O745 Gd721 2.327 . S
O745 C730 1.257 . S
O746 Gd721 2.377 . S
O746 C731 1.240 . S
O747 Gd720 2.395 . S
O747 C731 1.240 . S
O748 Gd721 2.448 . S
O748 C732 1.249 . S
O749 Gd721 2.506 . S
O749 C732 1.252 . S
O750 Gd721 2.435 . S
O750 C739 1.256 . S
O751 Gd720 2.327 . S
O751 Gd721 2.717 . S
O751 C739 1.257 . S
H752 C725 0.930 . S
H753 C726 0.931 . S
H754 C728 0.931 . S
H755 C729 0.931 . S
H756 C734 0.930 . S
H757 C735 0.931 1_565 S
H758 C737 0.931 . S
H759 C738 0.931 . S
Gd760 C763 2.818 . S
Gd760 O780 2.377 . S
Gd760 O782 2.448 . S
Gd760 O783 2.506 . S
Gd760 O784 2.435 . S
Gd760 O785 2.717 . S
Gd760 O787 2.395 . S
Gd760 O791 2.327 . S
Gd761 C772 2.818 . S
Gd761 O781 2.395 . S
Gd761 O785 2.327 . S
Gd761 O786 2.377 . S
Gd761 O788 2.448 . S
Gd761 O789 2.506 . S
Gd761 O790 2.435 . S
Gd761 O791 2.717 . S
C762 O780 1.240 . S
C762 O781 1.240 . S
C763 Gd760 2.818 . S
C763 C764 1.510 . S
C763 O782 1.249 . S
C763 O783 1.252 . S
C764 C763 1.510 . S
C764 C765 1.404 . S
C764 C766 1.352 . S
C765 C764 1.404 . S
C765 C769 1.389 . S
C765 H792 0.930 . S
C766 C764 1.352 . S
C766 C768 1.374 . S
C766 H793 0.931 . S
C767 C768 1.359 . S
C767 C769 1.364 . S
C768 C766 1.374 . S
C768 C767 1.359 . S
C768 H794 0.931 . S
C769 C765 1.389 . S
C769 C767 1.364 . S
C769 H795 0.931 . S
C770 O784 1.256 . S
C770 O785 1.257 . S
C771 O786 1.240 . S
C771 O787 1.240 . S
C772 Gd761 2.818 . S
C772 C773 1.510 . S
C772 O788 1.249 . S
C772 O789 1.252 . S
C773 C772 1.510 . S
C773 C774 1.404 . S
C773 C775 1.352 . S
C774 C773 1.404 . S
C774 C778 1.389 . S
C774 H796 0.930 . S
C775 C773 1.352 . S
C775 C777 1.374 1_655 S
C775 H797 0.931 1_655 S
C776 C777 1.359 1_655 S
C776 C778 1.364 . S
C777 C775 1.374 1_455 S
C777 C776 1.359 1_455 S
C777 H798 0.931 . S
C778 C774 1.389 . S
C778 C776 1.364 . S
C778 H799 0.931 . S
C779 O790 1.256 . S
C779 O791 1.257 . S
O780 Gd760 2.377 . S
O780 C762 1.240 . S
O781 Gd761 2.395 . S
O781 C762 1.240 . S
O782 Gd760 2.448 . S
O782 C763 1.249 . S
O783 Gd760 2.506 . S
O783 C763 1.252 . S
O784 Gd760 2.435 . S
O784 C770 1.256 . S
O785 Gd760 2.717 . S
O785 Gd761 2.327 . S
O785 C770 1.257 . S
O786 Gd761 2.377 . S
O786 C771 1.240 . S
O787 Gd760 2.395 . S
O787 C771 1.240 . S
O788 Gd761 2.448 . S
O788 C772 1.249 . S
O789 Gd761 2.506 . S
O789 C772 1.252 . S
O790 Gd761 2.435 . S
O790 C779 1.256 . S
O791 Gd760 2.327 . S
O791 Gd761 2.717 . S
O791 C779 1.257 . S
H792 C765 0.930 . S
H793 C766 0.931 . S
H794 C768 0.931 . S
H795 C769 0.931 . S
H796 C774 0.930 . S
H797 C775 0.931 1_455 S
H798 C777 0.931 . S
H799 C778 0.931 . S
Gd800 C803 2.818 . S
Gd800 O820 2.377 . S
Gd800 O822 2.448 . S
Gd800 O823 2.506 . S
Gd800 O824 2.435 . S
Gd800 O825 2.717 . S
Gd800 O827 2.395 . S
Gd800 O831 2.327 . S
Gd801 C812 2.818 . S
Gd801 O821 2.395 . S
Gd801 O825 2.327 . S
Gd801 O826 2.377 . S
Gd801 O828 2.448 . S
Gd801 O829 2.506 . S
Gd801 O830 2.435 . S
Gd801 O831 2.717 . S
C802 O820 1.240 . S
C802 O821 1.240 . S
C803 Gd800 2.818 . S
C803 C804 1.510 . S
C803 O822 1.249 . S
C803 O823 1.252 . S
C804 C803 1.510 . S
C804 C805 1.404 . S
C804 C806 1.352 . S
C805 C804 1.404 . S
C805 C809 1.389 . S
C805 H832 0.930 . S
C806 C804 1.352 . S
C806 C808 1.374 . S
C806 H833 0.931 . S
C807 C808 1.359 . S
C807 C809 1.364 . S
C808 C806 1.374 . S
C808 C807 1.359 . S
C808 H834 0.931 . S
C809 C805 1.389 . S
C809 C807 1.364 . S
C809 H835 0.931 . S
C810 O824 1.256 . S
C810 O825 1.257 . S
C811 O826 1.240 . S
C811 O827 1.240 . S
C812 Gd801 2.818 . S
C812 C813 1.510 . S
C812 O828 1.249 . S
C812 O829 1.252 . S
C813 C812 1.510 . S
C813 C814 1.404 . S
C813 C815 1.352 . S
C814 C813 1.404 . S
C814 C818 1.389 . S
C814 H836 0.930 . S
C815 C813 1.352 . S
C815 C817 1.374 . S
C815 H837 0.931 . S
C816 C817 1.359 . S
C816 C818 1.364 . S
C817 C815 1.374 . S
C817 C816 1.359 . S
C817 H838 0.931 . S
C818 C814 1.389 . S
C818 C816 1.364 . S
C818 H839 0.931 . S
C819 O830 1.256 . S
C819 O831 1.257 . S
O820 Gd800 2.377 . S
O820 C802 1.240 . S
O821 Gd801 2.395 . S
O821 C802 1.240 . S
O822 Gd800 2.448 . S
O822 C803 1.249 . S
O823 Gd800 2.506 . S
O823 C803 1.252 . S
O824 Gd800 2.435 . S
O824 C810 1.256 . S
O825 Gd800 2.717 . S
O825 Gd801 2.327 . S
O825 C810 1.257 . S
O826 Gd801 2.377 . S
O826 C811 1.240 . S
O827 Gd800 2.395 . S
O827 C811 1.240 . S
O828 Gd801 2.448 . S
O828 C812 1.249 . S
O829 Gd801 2.506 . S
O829 C812 1.252 . S
O830 Gd801 2.435 . S
O830 C819 1.256 . S
O831 Gd800 2.327 . S
O831 Gd801 2.717 . S
O831 C819 1.257 . S
H832 C805 0.930 . S
H833 C806 0.931 . S
H834 C808 0.931 . S
H835 C809 0.931 . S
H836 C814 0.930 . S
H837 C815 0.931 . S
H838 C817 0.931 . S
H839 C818 0.931 . S
Gd840 C843 2.818 . S
Gd840 O860 2.377 . S
Gd840 O862 2.448 . S
Gd840 O863 2.506 . S
Gd840 O864 2.435 . S
Gd840 O865 2.717 1_554 S
Gd840 O867 2.395 . S
Gd840 O871 2.327 . S
Gd841 C852 2.818 . S
Gd841 O861 2.395 . S
Gd841 O865 2.327 . S
Gd841 O866 2.377 . S
Gd841 O868 2.448 . S
Gd841 O869 2.506 . S
Gd841 O870 2.435 . S
Gd841 O871 2.717 1_556 S
C842 O860 1.240 . S
C842 O861 1.240 1_554 S
C843 Gd840 2.818 . S
C843 C844 1.510 . S
C843 O862 1.249 . S
C843 O863 1.252 . S
C844 C843 1.510 . S
C844 C845 1.404 . S
C844 C846 1.352 . S
C845 C844 1.404 . S
C845 C849 1.389 . S
C845 H872 0.930 . S
C846 C844 1.352 . S
C846 C848 1.374 . S
C846 H873 0.931 . S
C847 C848 1.359 . S
C847 C849 1.364 . S
C848 C846 1.374 . S
C848 C847 1.359 . S
C848 H874 0.931 . S
C849 C845 1.389 . S
C849 C847 1.364 . S
C849 H875 0.931 . S
C850 O864 1.256 . S
C850 O865 1.257 1_554 S
C851 O866 1.240 . S
C851 O867 1.240 1_556 S
C852 Gd841 2.818 . S
C852 C853 1.510 . S
C852 O868 1.249 . S
C852 O869 1.252 . S
C853 C852 1.510 . S
C853 C854 1.404 . S
C853 C855 1.352 . S
C854 C853 1.404 . S
C854 C858 1.389 . S
C854 H876 0.930 . S
C855 C853 1.352 . S
C855 C857 1.374 . S
C855 H877 0.931 . S
C856 C857 1.359 . S
C856 C858 1.364 . S
C857 C855 1.374 . S
C857 C856 1.359 . S
C857 H878 0.931 . S
C858 C854 1.389 . S
C858 C856 1.364 . S
C858 H879 0.931 . S
C859 O870 1.256 . S
C859 O871 1.257 1_556 S
O860 Gd840 2.377 . S
O860 C842 1.240 . S
O861 Gd841 2.395 . S
O861 C842 1.240 1_556 S
O862 Gd840 2.448 . S
O862 C843 1.249 . S
O863 Gd840 2.506 . S
O863 C843 1.252 . S
O864 Gd840 2.435 . S
O864 C850 1.256 . S
O865 Gd840 2.717 1_556 S
O865 Gd841 2.327 . S
O865 C850 1.257 1_556 S
O866 Gd841 2.377 . S
O866 C851 1.240 . S
O867 Gd840 2.395 . S
O867 C851 1.240 1_554 S
O868 Gd841 2.448 . S
O868 C852 1.249 . S
O869 Gd841 2.506 . S
O869 C852 1.252 . S
O870 Gd841 2.435 . S
O870 C859 1.256 . S
O871 Gd840 2.327 . S
O871 Gd841 2.717 1_554 S
O871 C859 1.257 1_554 S
H872 C845 0.930 . S
H873 C846 0.931 . S
H874 C848 0.931 . S
H875 C849 0.931 . S
H876 C854 0.930 . S
H877 C855 0.931 . S
H878 C857 0.931 . S
H879 C858 0.931 . S
Gd880 C883 2.818 . S
Gd880 O900 2.377 . S
Gd880 O902 2.448 . S
Gd880 O903 2.506 . S
Gd880 O904 2.435 . S
Gd880 O905 2.717 1_554 S
Gd880 O907 2.395 . S
Gd880 O911 2.327 . S
Gd881 C892 2.818 . S
Gd881 O901 2.395 . S
Gd881 O905 2.327 . S
Gd881 O906 2.377 . S
Gd881 O908 2.448 . S
Gd881 O909 2.506 . S
Gd881 O910 2.435 . S
Gd881 O911 2.717 1_556 S
C882 O900 1.240 . S
C882 O901 1.240 1_554 S
C883 Gd880 2.818 . S
C883 C884 1.510 . S
C883 O902 1.249 . S
C883 O903 1.252 . S
C884 C883 1.510 . S
C884 C885 1.404 . S
C884 C886 1.352 . S
C885 C884 1.404 . S
C885 C889 1.389 . S
C885 H912 0.930 . S
C886 C884 1.352 . S
C886 C888 1.374 . S
C886 H913 0.931 . S
C887 C888 1.359 . S
C887 C889 1.364 . S
C888 C886 1.374 . S
C888 C887 1.359 . S
C888 H914 0.931 . S
C889 C885 1.389 . S
C889 C887 1.364 . S
C889 H915 0.931 . S
C890 O904 1.256 . S
C890 O905 1.257 1_554 S
C891 O906 1.240 . S
C891 O907 1.240 1_556 S
C892 Gd881 2.818 . S
C892 C893 1.510 . S
C892 O908 1.249 . S
C892 O909 1.252 . S
C893 C892 1.510 . S
C893 C894 1.404 . S
C893 C895 1.352 . S
C894 C893 1.404 . S
C894 C898 1.389 . S
C894 H916 0.930 . S
C895 C893 1.352 . S
C895 C897 1.374 . S
C895 H917 0.931 . S
C896 C897 1.359 . S
C896 C898 1.364 . S
C897 C895 1.374 . S
C897 C896 1.359 . S
C897 H918 0.931 . S
C898 C894 1.389 . S
C898 C896 1.364 . S
C898 H919 0.931 . S
C899 O910 1.256 . S
C899 O911 1.257 1_556 S
O900 Gd880 2.377 . S
O900 C882 1.240 . S
O901 Gd881 2.395 . S
O901 C882 1.240 1_556 S
O902 Gd880 2.448 . S
O902 C883 1.249 . S
O903 Gd880 2.506 . S
O903 C883 1.252 . S
O904 Gd880 2.435 . S
O904 C890 1.256 . S
O905 Gd880 2.717 1_556 S
O905 Gd881 2.327 . S
O905 C890 1.257 1_556 S
O906 Gd881 2.377 . S
O906 C891 1.240 . S
O907 Gd880 2.395 . S
O907 C891 1.240 1_554 S
O908 Gd881 2.448 . S
O908 C892 1.249 . S
O909 Gd881 2.506 . S
O909 C892 1.252 . S
O910 Gd881 2.435 . S
O910 C899 1.256 . S
O911 Gd880 2.327 . S
O911 Gd881 2.717 1_554 S
O911 C899 1.257 1_554 S
H912 C885 0.930 . S
H913 C886 0.931 . S
H914 C888 0.931 . S
H915 C889 0.931 . S
H916 C894 0.930 . S
H917 C895 0.931 . S
H918 C897 0.931 . S
H919 C898 0.931 . S
Gd920 C923 2.818 . S
Gd920 O940 2.377 . S
Gd920 O942 2.448 . S
Gd920 O943 2.506 . S
Gd920 O944 2.435 . S
Gd920 O945 2.717 1_554 S
Gd920 O947 2.395 . S
Gd920 O951 2.327 . S
Gd921 C932 2.818 . S
Gd921 O941 2.395 . S
Gd921 O945 2.327 . S
Gd921 O946 2.377 . S
Gd921 O948 2.448 . S
Gd921 O949 2.506 . S
Gd921 O950 2.435 . S
Gd921 O951 2.717 1_556 S
C922 O940 1.240 . S
C922 O941 1.240 1_554 S
C923 Gd920 2.818 . S
C923 C924 1.510 . S
C923 O942 1.249 . S
C923 O943 1.252 . S
C924 C923 1.510 . S
C924 C925 1.404 . S
C924 C926 1.352 . S
C925 C924 1.404 . S
C925 C929 1.389 . S
C925 H952 0.930 . S
C926 C924 1.352 . S
C926 C928 1.374 . S
C926 H953 0.931 . S
C927 C928 1.359 . S
C927 C929 1.364 . S
C928 C926 1.374 . S
C928 C927 1.359 . S
C928 H954 0.931 . S
C929 C925 1.389 . S
C929 C927 1.364 . S
C929 H955 0.931 . S
C930 O944 1.256 . S
C930 O945 1.257 1_554 S
C931 O946 1.240 . S
C931 O947 1.240 1_556 S
C932 Gd921 2.818 . S
C932 C933 1.510 . S
C932 O948 1.249 . S
C932 O949 1.252 . S
C933 C932 1.510 . S
C933 C934 1.404 . S
C933 C935 1.352 . S
C934 C933 1.404 . S
C934 C938 1.389 . S
C934 H956 0.930 . S
C935 C933 1.352 . S
C935 C937 1.374 . S
C935 H957 0.931 . S
C936 C937 1.359 . S
C936 C938 1.364 . S
C937 C935 1.374 . S
C937 C936 1.359 . S
C937 H958 0.931 . S
C938 C934 1.389 . S
C938 C936 1.364 . S
C938 H959 0.931 . S
C939 O950 1.256 . S
C939 O951 1.257 1_556 S
O940 Gd920 2.377 . S
O940 C922 1.240 . S
O941 Gd921 2.395 . S
O941 C922 1.240 1_556 S
O942 Gd920 2.448 . S
O942 C923 1.249 . S
O943 Gd920 2.506 . S
O943 C923 1.252 . S
O944 Gd920 2.435 . S
O944 C930 1.256 . S
O945 Gd920 2.717 1_556 S
O945 Gd921 2.327 . S
O945 C930 1.257 1_556 S
O946 Gd921 2.377 . S
O946 C931 1.240 . S
O947 Gd920 2.395 . S
O947 C931 1.240 1_554 S
O948 Gd921 2.448 . S
O948 C932 1.249 . S
O949 Gd921 2.506 . S
O949 C932 1.252 . S
O950 Gd921 2.435 . S
O950 C939 1.256 . S
O951 Gd920 2.327 . S
O951 Gd921 2.717 1_554 S
O951 C939 1.257 1_554 S
H952 C925 0.930 . S
H953 C926 0.931 . S
H954 C928 0.931 . S
H955 C929 0.931 . S
H956 C934 0.930 . S
H957 C935 0.931 . S
H958 C937 0.931 . S
H959 C938 0.931 . S
Gd960 C963 2.818 . S
Gd960 O980 2.377 . S
Gd960 O982 2.448 . S
Gd960 O983 2.506 . S
Gd960 O984 2.435 . S
Gd960 O985 2.717 . S
Gd960 O987 2.395 . S
Gd960 O991 2.327 . S
Gd961 C972 2.818 . S
Gd961 O981 2.395 . S
Gd961 O985 2.327 . S
Gd961 O986 2.377 . S
Gd961 O988 2.448 . S
Gd961 O989 2.506 . S
Gd961 O990 2.435 . S
Gd961 O991 2.717 . S
C962 O980 1.240 . S
C962 O981 1.240 . S
C963 Gd960 2.818 . S
C963 C964 1.510 . S
C963 O982 1.249 . S
C963 O983 1.252 . S
C964 C963 1.510 . S
C964 C965 1.404 . S
C964 C966 1.352 . S
C965 C964 1.404 . S
C965 C969 1.389 . S
C965 H992 0.930 . S
C966 C964 1.352 . S
C966 C968 1.374 1_565 S
C966 H993 0.931 1_565 S
C967 C968 1.359 1_565 S
C967 C969 1.364 . S
C968 C966 1.374 1_545 S
C968 C967 1.359 1_545 S
C968 H994 0.931 . S
C969 C965 1.389 . S
C969 C967 1.364 . S
C969 H995 0.931 . S
C970 O984 1.256 . S
C970 O985 1.257 . S
C971 O986 1.240 . S
C971 O987 1.240 . S
C972 Gd961 2.818 . S
C972 C973 1.510 . S
C972 O988 1.249 . S
C972 O989 1.252 . S
C973 C972 1.510 . S
C973 C974 1.404 . S
C973 C975 1.352 . S
C974 C973 1.404 . S
C974 C978 1.389 . S
C974 H996 0.930 . S
C975 C973 1.352 . S
C975 C977 1.374 . S
C975 H997 0.931 . S
C976 C977 1.359 . S
C976 C978 1.364 . S
C977 C975 1.374 . S
C977 C976 1.359 . S
C977 H998 0.931 . S
C978 C974 1.389 . S
C978 C976 1.364 . S
C978 H999 0.931 . S
C979 O990 1.256 . S
C979 O991 1.257 . S
O980 Gd960 2.377 . S
O980 C962 1.240 . S
O981 Gd961 2.395 . S
O981 C962 1.240 . S
O982 Gd960 2.448 . S
O982 C963 1.249 . S
O983 Gd960 2.506 . S
O983 C963 1.252 . S
O984 Gd960 2.435 . S
O984 C970 1.256 . S
O985 Gd960 2.717 . S
O985 Gd961 2.327 . S
O985 C970 1.257 . S
O986 Gd961 2.377 . S
O986 C971 1.240 . S
O987 Gd960 2.395 . S
O987 C971 1.240 . S
O988 Gd961 2.448 . S
O988 C972 1.249 . S
O989 Gd961 2.506 . S
O989 C972 1.252 . S
O990 Gd961 2.435 . S
O990 C979 1.256 . S
O991 Gd960 2.327 . S
O991 Gd961 2.717 . S
O991 C979 1.257 . S
H992 C965 0.930 . S
H993 C966 0.931 1_545 S
H994 C968 0.931 . S
H995 C969 0.931 . S
H996 C974 0.930 . S
H997 C975 0.931 . S
H998 C977 0.931 . S
H999 C978 0.931 . S
Gd1000 C1003 2.818 . S
Gd1000 O1020 2.377 . S
Gd1000 O1022 2.448 . S
Gd1000 O1023 2.506 . S
Gd1000 O1024 2.435 . S
Gd1000 O1025 2.717 . S
Gd1000 O1027 2.395 . S
Gd1000 O1031 2.327 . S
Gd1001 C1012 2.818 . S
Gd1001 O1021 2.395 . S
Gd1001 O1025 2.327 . S
Gd1001 O1026 2.377 . S
Gd1001 O1028 2.448 . S
Gd1001 O1029 2.506 . S
Gd1001 O1030 2.435 . S
Gd1001 O1031 2.717 . S
C1002 O1020 1.240 . S
C1002 O1021 1.240 . S
C1003 Gd1000 2.818 . S
C1003 C1004 1.510 . S
C1003 O1022 1.249 . S
C1003 O1023 1.252 . S
C1004 C1003 1.510 . S
C1004 C1005 1.404 . S
C1004 C1006 1.352 . S
C1005 C1004 1.404 . S
C1005 C1009 1.389 . S
C1005 H1032 0.930 . S
C1006 C1004 1.352 . S
C1006 C1008 1.374 1_455 S
C1006 H1033 0.931 1_455 S
C1007 C1008 1.359 1_455 S
C1007 C1009 1.364 . S
C1008 C1006 1.374 1_655 S
C1008 C1007 1.359 1_655 S
C1008 H1034 0.931 . S
C1009 C1005 1.389 . S
C1009 C1007 1.364 . S
C1009 H1035 0.931 . S
C1010 O1024 1.256 . S
C1010 O1025 1.257 . S
C1011 O1026 1.240 . S
C1011 O1027 1.240 . S
C1012 Gd1001 2.818 . S
C1012 C1013 1.510 . S
C1012 O1028 1.249 . S
C1012 O1029 1.252 . S
C1013 C1012 1.510 . S
C1013 C1014 1.404 . S
C1013 C1015 1.352 . S
C1014 C1013 1.404 . S
C1014 C1018 1.389 . S
C1014 H1036 0.930 . S
C1015 C1013 1.352 . S
C1015 C1017 1.374 . S
C1015 H1037 0.931 . S
C1016 C1017 1.359 . S
C1016 C1018 1.364 . S
C1017 C1015 1.374 . S
C1017 C1016 1.359 . S
C1017 H1038 0.931 . S
C1018 C1014 1.389 . S
C1018 C1016 1.364 . S
C1018 H1039 0.931 . S
C1019 O1030 1.256 . S
C1019 O1031 1.257 . S
O1020 Gd1000 2.377 . S
O1020 C1002 1.240 . S
O1021 Gd1001 2.395 . S
O1021 C1002 1.240 . S
O1022 Gd1000 2.448 . S
O1022 C1003 1.249 . S
O1023 Gd1000 2.506 . S
O1023 C1003 1.252 . S
O1024 Gd1000 2.435 . S
O1024 C1010 1.256 . S
O1025 Gd1000 2.717 . S
O1025 Gd1001 2.327 . S
O1025 C1010 1.257 . S
O1026 Gd1001 2.377 . S
O1026 C1011 1.240 . S
O1027 Gd1000 2.395 . S
O1027 C1011 1.240 . S
O1028 Gd1001 2.448 . S
O1028 C1012 1.249 . S
O1029 Gd1001 2.506 . S
O1029 C1012 1.252 . S
O1030 Gd1001 2.435 . S
O1030 C1019 1.256 . S
O1031 Gd1000 2.327 . S
O1031 Gd1001 2.717 . S
O1031 C1019 1.257 . S
H1032 C1005 0.930 . S
H1033 C1006 0.931 1_655 S
H1034 C1008 0.931 . S
H1035 C1009 0.931 . S
H1036 C1014 0.930 . S
H1037 C1015 0.931 . S
H1038 C1017 0.931 . S
H1039 C1018 0.931 . S
Gd1040 C1043 2.818 . S
Gd1040 O1060 2.377 . S
Gd1040 O1062 2.448 . S
Gd1040 O1063 2.506 . S
Gd1040 O1064 2.435 . S
Gd1040 O1065 2.717 . S
Gd1040 O1067 2.395 . S
Gd1040 O1071 2.327 . S
Gd1041 C1052 2.818 . S
Gd1041 O1061 2.395 . S
Gd1041 O1065 2.327 . S
Gd1041 O1066 2.377 . S
Gd1041 O1068 2.448 . S
Gd1041 O1069 2.506 . S
Gd1041 O1070 2.435 . S
Gd1041 O1071 2.717 . S
C1042 O1060 1.240 . S
C1042 O1061 1.240 . S
C1043 Gd1040 2.818 . S
C1043 C1044 1.510 . S
C1043 O1062 1.249 . S
C1043 O1063 1.252 . S
C1044 C1043 1.510 . S
C1044 C1045 1.404 . S
C1044 C1046 1.352 . S
C1045 C1044 1.404 . S
C1045 C1049 1.389 . S
C1045 H1072 0.930 . S
C1046 C1044 1.352 . S
C1046 C1048 1.374 . S
C1046 H1073 0.931 . S
C1047 C1048 1.359 . S
C1047 C1049 1.364 . S
C1048 C1046 1.374 . S
C1048 C1047 1.359 . S
C1048 H1074 0.931 . S
C1049 C1045 1.389 . S
C1049 C1047 1.364 . S
C1049 H1075 0.931 . S
C1050 O1064 1.256 . S
C1050 O1065 1.257 . S
C1051 O1066 1.240 . S
C1051 O1067 1.240 . S
C1052 Gd1041 2.818 . S
C1052 C1053 1.510 . S
C1052 O1068 1.249 . S
C1052 O1069 1.252 . S
C1053 C1052 1.510 . S
C1053 C1054 1.404 . S
C1053 C1055 1.352 . S
C1054 C1053 1.404 . S
C1054 C1058 1.389 . S
C1054 H1076 0.930 . S
C1055 C1053 1.352 . S
C1055 C1057 1.374 . S
C1055 H1077 0.931 . S
C1056 C1057 1.359 . S
C1056 C1058 1.364 . S
C1057 C1055 1.374 . S
C1057 C1056 1.359 . S
C1057 H1078 0.931 . S
C1058 C1054 1.389 . S
C1058 C1056 1.364 . S
C1058 H1079 0.931 . S
C1059 O1070 1.256 . S
C1059 O1071 1.257 . S
O1060 Gd1040 2.377 . S
O1060 C1042 1.240 . S
O1061 Gd1041 2.395 . S
O1061 C1042 1.240 . S
O1062 Gd1040 2.448 . S
O1062 C1043 1.249 . S
O1063 Gd1040 2.506 . S
O1063 C1043 1.252 . S
O1064 Gd1040 2.435 . S
O1064 C1050 1.256 . S
O1065 Gd1040 2.717 . S
O1065 Gd1041 2.327 . S
O1065 C1050 1.257 . S
O1066 Gd1041 2.377 . S
O1066 C1051 1.240 . S
O1067 Gd1040 2.395 . S
O1067 C1051 1.240 . S
O1068 Gd1041 2.448 . S
O1068 C1052 1.249 . S
O1069 Gd1041 2.506 . S
O1069 C1052 1.252 . S
O1070 Gd1041 2.435 . S
O1070 C1059 1.256 . S
O1071 Gd1040 2.327 . S
O1071 Gd1041 2.717 . S
O1071 C1059 1.257 . S
H1072 C1045 0.930 . S
H1073 C1046 0.931 . S
H1074 C1048 0.931 . S
H1075 C1049 0.931 . S
H1076 C1054 0.930 . S
H1077 C1055 0.931 . S
H1078 C1057 0.931 . S
H1079 C1058 0.931 . S
Gd1080 C1083 2.818 . S
Gd1080 O1100 2.377 . S
Gd1080 O1102 2.448 . S
Gd1080 O1103 2.506 . S
Gd1080 O1104 2.435 . S
Gd1080 O1105 2.717 1_554 S
Gd1080 O1107 2.395 . S
Gd1080 O1111 2.327 . S
Gd1081 C1092 2.818 . S
Gd1081 O1101 2.395 . S
Gd1081 O1105 2.327 . S
Gd1081 O1106 2.377 . S
Gd1081 O1108 2.448 . S
Gd1081 O1109 2.506 . S
Gd1081 O1110 2.435 . S
Gd1081 O1111 2.717 1_556 S
C1082 O1100 1.240 . S
C1082 O1101 1.240 1_554 S
C1083 Gd1080 2.818 . S
C1083 C1084 1.510 . S
C1083 O1102 1.249 . S
C1083 O1103 1.252 . S
C1084 C1083 1.510 . S
C1084 C1085 1.404 . S
C1084 C1086 1.352 . S
C1085 C1084 1.404 . S
C1085 C1089 1.389 . S
C1085 H1112 0.930 . S
C1086 C1084 1.352 . S
C1086 C1088 1.374 . S
C1086 H1113 0.931 . S
C1087 C1088 1.359 . S
C1087 C1089 1.364 . S
C1088 C1086 1.374 . S
C1088 C1087 1.359 . S
C1088 H1114 0.931 . S
C1089 C1085 1.389 . S
C1089 C1087 1.364 . S
C1089 H1115 0.931 . S
C1090 O1104 1.256 . S
C1090 O1105 1.257 1_554 S
C1091 O1106 1.240 . S
C1091 O1107 1.240 1_556 S
C1092 Gd1081 2.818 . S
C1092 C1093 1.510 . S
C1092 O1108 1.249 . S
C1092 O1109 1.252 . S
C1093 C1092 1.510 . S
C1093 C1094 1.404 . S
C1093 C1095 1.352 . S
C1094 C1093 1.404 . S
C1094 C1098 1.389 . S
C1094 H1116 0.930 . S
C1095 C1093 1.352 . S
C1095 C1097 1.374 . S
C1095 H1117 0.931 . S
C1096 C1097 1.359 . S
C1096 C1098 1.364 . S
C1097 C1095 1.374 . S
C1097 C1096 1.359 . S
C1097 H1118 0.931 . S
C1098 C1094 1.389 . S
C1098 C1096 1.364 . S
C1098 H1119 0.931 . S
C1099 O1110 1.256 . S
C1099 O1111 1.257 1_556 S
O1100 Gd1080 2.377 . S
O1100 C1082 1.240 . S
O1101 Gd1081 2.395 . S
O1101 C1082 1.240 1_556 S
O1102 Gd1080 2.448 . S
O1102 C1083 1.249 . S
O1103 Gd1080 2.506 . S
O1103 C1083 1.252 . S
O1104 Gd1080 2.435 . S
O1104 C1090 1.256 . S
O1105 Gd1080 2.717 1_556 S
O1105 Gd1081 2.327 . S
O1105 C1090 1.257 1_556 S
O1106 Gd1081 2.377 . S
O1106 C1091 1.240 . S
O1107 Gd1080 2.395 . S
O1107 C1091 1.240 1_554 S
O1108 Gd1081 2.448 . S
O1108 C1092 1.249 . S
O1109 Gd1081 2.506 . S
O1109 C1092 1.252 . S
O1110 Gd1081 2.435 . S
O1110 C1099 1.256 . S
O1111 Gd1080 2.327 . S
O1111 Gd1081 2.717 1_554 S
O1111 C1099 1.257 1_554 S
H1112 C1085 0.930 . S
H1113 C1086 0.931 . S
H1114 C1088 0.931 . S
H1115 C1089 0.931 . S
H1116 C1094 0.930 . S
H1117 C1095 0.931 . S
H1118 C1097 0.931 . S
H1119 C1098 0.931 . S
Gd1120 C1123 2.818 . S
Gd1120 O1140 2.377 . S
Gd1120 O1142 2.448 . S
Gd1120 O1143 2.506 . S
Gd1120 O1144 2.435 . S
Gd1120 O1145 2.717 1_554 S
Gd1120 O1147 2.395 . S
Gd1120 O1151 2.327 . S
Gd1121 C1132 2.818 . S
Gd1121 O1141 2.395 . S
Gd1121 O1145 2.327 . S
Gd1121 O1146 2.377 . S
Gd1121 O1148 2.448 . S
Gd1121 O1149 2.506 . S
Gd1121 O1150 2.435 . S
Gd1121 O1151 2.717 1_556 S
C1122 O1140 1.240 . S
C1122 O1141 1.240 1_554 S
C1123 Gd1120 2.818 . S
C1123 C1124 1.510 . S
C1123 O1142 1.249 . S
C1123 O1143 1.252 . S
C1124 C1123 1.510 . S
C1124 C1125 1.404 . S
C1124 C1126 1.352 . S
C1125 C1124 1.404 . S
C1125 C1129 1.389 . S
C1125 H1152 0.930 . S
C1126 C1124 1.352 . S
C1126 C1128 1.374 . S
C1126 H1153 0.931 . S
C1127 C1128 1.359 . S
C1127 C1129 1.364 . S
C1128 C1126 1.374 . S
C1128 C1127 1.359 . S
C1128 H1154 0.931 . S
C1129 C1125 1.389 . S
C1129 C1127 1.364 . S
C1129 H1155 0.931 . S
C1130 O1144 1.256 . S
C1130 O1145 1.257 1_554 S
C1131 O1146 1.240 . S
C1131 O1147 1.240 1_556 S
C1132 Gd1121 2.818 . S
C1132 C1133 1.510 . S
C1132 O1148 1.249 . S
C1132 O1149 1.252 . S
C1133 C1132 1.510 . S
C1133 C1134 1.404 . S
C1133 C1135 1.352 . S
C1134 C1133 1.404 . S
C1134 C1138 1.389 . S
C1134 H1156 0.930 . S
C1135 C1133 1.352 . S
C1135 C1137 1.374 . S
C1135 H1157 0.931 . S
C1136 C1137 1.359 . S
C1136 C1138 1.364 . S
C1137 C1135 1.374 . S
C1137 C1136 1.359 . S
C1137 H1158 0.931 . S
C1138 C1134 1.389 . S
C1138 C1136 1.364 . S
C1138 H1159 0.931 . S
C1139 O1150 1.256 . S
C1139 O1151 1.257 1_556 S
O1140 Gd1120 2.377 . S
O1140 C1122 1.240 . S
O1141 Gd1121 2.395 . S
O1141 C1122 1.240 1_556 S
O1142 Gd1120 2.448 . S
O1142 C1123 1.249 . S
O1143 Gd1120 2.506 . S
O1143 C1123 1.252 . S
O1144 Gd1120 2.435 . S
O1144 C1130 1.256 . S
O1145 Gd1120 2.717 1_556 S
O1145 Gd1121 2.327 . S
O1145 C1130 1.257 1_556 S
O1146 Gd1121 2.377 . S
O1146 C1131 1.240 . S
O1147 Gd1120 2.395 . S
O1147 C1131 1.240 1_554 S
O1148 Gd1121 2.448 . S
O1148 C1132 1.249 . S
O1149 Gd1121 2.506 . S
O1149 C1132 1.252 . S
O1150 Gd1121 2.435 . S
O1150 C1139 1.256 . S
O1151 Gd1120 2.327 . S
O1151 Gd1121 2.717 1_554 S
O1151 C1139 1.257 1_554 S
H1152 C1125 0.930 . S
H1153 C1126 0.931 . S
H1154 C1128 0.931 . S
H1155 C1129 0.931 . S
H1156 C1134 0.930 . S
H1157 C1135 0.931 . S
H1158 C1137 0.931 . S
H1159 C1138 0.931 . S
Gd1160 C1163 2.818 . S
Gd1160 O1180 2.377 . S
Gd1160 O1182 2.448 . S
Gd1160 O1183 2.506 . S
Gd1160 O1184 2.435 . S
Gd1160 O1185 2.717 1_554 S
Gd1160 O1187 2.395 . S
Gd1160 O1191 2.327 . S
Gd1161 C1172 2.818 . S
Gd1161 O1181 2.395 . S
Gd1161 O1185 2.327 . S
Gd1161 O1186 2.377 . S
Gd1161 O1188 2.448 . S
Gd1161 O1189 2.506 . S
Gd1161 O1190 2.435 . S
Gd1161 O1191 2.717 1_556 S
C1162 O1180 1.240 . S
C1162 O1181 1.240 1_554 S
C1163 Gd1160 2.818 . S
C1163 C1164 1.510 . S
C1163 O1182 1.249 . S
C1163 O1183 1.252 . S
C1164 C1163 1.510 . S
C1164 C1165 1.404 . S
C1164 C1166 1.352 . S
C1165 C1164 1.404 . S
C1165 C1169 1.389 . S
C1165 H1192 0.930 . S
C1166 C1164 1.352 . S
C1166 C1168 1.374 . S
C1166 H1193 0.931 . S
C1167 C1168 1.359 . S
C1167 C1169 1.364 . S
C1168 C1166 1.374 . S
C1168 C1167 1.359 . S
C1168 H1194 0.931 . S
C1169 C1165 1.389 . S
C1169 C1167 1.364 . S
C1169 H1195 0.931 . S
C1170 O1184 1.256 . S
C1170 O1185 1.257 1_554 S
C1171 O1186 1.240 . S
C1171 O1187 1.240 1_556 S
C1172 Gd1161 2.818 . S
C1172 C1173 1.510 . S
C1172 O1188 1.249 . S
C1172 O1189 1.252 . S
C1173 C1172 1.510 . S
C1173 C1174 1.404 . S
C1173 C1175 1.352 . S
C1174 C1173 1.404 . S
C1174 C1178 1.389 . S
C1174 H1196 0.930 . S
C1175 C1173 1.352 . S
C1175 C1177 1.374 . S
C1175 H1197 0.931 . S
C1176 C1177 1.359 . S
C1176 C1178 1.364 . S
C1177 C1175 1.374 . S
C1177 C1176 1.359 . S
C1177 H1198 0.931 . S
C1178 C1174 1.389 . S
C1178 C1176 1.364 . S
C1178 H1199 0.931 . S
C1179 O1190 1.256 . S
C1179 O1191 1.257 1_556 S
O1180 Gd1160 2.377 . S
O1180 C1162 1.240 . S
O1181 Gd1161 2.395 . S
O1181 C1162 1.240 1_556 S
O1182 Gd1160 2.448 . S
O1182 C1163 1.249 . S
O1183 Gd1160 2.506 . S
O1183 C1163 1.252 . S
O1184 Gd1160 2.435 . S
O1184 C1170 1.256 . S
O1185 Gd1160 2.717 1_556 S
O1185 Gd1161 2.327 . S
O1185 C1170 1.257 1_556 S
O1186 Gd1161 2.377 . S
O1186 C1171 1.240 . S
O1187 Gd1160 2.395 . S
O1187 C1171 1.240 1_554 S
O1188 Gd1161 2.448 . S
O1188 C1172 1.249 . S
O1189 Gd1161 2.506 . S
O1189 C1172 1.252 . S
O1190 Gd1161 2.435 . S
O1190 C1179 1.256 . S
O1191 Gd1160 2.327 . S
O1191 Gd1161 2.717 1_554 S
O1191 C1179 1.257 1_554 S
H1192 C1165 0.930 . S
H1193 C1166 0.931 . S
H1194 C1168 0.931 . S
H1195 C1169 0.931 . S
H1196 C1174 0.930 . S
H1197 C1175 0.931 . S
H1198 C1177 0.931 . S
H1199 C1178 0.931 . S
Gd1200 C1203 2.818 . S
Gd1200 O1220 2.377 . S
Gd1200 O1222 2.448 . S
Gd1200 O1223 2.506 . S
Gd1200 O1224 2.435 . S
Gd1200 O1225 2.717 . S
Gd1200 O1227 2.395 . S
Gd1200 O1231 2.327 . S
Gd1201 C1212 2.818 . S
Gd1201 O1221 2.395 . S
Gd1201 O1225 2.327 . S
Gd1201 O1226 2.377 . S
Gd1201 O1228 2.448 . S
Gd1201 O1229 2.506 . S
Gd1201 O1230 2.435 . S
Gd1201 O1231 2.717 . S
C1202 O1220 1.240 . S
C1202 O1221 1.240 . S
C1203 Gd1200 2.818 . S
C1203 C1204 1.510 . S
C1203 O1222 1.249 . S
C1203 O1223 1.252 . S
C1204 C1203 1.510 . S
C1204 C1205 1.404 . S
C1204 C1206 1.352 . S
C1205 C1204 1.404 . S
C1205 C1209 1.389 . S
C1205 H1232 0.930 . S
C1206 C1204 1.352 . S
C1206 C1208 1.374 . S
C1206 H1233 0.931 . S
C1207 C1208 1.359 . S
C1207 C1209 1.364 . S
C1208 C1206 1.374 . S
C1208 C1207 1.359 . S
C1208 H1234 0.931 . S
C1209 C1205 1.389 . S
C1209 C1207 1.364 . S
C1209 H1235 0.931 . S
C1210 O1224 1.256 . S
C1210 O1225 1.257 . S
C1211 O1226 1.240 . S
C1211 O1227 1.240 . S
C1212 Gd1201 2.818 . S
C1212 C1213 1.510 . S
C1212 O1228 1.249 . S
C1212 O1229 1.252 . S
C1213 C1212 1.510 . S
C1213 C1214 1.404 . S
C1213 C1215 1.352 . S
C1214 C1213 1.404 . S
C1214 C1218 1.389 . S
C1214 H1236 0.930 . S
C1215 C1213 1.352 . S
C1215 C1217 1.374 . S
C1215 H1237 0.931 . S
C1216 C1217 1.359 . S
C1216 C1218 1.364 . S
C1217 C1215 1.374 . S
C1217 C1216 1.359 . S
C1217 H1238 0.931 . S
C1218 C1214 1.389 . S
C1218 C1216 1.364 . S
C1218 H1239 0.931 . S
C1219 O1230 1.256 . S
C1219 O1231 1.257 . S
O1220 Gd1200 2.377 . S
O1220 C1202 1.240 . S
O1221 Gd1201 2.395 . S
O1221 C1202 1.240 . S
O1222 Gd1200 2.448 . S
O1222 C1203 1.249 . S
O1223 Gd1200 2.506 . S
O1223 C1203 1.252 . S
O1224 Gd1200 2.435 . S
O1224 C1210 1.256 . S
O1225 Gd1200 2.717 . S
O1225 Gd1201 2.327 . S
O1225 C1210 1.257 . S
O1226 Gd1201 2.377 . S
O1226 C1211 1.240 . S
O1227 Gd1200 2.395 . S
O1227 C1211 1.240 . S
O1228 Gd1201 2.448 . S
O1228 C1212 1.249 . S
O1229 Gd1201 2.506 . S
O1229 C1212 1.252 . S
O1230 Gd1201 2.435 . S
O1230 C1219 1.256 . S
O1231 Gd1200 2.327 . S
O1231 Gd1201 2.717 . S
O1231 C1219 1.257 . S
H1232 C1205 0.930 . S
H1233 C1206 0.931 . S
H1234 C1208 0.931 . S
H1235 C1209 0.931 . S
H1236 C1214 0.930 . S
H1237 C1215 0.931 . S
H1238 C1217 0.931 . S
H1239 C1218 0.931 . S
Gd1240 C1243 2.818 . S
Gd1240 O1260 2.377 . S
Gd1240 O1262 2.448 . S
Gd1240 O1263 2.506 . S
Gd1240 O1264 2.435 . S
Gd1240 O1265 2.717 . S
Gd1240 O1267 2.395 . S
Gd1240 O1271 2.327 . S
Gd1241 C1252 2.818 . S
Gd1241 O1261 2.395 . S
Gd1241 O1265 2.327 . S
Gd1241 O1266 2.377 . S
Gd1241 O1268 2.448 . S
Gd1241 O1269 2.506 . S
Gd1241 O1270 2.435 . S
Gd1241 O1271 2.717 . S
C1242 O1260 1.240 . S
C1242 O1261 1.240 . S
C1243 Gd1240 2.818 . S
C1243 C1244 1.510 . S
C1243 O1262 1.249 . S
C1243 O1263 1.252 . S
C1244 C1243 1.510 . S
C1244 C1245 1.404 . S
C1244 C1246 1.352 . S
C1245 C1244 1.404 . S
C1245 C1249 1.389 . S
C1245 H1272 0.930 . S
C1246 C1244 1.352 . S
C1246 C1248 1.374 . S
C1246 H1273 0.931 . S
C1247 C1248 1.359 . S
C1247 C1249 1.364 . S
C1248 C1246 1.374 . S
C1248 C1247 1.359 . S
C1248 H1274 0.931 . S
C1249 C1245 1.389 . S
C1249 C1247 1.364 . S
C1249 H1275 0.931 . S
C1250 O1264 1.256 . S
C1250 O1265 1.257 . S
C1251 O1266 1.240 . S
C1251 O1267 1.240 . S
C1252 Gd1241 2.818 . S
C1252 C1253 1.510 . S
C1252 O1268 1.249 . S
C1252 O1269 1.252 . S
C1253 C1252 1.510 . S
C1253 C1254 1.404 . S
C1253 C1255 1.352 . S
C1254 C1253 1.404 . S
C1254 C1258 1.389 . S
C1254 H1276 0.930 . S
C1255 C1253 1.352 . S
C1255 C1257 1.374 . S
C1255 H1277 0.931 . S
C1256 C1257 1.359 . S
C1256 C1258 1.364 . S
C1257 C1255 1.374 . S
C1257 C1256 1.359 . S
C1257 H1278 0.931 . S
C1258 C1254 1.389 . S
C1258 C1256 1.364 . S
C1258 H1279 0.931 . S
C1259 O1270 1.256 . S
C1259 O1271 1.257 . S
O1260 Gd1240 2.377 . S
O1260 C1242 1.240 . S
O1261 Gd1241 2.395 . S
O1261 C1242 1.240 . S
O1262 Gd1240 2.448 . S
O1262 C1243 1.249 . S
O1263 Gd1240 2.506 . S
O1263 C1243 1.252 . S
O1264 Gd1240 2.435 . S
O1264 C1250 1.256 . S
O1265 Gd1240 2.717 . S
O1265 Gd1241 2.327 . S
O1265 C1250 1.257 . S
O1266 Gd1241 2.377 . S
O1266 C1251 1.240 . S
O1267 Gd1240 2.395 . S
O1267 C1251 1.240 . S
O1268 Gd1241 2.448 . S
O1268 C1252 1.249 . S
O1269 Gd1241 2.506 . S
O1269 C1252 1.252 . S
O1270 Gd1241 2.435 . S
O1270 C1259 1.256 . S
O1271 Gd1240 2.327 . S
O1271 Gd1241 2.717 . S
O1271 C1259 1.257 . S
H1272 C1245 0.930 . S
H1273 C1246 0.931 . S
H1274 C1248 0.931 . S
H1275 C1249 0.931 . S
H1276 C1254 0.930 . S
H1277 C1255 0.931 . S
H1278 C1257 0.931 . S
H1279 C1258 0.931 . S
Gd1280 C1283 2.818 . S
Gd1280 O1300 2.377 . S
Gd1280 O1302 2.448 . S
Gd1280 O1303 2.506 . S
Gd1280 O1304 2.435 . S
Gd1280 O1305 2.717 . S
Gd1280 O1307 2.395 . S
Gd1280 O1311 2.327 . S
Gd1281 C1292 2.818 . S
Gd1281 O1301 2.395 . S
Gd1281 O1305 2.327 . S
Gd1281 O1306 2.377 . S
Gd1281 O1308 2.448 . S
Gd1281 O1309 2.506 . S
Gd1281 O1310 2.435 . S
Gd1281 O1311 2.717 . S
C1282 O1300 1.240 . S
C1282 O1301 1.240 . S
C1283 Gd1280 2.818 . S
C1283 C1284 1.510 . S
C1283 O1302 1.249 . S
C1283 O1303 1.252 . S
C1284 C1283 1.510 . S
C1284 C1285 1.404 . S
C1284 C1286 1.352 . S
C1285 C1284 1.404 . S
C1285 C1289 1.389 . S
C1285 H1312 0.930 . S
C1286 C1284 1.352 . S
C1286 C1288 1.374 . S
C1286 H1313 0.931 . S
C1287 C1288 1.359 . S
C1287 C1289 1.364 . S
C1288 C1286 1.374 . S
C1288 C1287 1.359 . S
C1288 H1314 0.931 . S
C1289 C1285 1.389 . S
C1289 C1287 1.364 . S
C1289 H1315 0.931 . S
C1290 O1304 1.256 . S
C1290 O1305 1.257 . S
C1291 O1306 1.240 . S
C1291 O1307 1.240 . S
C1292 Gd1281 2.818 . S
C1292 C1293 1.510 . S
C1292 O1308 1.249 . S
C1292 O1309 1.252 . S
C1293 C1292 1.510 . S
C1293 C1294 1.404 . S
C1293 C1295 1.352 . S
C1294 C1293 1.404 . S
C1294 C1298 1.389 . S
C1294 H1316 0.930 . S
C1295 C1293 1.352 . S
C1295 C1297 1.374 . S
C1295 H1317 0.931 . S
C1296 C1297 1.359 . S
C1296 C1298 1.364 . S
C1297 C1295 1.374 . S
C1297 C1296 1.359 . S
C1297 H1318 0.931 . S
C1298 C1294 1.389 . S
C1298 C1296 1.364 . S
C1298 H1319 0.931 . S
C1299 O1310 1.256 . S
C1299 O1311 1.257 . S
O1300 Gd1280 2.377 . S
O1300 C1282 1.240 . S
O1301 Gd1281 2.395 . S
O1301 C1282 1.240 . S
O1302 Gd1280 2.448 . S
O1302 C1283 1.249 . S
O1303 Gd1280 2.506 . S
O1303 C1283 1.252 . S
O1304 Gd1280 2.435 . S
O1304 C1290 1.256 . S
O1305 Gd1280 2.717 . S
O1305 Gd1281 2.327 . S
O1305 C1290 1.257 . S
O1306 Gd1281 2.377 . S
O1306 C1291 1.240 . S
O1307 Gd1280 2.395 . S
O1307 C1291 1.240 . S
O1308 Gd1281 2.448 . S
O1308 C1292 1.249 . S
O1309 Gd1281 2.506 . S
O1309 C1292 1.252 . S
O1310 Gd1281 2.435 . S
O1310 C1299 1.256 . S
O1311 Gd1280 2.327 . S
O1311 Gd1281 2.717 . S
O1311 C1299 1.257 . S
H1312 C1285 0.930 . S
H1313 C1286 0.931 . S
H1314 C1288 0.931 . S
H1315 C1289 0.931 . S
H1316 C1294 0.930 . S
H1317 C1295 0.931 . S
H1318 C1297 0.931 . S
H1319 C1298 0.931 . S
Gd1320 C1323 2.818 . S
Gd1320 O1340 2.377 . S
Gd1320 O1342 2.448 . S
Gd1320 O1343 2.506 . S
Gd1320 O1344 2.435 . S
Gd1320 O1345 2.717 . S
Gd1320 O1347 2.395 . S
Gd1320 O1351 2.327 . S
Gd1321 C1332 2.818 . S
Gd1321 O1341 2.395 . S
Gd1321 O1345 2.327 . S
Gd1321 O1346 2.377 . S
Gd1321 O1348 2.448 . S
Gd1321 O1349 2.506 . S
Gd1321 O1350 2.435 . S
Gd1321 O1351 2.717 . S
C1322 O1340 1.240 . S
C1322 O1341 1.240 . S
C1323 Gd1320 2.818 . S
C1323 C1324 1.510 . S
C1323 O1342 1.249 . S
C1323 O1343 1.252 . S
C1324 C1323 1.510 . S
C1324 C1325 1.404 . S
C1324 C1326 1.352 . S
C1325 C1324 1.404 . S
C1325 C1329 1.389 . S
C1325 H1352 0.930 . S
C1326 C1324 1.352 . S
C1326 C1328 1.374 . S
C1326 H1353 0.931 . S
C1327 C1328 1.359 . S
C1327 C1329 1.364 . S
C1328 C1326 1.374 . S
C1328 C1327 1.359 . S
C1328 H1354 0.931 . S
C1329 C1325 1.389 . S
C1329 C1327 1.364 . S
C1329 H1355 0.931 . S
C1330 O1344 1.256 . S
C1330 O1345 1.257 . S
C1331 O1346 1.240 . S
C1331 O1347 1.240 . S
C1332 Gd1321 2.818 . S
C1332 C1333 1.510 . S
C1332 O1348 1.249 . S
C1332 O1349 1.252 . S
C1333 C1332 1.510 . S
C1333 C1334 1.404 . S
C1333 C1335 1.352 . S
C1334 C1333 1.404 . S
C1334 C1338 1.389 . S
C1334 H1356 0.930 . S
C1335 C1333 1.352 . S
C1335 C1337 1.374 1_455 S
C1335 H1357 0.931 1_455 S
C1336 C1337 1.359 1_455 S
C1336 C1338 1.364 . S
C1337 C1335 1.374 1_655 S
C1337 C1336 1.359 1_655 S
C1337 H1358 0.931 . S
C1338 C1334 1.389 . S
C1338 C1336 1.364 . S
C1338 H1359 0.931 . S
C1339 O1350 1.256 . S
C1339 O1351 1.257 . S
O1340 Gd1320 2.377 . S
O1340 C1322 1.240 . S
O1341 Gd1321 2.395 . S
O1341 C1322 1.240 . S
O1342 Gd1320 2.448 . S
O1342 C1323 1.249 . S
O1343 Gd1320 2.506 . S
O1343 C1323 1.252 . S
O1344 Gd1320 2.435 . S
O1344 C1330 1.256 . S
O1345 Gd1320 2.717 . S
O1345 Gd1321 2.327 . S
O1345 C1330 1.257 . S
O1346 Gd1321 2.377 . S
O1346 C1331 1.240 . S
O1347 Gd1320 2.395 . S
O1347 C1331 1.240 . S
O1348 Gd1321 2.448 . S
O1348 C1332 1.249 . S
O1349 Gd1321 2.506 . S
O1349 C1332 1.252 . S
O1350 Gd1321 2.435 . S
O1350 C1339 1.256 . S
O1351 Gd1320 2.327 . S
O1351 Gd1321 2.717 . S
O1351 C1339 1.257 . S
H1352 C1325 0.930 . S
H1353 C1326 0.931 . S
H1354 C1328 0.931 . S
H1355 C1329 0.931 . S
H1356 C1334 0.930 . S
H1357 C1335 0.931 1_655 S
H1358 C1337 0.931 . S
H1359 C1338 0.931 . S
Gd1360 C1363 2.818 . S
Gd1360 O1380 2.377 . S
Gd1360 O1382 2.448 . S
Gd1360 O1383 2.506 . S
Gd1360 O1384 2.435 . S
Gd1360 O1385 2.717 . S
Gd1360 O1387 2.395 . S
Gd1360 O1391 2.327 . S
Gd1361 C1372 2.818 . S
Gd1361 O1381 2.395 . S
Gd1361 O1385 2.327 . S
Gd1361 O1386 2.377 . S
Gd1361 O1388 2.448 . S
Gd1361 O1389 2.506 . S
Gd1361 O1390 2.435 . S
Gd1361 O1391 2.717 . S
C1362 O1380 1.240 . S
C1362 O1381 1.240 . S
C1363 Gd1360 2.818 . S
C1363 C1364 1.510 . S
C1363 O1382 1.249 . S
C1363 O1383 1.252 . S
C1364 C1363 1.510 . S
C1364 C1365 1.404 . S
C1364 C1366 1.352 . S
C1365 C1364 1.404 . S
C1365 C1369 1.389 . S
C1365 H1392 0.930 . S
C1366 C1364 1.352 . S
C1366 C1368 1.374 . S
C1366 H1393 0.931 . S
C1367 C1368 1.359 . S
C1367 C1369 1.364 . S
C1368 C1366 1.374 . S
C1368 C1367 1.359 . S
C1368 H1394 0.931 . S
C1369 C1365 1.389 . S
C1369 C1367 1.364 . S
C1369 H1395 0.931 . S
C1370 O1384 1.256 . S
C1370 O1385 1.257 . S
C1371 O1386 1.240 . S
C1371 O1387 1.240 . S
C1372 Gd1361 2.818 . S
C1372 C1373 1.510 . S
C1372 O1388 1.249 . S
C1372 O1389 1.252 . S
C1373 C1372 1.510 . S
C1373 C1374 1.404 . S
C1373 C1375 1.352 . S
C1374 C1373 1.404 . S
C1374 C1378 1.389 . S
C1374 H1396 0.930 . S
C1375 C1373 1.352 . S
C1375 C1377 1.374 . S
C1375 H1397 0.931 . S
C1376 C1377 1.359 . S
C1376 C1378 1.364 . S
C1377 C1375 1.374 . S
C1377 C1376 1.359 . S
C1377 H1398 0.931 . S
C1378 C1374 1.389 . S
C1378 C1376 1.364 . S
C1378 H1399 0.931 . S
C1379 O1390 1.256 . S
C1379 O1391 1.257 . S
O1380 Gd1360 2.377 . S
O1380 C1362 1.240 . S
O1381 Gd1361 2.395 . S
O1381 C1362 1.240 . S
O1382 Gd1360 2.448 . S
O1382 C1363 1.249 . S
O1383 Gd1360 2.506 . S
O1383 C1363 1.252 . S
O1384 Gd1360 2.435 . S
O1384 C1370 1.256 . S
O1385 Gd1360 2.717 . S
O1385 Gd1361 2.327 . S
O1385 C1370 1.257 . S
O1386 Gd1361 2.377 . S
O1386 C1371 1.240 . S
O1387 Gd1360 2.395 . S
O1387 C1371 1.240 . S
O1388 Gd1361 2.448 . S
O1388 C1372 1.249 . S
O1389 Gd1361 2.506 . S
O1389 C1372 1.252 . S
O1390 Gd1361 2.435 . S
O1390 C1379 1.256 . S
O1391 Gd1360 2.327 . S
O1391 Gd1361 2.717 . S
O1391 C1379 1.257 . S
H1392 C1365 0.930 . S
H1393 C1366 0.931 . S
H1394 C1368 0.931 . S
H1395 C1369 0.931 . S
H1396 C1374 0.930 . S
H1397 C1375 0.931 . S
H1398 C1377 0.931 . S
H1399 C1378 0.931 . S
Gd1400 C1403 2.818 . S
Gd1400 O1420 2.377 . S
Gd1400 O1422 2.448 . S
Gd1400 O1423 2.506 . S
Gd1400 O1424 2.435 . S
Gd1400 O1425 2.717 . S
Gd1400 O1427 2.395 . S
Gd1400 O1431 2.327 . S
Gd1401 C1412 2.818 . S
Gd1401 O1421 2.395 . S
Gd1401 O1425 2.327 . S
Gd1401 O1426 2.377 . S
Gd1401 O1428 2.448 . S
Gd1401 O1429 2.506 . S
Gd1401 O1430 2.435 . S
Gd1401 O1431 2.717 . S
C1402 O1420 1.240 . S
C1402 O1421 1.240 . S
C1403 Gd1400 2.818 . S
C1403 C1404 1.510 . S
C1403 O1422 1.249 . S
C1403 O1423 1.252 . S
C1404 C1403 1.510 . S
C1404 C1405 1.404 . S
C1404 C1406 1.352 . S
C1405 C1404 1.404 . S
C1405 C1409 1.389 . S
C1405 H1432 0.930 . S
C1406 C1404 1.352 . S
C1406 C1408 1.374 . S
C1406 H1433 0.931 . S
C1407 C1408 1.359 . S
C1407 C1409 1.364 . S
C1408 C1406 1.374 . S
C1408 C1407 1.359 . S
C1408 H1434 0.931 . S
C1409 C1405 1.389 . S
C1409 C1407 1.364 . S
C1409 H1435 0.931 . S
C1410 O1424 1.256 . S
C1410 O1425 1.257 . S
C1411 O1426 1.240 . S
C1411 O1427 1.240 . S
C1412 Gd1401 2.818 . S
C1412 C1413 1.510 . S
C1412 O1428 1.249 . S
C1412 O1429 1.252 . S
C1413 C1412 1.510 . S
C1413 C1414 1.404 . S
C1413 C1415 1.352 . S
C1414 C1413 1.404 . S
C1414 C1418 1.389 . S
C1414 H1436 0.930 . S
C1415 C1413 1.352 . S
C1415 C1417 1.374 1_565 S
C1415 H1437 0.931 1_565 S
C1416 C1417 1.359 1_565 S
C1416 C1418 1.364 . S
C1417 C1415 1.374 1_545 S
C1417 C1416 1.359 1_545 S
C1417 H1438 0.931 . S
C1418 C1414 1.389 . S
C1418 C1416 1.364 . S
C1418 H1439 0.931 . S
C1419 O1430 1.256 . S
C1419 O1431 1.257 . S
O1420 Gd1400 2.377 . S
O1420 C1402 1.240 . S
O1421 Gd1401 2.395 . S
O1421 C1402 1.240 . S
O1422 Gd1400 2.448 . S
O1422 C1403 1.249 . S
O1423 Gd1400 2.506 . S
O1423 C1403 1.252 . S
O1424 Gd1400 2.435 . S
O1424 C1410 1.256 . S
O1425 Gd1400 2.717 . S
O1425 Gd1401 2.327 . S
O1425 C1410 1.257 . S
O1426 Gd1401 2.377 . S
O1426 C1411 1.240 . S
O1427 Gd1400 2.395 . S
O1427 C1411 1.240 . S
O1428 Gd1401 2.448 . S
O1428 C1412 1.249 . S
O1429 Gd1401 2.506 . S
O1429 C1412 1.252 . S
O1430 Gd1401 2.435 . S
O1430 C1419 1.256 . S
O1431 Gd1400 2.327 . S
O1431 Gd1401 2.717 . S
O1431 C1419 1.257 . S
H1432 C1405 0.930 . S
H1433 C1406 0.931 . S
H1434 C1408 0.931 . S
H1435 C1409 0.931 . S
H1436 C1414 0.930 . S
H1437 C1415 0.931 1_545 S
H1438 C1417 0.931 . S
H1439 C1418 0.931 . S
H1440 C1446 0.930 . S
H1441 C1450 0.930 . S
H1442 C1455 0.929 . S
H1443 C1453 0.929 . S
H1444 C1448 0.929 . S
H1445 C1454 0.929 . S
C1446 H1440 0.930 . S
C1446 C1447 1.367 . S
C1446 C1454 1.378 . S
C1447 C1446 1.367 . S
C1447 C1455 1.433 . S
C1448 H1444 0.929 . S
C1448 C1450 1.378 1_545 S
C1448 C1452 1.350 . S
C1449 C1452 1.463 . S
C1449 C1454 1.350 . S
C1449 N1457 1.427 . S
C1450 H1441 0.930 . S
C1450 C1448 1.378 1_565 S
C1450 C1451 1.367 . S
C1451 C1450 1.367 . S
C1451 C1453 1.433 . S
C1452 C1448 1.350 . S
C1452 C1449 1.463 . S
C1452 N1456 1.427 . S
C1453 H1443 0.929 . S
C1453 C1451 1.433 . S
C1453 N1456 1.384 1_565 S
C1454 H1445 0.929 . S
C1454 C1446 1.378 . S
C1454 C1449 1.350 . S
C1455 H1442 0.929 . S
C1455 C1447 1.433 . S
C1455 N1457 1.384 . S
N1456 C1452 1.427 . S
N1456 C1453 1.384 1_545 S
N1457 C1449 1.427 . S
N1457 C1455 1.384 . S
H1458 C1464 0.930 . S
H1459 C1468 0.930 . S
H1460 C1473 0.929 . S
H1461 C1471 0.929 1_565 S
H1462 C1466 0.929 . S
H1463 C1472 0.929 . S
C1464 H1458 0.930 . S
C1464 C1465 1.367 . S
C1464 C1472 1.378 1_455 S
C1465 C1464 1.367 . S
C1465 C1473 1.433 . S
C1466 H1462 0.929 . S
C1466 C1468 1.378 . S
C1466 C1470 1.350 . S
C1467 C1470 1.463 . S
C1467 C1472 1.350 . S
C1467 N1475 1.427 . S
C1468 H1459 0.930 . S
C1468 C1466 1.378 . S
C1468 C1469 1.367 . S
C1469 C1468 1.367 . S
C1469 C1471 1.433 . S
C1470 C1466 1.350 . S
C1470 C1467 1.463 . S
C1470 N1474 1.427 . S
C1471 H1461 0.929 1_545 S
C1471 C1469 1.433 . S
C1471 N1474 1.384 . S
C1472 H1463 0.929 . S
C1472 C1464 1.378 1_655 S
C1472 C1467 1.350 . S
C1473 H1460 0.929 . S
C1473 C1465 1.433 . S
C1473 N1475 1.384 1_455 S
N1474 C1470 1.427 . S
N1474 C1471 1.384 . S
N1475 C1467 1.427 . S
N1475 C1473 1.384 1_655 S
H1476 C1482 0.922 1_455 S
H1477 C1486 0.930 . S
H1478 C1491 0.929 . S
H1479 C1489 0.929 . S
H1480 C1484 0.929 . S
H1481 C1490 0.929 . S
C1482 H1476 0.922 1_655 S
C1482 C1483 1.367 . S
C1482 C1490 1.378 . S
C1483 C1482 1.367 . S
C1483 C1491 1.433 . S
C1484 H1480 0.929 . S
C1484 C1486 1.378 . S
C1484 C1488 1.350 . S
C1485 C1488 1.463 . S
C1485 C1490 1.350 . S
C1485 N1493 1.427 . S
C1486 H1477 0.930 . S
C1486 C1484 1.378 . S
C1486 C1487 1.367 . S
C1487 C1486 1.367 . S
C1487 C1489 1.433 . S
C1488 C1484 1.350 . S
C1488 C1485 1.463 . S
C1488 N1492 1.427 . S
C1489 H1479 0.929 . S
C1489 C1487 1.433 . S
C1489 N1492 1.384 . S
C1490 H1481 0.929 . S
C1490 C1482 1.378 . S
C1490 C1485 1.350 . S
C1491 H1478 0.929 . S
C1491 C1483 1.433 . S
C1491 N1493 1.384 . S
N1492 C1488 1.427 . S
N1492 C1489 1.384 . S
N1493 C1485 1.427 . S
N1493 C1491 1.384 . S
H1494 C1500 0.930 . S
H1495 C1504 0.930 . S
H1496 C1509 0.929 . S
H1497 C1507 0.929 1_655 S
H1498 C1502 0.929 . S
H1499 C1508 0.929 . S
C1500 H1494 0.930 . S
C1500 C1501 1.367 . S
C1500 C1508 1.378 . S
C1501 C1500 1.367 . S
C1501 C1509 1.433 . S
C1502 H1498 0.929 . S
C1502 C1504 1.378 1_455 S
C1502 C1506 1.350 . S
C1503 C1506 1.463 . S
C1503 C1508 1.350 . S
C1503 N1511 1.427 . S
C1504 H1495 0.930 . S
C1504 C1502 1.378 1_655 S
C1504 C1505 1.367 . S
C1505 C1504 1.367 . S
C1505 C1507 1.433 1_655 S
C1506 C1502 1.350 . S
C1506 C1503 1.463 . S
C1506 N1510 1.427 . S
C1507 H1497 0.929 1_455 S
C1507 C1505 1.433 1_455 S
C1507 N1510 1.384 . S
C1508 H1499 0.929 . S
C1508 C1500 1.378 . S
C1508 C1503 1.350 . S
C1509 H1496 0.929 . S
C1509 C1501 1.433 . S
C1509 N1511 1.384 . S
N1510 C1506 1.427 . S
N1510 C1507 1.384 . S
N1511 C1503 1.427 . S
N1511 C1509 1.384 . S
H1512 C1518 0.930 . S
H1513 C1522 0.930 1_545 S
H1514 C1527 0.929 . S
H1515 C1525 0.929 . S
H1516 C1520 0.929 . S
H1517 C1526 0.929 . S
C1518 H1512 0.930 . S
C1518 C1519 1.367 . S
C1518 C1526 1.378 . S
C1519 C1518 1.367 . S
C1519 C1527 1.433 . S
C1520 H1516 0.929 . S
C1520 C1522 1.378 . S
C1520 C1524 1.350 . S
C1521 C1524 1.463 . S
C1521 C1526 1.350 . S
C1521 N1529 1.427 . S
C1522 H1513 0.930 1_565 S
C1522 C1520 1.378 . S
C1522 C1523 1.367 . S
C1523 C1522 1.367 . S
C1523 C1525 1.433 . S
C1524 C1520 1.350 . S
C1524 C1521 1.463 . S
C1524 N1528 1.427 . S
C1525 H1515 0.929 . S
C1525 C1523 1.433 . S
C1525 N1528 1.384 . S
C1526 H1517 0.929 . S
C1526 C1518 1.378 . S
C1526 C1521 1.350 . S
C1527 H1514 0.929 . S
C1527 C1519 1.433 . S
C1527 N1529 1.384 . S
N1528 C1524 1.427 . S
N1528 C1525 1.384 . S
N1529 C1521 1.427 . S
N1529 C1527 1.384 . S
H1530 C1536 0.930 1_655 S
H1531 C1540 0.929 . S
H1532 C1545 0.929 . S
H1533 C1543 0.929 . S
H1534 C1538 0.929 . S
H1535 C1544 0.929 . S
C1536 H1530 0.930 1_455 S
C1536 C1537 1.367 . S
C1536 C1544 1.378 . S
C1537 C1536 1.367 . S
C1537 C1545 1.433 . S
C1538 H1534 0.929 . S
C1538 C1540 1.369 1_565 S
C1538 C1542 1.350 . S
C1539 C1542 1.463 . S
C1539 C1544 1.350 . S
C1539 N1547 1.427 . S
C1540 H1531 0.929 . S
C1540 C1538 1.369 1_545 S
C1540 C1541 1.377 . S
C1541 C1540 1.377 . S
C1541 C1543 1.433 . S
C1542 C1538 1.350 . S
C1542 C1539 1.463 . S
C1542 N1546 1.427 . S
C1543 H1533 0.929 . S
C1543 C1541 1.433 . S
C1543 N1546 1.384 1_545 S
C1544 H1535 0.929 . S
C1544 C1536 1.378 . S
C1544 C1539 1.350 . S
C1545 H1532 0.929 . S
C1545 C1537 1.433 . S
C1545 N1547 1.384 . S
N1546 C1542 1.427 . S
N1546 C1543 1.384 1_565 S
N1547 C1539 1.427 . S
N1547 C1545 1.384 . S
H1548 C1554 0.930 . S
H1549 C1558 0.930 . S
H1550 C1563 0.929 . S
H1551 C1561 0.929 . S
H1552 C1556 0.929 . S
H1553 C1562 0.929 . S
C1554 H1548 0.930 . S
C1554 C1555 1.367 . S
C1554 C1562 1.378 . S
C1555 C1554 1.367 . S
C1555 C1563 1.433 . S
C1556 H1552 0.929 . S
C1556 C1558 1.378 1_565 S
C1556 C1560 1.350 . S
C1557 C1560 1.463 . S
C1557 C1562 1.350 . S
C1557 N1565 1.427 . S
C1558 H1549 0.930 . S
C1558 C1556 1.378 1_545 S
C1558 C1559 1.367 . S
C1559 C1558 1.367 . S
C1559 C1561 1.433 . S
C1560 C1556 1.350 . S
C1560 C1557 1.463 . S
C1560 N1564 1.427 . S
C1561 H1551 0.929 . S
C1561 C1559 1.433 . S
C1561 N1564 1.384 1_545 S
C1562 H1553 0.929 . S
C1562 C1554 1.378 . S
C1562 C1557 1.350 . S
C1563 H1550 0.929 . S
C1563 C1555 1.433 . S
C1563 N1565 1.384 . S
N1564 C1560 1.427 . S
N1564 C1561 1.384 1_565 S
N1565 C1557 1.427 . S
N1565 C1563 1.384 . S
H1566 C1572 0.930 . S
H1567 C1576 0.930 . S
H1568 C1581 0.938 . S
H1569 C1579 0.929 . S
H1570 C1574 0.929 . S
H1571 C1580 0.929 . S
C1572 H1566 0.930 . S
C1572 C1573 1.367 . S
C1572 C1580 1.378 . S
C1573 C1572 1.367 . S
C1573 C1581 1.433 . S
C1574 H1570 0.929 . S
C1574 C1576 1.378 1_455 S
C1574 C1578 1.350 . S
C1575 C1578 1.463 . S
C1575 C1580 1.350 . S
C1575 N1583 1.427 . S
C1576 H1567 0.930 . S
C1576 C1574 1.378 1_655 S
C1576 C1577 1.367 . S
C1577 C1576 1.367 . S
C1577 C1579 1.433 . S
C1578 C1574 1.350 . S
C1578 C1575 1.463 . S
C1578 N1582 1.427 . S
C1579 H1569 0.929 . S
C1579 C1577 1.433 . S
C1579 N1582 1.384 1_655 S
C1580 H1571 0.929 . S
C1580 C1572 1.378 . S
C1580 C1575 1.350 . S
C1581 H1568 0.938 . S
C1581 C1573 1.433 . S
C1581 N1583 1.384 . S
N1582 C1578 1.427 . S
N1582 C1579 1.384 1_455 S
N1583 C1575 1.427 . S
N1583 C1581 1.384 . S
H1584 C1590 0.930 . S
H1585 C1594 0.930 . S
H1586 C1599 0.914 1_655 S
H1587 C1597 0.929 . S
H1588 C1592 0.929 . S
H1589 C1598 0.929 . S
C1590 H1584 0.930 . S
C1590 C1591 1.367 . S
C1590 C1598 1.378 . S
C1591 C1590 1.367 . S
C1591 C1599 1.426 . S
C1592 H1588 0.929 . S
C1592 C1594 1.378 . S
C1592 C1596 1.350 . S
C1593 C1596 1.463 . S
C1593 C1598 1.350 . S
C1593 N1601 1.427 . S
C1594 H1585 0.930 . S
C1594 C1592 1.378 . S
C1594 C1595 1.367 . S
C1595 C1594 1.367 . S
C1595 C1597 1.433 . S
C1596 C1592 1.350 . S
C1596 C1593 1.463 . S
C1596 N1600 1.427 . S
C1597 H1587 0.929 . S
C1597 C1595 1.433 . S
C1597 N1600 1.384 . S
C1598 H1589 0.929 . S
C1598 C1590 1.378 . S
C1598 C1593 1.350 . S
C1599 H1586 0.914 1_455 S
C1599 C1591 1.426 . S
C1599 N1601 1.407 . S
N1600 C1596 1.427 . S
N1600 C1597 1.384 . S
N1601 C1593 1.427 . S
N1601 C1599 1.407 . S
H1602 C1608 0.930 . S
H1603 C1612 0.932 . S
H1604 C1617 0.929 . S
H1605 C1615 0.929 . S
H1606 C1610 0.929 . S
H1607 C1616 0.929 . S
C1608 H1602 0.930 . S
C1608 C1609 1.367 . S
C1608 C1616 1.378 . S
C1609 C1608 1.367 . S
C1609 C1617 1.433 . S
C1610 H1606 0.929 . S
C1610 C1612 1.378 . S
C1610 C1614 1.350 . S
C1611 C1614 1.463 . S
C1611 C1616 1.350 . S
C1611 N1619 1.427 . S
C1612 H1603 0.932 . S
C1612 C1610 1.378 . S
C1612 C1613 1.367 1_655 S
C1613 C1612 1.367 1_455 S
C1613 C1615 1.433 . S
C1614 C1610 1.350 . S
C1614 C1611 1.463 . S
C1614 N1618 1.427 . S
C1615 H1605 0.929 . S
C1615 C1613 1.433 . S
C1615 N1618 1.384 1_455 S
C1616 H1607 0.929 . S
C1616 C1608 1.378 . S
C1616 C1611 1.350 . S
C1617 H1604 0.929 . S
C1617 C1609 1.433 . S
C1617 N1619 1.384 . S
N1618 C1614 1.427 . S
N1618 C1615 1.384 1_655 S
N1619 C1611 1.427 . S
N1619 C1617 1.384 . S
H1620 C1626 0.930 . S
H1621 C1630 0.930 1_565 S
H1622 C1635 0.929 . S
H1623 C1633 0.929 . S
H1624 C1628 0.929 . S
H1625 C1634 0.929 . S
C1626 H1620 0.930 . S
C1626 C1627 1.367 . S
C1626 C1634 1.378 . S
C1627 C1626 1.367 . S
C1627 C1635 1.433 . S
C1628 H1624 0.929 . S
C1628 C1630 1.378 . S
C1628 C1632 1.350 . S
C1629 C1632 1.463 . S
C1629 C1634 1.350 . S
C1629 N1637 1.427 . S
C1630 H1621 0.930 1_545 S
C1630 C1628 1.378 . S
C1630 C1631 1.367 . S
C1631 C1630 1.367 . S
C1631 C1633 1.433 . S
C1632 C1628 1.350 . S
C1632 C1629 1.463 . S
C1632 N1636 1.427 . S
C1633 H1623 0.929 . S
C1633 C1631 1.433 . S
C1633 N1636 1.384 . S
C1634 H1625 0.929 . S
C1634 C1626 1.378 . S
C1634 C1629 1.350 . S
C1635 H1622 0.929 . S
C1635 C1627 1.433 . S
C1635 N1637 1.384 . S
N1636 C1632 1.427 . S
N1636 C1633 1.384 . S
N1637 C1629 1.427 . S
N1637 C1635 1.384 . S
H1638 C1644 0.930 . S
H1639 C1648 0.930 1_455 S
H1640 C1653 0.929 . S
H1641 C1651 0.929 . S
H1642 C1646 0.929 . S
H1643 C1652 0.929 . S
C1644 H1638 0.930 . S
C1644 C1645 1.367 . S
C1644 C1652 1.378 1_565 S
C1645 C1644 1.367 . S
C1645 C1653 1.433 . S
C1646 H1642 0.929 . S
C1646 C1648 1.378 . S
C1646 C1650 1.350 . S
C1647 C1650 1.463 . S
C1647 C1652 1.350 . S
C1647 N1655 1.427 . S
C1648 H1639 0.930 1_655 S
C1648 C1646 1.378 . S
C1648 C1649 1.367 . S
C1649 C1648 1.367 . S
C1649 C1651 1.433 . S
C1650 C1646 1.350 . S
C1650 C1647 1.463 . S
C1650 N1654 1.427 . S
C1651 H1641 0.929 . S
C1651 C1649 1.433 . S
C1651 N1654 1.384 . S
C1652 H1643 0.929 . S
C1652 C1644 1.378 1_545 S
C1652 C1647 1.350 . S
C1653 H1640 0.929 . S
C1653 C1645 1.433 . S
C1653 N1655 1.384 1_565 S
N1654 C1650 1.427 . S
N1654 C1651 1.384 . S
N1655 C1647 1.427 . S
N1655 C1653 1.384 1_545 S
H1656 C1662 0.930 . S
H1657 C1666 0.930 . S
H1658 C1671 0.929 . S
H1659 C1669 0.929 . S
H1660 C1664 0.929 . S
H1661 C1670 0.929 . S
C1662 H1656 0.930 . S
C1662 C1663 1.367 . S
C1662 C1670 1.378 . S
C1663 C1662 1.367 . S
C1663 C1671 1.433 . S
C1664 H1660 0.929 . S
C1664 C1666 1.378 . S
C1664 C1668 1.350 . S
C1665 C1668 1.463 . S
C1665 C1670 1.350 . S
C1665 N1673 1.427 . S
C1666 H1657 0.930 . S
C1666 C1664 1.378 . S
C1666 C1667 1.367 . S
C1667 C1666 1.367 . S
C1667 C1669 1.433 . S
C1668 C1664 1.350 . S
C1668 C1665 1.463 . S
C1668 N1672 1.427 . S
C1669 H1659 0.929 . S
C1669 C1667 1.433 . S
C1669 N1672 1.384 . S
C1670 H1661 0.929 . S
C1670 C1662 1.378 . S
C1670 C1665 1.350 . S
C1671 H1658 0.929 . S
C1671 C1663 1.433 . S
C1671 N1673 1.384 . S
N1672 C1668 1.427 . S
N1672 C1669 1.384 . S
N1673 C1665 1.427 . S
N1673 C1671 1.384 . S
H1674 C1680 0.930 . S
H1675 C1684 0.930 . S
H1676 C1689 0.929 . S
H1677 C1687 0.929 . S
H1678 C1682 0.929 . S
H1679 C1688 0.929 . S
C1680 H1674 0.930 . S
C1680 C1681 1.367 . S
C1680 C1688 1.378 . S
C1681 C1680 1.367 . S
C1681 C1689 1.433 . S
C1682 H1678 0.929 . S
C1682 C1684 1.378 . S
C1682 C1686 1.350 . S
C1683 C1686 1.463 . S
C1683 C1688 1.350 . S
C1683 N1691 1.427 . S
C1684 H1675 0.930 . S
C1684 C1682 1.378 . S
C1684 C1685 1.367 . S
C1685 C1684 1.367 . S
C1685 C1687 1.433 . S
C1686 C1682 1.350 . S
C1686 C1683 1.463 . S
C1686 N1690 1.427 . S
C1687 H1677 0.929 . S
C1687 C1685 1.433 . S
C1687 N1690 1.384 . S
C1688 H1679 0.929 . S
C1688 C1680 1.378 . S
C1688 C1683 1.350 . S
C1689 H1676 0.929 . S
C1689 C1681 1.433 . S
C1689 N1691 1.384 . S
N1690 C1686 1.427 . S
N1690 C1687 1.384 . S
N1691 C1683 1.427 . S
N1691 C1689 1.384 . S
H1692 C1698 0.930 . S
H1693 C1702 0.930 . S
H1694 C1707 0.929 . S
H1695 C1705 0.929 . S
H1696 C1700 0.929 . S
H1697 C1706 0.929 . S
C1698 H1692 0.930 . S
C1698 C1699 1.367 . S
C1698 C1706 1.378 . S
C1699 C1698 1.367 . S
C1699 C1707 1.433 . S
C1700 H1696 0.929 . S
C1700 C1702 1.378 . S
C1700 C1704 1.350 . S
C1701 C1704 1.463 . S
C1701 C1706 1.350 . S
C1701 N1709 1.427 . S
C1702 H1693 0.930 . S
C1702 C1700 1.378 . S
C1702 C1703 1.367 . S
C1703 C1702 1.367 . S
C1703 C1705 1.433 . S
C1704 C1700 1.350 . S
C1704 C1701 1.463 . S
C1704 N1708 1.427 . S
C1705 H1695 0.929 . S
C1705 C1703 1.433 . S
C1705 N1708 1.384 . S
C1706 H1697 0.929 . S
C1706 C1698 1.378 . S
C1706 C1701 1.350 . S
C1707 H1694 0.929 . S
C1707 C1699 1.433 . S
C1707 N1709 1.384 . S
N1708 C1704 1.427 . S
N1708 C1705 1.384 . S
N1709 C1701 1.427 . S
N1709 C1707 1.384 . S
H1710 C1716 0.930 . S
H1711 C1720 0.930 . S
H1712 C1725 0.929 . S
H1713 C1723 0.929 . S
H1714 C1718 0.929 . S
H1715 C1724 0.929 . S
C1716 H1710 0.930 . S
C1716 C1717 1.367 . S
C1716 C1724 1.378 . S
C1717 C1716 1.367 . S
C1717 C1725 1.433 . S
C1718 H1714 0.929 . S
C1718 C1720 1.378 . S
C1718 C1722 1.350 . S
C1719 C1722 1.463 . S
C1719 C1724 1.350 . S
C1719 N1727 1.427 . S
C1720 H1711 0.930 . S
C1720 C1718 1.378 . S
C1720 C1721 1.367 . S
C1721 C1720 1.367 . S
C1721 C1723 1.433 . S
C1722 C1718 1.350 . S
C1722 C1719 1.463 . S
C1722 N1726 1.427 . S
C1723 H1713 0.929 . S
C1723 C1721 1.433 . S
C1723 N1726 1.384 . S
C1724 H1715 0.929 . S
C1724 C1716 1.378 . S
C1724 C1719 1.350 . S
C1725 H1712 0.929 . S
C1725 C1717 1.433 . S
C1725 N1727 1.384 . S
N1726 C1722 1.427 . S
N1726 C1723 1.384 . S
N1727 C1719 1.427 . S
N1727 C1725 1.384 . S
H1728 C1734 0.930 . S
H1729 C1738 0.930 . S
H1730 C1743 0.929 . S
H1731 C1741 0.929 . S
H1732 C1736 0.929 . S
H1733 C1742 0.929 . S
C1734 H1728 0.930 . S
C1734 C1735 1.367 . S
C1734 C1742 1.378 . S
C1735 C1734 1.367 . S
C1735 C1743 1.433 . S
C1736 H1732 0.929 . S
C1736 C1738 1.378 . S
C1736 C1740 1.350 . S
C1737 C1740 1.463 . S
C1737 C1742 1.350 . S
C1737 N1745 1.427 . S
C1738 H1729 0.930 . S
C1738 C1736 1.378 . S
C1738 C1739 1.367 . S
C1739 C1738 1.367 . S
C1739 C1741 1.433 . S
C1740 C1736 1.350 . S
C1740 C1737 1.463 . S
C1740 N1744 1.427 . S
C1741 H1731 0.929 . S
C1741 C1739 1.433 . S
C1741 N1744 1.384 . S
C1742 H1733 0.929 . S
C1742 C1734 1.378 . S
C1742 C1737 1.350 . S
C1743 H1730 0.929 . S
C1743 C1735 1.433 . S
C1743 N1745 1.384 . S
N1744 C1740 1.427 . S
N1744 C1741 1.384 . S
N1745 C1737 1.427 . S
N1745 C1743 1.384 . S
H1746 C1752 0.930 . S
H1747 C1756 0.930 . S
H1748 C1761 0.929 . S
H1749 C1759 0.929 . S
H1750 C1754 0.929 . S
H1751 C1760 0.929 . S
C1752 H1746 0.930 . S
C1752 C1753 1.367 . S
C1752 C1760 1.378 . S
C1753 C1752 1.367 . S
C1753 C1761 1.433 . S
C1754 H1750 0.929 . S
C1754 C1756 1.378 . S
C1754 C1758 1.350 . S
C1755 C1758 1.463 . S
C1755 C1760 1.350 . S
C1755 N1763 1.427 . S
C1756 H1747 0.930 . S
C1756 C1754 1.378 . S
C1756 C1757 1.367 . S
C1757 C1756 1.367 . S
C1757 C1759 1.433 . S
C1758 C1754 1.350 . S
C1758 C1755 1.463 . S
C1758 N1762 1.427 . S
C1759 H1749 0.929 . S
C1759 C1757 1.433 . S
C1759 N1762 1.384 . S
C1760 H1751 0.929 . S
C1760 C1752 1.378 . S
C1760 C1755 1.350 . S
C1761 H1748 0.929 . S
C1761 C1753 1.433 . S
C1761 N1763 1.384 . S
N1762 C1758 1.427 . S
N1762 C1759 1.384 . S
N1763 C1755 1.427 . S
N1763 C1761 1.384 . S
H1764 C1770 0.930 . S
H1765 C1774 0.930 . S
H1766 C1779 0.929 . S
H1767 C1777 0.929 . S
H1768 C1772 0.929 . S
H1769 C1778 0.929 . S
C1770 H1764 0.930 . S
C1770 C1771 1.367 . S
C1770 C1778 1.378 . S
C1771 C1770 1.367 . S
C1771 C1779 1.433 . S
C1772 H1768 0.929 . S
C1772 C1774 1.378 . S
C1772 C1776 1.350 . S
C1773 C1776 1.463 . S
C1773 C1778 1.350 . S
C1773 N1781 1.427 . S
C1774 H1765 0.930 . S
C1774 C1772 1.378 . S
C1774 C1775 1.367 . S
C1775 C1774 1.367 . S
C1775 C1777 1.433 . S
C1776 C1772 1.350 . S
C1776 C1773 1.463 . S
C1776 N1780 1.427 . S
C1777 H1767 0.929 . S
C1777 C1775 1.433 . S
C1777 N1780 1.384 . S
C1778 H1769 0.929 . S
C1778 C1770 1.378 . S
C1778 C1773 1.350 . S
C1779 H1766 0.929 . S
C1779 C1771 1.433 . S
C1779 N1781 1.384 . S
N1780 C1776 1.427 . S
N1780 C1777 1.384 . S
N1781 C1773 1.427 . S
N1781 C1779 1.384 . S
H1782 C1788 0.930 . S
H1783 C1792 0.930 . S
H1784 C1797 0.929 . S
H1785 C1795 0.929 . S
H1786 C1790 0.929 . S
H1787 C1796 0.929 . S
C1788 H1782 0.930 . S
C1788 C1789 1.367 . S
C1788 C1796 1.378 . S
C1789 C1788 1.367 . S
C1789 C1797 1.433 . S
C1790 H1786 0.929 . S
C1790 C1792 1.378 . S
C1790 C1794 1.350 . S
C1791 C1794 1.463 . S
C1791 C1796 1.350 . S
C1791 N1799 1.427 . S
C1792 H1783 0.930 . S
C1792 C1790 1.378 . S
C1792 C1793 1.367 . S
C1793 C1792 1.367 . S
C1793 C1795 1.433 . S
C1794 C1790 1.350 . S
C1794 C1791 1.463 . S
C1794 N1798 1.427 . S
C1795 H1785 0.929 . S
C1795 C1793 1.433 . S
C1795 N1798 1.384 . S
C1796 H1787 0.929 . S
C1796 C1788 1.378 . S
C1796 C1791 1.350 . S
C1797 H1784 0.929 . S
C1797 C1789 1.433 . S
C1797 N1799 1.384 . S
N1798 C1794 1.427 . S
N1798 C1795 1.384 . S
N1799 C1791 1.427 . S
N1799 C1797 1.384 . S
H1800 C1806 0.930 . S
H1801 C1810 0.930 . S
H1802 C1815 0.929 . S
H1803 C1813 0.929 . S
H1804 C1808 0.929 . S
H1805 C1814 0.929 . S
C1806 H1800 0.930 . S
C1806 C1807 1.367 . S
C1806 C1814 1.378 . S
C1807 C1806 1.367 . S
C1807 C1815 1.433 . S
C1808 H1804 0.929 . S
C1808 C1810 1.378 . S
C1808 C1812 1.350 . S
C1809 C1812 1.463 . S
C1809 C1814 1.350 . S
C1809 N1817 1.427 . S
C1810 H1801 0.930 . S
C1810 C1808 1.378 . S
C1810 C1811 1.367 . S
C1811 C1810 1.367 . S
C1811 C1813 1.433 . S
C1812 C1808 1.350 . S
C1812 C1809 1.463 . S
C1812 N1816 1.427 . S
C1813 H1803 0.929 . S
C1813 C1811 1.433 . S
C1813 N1816 1.384 . S
C1814 H1805 0.929 . S
C1814 C1806 1.378 . S
C1814 C1809 1.350 . S
C1815 H1802 0.929 . S
C1815 C1807 1.433 . S
C1815 N1817 1.384 . S
N1816 C1812 1.427 . S
N1816 C1813 1.384 . S
N1817 C1809 1.427 . S
N1817 C1815 1.384 . S
H1818 C1824 0.930 . S
H1819 C1828 0.930 . S
H1820 C1833 0.929 . S
H1821 C1831 0.929 . S
H1822 C1826 0.929 . S
H1823 C1832 0.929 . S
C1824 H1818 0.930 . S
C1824 C1825 1.367 1_556 S
C1824 C1832 1.378 . S
C1825 C1824 1.367 1_554 S
C1825 C1833 1.433 . S
C1826 H1822 0.929 . S
C1826 C1828 1.378 . S
C1826 C1830 1.350 . S
C1827 C1830 1.463 . S
C1827 C1832 1.350 1_554 S
C1827 N1835 1.427 . S
C1828 H1819 0.930 . S
C1828 C1826 1.378 . S
C1828 C1829 1.367 . S
C1829 C1828 1.367 . S
C1829 C1831 1.433 1_554 S
C1830 C1826 1.350 . S
C1830 C1827 1.463 . S
C1830 N1834 1.427 1_554 S
C1831 H1821 0.929 . S
C1831 C1829 1.433 1_556 S
C1831 N1834 1.384 . S
C1832 H1823 0.929 . S
C1832 C1824 1.378 . S
C1832 C1827 1.350 1_556 S
C1833 H1820 0.929 . S
C1833 C1825 1.433 . S
C1833 N1835 1.384 . S
N1834 C1830 1.427 1_556 S
N1834 C1831 1.384 . S
N1835 C1827 1.427 . S
N1835 C1833 1.384 . S
H1836 C1842 0.930 . S
H1837 C1846 0.930 . S
H1838 C1851 0.929 . S
H1839 C1849 0.929 . S
H1840 C1844 0.929 . S
H1841 C1850 0.929 . S
C1842 H1836 0.930 . S
C1842 C1843 1.271 1_556 S
C1842 C1850 1.378 . S
C1843 C1842 1.271 1_554 S
C1843 C1851 1.542 . S
C1844 H1840 0.929 . S
C1844 C1846 1.378 . S
C1844 C1848 1.350 . S
C1845 C1848 1.463 . S
C1845 C1850 1.350 1_554 S
C1845 N1853 1.427 . S
C1846 H1837 0.930 . S
C1846 C1844 1.378 . S
C1846 C1847 1.367 . S
C1847 C1846 1.367 . S
C1847 C1849 1.433 1_554 S
C1848 C1844 1.350 . S
C1848 C1845 1.463 . S
C1848 N1852 1.427 1_554 S
C1849 H1839 0.929 . S
C1849 C1847 1.433 1_556 S
C1849 N1852 1.384 . S
C1850 H1841 0.929 . S
C1850 C1842 1.378 . S
C1850 C1845 1.350 1_556 S
C1851 H1838 0.929 . S
C1851 C1843 1.542 . S
C1851 N1853 1.384 . S
N1852 C1848 1.427 1_556 S
N1852 C1849 1.384 . S
N1853 C1845 1.427 . S
N1853 C1851 1.384 . S
H1854 C1860 0.930 . S
H1855 C1864 0.930 . S
H1856 C1869 0.929 . S
H1857 C1867 0.929 . S
H1858 C1862 0.929 . S
H1859 C1868 0.929 . S
C1860 H1854 0.930 . S
C1860 C1861 1.367 1_556 S
C1860 C1868 1.378 . S
C1861 C1860 1.367 1_554 S
C1861 C1869 1.433 . S
C1862 H1858 0.929 . S
C1862 C1864 1.378 . S
C1862 C1866 1.350 . S
C1863 C1866 1.463 . S
C1863 C1868 1.350 1_554 S
C1863 N1871 1.427 . S
C1864 H1855 0.930 . S
C1864 C1862 1.378 . S
C1864 C1865 1.367 . S
C1865 C1864 1.367 . S
C1865 C1867 1.433 1_554 S
C1866 C1862 1.350 . S
C1866 C1863 1.463 . S
C1866 N1870 1.427 1_554 S
C1867 H1857 0.929 . S
C1867 C1865 1.433 1_556 S
C1867 N1870 1.384 . S
C1868 H1859 0.929 . S
C1868 C1860 1.378 . S
C1868 C1863 1.350 1_556 S
C1869 H1856 0.929 . S
C1869 C1861 1.433 . S
C1869 N1871 1.384 . S
N1870 C1866 1.427 1_556 S
N1870 C1867 1.384 . S
N1871 C1863 1.427 . S
N1871 C1869 1.384 . S
H1872 C1878 0.930 . S
H1873 C1882 0.930 . S
H1874 C1887 0.929 . S
H1875 C1885 0.929 . S
H1876 C1880 0.929 . S
H1877 C1886 0.929 . S
C1878 H1872 0.930 . S
C1878 C1879 1.367 . S
C1878 C1886 1.378 . S
C1879 C1878 1.367 . S
C1879 C1887 1.433 . S
C1880 H1876 0.929 . S
C1880 C1882 1.378 . S
C1880 C1884 1.350 . S
C1881 C1884 1.463 . S
C1881 C1886 1.350 . S
C1881 N1889 1.427 . S
C1882 H1873 0.930 . S
C1882 C1880 1.378 . S
C1882 C1883 1.367 . S
C1883 C1882 1.367 . S
C1883 C1885 1.433 . S
C1884 C1880 1.350 . S
C1884 C1881 1.463 . S
C1884 N1888 1.427 . S
C1885 H1875 0.929 . S
C1885 C1883 1.433 . S
C1885 N1888 1.384 . S
C1886 H1877 0.929 . S
C1886 C1878 1.378 . S
C1886 C1881 1.350 . S
C1887 H1874 0.929 . S
C1887 C1879 1.433 . S
C1887 N1889 1.384 . S
N1888 C1884 1.427 . S
N1888 C1885 1.384 . S
N1889 C1881 1.427 . S
N1889 C1887 1.384 . S
H1890 C1896 0.930 . S
H1891 C1900 0.930 . S
H1892 C1905 0.929 . S
H1893 C1903 0.929 . S
H1894 C1898 0.929 . S
H1895 C1904 0.929 . S
C1896 H1890 0.930 . S
C1896 C1897 1.367 . S
C1896 C1904 1.378 . S
C1897 C1896 1.367 . S
C1897 C1905 1.433 . S
C1898 H1894 0.929 . S
C1898 C1900 1.378 . S
C1898 C1902 1.350 . S
C1899 C1902 1.463 . S
C1899 C1904 1.350 . S
C1899 N1907 1.427 . S
C1900 H1891 0.930 . S
C1900 C1898 1.378 . S
C1900 C1901 1.367 . S
C1901 C1900 1.367 . S
C1901 C1903 1.433 . S
C1902 C1898 1.350 . S
C1902 C1899 1.463 . S
C1902 N1906 1.427 . S
C1903 H1893 0.929 . S
C1903 C1901 1.433 . S
C1903 N1906 1.384 . S
C1904 H1895 0.929 . S
C1904 C1896 1.378 . S
C1904 C1899 1.350 . S
C1905 H1892 0.929 . S
C1905 C1897 1.433 . S
C1905 N1907 1.384 . S
N1906 C1902 1.427 . S
N1906 C1903 1.384 . S
N1907 C1899 1.427 . S
N1907 C1905 1.384 . S
H1908 C1914 0.930 . S
H1909 C1918 0.930 . S
H1910 C1923 0.929 . S
H1911 C1921 0.929 . S
H1912 C1916 0.929 . S
H1913 C1922 0.929 . S
C1914 H1908 0.930 . S
C1914 C1915 1.367 . S
C1914 C1922 1.378 . S
C1915 C1914 1.367 . S
C1915 C1923 1.433 . S
C1916 H1912 0.929 . S
C1916 C1918 1.378 . S
C1916 C1920 1.350 . S
C1917 C1920 1.463 . S
C1917 C1922 1.350 . S
C1917 N1925 1.427 . S
C1918 H1909 0.930 . S
C1918 C1916 1.378 . S
C1918 C1919 1.367 . S
C1919 C1918 1.367 . S
C1919 C1921 1.433 . S
C1920 C1916 1.350 . S
C1920 C1917 1.463 . S
C1920 N1924 1.427 . S
C1921 H1911 0.929 . S
C1921 C1919 1.433 . S
C1921 N1924 1.384 . S
C1922 H1913 0.929 . S
C1922 C1914 1.378 . S
C1922 C1917 1.350 . S
C1923 H1910 0.929 . S
C1923 C1915 1.433 . S
C1923 N1925 1.384 . S
N1924 C1920 1.427 . S
N1924 C1921 1.384 . S
N1925 C1917 1.427 . S
N1925 C1923 1.384 . S
H1926 C1932 0.930 . S
H1927 C1936 0.930 . S
H1928 C1941 0.929 . S
H1929 C1939 0.929 . S
H1930 C1934 0.929 . S
H1931 C1940 0.929 . S
C1932 H1926 0.930 . S
C1932 C1933 1.367 . S
C1932 C1940 1.378 . S
C1933 C1932 1.367 . S
C1933 C1941 1.433 1_556 S
C1934 H1930 0.929 . S
C1934 C1936 1.378 . S
C1934 C1938 1.350 1_554 S
C1935 C1938 1.463 . S
C1935 C1940 1.350 . S
C1935 N1943 1.427 1_556 S
C1936 H1927 0.930 . S
C1936 C1934 1.378 . S
C1936 C1937 1.367 1_554 S
C1937 C1936 1.367 1_556 S
C1937 C1939 1.433 . S
C1938 C1934 1.350 1_556 S
C1938 C1935 1.463 . S
C1938 N1942 1.427 . S
C1939 H1929 0.929 . S
C1939 C1937 1.433 . S
C1939 N1942 1.384 . S
C1940 H1931 0.929 . S
C1940 C1932 1.378 . S
C1940 C1935 1.350 . S
C1941 H1928 0.929 . S
C1941 C1933 1.433 1_554 S
C1941 N1943 1.384 . S
N1942 C1938 1.427 . S
N1942 C1939 1.384 . S
N1943 C1935 1.427 1_554 S
N1943 C1941 1.384 . S
H1944 C1950 0.930 . S
H1945 C1954 0.930 . S
H1946 C1959 0.929 . S
H1947 C1957 0.929 . S
H1948 C1952 0.929 . S
H1949 C1958 0.929 . S
C1950 H1944 0.930 . S
C1950 C1951 1.265 1_554 S
C1950 C1958 1.378 . S
C1951 C1950 1.265 1_556 S
C1951 C1959 1.547 . S
C1952 H1948 0.929 . S
C1952 C1954 1.378 . S
C1952 C1956 1.350 . S
C1953 C1956 1.463 . S
C1953 C1958 1.350 1_556 S
C1953 N1961 1.427 . S
C1954 H1945 0.930 . S
C1954 C1952 1.378 . S
C1954 C1955 1.367 . S
C1955 C1954 1.367 . S
C1955 C1957 1.433 1_556 S
C1956 C1952 1.350 . S
C1956 C1953 1.463 . S
C1956 N1960 1.427 1_556 S
C1957 H1947 0.929 . S
C1957 C1955 1.433 1_554 S
C1957 N1960 1.384 . S
C1958 H1949 0.929 . S
C1958 C1950 1.378 . S
C1958 C1953 1.350 1_554 S
C1959 H1946 0.929 . S
C1959 C1951 1.547 . S
C1959 N1961 1.384 . S
N1960 C1956 1.427 1_554 S
N1960 C1957 1.384 . S
N1961 C1953 1.427 . S
N1961 C1959 1.384 . S
H1962 C1968 0.930 . S
H1963 C1972 0.930 . S
H1964 C1977 0.929 . S
H1965 C1975 0.929 . S
H1966 C1970 0.929 . S
H1967 C1976 0.929 . S
C1968 H1962 0.930 . S
C1968 C1969 1.367 . S
C1968 C1976 1.378 . S
C1969 C1968 1.367 . S
C1969 C1977 1.433 1_556 S
C1970 H1966 0.929 . S
C1970 C1972 1.378 . S
C1970 C1974 1.350 1_554 S
C1971 C1974 1.463 . S
C1971 C1976 1.350 . S
C1971 N1979 1.427 1_556 S
C1972 H1963 0.930 . S
C1972 C1970 1.378 . S
C1972 C1973 1.367 1_554 S
C1973 C1972 1.367 1_556 S
C1973 C1975 1.433 . S
C1974 C1970 1.350 1_556 S
C1974 C1971 1.463 . S
C1974 N1978 1.427 . S
C1975 H1965 0.929 . S
C1975 C1973 1.433 . S
C1975 N1978 1.384 . S
C1976 H1967 0.929 . S
C1976 C1968 1.378 . S
C1976 C1971 1.350 . S
C1977 H1964 0.929 . S
C1977 C1969 1.433 1_554 S
C1977 N1979 1.384 . S
N1978 C1974 1.427 . S
N1978 C1975 1.384 . S
N1979 C1971 1.427 1_554 S
N1979 C1977 1.384 . S
H1980 C1986 0.930 . S
H1981 C1990 0.930 . S
H1982 C1995 0.929 . S
H1983 C1993 0.929 . S
H1984 C1988 0.929 . S
H1985 C1994 0.929 . S
C1986 H1980 0.930 . S
C1986 C1987 1.367 . S
C1986 C1994 1.378 . S
C1987 C1986 1.367 . S
C1987 C1995 1.433 . S
C1988 H1984 0.929 . S
C1988 C1990 1.378 . S
C1988 C1992 1.350 . S
C1989 C1992 1.463 . S
C1989 C1994 1.350 . S
C1989 N1997 1.427 . S
C1990 H1981 0.930 . S
C1990 C1988 1.378 . S
C1990 C1991 1.367 . S
C1991 C1990 1.367 . S
C1991 C1993 1.433 . S
C1992 C1988 1.350 . S
C1992 C1989 1.463 . S
C1992 N1996 1.427 . S
C1993 H1983 0.929 . S
C1993 C1991 1.433 . S
C1993 N1996 1.384 . S
C1994 H1985 0.929 . S
C1994 C1986 1.378 . S
C1994 C1989 1.350 . S
C1995 H1982 0.929 . S
C1995 C1987 1.433 . S
C1995 N1997 1.384 . S
N1996 C1992 1.427 . S
N1996 C1993 1.384 . S
N1997 C1989 1.427 . S
N1997 C1995 1.384 . S
H1998 C2004 0.930 . S
H1999 C2008 0.930 . S
H2000 C2013 0.929 . S
H2001 C2011 0.929 . S
H2002 C2006 0.929 . S
H2003 C2012 0.929 . S
C2004 H1998 0.930 . S
C2004 C2005 1.367 . S
C2004 C2012 1.378 . S
C2005 C2004 1.367 . S
C2005 C2013 1.433 . S
C2006 H2002 0.929 . S
C2006 C2008 1.378 . S
C2006 C2010 1.350 . S
C2007 C2010 1.463 . S
C2007 C2012 1.350 . S
C2007 N2015 1.427 . S
C2008 H1999 0.930 . S
C2008 C2006 1.378 . S
C2008 C2009 1.367 . S
C2009 C2008 1.367 . S
C2009 C2011 1.433 . S
C2010 C2006 1.350 . S
C2010 C2007 1.463 . S
C2010 N2014 1.427 . S
C2011 H2001 0.929 . S
C2011 C2009 1.433 . S
C2011 N2014 1.384 . S
C2012 H2003 0.929 . S
C2012 C2004 1.378 . S
C2012 C2007 1.350 . S
C2013 H2000 0.929 . S
C2013 C2005 1.433 . S
C2013 N2015 1.384 . S
N2014 C2010 1.427 . S
N2014 C2011 1.384 . S
N2015 C2007 1.427 . S
N2015 C2013 1.384 . S
H2016 C2022 0.930 . S
H2017 C2026 0.930 . S
H2018 C2031 0.929 . S
H2019 C2029 0.929 . S
H2020 C2024 0.929 . S
H2021 C2030 0.929 . S
C2022 H2016 0.930 . S
C2022 C2023 1.367 . S
C2022 C2030 1.378 . S
C2023 C2022 1.367 . S
C2023 C2031 1.433 . S
C2024 H2020 0.929 . S
C2024 C2026 1.378 . S
C2024 C2028 1.350 . S
C2025 C2028 1.463 . S
C2025 C2030 1.350 . S
C2025 N2033 1.427 . S
C2026 H2017 0.930 . S
C2026 C2024 1.378 . S
C2026 C2027 1.367 . S
C2027 C2026 1.367 . S
C2027 C2029 1.433 . S
C2028 C2024 1.350 . S
C2028 C2025 1.463 . S
C2028 N2032 1.427 . S
C2029 H2019 0.929 . S
C2029 C2027 1.433 . S
C2029 N2032 1.384 . S
C2030 H2021 0.929 . S
C2030 C2022 1.378 . S
C2030 C2025 1.350 . S
C2031 H2018 0.929 . S
C2031 C2023 1.433 . S
C2031 N2033 1.384 . S
N2032 C2028 1.427 . S
N2032 C2029 1.384 . S
N2033 C2025 1.427 . S
N2033 C2031 1.384 . S
H2034 C2040 0.930 . S
H2035 C2044 0.930 . S
H2036 C2049 0.929 . S
H2037 C2047 0.929 . S
H2038 C2042 0.929 . S
H2039 C2048 0.929 . S
C2040 H2034 0.930 . S
C2040 C2041 1.367 . S
C2040 C2048 1.378 . S
C2041 C2040 1.367 . S
C2041 C2049 1.433 . S
C2042 H2038 0.929 . S
C2042 C2044 1.378 . S
C2042 C2046 1.350 . S
C2043 C2046 1.463 . S
C2043 C2048 1.350 . S
C2043 N2051 1.427 . S
C2044 H2035 0.930 . S
C2044 C2042 1.378 . S
C2044 C2045 1.367 . S
C2045 C2044 1.367 . S
C2045 C2047 1.433 . S
C2046 C2042 1.350 . S
C2046 C2043 1.463 . S
C2046 N2050 1.427 . S
C2047 H2037 0.929 . S
C2047 C2045 1.433 . S
C2047 N2050 1.384 . S
C2048 H2039 0.929 . S
C2048 C2040 1.378 . S
C2048 C2043 1.350 . S
C2049 H2036 0.929 . S
C2049 C2041 1.433 . S
C2049 N2051 1.384 . S
N2050 C2046 1.427 . S
N2050 C2047 1.384 . S
N2051 C2043 1.427 . S
N2051 C2049 1.384 . S
H2052 C2058 0.930 . S
H2053 C2062 0.930 . S
H2054 C2067 0.929 . S
H2055 C2065 0.929 . S
H2056 C2060 0.929 . S
H2057 C2066 0.929 . S
C2058 H2052 0.930 . S
C2058 C2059 1.367 . S
C2058 C2066 1.378 . S
C2059 C2058 1.367 . S
C2059 C2067 1.433 . S
C2060 H2056 0.929 . S
C2060 C2062 1.378 . S
C2060 C2064 1.350 . S
C2061 C2064 1.463 . S
C2061 C2066 1.350 . S
C2061 N2069 1.427 . S
C2062 H2053 0.930 . S
C2062 C2060 1.378 . S
C2062 C2063 1.367 . S
C2063 C2062 1.367 . S
C2063 C2065 1.433 . S
C2064 C2060 1.350 . S
C2064 C2061 1.463 . S
C2064 N2068 1.427 . S
C2065 H2055 0.929 . S
C2065 C2063 1.433 . S
C2065 N2068 1.384 . S
C2066 H2057 0.929 . S
C2066 C2058 1.378 . S
C2066 C2061 1.350 . S
C2067 H2054 0.929 . S
C2067 C2059 1.433 . S
C2067 N2069 1.384 . S
N2068 C2064 1.427 . S
N2068 C2065 1.384 . S
N2069 C2061 1.427 . S
N2069 C2067 1.384 . S
H2070 C2076 0.930 . S
H2071 C2080 0.930 . S
H2072 C2085 0.929 . S
H2073 C2083 0.929 . S
H2074 C2078 0.929 . S
H2075 C2084 0.929 . S
C2076 H2070 0.930 . S
C2076 C2077 1.367 . S
C2076 C2084 1.378 . S
C2077 C2076 1.367 . S
C2077 C2085 1.433 . S
C2078 H2074 0.929 . S
C2078 C2080 1.378 . S
C2078 C2082 1.350 . S
C2079 C2082 1.463 . S
C2079 C2084 1.350 . S
C2079 N2087 1.427 . S
C2080 H2071 0.930 . S
C2080 C2078 1.378 . S
C2080 C2081 1.367 . S
C2081 C2080 1.367 . S
C2081 C2083 1.433 . S
C2082 C2078 1.350 . S
C2082 C2079 1.463 . S
C2082 N2086 1.427 . S
C2083 H2073 0.929 . S
C2083 C2081 1.433 . S
C2083 N2086 1.384 . S
C2084 H2075 0.929 . S
C2084 C2076 1.378 . S
C2084 C2079 1.350 . S
C2085 H2072 0.929 . S
C2085 C2077 1.433 . S
C2085 N2087 1.384 . S
N2086 C2082 1.427 . S
N2086 C2083 1.384 . S
N2087 C2079 1.427 . S
N2087 C2085 1.384 . S
H2088 C2094 0.930 . S
H2089 C2098 0.930 . S
H2090 C2103 0.929 . S
H2091 C2101 0.929 . S
H2092 C2096 0.929 . S
H2093 C2102 0.929 . S
C2094 H2088 0.930 . S
C2094 C2095 1.367 . S
C2094 C2102 1.378 . S
C2095 C2094 1.367 . S
C2095 C2103 1.433 . S
C2096 H2092 0.929 . S
C2096 C2098 1.378 . S
C2096 C2100 1.350 . S
C2097 C2100 1.463 . S
C2097 C2102 1.350 . S
C2097 N2105 1.427 . S
C2098 H2089 0.930 . S
C2098 C2096 1.378 . S
C2098 C2099 1.367 . S
C2099 C2098 1.367 . S
C2099 C2101 1.433 . S
C2100 C2096 1.350 . S
C2100 C2097 1.463 . S
C2100 N2104 1.427 . S
C2101 H2091 0.929 . S
C2101 C2099 1.433 . S
C2101 N2104 1.384 . S
C2102 H2093 0.929 . S
C2102 C2094 1.378 . S
C2102 C2097 1.350 . S
C2103 H2090 0.929 . S
C2103 C2095 1.433 . S
C2103 N2105 1.384 . S
N2104 C2100 1.427 . S
N2104 C2101 1.384 . S
N2105 C2097 1.427 . S
N2105 C2103 1.384 . S
H2106 C2112 0.930 . S
H2107 C2116 0.930 . S
H2108 C2121 0.929 . S
H2109 C2119 0.929 . S
H2110 C2114 0.929 . S
H2111 C2120 0.929 . S
C2112 H2106 0.930 . S
C2112 C2113 1.367 . S
C2112 C2120 1.378 . S
C2113 C2112 1.367 . S
C2113 C2121 1.433 1_545 S
C2114 H2110 0.929 . S
C2114 C2116 1.378 . S
C2114 C2118 1.350 . S
C2115 C2118 1.463 . S
C2115 C2120 1.350 1_565 S
C2115 N2123 1.427 . S
C2116 H2107 0.930 . S
C2116 C2114 1.378 . S
C2116 C2117 1.367 . S
C2117 C2116 1.367 . S
C2117 C2119 1.433 . S
C2118 C2114 1.350 . S
C2118 C2115 1.463 . S
C2118 N2122 1.427 . S
C2119 H2109 0.929 . S
C2119 C2117 1.433 . S
C2119 N2122 1.384 . S
C2120 H2111 0.929 . S
C2120 C2112 1.378 . S
C2120 C2115 1.350 1_545 S
C2121 H2108 0.929 . S
C2121 C2113 1.433 1_565 S
C2121 N2123 1.384 . S
N2122 C2118 1.427 . S
N2122 C2119 1.384 . S
N2123 C2115 1.427 . S
N2123 C2121 1.384 . S
H2124 C2130 0.930 . S
H2125 C2134 0.930 . S
H2126 C2139 0.929 . S
H2127 C2137 0.929 . S
H2128 C2132 0.929 . S
H2129 C2138 0.929 . S
C2130 H2124 0.930 . S
C2130 C2131 1.367 . S
C2130 C2138 1.378 . S
C2131 C2130 1.367 . S
C2131 C2139 1.433 . S
C2132 H2128 0.929 . S
C2132 C2134 1.378 . S
C2132 C2136 1.350 1_655 S
C2133 C2136 1.463 . S
C2133 C2138 1.350 . S
C2133 N2141 1.427 . S
C2134 H2125 0.930 . S
C2134 C2132 1.378 . S
C2134 C2135 1.367 . S
C2135 C2134 1.367 . S
C2135 C2137 1.433 1_655 S
C2136 C2132 1.350 1_455 S
C2136 C2133 1.463 . S
C2136 N2140 1.427 . S
C2137 H2127 0.929 . S
C2137 C2135 1.433 1_455 S
C2137 N2140 1.384 . S
C2138 H2129 0.929 . S
C2138 C2130 1.378 . S
C2138 C2133 1.350 . S
C2139 H2126 0.929 . S
C2139 C2131 1.433 . S
C2139 N2141 1.384 . S
N2140 C2136 1.427 . S
N2140 C2137 1.384 . S
N2141 C2133 1.427 . S
N2141 C2139 1.384 . S
H2142 C2148 0.930 . S
H2143 C2152 0.930 . S
H2144 C2157 0.929 . S
H2145 C2155 0.929 . S
H2146 C2150 0.929 . S
H2147 C2156 0.929 . S
C2148 H2142 0.930 . S
C2148 C2149 1.367 . S
C2148 C2156 1.378 . S
C2149 C2148 1.367 . S
C2149 C2157 1.433 . S
C2150 H2146 0.929 . S
C2150 C2152 1.378 . S
C2150 C2154 1.350 . S
C2151 C2154 1.463 . S
C2151 C2156 1.350 . S
C2151 N2159 1.427 . S
C2152 H2143 0.930 . S
C2152 C2150 1.378 . S
C2152 C2153 1.367 . S
C2153 C2152 1.367 . S
C2153 C2155 1.433 . S
C2154 C2150 1.350 . S
C2154 C2151 1.463 . S
C2154 N2158 1.427 . S
C2155 H2145 0.929 . S
C2155 C2153 1.433 . S
C2155 N2158 1.384 . S
C2156 H2147 0.929 . S
C2156 C2148 1.378 . S
C2156 C2151 1.350 . S
C2157 H2144 0.929 . S
C2157 C2149 1.433 . S
C2157 N2159 1.384 . S
N2158 C2154 1.427 . S
N2158 C2155 1.384 . S
N2159 C2151 1.427 . S
N2159 C2157 1.384 . S
H2160 C2166 0.930 . S
H2161 C2170 0.930 . S
H2162 C2175 0.929 . S
H2163 C2173 0.929 . S
H2164 C2168 0.929 . S
H2165 C2174 0.944 . S
C2166 H2160 0.930 . S
C2166 C2167 1.367 . S
C2166 C2174 1.375 . S
C2167 C2166 1.367 . S
C2167 C2175 1.433 1_565 S
C2168 H2164 0.929 . S
C2168 C2170 1.378 . S
C2168 C2172 1.350 . S
C2169 C2172 1.463 . S
C2169 C2174 1.338 1_545 S
C2169 N2177 1.427 . S
C2170 H2161 0.930 . S
C2170 C2168 1.378 . S
C2170 C2171 1.367 . S
C2171 C2170 1.367 . S
C2171 C2173 1.433 . S
C2172 C2168 1.350 . S
C2172 C2169 1.463 . S
C2172 N2176 1.427 . S
C2173 H2163 0.929 . S
C2173 C2171 1.433 . S
C2173 N2176 1.384 . S
C2174 H2165 0.944 . S
C2174 C2166 1.375 . S
C2174 C2169 1.338 1_565 S
C2175 H2162 0.929 . S
C2175 C2167 1.433 1_545 S
C2175 N2177 1.384 . S
N2176 C2172 1.427 . S
N2176 C2173 1.384 . S
N2177 C2169 1.427 . S
N2177 C2175 1.384 . S
H2178 C2184 0.930 . S
H2179 C2188 0.930 . S
H2180 C2193 0.929 . S
H2181 C2191 0.929 . S
H2182 C2186 0.929 . S
H2183 C2192 0.929 . S
C2184 H2178 0.930 . S
C2184 C2185 1.367 . S
C2184 C2192 1.378 . S
C2185 C2184 1.367 . S
C2185 C2193 1.433 . S
C2186 H2182 0.929 . S
C2186 C2188 1.378 . S
C2186 C2190 1.350 . S
C2187 C2190 1.463 . S
C2187 C2192 1.350 . S
C2187 N2195 1.427 . S
C2188 H2179 0.930 . S
C2188 C2186 1.378 . S
C2188 C2189 1.367 1_655 S
C2189 C2188 1.367 1_455 S
C2189 C2191 1.433 . S
C2190 C2186 1.350 . S
C2190 C2187 1.463 . S
C2190 N2194 1.427 1_655 S
C2191 H2181 0.929 . S
C2191 C2189 1.433 . S
C2191 N2194 1.384 . S
C2192 H2183 0.929 . S
C2192 C2184 1.378 . S
C2192 C2187 1.350 . S
C2193 H2180 0.929 . S
C2193 C2185 1.433 . S
C2193 N2195 1.384 . S
N2194 C2190 1.427 1_455 S
N2194 C2191 1.384 . S
N2195 C2187 1.427 . S
N2195 C2193 1.384 . S
H2196 C2202 0.930 . S
H2197 C2206 0.930 . S
H2198 C2211 0.929 . S
H2199 C2209 0.929 . S
H2200 C2204 0.929 . S
H2201 C2210 0.929 . S
C2202 H2196 0.930 . S
C2202 C2203 1.367 . S
C2202 C2210 1.378 . S
C2203 C2202 1.367 . S
C2203 C2211 1.433 . S
C2204 H2200 0.929 . S
C2204 C2206 1.378 . S
C2204 C2208 1.350 . S
C2205 C2208 1.463 . S
C2205 C2210 1.350 . S
C2205 N2213 1.427 . S
C2206 H2197 0.930 . S
C2206 C2204 1.378 . S
C2206 C2207 1.367 . S
C2207 C2206 1.367 . S
C2207 C2209 1.433 . S
C2208 C2204 1.350 . S
C2208 C2205 1.463 . S
C2208 N2212 1.427 . S
C2209 H2199 0.929 . S
C2209 C2207 1.433 . S
C2209 N2212 1.384 . S
C2210 H2201 0.929 . S
C2210 C2202 1.378 . S
C2210 C2205 1.350 . S
C2211 H2198 0.929 . S
C2211 C2203 1.433 . S
C2211 N2213 1.384 . S
N2212 C2208 1.427 . S
N2212 C2209 1.384 . S
N2213 C2205 1.427 . S
N2213 C2211 1.384 . S
H2214 C2220 0.930 . S
H2215 C2224 0.930 . S
H2216 C2229 0.929 . S
H2217 C2227 0.929 . S
H2218 C2222 0.929 . S
H2219 C2228 0.929 . S
C2220 H2214 0.930 . S
C2220 C2221 1.367 . S
C2220 C2228 1.378 . S
C2221 C2220 1.367 . S
C2221 C2229 1.433 . S
C2222 H2218 0.929 . S
C2222 C2224 1.378 . S
C2222 C2226 1.350 1_565 S
C2223 C2226 1.463 . S
C2223 C2228 1.350 . S
C2223 N2231 1.427 . S
C2224 H2215 0.930 . S
C2224 C2222 1.378 . S
C2224 C2225 1.367 . S
C2225 C2224 1.367 . S
C2225 C2227 1.433 1_565 S
C2226 C2222 1.350 1_545 S
C2226 C2223 1.463 . S
C2226 N2230 1.427 . S
C2227 H2217 0.929 . S
C2227 C2225 1.433 1_545 S
C2227 N2230 1.384 . S
C2228 H2219 0.929 . S
C2228 C2220 1.378 . S
C2228 C2223 1.350 . S
C2229 H2216 0.929 . S
C2229 C2221 1.433 . S
C2229 N2231 1.384 . S
N2230 C2226 1.427 . S
N2230 C2227 1.384 . S
N2231 C2223 1.427 . S
N2231 C2229 1.384 . S
H2232 C2238 0.930 . S
H2233 C2242 0.930 . S
H2234 C2247 0.929 . S
H2235 C2245 0.929 . S
H2236 C2240 0.929 . S
H2237 C2246 0.929 . S
C2238 H2232 0.930 . S
C2238 C2239 1.367 . S
C2238 C2246 1.378 . S
C2239 C2238 1.367 . S
C2239 C2247 1.433 . S
C2240 H2236 0.929 . S
C2240 C2242 1.378 1_655 S
C2240 C2244 1.350 . S
C2241 C2244 1.463 . S
C2241 C2246 1.350 . S
C2241 N2249 1.427 . S
C2242 H2233 0.930 . S
C2242 C2240 1.378 1_455 S
C2242 C2243 1.367 . S
C2243 C2242 1.367 . S
C2243 C2245 1.433 1_455 S
C2244 C2240 1.350 . S
C2244 C2241 1.463 . S
C2244 N2248 1.427 . S
C2245 H2235 0.929 . S
C2245 C2243 1.433 1_655 S
C2245 N2248 1.384 . S
C2246 H2237 0.929 . S
C2246 C2238 1.378 . S
C2246 C2241 1.350 . S
C2247 H2234 0.929 . S
C2247 C2239 1.433 . S
C2247 N2249 1.384 . S
N2248 C2244 1.427 . S
N2248 C2245 1.384 . S
N2249 C2241 1.427 . S
N2249 C2247 1.384 . S
H2250 C2256 0.930 . S
H2251 C2260 0.930 . S
H2252 C2265 0.929 . S
H2253 C2263 0.929 . S
H2254 C2258 0.929 . S
H2255 C2264 0.929 . S
C2256 H2250 0.930 . S
C2256 C2257 1.367 . S
C2256 C2264 1.378 . S
C2257 C2256 1.367 . S
C2257 C2265 1.433 . S
C2258 H2254 0.929 . S
C2258 C2260 1.378 . S
C2258 C2262 1.350 . S
C2259 C2262 1.463 . S
C2259 C2264 1.350 . S
C2259 N2267 1.427 . S
C2260 H2251 0.930 . S
C2260 C2258 1.378 . S
C2260 C2261 1.367 . S
C2261 C2260 1.367 . S
C2261 C2263 1.433 . S
C2262 C2258 1.350 . S
C2262 C2259 1.463 . S
C2262 N2266 1.427 . S
C2263 H2253 0.929 . S
C2263 C2261 1.433 . S
C2263 N2266 1.384 . S
C2264 H2255 0.929 . S
C2264 C2256 1.378 . S
C2264 C2259 1.350 . S
C2265 H2252 0.929 . S
C2265 C2257 1.433 . S
C2265 N2267 1.384 . S
N2266 C2262 1.427 . S
N2266 C2263 1.384 . S
N2267 C2259 1.427 . S
N2267 C2265 1.384 . S
H2268 C2274 0.930 . S
H2269 C2278 0.930 . S
H2270 C2283 0.929 . S
H2271 C2281 0.929 . S
H2272 C2276 0.929 . S
H2273 C2282 0.929 . S
C2274 H2268 0.930 . S
C2274 C2275 1.367 . S
C2274 C2282 1.378 . S
C2275 C2274 1.367 . S
C2275 C2283 1.433 1_545 S
C2276 H2272 0.929 . S
C2276 C2278 1.378 . S
C2276 C2280 1.350 . S
C2277 C2280 1.463 . S
C2277 C2282 1.350 1_565 S
C2277 N2285 1.427 . S
C2278 H2269 0.930 . S
C2278 C2276 1.378 . S
C2278 C2279 1.367 . S
C2279 C2278 1.367 . S
C2279 C2281 1.433 . S
C2280 C2276 1.350 . S
C2280 C2277 1.463 . S
C2280 N2284 1.427 . S
C2281 H2271 0.929 . S
C2281 C2279 1.433 . S
C2281 N2284 1.384 . S
C2282 H2273 0.929 . S
C2282 C2274 1.378 . S
C2282 C2277 1.350 1_545 S
C2283 H2270 0.929 . S
C2283 C2275 1.433 1_565 S
C2283 N2285 1.384 . S
N2284 C2280 1.427 . S
N2284 C2281 1.384 . S
N2285 C2277 1.427 . S
N2285 C2283 1.384 . S
H2286 C2292 0.930 . S
H2287 C2296 0.930 . S
H2288 C2301 0.937 . S
H2289 C2299 0.929 . S
H2290 C2294 0.929 . S
H2291 C2300 0.929 . S
C2292 H2286 0.930 . S
C2292 C2293 1.367 . S
C2292 C2300 1.378 1_655 S
C2293 C2292 1.367 . S
C2293 C2301 1.442 . S
C2294 H2290 0.929 . S
C2294 C2296 1.378 . S
C2294 C2298 1.350 . S
C2295 C2298 1.463 . S
C2295 C2300 1.350 . S
C2295 N2303 1.427 . S
C2296 H2287 0.930 . S
C2296 C2294 1.378 . S
C2296 C2297 1.367 . S
C2297 C2296 1.367 . S
C2297 C2299 1.433 . S
C2298 C2294 1.350 . S
C2298 C2295 1.463 . S
C2298 N2302 1.427 . S
C2299 H2289 0.929 . S
C2299 C2297 1.433 . S
C2299 N2302 1.384 . S
C2300 H2291 0.929 . S
C2300 C2292 1.378 1_455 S
C2300 C2295 1.350 . S
C2301 H2288 0.937 . S
C2301 C2293 1.442 . S
C2301 N2303 1.367 1_655 S
N2302 C2298 1.427 . S
N2302 C2299 1.384 . S
N2303 C2295 1.427 . S
N2303 C2301 1.367 1_455 S
H2304 C2310 0.930 . S
H2305 C2314 0.930 . S
H2306 C2319 0.929 . S
H2307 C2317 0.929 . S
H2308 C2312 0.929 . S
H2309 C2318 0.929 . S
C2310 H2304 0.930 . S
C2310 C2311 1.367 . S
C2310 C2318 1.378 . S
C2311 C2310 1.367 . S
C2311 C2319 1.433 . S
C2312 H2308 0.929 . S
C2312 C2314 1.378 . S
C2312 C2316 1.350 . S
C2313 C2316 1.463 . S
C2313 C2318 1.350 1_455 S
C2313 N2321 1.427 1_455 S
C2314 H2305 0.930 . S
C2314 C2312 1.378 . S
C2314 C2315 1.367 . S
C2315 C2314 1.367 . S
C2315 C2317 1.433 . S
C2316 C2312 1.350 . S
C2316 C2313 1.463 . S
C2316 N2320 1.427 . S
C2317 H2307 0.929 . S
C2317 C2315 1.433 . S
C2317 N2320 1.384 . S
C2318 H2309 0.929 . S
C2318 C2310 1.378 . S
C2318 C2313 1.350 1_655 S
C2319 H2306 0.929 . S
C2319 C2311 1.433 . S
C2319 N2321 1.384 . S
N2320 C2316 1.427 . S
N2320 C2317 1.384 . S
N2321 C2313 1.427 1_655 S
N2321 C2319 1.384 . S
H2322 C2328 0.930 . S
H2323 C2332 0.930 . S
H2324 C2337 0.929 . S
H2325 C2335 0.929 . S
H2326 C2330 0.929 . S
H2327 C2336 0.929 . S
C2328 H2322 0.930 . S
C2328 C2329 1.367 . S
C2328 C2336 1.378 . S
C2329 C2328 1.367 . S
C2329 C2337 1.433 . S
C2330 H2326 0.929 . S
C2330 C2332 1.378 . S
C2330 C2334 1.350 . S
C2331 C2334 1.463 . S
C2331 C2336 1.350 . S
C2331 N2339 1.427 . S
C2332 H2323 0.930 . S
C2332 C2330 1.378 . S
C2332 C2333 1.367 . S
C2333 C2332 1.367 . S
C2333 C2335 1.433 . S
C2334 C2330 1.350 . S
C2334 C2331 1.463 . S
C2334 N2338 1.427 . S
C2335 H2325 0.929 . S
C2335 C2333 1.433 . S
C2335 N2338 1.384 . S
C2336 H2327 0.929 . S
C2336 C2328 1.378 . S
C2336 C2331 1.350 . S
C2337 H2324 0.929 . S
C2337 C2329 1.433 . S
C2337 N2339 1.384 . S
N2338 C2334 1.427 . S
N2338 C2335 1.384 . S
N2339 C2331 1.427 . S
N2339 C2337 1.384 . S
H2340 C2346 0.930 . S
H2341 C2350 0.930 . S
H2342 C2355 0.929 . S
H2343 C2353 0.929 . S
H2344 C2348 0.929 . S
H2345 C2354 0.929 . S
C2346 H2340 0.930 . S
C2346 C2347 1.367 . S
C2346 C2354 1.378 . S
C2347 C2346 1.367 . S
C2347 C2355 1.433 . S
C2348 H2344 0.929 . S
C2348 C2350 1.378 . S
C2348 C2352 1.350 1_545 S
C2349 C2352 1.463 . S
C2349 C2354 1.350 . S
C2349 N2357 1.427 . S
C2350 H2341 0.930 . S
C2350 C2348 1.378 . S
C2350 C2351 1.367 . S
C2351 C2350 1.367 . S
C2351 C2353 1.433 . S
C2352 C2348 1.350 1_565 S
C2352 C2349 1.463 . S
C2352 N2356 1.427 1_565 S
C2353 H2343 0.929 . S
C2353 C2351 1.433 . S
C2353 N2356 1.384 . S
C2354 H2345 0.929 . S
C2354 C2346 1.378 . S
C2354 C2349 1.350 . S
C2355 H2342 0.929 . S
C2355 C2347 1.433 . S
C2355 N2357 1.384 . S
N2356 C2352 1.427 1_545 S
N2356 C2353 1.384 . S
N2357 C2349 1.427 . S
N2357 C2355 1.384 . S
H2358 C2364 0.930 . S
H2359 C2368 0.930 . S
H2360 C2373 0.929 . S
H2361 C2371 0.929 . S
H2362 C2366 0.929 . S
H2363 C2372 0.929 . S
C2364 H2358 0.930 . S
C2364 C2365 1.367 . S
C2364 C2372 1.378 . S
C2365 C2364 1.367 . S
C2365 C2373 1.433 . S
C2366 H2362 0.929 . S
C2366 C2368 1.378 1_455 S
C2366 C2370 1.350 . S
C2367 C2370 1.463 . S
C2367 C2372 1.350 . S
C2367 N2375 1.427 . S
C2368 H2359 0.930 . S
C2368 C2366 1.378 1_655 S
C2368 C2369 1.367 . S
C2369 C2368 1.367 . S
C2369 C2371 1.433 1_655 S
C2370 C2366 1.350 . S
C2370 C2367 1.463 . S
C2370 N2374 1.427 . S
C2371 H2361 0.929 . S
C2371 C2369 1.433 1_455 S
C2371 N2374 1.384 . S
C2372 H2363 0.929 . S
C2372 C2364 1.378 . S
C2372 C2367 1.350 . S
C2373 H2360 0.929 . S
C2373 C2365 1.433 . S
C2373 N2375 1.384 . S
N2374 C2370 1.427 . S
N2374 C2371 1.384 . S
N2375 C2367 1.427 . S
N2375 C2373 1.384 . S
H2376 C2382 0.930 . S
H2377 C2386 0.930 . S
H2378 C2391 0.929 . S
H2379 C2389 0.929 . S
H2380 C2384 0.929 . S
H2381 C2390 0.929 . S
C2382 H2376 0.930 . S
C2382 C2383 1.367 . S
C2382 C2390 1.378 . S
C2383 C2382 1.367 . S
C2383 C2391 1.433 . S
C2384 H2380 0.929 . S
C2384 C2386 1.378 . S
C2384 C2388 1.350 . S
C2385 C2388 1.463 . S
C2385 C2390 1.350 . S
C2385 N2393 1.427 . S
C2386 H2377 0.930 . S
C2386 C2384 1.378 . S
C2386 C2387 1.367 . S
C2387 C2386 1.367 . S
C2387 C2389 1.433 . S
C2388 C2384 1.350 . S
C2388 C2385 1.463 . S
C2388 N2392 1.427 . S
C2389 H2379 0.929 . S
C2389 C2387 1.433 . S
C2389 N2392 1.384 . S
C2390 H2381 0.929 . S
C2390 C2382 1.378 . S
C2390 C2385 1.350 . S
C2391 H2378 0.929 . S
C2391 C2383 1.433 . S
C2391 N2393 1.384 . S
N2392 C2388 1.427 . S
N2392 C2389 1.384 . S
N2393 C2385 1.427 . S
N2393 C2391 1.384 . S
H2394 C2400 0.930 . S
H2395 C2404 0.920 1_545 S
H2396 C2409 0.929 . S
H2397 C2407 0.929 . S
H2398 C2402 0.929 . S
H2399 C2408 0.929 . S
C2400 H2394 0.930 . S
C2400 C2401 1.367 . S
C2400 C2408 1.378 . S
C2401 C2400 1.367 . S
C2401 C2409 1.433 . S
C2402 H2398 0.929 . S
C2402 C2404 1.396 . S
C2402 C2406 1.350 . S
C2403 C2406 1.463 . S
C2403 C2408 1.350 . S
C2403 N2411 1.427 . S
C2404 H2395 0.920 1_565 S
C2404 C2402 1.396 . S
C2404 C2405 1.353 1_565 S
C2405 C2404 1.353 1_545 S
C2405 C2407 1.422 1_545 S
C2406 C2402 1.350 . S
C2406 C2403 1.463 . S
C2406 N2410 1.427 . S
C2407 H2397 0.929 . S
C2407 C2405 1.422 1_565 S
C2407 N2410 1.384 . S
C2408 H2399 0.929 . S
C2408 C2400 1.378 . S
C2408 C2403 1.350 . S
C2409 H2396 0.929 . S
C2409 C2401 1.433 . S
C2409 N2411 1.384 . S
N2410 C2406 1.427 . S
N2410 C2407 1.384 . S
N2411 C2403 1.427 . S
N2411 C2409 1.384 . S
H2412 C2418 0.930 . S
H2413 C2422 0.930 1_545 S
H2414 C2427 0.929 . S
H2415 C2425 0.929 . S
H2416 C2420 0.929 . S
H2417 C2426 0.929 . S
C2418 H2412 0.930 . S
C2418 C2419 1.367 . S
C2418 C2426 1.378 . S
C2419 C2418 1.367 . S
C2419 C2427 1.433 . S
C2420 H2416 0.929 . S
C2420 C2422 1.378 . S
C2420 C2424 1.350 . S
C2421 C2424 1.463 . S
C2421 C2426 1.350 . S
C2421 N2429 1.427 . S
C2422 H2413 0.930 1_565 S
C2422 C2420 1.378 . S
C2422 C2423 1.367 1_565 S
C2423 C2422 1.367 1_545 S
C2423 C2425 1.433 1_545 S
C2424 C2420 1.350 . S
C2424 C2421 1.463 . S
C2424 N2428 1.427 . S
C2425 H2415 0.929 . S
C2425 C2423 1.433 1_565 S
C2425 N2428 1.384 . S
C2426 H2417 0.929 . S
C2426 C2418 1.378 . S
C2426 C2421 1.350 . S
C2427 H2414 0.929 . S
C2427 C2419 1.433 . S
C2427 N2429 1.384 . S
N2428 C2424 1.427 . S
N2428 C2425 1.384 . S
N2429 C2421 1.427 . S
N2429 C2427 1.384 . S
H2430 C2436 0.930 . S
H2431 C2440 0.930 . S
H2432 C2445 0.929 . S
H2433 C2443 0.929 . S
H2434 C2438 0.929 . S
H2435 C2444 0.929 . S
C2436 H2430 0.930 . S
C2436 C2437 1.367 . S
C2436 C2444 1.378 1_655 S
C2437 C2436 1.367 . S
C2437 C2445 1.433 1_655 S
C2438 H2434 0.929 . S
C2438 C2440 1.378 . S
C2438 C2442 1.350 . S
C2439 C2442 1.463 . S
C2439 C2444 1.350 . S
C2439 N2447 1.427 . S
C2440 H2431 0.930 . S
C2440 C2438 1.378 . S
C2440 C2441 1.367 . S
C2441 C2440 1.367 . S
C2441 C2443 1.433 . S
C2442 C2438 1.350 . S
C2442 C2439 1.463 . S
C2442 N2446 1.427 . S
C2443 H2433 0.929 . S
C2443 C2441 1.433 . S
C2443 N2446 1.384 . S
C2444 H2435 0.929 . S
C2444 C2436 1.378 1_455 S
C2444 C2439 1.350 . S
C2445 H2432 0.929 . S
C2445 C2437 1.433 1_455 S
C2445 N2447 1.384 . S
N2446 C2442 1.427 . S
N2446 C2443 1.384 . S
N2447 C2439 1.427 . S
N2447 C2445 1.384 . S
H2448 C2454 0.930 . S
H2449 C2458 0.930 . S
H2450 C2463 0.929 . S
H2451 C2461 0.929 . S
H2452 C2456 0.929 . S
H2453 C2462 0.929 . S
C2454 H2448 0.930 . S
C2454 C2455 1.367 . S
C2454 C2462 1.378 . S
C2455 C2454 1.367 . S
C2455 C2463 1.433 . S
C2456 H2452 0.929 . S
C2456 C2458 1.378 . S
C2456 C2460 1.350 . S
C2457 C2460 1.463 . S
C2457 C2462 1.350 . S
C2457 N2465 1.427 . S
C2458 H2449 0.930 . S
C2458 C2456 1.378 . S
C2458 C2459 1.367 . S
C2459 C2458 1.367 . S
C2459 C2461 1.433 . S
C2460 C2456 1.350 . S
C2460 C2457 1.463 . S
C2460 N2464 1.427 . S
C2461 H2451 0.929 . S
C2461 C2459 1.433 . S
C2461 N2464 1.384 . S
C2462 H2453 0.929 . S
C2462 C2454 1.378 . S
C2462 C2457 1.350 . S
C2463 H2450 0.929 . S
C2463 C2455 1.433 . S
C2463 N2465 1.384 . S
N2464 C2460 1.427 . S
N2464 C2461 1.384 . S
N2465 C2457 1.427 . S
N2465 C2463 1.384 . S
H2466 C2472 0.930 . S
H2467 C2476 0.930 . S
H2468 C2481 0.929 . S
H2469 C2479 0.929 . S
H2470 C2474 0.929 . S
H2471 C2480 0.929 . S
C2472 H2466 0.930 . S
C2472 C2473 1.406 . S
C2472 C2480 1.378 . S
C2473 C2472 1.406 . S
C2473 C2481 1.390 1_554 S
C2474 H2470 0.929 . S
C2474 C2476 1.378 . S
C2474 C2478 1.350 . S
C2475 C2478 1.484 1_565 S
C2475 C2480 1.264 1_556 S
C2475 N2483 1.510 . S
C2476 H2467 0.930 . S
C2476 C2474 1.378 . S
C2476 C2477 1.367 . S
C2477 C2476 1.367 . S
C2477 C2479 1.433 1_556 S
C2478 C2474 1.350 . S
C2478 C2475 1.484 1_545 S
C2478 N2482 1.427 1_556 S
C2479 H2469 0.929 . S
C2479 C2477 1.433 1_554 S
C2479 N2482 1.384 . S
C2480 H2471 0.929 . S
C2480 C2472 1.378 . S
C2480 C2475 1.264 1_554 S
C2481 H2468 0.929 . S
C2481 C2473 1.390 1_556 S
C2481 N2483 1.384 . S
N2482 C2478 1.427 1_554 S
N2482 C2479 1.384 . S
N2483 C2475 1.510 . S
N2483 C2481 1.384 . S
H2484 C2490 0.930 . S
H2485 C2494 0.940 . S
H2486 C2499 0.929 . S
H2487 C2497 0.929 . S
H2488 C2492 0.929 . S
H2489 C2498 0.929 . S
C2490 H2484 0.930 . S
C2490 C2491 1.356 1_556 S
C2490 C2498 1.378 . S
C2491 C2490 1.356 1_554 S
C2491 C2499 1.443 . S
C2492 H2488 0.929 . S
C2492 C2494 1.380 . S
C2492 C2496 1.350 1_554 S
C2493 C2496 1.463 1_455 S
C2493 C2498 1.350 . S
C2493 N2501 1.427 1_556 S
C2494 H2485 0.940 . S
C2494 C2492 1.380 . S
C2494 C2495 1.356 1_554 S
C2495 C2494 1.356 1_556 S
C2495 C2497 1.433 . S
C2496 C2492 1.350 1_556 S
C2496 C2493 1.463 1_655 S
C2496 N2500 1.427 . S
C2497 H2487 0.929 . S
C2497 C2495 1.433 . S
C2497 N2500 1.384 . S
C2498 H2489 0.929 . S
C2498 C2490 1.378 . S
C2498 C2493 1.350 . S
C2499 H2486 0.929 . S
C2499 C2491 1.443 . S
C2499 N2501 1.384 . S
N2500 C2496 1.427 . S
N2500 C2497 1.384 . S
N2501 C2493 1.427 1_554 S
N2501 C2499 1.384 . S
H2502 C2508 0.930 . S
H2503 C2512 0.930 . S
H2504 C2517 0.929 . S
H2505 C2515 0.929 . S
H2506 C2510 0.929 . S
H2507 C2516 0.929 . S
C2508 H2502 0.930 . S
C2508 C2509 1.367 1_554 S
C2508 C2516 1.378 . S
C2509 C2508 1.367 1_556 S
C2509 C2517 1.433 . S
C2510 H2506 0.929 . S
C2510 C2512 1.378 . S
C2510 C2514 1.350 . S
C2511 C2514 1.463 . S
C2511 C2516 1.350 1_556 S
C2511 N2519 1.427 . S
C2512 H2503 0.930 . S
C2512 C2510 1.378 . S
C2512 C2513 1.355 . S
C2513 C2512 1.355 . S
C2513 C2515 1.444 1_556 S
C2514 C2510 1.350 . S
C2514 C2511 1.463 . S
C2514 N2518 1.427 1_556 S
C2515 H2505 0.929 . S
C2515 C2513 1.444 1_554 S
C2515 N2518 1.384 . S
C2516 H2507 0.929 . S
C2516 C2508 1.378 . S
C2516 C2511 1.350 1_554 S
C2517 H2504 0.929 . S
C2517 C2509 1.433 . S
C2517 N2519 1.384 . S
N2518 C2514 1.427 1_554 S
N2518 C2515 1.384 . S
N2519 C2511 1.427 . S
N2519 C2517 1.384 . S
H2520 C2526 0.930 . S
H2521 C2530 0.930 . S
H2522 C2535 0.929 . S
H2523 C2533 0.929 . S
H2524 C2528 0.929 . S
H2525 C2534 0.929 . S
C2526 H2520 0.930 . S
C2526 C2527 1.367 . S
C2526 C2534 1.378 . S
C2527 C2526 1.367 . S
C2527 C2535 1.433 . S
C2528 H2524 0.929 . S
C2528 C2530 1.378 1_545 S
C2528 C2532 1.350 . S
C2529 C2532 1.463 . S
C2529 C2534 1.350 . S
C2529 N2537 1.427 . S
C2530 H2521 0.930 . S
C2530 C2528 1.378 1_565 S
C2530 C2531 1.367 . S
C2531 C2530 1.367 . S
C2531 C2533 1.433 1_565 S
C2532 C2528 1.350 . S
C2532 C2529 1.463 . S
C2532 N2536 1.427 . S
C2533 H2523 0.929 . S
C2533 C2531 1.433 1_545 S
C2533 N2536 1.384 . S
C2534 H2525 0.929 . S
C2534 C2526 1.378 . S
C2534 C2529 1.350 . S
C2535 H2522 0.929 . S
C2535 C2527 1.433 . S
C2535 N2537 1.384 . S
N2536 C2532 1.427 . S
N2536 C2533 1.384 . S
N2537 C2529 1.427 . S
N2537 C2535 1.384 . S
H2538 C2544 0.930 . S
H2539 C2548 0.930 . S
H2540 C2553 0.929 . S
H2541 C2551 0.929 . S
H2542 C2546 0.929 . S
H2543 C2552 0.929 . S
C2544 H2538 0.930 . S
C2544 C2545 1.367 . S
C2544 C2552 1.378 . S
C2545 C2544 1.367 . S
C2545 C2553 1.433 . S
C2546 H2542 0.929 . S
C2546 C2548 1.378 . S
C2546 C2550 1.350 . S
C2547 C2550 1.463 . S
C2547 C2552 1.350 . S
C2547 N2555 1.427 . S
C2548 H2539 0.930 . S
C2548 C2546 1.378 . S
C2548 C2549 1.367 1_655 S
C2549 C2548 1.367 1_455 S
C2549 C2551 1.433 . S
C2550 C2546 1.350 . S
C2550 C2547 1.463 . S
C2550 N2554 1.427 . S
C2551 H2541 0.929 . S
C2551 C2549 1.433 . S
C2551 N2554 1.384 1_455 S
C2552 H2543 0.929 . S
C2552 C2544 1.378 . S
C2552 C2547 1.350 . S
C2553 H2540 0.929 . S
C2553 C2545 1.433 . S
C2553 N2555 1.384 . S
N2554 C2550 1.427 . S
N2554 C2551 1.384 1_655 S
N2555 C2547 1.427 . S
N2555 C2553 1.384 . S
H2556 C2562 0.930 . S
H2557 C2566 0.930 . S
H2558 C2571 0.929 . S
H2559 C2569 0.929 . S
H2560 C2564 0.929 . S
H2561 C2570 0.929 . S
C2562 H2556 0.930 . S
C2562 C2563 1.367 . S
C2562 C2570 1.378 . S
C2563 C2562 1.367 . S
C2563 C2571 1.433 . S
C2564 H2560 0.929 . S
C2564 C2566 1.378 . S
C2564 C2568 1.350 . S
C2565 C2568 1.463 . S
C2565 C2570 1.350 . S
C2565 N2573 1.427 . S
C2566 H2557 0.930 . S
C2566 C2564 1.378 . S
C2566 C2567 1.367 . S
C2567 C2566 1.367 . S
C2567 C2569 1.433 . S
C2568 C2564 1.350 . S
C2568 C2565 1.463 . S
C2568 N2572 1.427 . S
C2569 H2559 0.929 . S
C2569 C2567 1.433 . S
C2569 N2572 1.384 . S
C2570 H2561 0.929 . S
C2570 C2562 1.378 . S
C2570 C2565 1.350 . S
C2571 H2558 0.929 . S
C2571 C2563 1.433 . S
C2571 N2573 1.384 . S
N2572 C2568 1.427 . S
N2572 C2569 1.384 . S
N2573 C2565 1.427 . S
N2573 C2571 1.384 . S
H2574 C2580 0.930 . S
H2575 C2584 0.930 . S
H2576 C2589 0.929 . S
H2577 C2587 0.929 . S
H2578 C2582 0.929 . S
H2579 C2588 0.929 . S
C2580 H2574 0.930 . S
C2580 C2581 1.367 . S
C2580 C2588 1.378 . S
C2581 C2580 1.367 . S
C2581 C2589 1.433 1_554 S
C2582 H2578 0.929 . S
C2582 C2584 1.378 . S
C2582 C2586 1.350 1_556 S
C2583 C2586 1.463 1_565 S
C2583 C2588 1.350 . S
C2583 N2591 1.427 1_554 S
C2584 H2575 0.930 . S
C2584 C2582 1.378 . S
C2584 C2585 1.385 . S
C2585 C2584 1.385 . S
C2585 C2587 1.413 1_556 S
C2586 C2582 1.350 1_554 S
C2586 C2583 1.463 1_545 S
C2586 N2590 1.427 . S
C2587 H2577 0.929 . S
C2587 C2585 1.413 1_554 S
C2587 N2590 1.384 . S
C2588 H2579 0.929 . S
C2588 C2580 1.378 . S
C2588 C2583 1.350 . S
C2589 H2576 0.929 . S
C2589 C2581 1.433 1_556 S
C2589 N2591 1.384 . S
N2590 C2586 1.427 . S
N2590 C2587 1.384 . S
N2591 C2583 1.427 1_556 S
N2591 C2589 1.384 . S
H2592 C2598 0.930 . S
H2593 C2602 0.930 . S
H2594 C2607 0.929 . S
H2595 C2605 0.929 . S
H2596 C2600 0.929 . S
H2597 C2606 0.929 . S
C2598 H2592 0.930 . S
C2598 C2599 1.396 . S
C2598 C2606 1.378 . S
C2599 C2598 1.396 . S
C2599 C2607 1.401 1_556 S
C2600 H2596 0.929 . S
C2600 C2602 1.378 . S
C2600 C2604 1.350 . S
C2601 C2604 1.484 1_655 S
C2601 C2606 1.278 1_554 S
C2601 N2609 1.498 . S
C2602 H2593 0.930 . S
C2602 C2600 1.378 . S
C2602 C2603 1.367 . S
C2603 C2602 1.367 . S
C2603 C2605 1.433 1_554 S
C2604 C2600 1.350 . S
C2604 C2601 1.484 1_455 S
C2604 N2608 1.427 1_554 S
C2605 H2595 0.929 . S
C2605 C2603 1.433 1_556 S
C2605 N2608 1.384 . S
C2606 H2597 0.929 . S
C2606 C2598 1.378 . S
C2606 C2601 1.278 1_556 S
C2607 H2594 0.929 . S
C2607 C2599 1.401 1_554 S
C2607 N2609 1.384 . S
N2608 C2604 1.427 1_556 S
N2608 C2605 1.384 . S
N2609 C2601 1.498 . S
N2609 C2607 1.384 . S
H2610 C2616 0.930 . S
H2611 C2620 0.930 . S
H2612 C2625 0.929 . S
H2613 C2623 0.929 . S
H2614 C2618 0.929 . S
H2615 C2624 0.929 . S
C2616 H2610 0.930 . S
C2616 C2617 1.367 . S
C2616 C2624 1.378 . S
C2617 C2616 1.367 . S
C2617 C2625 1.433 1_554 S
C2618 H2614 0.929 . S
C2618 C2620 1.378 . S
C2618 C2622 1.350 1_556 S
C2619 C2622 1.463 . S
C2619 C2624 1.350 . S
C2619 N2627 1.427 1_554 S
C2620 H2611 0.930 . S
C2620 C2618 1.378 . S
C2620 C2621 1.393 . S
C2621 C2620 1.393 . S
C2621 C2623 1.405 1_556 S
C2622 C2618 1.350 1_554 S
C2622 C2619 1.463 . S
C2622 N2626 1.427 . S
C2623 H2613 0.929 . S
C2623 C2621 1.405 1_554 S
C2623 N2626 1.384 . S
C2624 H2615 0.929 . S
C2624 C2616 1.378 . S
C2624 C2619 1.350 . S
C2625 H2612 0.929 . S
C2625 C2617 1.433 1_556 S
C2625 N2627 1.384 . S
N2626 C2622 1.427 . S
N2626 C2623 1.384 . S
N2627 C2619 1.427 1_556 S
N2627 C2625 1.384 . S
H2628 C2634 0.930 . S
H2629 C2638 0.930 . S
H2630 C2643 0.929 . S
H2631 C2641 0.929 . S
H2632 C2636 0.929 . S
H2633 C2642 0.929 . S
C2634 H2628 0.930 . S
C2634 C2635 1.367 . S
C2634 C2642 1.378 . S
C2635 C2634 1.367 . S
C2635 C2643 1.433 . S
C2636 H2632 0.929 . S
C2636 C2638 1.378 . S
C2636 C2640 1.350 . S
C2637 C2640 1.463 . S
C2637 C2642 1.350 1_655 S
C2637 N2645 1.427 1_655 S
C2638 H2629 0.930 . S
C2638 C2636 1.378 . S
C2638 C2639 1.367 . S
C2639 C2638 1.367 . S
C2639 C2641 1.433 . S
C2640 C2636 1.350 . S
C2640 C2637 1.463 . S
C2640 N2644 1.427 . S
C2641 H2631 0.929 . S
C2641 C2639 1.433 . S
C2641 N2644 1.384 . S
C2642 H2633 0.929 . S
C2642 C2634 1.378 . S
C2642 C2637 1.350 1_455 S
C2643 H2630 0.929 . S
C2643 C2635 1.433 . S
C2643 N2645 1.384 . S
N2644 C2640 1.427 . S
N2644 C2641 1.384 . S
N2645 C2637 1.427 1_455 S
N2645 C2643 1.384 . S
H2646 C2652 0.930 . S
H2647 C2656 0.930 . S
H2648 C2661 0.929 . S
H2649 C2659 0.929 . S
H2650 C2654 0.929 . S
H2651 C2660 0.929 . S
C2652 H2646 0.930 . S
C2652 C2653 1.367 . S
C2652 C2660 1.378 . S
C2653 C2652 1.367 . S
C2653 C2661 1.433 . S
C2654 H2650 0.929 . S
C2654 C2656 1.378 . S
C2654 C2658 1.350 . S
C2655 C2658 1.463 . S
C2655 C2660 1.350 . S
C2655 N2663 1.427 . S
C2656 H2647 0.930 . S
C2656 C2654 1.378 . S
C2656 C2657 1.367 . S
C2657 C2656 1.367 . S
C2657 C2659 1.433 . S
C2658 C2654 1.350 . S
C2658 C2655 1.463 . S
C2658 N2662 1.427 . S
C2659 H2649 0.929 . S
C2659 C2657 1.433 . S
C2659 N2662 1.384 . S
C2660 H2651 0.929 . S
C2660 C2652 1.378 . S
C2660 C2655 1.350 . S
C2661 H2648 0.929 . S
C2661 C2653 1.433 . S
C2661 N2663 1.384 . S
N2662 C2658 1.427 . S
N2662 C2659 1.384 . S
N2663 C2655 1.427 . S
N2663 C2661 1.384 . S
H2664 C2670 0.930 . S
H2665 C2674 0.930 . S
H2666 C2679 0.929 . S
H2667 C2677 0.929 . S
H2668 C2672 0.929 . S
H2669 C2678 0.929 1_545 S
C2670 H2664 0.930 . S
C2670 C2671 1.367 . S
C2670 C2678 1.378 . S
C2671 C2670 1.367 . S
C2671 C2679 1.433 . S
C2672 H2668 0.929 . S
C2672 C2674 1.378 . S
C2672 C2676 1.350 . S
C2673 C2676 1.463 . S
C2673 C2678 1.350 1_545 S
C2673 N2681 1.427 1_545 S
C2674 H2665 0.930 . S
C2674 C2672 1.378 . S
C2674 C2675 1.367 . S
C2675 C2674 1.367 . S
C2675 C2677 1.433 . S
C2676 C2672 1.350 . S
C2676 C2673 1.463 . S
C2676 N2680 1.427 . S
C2677 H2667 0.929 . S
C2677 C2675 1.433 . S
C2677 N2680 1.384 . S
C2678 H2669 0.929 1_565 S
C2678 C2670 1.378 . S
C2678 C2673 1.350 1_565 S
C2679 H2666 0.929 . S
C2679 C2671 1.433 . S
C2679 N2681 1.384 . S
N2680 C2676 1.427 . S
N2680 C2677 1.384 . S
N2681 C2673 1.427 1_565 S
N2681 C2679 1.384 . S
H2682 C2688 0.930 . S
H2683 C2692 0.930 . S
H2684 C2697 0.929 . S
H2685 C2695 0.929 . S
H2686 C2690 0.929 . S
H2687 C2696 0.929 . S
C2688 H2682 0.930 . S
C2688 C2689 1.366 1_655 S
C2688 C2696 1.378 . S
C2689 C2688 1.366 1_455 S
C2689 C2697 1.434 . S
C2690 H2686 0.929 . S
C2690 C2692 1.378 . S
C2690 C2694 1.350 . S
C2691 C2694 1.463 . S
C2691 C2696 1.350 . S
C2691 N2699 1.427 . S
C2692 H2683 0.930 . S
C2692 C2690 1.378 . S
C2692 C2693 1.367 . S
C2693 C2692 1.367 . S
C2693 C2695 1.433 . S
C2694 C2690 1.350 . S
C2694 C2691 1.463 . S
C2694 N2698 1.427 . S
C2695 H2685 0.929 . S
C2695 C2693 1.433 . S
C2695 N2698 1.384 . S
C2696 H2687 0.929 . S
C2696 C2688 1.378 . S
C2696 C2691 1.350 . S
C2697 H2684 0.929 . S
C2697 C2689 1.434 . S
C2697 N2699 1.384 1_455 S
N2698 C2694 1.427 . S
N2698 C2695 1.384 . S
N2699 C2691 1.427 . S
N2699 C2697 1.384 1_655 S
H2700 C2706 0.930 . S
H2701 C2710 0.930 . S
H2702 C2715 0.929 . S
H2703 C2713 0.929 . S
H2704 C2708 0.929 . S
H2705 C2714 0.929 . S
C2706 H2700 0.930 . S
C2706 C2707 1.367 . S
C2706 C2714 1.378 . S
C2707 C2706 1.367 . S
C2707 C2715 1.433 . S
C2708 H2704 0.929 . S
C2708 C2710 1.378 . S
C2708 C2712 1.350 . S
C2709 C2712 1.463 . S
C2709 C2714 1.350 . S
C2709 N2717 1.427 . S
C2710 H2701 0.930 . S
C2710 C2708 1.378 . S
C2710 C2711 1.367 . S
C2711 C2710 1.367 . S
C2711 C2713 1.433 . S
C2712 C2708 1.350 . S
C2712 C2709 1.463 . S
C2712 N2716 1.427 . S
C2713 H2703 0.929 . S
C2713 C2711 1.433 . S
C2713 N2716 1.384 . S
C2714 H2705 0.929 . S
C2714 C2706 1.378 . S
C2714 C2709 1.350 . S
C2715 H2702 0.929 . S
C2715 C2707 1.433 . S
C2715 N2717 1.384 . S
N2716 C2712 1.427 . S
N2716 C2713 1.384 . S
N2717 C2709 1.427 . S
N2717 C2715 1.384 . S
H2718 C2724 0.930 . S
H2719 C2728 0.930 . S
H2720 C2733 0.929 . S
H2721 C2731 0.929 . S
H2722 C2726 0.929 . S
H2723 C2732 0.929 . S
C2724 H2718 0.930 . S
C2724 C2725 1.367 . S
C2724 C2732 1.378 . S
C2725 C2724 1.367 . S
C2725 C2733 1.433 . S
C2726 H2722 0.929 . S
C2726 C2728 1.378 . S
C2726 C2730 1.350 . S
C2727 C2730 1.463 . S
C2727 C2732 1.350 . S
C2727 N2735 1.427 . S
C2728 H2719 0.930 . S
C2728 C2726 1.378 . S
C2728 C2729 1.366 . S
C2729 C2728 1.366 . S
C2729 C2731 1.433 1_545 S
C2730 C2726 1.350 . S
C2730 C2727 1.463 . S
C2730 N2734 1.427 . S
C2731 H2721 0.929 . S
C2731 C2729 1.433 1_565 S
C2731 N2734 1.384 1_565 S
C2732 H2723 0.929 . S
C2732 C2724 1.378 . S
C2732 C2727 1.350 . S
C2733 H2720 0.929 . S
C2733 C2725 1.433 . S
C2733 N2735 1.384 . S
N2734 C2730 1.427 . S
N2734 C2731 1.384 1_545 S
N2735 C2727 1.427 . S
N2735 C2733 1.384 . S
H2736 C2742 0.930 . S
H2737 C2746 0.930 . S
H2738 C2751 0.929 . S
H2739 C2749 0.929 . S
H2740 C2744 0.929 . S
H2741 C2750 0.929 . S
C2742 H2736 0.930 . S
C2742 C2743 1.367 . S
C2742 C2750 1.378 . S
C2743 C2742 1.367 . S
C2743 C2751 1.433 . S
C2744 H2740 0.929 . S
C2744 C2746 1.378 . S
C2744 C2748 1.350 . S
C2745 C2748 1.463 . S
C2745 C2750 1.350 . S
C2745 N2753 1.427 . S
C2746 H2737 0.930 . S
C2746 C2744 1.378 . S
C2746 C2747 1.367 . S
C2747 C2746 1.367 . S
C2747 C2749 1.433 . S
C2748 C2744 1.350 . S
C2748 C2745 1.463 . S
C2748 N2752 1.427 . S
C2749 H2739 0.929 . S
C2749 C2747 1.433 . S
C2749 N2752 1.384 . S
C2750 H2741 0.929 . S
C2750 C2742 1.378 . S
C2750 C2745 1.350 . S
C2751 H2738 0.929 . S
C2751 C2743 1.433 . S
C2751 N2753 1.384 . S
N2752 C2748 1.427 . S
N2752 C2749 1.384 . S
N2753 C2745 1.427 . S
N2753 C2751 1.384 . S
H2754 C2760 0.930 . S
H2755 C2764 0.930 . S
H2756 C2769 0.929 . S
H2757 C2767 0.929 . S
H2758 C2762 0.929 . S
H2759 C2768 0.929 . S
C2760 H2754 0.930 . S
C2760 C2761 1.367 . S
C2760 C2768 1.378 . S
C2761 C2760 1.367 . S
C2761 C2769 1.433 . S
C2762 H2758 0.929 . S
C2762 C2764 1.378 . S
C2762 C2766 1.350 . S
C2763 C2766 1.463 . S
C2763 C2768 1.350 . S
C2763 N2771 1.427 . S
C2764 H2755 0.930 . S
C2764 C2762 1.378 . S
C2764 C2765 1.367 . S
C2765 C2764 1.367 . S
C2765 C2767 1.433 . S
C2766 C2762 1.350 . S
C2766 C2763 1.463 . S
C2766 N2770 1.427 . S
C2767 H2757 0.929 . S
C2767 C2765 1.433 . S
C2767 N2770 1.384 . S
C2768 H2759 0.929 . S
C2768 C2760 1.378 . S
C2768 C2763 1.350 . S
C2769 H2756 0.929 . S
C2769 C2761 1.433 . S
C2769 N2771 1.384 . S
N2770 C2766 1.427 . S
N2770 C2767 1.384 . S
N2771 C2763 1.427 . S
N2771 C2769 1.384 . S
H2772 C2778 0.930 . S
H2773 C2782 0.930 . S
H2774 C2787 0.929 . S
H2775 C2785 0.929 . S
H2776 C2780 0.929 . S
H2777 C2786 0.929 . S
C2778 H2772 0.930 . S
C2778 C2779 1.367 . S
C2778 C2786 1.378 . S
C2779 C2778 1.367 . S
C2779 C2787 1.433 . S
C2780 H2776 0.929 . S
C2780 C2782 1.378 . S
C2780 C2784 1.350 . S
C2781 C2784 1.463 . S
C2781 C2786 1.350 . S
C2781 N2789 1.427 . S
C2782 H2773 0.930 . S
C2782 C2780 1.378 . S
C2782 C2783 1.367 . S
C2783 C2782 1.367 . S
C2783 C2785 1.433 . S
C2784 C2780 1.350 . S
C2784 C2781 1.463 . S
C2784 N2788 1.427 . S
C2785 H2775 0.929 . S
C2785 C2783 1.433 . S
C2785 N2788 1.384 . S
C2786 H2777 0.929 . S
C2786 C2778 1.378 . S
C2786 C2781 1.350 . S
C2787 H2774 0.929 . S
C2787 C2779 1.433 . S
C2787 N2789 1.384 . S
N2788 C2784 1.427 . S
N2788 C2785 1.384 . S
N2789 C2781 1.427 . S
N2789 C2787 1.384 . S
H2790 C2796 0.930 . S
H2791 C2800 0.930 . S
H2792 C2805 0.929 . S
H2793 C2803 0.929 . S
H2794 C2798 0.929 . S
H2795 C2804 0.929 . S
C2796 H2790 0.930 . S
C2796 C2797 1.367 . S
C2796 C2804 1.378 . S
C2797 C2796 1.367 . S
C2797 C2805 1.433 . S
C2798 H2794 0.929 . S
C2798 C2800 1.378 . S
C2798 C2802 1.350 . S
C2799 C2802 1.463 . S
C2799 C2804 1.350 . S
C2799 N2807 1.427 . S
C2800 H2791 0.930 . S
C2800 C2798 1.378 . S
C2800 C2801 1.367 . S
C2801 C2800 1.367 . S
C2801 C2803 1.433 . S
C2802 C2798 1.350 . S
C2802 C2799 1.463 . S
C2802 N2806 1.427 . S
C2803 H2793 0.929 . S
C2803 C2801 1.433 . S
C2803 N2806 1.384 . S
C2804 H2795 0.929 . S
C2804 C2796 1.378 . S
C2804 C2799 1.350 . S
C2805 H2792 0.929 . S
C2805 C2797 1.433 . S
C2805 N2807 1.384 . S
N2806 C2802 1.427 . S
N2806 C2803 1.384 . S
N2807 C2799 1.427 . S
N2807 C2805 1.384 . S
H2808 C2814 0.930 . S
H2809 C2818 0.930 . S
H2810 C2823 0.929 . S
H2811 C2821 0.929 . S
H2812 C2816 0.929 . S
H2813 C2822 0.929 . S
C2814 H2808 0.930 . S
C2814 C2815 1.367 . S
C2814 C2822 1.378 . S
C2815 C2814 1.367 . S
C2815 C2823 1.433 . S
C2816 H2812 0.929 . S
C2816 C2818 1.378 . S
C2816 C2820 1.350 . S
C2817 C2820 1.463 . S
C2817 C2822 1.350 . S
C2817 N2825 1.427 . S
C2818 H2809 0.930 . S
C2818 C2816 1.378 . S
C2818 C2819 1.367 . S
C2819 C2818 1.367 . S
C2819 C2821 1.433 . S
C2820 C2816 1.350 . S
C2820 C2817 1.463 . S
C2820 N2824 1.427 . S
C2821 H2811 0.929 . S
C2821 C2819 1.433 . S
C2821 N2824 1.384 . S
C2822 H2813 0.929 . S
C2822 C2814 1.378 . S
C2822 C2817 1.350 . S
C2823 H2810 0.929 . S
C2823 C2815 1.433 . S
C2823 N2825 1.384 . S
N2824 C2820 1.427 . S
N2824 C2821 1.384 . S
N2825 C2817 1.427 . S
N2825 C2823 1.384 . S
H2826 C2832 0.930 . S
H2827 C2836 0.930 . S
H2828 C2841 0.929 . S
H2829 C2839 0.929 . S
H2830 C2834 0.929 . S
H2831 C2840 0.929 . S
C2832 H2826 0.930 . S
C2832 C2833 1.367 . S
C2832 C2840 1.378 . S
C2833 C2832 1.367 . S
C2833 C2841 1.433 . S
C2834 H2830 0.929 . S
C2834 C2836 1.378 . S
C2834 C2838 1.350 . S
C2835 C2838 1.463 . S
C2835 C2840 1.350 . S
C2835 N2843 1.427 . S
C2836 H2827 0.930 . S
C2836 C2834 1.378 . S
C2836 C2837 1.367 . S
C2837 C2836 1.367 . S
C2837 C2839 1.433 . S
C2838 C2834 1.350 . S
C2838 C2835 1.463 . S
C2838 N2842 1.427 . S
C2839 H2829 0.929 . S
C2839 C2837 1.433 . S
C2839 N2842 1.384 . S
C2840 H2831 0.929 . S
C2840 C2832 1.378 . S
C2840 C2835 1.350 . S
C2841 H2828 0.929 . S
C2841 C2833 1.433 . S
C2841 N2843 1.384 . S
N2842 C2838 1.427 . S
N2842 C2839 1.384 . S
N2843 C2835 1.427 . S
N2843 C2841 1.384 . S
H2844 C2850 0.930 . S
H2845 C2854 0.930 . S
H2846 C2859 0.929 . S
H2847 C2857 0.929 . S
H2848 C2852 0.929 . S
H2849 C2858 0.929 . S
C2850 H2844 0.930 . S
C2850 C2851 1.367 . S
C2850 C2858 1.378 . S
C2851 C2850 1.367 . S
C2851 C2859 1.433 . S
C2852 H2848 0.929 . S
C2852 C2854 1.378 . S
C2852 C2856 1.350 . S
C2853 C2856 1.463 . S
C2853 C2858 1.350 . S
C2853 N2861 1.427 . S
C2854 H2845 0.930 . S
C2854 C2852 1.378 . S
C2854 C2855 1.367 . S
C2855 C2854 1.367 . S
C2855 C2857 1.433 . S
C2856 C2852 1.350 . S
C2856 C2853 1.463 . S
C2856 N2860 1.427 . S
C2857 H2847 0.929 . S
C2857 C2855 1.433 . S
C2857 N2860 1.384 . S
C2858 H2849 0.929 . S
C2858 C2850 1.378 . S
C2858 C2853 1.350 . S
C2859 H2846 0.929 . S
C2859 C2851 1.433 . S
C2859 N2861 1.384 . S
N2860 C2856 1.427 . S
N2860 C2857 1.384 . S
N2861 C2853 1.427 . S
N2861 C2859 1.384 . S
H2862 C2868 0.930 . S
H2863 C2872 0.930 . S
H2864 C2877 0.929 . S
H2865 C2875 0.929 . S
H2866 C2870 0.929 . S
H2867 C2876 0.929 . S
C2868 H2862 0.930 . S
C2868 C2869 1.367 . S
C2868 C2876 1.378 . S
C2869 C2868 1.367 . S
C2869 C2877 1.433 . S
C2870 H2866 0.929 . S
C2870 C2872 1.378 . S
C2870 C2874 1.350 . S
C2871 C2874 1.463 . S
C2871 C2876 1.350 . S
C2871 N2879 1.427 . S
C2872 H2863 0.930 . S
C2872 C2870 1.378 . S
C2872 C2873 1.367 . S
C2873 C2872 1.367 . S
C2873 C2875 1.433 . S
C2874 C2870 1.350 . S
C2874 C2871 1.463 . S
C2874 N2878 1.427 . S
C2875 H2865 0.929 . S
C2875 C2873 1.433 . S
C2875 N2878 1.384 . S
C2876 H2867 0.929 . S
C2876 C2868 1.378 . S
C2876 C2871 1.350 . S
C2877 H2864 0.929 . S
C2877 C2869 1.433 . S
C2877 N2879 1.384 . S
N2878 C2874 1.427 . S
N2878 C2875 1.384 . S
N2879 C2871 1.427 . S
N2879 C2877 1.384 . S
H2880 C2886 0.930 . S
H2881 C2890 0.930 . S
H2882 C2895 0.929 . S
H2883 C2893 0.929 . S
H2884 C2888 0.929 . S
H2885 C2894 0.929 . S
C2886 H2880 0.930 . S
C2886 C2887 1.367 . S
C2886 C2894 1.378 . S
C2887 C2886 1.367 . S
C2887 C2895 1.433 . S
C2888 H2884 0.929 . S
C2888 C2890 1.378 . S
C2888 C2892 1.350 . S
C2889 C2892 1.463 . S
C2889 C2894 1.350 . S
C2889 N2897 1.427 . S
C2890 H2881 0.930 . S
C2890 C2888 1.378 . S
C2890 C2891 1.367 . S
C2891 C2890 1.367 . S
C2891 C2893 1.433 . S
C2892 C2888 1.350 . S
C2892 C2889 1.463 . S
C2892 N2896 1.427 . S
C2893 H2883 0.929 . S
C2893 C2891 1.433 . S
C2893 N2896 1.384 . S
C2894 H2885 0.929 . S
C2894 C2886 1.378 . S
C2894 C2889 1.350 . S
C2895 H2882 0.929 . S
C2895 C2887 1.433 . S
C2895 N2897 1.384 . S
N2896 C2892 1.427 . S
N2896 C2893 1.384 . S
N2897 C2889 1.427 . S
N2897 C2895 1.384 . S
H2898 C2904 0.930 . S
H2899 C2908 0.930 . S
H2900 C2913 0.929 . S
H2901 C2911 0.929 . S
H2902 C2906 0.929 . S
H2903 C2912 0.929 . S
C2904 H2898 0.930 . S
C2904 C2905 1.367 . S
C2904 C2912 1.378 . S
C2905 C2904 1.367 . S
C2905 C2913 1.433 . S
C2906 H2902 0.929 . S
C2906 C2908 1.378 . S
C2906 C2910 1.350 . S
C2907 C2910 1.463 . S
C2907 C2912 1.350 . S
C2907 N2915 1.427 . S
C2908 H2899 0.930 . S
C2908 C2906 1.378 . S
C2908 C2909 1.367 . S
C2909 C2908 1.367 . S
C2909 C2911 1.433 . S
C2910 C2906 1.350 . S
C2910 C2907 1.463 . S
C2910 N2914 1.427 . S
C2911 H2901 0.929 . S
C2911 C2909 1.433 . S
C2911 N2914 1.384 . S
C2912 H2903 0.929 . S
C2912 C2904 1.378 . S
C2912 C2907 1.350 . S
C2913 H2900 0.929 . S
C2913 C2905 1.433 . S
C2913 N2915 1.384 . S
N2914 C2910 1.427 . S
N2914 C2911 1.384 . S
N2915 C2907 1.427 . S
N2915 C2913 1.384 . S
H2916 C2922 0.930 . S
H2917 C2926 0.930 . S
H2918 C2931 0.929 . S
H2919 C2929 0.929 . S
H2920 C2924 0.929 . S
H2921 C2930 0.929 . S
C2922 H2916 0.930 . S
C2922 C2923 1.367 . S
C2922 C2930 1.378 . S
C2923 C2922 1.367 . S
C2923 C2931 1.433 . S
C2924 H2920 0.929 . S
C2924 C2926 1.378 . S
C2924 C2928 1.350 . S
C2925 C2928 1.463 . S
C2925 C2930 1.350 . S
C2925 N2933 1.427 . S
C2926 H2917 0.930 . S
C2926 C2924 1.378 . S
C2926 C2927 1.367 . S
C2927 C2926 1.367 . S
C2927 C2929 1.433 . S
C2928 C2924 1.350 . S
C2928 C2925 1.463 . S
C2928 N2932 1.427 . S
C2929 H2919 0.929 . S
C2929 C2927 1.433 . S
C2929 N2932 1.384 . S
C2930 H2921 0.929 . S
C2930 C2922 1.378 . S
C2930 C2925 1.350 . S
C2931 H2918 0.929 . S
C2931 C2923 1.433 . S
C2931 N2933 1.384 . S
N2932 C2928 1.427 . S
N2932 C2929 1.384 . S
N2933 C2925 1.427 . S
N2933 C2931 1.384 . S
H2934 C2940 0.930 . S
H2935 C2944 0.930 . S
H2936 C2949 0.929 . S
H2937 C2947 0.929 . S
H2938 C2942 0.929 . S
H2939 C2948 0.929 . S
C2940 H2934 0.930 . S
C2940 C2941 1.367 . S
C2940 C2948 1.378 . S
C2941 C2940 1.367 . S
C2941 C2949 1.433 . S
C2942 H2938 0.929 . S
C2942 C2944 1.378 . S
C2942 C2946 1.350 . S
C2943 C2946 1.463 . S
C2943 C2948 1.350 . S
C2943 N2951 1.427 . S
C2944 H2935 0.930 . S
C2944 C2942 1.378 . S
C2944 C2945 1.367 . S
C2945 C2944 1.367 . S
C2945 C2947 1.433 . S
C2946 C2942 1.350 . S
C2946 C2943 1.463 . S
C2946 N2950 1.427 . S
C2947 H2937 0.929 . S
C2947 C2945 1.433 . S
C2947 N2950 1.384 . S
C2948 H2939 0.929 . S
C2948 C2940 1.378 . S
C2948 C2943 1.350 . S
C2949 H2936 0.929 . S
C2949 C2941 1.433 . S
C2949 N2951 1.384 . S
N2950 C2946 1.427 . S
N2950 C2947 1.384 . S
N2951 C2943 1.427 . S
N2951 C2949 1.384 . S
H2952 C2958 0.930 . S
H2953 C2962 0.930 . S
H2954 C2967 0.929 . S
H2955 C2965 0.929 . S
H2956 C2960 0.929 . S
H2957 C2966 0.929 . S
C2958 H2952 0.930 . S
C2958 C2959 1.364 . S
C2958 C2966 1.378 . S
C2959 C2958 1.364 . S
C2959 C2967 1.436 1_655 S
C2960 H2956 0.929 . S
C2960 C2962 1.378 . S
C2960 C2964 1.350 . S
C2961 C2964 1.463 . S
C2961 C2966 1.350 1_455 S
C2961 N2969 1.427 . S
C2962 H2953 0.930 . S
C2962 C2960 1.378 . S
C2962 C2963 1.367 . S
C2963 C2962 1.367 . S
C2963 C2965 1.433 1_455 S
C2964 C2960 1.350 . S
C2964 C2961 1.463 . S
C2964 N2968 1.427 1_455 S
C2965 H2955 0.929 . S
C2965 C2963 1.433 1_655 S
C2965 N2968 1.384 . S
C2966 H2957 0.929 . S
C2966 C2958 1.378 . S
C2966 C2961 1.350 1_655 S
C2967 H2954 0.929 . S
C2967 C2959 1.436 1_455 S
C2967 N2969 1.384 . S
N2968 C2964 1.427 1_655 S
N2968 C2965 1.384 . S
N2969 C2961 1.427 . S
N2969 C2967 1.384 . S
H2970 C2976 0.930 . S
H2971 C2980 0.930 . S
H2972 C2985 0.929 . S
H2973 C2983 0.929 . S
H2974 C2978 0.929 . S
H2975 C2984 0.929 . S
C2976 H2970 0.930 . S
C2976 C2977 1.367 . S
C2976 C2984 1.378 . S
C2977 C2976 1.367 . S
C2977 C2985 1.433 . S
C2978 H2974 0.929 . S
C2978 C2980 1.378 . S
C2978 C2982 1.350 . S
C2979 C2982 1.463 . S
C2979 C2984 1.350 . S
C2979 N2987 1.427 . S
C2980 H2971 0.930 . S
C2980 C2978 1.378 . S
C2980 C2981 1.367 . S
C2981 C2980 1.367 . S
C2981 C2983 1.433 . S
C2982 C2978 1.350 . S
C2982 C2979 1.463 . S
C2982 N2986 1.427 . S
C2983 H2973 0.929 . S
C2983 C2981 1.433 . S
C2983 N2986 1.384 . S
C2984 H2975 0.929 . S
C2984 C2976 1.378 . S
C2984 C2979 1.350 . S
C2985 H2972 0.929 . S
C2985 C2977 1.433 . S
C2985 N2987 1.384 . S
N2986 C2982 1.427 . S
N2986 C2983 1.384 . S
N2987 C2979 1.427 . S
N2987 C2985 1.384 . S
H2988 C2994 0.930 . S
H2989 C2998 0.930 . S
H2990 C3003 0.929 . S
H2991 C3001 0.929 . S
H2992 C2996 0.929 . S
H2993 C3002 0.929 . S
C2994 H2988 0.930 . S
C2994 C2995 1.367 . S
C2994 C3002 1.378 . S
C2995 C2994 1.367 . S
C2995 C3003 1.433 1_565 S
C2996 H2992 0.929 . S
C2996 C2998 1.378 . S
C2996 C3000 1.350 1_545 S
C2997 C3000 1.463 . S
C2997 C3002 1.350 . S
C2997 N3005 1.427 1_565 S
C2998 H2989 0.930 . S
C2998 C2996 1.378 . S
C2998 C2999 1.367 1_545 S
C2999 C2998 1.367 1_565 S
C2999 C3001 1.433 . S
C3000 C2996 1.350 1_565 S
C3000 C2997 1.463 . S
C3000 N3004 1.427 . S
C3001 H2991 0.929 . S
C3001 C2999 1.433 . S
C3001 N3004 1.384 . S
C3002 H2993 0.929 . S
C3002 C2994 1.378 . S
C3002 C2997 1.350 . S
C3003 H2990 0.929 . S
C3003 C2995 1.433 1_545 S
C3003 N3005 1.384 . S
N3004 C3000 1.427 . S
N3004 C3001 1.384 . S
N3005 C2997 1.427 1_545 S
N3005 C3003 1.384 . S
H3006 C3012 0.930 . S
H3007 C3016 0.930 . S
H3008 C3021 0.929 . S
H3009 C3019 0.929 . S
H3010 C3014 0.929 . S
H3011 C3020 0.929 . S
C3012 H3006 0.930 . S
C3012 C3013 1.367 . S
C3012 C3020 1.378 . S
C3013 C3012 1.367 . S
C3013 C3021 1.433 1_545 S
C3014 H3010 0.929 . S
C3014 C3016 1.378 . S
C3014 C3018 1.350 1_565 S
C3015 C3018 1.463 . S
C3015 C3020 1.350 . S
C3015 N3023 1.427 1_545 S
C3016 H3007 0.930 . S
C3016 C3014 1.378 . S
C3016 C3017 1.390 . S
C3017 C3016 1.390 . S
C3017 C3019 1.409 1_565 S
C3018 C3014 1.350 1_545 S
C3018 C3015 1.463 . S
C3018 N3022 1.427 . S
C3019 H3009 0.929 . S
C3019 C3017 1.409 1_545 S
C3019 N3022 1.384 . S
C3020 H3011 0.929 . S
C3020 C3012 1.378 . S
C3020 C3015 1.350 . S
C3021 H3008 0.929 . S
C3021 C3013 1.433 1_565 S
C3021 N3023 1.384 . S
N3022 C3018 1.427 . S
N3022 C3019 1.384 . S
N3023 C3015 1.427 1_565 S
N3023 C3021 1.384 . S
H3024 C3030 0.930 . S
H3025 C3034 0.930 . S
H3026 C3039 0.929 . S
H3027 C3037 0.929 . S
H3028 C3032 0.929 . S
H3029 C3038 0.929 . S
C3030 H3024 0.930 . S
C3030 C3031 1.381 . S
C3030 C3038 1.378 . S
C3031 C3030 1.381 . S
C3031 C3039 1.419 1_655 S
C3032 H3028 0.929 . S
C3032 C3034 1.378 . S
C3032 C3036 1.350 1_455 S
C3033 C3036 1.463 . S
C3033 C3038 1.350 . S
C3033 N3041 1.427 1_655 S
C3034 H3025 0.930 . S
C3034 C3032 1.378 . S
C3034 C3035 1.367 1_455 S
C3035 C3034 1.367 1_655 S
C3035 C3037 1.433 . S
C3036 C3032 1.350 1_655 S
C3036 C3033 1.463 . S
C3036 N3040 1.427 . S
C3037 H3027 0.929 . S
C3037 C3035 1.433 . S
C3037 N3040 1.384 . S
C3038 H3029 0.929 . S
C3038 C3030 1.378 . S
C3038 C3033 1.350 . S
C3039 H3026 0.929 . S
C3039 C3031 1.419 1_455 S
C3039 N3041 1.384 . S
N3040 C3036 1.427 . S
N3040 C3037 1.384 . S
N3041 C3033 1.427 1_455 S
N3041 C3039 1.384 . S
H3042 C3048 0.930 . S
H3043 C3052 0.930 . S
H3044 C3057 0.929 . S
H3045 C3055 0.929 . S
H3046 C3050 0.929 . S
H3047 C3056 0.929 . S
C3048 H3042 0.930 . S
C3048 C3049 1.367 . S
C3048 C3056 1.378 . S
C3049 C3048 1.367 . S
C3049 C3057 1.433 . S
C3050 H3046 0.929 . S
C3050 C3052 1.378 . S
C3050 C3054 1.350 . S
C3051 C3054 1.463 . S
C3051 C3056 1.350 . S
C3051 N3059 1.427 . S
C3052 H3043 0.930 . S
C3052 C3050 1.378 . S
C3052 C3053 1.367 . S
C3053 C3052 1.367 . S
C3053 C3055 1.433 . S
C3054 C3050 1.350 . S
C3054 C3051 1.463 . S
C3054 N3058 1.427 . S
C3055 H3045 0.929 . S
C3055 C3053 1.433 . S
C3055 N3058 1.384 . S
C3056 H3047 0.929 . S
C3056 C3048 1.378 . S
C3056 C3051 1.350 . S
C3057 H3044 0.929 . S
C3057 C3049 1.433 . S
C3057 N3059 1.384 . S
N3058 C3054 1.427 . S
N3058 C3055 1.384 . S
N3059 C3051 1.427 . S
N3059 C3057 1.384 . S
H3060 C3066 0.930 1_455 S
H3061 C3070 0.930 1_655 S
H3062 C3075 0.929 . S
H3063 C3073 0.929 . S
H3064 C3068 0.929 . S
H3065 C3074 0.929 . S
C3066 H3060 0.930 1_655 S
C3066 C3067 1.367 . S
C3066 C3074 1.378 1_655 S
C3067 C3066 1.367 . S
C3067 C3075 1.433 . S
C3068 H3064 0.929 . S
C3068 C3070 1.378 1_655 S
C3068 C3072 1.350 1_655 S
C3069 C3072 1.463 1_655 S
C3069 C3074 1.350 1_655 S
C3069 N3077 1.427 . S
C3070 H3061 0.930 1_455 S
C3070 C3068 1.378 1_455 S
C3070 C3071 1.367 . S
C3071 C3070 1.367 . S
C3071 C3073 1.433 . S
C3072 C3068 1.350 1_455 S
C3072 C3069 1.463 1_455 S
C3072 N3076 1.427 . S
C3073 H3063 0.929 . S
C3073 C3071 1.433 . S
C3073 N3076 1.384 . S
C3074 H3065 0.929 . S
C3074 C3066 1.378 1_455 S
C3074 C3069 1.350 1_455 S
C3075 H3062 0.929 . S
C3075 C3067 1.433 . S
C3075 N3077 1.384 . S
N3076 C3072 1.427 . S
N3076 C3073 1.384 . S
N3077 C3069 1.427 . S
N3077 C3075 1.384 . S
H3078 C3084 0.930 . S
H3079 C3088 0.930 . S
H3080 C3093 0.929 . S
H3081 C3091 0.929 . S
H3082 C3086 0.929 . S
H3083 C3092 0.929 . S
C3084 H3078 0.930 . S
C3084 C3085 1.367 . S
C3084 C3092 1.378 . S
C3085 C3084 1.367 . S
C3085 C3093 1.433 . S
C3086 H3082 0.929 . S
C3086 C3088 1.378 . S
C3086 C3090 1.350 . S
C3087 C3090 1.463 . S
C3087 C3092 1.350 . S
C3087 N3095 1.427 . S
C3088 H3079 0.930 . S
C3088 C3086 1.378 . S
C3088 C3089 1.367 . S
C3089 C3088 1.367 . S
C3089 C3091 1.433 . S
C3090 C3086 1.350 . S
C3090 C3087 1.463 . S
C3090 N3094 1.427 . S
C3091 H3081 0.929 . S
C3091 C3089 1.433 . S
C3091 N3094 1.384 . S
C3092 H3083 0.929 . S
C3092 C3084 1.378 . S
C3092 C3087 1.350 . S
C3093 H3080 0.929 . S
C3093 C3085 1.433 . S
C3093 N3095 1.384 . S
N3094 C3090 1.427 . S
N3094 C3091 1.384 . S
N3095 C3087 1.427 . S
N3095 C3093 1.384 . S
H3096 C3102 0.930 1_565 S
H3097 C3106 0.930 1_545 S
H3098 C3111 0.929 . S
H3099 C3109 0.929 . S
H3100 C3104 0.929 . S
H3101 C3110 0.929 . S
C3102 H3096 0.930 1_545 S
C3102 C3103 1.367 . S
C3102 C3110 1.378 1_545 S
C3103 C3102 1.367 . S
C3103 C3111 1.433 . S
C3104 H3100 0.929 . S
C3104 C3106 1.378 1_545 S
C3104 C3108 1.350 1_545 S
C3105 C3108 1.463 1_545 S
C3105 C3110 1.350 1_545 S
C3105 N3113 1.427 . S
C3106 H3097 0.930 1_565 S
C3106 C3104 1.378 1_565 S
C3106 C3107 1.367 . S
C3107 C3106 1.367 . S
C3107 C3109 1.433 . S
C3108 C3104 1.350 1_565 S
C3108 C3105 1.463 1_565 S
C3108 N3112 1.427 . S
C3109 H3099 0.929 . S
C3109 C3107 1.433 . S
C3109 N3112 1.384 . S
C3110 H3101 0.929 . S
C3110 C3102 1.378 1_565 S
C3110 C3105 1.350 1_565 S
C3111 H3098 0.929 . S
C3111 C3103 1.433 . S
C3111 N3113 1.384 . S
N3112 C3108 1.427 . S
N3112 C3109 1.384 . S
N3113 C3105 1.427 . S
N3113 C3111 1.384 . S
H3114 C3120 0.930 1_455 S
H3115 C3124 0.930 1_655 S
H3116 C3129 0.929 . S
H3117 C3127 0.929 . S
H3118 C3122 0.929 . S
H3119 C3128 0.929 . S
C3120 H3114 0.930 1_655 S
C3120 C3121 1.367 . S
C3120 C3128 1.378 1_655 S
C3121 C3120 1.367 . S
C3121 C3129 1.433 . S
C3122 H3118 0.929 . S
C3122 C3124 1.378 1_655 S
C3122 C3126 1.350 1_655 S
C3123 C3126 1.463 1_655 S
C3123 C3128 1.350 1_655 S
C3123 N3131 1.427 . S
C3124 H3115 0.930 1_455 S
C3124 C3122 1.378 1_455 S
C3124 C3125 1.367 . S
C3125 C3124 1.367 . S
C3125 C3127 1.433 . S
C3126 C3122 1.350 1_455 S
C3126 C3123 1.463 1_455 S
C3126 N3130 1.427 . S
C3127 H3117 0.929 . S
C3127 C3125 1.433 . S
C3127 N3130 1.384 . S
C3128 H3119 0.929 . S
C3128 C3120 1.378 1_455 S
C3128 C3123 1.350 1_455 S
C3129 H3116 0.929 . S
C3129 C3121 1.433 . S
C3129 N3131 1.384 . S
N3130 C3126 1.427 . S
N3130 C3127 1.384 . S
N3131 C3123 1.427 . S
N3131 C3129 1.384 . S
H3132 C3138 0.930 . S
H3133 C3142 0.930 . S
H3134 C3147 0.929 . S
H3135 C3145 0.929 . S
H3136 C3140 0.929 . S
H3137 C3146 0.929 . S
C3138 H3132 0.930 . S
C3138 C3139 1.367 . S
C3138 C3146 1.378 . S
C3139 C3138 1.367 . S
C3139 C3147 1.433 . S
C3140 H3136 0.929 . S
C3140 C3142 1.378 . S
C3140 C3144 1.350 . S
C3141 C3144 1.463 . S
C3141 C3146 1.350 . S
C3141 N3149 1.427 . S
C3142 H3133 0.930 . S
C3142 C3140 1.378 . S
C3142 C3143 1.367 . S
C3143 C3142 1.367 . S
C3143 C3145 1.433 . S
C3144 C3140 1.350 . S
C3144 C3141 1.463 . S
C3144 N3148 1.427 . S
C3145 H3135 0.929 . S
C3145 C3143 1.433 . S
C3145 N3148 1.384 . S
C3146 H3137 0.929 . S
C3146 C3138 1.378 . S
C3146 C3141 1.350 . S
C3147 H3134 0.929 . S
C3147 C3139 1.433 . S
C3147 N3149 1.384 . S
N3148 C3144 1.427 . S
N3148 C3145 1.384 . S
N3149 C3141 1.427 . S
N3149 C3147 1.384 . S
H3150 C3156 0.930 . S
H3151 C3160 0.930 . S
H3152 C3165 0.929 . S
H3153 C3163 0.929 . S
H3154 C3158 0.929 . S
H3155 C3164 0.929 . S
C3156 H3150 0.930 . S
C3156 C3157 1.367 . S
C3156 C3164 1.378 . S
C3157 C3156 1.367 . S
C3157 C3165 1.433 . S
C3158 H3154 0.929 . S
C3158 C3160 1.378 . S
C3158 C3162 1.350 . S
C3159 C3162 1.463 1_545 S
C3159 C3164 1.350 . S
C3159 N3167 1.427 1_545 S
C3160 H3151 0.930 . S
C3160 C3158 1.378 . S
C3160 C3161 1.367 . S
C3161 C3160 1.367 . S
C3161 C3163 1.433 . S
C3162 C3158 1.350 . S
C3162 C3159 1.463 1_565 S
C3162 N3166 1.427 1_565 S
C3163 H3153 0.929 . S
C3163 C3161 1.433 . S
C3163 N3166 1.384 1_565 S
C3164 H3155 0.929 . S
C3164 C3156 1.378 . S
C3164 C3159 1.350 . S
C3165 H3152 0.929 . S
C3165 C3157 1.433 . S
C3165 N3167 1.384 1_545 S
N3166 C3162 1.427 1_545 S
N3166 C3163 1.384 1_545 S
N3167 C3159 1.427 1_565 S
N3167 C3165 1.384 1_565 S
H3168 C3174 0.930 . S
H3169 C3178 0.930 . S
H3170 C3183 0.929 . S
H3171 C3181 0.929 . S
H3172 C3176 0.929 . S
H3173 C3182 0.929 . S
C3174 H3168 0.930 . S
C3174 C3175 1.367 . S
C3174 C3182 1.378 . S
C3175 C3174 1.367 . S
C3175 C3183 1.433 . S
C3176 H3172 0.929 . S
C3176 C3178 1.378 . S
C3176 C3180 1.350 . S
C3177 C3180 1.463 . S
C3177 C3182 1.350 . S
C3177 N3185 1.427 . S
C3178 H3169 0.930 . S
C3178 C3176 1.378 . S
C3178 C3179 1.367 . S
C3179 C3178 1.367 . S
C3179 C3181 1.433 . S
C3180 C3176 1.350 . S
C3180 C3177 1.463 . S
C3180 N3184 1.427 . S
C3181 H3171 0.929 . S
C3181 C3179 1.433 . S
C3181 N3184 1.384 . S
C3182 H3173 0.929 . S
C3182 C3174 1.378 . S
C3182 C3177 1.350 . S
C3183 H3170 0.929 . S
C3183 C3175 1.433 . S
C3183 N3185 1.384 . S
N3184 C3180 1.427 . S
N3184 C3181 1.384 . S
N3185 C3177 1.427 . S
N3185 C3183 1.384 . S
H3186 C3192 0.930 . S
H3187 C3196 0.930 . S
H3188 C3201 0.929 . S
H3189 C3199 0.929 . S
H3190 C3194 0.929 . S
H3191 C3200 0.929 . S
C3192 H3186 0.930 . S
C3192 C3193 1.367 . S
C3192 C3200 1.378 . S
C3193 C3192 1.367 . S
C3193 C3201 1.433 . S
C3194 H3190 0.929 . S
C3194 C3196 1.378 . S
C3194 C3198 1.350 . S
C3195 C3198 1.463 . S
C3195 C3200 1.350 . S
C3195 N3203 1.427 . S
C3196 H3187 0.930 . S
C3196 C3194 1.378 . S
C3196 C3197 1.367 . S
C3197 C3196 1.367 . S
C3197 C3199 1.433 . S
C3198 C3194 1.350 . S
C3198 C3195 1.463 . S
C3198 N3202 1.427 . S
C3199 H3189 0.929 . S
C3199 C3197 1.433 . S
C3199 N3202 1.384 . S
C3200 H3191 0.929 . S
C3200 C3192 1.378 . S
C3200 C3195 1.350 . S
C3201 H3188 0.929 . S
C3201 C3193 1.433 . S
C3201 N3203 1.384 . S
N3202 C3198 1.427 . S
N3202 C3199 1.384 . S
N3203 C3195 1.427 . S
N3203 C3201 1.384 . S
H3204 C3210 0.930 . S
H3205 C3214 0.930 . S
H3206 C3219 0.929 . S
H3207 C3217 0.929 . S
H3208 C3212 0.929 . S
H3209 C3218 0.929 . S
C3210 H3204 0.930 . S
C3210 C3211 1.367 . S
C3210 C3218 1.378 . S
C3211 C3210 1.367 . S
C3211 C3219 1.433 . S
C3212 H3208 0.929 . S
C3212 C3214 1.378 . S
C3212 C3216 1.350 . S
C3213 C3216 1.463 . S
C3213 C3218 1.350 . S
C3213 N3221 1.427 . S
C3214 H3205 0.930 . S
C3214 C3212 1.378 . S
C3214 C3215 1.367 . S
C3215 C3214 1.367 . S
C3215 C3217 1.433 . S
C3216 C3212 1.350 . S
C3216 C3213 1.463 . S
C3216 N3220 1.427 . S
C3217 H3207 0.929 . S
C3217 C3215 1.433 . S
C3217 N3220 1.384 . S
C3218 H3209 0.929 . S
C3218 C3210 1.378 . S
C3218 C3213 1.350 . S
C3219 H3206 0.929 . S
C3219 C3211 1.433 . S
C3219 N3221 1.384 . S
N3220 C3216 1.427 . S
N3220 C3217 1.384 . S
N3221 C3213 1.427 . S
N3221 C3219 1.384 . S
H3222 C3228 0.930 . S
H3223 C3232 0.930 . S
H3224 C3237 0.929 . S
H3225 C3235 0.929 . S
H3226 C3230 0.929 . S
H3227 C3236 0.929 . S
C3228 H3222 0.930 . S
C3228 C3229 1.367 . S
C3228 C3236 1.378 . S
C3229 C3228 1.367 . S
C3229 C3237 1.433 . S
C3230 H3226 0.929 . S
C3230 C3232 1.378 . S
C3230 C3234 1.350 . S
C3231 C3234 1.463 . S
C3231 C3236 1.350 . S
C3231 N3239 1.427 . S
C3232 H3223 0.930 . S
C3232 C3230 1.378 . S
C3232 C3233 1.367 . S
C3233 C3232 1.367 . S
C3233 C3235 1.433 . S
C3234 C3230 1.350 . S
C3234 C3231 1.463 . S
C3234 N3238 1.427 . S
C3235 H3225 0.929 . S
C3235 C3233 1.433 . S
C3235 N3238 1.384 . S
C3236 H3227 0.929 . S
C3236 C3228 1.378 . S
C3236 C3231 1.350 . S
C3237 H3224 0.929 . S
C3237 C3229 1.433 . S
C3237 N3239 1.384 . S
N3238 C3234 1.427 . S
N3238 C3235 1.384 . S
N3239 C3231 1.427 . S
N3239 C3237 1.384 . S
H3240 C3246 0.930 . S
H3241 C3250 0.930 . S
H3242 C3255 0.929 . S
H3243 C3253 0.929 . S
H3244 C3248 0.929 . S
H3245 C3254 0.929 . S
C3246 H3240 0.930 . S
C3246 C3247 1.367 . S
C3246 C3254 1.378 . S
C3247 C3246 1.367 . S
C3247 C3255 1.433 . S
C3248 H3244 0.929 . S
C3248 C3250 1.378 . S
C3248 C3252 1.350 . S
C3249 C3252 1.463 . S
C3249 C3254 1.350 . S
C3249 N3257 1.427 . S
C3250 H3241 0.930 . S
C3250 C3248 1.378 . S
C3250 C3251 1.367 . S
C3251 C3250 1.367 . S
C3251 C3253 1.433 . S
C3252 C3248 1.350 . S
C3252 C3249 1.463 . S
C3252 N3256 1.427 . S
C3253 H3243 0.929 . S
C3253 C3251 1.433 . S
C3253 N3256 1.384 . S
C3254 H3245 0.929 . S
C3254 C3246 1.378 . S
C3254 C3249 1.350 . S
C3255 H3242 0.929 . S
C3255 C3247 1.433 . S
C3255 N3257 1.384 . S
N3256 C3252 1.427 . S
N3256 C3253 1.384 . S
N3257 C3249 1.427 . S
N3257 C3255 1.384 . S
H3258 C3264 0.930 . S
H3259 C3268 0.930 . S
H3260 C3273 0.929 . S
H3261 C3271 0.929 . S
H3262 C3266 0.929 . S
H3263 C3272 0.929 . S
C3264 H3258 0.930 . S
C3264 C3265 1.367 . S
C3264 C3272 1.378 . S
C3265 C3264 1.367 . S
C3265 C3273 1.433 . S
C3266 H3262 0.929 . S
C3266 C3268 1.378 . S
C3266 C3270 1.350 . S
C3267 C3270 1.463 . S
C3267 C3272 1.350 . S
C3267 N3275 1.427 . S
C3268 H3259 0.930 . S
C3268 C3266 1.378 . S
C3268 C3269 1.367 . S
C3269 C3268 1.367 . S
C3269 C3271 1.433 . S
C3270 C3266 1.350 . S
C3270 C3267 1.463 . S
C3270 N3274 1.427 . S
C3271 H3261 0.929 . S
C3271 C3269 1.433 . S
C3271 N3274 1.384 . S
C3272 H3263 0.929 . S
C3272 C3264 1.378 . S
C3272 C3267 1.350 . S
C3273 H3260 0.929 . S
C3273 C3265 1.433 . S
C3273 N3275 1.384 . S
N3274 C3270 1.427 . S
N3274 C3271 1.384 . S
N3275 C3267 1.427 . S
N3275 C3273 1.384 . S
H3276 C3282 0.930 . S
H3277 C3286 0.930 . S
H3278 C3291 0.929 . S
H3279 C3289 0.929 . S
H3280 C3284 0.929 . S
H3281 C3290 0.929 . S
C3282 H3276 0.930 . S
C3282 C3283 1.367 . S
C3282 C3290 1.378 . S
C3283 C3282 1.367 . S
C3283 C3291 1.433 . S
C3284 H3280 0.929 . S
C3284 C3286 1.378 . S
C3284 C3288 1.350 . S
C3285 C3288 1.463 . S
C3285 C3290 1.350 . S
C3285 N3293 1.427 . S
C3286 H3277 0.930 . S
C3286 C3284 1.378 . S
C3286 C3287 1.367 . S
C3287 C3286 1.367 . S
C3287 C3289 1.433 . S
C3288 C3284 1.350 . S
C3288 C3285 1.463 . S
C3288 N3292 1.427 . S
C3289 H3279 0.929 . S
C3289 C3287 1.433 . S
C3289 N3292 1.384 . S
C3290 H3281 0.929 . S
C3290 C3282 1.378 . S
C3290 C3285 1.350 . S
C3291 H3278 0.929 . S
C3291 C3283 1.433 . S
C3291 N3293 1.384 . S
N3292 C3288 1.427 . S
N3292 C3289 1.384 . S
N3293 C3285 1.427 . S
N3293 C3291 1.384 . S
H3294 C3300 0.930 . S
H3295 C3304 0.930 . S
H3296 C3309 0.929 . S
H3297 C3307 0.929 . S
H3298 C3302 0.929 . S
H3299 C3308 0.929 . S
C3300 H3294 0.930 . S
C3300 C3301 1.367 . S
C3300 C3308 1.378 . S
C3301 C3300 1.367 . S
C3301 C3309 1.433 . S
C3302 H3298 0.929 . S
C3302 C3304 1.378 . S
C3302 C3306 1.350 . S
C3303 C3306 1.463 . S
C3303 C3308 1.350 . S
C3303 N3311 1.427 . S
C3304 H3295 0.930 . S
C3304 C3302 1.378 . S
C3304 C3305 1.367 . S
C3305 C3304 1.367 . S
C3305 C3307 1.433 . S
C3306 C3302 1.350 . S
C3306 C3303 1.463 . S
C3306 N3310 1.427 . S
C3307 H3297 0.929 . S
C3307 C3305 1.433 . S
C3307 N3310 1.384 . S
C3308 H3299 0.929 . S
C3308 C3300 1.378 . S
C3308 C3303 1.350 . S
C3309 H3296 0.929 . S
C3309 C3301 1.433 . S
C3309 N3311 1.384 . S
N3310 C3306 1.427 . S
N3310 C3307 1.384 . S
N3311 C3303 1.427 . S
N3311 C3309 1.384 . S
H3312 C3318 0.930 . S
H3313 C3322 0.930 . S
H3314 C3327 0.929 . S
H3315 C3325 0.929 . S
H3316 C3320 0.929 . S
H3317 C3326 0.929 . S
C3318 H3312 0.930 . S
C3318 C3319 1.367 . S
C3318 C3326 1.378 . S
C3319 C3318 1.367 . S
C3319 C3327 1.433 . S
C3320 H3316 0.929 . S
C3320 C3322 1.378 . S
C3320 C3324 1.350 . S
C3321 C3324 1.463 . S
C3321 C3326 1.350 . S
C3321 N3329 1.427 . S
C3322 H3313 0.930 . S
C3322 C3320 1.378 . S
C3322 C3323 1.367 . S
C3323 C3322 1.367 . S
C3323 C3325 1.433 . S
C3324 C3320 1.350 . S
C3324 C3321 1.463 . S
C3324 N3328 1.427 . S
C3325 H3315 0.929 . S
C3325 C3323 1.433 . S
C3325 N3328 1.384 . S
C3326 H3317 0.929 . S
C3326 C3318 1.378 . S
C3326 C3321 1.350 . S
C3327 H3314 0.929 . S
C3327 C3319 1.433 . S
C3327 N3329 1.384 . S
N3328 C3324 1.427 . S
N3328 C3325 1.384 . S
N3329 C3321 1.427 . S
N3329 C3327 1.384 . S
H3330 C3336 0.930 . S
H3331 C3340 0.930 . S
H3332 C3345 0.929 . S
H3333 C3343 0.929 . S
H3334 C3338 0.929 . S
H3335 C3344 0.929 . S
C3336 H3330 0.930 . S
C3336 C3337 1.367 . S
C3336 C3344 1.378 . S
C3337 C3336 1.367 . S
C3337 C3345 1.433 . S
C3338 H3334 0.929 . S
C3338 C3340 1.378 . S
C3338 C3342 1.350 . S
C3339 C3342 1.463 . S
C3339 C3344 1.350 . S
C3339 N3347 1.427 . S
C3340 H3331 0.930 . S
C3340 C3338 1.378 . S
C3340 C3341 1.367 . S
C3341 C3340 1.367 . S
C3341 C3343 1.433 . S
C3342 C3338 1.350 . S
C3342 C3339 1.463 . S
C3342 N3346 1.427 . S
C3343 H3333 0.929 . S
C3343 C3341 1.433 . S
C3343 N3346 1.384 . S
C3344 H3335 0.929 . S
C3344 C3336 1.378 . S
C3344 C3339 1.350 . S
C3345 H3332 0.929 . S
C3345 C3337 1.433 . S
C3345 N3347 1.384 . S
N3346 C3342 1.427 . S
N3346 C3343 1.384 . S
N3347 C3339 1.427 . S
N3347 C3345 1.384 . S
H3348 C3354 0.930 . S
H3349 C3358 0.930 . S
H3350 C3363 0.929 . S
H3351 C3361 0.929 . S
H3352 C3356 0.929 . S
H3353 C3362 0.929 . S
C3354 H3348 0.930 . S
C3354 C3355 1.367 . S
C3354 C3362 1.378 . S
C3355 C3354 1.367 . S
C3355 C3363 1.433 . S
C3356 H3352 0.929 . S
C3356 C3358 1.378 . S
C3356 C3360 1.350 . S
C3357 C3360 1.463 . S
C3357 C3362 1.350 . S
C3357 N3365 1.427 . S
C3358 H3349 0.930 . S
C3358 C3356 1.378 . S
C3358 C3359 1.367 . S
C3359 C3358 1.367 . S
C3359 C3361 1.433 . S
C3360 C3356 1.350 . S
C3360 C3357 1.463 . S
C3360 N3364 1.427 . S
C3361 H3351 0.929 . S
C3361 C3359 1.433 . S
C3361 N3364 1.384 . S
C3362 H3353 0.929 . S
C3362 C3354 1.378 . S
C3362 C3357 1.350 . S
C3363 H3350 0.929 . S
C3363 C3355 1.433 . S
C3363 N3365 1.384 . S
N3364 C3360 1.427 . S
N3364 C3361 1.384 . S
N3365 C3357 1.427 . S
N3365 C3363 1.384 . S
H3366 C3372 0.930 . S
H3367 C3376 0.930 . S
H3368 C3381 0.929 . S
H3369 C3379 0.929 . S
H3370 C3374 0.929 . S
H3371 C3380 0.929 . S
C3372 H3366 0.930 . S
C3372 C3373 1.367 . S
C3372 C3380 1.378 . S
C3373 C3372 1.367 . S
C3373 C3381 1.433 . S
C3374 H3370 0.929 . S
C3374 C3376 1.378 . S
C3374 C3378 1.350 . S
C3375 C3378 1.463 . S
C3375 C3380 1.350 . S
C3375 N3383 1.427 . S
C3376 H3367 0.930 . S
C3376 C3374 1.378 . S
C3376 C3377 1.367 . S
C3377 C3376 1.367 . S
C3377 C3379 1.433 . S
C3378 C3374 1.350 . S
C3378 C3375 1.463 . S
C3378 N3382 1.427 . S
C3379 H3369 0.929 . S
C3379 C3377 1.433 . S
C3379 N3382 1.384 . S
C3380 H3371 0.929 . S
C3380 C3372 1.378 . S
C3380 C3375 1.350 . S
C3381 H3368 0.929 . S
C3381 C3373 1.433 . S
C3381 N3383 1.384 . S
N3382 C3378 1.427 . S
N3382 C3379 1.384 . S
N3383 C3375 1.427 . S
N3383 C3381 1.384 . S
C1447 C10 1.736 . S
C1451 C91 1.790 . S
C1465 C11 1.791 . S
C1469 C50 1.739 1_545 S
C1483 C90 1.724 1_655 S
C1487 C51 1.797 . S
C1501 C130 1.817 . S
C1505 C171 1.871 . S
C1519 C211 1.875 . S
C1523 C170 1.804 1_565 S
C1537 C210 1.812 1_455 S
C1541 C131 1.870 . S
C1555 C259 1.738 . S
C1559 C322 1.790 . S
C1573 C299 1.739 1_565 S
C1577 C242 1.791 . S
C1591 C339 1.732 1_455 S
C1595 C282 1.797 . S
C1609 C379 1.807 . S
C1613 C402 1.871 . S
C1627 C442 1.876 . S
C1631 C419 1.804 1_545 S
C1645 C362 1.869 . S
C1649 C459 1.813 1_655 S
C1663 C571 1.861 . S
C1667 C490 1.805 . S
C1681 C530 1.791 . S
C1685 C491 1.864 . S
C1699 C531 1.859 . S
C1703 C570 1.797 . S
C1717 C610 1.835 . S
C1721 C651 1.888 . S
C1735 C691 1.893 . S
C1739 C650 1.832 . S
C1753 C611 1.896 . S
C1757 C690 1.826 . S
C1771 C739 1.770 . S
C1775 C802 1.825 . S
C1789 C779 1.774 . S
C1793 C722 1.826 . S
C1807 C762 1.825 . S
C1811 C819 1.772 . S
C1825 C882 1.707 . S
C1829 C859 1.663 1_554 S
C1843 C899 1.627 1_554 S
C1847 C922 1.713 . S
C1861 C842 1.706 . S
C1865 C939 1.665 1_554 S
C1879 C970 1.769 . S
C1883 C1051 1.825 . S
C1897 C1010 1.762 . S
C1901 C971 1.833 . S
C1915 C1050 1.762 . S
C1919 C1011 1.828 . S
C1933 C1090 1.667 1_556 S
C1937 C1131 1.709 . S
C1951 C1130 1.630 1_556 S
C1955 C1171 1.714 . S
C1969 C1170 1.661 1_556 S
C1973 C1091 1.706 . S
C1987 C1219 1.806 . S
C1991 C1282 1.860 . S
C2005 C1259 1.803 . S
C2009 C1202 1.857 . S
C2023 C1242 1.859 . S
C2027 C1299 1.805 . S
C2041 C1339 1.837 . S
C2045 C1362 1.890 . S
C2059 C1379 1.836 . S
C2063 C1402 1.890 . S
C2077 C1322 1.896 . S
C2081 C1419 1.825 . S
C2095 C2 1.829 . S
C2099 C810 1.799 . S
C2113 C730 1.797 . S
C2117 C42 1.832 . S
C2131 C82 1.837 . S
C2135 C770 1.801 . S
C2149 C122 1.720 . S
C2153 C1370 1.686 . S
C2167 C1410 1.683 . S
C2171 C162 1.725 . S
C2185 C202 1.720 . S
C2189 C1330 1.687 . S
C2203 C1059 1.800 . S
C2207 C251 1.835 . S
C2221 C291 1.832 . S
C2225 C979 1.797 . S
C2239 C331 1.835 . S
C2243 C1019 1.809 . S
C2257 C659 1.684 . S
C2261 C371 1.721 . S
C2275 C699 1.683 . S
C2279 C411 1.726 . S
C2293 C619 1.694 . S
C2297 C451 1.727 . S
C2311 C482 1.776 . S
C2315 C1290 1.752 . S
C2329 C522 1.783 . S
C2333 C1210 1.743 . S
C2347 C1250 1.753 . S
C2351 C562 1.780 . S
C2365 C410 1.732 . S
C2369 C602 1.761 . S
C2383 C450 1.728 . S
C2387 C642 1.764 . S
C2401 C370 1.729 . S
C2405 C682 1.784 . S
C2419 C99 1.796 . S
C2423 C731 1.823 . S
C2437 C771 1.826 . S
C2441 C19 1.806 . S
C2455 C811 1.831 . S
C2459 C59 1.802 . S
C2473 C1139 1.747 1_554 S
C2477 C851 1.803 . S
C2491 C1179 1.743 1_554 S
C2495 C891 1.800 . S
C2509 C931 1.794 . S
C2513 C1099 1.744 . S
C2527 C330 1.799 . S
C2531 C962 1.822 . S
C2545 C250 1.794 . S
C2549 C1002 1.827 . S
C2563 C290 1.795 . S
C2567 C1042 1.824 . S
C2581 C1082 1.804 . S
C2585 C890 1.747 1_556 S
C2599 C930 1.746 1_556 S
C2603 C1122 1.803 . S
C2617 C1162 1.804 . S
C2621 C850 1.749 1_556 S
C2635 C1211 1.779 . S
C2639 C579 1.753 . S
C2653 C1251 1.779 . S
C2657 C499 1.741 . S
C2671 C1291 1.775 . S
C2675 C539 1.750 . S
C2689 C1331 1.766 . S
C2693 C179 1.725 . S
C2707 C219 1.730 . S
C2711 C1371 1.771 . S
C2725 C139 1.733 . S
C2729 C1411 1.773 1_545 S
C2743 C1167 2.327 . S
C2747 C7 2.308 . S
C2761 C1087 2.321 . S
C2765 C47 2.314 . S
C2779 C87 2.329 . S
C2783 C1127 2.305 . S
C2797 C527 2.571 . S
C2801 C127 2.568 . S
C2815 C167 2.569 . S
C2819 C567 2.576 . S
C2833 C207 2.575 . S
C2837 C487 2.574 . S
C2851 C256 2.326 . S
C2855 C936 2.312 . S
C2869 C296 2.329 . S
C2873 C856 2.306 . S
C2887 C336 2.326 . S
C2891 C896 2.312 . S
C2905 C1256 2.570 . S
C2909 C376 2.574 . S
C2923 C1296 2.573 . S
C2927 C416 2.568 . S
C2941 C1216 2.574 . S
C2945 C456 2.568 . S
C2959 C607 2.625 . S
C2963 C1007 2.631 . S
C2977 C647 2.626 . S
C2981 C1047 2.627 . S
C2995 C687 2.625 1_565 S
C2999 C967 2.633 . S
C3013 C736 2.629 . S
C3017 C1416 2.627 . S
C3031 C1336 2.628 1_655 S
C3035 C776 2.632 . S
C3049 C816 2.627 . S
C3053 C1376 2.626 . S
C3067 C176 1.126 . S
C3071 C16 1.126 . S
C3085 C216 1.122 . S
C3089 C56 1.128 . S
C3103 C136 1.127 . S
C3107 C96 1.125 . S
C3121 C247 1.126 . S
C3125 C407 1.126 . S
C3139 C447 1.126 . S
C3143 C287 1.125 . S
C3157 C327 1.127 . S
C3161 C367 1.123 . S
C3175 C656 1.215 . S
C3179 C496 1.219 . S
C3193 C696 1.218 . S
C3197 C536 1.214 . S
C3211 C616 1.217 . S
C3215 C576 1.216 . S
C3229 C887 1.490 . S
C3233 C727 1.517 . S
C3247 C767 1.503 . S
C3251 C927 1.504 . S
C3265 C807 1.501 . S
C3269 C847 1.507 . S
C3283 C976 1.501 . S
C3287 C1136 1.508 . S
C3301 C1176 1.497 . S
C3305 C1016 1.517 . S
C3319 C1056 1.501 . S
C3323 C1096 1.508 . S
C3337 C1207 1.217 . S
C3341 C1367 1.215 . S
C3355 C1407 1.213 . S
C3359 C1247 1.218 . S
C3373 C1287 1.218 . S
C3377 C1327 1.215 . S
