# Generated by pormake.
# Topology tfs, (6)-cn, num edge types: 1
# Building blocks:
#     Node 0, Type 0, BuildingBlock: NUHQIS_clean_sbu_0, # of connection points: 6
#     Node 1, Type 0, BuildingBlock: NUHQIS_clean_sbu_0, # of connection points: 6
#     Node 2, Type 0, BuildingBlock: NUHQIS_clean_sbu_0, # of connection points: 6
#     Node 3, Type 0, BuildingBlock: NUHQIS_clean_sbu_0, # of connection points: 6
#     Node 4, Type 0, BuildingBlock: NUHQIS_clean_sbu_0, # of connection points: 6
#     Node 5, Type 0, BuildingBlock: NUHQIS_clean_sbu_0, # of connection points: 6
#     Edge 6, Type (0, 0), BuildingBlock: XIVTED_clean_linker_0, # of connection points: 2
#     Edge 7, Type (0, 0), BuildingBlock: XIVTED_clean_linker_0, # of connection points: 2
#     Edge 8, Type (0, 0), BuildingBlock: XIVTED_clean_linker_0, # of connection points: 2
#     Edge 9, Type (0, 0), BuildingBlock: XIVTED_clean_linker_0, # of connection points: 2
#     Edge 10, Type (0, 0), BuildingBlock: XIVTED_clean_linker_0, # of connection points: 2
#     Edge 11, Type (0, 0), BuildingBlock: XIVTED_clean_linker_0, # of connection points: 2
#     Edge 12, Type (0, 0), BuildingBlock: XIVTED_clean_linker_0, # of connection points: 2
#     Edge 13, Type (0, 0), BuildingBlock: XIVTED_clean_linker_0, # of connection points: 2
#     Edge 14, Type (0, 0), BuildingBlock: XIVTED_clean_linker_0, # of connection points: 2
#     Edge 15, Type (0, 0), BuildingBlock: XIVTED_clean_linker_0, # of connection points: 2
#     Edge 16, Type (0, 0), BuildingBlock: XIVTED_clean_linker_0, # of connection points: 2
#     Edge 17, Type (0, 0), BuildingBlock: XIVTED_clean_linker_0, # of connection points: 2
#     Edge 18, Type (0, 0), BuildingBlock: XIVTED_clean_linker_0, # of connection points: 2
#     Edge 19, Type (0, 0), BuildingBlock: XIVTED_clean_linker_0, # of connection points: 2
#     Edge 20, Type (0, 0), BuildingBlock: XIVTED_clean_linker_0, # of connection points: 2
#     Edge 21, Type (0, 0), BuildingBlock: XIVTED_clean_linker_0, # of connection points: 2
#     Edge 22, Type (0, 0), BuildingBlock: XIVTED_clean_linker_0, # of connection points: 2
#     Edge 23, Type (0, 0), BuildingBlock: XIVTED_clean_linker_0, # of connection points: 2
# Relax obj value: 0.574
# Max RMSD: 0.427
# Mean RMSD: 0.357
data_MOF--net-tfs--node1-NUHQIS_clean_sbu_0--edge1-XIVTED_clean_linker_0
_symmetry_space_group_name_H-M    P1
_symmetry_Int_Tables_number       1
_symmetry_cell_setting            triclinic
loop_
_symmetry_equiv_pos_as_xyz
'x, y, z'
_cell_length_a     55.748837
_cell_length_b     48.134295
_cell_length_c     13.102828
_cell_angle_alpha  85.927262
_cell_angle_beta   90.63628
_cell_angle_gamma 120.74928
loop_
_atom_site_label
_atom_site_type_symbol
_atom_site_fract_x
_atom_site_fract_y
_atom_site_fract_z
_atom_type_partial_charge
Tb0 Tb 0.15286 0.41285 0.25117 0.0
Eu1 Eu 0.14477 0.46913 0.12083 0.0
C2 C 0.13916 0.41146 0.02625 0.0
C3 C 0.2058 0.47853 0.16523 0.0
C4 C 0.14726 0.33349 0.35443 0.0
C5 C 0.1556 0.28997 0.3224 0.0
C6 C 0.16081 0.32131 0.29874 0.0
C7 C 0.12686 0.3128 0.42931 0.0
C8 C 0.12153 0.2813 0.45275 0.0
C9 C 0.13677 0.27004 0.40267 0.0
C10 C 0.15783 0.36869 0.34686 0.0
O11 O 0.16008 0.4492 0.35662 0.0
O12 O 0.16556 0.49463 0.25922 0.0
O13 O 0.10856 0.44245 0.23324 0.0
O14 O 0.10769 0.39402 0.24897 0.0
C15 C 0.16725 0.48004 0.34497 0.0
O16 O 0.12925 0.50209 0.08811 0.0
O17 O 0.14599 0.48853 0.96459 0.0
O18 O 0.12273 0.41961 0.06602 0.0
O19 O 0.15666 0.40939 0.0883 0.0
O20 O 0.19473 0.45498 0.23861 0.0
O21 O 0.19035 0.4842 0.09983 0.0
C22 C 0.09561 0.41118 0.25967 0.0
O23 O 0.17251 0.38564 0.26502 0.0
O24 O 0.1414 0.37852 0.37731 0.0
C25 C 0.15382 0.54162 0.95422 0.0
C26 C 0.18588 0.60939 0.91801 0.0
C27 C 0.1565 0.59322 0.92009 0.0
C28 C 0.14064 0.5596 0.93796 0.0
C29 C 0.18303 0.55728 0.94509 0.0
C30 C 0.19894 0.59092 0.92634 0.0
C31 C 0.13713 0.50742 -0.00835 0.0
H32 H 0.16806 0.28245 0.28292 0.0
H33 H 0.17685 0.33668 0.24126 0.0
H34 H 0.11614 0.32151 0.47395 0.0
H35 H 0.10658 0.26643 0.51392 0.0
H36 H 0.1457 0.60661 0.91547 0.0
H37 H 0.1181 0.54784 0.94495 0.0
H38 H 0.19362 0.54375 0.9573 0.0
H39 H 0.22148 0.60259 0.92362 0.0
Tb40 Tb 0.69458 0.24292 0.58554 0.0
Eu41 Eu 0.76106 0.2811 0.48574 0.0
C42 C 0.70905 0.26004 0.35961 0.0
C43 C 0.71938 0.20174 0.49633 0.0
C44 C 0.64115 0.22343 0.78398 0.0
C45 C 0.60745 0.22651 0.89041 0.0
C46 C 0.61652 0.22413 0.79428 0.0
C47 C 0.65742 0.22689 0.87049 0.0
C48 C 0.64814 0.22878 0.96692 0.0
C49 C 0.62276 0.2279 -0.02197 0.0
C50 C 0.64895 0.21749 0.6843 0.0
O51 O 0.72624 0.25707 0.69943 0.0
O52 O 0.76174 0.2537 0.62853 0.0
O53 O 0.75624 0.31851 0.56672 0.0
O54 O 0.70818 0.29418 0.57215 0.0
C55 C 0.74428 0.24723 0.70429 0.0
O56 O 0.80456 0.31891 0.48815 0.0
O57 O 0.78904 0.29134 0.35359 0.0
O58 O 0.72861 0.28589 0.39887 0.0
O59 O 0.69045 0.23706 0.42299 0.0
O60 O 0.70075 0.20352 0.55211 0.0
O61 O 0.74224 0.22765 0.45568 0.0
C62 C 0.73328 0.31966 0.57971 0.0
O63 O 0.65609 0.24022 0.61039 0.0
O64 O 0.66553 0.20583 0.68778 0.0
C65 C 0.83707 0.3122 0.3935 0.0
C66 C 0.89117 0.32111 0.3787 0.0
C67 C 0.87821 0.31648 0.47486 0.0
C68 C 0.85141 0.31193 0.48227 0.0
C69 C 0.84945 0.31527 0.29742 0.0
C70 C 0.87619 0.3195 0.29002 0.0
C71 C 0.81093 0.31299 0.39974 0.0
H72 H 0.58757 0.22528 0.89695 0.0
H73 H 0.60378 0.22167 0.72858 0.0
H74 H 0.67682 0.22698 0.8644 0.0
H75 H 0.66032 0.22988 0.03317 0.0
H76 H 0.8891 0.3172 0.54451 0.0
H77 H 0.84241 0.30941 0.55762 0.0
H78 H 0.83888 0.3157 0.22792 0.0
H79 H 0.8857 0.32319 0.21485 0.0
Tb80 Tb 0.59702 0.81312 0.37351 0.0
Eu81 Eu 0.54209 0.74118 0.30029 0.0
C82 C 0.58574 0.794 0.15546 0.0
C83 C 0.53962 0.8079 0.29788 0.0
C84 C 0.64561 0.90102 0.42908 0.0
C85 C 0.66011 0.95383 0.33959 0.0
C86 C 0.6511 0.92072 0.3374 0.0
C87 C 0.64956 0.91525 0.52239 0.0
C88 C 0.65841 0.94814 0.52461 0.0
C89 C 0.66369 0.96795 0.43338 0.0
C90 C 0.63684 0.8661 0.43082 0.0
O91 O 0.56974 0.78318 0.50268 0.0
O92 O 0.5261 0.75191 0.43677 0.0
O93 O 0.56991 0.72985 0.39784 0.0
O94 O 0.61182 0.77826 0.37338 0.0
C95 C 0.54232 0.76935 0.50775 0.0
O96 O 0.51243 0.68928 0.32114 0.0
O97 O 0.517 0.71496 0.17262 0.0
O98 O 0.58098 0.76696 0.20331 0.0
O99 O 0.59218 0.81815 0.21099 0.0
O100 O 0.56328 0.8234 0.34719 0.0
O101 O 0.53005 0.77898 0.2636 0.0
C102 C 0.59741 0.74651 0.39695 0.0
O103 O 0.63718 0.85416 0.34477 0.0
O104 O 0.61492 0.84591 0.48787 0.0
C105 C 0.47212 0.66968 0.21916 0.0
C106 C 0.41347 0.63146 0.20148 0.0
C107 C 0.42517 0.64612 0.29268 0.0
C108 C 0.45416 0.66511 0.30136 0.0
C109 C 0.46052 0.6558 0.12725 0.0
C110 C 0.4315 0.63697 0.1183 0.0
C111 C 0.50282 0.68767 0.22884 0.0
H112 H 0.66378 0.96823 0.26784 0.0
H113 H 0.64842 0.91059 0.26404 0.0
H114 H 0.64589 0.90085 0.59422 0.0
H115 H 0.66138 0.95814 0.59832 0.0
H116 H 0.41189 0.6428 0.35769 0.0
H117 H 0.46251 0.6758 0.37288 0.0
H118 H 0.47395 0.65901 0.06284 0.0
H119 H 0.42324 0.62586 0.04729 0.0
Tb120 Tb 0.7308 0.58713 0.49295 0.0
Eu121 Eu 0.66881 0.53805 0.61633 0.0
C122 C 0.72068 0.58644 0.71742 0.0
C123 C 0.71608 0.51716 0.59558 0.0
C124 C 0.80665 0.63498 0.39564 0.0
C125 C 0.85272 0.65908 0.47003 0.0
C126 C 0.82384 0.64632 0.48047 0.0
C127 C 0.81873 0.63554 0.30157 0.0
C128 C 0.84749 0.64823 0.29113 0.0
C129 C 0.865 0.66089 0.37454 0.0
C130 C 0.77686 0.62555 0.39968 0.0
O131 O 0.69891 0.55825 0.38679 0.0
O132 O 0.66769 0.51143 0.48291 0.0
O133 O 0.66269 0.57209 0.50811 0.0
O134 O 0.70833 0.61419 0.49017 0.0
C135 C 0.68136 0.52667 0.3973 0.0
O136 O 0.62356 0.51203 0.63541 0.0
O137 O 0.64926 0.5192 0.76857 0.0
O138 O 0.69905 0.58547 0.67607 0.0
O139 O 0.73767 0.58435 0.65542 0.0
O140 O 0.73179 0.54255 0.53082 0.0
O141 O 0.69374 0.51318 0.64418 0.0
C142 C 0.68114 0.60288 0.48501 0.0
O143 O 0.75865 0.59716 0.36956 0.0
O144 O 0.76767 0.63264 0.47925 0.0
C145 C 0.60357 0.47312 0.7767 0.0
C146 C 0.56084 0.41068 0.85045 0.0
C147 C 0.57978 0.41454 0.77265 0.0
C148 C 0.60098 0.44557 0.73589 0.0
C149 C 0.58546 0.46933 0.85671 0.0
C150 C 0.56429 0.43844 0.8933 0.0
C151 C 0.62395 0.50604 0.73416 0.0
H152 H 0.86554 0.66877 0.53575 0.0
H153 H 0.81517 0.64628 0.55406 0.0
H154 H 0.80597 0.62701 0.23496 0.0
H155 H 0.85609 0.64863 0.21696 0.0
H156 H 0.57758 0.39368 0.73757 0.0
H157 H 0.61487 0.44809 0.67411 0.0
H158 H 0.5873 0.49036 0.88952 0.0
H159 H 0.55039 0.43631 0.9544 0.0
Tb160 Tb 0.21043 0.85221 0.27993 0.0
Eu161 Eu 0.27767 0.87401 0.34368 0.0
C162 C 0.25998 0.88997 0.13252 0.0
C163 C 0.23924 0.81279 0.21003 0.0
C164 C 0.13332 0.82045 0.24203 0.0
C165 C 0.08649 0.78752 0.17903 0.0
C166 C 0.11533 0.80673 0.16111 0.0
C167 C 0.12198 0.81401 0.34215 0.0
C168 C 0.093 0.7948 0.3602 0.0
C169 C 0.07483 0.78168 0.27855 0.0
C170 C 0.16351 0.84214 0.21828 0.0
O171 O 0.20293 0.81689 0.40488 0.0
O172 O 0.24733 0.84278 0.47249 0.0
O173 O 0.26839 0.9124 0.38381 0.0
O174 O 0.22099 0.87987 0.41473 0.0
C175 C 0.22053 0.8203 0.47731 0.0
O176 O 0.30575 0.8656 0.43988 0.0
O177 O 0.3229 0.9081 0.33238 0.0
O178 O 0.2781 0.88355 0.17469 0.0
O179 O 0.24378 0.89389 0.19383 0.0
O180 O 0.21955 0.82022 0.2014 0.0
O181 O 0.26123 0.82769 0.26712 0.0
C182 C 0.24496 0.90641 0.42775 0.0
O183 O 0.17848 0.86327 0.28329 0.0
O184 O 0.17661 0.82884 0.18253 0.0
C185 C 0.35088 0.88445 0.3686 0.0
C186 C 0.39463 0.87252 0.32947 0.0
C187 C 0.40046 0.90285 0.35946 0.0
C188 C 0.37882 0.90868 0.379 0.0
C189 C 0.3449 0.85445 0.33583 0.0
C190 C 0.36652 0.84852 0.31673 0.0
C191 C 0.32837 0.89035 0.39743 0.0
H192 H 0.0733 0.77732 0.11451 0.0
H193 H 0.12361 0.81121 0.08335 0.0
H194 H 0.13542 0.82419 0.40614 0.0
H195 H 0.08481 0.791 0.43772 0.0
H196 H 0.42178 0.92216 0.36823 0.0
H197 H 0.38392 0.93204 0.40384 0.0
H198 H 0.32349 0.83533 0.32704 0.0
H199 H 0.36109 0.82476 0.2949 0.0
Tb200 Tb 0.32563 0.14947 0.90823 0.0
Eu201 Eu 0.36372 0.11012 0.02109 0.0
C202 C 0.32595 0.1347 0.12555 0.0
C203 C 0.39037 0.19049 -0.01661 0.0
C204 C 0.28052 0.16648 0.73258 0.0
C205 C 0.2311 0.14667 0.75731 0.0
C206 C 0.25594 0.14962 0.79352 0.0
C207 C 0.27972 0.17882 0.63348 0.0
C208 C 0.25494 0.17581 0.59712 0.0
C209 C 0.23049 0.16039 0.6595 0.0
C210 C 0.30745 0.17289 0.77217 0.0
O211 O 0.3551 0.13603 0.88321 0.0
O212 O 0.38505 0.12253 0.86247 0.0
O213 O 0.32571 0.07456 0.93543 0.0
O214 O 0.29658 0.09698 0.91326 0.0
C215 C 0.37327 0.1374 0.81986 0.0
O216 O 0.38514 0.08295 0.04517 0.0
O217 O 0.36333 0.08753 0.17247 0.0
O218 O 0.32651 0.1109 0.08421 0.0
O219 O 0.31761 0.15113 0.06732 0.0
O220 O 0.36822 0.18852 0.93655 0.0
O221 O 0.39238 0.16537 0.0219 0.0
C222 C 0.30207 0.07321 0.90807 0.0
O223 O 0.31287 0.18248 0.86512 0.0
O224 O 0.31444 0.15146 0.75555 0.0
C225 C 0.40537 0.08794 0.20758 0.0
C226 C 0.45716 0.11531 0.30374 0.0
C227 C 0.45142 0.09477 0.22427 0.0
C228 C 0.42579 0.08129 0.1765 0.0
C229 C 0.40996 0.10552 0.29421 0.0
C230 C 0.43581 0.11953 0.34105 0.0
C231 C 0.38067 0.07875 0.14426 0.0
H232 H 0.21255 0.13439 0.80672 0.0
H233 H 0.25616 0.13961 0.87 0.0
H234 H 0.29853 0.19179 0.5854 0.0
H235 H 0.25535 0.18706 0.52207 0.0
H236 H 0.46751 0.09125 0.19317 0.0
H237 H 0.42256 0.06722 0.11134 0.0
H238 H 0.39408 0.10975 0.3228 0.0
H239 H 0.43959 0.13497 0.40284 0.0
H240 H 0.20759 0.1522 0.46911 0.0
H241 H 0.13374 0.2481 0.60364 0.0
H242 H 0.1973 0.17344 0.77457 0.0
H243 H 0.14085 0.22493 0.29715 0.0
H244 H 0.14607 0.20891 0.67118 0.0
H245 H 0.17376 0.16725 0.40937 0.0
C246 C 0.19786 0.1595 0.52394 0.0
C247 C 0.20573 0.16221 0.62659 0.0
C248 C 0.14443 0.21188 0.58918 0.0
C249 C 0.16708 0.17954 0.55879 0.0
C250 C 0.13707 0.23413 0.55031 0.0
C251 C 0.13687 0.2405 0.44408 0.0
C252 C 0.15207 0.19618 0.5215 0.0
C253 C 0.14162 0.22161 0.37944 0.0
C254 C 0.17846 0.16797 0.48988 0.0
C255 C 0.19198 0.17107 0.69472 0.0
N256 N 0.14963 0.20082 0.41903 0.0
N257 N 0.17374 0.18 0.65923 0.0
H258 H 0.06987 0.43733 0.35699 0.0
H259 H 0.9156 0.29772 0.25591 0.0
H260 H 0.05363 0.34864 0.2346 0.0
H261 H 0.93471 0.36635 0.48272 0.0
H262 H 0.96565 0.31686 0.23747 0.0
H263 H 0.02002 0.41275 0.39534 0.0
C264 C 0.05579 0.41255 0.33889 0.0
C265 C 0.06587 0.395 0.29238 0.0
C266 C 0.95878 0.32741 0.29204 0.0
C267 C 1.00864 0.36685 0.33455 0.0
C268 C 0.9303 0.31664 0.30218 0.0
C269 C 0.92099 0.33044 0.37105 0.0
C270 C 0.97808 0.35259 0.34965 0.0
C271 C 0.94091 0.3548 0.42949 0.0
C272 C 0.02733 0.3985 0.36103 0.0
C273 C 0.0467 0.36293 0.27095 0.0
N274 N 0.96848 0.36532 0.41665 0.0
N275 N 0.01889 0.34999 0.2909 0.0
H276 H 0.74318 0.1807 0.35695 0.0
H277 H 0.64367 0.99392 0.56343 0.0
H278 H 0.68157 0.14583 0.60365 0.0
H279 H 0.70301 0.02187 0.31268 0.0
H280 H 0.65844 0.05053 0.57593 0.0
H281 H 0.73028 0.12407 0.33663 0.0
C282 C 0.72712 0.16134 0.40697 0.0
C283 C 0.71344 0.16828 0.48187 0.0
C284 C 0.66837 0.0445 0.51795 0.0
C285 C 0.69853 0.10357 0.45884 0.0
C286 C 0.65998 1.01199 0.51115 0.0
C287 C 0.67223 1.00288 0.43754 0.0
C288 C 0.68931 0.06863 0.45072 0.0
C289 C 0.69285 0.02765 0.3704 0.0
C290 C 0.71969 0.12902 0.39508 0.0
C291 C 0.69266 0.14203 0.54409 0.0
N292 N 0.70083 0.05938 0.37881 0.0
N293 N 0.68596 0.11119 0.53109 0.0
H294 H 0.62686 0.58687 0.46216 0.0
H295 H 0.65428 0.76806 0.38693 0.0
H296 H 0.7102 0.67037 0.4596 0.0
H297 H 0.57371 0.6814 0.44587 0.0
H298 H 0.67612 0.73453 0.40417 0.0
H299 H 0.60816 0.62263 0.44255 0.0
C300 C 0.64138 0.6128 0.4569 0.0
C301 C 0.67029 0.62541 0.46309 0.0
C302 C 0.65368 0.72301 0.41366 0.0
C303 C 0.6486 0.66712 0.44089 0.0
C304 C 0.64117 0.74215 0.40417 0.0
C305 C 0.61199 0.72772 0.41471 0.0
C306 C 0.63688 0.68915 0.43311 0.0
C307 C 0.59621 0.69391 0.43666 0.0
C308 C 0.63057 0.63333 0.44604 0.0
C309 C 0.6878 0.65942 0.45518 0.0
N310 N 0.60877 0.676 0.44453 0.0
N311 N 0.6767 0.67909 0.44476 0.0
H312 H 0.0437 0.73714 0.43866 0.0
H313 H 0.8972 0.70162 0.2119 0.0
H314 H 0.03507 0.78351 0.15793 0.0
H315 H 0.90366 0.65893 0.50421 0.0
H316 H 0.94775 0.72978 0.18907 0.0
H317 H 0.99276 0.70704 0.46347 0.0
C318 C 0.03118 0.74113 0.38241 0.0
C319 C 0.04385 0.76289 0.29574 0.0
C320 C 0.9382 0.71422 0.25825 0.0
C321 C 0.98543 0.72823 0.32335 0.0
C322 C 0.9092 0.69786 0.27103 0.0
C323 C 0.89598 0.67762 0.35996 0.0
C324 C 0.95438 0.71051 0.33485 0.0
C325 C 0.91289 0.67444 0.43477 0.0
C326 C 1.00206 0.72379 0.39642 0.0
C327 C 0.02639 0.76664 0.22496 0.0
N328 N 0.94119 0.69066 0.4205 0.0
N329 N 0.99822 0.74955 0.24035 0.0
H330 H 0.27223 0.97199 0.39709 0.0
H331 H 0.28598 1.00979 0.95611 0.0
H332 H 0.22079 0.89289 0.61852 0.0
H333 H 0.27556 0.07282 0.73296 0.0
H334 H 0.26414 0.96609 0.83959 0.0
H335 H 0.27729 1.01042 0.52105 0.0
C336 C 0.26181 0.96282 0.47158 0.0
C337 C 0.24608 0.92944 0.49817 0.0
C338 C 0.26593 0.98923 0.81764 0.0
C339 C 0.25224 0.97291 0.64006 0.0
C340 C 0.2783 0.01406 0.88391 0.0
C341 C 0.28243 0.04479 0.85388 0.0
C342 C 0.25874 0.99573 0.71966 0.0
C343 C 0.27247 0.04932 0.75915 0.0
C344 C 0.26452 0.98464 0.54172 0.0
C345 C 0.23295 0.91856 0.59545 0.0
N346 N 0.26178 0.0253 0.69393 0.0
N347 N 0.23683 0.94032 0.66415 0.0
H348 H 0.27173 0.78502 0.21537 0.0
H349 H 0.17752 0.65617 0.81978 0.0
H350 H 0.20239 0.78333 0.05894 0.0
H351 H 0.23128 0.64383 0.03473 0.0
H352 H 0.19664 0.7115 0.86956 0.0
H353 H 0.26625 0.74137 0.11478 0.0
C354 C 0.25545 0.77561 0.1597 0.0
C355 C 0.23708 0.78735 0.14734 0.0
C356 C 0.20459 0.6968 0.90419 0.0
C357 C 0.23102 0.73783 0.03122 0.0
C358 C 0.1937 0.66525 0.8759 0.0
C359 C 0.20227 0.645 0.92496 0.0
C360 C 0.22415 0.70808 -0.01803 0.0
C361 C 0.22389 0.65838 -0.00502 0.0
C362 C 0.25244 0.75083 0.102 0.0
C363 C 0.21666 0.77458 0.07279 0.0
N364 N 0.23372 0.6889 0.02274 0.0
N365 N 0.21405 0.75034 0.01811 0.0
H366 H 0.4969 0.09919 0.34994 0.0
H367 H 0.59785 0.25929 0.05111 0.0
H368 H 0.48455 0.18072 0.315 0.0
H369 H 0.61767 0.18534 0.13701 0.0
H370 H 0.56416 0.239 0.19451 0.0
H371 H 0.54712 0.13629 0.32568 0.0
C372 C 0.50489 0.12504 0.34075 0.0
C373 C 0.48656 0.13685 0.33095 0.0
C374 C 0.57643 0.22772 0.18419 0.0
C375 C 0.54376 0.17933 0.29983 0.0
C376 C 0.59564 0.23934 0.10212 0.0
C377 C 0.60984 0.2233 0.08055 0.0
C378 C 0.57083 0.19929 0.24279 0.0
C379 C 0.60675 0.19804 0.15002 0.0
C380 C 0.53359 0.14628 0.32665 0.0
C381 C 0.49794 0.17053 0.32119 0.0
N382 N 0.58693 0.18615 0.22629 0.0
N383 N 0.52577 0.19056 0.30249 0.0
H384 H 0.37747 0.58522 0.34602 0.0
H385 H 0.23894 0.52961 0.02429 0.0
H386 H 0.37928 0.62699 0.04168 0.0
H387 H 0.24306 0.47874 0.30279 0.0
H388 H 0.28955 0.56734 0.0305 0.0
H389 H 0.32733 0.54839 0.33414 0.0
C390 C 0.36728 0.58685 0.27689 0.0
C391 C 0.38269 0.60938 0.1949 0.0
C392 C 0.27931 0.54779 0.08983 0.0
C393 C 0.32498 0.56678 0.18015 0.0
C394 C 0.25042 0.52623 0.08633 0.0
C395 C 0.2366 0.50083 0.16298 0.0
C396 C 0.29442 0.5441 0.17102 0.0
C397 C 0.25265 0.49777 0.24163 0.0
C398 C 0.33862 0.56558 0.26977 0.0
C399 C 0.3683 0.60986 0.10649 0.0
N400 N 0.28053 0.51915 0.24374 0.0
N401 N 0.34026 0.58896 0.10154 0.0
H402 H 0.68807 0.46036 0.71753 0.0
H403 H 0.77574 0.38253 0.52505 0.0
H404 H 0.75806 0.51229 0.50306 0.0
H405 H 0.69413 0.32788 0.67283 0.0
H406 H 0.77445 0.43258 0.5388 0.0
H407 H 0.6951 0.41429 0.72489 0.0
C408 C 0.70513 0.46232 0.67255 0.0
C409 C 0.72235 0.49042 0.60891 0.0
C410 C 0.75697 0.40962 0.5689 0.0
C411 C 0.73049 0.43714 0.61704 0.0
C412 C 0.75777 0.38108 0.5617 0.0
C413 C 0.73495 0.35086 0.5973 0.0
C414 C 0.73335 0.40796 0.61338 0.0
C415 C 0.71212 0.3505 0.64342 0.0
C416 C 0.70907 0.43582 0.67663 0.0
C417 C 0.74416 0.49121 0.553 0.0
N418 N 0.71192 0.37845 0.64995 0.0
N419 N 0.74752 0.46495 0.55796 0.0
H420 H 0.39939 0.83598 0.18662 0.0
H421 H 0.54326 0.85801 0.3988 0.0
H422 H 0.44254 0.89309 0.43917 0.0
H423 H 0.49372 0.78955 0.17908 0.0
H424 H 0.50954 0.87619 0.39917 0.0
H425 H 0.43619 0.82306 0.17 0.0
C426 C 0.41652 0.8458 0.23878 0.0
C427 C 0.41763 0.86561 0.3148 0.0
C428 C 0.50615 0.85735 0.3503 0.0
C429 C 0.46024 0.85119 0.29496 0.0
C430 C 0.52553 0.84709 0.34948 0.0
C431 C 0.52132 0.82205 0.28919 0.0
C432 C 0.48238 0.84262 0.29008 0.0
C433 C 0.49778 0.80873 0.22745 0.0
C434 C 0.43766 0.83854 0.22876 0.0
C435 C 0.4408 0.87809 0.37853 0.0
N436 N 0.47919 0.81907 0.22984 0.0
N437 N 0.46106 0.8706 0.36737 0.0
H438 H 0.55935 0.35266 0.88584 0.0
H439 H 0.39322 0.24896 0.95668 0.0
H440 H 0.50687 0.39442 0.88742 0.0
H441 H 0.44513 0.20695 0.00662 0.0
H442 H 0.43504 0.30253 0.93516 0.0
H443 H 0.51828 0.29913 0.93174 0.0
C444 C 0.53923 0.35059 0.89602 0.0
C445 C 0.53658 0.37812 0.88277 0.0
C446 C 0.43736 0.28167 0.9517 0.0
C447 C 0.48956 0.31701 0.9354 0.0
C448 C 0.41343 0.25099 0.96399 0.0
C449 C 0.4156 0.22329 -0.0171 0.0
C450 C 0.46382 0.28486 0.9571 0.0
C451 C 0.44241 0.22759 -0.00772 0.0
C452 C 0.51584 0.32008 0.92283 0.0
C453 C 0.51003 0.37402 0.89801 0.0
N454 N 0.46549 0.25776 -0.02184 0.0
N455 N 0.48761 0.34411 0.9228 0.0
H456 H 0.19246 0.44276 0.94291 0.0
H457 H 0.1384 0.49899 0.45551 0.0
H458 H 0.10692 0.41211 0.87325 0.0
H459 H 0.21451 0.49669 0.44648 0.0
H460 H 0.13662 0.4904 0.64176 0.0
H461 H 0.20774 0.47838 0.78434 0.0
C462 C 0.17688 0.44284 0.89297 0.0
C463 C 0.14834 0.42437 0.92042 0.0
C464 C 0.15437 0.49313 0.59931 0.0
C465 C 0.16575 0.46615 0.74416 0.0
C466 C 0.1557 0.49879 0.4934 0.0
C467 C 0.17609 0.49735 0.43706 0.0
C468 C 0.1735 0.48593 0.64658 0.0
C469 C 0.1981 0.49708 0.48874 0.0
C470 C 0.18566 0.46374 0.80427 0.0
C471 C 0.12908 0.42584 0.85423 0.0
N472 N 0.1957 0.48997 0.59134 0.0
N473 N 0.13816 0.44665 0.76956 0.0
H474 H 0.75057 0.29961 0.2232 0.0
H475 H 0.79076 0.26666 0.81788 0.0
H476 H 0.68606 0.19936 0.28791 0.0
H477 H 0.70317 0.19509 0.81078 0.0
H478 H 0.78829 0.25806 0.00504 0.0
H479 H 0.76842 0.28408 0.08513 0.0
C480 C 0.74018 0.27422 0.20836 0.0
C481 C 0.71678 0.25078 0.26691 0.0
C482 C 0.76983 0.24346 0.96208 0.0
C483 C 0.73761 0.23251 0.10976 0.0
C484 C 0.77134 0.24818 0.85575 0.0
C485 C 0.74674 0.23273 0.80158 0.0
C486 C 0.74343 0.22432 0.01135 0.0
C487 C 0.7222 0.20848 0.85221 0.0
C488 C 0.7509 0.26519 0.13118 0.0
C489 C 0.70402 0.21827 0.24379 0.0
N490 N 0.72084 0.20565 0.95557 0.0
N491 N 0.71437 0.21014 0.1654 0.0
H492 H 0.5722 0.83787 0.06974 0.0
H493 H 0.502 0.72117 0.63443 0.0
H494 H 0.56187 0.74369 0.03549 0.0
H495 H 0.55402 0.82498 0.58516 0.0
H496 H 0.49568 0.72722 0.81463 0.0
H497 H 0.54176 0.82978 0.9244 0.0
C498 C 0.56351 0.81552 0.03206 0.0
C499 C 0.56988 0.79155 0.06342 0.0
C500 C 0.5073 0.74875 0.763 0.0
C501 C 0.53408 0.78165 0.90305 0.0
C502 C 0.51105 0.74525 0.66097 0.0
C503 C 0.52982 0.77258 0.59889 0.0
C504 C 0.52308 0.77954 0.80077 0.0
C505 C 0.54056 0.80336 0.63405 0.0
C506 C 0.54564 0.81066 0.95141 0.0
C507 C 0.55771 0.7629 0.01332 0.0
N508 N 0.53763 0.8061 0.7344 0.0
N509 N 0.54043 0.75879 0.93549 0.0
H510 H 0.63718 0.50635 0.27432 0.0
H511 H 0.74049 0.54841 0.80435 0.0
H512 H 0.71568 0.5104 0.31291 0.0
H513 H 0.68903 0.58898 0.86486 0.0
H514 H 0.72205 0.51347 0.96437 0.0
H515 H 0.64306 0.50788 0.08901 0.0
C516 C 0.6548 0.50558 0.24378 0.0
C517 C 0.67639 0.50917 0.30668 0.0
C518 C 0.7148 0.52993 0.94127 0.0
C519 C 0.68391 0.51263 0.09827 0.0
C520 C 0.72573 0.55036 0.85194 0.0
C521 C 0.71621 0.57158 0.82196 0.0
C522 C 0.69408 0.53064 -0.00135 0.0
C523 C 0.69688 0.57294 0.8854 0.0
C524 C 0.65836 0.50686 0.13842 0.0
C525 C 0.69895 0.50828 0.26489 0.0
N526 N 0.68625 0.55249 0.97027 0.0
N527 N 0.70276 0.5113 0.16194 0.0
H528 H 0.23803 0.78906 0.61061 0.0
H529 H 0.21196 0.87935 0.03831 0.0
H530 H 0.17925 0.82179 0.57811 0.0
H531 H 0.28265 0.8664 0.0062 0.0
H532 H 0.19007 0.84499 0.89605 0.0
H533 H 0.24014 0.79701 0.79291 0.0
C534 C 0.22445 0.7963 0.64318 0.0
C535 C 0.20921 0.80587 0.57982 0.0
C536 C 0.21028 0.8496 0.92115 0.0
C537 C 0.21297 0.81718 0.78451 0.0
C538 C 0.22297 0.86958 0.00095 0.0
C539 C 0.24907 0.87556 0.03475 0.0
C540 C 0.22387 0.83566 0.87545 0.0
C541 C 0.26247 0.8624 -0.01667 0.0
C542 C 0.22607 0.8015 0.74661 0.0
C543 C 0.19173 0.81482 0.62501 0.0
N544 N 0.24963 0.84297 0.90682 0.0
N545 N 0.19498 0.8217 0.72459 0.0
H546 H 0.36638 0.18701 0.74283 0.0
H547 H 0.37556 0.14159 0.18467 0.0
H548 H 0.39366 0.12238 0.65941 0.0
H549 H 0.31164 0.16015 0.27758 0.0
H550 H 0.39898 0.1601 0.34284 0.0
H551 H 0.36205 0.19937 0.5611 0.0
C552 C 0.37156 0.17558 0.68607 0.0
C553 C 0.37847 0.152 0.71496 0.0
C554 C 0.37978 0.16003 0.3286 0.0
C555 C 0.3756 0.16764 0.50962 0.0
C556 C 0.36633 0.14943 0.23792 0.0
C557 C 0.34118 0.1483 0.21861 0.0
C558 C 0.36715 0.16785 0.40351 0.0
C559 C 0.33074 0.15991 0.29078 0.0
C560 C 0.36952 0.18304 0.58295 0.0
C561 C 0.38732 0.13988 0.63963 0.0
N562 N 0.34336 0.16834 0.38223 0.0
N563 N 0.38517 0.14744 0.53976 0.0
loop_
_geom_bond_atom_site_label_1
_geom_bond_atom_site_label_2
_geom_bond_distance
_geom_bond_site_symmetry_2
_ccdc_geom_bond_type
Tb0 C10 2.825 1_556 S
Tb0 O11 2.347 1_556 S
Tb0 O14 2.366 1_556 S
Tb0 O19 2.418 . S
Tb0 O20 2.384 . S
Tb0 O23 2.479 . S
Tb0 O24 2.471 1_556 S
Eu1 O12 2.418 . S
Eu1 O13 2.384 . S
Eu1 O16 2.479 . S
Eu1 O17 2.471 1_554 S
Eu1 O18 2.347 1_554 S
Eu1 O21 2.366 1_554 S
Eu1 C31 2.825 1_554 S
C2 O18 1.259 . S
C2 O19 1.265 . S
C3 O20 1.255 . S
C3 O21 1.265 . S
C4 C6 1.380 . S
C4 C7 1.374 . S
C4 C10 1.507 . S
C5 C6 1.384 . S
C5 C9 1.387 . S
C5 H32 0.930 . S
C6 C4 1.380 . S
C6 C5 1.384 . S
C6 H33 0.931 1_554 S
C7 C4 1.374 . S
C7 C8 1.390 . S
C7 H34 0.930 . S
C8 C7 1.390 . S
C8 C9 1.391 . S
C8 H35 0.930 . S
C9 C5 1.387 . S
C9 C8 1.391 . S
C10 Tb0 2.825 1_554 S
C10 C4 1.507 . S
C10 O23 1.238 1_554 S
C10 O24 1.247 . S
O11 Tb0 2.347 1_554 S
O11 C15 1.259 . S
O12 Eu1 2.418 . S
O12 C15 1.265 . S
O13 Eu1 2.384 . S
O13 C22 1.255 . S
O14 Tb0 2.366 1_554 S
O14 C22 1.265 . S
C15 O11 1.259 . S
C15 O12 1.265 . S
O16 Eu1 2.479 . S
O16 C31 1.238 1_554 S
O17 Eu1 2.471 1_556 S
O17 C31 1.247 . S
O18 Eu1 2.347 1_556 S
O18 C2 1.259 . S
O19 Tb0 2.418 . S
O19 C2 1.265 . S
O20 Tb0 2.384 . S
O20 C3 1.255 . S
O21 Eu1 2.366 1_556 S
O21 C3 1.265 . S
C22 O13 1.255 . S
C22 O14 1.265 . S
O23 Tb0 2.479 . S
O23 C10 1.238 1_556 S
O24 Tb0 2.471 1_554 S
O24 C10 1.247 . S
C25 C28 1.380 . S
C25 C29 1.374 . S
C25 C31 1.507 . S
C26 C27 1.387 . S
C26 C30 1.391 . S
C27 C26 1.387 . S
C27 C28 1.384 . S
C27 H36 0.930 . S
C28 C25 1.380 . S
C28 C27 1.384 . S
C28 H37 0.931 1_556 S
C29 C25 1.374 . S
C29 C30 1.390 . S
C29 H38 0.930 . S
C30 C26 1.391 . S
C30 C29 1.390 . S
C30 H39 0.930 . S
C31 Eu1 2.825 1_556 S
C31 O16 1.238 1_556 S
C31 O17 1.247 . S
C31 C25 1.507 . S
H32 C5 0.930 . S
H33 C6 0.931 1_556 S
H34 C7 0.930 . S
H35 C8 0.930 . S
H36 C27 0.930 . S
H37 C28 0.931 1_554 S
H38 C29 0.930 . S
H39 C30 0.930 . S
Tb40 C50 2.825 1_556 S
Tb40 O51 2.347 1_556 S
Tb40 O54 2.366 . S
Tb40 O59 2.418 . S
Tb40 O60 2.384 . S
Tb40 O63 2.479 . S
Tb40 O64 2.471 1_556 S
Eu41 O52 2.418 . S
Eu41 O53 2.384 . S
Eu41 O56 2.479 . S
Eu41 O57 2.471 1_554 S
Eu41 O58 2.347 1_554 S
Eu41 O61 2.366 . S
Eu41 C71 2.825 1_554 S
C42 O58 1.259 . S
C42 O59 1.265 . S
C43 O60 1.255 . S
C43 O61 1.265 1_556 S
C44 C46 1.380 . S
C44 C47 1.374 . S
C44 C50 1.507 . S
C45 C46 1.384 . S
C45 C49 1.387 . S
C45 H72 0.930 . S
C46 C44 1.380 . S
C46 C45 1.384 . S
C46 H73 0.931 1_554 S
C47 C44 1.374 . S
C47 C48 1.390 . S
C47 H74 0.930 . S
C48 C47 1.390 . S
C48 C49 1.391 . S
C48 H75 0.930 . S
C49 C45 1.387 . S
C49 C48 1.391 . S
C50 Tb40 2.825 1_554 S
C50 C44 1.507 . S
C50 O63 1.238 1_554 S
C50 O64 1.247 . S
O51 Tb40 2.347 1_554 S
O51 C55 1.259 . S
O52 Eu41 2.418 . S
O52 C55 1.265 . S
O53 Eu41 2.384 . S
O53 C62 1.255 . S
O54 Tb40 2.366 . S
O54 C62 1.265 1_556 S
C55 O51 1.259 . S
C55 O52 1.265 . S
O56 Eu41 2.479 . S
O56 C71 1.238 1_554 S
O57 Eu41 2.471 1_556 S
O57 C71 1.247 . S
O58 Eu41 2.347 1_556 S
O58 C42 1.259 . S
O59 Tb40 2.418 . S
O59 C42 1.265 . S
O60 Tb40 2.384 . S
O60 C43 1.255 . S
O61 Eu41 2.366 . S
O61 C43 1.265 1_554 S
C62 O53 1.255 . S
C62 O54 1.265 1_554 S
O63 Tb40 2.479 . S
O63 C50 1.238 1_556 S
O64 Tb40 2.471 1_554 S
O64 C50 1.247 . S
C65 C68 1.380 . S
C65 C69 1.374 . S
C65 C71 1.507 . S
C66 C67 1.387 . S
C66 C70 1.391 . S
C67 C66 1.387 . S
C67 C68 1.384 . S
C67 H76 0.930 . S
C68 C65 1.380 . S
C68 C67 1.384 . S
C68 H77 0.931 1_556 S
C69 C65 1.374 . S
C69 C70 1.390 . S
C69 H78 0.930 . S
C70 C66 1.391 . S
C70 C69 1.390 . S
C70 H79 0.930 . S
C71 Eu41 2.825 1_556 S
C71 O56 1.238 1_556 S
C71 O57 1.247 . S
C71 C65 1.507 . S
H72 C45 0.930 . S
H73 C46 0.931 1_556 S
H74 C47 0.930 . S
H75 C48 0.930 . S
H76 C67 0.930 . S
H77 C68 0.931 1_554 S
H78 C69 0.930 . S
H79 C70 0.930 . S
Tb80 C90 2.825 . S
Tb80 O91 2.347 . S
Tb80 O94 2.366 . S
Tb80 O99 2.418 1_554 S
Tb80 O100 2.384 . S
Tb80 O103 2.479 . S
Tb80 O104 2.471 . S
Eu81 O92 2.418 . S
Eu81 O93 2.384 . S
Eu81 O96 2.479 . S
Eu81 O97 2.471 1_554 S
Eu81 O98 2.347 1_554 S
Eu81 O101 2.366 . S
Eu81 C111 2.825 . S
C82 O98 1.259 . S
C82 O99 1.265 . S
C83 O100 1.255 . S
C83 O101 1.265 . S
C84 C86 1.380 . S
C84 C87 1.374 . S
C84 C90 1.507 . S
C85 C86 1.384 . S
C85 C89 1.387 . S
C85 H112 0.930 . S
C86 C84 1.380 . S
C86 C85 1.384 . S
C86 H113 0.931 . S
C87 C84 1.374 . S
C87 C88 1.390 . S
C87 H114 0.930 . S
C88 C87 1.390 . S
C88 C89 1.391 . S
C88 H115 0.930 . S
C89 C85 1.387 . S
C89 C88 1.391 . S
C90 Tb80 2.825 . S
C90 C84 1.507 . S
C90 O103 1.238 . S
C90 O104 1.247 . S
O91 Tb80 2.347 . S
O91 C95 1.259 . S
O92 Eu81 2.418 . S
O92 C95 1.265 . S
O93 Eu81 2.384 . S
O93 C102 1.255 . S
O94 Tb80 2.366 . S
O94 C102 1.265 . S
C95 O91 1.259 . S
C95 O92 1.265 . S
O96 Eu81 2.479 . S
O96 C111 1.238 . S
O97 Eu81 2.471 1_556 S
O97 C111 1.247 1_556 S
O98 Eu81 2.347 1_556 S
O98 C82 1.259 . S
O99 Tb80 2.418 1_556 S
O99 C82 1.265 . S
O100 Tb80 2.384 . S
O100 C83 1.255 . S
O101 Eu81 2.366 . S
O101 C83 1.265 . S
C102 O93 1.255 . S
C102 O94 1.265 . S
O103 Tb80 2.479 . S
O103 C90 1.238 . S
O104 Tb80 2.471 . S
O104 C90 1.247 . S
C105 C108 1.380 . S
C105 C109 1.374 1_554 S
C105 C111 1.507 . S
C106 C107 1.387 1_556 S
C106 C110 1.391 . S
C107 C106 1.387 1_554 S
C107 C108 1.384 . S
C107 H116 0.930 . S
C108 C105 1.380 . S
C108 C107 1.384 . S
C108 H117 0.931 . S
C109 C105 1.374 1_556 S
C109 C110 1.390 . S
C109 H118 0.930 . S
C110 C106 1.391 . S
C110 C109 1.390 . S
C110 H119 0.930 . S
C111 Eu81 2.825 . S
C111 O96 1.238 . S
C111 O97 1.247 1_554 S
C111 C105 1.507 . S
H112 C85 0.930 . S
H113 C86 0.931 . S
H114 C87 0.930 . S
H115 C88 0.930 . S
H116 C107 0.930 . S
H117 C108 0.931 . S
H118 C109 0.930 . S
H119 C110 0.930 . S
Tb120 C130 2.825 . S
Tb120 O131 2.347 . S
Tb120 O134 2.366 . S
Tb120 O139 2.418 1_556 S
Tb120 O140 2.384 . S
Tb120 O143 2.479 . S
Tb120 O144 2.471 . S
Eu121 O132 2.418 . S
Eu121 O133 2.384 . S
Eu121 O136 2.479 . S
Eu121 O137 2.471 1_556 S
Eu121 O138 2.347 1_556 S
Eu121 O141 2.366 . S
Eu121 C151 2.825 1_556 S
C122 O138 1.259 . S
C122 O139 1.265 . S
C123 O140 1.255 . S
C123 O141 1.265 . S
C124 C126 1.380 . S
C124 C127 1.374 . S
C124 C130 1.507 . S
C125 C126 1.384 . S
C125 C129 1.387 . S
C125 H152 0.930 . S
C126 C124 1.380 . S
C126 C125 1.384 . S
C126 H153 0.931 . S
C127 C124 1.374 . S
C127 C128 1.390 . S
C127 H154 0.930 . S
C128 C127 1.390 . S
C128 C129 1.391 . S
C128 H155 0.930 . S
C129 C125 1.387 . S
C129 C128 1.391 . S
C130 Tb120 2.825 . S
C130 C124 1.507 . S
C130 O143 1.238 . S
C130 O144 1.247 . S
O131 Tb120 2.347 . S
O131 C135 1.259 . S
O132 Eu121 2.418 . S
O132 C135 1.265 . S
O133 Eu121 2.384 . S
O133 C142 1.255 . S
O134 Tb120 2.366 . S
O134 C142 1.265 . S
C135 O131 1.259 . S
C135 O132 1.265 . S
O136 Eu121 2.479 . S
O136 C151 1.238 1_556 S
O137 Eu121 2.471 1_554 S
O137 C151 1.247 . S
O138 Eu121 2.347 1_554 S
O138 C122 1.259 . S
O139 Tb120 2.418 1_554 S
O139 C122 1.265 . S
O140 Tb120 2.384 . S
O140 C123 1.255 . S
O141 Eu121 2.366 . S
O141 C123 1.265 . S
C142 O133 1.255 . S
C142 O134 1.265 . S
O143 Tb120 2.479 . S
O143 C130 1.238 . S
O144 Tb120 2.471 . S
O144 C130 1.247 . S
C145 C148 1.380 1_554 S
C145 C149 1.374 . S
C145 C151 1.507 . S
C146 C147 1.387 . S
C146 C150 1.391 . S
C147 C146 1.387 . S
C147 C148 1.384 1_554 S
C147 H156 0.930 1_554 S
C148 C145 1.380 1_556 S
C148 C147 1.384 1_556 S
C148 H157 0.931 . S
C149 C145 1.374 . S
C149 C150 1.390 . S
C149 H158 0.930 . S
C150 C146 1.391 . S
C150 C149 1.390 . S
C150 H159 0.930 . S
C151 Eu121 2.825 1_554 S
C151 O136 1.238 1_554 S
C151 O137 1.247 . S
C151 C145 1.507 . S
H152 C125 0.930 . S
H153 C126 0.931 . S
H154 C127 0.930 . S
H155 C128 0.930 . S
H156 C147 0.930 1_556 S
H157 C148 0.931 . S
H158 C149 0.930 . S
H159 C150 0.930 . S
Tb160 C170 2.825 . S
Tb160 O171 2.347 . S
Tb160 O174 2.366 . S
Tb160 O179 2.418 1_554 S
Tb160 O180 2.384 . S
Tb160 O183 2.479 . S
Tb160 O184 2.471 . S
Eu161 O172 2.418 . S
Eu161 O173 2.384 . S
Eu161 O176 2.479 . S
Eu161 O177 2.471 1_554 S
Eu161 O178 2.347 1_554 S
Eu161 O181 2.366 . S
Eu161 C191 2.825 1_554 S
C162 O178 1.259 . S
C162 O179 1.265 . S
C163 O180 1.255 . S
C163 O181 1.265 . S
C164 C166 1.380 . S
C164 C167 1.374 . S
C164 C170 1.507 . S
C165 C166 1.384 . S
C165 C169 1.387 . S
C165 H192 0.930 . S
C166 C164 1.380 . S
C166 C165 1.384 . S
C166 H193 0.931 . S
C167 C164 1.374 . S
C167 C168 1.390 . S
C167 H194 0.930 . S
C168 C167 1.390 . S
C168 C169 1.391 . S
C168 H195 0.930 . S
C169 C165 1.387 . S
C169 C168 1.391 . S
C170 Tb160 2.825 . S
C170 C164 1.507 . S
C170 O183 1.238 . S
C170 O184 1.247 . S
O171 Tb160 2.347 . S
O171 C175 1.259 . S
O172 Eu161 2.418 . S
O172 C175 1.265 . S
O173 Eu161 2.384 . S
O173 C182 1.255 . S
O174 Tb160 2.366 . S
O174 C182 1.265 . S
C175 O171 1.259 . S
C175 O172 1.265 . S
O176 Eu161 2.479 . S
O176 C191 1.238 1_554 S
O177 Eu161 2.471 1_556 S
O177 C191 1.247 . S
O178 Eu161 2.347 1_556 S
O178 C162 1.259 . S
O179 Tb160 2.418 1_556 S
O179 C162 1.265 . S
O180 Tb160 2.384 . S
O180 C163 1.255 . S
O181 Eu161 2.366 . S
O181 C163 1.265 . S
C182 O173 1.255 . S
C182 O174 1.265 . S
O183 Tb160 2.479 . S
O183 C170 1.238 . S
O184 Tb160 2.471 . S
O184 C170 1.247 . S
C185 C188 1.380 1_556 S
C185 C189 1.374 . S
C185 C191 1.507 . S
C186 C187 1.387 . S
C186 C190 1.391 . S
C187 C186 1.387 . S
C187 C188 1.384 1_556 S
C187 H196 0.930 1_556 S
C188 C185 1.380 1_554 S
C188 C187 1.384 1_554 S
C188 H197 0.931 . S
C189 C185 1.374 . S
C189 C190 1.390 . S
C189 H198 0.930 . S
C190 C186 1.391 . S
C190 C189 1.390 . S
C190 H199 0.930 . S
C191 Eu161 2.825 1_556 S
C191 O176 1.238 1_556 S
C191 O177 1.247 . S
C191 C185 1.507 . S
H192 C165 0.930 . S
H193 C166 0.931 . S
H194 C167 0.930 . S
H195 C168 0.930 . S
H196 C187 0.930 1_554 S
H197 C188 0.931 . S
H198 C189 0.930 . S
H199 C190 0.930 . S
Tb200 C210 2.825 1_554 S
Tb200 O211 2.347 1_554 S
Tb200 O214 2.366 1_554 S
Tb200 O219 2.418 . S
Tb200 O220 2.384 . S
Tb200 O223 2.479 . S
Tb200 O224 2.471 1_554 S
Eu201 O212 2.418 . S
Eu201 O213 2.384 . S
Eu201 O216 2.479 . S
Eu201 O217 2.471 1_556 S
Eu201 O218 2.347 1_556 S
Eu201 O221 2.366 1_556 S
Eu201 C231 2.825 1_556 S
C202 O218 1.259 . S
C202 O219 1.265 . S
C203 O220 1.255 . S
C203 O221 1.265 . S
C204 C206 1.380 . S
C204 C207 1.374 . S
C204 C210 1.507 . S
C205 C206 1.384 . S
C205 C209 1.387 . S
C205 H232 0.930 . S
C206 C204 1.380 . S
C206 C205 1.384 . S
C206 H233 0.931 1_556 S
C207 C204 1.374 . S
C207 C208 1.390 . S
C207 H234 0.930 . S
C208 C207 1.390 . S
C208 C209 1.391 . S
C208 H235 0.930 . S
C209 C205 1.387 . S
C209 C208 1.391 . S
C210 Tb200 2.825 1_556 S
C210 C204 1.507 . S
C210 O223 1.238 1_556 S
C210 O224 1.247 . S
O211 Tb200 2.347 1_556 S
O211 C215 1.259 . S
O212 Eu201 2.418 . S
O212 C215 1.265 . S
O213 Eu201 2.384 . S
O213 C222 1.255 . S
O214 Tb200 2.366 1_556 S
O214 C222 1.265 . S
C215 O211 1.259 . S
C215 O212 1.265 . S
O216 Eu201 2.479 . S
O216 C231 1.238 1_556 S
O217 Eu201 2.471 1_554 S
O217 C231 1.247 . S
O218 Eu201 2.347 1_554 S
O218 C202 1.259 . S
O219 Tb200 2.418 . S
O219 C202 1.265 . S
O220 Tb200 2.384 . S
O220 C203 1.255 . S
O221 Eu201 2.366 1_554 S
O221 C203 1.265 . S
C222 O213 1.255 . S
C222 O214 1.265 . S
O223 Tb200 2.479 . S
O223 C210 1.238 1_554 S
O224 Tb200 2.471 1_556 S
O224 C210 1.247 . S
C225 C228 1.380 . S
C225 C229 1.374 . S
C225 C231 1.507 . S
C226 C227 1.387 . S
C226 C230 1.391 . S
C227 C226 1.387 . S
C227 C228 1.384 . S
C227 H236 0.930 . S
C228 C225 1.380 . S
C228 C227 1.384 . S
C228 H237 0.931 1_554 S
C229 C225 1.374 . S
C229 C230 1.390 . S
C229 H238 0.930 . S
C230 C226 1.391 . S
C230 C229 1.390 . S
C230 H239 0.930 . S
C231 Eu201 2.825 1_554 S
C231 O216 1.238 1_554 S
C231 O217 1.247 . S
C231 C225 1.507 . S
H232 C205 0.930 . S
H233 C206 0.931 1_554 S
H234 C207 0.930 . S
H235 C208 0.930 . S
H236 C227 0.930 . S
H237 C228 0.931 1_556 S
H238 C229 0.930 . S
H239 C230 0.930 . S
H240 C246 0.930 . S
H241 C250 0.930 . S
H242 C255 0.929 . S
H243 C253 0.929 . S
H244 C248 0.929 . S
H245 C254 0.929 . S
C246 H240 0.930 . S
C246 C247 1.367 . S
C246 C254 1.378 . S
C247 C246 1.367 . S
C247 C255 1.433 . S
C248 H244 0.929 . S
C248 C250 1.378 . S
C248 C252 1.350 . S
C249 C252 1.463 . S
C249 C254 1.350 . S
C249 N257 1.427 . S
C250 H241 0.930 . S
C250 C248 1.378 . S
C250 C251 1.367 . S
C251 C250 1.367 . S
C251 C253 1.433 . S
C252 C248 1.350 . S
C252 C249 1.463 . S
C252 N256 1.427 . S
C253 H243 0.929 . S
C253 C251 1.433 . S
C253 N256 1.384 . S
C254 H245 0.929 . S
C254 C246 1.378 . S
C254 C249 1.350 . S
C255 H242 0.929 . S
C255 C247 1.433 . S
C255 N257 1.384 . S
N256 C252 1.427 . S
N256 C253 1.384 . S
N257 C249 1.427 . S
N257 C255 1.384 . S
H258 C264 0.930 . S
H259 C268 0.930 . S
H260 C273 0.929 . S
H261 C271 0.929 . S
H262 C266 0.929 . S
H263 C272 0.929 . S
C264 H258 0.930 . S
C264 C265 1.367 . S
C264 C272 1.378 . S
C265 C264 1.367 . S
C265 C273 1.433 . S
C266 H262 0.929 . S
C266 C268 1.378 . S
C266 C270 1.350 . S
C267 C270 1.463 1_455 S
C267 C272 1.350 . S
C267 N275 1.427 . S
C268 H259 0.930 . S
C268 C266 1.378 . S
C268 C269 1.367 . S
C269 C268 1.367 . S
C269 C271 1.433 . S
C270 C266 1.350 . S
C270 C267 1.463 1_655 S
C270 N274 1.427 . S
C271 H261 0.929 . S
C271 C269 1.433 . S
C271 N274 1.384 . S
C272 H263 0.929 . S
C272 C264 1.378 . S
C272 C267 1.350 . S
C273 H260 0.929 . S
C273 C265 1.433 . S
C273 N275 1.384 . S
N274 C270 1.427 . S
N274 C271 1.384 . S
N275 C267 1.427 . S
N275 C273 1.384 . S
H276 C282 0.930 . S
H277 C286 0.930 . S
H278 C291 0.929 . S
H279 C289 0.929 . S
H280 C284 0.929 1_565 S
H281 C290 0.929 . S
C282 H276 0.930 . S
C282 C283 1.367 . S
C282 C290 1.378 . S
C283 C282 1.367 . S
C283 C291 1.433 . S
C284 H280 0.929 1_545 S
C284 C286 1.378 1_545 S
C284 C288 1.350 . S
C285 C288 1.463 . S
C285 C290 1.350 . S
C285 N293 1.427 . S
C286 H277 0.930 . S
C286 C284 1.378 1_565 S
C286 C287 1.367 1_565 S
C287 C286 1.367 1_545 S
C287 C289 1.433 . S
C288 C284 1.350 . S
C288 C285 1.463 . S
C288 N292 1.427 . S
C289 H279 0.929 . S
C289 C287 1.433 . S
C289 N292 1.384 . S
C290 H281 0.929 . S
C290 C282 1.378 . S
C290 C285 1.350 . S
C291 H278 0.929 . S
C291 C283 1.433 . S
C291 N293 1.384 . S
N292 C288 1.427 . S
N292 C289 1.384 . S
N293 C285 1.427 . S
N293 C291 1.384 . S
H294 C300 0.930 . S
H295 C304 0.930 . S
H296 C309 0.929 . S
H297 C307 0.929 . S
H298 C302 0.929 . S
H299 C308 0.929 . S
C300 H294 0.930 . S
C300 C301 1.367 . S
C300 C308 1.378 . S
C301 C300 1.367 . S
C301 C309 1.433 . S
C302 H298 0.929 . S
C302 C304 1.378 . S
C302 C306 1.350 . S
C303 C306 1.463 . S
C303 C308 1.350 . S
C303 N311 1.427 . S
C304 H295 0.930 . S
C304 C302 1.378 . S
C304 C305 1.367 . S
C305 C304 1.367 . S
C305 C307 1.433 . S
C306 C302 1.350 . S
C306 C303 1.463 . S
C306 N310 1.427 . S
C307 H297 0.929 . S
C307 C305 1.433 . S
C307 N310 1.384 . S
C308 H299 0.929 . S
C308 C300 1.378 . S
C308 C303 1.350 . S
C309 H296 0.929 . S
C309 C301 1.433 . S
C309 N311 1.384 . S
N310 C306 1.427 . S
N310 C307 1.384 . S
N311 C303 1.427 . S
N311 C309 1.384 . S
H312 C318 0.958 . S
H313 C322 0.930 . S
H314 C327 0.929 . S
H315 C325 0.929 . S
H316 C320 0.929 . S
H317 C326 0.929 . S
C318 H312 0.958 . S
C318 C319 1.357 . S
C318 C326 1.361 1_455 S
C319 C318 1.357 . S
C319 C327 1.433 1_455 S
C320 H316 0.929 . S
C320 C322 1.378 . S
C320 C324 1.350 . S
C321 C324 1.463 . S
C321 C326 1.350 . S
C321 N329 1.427 . S
C322 H313 0.930 . S
C322 C320 1.378 . S
C322 C323 1.367 . S
C323 C322 1.367 . S
C323 C325 1.433 . S
C324 C320 1.350 . S
C324 C321 1.463 . S
C324 N328 1.427 . S
C325 H315 0.929 . S
C325 C323 1.433 . S
C325 N328 1.384 . S
C326 H317 0.929 . S
C326 C318 1.361 1_655 S
C326 C321 1.350 . S
C327 H314 0.929 . S
C327 C319 1.433 1_655 S
C327 N329 1.384 . S
N328 C324 1.427 . S
N328 C325 1.384 . S
N329 C321 1.427 . S
N329 C327 1.384 . S
H330 C336 0.930 1_545 S
H331 C340 0.930 . S
H332 C345 0.929 . S
H333 C343 0.929 . S
H334 C338 0.929 . S
H335 C344 0.929 . S
C336 H330 0.930 1_565 S
C336 C337 1.367 . S
C336 C344 1.378 1_565 S
C337 C336 1.367 . S
C337 C345 1.433 . S
C338 H334 0.929 . S
C338 C340 1.378 . S
C338 C342 1.350 . S
C339 C342 1.463 . S
C339 C344 1.350 1_565 S
C339 N347 1.427 . S
C340 H331 0.930 . S
C340 C338 1.378 . S
C340 C341 1.367 1_565 S
C341 C340 1.367 1_545 S
C341 C343 1.433 . S
C342 C338 1.350 . S
C342 C339 1.463 . S
C342 N346 1.427 1_565 S
C343 H333 0.929 . S
C343 C341 1.433 . S
C343 N346 1.384 . S
C344 H335 0.929 . S
C344 C336 1.378 1_545 S
C344 C339 1.350 1_545 S
C345 H332 0.929 . S
C345 C337 1.433 . S
C345 N347 1.384 . S
N346 C342 1.427 1_545 S
N346 C343 1.384 . S
N347 C339 1.427 . S
N347 C345 1.384 . S
H348 C354 0.930 . S
H349 C358 0.930 . S
H350 C363 0.929 . S
H351 C361 0.929 . S
H352 C356 0.929 . S
H353 C362 0.929 . S
C354 H348 0.930 . S
C354 C355 1.367 . S
C354 C362 1.378 . S
C355 C354 1.367 . S
C355 C363 1.433 1_556 S
C356 H352 0.929 . S
C356 C358 1.378 . S
C356 C360 1.350 . S
C357 C360 1.463 . S
C357 C362 1.350 . S
C357 N365 1.427 1_556 S
C358 H349 0.930 . S
C358 C356 1.378 . S
C358 C359 1.367 . S
C359 C358 1.367 . S
C359 C361 1.433 . S
C360 C356 1.350 . S
C360 C357 1.463 . S
C360 N364 1.427 . S
C361 H351 0.929 . S
C361 C359 1.433 . S
C361 N364 1.384 . S
C362 H353 0.929 . S
C362 C354 1.378 . S
C362 C357 1.350 . S
C363 H350 0.929 . S
C363 C355 1.433 1_554 S
C363 N365 1.384 . S
N364 C360 1.427 . S
N364 C361 1.384 . S
N365 C357 1.427 1_554 S
N365 C363 1.384 . S
H366 C372 0.930 . S
H367 C376 0.930 . S
H368 C381 0.929 . S
H369 C379 0.929 . S
H370 C374 0.929 . S
H371 C380 0.929 . S
C372 H366 0.930 . S
C372 C373 1.367 . S
C372 C380 1.378 . S
C373 C372 1.367 . S
C373 C381 1.433 . S
C374 H370 0.929 . S
C374 C376 1.378 . S
C374 C378 1.350 . S
C375 C378 1.463 . S
C375 C380 1.350 . S
C375 N383 1.427 . S
C376 H367 0.930 . S
C376 C374 1.378 . S
C376 C377 1.367 . S
C377 C376 1.367 . S
C377 C379 1.433 . S
C378 C374 1.350 . S
C378 C375 1.463 . S
C378 N382 1.427 . S
C379 H369 0.929 . S
C379 C377 1.433 . S
C379 N382 1.384 . S
C380 H371 0.929 . S
C380 C372 1.378 . S
C380 C375 1.350 . S
C381 H368 0.929 . S
C381 C373 1.433 . S
C381 N383 1.384 . S
N382 C378 1.427 . S
N382 C379 1.384 . S
N383 C375 1.427 . S
N383 C381 1.384 . S
H384 C390 0.930 1_554 S
H385 C394 0.930 . S
H386 C399 0.929 . S
H387 C397 0.930 . S
H388 C392 0.929 . S
H389 C398 0.929 1_554 S
C390 H384 0.930 1_556 S
C390 C391 1.367 . S
C390 C398 1.378 . S
C391 C390 1.367 . S
C391 C399 1.433 . S
C392 H388 0.929 . S
C392 C394 1.378 . S
C392 C396 1.350 . S
C393 C396 1.463 . S
C393 C398 1.350 . S
C393 N401 1.427 . S
C394 H385 0.930 . S
C394 C392 1.378 . S
C394 C395 1.367 . S
C395 C394 1.367 . S
C395 C397 1.432 1_556 S
C396 C392 1.350 . S
C396 C393 1.463 . S
C396 N400 1.427 . S
C397 H387 0.930 . S
C397 C395 1.432 1_554 S
C397 N400 1.384 1_554 S
C398 H389 0.929 1_556 S
C398 C390 1.378 . S
C398 C393 1.350 . S
C399 H386 0.929 . S
C399 C391 1.433 . S
C399 N401 1.384 . S
N400 C396 1.427 . S
N400 C397 1.384 1_556 S
N401 C393 1.427 . S
N401 C399 1.384 . S
H402 C408 0.930 . S
H403 C412 0.930 . S
H404 C417 0.929 . S
H405 C415 0.929 . S
H406 C410 0.929 . S
H407 C416 0.929 . S
C408 H402 0.930 . S
C408 C409 1.367 . S
C408 C416 1.378 . S
C409 C408 1.367 . S
C409 C417 1.433 1_554 S
C410 H406 0.929 . S
C410 C412 1.378 . S
C410 C414 1.350 1_556 S
C411 C414 1.463 . S
C411 C416 1.350 . S
C411 N419 1.427 1_554 S
C412 H403 0.930 . S
C412 C410 1.378 . S
C412 C413 1.367 1_556 S
C413 C412 1.367 1_554 S
C413 C415 1.433 . S
C414 C410 1.350 1_554 S
C414 C411 1.463 . S
C414 N418 1.427 . S
C415 H405 0.929 . S
C415 C413 1.433 . S
C415 N418 1.384 . S
C416 H407 0.929 . S
C416 C408 1.378 . S
C416 C411 1.350 . S
C417 H404 0.929 . S
C417 C409 1.433 1_556 S
C417 N419 1.384 . S
N418 C414 1.427 . S
N418 C415 1.384 . S
N419 C411 1.427 1_556 S
N419 C417 1.384 . S
H420 C426 0.930 . S
H421 C430 0.930 . S
H422 C435 0.929 . S
H423 C433 0.929 . S
H424 C428 0.929 . S
H425 C434 0.929 . S
C426 H420 0.930 . S
C426 C427 1.367 . S
C426 C434 1.378 . S
C427 C426 1.367 . S
C427 C435 1.433 1_556 S
C428 H424 0.929 . S
C428 C430 1.378 . S
C428 C432 1.350 1_554 S
C429 C432 1.463 . S
C429 C434 1.350 . S
C429 N437 1.427 1_556 S
C430 H421 0.930 . S
C430 C428 1.378 . S
C430 C431 1.367 . S
C431 C430 1.367 . S
C431 C433 1.433 1_554 S
C432 C428 1.350 1_556 S
C432 C429 1.463 . S
C432 N436 1.427 . S
C433 H423 0.929 . S
C433 C431 1.433 1_556 S
C433 N436 1.384 . S
C434 H425 0.929 . S
C434 C426 1.378 . S
C434 C429 1.350 . S
C435 H422 0.929 . S
C435 C427 1.433 1_554 S
C435 N437 1.384 . S
N436 C432 1.427 . S
N436 C433 1.384 . S
N437 C429 1.427 1_554 S
N437 C435 1.384 . S
H438 C444 0.930 1_556 S
H439 C448 0.930 . S
H440 C453 0.929 . S
H441 C451 0.929 . S
H442 C446 0.929 . S
H443 C452 0.929 1_556 S
C444 H438 0.930 1_554 S
C444 C445 1.367 . S
C444 C452 1.378 . S
C445 C444 1.367 . S
C445 C453 1.433 . S
C446 H442 0.929 . S
C446 C448 1.378 . S
C446 C450 1.350 . S
C447 C450 1.463 . S
C447 C452 1.350 . S
C447 N455 1.427 . S
C448 H439 0.930 . S
C448 C446 1.378 . S
C448 C449 1.367 . S
C449 C448 1.367 . S
C449 C451 1.433 1_554 S
C450 C446 1.350 . S
C450 C447 1.463 . S
C450 N454 1.427 1_554 S
C451 H441 0.929 . S
C451 C449 1.433 1_556 S
C451 N454 1.384 . S
C452 H443 0.929 1_554 S
C452 C444 1.378 . S
C452 C447 1.350 . S
C453 H440 0.929 . S
C453 C445 1.433 . S
C453 N455 1.384 . S
N454 C450 1.427 1_556 S
N454 C451 1.384 . S
N455 C447 1.427 . S
N455 C453 1.384 . S
H456 C462 0.930 . S
H457 C466 0.930 . S
H458 C471 0.929 . S
H459 C469 0.929 . S
H460 C464 0.929 . S
H461 C470 0.929 . S
C462 H456 0.930 . S
C462 C463 1.367 . S
C462 C470 1.378 . S
C463 C462 1.367 . S
C463 C471 1.433 . S
C464 H460 0.929 . S
C464 C466 1.378 . S
C464 C468 1.350 . S
C465 C468 1.463 . S
C465 C470 1.350 . S
C465 N473 1.427 . S
C466 H457 0.930 . S
C466 C464 1.378 . S
C466 C467 1.367 . S
C467 C466 1.367 . S
C467 C469 1.433 . S
C468 C464 1.350 . S
C468 C465 1.463 . S
C468 N472 1.427 . S
C469 H459 0.929 . S
C469 C467 1.433 . S
C469 N472 1.384 . S
C470 H461 0.929 . S
C470 C462 1.378 . S
C470 C465 1.350 . S
C471 H458 0.929 . S
C471 C463 1.433 . S
C471 N473 1.384 . S
N472 C468 1.427 . S
N472 C469 1.384 . S
N473 C465 1.427 . S
N473 C471 1.384 . S
H474 C480 0.930 . S
H475 C484 0.930 . S
H476 C489 0.929 . S
H477 C487 0.929 . S
H478 C482 0.929 . S
H479 C488 0.929 . S
C480 H474 0.930 . S
C480 C481 1.367 . S
C480 C488 1.378 . S
C481 C480 1.367 . S
C481 C489 1.433 . S
C482 H478 0.929 . S
C482 C484 1.378 . S
C482 C486 1.350 . S
C483 C486 1.463 . S
C483 C488 1.350 . S
C483 N491 1.427 . S
C484 H475 0.930 . S
C484 C482 1.378 . S
C484 C485 1.367 . S
C485 C484 1.367 . S
C485 C487 1.433 . S
C486 C482 1.350 . S
C486 C483 1.463 . S
C486 N490 1.427 . S
C487 H477 0.929 . S
C487 C485 1.433 . S
C487 N490 1.384 . S
C488 H479 0.929 . S
C488 C480 1.378 . S
C488 C483 1.350 . S
C489 H476 0.929 . S
C489 C481 1.433 . S
C489 N491 1.384 . S
N490 C486 1.427 . S
N490 C487 1.384 . S
N491 C483 1.427 . S
N491 C489 1.384 . S
H492 C498 0.930 . S
H493 C502 0.930 . S
H494 C507 0.929 . S
H495 C505 0.929 . S
H496 C500 0.929 . S
H497 C506 0.929 . S
C498 H492 0.930 . S
C498 C499 1.367 . S
C498 C506 1.378 . S
C499 C498 1.367 . S
C499 C507 1.433 . S
C500 H496 0.929 . S
C500 C502 1.378 . S
C500 C504 1.350 . S
C501 C504 1.463 . S
C501 C506 1.350 . S
C501 N509 1.427 . S
C502 H493 0.930 . S
C502 C500 1.378 . S
C502 C503 1.367 . S
C503 C502 1.367 . S
C503 C505 1.433 . S
C504 C500 1.350 . S
C504 C501 1.463 . S
C504 N508 1.427 . S
C505 H495 0.929 . S
C505 C503 1.433 . S
C505 N508 1.384 . S
C506 H497 0.929 . S
C506 C498 1.378 . S
C506 C501 1.350 . S
C507 H494 0.929 . S
C507 C499 1.433 . S
C507 N509 1.384 . S
N508 C504 1.427 . S
N508 C505 1.384 . S
N509 C501 1.427 . S
N509 C507 1.384 . S
H510 C516 0.930 . S
H511 C520 0.930 . S
H512 C525 0.929 . S
H513 C523 0.929 . S
H514 C518 0.929 . S
H515 C524 0.929 . S
C516 H510 0.930 . S
C516 C517 1.367 . S
C516 C524 1.378 . S
C517 C516 1.367 . S
C517 C525 1.433 . S
C518 H514 0.929 . S
C518 C520 1.378 . S
C518 C522 1.350 . S
C519 C522 1.463 . S
C519 C524 1.350 . S
C519 N527 1.427 . S
C520 H511 0.930 . S
C520 C518 1.378 . S
C520 C521 1.367 . S
C521 C520 1.367 . S
C521 C523 1.433 . S
C522 C518 1.350 . S
C522 C519 1.463 . S
C522 N526 1.427 . S
C523 H513 0.929 . S
C523 C521 1.433 . S
C523 N526 1.384 . S
C524 H515 0.929 . S
C524 C516 1.378 . S
C524 C519 1.350 . S
C525 H512 0.929 . S
C525 C517 1.433 . S
C525 N527 1.384 . S
N526 C522 1.427 . S
N526 C523 1.384 . S
N527 C519 1.427 . S
N527 C525 1.384 . S
H528 C534 0.930 . S
H529 C538 0.930 . S
H530 C543 0.929 . S
H531 C541 0.929 . S
H532 C536 0.929 . S
H533 C542 0.929 . S
C534 H528 0.930 . S
C534 C535 1.367 . S
C534 C542 1.378 . S
C535 C534 1.367 . S
C535 C543 1.433 . S
C536 H532 0.929 . S
C536 C538 1.378 . S
C536 C540 1.350 . S
C537 C540 1.463 . S
C537 C542 1.350 . S
C537 N545 1.427 . S
C538 H529 0.930 . S
C538 C536 1.378 . S
C538 C539 1.367 . S
C539 C538 1.367 . S
C539 C541 1.433 . S
C540 C536 1.350 . S
C540 C537 1.463 . S
C540 N544 1.427 . S
C541 H531 0.929 . S
C541 C539 1.433 . S
C541 N544 1.384 . S
C542 H533 0.929 . S
C542 C534 1.378 . S
C542 C537 1.350 . S
C543 H530 0.929 . S
C543 C535 1.433 . S
C543 N545 1.384 . S
N544 C540 1.427 . S
N544 C541 1.384 . S
N545 C537 1.427 . S
N545 C543 1.384 . S
H546 C552 0.930 . S
H547 C556 0.930 . S
H548 C561 0.929 . S
H549 C559 0.929 . S
H550 C554 0.929 . S
H551 C560 0.929 . S
C552 H546 0.930 . S
C552 C553 1.367 . S
C552 C560 1.378 . S
C553 C552 1.367 . S
C553 C561 1.433 . S
C554 H550 0.929 . S
C554 C556 1.378 . S
C554 C558 1.350 . S
C555 C558 1.463 . S
C555 C560 1.350 . S
C555 N563 1.427 . S
C556 H547 0.930 . S
C556 C554 1.378 . S
C556 C557 1.367 . S
C557 C556 1.367 . S
C557 C559 1.433 . S
C558 C554 1.350 . S
C558 C555 1.463 . S
C558 N562 1.427 . S
C559 H549 0.929 . S
C559 C557 1.433 . S
C559 N562 1.384 . S
C560 H551 0.929 . S
C560 C552 1.378 . S
C560 C555 1.350 . S
C561 H548 0.929 . S
C561 C553 1.433 . S
C561 N563 1.384 . S
N562 C558 1.427 . S
N562 C559 1.384 . S
N563 C555 1.427 . S
N563 C561 1.384 . S
C247 C209 1.936 . S
C251 C9 2.084 . S
C265 C22 3.570 . S
C269 C66 3.399 . S
C283 C43 2.729 . S
C287 C89 2.497 1_545 S
C301 C142 4.420 . S
C305 C102 4.339 . S
C319 C169 2.537 . S
C323 C129 2.656 . S
C337 C182 2.878 . S
C341 C222 2.787 . S
C355 C163 1.521 1_556 S
C359 C26 1.428 . S
C373 C226 1.150 . S
C377 C49 1.123 . S
C391 C106 2.198 . S
C395 C3 2.206 . S
C409 C123 3.902 1_554 S
C413 C62 3.930 . S
C427 C186 3.048 . S
C431 C83 3.121 . S
C445 C146 2.183 . S
C449 C203 2.274 . S
C463 C2 0.412 . S
C467 C15 0.412 . S
C481 C42 0.506 . S
C485 C55 0.506 . S
C499 C82 0.414 . S
C503 C95 0.414 . S
C517 C135 0.399 . S
C521 C122 0.399 . S
C535 C175 0.529 . S
C539 C162 0.529 . S
C553 C215 0.466 . S
C557 C202 0.466 . S
