# Generated by pormake.
# Topology lcv-e, (6)-cn, num edge types: 1
# Building blocks:
#     Node 0, Type 0, BuildingBlock: KUMBUR_clean_sbu_1, # of connection points: 6
#     Node 1, Type 0, BuildingBlock: KUMBUR_clean_sbu_1, # of connection points: 6
#     Node 2, Type 0, BuildingBlock: KUMBUR_clean_sbu_1, # of connection points: 6
#     Node 3, Type 0, BuildingBlock: KUMBUR_clean_sbu_1, # of connection points: 6
#     Node 4, Type 0, BuildingBlock: KUMBUR_clean_sbu_1, # of connection points: 6
#     Node 5, Type 0, BuildingBlock: KUMBUR_clean_sbu_1, # of connection points: 6
#     Node 6, Type 0, BuildingBlock: KUMBUR_clean_sbu_1, # of connection points: 6
#     Node 7, Type 0, BuildingBlock: KUMBUR_clean_sbu_1, # of connection points: 6
#     Node 8, Type 0, BuildingBlock: KUMBUR_clean_sbu_1, # of connection points: 6
#     Node 9, Type 0, BuildingBlock: KUMBUR_clean_sbu_1, # of connection points: 6
#     Node 10, Type 0, BuildingBlock: KUMBUR_clean_sbu_1, # of connection points: 6
#     Node 11, Type 0, BuildingBlock: KUMBUR_clean_sbu_1, # of connection points: 6
#     Node 12, Type 0, BuildingBlock: KUMBUR_clean_sbu_1, # of connection points: 6
#     Node 13, Type 0, BuildingBlock: KUMBUR_clean_sbu_1, # of connection points: 6
#     Node 14, Type 0, BuildingBlock: KUMBUR_clean_sbu_1, # of connection points: 6
#     Node 15, Type 0, BuildingBlock: KUMBUR_clean_sbu_1, # of connection points: 6
#     Node 16, Type 0, BuildingBlock: KUMBUR_clean_sbu_1, # of connection points: 6
#     Node 17, Type 0, BuildingBlock: KUMBUR_clean_sbu_1, # of connection points: 6
#     Node 18, Type 0, BuildingBlock: KUMBUR_clean_sbu_1, # of connection points: 6
#     Node 19, Type 0, BuildingBlock: KUMBUR_clean_sbu_1, # of connection points: 6
#     Node 20, Type 0, BuildingBlock: KUMBUR_clean_sbu_1, # of connection points: 6
#     Node 21, Type 0, BuildingBlock: KUMBUR_clean_sbu_1, # of connection points: 6
#     Node 22, Type 0, BuildingBlock: KUMBUR_clean_sbu_1, # of connection points: 6
#     Node 23, Type 0, BuildingBlock: KUMBUR_clean_sbu_1, # of connection points: 6
#     Edge 24, Type (0, 0), BuildingBlock: ZUJKAS_clean_linker_0, # of connection points: 2
#     Edge 25, Type (0, 0), BuildingBlock: ZUJKAS_clean_linker_0, # of connection points: 2
#     Edge 26, Type (0, 0), BuildingBlock: ZUJKAS_clean_linker_0, # of connection points: 2
#     Edge 27, Type (0, 0), BuildingBlock: ZUJKAS_clean_linker_0, # of connection points: 2
#     Edge 28, Type (0, 0), BuildingBlock: ZUJKAS_clean_linker_0, # of connection points: 2
#     Edge 29, Type (0, 0), BuildingBlock: ZUJKAS_clean_linker_0, # of connection points: 2
#     Edge 30, Type (0, 0), BuildingBlock: ZUJKAS_clean_linker_0, # of connection points: 2
#     Edge 31, Type (0, 0), BuildingBlock: ZUJKAS_clean_linker_0, # of connection points: 2
#     Edge 32, Type (0, 0), BuildingBlock: ZUJKAS_clean_linker_0, # of connection points: 2
#     Edge 33, Type (0, 0), BuildingBlock: ZUJKAS_clean_linker_0, # of connection points: 2
#     Edge 34, Type (0, 0), BuildingBlock: ZUJKAS_clean_linker_0, # of connection points: 2
#     Edge 35, Type (0, 0), BuildingBlock: ZUJKAS_clean_linker_0, # of connection points: 2
#     Edge 36, Type (0, 0), BuildingBlock: ZUJKAS_clean_linker_0, # of connection points: 2
#     Edge 37, Type (0, 0), BuildingBlock: ZUJKAS_clean_linker_0, # of connection points: 2
#     Edge 38, Type (0, 0), BuildingBlock: ZUJKAS_clean_linker_0, # of connection points: 2
#     Edge 39, Type (0, 0), BuildingBlock: ZUJKAS_clean_linker_0, # of connection points: 2
#     Edge 40, Type (0, 0), BuildingBlock: ZUJKAS_clean_linker_0, # of connection points: 2
#     Edge 41, Type (0, 0), BuildingBlock: ZUJKAS_clean_linker_0, # of connection points: 2
#     Edge 42, Type (0, 0), BuildingBlock: ZUJKAS_clean_linker_0, # of connection points: 2
#     Edge 43, Type (0, 0), BuildingBlock: ZUJKAS_clean_linker_0, # of connection points: 2
#     Edge 44, Type (0, 0), BuildingBlock: ZUJKAS_clean_linker_0, # of connection points: 2
#     Edge 45, Type (0, 0), BuildingBlock: ZUJKAS_clean_linker_0, # of connection points: 2
#     Edge 46, Type (0, 0), BuildingBlock: ZUJKAS_clean_linker_0, # of connection points: 2
#     Edge 47, Type (0, 0), BuildingBlock: ZUJKAS_clean_linker_0, # of connection points: 2
#     Edge 48, Type (0, 0), BuildingBlock: ZUJKAS_clean_linker_0, # of connection points: 2
#     Edge 49, Type (0, 0), BuildingBlock: ZUJKAS_clean_linker_0, # of connection points: 2
#     Edge 50, Type (0, 0), BuildingBlock: ZUJKAS_clean_linker_0, # of connection points: 2
#     Edge 51, Type (0, 0), BuildingBlock: ZUJKAS_clean_linker_0, # of connection points: 2
#     Edge 52, Type (0, 0), BuildingBlock: ZUJKAS_clean_linker_0, # of connection points: 2
#     Edge 53, Type (0, 0), BuildingBlock: ZUJKAS_clean_linker_0, # of connection points: 2
#     Edge 54, Type (0, 0), BuildingBlock: ZUJKAS_clean_linker_0, # of connection points: 2
#     Edge 55, Type (0, 0), BuildingBlock: ZUJKAS_clean_linker_0, # of connection points: 2
#     Edge 56, Type (0, 0), BuildingBlock: ZUJKAS_clean_linker_0, # of connection points: 2
#     Edge 57, Type (0, 0), BuildingBlock: ZUJKAS_clean_linker_0, # of connection points: 2
#     Edge 58, Type (0, 0), BuildingBlock: ZUJKAS_clean_linker_0, # of connection points: 2
#     Edge 59, Type (0, 0), BuildingBlock: ZUJKAS_clean_linker_0, # of connection points: 2
#     Edge 60, Type (0, 0), BuildingBlock: ZUJKAS_clean_linker_0, # of connection points: 2
#     Edge 61, Type (0, 0), BuildingBlock: ZUJKAS_clean_linker_0, # of connection points: 2
#     Edge 62, Type (0, 0), BuildingBlock: ZUJKAS_clean_linker_0, # of connection points: 2
#     Edge 63, Type (0, 0), BuildingBlock: ZUJKAS_clean_linker_0, # of connection points: 2
#     Edge 64, Type (0, 0), BuildingBlock: ZUJKAS_clean_linker_0, # of connection points: 2
#     Edge 65, Type (0, 0), BuildingBlock: ZUJKAS_clean_linker_0, # of connection points: 2
#     Edge 66, Type (0, 0), BuildingBlock: ZUJKAS_clean_linker_0, # of connection points: 2
#     Edge 67, Type (0, 0), BuildingBlock: ZUJKAS_clean_linker_0, # of connection points: 2
#     Edge 68, Type (0, 0), BuildingBlock: ZUJKAS_clean_linker_0, # of connection points: 2
#     Edge 69, Type (0, 0), BuildingBlock: ZUJKAS_clean_linker_0, # of connection points: 2
#     Edge 70, Type (0, 0), BuildingBlock: ZUJKAS_clean_linker_0, # of connection points: 2
#     Edge 71, Type (0, 0), BuildingBlock: ZUJKAS_clean_linker_0, # of connection points: 2
#     Edge 72, Type (0, 0), BuildingBlock: ZUJKAS_clean_linker_0, # of connection points: 2
#     Edge 73, Type (0, 0), BuildingBlock: ZUJKAS_clean_linker_0, # of connection points: 2
#     Edge 74, Type (0, 0), BuildingBlock: ZUJKAS_clean_linker_0, # of connection points: 2
#     Edge 75, Type (0, 0), BuildingBlock: ZUJKAS_clean_linker_0, # of connection points: 2
#     Edge 76, Type (0, 0), BuildingBlock: ZUJKAS_clean_linker_0, # of connection points: 2
#     Edge 77, Type (0, 0), BuildingBlock: ZUJKAS_clean_linker_0, # of connection points: 2
#     Edge 78, Type (0, 0), BuildingBlock: ZUJKAS_clean_linker_0, # of connection points: 2
#     Edge 79, Type (0, 0), BuildingBlock: ZUJKAS_clean_linker_0, # of connection points: 2
#     Edge 80, Type (0, 0), BuildingBlock: ZUJKAS_clean_linker_0, # of connection points: 2
#     Edge 81, Type (0, 0), BuildingBlock: ZUJKAS_clean_linker_0, # of connection points: 2
#     Edge 82, Type (0, 0), BuildingBlock: ZUJKAS_clean_linker_0, # of connection points: 2
#     Edge 83, Type (0, 0), BuildingBlock: ZUJKAS_clean_linker_0, # of connection points: 2
#     Edge 84, Type (0, 0), BuildingBlock: ZUJKAS_clean_linker_0, # of connection points: 2
#     Edge 85, Type (0, 0), BuildingBlock: ZUJKAS_clean_linker_0, # of connection points: 2
#     Edge 86, Type (0, 0), BuildingBlock: ZUJKAS_clean_linker_0, # of connection points: 2
#     Edge 87, Type (0, 0), BuildingBlock: ZUJKAS_clean_linker_0, # of connection points: 2
#     Edge 88, Type (0, 0), BuildingBlock: ZUJKAS_clean_linker_0, # of connection points: 2
#     Edge 89, Type (0, 0), BuildingBlock: ZUJKAS_clean_linker_0, # of connection points: 2
#     Edge 90, Type (0, 0), BuildingBlock: ZUJKAS_clean_linker_0, # of connection points: 2
#     Edge 91, Type (0, 0), BuildingBlock: ZUJKAS_clean_linker_0, # of connection points: 2
#     Edge 92, Type (0, 0), BuildingBlock: ZUJKAS_clean_linker_0, # of connection points: 2
#     Edge 93, Type (0, 0), BuildingBlock: ZUJKAS_clean_linker_0, # of connection points: 2
#     Edge 94, Type (0, 0), BuildingBlock: ZUJKAS_clean_linker_0, # of connection points: 2
#     Edge 95, Type (0, 0), BuildingBlock: ZUJKAS_clean_linker_0, # of connection points: 2
# Relax obj value: 0.388
# Max RMSD: 0.299
# Mean RMSD: 0.295
data_MOF--net-lcv-e--node1-KUMBUR_clean_sbu_1--edge1-ZUJKAS_clean_linker_0
_symmetry_space_group_name_H-M    P1
_symmetry_Int_Tables_number       1
_symmetry_cell_setting            triclinic
loop_
_symmetry_equiv_pos_as_xyz
'x, y, z'
_cell_length_a     82.831331
_cell_length_b     82.802664
_cell_length_c     82.604253
_cell_angle_alpha  89.994234
_cell_angle_beta   89.928924
_cell_angle_gamma 89.859291
loop_
_atom_site_label
_atom_site_type_symbol
_atom_site_fract_x
_atom_site_fract_y
_atom_site_fract_z
_atom_type_partial_charge
Tb0 Tb 0.07301 0.15473 0.26104 0.0
C1 C 1.01444 0.11695 0.24326 0.0
N2 N 0.02727 0.11938 0.23336 0.0
C3 C 0.02313 0.09357 0.22083 0.0
C4 C 1.00523 0.1027 0.24214 0.0
C5 C 0.03198 0.10783 0.22245 0.0
C6 C 1.00959 0.09106 0.2306 0.0
C7 C 0.99804 0.12605 0.2658 0.0
C8 C 1.01107 0.12847 0.25508 0.0
C9 C 0.9886 0.11202 0.26451 0.0
C10 C 0.99219 0.10039 0.25273 0.0
Tb11 Tb 0.03919 0.14397 0.23556 0.0
N12 N 1.02055 0.1419 0.2561 0.0
C13 C 0.99476 0.13784 0.27746 0.0
C14 C 1.01699 0.15366 0.26721 0.0
C15 C 1.00424 0.15171 0.27812 0.0
H16 H 0.04242 0.10976 0.21483 0.0
H17 H 1.0017 0.16096 0.28703 0.0
H18 H 0.06493 0.18951 0.2795 0.0
H19 H 0.12832 0.11926 0.26499 0.0
H20 H 0.02399 0.16457 0.26809 0.0
H21 H 0.98487 0.13641 0.28594 0.0
H22 H 0.09918 0.12286 0.26369 0.0
H23 H 0.02675 0.08455 0.21206 0.0
H24 H 0.97853 0.11002 0.27264 0.0
H25 H 0.98491 0.08956 0.25201 0.0
H26 H 0.07999 0.21399 0.28715 0.0
H27 H 1.00278 0.07998 0.22936 0.0
H28 H 0.14623 0.14278 0.26898 0.0
N29 N 0.08599 0.17607 0.2731 0.0
C30 C 0.10225 0.17576 0.27313 0.0
C31 C 0.08645 0.20334 0.28312 0.0
C32 C 0.11143 0.1894 0.27741 0.0
C33 C 0.07797 0.18942 0.27874 0.0
C34 C 0.10329 0.20346 0.28212 0.0
N35 N 0.09972 0.14853 0.26707 0.0
C36 C 0.10642 0.13341 0.26577 0.0
C37 C 0.12642 0.15978 0.27069 0.0
C38 C 0.10948 0.16131 0.26995 0.0
C39 C 0.13326 0.1445 0.26858 0.0
C40 C 0.12318 0.13122 0.2664 0.0
H41 H 0.10986 0.21425 0.28548 0.0
H42 H 0.1357 0.19875 0.2802 0.0
H43 H 0.14892 0.17269 0.27421 0.0
O44 O 0.06693 0.15706 0.28552 0.0
O45 O 0.07623 0.16796 0.23821 0.0
O46 O 0.05673 0.15713 0.2214 0.0
O47 O 0.04994 0.14765 0.26814 0.0
O48 O 0.08261 0.13873 0.24257 0.0
O49 O 0.06143 0.13344 0.22475 0.0
O50 O 1.01916 0.15615 0.22629 0.0
O51 O 0.04655 0.1217 0.25008 0.0
O52 O 0.07166 0.12684 0.26111 0.0
O53 O 0.032 0.13891 0.21158 0.0
O54 O 0.03692 0.17059 0.24375 0.0
O55 O 0.06209 0.17836 0.25226 0.0
C56 C 0.06934 0.16626 0.22393 0.0
C57 C 0.05241 0.13457 0.2936 0.0
C58 C 0.0671 0.11228 0.30653 0.0
C59 C 0.05271 0.10791 0.31453 0.0
C60 C 0.03825 0.13003 0.30155 0.0
C61 C 0.03841 0.11665 0.31191 0.0
C62 C 0.06653 0.12554 0.296 0.0
C63 C 0.07668 0.13212 0.2294 0.0
C64 C 0.05343 0.1492 0.28351 0.0
C65 C 0.12836 0.18834 0.27727 0.0
C66 C 0.13587 0.17351 0.27387 0.0
C67 C 0.05979 0.11627 0.25757 0.0
C68 C 1.00478 0.14504 0.20464 0.0
C69 C 0.9825 0.15679 0.18997 0.0
C70 C 0.9778 0.14141 0.18466 0.0
C71 C 1.00016 0.12956 0.19957 0.0
C72 C 0.99565 0.15837 0.20024 0.0
C73 C 0.98644 0.12776 0.18982 0.0
C74 C 0.0472 0.18248 0.24772 0.0
C75 C 1.02001 0.14886 0.21244 0.0
H76 H 0.05244 0.09805 0.3231 0.0
H77 H 0.02724 0.13691 0.29999 0.0
H78 H 0.02748 0.11322 0.31821 0.0
H79 H 0.07722 0.12916 0.28954 0.0
H80 H 0.96783 0.14004 0.1763 0.0
H81 H 1.00727 0.11906 0.20265 0.0
H82 H 0.99974 0.17037 0.20366 0.0
H83 H 0.98292 0.11587 0.18569 0.0
Tb84 Tb 0.14179 0.81814 0.51124 0.0
C85 C 0.17725 0.76024 0.4962 0.0
N86 N 0.17695 0.77222 0.48501 0.0
C87 C 0.2033 0.76458 0.47555 0.0
C88 C 0.19082 0.75001 0.49761 0.0
C89 C 0.18971 0.77455 0.47471 0.0
C90 C 0.20386 0.75223 0.48703 0.0
C91 C 0.16441 0.74648 0.51863 0.0
C92 C 0.16407 0.75852 0.50651 0.0
C93 C 0.1779 0.73627 0.52006 0.0
C94 C 0.19104 0.738 0.50956 0.0
Tb95 Tb 0.15346 0.78631 0.48314 0.0
N96 N 0.15111 0.76862 0.5048 0.0
C97 C 0.1512 0.745 0.52903 0.0
C98 C 0.13815 0.76697 0.51503 0.0
C99 C 0.13807 0.75532 0.52724 0.0
H100 H 0.18952 0.7843 0.46601 0.0
H101 H 0.12788 0.75443 0.53541 0.0
H102 H 0.11026 0.80445 0.53221 0.0
H103 H 0.16826 0.8777 0.5155 0.0
H104 H 0.1281 0.77508 0.51479 0.0
H105 H 0.15107 0.73599 0.53854 0.0
H106 H 0.16915 0.84794 0.5149 0.0
H107 H 0.21338 0.7665 0.46743 0.0
H108 H 0.17829 0.72698 0.5293 0.0
H109 H 0.20135 0.73004 0.51084 0.0
H110 H 0.08427 0.81545 0.54208 0.0
H111 H 0.21447 0.74458 0.48773 0.0
H112 H 0.14216 0.89189 0.51938 0.0
N113 N 0.11916 0.82731 0.52448 0.0
C114 C 0.11671 0.84339 0.52441 0.0
C115 C 0.09324 0.82348 0.53701 0.0
C116 C 0.10208 0.85028 0.52968 0.0
C117 C 0.10799 0.81731 0.53145 0.0
C118 C 0.09008 0.84002 0.5357 0.0
N119 N 0.14377 0.84517 0.5175 0.0
C120 C 0.15769 0.85391 0.51641 0.0
C121 C 0.12847 0.86975 0.52139 0.0
C122 C 0.12964 0.85281 0.52058 0.0
C123 C 0.14249 0.87882 0.51898 0.0
C124 C 0.15724 0.87083 0.51685 0.0
H125 H 0.07863 0.84479 0.53992 0.0
H126 H 0.08903 0.87277 0.53304 0.0
H127 H 0.11222 0.88994 0.52555 0.0
O128 O 0.14191 0.8141 0.5362 0.0
O129 O 0.12885 0.82303 0.48852 0.0
O130 O 0.13788 0.80334 0.47073 0.0
O131 O 0.15145 0.79638 0.51941 0.0
O132 O 0.15673 0.82958 0.49299 0.0
O133 O 0.16396 0.80949 0.4745 0.0
O134 O 0.14862 0.76476 0.47054 0.0
O135 O 0.17554 0.7942 0.49761 0.0
O136 O 0.16982 0.81831 0.51062 0.0
O137 O 0.16088 0.78417 0.45897 0.0
O138 O 0.12594 0.78343 0.48731 0.0
O139 O 0.11872 0.80528 0.50311 0.0
C140 C 0.12959 0.81644 0.47401 0.0
C141 C 0.16595 0.80167 0.54369 0.0
C142 C 0.1878 0.8182 0.5549 0.0
C143 C 0.19405 0.80426 0.56243 0.0
C144 C 0.17241 0.78796 0.55114 0.0
C145 C 0.18644 0.78928 0.56045 0.0
C146 C 0.17381 0.81659 0.54549 0.0
C147 C 0.16383 0.82469 0.47957 0.0
C148 C 0.15067 0.80103 0.53456 0.0
C149 C 0.1003 0.86716 0.52942 0.0
C150 C 0.11351 0.87692 0.52518 0.0
C151 C 0.18068 0.80689 0.50618 0.0
C152 C 0.1415 0.7709 0.44359 0.0
C153 C 0.11533 0.76282 0.43336 0.0
C154 C 0.1168 0.77402 0.42066 0.0
C155 C 0.14305 0.78184 0.43062 0.0
C156 C 0.12771 0.76126 0.44469 0.0
C157 C 0.13069 0.7834 0.41926 0.0
C158 C 0.1143 0.79224 0.49462 0.0
C159 C 0.15338 0.77071 0.4568 0.0
H160 H 0.20456 0.8049 0.57016 0.0
H161 H 0.16651 0.77635 0.54993 0.0
H162 H 0.19132 0.77869 0.56639 0.0
H163 H 0.16888 0.82705 0.53942 0.0
H164 H 0.10745 0.77513 0.41156 0.0
H165 H 0.15361 0.78944 0.42946 0.0
H166 H 0.12642 0.75263 0.45448 0.0
H167 H 0.13186 0.79192 0.40938 0.0
Tb168 Tb 0.50716 0.90348 0.73036 0.0
C169 C 0.49183 0.86761 0.78807 0.0
N170 N 0.48094 0.86794 0.77583 0.0
C171 C 0.472 0.84122 0.78263 0.0
C172 C 0.4934 0.8538 0.79797 0.0
C173 C 0.47097 0.85506 0.77303 0.0
C174 C 0.48325 0.84059 0.79517 0.0
C175 C 0.51355 0.88061 0.80267 0.0
C176 C 0.50171 0.88097 0.79037 0.0
C177 C 0.51515 0.86688 0.81253 0.0
C178 C 0.50508 0.85355 0.81022 0.0
Tb179 Tb 0.47898 0.89162 0.76203 0.0
N180 N 0.49986 0.89415 0.78058 0.0
C181 C 0.5235 0.89402 0.80474 0.0
C182 C 0.50961 0.90734 0.78283 0.0
C183 C 0.52154 0.90739 0.79475 0.0
H184 H 0.46244 0.85534 0.76314 0.0
H185 H 0.52934 0.91777 0.79612 0.0
H186 H 0.52711 0.93683 0.74075 0.0
H187 H 0.51281 0.87129 0.67327 0.0
H188 H 0.50919 0.91764 0.77505 0.0
H189 H 0.5328 0.89414 0.81395 0.0
H190 H 0.51225 0.87316 0.70279 0.0
H191 H 0.4642 0.83102 0.78028 0.0
H192 H 0.52418 0.86645 0.822 0.0
H193 H 0.50648 0.84305 0.81793 0.0
H194 H 0.53589 0.96193 0.72724 0.0
H195 H 0.4841 0.82979 0.80253 0.0
H196 H 0.51606 0.89594 0.65663 0.0
N197 N 0.52015 0.92522 0.71884 0.0
C198 C 0.52013 0.92609 0.70258 0.0
C199 C 0.53135 0.95197 0.7201 0.0
C200 C 0.52474 0.94019 0.69426 0.0
C201 C 0.5264 0.93769 0.7277 0.0
C202 C 0.53007 0.95341 0.7033 0.0
N203 N 0.51429 0.89884 0.70353 0.0
C204 C 0.51347 0.88413 0.69599 0.0
C205 C 0.51765 0.91173 0.67743 0.0
C206 C 0.51689 0.9122 0.69447 0.0
C207 C 0.51567 0.89687 0.66971 0.0
C208 C 0.51387 0.88296 0.67907 0.0
H209 H 0.53377 0.96451 0.69743 0.0
H210 H 0.52757 0.9511 0.67055 0.0
H211 H 0.52115 0.92605 0.6557 0.0
O212 O 0.5312 0.90587 0.73799 0.0
O213 O 0.48439 0.91618 0.72529 0.0
O214 O 0.46641 0.90712 0.74482 0.0
O215 O 0.51355 0.89403 0.7528 0.0
O216 O 0.48904 0.88846 0.71886 0.0
O217 O 0.47081 0.88073 0.73892 0.0
O218 O 0.46614 0.89607 0.78353 0.0
O219 O 0.4938 0.86952 0.75439 0.0
O220 O 0.50695 0.87543 0.73047 0.0
O221 O 0.45491 0.88408 0.76371 0.0
O222 O 0.48295 0.91927 0.7645 0.0
O223 O 0.49858 0.92671 0.74249 0.0
C224 C 0.46981 0.91527 0.73164 0.0
C225 C 0.53914 0.88177 0.74951 0.0
C226 C 0.55089 0.86164 0.73132 0.0
C227 C 0.5594 0.85499 0.74447 0.0
C228 C 0.54764 0.87523 0.76258 0.0
C229 C 0.55773 0.86178 0.76002 0.0
C230 C 0.54081 0.87476 0.7343 0.0
C231 C 0.4759 0.881 0.72374 0.0
C232 C 0.52895 0.89632 0.75036 0.0
C233 C 0.52446 0.94029 0.67725 0.0
C234 C 0.52084 0.92604 0.66881 0.0
C235 C 0.50257 0.86449 0.74178 0.0
C236 C 0.4394 0.90323 0.77708 0.0
C237 C 0.42909 0.92941 0.78493 0.0
C238 C 0.41597 0.92751 0.7744 0.0
C239 C 0.42607 0.9012 0.76673 0.0
C240 C 0.44068 0.91731 0.7863 0.0
C241 C 0.4144 0.91329 0.76549 0.0
C242 C 0.49018 0.93097 0.75568 0.0
C243 C 0.45256 0.89138 0.77731 0.0
H244 H 0.56756 0.8449 0.74275 0.0
H245 H 0.54664 0.88054 0.77452 0.0
H246 H 0.56445 0.85673 0.77005 0.0
H247 H 0.53407 0.87998 0.7245 0.0
H248 H 0.40657 0.93661 0.77375 0.0
H249 H 0.42474 0.89034 0.75954 0.0
H250 H 0.45055 0.91886 0.79477 0.0
H251 H 0.40394 0.91144 0.75793 0.0
Tb252 Tb 0.40245 0.22485 1.01289 0.0
C253 C 0.3669 0.28413 0.99966 0.0
N254 N 0.36684 0.27204 0.98862 0.0
C255 C 0.3404 0.27985 0.97966 0.0
C256 C 0.35354 0.29462 1.00116 0.0
C257 C 0.35385 0.26971 0.97865 0.0
C258 C 0.34026 0.29241 0.99091 0.0
C259 C 0.38036 0.29796 1.02163 0.0
C260 C 0.38027 0.28575 1.00969 0.0
C261 C 0.36714 0.30853 1.02307 0.0
C262 C 0.3538 0.30689 1.01284 0.0
Tb263 Tb 0.39021 0.25791 0.98615 0.0
N264 N 0.39297 0.27533 1.00791 0.0
C265 C 0.39369 0.29921 0.03186 0.0
C266 C 0.40598 0.27663 1.01809 0.0
C267 C 0.40647 0.28843 0.03015 0.0
H268 H 0.3538 0.25989 0.97003 0.0
H269 H 0.41673 0.28911 0.03822 0.0
H270 H 0.43593 0.23359 0.03324 0.0
H271 H 0.37063 0.16755 1.01426 0.0
H272 H 0.41577 0.26823 1.01784 0.0
H273 H 0.39416 0.30836 0.04123 0.0
H274 H 0.37234 0.19703 1.01598 0.0
H275 H 0.33015 0.27796 0.97177 0.0
H276 H 0.3671 0.31799 0.03212 0.0
H277 H 0.34368 0.31511 1.01414 0.0
H278 H 0.46173 0.2197 0.03931 0.0
H279 H 0.3298 0.30026 0.99168 0.0
H280 H 0.39549 0.15089 1.01512 0.0
N281 N 0.42458 0.21249 1.02413 0.0
C282 C 0.42554 0.19635 1.02245 0.0
C283 C 0.45169 0.21296 0.0344 0.0
C284 C 0.43985 0.18778 0.02576 0.0
C285 C 0.4371 0.2208 0.03088 0.0
C286 C 0.45322 0.1964 0.03141 0.0
N287 N 0.39808 0.1976 1.01752 0.0
C288 C 0.38335 0.19015 1.01656 0.0
C289 C 0.41123 0.1715 1.0181 0.0
C290 C 0.41158 0.18848 1.01889 0.0
C291 C 0.39633 0.16392 1.01594 0.0
C292 C 0.38229 0.17329 1.01553 0.0
H293 H 0.4645 0.19032 0.0341 0.0
H294 H 0.45099 0.16405 0.02598 0.0
H295 H 0.42581 0.1497 1.01909 0.0
O296 O 0.4036 0.22805 0.03794 0.0
O297 O 0.41555 0.22116 0.99014 0.0
O298 O 0.40614 0.24141 0.97322 0.0
O299 O 0.3935 0.24649 1.02221 0.0
O300 O 0.38761 0.21441 0.99405 0.0
O301 O 0.37931 0.23537 0.97717 0.0
O302 O 0.39356 0.27966 0.97346 0.0
O303 O 0.36864 0.24996 1.00114 0.0
O304 O 0.37451 0.22527 1.01278 0.0
O305 O 0.38239 0.25945 0.96208 0.0
O306 O 0.41782 0.26058 0.98978 0.0
O307 O 0.42535 0.23873 1.00561 0.0
C308 C 0.41454 0.22824 0.97592 0.0
C309 C 0.38007 0.2406 0.04686 0.0
C310 C 0.35809 0.22422 0.05794 0.0
C311 C 0.3524 0.23794 0.06627 0.0
C312 C 0.37424 0.25412 0.05514 0.0
C313 C 0.36041 0.25277 0.0648 0.0
C314 C 0.37186 0.22583 0.04821 0.0
C315 C 0.38001 0.22 0.98128 0.0
C316 C 0.39495 0.24128 0.03713 0.0
C317 C 0.44004 0.17091 1.02388 0.0
C318 C 0.4257 0.16275 1.01999 0.0
C319 C 0.36365 0.23688 1.00908 0.0
C320 C 0.40159 0.27278 0.94702 0.0
C321 C 0.42943 0.27692 0.93939 0.0
C322 C 0.42698 0.26788 0.9252 0.0
C323 C 0.3991 0.26382 0.93277 0.0
C324 C 0.41681 0.27919 0.95021 0.0
C325 C 0.41183 0.26131 0.92195 0.0
C326 C 0.42956 0.25191 0.99712 0.0
C327 C 0.38935 0.27318 0.95978 0.0
H328 H 0.34205 0.23719 0.07423 0.0
H329 H 0.38043 0.2656 0.05427 0.0
H330 H 0.35601 0.2632 0.07137 0.0
H331 H 0.37633 0.21547 0.0416 0.0
H332 H 0.43658 0.26639 0.9164 0.0
H333 H 0.38748 0.2584 0.93026 0.0
H334 H 0.419 0.28609 0.96115 0.0
H335 H 0.40994 0.25433 0.91104 0.0
Tb336 Tb 0.06857 0.89185 0.2883 0.0
C337 C 1.01119 0.92933 0.30353 0.0
N338 N 0.02304 0.92882 0.31479 0.0
C339 C 1.01538 0.95505 0.32458 0.0
C340 C 1.00116 0.94305 0.30208 0.0
C341 C 0.02521 0.94134 0.32539 0.0
C342 C 1.00339 0.95598 0.31277 0.0
C343 C 0.99681 0.91636 0.28164 0.0
C344 C 1.00904 0.91601 0.29357 0.0
C345 C 0.987 0.93011 0.27995 0.0
C346 C 0.98914 0.9434 0.29017 0.0
Tb347 Tb 0.03745 0.90556 0.31649 0.0
N348 N 1.01872 0.90277 0.29562 0.0
C349 C 0.99466 0.90286 0.27178 0.0
C350 C 1.01634 0.88949 0.28592 0.0
C351 C 1.00447 0.88941 0.27394 0.0
H352 H 0.03478 0.94093 0.33426 0.0
H353 H 1.00304 0.87896 0.26621 0.0
H354 H 0.05928 0.85603 0.27225 0.0
H355 H 0.12433 0.92601 0.28181 0.0
H356 H 0.02403 0.87912 0.28631 0.0
H357 H 0.98548 0.90272 0.26245 0.0
H358 H 0.09539 0.92309 0.28487 0.0
H359 H 1.01723 0.96498 0.33289 0.0
H360 H 0.97761 0.93054 0.27084 0.0
H361 H 0.98136 0.95385 0.28882 0.0
H362 H 0.07379 0.83124 0.26468 0.0
H363 H 0.99589 0.96669 0.31205 0.0
H364 H 0.14152 0.90221 0.27633 0.0
N365 N 0.08067 0.86985 0.2762 0.0
C366 C 0.09689 0.87005 0.27488 0.0
C367 C 0.0805 0.84205 0.26762 0.0
C368 C 0.10576 0.85612 0.27062 0.0
C369 C 0.07233 0.8562 0.27199 0.0
C370 C 0.09734 0.8419 0.26725 0.0
N371 N 0.095 0.89751 0.2805 0.0
C372 C 0.10215 0.91242 0.28188 0.0
C373 C 0.12134 0.88569 0.27554 0.0
C374 C 0.10441 0.88451 0.27714 0.0
C375 C 0.12856 0.90078 0.27736 0.0
C376 C 0.11888 0.91422 0.28038 0.0
H377 H 0.10367 0.83091 0.26397 0.0
H378 H 0.12975 0.84634 0.26669 0.0
H379 H 0.14349 0.87234 0.27113 0.0
O380 O 0.0596 0.88698 0.26512 0.0
O381 O 0.07315 0.87988 0.31179 0.0
O382 O 0.05326 0.88893 0.32944 0.0
O383 O 0.04658 0.90214 0.28181 0.0
O384 O 0.08055 0.90525 0.30679 0.0
O385 O 0.0608 0.91695 0.32297 0.0
O386 O 1.01621 0.90426 0.33039 0.0
O387 O 0.04611 0.92738 0.30231 0.0
O388 O 0.06813 0.91992 0.28674 0.0
O389 O 0.03832 0.91234 0.34089 0.0
O390 O 0.03402 0.87792 0.31247 0.0
O391 O 0.05641 0.86937 0.29795 0.0
C392 C 0.0665 0.8808 0.32632 0.0
C393 C 0.04883 0.91029 0.25453 0.0
C394 C 0.0668 0.92765 0.23895 0.0
C395 C 0.05368 0.93232 0.22922 0.0
C396 C 0.03579 0.91482 0.24479 0.0
C397 C 0.03824 0.92595 0.2322 0.0
C398 C 0.064 0.91694 0.25163 0.0
C399 C 0.07604 0.91439 0.31888 0.0
C400 C 0.04797 0.8975 0.26675 0.0
C401 C 0.12266 0.85695 0.26965 0.0
C402 C 0.13046 0.87175 0.27213 0.0
C403 C 0.05801 0.93155 0.29224 0.0
C404 C 0.02361 0.89445 0.35594 0.0
C405 C 1.01988 0.86623 0.36211 0.0
C406 C 0.02686 0.86866 0.37743 0.0
C407 C 0.03051 0.89695 0.37124 0.0
C408 C 1.01866 0.87902 0.35138 0.0
C409 C 0.03218 0.88401 0.38194 0.0
C410 C 0.04283 0.86578 0.30585 0.0
C411 C 0.02394 0.90712 0.34376 0.0
H412 H 0.05534 0.94056 0.21918 0.0
H413 H 0.02397 0.90961 0.24671 0.0
H414 H 0.02822 0.92942 0.22455 0.0
H415 H 0.07392 0.91325 0.25924 0.0
H416 H 0.02733 0.85895 0.38621 0.0
H417 H 0.03488 0.90876 0.37474 0.0
H418 H 1.01332 0.87688 0.3396 0.0
H419 H 0.03732 0.88594 0.39381 0.0
Tb420 Tb 0.3918 0.78448 0.57057 0.0
C421 C 0.42931 0.79791 0.51235 0.0
N422 N 0.42922 0.80867 0.5247 0.0
C423 C 0.45625 0.81682 0.51821 0.0
C424 C 0.44312 0.79602 0.50251 0.0
C425 C 0.44236 0.81822 0.5277 0.0
C426 C 0.45664 0.80568 0.50554 0.0
C427 C 0.41566 0.77693 0.49728 0.0
C428 C 0.41563 0.78857 0.50979 0.0
C429 C 0.42939 0.775 0.48747 0.0
C430 C 0.44305 0.78455 0.49004 0.0
Tb431 Tb 0.40557 0.81138 0.53838 0.0
N432 N 0.40246 0.79075 0.51955 0.0
C433 C 0.40192 0.76749 0.49497 0.0
C434 C 0.38901 0.7814 0.51715 0.0
C435 C 0.3886 0.76969 0.50499 0.0
H436 H 0.44221 0.82673 0.53762 0.0
H437 H 0.378 0.76224 0.50347 0.0
H438 H 0.35697 0.76665 0.56234 0.0
H439 H 0.42733 0.77946 0.62605 0.0
H440 H 0.3787 0.78199 0.52492 0.0
H441 H 0.40153 0.75836 0.48558 0.0
H442 H 0.42379 0.78201 0.59713 0.0
H443 H 0.46665 0.82431 0.52069 0.0
H444 H 0.42956 0.76612 0.47783 0.0
H445 H 0.45355 0.78291 0.48236 0.0
H446 H 0.33248 0.75882 0.57742 0.0
H447 H 0.46745 0.80459 0.49822 0.0
H448 H 0.40389 0.77454 0.64388 0.0
N449 N 0.37051 0.77229 0.58349 0.0
C450 C 0.37092 0.77169 0.59978 0.0
C451 C 0.34318 0.76256 0.58392 0.0
C452 C 0.35729 0.7673 0.60899 0.0
C453 C 0.35708 0.7671 0.57542 0.0
C454 C 0.34315 0.76302 0.60081 0.0
N455 N 0.39817 0.77774 0.59726 0.0
C456 C 0.41324 0.7792 0.60411 0.0
C457 C 0.38695 0.77334 0.62401 0.0
C458 C 0.38542 0.77453 0.60703 0.0
C459 C 0.40218 0.77531 0.6309 0.0
C460 C 0.41542 0.778 0.62086 0.0
H461 H 0.33238 0.75958 0.6074 0.0
H462 H 0.34798 0.76391 0.6333 0.0
H463 H 0.37408 0.76931 0.64654 0.0
O464 O 0.38829 0.76062 0.56285 0.0
O465 O 0.37877 0.80739 0.57394 0.0
O466 O 0.39044 0.82467 0.55521 0.0
O467 O 0.40082 0.77804 0.54805 0.0
O468 O 0.40514 0.80359 0.58217 0.0
O469 O 0.41725 0.8184 0.56153 0.0
O470 O 0.40365 0.82472 0.51689 0.0
O471 O 0.4266 0.79597 0.54621 0.0
O472 O 0.41978 0.78324 0.57012 0.0
O473 O 0.41352 0.83541 0.53812 0.0
O474 O 0.37774 0.80818 0.53548 0.0
O475 O 0.36908 0.79324 0.55766 0.0
C476 C 0.38115 0.82188 0.56775 0.0
C477 C 0.41223 0.75218 0.55093 0.0
C478 C 0.43326 0.74023 0.56765 0.0
C479 C 0.4417 0.7357 0.55361 0.0
C480 C 0.4206 0.74761 0.53693 0.0
C481 C 0.43526 0.73921 0.53831 0.0
C482 C 0.41852 0.74816 0.56613 0.0
C483 C 0.41461 0.81516 0.577 0.0
C484 C 0.39798 0.76271 0.55053 0.0
C485 C 0.35839 0.76694 0.62595 0.0
C486 C 0.37324 0.76998 0.63347 0.0
C487 C 0.43102 0.78738 0.55902 0.0
C488 C 0.39552 0.85103 0.52351 0.0
C489 C 0.36892 0.85891 0.51475 0.0
C490 C 0.3684 0.87098 0.5267 0.0
C491 C 0.39529 0.86343 0.53519 0.0
C492 C 0.38249 0.84926 0.51307 0.0
C493 C 0.3817 0.87334 0.53678 0.0
C494 C 0.36553 0.80144 0.54411 0.0
C495 C 0.40761 0.83816 0.52395 0.0
H496 H 0.45323 0.72956 0.55447 0.0
H497 H 0.41603 0.75079 0.52508 0.0
H498 H 0.44181 0.73574 0.52751 0.0
H499 H 0.41241 0.75225 0.577 0.0
H500 H 0.35798 0.87882 0.52788 0.0
H501 H 0.40528 0.86501 0.54349 0.0
H502 H 0.38254 0.83991 0.50387 0.0
H503 H 0.38141 0.88269 0.54593 0.0
Tb504 Tb 0.5084 0.14185 0.82029 0.0
C505 C 0.49123 0.17852 0.76318 0.0
N506 N 0.48067 0.17809 0.7757 0.0
C507 C 0.47132 0.20479 0.76928 0.0
C508 C 0.49247 0.19239 0.75333 0.0
C509 C 0.47059 0.19086 0.77878 0.0
C510 C 0.48234 0.20558 0.75651 0.0
C511 C 0.51228 0.16546 0.7476 0.0
C512 C 0.5009 0.1651 0.76036 0.0
C513 C 0.51366 0.17928 0.73785 0.0
C514 C 0.50375 0.19269 0.74067 0.0
Tb515 Tb 0.47941 0.15472 0.78999 0.0
N516 N 0.49925 0.15184 0.77008 0.0
C517 C 0.52205 0.15196 0.74498 0.0
C518 C 0.50895 0.13863 0.76735 0.0
C519 C 0.5204 0.13854 0.75493 0.0
H520 H 0.4622 0.19039 0.7888 0.0
H521 H 0.52813 0.12812 0.7532 0.0
H522 H 0.52731 0.10784 0.8104 0.0
H523 H 0.51347 0.17653 0.87625 0.0
H524 H 0.50902 0.12833 0.77512 0.0
H525 H 0.531 0.15183 0.7354 0.0
H526 H 0.50951 0.1733 0.84748 0.0
H527 H 0.46345 0.21493 0.77185 0.0
H528 H 0.52236 0.17971 0.72805 0.0
H529 H 0.50493 0.20324 0.73301 0.0
H530 H 0.53757 0.08372 0.82455 0.0
H531 H 0.48294 0.21643 0.7492 0.0
H532 H 0.52172 0.15336 0.89316 0.0
N533 N 0.52269 0.12108 0.83205 0.0
C534 C 0.52448 0.1214 0.84826 0.0
C535 C 0.53382 0.09421 0.83144 0.0
C536 C 0.53024 0.1079 0.85694 0.0
C537 C 0.52792 0.10792 0.82347 0.0
C538 C 0.53465 0.09405 0.84831 0.0
N539 N 0.5164 0.14824 0.84665 0.0
C540 C 0.51385 0.16295 0.85398 0.0
C541 C 0.52325 0.13694 0.87284 0.0
C542 C 0.52121 0.13561 0.85592 0.0
C543 C 0.52036 0.15182 0.88021 0.0
C544 C 0.51579 0.16491 0.87069 0.0
H545 H 0.53909 0.0834 0.85449 0.0
H546 H 0.53574 0.09851 0.88081 0.0
H547 H 0.52949 0.12405 0.89484 0.0
O548 O 0.53136 0.13871 0.80984 0.0
O549 O 0.48585 0.12872 0.82556 0.0
O550 O 0.46761 0.13793 0.80637 0.0
O551 O 0.51271 0.15201 0.79774 0.0
O552 O 0.48926 0.15401 0.83293 0.0
O553 O 0.47327 0.1663 0.81347 0.0
O554 O 0.46479 0.15314 0.76932 0.0
O555 O 0.49383 0.17679 0.79762 0.0
O556 O 0.50854 0.16993 0.82033 0.0
O557 O 0.45493 0.16114 0.7918 0.0
O558 O 0.48356 0.12695 0.78685 0.0
O559 O 0.49983 0.11874 0.80823 0.0
C560 C 0.47119 0.12951 0.81932 0.0
C561 C 0.53877 0.16325 0.79892 0.0
C562 C 0.55165 0.18282 0.8168 0.0
C563 C 0.5586 0.19033 0.8032 0.0
C564 C 0.54564 0.17068 0.78538 0.0
C565 C 0.5556 0.18423 0.78758 0.0
C566 C 0.5419 0.16943 0.81424 0.0
C567 C 0.47719 0.16331 0.8287 0.0
C568 C 0.52818 0.14906 0.79835 0.0
C569 C 0.53165 0.10882 0.87385 0.0
C570 C 0.52813 0.12335 0.88182 0.0
C571 C 0.50337 0.18129 0.80979 0.0
C572 C 0.43981 0.14249 0.77755 0.0
C573 C 0.43302 0.11533 0.76918 0.0
C574 C 0.41985 0.11531 0.77991 0.0
C575 C 0.42653 0.14255 0.78818 0.0
C576 C 0.44301 0.12875 0.76834 0.0
C577 C 0.41666 0.12892 0.78942 0.0
C578 C 0.49112 0.11492 0.79513 0.0
C579 C 0.45165 0.15558 0.77759 0.0
H580 H 0.56646 0.20066 0.80457 0.0
H581 H 0.54338 0.16607 0.77334 0.0
H582 H 0.56105 0.18999 0.77717 0.0
H583 H 0.53614 0.16365 0.82438 0.0
H584 H 0.41176 0.10507 0.78051 0.0
H585 H 0.42405 0.15293 0.79579 0.0
H586 H 0.45331 0.12842 0.76022 0.0
H587 H 0.40652 0.12893 0.79769 0.0
Tb588 Tb 0.14026 0.2266 0.0383 0.0
C589 C 0.17722 0.28428 0.05909 0.0
N590 N 0.17632 0.27045 0.06781 0.0
C591 C 0.20302 0.27478 0.07825 0.0
C592 C 0.19096 0.29426 0.06008 0.0
C593 C 0.18923 0.26522 0.07682 0.0
C594 C 0.20379 0.28949 0.07003 0.0
C595 C 0.16574 0.30192 0.0387 0.0
C596 C 0.16475 0.28791 0.04839 0.0
C597 C 0.17909 0.31224 0.04016 0.0
C598 C 0.19166 0.30842 0.0508 0.0
Tb599 Tb 0.15219 0.25732 0.06645 0.0
N600 N 0.15201 0.27753 0.04712 0.0
C601 C 0.15339 0.30512 0.02766 0.0
C602 C 0.13989 0.28082 0.03627 0.0
C603 C 0.1405 0.29447 0.02638 0.0
H604 H 0.18859 0.25387 0.08327 0.0
H605 H 0.13094 0.29678 1.01775 0.0
H606 H 0.10688 0.24048 1.02042 0.0
H607 H 0.16701 0.16728 0.03185 0.0
H608 H 0.12976 0.27289 0.0346 0.0
H609 H 0.15377 0.31571 1.01997 0.0
H610 H 0.16763 0.19709 0.03223 0.0
H611 H 0.21302 0.27081 0.08568 0.0
H612 H 0.17994 0.3231 0.03288 0.0
H613 H 0.20203 0.31634 0.05153 0.0
H614 H 0.08024 0.22946 1.01291 0.0
H615 H 0.21452 0.29687 0.07112 0.0
H616 H 0.14088 0.15299 0.02926 0.0
N617 N 0.11706 0.21747 0.02604 0.0
C618 C 0.11479 0.2014 0.02598 0.0
C619 C 0.08984 0.22138 1.01661 0.0
C620 C 0.0998 0.19448 1.022 0.0
C621 C 0.105 0.22755 1.02076 0.0
C622 C 0.08711 0.20476 1.01757 0.0
N623 N 0.14221 0.19974 0.03111 0.0
C624 C 0.1562 0.19102 0.03151 0.0
C625 C 0.12694 0.17508 0.02802 0.0
C626 C 0.12801 0.19203 0.02878 0.0
C627 C 0.14112 0.16606 0.02964 0.0
C628 C 0.15588 0.1741 0.03107 0.0
H629 H 0.07536 0.19998 1.01445 0.0
H630 H 0.08674 0.17195 1.01954 0.0
H631 H 0.11061 0.15484 0.02496 0.0
O632 O 0.13764 0.23317 1.01395 0.0
O633 O 0.12701 0.22257 0.06102 0.0
O634 O 0.14161 0.23733 0.07953 0.0
O635 O 0.14847 0.24935 0.03112 0.0
O636 O 0.15741 0.21504 0.05485 0.0
O637 O 0.16345 0.23418 0.07466 0.0
O638 O 0.137 0.27194 0.08006 0.0
O639 O 0.17363 0.25172 0.05003 0.0
O640 O 0.16831 0.22694 0.03827 0.0
O641 O 0.16012 0.26536 0.08944 0.0
O642 O 0.12552 0.26126 0.05946 0.0
O643 O 0.11753 0.23707 0.04901 0.0
C644 C 0.13089 0.22633 0.07598 0.0
C645 C 0.16115 0.24543 1.00557 0.0
C646 C 0.18225 0.22781 0.99435 0.0
C647 C 0.18804 0.24101 0.98529 0.0
C648 C 0.16701 0.25846 0.99661 0.0
C649 C 0.18045 0.2562 0.98647 0.0
C650 C 0.16883 0.23047 1.00425 0.0
C651 C 0.16483 0.21949 0.06831 0.0
C652 C 0.14651 0.24604 1.01576 0.0
C653 C 0.09823 0.17759 1.0222 0.0
C654 C 0.11181 0.16786 0.02527 0.0
C655 C 0.17898 0.23871 0.04207 0.0
C656 C 0.14897 0.29065 0.09705 0.0
C657 C 0.13451 0.31363 0.10782 0.0
C658 C 0.14923 0.32149 0.11077 0.0
C659 C 0.16376 0.29827 0.10015 0.0
C660 C 0.13459 0.29862 0.10034 0.0
C661 C 0.16383 0.31385 0.10674 0.0
C662 C 0.11358 0.25153 0.0546 0.0
C663 C 0.14739 0.27404 0.09155 0.0
H664 H 0.19813 0.23968 0.97709 0.0
H665 H 0.16114 0.27014 0.99726 0.0
H666 H 0.18492 0.2662 0.97934 0.0
H667 H 0.16392 0.22075 1.01123 0.0
H668 H 0.14949 0.33312 0.11675 0.0
H669 H 0.1751 0.29221 0.09772 0.0
H670 H 0.1232 0.29265 0.0978 0.0
H671 H 0.17518 0.31978 0.10923 0.0
Tb672 Tb 0.25968 0.06779 0.154 0.0
C673 C 0.24448 1.00989 0.11816 0.0
N674 N 0.23246 1.02098 0.11906 0.0
C675 C 0.22219 1.01237 0.09327 0.0
C676 C 0.24606 0.99984 0.10444 0.0
C677 C 0.2213 1.02233 0.1069 0.0
C678 C 0.23471 1.00117 0.09196 0.0
C679 C 0.26807 0.99738 0.1301 0.0
C680 C 0.25532 1.00874 0.13094 0.0
C681 C 0.2698 0.98752 0.11638 0.0
C682 C 0.25882 0.98873 0.1036 0.0
Tb683 Tb 0.2311 0.03563 0.14232 0.0
N684 N 0.25336 1.01856 0.1441 0.0
C685 C 0.27873 0.99613 0.14311 0.0
C686 C 0.26373 1.01694 0.15697 0.0
C687 C 0.27651 1.00592 0.15658 0.0
H688 H 0.21197 0.03145 0.10734 0.0
H689 H 0.28478 1.00512 0.16669 0.0
H690 H 0.27765 0.05843 0.18894 0.0
H691 H 0.26343 0.12436 0.12091 0.0
H692 H 0.26325 0.02466 0.16729 0.0
H693 H 0.28868 0.98762 0.14288 0.0
H694 H 0.26261 0.09492 0.12331 0.0
H695 H 0.21344 1.01361 0.08363 0.0
H696 H 0.27956 0.97882 0.11558 0.0
H697 H 0.26027 0.98096 0.09314 0.0
H698 H 0.28434 0.07264 0.21427 0.0
H699 H 0.23553 0.99364 0.08127 0.0
H700 H 0.26646 0.14138 0.14535 0.0
N701 N 0.27104 0.07989 0.17626 0.0
C702 C 0.27073 0.09616 0.17662 0.0
C703 C 0.28041 0.07944 0.2038 0.0
C704 C 0.27447 0.10486 0.19078 0.0
C705 C 0.27655 0.07144 0.1894 0.0
C706 C 0.27901 0.09624 0.20462 0.0
N707 N 0.2654 0.09469 0.14905 0.0
C708 C 0.26434 0.10192 0.13415 0.0
C709 C 0.26818 0.12093 0.16158 0.0
C710 C 0.26777 0.10394 0.16235 0.0
C711 C 0.2663 0.12834 0.1465 0.0
C712 C 0.26467 0.11877 0.13269 0.0
H713 H 0.28195 0.10243 0.21578 0.0
H714 H 0.27647 0.12878 0.20125 0.0
H715 H 0.27086 0.14295 0.17557 0.0
O716 O 0.28442 0.06354 0.15647 0.0
O717 O 0.23706 0.07222 0.16737 0.0
O718 O 0.21904 0.05284 0.15824 0.0
O719 O 0.26881 0.0464 0.14434 0.0
O720 O 0.24111 0.07882 0.13967 0.0
O721 O 0.22301 0.05884 0.13163 0.0
O722 O 0.21824 1.01426 0.14727 0.0
O723 O 0.24451 0.04395 0.1199 0.0
O724 O 0.25979 0.06658 0.12601 0.0
O725 O 0.20685 0.03417 0.13556 0.0
O726 O 0.23584 0.03257 0.16958 0.0
O727 O 0.25138 0.05463 0.17671 0.0
C728 C 0.22249 0.06583 0.16666 0.0
C729 C 0.29448 0.05198 0.13296 0.0
C730 C 0.30717 0.06913 0.11242 0.0
C731 C 0.31665 0.05583 0.1076 0.0
C732 C 0.3039 0.03888 0.12795 0.0
C733 C 0.31491 0.04082 0.11525 0.0
C734 C 0.29603 0.0669 0.12502 0.0
C735 C 0.22792 0.07402 0.1324 0.0
C736 C 0.28374 0.05084 0.1471 0.0
C737 C 0.27397 0.12182 0.19044 0.0
C738 C 0.2708 0.12987 0.17582 0.0
C739 C 0.25422 0.05586 0.11504 0.0
C740 C 0.19145 1.02058 0.1547 0.0
C741 C 0.18032 1.0102 0.17965 0.0
C742 C 0.16876 0.0226 0.17981 0.0
C743 C 0.17955 0.03281 0.15466 0.0
C744 C 0.19145 1.00908 0.16706 0.0
C745 C 0.16828 0.03378 0.1672 0.0
C746 C 0.24307 0.04151 0.18106 0.0
C747 C 0.20458 1.02054 0.14275 0.0
H748 H 0.32567 0.05703 0.09819 0.0
H749 H 0.30292 0.02731 0.13398 0.0
H750 H 0.32235 0.03073 0.11149 0.0
H751 H 0.28853 0.07689 0.12887 0.0
H752 H 0.15987 0.02332 0.18941 0.0
H753 H 0.17917 0.04183 0.14517 0.0
H754 H 0.20025 0.99935 0.16707 0.0
H755 H 0.15927 0.04327 0.1672 0.0
Tb756 Tb 0.22755 1.00947 0.40413 0.0
C757 C 0.28498 0.99631 0.36739 0.0
N758 N 0.27408 0.98416 0.36763 0.0
C759 C 0.28261 0.97553 0.34119 0.0
C760 C 0.29517 0.99858 0.35388 0.0
C761 C 0.27271 0.97379 0.35476 0.0
C762 C 0.29394 0.98794 0.34076 0.0
C763 C 0.29663 1.01973 0.38036 0.0
C764 C 0.28562 1.00672 0.38057 0.0
C765 C 0.30686 1.02198 0.36698 0.0
C766 C 0.30616 1.01141 0.3538 0.0
Tb767 Tb 0.2598 0.98121 0.39097 0.0
N768 N 0.27549 1.0042 0.39342 0.0
C769 C 0.29711 0.03017 0.3936 0.0
C770 C 0.27633 1.01438 0.40648 0.0
C771 C 0.2869 0.02748 0.40667 0.0
H772 H 0.26374 0.96435 0.35476 0.0
H773 H 0.28705 0.03561 0.41694 0.0
H774 H 0.23945 0.03106 0.43589 0.0
H775 H 0.16638 1.00616 0.38083 0.0
H776 H 0.26835 1.01343 0.4165 0.0
H777 H 0.30529 0.04036 0.39384 0.0
H778 H 0.19572 1.01083 0.37819 0.0
H779 H 0.28144 0.96733 0.33106 0.0
H780 H 0.31537 0.03189 0.3667 0.0
H781 H 0.31411 1.01333 0.34356 0.0
H782 H 0.22844 0.03793 0.46296 0.0
H783 H 0.30159 0.98929 0.3302 0.0
H784 H 0.15365 1.00523 0.40799 0.0
N785 N 0.21782 1.0198 0.42793 0.0
C786 C 0.20219 1.01679 0.43119 0.0
C787 C 0.22093 0.03181 0.45419 0.0
C788 C 0.19546 1.01995 0.44651 0.0
C789 C 0.22709 0.028 0.43885 0.0
C790 C 0.2052 0.02723 0.45825 0.0
N791 N 0.19977 1.01163 0.40365 0.0
C792 C 0.19035 1.01042 0.39012 0.0
C793 C 0.17601 1.01004 0.4206 0.0
C794 C 0.1927 1.01227 0.41845 0.0
C795 C 0.16654 1.0072 0.4069 0.0
C796 C 0.17368 1.0078 0.39155 0.0
H797 H 0.20051 0.02999 0.47019 0.0
H798 H 0.17369 1.01838 0.46101 0.0
H799 H 0.15659 1.00938 0.43827 0.0
O800 O 0.22503 0.03437 0.40562 0.0
O801 O 0.22263 0.98632 0.41633 0.0
O802 O 0.24238 0.96918 0.40638 0.0
O803 O 0.24694 0.02337 0.39569 0.0
O804 O 0.2173 0.99267 0.38704 0.0
O805 O 0.23659 0.97306 0.38091 0.0
O806 O 0.2814 0.96813 0.39422 0.0
O807 O 0.2512 0.99475 0.36899 0.0
O808 O 0.22944 1.01095 0.37607 0.0
O809 O 0.26101 0.9573 0.38285 0.0
O810 O 0.26297 0.98404 0.41861 0.0
O811 O 0.24233 1.00134 0.42612 0.0
C812 C 0.22922 0.97189 0.41482 0.0
C813 C 0.23659 0.04747 0.38366 0.0
C814 C 0.21912 0.05856 0.3625 0.0
C815 C 0.2314 0.06957 0.35846 0.0
C816 C 0.24866 0.05848 0.37946 0.0
C817 C 0.24606 0.06945 0.36686 0.0
C818 C 0.22192 0.04751 0.37508 0.0
C819 C 0.22184 0.97905 0.38034 0.0
C820 C 0.23855 0.03677 0.39774 0.0
C821 C 0.17907 1.0165 0.4492 0.0
C822 C 0.16935 1.01142 0.43624 0.0
C823 C 0.23986 1.00527 0.36474 0.0
C824 C 0.27415 0.94158 0.40141 0.0
C825 C 0.2746 0.93358 0.42956 0.0
C826 C 0.26825 0.91841 0.42532 0.0
C827 C 0.26803 0.92635 0.39713 0.0
C828 C 0.27703 0.94514 0.41763 0.0
C829 C 0.26492 0.91487 0.40913 0.0
C830 C 0.25467 0.99172 0.43037 0.0
C831 C 0.27478 0.95466 0.38959 0.0
H832 H 0.2296 0.07846 0.34901 0.0
H833 H 0.25994 0.05875 0.38607 0.0
H834 H 0.25537 0.07806 0.36373 0.0
H835 H 0.21269 0.03879 0.37816 0.0
H836 H 0.26659 0.90907 0.43435 0.0
H837 H 0.26517 0.92358 0.38464 0.0
H838 H 0.28154 0.95691 0.42111 0.0
H839 H 0.2601 0.90318 0.40587 0.0
Tb840 Tb 0.28422 0.97481 0.65466 0.0
C841 C 0.30592 0.03193 0.61938 0.0
N842 N 0.31528 1.01848 0.61967 0.0
C843 C 0.32662 0.02526 0.59379 0.0
C844 C 0.30683 0.04283 0.6063 0.0
C845 C 0.32521 1.01471 0.60691 0.0
C846 C 0.31752 0.03947 0.59356 0.0
C847 C 0.28475 0.04806 0.63164 0.0
C848 C 0.29493 0.03437 0.63194 0.0
C849 C 0.28593 0.05919 0.61885 0.0
C850 C 0.29694 0.05659 0.60624 0.0
Tb851 Tb 0.31464 1.00471 0.64348 0.0
N852 N 0.29409 0.02336 0.64425 0.0
C853 C 0.27366 0.05023 0.64421 0.0
C854 C 0.2834 0.02573 0.65668 0.0
C855 C 0.27293 0.03897 0.65671 0.0
H856 H 0.33227 1.0037 0.60707 0.0
H857 H 0.26435 0.04054 0.66648 0.0
H858 H 0.26288 0.9867 0.68692 0.0
H859 H 0.2811 0.91496 0.62833 0.0
H860 H 0.28232 1.01732 0.66644 0.0
H861 H 0.2656 0.06055 0.64438 0.0
H862 H 0.27869 0.94478 0.62749 0.0
H863 H 0.3347 0.02242 0.58388 0.0
H864 H 0.27828 0.06981 0.61855 0.0
H865 H 0.29756 0.0652 0.59638 0.0
H866 H 0.25685 0.97542 0.71404 0.0
H867 H 0.31859 0.04761 0.58335 0.0
H868 H 0.28206 0.90078 0.65478 0.0
N869 N 0.27272 0.96474 0.67787 0.0
C870 C 0.27496 0.94888 0.68056 0.0
C871 C 0.26208 0.96779 0.70477 0.0
C872 C 0.27181 0.94178 0.6957 0.0
C873 C 0.26546 0.97413 0.68941 0.0
C874 C 0.26571 0.95161 0.70809 0.0
N875 N 0.27948 0.94744 0.65302 0.0
C876 C 0.27935 0.93871 0.63901 0.0
C877 C 0.27959 0.9228 0.66868 0.0
C878 C 0.27865 0.9397 0.66741 0.0
C879 C 0.28118 0.91383 0.65442 0.0
C880 C 0.28058 0.92181 0.63947 0.0
H881 H 0.26311 0.9467 0.71996 0.0
H882 H 0.27225 0.91933 0.70922 0.0
H883 H 0.2792 0.90257 0.68543 0.0
O884 O 0.25915 0.97643 0.65532 0.0
O885 O 0.30601 0.97044 0.66917 0.0
O886 O 0.32613 0.98456 0.65584 0.0
O887 O 0.27376 0.9962 0.64602 0.0
O888 O 0.3013 0.96352 0.63786 0.0
O889 O 0.32239 0.98151 0.63277 0.0
O890 O 0.32715 0.02287 0.65534 0.0
O891 O 0.29871 0.99942 0.62156 0.0
O892 O 0.28469 0.97584 0.62662 0.0
O893 O 0.33851 1.0101 0.63589 0.0
O894 O 0.31048 1.00788 0.67071 0.0
O895 O 0.29183 0.98858 0.67741 0.0
C896 C 0.32127 0.97375 0.66632 0.0
C897 C 0.24935 0.98941 0.63244 0.0
C898 C 0.23821 0.97307 0.61042 0.0
C899 C 0.22828 0.98619 0.60609 0.0
C900 C 0.23941 1.00232 0.62797 0.0
C901 C 0.22898 1.00071 0.61476 0.0
C902 C 0.24884 0.975 0.62347 0.0
C903 C 0.31525 0.96732 0.6311 0.0
C904 C 0.2592 0.99004 0.64726 0.0
C905 C 0.27416 0.92507 0.69759 0.0
C906 C 0.27811 0.91554 0.68404 0.0
C907 C 0.28956 0.98732 0.61606 0.0
C908 C 0.34359 0.03834 0.63823 0.0
C909 C 0.35106 0.06462 0.64777 0.0
C910 C 0.36182 0.06633 0.63466 0.0
C911 C 0.35473 0.03953 0.62547 0.0
C912 C 0.33978 0.05219 0.64714 0.0
C913 C 0.36304 0.05403 0.62307 0.0
C914 C 0.30169 1.00044 0.68204 0.0
C915 C 0.33907 0.02263 0.64518 0.0
H916 H 0.21962 0.98512 0.59635 0.0
H917 H 0.23948 1.01345 0.63486 0.0
H918 H 0.22112 1.01063 0.61146 0.0
H919 H 0.25655 0.96506 0.62699 0.0
H920 H 0.37051 0.07606 0.63431 0.0
H921 H 0.35766 0.02914 0.61805 0.0
H922 H 0.33079 0.05156 0.65667 0.0
H923 H 0.37181 0.05498 0.6134 0.0
Tb924 Tb 0.31914 0.03717 0.90441 0.0
C925 C 0.26037 0.05624 0.86774 0.0
N926 N 0.27363 0.0657 0.8692 0.0
C927 C 0.26912 0.07683 0.84277 0.0
C928 C 0.25069 0.05701 0.85374 0.0
C929 C 0.27838 0.07564 0.85685 0.0
C930 C 0.25509 0.06763 0.8413 0.0
C931 C 0.24385 0.03454 0.8783 0.0
C932 C 0.25718 0.04501 0.87987 0.0
C933 C 0.23383 0.03566 0.86463 0.0
C934 C 0.23724 0.04685 0.85239 0.0
Tb935 Tb 0.28635 0.06426 0.89351 0.0
N936 N 0.26728 0.04408 0.8929 0.0
C937 C 0.241 0.02317 0.89046 0.0
C938 C 0.26421 0.03312 0.90497 0.0
C939 C 0.25124 0.02244 0.9038 0.0
H940 H 0.28921 0.08283 0.85801 0.0
H941 H 0.24912 1.01367 0.91327 0.0
H942 H 0.31154 1.02006 0.9402 0.0
H943 H 0.37407 0.03205 0.86868 0.0
H944 H 0.27181 0.03208 0.91547 0.0
H945 H 0.23093 1.01488 0.88966 0.0
H946 H 0.34485 0.03248 0.87243 0.0
H947 H 0.27278 0.08486 0.83311 0.0
H948 H 0.22351 0.02776 0.86331 0.0
H949 H 0.22957 0.04734 0.84179 0.0
H950 H 0.32691 1.01362 0.96489 0.0
H951 H 0.24795 0.06855 0.83036 0.0
H952 H 0.39225 0.02964 0.89231 0.0
N953 N 0.3324 0.02591 0.92619 0.0
C954 C 0.34863 0.02605 0.92579 0.0
C955 C 0.33323 1.01719 0.95399 0.0
C956 C 0.35799 0.02261 0.9396 0.0
C957 C 0.32458 1.02085 0.93991 0.0
C958 C 0.35004 1.01845 0.95395 0.0
N959 N 0.34574 0.0306 0.89826 0.0
C960 C 0.35229 0.03126 0.88302 0.0
C961 C 0.37262 0.02817 0.90953 0.0
C962 C 0.35568 0.0286 0.91112 0.0
C963 C 0.37929 0.02978 0.89409 0.0
C964 C 0.36906 0.0311 0.88075 0.0
H965 H 0.35674 1.01574 0.96488 0.0
H966 H 0.38237 1.0208 0.94897 0.0
H967 H 0.39528 0.02583 0.9225 0.0
O968 O 0.31289 1.01327 0.90912 0.0
O969 O 0.32336 0.05994 0.9174 0.0
O970 O 0.30489 0.07776 0.90628 0.0
O971 O 0.29632 0.02926 0.897 0.0
O972 O 0.329 0.05466 0.88754 0.0
O973 O 0.30889 0.07382 0.88273 0.0
O974 O 0.26757 0.0752 0.90622 0.0
O975 O 0.29242 0.0486 0.87162 0.0
O976 O 0.3172 0.03668 0.87643 0.0
O977 O 0.27978 0.08813 0.88724 0.0
O978 O 0.28375 0.0569 0.92014 0.0
O979 O 0.3084 0.04676 0.92764 0.0
C980 C 0.3174 0.07458 0.91544 0.0
C981 C 0.29903 1.00202 0.88807 0.0
C982 C 0.31692 0.98536 0.87165 0.0
C983 C 0.30505 0.97328 0.87108 0.0
C984 C 0.28729 0.98992 0.88775 0.0
C985 C 0.29013 0.97575 0.87884 0.0
C986 C 0.31315 0.99999 0.87907 0.0
C987 C 0.32373 0.06815 0.88099 0.0
C988 C 0.29952 1.01428 0.90088 0.0
C989 C 0.3749 0.02305 0.93844 0.0
C990 C 0.38223 0.02588 0.92338 0.0
C991 C 0.3052 0.04045 0.86604 0.0
C992 C 0.25324 0.09651 0.89452 0.0
C993 C 0.2313 0.11131 0.90671 0.0
C994 C 0.22636 0.11678 0.89144 0.0
C995 C 0.24839 0.10172 0.8791 0.0
C996 C 0.24439 0.10096 0.90807 0.0
C997 C 0.23474 0.11165 0.87758 0.0
C998 C 0.29385 0.0521 0.93182 0.0
C999 C 0.26845 0.08848 0.89798 0.0
H1000 H 0.30748 0.96179 0.86531 0.0
H1001 H 0.2764 0.99105 0.89494 0.0
H1002 H 0.28116 0.96628 0.87872 0.0
H1003 H 0.32228 1.0092 0.8796 0.0
H1004 H 0.21641 0.1252 0.8903 0.0
H1005 H 0.25529 0.09858 0.86843 0.0
H1006 H 0.24854 0.0974 0.92005 0.0
H1007 H 0.23104 0.11588 0.86576 0.0
Tb1008 Tb 0.64086 0.31985 1.01159 0.0
C1009 C 0.67645 0.26128 0.99056 0.0
N1010 N 0.67595 0.27435 0.98071 0.0
C1011 C 0.70195 0.2675 0.9697 0.0
C1012 C 0.68962 0.25046 0.98999 0.0
C1013 C 0.68873 0.27796 0.97077 0.0
C1014 C 0.7023 0.25357 0.9792 0.0
C1015 C 0.66469 0.24603 1.01264 0.0
C1016 C 0.66416 0.25928 1.0019 0.0
C1017 C 0.67747 0.23488 1.01168 0.0
C1018 C 0.6899 0.2371 1.00041 0.0
Tb1019 Tb 0.65259 0.2889 0.98191 0.0
N1020 N 0.65197 0.27042 1.00265 0.0
C1021 C 0.65242 0.24435 1.02412 0.0
C1022 C 0.63986 0.26856 1.01378 0.0
C1023 C 0.64001 0.25571 0.02472 0.0
H1024 H 0.68861 0.28886 0.96354 0.0
H1025 H 0.63048 0.25454 0.03361 0.0
H1026 H 0.60755 0.31007 0.03232 0.0
H1027 H 0.6684 0.37925 1.01283 0.0
H1028 H 0.63015 0.27705 1.01481 0.0
H1029 H 0.65244 0.23438 0.0326 0.0
H1030 H 0.66851 0.3496 1.01691 0.0
H1031 H 0.71187 0.27023 0.96162 0.0
H1032 H 0.67797 0.22459 1.01977 0.0
H1033 H 0.69982 0.22855 1.00003 0.0
H1034 H 0.58051 0.32227 0.03628 0.0
H1035 H 0.71259 0.2455 0.97841 0.0
H1036 H 0.64243 0.39389 1.00959 0.0
N1037 N 0.61756 0.33116 1.02162 0.0
C1038 C 0.61533 0.3469 1.01827 0.0
C1039 C 0.59017 0.32936 0.03106 0.0
C1040 C 0.60026 0.3545 1.02023 0.0
C1041 C 0.60549 0.3225 0.02885 0.0
C1042 C 0.58741 0.34534 0.02629 0.0
N1043 N 0.64302 0.34744 1.01504 0.0
C1044 C 0.65716 0.35588 1.01548 0.0
C1045 C 0.62798 0.37237 1.01267 0.0
C1046 C 0.62882 0.35554 1.01468 0.0
C1047 C 0.64245 0.38092 1.0113 0.0
C1048 C 0.65713 0.37268 1.01321 0.0
H1049 H 0.57556 0.35066 0.02798 0.0
H1050 H 0.58731 0.37715 1.01771 0.0
H1051 H 0.61172 0.39293 1.01096 0.0
O1052 O 0.63911 0.31964 0.0367 0.0
O1053 O 0.62643 0.32285 0.98922 0.0
O1054 O 0.64204 0.3096 0.97046 0.0
O1055 O 0.64861 0.29888 1.02354 0.0
O1056 O 0.65838 0.33065 0.99511 0.0
O1057 O 0.66346 0.31229 0.9743 0.0
O1058 O 0.63839 0.27311 0.96865 0.0
O1059 O 0.6747 0.29442 0.99727 0.0
O1060 O 0.66885 0.31748 1.01214 0.0
O1061 O 0.65996 0.28267 0.95809 0.0
O1062 O 0.62543 0.28542 0.98694 0.0
O1063 O 0.6183 0.30592 1.00416 0.0
C1064 C 0.63018 0.31928 0.97413 0.0
C1065 C 0.66033 0.30595 0.04887 0.0
C1066 C 0.68227 0.32154 0.06113 0.0
C1067 C 0.68418 0.30917 0.07269 0.0
C1068 C 0.66248 0.29379 0.06039 0.0
C1069 C 0.67445 0.29537 0.0722 0.0
C1070 C 0.67038 0.31957 0.04917 0.0
C1071 C 0.66536 0.32658 0.98136 0.0
C1072 C 0.64647 0.30567 0.03777 0.0
C1073 C 0.59887 0.37106 1.01675 0.0
C1074 C 0.61277 0.38003 1.01291 0.0
C1075 C 0.67969 0.30629 1.00701 0.0
C1076 C 0.65011 0.25734 0.94879 0.0
C1077 C 0.6362 0.23484 0.93676 0.0
C1078 C 0.6506 0.22591 0.93641 0.0
C1079 C 0.66472 0.24874 0.94819 0.0
C1080 C 0.63612 0.25043 0.94284 0.0
C1081 C 0.66491 0.23298 0.94199 0.0
C1082 C 0.6139 0.29334 0.99514 0.0
C1083 C 0.64789 0.27308 0.9562 0.0
H1084 H 0.69282 0.31027 0.08243 0.0
H1085 H 0.65467 0.28331 0.06051 0.0
H1086 H 0.67593 0.28606 0.08127 0.0
H1087 H 0.66858 0.32882 0.04013 0.0
H1088 H 0.65079 0.21372 0.93165 0.0
H1089 H 0.67577 0.25398 0.95255 0.0
H1090 H 0.62484 0.25716 0.94333 0.0
H1091 H 0.67612 0.22625 0.94159 0.0
Tb1092 Tb 1.00804 0.40524 0.22805 0.0
C1093 C 0.98875 0.36715 0.28608 0.0
N1094 N 0.97988 0.36908 0.27241 0.0
C1095 C 0.96883 0.34246 0.2755 0.0
C1096 C 0.98777 0.35278 0.29518 0.0
C1097 C 0.97022 0.35687 0.26682 0.0
C1098 C 0.97751 0.34046 0.28983 0.0
C1099 C 1.00909 0.37745 0.30437 0.0
C1100 C 0.99943 0.37932 0.29043 0.0
C1101 C 1.00788 0.36331 0.3137 0.0
C1102 C 0.99726 0.35102 0.30912 0.0
Tb1103 Tb 0.98173 0.39378 0.26031 0.0
N1104 N 1.00047 0.39281 0.28098 0.0
C1105 C 1.01968 0.38985 0.3086 0.0
C1106 C 1.01062 0.4051 0.2854 0.0
C1107 C 1.0204 0.40373 0.29911 0.0
H1108 H 0.9634 0.3584 0.25577 0.0
H1109 H 0.02855 0.4134 0.30231 0.0
H1110 H 0.0244 0.44086 0.23662 0.0
H1111 H 1.01811 0.36814 0.17434 0.0
H1112 H 1.01172 0.41598 0.27839 0.0
H1113 H 0.02733 0.38884 0.31918 0.0
H1114 H 1.0128 0.37264 0.20278 0.0
H1115 H 0.96103 0.33293 0.27115 0.0
H1116 H 1.0152 0.36173 0.32445 0.0
H1117 H 0.99661 0.34011 0.31633 0.0
H1118 H 0.03357 0.46479 0.22157 0.0
H1119 H 0.97642 0.32926 0.29653 0.0
H1120 H 0.02485 0.39098 0.15633 0.0
N1121 N 1.02111 0.42636 0.21553 0.0
C1122 C 0.02333 0.42541 0.1994 0.0
C1123 C 0.03063 0.45382 0.21511 0.0
C1124 C 0.02859 0.43876 0.19022 0.0
C1125 C 0.02536 0.44018 0.22359 0.0
C1126 C 0.03193 0.45322 0.19828 0.0
N1127 N 1.01705 0.39824 0.2022 0.0
C1128 C 1.01622 0.38296 0.19573 0.0
C1129 C 0.0241 0.40858 0.17567 0.0
C1130 C 1.02123 0.41067 0.19239 0.0
C1131 C 0.02279 0.39312 0.16911 0.0
C1132 C 1.01906 0.38022 0.17925 0.0
H1133 H 0.03596 0.46379 0.1917 0.0
H1134 H 0.03441 0.44724 0.16608 0.0
H1135 H 0.03039 0.42068 0.15324 0.0
O1136 O 0.03092 0.4096 0.23814 0.0
O1137 O 0.98472 0.41768 0.22342 0.0
O1138 O 0.96752 0.40545 0.24168 0.0
O1139 O 1.01213 0.39837 0.25192 0.0
O1140 O 0.99056 0.38956 0.21684 0.0
O1141 O 0.97282 0.38238 0.2375 0.0
O1142 O 0.9701 0.40772 0.27775 0.0
O1143 O 0.99745 0.37183 0.25443 0.0
O1144 O 1.00913 0.37717 0.22964 0.0
O1145 O 0.95821 0.38709 0.26761 0.0
O1146 O 0.98955 0.42071 0.26242 0.0
O1147 O 0.99757 0.42865 0.23711 0.0
C1148 C 0.97009 0.41494 0.22926 0.0
C1149 C 0.03805 0.38655 0.25225 0.0
C1150 C 0.05178 0.36523 0.23723 0.0
C1151 C 0.05708 0.35844 0.25188 0.0
C1152 C 0.04341 0.37992 0.26687 0.0
C1153 C 0.0529 0.36582 0.26664 0.0
C1154 C 0.04226 0.37904 0.23778 0.0
C1155 C 0.97782 0.38185 0.22222 0.0
C1156 C 0.02762 0.40088 0.25087 0.0
C1157 C 0.03067 0.43708 0.17344 0.0
C1158 C 0.02841 0.42197 0.16615 0.0
C1159 C 1.00547 0.36648 0.24148 0.0
C1160 C 0.95099 0.39546 0.29408 0.0
C1161 C 0.93847 0.40753 0.31742 0.0
C1162 C 0.93826 0.39254 0.3253 0.0
C1163 C 0.95061 0.38027 0.3016 0.0
C1164 C 0.94499 0.40889 0.30204 0.0
C1165 C 0.94437 0.37888 0.31732 0.0
C1166 C 0.99324 0.43272 0.25205 0.0
C1167 C 0.95741 0.39862 0.27806 0.0
H1168 H 0.06457 0.34771 0.25194 0.0
H1169 H 0.04033 0.3855 0.27828 0.0
H1170 H 0.05708 0.36065 0.27791 0.0
H1171 H 0.03753 0.38395 0.22661 0.0
H1172 H 0.93304 0.39137 0.33727 0.0
H1173 H 0.95498 0.36962 0.29545 0.0
H1174 H 0.94512 0.4206 0.29607 0.0
H1175 H 0.94405 0.36721 0.3232 0.0
Tb1176 Tb 0.90274 0.72493 0.51088 0.0
C1177 C 0.86634 0.78351 0.49849 0.0
N1178 N 0.86676 0.77244 0.48645 0.0
C1179 C 0.84087 0.78135 0.47687 0.0
C1180 C 0.85285 0.79378 0.50041 0.0
C1181 C 0.85438 0.77131 0.47555 0.0
C1182 C 0.84004 0.79256 0.48943 0.0
C1183 C 0.87923 0.79604 0.52155 0.0
C1184 C 0.87949 0.78459 0.50885 0.0
C1185 C 0.86573 0.80613 0.52363 0.0
C1186 C 0.8526 0.80503 0.51308 0.0
Tb1187 Tb 0.88977 0.75772 0.48412 0.0
N1188 N 0.89246 0.77462 0.50646 0.0
C1189 C 0.89254 0.79712 0.53181 0.0
C1190 C 0.90555 0.77593 0.5166 0.0
C1191 C 0.90571 0.78702 0.52932 0.0
H1192 H 0.85465 0.76233 0.46607 0.0
H1193 H 0.91601 0.7876 0.53735 0.0
H1194 H 0.93757 0.73551 0.5286 0.0
H1195 H 0.87288 0.66696 0.51545 0.0
H1196 H 0.91563 0.76789 0.51596 0.0
H1197 H 0.89275 0.80569 0.54172 0.0
H1198 H 0.87382 0.69664 0.516 0.0
H1199 H 0.83103 0.78027 0.46833 0.0
H1200 H 0.86538 0.81494 0.53333 0.0
H1201 H 0.84233 0.81299 0.51477 0.0
H1202 H 0.9639 0.72244 0.53357 0.0
H1203 H 0.8295 0.80026 0.49051 0.0
H1204 H 0.89825 0.65105 0.51573 0.0
N1205 N 0.92602 0.71374 0.52114 0.0
C1206 C 0.9273 0.69757 0.52001 0.0
C1207 C 0.95373 0.71527 0.52962 0.0
C1208 C 0.94203 0.6895 0.52271 0.0
C1209 C 0.93877 0.72262 0.52678 0.0
C1210 C 0.9555 0.69865 0.52718 0.0
N1211 N 0.89952 0.69783 0.51645 0.0
C1212 C 0.88501 0.68999 0.51637 0.0
C1213 C 0.9135 0.67218 0.51724 0.0
C1214 C 0.91337 0.68918 0.51749 0.0
C1215 C 0.89874 0.66412 0.51608 0.0
C1216 C 0.8844 0.67307 0.51599 0.0
H1217 H 0.96709 0.69296 0.52934 0.0
H1218 H 0.95385 0.66611 0.52303 0.0
H1219 H 0.92876 0.65084 0.5181 0.0
O1220 O 0.90549 0.72836 0.53575 0.0
O1221 O 0.91445 0.72083 0.48734 0.0
O1222 O 0.90617 0.74198 0.47097 0.0
O1223 O 0.89341 0.74614 0.52069 0.0
O1224 O 0.88728 0.71394 0.49304 0.0
O1225 O 0.87899 0.73471 0.47589 0.0
O1226 O 0.89149 0.77948 0.47115 0.0
O1227 O 0.86787 0.74876 0.49782 0.0
O1228 O 0.87465 0.7256 0.51207 0.0
O1229 O 0.8829 0.75805 0.45972 0.0
O1230 O 0.91721 0.76132 0.48827 0.0
O1231 O 0.92521 0.73832 0.50198 0.0
C1232 C 0.91383 0.7283 0.47326 0.0
C1233 C 0.88264 0.74042 0.54667 0.0
C1234 C 0.86172 0.72393 0.55949 0.0
C1235 C 0.85765 0.7372 0.56935 0.0
C1236 C 0.87838 0.75351 0.55648 0.0
C1237 C 0.86591 0.75187 0.56779 0.0
C1238 C 0.87426 0.72577 0.54822 0.0
C1239 C 0.87961 0.71938 0.48026 0.0
C1240 C 0.89644 0.74133 0.53551 0.0
C1241 C 0.94259 0.67259 0.52139 0.0
C1242 C 0.92831 0.66391 0.5186 0.0
C1243 C 0.86336 0.73641 0.50715 0.0
C1244 C 0.90054 0.77347 0.44483 0.0
C1245 C 0.92796 0.78007 0.43766 0.0
C1246 C 0.92624 0.77172 0.42294 0.0
C1247 C 0.89867 0.76526 0.43005 0.0
C1248 C 0.91524 0.78068 0.44852 0.0
C1249 C 0.91158 0.76431 0.41918 0.0
C1250 C 0.92916 0.7521 0.49453 0.0
C1251 C 0.88824 0.77249 0.45744 0.0
H1252 H 0.84833 0.73621 0.57848 0.0
H1253 H 0.88483 0.76484 0.55556 0.0
H1254 H 0.86275 0.76194 0.57553 0.0
H1255 H 0.87763 0.71571 0.54059 0.0
H1256 H 0.93598 0.77142 0.41417 0.0
H1257 H 0.88745 0.75923 0.42715 0.0
H1258 H 0.91695 0.78691 0.45994 0.0
H1259 H 0.91021 0.75789 0.40785 0.0
Tb1260 Tb 1.00906 0.6423 0.31939 0.0
C1261 C 0.99717 0.68088 0.26269 0.0
N1262 N 0.98539 0.68036 0.27405 0.0
C1263 C 0.97742 0.70753 0.26759 0.0
C1264 C 0.99971 0.69498 0.25345 0.0
C1265 C 0.97533 0.69332 0.27644 0.0
C1266 C 0.9897 0.70838 0.25606 0.0
C1267 C 1.01911 0.66758 0.24862 0.0
C1268 C 1.00667 0.66724 0.26035 0.0
C1269 C 1.02176 0.68163 0.23948 0.0
C1270 C 1.01208 0.69528 0.24187 0.0
Tb1271 Tb 0.98201 0.65648 0.2872 0.0
N1272 N 1.00374 0.65375 0.26942 0.0
C1273 C 0.02854 0.6538 0.2463 0.0
C1274 C 1.01307 0.64022 0.26691 0.0
C1275 C 0.02551 0.64011 0.2555 0.0
H1276 H 0.96595 0.69286 0.28554 0.0
H1277 H 0.03292 0.62943 0.25397 0.0
H1278 H 0.02418 0.60578 0.31108 0.0
H1279 H 1.01381 0.67757 0.37482 0.0
H1280 H 1.012 0.62958 0.27413 0.0
H1281 H 0.03824 0.65364 0.23749 0.0
H1282 H 1.00979 0.67366 0.34601 0.0
H1283 H 0.9696 0.7178 0.2697 0.0
H1284 H 0.03126 0.68204 0.23046 0.0
H1285 H 1.01423 0.706 0.23466 0.0
H1286 H 0.03236 0.58163 0.32617 0.0
H1287 H 0.9913 0.71941 0.24919 0.0
H1288 H 1.02145 0.65463 0.39232 0.0
N1289 N 1.0209 0.62047 0.33214 0.0
C1290 C 0.02279 0.62127 0.34834 0.0
C1291 C 0.0296 0.59267 0.33262 0.0
C1292 C 0.02757 0.6077 0.35751 0.0
C1293 C 0.02478 0.60647 0.32413 0.0
C1294 C 0.03075 0.5932 0.34945 0.0
N1295 N 1.01615 0.6485 0.34596 0.0
C1296 C 1.0139 0.66343 0.35289 0.0
C1297 C 1.02241 0.63762 0.37245 0.0
C1298 C 1.02037 0.63591 0.35556 0.0
C1299 C 1.02009 0.65281 0.3794 0.0
C1300 C 1.01588 0.66577 0.36955 0.0
H1301 H 0.03441 0.58249 0.35603 0.0
H1302 H 0.03261 0.59881 0.38167 0.0
H1303 H 0.02799 0.62511 0.39484 0.0
O1304 O 0.03205 0.63637 0.31061 0.0
O1305 O 0.98538 0.63036 0.323 0.0
O1306 O 0.96857 0.64036 0.3029 0.0
O1307 O 1.01643 0.65271 0.2977 0.0
O1308 O 0.99012 0.65564 0.33094 0.0
O1309 O 0.97443 0.66725 0.31071 0.0
O1310 O 0.96928 0.65482 0.2652 0.0
O1311 O 0.99518 0.67813 0.29722 0.0
O1312 O 1.01172 0.6703 0.31839 0.0
O1313 O 0.95797 0.66426 0.28635 0.0
O1314 O 0.98599 0.6287 0.28391 0.0
O1315 O 0.99962 0.62001 0.30684 0.0
C1316 C 0.97106 0.63177 0.31601 0.0
C1317 C 0.04384 0.65958 0.30097 0.0
C1318 C 0.05889 0.6768 0.31934 0.0
C1319 C 0.06794 0.6827 0.30625 0.0
C1320 C 0.05264 0.66559 0.28783 0.0
C1321 C 0.06479 0.67708 0.29053 0.0
C1322 C 0.04724 0.66509 0.31658 0.0
C1323 C 0.97817 0.66476 0.3261 0.0
C1324 C 0.03121 0.64736 0.29935 0.0
C1325 C 0.02918 0.60912 0.37437 0.0
C1326 C 0.02659 0.62409 0.38184 0.0
C1327 C 1.00565 0.68207 0.30872 0.0
C1328 C 0.94247 0.64747 0.27089 0.0
C1329 C 0.93411 0.61968 0.2683 0.0
C1330 C 0.91863 0.62387 0.27399 0.0
C1331 C 0.92701 0.6517 0.27647 0.0
C1332 C 0.94593 0.63145 0.26696 0.0
C1333 C 0.91514 0.63986 0.2781 0.0
C1334 C 0.9923 0.61649 0.29291 0.0
C1335 C 0.95569 0.65898 0.27187 0.0
H1336 H 0.07703 0.69189 0.30811 0.0
H1337 H 0.05022 0.6614 0.27566 0.0
H1338 H 0.07165 0.68175 0.28042 0.0
H1339 H 0.04058 0.66031 0.32681 0.0
H1340 H 0.90912 0.61494 0.27475 0.0
H1341 H 0.92431 0.664 0.28004 0.0
H1342 H 0.95791 0.62796 0.26295 0.0
H1343 H 0.90324 0.64308 0.28248 0.0
Tb1344 Tb 0.56647 0.39093 0.78821 0.0
C1345 C 0.5102 0.42913 0.80108 0.0
N1346 N 0.52147 0.4288 0.81292 0.0
C1347 C 0.51458 0.45586 0.8208 0.0
C1348 C 0.50074 0.44308 0.79849 0.0
C1349 C 0.52363 0.44179 0.82295 0.0
C1350 C 0.50307 0.45652 0.8085 0.0
C1351 C 0.49659 0.41563 0.77902 0.0
C1352 C 0.50821 0.41547 0.79153 0.0
C1353 C 0.48717 0.42951 0.77636 0.0
C1354 C 0.48922 0.44318 0.78607 0.0
Tb1355 Tb 0.53484 0.40509 0.81639 0.0
N1356 N 0.51754 0.40214 0.79448 0.0
C1357 C 0.49468 0.40185 0.76951 0.0
C1358 C 0.51543 0.38862 0.78511 0.0
C1359 C 0.50417 0.38834 0.77255 0.0
H1360 H 0.53267 0.44143 0.83238 0.0
H1361 H 0.50295 0.37766 0.76509 0.0
H1362 H 0.55713 0.35578 0.771 0.0
H1363 H 0.62305 0.42331 0.78079 0.0
H1364 H 0.52287 0.37819 0.78623 0.0
H1365 H 0.48596 0.40155 0.75975 0.0
H1366 H 0.59366 0.42112 0.78207 0.0
H1367 H 0.51648 0.46617 0.82861 0.0
H1368 H 0.47821 0.42977 0.76681 0.0
H1369 H 0.48182 0.45376 0.7839 0.0
H1370 H 0.57094 0.32982 0.76582 0.0
H1371 H 0.49603 0.46744 0.80686 0.0
H1372 H 0.64004 0.39871 0.77933 0.0
N1373 N 0.57853 0.36817 0.77764 0.0
C1374 C 0.59476 0.36758 0.77796 0.0
C1375 C 0.57784 0.3403 0.76943 0.0
C1376 C 0.60335 0.3532 0.77487 0.0
C1377 C 0.57002 0.35497 0.77258 0.0
C1378 C 0.5946 0.33929 0.77099 0.0
N1379 N 0.59335 0.3953 0.78147 0.0
C1380 C 0.60061 0.41016 0.78123 0.0
C1381 C 0.61957 0.38252 0.77918 0.0
C1382 C 0.60259 0.38187 0.77996 0.0
C1383 C 0.62701 0.39763 0.77983 0.0
C1384 C 0.61746 0.41152 0.78056 0.0
H1385 H 0.60069 0.32795 0.76854 0.0
H1386 H 0.62718 0.34245 0.77317 0.0
H1387 H 0.64151 0.36827 0.77705 0.0
O1388 O 0.5602 0.38621 0.76416 0.0
O1389 O 0.5708 0.37915 0.81173 0.0
O1390 O 0.55116 0.38908 0.82915 0.0
O1391 O 0.54525 0.40132 0.77941 0.0
O1392 O 0.57821 0.4061 0.80585 0.0
O1393 O 0.55824 0.41543 0.82351 0.0
O1394 O 0.51311 0.40423 0.82952 0.0
O1395 O 0.54452 0.42664 0.8028 0.0
O1396 O 0.56571 0.41891 0.78616 0.0
O1397 O 0.53468 0.41274 0.8406 0.0
O1398 O 0.5316 0.37736 0.81374 0.0
O1399 O 0.55271 0.36894 0.79729 0.0
C1400 C 0.56422 0.3806 0.82621 0.0
C1401 C 0.5511 0.40998 0.75281 0.0
C1402 C 0.57041 0.42794 0.7398 0.0
C1403 C 0.55763 0.43545 0.73147 0.0
C1404 C 0.53839 0.41752 0.74462 0.0
C1405 C 0.54171 0.43019 0.73386 0.0
C1406 C 0.56696 0.41519 0.75019 0.0
C1407 C 0.57334 0.41428 0.81855 0.0
C1408 C 0.54862 0.39692 0.76454 0.0
C1409 C 0.6203 0.35342 0.77517 0.0
C1410 C 0.62843 0.36811 0.77735 0.0
C1411 C 0.55596 0.43058 0.79224 0.0
C1412 C 0.51929 0.39538 0.8558 0.0
C1413 C 0.51374 0.36764 0.86276 0.0
C1414 C 0.52191 0.3696 0.87753 0.0
C1415 C 0.52734 0.39747 0.87063 0.0
C1416 C 0.51265 0.38042 0.85201 0.0
C1417 C 0.5287 0.38453 0.88143 0.0
C1418 C 0.53989 0.36528 0.80642 0.0
C1419 C 0.52023 0.40759 0.84311 0.0
H1420 H 0.55992 0.44548 0.72338 0.0
H1421 H 0.52604 0.41371 0.74659 0.0
H1422 H 0.53191 0.4361 0.72752 0.0
H1423 H 0.57672 0.40967 0.7569 0.0
H1424 H 0.52261 0.3598 0.88619 0.0
H1425 H 0.53298 0.40888 0.87359 0.0
H1426 H 0.50664 0.37849 0.84051 0.0
H1427 H 0.53501 0.38608 0.89279 0.0
Tb1428 Tb 0.56884 0.65289 0.7613 0.0
C1429 C 0.511 0.61716 0.74747 0.0
N1430 N 0.52199 0.61789 0.73535 0.0
C1431 C 0.51387 0.59176 0.72578 0.0
C1432 C 0.5011 0.60344 0.74937 0.0
C1433 C 0.52344 0.60555 0.7244 0.0
C1434 C 0.50266 0.59068 0.73834 0.0
C1435 C 0.49839 0.62958 0.77082 0.0
C1436 C 0.50975 0.63015 0.75805 0.0
C1437 C 0.48861 0.61589 0.77282 0.0
C1438 C 0.48994 0.60287 0.76211 0.0
Tb1439 Tb 0.53618 0.64126 0.73333 0.0
N1440 N 0.51943 0.64331 0.75577 0.0
C1441 C 0.49704 0.64281 0.78119 0.0
C1442 C 0.51772 0.6564 0.76582 0.0
C1443 C 0.50674 0.65626 0.77866 0.0
H1444 H 0.53236 0.60608 0.71485 0.0
H1445 H 0.50586 0.66654 0.7867 0.0
H1446 H 0.56108 0.68725 0.78048 0.0
H1447 H 0.62427 0.61742 0.76406 0.0
H1448 H 0.52528 0.66676 0.76495 0.0
H1449 H 0.48854 0.64278 0.79117 0.0
H1450 H 0.59508 0.62102 0.76309 0.0
H1451 H 0.51521 0.58195 0.71722 0.0
H1452 H 0.47987 0.6153 0.78257 0.0
H1453 H 0.48224 0.59244 0.76377 0.0
H1454 H 0.5762 0.71176 0.7881 0.0
H1455 H 0.49527 0.57995 0.73942 0.0
H1456 H 0.64221 0.64091 0.76803 0.0
N1457 N 0.582 0.67414 0.77324 0.0
C1458 C 0.59826 0.67385 0.77297 0.0
C1459 C 0.5826 0.70122 0.78371 0.0
C1460 C 0.6075 0.68743 0.77733 0.0
C1461 C 0.57407 0.68735 0.77925 0.0
C1462 C 0.59942 0.7014 0.78239 0.0
N1463 N 0.59569 0.64666 0.76667 0.0
C1464 C 0.60237 0.63154 0.76523 0.0
C1465 C 0.62242 0.6579 0.77008 0.0
C1466 C 0.60547 0.65943 0.76953 0.0
C1467 C 0.62924 0.64263 0.76778 0.0
C1468 C 0.61914 0.62935 0.76562 0.0
H1469 H 0.60603 0.71214 0.78583 0.0
H1470 H 0.6318 0.69674 0.77997 0.0
H1471 H 0.64496 0.67076 0.77352 0.0
O1472 O 0.56417 0.65527 0.78605 0.0
O1473 O 0.57233 0.66678 0.73882 0.0
O1474 O 0.55383 0.65583 0.72086 0.0
O1475 O 0.54734 0.64329 0.76999 0.0
O1476 O 0.57975 0.63894 0.74213 0.0
O1477 O 0.55927 0.63019 0.72485 0.0
O1478 O 0.51433 0.64643 0.72137 0.0
O1479 O 0.5451 0.61865 0.74591 0.0
O1480 O 0.56735 0.62495 0.76168 0.0
O1481 O 0.53362 0.63475 0.70896 0.0
O1482 O 0.53387 0.66879 0.73748 0.0
O1483 O 0.55553 0.67602 0.75364 0.0
C1484 C 0.56639 0.66482 0.72413 0.0
C1485 C 0.55214 0.63185 0.79582 0.0
C1486 C 0.56836 0.61124 0.80956 0.0
C1487 C 0.55418 0.60535 0.81685 0.0
C1488 C 0.53817 0.62576 0.80308 0.0
C1489 C 0.53922 0.61253 0.81355 0.0
C1490 C 0.56711 0.62447 0.799 0.0
C1491 C 0.57465 0.63114 0.7293 0.0
C1492 C 0.55146 0.64598 0.78506 0.0
C1493 C 0.62443 0.68638 0.77696 0.0
C1494 C 0.6319 0.67159 0.77332 0.0
C1495 C 0.55699 0.61388 0.75566 0.0
C1496 C 0.5199 0.65448 0.69453 0.0
C1497 C 0.51294 0.68148 0.68543 0.0
C1498 C 0.52245 0.67915 0.67149 0.0
C1499 C 0.52911 0.65217 0.6804 0.0
C1500 C 0.51173 0.66913 0.69687 0.0
C1501 C 0.53037 0.66448 0.66897 0.0
C1502 C 0.54253 0.68039 0.74495 0.0
C1503 C 0.52003 0.64221 0.70736 0.0
H1504 H 0.5546 0.59528 0.82519 0.0
H1505 H 0.52653 0.63125 0.80072 0.0
H1506 H 0.5284 0.60787 0.81922 0.0
H1507 H 0.57779 0.62887 0.79286 0.0
H1508 H 0.52319 0.68838 0.66223 0.0
H1509 H 0.53553 0.64095 0.67831 0.0
H1510 H 0.50442 0.67103 0.7076 0.0
H1511 H 0.53733 0.66256 0.65806 0.0
Tb1512 Tb 0.89047 0.28363 0.06895 0.0
C1513 C 0.92764 0.2988 1.01387 0.0
N1514 N 0.92731 0.31065 0.02518 0.0
C1515 C 0.95367 0.31958 1.01702 0.0
C1516 C 0.94125 0.29677 1.00376 0.0
C1517 C 0.94002 0.32111 0.02682 0.0
C1518 C 0.95429 0.30737 1.00542 0.0
C1519 C 0.91471 0.27594 1.00108 0.0
C1520 C 0.91442 0.28852 1.01266 0.0
C1521 C 0.92824 0.27388 0.99102 0.0
C1522 C 0.94144 0.28428 0.99233 0.0
Tb1523 Tb 0.90372 0.31342 0.03907 0.0
N1524 N 0.90139 0.29086 1.02261 0.0
C1525 C 0.90134 0.26582 0.99978 0.0
C1526 C 0.88813 0.28112 1.02081 0.0
C1527 C 0.88802 0.26844 1.00967 0.0
H1528 H 0.93977 0.33045 0.03595 0.0
H1529 H 0.87762 0.26059 1.00882 0.0
H1530 H 0.85902 0.26526 0.05137 0.0
H1531 H 0.90791 0.28027 0.13197 0.0
H1532 H 0.87788 0.28194 0.02852 0.0
H1533 H 0.90116 0.25598 0.99114 0.0
H1534 H 0.91294 0.27962 0.10248 0.0
H1535 H 0.9637 0.32781 1.01844 0.0
H1536 H 0.92857 0.26429 0.9821 0.0
H1537 H 0.95176 0.28255 0.98444 0.0
H1538 H 0.8309 0.25866 0.05899 0.0
H1539 H 0.9649 0.3062 0.99783 0.0
H1540 H 0.87984 0.27916 0.14235 0.0
N1541 N 0.86549 0.27321 0.07503 0.0
C1542 C 0.86101 0.27418 0.09069 0.0
C1543 C 0.83921 0.26314 0.06804 0.0
C1544 C 0.84513 0.27073 0.09565 0.0
C1545 C 0.85514 0.2668 0.06379 0.0
C1546 C 0.83404 0.26554 0.08398 0.0
N1547 N 0.88824 0.27869 0.09623 0.0
C1548 C 0.90077 0.27918 0.10688 0.0
C1549 C 0.8693 0.27731 0.11846 0.0
C1550 C 0.87291 0.27717 0.10181 0.0
C1551 C 0.88205 0.27891 0.12942 0.0
C1552 C 0.8979 0.27949 0.1236 0.0
H1553 H 0.82169 0.26275 0.08726 0.0
H1554 H 0.82888 0.26973 0.11621 0.0
H1555 H 0.85009 0.2757 0.13628 0.0
O1556 O 0.88781 0.25867 0.06919 0.0
O1557 O 0.87866 0.30651 0.07519 0.0
O1558 O 0.8888 0.32556 0.0572 0.0
O1559 O 0.8996 0.2708 0.04904 0.0
O1560 O 0.90762 0.29942 0.08122 0.0
O1561 O 0.91389 0.32007 0.06301 0.0
O1562 O 0.90063 0.32594 1.01715 0.0
O1563 O 0.92578 0.29969 0.04707 0.0
O1564 O 0.9186 0.28243 0.06776 0.0
O1565 O 0.91111 0.33778 0.03814 0.0
O1566 O 0.87638 0.31088 0.03469 0.0
O1567 O 0.86894 0.294 0.05541 0.0
C1568 C 0.88021 0.32141 0.06992 0.0
C1569 C 0.90956 0.24535 0.05814 0.0
C1570 C 0.93075 0.23548 0.07636 0.0
C1571 C 0.9327 0.22195 0.06615 0.0
C1572 C 0.91174 0.23197 0.04809 0.0
C1573 C 0.92329 0.22028 0.05214 0.0
C1574 C 0.91889 0.24682 0.07212 0.0
C1575 C 0.91463 0.31327 0.07752 0.0
C1576 C 0.89622 0.25685 0.05588 0.0
C1577 C 0.84112 0.27194 0.11213 0.0
C1578 C 0.8532 0.27531 0.12355 0.0
C1579 C 0.93005 0.28863 0.05783 0.0
C1580 C 0.90999 0.35329 1.01352 0.0
C1581 C 0.89763 0.37194 0.99503 0.0
C1582 C 0.90941 0.38356 0.99867 0.0
C1583 C 0.92171 0.36484 1.01754 0.0
C1584 C 0.89896 0.35645 1.00136 0.0
C1585 C 0.92171 0.37981 1.00966 0.0
C1586 C 0.86466 0.30349 0.04314 0.0
C1587 C 0.90769 0.33865 1.02292 0.0
H1588 H 0.9412 0.21244 0.06896 0.0
H1589 H 0.90427 0.23035 0.03746 0.0
H1590 H 0.92482 0.20976 0.04451 0.0
H1591 H 0.91648 0.25699 0.07973 0.0
H1592 H 0.90845 0.39573 0.99396 0.0
H1593 H 0.93052 0.36244 0.02692 0.0
H1594 H 0.88982 0.34753 0.99843 0.0
H1595 H 0.93059 0.38884 1.01281 0.0
Tb1596 Tb 0.64115 0.72518 0.53929 0.0
C1597 C 0.67726 0.78415 0.55873 0.0
N1598 N 0.67614 0.77111 0.56857 0.0
C1599 C 0.7021 0.777 0.58007 0.0
C1600 C 0.69083 0.79438 0.55942 0.0
C1601 C 0.68853 0.76709 0.57884 0.0
C1602 C 0.70319 0.79079 0.57041 0.0
C1603 C 0.66614 0.80015 0.53684 0.0
C1604 C 0.66505 0.78684 0.54747 0.0
C1605 C 0.67945 0.81059 0.53775 0.0
C1606 C 0.69175 0.80771 0.549 0.0
Tb1607 Tb 0.65239 0.7574 0.56717 0.0
N1608 N 0.65229 0.77645 0.54683 0.0
C1609 C 0.65381 0.80264 0.52558 0.0
C1610 C 0.64004 0.7792 0.53602 0.0
C1611 C 0.64074 0.79211 0.52517 0.0
H1612 H 0.6878 0.75631 0.58621 0.0
H1613 H 0.63113 0.79395 0.5165 0.0
H1614 H 0.60619 0.73264 0.52082 0.0
H1615 H 0.67739 0.6705 0.53322 0.0
H1616 H 0.62977 0.77133 0.53515 0.0
H1617 H 0.65425 0.81267 0.51718 0.0
H1618 H 0.67336 0.69967 0.53402 0.0
H1619 H 0.71173 0.77395 0.58839 0.0
H1620 H 0.6804 0.82088 0.52972 0.0
H1621 H 0.70201 0.81579 0.54943 0.0
H1622 H 0.58175 0.71724 0.51375 0.0
H1623 H 0.71376 0.79841 0.57132 0.0
H1624 H 0.65398 0.65214 0.53091 0.0
N1625 N 0.61991 0.71183 0.52732 0.0
C1626 C 0.62029 0.69558 0.52762 0.0
C1627 C 0.59249 0.71093 0.51774 0.0
C1628 C 0.60666 0.6862 0.5238 0.0
C1629 C 0.60641 0.71962 0.52176 0.0
C1630 C 0.59248 0.69413 0.51916 0.0
N1631 N 0.64757 0.6986 0.53261 0.0
C1632 C 0.66285 0.69216 0.53295 0.0
C1633 C 0.63661 0.67166 0.52982 0.0
C1634 C 0.63487 0.68858 0.53046 0.0
C1635 C 0.65207 0.66508 0.53127 0.0
C1636 C 0.66529 0.67542 0.53252 0.0
H1637 H 0.58169 0.68741 0.51613 0.0
H1638 H 0.5975 0.66178 0.52169 0.0
H1639 H 0.62388 0.64894 0.52707 0.0
O1640 O 0.63696 0.73242 0.51537 0.0
O1641 O 0.62752 0.72166 0.56194 0.0
O1642 O 0.64062 0.7382 0.58019 0.0
O1643 O 0.64956 0.74781 0.53204 0.0
O1644 O 0.65741 0.71454 0.55696 0.0
O1645 O 0.66324 0.73454 0.57599 0.0
O1646 O 0.6384 0.77445 0.57912 0.0
O1647 O 0.67472 0.75081 0.55235 0.0
O1648 O 0.66902 0.727 0.53876 0.0
O1649 O 0.65904 0.76423 0.59098 0.0
O1650 O 0.62555 0.76004 0.56058 0.0
O1651 O 0.61782 0.73639 0.54828 0.0
C1652 C 0.63018 0.72692 0.57675 0.0
C1653 C 0.66 0.74429 0.50559 0.0
C1654 C 0.6787 0.72629 0.49156 0.0
C1655 C 0.68372 0.73927 0.48182 0.0
C1656 C 0.66482 0.75718 0.49579 0.0
C1657 C 0.67684 0.75467 0.48404 0.0
C1658 C 0.66733 0.72924 0.5036 0.0
C1659 C 0.66454 0.71967 0.57022 0.0
C1660 C 0.64628 0.74499 0.51683 0.0
C1661 C 0.60789 0.66928 0.52423 0.0
C1662 C 0.6229 0.66198 0.52727 0.0
C1663 C 0.6798 0.73831 0.54341 0.0
C1664 C 0.64972 0.79017 0.59921 0.0
C1665 C 0.63608 0.81274 0.61152 0.0
C1666 C 0.6507 0.82116 0.6126 0.0
C1667 C 0.66454 0.79822 0.60045 0.0
C1668 C 0.63574 0.79744 0.6048 0.0
C1669 C 0.66498 0.8138 0.60711 0.0
C1670 C 0.61379 0.75055 0.55482 0.0
C1671 C 0.64731 0.77442 0.59197 0.0
H1672 H 0.69255 0.73748 0.47231 0.0
H1673 H 0.65916 0.76892 0.49702 0.0
H1674 H 0.68056 0.76458 0.47636 0.0
H1675 H 0.66354 0.71941 0.51127 0.0
H1676 H 0.6511 0.83311 0.6179 0.0
H1677 H 0.67559 0.79267 0.5963 0.0
H1678 H 0.62429 0.79109 0.60383 0.0
H1679 H 0.67635 0.82012 0.60808 0.0
Tb1680 Tb 0.75754 0.56677 0.65234 0.0
C1681 C 0.74372 0.50975 0.61575 0.0
N1682 N 0.73142 0.52054 0.61666 0.0
C1683 C 0.72221 0.51286 0.59023 0.0
C1684 C 0.74578 0.50009 0.60183 0.0
C1685 C 0.72063 0.52219 0.60421 0.0
C1686 C 0.73481 0.50172 0.58903 0.0
C1687 C 0.76746 0.49764 0.6278 0.0
C1688 C 0.75446 0.5087 0.62864 0.0
C1689 C 0.76951 0.48795 0.614 0.0
C1690 C 0.7587 0.48916 0.60106 0.0
Tb1691 Tb 0.72917 0.53419 0.6404 0.0
N1692 N 0.75217 0.51833 0.64191 0.0
C1693 C 0.77804 0.49651 0.64089 0.0
C1694 C 0.76235 0.51672 0.6549 0.0
C1695 C 0.77544 0.50606 0.65448 0.0
H1696 H 0.71104 0.53103 0.60486 0.0
H1697 H 0.78359 0.5053 0.66468 0.0
H1698 H 0.77643 0.55783 0.6869 0.0
H1699 H 0.7579 0.62474 0.6217 0.0
H1700 H 0.76137 0.52408 0.6654 0.0
H1701 H 0.78819 0.48824 0.64066 0.0
H1702 H 0.76037 0.59509 0.62292 0.0
H1703 H 0.71374 0.51431 0.58036 0.0
H1704 H 0.77942 0.47942 0.61322 0.0
H1705 H 0.76046 0.4816 0.59049 0.0
H1706 H 0.78084 0.57134 0.7132 0.0
H1707 H 0.73602 0.4945 0.57816 0.0
H1708 H 0.7573 0.64083 0.64698 0.0
N1709 N 0.76713 0.57888 0.6754 0.0
C1710 C 0.7649 0.59495 0.67654 0.0
C1711 C 0.77616 0.57814 0.70303 0.0
C1712 C 0.76727 0.6033 0.69119 0.0
C1713 C 0.77356 0.5705 0.68815 0.0
C1714 C 0.7726 0.59457 0.70469 0.0
N1715 N 0.76107 0.5942 0.64871 0.0
C1716 C 0.76045 0.6019 0.63406 0.0
C1717 C 0.76031 0.61997 0.66247 0.0
C1718 C 0.76166 0.60302 0.66251 0.0
C1719 C 0.75851 0.62781 0.64759 0.0
C1720 C 0.75893 0.61876 0.6333 0.0
H1721 H 0.77459 0.60048 0.71621 0.0
H1722 H 0.7662 0.62676 0.70279 0.0
H1723 H 0.75993 0.64145 0.67754 0.0
O1724 O 0.78248 0.56644 0.65509 0.0
O1725 O 0.73501 0.57078 0.66586 0.0
O1726 O 0.71709 0.55186 0.6557 0.0
O1727 O 0.76984 0.54638 0.64376 0.0
O1728 O 0.73954 0.57696 0.63625 0.0
O1729 O 0.72025 0.55722 0.63057 0.0
O1730 O 0.71749 0.51221 0.64552 0.0
O1731 O 0.74207 0.54316 0.61792 0.0
O1732 O 0.75851 0.56483 0.62441 0.0
O1733 O 0.70495 0.53134 0.63366 0.0
O1734 O 0.73289 0.53146 0.66772 0.0
O1735 O 0.75003 0.5523 0.67461 0.0
C1736 C 0.72044 0.56455 0.66461 0.0
C1737 C 0.79562 0.55413 0.63366 0.0
C1738 C 0.80868 0.57113 0.61319 0.0
C1739 C 0.82081 0.55924 0.61162 0.0
C1740 C 0.80767 0.54245 0.63178 0.0
C1741 C 0.82017 0.54499 0.6207 0.0
C1742 C 0.79605 0.56822 0.6242 0.0
C1743 C 0.7259 0.57209 0.62983 0.0
C1744 C 0.78391 0.55296 0.64696 0.0
C1745 C 0.76482 0.62009 0.6916 0.0
C1746 C 0.76128 0.62844 0.67722 0.0
C1747 C 0.7525 0.55449 0.61331 0.0
C1748 C 0.69081 0.51806 0.65391 0.0
C1749 C 0.68237 0.51263 0.68162 0.0
C1750 C 0.66789 0.5211 0.67869 0.0
C1751 C 0.67618 0.52624 0.65112 0.0
C1752 C 0.69388 0.51151 0.66926 0.0
C1753 C 0.66489 0.52791 0.66354 0.0
C1754 C 0.7408 0.53985 0.67908 0.0
C1755 C 0.70345 0.51789 0.6414 0.0
H1756 H 0.83109 0.56103 0.60375 0.0
H1757 H 0.80767 0.53165 0.63918 0.0
H1758 H 0.82965 0.53606 0.61946 0.0
H1759 H 0.7865 0.57698 0.6257 0.0
H1760 H 0.65855 0.5219 0.68785 0.0
H1761 H 0.67365 0.53163 0.63944 0.0
H1762 H 0.7052 0.50537 0.67161 0.0
H1763 H 0.65369 0.53431 0.66135 0.0
Tb1764 Tb 0.72539 0.50972 0.90228 0.0
C1765 C 0.7853 0.49221 0.86736 0.0
N1766 N 0.77272 0.48184 0.86669 0.0
C1767 C 0.78154 0.47225 0.84072 0.0
C1768 C 0.79668 0.4929 0.85466 0.0
C1769 C 0.77052 0.47205 0.85352 0.0
C1770 C 0.79476 0.48263 0.84134 0.0
C1771 C 0.79905 0.51395 0.88116 0.0
C1772 C 0.78638 0.50258 0.88052 0.0
C1773 C 0.81065 0.51442 0.86875 0.0
C1774 C 0.80947 0.50391 0.85554 0.0
Tb1775 Tb 0.75686 0.48064 0.88909 0.0
N1776 N 0.77484 0.50186 0.89234 0.0
C1777 C 0.79965 0.52473 0.89412 0.0
C1778 C 0.77539 0.51275 0.90483 0.0
C1779 C 0.78767 0.52422 0.9059 0.0
H1780 H 0.76016 0.46419 0.85276 0.0
H1781 H 0.78777 0.5328 0.91578 0.0
H1782 H 0.73111 0.52383 0.93959 0.0
H1783 H 0.67137 0.51445 0.86496 0.0
H1784 H 0.76611 0.51352 0.91377 0.0
H1785 H 0.80913 0.53368 0.895 0.0
H1786 H 0.70035 0.5137 0.86964 0.0
H1787 H 0.77979 0.46445 0.83036 0.0
H1788 H 0.82048 0.52301 0.86915 0.0
H1789 H 0.8184 0.50455 0.84597 0.0
H1790 H 0.7146 0.52801 0.96402 0.0
H1791 H 0.80327 0.48281 0.83137 0.0
H1792 H 0.65238 0.51594 0.88802 0.0
N1793 N 0.711 0.51874 0.92431 0.0
C1794 C 0.69476 0.51839 0.92319 0.0
C1795 C 0.70882 0.5252 0.95263 0.0
C1796 C 0.68477 0.52081 0.9368 0.0
C1797 C 0.71815 0.52269 0.93871 0.0
C1798 C 0.69204 0.52395 0.95174 0.0
N1799 N 0.69866 0.51501 0.8955 0.0
C1800 C 0.69261 0.51474 0.88003 0.0
C1801 C 0.67139 0.51678 0.90594 0.0
C1802 C 0.68828 0.51647 0.90811 0.0
C1803 C 0.66527 0.5158 0.89023 0.0
C1804 C 0.67595 0.51501 0.87721 0.0
H1805 H 0.68483 0.52585 0.96253 0.0
H1806 H 0.66001 0.5219 0.94528 0.0
H1807 H 0.64822 0.51832 0.91813 0.0
O1808 O 0.74588 0.52141 0.89306 0.0
O1809 O 0.72221 0.48762 0.91672 0.0
O1810 O 0.73846 0.46887 0.90376 0.0
O1811 O 0.72803 0.53411 0.90761 0.0
O1812 O 0.7138 0.49121 0.88843 0.0
O1813 O 0.73375 0.47497 0.87705 0.0
O1814 O 0.77664 0.46507 0.89304 0.0
O1815 O 0.75072 0.49611 0.86768 0.0
O1816 O 0.72764 0.51043 0.87428 0.0
O1817 O 0.75558 0.45681 0.88067 0.0
O1818 O 0.76086 0.48439 0.91641 0.0
O1819 O 0.73961 0.50082 0.92432 0.0
C1820 C 0.72678 0.47264 0.91379 0.0
C1821 C 0.73946 0.54885 0.88691 0.0
C1822 C 0.72186 0.56391 0.86843 0.0
C1823 C 0.73175 0.57756 0.8707 0.0
C1824 C 0.74918 0.56248 0.88882 0.0
C1825 C 0.74541 0.57673 0.8806 0.0
C1826 C 0.72617 0.54948 0.87638 0.0
C1827 C 0.71854 0.47916 0.87936 0.0
C1828 C 0.74084 0.53546 0.89848 0.0
C1829 C 0.66793 0.52034 0.93495 0.0
C1830 C 0.66123 0.51832 0.9195 0.0
C1831 C 0.73862 0.50561 0.86317 0.0
C1832 C 0.76568 0.43969 0.89998 0.0
C1833 C 0.76588 0.43096 0.92795 0.0
C1834 C 0.75919 0.41607 0.92329 0.0
C1835 C 0.75889 0.42488 0.89533 0.0
C1836 C 0.76799 0.44297 0.91635 0.0
C1837 C 0.75532 0.41324 0.90706 0.0
C1838 C 0.75252 0.49185 0.92826 0.0
C1839 C 0.76853 0.45253 0.88816 0.0
H1840 H 0.72871 0.58909 0.86535 0.0
H1841 H 0.75921 0.56234 0.89722 0.0
H1842 H 0.75273 0.58738 0.88242 0.0
H1843 H 0.71871 0.53891 0.87514 0.0
H1844 H 0.75777 0.40635 0.93195 0.0
H1845 H 0.75622 0.42243 0.88273 0.0
H1846 H 0.77252 0.45464 0.92012 0.0
H1847 H 0.75015 0.40179 0.9035 0.0
Tb1848 Tb 0.78578 0.47662 0.15158 0.0
C1849 C 0.79948 0.53317 0.11478 0.0
N1850 N 0.81148 0.52206 0.11531 0.0
C1851 C 0.82056 0.52998 0.08888 0.0
C1852 C 0.79735 0.54298 0.10097 0.0
C1853 C 0.82219 0.52051 0.10276 0.0
C1854 C 0.80804 0.54122 0.08794 0.0
C1855 C 0.77672 0.54623 0.12775 0.0
C1856 C 0.78936 0.53473 0.12812 0.0
C1857 C 0.77446 0.5559 0.11396 0.0
C1858 C 0.78476 0.5543 0.10063 0.0
Tb1859 Tb 0.81407 0.50807 0.13877 0.0
N1860 N 0.79191 0.52516 0.14138 0.0
C1861 C 0.76672 0.54781 0.14125 0.0
C1862 C 0.78208 0.527 0.15466 0.0
C1863 C 0.76941 0.53814 0.15473 0.0
H1864 H 0.83174 0.51161 0.10325 0.0
H1865 H 0.76158 0.53912 0.16518 0.0
H1866 H 0.76718 0.48855 0.18549 0.0
H1867 H 0.78039 0.41828 0.1223 0.0
H1868 H 0.78288 0.51934 0.16499 0.0
H1869 H 0.75685 0.55643 0.14138 0.0
H1870 H 0.78118 0.44796 0.12284 0.0
H1871 H 0.82891 0.52853 0.07889 0.0
H1872 H 0.76481 0.56475 0.11353 0.0
H1873 H 0.78292 0.56192 0.09013 0.0
H1874 H 0.75933 0.47616 0.2115 0.0
H1875 H 0.80678 0.54854 0.07714 0.0
H1876 H 0.7778 0.40285 0.14786 0.0
N1877 N 0.77408 0.46621 0.1746 0.0
C1878 C 0.77424 0.45002 0.17613 0.0
C1879 C 0.76364 0.46863 0.20169 0.0
C1880 C 0.77004 0.44235 0.19075 0.0
C1881 C 0.76811 0.47559 0.18691 0.0
C1882 C 0.76503 0.45194 0.20378 0.0
N1883 N 0.7795 0.44962 0.14854 0.0
C1884 C 0.77996 0.44152 0.13411 0.0
C1885 C 0.7765 0.42429 0.16278 0.0
C1886 C 0.7772 0.44128 0.16245 0.0
C1887 C 0.77814 0.41593 0.14817 0.0
C1888 C 0.77953 0.42461 0.13373 0.0
H1889 H 0.76165 0.44656 0.21525 0.0
H1890 H 0.76756 0.41922 0.20279 0.0
H1891 H 0.77341 0.40329 0.1782 0.0
O1892 O 0.76111 0.48111 0.15416 0.0
O1893 O 0.8088 0.47182 0.164 0.0
O1894 O 0.82647 0.49153 0.15492 0.0
O1895 O 0.77668 0.49777 0.14135 0.0
O1896 O 0.80351 0.46482 0.1364 0.0
O1897 O 0.82193 0.48462 0.12853 0.0
O1898 O 0.8267 0.52992 0.14061 0.0
O1899 O 0.80102 0.49892 0.11654 0.0
O1900 O 0.78489 0.47713 0.12341 0.0
O1901 O 0.83847 0.50871 0.13198 0.0
O1902 O 0.8106 0.51159 0.1664 0.0
O1903 O 0.79464 0.49005 0.17414 0.0
C1904 C 0.82328 0.47836 0.16313 0.0
C1905 C 0.75072 0.49215 0.13064 0.0
C1906 C 0.73737 0.47467 0.11089 0.0
C1907 C 0.7286 0.48813 0.1053 0.0
C1908 C 0.74197 0.50542 0.12492 0.0
C1909 C 0.73094 0.50338 0.11227 0.0
C1910 C 0.74839 0.47691 0.12356 0.0
C1911 C 0.81671 0.46955 0.12898 0.0
C1912 C 0.76175 0.49357 0.14449 0.0
C1913 C 0.77038 0.42541 0.19158 0.0
C1914 C 0.77369 0.41636 0.17758 0.0
C1915 C 0.79092 0.48728 0.11203 0.0
C1916 C 0.85275 0.5243 0.15017 0.0
C1917 C 0.85908 0.53254 0.17738 0.0
C1918 C 0.87259 0.52225 0.17745 0.0
C1919 C 0.86646 0.5142 0.15003 0.0
C1920 C 0.84944 0.5337 0.16377 0.0
C1921 C 0.87634 0.51321 0.16368 0.0
C1922 C 0.80342 0.50298 0.17829 0.0
C1923 C 0.8405 0.52312 0.13752 0.0
H1924 H 0.71985 0.4869 0.09567 0.0
H1925 H 0.74355 0.51724 0.1303 0.0
H1926 H 0.72409 0.51363 0.1079 0.0
H1927 H 0.75546 0.46677 0.12782 0.0
H1928 H 0.88047 0.52165 0.18789 0.0
H1929 H 0.86917 0.50668 0.13963 0.0
H1930 H 0.83913 0.54181 0.16403 0.0
H1931 H 0.8868 0.50534 0.16365 0.0
Tb1932 Tb 0.8163 0.53699 0.40276 0.0
C1933 C 0.75969 0.55309 0.36535 0.0
N1934 N 0.77199 0.56383 0.3661 0.0
C1935 C 0.76632 0.57278 0.33903 0.0
C1936 C 0.75035 0.55159 0.35116 0.0
C1937 C 0.77528 0.57383 0.35328 0.0
C1938 C 0.7538 0.5616 0.33794 0.0
C1939 C 0.74411 0.53187 0.37805 0.0
C1940 C 0.75664 0.54341 0.37875 0.0
C1941 C 0.73482 0.53032 0.36393 0.0
C1942 C 0.73791 0.54017 0.35054 0.0
Tb1943 Tb 0.78527 0.5655 0.39015 0.0
N1944 N 0.76592 0.54518 0.39229 0.0
C1945 C 0.74124 0.52213 0.39153 0.0
C1946 C 0.76292 0.53555 0.40551 0.0
C1947 C 0.75071 0.52396 0.40527 0.0
H1948 H 0.78517 0.5823 0.35389 0.0
H1949 H 0.74875 0.51628 0.41569 0.0
H1950 H 0.80602 0.5194 0.43756 0.0
H1951 H 0.87225 0.53041 0.36847 0.0
H1952 H 0.77026 0.53573 0.41615 0.0
H1953 H 0.73182 0.51307 0.3914 0.0
H1954 H 0.84355 0.53495 0.37151 0.0
H1955 H 0.7691 0.58056 0.32887 0.0
H1956 H 0.72519 0.52151 0.36325 0.0
H1957 H 0.73062 0.53884 0.33975 0.0
H1958 H 0.81988 0.50929 0.46184 0.0
H1959 H 0.74688 0.56079 0.32685 0.0
H1960 H 0.88883 0.52212 0.39187 0.0
N1961 N 0.82772 0.52305 0.42404 0.0
C1962 C 0.84384 0.52084 0.42377 0.0
C1963 C 0.82683 0.51258 0.45124 0.0
C1964 C 0.85234 0.51509 0.43741 0.0
C1965 C 0.81904 0.5184 0.4374 0.0
C1966 C 0.84362 0.51121 0.45137 0.0
N1967 N 0.84254 0.52856 0.39674 0.0
C1968 C 0.84996 0.53074 0.38199 0.0
C1969 C 0.86846 0.52126 0.40826 0.0
C1970 C 0.85162 0.52371 0.4095 0.0
C1971 C 0.87593 0.5238 0.39334 0.0
C1972 C 0.8666 0.52841 0.38012 0.0
H1973 H 0.84967 0.5068 0.46212 0.0
H1974 H 0.87598 0.50909 0.44694 0.0
H1975 H 0.8902 0.51462 0.42131 0.0
O1976 O 0.80578 0.51411 0.4062 0.0
O1977 O 0.82114 0.55985 0.41567 0.0
O1978 O 0.80171 0.5779 0.40648 0.0
O1979 O 0.7938 0.53266 0.39273 0.0
O1980 O 0.82855 0.55572 0.38977 0.0
O1981 O 0.80886 0.57294 0.37947 0.0
O1982 O 0.76411 0.579 0.39443 0.0
O1983 O 0.79346 0.55133 0.36788 0.0
O1984 O 0.81636 0.53687 0.37462 0.0
O1985 O 0.78437 0.58962 0.38269 0.0
O1986 O 0.78231 0.56053 0.41777 0.0
O1987 O 0.80487 0.54603 0.42583 0.0
C1988 C 0.81468 0.57446 0.41492 0.0
C1989 C 0.7952 0.50657 0.38152 0.0
C1990 C 0.81343 0.49349 0.36236 0.0
C1991 C 0.8001 0.48656 0.3545 0.0
C1992 C 0.78188 0.49963 0.37385 0.0
C1993 C 0.78438 0.4896 0.36031 0.0
C1994 C 0.81059 0.50345 0.37559 0.0
C1995 C 0.8241 0.56839 0.38138 0.0
C1996 C 0.79442 0.51721 0.39573 0.0
C1997 C 0.86917 0.51321 0.43653 0.0
C1998 C 0.87724 0.51632 0.42195 0.0
C1999 C 0.80583 0.54209 0.36327 0.0
C2000 C 0.77041 0.60609 0.40069 0.0
C2001 C 0.75961 0.61904 0.42457 0.0
C2002 C 0.77059 0.63176 0.42277 0.0
C2003 C 0.78141 0.61891 0.39885 0.0
C2004 C 0.75949 0.60629 0.4136 0.0
C2005 C 0.78146 0.63168 0.40987 0.0
C2006 C 0.79118 0.55361 0.42969 0.0
C2007 C 0.77061 0.59236 0.38947 0.0
H2008 H 0.80179 0.4787 0.34417 0.0
H2009 H 0.76977 0.50193 0.37822 0.0
H2010 H 0.77413 0.4842 0.35429 0.0
H2011 H 0.82068 0.50919 0.38148 0.0
H2012 H 0.77046 0.64188 0.43108 0.0
H2013 H 0.78996 0.6191 0.38892 0.0
H2014 H 0.75068 0.59673 0.41501 0.0
H2015 H 0.78973 0.64162 0.40823 0.0
H2016 H 0.10055 0.17529 0.21771 0.0
H2017 H 0.11092 0.18576 0.19179 0.0
H2018 H 0.06257 0.1859 0.17241 0.0
H2019 H 0.0522 0.17588 0.198 0.0
H2020 H 0.10685 0.1691 0.1617 0.0
H2021 H 0.07981 0.23049 0.16009 0.0
H2022 H 0.08197 0.21905 0.17858 0.0
H2023 H 0.0656 0.21488 0.16494 0.0
C2024 C 0.09217 0.17802 0.20802 0.0
C2025 C 0.07563 0.17482 0.20977 0.0
C2026 C 0.09807 0.18383 0.19327 0.0
C2027 C 0.08743 0.18669 0.18035 0.0
C2028 C 0.07089 0.18402 0.18234 0.0
H2029 H 0.10069 0.21283 0.07837 0.0
H2030 H 0.08875 0.20077 0.10295 0.0
C2031 C 0.06503 0.17821 0.19694 0.0
C2032 C 0.09347 0.19132 0.1643 0.0
H2033 H 0.09004 0.22023 0.13515 0.0
C2034 C 0.10327 0.18031 0.1559 0.0
C2035 C 0.08855 0.20585 0.15681 0.0
C2036 C 0.07852 0.21832 0.16561 0.0
C2037 C 0.1083 0.1835 0.14005 0.0
C2038 C 0.10333 0.198 0.13257 0.0
C2039 C 0.09343 0.20894 0.1409 0.0
C2040 C 0.11047 0.20332 0.11726 0.0
C2041 C 0.11905 0.17153 0.13143 0.0
C2042 C 0.12641 0.20872 0.11747 0.0
C2043 C 0.13295 0.21591 0.10385 0.0
C2044 C 0.12384 0.21748 0.08962 0.0
C2045 C 0.108 0.21153 0.08917 0.0
C2046 C 0.10122 0.20468 0.1031 0.0
H2047 H 0.11859 0.1594 0.13717 0.0
H2048 H 0.11555 0.17041 0.1185 0.0
H2049 H 0.13171 0.17586 0.13186 0.0
H2050 H 0.13357 0.208 0.12842 0.0
H2051 H 0.14503 0.22069 0.10464 0.0
H2052 H 0.11521 0.8004 0.4495 0.0
H2053 H 0.10441 0.81175 0.42443 0.0
H2054 H 0.11352 0.85985 0.44214 0.0
H2055 H 0.12454 0.84849 0.46743 0.0
H2056 H 0.07875 0.84706 0.42469 0.0
H2057 H 0.13763 0.84168 0.39243 0.0
H2058 H 0.13195 0.82634 0.40688 0.0
H2059 H 0.13645 0.84633 0.41377 0.0
C2060 C 0.11474 0.81341 0.44814 0.0
C2061 C 0.12068 0.82361 0.46036 0.0
C2062 C 0.1086 0.81984 0.43384 0.0
C2063 C 0.10834 0.83657 0.43147 0.0
C2064 C 0.11368 0.84688 0.44385 0.0
H2065 H 0.09521 0.88655 0.34059 0.0
H2066 H 0.10501 0.87576 0.36619 0.0
C2067 C 0.1198 0.84042 0.45828 0.0
C2068 C 0.1028 0.84305 0.41581 0.0
H2069 H 0.11501 0.84912 0.37688 0.0
C2070 C 0.08663 0.84767 0.41421 0.0
C2071 C 0.11322 0.84381 0.40232 0.0
C2072 C 0.13083 0.83934 0.40379 0.0
C2073 C 0.08053 0.85309 0.39932 0.0
C2074 C 0.09077 0.85334 0.38553 0.0
C2075 C 0.10706 0.8488 0.38731 0.0
C2076 C 0.08514 0.85906 0.36938 0.0
C2077 C 0.06332 0.85899 0.39878 0.0
C2078 C 0.07092 0.85306 0.36227 0.0
C2079 C 0.06505 0.85973 0.34784 0.0
C2080 C 0.07375 0.8719 0.33989 0.0
C2081 C 0.08843 0.87711 0.34639 0.0
C2082 C 0.094 0.8709 0.36107 0.0
H2083 H 0.05894 0.86273 0.41094 0.0
H2084 H 0.06211 0.8694 0.39043 0.0
H2085 H 0.05541 0.84907 0.39453 0.0
H2086 H 0.06414 0.84349 0.36802 0.0
H2087 H 0.05363 0.85558 0.34303 0.0
H2088 H 0.48898 0.85905 0.70365 0.0
H2089 H 0.47796 0.84948 0.67821 0.0
H2090 H 0.4321 0.87143 0.69007 0.0
H2091 H 0.44385 0.88236 0.71516 0.0
H2092 H 0.45579 0.83049 0.6692 0.0
H2093 H 0.43905 0.8916 0.64713 0.0
H2094 H 0.45035 0.88859 0.66553 0.0
H2095 H 0.42877 0.886 0.66538 0.0
C2096 C 0.47659 0.86191 0.7008 0.0
C2097 C 0.46741 0.87175 0.71113 0.0
C2098 C 0.47021 0.85631 0.68629 0.0
C2099 C 0.45432 0.86014 0.68187 0.0
C2100 C 0.44459 0.86881 0.69289 0.0
H2101 H 0.39794 0.82899 0.60112 0.0
H2102 H 0.40858 0.84158 0.62554 0.0
C2103 C 0.45116 0.87475 0.70739 0.0
C2104 C 0.4484 0.85521 0.66557 0.0
H2105 H 0.43185 0.86947 0.63041 0.0
C2106 C 0.45066 0.83908 0.66072 0.0
C2107 C 0.44182 0.86642 0.65437 0.0
C2108 C 0.43999 0.88414 0.65828 0.0
C2109 C 0.44643 0.83383 0.64514 0.0
C2110 C 0.43965 0.84497 0.63411 0.0
C2111 C 0.43724 0.86104 0.6389 0.0
C2112 C 0.43355 0.83966 0.61816 0.0
C2113 C 0.44891 0.81633 0.64064 0.0
C2114 C 0.44409 0.83495 0.60563 0.0
C2115 C 0.43798 0.82797 0.59141 0.0
C2116 C 0.42132 0.82551 0.58978 0.0
C2117 C 0.41084 0.83092 0.60204 0.0
C2118 C 0.41689 0.83806 0.61602 0.0
H2119 H 0.4527 0.80887 0.65115 0.0
H2120 H 0.43762 0.81121 0.63554 0.0
H2121 H 0.45838 0.81544 0.63116 0.0
H2122 H 0.45703 0.83613 0.60712 0.0
H2123 H 0.44626 0.82364 0.58221 0.0
H2124 H 0.41884 0.19643 0.96799 0.0
H2125 H 0.42937 0.18588 0.94218 0.0
H2126 H 0.43933 0.23451 0.92638 0.0
H2127 H 0.42933 0.24491 0.95219 0.0
H2128 H 0.41711 0.19234 0.91186 0.0
H2129 H 0.48092 0.21208 0.91515 0.0
H2130 H 0.46783 0.2119 0.93262 0.0
H2131 H 0.46694 0.22834 0.91838 0.0
C2132 C 0.42374 0.20476 0.95916 0.0
C2133 C 0.42331 0.22148 0.96197 0.0
C2134 C 0.42956 0.19878 0.94439 0.0
C2135 C 0.4352 0.20944 0.93239 0.0
C2136 C 0.43526 0.22607 0.93551 0.0
H2137 H 0.4578 0.19068 0.82924 0.0
H2138 H 0.4456 0.20322 0.85355 0.0
C2139 C 0.42945 0.23201 0.95018 0.0
C2140 C 0.44023 0.20339 0.91627 0.0
H2141 H 0.47158 0.20326 0.88938 0.0
C2142 C 0.42901 0.19474 0.90694 0.0
C2143 C 0.45576 0.20656 0.90987 0.0
C2144 C 0.4686 0.21509 0.91958 0.0
C2145 C 0.43297 0.18915 0.89138 0.0
C2146 C 0.4484 0.19246 0.88499 0.0
C2147 C 0.45958 0.20116 0.89423 0.0
C2148 C 0.45414 0.18472 0.86998 0.0
C2149 C 0.4209 0.17932 0.88196 0.0
C2150 C 0.46262 0.17021 0.87131 0.0
C2151 C 0.46948 0.16316 0.8577 0.0
C2152 C 0.46809 0.17048 0.84236 0.0
C2153 C 0.45904 0.18478 0.84087 0.0
C2154 C 0.45214 0.19193 0.8547 0.0
H2155 H 0.40904 0.17854 0.88822 0.0
H2156 H 0.4191 0.18471 0.86979 0.0
H2157 H 0.42568 0.1669 0.88018 0.0
H2158 H 0.46426 0.16449 0.88301 0.0
H2159 H 0.47624 0.15207 0.85936 0.0
H2160 H 0.08923 0.14063 0.20018 0.0
H2161 H 0.11423 0.12971 0.18818 0.0
H2162 H 0.11632 0.09351 0.22566 0.0
H2163 H 0.09154 0.10446 0.23769 0.0
H2164 H 0.14537 0.12069 0.21755 0.0
H2165 H 0.12361 0.07755 0.17065 0.0
H2166 H 0.11295 0.09625 0.17445 0.0
H2167 H 0.11252 0.08047 0.18926 0.0
C2168 C 0.09471 0.12995 0.20541 0.0
C2169 C 0.08837 0.12309 0.21959 0.0
C2170 C 0.10904 0.12386 0.1987 0.0
C2171 C 0.11704 0.11084 0.20609 0.0
C2172 C 0.11025 0.10353 0.21979 0.0
H2173 H 0.19738 0.05042 0.18085 0.0
H2174 H 0.17252 0.06245 0.19127 0.0
C2175 C 0.09605 0.10965 0.22653 0.0
C2176 C 0.13311 0.10553 0.2004 0.0
H2177 H 0.15165 0.07909 0.1748 0.0
C2178 C 0.14685 0.11169 0.20811 0.0
C2179 C 0.13482 0.09367 0.1883 0.0
C2180 C 0.12026 0.0865 0.18009 0.0
C2181 C 0.16239 0.10602 0.20422 0.0
C2182 C 0.16419 0.09414 0.192 0.0
C2183 C 0.15034 0.0882 0.18415 0.0
C2184 C 0.18014 0.08716 0.18748 0.0
C2185 C 0.17658 0.11239 0.2137 0.0
C2186 C 0.19304 0.09702 0.18248 0.0
C2187 C 0.20751 0.0901 0.17698 0.0
C2188 C 0.20901 0.07326 0.17573 0.0
C2189 C 0.19639 0.06346 0.18137 0.0
C2190 C 0.18216 0.07033 0.18727 0.0
H2191 H 0.17275 0.11741 0.22558 0.0
H2192 H 0.18572 0.10281 0.21586 0.0
H2193 H 0.18236 0.12229 0.20676 0.0
H2194 H 0.19175 0.11002 0.18224 0.0
H2195 H 0.21713 0.09793 0.17293 0.0
H2196 H 0.23951 0.94098 0.41189 0.0
H2197 H 0.22736 0.91659 0.42174 0.0
H2198 H 0.18926 0.94429 0.44423 0.0
H2199 H 0.20132 0.96937 0.4336 0.0
H2200 H 0.22386 0.90681 0.45065 0.0
H2201 H 0.16332 0.9096 0.42213 0.0
H2202 H 0.17936 0.92331 0.41677 0.0
H2203 H 0.16778 0.92656 0.43491 0.0
C2204 C 0.22858 0.94213 0.41896 0.0
C2205 C 0.22156 0.95733 0.42206 0.0
C2206 C 0.22157 0.928 0.42457 0.0
C2207 C 0.20732 0.92845 0.43368 0.0
C2208 C 0.20013 0.94356 0.43698 0.0
H2209 H 0.18486 0.84545 0.49271 0.0
H2210 H 0.19442 0.8706 0.48133 0.0
C2211 C 0.20714 0.95791 0.4311 0.0
C2212 C 0.20086 0.91291 0.4401 0.0
H2213 H 0.16811 0.88785 0.44031 0.0
C2214 C 0.21166 0.90269 0.44832 0.0
C2215 C 0.18507 0.9073 0.43679 0.0
C2216 C 0.17324 0.91717 0.42703 0.0
C2217 C 0.2073 0.88706 0.45306 0.0
C2218 C 0.19126 0.88169 0.45053 0.0
C2219 C 0.18038 0.89191 0.44235 0.0
C2220 C 0.18541 0.86597 0.45715 0.0
C2221 C 0.22026 0.87636 0.46023 0.0
C2222 C 0.17655 0.85498 0.44762 0.0
C2223 C 0.17032 0.84072 0.45447 0.0
C2224 C 0.17299 0.83728 0.4709 0.0
C2225 C 0.18241 0.84792 0.4801 0.0
C2226 C 0.18815 0.86224 0.47348 0.0
H2227 H 0.23234 0.87947 0.45529 0.0
H2228 H 0.22076 0.87828 0.47351 0.0
H2229 H 0.21798 0.86338 0.45777 0.0
H2230 H 0.17415 0.8576 0.435 0.0
H2231 H 0.16282 0.83286 0.4472 0.0
H2232 H 0.33377 0.98025 0.69591 0.0
H2233 H 0.35956 0.97008 0.7066 0.0
H2234 H 0.36401 0.93816 0.66555 0.0
H2235 H 0.33813 0.94817 0.65508 0.0
H2236 H 0.37023 0.93745 0.7136 0.0
H2237 H 0.40575 0.96626 0.66434 0.0
H2238 H 0.385 0.97162 0.66849 0.0
H2239 H 0.38965 0.9532 0.658 0.0
C2240 C 0.34006 0.97073 0.68949 0.0
C2241 C 0.33405 0.96487 0.67478 0.0
C2242 C 0.35483 0.96507 0.69546 0.0
C2243 C 0.36385 0.95367 0.68663 0.0
C2244 C 0.3574 0.94721 0.67235 0.0
H2245 H 0.46026 0.91306 0.70024 0.0
H2246 H 0.43453 0.92259 0.6889 0.0
C2247 C 0.3426 0.9528 0.66646 0.0
C2248 C 0.38005 0.94868 0.69234 0.0
H2249 H 0.42025 0.95037 0.68317 0.0
C2250 C 0.38118 0.94027 0.70698 0.0
C2251 C 0.39427 0.95226 0.68355 0.0
C2252 C 0.39372 0.96144 0.66777 0.0
C2253 C 0.39614 0.93516 0.71304 0.0
C2254 C 0.4105 0.93913 0.70456 0.0
C2255 C 0.40932 0.94743 0.68977 0.0
C2256 C 0.42677 0.9347 0.71085 0.0
C2257 C 0.39626 0.92519 0.72829 0.0
C2258 C 0.43129 0.93886 0.72671 0.0
C2259 C 0.44574 0.93311 0.73325 0.0
C2260 C 0.45627 0.92371 0.72383 0.0
C2261 C 0.45239 0.92052 0.70762 0.0
C2262 C 0.43768 0.92589 0.70119 0.0
H2263 H 0.38462 0.91879 0.73009 0.0
H2264 H 0.40612 0.91608 0.7281 0.0
H2265 H 0.398 0.93333 0.7388 0.0
H2266 H 0.4234 0.94612 0.73423 0.0
H2267 H 0.44852 0.93569 0.74581 0.0
H2268 H 0.35611 0.20095 0.99196 0.0
H2269 H 0.34653 0.17609 0.97931 0.0
H2270 H 0.37548 0.18622 0.93708 0.0
H2271 H 0.38519 0.21127 0.9499 0.0
H2272 H 0.34245 0.17356 0.93144 0.0
H2273 H 0.37869 0.1371 0.97466 0.0
H2274 H 0.36602 0.15214 0.98391 0.0
H2275 H 0.38239 0.15829 0.97106 0.0
C2276 C 0.36009 0.19805 0.97983 0.0
C2277 C 0.37125 0.20794 0.97182 0.0
C2278 C 0.35474 0.18383 0.97269 0.0
C2279 C 0.36058 0.17922 0.95745 0.0
C2280 C 0.37095 0.1896 0.94892 0.0
H2281 H 0.34949 0.08054 0.9204 0.0
H2282 H 0.36127 0.10595 0.93033 0.0
C2283 C 0.37631 0.20393 0.95612 0.0
C2284 C 0.35628 0.16323 0.9509 0.0
H2285 H 0.35914 0.1229 0.95901 0.0
C2286 C 0.34623 0.16245 0.93732 0.0
C2287 C 0.36143 0.14882 0.95853 0.0
C2288 C 0.37285 0.14904 0.97276 0.0
C2289 C 0.34063 0.14758 0.9315 0.0
C2290 C 0.34503 0.13319 0.93969 0.0
C2291 C 0.35565 0.13395 0.95287 0.0
C2292 C 0.33819 0.11736 0.93509 0.0
C2293 C 0.32999 0.14746 0.91668 0.0
C2294 C 0.32142 0.11517 0.93519 0.0
C2295 C 0.31475 0.10088 0.92942 0.0
C2296 C 0.32475 0.08835 0.92383 0.0
C2297 C 0.34158 0.09004 0.92476 0.0
C2298 C 0.34828 0.10453 0.93031 0.0
H2299 H 0.3319 0.1584 0.90913 0.0
H2300 H 0.33226 0.1366 0.90912 0.0
H2301 H 0.31714 0.14739 0.92052 0.0
H2302 H 0.31345 0.1247 0.93934 0.0
H2303 H 0.30173 0.09974 0.929 0.0
H2304 H 0.07646 0.94246 0.33728 0.0
H2305 H 0.10083 0.9554 0.3487 0.0
H2306 H 0.12972 0.91507 0.3326 0.0
H2307 H 0.10636 0.9029 0.32047 0.0
H2308 H 0.12549 0.9451 0.37109 0.0
H2309 H 0.1501 0.95291 0.3093 0.0
H2310 H 0.12924 0.94781 0.31294 0.0
H2311 H 0.14457 0.93234 0.31302 0.0
C2312 C 0.08803 0.93639 0.33636 0.0
C2313 C 0.08948 0.92175 0.3279 0.0
C2314 C 0.10186 0.94374 0.34286 0.0
C2315 C 0.11706 0.93631 0.34106 0.0
C2316 C 0.11819 0.92119 0.3337 0.0
H2317 H 0.21047 0.94875 0.38561 0.0
H2318 H 0.18436 0.93839 0.37595 0.0
C2319 C 0.1047 0.91421 0.32687 0.0
C2320 C 0.13217 0.9443 0.34591 0.0
H2321 H 0.16942 0.95356 0.33104 0.0
C2322 C 0.13504 0.94725 0.36236 0.0
C2323 C 0.14452 0.94715 0.3344 0.0
C2324 C 0.14189 0.94504 0.31642 0.0
C2325 C 0.15028 0.95236 0.36769 0.0
C2326 C 0.16289 0.95414 0.35626 0.0
C2327 C 0.15979 0.95183 0.33978 0.0
C2328 C 0.17924 0.95927 0.36098 0.0
C2329 C 0.15275 0.95589 0.38544 0.0
C2330 C 0.18529 0.97385 0.35493 0.0
C2331 C 0.20019 0.97952 0.36013 0.0
C2332 C 0.20924 0.97067 0.37139 0.0
C2333 C 0.20374 0.95557 0.37667 0.0
C2334 C 0.18875 0.94986 0.37144 0.0
H2335 H 0.14109 0.9575 0.39191 0.0
H2336 H 0.15928 0.94564 0.39114 0.0
H2337 H 0.16012 0.96695 0.3871 0.0
H2338 H 0.17817 0.9812 0.34674 0.0
H2339 H 0.20422 0.99129 0.35607 0.0
H2340 H 0.34754 0.96037 0.62774 0.0
H2341 H 0.35899 0.93579 0.6155 0.0
H2342 H 0.31116 0.92094 0.60113 0.0
H2343 H 0.30021 0.94595 0.61169 0.0
H2344 H 0.35354 0.90614 0.62513 0.0
H2345 H 0.33424 0.91012 0.56122 0.0
H2346 H 0.33266 0.92709 0.57479 0.0
H2347 H 0.31718 0.9118 0.57442 0.0
C2348 C 0.33964 0.95206 0.62147 0.0
C2349 C 0.3229 0.95466 0.62121 0.0
C2350 C 0.34612 0.93799 0.61464 0.0
C2351 C 0.33593 0.9265 0.60738 0.0
C2352 C 0.31935 0.92965 0.60638 0.0
H2353 H 0.35185 0.82427 0.58332 0.0
H2354 H 0.33973 0.8492 0.59449 0.0
C2355 C 0.313 0.94378 0.61285 0.0
C2356 C 0.34225 0.91065 0.60203 0.0
H2357 H 0.34178 0.88375 0.5707 0.0
C2358 C 0.35105 0.90132 0.61319 0.0
C2359 C 0.33891 0.9043 0.58645 0.0
C2360 C 0.33037 0.91395 0.57352 0.0
C2361 C 0.35656 0.88582 0.60918 0.0
C2362 C 0.35293 0.87947 0.5938 0.0
C2363 C 0.34412 0.88865 0.58265 0.0
C2364 C 0.36012 0.86426 0.58821 0.0
C2365 C 0.36651 0.87637 0.6212 0.0
C2366 C 0.37546 0.86473 0.5812 0.0
C2367 C 0.38222 0.85077 0.57483 0.0
C2368 C 0.37375 0.8361 0.57533 0.0
C2369 C 0.35853 0.83549 0.58279 0.0
C2370 C 0.35165 0.84962 0.58911 0.0
H2371 H 0.36697 0.88233 0.63323 0.0
H2372 H 0.3615 0.86402 0.62264 0.0
H2373 H 0.37903 0.87509 0.61653 0.0
H2374 H 0.3821 0.87596 0.58048 0.0
H2375 H 0.39416 0.85147 0.56951 0.0
H2376 H 0.46407 0.12588 0.85141 0.0
H2377 H 0.4385 0.11566 0.86265 0.0
H2378 H 0.42282 0.10258 0.81469 0.0
H2379 H 0.44816 0.11289 0.80343 0.0
H2380 H 0.40224 0.12669 0.83806 0.0
H2381 H 0.41906 0.06515 0.85977 0.0
H2382 H 0.43292 0.08177 0.86231 0.0
H2383 H 0.42885 0.07417 0.84244 0.0
C2384 C 0.4553 0.12047 0.84337 0.0
C2385 C 0.45791 0.12026 0.82658 0.0
C2386 C 0.44072 0.11476 0.84976 0.0
C2387 C 0.4288 0.10861 0.8394 0.0
C2388 C 0.43184 0.10749 0.82277 0.0
H2389 H 0.34045 0.05771 0.85516 0.0
H2390 H 0.36545 0.06918 0.84453 0.0
C2391 C 0.44629 0.1133 0.8164 0.0
C2392 C 0.41275 0.10414 0.84564 0.0
H2393 H 0.39193 0.07309 0.86273 0.0
C2394 C 0.39992 0.11504 0.84359 0.0
C2395 C 0.40989 0.08887 0.85257 0.0
C2396 C 0.42333 0.0767 0.85444 0.0
C2397 C 0.38413 0.11096 0.84821 0.0
C2398 C 0.38123 0.09566 0.85524 0.0
C2399 C 0.39417 0.08484 0.85738 0.0
C2400 C 0.36484 0.09028 0.86001 0.0
C2401 C 0.37065 0.12284 0.84504 0.0
C2402 C 0.35587 0.09862 0.87183 0.0
C2403 C 0.34135 0.09221 0.87766 0.0
C2404 C 0.33582 0.07729 0.87187 0.0
C2405 C 0.34441 0.06936 0.85958 0.0
C2406 C 0.35875 0.07583 0.85364 0.0
H2407 H 0.37411 0.13192 0.83576 0.0
H2408 H 0.35956 0.11656 0.84093 0.0
H2409 H 0.36779 0.12939 0.8564 0.0
H2410 H 0.36052 0.10961 0.87718 0.0
H2411 H 0.33512 0.09826 0.88749 0.0
H2412 H 0.18299 0.19681 0.05344 0.0
H2413 H 0.19252 0.17171 0.06497 0.0
H2414 H 0.18195 0.18977 0.11285 0.0
H2415 H 0.17121 0.21479 0.10091 0.0
H2416 H 0.21456 0.16243 0.08443 0.0
H2417 H 0.1553 0.14946 0.11333 0.0
H2418 H 0.15813 0.16623 0.09971 0.0
H2419 H 0.16478 0.16759 0.12039 0.0
C2420 C 0.18224 0.19529 0.06636 0.0
C2421 C 0.17495 0.20708 0.07614 0.0
C2422 C 0.18803 0.18104 0.07301 0.0
C2423 C 0.18716 0.17848 0.08973 0.0
C2424 C 0.1819 0.19115 0.09982 0.0
H2425 H 0.22359 0.1028 0.14628 0.0
H2426 H 0.21124 0.12676 0.13489 0.0
C2427 C 0.17583 0.20545 0.09303 0.0
C2428 C 0.19128 0.1623 0.09614 0.0
H2429 H 0.17623 0.13034 0.11749 0.0
C2430 C 0.20611 0.15539 0.09155 0.0
C2431 C 0.18014 0.15304 0.10528 0.0
C2432 C 0.16364 0.15937 0.10985 0.0
C2433 C 0.21017 0.13958 0.09598 0.0
C2434 C 0.1992 0.13053 0.10534 0.0
C2435 C 0.18441 0.13733 0.11 0.0
C2436 C 0.20414 0.11512 0.11262 0.0
C2437 C 0.22636 0.13273 0.09107 0.0
C2438 C 0.20375 0.1005 0.10395 0.0
C2439 C 0.21056 0.08647 0.11068 0.0
C2440 C 0.21799 0.08723 0.12591 0.0
C2441 C 0.21772 0.1018 0.13463 0.0
C2442 C 0.21075 0.11555 0.12813 0.0
H2443 H 0.23343 0.14128 0.0835 0.0
H2444 H 0.2335 0.12972 0.10203 0.0
H2445 H 0.22459 0.12138 0.08416 0.0
H2446 H 0.19875 0.10012 0.09185 0.0
H2447 H 0.21085 0.07542 0.10367 0.0
H2448 H 0.68583 0.34767 0.99527 0.0
H2449 H 0.69445 0.37348 0.98425 0.0
H2450 H 0.67536 0.36001 0.93754 0.0
H2451 H 0.66522 0.33464 0.94918 0.0
H2452 H 0.71371 0.38305 0.96315 0.0
H2453 H 0.65299 0.40203 0.94253 0.0
H2454 H 0.65617 0.38406 0.95444 0.0
H2455 H 0.6595 0.38375 0.93287 0.0
C2456 C 0.68333 0.3503 0.9827 0.0
C2457 C 0.67441 0.33949 0.97321 0.0
C2458 C 0.68838 0.365 0.97634 0.0
C2459 C 0.68499 0.36903 0.9602 0.0
C2460 C 0.67747 0.3575 0.95022 0.0
H2461 H 0.71893 0.44447 0.89976 0.0
H2462 H 0.70693 0.42066 0.91227 0.0
C2463 C 0.67204 0.34285 0.95674 0.0
C2464 C 0.68943 0.3853 0.95407 0.0
H2465 H 0.6751 0.41863 0.93417 0.0
C2466 C 0.70515 0.39084 0.95697 0.0
C2467 C 0.67823 0.39567 0.94624 0.0
C2468 C 0.66074 0.39116 0.944 0.0
C2469 C 0.71007 0.40619 0.95194 0.0
C2470 C 0.6992 0.41622 0.9435 0.0
C2471 C 0.68341 0.41087 0.9407 0.0
C2472 C 0.7047 0.43146 0.93599 0.0
C2473 C 0.72699 0.41153 0.95543 0.0
C2474 C 0.7073 0.44548 0.94523 0.0
C2475 C 0.71396 0.4593 0.938 0.0
C2476 C 0.71843 0.45901 0.9216 0.0
C2477 C 0.71563 0.44498 0.91244 0.0
C2478 C 0.70869 0.43141 0.91953 0.0
H2479 H 0.73475 0.40144 0.95973 0.0
H2480 H 0.73244 0.41686 0.94441 0.0
H2481 H 0.72669 0.42105 0.9649 0.0
H2482 H 0.70448 0.4456 0.95803 0.0
H2483 H 0.71618 0.46992 0.94531 0.0
H2484 H 0.93912 0.406 0.2348 0.0
H2485 H 0.91469 0.41659 0.22283 0.0
H2486 H 0.94271 0.44944 0.19369 0.0
H2487 H 0.96776 0.4386 0.20564 0.0
H2488 H 0.90374 0.44769 0.22481 0.0
H2489 H 0.91184 0.42834 0.16082 0.0
H2490 H 0.92398 0.42035 0.17712 0.0
H2491 H 0.928 0.44013 0.1692 0.0
C2492 C 0.94028 0.41549 0.22584 0.0
C2493 C 0.95549 0.42157 0.22129 0.0
C2494 C 0.9262 0.42149 0.21898 0.0
C2495 C 0.92686 0.43374 0.20735 0.0
C2496 C 0.94197 0.43981 0.20253 0.0
H2497 H 0.84877 0.49416 0.17587 0.0
H2498 H 0.87356 0.48252 0.18681 0.0
C2499 C 0.95625 0.4337 0.2094 0.0
C2500 C 0.91148 0.44033 0.201 0.0
H2501 H 0.88844 0.44379 0.16691 0.0
C2502 C 0.90042 0.44686 0.21214 0.0
C2503 C 0.90709 0.43897 0.18452 0.0
C2504 C 0.91826 0.43145 0.1722 0.0
C2505 C 0.88513 0.45219 0.20722 0.0
C2506 C 0.88085 0.45109 0.19074 0.0
C2507 C 0.89181 0.4445 0.17957 0.0
C2508 C 0.86545 0.45781 0.18479 0.0
C2509 C 0.87354 0.4589 0.21964 0.0
C2510 C 0.85262 0.44771 0.18031 0.0
C2511 C 0.83834 0.45436 0.17406 0.0
C2512 C 0.83692 0.47116 0.17207 0.0
C2513 C 0.84964 0.48117 0.17708 0.0
C2514 C 0.86378 0.47457 0.18335 0.0
H2515 H 0.87781 0.45686 0.23222 0.0
H2516 H 0.87209 0.47209 0.21771 0.0
H2517 H 0.86147 0.45325 0.2182 0.0
H2518 H 0.85375 0.43472 0.18143 0.0
H2519 H 0.82875 0.44639 0.17015 0.0
H2520 H 0.85695 0.69974 0.49254 0.0
H2521 H 0.8468 0.67488 0.48031 0.0
H2522 H 0.87188 0.68619 0.43596 0.0
H2523 H 0.88241 0.71112 0.44839 0.0
H2524 H 0.83635 0.67352 0.43506 0.0
H2525 H 0.8806 0.63644 0.46948 0.0
H2526 H 0.87025 0.652 0.48067 0.0
H2527 H 0.88391 0.65748 0.46473 0.0
C2528 C 0.86004 0.69706 0.48008 0.0
C2529 C 0.87038 0.70724 0.47134 0.0
C2530 C 0.85432 0.68287 0.47316 0.0
C2531 C 0.85884 0.67866 0.45739 0.0
C2532 C 0.86836 0.68929 0.44821 0.0
H2533 H 0.84665 0.58081 0.42003 0.0
H2534 H 0.85801 0.6063 0.42983 0.0
C2535 C 0.87418 0.70356 0.4552 0.0
C2536 C 0.85394 0.66285 0.45089 0.0
H2537 H 0.85938 0.62238 0.45641 0.0
C2538 C 0.84148 0.6623 0.43952 0.0
C2539 C 0.8608 0.64834 0.45672 0.0
C2540 C 0.87472 0.64847 0.4685 0.0
C2541 C 0.83531 0.64751 0.43409 0.0
C2542 C 0.84153 0.63289 0.44058 0.0
C2543 C 0.85444 0.63352 0.45158 0.0
C2544 C 0.83485 0.61687 0.43606 0.0
C2545 C 0.82218 0.64787 0.42147 0.0
C2546 C 0.81818 0.61396 0.43706 0.0
C2547 C 0.81169 0.59973 0.43086 0.0
C2548 C 0.82182 0.58782 0.42422 0.0
C2549 C 0.8386 0.58995 0.42478 0.0
C2550 C 0.84507 0.60449 0.43043 0.0
H2551 H 0.82285 0.65899 0.41397 0.0
H2552 H 0.8228 0.63724 0.41331 0.0
H2553 H 0.81031 0.64797 0.4277 0.0
H2554 H 0.81009 0.62295 0.4421 0.0
H2555 H 0.79869 0.59821 0.43088 0.0
H2556 H 0.85347 0.57135 0.39468 0.0
H2557 H 0.87745 0.58339 0.38336 0.0
H2558 H 0.85061 0.59749 0.34088 0.0
H2559 H 0.82584 0.58597 0.35282 0.0
H2560 H 0.89203 0.57305 0.35692 0.0
H2561 H 0.87638 0.63799 0.35007 0.0
H2562 H 0.86432 0.62429 0.362 0.0
H2563 H 0.86269 0.62433 0.3403 0.0
C2564 C 0.85242 0.57746 0.38315 0.0
C2565 C 0.83766 0.57787 0.37472 0.0
C2566 C 0.86626 0.58421 0.37661 0.0
C2567 C 0.8659 0.59135 0.36128 0.0
C2568 C 0.85111 0.59227 0.35288 0.0
H2569 H 0.94273 0.62606 0.30083 0.0
H2570 H 0.91786 0.61553 0.31214 0.0
C2571 C 0.83698 0.5857 0.35966 0.0
C2572 C 0.8814 0.59669 0.35403 0.0
H2573 H 0.90164 0.62951 0.33953 0.0
C2574 C 0.89413 0.58542 0.35314 0.0
C2575 C 0.88416 0.61282 0.3492 0.0
C2576 C 0.87123 0.62562 0.35055 0.0
C2577 C 0.90949 0.58983 0.34755 0.0
C2578 C 0.9122 0.60593 0.34269 0.0
C2579 C 0.89949 0.61718 0.34339 0.0
C2580 C 0.92786 0.61117 0.33589 0.0
C2581 C 0.92264 0.57722 0.34663 0.0
C2582 C 0.94191 0.61188 0.34542 0.0
C2583 C 0.95635 0.61786 0.33886 0.0
C2584 C 0.95682 0.62331 0.32275 0.0
C2585 C 0.9428 0.62204 0.31324 0.0
C2586 C 0.92852 0.61607 0.31971 0.0
H2587 H 0.91784 0.5648 0.34816 0.0
H2588 H 0.92908 0.57795 0.33486 0.0
H2589 H 0.93157 0.57946 0.35638 0.0
H2590 H 0.94157 0.60825 0.35801 0.0
H2591 H 0.9669 0.61879 0.34654 0.0
H2592 H 0.69189 0.47072 0.89541 0.0
H2593 H 0.66766 0.4584 0.88455 0.0
H2594 H 0.69078 0.45338 0.83797 0.0
H2595 H 0.71557 0.46572 0.84902 0.0
H2596 H 0.65144 0.47348 0.8581 0.0
H2597 H 0.6676 0.40903 0.84701 0.0
H2598 H 0.67894 0.42168 0.86069 0.0
H2599 H 0.68104 0.42425 0.83924 0.0
C2600 C 0.69195 0.46672 0.88291 0.0
C2601 C 0.70546 0.46924 0.87293 0.0
C2602 C 0.67812 0.4597 0.87677 0.0
C2603 C 0.67748 0.4551 0.86051 0.0
C2604 C 0.69121 0.45679 0.85062 0.0
H2605 H 0.59087 0.4384 0.80598 0.0
H2606 H 0.6161 0.44914 0.81688 0.0
C2607 C 0.70528 0.46377 0.85688 0.0
C2608 C 0.66186 0.44996 0.85392 0.0
H2609 H 0.64101 0.41719 0.84048 0.0
C2610 C 0.64914 0.4612 0.85414 0.0
C2611 C 0.65901 0.43391 0.84902 0.0
C2612 C 0.67229 0.42142 0.84902 0.0
C2613 C 0.63351 0.45674 0.84967 0.0
C2614 C 0.63066 0.4407 0.84477 0.0
C2615 C 0.64336 0.42946 0.84441 0.0
C2616 C 0.61467 0.43557 0.83922 0.0
C2617 C 0.62007 0.46905 0.85048 0.0
C2618 C 0.60549 0.42468 0.84842 0.0
C2619 C 0.59101 0.41865 0.84226 0.0
C2620 C 0.58582 0.4234 0.82684 0.0
C2621 C 0.59469 0.43477 0.81798 0.0
C2622 C 0.60904 0.44084 0.82415 0.0
H2623 H 0.62374 0.48013 0.85709 0.0
H2624 H 0.61651 0.47254 0.83801 0.0
H2625 H 0.60929 0.46381 0.85651 0.0
H2626 H 0.6098 0.42049 0.86007 0.0
H2627 H 0.58443 0.40959 0.84904 0.0
H2628 H 0.58177 0.6942 0.72102 0.0
H2629 H 0.5925 0.7057 0.69558 0.0
H2630 H 0.58042 0.66168 0.67046 0.0
H2631 H 0.56958 0.65044 0.69529 0.0
H2632 H 0.61653 0.69423 0.67371 0.0
H2633 H 0.55625 0.69624 0.64488 0.0
H2634 H 0.55886 0.69229 0.66621 0.0
H2635 H 0.56154 0.67634 0.65158 0.0
C2636 C 0.58157 0.68705 0.71004 0.0
C2637 C 0.57459 0.67164 0.70996 0.0
C2638 C 0.58761 0.69358 0.69559 0.0
C2639 C 0.58675 0.68465 0.68113 0.0
C2640 C 0.5807 0.66892 0.68138 0.0
H2641 H 0.61741 0.69649 0.58086 0.0
H2642 H 0.60626 0.68554 0.60633 0.0
C2643 C 0.57456 0.66253 0.6956 0.0
C2644 C 0.59201 0.69152 0.66556 0.0
H2645 H 0.57902 0.69888 0.62705 0.0
C2646 C 0.60833 0.69542 0.66354 0.0
C2647 C 0.58124 0.69293 0.65233 0.0
C2648 C 0.56345 0.68938 0.65392 0.0
C2649 C 0.61426 0.70035 0.64845 0.0
C2650 C 0.60351 0.7015 0.63521 0.0
C2651 C 0.58719 0.69774 0.63724 0.0
C2652 C 0.60879 0.70798 0.61955 0.0
C2653 C 0.63198 0.70416 0.6467 0.0
C2654 C 0.61307 0.72424 0.61859 0.0
C2655 C 0.61922 0.73043 0.60428 0.0
C2656 C 0.62121 0.72046 0.59063 0.0
C2657 C 0.616 0.70436 0.59125 0.0
C2658 C 0.60977 0.69812 0.60573 0.0
H2659 H 0.63922 0.69895 0.65675 0.0
H2660 H 0.63678 0.69952 0.63502 0.0
H2661 H 0.63362 0.71746 0.64684 0.0
H2662 H 0.61201 0.73206 0.62906 0.0
H2663 H 0.62285 0.743 0.60406 0.0
H2664 H 0.63255 0.30917 0.94319 0.0
H2665 H 0.62119 0.32085 0.91918 0.0
H2666 H 0.59662 0.35683 0.94792 0.0
H2667 H 0.60881 0.34535 0.97272 0.0
H2668 H 0.59032 0.32314 0.91095 0.0
H2669 H 0.61888 0.38389 0.91268 0.0
H2670 H 0.6254 0.36752 0.92557 0.0
H2671 H 0.60719 0.37839 0.93019 0.0
C2672 C 0.62485 0.31966 0.94466 0.0
C2673 C 0.62174 0.32642 0.96002 0.0
C2674 C 0.61829 0.3263 0.93076 0.0
C2675 C 0.6082 0.33979 0.93168 0.0
C2676 C 0.60465 0.34654 0.94695 0.0
H2677 H 0.54828 0.36974 0.85252 0.0
H2678 H 0.55968 0.35998 0.87785 0.0
C2679 C 0.61144 0.33989 0.9611 0.0
C2680 C 0.60131 0.34608 0.91637 0.0
H2681 H 0.60184 0.37821 0.8904 0.0
C2682 C 0.59276 0.33523 0.90652 0.0
C2683 C 0.60488 0.36171 0.91044 0.0
C2684 C 0.6147 0.37356 0.92016 0.0
C2685 C 0.58775 0.33951 0.89093 0.0
C2686 C 0.59096 0.35521 0.88516 0.0
C2687 C 0.59947 0.36614 0.89492 0.0
C2688 C 0.58441 0.36075 0.86949 0.0
C2689 C 0.5793 0.32711 0.88057 0.0
C2690 C 0.59459 0.36428 0.85634 0.0
C2691 C 0.58804 0.36989 0.84171 0.0
C2692 C 0.57129 0.37218 0.84025 0.0
C2693 C 0.56122 0.36819 0.85335 0.0
C2694 C 0.56771 0.3626 0.86782 0.0
H2695 H 0.58094 0.31467 0.88533 0.0
H2696 H 0.56617 0.32981 0.88031 0.0
H2697 H 0.58387 0.32755 0.86793 0.0
H2698 H 0.60754 0.36286 0.85746 0.0
H2699 H 0.59607 0.37307 0.83186 0.0
H2700 H 0.93102 0.29834 0.10183 0.0
H2701 H 0.94043 0.31037 0.12683 0.0
H2702 H 0.93277 0.35782 0.10662 0.0
H2703 H 0.92171 0.34555 0.08192 0.0
H2704 H 0.96347 0.32888 0.13574 0.0
H2705 H 0.90607 0.36193 0.14668 0.0
H2706 H 0.90825 0.34739 0.13058 0.0
H2707 H 0.91594 0.36756 0.1282 0.0
C2708 C 0.93075 0.3113 0.10289 0.0
C2709 C 0.92433 0.32094 0.09047 0.0
C2710 C 0.93653 0.31822 0.11709 0.0
C2711 C 0.93659 0.33503 0.11898 0.0
C2712 C 0.93209 0.3448 0.10576 0.0
H2713 H 0.96776 0.39672 0.1953 0.0
H2714 H 0.95611 0.38441 0.17123 0.0
C2715 C 0.92601 0.33779 0.09156 0.0
C2716 C 0.94098 0.342 0.13496 0.0
H2717 H 0.92724 0.3664 0.16541 0.0
C2718 C 0.95549 0.33702 0.14224 0.0
C2719 C 0.93048 0.35248 0.14356 0.0
C2720 C 0.91425 0.35754 0.13695 0.0
C2721 C 0.95993 0.34243 0.15771 0.0
C2722 C 0.94955 0.35308 0.16615 0.0
C2723 C 0.93506 0.35808 0.15893 0.0
C2724 C 0.95441 0.36053 0.18168 0.0
C2725 C 0.97589 0.33708 0.16472 0.0
C2726 C 0.95669 0.35128 0.19581 0.0
C2727 C 0.96327 0.35838 0.20975 0.0
C2728 C 0.96764 0.37473 0.20956 0.0
C2729 C 0.96445 0.38407 0.19572 0.0
C2730 C 0.95782 0.37707 0.18196 0.0
H2731 H 0.98358 0.33083 0.15563 0.0
H2732 H 0.98263 0.34759 0.16958 0.0
H2733 H 0.97368 0.3286 0.17488 0.0
H2734 H 0.95393 0.3385 0.19584 0.0
H2735 H 0.96579 0.35097 0.22026 0.0
H2736 H 0.96292 0.69447 0.32859 0.0
H2737 H 0.95089 0.70585 0.35355 0.0
H2738 H 0.95928 0.66073 0.37826 0.0
H2739 H 0.97105 0.64945 0.35382 0.0
H2740 H 0.92457 0.6927 0.37632 0.0
H2741 H 0.98594 0.69628 0.40324 0.0
H2742 H 0.98264 0.6945 0.3817 0.0
H2743 H 0.98088 0.67707 0.39451 0.0
C2744 C 0.9618 0.68695 0.33926 0.0
C2745 C 0.96809 0.6712 0.33936 0.0
C2746 C 0.95505 0.69344 0.35348 0.0
C2747 C 0.95456 0.68418 0.36777 0.0
C2748 C 0.9598 0.66813 0.36744 0.0
H2749 H 0.92159 0.69656 0.46734 0.0
H2750 H 0.93192 0.68528 0.44174 0.0
C2751 C 0.9665 0.66173 0.35343 0.0
C2752 C 0.94951 0.69123 0.38342 0.0
H2753 H 0.96377 0.70042 0.42111 0.0
C2754 C 0.93312 0.69455 0.38607 0.0
C2755 C 0.96075 0.69341 0.39614 0.0
C2756 C 0.97856 0.69026 0.39378 0.0
C2757 C 0.92764 0.69983 0.40128 0.0
C2758 C 0.93885 0.70188 0.41399 0.0
C2759 C 0.95524 0.69865 0.41132 0.0
C2760 C 0.93384 0.70846 0.42981 0.0
C2761 C 0.9099 0.70314 0.4038 0.0
C2762 C 0.93206 0.72516 0.43158 0.0
C2763 C 0.92637 0.73158 0.44609 0.0
C2764 C 0.92227 0.72141 0.45909 0.0
C2765 C 0.92475 0.70468 0.45756 0.0
C2766 C 0.93051 0.69823 0.44295 0.0
H2767 H 0.90253 0.69952 0.39319 0.0
H2768 H 0.9055 0.69657 0.41466 0.0
H2769 H 0.90805 0.71624 0.40603 0.0
H2770 H 0.93476 0.73321 0.42159 0.0
H2771 H 0.92484 0.74451 0.44702 0.0
H2772 H 0.69286 0.5496 0.67361 0.0
H2773 H 0.66814 0.56185 0.68365 0.0
H2774 H 0.69193 0.60808 0.68635 0.0
H2775 H 0.7168 0.59584 0.67548 0.0
H2776 H 0.66037 0.57706 0.71082 0.0
H2777 H 0.65315 0.61913 0.65888 0.0
H2778 H 0.66807 0.60322 0.65897 0.0
H2779 H 0.67155 0.62157 0.67004 0.0
C2780 C 0.69289 0.56238 0.67632 0.0
C2781 C 0.7067 0.57181 0.67347 0.0
C2782 C 0.67873 0.56937 0.68214 0.0
C2783 C 0.67802 0.58596 0.68537 0.0
C2784 C 0.69208 0.59532 0.6835 0.0
H2785 H 0.60193 0.64648 0.72125 0.0
H2786 H 0.62622 0.63505 0.70922 0.0
C2787 C 0.70634 0.58829 0.67754 0.0
C2788 C 0.66238 0.59318 0.69047 0.0
H2789 H 0.63351 0.6207 0.67968 0.0
C2790 C 0.65448 0.58658 0.70398 0.0
C2791 C 0.65467 0.60555 0.68148 0.0
C2792 C 0.66219 0.61271 0.66645 0.0
C2793 C 0.63919 0.59208 0.70887 0.0
C2794 C 0.63145 0.60437 0.69985 0.0
C2795 C 0.63938 0.61109 0.68641 0.0
C2796 C 0.61584 0.61147 0.70513 0.0
C2797 C 0.63164 0.58498 0.72391 0.0
C2798 C 0.60165 0.60217 0.70624 0.0
C2799 C 0.58756 0.60876 0.71312 0.0
C2800 C 0.58765 0.62466 0.71897 0.0
C2801 C 0.60158 0.63414 0.7169 0.0
C2802 C 0.61548 0.62764 0.71002 0.0
H2803 H 0.64051 0.578 0.7312 0.0
H2804 H 0.62639 0.59463 0.73164 0.0
H2805 H 0.62176 0.57669 0.72036 0.0
H2806 H 0.60163 0.58971 0.70227 0.0
H2807 H 0.57701 0.60122 0.71468 0.0
H2808 H 0.84937 0.33258 0.067 0.0
H2809 H 0.83878 0.35813 0.07812 0.0
H2810 H 0.88371 0.36565 0.10336 0.0
H2811 H 0.89392 0.34003 0.09268 0.0
H2812 H 0.83675 0.37098 0.11181 0.0
H2813 H 0.87825 0.40488 0.07129 0.0
H2814 H 0.87373 0.38376 0.06839 0.0
H2815 H 0.88771 0.38983 0.08382 0.0
C2816 C 0.85674 0.33955 0.07525 0.0
C2817 C 0.8725 0.33458 0.07893 0.0
C2818 C 0.85077 0.35411 0.08151 0.0
C2819 C 0.86063 0.36388 0.09125 0.0
C2820 C 0.87603 0.35839 0.09565 0.0
H2821 H 0.84802 0.46009 0.13306 0.0
H2822 H 0.85979 0.43437 0.1236 0.0
C2823 C 0.88187 0.34381 0.08955 0.0
C2824 C 0.85528 0.38022 0.09609 0.0
H2825 H 0.86317 0.42028 0.09018 0.0
C2826 C 0.84248 0.38177 0.10709 0.0
C2827 C 0.86286 0.39422 0.08988 0.0
C2828 C 0.87632 0.39319 0.07759 0.0
C2829 C 0.83712 0.39704 0.11217 0.0
C2830 C 0.84464 0.41103 0.10588 0.0
C2831 C 0.85752 0.40949 0.095 0.0
C2832 C 0.83867 0.42736 0.10991 0.0
C2833 C 0.8235 0.39812 0.12429 0.0
C2834 C 0.82333 0.43215 0.10462 0.0
C2835 C 0.81678 0.44677 0.10978 0.0
C2836 C 0.82547 0.45683 0.12028 0.0
C2837 C 0.84126 0.4526 0.12473 0.0
C2838 C 0.84787 0.43789 0.11951 0.0
H2839 H 0.82161 0.38649 0.13072 0.0
H2840 H 0.82589 0.40771 0.13337 0.0
H2841 H 0.81215 0.40126 0.11788 0.0
H2842 H 0.81619 0.4243 0.09698 0.0
H2843 H 0.80462 0.44991 0.10614 0.0
H2844 H 0.66009 0.71021 0.60145 0.0
H2845 H 0.67093 0.6854 0.61382 0.0
H2846 H 0.6991 0.67637 0.57075 0.0
H2847 H 0.6886 0.70115 0.55864 0.0
H2848 H 0.66601 0.65467 0.59881 0.0
H2849 H 0.73119 0.66732 0.60741 0.0
H2850 H 0.71636 0.68317 0.60495 0.0
H2851 H 0.72372 0.67226 0.58762 0.0
C2852 C 0.66909 0.70321 0.59498 0.0
C2853 C 0.67367 0.70749 0.5792 0.0
C2854 C 0.67512 0.68902 0.60193 0.0
C2855 C 0.6859 0.67918 0.59322 0.0
C2856 C 0.69103 0.68395 0.57778 0.0
H2857 H 0.73284 0.58712 0.60179 0.0
H2858 H 0.72134 0.61275 0.59244 0.0
C2859 C 0.68498 0.69803 0.57084 0.0
C2860 C 0.69057 0.66311 0.59938 0.0
H2861 H 0.72322 0.63972 0.60838 0.0
C2862 C 0.67848 0.65139 0.60112 0.0
C2863 C 0.70686 0.65891 0.6021 0.0
C2864 C 0.72028 0.67111 0.60056 0.0
C2865 C 0.68233 0.63534 0.60497 0.0
C2866 C 0.69867 0.63108 0.60761 0.0
C2867 C 0.7107 0.64295 0.60623 0.0
C2868 C 0.70372 0.61442 0.6118 0.0
C2869 C 0.66891 0.62305 0.60553 0.0
C2870 C 0.69728 0.60659 0.62544 0.0
C2871 C 0.70345 0.59168 0.63036 0.0
C2872 C 0.71638 0.58465 0.62196 0.0
C2873 C 0.72255 0.5922 0.60811 0.0
C2874 C 0.71613 0.6069 0.60295 0.0
H2875 H 0.65835 0.62698 0.59822 0.0
H2876 H 0.67302 0.6111 0.60101 0.0
H2877 H 0.66476 0.62163 0.61823 0.0
H2878 H 0.68809 0.61236 0.63277 0.0
H2879 H 0.6989 0.58623 0.64138 0.0
H2880 H 0.08092 0.9498 0.2725 0.0
H2881 H 0.08205 0.97914 0.26668 0.0
H2882 H 0.04072 0.98654 0.29731 0.0
H2883 H 0.03899 0.95782 0.30182 0.0
H2884 H 0.08726 1.00754 0.27616 0.0
H2885 H 1.02222 1.01577 0.26769 0.0
H2886 H 0.02572 1.00798 0.28755 0.0
H2887 H 0.03077 0.99596 0.26993 0.0
C2888 C 0.07182 0.95754 0.27787 0.0
C2889 C 0.05969 0.95033 0.28786 0.0
C2890 C 0.0725 0.97484 0.27452 0.0
C2891 C 0.06111 0.98637 0.28085 0.0
C2892 C 0.04943 0.97902 0.29115 0.0
H2893 H 0.03795 0.09088 0.25145 0.0
H2894 H 0.03945 0.0619 0.25586 0.0
C2895 C 0.04863 0.96193 0.2942 0.0
C2896 C 0.06142 1.00552 0.27718 0.0
H2897 H 0.03705 0.03967 0.27237 0.0
C2898 C 0.0761 1.01433 0.27526 0.0
C2899 C 0.0473 1.01563 0.27538 0.0
C2900 C 0.03064 1.00834 0.27506 0.0
C2901 C 0.07706 0.03166 0.27211 0.0
C2902 C 0.06292 0.04192 0.27126 0.0
C2903 C 0.04828 0.03299 0.273 0.0
C2904 C 0.06266 0.06121 0.26801 0.0
C2905 C 0.09362 0.03849 0.26908 0.0
C2906 C 0.07492 0.07248 0.2729 0.0
C2907 C 0.07428 0.08972 0.26956 0.0
C2908 C 0.06106 0.09739 0.26155 0.0
C2909 C 0.04866 0.08628 0.25722 0.0
C2910 C 0.04947 0.06908 0.2601 0.0
H2911 H 0.10225 0.02899 0.2651 0.0
H2912 H 0.09328 0.04801 0.25964 0.0
H2913 H 0.09835 0.04369 0.28051 0.0
H2914 H 0.08515 0.06819 0.27973 0.0
H2915 H 0.08428 0.09711 0.27351 0.0
H2916 H 0.33736 0.78692 0.55714 0.0
H2917 H 0.30902 0.78935 0.55077 0.0
H2918 H 0.32095 0.82267 0.51251 0.0
H2919 H 0.34928 0.82073 0.5198 0.0
H2920 H 0.28557 0.78516 0.53902 0.0
H2921 H 0.2835 0.84461 0.50815 0.0
H2922 H 0.29848 0.83107 0.50054 0.0
H2923 H 0.30037 0.83947 0.52076 0.0
C2924 C 0.3342 0.79491 0.54734 0.0
C2925 C 0.34682 0.80339 0.5392 0.0
C2926 C 0.31721 0.79636 0.54343 0.0
C2927 C 0.31082 0.80652 0.5309 0.0
C2928 C 0.32365 0.81501 0.52264 0.0
H2929 H 0.20152 0.83296 0.51709 0.0
H2930 H 0.23091 0.83312 0.52262 0.0
C2931 C 0.34074 0.81363 0.5267 0.0
C2932 C 0.29147 0.80755 0.52695 0.0
H2933 H 0.26007 0.82974 0.50862 0.0
C2934 C 0.28054 0.7953 0.53251 0.0
C2935 C 0.28296 0.82024 0.51822 0.0
C2936 C 0.29182 0.83466 0.51164 0.0
C2937 C 0.26311 0.79531 0.53009 0.0
C2938 C 0.25483 0.80767 0.52106 0.0
C2939 C 0.2655 0.81998 0.51548 0.0
C2940 C 0.23567 0.80788 0.51738 0.0
C2941 C 0.25362 0.78197 0.53801 0.0
C2942 C 0.22695 0.79395 0.5122 0.0
C2943 C 0.2098 0.79389 0.50902 0.0
C2944 C 0.19956 0.80772 0.51047 0.0
C2945 C 0.20817 0.82178 0.51561 0.0
C2946 C 0.22549 0.82188 0.51879 0.0
H2947 H 0.26005 0.77704 0.54874 0.0
H2948 H 0.24153 0.78622 0.54198 0.0
H2949 H 0.25206 0.77193 0.52926 0.0
H2950 H 0.23347 0.78279 0.51031 0.0
H2951 H 0.20446 0.78257 0.50545 0.0
H2952 H 0.46981 0.94896 0.77809 0.0
H2953 H 0.46877 0.97824 0.78421 0.0
H2954 H 0.50636 0.98658 0.74939 0.0
H2955 H 0.50705 0.95792 0.74319 0.0
H2956 H 0.462 1.00783 0.77157 0.0
H2957 H 0.52718 1.01338 0.78238 0.0
H2958 H 0.52327 1.00595 0.7624 0.0
H2959 H 0.51779 0.99396 0.77979 0.0
C2960 C 0.47809 0.95685 0.77175 0.0
C2961 C 0.48895 0.94985 0.76019 0.0
C2962 C 0.47745 0.97411 0.7753 0.0
C2963 C 0.48786 0.98584 0.7679 0.0
C2964 C 0.49838 0.97878 0.75618 0.0
H2965 H 0.5074 0.0875 0.80755 0.0
H2966 H 0.50613 0.05884 0.80103 0.0
C2967 C 0.49879 0.96173 0.75246 0.0
C2968 C 0.4878 1.0049 0.77201 0.0
H2969 H 0.51282 0.03803 0.77964 0.0
C2970 C 0.47328 1.0142 0.77329 0.0
C2971 C 0.50209 1.01443 0.77473 0.0
C2972 C 0.51845 1.00644 0.77494 0.0
C2973 C 0.47271 0.03153 0.77659 0.0
C2974 C 0.48706 0.04112 0.77882 0.0
C2975 C 0.50151 0.03172 0.77789 0.0
C2976 C 0.48754 0.06023 0.78272 0.0
C2977 C 0.45632 0.0393 0.77816 0.0
C2978 C 0.47782 0.07238 0.77496 0.0
C2979 C 0.47883 0.08958 0.77862 0.0
C2980 C 0.48959 0.09615 0.79043 0.0
C2981 C 0.49908 0.08396 0.7982 0.0
C2982 C 0.49827 0.06693 0.79439 0.0
H2983 H 0.44686 0.03027 0.7811 0.0
H2984 H 0.45628 0.04874 0.7877 0.0
H2985 H 0.45305 0.04502 0.76646 0.0
H2986 H 0.46945 0.06871 0.76564 0.0
H2987 H 0.47099 0.09777 0.77209 0.0
H2988 H 0.33988 0.26121 1.01125 0.0
H2989 H 0.31102 0.26028 1.01684 0.0
H2990 H 0.31402 0.20853 1.02105 0.0
H2991 H 0.34317 0.20984 1.01691 0.0
H2992 H 0.28471 0.25588 1.0096 0.0
H2993 H 0.28201 0.20445 0.05188 0.0
H2994 H 0.30095 0.21338 0.04639 0.0
H2995 H 0.29136 0.19881 0.0332 0.0
C2996 C 0.3346 0.2495 1.01353 0.0
C2997 C 0.34489 0.23566 1.01341 0.0
C2998 C 0.31745 0.24891 1.01678 0.0
C2999 C 0.30876 0.23434 1.02002 0.0
C3000 C 0.31915 0.22039 1.01961 0.0
H3001 H 0.19906 0.21236 0.03099 0.0
H3002 H 0.22849 0.21122 0.02593 0.0
C3003 C 0.33645 0.22105 1.01679 0.0
C3004 C 0.28944 0.23417 1.02323 0.0
H3005 H 0.25725 0.21375 0.04177 0.0
C3006 C 0.27916 0.24657 1.0169 0.0
C3007 C 0.28057 0.22238 0.03264 0.0
C3008 C 0.28925 0.20909 0.04155 0.0
C3009 C 0.26178 0.24747 1.01932 0.0
C3010 C 0.25299 0.23559 0.02848 0.0
C3011 C 0.26308 0.22307 0.03466 0.0
C3012 C 0.23387 0.23614 0.03183 0.0
C3013 C 0.2529 0.2613 1.01146 0.0
C3014 C 0.22558 0.25029 0.03721 0.0
C3015 C 0.2084 0.25095 0.04012 0.0
C3016 C 0.19782 0.23752 0.03806 0.0
C3017 C 0.20603 0.22325 0.0328 0.0
C3018 C 0.22334 0.22257 0.02991 0.0
H3019 H 0.25969 0.2662 1.00096 0.0
H3020 H 0.24074 0.25758 1.00727 0.0
H3021 H 0.25149 0.27121 1.0204 0.0
H3022 H 0.23248 0.26112 0.0395 0.0
H3023 H 0.20335 0.26234 0.04405 0.0
H3024 H 0.2644 0.06076 0.94805 0.0
H3025 H 0.2581 0.0624 0.9772 0.0
H3026 H 0.30648 0.04711 0.98831 0.0
H3027 H 0.31291 0.04646 0.95954 0.0
H3028 H 0.25337 0.04738 1.00261 0.0
H3029 H 0.30842 0.07804 1.02243 0.0
H3030 H 0.30398 0.07536 1.0013 0.0
H3031 H 0.31365 0.05943 1.01273 0.0
C3032 C 0.27387 0.05787 0.95659 0.0
C3033 C 0.28935 0.05333 0.9505 0.0
C3034 C 0.27018 0.05877 0.97374 0.0
C3035 C 0.28167 0.05532 0.98621 0.0
C3036 C 0.29706 0.05059 0.97998 0.0
H3037 H 0.2755 0.07644 0.09621 0.0
H3038 H 0.28118 0.07655 0.06689 0.0
C3039 C 0.30077 0.04985 0.96294 0.0
C3040 C 0.27756 0.05623 1.00517 0.0
H3041 H 0.29305 0.06572 0.04328 0.0
C3042 C 0.26221 0.05154 1.01131 0.0
C3043 C 0.28834 0.06194 1.01759 0.0
C3044 C 0.30443 0.06915 1.01319 0.0
C3045 C 0.25762 0.0521 0.02829 0.0
C3046 C 0.26879 0.05682 0.0409 0.0
C3047 C 0.28406 0.06176 0.03466 0.0
C3048 C 0.26507 0.057 0.06006 0.0
C3049 C 0.24026 0.0482 0.03206 0.0
C3050 C 0.25429 0.04604 0.06779 0.0
C3051 C 0.25092 0.04619 0.08487 0.0
C3052 C 0.25823 0.05688 0.09616 0.0
C3053 C 0.26929 0.06778 0.08868 0.0
C3054 C 0.27262 0.06779 0.07138 0.0
H3055 H 0.23232 0.05049 1.02146 0.0
H3056 H 0.23922 0.03516 0.03499 0.0
H3057 H 0.23565 0.05552 0.04233 0.0
H3058 H 0.24851 0.03671 0.06081 0.0
H3059 H 0.24245 0.03747 0.08924 0.0
H3060 H 0.2476 0.06124 0.20855 0.0
H3061 H 0.24616 0.05526 0.23767 0.0
H3062 H 0.23384 1.00607 0.22687 0.0
H3063 H 0.23505 1.01213 0.19763 0.0
H3064 H 0.2228 0.04512 0.2602 0.0
H3065 H 0.26872 0.99672 0.26016 0.0
H3066 H 0.26593 1.00997 0.24302 0.0
H3067 H 0.25222 0.99353 0.24645 0.0
C3068 C 0.24467 0.04902 0.21214 0.0
C3069 C 0.24171 0.0373 0.19981 0.0
C3070 C 0.24375 0.04554 0.22925 0.0
C3071 C 0.24017 0.02994 0.23556 0.0
C3072 C 0.23703 1.01821 0.22325 0.0
H3073 H 0.24372 0.98506 0.33743 0.0
H3074 H 0.24315 0.99081 0.30834 0.0
C3075 C 0.23763 1.02178 0.20607 0.0
C3076 C 0.23963 0.0262 0.25456 0.0
H3077 H 0.25532 1.00141 0.28483 0.0
C3078 C 0.23001 0.0355 0.26541 0.0
C3079 C 0.24864 1.01361 0.2624 0.0
C3080 C 0.25959 1.00292 0.25252 0.0
C3081 C 0.2288 0.0325 0.28272 0.0
C3082 C 0.23824 1.02019 0.29078 0.0
C3083 C 0.2479 1.01094 0.27979 0.0
C3084 C 0.23817 1.01652 0.30994 0.0
C3085 C 0.2165 0.04235 0.29191 0.0
C3086 C 0.23583 0.02846 0.32229 0.0
C3087 C 0.23578 0.02491 0.33945 0.0
C3088 C 0.23843 1.00923 0.34592 0.0
C3089 C 0.24131 0.99736 0.33371 0.0
C3090 C 0.24107 1.0008 0.31653 0.0
H3091 H 0.20672 0.04673 0.28382 0.0
H3092 H 0.21086 0.03523 0.30178 0.0
H3093 H 0.22245 0.05316 0.2971 0.0
H3094 H 0.23456 0.04097 0.3189 0.0
H3095 H 0.23448 0.03481 0.34772 0.0
H3096 H 0.24526 1.01052 0.45747 0.0
H3097 H 0.25068 1.00848 0.48626 0.0
H3098 H 0.28105 0.96729 0.47716 0.0
H3099 H 0.27501 0.96938 0.44806 0.0
H3100 H 0.2691 1.01239 0.50801 0.0
H3101 H 0.26643 0.94649 0.51571 0.0
H3102 H 0.2815 0.95217 0.50122 0.0
H3103 H 0.26044 0.956 0.49705 0.0
C3104 C 0.25293 1.00083 0.46127 0.0
C3105 C 0.25924 0.99015 0.44925 0.0
C3106 C 0.25629 0.99964 0.4784 0.0
C3107 C 0.26626 0.98744 0.48544 0.0
C3108 C 0.27286 0.97673 0.4734 0.0
H3109 H 0.27271 0.96401 0.59588 0.0
H3110 H 0.26715 0.9642 0.56648 0.0
C3111 C 0.26948 0.97804 0.45612 0.0
C3112 C 0.26973 0.98665 0.50473 0.0
H3113 H 0.27625 0.96128 0.53809 0.0
C3114 C 0.27054 1.001 0.51428 0.0
C3115 C 0.2716 0.97221 0.51438 0.0
C3116 C 0.26979 0.95583 0.50666 0.0
C3117 C 0.27301 1.00145 0.53173 0.0
C3118 C 0.27566 0.98707 0.54132 0.0
C3119 C 0.27466 0.97265 0.53181 0.0
C3120 C 0.27915 0.98677 0.56064 0.0
C3121 C 0.27191 1.01782 0.53963 0.0
C3122 C 0.28809 0.99897 0.56895 0.0
C3123 C 0.29076 0.99912 0.58622 0.0
C3124 C 0.28556 0.98674 0.59703 0.0
C3125 C 0.27705 0.97413 0.58883 0.0
C3126 C 0.27392 0.97419 0.57144 0.0
H3127 H 0.26435 0.02625 0.53241 0.0
H3128 H 0.26661 1.01704 0.55195 0.0
H3129 H 0.28416 0.02316 0.54037 0.0
H3130 H 0.29346 1.00866 0.56209 0.0
H3131 H 0.2971 1.00933 0.59113 0.0
H3132 H 0.33105 0.02998 0.84478 0.0
H3133 H 0.33103 0.0245 0.81543 0.0
H3134 H 0.27986 0.03327 0.81426 0.0
H3135 H 0.28022 0.03976 0.84291 0.0
H3136 H 0.32485 1.00793 0.79217 0.0
H3137 H 0.2813 0.05465 0.77449 0.0
H3138 H 0.28915 0.05386 0.79472 0.0
H3139 H 0.27204 0.04154 0.78892 0.0
C3140 C 0.31972 0.03105 0.83835 0.0
C3141 C 0.30567 0.03586 0.8472 0.0
C3142 C 0.31966 0.02777 0.82102 0.0
C3143 C 0.30554 0.02885 0.81099 0.0
C3144 C 0.29146 0.03303 0.82017 0.0
H3145 H 0.27773 1.00112 0.70676 0.0
H3146 H 0.27924 1.00755 0.73573 0.0
C3147 C 0.29159 0.03661 0.8373 0.0
C3148 C 0.30542 0.02526 0.79171 0.0
H3149 H 0.2861 0.03425 0.75502 0.0
C3150 C 0.31632 1.01401 0.78433 0.0
C3151 C 0.29478 0.03279 0.78002 0.0
C3152 C 0.2838 0.0465 0.78488 0.0
C3153 C 0.31655 1.01 0.76712 0.0
C3154 C 0.30546 1.01704 0.7557 0.0
C3155 C 0.29465 0.02831 0.76297 0.0
C3156 C 0.30476 1.01294 0.73667 0.0
C3157 C 0.32869 0.99771 0.76136 0.0
C3158 C 0.3183 1.01376 0.7259 0.0
C3159 C 0.31732 1.01025 0.70867 0.0
C3160 C 0.30281 1.00524 0.70079 0.0
C3161 C 0.28934 1.00448 0.71158 0.0
C3162 C 0.29021 1.00837 0.72865 0.0
H3163 H 0.33342 0.99027 0.77149 0.0
H3164 H 0.32333 0.98958 0.75214 0.0
H3165 H 0.33903 1.00409 0.7557 0.0
H3166 H 0.32986 1.01741 0.73072 0.0
H3167 H 0.32824 1.01123 0.70153 0.0
H3168 H 0.94785 0.25964 0.06522 0.0
H3169 H 0.97702 0.25416 0.06564 0.0
H3170 H 0.98597 0.30349 0.05234 0.0
H3171 H 0.95693 0.30892 0.05284 0.0
H3172 H 1.00176 0.2526 0.04549 0.0
H3173 H 1.02095 0.30321 0.08409 0.0
H3174 H 0.99994 0.29811 0.0817 0.0
H3175 H 1.01021 0.30982 0.06647 0.0
C3176 C 0.95581 0.26953 0.0629 0.0
C3177 C 0.94894 0.2849 0.0593 0.0
C3178 C 0.97303 0.26631 0.06285 0.0
C3179 C 0.98494 0.27828 0.05932 0.0
C3180 C 0.97805 0.29366 0.05565 0.0
H3181 H 0.09664 0.28197 0.05702 0.0
H3182 H 0.06741 0.28773 0.05763 0.0
C3183 C 0.96087 0.2968 0.05568 0.0
C3184 C 1.00397 0.2746 0.05899 0.0
H3185 H 0.04181 0.28871 0.07104 0.0
C3186 C 1.01034 0.26062 0.05123 0.0
C3187 C 1.01625 0.28465 0.06607 0.0
C3188 C 1.01155 0.29971 0.07518 0.0
C3189 C 0.02745 0.25683 0.04994 0.0
C3190 C 0.03981 0.26666 0.05737 0.0
C3191 C 0.03335 0.28065 0.06519 0.0
C3192 C 0.05895 0.26292 0.05709 0.0
C3193 C 0.03183 0.24246 0.03962 0.0
C3194 C 0.06571 0.24701 0.05699 0.0
C3195 C 0.0828 0.2437 0.05613 0.0
C3196 C 0.09489 0.25592 0.05604 0.0
C3197 C 0.08837 0.27186 0.05695 0.0
C3198 C 0.07114 0.27521 0.05734 0.0
H3199 H 1.02237 0.23994 0.03045 0.0
H3200 H 0.0434 0.24437 0.03311 0.0
H3201 H 0.0328 0.23159 0.04742 0.0
H3202 H 0.05783 0.2367 0.05787 0.0
H3203 H 0.08657 0.23117 0.05577 0.0
H3204 H 0.45616 0.24599 1.01836 0.0
H3205 H 0.48461 0.25303 1.01693 0.0
H3206 H 0.47643 0.27479 0.97035 0.0
H3207 H 0.44767 0.26891 0.9727 0.0
H3208 H 0.51092 0.25056 1.00935 0.0
H3209 H 0.50775 0.30594 0.97236 0.0
H3210 H 0.48984 0.29743 0.98108 0.0
H3211 H 0.49827 0.28926 0.96252 0.0
C3212 C 0.46011 0.25251 1.00779 0.0
C3213 C 0.44837 0.25682 0.99587 0.0
C3214 C 0.47712 0.25667 1.00686 0.0
C3215 C 0.48439 0.26532 0.99369 0.0
C3216 C 0.47259 0.26914 0.98143 0.0
H3217 H 0.59314 0.28432 0.96863 0.0
H3218 H 0.56388 0.27827 0.96792 0.0
C3219 C 0.45543 0.26539 0.98262 0.0
C3220 C 0.50365 0.2696 0.99305 0.0
H3221 H 0.53344 0.29519 0.97675 0.0
C3222 C 0.51531 0.26059 1.00223 0.0
C3223 C 0.51123 0.28258 0.98397 0.0
C3224 C 0.50118 0.29447 0.97454 0.0
C3225 C 0.53265 0.26376 1.00259 0.0
C3226 C 0.54009 0.27645 0.99336 0.0
C3227 C 0.52869 0.28536 0.98397 0.0
C3228 C 0.55916 0.2806 0.99362 0.0
C3229 C 0.54309 0.25299 1.0129 0.0
C3230 C 0.56784 0.28442 1.00807 0.0
C3231 C 0.58493 0.2883 1.00843 0.0
C3232 C 0.59514 0.28835 0.99446 0.0
C3233 C 0.58655 0.28439 0.97996 0.0
C3234 C 0.5693 0.28093 0.97953 0.0
H3235 H 0.53691 0.24151 1.01603 0.0
H3236 H 0.55462 0.2501 1.00664 0.0
H3237 H 0.54602 0.25936 1.02434 0.0
H3238 H 0.56129 0.2847 1.0194 0.0
H3239 H 0.59022 0.29106 1.02004 0.0
H3240 H 0.06686 0.21058 0.24618 0.0
H3241 H 0.06008 0.23948 0.24413 0.0
H3242 H 1.00964 0.22762 0.24395 0.0
H3243 H 1.01646 0.19868 0.24574 0.0
H3244 H 0.04685 0.26155 0.22444 0.0
H3245 H 1.00477 0.2631 0.27592 0.0
H3246 H 1.01723 0.24571 0.27176 0.0
H3247 H 0.99876 0.24886 0.26072 0.0
C3248 C 0.05422 0.21388 0.24579 0.0
C3249 C 0.04245 0.20125 0.24635 0.0
C3250 C 0.05022 0.23093 0.24454 0.0
C3251 C 0.03406 0.23705 0.24416 0.0
C3252 C 1.02228 0.22438 0.24459 0.0
H3253 H 1.00557 0.3426 0.26606 0.0
H3254 H 1.01209 0.31382 0.26589 0.0
C3255 C 0.02628 0.20728 0.24552 0.0
C3256 C 0.02979 0.2561 0.24321 0.0
H3257 H 1.00563 0.28663 0.25977 0.0
C3258 C 0.03779 0.26682 0.23231 0.0
C3259 C 1.01813 0.26428 0.25326 0.0
C3260 C 1.00931 0.255 0.2662 0.0
C3261 C 0.03462 0.28415 0.23106 0.0
C3262 C 0.02264 0.29236 0.24087 0.0
C3263 C 1.01477 0.28155 0.25188 0.0
C3264 C 1.01845 0.31158 0.24052 0.0
C3265 C 0.04489 0.29347 0.21931 0.0
C3266 C 1.01917 0.32191 0.2265 0.0
C3267 C 1.01549 0.33913 0.22668 0.0
C3268 C 1.01033 0.34766 0.24081 0.0
C3269 C 1.0093 0.33736 0.25468 0.0
C3270 C 1.01316 0.32026 0.25455 0.0
H3271 H 0.05624 0.28693 0.21631 0.0
H3272 H 0.03813 0.29515 0.20784 0.0
H3273 H 0.04815 0.30543 0.22431 0.0
H3274 H 1.02229 0.31673 0.21493 0.0
H3275 H 1.01647 0.34573 0.21542 0.0
H3276 H 0.08642 0.80822 0.50706 0.0
H3277 H 0.05768 0.80152 0.50652 0.0
H3278 H 0.06831 0.76001 0.47716 0.0
H3279 H 0.09725 0.76624 0.47865 0.0
H3280 H 0.03255 0.80034 0.49102 0.0
H3281 H 0.03691 0.73438 0.49844 0.0
H3282 H 0.05429 0.74711 0.50103 0.0
H3283 H 0.04747 0.74167 0.48101 0.0
C3284 C 0.08297 0.79732 0.50081 0.0
C3285 C 0.09539 0.78773 0.49347 0.0
C3286 C 0.06589 0.79345 0.5003 0.0
C3287 C 0.05934 0.77961 0.49228 0.0
C3288 C 0.07176 0.77031 0.48435 0.0
H3289 H 0.95701 0.73344 0.48641 0.0
H3290 H 0.98571 0.7403 0.48505 0.0
C3291 C 0.08894 0.77412 0.48502 0.0
C3292 C 0.04011 0.77558 0.49205 0.0
H3293 H 1.01126 0.74477 0.49338 0.0
C3294 C 0.02816 0.78804 0.49158 0.0
C3295 C 0.03291 0.75971 0.49256 0.0
C3296 C 0.04349 0.74493 0.49342 0.0
C3297 C 1.01069 0.78547 0.49122 0.0
C3298 C 1.00334 0.76958 0.49221 0.0
C3299 C 1.01543 0.75711 0.49268 0.0
C3300 C 0.98398 0.76545 0.49254 0.0
C3301 C 1.00049 0.80038 0.48902 0.0
C3302 C 0.97124 0.77647 0.49711 0.0
C3303 C 0.95411 0.77256 0.49705 0.0
C3304 C 0.9479 0.75696 0.4933 0.0
C3305 C 0.96043 0.74571 0.48932 0.0
C3306 C 0.97751 0.74981 0.48869 0.0
H3307 H 1.00755 0.81058 0.48392 0.0
H3308 H 0.99026 0.79804 0.4807 0.0
H3309 H 0.9959 0.80438 0.501 0.0
H3310 H 0.9742 0.78835 0.5014 0.0
H3311 H 0.94564 0.78186 0.50067 0.0
H3312 H 0.58598 0.736 0.5413 0.0
H3313 H 0.55752 0.74296 0.54262 0.0
H3314 H 0.56873 0.78131 0.57588 0.0
H3315 H 0.59753 0.77533 0.57293 0.0
H3316 H 0.53289 0.74277 0.55563 0.0
H3317 H 0.53687 0.80904 0.56057 0.0
H3318 H 0.55435 0.79713 0.5557 0.0
H3319 H 0.5478 0.79938 0.57652 0.0
C3320 C 0.58271 0.74633 0.5485 0.0
C3321 C 0.59516 0.75522 0.5564 0.0
C3322 C 0.56578 0.75033 0.54953 0.0
C3323 C 0.55951 0.76336 0.55897 0.0
C3324 C 0.57199 0.77183 0.56754 0.0
H3325 H 0.45234 0.78308 0.58631 0.0
H3326 H 0.48183 0.77795 0.58686 0.0
C3327 C 0.58906 0.76813 0.56607 0.0
C3328 C 0.54046 0.76733 0.55994 0.0
H3329 H 0.51136 0.79765 0.56549 0.0
C3330 C 0.52863 0.75497 0.55764 0.0
C3331 C 0.53333 0.78309 0.56257 0.0
C3332 C 0.5437 0.79794 0.56382 0.0
C3333 C 0.51129 0.75763 0.55791 0.0
C3334 C 0.50435 0.77317 0.56096 0.0
C3335 C 0.51595 0.78557 0.56337 0.0
C3336 C 0.48542 0.77665 0.56091 0.0
C3337 C 0.50025 0.74353 0.55495 0.0
C3338 C 0.47638 0.77785 0.54635 0.0
C3339 C 0.45926 0.78093 0.54604 0.0
C3340 C 0.44961 0.78282 0.56024 0.0
C3341 C 0.4586 0.78157 0.5749 0.0
C3342 C 0.4759 0.77871 0.57521 0.0
H3343 H 0.50695 0.73198 0.55361 0.0
H3344 H 0.49154 0.74239 0.56511 0.0
H3345 H 0.49316 0.74571 0.54375 0.0
H3346 H 0.48264 0.77651 0.53491 0.0
H3347 H 0.45347 0.78173 0.53434 0.0
H3348 H 0.06211 0.83795 0.30166 0.0
H3349 H 0.05589 0.80903 0.30315 0.0
H3350 H 1.00687 0.8204 0.31581 0.0
H3351 H 1.01316 0.84953 0.31445 0.0
H3352 H 0.04687 0.78615 0.32494 0.0
H3353 H 0.99554 0.78714 0.28252 0.0
H3354 H 1.00867 0.80432 0.28498 0.0
H3355 H 0.99306 0.80033 0.29959 0.0
C3356 C 0.04986 0.83457 0.3047 0.0
C3357 C 0.0383 0.84709 0.30765 0.0
C3358 C 0.04624 0.81752 0.30563 0.0
C3359 C 0.0306 0.81133 0.30925 0.0
C3360 C 1.01902 0.82384 0.3125 0.0
H3361 H 0.98526 0.70947 0.30807 0.0
H3362 H 0.99107 0.73851 0.30876 0.0
C3363 C 0.02273 0.84099 0.31184 0.0
C3364 C 0.02676 0.79229 0.30974 0.0
H3365 H 1.00075 0.76235 0.2955 0.0
C3366 C 0.03672 0.78116 0.31838 0.0
C3367 C 1.01353 0.7846 0.30156 0.0
C3368 C 1.00213 0.79461 0.29151 0.0
C3369 C 0.03381 0.76384 0.31941 0.0
C3370 C 1.02079 0.75599 0.31085 0.0
C3371 C 1.01085 0.76722 0.30221 0.0
C3372 C 1.01713 0.73681 0.31084 0.0
C3373 C 0.04459 0.75434 0.33061 0.0
C3374 C 0.02924 0.72439 0.3115 0.0
C3375 C 0.02572 0.70724 0.3114 0.0
C3376 C 1.00982 0.70082 0.31046 0.0
C3377 C 0.99774 0.71312 0.30924 0.0
C3378 C 1.0012 0.73028 0.30953 0.0
H3379 H 0.04978 0.76214 0.34023 0.0
H3380 H 0.03793 0.74437 0.33657 0.0
H3381 H 0.05484 0.74926 0.3236 0.0
H3382 H 0.04181 0.72778 0.31153 0.0
H3383 H 0.03575 0.69894 0.31132 0.0
H3384 H 0.50416 0.20535 0.78575 0.0
H3385 H 0.51015 0.23414 0.78668 0.0
H3386 H 0.51785 0.23045 0.83808 0.0
H3387 H 0.51302 0.20136 0.83671 0.0
H3388 H 0.5031 0.26052 0.79228 0.0
H3389 H 0.54972 0.26179 0.83982 0.0
H3390 H 0.54318 0.24303 0.83116 0.0
H3391 H 0.53147 0.25274 0.84694 0.0
C3392 C 0.50729 0.21046 0.79736 0.0
C3393 C 0.50798 0.19998 0.81106 0.0
C3394 C 0.51079 0.22755 0.79796 0.0
C3395 C 0.51513 0.23601 0.81241 0.0
C3396 C 0.51553 0.22546 0.82626 0.0
H3397 H 0.52986 0.34591 0.83364 0.0
H3398 H 0.52413 0.31654 0.83551 0.0
C3399 C 0.51239 0.2082 0.82557 0.0
C3400 C 0.51858 0.25529 0.81259 0.0
H3401 H 0.5394 0.28691 0.83161 0.0
C3402 C 0.51131 0.26583 0.80095 0.0
C3403 C 0.52912 0.26385 0.82361 0.0
C3404 C 0.53895 0.2548 0.83599 0.0
C3405 C 0.5139 0.28318 0.80004 0.0
C3406 C 0.52428 0.29167 0.81108 0.0
C3407 C 0.53139 0.28132 0.82292 0.0
C3408 C 0.52801 0.31073 0.81022 0.0
C3409 C 0.5049 0.29238 0.78714 0.0
C3410 C 0.53252 0.31872 0.79561 0.0
C3411 C 0.53583 0.33581 0.79457 0.0
C3412 C 0.535 0.34664 0.80799 0.0
C3413 C 0.53052 0.33875 0.82271 0.0
C3414 C 0.52732 0.32148 0.82381 0.0
H3415 H 0.49385 0.28588 0.78325 0.0
H3416 H 0.50135 0.3046 0.79141 0.0
H3417 H 0.5128 0.29371 0.77637 0.0
H3418 H 0.53378 0.31165 0.78468 0.0
H3419 H 0.53884 0.34057 0.78282 0.0
H3420 H 0.56048 0.44762 0.76262 0.0
H3421 H 0.56133 0.47682 0.7568 0.0
H3422 H 0.55578 0.48673 0.80751 0.0
H3423 H 0.55483 0.45755 0.81309 0.0
H3424 H 0.53971 0.50287 0.76064 0.0
H3425 H 0.5919 0.51879 0.79884 0.0
H3426 H 0.5873 0.49809 0.79371 0.0
H3427 H 0.57594 0.50835 0.80916 0.0
C3428 C 0.55989 0.45583 0.77263 0.0
C3429 C 0.55802 0.44929 0.78842 0.0
C3430 C 0.56017 0.47299 0.76926 0.0
C3431 C 0.55898 0.48506 0.78153 0.0
C3432 C 0.55716 0.47852 0.79741 0.0
H3433 H 0.57127 0.59579 0.78172 0.0
H3434 H 0.57051 0.56679 0.7878 0.0
C3435 C 0.55652 0.46137 0.80068 0.0
C3436 C 0.55911 0.50398 0.7777 0.0
H3437 H 0.57808 0.54038 0.78668 0.0
C3438 C 0.5482 0.51097 0.76642 0.0
C3439 C 0.56974 0.51551 0.78503 0.0
C3440 C 0.582 0.5099 0.79728 0.0
C3441 C 0.54722 0.52812 0.76283 0.0
C3442 C 0.55835 0.53978 0.76963 0.0
C3443 C 0.56936 0.53258 0.7809 0.0
C3444 C 0.55866 0.55891 0.76573 0.0
C3445 C 0.53331 0.53332 0.75231 0.0
C3446 C 0.55293 0.56606 0.75103 0.0
C3447 C 0.55254 0.58323 0.74805 0.0
C3448 C 0.55858 0.59499 0.75906 0.0
C3449 C 0.56559 0.58794 0.77311 0.0
C3450 C 0.56536 0.57074 0.77647 0.0
H3451 H 0.52324 0.52449 0.75277 0.0
H3452 H 0.52843 0.54521 0.75613 0.0
H3453 H 0.53739 0.53391 0.73952 0.0
H3454 H 0.54894 0.55847 0.74124 0.0
H3455 H 0.54783 0.58726 0.73656 0.0
H3456 H 0.83735 0.30053 0.06341 0.0
H3457 H 0.80821 0.30184 0.05778 0.0
H3458 H 0.81833 0.31069 1.00759 0.0
H3459 H 0.84763 0.30985 1.01332 0.0
H3460 H 0.78595 0.32621 0.04475 0.0
H3461 H 0.78408 0.27417 1.00316 0.0
H3462 H 0.80099 0.27771 1.01647 0.0
H3463 H 0.79866 0.28954 0.99843 0.0
C3464 C 0.83363 0.3028 0.05106 0.0
C3465 C 0.84584 0.30504 0.03901 0.0
C3466 C 0.81647 0.30359 0.04777 0.0
C3467 C 0.80991 0.30621 0.03203 0.0
C3468 C 0.82211 0.30843 1.01992 0.0
H3469 H 0.70691 0.29044 0.99316 0.0
H3470 H 0.73544 0.29162 0.99857 0.0
C3471 C 0.83934 0.30806 1.02329 0.0
C3472 C 0.79082 0.30671 0.02853 0.0
H3473 H 0.75999 0.2882 1.00694 0.0
C3474 C 0.78034 0.31788 0.03636 0.0
C3475 C 0.7825 0.29619 1.01759 0.0
C3476 C 0.79199 0.28361 1.00845 0.0
C3477 C 0.76301 0.31924 0.03342 0.0
C3478 C 0.75428 0.30832 1.02275 0.0
C3479 C 0.76507 0.29696 1.01513 0.0
C3480 C 0.73486 0.30827 1.01901 0.0
C3481 C 0.75471 0.33318 0.04167 0.0
C3482 C 0.72252 0.31711 0.0277 0.0
C3483 C 0.70544 0.31703 1.02364 0.0
C3484 C 0.69861 0.30727 1.01127 0.0
C3485 C 0.71064 0.29817 1.00286 0.0
C3486 C 0.72778 0.29883 1.0063 0.0
H3487 H 0.76341 0.34214 0.04653 0.0
H3488 H 0.74677 0.33968 0.03303 0.0
H3489 H 0.74763 0.32862 0.05211 0.0
H3490 H 0.72549 0.32416 0.03813 0.0
H3491 H 0.69749 0.32472 0.03053 0.0
H3492 H 0.98831 0.44931 0.28247 0.0
H3493 H 0.98745 0.47849 0.28877 0.0
H3494 H 0.9955 0.48939 0.23858 0.0
H3495 H 0.99612 0.46052 0.23233 0.0
H3496 H 1.00556 0.50464 0.28951 0.0
H3497 H 0.9625 0.52283 0.24228 0.0
H3498 H 0.96645 0.50186 0.24664 0.0
H3499 H 0.98002 0.51321 0.23392 0.0
C3500 C 0.9898 0.45777 0.2726 0.0
C3501 C 0.99228 0.45152 0.25666 0.0
C3502 C 0.98934 0.47496 0.27629 0.0
C3503 C 0.99102 0.48743 0.26436 0.0
C3504 C 0.99357 0.48107 0.24847 0.0
H3505 H 0.98766 0.59969 0.26238 0.0
H3506 H 0.9877 0.5705 0.25629 0.0
C3507 C 0.99414 0.46397 0.24481 0.0
C3508 C 0.99057 0.50649 0.26845 0.0
H3509 H 0.97579 0.54409 0.25585 0.0
C3510 C 0.9989 0.51307 0.28201 0.0
C3511 C 0.9822 0.51867 0.25917 0.0
C3512 C 0.97215 0.51383 0.24478 0.0
C3513 C 0.99959 0.5302 0.28603 0.0
C3514 C 0.991 0.54246 0.2769 0.0
C3515 C 0.98257 0.53579 0.26336 0.0
C3516 C 0.99069 0.56166 0.28088 0.0
C3517 C 1.01048 0.53478 0.29987 0.0
C3518 C 0.99179 0.5683 0.29685 0.0
C3519 C 0.99221 0.58541 0.30032 0.0
C3520 C 0.99087 0.59774 0.2883 0.0
C3521 C 0.98888 0.59132 0.27237 0.0
C3522 C 0.98889 0.57407 0.26883 0.0
H3523 H 1.0201 0.52561 0.3018 0.0
H3524 H 1.01642 0.54658 0.2977 0.0
H3525 H 1.00328 0.53538 0.31119 0.0
H3526 H 0.99207 0.56028 0.30713 0.0
H3527 H 0.9934 0.589 0.31286 0.0
H3528 H 0.69774 0.71679 0.52252 0.0
H3529 H 0.72697 0.7156 0.51637 0.0
H3530 H 0.73516 0.75525 0.54881 0.0
H3531 H 0.70623 0.75696 0.55406 0.0
H3532 H 0.75117 0.73546 0.50278 0.0
H3533 H 0.77071 0.72629 0.5658 0.0
H3534 H 0.74983 0.72453 0.55986 0.0
H3535 H 0.75857 0.7441 0.56329 0.0
C3536 C 0.70559 0.7254 0.52839 0.0
C3537 C 0.69859 0.73697 0.53917 0.0
C3538 C 0.72278 0.72468 0.52483 0.0
C3539 C 0.73444 0.73509 0.53218 0.0
C3540 C 0.72739 0.74657 0.54291 0.0
H3541 H 0.84493 0.71594 0.529 0.0
H3542 H 0.81557 0.71552 0.53482 0.0
C3543 C 0.71028 0.74756 0.54606 0.0
C3544 C 0.75345 0.7343 0.52863 0.0
H3545 H 0.79146 0.7323 0.5469 0.0
C3546 C 0.7598 0.73474 0.51261 0.0
C3547 C 0.76574 0.73319 0.54088 0.0
C3548 C 0.76096 0.73184 0.55842 0.0
C3549 C 0.77693 0.73446 0.50871 0.0
C3550 C 0.78929 0.73377 0.52101 0.0
C3551 C 0.78289 0.73296 0.53703 0.0
C3552 C 0.80841 0.73396 0.51759 0.0
C3553 C 0.78141 0.73447 0.49103 0.0
C3554 C 0.81576 0.74446 0.50612 0.0
C3555 C 0.83287 0.7448 0.50299 0.0
C3556 C 0.84447 0.73488 0.51102 0.0
C3557 C 0.83722 0.72421 0.52249 0.0
C3558 C 0.81994 0.72393 0.52581 0.0
H3559 H 0.77156 0.72942 0.48347 0.0
H3560 H 0.78341 0.7471 0.48702 0.0
H3561 H 0.79255 0.72735 0.48876 0.0
H3562 H 0.80828 0.7529 0.49952 0.0
H3563 H 0.83697 0.7531 0.49393 0.0
H3564 H 0.78167 0.5619 0.59604 0.0
H3565 H 0.78761 0.56216 0.56685 0.0
H3566 H 0.7382 0.55024 0.55684 0.0
H3567 H 0.73243 0.54972 0.58605 0.0
H3568 H 0.78591 0.53825 0.54103 0.0
H3569 H 0.74394 0.58718 0.52385 0.0
H3570 H 0.74979 0.58372 0.54463 0.0
H3571 H 0.73501 0.57098 0.53522 0.0
C3572 C 0.77189 0.55951 0.58785 0.0
C3573 C 0.75639 0.5559 0.59443 0.0
C3574 C 0.77539 0.55953 0.57065 0.0
C3575 C 0.76353 0.55639 0.55851 0.0
C3576 C 0.74796 0.55298 0.56508 0.0
H3577 H 0.76148 0.56134 0.44653 0.0
H3578 H 0.75538 0.56154 0.47579 0.0
C3579 C 0.7446 0.55258 0.58227 0.0
C3580 C 0.76742 0.55634 0.53952 0.0
H3581 H 0.75685 0.57351 0.5024 0.0
C3582 C 0.77947 0.54611 0.53274 0.0
C3583 C 0.7593 0.56613 0.52769 0.0
C3584 C 0.74636 0.57775 0.5331 0.0
C3585 C 0.78312 0.54505 0.51555 0.0
C3586 C 0.77538 0.55525 0.50362 0.0
C3587 C 0.76331 0.56553 0.51053 0.0
C3588 C 0.77935 0.55533 0.48447 0.0
C3589 C 0.79484 0.53202 0.51053 0.0
C3590 C 0.79503 0.55232 0.47785 0.0
C3591 C 0.79847 0.55182 0.46073 0.0
C3592 C 0.78674 0.55489 0.44846 0.0
C3593 C 0.77119 0.5587 0.45489 0.0
C3594 C 0.76764 0.55884 0.47215 0.0
H3595 H 0.79499 0.52191 0.51938 0.0
H3596 H 0.79174 0.52695 0.4985 0.0
H3597 H 0.80721 0.5371 0.51017 0.0
H3598 H 0.80511 0.55055 0.48592 0.0
H3599 H 0.81075 0.54917 0.45709 0.0
H3600 H 0.7648 0.53793 0.70337 0.0
H3601 H 0.76306 0.53203 0.73222 0.0
H3602 H 0.71141 0.52781 0.72783 0.0
H3603 H 0.7136 0.5321 0.69871 0.0
H3604 H 0.75814 0.53853 0.75832 0.0
H3605 H 0.70587 0.49738 0.75971 0.0
H3606 H 0.71536 0.5026 0.74089 0.0
H3607 H 0.70081 0.5161 0.75023 0.0
C3608 C 0.75299 0.53552 0.70837 0.0
C3609 C 0.73946 0.53545 0.69775 0.0
C3610 C 0.75189 0.5321 0.72548 0.0
C3611 C 0.73707 0.52872 0.73375 0.0
C3612 C 0.72343 0.52917 0.72303 0.0
H3613 H 0.71304 0.51901 0.84333 0.0
H3614 H 0.71237 0.52422 0.81383 0.0
C3615 C 0.72462 0.53202 0.70576 0.0
C3616 C 0.73631 0.52539 0.75302 0.0
H3617 H 0.71471 0.50725 0.78471 0.0
C3618 C 0.74856 0.5314 0.76361 0.0
C3619 C 0.7241 0.5162 0.76156 0.0
C3620 C 0.71089 0.50756 0.75254 0.0
C3621 C 0.74901 0.52883 0.78098 0.0
C3622 C 0.73671 0.51999 0.78942 0.0
C3623 C 0.7243 0.51414 0.77907 0.0
C3624 C 0.73682 0.5165 0.80847 0.0
C3625 C 0.76286 0.53612 0.79024 0.0
C3626 C 0.75052 0.51006 0.81666 0.0
C3627 C 0.75088 0.50701 0.83381 0.0
C3628 C 0.73761 0.51002 0.84443 0.0
C3629 C 0.72378 0.51641 0.83633 0.0
C3630 C 0.72337 0.51939 0.819 0.0
H3631 H 0.7683 0.54645 0.78362 0.0
H3632 H 0.75898 0.54037 0.80238 0.0
H3633 H 0.77242 0.52684 0.79183 0.0
H3634 H 0.76118 0.50707 0.80971 0.0
H3635 H 0.76195 0.50223 0.8388 0.0
H3636 H 0.80962 0.49655 0.0849 0.0
H3637 H 0.80384 0.49664 0.05578 0.0
H3638 H 0.75818 0.47411 0.06502 0.0
H3639 H 0.76445 0.47353 0.09423 0.0
H3640 H 0.79687 0.47217 0.03109 0.0
H3641 H 0.74319 0.51165 0.03505 0.0
H3642 H 0.75743 0.50988 0.05151 0.0
H3643 H 0.74303 0.49412 0.04791 0.0
C3644 C 0.79812 0.49184 0.08106 0.0
C3645 C 0.78728 0.48575 0.09307 0.0
C3646 C 0.79481 0.49173 0.06387 0.0
C3647 C 0.78015 0.48582 0.05712 0.0
C3648 C 0.76944 0.47931 0.06903 0.0
H3649 H 0.73341 0.49482 0.95652 0.0
H3650 H 0.74005 0.49249 0.98521 0.0
C3651 C 0.77302 0.47903 0.08623 0.0
C3652 C 0.77632 0.4863 0.03812 0.0
H3653 H 0.74959 0.50149 1.00937 0.0
C3654 C 0.78644 0.47861 0.02649 0.0
C3655 C 0.76272 0.49438 0.03106 0.0
C3656 C 0.75096 0.50311 0.04191 0.0
C3657 C 0.78329 0.47828 1.00914 0.0
C3658 C 0.76991 0.48691 1.00182 0.0
C3659 C 0.75992 0.49473 1.01367 0.0
C3660 C 0.76577 0.48785 0.98266 0.0
C3661 C 0.79425 0.4677 0.99913 0.0
C3662 C 0.77727 0.48614 0.9697 0.0
C3663 C 0.77315 0.48686 0.95265 0.0
C3664 C 0.75728 0.49018 0.9469 0.0
C3665 C 0.74585 0.49232 0.95967 0.0
C3666 C 0.74984 0.49103 0.97668 0.0
H3667 H 0.80012 0.4582 1.0066 0.0
H3668 H 0.78751 0.46158 0.9893 0.0
H3669 H 0.80405 0.47517 0.99388 0.0
H3670 H 0.78989 0.48465 0.97247 0.0
H3671 H 0.78273 0.48527 0.94386 0.0
H3672 H 0.82596 0.55403 0.33755 0.0
H3673 H 0.82571 0.5483 0.30826 0.0
H3674 H 0.78901 0.51249 0.31622 0.0
H3675 H 0.788 0.51979 0.34472 0.0
H3676 H 0.83132 0.53307 0.28456 0.0
H3677 H 0.76651 0.52052 0.27858 0.0
H3678 H 0.77451 0.52873 0.29698 0.0
H3679 H 0.7753 0.50717 0.29309 0.0
C3680 C 0.81768 0.54495 0.33315 0.0
C3681 C 0.80718 0.53731 0.34455 0.0
C3682 C 0.81749 0.54153 0.31584 0.0
C3683 C 0.80688 0.53006 0.3083 0.0
C3684 C 0.79687 0.5221 0.32003 0.0
H3685 H 0.79247 0.48661 0.20644 0.0
H3686 H 0.79351 0.4933 0.23526 0.0
C3687 C 0.79666 0.52594 0.33714 0.0
C3688 C 0.80656 0.52646 0.28892 0.0
H3689 H 0.78267 0.51295 0.25657 0.0
C3690 C 0.82042 0.52881 0.27878 0.0
C3691 C 0.79274 0.52089 0.27974 0.0
C3692 C 0.7764 0.51934 0.28758 0.0
C3693 C 0.82098 0.52566 0.26136 0.0
C3694 C 0.80731 0.51966 0.2524 0.0
C3695 C 0.7935 0.5173 0.26246 0.0
C3696 C 0.80691 0.51561 0.23321 0.0
C3697 C 0.83674 0.52861 0.25279 0.0
C3698 C 0.81382 0.52543 0.22064 0.0
C3699 C 0.81292 0.52158 0.20343 0.0
C3700 C 0.80497 0.50758 0.19718 0.0
C3701 C 0.79832 0.49775 0.20976 0.0
C3702 C 0.79906 0.50164 0.22685 0.0
H3703 H 0.84711 0.52835 0.2613 0.0
H3704 H 0.8389 0.51953 0.24314 0.0
H3705 H 0.83635 0.54078 0.24719 0.0
H3706 H 0.8198 0.53652 0.22399 0.0
H3707 H 0.81847 0.52984 0.19494 0.0
H3708 H 0.55326 0.7079 0.76274 0.0
H3709 H 0.54629 0.73644 0.76125 0.0
H3710 H 0.5154 0.72643 0.72067 0.0
H3711 H 0.5214 0.69762 0.72325 0.0
H3712 H 0.54808 0.76223 0.75018 0.0
H3713 H 0.4846 0.75745 0.73093 0.0
H3714 H 0.49562 0.73995 0.73752 0.0
H3715 H 0.49777 0.7474 0.71701 0.0
C3716 C 0.54465 0.71144 0.75364 0.0
C3717 C 0.53786 0.69922 0.74351 0.0
C3718 C 0.54059 0.72846 0.75263 0.0
C3719 C 0.5295 0.73516 0.74115 0.0
C3720 C 0.52317 0.72292 0.73053 0.0
H3721 H 0.51242 0.84386 0.71511 0.0
H3722 H 0.51829 0.81452 0.71444 0.0
C3723 C 0.52694 0.70578 0.73183 0.0
C3724 C 0.52528 0.75436 0.74035 0.0
H3725 H 0.49602 0.78336 0.72992 0.0
C3726 C 0.53649 0.76638 0.7458 0.0
C3727 C 0.51027 0.76148 0.7348 0.0
C3728 C 0.49631 0.75095 0.72988 0.0
C3729 C 0.53347 0.78375 0.74575 0.0
C3730 C 0.51873 0.79071 0.73986 0.0
C3731 C 0.50751 0.77891 0.73434 0.0
C3732 C 0.51479 0.80975 0.74 0.0
C3733 C 0.54638 0.79485 0.75205 0.0
C3734 C 0.51068 0.81834 0.75438 0.0
C3735 C 0.50701 0.83545 0.75472 0.0
C3736 C 0.50728 0.84569 0.74078 0.0
C3737 C 0.51173 0.83719 0.72636 0.0
C3738 C 0.51517 0.81992 0.72596 0.0
H3739 H 0.55776 0.78832 0.75488 0.0
H3740 H 0.54895 0.80445 0.74302 0.0
H3741 H 0.54198 0.80088 0.76323 0.0
H3742 H 0.51018 0.81173 0.76568 0.0
H3743 H 0.50411 0.84077 0.76629 0.0
H3744 H 0.07246 0.08078 0.31692 0.0
H3745 H 0.09821 0.06817 0.3237 0.0
H3746 H 0.1234 0.11022 0.30631 0.0
H3747 H 0.09838 0.124 0.30246 0.0
H3748 H 0.125 0.05915 0.30924 0.0
H3749 H 0.1403 0.10964 0.35046 0.0
H3750 H 0.12077 0.10809 0.34109 0.0
H3751 H 0.1376 0.11663 0.33017 0.0
C3752 C 0.08339 0.08763 0.315 0.0
C3753 C 0.08284 0.10369 0.30934 0.0
C3754 C 0.09818 0.08021 0.31856 0.0
C3755 C 0.11273 0.08849 0.31604 0.0
C3756 C 0.11232 0.10383 0.309 0.0
H3757 H 0.21334 0.0639 0.33013 0.0
H3758 H 0.18706 0.06778 0.31707 0.0
C3759 C 0.09768 0.11158 0.30634 0.0
C3760 C 0.12829 0.08175 0.3218 0.0
H3761 H 0.16125 0.09101 0.3447 0.0
C3762 C 0.1329 0.06609 0.31704 0.0
C3763 C 0.13853 0.09074 0.33218 0.0
C3764 C 0.13396 0.10712 0.33889 0.0
C3765 C 0.14759 0.05932 0.32223 0.0
C3766 C 0.15787 0.06855 0.33216 0.0
C3767 C 0.1533 0.08411 0.33691 0.0
C3768 C 0.17323 0.06233 0.33859 0.0
C3769 C 0.152 0.04232 0.31744 0.0
C3770 C 0.17401 0.05777 0.35489 0.0
C3771 C 0.18892 0.05595 0.36248 0.0
C3772 C 0.20335 0.05867 0.35388 0.0
C3773 C 0.20248 0.06216 0.33721 0.0
C3774 C 0.1875 0.06409 0.32965 0.0
H3775 H 0.14264 0.03666 0.30968 0.0
H3776 H 0.16368 0.04234 0.31083 0.0
H3777 H 0.15363 0.03485 0.32848 0.0
H3778 H 0.16306 0.0566 0.36198 0.0
H3779 H 0.18904 0.05334 0.37532 0.0
H3780 H 0.21986 0.82591 0.56033 0.0
H3781 H 0.23105 0.85238 0.56703 0.0
H3782 H 0.18439 0.87425 0.55958 0.0
H3783 H 0.17269 0.84805 0.55479 0.0
H3784 H 0.23335 0.88227 0.55221 0.0
H3785 H 0.19323 0.88574 0.60592 0.0
H3786 H 0.19547 0.86751 0.59421 0.0
H3787 H 0.18229 0.88344 0.58737 0.0
C3788 C 0.21186 0.83627 0.56039 0.0
C3789 C 0.19522 0.83451 0.5573 0.0
C3790 C 0.21838 0.85146 0.56394 0.0
C3791 C 0.20845 0.86521 0.56419 0.0
C3792 C 0.19218 0.86373 0.55988 0.0
H3793 H 0.23173 0.96662 0.5783 0.0
H3794 H 0.22664 0.94025 0.56595 0.0
C3795 C 0.18557 0.84859 0.55685 0.0
C3796 C 0.21462 0.88086 0.57027 0.0
H3797 H 0.20771 0.9094 0.59924 0.0
C3798 C 0.22781 0.8882 0.56252 0.0
C3799 C 0.20751 0.88846 0.58389 0.0
C3800 C 0.19395 0.88081 0.59343 0.0
C3801 C 0.23389 0.90313 0.5679 0.0
C3802 C 0.22641 0.91088 0.58119 0.0
C3803 C 0.21336 0.90344 0.58898 0.0
C3804 C 0.2319 0.92661 0.58766 0.0
C3805 C 0.24841 0.91034 0.55961 0.0
C3806 C 0.2365 0.92767 0.60393 0.0
C3807 C 0.23884 0.94267 0.61117 0.0
C3808 C 0.23686 0.95705 0.60222 0.0
C3809 C 0.23303 0.95588 0.58566 0.0
C3810 C 0.23044 0.94079 0.57847 0.0
H3811 H 0.25464 0.90144 0.55169 0.0
H3812 H 0.24451 0.92069 0.55202 0.0
H3813 H 0.25714 0.91495 0.56869 0.0
H3814 H 0.23759 0.91686 0.61126 0.0
H3815 H 0.24148 0.94289 0.62399 0.0
H3816 H 0.42222 0.92562 0.81608 0.0
H3817 H 0.41429 0.9466 0.83482 0.0
H3818 H 0.42895 0.98304 0.8003 0.0
H3819 H 0.43574 0.96154 0.7808 0.0
H3820 H 0.42076 0.97312 0.85018 0.0
H3821 H 0.38175 0.9885 0.79715 0.0
H3822 H 0.39561 0.97187 0.79594 0.0
H3823 H 0.403 0.99234 0.7959 0.0
C3824 C 0.42409 0.93812 0.81268 0.0
C3825 C 0.42887 0.94221 0.797 0.0
C3826 C 0.41978 0.95017 0.82345 0.0
C3827 C 0.42034 0.96645 0.81867 0.0
C3828 C 0.42773 0.97054 0.8039 0.0
H3829 H 0.34485 0.99604 0.88581 0.0
H3830 H 0.37131 0.99748 0.87367 0.0
C3831 C 0.43159 0.95836 0.79282 0.0
C3832 C 0.40943 0.97769 0.82723 0.0
H3833 H 0.37081 0.99105 0.82255 0.0
C3834 C 0.4099 0.97743 0.84422 0.0
C3835 C 0.39543 0.98361 0.81933 0.0
C3836 C 0.3938 0.98413 0.8011 0.0
C3837 C 0.39578 0.97957 0.85335 0.0
C3838 C 0.3813 0.98373 0.8452 0.0
C3839 C 0.38177 0.98714 0.82859 0.0
C3840 C 0.36518 0.98284 0.85291 0.0
C3841 C 0.39634 0.97561 0.8712 0.0
C3842 C 0.35262 0.97439 0.84515 0.0
C3843 C 0.33696 0.97463 0.85143 0.0
C3844 C 0.33372 0.98294 0.86583 0.0
C3845 C 0.34665 0.99021 0.87422 0.0
C3846 C 0.36202 0.99071 0.86752 0.0
H3847 H 0.40725 0.96846 0.87441 0.0
H3848 H 0.39677 0.98699 0.87826 0.0
H3849 H 0.38556 0.96863 0.87499 0.0
H3850 H 0.35482 0.96796 0.83394 0.0
H3851 H 0.32737 0.96881 0.84472 0.0
H3852 H 0.31508 0.07652 0.08083 0.0
H3853 H 0.32056 0.10315 0.06936 0.0
H3854 H 0.30735 0.12543 0.11466 0.0
H3855 H 0.30342 0.09907 0.12672 0.0
H3856 H 0.30357 0.13145 0.06477 0.0
H3857 H 0.35313 0.14048 0.10903 0.0
H3858 H 0.34314 0.12133 0.10662 0.0
H3859 H 0.3339 0.13715 0.1184 0.0
C3860 C 0.3136 0.08703 0.08848 0.0
C3861 C 0.30914 0.08542 0.10486 0.0
C3862 C 0.31646 0.10229 0.08179 0.0
C3863 C 0.31471 0.11624 0.09127 0.0
C3864 C 0.30916 0.11479 0.10724 0.0
H3865 H 0.32589 0.21709 0.06252 0.0
H3866 H 0.31405 0.19068 0.06851 0.0
C3867 C 0.3067 0.09959 0.11405 0.0
C3868 C 0.32 0.13213 0.08497 0.0
H3869 H 0.34658 0.16263 0.09234 0.0
C3870 C 0.31297 0.13831 0.07077 0.0
C3871 C 0.33244 0.14092 0.0927 0.0
C3872 C 0.34121 0.13458 0.10743 0.0
C3873 C 0.31801 0.15314 0.06417 0.0
C3874 C 0.33021 0.162 0.07214 0.0
C3875 C 0.33717 0.15581 0.08631 0.0
C3876 C 0.33651 0.17753 0.06597 0.0
C3877 C 0.31064 0.15903 0.04856 0.0
C3878 C 0.35301 0.17886 0.06253 0.0
C3879 C 0.35989 0.19391 0.05966 0.0
C3880 C 0.35037 0.20806 0.0599 0.0
C3881 C 0.33364 0.20655 0.06253 0.0
C3882 C 0.32679 0.19142 0.06565 0.0
H3883 H 0.30356 0.14944 0.04242 0.0
H3884 H 0.30244 0.16933 0.05114 0.0
H3885 H 0.32018 0.16337 0.04018 0.0
H3886 H 0.36074 0.16828 0.0628 0.0
H3887 H 0.37284 0.1944 0.058 0.0
H3888 H 0.09521 0.91102 0.24367 0.0
H3889 H 0.12203 0.92198 0.24525 0.0
H3890 H 0.10435 0.96753 0.22688 0.0
H3891 H 0.07676 0.9575 0.22819 0.0
H3892 H 0.14172 0.92973 0.22661 0.0
H3893 H 0.1317 0.98599 0.25975 0.0
H3894 H 0.11606 0.97092 0.25845 0.0
H3895 H 0.11787 0.98654 0.24321 0.0
C3896 C 0.09678 0.92364 0.24062 0.0
C3897 C 0.08355 0.9336 0.23652 0.0
C3898 C 0.11232 0.92982 0.24132 0.0
C3899 C 0.11527 0.94584 0.23689 0.0
C3900 C 0.10233 0.95543 0.23137 0.0
H3901 H 0.17113 0.97983 0.17422 0.0
H3902 H 0.16321 0.9603 0.19442 0.0
C3903 C 0.08655 0.94951 0.23157 0.0
C3904 C 0.13204 0.952 0.23649 0.0
H3905 H 0.1524 0.98743 0.23784 0.0
C3906 C 0.14417 0.94221 0.22965 0.0
C3907 C 0.13593 0.96791 0.24131 0.0
C3908 C 0.12469 0.97828 0.2513 0.0
C3909 C 0.15909 0.94871 0.22522 0.0
C3910 C 0.16142 0.96552 0.2267 0.0
C3911 C 0.15047 0.97462 0.23601 0.0
C3912 C 0.17153 0.97443 0.215 0.0
C3913 C 0.17162 0.93774 0.21778 0.0
C3914 C 0.17927 0.98881 0.21959 0.0
C3915 C 0.18308 1.00037 0.20792 0.0
C3916 C 0.17962 0.99733 0.19163 0.0
C3917 C 0.17379 0.98227 0.18683 0.0
C3918 C 0.16958 0.97096 0.19844 0.0
H3919 H 0.17287 0.92661 0.22519 0.0
H3920 H 0.16759 0.9339 0.20556 0.0
H3921 H 0.1836 0.94366 0.21681 0.0
H3922 H 0.18096 0.99173 0.23226 0.0
H3923 H 0.18784 1.01197 0.21165 0.0
H3924 H 0.26202 0.92668 0.45953 0.0
H3925 H 0.27918 0.91802 0.48185 0.0
H3926 H 0.32079 0.93741 0.4574 0.0
H3927 H 0.304 0.9465 0.43557 0.0
H3928 H 0.29505 0.89855 0.4556 0.0
H3929 H 0.33962 0.9214 0.50077 0.0
H3930 H 0.32009 0.93094 0.49829 0.0
H3931 H 0.33534 0.93336 0.48308 0.0
C3932 C 0.27466 0.93001 0.45948 0.0
C3933 C 0.28191 0.93621 0.44549 0.0
C3934 C 0.28442 0.92539 0.47237 0.0
C3935 C 0.30124 0.9261 0.47048 0.0
C3936 C 0.30782 0.93632 0.45877 0.0
H3937 H 0.37256 0.85865 0.48233 0.0
H3938 H 0.35179 0.86676 0.4633 0.0
C3939 C 0.29812 0.94125 0.44604 0.0
C3940 C 0.31004 0.91102 0.47308 0.0
H3941 H 0.34183 0.8942 0.49256 0.0
C3942 C 0.3051 0.89749 0.46395 0.0
C3943 C 0.32381 0.91016 0.48291 0.0
C3944 C 0.33011 0.92469 0.49188 0.0
C3945 C 0.31289 0.88264 0.46551 0.0
C3946 C 0.32576 0.88152 0.47635 0.0
C3947 C 0.33155 0.89529 0.48448 0.0
C3948 C 0.33266 0.86609 0.48107 0.0
C3949 C 0.30731 0.86821 0.45593 0.0
C3950 C 0.32804 0.8607 0.49648 0.0
C3951 C 0.33995 0.85681 0.50764 0.0
C3952 C 0.35612 0.85731 0.5028 0.0
C3953 C 0.36009 0.85866 0.48632 0.0
C3954 C 0.34821 0.86291 0.47532 0.0
H3955 H 0.29821 0.87153 0.44663 0.0
H3956 H 0.3178 0.86237 0.44988 0.0
H3957 H 0.30195 0.85919 0.46429 0.0
H3958 H 0.31587 0.86278 0.50085 0.0
H3959 H 0.33672 0.85514 0.52025 0.0
H3960 H 0.34968 0.04743 0.67609 0.0
H3961 H 0.36669 0.0512 0.69895 0.0
H3962 H 0.38187 0.09743 0.68043 0.0
H3963 H 0.36457 0.09377 0.65666 0.0
H3964 H 0.40622 0.07442 0.68203 0.0
H3965 H 0.37224 0.07564 0.73999 0.0
H3966 H 0.36712 0.05882 0.72738 0.0
H3967 H 0.36251 0.07903 0.72077 0.0
C3968 C 0.35579 0.05894 0.67698 0.0
C3969 C 0.35597 0.07023 0.6641 0.0
C3970 C 0.36564 0.06099 0.69031 0.0
C3971 C 0.37563 0.07445 0.69124 0.0
C3972 C 0.37427 0.08683 0.67968 0.0
H3973 H 0.43743 0.12027 0.73736 0.0
H3974 H 0.43225 0.10139 0.71622 0.0
C3975 C 0.36442 0.08475 0.66614 0.0
C3976 C 0.38955 0.07383 0.70214 0.0
H3977 H 0.40026 0.0713 0.74161 0.0
C3978 C 0.40497 0.07381 0.6951 0.0
C3979 C 0.38781 0.07196 0.71901 0.0
C3980 C 0.37152 0.07147 0.72723 0.0
C3981 C 0.41884 0.07342 0.70467 0.0
C3982 C 0.41713 0.07331 0.72167 0.0
C3983 C 0.40169 0.07143 0.72855 0.0
C3984 C 0.42938 0.08072 0.73217 0.0
C3985 C 0.43509 0.07423 0.69646 0.0
C3986 C 0.43118 0.07522 0.74819 0.0
C3987 C 0.43364 0.08635 0.76061 0.0
C3988 C 0.435 0.10278 0.75684 0.0
C3989 C 0.4363 0.10764 0.74062 0.0
C3990 C 0.43364 0.09665 0.72835 0.0
H3991 H 0.43547 0.06573 0.68607 0.0
H3992 H 0.43692 0.08654 0.69146 0.0
H3993 H 0.44514 0.07132 0.70486 0.0
H3994 H 0.4282 0.06287 0.75131 0.0
H3995 H 0.43317 0.08237 0.77309 0.0
H3996 H 0.21316 0.21824 0.98469 0.0
H3997 H 0.22301 0.1906 0.98139 0.0
H3998 H 0.17985 0.17249 1.00399 0.0
H3999 H 0.1678 0.19831 1.00175 0.0
H4000 H 0.22982 0.16345 0.99597 0.0
H4001 H 0.1721 0.15355 0.96251 0.0
H4002 H 0.17735 0.173 0.97029 0.0
H4003 H 0.16939 0.15755 0.98355 0.0
C4004 C 0.20545 0.2084 0.98841 0.0
C4005 C 0.18953 0.21118 0.99376 0.0
C4006 C 0.21136 0.19258 0.98704 0.0
C4007 C 0.20183 0.17941 0.99198 0.0
C4008 C 0.18712 0.18236 0.99951 0.0
H4009 H 0.21309 0.09642 0.92944 0.0
H4010 H 0.20851 0.10594 0.9573 0.0
C4011 C 0.18046 0.19766 0.99894 0.0
C4012 C 0.20561 0.16291 0.98636 0.0
H4013 H 0.19139 0.13401 0.96075 0.0
C4014 C 0.22134 0.1569 0.98844 0.0
C4015 C 0.19435 0.15401 0.97689 0.0
C4016 C 0.17743 0.1599 0.97308 0.0
C4017 C 0.22668 0.14348 0.97961 0.0
C4018 C 0.21589 0.13591 0.96884 0.0
C4019 C 0.19959 0.14012 0.96895 0.0
C4020 C 0.22155 0.1283 0.95387 0.0
C4021 C 0.24412 0.1384 0.98069 0.0
C4022 C 0.22983 0.13804 0.94272 0.0
C4023 C 0.2317 0.13302 0.92679 0.0
C4024 C 0.22537 0.11819 0.92182 0.0
C4025 C 0.21739 0.10824 0.933 0.0
C4026 C 0.2153 0.11337 0.94893 0.0
H4027 H 0.24876 0.14009 0.99319 0.0
H4028 H 0.24576 0.12558 0.97706 0.0
H4029 H 0.25145 0.1461 0.9725 0.0
H4030 H 0.23428 0.14984 0.94618 0.0
H4031 H 0.23856 0.14046 0.91847 0.0
H4032 H 0.11171 0.29593 0.12324 0.0
H4033 H 0.08788 0.30554 0.13692 0.0
H4034 H 0.09842 0.35421 0.1216 0.0
H4035 H 0.12246 0.34448 0.10715 0.0
H4036 H 0.10371 0.34697 0.15381 0.0
H4037 H 0.04279 0.32595 0.1361 0.0
H4038 H 0.05777 0.31027 0.13523 0.0
H4039 H 0.05938 0.32736 0.12189 0.0
C4040 C 0.10862 0.3086 0.12204 0.0
C4041 C 0.11904 0.31957 0.11426 0.0
C4042 C 0.09478 0.31401 0.1297 0.0
C4043 C 0.0913 0.33051 0.13006 0.0
C4044 C 0.10086 0.34136 0.12115 0.0
H4045 H 0.05733 0.3823 0.20945 0.0
H4046 H 0.06066 0.3722 0.18247 0.0
C4047 C 0.11474 0.3359 0.1133 0.0
C4048 C 0.08207 0.3364 0.14395 0.0
H4049 H 0.04675 0.33189 0.16472 0.0
C4050 C 0.09115 0.34397 0.15603 0.0
C4051 C 0.06592 0.33185 0.14695 0.0
C4052 C 0.05587 0.32351 0.13428 0.0
C4053 C 0.08469 0.34676 0.17127 0.0
C4054 C 0.06853 0.34235 0.17432 0.0
C4055 C 0.05921 0.33503 0.16224 0.0
C4056 C 0.06112 0.34713 0.18961 0.0
C4057 C 0.09529 0.35435 0.18406 0.0
C4058 C 0.05968 0.33617 0.20248 0.0
C4059 C 0.05677 0.3419 0.21816 0.0
C4060 C 0.05572 0.35859 0.22102 0.0
C4061 C 0.0573 0.36933 0.20785 0.0
C4062 C 0.05923 0.36362 0.19229 0.0
H4063 H 0.10832 0.35323 0.18104 0.0
H4064 H 0.09238 0.3674 0.18501 0.0
H4065 H 0.09319 0.34873 0.19608 0.0
H4066 H 0.06147 0.32336 0.20049 0.0
H4067 H 0.05548 0.33337 0.22799 0.0
H4068 H 0.55767 0.21373 0.8283 0.0
H4069 H 0.56197 0.22166 0.85661 0.0
H4070 H 0.55121 0.17313 0.87202 0.0
H4071 H 0.55125 0.16429 0.84464 0.0
H4072 H 0.5469 0.22159 0.88596 0.0
H4073 H 0.59604 0.17553 0.88579 0.0
H4074 H 0.58515 0.18066 0.86776 0.0
H4075 H 0.57654 0.16699 0.88244 0.0
C4076 C 0.55674 0.20466 0.83768 0.0
C4077 C 0.55398 0.18835 0.83382 0.0
C4078 C 0.55868 0.20931 0.85387 0.0
C4079 C 0.55718 0.19782 0.86632 0.0
C4080 C 0.55281 0.18206 0.86257 0.0
H4081 H 0.6195 0.20888 0.94787 0.0
H4082 H 0.59264 0.2001 0.93876 0.0
C4083 C 0.55243 0.17713 0.84663 0.0
C4084 C 0.56299 0.20131 0.88274 0.0
H4085 H 0.59251 0.19026 0.90904 0.0
C4086 C 0.55677 0.21468 0.89113 0.0
C4087 C 0.57565 0.19201 0.88962 0.0
C4088 C 0.58382 0.17811 0.88088 0.0
C4089 C 0.56393 0.21985 0.90557 0.0
C4090 C 0.57742 0.2113 0.9116 0.0
C4091 C 0.58213 0.19678 0.90436 0.0
C4092 C 0.59002 0.21929 0.9211 0.0
C4093 C 0.55779 0.23503 0.91358 0.0
C4094 C 0.59728 0.23294 0.91421 0.0
C4095 C 0.61258 0.23756 0.91903 0.0
C4096 C 0.62087 0.22864 0.93081 0.0
C4097 C 0.6134 0.2155 0.93835 0.0
C4098 C 0.59796 0.21086 0.93355 0.0
H4099 H 0.5444 0.2355 0.91311 0.0
H4100 H 0.56176 0.23588 0.92639 0.0
H4101 H 0.56238 0.2457 0.90687 0.0
H4102 H 0.5917 0.2393 0.9042 0.0
H4103 H 0.6181 0.248 0.91336 0.0
H4104 H 0.02912 0.83449 0.36383 0.0
H4105 H 1.01059 0.81415 0.37422 0.0
H4106 H 0.97052 0.84633 0.36533 0.0
H4107 H 0.98857 0.86578 0.35375 0.0
H4108 H 1.00411 0.83383 0.39966 0.0
H4109 H 0.94646 0.80747 0.37819 0.0
H4110 H 0.9624 0.81294 0.3643 0.0
H4111 H 0.94879 0.82807 0.37207 0.0
C4112 C 1.01623 0.83656 0.3629 0.0
C4113 C 1.0102 0.85185 0.35898 0.0
C4114 C 1.00561 0.82492 0.36868 0.0
C4115 C 0.98944 0.82931 0.37153 0.0
C4116 C 0.98302 0.84282 0.36364 0.0
H4117 H 0.92722 0.8114 0.4466 0.0
H4118 H 0.94814 0.83065 0.43993 0.0
C4119 C 0.99349 0.85413 0.35719 0.0
C4120 C 0.98256 0.82537 0.38739 0.0
H4121 H 0.94861 0.81301 0.40661 0.0
C4122 C 0.99206 0.82893 0.40112 0.0
C4123 C 0.96649 0.82023 0.38933 0.0
C4124 C 0.95552 0.81688 0.37515 0.0
C4125 C 0.98631 0.82621 0.41673 0.0
C4126 C 0.97071 0.8201 0.41856 0.0
C4127 C 0.96069 0.8178 0.40499 0.0
C4128 C 0.96562 0.81236 0.43353 0.0
C4129 C 0.99698 0.82928 0.43116 0.0
C4130 C 0.96966 0.79592 0.43457 0.0
C4131 C 0.95753 0.78478 0.43763 0.0
C4132 C 0.94189 0.79037 0.44072 0.0
C4133 C 0.9392 0.80686 0.44385 0.0
C4134 C 0.95124 0.81793 0.44041 0.0
H4135 H 1.00738 0.83715 0.42805 0.0
H4136 H 0.98993 0.83499 0.44109 0.0
H4137 H 1.00169 0.81758 0.43573 0.0
H4138 H 0.981 0.79155 0.42965 0.0
H4139 H 0.95987 0.77204 0.43574 0.0
H4140 H 0.96047 0.22188 0.08454 0.0
H4141 H 0.97389 0.22319 0.11055 0.0
H4142 H 0.9407 0.26012 0.12627 0.0
H4143 H 0.92474 0.25559 0.10297 0.0
H4144 H 0.98786 0.24124 0.13271 0.0
H4145 H 0.92578 0.22663 0.15537 0.0
H4146 H 0.92964 0.22839 0.1341 0.0
H4147 H 0.92874 0.24618 0.14673 0.0
C4148 C 0.95554 0.2299 0.09361 0.0
C4149 C 0.94088 0.2382 0.09122 0.0
C4150 C 0.96368 0.2311 0.10836 0.0
C4151 C 0.95781 0.2413 0.12065 0.0
C4152 C 0.945 0.25164 0.11726 0.0
H4153 H 0.96943 0.1824 0.20569 0.0
H4154 H 0.96748 0.21001 0.195 0.0
C4155 C 0.93603 0.24932 0.10331 0.0
C4156 C 0.96247 0.23808 0.13758 0.0
H4157 H 0.94727 0.2178 0.17004 0.0
C4158 C 0.97898 0.23655 0.14113 0.0
C4159 C 0.95083 0.23247 0.14895 0.0
C4160 C 0.93279 0.23342 0.14614 0.0
C4161 C 0.98408 0.22697 0.15411 0.0
C4162 C 0.97233 0.21923 0.16371 0.0
C4163 C 0.95611 0.22355 0.16225 0.0
C4164 C 0.9754 0.20337 0.17094 0.0
C4165 C 1.00183 0.22367 0.15632 0.0
C4166 C 0.97954 0.19053 0.16063 0.0
C4167 C 0.98009 0.17481 0.16651 0.0
C4168 C 0.97648 0.17175 0.18277 0.0
C4169 C 0.9718 0.18453 0.19297 0.0
C4170 C 0.97118 0.20027 0.18705 0.0
H4171 H 1.00907 0.23449 0.1531 0.0
H4172 H 1.00459 0.22007 0.16897 0.0
H4173 H 1.00555 0.21372 0.14811 0.0
H4174 H 0.98219 0.19266 0.14795 0.0
H4175 H 0.98422 0.1652 0.1586 0.0
H4176 H 0.52138 0.71312 0.68174 0.0
H4177 H 0.50283 0.734 0.67227 0.0
H4178 H 0.46248 0.70277 0.68218 0.0
H4179 H 0.48084 0.68196 0.69173 0.0
H4180 H 0.48804 0.70828 0.64755 0.0
H4181 H 0.44514 0.75328 0.67365 0.0
H4182 H 0.46477 0.74985 0.68267 0.0
H4183 H 0.44955 0.73462 0.68412 0.0
C4184 C 0.50849 0.71111 0.68276 0.0
C4185 C 0.50249 0.69581 0.68675 0.0
C4186 C 0.49788 0.72316 0.67767 0.0
C4187 C 0.48138 0.71968 0.67612 0.0
C4188 C 0.47519 0.70565 0.68328 0.0
H4189 H 0.41755 0.72983 0.59482 0.0
H4190 H 0.42826 0.72819 0.62235 0.0
C4191 C 0.48576 0.69364 0.68851 0.0
C4192 C 0.4735 0.72508 0.66119 0.0
H4193 H 0.44418 0.7491 0.64508 0.0
C4194 C 0.47859 0.71738 0.64697 0.0
C4195 C 0.46079 0.73637 0.66076 0.0
C4196 C 0.45463 0.74409 0.67608 0.0
C4197 C 0.47145 0.7208 0.63215 0.0
C4198 C 0.45931 0.73277 0.63142 0.0
C4199 C 0.45384 0.74026 0.64571 0.0
C4200 C 0.45198 0.73686 0.61576 0.0
C4201 C 0.47668 0.71116 0.61748 0.0
C4202 C 0.46178 0.74245 0.60307 0.0
C4203 C 0.45591 0.7428 0.58729 0.0
C4204 C 0.43998 0.7382 0.58407 0.0
C4205 C 0.42995 0.73334 0.59696 0.0
C4206 C 0.43593 0.73265 0.6127 0.0
H4207 H 0.48272 0.69968 0.62096 0.0
H4208 H 0.46622 0.70822 0.60963 0.0
H4209 H 0.48541 0.71836 0.6103 0.0
H4210 H 0.4742 0.74585 0.6053 0.0
H4211 H 0.46376 0.74681 0.57763 0.0
H4212 H 0.08316 0.76982 0.43224 0.0
H4213 H 0.06208 0.75094 0.42387 0.0
H4214 H 0.09652 0.71176 0.42617 0.0
H4215 H 0.11717 0.73034 0.43508 0.0
H4216 H 0.07155 0.74204 0.39524 0.0
H4217 H 0.0559 0.68633 0.42787 0.0
H4218 H 0.06322 0.70408 0.43827 0.0
H4219 H 0.07717 0.68966 0.42967 0.0
C4220 C 0.08589 0.75702 0.43171 0.0
C4221 C 0.10176 0.75149 0.43371 0.0
C4222 C 0.07384 0.74622 0.42719 0.0
C4223 C 0.0778 0.72999 0.42409 0.0
C4224 C 0.09306 0.72414 0.4286 0.0
H4225 H 0.08617 0.68021 0.33767 0.0
H4226 H 0.0877 0.69077 0.36551 0.0
C4227 C 0.10499 0.73486 0.43345 0.0
C4228 C 0.06927 0.72137 0.41107 0.0
H4229 H 0.06045 0.68328 0.39809 0.0
C4230 C 0.0685 0.72933 0.39607 0.0
C4231 C 0.06558 0.70473 0.41201 0.0
C4232 C 0.06538 0.69581 0.42791 0.0
C4233 C 0.06552 0.72088 0.38183 0.0
C4234 C 0.06318 0.70407 0.38264 0.0
C4235 C 0.06263 0.69618 0.39765 0.0
C4236 C 0.06195 0.69479 0.36766 0.0
C4237 C 0.06589 0.72976 0.36584 0.0
C4238 C 0.04703 0.69375 0.35994 0.0
C4239 C 0.04621 0.68808 0.34416 0.0
C4240 C 0.0603 0.68336 0.33585 0.0
C4241 C 0.07523 0.68404 0.34376 0.0
C4242 C 0.07604 0.68972 0.35966 0.0
H4243 H 0.06744 0.74299 0.36738 0.0
H4244 H 0.07599 0.72511 0.35831 0.0
H4245 H 0.05452 0.72757 0.35911 0.0
H4246 H 0.03614 0.69802 0.36587 0.0
H4247 H 0.03455 0.68765 0.33833 0.0
H4248 H 0.46094 0.26695 0.93766 0.0
H4249 H 0.48199 0.28447 0.92689 0.0
H4250 H 0.45093 0.32579 0.93389 0.0
H4251 H 0.43067 0.30877 0.94561 0.0
H4252 H 0.46274 0.29053 0.90098 0.0
H4253 H 0.4905 0.3482 0.92051 0.0
H4254 H 0.48466 0.33287 0.93493 0.0
H4255 H 0.46989 0.34667 0.92682 0.0
C4256 C 0.45919 0.27992 0.93794 0.0
C4257 C 0.44403 0.28655 0.94142 0.0
C4258 C 0.47126 0.28996 0.93204 0.0
C4259 C 0.46744 0.30614 0.9286 0.0
C4260 C 0.454 0.31326 0.93602 0.0
H4261 H 0.48263 0.36656 0.85302 0.0
H4262 H 0.46458 0.34437 0.85887 0.0
C4263 C 0.4422 0.30337 0.94252 0.0
C4264 C 0.4717 0.31229 0.91253 0.0
H4265 H 0.48423 0.34552 0.89221 0.0
C4266 C 0.46784 0.30244 0.89912 0.0
C4267 C 0.47712 0.3282 0.91007 0.0
C4268 C 0.48086 0.33952 0.92389 0.0
C4269 C 0.47037 0.30773 0.88331 0.0
C4270 C 0.47662 0.32321 0.88097 0.0
C4271 C 0.47937 0.33353 0.89424 0.0
C4272 C 0.48375 0.328 0.86559 0.0
C4273 C 0.46679 0.29679 0.8692 0.0
C4274 C 0.50038 0.32491 0.86464 0.0
C4275 C 0.51081 0.33782 0.86229 0.0
C4276 C 0.50435 0.35314 0.85934 0.0
C4277 C 0.48784 0.35485 0.85573 0.0
C4278 C 0.47747 0.34205 0.85863 0.0
H4279 H 0.45927 0.2863 0.87282 0.0
H4280 H 0.46048 0.30362 0.8595 0.0
H4281 H 0.47833 0.29223 0.86409 0.0
H4282 H 0.50532 0.31375 0.86941 0.0
H4283 H 0.52361 0.3362 0.86446 0.0
H4284 H 0.6935 0.54699 0.87288 0.0
H4285 H 0.66866 0.54891 0.85772 0.0
H4286 H 0.68888 0.58777 0.82946 0.0
H4287 H 0.71475 0.58387 0.84255 0.0
H4288 H 0.64914 0.57068 0.85861 0.0
H4289 H 0.66577 0.56781 0.79413 0.0
H4290 H 0.67991 0.56242 0.80982 0.0
H4291 H 0.67749 0.58323 0.80364 0.0
C4292 C 0.69315 0.55524 0.86278 0.0
C4293 C 0.70654 0.56498 0.85885 0.0
C4294 C 0.67866 0.55661 0.8543 0.0
C4295 C 0.67679 0.56832 0.84215 0.0
C4296 C 0.69003 0.57818 0.83827 0.0
H4297 H 0.59832 0.62557 0.81103 0.0
H4298 H 0.62431 0.6127 0.81605 0.0
C4299 C 0.70481 0.57624 0.84619 0.0
C4300 C 0.66055 0.57157 0.8351 0.0
H4301 H 0.64095 0.58259 0.80036 0.0
C4302 C 0.64737 0.57285 0.84579 0.0
C4303 C 0.65801 0.5744 0.81835 0.0
C4304 C 0.67105 0.5717 0.80585 0.0
C4305 C 0.63208 0.57763 0.84039 0.0
C4306 C 0.62989 0.58153 0.82391 0.0
C4307 C 0.64279 0.57974 0.81304 0.0
C4308 C 0.61454 0.58862 0.81823 0.0
C4309 C 0.61845 0.57913 0.85247 0.0
C4310 C 0.60051 0.57924 0.81748 0.0
C4311 C 0.58555 0.58654 0.81459 0.0
C4312 C 0.58436 0.60337 0.81236 0.0
C4313 C 0.59865 0.61259 0.81255 0.0
C4314 C 0.61358 0.60526 0.81539 0.0
H4315 H 0.6226 0.57741 0.86514 0.0
H4316 H 0.61259 0.59117 0.85145 0.0
H4317 H 0.60917 0.56986 0.84981 0.0
H4318 H 0.60107 0.56634 0.81958 0.0
H4319 H 0.57494 0.57898 0.81419 0.0
H4320 H 0.73217 0.46737 0.07885 0.0
H4321 H 0.72835 0.44067 0.06676 0.0
H4322 H 0.73584 0.41841 0.11329 0.0
H4323 H 0.73909 0.44488 0.12566 0.0
H4324 H 0.74922 0.40561 0.07232 0.0
H4325 H 0.68574 0.4135 0.09362 0.0
H4326 H 0.69825 0.43053 0.08837 0.0
H4327 H 0.70197 0.41964 0.10675 0.0
C4328 C 0.73301 0.45683 0.08655 0.0
C4329 C 0.73569 0.4584 0.1033 0.0
C4330 C 0.73115 0.44158 0.07954 0.0
C4331 C 0.73199 0.42766 0.08914 0.0
C4332 C 0.7354 0.42906 0.10567 0.0
H4333 H 0.71323 0.32607 0.0729 0.0
H4334 H 0.72702 0.35161 0.07745 0.0
C4335 C 0.73717 0.44426 0.11272 0.0
C4336 C 0.72626 0.41211 0.0827 0.0
H4337 H 0.69256 0.3888 0.08185 0.0
C4338 C 0.73683 0.40187 0.07423 0.0
C4339 C 0.71009 0.40748 0.08519 0.0
C4340 C 0.69825 0.41832 0.09392 0.0
C4341 C 0.73151 0.38688 0.06822 0.0
C4342 C 0.71535 0.38206 0.07109 0.0
C4343 C 0.7049 0.39249 0.07952 0.0
C4344 C 0.70869 0.36628 0.06589 0.0
C4345 C 0.74314 0.37652 0.05869 0.0
C4346 C 0.69377 0.36592 0.0579 0.0
C4347 C 0.68536 0.35149 0.05621 0.0
C4348 C 0.69191 0.33681 0.06193 0.0
C4349 C 0.70747 0.33707 0.06881 0.0
C4350 C 0.71565 0.35168 0.07102 0.0
H4351 H 0.75287 0.3839 0.05314 0.0
H4352 H 0.74894 0.36769 0.06696 0.0
H4353 H 0.73686 0.36973 0.04898 0.0
H4354 H 0.68814 0.37701 0.0538 0.0
H4355 H 0.67337 0.35218 0.05111 0.0
H4356 H 0.83942 0.49117 0.38259 0.0
H4357 H 0.86737 0.49081 0.37576 0.0
H4358 H 0.85527 0.48507 0.32527 0.0
H4359 H 0.82661 0.48932 0.33176 0.0
H4360 H 0.87713 0.46486 0.36706 0.0
H4361 H 0.89733 0.50743 0.3199 0.0
H4362 H 0.87887 0.51053 0.33119 0.0
H4363 H 0.87916 0.49757 0.31364 0.0
C4364 C 0.84246 0.49091 0.36985 0.0
C4365 C 0.83054 0.49077 0.35766 0.0
C4366 C 0.85864 0.49055 0.36599 0.0
C4367 C 0.86353 0.48802 0.35003 0.0
C4368 C 0.85184 0.48755 0.33767 0.0
H4369 H 0.91239 0.42207 0.30535 0.0
H4370 H 0.90076 0.44779 0.31371 0.0
C4371 C 0.83541 0.48933 0.34144 0.0
C4372 C 0.88 0.4818 0.34736 0.0
H4373 H 0.91119 0.48095 0.32052 0.0
C4374 C 0.88489 0.46894 0.35731 0.0
C4375 C 0.89014 0.48702 0.33465 0.0
C4376 C 0.88615 0.50153 0.32438 0.0
C4377 C 0.89878 0.46014 0.35404 0.0
C4378 C 0.90801 0.46424 0.3403 0.0
C4379 C 0.90405 0.47799 0.33113 0.0
C4380 C 0.91808 0.45175 0.33294 0.0
C4381 C 0.90227 0.44528 0.36414 0.0
C4382 C 0.93173 0.44566 0.34094 0.0
C4383 C 0.93806 0.43067 0.33648 0.0
C4384 C 0.9308 0.42193 0.32397 0.0
C4385 C 0.91771 0.42848 0.31545 0.0
C4386 C 0.91143 0.44333 0.31987 0.0
H4387 H 0.89331 0.44352 0.374 0.0
H4388 H 0.90222 0.43432 0.35639 0.0
H4389 H 0.91439 0.44634 0.36973 0.0
H4390 H 0.9369 0.45208 0.3511 0.0
H4391 H 0.94861 0.42598 0.34265 0.0
H4392 H 0.82301 0.57728 0.58351 0.0
H4393 H 0.82805 0.60348 0.57119 0.0
H4394 H 0.79903 0.62647 0.60793 0.0
H4395 H 0.79587 0.60101 0.62169 0.0
H4396 H 0.81259 0.62801 0.55837 0.0
H4397 H 0.84035 0.64865 0.61583 0.0
H4398 H 0.834 0.6281 0.61288 0.0
H4399 H 0.81953 0.64348 0.61836 0.0
C4400 C 0.81798 0.58789 0.58929 0.0
C4401 C 0.80952 0.58676 0.60406 0.0
C4402 C 0.82061 0.60288 0.58197 0.0
C4403 C 0.81443 0.61703 0.58899 0.0
C4404 C 0.80448 0.61579 0.60266 0.0
H4405 H 0.82973 0.71847 0.5665 0.0
H4406 H 0.81644 0.69246 0.57083 0.0
C4407 C 0.80242 0.60097 0.61037 0.0
C4408 C 0.81963 0.6331 0.58298 0.0
H4409 H 0.83773 0.66805 0.59516 0.0
C4410 C 0.81804 0.63678 0.56642 0.0
C4411 C 0.82703 0.64446 0.59345 0.0
C4412 C 0.83049 0.64092 0.61106 0.0
C4413 C 0.8236 0.65154 0.56014 0.0
C4414 C 0.8306 0.66288 0.57073 0.0
C4415 C 0.83207 0.65932 0.5872 0.0
C4416 C 0.83757 0.67822 0.56508 0.0
C4417 C 0.82227 0.65492 0.54226 0.0
C4418 C 0.85381 0.67868 0.56045 0.0
C4419 C 0.86161 0.69347 0.5585 0.0
C4420 C 0.85323 0.70813 0.561 0.0
C4421 C 0.8367 0.7075 0.56492 0.0
C4422 C 0.82898 0.69267 0.56707 0.0
H4423 H 0.81541 0.64539 0.53579 0.0
H4424 H 0.81627 0.66677 0.54028 0.0
H4425 H 0.83456 0.65569 0.53694 0.0
H4426 H 0.86067 0.66759 0.55914 0.0
H4427 H 0.87437 0.69331 0.55569 0.0
H4428 H 0.69515 0.4823 0.68412 0.0
H4429 H 0.68708 0.46272 0.70421 0.0
H4430 H 0.66507 0.50043 0.73263 0.0
H4431 H 0.67372 0.52047 0.7128 0.0
H4432 H 0.67135 0.465 0.74819 0.0
H4433 H 0.63685 0.47143 0.69035 0.0
H4434 H 0.6581 0.46734 0.68894 0.0
H4435 H 0.65117 0.48643 0.69664 0.0
C4436 C 0.68961 0.48673 0.69514 0.0
C4437 C 0.68425 0.50283 0.69649 0.0
C4438 C 0.68512 0.47541 0.70675 0.0
C4439 C 0.67496 0.48012 0.71946 0.0
C4440 C 0.67268 0.4966 0.72265 0.0
H4441 H 0.58021 0.4593 0.7412 0.0
H4442 H 0.60787 0.46945 0.74099 0.0
C4443 C 0.67734 0.508 0.71114 0.0
C4444 C 0.66196 0.46909 0.72424 0.0
H4445 H 0.62544 0.45609 0.71066 0.0
C4446 C 0.66139 0.46279 0.73999 0.0
C4447 C 0.64899 0.4664 0.71339 0.0
C4448 C 0.64867 0.47328 0.69642 0.0
C4449 C 0.64774 0.45424 0.74535 0.0
C4450 C 0.63461 0.45225 0.73466 0.0
C4451 C 0.6356 0.45784 0.71875 0.0
C4452 C 0.61892 0.44579 0.73963 0.0
C4453 C 0.64708 0.44785 0.76239 0.0
C4454 C 0.61615 0.42915 0.739 0.0
C4455 C 0.60035 0.42334 0.7389 0.0
C4456 C 0.58715 0.43413 0.7393 0.0
C4457 C 0.59008 0.45075 0.74056 0.0
C4458 C 0.60585 0.45652 0.74081 0.0
H4459 H 0.65839 0.45029 0.76918 0.0
H4460 H 0.63678 0.45344 0.76895 0.0
H4461 H 0.645 0.43461 0.76211 0.0
H4462 H 0.62612 0.42077 0.73769 0.0
H4463 H 0.59846 0.41043 0.73804 0.0
H4464 H 0.89094 0.38938 0.96763 0.0
H4465 H 0.86423 0.40016 0.96004 0.0
H4466 H 0.84272 0.37575 1.00084 0.0
H4467 H 0.86888 0.36537 1.00862 0.0
H4468 H 0.82416 0.37717 0.96926 0.0
H4469 H 0.84747 0.43469 0.99521 0.0
H4470 H 0.85929 0.42492 0.97975 0.0
H4471 H 0.85697 0.41542 0.99912 0.0
C4472 C 0.88041 0.38617 0.97471 0.0
C4473 C 0.88187 0.37668 0.98864 0.0
C4474 C 0.86529 0.39214 0.97035 0.0
C4475 C 0.85182 0.38869 0.98005 0.0
C4476 C 0.85309 0.37834 0.99325 0.0
H4477 H 0.75643 0.42142 0.95856 0.0
H4478 H 0.77507 0.41479 0.98038 0.0
C4479 C 0.86805 0.37247 0.99763 0.0
C4480 C 0.83695 0.3978 0.97829 0.0
H4481 H 0.82085 0.43492 0.98519 0.0
C4482 C 0.82325 0.38978 0.97273 0.0
C4483 C 0.83608 0.41399 0.98348 0.0
C4484 C 0.85069 0.42281 0.98984 0.0
C4485 C 0.80871 0.39808 0.97084 0.0
C4486 C 0.80797 0.41465 0.97529 0.0
C4487 C 0.82145 0.42219 0.98215 0.0
C4488 C 0.7957 0.42516 0.96819 0.0
C4489 C 0.79483 0.38938 0.9628 0.0
C4490 C 0.80082 0.43509 0.9555 0.0
C4491 C 0.79026 0.4388 0.94314 0.0
C4492 C 0.77443 0.43273 0.94347 0.0
C4493 C 0.76863 0.4256 0.95772 0.0
C4494 C 0.77925 0.42197 0.97026 0.0
H4495 H 0.79803 0.37682 0.95926 0.0
H4496 H 0.78442 0.38878 0.97123 0.0
H4497 H 0.79098 0.39595 0.95174 0.0
H4498 H 0.8135 0.43789 0.95381 0.0
H4499 H 0.79528 0.44448 0.93246 0.0
H4500 H 0.85262 0.52621 0.20911 0.0
H4501 H 0.86134 0.54407 0.23086 0.0
H4502 H 0.86969 0.58197 0.19601 0.0
H4503 H 0.85994 0.56471 0.17468 0.0
H4504 H 0.89127 0.54346 0.21936 0.0
H4505 H 0.87689 0.60667 0.23582 0.0
H4506 H 0.8618 0.59335 0.22748 0.0
H4507 H 0.87572 0.60381 0.21439 0.0
C4508 C 0.85523 0.53874 0.20641 0.0
C4509 C 0.85655 0.54406 0.19041 0.0
C4510 C 0.8599 0.54904 0.21882 0.0
C4511 C 0.86704 0.56389 0.21483 0.0
C4512 C 0.86459 0.57042 0.19937 0.0
H4513 H 0.94795 0.61329 0.23932 0.0
H4514 H 0.93981 0.59067 0.22276 0.0
C4515 C 0.8593 0.5604 0.18706 0.0
C4516 C 0.88234 0.5679 0.22274 0.0
H4517 H 0.9052 0.59903 0.23617 0.0
C4518 C 0.89413 0.55556 0.22344 0.0
C4519 C 0.8864 0.58382 0.22705 0.0
C4520 C 0.87444 0.5976 0.22623 0.0
C4521 C 0.9097 0.55864 0.22894 0.0
C4522 C 0.91356 0.57439 0.2336 0.0
C4523 C 0.90207 0.58689 0.23235 0.0
C4524 C 0.92831 0.578 0.24247 0.0
C4525 C 0.92194 0.54518 0.22992 0.0
C4526 C 0.92691 0.5767 0.25933 0.0
C4527 C 0.93101 0.5899 0.26884 0.0
C4528 C 0.93723 0.60372 0.26136 0.0
C4529 C 0.94274 0.60286 0.24527 0.0
C4530 C 0.93836 0.58978 0.23577 0.0
H4531 H 0.91792 0.53422 0.22331 0.0
H4532 H 0.9337 0.54922 0.22488 0.0
H4533 H 0.92391 0.54196 0.24281 0.0
H4534 H 0.91954 0.5673 0.26466 0.0
H4535 H 0.92725 0.59018 0.28141 0.0
H4536 H 0.66137 0.69834 0.49508 0.0
H4537 H 0.67145 0.67107 0.49631 0.0
H4538 H 0.71858 0.68785 0.48164 0.0
H4539 H 0.70916 0.71576 0.48314 0.0
H4540 H 0.67927 0.65327 0.47547 0.0
H4541 H 0.73381 0.65588 0.51244 0.0
H4542 H 0.71955 0.67243 0.51231 0.0
H4543 H 0.73597 0.67164 0.49785 0.0
C4544 C 0.6741 0.69643 0.49278 0.0
C4545 C 0.6846 0.70944 0.48954 0.0
C4546 C 0.6798 0.68067 0.49332 0.0
C4547 C 0.69593 0.6773 0.48962 0.0
C4548 C 0.70628 0.69013 0.48543 0.0
H4549 H 0.7322 0.63561 0.42168 0.0
H4550 H 0.71231 0.64076 0.44262 0.0
C4551 C 0.70076 0.7061 0.48573 0.0
C4552 C 0.70126 0.66032 0.48777 0.0
H4553 H 0.73592 0.63838 0.4875 0.0
C4554 C 0.69145 0.64979 0.47875 0.0
C4555 C 0.71675 0.65503 0.49269 0.0
C4556 C 0.72696 0.66433 0.50456 0.0
C4557 C 0.69781 0.63562 0.47213 0.0
C4558 C 0.71443 0.63248 0.47396 0.0
C4559 C 0.72328 0.64117 0.48551 0.0
C4560 C 0.72367 0.62524 0.46057 0.0
C4561 C 0.6872 0.6253 0.46154 0.0
C4562 C 0.73666 0.61472 0.46356 0.0
C4563 C 0.74824 0.61205 0.45154 0.0
C4564 C 0.74687 0.62003 0.43665 0.0
C4565 C 0.73339 0.62956 0.43326 0.0
C4566 C 0.72187 0.63218 0.44513 0.0
H4567 H 0.67522 0.62363 0.46735 0.0
H4568 H 0.6851 0.63153 0.44983 0.0
H4569 H 0.69268 0.61327 0.45918 0.0
H4570 H 0.73834 0.60943 0.47544 0.0
H4571 H 0.7586 0.60445 0.4541 0.0
H4572 H 0.55784 0.83079 0.7199 0.0
H4573 H 0.56168 0.82283 0.69147 0.0
H4574 H 0.54739 0.87046 0.67605 0.0
H4575 H 0.54792 0.87958 0.70332 0.0
H4576 H 0.54578 0.82275 0.66123 0.0
H4577 H 0.5933 0.87023 0.66373 0.0
H4578 H 0.58245 0.86393 0.68144 0.0
H4579 H 0.57341 0.87788 0.6673 0.0
C4580 C 0.55591 0.83966 0.71046 0.0
C4581 C 0.55236 0.85584 0.71428 0.0
C4582 C 0.55758 0.83495 0.69424 0.0
C4583 C 0.55496 0.84622 0.68177 0.0
C4584 C 0.54964 0.8617 0.68554 0.0
H4585 H 0.61927 0.839 0.60107 0.0
H4586 H 0.59204 0.84708 0.60996 0.0
C4587 C 0.54959 0.86678 0.70143 0.0
C4588 C 0.56119 0.84329 0.6654 0.0
H4589 H 0.59079 0.85607 0.64 0.0
C4590 C 0.55552 0.83008 0.65645 0.0
C4591 C 0.57365 0.85318 0.65905 0.0
C4592 C 0.58115 0.86699 0.66842 0.0
C4593 C 0.56306 0.82567 0.64191 0.0
C4594 C 0.5764 0.83477 0.63643 0.0
C4595 C 0.58053 0.84914 0.64426 0.0
C4596 C 0.58951 0.82738 0.62705 0.0
C4597 C 0.5575 0.8107 0.63319 0.0
C4598 C 0.59699 0.81376 0.63379 0.0
C4599 C 0.61252 0.8096 0.62921 0.0
C4600 C 0.6208 0.81891 0.61774 0.0
C4601 C 0.61317 0.83209 0.61038 0.0
C4602 C 0.59753 0.83632 0.61501 0.0
H4603 H 0.54411 0.80994 0.63339 0.0
H4604 H 0.56174 0.81045 0.62043 0.0
H4605 H 0.56223 0.79987 0.63955 0.0
H4606 H 0.59134 0.80702 0.6435 0.0
H4607 H 0.61815 0.7991 0.63468 0.0
loop_
_geom_bond_atom_site_label_1
_geom_bond_atom_site_label_2
_geom_bond_distance
_geom_bond_site_symmetry_2
_ccdc_geom_bond_type
Tb0 N29 2.617 . S
Tb0 N35 2.572 . S
Tb0 O44 2.465 . S
Tb0 O45 2.387 . S
Tb0 O47 2.428 . S
Tb0 O48 2.308 . S
Tb0 O52 2.349 . S
Tb0 O55 2.393 . S
Tb0 C64 2.802 . S
C1 N2 1.379 1_655 S
C1 C4 1.416 . S
C1 C8 1.424 . S
N2 C1 1.379 1_455 S
N2 C5 1.334 . S
N2 Tb11 2.617 . S
C3 C5 1.390 . S
C3 C6 1.339 1_455 S
C3 H23 0.930 . S
C4 C1 1.416 . S
C4 C6 1.416 . S
C4 C10 1.448 . S
C5 N2 1.334 . S
C5 C3 1.390 . S
C5 H16 0.930 . S
C6 C3 1.339 1_655 S
C6 C4 1.416 . S
C6 H27 0.930 . S
C7 C8 1.413 . S
C7 C9 1.427 . S
C7 C13 1.416 . S
C8 C1 1.424 . S
C8 C7 1.413 . S
C8 N12 1.361 . S
C9 C7 1.427 . S
C9 C10 1.328 . S
C9 H24 0.929 . S
C10 C4 1.448 . S
C10 C9 1.328 . S
C10 H25 0.930 . S
Tb11 N2 2.617 . S
Tb11 N12 2.572 1_455 S
Tb11 O46 2.349 . S
Tb11 O49 2.393 . S
Tb11 O50 2.465 1_455 S
Tb11 O51 2.387 . S
Tb11 O53 2.428 . S
Tb11 O54 2.308 . S
Tb11 C75 2.802 1_455 S
N12 C8 1.361 . S
N12 Tb11 2.572 1_655 S
N12 C14 1.340 . S
C13 C7 1.416 . S
C13 C15 1.332 . S
C13 H21 0.931 . S
C14 N12 1.340 . S
C14 C15 1.407 . S
C14 H20 0.930 . S
C15 C13 1.332 . S
C15 C14 1.407 . S
C15 H17 0.929 . S
H16 C5 0.930 . S
H17 C15 0.929 . S
H18 C33 0.930 . S
H19 C40 0.929 . S
H20 C14 0.930 . S
H21 C13 0.931 . S
H22 C36 0.930 . S
H23 C3 0.930 . S
H24 C9 0.929 . S
H25 C10 0.930 . S
H26 C31 0.930 . S
H27 C6 0.930 . S
H28 C39 0.931 . S
N29 Tb0 2.617 . S
N29 C30 1.379 . S
N29 C33 1.334 . S
C30 N29 1.379 . S
C30 C32 1.416 . S
C30 C38 1.424 . S
C31 H26 0.930 . S
C31 C33 1.390 . S
C31 C34 1.339 . S
C32 C30 1.416 . S
C32 C34 1.416 . S
C32 C65 1.448 . S
C33 H18 0.930 . S
C33 N29 1.334 . S
C33 C31 1.390 . S
C34 C31 1.339 . S
C34 C32 1.416 . S
C34 H41 0.930 . S
N35 Tb0 2.572 . S
N35 C36 1.340 . S
N35 C38 1.361 . S
C36 H22 0.930 . S
C36 N35 1.340 . S
C36 C40 1.407 . S
C37 C38 1.413 . S
C37 C39 1.416 . S
C37 C66 1.427 . S
C38 C30 1.424 . S
C38 N35 1.361 . S
C38 C37 1.413 . S
C39 H28 0.931 . S
C39 C37 1.416 . S
C39 C40 1.332 . S
C40 H19 0.929 . S
C40 C36 1.407 . S
C40 C39 1.332 . S
H41 C34 0.930 . S
H42 C65 0.930 . S
H43 C66 0.929 . S
O44 Tb0 2.465 . S
O44 C64 1.264 . S
O45 Tb0 2.387 . S
O45 C56 1.264 . S
O46 Tb11 2.349 . S
O46 C56 1.243 . S
O47 Tb0 2.428 . S
O47 C64 1.256 . S
O48 Tb0 2.308 . S
O48 C63 1.266 . S
O49 Tb11 2.393 . S
O49 C63 1.248 . S
O50 Tb11 2.465 1_655 S
O50 C75 1.264 . S
O51 Tb11 2.387 . S
O51 C67 1.264 . S
O52 Tb0 2.349 . S
O52 C67 1.243 . S
O53 Tb11 2.428 . S
O53 C75 1.256 1_455 S
O54 Tb11 2.308 . S
O54 C74 1.266 . S
O55 Tb0 2.393 . S
O55 C74 1.248 . S
C56 O45 1.264 . S
C56 O46 1.243 . S
C57 C60 1.399 . S
C57 C62 1.383 . S
C57 C64 1.496 . S
C58 C59 1.399 . S
C58 C62 1.389 . S
C59 C58 1.399 . S
C59 C61 1.380 . S
C59 H76 0.929 . S
C60 C57 1.399 . S
C60 C61 1.392 . S
C60 H77 0.929 . S
C61 C59 1.380 . S
C61 C60 1.392 . S
C61 H78 0.929 . S
C62 C57 1.383 . S
C62 C58 1.389 . S
C62 H79 0.931 . S
C63 O48 1.266 . S
C63 O49 1.248 . S
C64 Tb0 2.802 . S
C64 O44 1.264 . S
C64 O47 1.256 . S
C64 C57 1.496 . S
C65 C32 1.448 . S
C65 H42 0.930 . S
C65 C66 1.328 . S
C66 C37 1.427 . S
C66 H43 0.929 . S
C66 C65 1.328 . S
C67 O51 1.264 . S
C67 O52 1.243 . S
C68 C71 1.399 . S
C68 C72 1.383 . S
C68 C75 1.496 . S
C69 C70 1.399 . S
C69 C72 1.389 . S
C70 C69 1.399 . S
C70 C73 1.380 . S
C70 H80 0.929 . S
C71 C68 1.399 . S
C71 C73 1.392 . S
C71 H81 0.929 . S
C72 C68 1.383 . S
C72 C69 1.389 . S
C72 H82 0.931 . S
C73 C70 1.380 . S
C73 C71 1.392 . S
C73 H83 0.929 . S
C74 O54 1.266 . S
C74 O55 1.248 . S
C75 Tb11 2.802 1_655 S
C75 O50 1.264 . S
C75 O53 1.256 1_655 S
C75 C68 1.496 . S
H76 C59 0.929 . S
H77 C60 0.929 . S
H78 C61 0.929 . S
H79 C62 0.931 . S
H80 C70 0.929 . S
H81 C71 0.929 . S
H82 C72 0.931 . S
H83 C73 0.929 . S
Tb84 N113 2.617 . S
Tb84 N119 2.572 . S
Tb84 O128 2.465 . S
Tb84 O129 2.387 . S
Tb84 O131 2.428 . S
Tb84 O132 2.308 . S
Tb84 O136 2.349 . S
Tb84 O139 2.393 . S
Tb84 C148 2.802 . S
C85 N86 1.379 . S
C85 C88 1.416 . S
C85 C92 1.424 . S
N86 C85 1.379 . S
N86 C89 1.334 . S
N86 Tb95 2.617 . S
C87 C89 1.390 . S
C87 C90 1.339 . S
C87 H107 0.930 . S
C88 C85 1.416 . S
C88 C90 1.416 . S
C88 C94 1.448 . S
C89 N86 1.334 . S
C89 C87 1.390 . S
C89 H100 0.930 . S
C90 C87 1.339 . S
C90 C88 1.416 . S
C90 H111 0.930 . S
C91 C92 1.413 . S
C91 C93 1.427 . S
C91 C97 1.416 . S
C92 C85 1.424 . S
C92 C91 1.413 . S
C92 N96 1.361 . S
C93 C91 1.427 . S
C93 C94 1.328 . S
C93 H108 0.929 . S
C94 C88 1.448 . S
C94 C93 1.328 . S
C94 H109 0.930 . S
Tb95 N86 2.617 . S
Tb95 N96 2.572 . S
Tb95 O130 2.349 . S
Tb95 O133 2.393 . S
Tb95 O134 2.465 . S
Tb95 O135 2.387 . S
Tb95 O137 2.428 . S
Tb95 O138 2.308 . S
Tb95 C159 2.802 . S
N96 C92 1.361 . S
N96 Tb95 2.572 . S
N96 C98 1.340 . S
C97 C91 1.416 . S
C97 C99 1.332 . S
C97 H105 0.931 . S
C98 N96 1.340 . S
C98 C99 1.407 . S
C98 H104 0.930 . S
C99 C97 1.332 . S
C99 C98 1.407 . S
C99 H101 0.929 . S
H100 C89 0.930 . S
H101 C99 0.929 . S
H102 C117 0.930 . S
H103 C124 0.929 . S
H104 C98 0.930 . S
H105 C97 0.931 . S
H106 C120 0.930 . S
H107 C87 0.930 . S
H108 C93 0.929 . S
H109 C94 0.930 . S
H110 C115 0.930 . S
H111 C90 0.930 . S
H112 C123 0.931 . S
N113 Tb84 2.617 . S
N113 C114 1.379 . S
N113 C117 1.334 . S
C114 N113 1.379 . S
C114 C116 1.416 . S
C114 C122 1.424 . S
C115 H110 0.930 . S
C115 C117 1.390 . S
C115 C118 1.339 . S
C116 C114 1.416 . S
C116 C118 1.416 . S
C116 C149 1.448 . S
C117 H102 0.930 . S
C117 N113 1.334 . S
C117 C115 1.390 . S
C118 C115 1.339 . S
C118 C116 1.416 . S
C118 H125 0.930 . S
N119 Tb84 2.572 . S
N119 C120 1.340 . S
N119 C122 1.361 . S
C120 H106 0.930 . S
C120 N119 1.340 . S
C120 C124 1.407 . S
C121 C122 1.413 . S
C121 C123 1.416 . S
C121 C150 1.427 . S
C122 C114 1.424 . S
C122 N119 1.361 . S
C122 C121 1.413 . S
C123 H112 0.931 . S
C123 C121 1.416 . S
C123 C124 1.332 . S
C124 H103 0.929 . S
C124 C120 1.407 . S
C124 C123 1.332 . S
H125 C118 0.930 . S
H126 C149 0.930 . S
H127 C150 0.929 . S
O128 Tb84 2.465 . S
O128 C148 1.264 . S
O129 Tb84 2.387 . S
O129 C140 1.264 . S
O130 Tb95 2.349 . S
O130 C140 1.243 . S
O131 Tb84 2.428 . S
O131 C148 1.256 . S
O132 Tb84 2.308 . S
O132 C147 1.266 . S
O133 Tb95 2.393 . S
O133 C147 1.248 . S
O134 Tb95 2.465 . S
O134 C159 1.264 . S
O135 Tb95 2.387 . S
O135 C151 1.264 . S
O136 Tb84 2.349 . S
O136 C151 1.243 . S
O137 Tb95 2.428 . S
O137 C159 1.256 . S
O138 Tb95 2.308 . S
O138 C158 1.266 . S
O139 Tb84 2.393 . S
O139 C158 1.248 . S
C140 O129 1.264 . S
C140 O130 1.243 . S
C141 C144 1.399 . S
C141 C146 1.383 . S
C141 C148 1.496 . S
C142 C143 1.399 . S
C142 C146 1.389 . S
C143 C142 1.399 . S
C143 C145 1.380 . S
C143 H160 0.929 . S
C144 C141 1.399 . S
C144 C145 1.392 . S
C144 H161 0.929 . S
C145 C143 1.380 . S
C145 C144 1.392 . S
C145 H162 0.929 . S
C146 C141 1.383 . S
C146 C142 1.389 . S
C146 H163 0.931 . S
C147 O132 1.266 . S
C147 O133 1.248 . S
C148 Tb84 2.802 . S
C148 O128 1.264 . S
C148 O131 1.256 . S
C148 C141 1.496 . S
C149 C116 1.448 . S
C149 H126 0.930 . S
C149 C150 1.328 . S
C150 C121 1.427 . S
C150 H127 0.929 . S
C150 C149 1.328 . S
C151 O135 1.264 . S
C151 O136 1.243 . S
C152 C155 1.399 . S
C152 C156 1.383 . S
C152 C159 1.496 . S
C153 C154 1.399 . S
C153 C156 1.389 . S
C154 C153 1.399 . S
C154 C157 1.380 . S
C154 H164 0.929 . S
C155 C152 1.399 . S
C155 C157 1.392 . S
C155 H165 0.929 . S
C156 C152 1.383 . S
C156 C153 1.389 . S
C156 H166 0.931 . S
C157 C154 1.380 . S
C157 C155 1.392 . S
C157 H167 0.929 . S
C158 O138 1.266 . S
C158 O139 1.248 . S
C159 Tb95 2.802 . S
C159 O134 1.264 . S
C159 O137 1.256 . S
C159 C152 1.496 . S
H160 C143 0.929 . S
H161 C144 0.929 . S
H162 C145 0.929 . S
H163 C146 0.931 . S
H164 C154 0.929 . S
H165 C155 0.929 . S
H166 C156 0.931 . S
H167 C157 0.929 . S
Tb168 N197 2.617 . S
Tb168 N203 2.572 . S
Tb168 O212 2.465 . S
Tb168 O213 2.387 . S
Tb168 O215 2.428 . S
Tb168 O216 2.308 . S
Tb168 O220 2.349 . S
Tb168 O223 2.393 . S
Tb168 C232 2.802 . S
C169 N170 1.379 . S
C169 C172 1.416 . S
C169 C176 1.424 . S
N170 C169 1.379 . S
N170 C173 1.334 . S
N170 Tb179 2.617 . S
C171 C173 1.390 . S
C171 C174 1.339 . S
C171 H191 0.930 . S
C172 C169 1.416 . S
C172 C174 1.416 . S
C172 C178 1.448 . S
C173 N170 1.334 . S
C173 C171 1.390 . S
C173 H184 0.930 . S
C174 C171 1.339 . S
C174 C172 1.416 . S
C174 H195 0.930 . S
C175 C176 1.413 . S
C175 C177 1.427 . S
C175 C181 1.416 . S
C176 C169 1.424 . S
C176 C175 1.413 . S
C176 N180 1.361 . S
C177 C175 1.427 . S
C177 C178 1.328 . S
C177 H192 0.929 . S
C178 C172 1.448 . S
C178 C177 1.328 . S
C178 H193 0.930 . S
Tb179 N170 2.617 . S
Tb179 N180 2.572 . S
Tb179 O214 2.349 . S
Tb179 O217 2.393 . S
Tb179 O218 2.465 . S
Tb179 O219 2.387 . S
Tb179 O221 2.428 . S
Tb179 O222 2.308 . S
Tb179 C243 2.802 . S
N180 C176 1.361 . S
N180 Tb179 2.572 . S
N180 C182 1.340 . S
C181 C175 1.416 . S
C181 C183 1.332 . S
C181 H189 0.931 . S
C182 N180 1.340 . S
C182 C183 1.407 . S
C182 H188 0.930 . S
C183 C181 1.332 . S
C183 C182 1.407 . S
C183 H185 0.929 . S
H184 C173 0.930 . S
H185 C183 0.929 . S
H186 C201 0.930 . S
H187 C208 0.929 . S
H188 C182 0.930 . S
H189 C181 0.931 . S
H190 C204 0.930 . S
H191 C171 0.930 . S
H192 C177 0.929 . S
H193 C178 0.930 . S
H194 C199 0.930 . S
H195 C174 0.930 . S
H196 C207 0.931 . S
N197 Tb168 2.617 . S
N197 C198 1.379 . S
N197 C201 1.334 . S
C198 N197 1.379 . S
C198 C200 1.416 . S
C198 C206 1.424 . S
C199 H194 0.930 . S
C199 C201 1.390 . S
C199 C202 1.339 . S
C200 C198 1.416 . S
C200 C202 1.416 . S
C200 C233 1.448 . S
C201 H186 0.930 . S
C201 N197 1.334 . S
C201 C199 1.390 . S
C202 C199 1.339 . S
C202 C200 1.416 . S
C202 H209 0.930 . S
N203 Tb168 2.572 . S
N203 C204 1.340 . S
N203 C206 1.361 . S
C204 H190 0.930 . S
C204 N203 1.340 . S
C204 C208 1.407 . S
C205 C206 1.413 . S
C205 C207 1.416 . S
C205 C234 1.427 . S
C206 C198 1.424 . S
C206 N203 1.361 . S
C206 C205 1.413 . S
C207 H196 0.931 . S
C207 C205 1.416 . S
C207 C208 1.332 . S
C208 H187 0.929 . S
C208 C204 1.407 . S
C208 C207 1.332 . S
H209 C202 0.930 . S
H210 C233 0.930 . S
H211 C234 0.929 . S
O212 Tb168 2.465 . S
O212 C232 1.264 . S
O213 Tb168 2.387 . S
O213 C224 1.264 . S
O214 Tb179 2.349 . S
O214 C224 1.243 . S
O215 Tb168 2.428 . S
O215 C232 1.256 . S
O216 Tb168 2.308 . S
O216 C231 1.266 . S
O217 Tb179 2.393 . S
O217 C231 1.248 . S
O218 Tb179 2.465 . S
O218 C243 1.264 . S
O219 Tb179 2.387 . S
O219 C235 1.264 . S
O220 Tb168 2.349 . S
O220 C235 1.243 . S
O221 Tb179 2.428 . S
O221 C243 1.256 . S
O222 Tb179 2.308 . S
O222 C242 1.266 . S
O223 Tb168 2.393 . S
O223 C242 1.248 . S
C224 O213 1.264 . S
C224 O214 1.243 . S
C225 C228 1.399 . S
C225 C230 1.383 . S
C225 C232 1.496 . S
C226 C227 1.399 . S
C226 C230 1.389 . S
C227 C226 1.399 . S
C227 C229 1.380 . S
C227 H244 0.929 . S
C228 C225 1.399 . S
C228 C229 1.392 . S
C228 H245 0.929 . S
C229 C227 1.380 . S
C229 C228 1.392 . S
C229 H246 0.929 . S
C230 C225 1.383 . S
C230 C226 1.389 . S
C230 H247 0.931 . S
C231 O216 1.266 . S
C231 O217 1.248 . S
C232 Tb168 2.802 . S
C232 O212 1.264 . S
C232 O215 1.256 . S
C232 C225 1.496 . S
C233 C200 1.448 . S
C233 H210 0.930 . S
C233 C234 1.328 . S
C234 C205 1.427 . S
C234 H211 0.929 . S
C234 C233 1.328 . S
C235 O219 1.264 . S
C235 O220 1.243 . S
C236 C239 1.399 . S
C236 C240 1.383 . S
C236 C243 1.496 . S
C237 C238 1.399 . S
C237 C240 1.389 . S
C238 C237 1.399 . S
C238 C241 1.380 . S
C238 H248 0.929 . S
C239 C236 1.399 . S
C239 C241 1.392 . S
C239 H249 0.929 . S
C240 C236 1.383 . S
C240 C237 1.389 . S
C240 H250 0.931 . S
C241 C238 1.380 . S
C241 C239 1.392 . S
C241 H251 0.929 . S
C242 O222 1.266 . S
C242 O223 1.248 . S
C243 Tb179 2.802 . S
C243 O218 1.264 . S
C243 O221 1.256 . S
C243 C236 1.496 . S
H244 C227 0.929 . S
H245 C228 0.929 . S
H246 C229 0.929 . S
H247 C230 0.931 . S
H248 C238 0.929 . S
H249 C239 0.929 . S
H250 C240 0.931 . S
H251 C241 0.929 . S
Tb252 N281 2.617 . S
Tb252 N287 2.572 . S
Tb252 O296 2.478 . S
Tb252 O297 2.387 . S
Tb252 O299 2.428 1_556 S
Tb252 O300 2.308 . S
Tb252 O304 2.349 . S
Tb252 O307 2.393 . S
Tb252 C316 2.802 1_556 S
C253 N254 1.379 . S
C253 C256 1.416 . S
C253 C260 1.424 . S
N254 C253 1.379 . S
N254 C257 1.334 . S
N254 Tb263 2.617 . S
C255 C257 1.390 . S
C255 C258 1.339 . S
C255 H275 0.930 . S
C256 C253 1.416 . S
C256 C258 1.416 . S
C256 C262 1.448 . S
C257 N254 1.334 . S
C257 C255 1.390 . S
C257 H268 0.930 . S
C258 C255 1.339 . S
C258 C256 1.416 . S
C258 H279 0.930 . S
C259 C260 1.413 . S
C259 C261 1.427 . S
C259 C265 1.416 . S
C260 C253 1.424 . S
C260 C259 1.413 . S
C260 N264 1.361 . S
C261 C259 1.427 . S
C261 C262 1.328 . S
C261 H276 0.929 . S
C262 C256 1.448 . S
C262 C261 1.328 . S
C262 H277 0.930 . S
Tb263 N254 2.617 . S
Tb263 N264 2.572 . S
Tb263 O298 2.349 . S
Tb263 O301 2.393 . S
Tb263 O302 2.465 . S
Tb263 O303 2.387 . S
Tb263 O305 2.428 . S
Tb263 O306 2.308 . S
Tb263 C327 2.802 . S
N264 C260 1.361 . S
N264 Tb263 2.572 . S
N264 C266 1.340 . S
C265 C259 1.416 . S
C265 C267 1.332 . S
C265 H273 0.931 . S
C266 N264 1.340 . S
C266 C267 1.407 . S
C266 H272 0.930 . S
C267 C265 1.332 . S
C267 C266 1.407 . S
C267 H269 0.929 . S
H268 C257 0.930 . S
H269 C267 0.929 . S
H270 C285 0.930 . S
H271 C292 0.929 . S
H272 C266 0.930 . S
H273 C265 0.931 . S
H274 C288 0.930 . S
H275 C255 0.930 . S
H276 C261 0.929 . S
H277 C262 0.930 . S
H278 C283 0.930 . S
H279 C258 0.930 . S
H280 C291 0.931 . S
N281 Tb252 2.617 . S
N281 C282 1.379 . S
N281 C285 1.334 1_556 S
C282 N281 1.379 . S
C282 C284 1.416 . S
C282 C290 1.424 . S
C283 H278 0.930 . S
C283 C285 1.390 . S
C283 C286 1.339 . S
C284 C282 1.416 . S
C284 C286 1.416 1_556 S
C284 C317 1.448 . S
C285 H270 0.930 . S
C285 N281 1.334 1_554 S
C285 C283 1.390 . S
C286 C283 1.339 . S
C286 C284 1.416 1_554 S
C286 H293 0.930 . S
N287 Tb252 2.572 . S
N287 C288 1.340 . S
N287 C290 1.361 . S
C288 H274 0.930 . S
C288 N287 1.340 . S
C288 C292 1.407 . S
C289 C290 1.413 . S
C289 C291 1.416 . S
C289 C318 1.427 . S
C290 C282 1.424 . S
C290 N287 1.361 . S
C290 C289 1.413 . S
C291 H280 0.931 . S
C291 C289 1.416 . S
C291 C292 1.332 . S
C292 H271 0.929 . S
C292 C288 1.407 . S
C292 C291 1.332 . S
H293 C286 0.930 . S
H294 C317 0.930 . S
H295 C318 0.929 . S
O296 Tb252 2.478 . S
O296 C316 1.235 1_556 S
O297 Tb252 2.387 . S
O297 C308 1.264 . S
O298 Tb263 2.349 . S
O298 C308 1.243 . S
O299 Tb252 2.428 1_554 S
O299 C316 1.256 . S
O300 Tb252 2.308 . S
O300 C315 1.266 . S
O301 Tb263 2.393 . S
O301 C315 1.248 . S
O302 Tb263 2.465 . S
O302 C327 1.264 . S
O303 Tb263 2.387 . S
O303 C319 1.264 . S
O304 Tb252 2.349 . S
O304 C319 1.243 . S
O305 Tb263 2.428 . S
O305 C327 1.256 . S
O306 Tb263 2.308 . S
O306 C326 1.266 . S
O307 Tb252 2.393 . S
O307 C326 1.248 . S
C308 O297 1.264 . S
C308 O298 1.243 . S
C309 C312 1.399 . S
C309 C314 1.383 . S
C309 C316 1.496 . S
C310 C311 1.399 . S
C310 C314 1.389 . S
C311 C310 1.399 . S
C311 C313 1.380 . S
C311 H328 0.929 . S
C312 C309 1.399 . S
C312 C313 1.392 . S
C312 H329 0.929 . S
C313 C311 1.380 . S
C313 C312 1.392 . S
C313 H330 0.929 . S
C314 C309 1.383 . S
C314 C310 1.389 . S
C314 H331 0.931 . S
C315 O300 1.266 . S
C315 O301 1.248 . S
C316 Tb252 2.802 1_554 S
C316 O296 1.235 1_554 S
C316 O299 1.256 . S
C316 C309 1.496 . S
C317 C284 1.448 . S
C317 H294 0.930 . S
C317 C318 1.328 . S
C318 C289 1.427 . S
C318 H295 0.929 . S
C318 C317 1.328 . S
C319 O303 1.264 . S
C319 O304 1.243 . S
C320 C323 1.399 . S
C320 C324 1.383 . S
C320 C327 1.496 . S
C321 C322 1.399 . S
C321 C324 1.389 . S
C322 C321 1.399 . S
C322 C325 1.380 . S
C322 H332 0.929 . S
C323 C320 1.399 . S
C323 C325 1.392 . S
C323 H333 0.929 . S
C324 C320 1.383 . S
C324 C321 1.389 . S
C324 H334 0.931 . S
C325 C322 1.380 . S
C325 C323 1.392 . S
C325 H335 0.929 . S
C326 O306 1.266 . S
C326 O307 1.248 . S
C327 Tb263 2.802 . S
C327 O302 1.264 . S
C327 O305 1.256 . S
C327 C320 1.496 . S
H328 C311 0.929 . S
H329 C312 0.929 . S
H330 C313 0.929 . S
H331 C314 0.931 . S
H332 C322 0.929 . S
H333 C323 0.929 . S
H334 C324 0.931 . S
H335 C325 0.929 . S
Tb336 N365 2.617 . S
Tb336 N371 2.572 . S
Tb336 O380 2.465 . S
Tb336 O381 2.387 . S
Tb336 O383 2.428 . S
Tb336 O384 2.308 . S
Tb336 O388 2.349 . S
Tb336 O391 2.393 . S
Tb336 C400 2.802 . S
C337 N338 1.379 1_655 S
C337 C340 1.416 . S
C337 C344 1.424 . S
N338 C337 1.379 1_455 S
N338 C341 1.334 . S
N338 Tb347 2.617 . S
C339 C341 1.390 . S
C339 C342 1.339 1_455 S
C339 H359 0.930 . S
C340 C337 1.416 . S
C340 C342 1.416 . S
C340 C346 1.448 . S
C341 N338 1.334 . S
C341 C339 1.390 . S
C341 H352 0.930 . S
C342 C339 1.339 1_655 S
C342 C340 1.416 . S
C342 H363 0.930 . S
C343 C344 1.413 . S
C343 C345 1.427 . S
C343 C349 1.416 . S
C344 C337 1.424 . S
C344 C343 1.413 . S
C344 N348 1.361 . S
C345 C343 1.427 . S
C345 C346 1.328 . S
C345 H360 0.929 . S
C346 C340 1.448 . S
C346 C345 1.328 . S
C346 H361 0.930 . S
Tb347 N338 2.617 . S
Tb347 N348 2.572 1_455 S
Tb347 O382 2.349 . S
Tb347 O385 2.393 . S
Tb347 O386 2.465 1_455 S
Tb347 O387 2.387 . S
Tb347 O389 2.428 . S
Tb347 O390 2.308 . S
Tb347 C411 2.802 1_455 S
N348 C344 1.361 . S
N348 Tb347 2.572 1_655 S
N348 C350 1.340 . S
C349 C343 1.416 . S
C349 C351 1.332 . S
C349 H357 0.931 . S
C350 N348 1.340 . S
C350 C351 1.407 . S
C350 H356 0.930 . S
C351 C349 1.332 . S
C351 C350 1.407 . S
C351 H353 0.929 . S
H352 C341 0.930 . S
H353 C351 0.929 . S
H354 C369 0.930 . S
H355 C376 0.929 . S
H356 C350 0.930 . S
H357 C349 0.931 . S
H358 C372 0.930 . S
H359 C339 0.930 . S
H360 C345 0.929 . S
H361 C346 0.930 . S
H362 C367 0.930 . S
H363 C342 0.930 . S
H364 C375 0.931 . S
N365 Tb336 2.617 . S
N365 C366 1.379 . S
N365 C369 1.334 . S
C366 N365 1.379 . S
C366 C368 1.416 . S
C366 C374 1.424 . S
C367 H362 0.930 . S
C367 C369 1.390 . S
C367 C370 1.339 . S
C368 C366 1.416 . S
C368 C370 1.416 . S
C368 C401 1.448 . S
C369 H354 0.930 . S
C369 N365 1.334 . S
C369 C367 1.390 . S
C370 C367 1.339 . S
C370 C368 1.416 . S
C370 H377 0.930 . S
N371 Tb336 2.572 . S
N371 C372 1.340 . S
N371 C374 1.361 . S
C372 H358 0.930 . S
C372 N371 1.340 . S
C372 C376 1.407 . S
C373 C374 1.413 . S
C373 C375 1.416 . S
C373 C402 1.427 . S
C374 C366 1.424 . S
C374 N371 1.361 . S
C374 C373 1.413 . S
C375 H364 0.931 . S
C375 C373 1.416 . S
C375 C376 1.332 . S
C376 H355 0.929 . S
C376 C372 1.407 . S
C376 C375 1.332 . S
H377 C370 0.930 . S
H378 C401 0.930 . S
H379 C402 0.929 . S
O380 Tb336 2.465 . S
O380 C400 1.264 . S
O381 Tb336 2.387 . S
O381 C392 1.264 . S
O382 Tb347 2.349 . S
O382 C392 1.243 . S
O383 Tb336 2.428 . S
O383 C400 1.256 . S
O384 Tb336 2.308 . S
O384 C399 1.266 . S
O385 Tb347 2.393 . S
O385 C399 1.248 . S
O386 Tb347 2.465 1_655 S
O386 C411 1.264 . S
O387 Tb347 2.387 . S
O387 C403 1.264 . S
O388 Tb336 2.349 . S
O388 C403 1.243 . S
O389 Tb347 2.428 . S
O389 C411 1.256 1_455 S
O390 Tb347 2.308 . S
O390 C410 1.266 . S
O391 Tb336 2.393 . S
O391 C410 1.248 . S
C392 O381 1.264 . S
C392 O382 1.243 . S
C393 C396 1.399 . S
C393 C398 1.383 . S
C393 C400 1.496 . S
C394 C395 1.399 . S
C394 C398 1.389 . S
C395 C394 1.399 . S
C395 C397 1.380 . S
C395 H412 0.929 . S
C396 C393 1.399 . S
C396 C397 1.392 . S
C396 H413 0.929 . S
C397 C395 1.380 . S
C397 C396 1.392 . S
C397 H414 0.929 . S
C398 C393 1.383 . S
C398 C394 1.389 . S
C398 H415 0.931 . S
C399 O384 1.266 . S
C399 O385 1.248 . S
C400 Tb336 2.802 . S
C400 O380 1.264 . S
C400 O383 1.256 . S
C400 C393 1.496 . S
C401 C368 1.448 . S
C401 H378 0.930 . S
C401 C402 1.328 . S
C402 C373 1.427 . S
C402 H379 0.929 . S
C402 C401 1.328 . S
C403 O387 1.264 . S
C403 O388 1.243 . S
C404 C407 1.399 . S
C404 C408 1.383 . S
C404 C411 1.496 . S
C405 C406 1.399 . S
C405 C408 1.389 . S
C406 C405 1.399 . S
C406 C409 1.380 . S
C406 H416 0.929 . S
C407 C404 1.399 . S
C407 C409 1.392 . S
C407 H417 0.929 . S
C408 C404 1.383 . S
C408 C405 1.389 . S
C408 H418 0.931 . S
C409 C406 1.380 . S
C409 C407 1.392 . S
C409 H419 0.929 . S
C410 O390 1.266 . S
C410 O391 1.248 . S
C411 Tb347 2.802 1_655 S
C411 O386 1.264 . S
C411 O389 1.256 1_655 S
C411 C404 1.496 . S
H412 C395 0.929 . S
H413 C396 0.929 . S
H414 C397 0.929 . S
H415 C398 0.931 . S
H416 C406 0.929 . S
H417 C407 0.929 . S
H418 C408 0.931 . S
H419 C409 0.929 . S
Tb420 N449 2.617 . S
Tb420 N455 2.572 . S
Tb420 O464 2.465 . S
Tb420 O465 2.387 . S
Tb420 O467 2.428 . S
Tb420 O468 2.308 . S
Tb420 O472 2.349 . S
Tb420 O475 2.393 . S
Tb420 C484 2.802 . S
C421 N422 1.379 . S
C421 C424 1.416 . S
C421 C428 1.424 . S
N422 C421 1.379 . S
N422 C425 1.334 . S
N422 Tb431 2.617 . S
C423 C425 1.390 . S
C423 C426 1.339 . S
C423 H443 0.930 . S
C424 C421 1.416 . S
C424 C426 1.416 . S
C424 C430 1.448 . S
C425 N422 1.334 . S
C425 C423 1.390 . S
C425 H436 0.930 . S
C426 C423 1.339 . S
C426 C424 1.416 . S
C426 H447 0.930 . S
C427 C428 1.413 . S
C427 C429 1.427 . S
C427 C433 1.416 . S
C428 C421 1.424 . S
C428 C427 1.413 . S
C428 N432 1.361 . S
C429 C427 1.427 . S
C429 C430 1.328 . S
C429 H444 0.929 . S
C430 C424 1.448 . S
C430 C429 1.328 . S
C430 H445 0.930 . S
Tb431 N422 2.617 . S
Tb431 N432 2.572 . S
Tb431 O466 2.349 . S
Tb431 O469 2.393 . S
Tb431 O470 2.465 . S
Tb431 O471 2.387 . S
Tb431 O473 2.428 . S
Tb431 O474 2.308 . S
Tb431 C495 2.802 . S
N432 C428 1.361 . S
N432 Tb431 2.572 . S
N432 C434 1.340 . S
C433 C427 1.416 . S
C433 C435 1.332 . S
C433 H441 0.931 . S
C434 N432 1.340 . S
C434 C435 1.407 . S
C434 H440 0.930 . S
C435 C433 1.332 . S
C435 C434 1.407 . S
C435 H437 0.929 . S
H436 C425 0.930 . S
H437 C435 0.929 . S
H438 C453 0.930 . S
H439 C460 0.929 . S
H440 C434 0.930 . S
H441 C433 0.931 . S
H442 C456 0.930 . S
H443 C423 0.930 . S
H444 C429 0.929 . S
H445 C430 0.930 . S
H446 C451 0.930 . S
H447 C426 0.930 . S
H448 C459 0.931 . S
N449 Tb420 2.617 . S
N449 C450 1.379 . S
N449 C453 1.334 . S
C450 N449 1.379 . S
C450 C452 1.416 . S
C450 C458 1.424 . S
C451 H446 0.930 . S
C451 C453 1.390 . S
C451 C454 1.339 . S
C452 C450 1.416 . S
C452 C454 1.416 . S
C452 C485 1.448 . S
C453 H438 0.930 . S
C453 N449 1.334 . S
C453 C451 1.390 . S
C454 C451 1.339 . S
C454 C452 1.416 . S
C454 H461 0.930 . S
N455 Tb420 2.572 . S
N455 C456 1.340 . S
N455 C458 1.361 . S
C456 H442 0.930 . S
C456 N455 1.340 . S
C456 C460 1.407 . S
C457 C458 1.413 . S
C457 C459 1.416 . S
C457 C486 1.427 . S
C458 C450 1.424 . S
C458 N455 1.361 . S
C458 C457 1.413 . S
C459 H448 0.931 . S
C459 C457 1.416 . S
C459 C460 1.332 . S
C460 H439 0.929 . S
C460 C456 1.407 . S
C460 C459 1.332 . S
H461 C454 0.930 . S
H462 C485 0.930 . S
H463 C486 0.929 . S
O464 Tb420 2.465 . S
O464 C484 1.264 . S
O465 Tb420 2.387 . S
O465 C476 1.264 . S
O466 Tb431 2.349 . S
O466 C476 1.243 . S
O467 Tb420 2.428 . S
O467 C484 1.256 . S
O468 Tb420 2.308 . S
O468 C483 1.266 . S
O469 Tb431 2.393 . S
O469 C483 1.248 . S
O470 Tb431 2.465 . S
O470 C495 1.264 . S
O471 Tb431 2.387 . S
O471 C487 1.264 . S
O472 Tb420 2.349 . S
O472 C487 1.243 . S
O473 Tb431 2.428 . S
O473 C495 1.256 . S
O474 Tb431 2.308 . S
O474 C494 1.266 . S
O475 Tb420 2.393 . S
O475 C494 1.248 . S
C476 O465 1.264 . S
C476 O466 1.243 . S
C477 C480 1.399 . S
C477 C482 1.383 . S
C477 C484 1.496 . S
C478 C479 1.399 . S
C478 C482 1.389 . S
C479 C478 1.399 . S
C479 C481 1.380 . S
C479 H496 0.929 . S
C480 C477 1.399 . S
C480 C481 1.392 . S
C480 H497 0.929 . S
C481 C479 1.380 . S
C481 C480 1.392 . S
C481 H498 0.929 . S
C482 C477 1.383 . S
C482 C478 1.389 . S
C482 H499 0.931 . S
C483 O468 1.266 . S
C483 O469 1.248 . S
C484 Tb420 2.802 . S
C484 O464 1.264 . S
C484 O467 1.256 . S
C484 C477 1.496 . S
C485 C452 1.448 . S
C485 H462 0.930 . S
C485 C486 1.328 . S
C486 C457 1.427 . S
C486 H463 0.929 . S
C486 C485 1.328 . S
C487 O471 1.264 . S
C487 O472 1.243 . S
C488 C491 1.399 . S
C488 C492 1.383 . S
C488 C495 1.496 . S
C489 C490 1.399 . S
C489 C492 1.389 . S
C490 C489 1.399 . S
C490 C493 1.380 . S
C490 H500 0.929 . S
C491 C488 1.399 . S
C491 C493 1.392 . S
C491 H501 0.929 . S
C492 C488 1.383 . S
C492 C489 1.389 . S
C492 H502 0.931 . S
C493 C490 1.380 . S
C493 C491 1.392 . S
C493 H503 0.929 . S
C494 O474 1.266 . S
C494 O475 1.248 . S
C495 Tb431 2.802 . S
C495 O470 1.264 . S
C495 O473 1.256 . S
C495 C488 1.496 . S
H496 C479 0.929 . S
H497 C480 0.929 . S
H498 C481 0.929 . S
H499 C482 0.931 . S
H500 C490 0.929 . S
H501 C491 0.929 . S
H502 C492 0.931 . S
H503 C493 0.929 . S
Tb504 N533 2.617 . S
Tb504 N539 2.572 . S
Tb504 O548 2.465 . S
Tb504 O549 2.387 . S
Tb504 O551 2.428 . S
Tb504 O552 2.308 . S
Tb504 O556 2.349 . S
Tb504 O559 2.393 . S
Tb504 C568 2.802 . S
C505 N506 1.379 . S
C505 C508 1.416 . S
C505 C512 1.424 . S
N506 C505 1.379 . S
N506 C509 1.334 . S
N506 Tb515 2.617 . S
C507 C509 1.390 . S
C507 C510 1.339 . S
C507 H527 0.930 . S
C508 C505 1.416 . S
C508 C510 1.416 . S
C508 C514 1.448 . S
C509 N506 1.334 . S
C509 C507 1.390 . S
C509 H520 0.930 . S
C510 C507 1.339 . S
C510 C508 1.416 . S
C510 H531 0.930 . S
C511 C512 1.413 . S
C511 C513 1.427 . S
C511 C517 1.416 . S
C512 C505 1.424 . S
C512 C511 1.413 . S
C512 N516 1.361 . S
C513 C511 1.427 . S
C513 C514 1.328 . S
C513 H528 0.929 . S
C514 C508 1.448 . S
C514 C513 1.328 . S
C514 H529 0.930 . S
Tb515 N506 2.617 . S
Tb515 N516 2.572 . S
Tb515 O550 2.349 . S
Tb515 O553 2.393 . S
Tb515 O554 2.465 . S
Tb515 O555 2.387 . S
Tb515 O557 2.428 . S
Tb515 O558 2.308 . S
Tb515 C579 2.802 . S
N516 C512 1.361 . S
N516 Tb515 2.572 . S
N516 C518 1.340 . S
C517 C511 1.416 . S
C517 C519 1.332 . S
C517 H525 0.931 . S
C518 N516 1.340 . S
C518 C519 1.407 . S
C518 H524 0.930 . S
C519 C517 1.332 . S
C519 C518 1.407 . S
C519 H521 0.929 . S
H520 C509 0.930 . S
H521 C519 0.929 . S
H522 C537 0.930 . S
H523 C544 0.929 . S
H524 C518 0.930 . S
H525 C517 0.931 . S
H526 C540 0.930 . S
H527 C507 0.930 . S
H528 C513 0.929 . S
H529 C514 0.930 . S
H530 C535 0.930 . S
H531 C510 0.930 . S
H532 C543 0.931 . S
N533 Tb504 2.617 . S
N533 C534 1.379 . S
N533 C537 1.334 . S
C534 N533 1.379 . S
C534 C536 1.416 . S
C534 C542 1.424 . S
C535 H530 0.930 . S
C535 C537 1.390 . S
C535 C538 1.339 . S
C536 C534 1.416 . S
C536 C538 1.416 . S
C536 C569 1.448 . S
C537 H522 0.930 . S
C537 N533 1.334 . S
C537 C535 1.390 . S
C538 C535 1.339 . S
C538 C536 1.416 . S
C538 H545 0.930 . S
N539 Tb504 2.572 . S
N539 C540 1.340 . S
N539 C542 1.361 . S
C540 H526 0.930 . S
C540 N539 1.340 . S
C540 C544 1.407 . S
C541 C542 1.413 . S
C541 C543 1.416 . S
C541 C570 1.427 . S
C542 C534 1.424 . S
C542 N539 1.361 . S
C542 C541 1.413 . S
C543 H532 0.931 . S
C543 C541 1.416 . S
C543 C544 1.332 . S
C544 H523 0.929 . S
C544 C540 1.407 . S
C544 C543 1.332 . S
H545 C538 0.930 . S
H546 C569 0.930 . S
H547 C570 0.929 . S
O548 Tb504 2.465 . S
O548 C568 1.264 . S
O549 Tb504 2.387 . S
O549 C560 1.264 . S
O550 Tb515 2.349 . S
O550 C560 1.243 . S
O551 Tb504 2.428 . S
O551 C568 1.256 . S
O552 Tb504 2.308 . S
O552 C567 1.266 . S
O553 Tb515 2.393 . S
O553 C567 1.248 . S
O554 Tb515 2.465 . S
O554 C579 1.264 . S
O555 Tb515 2.387 . S
O555 C571 1.264 . S
O556 Tb504 2.349 . S
O556 C571 1.243 . S
O557 Tb515 2.428 . S
O557 C579 1.256 . S
O558 Tb515 2.308 . S
O558 C578 1.266 . S
O559 Tb504 2.393 . S
O559 C578 1.248 . S
C560 O549 1.264 . S
C560 O550 1.243 . S
C561 C564 1.399 . S
C561 C566 1.383 . S
C561 C568 1.496 . S
C562 C563 1.399 . S
C562 C566 1.389 . S
C563 C562 1.399 . S
C563 C565 1.380 . S
C563 H580 0.929 . S
C564 C561 1.399 . S
C564 C565 1.392 . S
C564 H581 0.929 . S
C565 C563 1.380 . S
C565 C564 1.392 . S
C565 H582 0.929 . S
C566 C561 1.383 . S
C566 C562 1.389 . S
C566 H583 0.931 . S
C567 O552 1.266 . S
C567 O553 1.248 . S
C568 Tb504 2.802 . S
C568 O548 1.264 . S
C568 O551 1.256 . S
C568 C561 1.496 . S
C569 C536 1.448 . S
C569 H546 0.930 . S
C569 C570 1.328 . S
C570 C541 1.427 . S
C570 H547 0.929 . S
C570 C569 1.328 . S
C571 O555 1.264 . S
C571 O556 1.243 . S
C572 C575 1.399 . S
C572 C576 1.383 . S
C572 C579 1.496 . S
C573 C574 1.399 . S
C573 C576 1.389 . S
C574 C573 1.399 . S
C574 C577 1.380 . S
C574 H584 0.929 . S
C575 C572 1.399 . S
C575 C577 1.392 . S
C575 H585 0.929 . S
C576 C572 1.383 . S
C576 C573 1.389 . S
C576 H586 0.931 . S
C577 C574 1.380 . S
C577 C575 1.392 . S
C577 H587 0.929 . S
C578 O558 1.266 . S
C578 O559 1.248 . S
C579 Tb515 2.802 . S
C579 O554 1.264 . S
C579 O557 1.256 . S
C579 C572 1.496 . S
H580 C563 0.929 . S
H581 C564 0.929 . S
H582 C565 0.929 . S
H583 C566 0.931 . S
H584 C574 0.929 . S
H585 C575 0.929 . S
H586 C576 0.931 . S
H587 C577 0.929 . S
Tb588 N617 2.617 . S
Tb588 N623 2.572 . S
Tb588 O632 2.465 . S
Tb588 O633 2.387 . S
Tb588 O635 2.428 1_554 S
Tb588 O636 2.308 . S
Tb588 O640 2.349 . S
Tb588 O643 2.393 . S
Tb588 C652 2.802 1_554 S
C589 N590 1.379 . S
C589 C592 1.416 . S
C589 C596 1.424 . S
N590 C589 1.379 . S
N590 C593 1.334 . S
N590 Tb599 2.617 . S
C591 C593 1.390 . S
C591 C594 1.339 . S
C591 H611 0.930 . S
C592 C589 1.416 . S
C592 C594 1.416 . S
C592 C598 1.448 . S
C593 N590 1.334 . S
C593 C591 1.390 . S
C593 H604 0.930 . S
C594 C591 1.339 . S
C594 C592 1.416 . S
C594 H615 0.930 . S
C595 C596 1.413 . S
C595 C597 1.427 . S
C595 C601 1.416 . S
C596 C589 1.424 . S
C596 C595 1.413 . S
C596 N600 1.361 . S
C597 C595 1.427 . S
C597 C598 1.328 . S
C597 H612 0.929 . S
C598 C592 1.448 . S
C598 C597 1.328 . S
C598 H613 0.930 . S
Tb599 N590 2.617 . S
Tb599 N600 2.572 . S
Tb599 O634 2.349 . S
Tb599 O637 2.393 . S
Tb599 O638 2.465 . S
Tb599 O639 2.387 . S
Tb599 O641 2.428 . S
Tb599 O642 2.308 . S
Tb599 C663 2.802 . S
N600 C596 1.361 . S
N600 Tb599 2.572 . S
N600 C602 1.340 . S
C601 C595 1.416 . S
C601 C603 1.332 . S
C601 H609 0.931 . S
C602 N600 1.340 . S
C602 C603 1.407 . S
C602 H608 0.930 . S
C603 C601 1.332 . S
C603 C602 1.407 . S
C603 H605 0.929 . S
H604 C593 0.930 . S
H605 C603 0.929 . S
H606 C621 0.930 . S
H607 C628 0.929 . S
H608 C602 0.930 . S
H609 C601 0.931 . S
H610 C624 0.930 . S
H611 C591 0.930 . S
H612 C597 0.929 . S
H613 C598 0.930 . S
H614 C619 0.930 . S
H615 C594 0.930 . S
H616 C627 0.931 . S
N617 Tb588 2.617 . S
N617 C618 1.379 . S
N617 C621 1.334 1_554 S
C618 N617 1.379 . S
C618 C620 1.416 . S
C618 C626 1.424 . S
C619 H614 0.930 . S
C619 C621 1.390 . S
C619 C622 1.339 . S
C620 C618 1.416 . S
C620 C622 1.416 1_554 S
C620 C653 1.448 . S
C621 H606 0.930 . S
C621 N617 1.334 1_556 S
C621 C619 1.390 . S
C622 C619 1.339 . S
C622 C620 1.416 1_556 S
C622 H629 0.930 . S
N623 Tb588 2.572 . S
N623 C624 1.340 . S
N623 C626 1.361 . S
C624 H610 0.930 . S
C624 N623 1.340 . S
C624 C628 1.407 . S
C625 C626 1.413 . S
C625 C627 1.416 . S
C625 C654 1.427 . S
C626 C618 1.424 . S
C626 N623 1.361 . S
C626 C625 1.413 . S
C627 H616 0.931 . S
C627 C625 1.416 . S
C627 C628 1.332 . S
C628 H607 0.929 . S
C628 C624 1.407 . S
C628 C627 1.332 . S
H629 C622 0.930 . S
H630 C653 0.930 . S
H631 C654 0.929 . S
O632 Tb588 2.465 . S
O632 C652 1.264 1_554 S
O633 Tb588 2.387 . S
O633 C644 1.264 . S
O634 Tb599 2.349 . S
O634 C644 1.243 . S
O635 Tb588 2.428 1_556 S
O635 C652 1.256 . S
O636 Tb588 2.308 . S
O636 C651 1.266 . S
O637 Tb599 2.393 . S
O637 C651 1.248 . S
O638 Tb599 2.465 . S
O638 C663 1.264 . S
O639 Tb599 2.387 . S
O639 C655 1.264 . S
O640 Tb588 2.349 . S
O640 C655 1.243 . S
O641 Tb599 2.428 . S
O641 C663 1.256 . S
O642 Tb599 2.308 . S
O642 C662 1.266 . S
O643 Tb588 2.393 . S
O643 C662 1.248 . S
C644 O633 1.264 . S
C644 O634 1.243 . S
C645 C648 1.399 . S
C645 C650 1.383 . S
C645 C652 1.496 . S
C646 C647 1.399 . S
C646 C650 1.389 . S
C647 C646 1.399 . S
C647 C649 1.380 . S
C647 H664 0.929 . S
C648 C645 1.399 . S
C648 C649 1.392 . S
C648 H665 0.929 . S
C649 C647 1.380 . S
C649 C648 1.392 . S
C649 H666 0.929 . S
C650 C645 1.383 . S
C650 C646 1.389 . S
C650 H667 0.931 . S
C651 O636 1.266 . S
C651 O637 1.248 . S
C652 Tb588 2.802 1_556 S
C652 O632 1.264 1_556 S
C652 O635 1.256 . S
C652 C645 1.496 . S
C653 C620 1.448 . S
C653 H630 0.930 . S
C653 C654 1.328 . S
C654 C625 1.427 . S
C654 H631 0.929 . S
C654 C653 1.328 . S
C655 O639 1.264 . S
C655 O640 1.243 . S
C656 C659 1.399 . S
C656 C660 1.383 . S
C656 C663 1.496 . S
C657 C658 1.399 . S
C657 C660 1.389 . S
C658 C657 1.399 . S
C658 C661 1.380 . S
C658 H668 0.929 . S
C659 C656 1.399 . S
C659 C661 1.392 . S
C659 H669 0.929 . S
C660 C656 1.383 . S
C660 C657 1.389 . S
C660 H670 0.931 . S
C661 C658 1.380 . S
C661 C659 1.392 . S
C661 H671 0.929 . S
C662 O642 1.266 . S
C662 O643 1.248 . S
C663 Tb599 2.802 . S
C663 O638 1.264 . S
C663 O641 1.256 . S
C663 C656 1.496 . S
H664 C647 0.929 . S
H665 C648 0.929 . S
H666 C649 0.929 . S
H667 C650 0.931 . S
H668 C658 0.929 . S
H669 C659 0.929 . S
H670 C660 0.931 . S
H671 C661 0.929 . S
Tb672 N701 2.617 . S
Tb672 N707 2.572 . S
Tb672 O716 2.465 . S
Tb672 O717 2.387 . S
Tb672 O719 2.428 . S
Tb672 O720 2.308 . S
Tb672 O724 2.349 . S
Tb672 O727 2.393 . S
Tb672 C736 2.802 . S
C673 N674 1.379 1_565 S
C673 C676 1.416 . S
C673 C680 1.424 . S
N674 C673 1.379 1_545 S
N674 C677 1.334 . S
N674 Tb683 2.617 . S
C675 C677 1.390 . S
C675 C678 1.339 1_545 S
C675 H695 0.930 . S
C676 C673 1.416 . S
C676 C678 1.416 . S
C676 C682 1.448 . S
C677 N674 1.334 . S
C677 C675 1.390 . S
C677 H688 0.930 . S
C678 C675 1.339 1_565 S
C678 C676 1.416 . S
C678 H699 0.930 . S
C679 C680 1.413 . S
C679 C681 1.427 . S
C679 C685 1.416 . S
C680 C673 1.424 . S
C680 C679 1.413 . S
C680 N684 1.361 . S
C681 C679 1.427 . S
C681 C682 1.328 . S
C681 H696 0.929 . S
C682 C676 1.448 . S
C682 C681 1.328 . S
C682 H697 0.930 . S
Tb683 N674 2.617 . S
Tb683 N684 2.572 1_545 S
Tb683 O718 2.349 . S
Tb683 O721 2.393 . S
Tb683 O722 2.465 1_545 S
Tb683 O723 2.387 . S
Tb683 O725 2.428 . S
Tb683 O726 2.308 . S
Tb683 C747 2.802 1_545 S
N684 C680 1.361 . S
N684 Tb683 2.572 1_565 S
N684 C686 1.340 . S
C685 C679 1.416 . S
C685 C687 1.332 . S
C685 H693 0.931 . S
C686 N684 1.340 . S
C686 C687 1.407 . S
C686 H692 0.930 . S
C687 C685 1.332 . S
C687 C686 1.407 . S
C687 H689 0.929 . S
H688 C677 0.930 . S
H689 C687 0.929 . S
H690 C705 0.930 . S
H691 C712 0.929 . S
H692 C686 0.930 . S
H693 C685 0.931 . S
H694 C708 0.930 . S
H695 C675 0.930 . S
H696 C681 0.929 . S
H697 C682 0.930 . S
H698 C703 0.930 . S
H699 C678 0.930 . S
H700 C711 0.931 . S
N701 Tb672 2.617 . S
N701 C702 1.379 . S
N701 C705 1.334 . S
C702 N701 1.379 . S
C702 C704 1.416 . S
C702 C710 1.424 . S
C703 H698 0.930 . S
C703 C705 1.390 . S
C703 C706 1.339 . S
C704 C702 1.416 . S
C704 C706 1.416 . S
C704 C737 1.448 . S
C705 H690 0.930 . S
C705 N701 1.334 . S
C705 C703 1.390 . S
C706 C703 1.339 . S
C706 C704 1.416 . S
C706 H713 0.930 . S
N707 Tb672 2.572 . S
N707 C708 1.340 . S
N707 C710 1.361 . S
C708 H694 0.930 . S
C708 N707 1.340 . S
C708 C712 1.407 . S
C709 C710 1.413 . S
C709 C711 1.416 . S
C709 C738 1.427 . S
C710 C702 1.424 . S
C710 N707 1.361 . S
C710 C709 1.413 . S
C711 H700 0.931 . S
C711 C709 1.416 . S
C711 C712 1.332 . S
C712 H691 0.929 . S
C712 C708 1.407 . S
C712 C711 1.332 . S
H713 C706 0.930 . S
H714 C737 0.930 . S
H715 C738 0.929 . S
O716 Tb672 2.465 . S
O716 C736 1.264 . S
O717 Tb672 2.387 . S
O717 C728 1.264 . S
O718 Tb683 2.349 . S
O718 C728 1.243 . S
O719 Tb672 2.428 . S
O719 C736 1.256 . S
O720 Tb672 2.308 . S
O720 C735 1.266 . S
O721 Tb683 2.393 . S
O721 C735 1.248 . S
O722 Tb683 2.465 1_565 S
O722 C747 1.264 . S
O723 Tb683 2.387 . S
O723 C739 1.264 . S
O724 Tb672 2.349 . S
O724 C739 1.243 . S
O725 Tb683 2.428 . S
O725 C747 1.256 1_545 S
O726 Tb683 2.308 . S
O726 C746 1.266 . S
O727 Tb672 2.393 . S
O727 C746 1.248 . S
C728 O717 1.264 . S
C728 O718 1.243 . S
C729 C732 1.399 . S
C729 C734 1.383 . S
C729 C736 1.496 . S
C730 C731 1.399 . S
C730 C734 1.389 . S
C731 C730 1.399 . S
C731 C733 1.380 . S
C731 H748 0.929 . S
C732 C729 1.399 . S
C732 C733 1.392 . S
C732 H749 0.929 . S
C733 C731 1.380 . S
C733 C732 1.392 . S
C733 H750 0.929 . S
C734 C729 1.383 . S
C734 C730 1.389 . S
C734 H751 0.931 . S
C735 O720 1.266 . S
C735 O721 1.248 . S
C736 Tb672 2.802 . S
C736 O716 1.264 . S
C736 O719 1.256 . S
C736 C729 1.496 . S
C737 C704 1.448 . S
C737 H714 0.930 . S
C737 C738 1.328 . S
C738 C709 1.427 . S
C738 H715 0.929 . S
C738 C737 1.328 . S
C739 O723 1.264 . S
C739 O724 1.243 . S
C740 C743 1.399 . S
C740 C744 1.383 . S
C740 C747 1.496 . S
C741 C742 1.399 . S
C741 C744 1.389 . S
C742 C741 1.399 . S
C742 C745 1.380 . S
C742 H752 0.929 . S
C743 C740 1.399 . S
C743 C745 1.392 . S
C743 H753 0.929 . S
C744 C740 1.383 . S
C744 C741 1.389 . S
C744 H754 0.931 . S
C745 C742 1.380 . S
C745 C743 1.392 . S
C745 H755 0.929 . S
C746 O726 1.266 . S
C746 O727 1.248 . S
C747 Tb683 2.802 1_565 S
C747 O722 1.264 . S
C747 O725 1.256 1_565 S
C747 C740 1.496 . S
H748 C731 0.929 . S
H749 C732 0.929 . S
H750 C733 0.929 . S
H751 C734 0.931 . S
H752 C742 0.929 . S
H753 C743 0.929 . S
H754 C744 0.931 . S
H755 C745 0.929 . S
Tb756 N785 2.617 . S
Tb756 N791 2.572 . S
Tb756 O800 2.465 . S
Tb756 O801 2.387 . S
Tb756 O803 2.428 1_565 S
Tb756 O804 2.308 . S
Tb756 O808 2.349 . S
Tb756 O811 2.393 . S
Tb756 C820 2.802 1_565 S
C757 N758 1.379 . S
C757 C760 1.416 . S
C757 C764 1.424 . S
N758 C757 1.379 . S
N758 C761 1.334 . S
N758 Tb767 2.617 . S
C759 C761 1.390 . S
C759 C762 1.339 . S
C759 H779 0.930 . S
C760 C757 1.416 . S
C760 C762 1.416 . S
C760 C766 1.448 . S
C761 N758 1.334 . S
C761 C759 1.390 . S
C761 H772 0.930 . S
C762 C759 1.339 . S
C762 C760 1.416 . S
C762 H783 0.930 . S
C763 C764 1.413 . S
C763 C765 1.427 . S
C763 C769 1.416 . S
C764 C757 1.424 . S
C764 C763 1.413 . S
C764 N768 1.361 . S
C765 C763 1.427 . S
C765 C766 1.328 . S
C765 H780 0.929 . S
C766 C760 1.448 . S
C766 C765 1.328 . S
C766 H781 0.930 . S
Tb767 N758 2.617 . S
Tb767 N768 2.572 . S
Tb767 O802 2.349 . S
Tb767 O805 2.393 . S
Tb767 O806 2.465 . S
Tb767 O807 2.387 . S
Tb767 O809 2.428 . S
Tb767 O810 2.308 . S
Tb767 C831 2.802 . S
N768 C764 1.361 . S
N768 Tb767 2.572 . S
N768 C770 1.340 . S
C769 C763 1.416 . S
C769 C771 1.332 . S
C769 H777 0.931 . S
C770 N768 1.340 . S
C770 C771 1.407 . S
C770 H776 0.930 . S
C771 C769 1.332 . S
C771 C770 1.407 . S
C771 H773 0.929 . S
H772 C761 0.930 . S
H773 C771 0.929 . S
H774 C789 0.930 . S
H775 C796 0.929 . S
H776 C770 0.930 . S
H777 C769 0.931 . S
H778 C792 0.930 . S
H779 C759 0.930 . S
H780 C765 0.929 . S
H781 C766 0.930 . S
H782 C787 0.930 . S
H783 C762 0.930 . S
H784 C795 0.931 . S
N785 Tb756 2.617 . S
N785 C786 1.379 . S
N785 C789 1.334 1_565 S
C786 N785 1.379 . S
C786 C788 1.416 . S
C786 C794 1.424 . S
C787 H782 0.930 . S
C787 C789 1.390 . S
C787 C790 1.339 . S
C788 C786 1.416 . S
C788 C790 1.416 1_565 S
C788 C821 1.448 . S
C789 H774 0.930 . S
C789 N785 1.334 1_545 S
C789 C787 1.390 . S
C790 C787 1.339 . S
C790 C788 1.416 1_545 S
C790 H797 0.930 . S
N791 Tb756 2.572 . S
N791 C792 1.340 . S
N791 C794 1.361 . S
C792 H778 0.930 . S
C792 N791 1.340 . S
C792 C796 1.407 . S
C793 C794 1.413 . S
C793 C795 1.416 . S
C793 C822 1.427 . S
C794 C786 1.424 . S
C794 N791 1.361 . S
C794 C793 1.413 . S
C795 H784 0.931 . S
C795 C793 1.416 . S
C795 C796 1.332 . S
C796 H775 0.929 . S
C796 C792 1.407 . S
C796 C795 1.332 . S
H797 C790 0.930 . S
H798 C821 0.930 . S
H799 C822 0.929 . S
O800 Tb756 2.465 . S
O800 C820 1.264 1_565 S
O801 Tb756 2.387 . S
O801 C812 1.264 . S
O802 Tb767 2.349 . S
O802 C812 1.243 . S
O803 Tb756 2.428 1_545 S
O803 C820 1.256 . S
O804 Tb756 2.308 . S
O804 C819 1.266 . S
O805 Tb767 2.393 . S
O805 C819 1.248 . S
O806 Tb767 2.465 . S
O806 C831 1.264 . S
O807 Tb767 2.387 . S
O807 C823 1.264 . S
O808 Tb756 2.349 . S
O808 C823 1.243 . S
O809 Tb767 2.428 . S
O809 C831 1.256 . S
O810 Tb767 2.308 . S
O810 C830 1.266 . S
O811 Tb756 2.393 . S
O811 C830 1.248 . S
C812 O801 1.264 . S
C812 O802 1.243 . S
C813 C816 1.399 . S
C813 C818 1.383 . S
C813 C820 1.496 . S
C814 C815 1.399 . S
C814 C818 1.389 . S
C815 C814 1.399 . S
C815 C817 1.380 . S
C815 H832 0.929 . S
C816 C813 1.399 . S
C816 C817 1.392 . S
C816 H833 0.929 . S
C817 C815 1.380 . S
C817 C816 1.392 . S
C817 H834 0.929 . S
C818 C813 1.383 . S
C818 C814 1.389 . S
C818 H835 0.931 . S
C819 O804 1.266 . S
C819 O805 1.248 . S
C820 Tb756 2.802 1_545 S
C820 O800 1.264 1_545 S
C820 O803 1.256 . S
C820 C813 1.496 . S
C821 C788 1.448 . S
C821 H798 0.930 . S
C821 C822 1.328 . S
C822 C793 1.427 . S
C822 H799 0.929 . S
C822 C821 1.328 . S
C823 O807 1.264 . S
C823 O808 1.243 . S
C824 C827 1.399 . S
C824 C828 1.383 . S
C824 C831 1.496 . S
C825 C826 1.399 . S
C825 C828 1.389 . S
C826 C825 1.399 . S
C826 C829 1.380 . S
C826 H836 0.929 . S
C827 C824 1.399 . S
C827 C829 1.392 . S
C827 H837 0.929 . S
C828 C824 1.383 . S
C828 C825 1.389 . S
C828 H838 0.931 . S
C829 C826 1.380 . S
C829 C827 1.392 . S
C829 H839 0.929 . S
C830 O810 1.266 . S
C830 O811 1.248 . S
C831 Tb767 2.802 . S
C831 O806 1.264 . S
C831 O809 1.256 . S
C831 C824 1.496 . S
H832 C815 0.929 . S
H833 C816 0.929 . S
H834 C817 0.929 . S
H835 C818 0.931 . S
H836 C826 0.929 . S
H837 C827 0.929 . S
H838 C828 0.931 . S
H839 C829 0.929 . S
Tb840 N869 2.617 . S
Tb840 N875 2.572 . S
Tb840 O884 2.465 . S
Tb840 O885 2.387 . S
Tb840 O887 2.428 . S
Tb840 O888 2.308 . S
Tb840 O892 2.349 . S
Tb840 O895 2.393 . S
Tb840 C904 2.802 . S
C841 N842 1.379 1_545 S
C841 C844 1.416 . S
C841 C848 1.424 . S
N842 C841 1.379 1_565 S
N842 C845 1.334 . S
N842 Tb851 2.617 . S
C843 C845 1.390 . S
C843 C846 1.339 1_565 S
C843 H863 0.930 . S
C844 C841 1.416 . S
C844 C846 1.416 . S
C844 C850 1.448 . S
C845 N842 1.334 . S
C845 C843 1.390 . S
C845 H856 0.930 . S
C846 C843 1.339 1_545 S
C846 C844 1.416 . S
C846 H867 0.930 . S
C847 C848 1.413 . S
C847 C849 1.427 . S
C847 C853 1.416 . S
C848 C841 1.424 . S
C848 C847 1.413 . S
C848 N852 1.361 . S
C849 C847 1.427 . S
C849 C850 1.328 . S
C849 H864 0.929 . S
C850 C844 1.448 . S
C850 C849 1.328 . S
C850 H865 0.930 . S
Tb851 N842 2.617 . S
Tb851 N852 2.572 1_565 S
Tb851 O886 2.349 . S
Tb851 O889 2.393 . S
Tb851 O890 2.465 1_565 S
Tb851 O891 2.387 . S
Tb851 O893 2.428 . S
Tb851 O894 2.308 . S
Tb851 C915 2.802 1_565 S
N852 C848 1.361 . S
N852 Tb851 2.572 1_545 S
N852 C854 1.340 . S
C853 C847 1.416 . S
C853 C855 1.332 . S
C853 H861 0.931 . S
C854 N852 1.340 . S
C854 C855 1.407 . S
C854 H860 0.930 . S
C855 C853 1.332 . S
C855 C854 1.407 . S
C855 H857 0.929 . S
H856 C845 0.930 . S
H857 C855 0.929 . S
H858 C873 0.930 . S
H859 C880 0.929 . S
H860 C854 0.930 . S
H861 C853 0.931 . S
H862 C876 0.930 . S
H863 C843 0.930 . S
H864 C849 0.929 . S
H865 C850 0.930 . S
H866 C871 0.930 . S
H867 C846 0.930 . S
H868 C879 0.931 . S
N869 Tb840 2.617 . S
N869 C870 1.379 . S
N869 C873 1.334 . S
C870 N869 1.379 . S
C870 C872 1.416 . S
C870 C878 1.424 . S
C871 H866 0.930 . S
C871 C873 1.390 . S
C871 C874 1.339 . S
C872 C870 1.416 . S
C872 C874 1.416 . S
C872 C905 1.448 . S
C873 H858 0.930 . S
C873 N869 1.334 . S
C873 C871 1.390 . S
C874 C871 1.339 . S
C874 C872 1.416 . S
C874 H881 0.930 . S
N875 Tb840 2.572 . S
N875 C876 1.340 . S
N875 C878 1.361 . S
C876 H862 0.930 . S
C876 N875 1.340 . S
C876 C880 1.407 . S
C877 C878 1.413 . S
C877 C879 1.416 . S
C877 C906 1.427 . S
C878 C870 1.424 . S
C878 N875 1.361 . S
C878 C877 1.413 . S
C879 H868 0.931 . S
C879 C877 1.416 . S
C879 C880 1.332 . S
C880 H859 0.929 . S
C880 C876 1.407 . S
C880 C879 1.332 . S
H881 C874 0.930 . S
H882 C905 0.930 . S
H883 C906 0.929 . S
O884 Tb840 2.465 . S
O884 C904 1.264 . S
O885 Tb840 2.387 . S
O885 C896 1.264 . S
O886 Tb851 2.349 . S
O886 C896 1.243 . S
O887 Tb840 2.428 . S
O887 C904 1.256 . S
O888 Tb840 2.308 . S
O888 C903 1.266 . S
O889 Tb851 2.393 . S
O889 C903 1.248 . S
O890 Tb851 2.465 1_545 S
O890 C915 1.264 . S
O891 Tb851 2.387 . S
O891 C907 1.264 . S
O892 Tb840 2.349 . S
O892 C907 1.243 . S
O893 Tb851 2.428 . S
O893 C915 1.256 1_565 S
O894 Tb851 2.308 . S
O894 C914 1.266 . S
O895 Tb840 2.393 . S
O895 C914 1.248 . S
C896 O885 1.264 . S
C896 O886 1.243 . S
C897 C900 1.399 . S
C897 C902 1.383 . S
C897 C904 1.496 . S
C898 C899 1.399 . S
C898 C902 1.389 . S
C899 C898 1.399 . S
C899 C901 1.380 . S
C899 H916 0.929 . S
C900 C897 1.399 . S
C900 C901 1.392 . S
C900 H917 0.929 . S
C901 C899 1.380 . S
C901 C900 1.392 . S
C901 H918 0.929 . S
C902 C897 1.383 . S
C902 C898 1.389 . S
C902 H919 0.931 . S
C903 O888 1.266 . S
C903 O889 1.248 . S
C904 Tb840 2.802 . S
C904 O884 1.264 . S
C904 O887 1.256 . S
C904 C897 1.496 . S
C905 C872 1.448 . S
C905 H882 0.930 . S
C905 C906 1.328 . S
C906 C877 1.427 . S
C906 H883 0.929 . S
C906 C905 1.328 . S
C907 O891 1.264 . S
C907 O892 1.243 . S
C908 C911 1.399 . S
C908 C912 1.383 . S
C908 C915 1.496 . S
C909 C910 1.399 . S
C909 C912 1.389 . S
C910 C909 1.399 . S
C910 C913 1.380 . S
C910 H920 0.929 . S
C911 C908 1.399 . S
C911 C913 1.392 . S
C911 H921 0.929 . S
C912 C908 1.383 . S
C912 C909 1.389 . S
C912 H922 0.931 . S
C913 C910 1.380 . S
C913 C911 1.392 . S
C913 H923 0.929 . S
C914 O894 1.266 . S
C914 O895 1.248 . S
C915 Tb851 2.802 1_545 S
C915 O890 1.264 . S
C915 O893 1.256 1_545 S
C915 C908 1.496 . S
H916 C899 0.929 . S
H917 C900 0.929 . S
H918 C901 0.929 . S
H919 C902 0.931 . S
H920 C910 0.929 . S
H921 C911 0.929 . S
H922 C912 0.931 . S
H923 C913 0.929 . S
Tb924 N953 2.617 . S
Tb924 N959 2.572 . S
Tb924 O968 2.465 . S
Tb924 O969 2.387 . S
Tb924 O971 2.428 1_545 S
Tb924 O972 2.308 . S
Tb924 O976 2.349 . S
Tb924 O979 2.393 . S
Tb924 C988 2.802 1_545 S
C925 N926 1.379 . S
C925 C928 1.416 . S
C925 C932 1.424 . S
N926 C925 1.379 . S
N926 C929 1.334 . S
N926 Tb935 2.617 . S
C927 C929 1.390 . S
C927 C930 1.339 . S
C927 H947 0.930 . S
C928 C925 1.416 . S
C928 C930 1.416 . S
C928 C934 1.448 . S
C929 N926 1.334 . S
C929 C927 1.390 . S
C929 H940 0.930 . S
C930 C927 1.339 . S
C930 C928 1.416 . S
C930 H951 0.930 . S
C931 C932 1.413 . S
C931 C933 1.427 . S
C931 C937 1.416 . S
C932 C925 1.424 . S
C932 C931 1.413 . S
C932 N936 1.361 . S
C933 C931 1.427 . S
C933 C934 1.328 . S
C933 H948 0.929 . S
C934 C928 1.448 . S
C934 C933 1.328 . S
C934 H949 0.930 . S
Tb935 N926 2.617 . S
Tb935 N936 2.572 . S
Tb935 O970 2.349 . S
Tb935 O973 2.393 . S
Tb935 O974 2.465 . S
Tb935 O975 2.387 . S
Tb935 O977 2.428 . S
Tb935 O978 2.308 . S
Tb935 C999 2.802 . S
N936 C932 1.361 . S
N936 Tb935 2.572 . S
N936 C938 1.340 . S
C937 C931 1.416 . S
C937 C939 1.332 . S
C937 H945 0.931 . S
C938 N936 1.340 . S
C938 C939 1.407 . S
C938 H944 0.930 . S
C939 C937 1.332 . S
C939 C938 1.407 . S
C939 H941 0.929 . S
H940 C929 0.930 . S
H941 C939 0.929 . S
H942 C957 0.930 . S
H943 C964 0.929 . S
H944 C938 0.930 . S
H945 C937 0.931 . S
H946 C960 0.930 . S
H947 C927 0.930 . S
H948 C933 0.929 . S
H949 C934 0.930 . S
H950 C955 0.930 . S
H951 C930 0.930 . S
H952 C963 0.931 . S
N953 Tb924 2.617 . S
N953 C954 1.379 . S
N953 C957 1.334 1_545 S
C954 N953 1.379 . S
C954 C956 1.416 . S
C954 C962 1.424 . S
C955 H950 0.930 . S
C955 C957 1.390 . S
C955 C958 1.339 . S
C956 C954 1.416 . S
C956 C958 1.416 1_545 S
C956 C989 1.448 . S
C957 H942 0.930 . S
C957 N953 1.334 1_565 S
C957 C955 1.390 . S
C958 C955 1.339 . S
C958 C956 1.416 1_565 S
C958 H965 0.930 . S
N959 Tb924 2.572 . S
N959 C960 1.340 . S
N959 C962 1.361 . S
C960 H946 0.930 . S
C960 N959 1.340 . S
C960 C964 1.407 . S
C961 C962 1.413 . S
C961 C963 1.416 . S
C961 C990 1.427 . S
C962 C954 1.424 . S
C962 N959 1.361 . S
C962 C961 1.413 . S
C963 H952 0.931 . S
C963 C961 1.416 . S
C963 C964 1.332 . S
C964 H943 0.929 . S
C964 C960 1.407 . S
C964 C963 1.332 . S
H965 C958 0.930 . S
H966 C989 0.930 . S
H967 C990 0.929 . S
O968 Tb924 2.465 . S
O968 C988 1.264 1_545 S
O969 Tb924 2.387 . S
O969 C980 1.264 . S
O970 Tb935 2.349 . S
O970 C980 1.243 . S
O971 Tb924 2.428 1_565 S
O971 C988 1.256 . S
O972 Tb924 2.308 . S
O972 C987 1.266 . S
O973 Tb935 2.393 . S
O973 C987 1.248 . S
O974 Tb935 2.465 . S
O974 C999 1.264 . S
O975 Tb935 2.387 . S
O975 C991 1.264 . S
O976 Tb924 2.349 . S
O976 C991 1.243 . S
O977 Tb935 2.428 . S
O977 C999 1.256 . S
O978 Tb935 2.308 . S
O978 C998 1.266 . S
O979 Tb924 2.393 . S
O979 C998 1.248 . S
C980 O969 1.264 . S
C980 O970 1.243 . S
C981 C984 1.399 . S
C981 C986 1.383 . S
C981 C988 1.496 . S
C982 C983 1.399 . S
C982 C986 1.389 . S
C983 C982 1.399 . S
C983 C985 1.380 . S
C983 H1000 0.929 . S
C984 C981 1.399 . S
C984 C985 1.392 . S
C984 H1001 0.929 . S
C985 C983 1.380 . S
C985 C984 1.392 . S
C985 H1002 0.929 . S
C986 C981 1.383 . S
C986 C982 1.389 . S
C986 H1003 0.931 . S
C987 O972 1.266 . S
C987 O973 1.248 . S
C988 Tb924 2.802 1_565 S
C988 O968 1.264 1_565 S
C988 O971 1.256 . S
C988 C981 1.496 . S
C989 C956 1.448 . S
C989 H966 0.930 . S
C989 C990 1.328 . S
C990 C961 1.427 . S
C990 H967 0.929 . S
C990 C989 1.328 . S
C991 O975 1.264 . S
C991 O976 1.243 . S
C992 C995 1.399 . S
C992 C996 1.383 . S
C992 C999 1.496 . S
C993 C994 1.399 . S
C993 C996 1.389 . S
C994 C993 1.399 . S
C994 C997 1.380 . S
C994 H1004 0.929 . S
C995 C992 1.399 . S
C995 C997 1.392 . S
C995 H1005 0.929 . S
C996 C992 1.383 . S
C996 C993 1.389 . S
C996 H1006 0.931 . S
C997 C994 1.380 . S
C997 C995 1.392 . S
C997 H1007 0.929 . S
C998 O978 1.266 . S
C998 O979 1.248 . S
C999 Tb935 2.802 . S
C999 O974 1.264 . S
C999 O977 1.256 . S
C999 C992 1.496 . S
H1000 C983 0.929 . S
H1001 C984 0.929 . S
H1002 C985 0.929 . S
H1003 C986 0.931 . S
H1004 C994 0.929 . S
H1005 C995 0.929 . S
H1006 C996 0.931 . S
H1007 C997 0.929 . S
Tb1008 N1037 2.637 . S
Tb1008 N1043 2.572 . S
Tb1008 O1052 2.465 1_556 S
Tb1008 O1053 2.387 . S
Tb1008 O1055 2.428 1_556 S
Tb1008 O1056 2.308 . S
Tb1008 O1060 2.349 . S
Tb1008 O1063 2.393 . S
Tb1008 C1072 2.802 1_556 S
C1009 N1010 1.379 . S
C1009 C1012 1.416 . S
C1009 C1016 1.424 . S
N1010 C1009 1.379 . S
N1010 C1013 1.334 . S
N1010 Tb1019 2.617 . S
C1011 C1013 1.390 . S
C1011 C1014 1.339 . S
C1011 H1031 0.930 . S
C1012 C1009 1.416 . S
C1012 C1014 1.416 . S
C1012 C1018 1.448 . S
C1013 N1010 1.334 . S
C1013 C1011 1.390 . S
C1013 H1024 0.930 . S
C1014 C1011 1.339 . S
C1014 C1012 1.416 . S
C1014 H1035 0.930 . S
C1015 C1016 1.413 . S
C1015 C1017 1.427 . S
C1015 C1021 1.416 . S
C1016 C1009 1.424 . S
C1016 C1015 1.413 . S
C1016 N1020 1.361 . S
C1017 C1015 1.427 . S
C1017 C1018 1.328 . S
C1017 H1032 0.929 . S
C1018 C1012 1.448 . S
C1018 C1017 1.328 . S
C1018 H1033 0.930 . S
Tb1019 N1010 2.617 . S
Tb1019 N1020 2.572 . S
Tb1019 O1054 2.349 . S
Tb1019 O1057 2.393 . S
Tb1019 O1058 2.465 . S
Tb1019 O1059 2.387 . S
Tb1019 O1061 2.428 . S
Tb1019 O1062 2.308 . S
Tb1019 C1083 2.802 . S
N1020 C1016 1.361 . S
N1020 Tb1019 2.572 . S
N1020 C1022 1.340 . S
C1021 C1015 1.416 . S
C1021 C1023 1.332 . S
C1021 H1029 0.931 . S
C1022 N1020 1.340 . S
C1022 C1023 1.407 . S
C1022 H1028 0.930 . S
C1023 C1021 1.332 . S
C1023 C1022 1.407 . S
C1023 H1025 0.929 . S
H1024 C1013 0.930 . S
H1025 C1023 0.929 . S
H1026 C1041 0.930 . S
H1027 C1048 0.929 . S
H1028 C1022 0.930 . S
H1029 C1021 0.931 . S
H1030 C1044 0.930 . S
H1031 C1011 0.930 . S
H1032 C1017 0.929 . S
H1033 C1018 0.930 . S
H1034 C1039 0.930 . S
H1035 C1014 0.930 . S
H1036 C1047 0.931 . S
N1037 Tb1008 2.637 . S
N1037 C1038 1.397 . S
N1037 C1041 1.305 1_556 S
C1038 N1037 1.397 . S
C1038 C1040 1.416 . S
C1038 C1046 1.424 . S
C1039 H1034 0.930 . S
C1039 C1041 1.390 . S
C1039 C1042 1.339 . S
C1040 C1038 1.416 . S
C1040 C1042 1.416 1_556 S
C1040 C1073 1.448 . S
C1041 H1026 0.930 . S
C1041 N1037 1.305 1_554 S
C1041 C1039 1.390 . S
C1042 C1039 1.339 . S
C1042 C1040 1.416 1_554 S
C1042 H1049 0.930 . S
N1043 Tb1008 2.572 . S
N1043 C1044 1.340 . S
N1043 C1046 1.361 . S
C1044 H1030 0.930 . S
C1044 N1043 1.340 . S
C1044 C1048 1.407 . S
C1045 C1046 1.413 . S
C1045 C1047 1.416 . S
C1045 C1074 1.427 . S
C1046 C1038 1.424 . S
C1046 N1043 1.361 . S
C1046 C1045 1.413 . S
C1047 H1036 0.931 . S
C1047 C1045 1.416 . S
C1047 C1048 1.332 . S
C1048 H1027 0.929 . S
C1048 C1044 1.407 . S
C1048 C1047 1.332 . S
H1049 C1042 0.930 . S
H1050 C1073 0.930 . S
H1051 C1074 0.929 . S
O1052 Tb1008 2.465 1_554 S
O1052 C1072 1.263 . S
O1053 Tb1008 2.387 . S
O1053 C1064 1.264 . S
O1054 Tb1019 2.349 . S
O1054 C1064 1.243 . S
O1055 Tb1008 2.428 1_554 S
O1055 C1072 1.256 . S
O1056 Tb1008 2.308 . S
O1056 C1071 1.266 . S
O1057 Tb1019 2.393 . S
O1057 C1071 1.248 . S
O1058 Tb1019 2.465 . S
O1058 C1083 1.264 . S
O1059 Tb1019 2.387 . S
O1059 C1075 1.264 . S
O1060 Tb1008 2.349 . S
O1060 C1075 1.243 . S
O1061 Tb1019 2.428 . S
O1061 C1083 1.256 . S
O1062 Tb1019 2.308 . S
O1062 C1082 1.266 . S
O1063 Tb1008 2.393 . S
O1063 C1082 1.248 . S
C1064 O1053 1.264 . S
C1064 O1054 1.243 . S
C1065 C1068 1.399 . S
C1065 C1070 1.383 . S
C1065 C1072 1.496 . S
C1066 C1067 1.399 . S
C1066 C1070 1.389 . S
C1067 C1066 1.399 . S
C1067 C1069 1.380 . S
C1067 H1084 0.929 . S
C1068 C1065 1.399 . S
C1068 C1069 1.392 . S
C1068 H1085 0.929 . S
C1069 C1067 1.380 . S
C1069 C1068 1.392 . S
C1069 H1086 0.929 . S
C1070 C1065 1.383 . S
C1070 C1066 1.389 . S
C1070 H1087 0.931 . S
C1071 O1056 1.266 . S
C1071 O1057 1.248 . S
C1072 Tb1008 2.802 1_554 S
C1072 O1052 1.263 . S
C1072 O1055 1.256 . S
C1072 C1065 1.496 . S
C1073 C1040 1.448 . S
C1073 H1050 0.930 . S
C1073 C1074 1.328 . S
C1074 C1045 1.427 . S
C1074 H1051 0.929 . S
C1074 C1073 1.328 . S
C1075 O1059 1.264 . S
C1075 O1060 1.243 . S
C1076 C1079 1.399 . S
C1076 C1080 1.383 . S
C1076 C1083 1.496 . S
C1077 C1078 1.399 . S
C1077 C1080 1.389 . S
C1078 C1077 1.399 . S
C1078 C1081 1.380 . S
C1078 H1088 0.929 . S
C1079 C1076 1.399 . S
C1079 C1081 1.392 . S
C1079 H1089 0.929 . S
C1080 C1076 1.383 . S
C1080 C1077 1.389 . S
C1080 H1090 0.931 . S
C1081 C1078 1.380 . S
C1081 C1079 1.392 . S
C1081 H1091 0.929 . S
C1082 O1062 1.266 . S
C1082 O1063 1.248 . S
C1083 Tb1019 2.802 . S
C1083 O1058 1.264 . S
C1083 O1061 1.256 . S
C1083 C1076 1.496 . S
H1084 C1067 0.929 . S
H1085 C1068 0.929 . S
H1086 C1069 0.929 . S
H1087 C1070 0.931 . S
H1088 C1078 0.929 . S
H1089 C1079 0.929 . S
H1090 C1080 0.931 . S
H1091 C1081 0.929 . S
Tb1092 N1121 2.617 . S
Tb1092 N1127 2.572 . S
Tb1092 O1136 2.482 . S
Tb1092 O1137 2.387 . S
Tb1092 O1139 2.428 1_655 S
Tb1092 O1140 2.308 . S
Tb1092 O1144 2.349 . S
Tb1092 O1147 2.393 . S
Tb1092 C1156 2.802 1_655 S
C1093 N1094 1.379 . S
C1093 C1096 1.416 . S
C1093 C1100 1.424 . S
N1094 C1093 1.379 . S
N1094 C1097 1.334 . S
N1094 Tb1103 2.617 . S
C1095 C1097 1.390 . S
C1095 C1098 1.339 . S
C1095 H1115 0.930 . S
C1096 C1093 1.416 . S
C1096 C1098 1.416 . S
C1096 C1102 1.448 . S
C1097 N1094 1.334 . S
C1097 C1095 1.390 . S
C1097 H1108 0.930 . S
C1098 C1095 1.339 . S
C1098 C1096 1.416 . S
C1098 H1119 0.930 . S
C1099 C1100 1.413 . S
C1099 C1101 1.427 . S
C1099 C1105 1.416 . S
C1100 C1093 1.424 . S
C1100 C1099 1.413 . S
C1100 N1104 1.361 . S
C1101 C1099 1.427 . S
C1101 C1102 1.328 . S
C1101 H1116 0.929 . S
C1102 C1096 1.448 . S
C1102 C1101 1.328 . S
C1102 H1117 0.930 . S
Tb1103 N1094 2.617 . S
Tb1103 N1104 2.572 . S
Tb1103 O1138 2.349 . S
Tb1103 O1141 2.393 . S
Tb1103 O1142 2.465 . S
Tb1103 O1143 2.387 . S
Tb1103 O1145 2.428 . S
Tb1103 O1146 2.308 . S
Tb1103 C1167 2.802 . S
N1104 C1100 1.361 . S
N1104 Tb1103 2.572 . S
N1104 C1106 1.340 . S
C1105 C1099 1.416 . S
C1105 C1107 1.332 . S
C1105 H1113 0.931 . S
C1106 N1104 1.340 . S
C1106 C1107 1.407 . S
C1106 H1112 0.930 . S
C1107 C1105 1.332 . S
C1107 C1106 1.407 . S
C1107 H1109 0.929 . S
H1108 C1097 0.930 . S
H1109 C1107 0.929 . S
H1110 C1125 0.930 . S
H1111 C1132 0.929 . S
H1112 C1106 0.930 . S
H1113 C1105 0.931 . S
H1114 C1128 0.930 . S
H1115 C1095 0.930 . S
H1116 C1101 0.929 . S
H1117 C1102 0.930 . S
H1118 C1123 0.930 . S
H1119 C1098 0.930 . S
H1120 C1131 0.931 . S
N1121 Tb1092 2.617 . S
N1121 C1122 1.379 . S
N1121 C1125 1.334 1_655 S
C1122 N1121 1.379 . S
C1122 C1124 1.416 . S
C1122 C1130 1.424 . S
C1123 H1118 0.930 . S
C1123 C1125 1.390 . S
C1123 C1126 1.339 . S
C1124 C1122 1.416 . S
C1124 C1126 1.416 1_655 S
C1124 C1157 1.448 . S
C1125 H1110 0.930 . S
C1125 N1121 1.334 1_455 S
C1125 C1123 1.390 . S
C1126 C1123 1.339 . S
C1126 C1124 1.416 1_455 S
C1126 H1133 0.930 . S
N1127 Tb1092 2.572 . S
N1127 C1128 1.340 . S
N1127 C1130 1.361 . S
C1128 H1114 0.930 . S
C1128 N1127 1.340 . S
C1128 C1132 1.407 . S
C1129 C1130 1.413 . S
C1129 C1131 1.416 . S
C1129 C1158 1.427 . S
C1130 C1122 1.424 . S
C1130 N1127 1.361 . S
C1130 C1129 1.413 . S
C1131 H1120 0.931 . S
C1131 C1129 1.416 . S
C1131 C1132 1.332 . S
C1132 H1111 0.929 . S
C1132 C1128 1.407 . S
C1132 C1131 1.332 . S
H1133 C1126 0.930 . S
H1134 C1157 0.930 . S
H1135 C1158 0.929 . S
O1136 Tb1092 2.482 . S
O1136 C1156 1.225 1_655 S
O1137 Tb1092 2.387 . S
O1137 C1148 1.264 . S
O1138 Tb1103 2.349 . S
O1138 C1148 1.243 . S
O1139 Tb1092 2.428 1_455 S
O1139 C1156 1.256 . S
O1140 Tb1092 2.308 . S
O1140 C1155 1.266 . S
O1141 Tb1103 2.393 . S
O1141 C1155 1.248 . S
O1142 Tb1103 2.465 . S
O1142 C1167 1.264 . S
O1143 Tb1103 2.387 . S
O1143 C1159 1.264 . S
O1144 Tb1092 2.349 . S
O1144 C1159 1.243 . S
O1145 Tb1103 2.428 . S
O1145 C1167 1.256 . S
O1146 Tb1103 2.308 . S
O1146 C1166 1.266 . S
O1147 Tb1092 2.393 . S
O1147 C1166 1.248 . S
C1148 O1137 1.264 . S
C1148 O1138 1.243 . S
C1149 C1152 1.399 . S
C1149 C1154 1.383 . S
C1149 C1156 1.496 . S
C1150 C1151 1.399 . S
C1150 C1154 1.389 . S
C1151 C1150 1.399 . S
C1151 C1153 1.380 . S
C1151 H1168 0.929 . S
C1152 C1149 1.399 . S
C1152 C1153 1.392 . S
C1152 H1169 0.929 . S
C1153 C1151 1.380 . S
C1153 C1152 1.392 . S
C1153 H1170 0.929 . S
C1154 C1149 1.383 . S
C1154 C1150 1.389 . S
C1154 H1171 0.931 . S
C1155 O1140 1.266 . S
C1155 O1141 1.248 . S
C1156 Tb1092 2.802 1_455 S
C1156 O1136 1.225 1_455 S
C1156 O1139 1.256 . S
C1156 C1149 1.496 . S
C1157 C1124 1.448 . S
C1157 H1134 0.930 . S
C1157 C1158 1.328 . S
C1158 C1129 1.427 . S
C1158 H1135 0.929 . S
C1158 C1157 1.328 . S
C1159 O1143 1.264 . S
C1159 O1144 1.243 . S
C1160 C1163 1.399 . S
C1160 C1164 1.383 . S
C1160 C1167 1.496 . S
C1161 C1162 1.399 . S
C1161 C1164 1.389 . S
C1162 C1161 1.399 . S
C1162 C1165 1.380 . S
C1162 H1172 0.929 . S
C1163 C1160 1.399 . S
C1163 C1165 1.392 . S
C1163 H1173 0.929 . S
C1164 C1160 1.383 . S
C1164 C1161 1.389 . S
C1164 H1174 0.931 . S
C1165 C1162 1.380 . S
C1165 C1163 1.392 . S
C1165 H1175 0.929 . S
C1166 O1146 1.266 . S
C1166 O1147 1.248 . S
C1167 Tb1103 2.802 . S
C1167 O1142 1.264 . S
C1167 O1145 1.256 . S
C1167 C1160 1.496 . S
H1168 C1151 0.929 . S
H1169 C1152 0.929 . S
H1170 C1153 0.929 . S
H1171 C1154 0.931 . S
H1172 C1162 0.929 . S
H1173 C1163 0.929 . S
H1174 C1164 0.931 . S
H1175 C1165 0.929 . S
Tb1176 N1205 2.617 . S
Tb1176 N1211 2.572 . S
Tb1176 O1220 2.465 . S
Tb1176 O1221 2.387 . S
Tb1176 O1223 2.428 . S
Tb1176 O1224 2.308 . S
Tb1176 O1228 2.349 . S
Tb1176 O1231 2.393 . S
Tb1176 C1240 2.802 . S
C1177 N1178 1.379 . S
C1177 C1180 1.416 . S
C1177 C1184 1.424 . S
N1178 C1177 1.379 . S
N1178 C1181 1.334 . S
N1178 Tb1187 2.617 . S
C1179 C1181 1.390 . S
C1179 C1182 1.339 . S
C1179 H1199 0.930 . S
C1180 C1177 1.416 . S
C1180 C1182 1.416 . S
C1180 C1186 1.448 . S
C1181 N1178 1.334 . S
C1181 C1179 1.390 . S
C1181 H1192 0.930 . S
C1182 C1179 1.339 . S
C1182 C1180 1.416 . S
C1182 H1203 0.930 . S
C1183 C1184 1.413 . S
C1183 C1185 1.427 . S
C1183 C1189 1.416 . S
C1184 C1177 1.424 . S
C1184 C1183 1.413 . S
C1184 N1188 1.361 . S
C1185 C1183 1.427 . S
C1185 C1186 1.328 . S
C1185 H1200 0.929 . S
C1186 C1180 1.448 . S
C1186 C1185 1.328 . S
C1186 H1201 0.930 . S
Tb1187 N1178 2.617 . S
Tb1187 N1188 2.572 . S
Tb1187 O1222 2.349 . S
Tb1187 O1225 2.393 . S
Tb1187 O1226 2.465 . S
Tb1187 O1227 2.387 . S
Tb1187 O1229 2.428 . S
Tb1187 O1230 2.308 . S
Tb1187 C1251 2.802 . S
N1188 C1184 1.361 . S
N1188 Tb1187 2.572 . S
N1188 C1190 1.340 . S
C1189 C1183 1.416 . S
C1189 C1191 1.332 . S
C1189 H1197 0.931 . S
C1190 N1188 1.340 . S
C1190 C1191 1.407 . S
C1190 H1196 0.930 . S
C1191 C1189 1.332 . S
C1191 C1190 1.407 . S
C1191 H1193 0.929 . S
H1192 C1181 0.930 . S
H1193 C1191 0.929 . S
H1194 C1209 0.930 . S
H1195 C1216 0.929 . S
H1196 C1190 0.930 . S
H1197 C1189 0.931 . S
H1198 C1212 0.930 . S
H1199 C1179 0.930 . S
H1200 C1185 0.929 . S
H1201 C1186 0.930 . S
H1202 C1207 0.930 . S
H1203 C1182 0.930 . S
H1204 C1215 0.931 . S
N1205 Tb1176 2.617 . S
N1205 C1206 1.379 . S
N1205 C1209 1.334 . S
C1206 N1205 1.379 . S
C1206 C1208 1.416 . S
C1206 C1214 1.424 . S
C1207 H1202 0.930 . S
C1207 C1209 1.390 . S
C1207 C1210 1.339 . S
C1208 C1206 1.416 . S
C1208 C1210 1.416 . S
C1208 C1241 1.448 . S
C1209 H1194 0.930 . S
C1209 N1205 1.334 . S
C1209 C1207 1.390 . S
C1210 C1207 1.339 . S
C1210 C1208 1.416 . S
C1210 H1217 0.930 . S
N1211 Tb1176 2.572 . S
N1211 C1212 1.340 . S
N1211 C1214 1.361 . S
C1212 H1198 0.930 . S
C1212 N1211 1.340 . S
C1212 C1216 1.407 . S
C1213 C1214 1.413 . S
C1213 C1215 1.416 . S
C1213 C1242 1.427 . S
C1214 C1206 1.424 . S
C1214 N1211 1.361 . S
C1214 C1213 1.413 . S
C1215 H1204 0.931 . S
C1215 C1213 1.416 . S
C1215 C1216 1.332 . S
C1216 H1195 0.929 . S
C1216 C1212 1.407 . S
C1216 C1215 1.332 . S
H1217 C1210 0.930 . S
H1218 C1241 0.930 . S
H1219 C1242 0.929 . S
O1220 Tb1176 2.465 . S
O1220 C1240 1.264 . S
O1221 Tb1176 2.387 . S
O1221 C1232 1.264 . S
O1222 Tb1187 2.349 . S
O1222 C1232 1.243 . S
O1223 Tb1176 2.428 . S
O1223 C1240 1.256 . S
O1224 Tb1176 2.308 . S
O1224 C1239 1.266 . S
O1225 Tb1187 2.393 . S
O1225 C1239 1.248 . S
O1226 Tb1187 2.465 . S
O1226 C1251 1.264 . S
O1227 Tb1187 2.387 . S
O1227 C1243 1.264 . S
O1228 Tb1176 2.349 . S
O1228 C1243 1.243 . S
O1229 Tb1187 2.428 . S
O1229 C1251 1.256 . S
O1230 Tb1187 2.308 . S
O1230 C1250 1.266 . S
O1231 Tb1176 2.393 . S
O1231 C1250 1.248 . S
C1232 O1221 1.264 . S
C1232 O1222 1.243 . S
C1233 C1236 1.399 . S
C1233 C1238 1.383 . S
C1233 C1240 1.496 . S
C1234 C1235 1.399 . S
C1234 C1238 1.389 . S
C1235 C1234 1.399 . S
C1235 C1237 1.380 . S
C1235 H1252 0.929 . S
C1236 C1233 1.399 . S
C1236 C1237 1.392 . S
C1236 H1253 0.929 . S
C1237 C1235 1.380 . S
C1237 C1236 1.392 . S
C1237 H1254 0.929 . S
C1238 C1233 1.383 . S
C1238 C1234 1.389 . S
C1238 H1255 0.931 . S
C1239 O1224 1.266 . S
C1239 O1225 1.248 . S
C1240 Tb1176 2.802 . S
C1240 O1220 1.264 . S
C1240 O1223 1.256 . S
C1240 C1233 1.496 . S
C1241 C1208 1.448 . S
C1241 H1218 0.930 . S
C1241 C1242 1.328 . S
C1242 C1213 1.427 . S
C1242 H1219 0.929 . S
C1242 C1241 1.328 . S
C1243 O1227 1.264 . S
C1243 O1228 1.243 . S
C1244 C1247 1.399 . S
C1244 C1248 1.383 . S
C1244 C1251 1.496 . S
C1245 C1246 1.399 . S
C1245 C1248 1.389 . S
C1246 C1245 1.399 . S
C1246 C1249 1.380 . S
C1246 H1256 0.929 . S
C1247 C1244 1.399 . S
C1247 C1249 1.392 . S
C1247 H1257 0.929 . S
C1248 C1244 1.383 . S
C1248 C1245 1.389 . S
C1248 H1258 0.931 . S
C1249 C1246 1.380 . S
C1249 C1247 1.392 . S
C1249 H1259 0.929 . S
C1250 O1230 1.266 . S
C1250 O1231 1.248 . S
C1251 Tb1187 2.802 . S
C1251 O1226 1.264 . S
C1251 O1229 1.256 . S
C1251 C1244 1.496 . S
H1252 C1235 0.929 . S
H1253 C1236 0.929 . S
H1254 C1237 0.929 . S
H1255 C1238 0.931 . S
H1256 C1246 0.929 . S
H1257 C1247 0.929 . S
H1258 C1248 0.931 . S
H1259 C1249 0.929 . S
Tb1260 N1289 2.617 . S
Tb1260 N1295 2.572 . S
Tb1260 O1304 2.467 . S
Tb1260 O1305 2.387 . S
Tb1260 O1307 2.428 1_655 S
Tb1260 O1308 2.308 . S
Tb1260 O1312 2.349 . S
Tb1260 O1315 2.393 . S
Tb1260 C1324 2.802 1_655 S
C1261 N1262 1.379 . S
C1261 C1264 1.416 . S
C1261 C1268 1.424 . S
N1262 C1261 1.379 . S
N1262 C1265 1.334 . S
N1262 Tb1271 2.617 . S
C1263 C1265 1.390 . S
C1263 C1266 1.339 . S
C1263 H1283 0.930 . S
C1264 C1261 1.416 . S
C1264 C1266 1.416 . S
C1264 C1270 1.448 . S
C1265 N1262 1.334 . S
C1265 C1263 1.390 . S
C1265 H1276 0.930 . S
C1266 C1263 1.339 . S
C1266 C1264 1.416 . S
C1266 H1287 0.930 . S
C1267 C1268 1.413 . S
C1267 C1269 1.427 . S
C1267 C1273 1.416 . S
C1268 C1261 1.424 . S
C1268 C1267 1.413 . S
C1268 N1272 1.361 . S
C1269 C1267 1.427 . S
C1269 C1270 1.328 . S
C1269 H1284 0.929 . S
C1270 C1264 1.448 . S
C1270 C1269 1.328 . S
C1270 H1285 0.930 . S
Tb1271 N1262 2.617 . S
Tb1271 N1272 2.572 . S
Tb1271 O1306 2.349 . S
Tb1271 O1309 2.393 . S
Tb1271 O1310 2.465 . S
Tb1271 O1311 2.387 . S
Tb1271 O1313 2.428 . S
Tb1271 O1314 2.308 . S
Tb1271 C1335 2.802 . S
N1272 C1268 1.361 . S
N1272 Tb1271 2.572 . S
N1272 C1274 1.340 . S
C1273 C1267 1.416 . S
C1273 C1275 1.332 . S
C1273 H1281 0.931 . S
C1274 N1272 1.340 . S
C1274 C1275 1.407 . S
C1274 H1280 0.930 . S
C1275 C1273 1.332 . S
C1275 C1274 1.407 . S
C1275 H1277 0.929 . S
H1276 C1265 0.930 . S
H1277 C1275 0.929 . S
H1278 C1293 0.930 . S
H1279 C1300 0.929 . S
H1280 C1274 0.930 . S
H1281 C1273 0.931 . S
H1282 C1296 0.930 . S
H1283 C1263 0.930 . S
H1284 C1269 0.929 . S
H1285 C1270 0.930 . S
H1286 C1291 0.930 . S
H1287 C1266 0.930 . S
H1288 C1299 0.931 . S
N1289 Tb1260 2.617 . S
N1289 C1290 1.379 . S
N1289 C1293 1.334 1_655 S
C1290 N1289 1.379 . S
C1290 C1292 1.416 . S
C1290 C1298 1.424 . S
C1291 H1286 0.930 . S
C1291 C1293 1.390 . S
C1291 C1294 1.339 . S
C1292 C1290 1.416 . S
C1292 C1294 1.416 1_655 S
C1292 C1325 1.448 . S
C1293 H1278 0.930 . S
C1293 N1289 1.334 1_455 S
C1293 C1291 1.390 . S
C1294 C1291 1.339 . S
C1294 C1292 1.416 1_455 S
C1294 H1301 0.930 . S
N1295 Tb1260 2.572 . S
N1295 C1296 1.340 . S
N1295 C1298 1.361 . S
C1296 H1282 0.930 . S
C1296 N1295 1.340 . S
C1296 C1300 1.407 . S
C1297 C1298 1.413 . S
C1297 C1299 1.416 . S
C1297 C1326 1.427 . S
C1298 C1290 1.424 . S
C1298 N1295 1.361 . S
C1298 C1297 1.413 . S
C1299 H1288 0.931 . S
C1299 C1297 1.416 . S
C1299 C1300 1.332 . S
C1300 H1279 0.929 . S
C1300 C1296 1.407 . S
C1300 C1299 1.332 . S
H1301 C1294 0.930 . S
H1302 C1325 0.930 . S
H1303 C1326 0.929 . S
O1304 Tb1260 2.467 . S
O1304 C1324 1.260 1_655 S
O1305 Tb1260 2.387 . S
O1305 C1316 1.264 . S
O1306 Tb1271 2.349 . S
O1306 C1316 1.243 . S
O1307 Tb1260 2.428 1_455 S
O1307 C1324 1.256 . S
O1308 Tb1260 2.308 . S
O1308 C1323 1.266 . S
O1309 Tb1271 2.393 . S
O1309 C1323 1.248 . S
O1310 Tb1271 2.465 . S
O1310 C1335 1.264 . S
O1311 Tb1271 2.387 . S
O1311 C1327 1.264 . S
O1312 Tb1260 2.349 . S
O1312 C1327 1.243 . S
O1313 Tb1271 2.428 . S
O1313 C1335 1.256 . S
O1314 Tb1271 2.308 . S
O1314 C1334 1.266 . S
O1315 Tb1260 2.393 . S
O1315 C1334 1.248 . S
C1316 O1305 1.264 . S
C1316 O1306 1.243 . S
C1317 C1320 1.399 . S
C1317 C1322 1.383 . S
C1317 C1324 1.496 . S
C1318 C1319 1.399 . S
C1318 C1322 1.389 . S
C1319 C1318 1.399 . S
C1319 C1321 1.380 . S
C1319 H1336 0.929 . S
C1320 C1317 1.399 . S
C1320 C1321 1.392 . S
C1320 H1337 0.929 . S
C1321 C1319 1.380 . S
C1321 C1320 1.392 . S
C1321 H1338 0.929 . S
C1322 C1317 1.383 . S
C1322 C1318 1.389 . S
C1322 H1339 0.931 . S
C1323 O1308 1.266 . S
C1323 O1309 1.248 . S
C1324 Tb1260 2.802 1_455 S
C1324 O1304 1.260 1_455 S
C1324 O1307 1.256 . S
C1324 C1317 1.496 . S
C1325 C1292 1.448 . S
C1325 H1302 0.930 . S
C1325 C1326 1.328 . S
C1326 C1297 1.427 . S
C1326 H1303 0.929 . S
C1326 C1325 1.328 . S
C1327 O1311 1.264 . S
C1327 O1312 1.243 . S
C1328 C1331 1.399 . S
C1328 C1332 1.383 . S
C1328 C1335 1.496 . S
C1329 C1330 1.399 . S
C1329 C1332 1.389 . S
C1330 C1329 1.399 . S
C1330 C1333 1.380 . S
C1330 H1340 0.929 . S
C1331 C1328 1.399 . S
C1331 C1333 1.392 . S
C1331 H1341 0.929 . S
C1332 C1328 1.383 . S
C1332 C1329 1.389 . S
C1332 H1342 0.931 . S
C1333 C1330 1.380 . S
C1333 C1331 1.392 . S
C1333 H1343 0.929 . S
C1334 O1314 1.266 . S
C1334 O1315 1.248 . S
C1335 Tb1271 2.802 . S
C1335 O1310 1.264 . S
C1335 O1313 1.256 . S
C1335 C1328 1.496 . S
H1336 C1319 0.929 . S
H1337 C1320 0.929 . S
H1338 C1321 0.929 . S
H1339 C1322 0.931 . S
H1340 C1330 0.929 . S
H1341 C1331 0.929 . S
H1342 C1332 0.931 . S
H1343 C1333 0.929 . S
Tb1344 N1373 2.617 . S
Tb1344 N1379 2.572 . S
Tb1344 O1388 2.465 . S
Tb1344 O1389 2.387 . S
Tb1344 O1391 2.428 . S
Tb1344 O1392 2.308 . S
Tb1344 O1396 2.349 . S
Tb1344 O1399 2.393 . S
Tb1344 C1408 2.802 . S
C1345 N1346 1.379 . S
C1345 C1348 1.416 . S
C1345 C1352 1.424 . S
N1346 C1345 1.379 . S
N1346 C1349 1.334 . S
N1346 Tb1355 2.617 . S
C1347 C1349 1.390 . S
C1347 C1350 1.339 . S
C1347 H1367 0.930 . S
C1348 C1345 1.416 . S
C1348 C1350 1.416 . S
C1348 C1354 1.448 . S
C1349 N1346 1.334 . S
C1349 C1347 1.390 . S
C1349 H1360 0.930 . S
C1350 C1347 1.339 . S
C1350 C1348 1.416 . S
C1350 H1371 0.930 . S
C1351 C1352 1.413 . S
C1351 C1353 1.427 . S
C1351 C1357 1.416 . S
C1352 C1345 1.424 . S
C1352 C1351 1.413 . S
C1352 N1356 1.361 . S
C1353 C1351 1.427 . S
C1353 C1354 1.328 . S
C1353 H1368 0.929 . S
C1354 C1348 1.448 . S
C1354 C1353 1.328 . S
C1354 H1369 0.930 . S
Tb1355 N1346 2.617 . S
Tb1355 N1356 2.572 . S
Tb1355 O1390 2.349 . S
Tb1355 O1393 2.393 . S
Tb1355 O1394 2.465 . S
Tb1355 O1395 2.387 . S
Tb1355 O1397 2.428 . S
Tb1355 O1398 2.308 . S
Tb1355 C1419 2.802 . S
N1356 C1352 1.361 . S
N1356 Tb1355 2.572 . S
N1356 C1358 1.340 . S
C1357 C1351 1.416 . S
C1357 C1359 1.332 . S
C1357 H1365 0.931 . S
C1358 N1356 1.340 . S
C1358 C1359 1.407 . S
C1358 H1364 0.930 . S
C1359 C1357 1.332 . S
C1359 C1358 1.407 . S
C1359 H1361 0.929 . S
H1360 C1349 0.930 . S
H1361 C1359 0.929 . S
H1362 C1377 0.930 . S
H1363 C1384 0.929 . S
H1364 C1358 0.930 . S
H1365 C1357 0.931 . S
H1366 C1380 0.930 . S
H1367 C1347 0.930 . S
H1368 C1353 0.929 . S
H1369 C1354 0.930 . S
H1370 C1375 0.930 . S
H1371 C1350 0.930 . S
H1372 C1383 0.931 . S
N1373 Tb1344 2.617 . S
N1373 C1374 1.379 . S
N1373 C1377 1.334 . S
C1374 N1373 1.379 . S
C1374 C1376 1.416 . S
C1374 C1382 1.424 . S
C1375 H1370 0.930 . S
C1375 C1377 1.390 . S
C1375 C1378 1.339 . S
C1376 C1374 1.416 . S
C1376 C1378 1.416 . S
C1376 C1409 1.448 . S
C1377 H1362 0.930 . S
C1377 N1373 1.334 . S
C1377 C1375 1.390 . S
C1378 C1375 1.339 . S
C1378 C1376 1.416 . S
C1378 H1385 0.930 . S
N1379 Tb1344 2.572 . S
N1379 C1380 1.340 . S
N1379 C1382 1.361 . S
C1380 H1366 0.930 . S
C1380 N1379 1.340 . S
C1380 C1384 1.407 . S
C1381 C1382 1.413 . S
C1381 C1383 1.416 . S
C1381 C1410 1.427 . S
C1382 C1374 1.424 . S
C1382 N1379 1.361 . S
C1382 C1381 1.413 . S
C1383 H1372 0.931 . S
C1383 C1381 1.416 . S
C1383 C1384 1.332 . S
C1384 H1363 0.929 . S
C1384 C1380 1.407 . S
C1384 C1383 1.332 . S
H1385 C1378 0.930 . S
H1386 C1409 0.930 . S
H1387 C1410 0.929 . S
O1388 Tb1344 2.465 . S
O1388 C1408 1.264 . S
O1389 Tb1344 2.387 . S
O1389 C1400 1.264 . S
O1390 Tb1355 2.349 . S
O1390 C1400 1.243 . S
O1391 Tb1344 2.428 . S
O1391 C1408 1.256 . S
O1392 Tb1344 2.308 . S
O1392 C1407 1.266 . S
O1393 Tb1355 2.393 . S
O1393 C1407 1.248 . S
O1394 Tb1355 2.465 . S
O1394 C1419 1.264 . S
O1395 Tb1355 2.387 . S
O1395 C1411 1.264 . S
O1396 Tb1344 2.349 . S
O1396 C1411 1.243 . S
O1397 Tb1355 2.428 . S
O1397 C1419 1.256 . S
O1398 Tb1355 2.308 . S
O1398 C1418 1.266 . S
O1399 Tb1344 2.393 . S
O1399 C1418 1.248 . S
C1400 O1389 1.264 . S
C1400 O1390 1.243 . S
C1401 C1404 1.399 . S
C1401 C1406 1.383 . S
C1401 C1408 1.496 . S
C1402 C1403 1.399 . S
C1402 C1406 1.389 . S
C1403 C1402 1.399 . S
C1403 C1405 1.380 . S
C1403 H1420 0.929 . S
C1404 C1401 1.399 . S
C1404 C1405 1.392 . S
C1404 H1421 0.929 . S
C1405 C1403 1.380 . S
C1405 C1404 1.392 . S
C1405 H1422 0.929 . S
C1406 C1401 1.383 . S
C1406 C1402 1.389 . S
C1406 H1423 0.931 . S
C1407 O1392 1.266 . S
C1407 O1393 1.248 . S
C1408 Tb1344 2.802 . S
C1408 O1388 1.264 . S
C1408 O1391 1.256 . S
C1408 C1401 1.496 . S
C1409 C1376 1.448 . S
C1409 H1386 0.930 . S
C1409 C1410 1.328 . S
C1410 C1381 1.427 . S
C1410 H1387 0.929 . S
C1410 C1409 1.328 . S
C1411 O1395 1.264 . S
C1411 O1396 1.243 . S
C1412 C1415 1.399 . S
C1412 C1416 1.383 . S
C1412 C1419 1.496 . S
C1413 C1414 1.399 . S
C1413 C1416 1.389 . S
C1414 C1413 1.399 . S
C1414 C1417 1.380 . S
C1414 H1424 0.929 . S
C1415 C1412 1.399 . S
C1415 C1417 1.392 . S
C1415 H1425 0.929 . S
C1416 C1412 1.383 . S
C1416 C1413 1.389 . S
C1416 H1426 0.931 . S
C1417 C1414 1.380 . S
C1417 C1415 1.392 . S
C1417 H1427 0.929 . S
C1418 O1398 1.266 . S
C1418 O1399 1.248 . S
C1419 Tb1355 2.802 . S
C1419 O1394 1.264 . S
C1419 O1397 1.256 . S
C1419 C1412 1.496 . S
H1420 C1403 0.929 . S
H1421 C1404 0.929 . S
H1422 C1405 0.929 . S
H1423 C1406 0.931 . S
H1424 C1414 0.929 . S
H1425 C1415 0.929 . S
H1426 C1416 0.931 . S
H1427 C1417 0.929 . S
Tb1428 N1457 2.617 . S
Tb1428 N1463 2.572 . S
Tb1428 O1472 2.465 . S
Tb1428 O1473 2.387 . S
Tb1428 O1475 2.428 . S
Tb1428 O1476 2.308 . S
Tb1428 O1480 2.349 . S
Tb1428 O1483 2.393 . S
Tb1428 C1492 2.802 . S
C1429 N1430 1.379 . S
C1429 C1432 1.416 . S
C1429 C1436 1.424 . S
N1430 C1429 1.379 . S
N1430 C1433 1.334 . S
N1430 Tb1439 2.617 . S
C1431 C1433 1.390 . S
C1431 C1434 1.339 . S
C1431 H1451 0.930 . S
C1432 C1429 1.416 . S
C1432 C1434 1.416 . S
C1432 C1438 1.448 . S
C1433 N1430 1.334 . S
C1433 C1431 1.390 . S
C1433 H1444 0.930 . S
C1434 C1431 1.339 . S
C1434 C1432 1.416 . S
C1434 H1455 0.930 . S
C1435 C1436 1.413 . S
C1435 C1437 1.427 . S
C1435 C1441 1.416 . S
C1436 C1429 1.424 . S
C1436 C1435 1.413 . S
C1436 N1440 1.361 . S
C1437 C1435 1.427 . S
C1437 C1438 1.328 . S
C1437 H1452 0.929 . S
C1438 C1432 1.448 . S
C1438 C1437 1.328 . S
C1438 H1453 0.930 . S
Tb1439 N1430 2.617 . S
Tb1439 N1440 2.572 . S
Tb1439 O1474 2.349 . S
Tb1439 O1477 2.393 . S
Tb1439 O1478 2.465 . S
Tb1439 O1479 2.387 . S
Tb1439 O1481 2.428 . S
Tb1439 O1482 2.308 . S
Tb1439 C1503 2.802 . S
N1440 C1436 1.361 . S
N1440 Tb1439 2.572 . S
N1440 C1442 1.340 . S
C1441 C1435 1.416 . S
C1441 C1443 1.332 . S
C1441 H1449 0.931 . S
C1442 N1440 1.340 . S
C1442 C1443 1.407 . S
C1442 H1448 0.930 . S
C1443 C1441 1.332 . S
C1443 C1442 1.407 . S
C1443 H1445 0.929 . S
H1444 C1433 0.930 . S
H1445 C1443 0.929 . S
H1446 C1461 0.930 . S
H1447 C1468 0.929 . S
H1448 C1442 0.930 . S
H1449 C1441 0.931 . S
H1450 C1464 0.930 . S
H1451 C1431 0.930 . S
H1452 C1437 0.929 . S
H1453 C1438 0.930 . S
H1454 C1459 0.930 . S
H1455 C1434 0.930 . S
H1456 C1467 0.931 . S
N1457 Tb1428 2.617 . S
N1457 C1458 1.379 . S
N1457 C1461 1.334 . S
C1458 N1457 1.379 . S
C1458 C1460 1.416 . S
C1458 C1466 1.424 . S
C1459 H1454 0.930 . S
C1459 C1461 1.390 . S
C1459 C1462 1.339 . S
C1460 C1458 1.416 . S
C1460 C1462 1.416 . S
C1460 C1493 1.448 . S
C1461 H1446 0.930 . S
C1461 N1457 1.334 . S
C1461 C1459 1.390 . S
C1462 C1459 1.339 . S
C1462 C1460 1.416 . S
C1462 H1469 0.930 . S
N1463 Tb1428 2.572 . S
N1463 C1464 1.340 . S
N1463 C1466 1.361 . S
C1464 H1450 0.930 . S
C1464 N1463 1.340 . S
C1464 C1468 1.407 . S
C1465 C1466 1.413 . S
C1465 C1467 1.416 . S
C1465 C1494 1.427 . S
C1466 C1458 1.424 . S
C1466 N1463 1.361 . S
C1466 C1465 1.413 . S
C1467 H1456 0.931 . S
C1467 C1465 1.416 . S
C1467 C1468 1.332 . S
C1468 H1447 0.929 . S
C1468 C1464 1.407 . S
C1468 C1467 1.332 . S
H1469 C1462 0.930 . S
H1470 C1493 0.930 . S
H1471 C1494 0.929 . S
O1472 Tb1428 2.465 . S
O1472 C1492 1.264 . S
O1473 Tb1428 2.387 . S
O1473 C1484 1.264 . S
O1474 Tb1439 2.349 . S
O1474 C1484 1.243 . S
O1475 Tb1428 2.428 . S
O1475 C1492 1.256 . S
O1476 Tb1428 2.308 . S
O1476 C1491 1.266 . S
O1477 Tb1439 2.393 . S
O1477 C1491 1.248 . S
O1478 Tb1439 2.465 . S
O1478 C1503 1.264 . S
O1479 Tb1439 2.387 . S
O1479 C1495 1.264 . S
O1480 Tb1428 2.349 . S
O1480 C1495 1.243 . S
O1481 Tb1439 2.428 . S
O1481 C1503 1.256 . S
O1482 Tb1439 2.308 . S
O1482 C1502 1.266 . S
O1483 Tb1428 2.393 . S
O1483 C1502 1.248 . S
C1484 O1473 1.264 . S
C1484 O1474 1.243 . S
C1485 C1488 1.399 . S
C1485 C1490 1.383 . S
C1485 C1492 1.496 . S
C1486 C1487 1.399 . S
C1486 C1490 1.389 . S
C1487 C1486 1.399 . S
C1487 C1489 1.380 . S
C1487 H1504 0.929 . S
C1488 C1485 1.399 . S
C1488 C1489 1.392 . S
C1488 H1505 0.929 . S
C1489 C1487 1.380 . S
C1489 C1488 1.392 . S
C1489 H1506 0.929 . S
C1490 C1485 1.383 . S
C1490 C1486 1.389 . S
C1490 H1507 0.931 . S
C1491 O1476 1.266 . S
C1491 O1477 1.248 . S
C1492 Tb1428 2.802 . S
C1492 O1472 1.264 . S
C1492 O1475 1.256 . S
C1492 C1485 1.496 . S
C1493 C1460 1.448 . S
C1493 H1470 0.930 . S
C1493 C1494 1.328 . S
C1494 C1465 1.427 . S
C1494 H1471 0.929 . S
C1494 C1493 1.328 . S
C1495 O1479 1.264 . S
C1495 O1480 1.243 . S
C1496 C1499 1.399 . S
C1496 C1500 1.383 . S
C1496 C1503 1.496 . S
C1497 C1498 1.399 . S
C1497 C1500 1.389 . S
C1498 C1497 1.399 . S
C1498 C1501 1.380 . S
C1498 H1508 0.929 . S
C1499 C1496 1.399 . S
C1499 C1501 1.392 . S
C1499 H1509 0.929 . S
C1500 C1496 1.383 . S
C1500 C1497 1.389 . S
C1500 H1510 0.931 . S
C1501 C1498 1.380 . S
C1501 C1499 1.392 . S
C1501 H1511 0.929 . S
C1502 O1482 1.266 . S
C1502 O1483 1.248 . S
C1503 Tb1439 2.802 . S
C1503 O1478 1.264 . S
C1503 O1481 1.256 . S
C1503 C1496 1.496 . S
H1504 C1487 0.929 . S
H1505 C1488 0.929 . S
H1506 C1489 0.929 . S
H1507 C1490 0.931 . S
H1508 C1498 0.929 . S
H1509 C1499 0.929 . S
H1510 C1500 0.931 . S
H1511 C1501 0.929 . S
Tb1512 N1541 2.617 . S
Tb1512 N1547 2.572 . S
Tb1512 O1556 2.465 . S
Tb1512 O1557 2.387 . S
Tb1512 O1559 2.428 . S
Tb1512 O1560 2.308 . S
Tb1512 O1564 2.349 . S
Tb1512 O1567 2.393 . S
Tb1512 C1576 2.802 . S
C1513 N1514 1.379 1_556 S
C1513 C1516 1.416 . S
C1513 C1520 1.424 . S
N1514 C1513 1.379 1_554 S
N1514 C1517 1.334 . S
N1514 Tb1523 2.617 . S
C1515 C1517 1.390 . S
C1515 C1518 1.339 1_554 S
C1515 H1535 0.930 . S
C1516 C1513 1.416 . S
C1516 C1518 1.416 . S
C1516 C1522 1.448 . S
C1517 N1514 1.334 . S
C1517 C1515 1.390 . S
C1517 H1528 0.930 . S
C1518 C1515 1.339 1_556 S
C1518 C1516 1.416 . S
C1518 H1539 0.930 . S
C1519 C1520 1.413 . S
C1519 C1521 1.427 . S
C1519 C1525 1.416 . S
C1520 C1513 1.424 . S
C1520 C1519 1.413 . S
C1520 N1524 1.361 . S
C1521 C1519 1.427 . S
C1521 C1522 1.328 . S
C1521 H1536 0.929 . S
C1522 C1516 1.448 . S
C1522 C1521 1.328 . S
C1522 H1537 0.930 . S
Tb1523 N1514 2.617 . S
Tb1523 N1524 2.572 1_554 S
Tb1523 O1558 2.349 . S
Tb1523 O1561 2.393 . S
Tb1523 O1562 2.465 1_554 S
Tb1523 O1563 2.387 . S
Tb1523 O1565 2.428 . S
Tb1523 O1566 2.308 . S
Tb1523 C1587 2.802 1_554 S
N1524 C1520 1.361 . S
N1524 Tb1523 2.572 1_556 S
N1524 C1526 1.340 . S
C1525 C1519 1.416 . S
C1525 C1527 1.332 . S
C1525 H1533 0.931 . S
C1526 N1524 1.340 . S
C1526 C1527 1.407 . S
C1526 H1532 0.930 . S
C1527 C1525 1.332 . S
C1527 C1526 1.407 . S
C1527 H1529 0.929 . S
H1528 C1517 0.930 . S
H1529 C1527 0.929 . S
H1530 C1545 0.930 . S
H1531 C1552 0.929 . S
H1532 C1526 0.930 . S
H1533 C1525 0.931 . S
H1534 C1548 0.930 . S
H1535 C1515 0.930 . S
H1536 C1521 0.929 . S
H1537 C1522 0.930 . S
H1538 C1543 0.930 . S
H1539 C1518 0.930 . S
H1540 C1551 0.931 . S
N1541 Tb1512 2.617 . S
N1541 C1542 1.379 . S
N1541 C1545 1.334 . S
C1542 N1541 1.379 . S
C1542 C1544 1.416 . S
C1542 C1550 1.424 . S
C1543 H1538 0.930 . S
C1543 C1545 1.390 . S
C1543 C1546 1.339 . S
C1544 C1542 1.416 . S
C1544 C1546 1.416 . S
C1544 C1577 1.448 . S
C1545 H1530 0.930 . S
C1545 N1541 1.334 . S
C1545 C1543 1.390 . S
C1546 C1543 1.339 . S
C1546 C1544 1.416 . S
C1546 H1553 0.930 . S
N1547 Tb1512 2.572 . S
N1547 C1548 1.340 . S
N1547 C1550 1.361 . S
C1548 H1534 0.930 . S
C1548 N1547 1.340 . S
C1548 C1552 1.407 . S
C1549 C1550 1.413 . S
C1549 C1551 1.416 . S
C1549 C1578 1.427 . S
C1550 C1542 1.424 . S
C1550 N1547 1.361 . S
C1550 C1549 1.413 . S
C1551 H1540 0.931 . S
C1551 C1549 1.416 . S
C1551 C1552 1.332 . S
C1552 H1531 0.929 . S
C1552 C1548 1.407 . S
C1552 C1551 1.332 . S
H1553 C1546 0.930 . S
H1554 C1577 0.930 . S
H1555 C1578 0.929 . S
O1556 Tb1512 2.465 . S
O1556 C1576 1.264 . S
O1557 Tb1512 2.387 . S
O1557 C1568 1.264 . S
O1558 Tb1523 2.349 . S
O1558 C1568 1.243 . S
O1559 Tb1512 2.428 . S
O1559 C1576 1.256 . S
O1560 Tb1512 2.308 . S
O1560 C1575 1.266 . S
O1561 Tb1523 2.393 . S
O1561 C1575 1.248 . S
O1562 Tb1523 2.465 1_556 S
O1562 C1587 1.264 . S
O1563 Tb1523 2.387 . S
O1563 C1579 1.264 . S
O1564 Tb1512 2.349 . S
O1564 C1579 1.243 . S
O1565 Tb1523 2.428 . S
O1565 C1587 1.256 1_554 S
O1566 Tb1523 2.308 . S
O1566 C1586 1.266 . S
O1567 Tb1512 2.393 . S
O1567 C1586 1.248 . S
C1568 O1557 1.264 . S
C1568 O1558 1.243 . S
C1569 C1572 1.399 . S
C1569 C1574 1.383 . S
C1569 C1576 1.496 . S
C1570 C1571 1.399 . S
C1570 C1574 1.389 . S
C1571 C1570 1.399 . S
C1571 C1573 1.380 . S
C1571 H1588 0.929 . S
C1572 C1569 1.399 . S
C1572 C1573 1.392 . S
C1572 H1589 0.929 . S
C1573 C1571 1.380 . S
C1573 C1572 1.392 . S
C1573 H1590 0.929 . S
C1574 C1569 1.383 . S
C1574 C1570 1.389 . S
C1574 H1591 0.931 . S
C1575 O1560 1.266 . S
C1575 O1561 1.248 . S
C1576 Tb1512 2.802 . S
C1576 O1556 1.264 . S
C1576 O1559 1.256 . S
C1576 C1569 1.496 . S
C1577 C1544 1.448 . S
C1577 H1554 0.930 . S
C1577 C1578 1.328 . S
C1578 C1549 1.427 . S
C1578 H1555 0.929 . S
C1578 C1577 1.328 . S
C1579 O1563 1.264 . S
C1579 O1564 1.243 . S
C1580 C1583 1.399 . S
C1580 C1584 1.383 . S
C1580 C1587 1.496 . S
C1581 C1582 1.399 . S
C1581 C1584 1.389 . S
C1582 C1581 1.399 . S
C1582 C1585 1.380 . S
C1582 H1592 0.929 . S
C1583 C1580 1.399 . S
C1583 C1585 1.392 . S
C1583 H1593 0.929 . S
C1584 C1580 1.383 . S
C1584 C1581 1.389 . S
C1584 H1594 0.931 . S
C1585 C1582 1.380 . S
C1585 C1583 1.392 . S
C1585 H1595 0.929 . S
C1586 O1566 1.266 . S
C1586 O1567 1.248 . S
C1587 Tb1523 2.802 1_556 S
C1587 O1562 1.264 . S
C1587 O1565 1.256 1_556 S
C1587 C1580 1.496 . S
H1588 C1571 0.929 . S
H1589 C1572 0.929 . S
H1590 C1573 0.929 . S
H1591 C1574 0.931 . S
H1592 C1582 0.929 . S
H1593 C1583 0.929 . S
H1594 C1584 0.931 . S
H1595 C1585 0.929 . S
Tb1596 N1625 2.617 . S
Tb1596 N1631 2.572 . S
Tb1596 O1640 2.465 . S
Tb1596 O1641 2.387 . S
Tb1596 O1643 2.428 . S
Tb1596 O1644 2.308 . S
Tb1596 O1648 2.349 . S
Tb1596 O1651 2.393 . S
Tb1596 C1660 2.802 . S
C1597 N1598 1.379 . S
C1597 C1600 1.416 . S
C1597 C1604 1.424 . S
N1598 C1597 1.379 . S
N1598 C1601 1.334 . S
N1598 Tb1607 2.617 . S
C1599 C1601 1.390 . S
C1599 C1602 1.339 . S
C1599 H1619 0.930 . S
C1600 C1597 1.416 . S
C1600 C1602 1.416 . S
C1600 C1606 1.448 . S
C1601 N1598 1.334 . S
C1601 C1599 1.390 . S
C1601 H1612 0.930 . S
C1602 C1599 1.339 . S
C1602 C1600 1.416 . S
C1602 H1623 0.930 . S
C1603 C1604 1.413 . S
C1603 C1605 1.427 . S
C1603 C1609 1.416 . S
C1604 C1597 1.424 . S
C1604 C1603 1.413 . S
C1604 N1608 1.361 . S
C1605 C1603 1.427 . S
C1605 C1606 1.328 . S
C1605 H1620 0.929 . S
C1606 C1600 1.448 . S
C1606 C1605 1.328 . S
C1606 H1621 0.930 . S
Tb1607 N1598 2.617 . S
Tb1607 N1608 2.572 . S
Tb1607 O1642 2.349 . S
Tb1607 O1645 2.393 . S
Tb1607 O1646 2.465 . S
Tb1607 O1647 2.387 . S
Tb1607 O1649 2.428 . S
Tb1607 O1650 2.308 . S
Tb1607 C1671 2.802 . S
N1608 C1604 1.361 . S
N1608 Tb1607 2.572 . S
N1608 C1610 1.340 . S
C1609 C1603 1.416 . S
C1609 C1611 1.332 . S
C1609 H1617 0.931 . S
C1610 N1608 1.340 . S
C1610 C1611 1.407 . S
C1610 H1616 0.930 . S
C1611 C1609 1.332 . S
C1611 C1610 1.407 . S
C1611 H1613 0.929 . S
H1612 C1601 0.930 . S
H1613 C1611 0.929 . S
H1614 C1629 0.930 . S
H1615 C1636 0.929 . S
H1616 C1610 0.930 . S
H1617 C1609 0.931 . S
H1618 C1632 0.930 . S
H1619 C1599 0.930 . S
H1620 C1605 0.929 . S
H1621 C1606 0.930 . S
H1622 C1627 0.930 . S
H1623 C1602 0.930 . S
H1624 C1635 0.931 . S
N1625 Tb1596 2.617 . S
N1625 C1626 1.379 . S
N1625 C1629 1.334 . S
C1626 N1625 1.379 . S
C1626 C1628 1.416 . S
C1626 C1634 1.424 . S
C1627 H1622 0.930 . S
C1627 C1629 1.390 . S
C1627 C1630 1.339 . S
C1628 C1626 1.416 . S
C1628 C1630 1.416 . S
C1628 C1661 1.448 . S
C1629 H1614 0.930 . S
C1629 N1625 1.334 . S
C1629 C1627 1.390 . S
C1630 C1627 1.339 . S
C1630 C1628 1.416 . S
C1630 H1637 0.930 . S
N1631 Tb1596 2.572 . S
N1631 C1632 1.340 . S
N1631 C1634 1.361 . S
C1632 H1618 0.930 . S
C1632 N1631 1.340 . S
C1632 C1636 1.407 . S
C1633 C1634 1.413 . S
C1633 C1635 1.416 . S
C1633 C1662 1.427 . S
C1634 C1626 1.424 . S
C1634 N1631 1.361 . S
C1634 C1633 1.413 . S
C1635 H1624 0.931 . S
C1635 C1633 1.416 . S
C1635 C1636 1.332 . S
C1636 H1615 0.929 . S
C1636 C1632 1.407 . S
C1636 C1635 1.332 . S
H1637 C1630 0.930 . S
H1638 C1661 0.930 . S
H1639 C1662 0.929 . S
O1640 Tb1596 2.465 . S
O1640 C1660 1.264 . S
O1641 Tb1596 2.387 . S
O1641 C1652 1.264 . S
O1642 Tb1607 2.349 . S
O1642 C1652 1.243 . S
O1643 Tb1596 2.428 . S
O1643 C1660 1.256 . S
O1644 Tb1596 2.308 . S
O1644 C1659 1.266 . S
O1645 Tb1607 2.393 . S
O1645 C1659 1.248 . S
O1646 Tb1607 2.465 . S
O1646 C1671 1.264 . S
O1647 Tb1607 2.387 . S
O1647 C1663 1.264 . S
O1648 Tb1596 2.349 . S
O1648 C1663 1.243 . S
O1649 Tb1607 2.428 . S
O1649 C1671 1.256 . S
O1650 Tb1607 2.308 . S
O1650 C1670 1.266 . S
O1651 Tb1596 2.393 . S
O1651 C1670 1.248 . S
C1652 O1641 1.264 . S
C1652 O1642 1.243 . S
C1653 C1656 1.399 . S
C1653 C1658 1.383 . S
C1653 C1660 1.496 . S
C1654 C1655 1.399 . S
C1654 C1658 1.389 . S
C1655 C1654 1.399 . S
C1655 C1657 1.380 . S
C1655 H1672 0.929 . S
C1656 C1653 1.399 . S
C1656 C1657 1.392 . S
C1656 H1673 0.929 . S
C1657 C1655 1.380 . S
C1657 C1656 1.392 . S
C1657 H1674 0.929 . S
C1658 C1653 1.383 . S
C1658 C1654 1.389 . S
C1658 H1675 0.931 . S
C1659 O1644 1.266 . S
C1659 O1645 1.248 . S
C1660 Tb1596 2.802 . S
C1660 O1640 1.264 . S
C1660 O1643 1.256 . S
C1660 C1653 1.496 . S
C1661 C1628 1.448 . S
C1661 H1638 0.930 . S
C1661 C1662 1.328 . S
C1662 C1633 1.427 . S
C1662 H1639 0.929 . S
C1662 C1661 1.328 . S
C1663 O1647 1.264 . S
C1663 O1648 1.243 . S
C1664 C1667 1.399 . S
C1664 C1668 1.383 . S
C1664 C1671 1.496 . S
C1665 C1666 1.399 . S
C1665 C1668 1.389 . S
C1666 C1665 1.399 . S
C1666 C1669 1.380 . S
C1666 H1676 0.929 . S
C1667 C1664 1.399 . S
C1667 C1669 1.392 . S
C1667 H1677 0.929 . S
C1668 C1664 1.383 . S
C1668 C1665 1.389 . S
C1668 H1678 0.931 . S
C1669 C1666 1.380 . S
C1669 C1667 1.392 . S
C1669 H1679 0.929 . S
C1670 O1650 1.266 . S
C1670 O1651 1.248 . S
C1671 Tb1607 2.802 . S
C1671 O1646 1.264 . S
C1671 O1649 1.256 . S
C1671 C1664 1.496 . S
H1672 C1655 0.929 . S
H1673 C1656 0.929 . S
H1674 C1657 0.929 . S
H1675 C1658 0.931 . S
H1676 C1666 0.929 . S
H1677 C1667 0.929 . S
H1678 C1668 0.931 . S
H1679 C1669 0.929 . S
Tb1680 N1709 2.617 . S
Tb1680 N1715 2.572 . S
Tb1680 O1724 2.465 . S
Tb1680 O1725 2.387 . S
Tb1680 O1727 2.428 . S
Tb1680 O1728 2.308 . S
Tb1680 O1732 2.349 . S
Tb1680 O1735 2.393 . S
Tb1680 C1744 2.802 . S
C1681 N1682 1.379 . S
C1681 C1684 1.416 . S
C1681 C1688 1.424 . S
N1682 C1681 1.379 . S
N1682 C1685 1.334 . S
N1682 Tb1691 2.617 . S
C1683 C1685 1.390 . S
C1683 C1686 1.339 . S
C1683 H1703 0.930 . S
C1684 C1681 1.416 . S
C1684 C1686 1.416 . S
C1684 C1690 1.448 . S
C1685 N1682 1.334 . S
C1685 C1683 1.390 . S
C1685 H1696 0.930 . S
C1686 C1683 1.339 . S
C1686 C1684 1.416 . S
C1686 H1707 0.930 . S
C1687 C1688 1.413 . S
C1687 C1689 1.427 . S
C1687 C1693 1.416 . S
C1688 C1681 1.424 . S
C1688 C1687 1.413 . S
C1688 N1692 1.361 . S
C1689 C1687 1.427 . S
C1689 C1690 1.328 . S
C1689 H1704 0.929 . S
C1690 C1684 1.448 . S
C1690 C1689 1.328 . S
C1690 H1705 0.930 . S
Tb1691 N1682 2.617 . S
Tb1691 N1692 2.572 . S
Tb1691 O1726 2.349 . S
Tb1691 O1729 2.393 . S
Tb1691 O1730 2.465 . S
Tb1691 O1731 2.387 . S
Tb1691 O1733 2.428 . S
Tb1691 O1734 2.308 . S
Tb1691 C1755 2.802 . S
N1692 C1688 1.361 . S
N1692 Tb1691 2.572 . S
N1692 C1694 1.340 . S
C1693 C1687 1.416 . S
C1693 C1695 1.332 . S
C1693 H1701 0.931 . S
C1694 N1692 1.340 . S
C1694 C1695 1.407 . S
C1694 H1700 0.930 . S
C1695 C1693 1.332 . S
C1695 C1694 1.407 . S
C1695 H1697 0.929 . S
H1696 C1685 0.930 . S
H1697 C1695 0.929 . S
H1698 C1713 0.930 . S
H1699 C1720 0.929 . S
H1700 C1694 0.930 . S
H1701 C1693 0.931 . S
H1702 C1716 0.930 . S
H1703 C1683 0.930 . S
H1704 C1689 0.929 . S
H1705 C1690 0.930 . S
H1706 C1711 0.930 . S
H1707 C1686 0.930 . S
H1708 C1719 0.931 . S
N1709 Tb1680 2.617 . S
N1709 C1710 1.379 . S
N1709 C1713 1.334 . S
C1710 N1709 1.379 . S
C1710 C1712 1.416 . S
C1710 C1718 1.424 . S
C1711 H1706 0.930 . S
C1711 C1713 1.390 . S
C1711 C1714 1.339 . S
C1712 C1710 1.416 . S
C1712 C1714 1.416 . S
C1712 C1745 1.448 . S
C1713 H1698 0.930 . S
C1713 N1709 1.334 . S
C1713 C1711 1.390 . S
C1714 C1711 1.339 . S
C1714 C1712 1.416 . S
C1714 H1721 0.930 . S
N1715 Tb1680 2.572 . S
N1715 C1716 1.340 . S
N1715 C1718 1.361 . S
C1716 H1702 0.930 . S
C1716 N1715 1.340 . S
C1716 C1720 1.407 . S
C1717 C1718 1.413 . S
C1717 C1719 1.416 . S
C1717 C1746 1.427 . S
C1718 C1710 1.424 . S
C1718 N1715 1.361 . S
C1718 C1717 1.413 . S
C1719 H1708 0.931 . S
C1719 C1717 1.416 . S
C1719 C1720 1.332 . S
C1720 H1699 0.929 . S
C1720 C1716 1.407 . S
C1720 C1719 1.332 . S
H1721 C1714 0.930 . S
H1722 C1745 0.930 . S
H1723 C1746 0.929 . S
O1724 Tb1680 2.465 . S
O1724 C1744 1.264 . S
O1725 Tb1680 2.387 . S
O1725 C1736 1.264 . S
O1726 Tb1691 2.349 . S
O1726 C1736 1.243 . S
O1727 Tb1680 2.428 . S
O1727 C1744 1.256 . S
O1728 Tb1680 2.308 . S
O1728 C1743 1.266 . S
O1729 Tb1691 2.393 . S
O1729 C1743 1.248 . S
O1730 Tb1691 2.465 . S
O1730 C1755 1.264 . S
O1731 Tb1691 2.387 . S
O1731 C1747 1.264 . S
O1732 Tb1680 2.349 . S
O1732 C1747 1.243 . S
O1733 Tb1691 2.428 . S
O1733 C1755 1.256 . S
O1734 Tb1691 2.308 . S
O1734 C1754 1.266 . S
O1735 Tb1680 2.393 . S
O1735 C1754 1.248 . S
C1736 O1725 1.264 . S
C1736 O1726 1.243 . S
C1737 C1740 1.399 . S
C1737 C1742 1.383 . S
C1737 C1744 1.496 . S
C1738 C1739 1.399 . S
C1738 C1742 1.389 . S
C1739 C1738 1.399 . S
C1739 C1741 1.380 . S
C1739 H1756 0.929 . S
C1740 C1737 1.399 . S
C1740 C1741 1.392 . S
C1740 H1757 0.929 . S
C1741 C1739 1.380 . S
C1741 C1740 1.392 . S
C1741 H1758 0.929 . S
C1742 C1737 1.383 . S
C1742 C1738 1.389 . S
C1742 H1759 0.931 . S
C1743 O1728 1.266 . S
C1743 O1729 1.248 . S
C1744 Tb1680 2.802 . S
C1744 O1724 1.264 . S
C1744 O1727 1.256 . S
C1744 C1737 1.496 . S
C1745 C1712 1.448 . S
C1745 H1722 0.930 . S
C1745 C1746 1.328 . S
C1746 C1717 1.427 . S
C1746 H1723 0.929 . S
C1746 C1745 1.328 . S
C1747 O1731 1.264 . S
C1747 O1732 1.243 . S
C1748 C1751 1.399 . S
C1748 C1752 1.383 . S
C1748 C1755 1.496 . S
C1749 C1750 1.399 . S
C1749 C1752 1.389 . S
C1750 C1749 1.399 . S
C1750 C1753 1.380 . S
C1750 H1760 0.929 . S
C1751 C1748 1.399 . S
C1751 C1753 1.392 . S
C1751 H1761 0.929 . S
C1752 C1748 1.383 . S
C1752 C1749 1.389 . S
C1752 H1762 0.931 . S
C1753 C1750 1.380 . S
C1753 C1751 1.392 . S
C1753 H1763 0.929 . S
C1754 O1734 1.266 . S
C1754 O1735 1.248 . S
C1755 Tb1691 2.802 . S
C1755 O1730 1.264 . S
C1755 O1733 1.256 . S
C1755 C1748 1.496 . S
H1756 C1739 0.929 . S
H1757 C1740 0.929 . S
H1758 C1741 0.929 . S
H1759 C1742 0.931 . S
H1760 C1750 0.929 . S
H1761 C1751 0.929 . S
H1762 C1752 0.931 . S
H1763 C1753 0.929 . S
Tb1764 N1793 2.617 . S
Tb1764 N1799 2.572 . S
Tb1764 O1808 2.465 . S
Tb1764 O1809 2.387 . S
Tb1764 O1811 2.428 . S
Tb1764 O1812 2.308 . S
Tb1764 O1816 2.349 . S
Tb1764 O1819 2.393 . S
Tb1764 C1828 2.802 . S
C1765 N1766 1.379 . S
C1765 C1768 1.416 . S
C1765 C1772 1.424 . S
N1766 C1765 1.379 . S
N1766 C1769 1.334 . S
N1766 Tb1775 2.617 . S
C1767 C1769 1.390 . S
C1767 C1770 1.339 . S
C1767 H1787 0.930 . S
C1768 C1765 1.416 . S
C1768 C1770 1.416 . S
C1768 C1774 1.448 . S
C1769 N1766 1.334 . S
C1769 C1767 1.390 . S
C1769 H1780 0.930 . S
C1770 C1767 1.339 . S
C1770 C1768 1.416 . S
C1770 H1791 0.930 . S
C1771 C1772 1.413 . S
C1771 C1773 1.427 . S
C1771 C1777 1.416 . S
C1772 C1765 1.424 . S
C1772 C1771 1.413 . S
C1772 N1776 1.361 . S
C1773 C1771 1.427 . S
C1773 C1774 1.328 . S
C1773 H1788 0.929 . S
C1774 C1768 1.448 . S
C1774 C1773 1.328 . S
C1774 H1789 0.930 . S
Tb1775 N1766 2.617 . S
Tb1775 N1776 2.572 . S
Tb1775 O1810 2.349 . S
Tb1775 O1813 2.393 . S
Tb1775 O1814 2.465 . S
Tb1775 O1815 2.387 . S
Tb1775 O1817 2.428 . S
Tb1775 O1818 2.308 . S
Tb1775 C1839 2.802 . S
N1776 C1772 1.361 . S
N1776 Tb1775 2.572 . S
N1776 C1778 1.340 . S
C1777 C1771 1.416 . S
C1777 C1779 1.332 . S
C1777 H1785 0.931 . S
C1778 N1776 1.340 . S
C1778 C1779 1.407 . S
C1778 H1784 0.930 . S
C1779 C1777 1.332 . S
C1779 C1778 1.407 . S
C1779 H1781 0.929 . S
H1780 C1769 0.930 . S
H1781 C1779 0.929 . S
H1782 C1797 0.930 . S
H1783 C1804 0.929 . S
H1784 C1778 0.930 . S
H1785 C1777 0.931 . S
H1786 C1800 0.930 . S
H1787 C1767 0.930 . S
H1788 C1773 0.929 . S
H1789 C1774 0.930 . S
H1790 C1795 0.930 . S
H1791 C1770 0.930 . S
H1792 C1803 0.931 . S
N1793 Tb1764 2.617 . S
N1793 C1794 1.379 . S
N1793 C1797 1.334 . S
C1794 N1793 1.379 . S
C1794 C1796 1.416 . S
C1794 C1802 1.424 . S
C1795 H1790 0.930 . S
C1795 C1797 1.390 . S
C1795 C1798 1.339 . S
C1796 C1794 1.416 . S
C1796 C1798 1.416 . S
C1796 C1829 1.448 . S
C1797 H1782 0.930 . S
C1797 N1793 1.334 . S
C1797 C1795 1.390 . S
C1798 C1795 1.339 . S
C1798 C1796 1.416 . S
C1798 H1805 0.930 . S
N1799 Tb1764 2.572 . S
N1799 C1800 1.340 . S
N1799 C1802 1.361 . S
C1800 H1786 0.930 . S
C1800 N1799 1.340 . S
C1800 C1804 1.407 . S
C1801 C1802 1.413 . S
C1801 C1803 1.416 . S
C1801 C1830 1.427 . S
C1802 C1794 1.424 . S
C1802 N1799 1.361 . S
C1802 C1801 1.413 . S
C1803 H1792 0.931 . S
C1803 C1801 1.416 . S
C1803 C1804 1.332 . S
C1804 H1783 0.929 . S
C1804 C1800 1.407 . S
C1804 C1803 1.332 . S
H1805 C1798 0.930 . S
H1806 C1829 0.930 . S
H1807 C1830 0.929 . S
O1808 Tb1764 2.465 . S
O1808 C1828 1.264 . S
O1809 Tb1764 2.387 . S
O1809 C1820 1.264 . S
O1810 Tb1775 2.349 . S
O1810 C1820 1.243 . S
O1811 Tb1764 2.428 . S
O1811 C1828 1.256 . S
O1812 Tb1764 2.308 . S
O1812 C1827 1.266 . S
O1813 Tb1775 2.393 . S
O1813 C1827 1.248 . S
O1814 Tb1775 2.465 . S
O1814 C1839 1.264 . S
O1815 Tb1775 2.387 . S
O1815 C1831 1.264 . S
O1816 Tb1764 2.349 . S
O1816 C1831 1.243 . S
O1817 Tb1775 2.428 . S
O1817 C1839 1.256 . S
O1818 Tb1775 2.308 . S
O1818 C1838 1.266 . S
O1819 Tb1764 2.393 . S
O1819 C1838 1.248 . S
C1820 O1809 1.264 . S
C1820 O1810 1.243 . S
C1821 C1824 1.399 . S
C1821 C1826 1.383 . S
C1821 C1828 1.496 . S
C1822 C1823 1.399 . S
C1822 C1826 1.389 . S
C1823 C1822 1.399 . S
C1823 C1825 1.380 . S
C1823 H1840 0.929 . S
C1824 C1821 1.399 . S
C1824 C1825 1.392 . S
C1824 H1841 0.929 . S
C1825 C1823 1.380 . S
C1825 C1824 1.392 . S
C1825 H1842 0.929 . S
C1826 C1821 1.383 . S
C1826 C1822 1.389 . S
C1826 H1843 0.931 . S
C1827 O1812 1.266 . S
C1827 O1813 1.248 . S
C1828 Tb1764 2.802 . S
C1828 O1808 1.264 . S
C1828 O1811 1.256 . S
C1828 C1821 1.496 . S
C1829 C1796 1.448 . S
C1829 H1806 0.930 . S
C1829 C1830 1.328 . S
C1830 C1801 1.427 . S
C1830 H1807 0.929 . S
C1830 C1829 1.328 . S
C1831 O1815 1.264 . S
C1831 O1816 1.243 . S
C1832 C1835 1.399 . S
C1832 C1836 1.383 . S
C1832 C1839 1.496 . S
C1833 C1834 1.399 . S
C1833 C1836 1.389 . S
C1834 C1833 1.399 . S
C1834 C1837 1.380 . S
C1834 H1844 0.929 . S
C1835 C1832 1.399 . S
C1835 C1837 1.392 . S
C1835 H1845 0.929 . S
C1836 C1832 1.383 . S
C1836 C1833 1.389 . S
C1836 H1846 0.931 . S
C1837 C1834 1.380 . S
C1837 C1835 1.392 . S
C1837 H1847 0.929 . S
C1838 O1818 1.266 . S
C1838 O1819 1.248 . S
C1839 Tb1775 2.802 . S
C1839 O1814 1.264 . S
C1839 O1817 1.256 . S
C1839 C1832 1.496 . S
H1840 C1823 0.929 . S
H1841 C1824 0.929 . S
H1842 C1825 0.929 . S
H1843 C1826 0.931 . S
H1844 C1834 0.929 . S
H1845 C1835 0.929 . S
H1846 C1836 0.931 . S
H1847 C1837 0.929 . S
Tb1848 N1877 2.617 . S
Tb1848 N1883 2.572 . S
Tb1848 O1892 2.465 . S
Tb1848 O1893 2.387 . S
Tb1848 O1895 2.428 . S
Tb1848 O1896 2.308 . S
Tb1848 O1900 2.349 . S
Tb1848 O1903 2.393 . S
Tb1848 C1912 2.802 . S
C1849 N1850 1.379 . S
C1849 C1852 1.416 . S
C1849 C1856 1.424 . S
N1850 C1849 1.379 . S
N1850 C1853 1.334 . S
N1850 Tb1859 2.617 . S
C1851 C1853 1.390 . S
C1851 C1854 1.339 . S
C1851 H1871 0.930 . S
C1852 C1849 1.416 . S
C1852 C1854 1.416 . S
C1852 C1858 1.448 . S
C1853 N1850 1.334 . S
C1853 C1851 1.390 . S
C1853 H1864 0.930 . S
C1854 C1851 1.339 . S
C1854 C1852 1.416 . S
C1854 H1875 0.930 . S
C1855 C1856 1.413 . S
C1855 C1857 1.427 . S
C1855 C1861 1.416 . S
C1856 C1849 1.424 . S
C1856 C1855 1.413 . S
C1856 N1860 1.361 . S
C1857 C1855 1.427 . S
C1857 C1858 1.328 . S
C1857 H1872 0.929 . S
C1858 C1852 1.448 . S
C1858 C1857 1.328 . S
C1858 H1873 0.930 . S
Tb1859 N1850 2.617 . S
Tb1859 N1860 2.572 . S
Tb1859 O1894 2.349 . S
Tb1859 O1897 2.393 . S
Tb1859 O1898 2.465 . S
Tb1859 O1899 2.387 . S
Tb1859 O1901 2.428 . S
Tb1859 O1902 2.308 . S
Tb1859 C1923 2.802 . S
N1860 C1856 1.361 . S
N1860 Tb1859 2.572 . S
N1860 C1862 1.340 . S
C1861 C1855 1.416 . S
C1861 C1863 1.332 . S
C1861 H1869 0.931 . S
C1862 N1860 1.340 . S
C1862 C1863 1.407 . S
C1862 H1868 0.930 . S
C1863 C1861 1.332 . S
C1863 C1862 1.407 . S
C1863 H1865 0.929 . S
H1864 C1853 0.930 . S
H1865 C1863 0.929 . S
H1866 C1881 0.930 . S
H1867 C1888 0.929 . S
H1868 C1862 0.930 . S
H1869 C1861 0.931 . S
H1870 C1884 0.930 . S
H1871 C1851 0.930 . S
H1872 C1857 0.929 . S
H1873 C1858 0.930 . S
H1874 C1879 0.930 . S
H1875 C1854 0.930 . S
H1876 C1887 0.931 . S
N1877 Tb1848 2.617 . S
N1877 C1878 1.379 . S
N1877 C1881 1.334 . S
C1878 N1877 1.379 . S
C1878 C1880 1.416 . S
C1878 C1886 1.424 . S
C1879 H1874 0.930 . S
C1879 C1881 1.390 . S
C1879 C1882 1.339 . S
C1880 C1878 1.416 . S
C1880 C1882 1.416 . S
C1880 C1913 1.448 . S
C1881 H1866 0.930 . S
C1881 N1877 1.334 . S
C1881 C1879 1.390 . S
C1882 C1879 1.339 . S
C1882 C1880 1.416 . S
C1882 H1889 0.930 . S
N1883 Tb1848 2.572 . S
N1883 C1884 1.340 . S
N1883 C1886 1.361 . S
C1884 H1870 0.930 . S
C1884 N1883 1.340 . S
C1884 C1888 1.407 . S
C1885 C1886 1.413 . S
C1885 C1887 1.416 . S
C1885 C1914 1.427 . S
C1886 C1878 1.424 . S
C1886 N1883 1.361 . S
C1886 C1885 1.413 . S
C1887 H1876 0.931 . S
C1887 C1885 1.416 . S
C1887 C1888 1.332 . S
C1888 H1867 0.929 . S
C1888 C1884 1.407 . S
C1888 C1887 1.332 . S
H1889 C1882 0.930 . S
H1890 C1913 0.930 . S
H1891 C1914 0.929 . S
O1892 Tb1848 2.465 . S
O1892 C1912 1.264 . S
O1893 Tb1848 2.387 . S
O1893 C1904 1.264 . S
O1894 Tb1859 2.349 . S
O1894 C1904 1.243 . S
O1895 Tb1848 2.428 . S
O1895 C1912 1.256 . S
O1896 Tb1848 2.308 . S
O1896 C1911 1.266 . S
O1897 Tb1859 2.393 . S
O1897 C1911 1.248 . S
O1898 Tb1859 2.465 . S
O1898 C1923 1.264 . S
O1899 Tb1859 2.387 . S
O1899 C1915 1.264 . S
O1900 Tb1848 2.349 . S
O1900 C1915 1.243 . S
O1901 Tb1859 2.428 . S
O1901 C1923 1.256 . S
O1902 Tb1859 2.308 . S
O1902 C1922 1.266 . S
O1903 Tb1848 2.393 . S
O1903 C1922 1.248 . S
C1904 O1893 1.264 . S
C1904 O1894 1.243 . S
C1905 C1908 1.399 . S
C1905 C1910 1.383 . S
C1905 C1912 1.496 . S
C1906 C1907 1.399 . S
C1906 C1910 1.389 . S
C1907 C1906 1.399 . S
C1907 C1909 1.380 . S
C1907 H1924 0.929 . S
C1908 C1905 1.399 . S
C1908 C1909 1.392 . S
C1908 H1925 0.929 . S
C1909 C1907 1.380 . S
C1909 C1908 1.392 . S
C1909 H1926 0.929 . S
C1910 C1905 1.383 . S
C1910 C1906 1.389 . S
C1910 H1927 0.931 . S
C1911 O1896 1.266 . S
C1911 O1897 1.248 . S
C1912 Tb1848 2.802 . S
C1912 O1892 1.264 . S
C1912 O1895 1.256 . S
C1912 C1905 1.496 . S
C1913 C1880 1.448 . S
C1913 H1890 0.930 . S
C1913 C1914 1.328 . S
C1914 C1885 1.427 . S
C1914 H1891 0.929 . S
C1914 C1913 1.328 . S
C1915 O1899 1.264 . S
C1915 O1900 1.243 . S
C1916 C1919 1.399 . S
C1916 C1920 1.383 . S
C1916 C1923 1.496 . S
C1917 C1918 1.399 . S
C1917 C1920 1.389 . S
C1918 C1917 1.399 . S
C1918 C1921 1.380 . S
C1918 H1928 0.929 . S
C1919 C1916 1.399 . S
C1919 C1921 1.392 . S
C1919 H1929 0.929 . S
C1920 C1916 1.383 . S
C1920 C1917 1.389 . S
C1920 H1930 0.931 . S
C1921 C1918 1.380 . S
C1921 C1919 1.392 . S
C1921 H1931 0.929 . S
C1922 O1902 1.266 . S
C1922 O1903 1.248 . S
C1923 Tb1859 2.802 . S
C1923 O1898 1.264 . S
C1923 O1901 1.256 . S
C1923 C1916 1.496 . S
H1924 C1907 0.929 . S
H1925 C1908 0.929 . S
H1926 C1909 0.929 . S
H1927 C1910 0.931 . S
H1928 C1918 0.929 . S
H1929 C1919 0.929 . S
H1930 C1920 0.931 . S
H1931 C1921 0.929 . S
Tb1932 N1961 2.617 . S
Tb1932 N1967 2.572 . S
Tb1932 O1976 2.465 . S
Tb1932 O1977 2.387 . S
Tb1932 O1979 2.428 . S
Tb1932 O1980 2.308 . S
Tb1932 O1984 2.349 . S
Tb1932 O1987 2.393 . S
Tb1932 C1996 2.802 . S
C1933 N1934 1.379 . S
C1933 C1936 1.416 . S
C1933 C1940 1.424 . S
N1934 C1933 1.379 . S
N1934 C1937 1.334 . S
N1934 Tb1943 2.617 . S
C1935 C1937 1.390 . S
C1935 C1938 1.339 . S
C1935 H1955 0.930 . S
C1936 C1933 1.416 . S
C1936 C1938 1.416 . S
C1936 C1942 1.448 . S
C1937 N1934 1.334 . S
C1937 C1935 1.390 . S
C1937 H1948 0.930 . S
C1938 C1935 1.339 . S
C1938 C1936 1.416 . S
C1938 H1959 0.930 . S
C1939 C1940 1.413 . S
C1939 C1941 1.427 . S
C1939 C1945 1.416 . S
C1940 C1933 1.424 . S
C1940 C1939 1.413 . S
C1940 N1944 1.361 . S
C1941 C1939 1.427 . S
C1941 C1942 1.328 . S
C1941 H1956 0.929 . S
C1942 C1936 1.448 . S
C1942 C1941 1.328 . S
C1942 H1957 0.930 . S
Tb1943 N1934 2.617 . S
Tb1943 N1944 2.572 . S
Tb1943 O1978 2.349 . S
Tb1943 O1981 2.393 . S
Tb1943 O1982 2.465 . S
Tb1943 O1983 2.387 . S
Tb1943 O1985 2.428 . S
Tb1943 O1986 2.308 . S
Tb1943 C2007 2.802 . S
N1944 C1940 1.361 . S
N1944 Tb1943 2.572 . S
N1944 C1946 1.340 . S
C1945 C1939 1.416 . S
C1945 C1947 1.332 . S
C1945 H1953 0.931 . S
C1946 N1944 1.340 . S
C1946 C1947 1.407 . S
C1946 H1952 0.930 . S
C1947 C1945 1.332 . S
C1947 C1946 1.407 . S
C1947 H1949 0.929 . S
H1948 C1937 0.930 . S
H1949 C1947 0.929 . S
H1950 C1965 0.930 . S
H1951 C1972 0.929 . S
H1952 C1946 0.930 . S
H1953 C1945 0.931 . S
H1954 C1968 0.930 . S
H1955 C1935 0.930 . S
H1956 C1941 0.929 . S
H1957 C1942 0.930 . S
H1958 C1963 0.930 . S
H1959 C1938 0.930 . S
H1960 C1971 0.931 . S
N1961 Tb1932 2.617 . S
N1961 C1962 1.379 . S
N1961 C1965 1.334 . S
C1962 N1961 1.379 . S
C1962 C1964 1.416 . S
C1962 C1970 1.424 . S
C1963 H1958 0.930 . S
C1963 C1965 1.390 . S
C1963 C1966 1.339 . S
C1964 C1962 1.416 . S
C1964 C1966 1.416 . S
C1964 C1997 1.448 . S
C1965 H1950 0.930 . S
C1965 N1961 1.334 . S
C1965 C1963 1.390 . S
C1966 C1963 1.339 . S
C1966 C1964 1.416 . S
C1966 H1973 0.930 . S
N1967 Tb1932 2.572 . S
N1967 C1968 1.340 . S
N1967 C1970 1.361 . S
C1968 H1954 0.930 . S
C1968 N1967 1.340 . S
C1968 C1972 1.407 . S
C1969 C1970 1.413 . S
C1969 C1971 1.416 . S
C1969 C1998 1.427 . S
C1970 C1962 1.424 . S
C1970 N1967 1.361 . S
C1970 C1969 1.413 . S
C1971 H1960 0.931 . S
C1971 C1969 1.416 . S
C1971 C1972 1.332 . S
C1972 H1951 0.929 . S
C1972 C1968 1.407 . S
C1972 C1971 1.332 . S
H1973 C1966 0.930 . S
H1974 C1997 0.930 . S
H1975 C1998 0.929 . S
O1976 Tb1932 2.465 . S
O1976 C1996 1.264 . S
O1977 Tb1932 2.387 . S
O1977 C1988 1.264 . S
O1978 Tb1943 2.349 . S
O1978 C1988 1.243 . S
O1979 Tb1932 2.428 . S
O1979 C1996 1.256 . S
O1980 Tb1932 2.308 . S
O1980 C1995 1.266 . S
O1981 Tb1943 2.393 . S
O1981 C1995 1.248 . S
O1982 Tb1943 2.465 . S
O1982 C2007 1.264 . S
O1983 Tb1943 2.387 . S
O1983 C1999 1.264 . S
O1984 Tb1932 2.349 . S
O1984 C1999 1.243 . S
O1985 Tb1943 2.428 . S
O1985 C2007 1.256 . S
O1986 Tb1943 2.308 . S
O1986 C2006 1.266 . S
O1987 Tb1932 2.393 . S
O1987 C2006 1.248 . S
C1988 O1977 1.264 . S
C1988 O1978 1.243 . S
C1989 C1992 1.399 . S
C1989 C1994 1.383 . S
C1989 C1996 1.496 . S
C1990 C1991 1.399 . S
C1990 C1994 1.389 . S
C1991 C1990 1.399 . S
C1991 C1993 1.380 . S
C1991 H2008 0.929 . S
C1992 C1989 1.399 . S
C1992 C1993 1.392 . S
C1992 H2009 0.929 . S
C1993 C1991 1.380 . S
C1993 C1992 1.392 . S
C1993 H2010 0.929 . S
C1994 C1989 1.383 . S
C1994 C1990 1.389 . S
C1994 H2011 0.931 . S
C1995 O1980 1.266 . S
C1995 O1981 1.248 . S
C1996 Tb1932 2.802 . S
C1996 O1976 1.264 . S
C1996 O1979 1.256 . S
C1996 C1989 1.496 . S
C1997 C1964 1.448 . S
C1997 H1974 0.930 . S
C1997 C1998 1.328 . S
C1998 C1969 1.427 . S
C1998 H1975 0.929 . S
C1998 C1997 1.328 . S
C1999 O1983 1.264 . S
C1999 O1984 1.243 . S
C2000 C2003 1.399 . S
C2000 C2004 1.383 . S
C2000 C2007 1.496 . S
C2001 C2002 1.399 . S
C2001 C2004 1.389 . S
C2002 C2001 1.399 . S
C2002 C2005 1.380 . S
C2002 H2012 0.929 . S
C2003 C2000 1.399 . S
C2003 C2005 1.392 . S
C2003 H2013 0.929 . S
C2004 C2000 1.383 . S
C2004 C2001 1.389 . S
C2004 H2014 0.931 . S
C2005 C2002 1.380 . S
C2005 C2003 1.392 . S
C2005 H2015 0.929 . S
C2006 O1986 1.266 . S
C2006 O1987 1.248 . S
C2007 Tb1943 2.802 . S
C2007 O1982 1.264 . S
C2007 O1985 1.256 . S
C2007 C2000 1.496 . S
H2008 C1991 0.929 . S
H2009 C1992 0.929 . S
H2010 C1993 0.929 . S
H2011 C1994 0.931 . S
H2012 C2002 0.929 . S
H2013 C2003 0.929 . S
H2014 C2004 0.931 . S
H2015 C2005 0.929 . S
H2016 C2024 0.929 . S
H2017 C2026 0.930 . S
H2018 C2028 0.930 . S
H2019 C2031 0.929 . S
H2020 C2034 0.930 . S
H2021 C2036 0.960 . S
H2022 C2036 0.960 . S
H2023 C2036 0.960 . S
C2024 H2016 0.929 . S
C2024 C2025 1.377 . S
C2024 C2026 1.384 . S
C2025 C2024 1.377 . S
C2025 C2031 1.390 . S
C2026 H2017 0.930 . S
C2026 C2024 1.384 . S
C2026 C2027 1.372 . S
C2027 C2026 1.372 . S
C2027 C2028 1.400 . S
C2027 C2032 1.490 . S
C2028 H2018 0.930 . S
C2028 C2027 1.400 . S
C2028 C2031 1.386 . S
H2029 C2045 0.930 . S
H2030 C2046 0.931 . S
C2031 H2019 0.929 . S
C2031 C2025 1.390 . S
C2031 C2028 1.386 . S
C2032 C2027 1.490 . S
C2032 C2034 1.395 . S
C2032 C2035 1.403 . S
H2033 C2039 0.930 . S
C2034 H2020 0.930 . S
C2034 C2032 1.395 . S
C2034 C2037 1.403 . S
C2035 C2032 1.403 . S
C2035 C2036 1.524 . S
C2035 C2039 1.400 . S
C2036 H2021 0.960 . S
C2036 H2022 0.960 . S
C2036 H2023 0.960 . S
C2036 C2035 1.524 . S
C2037 C2034 1.403 . S
C2037 C2038 1.392 . S
C2037 C2041 1.495 . S
C2038 C2037 1.392 . S
C2038 C2039 1.385 . S
C2038 C2040 1.478 . S
C2039 H2033 0.930 . S
C2039 C2035 1.400 . S
C2039 C2038 1.385 . S
C2040 C2038 1.478 . S
C2040 C2042 1.381 . S
C2040 C2046 1.383 . S
C2041 C2037 1.495 . S
C2041 H2047 0.959 . S
C2041 H2048 0.961 . S
C2041 H2049 0.960 . S
C2042 C2040 1.381 . S
C2042 C2043 1.394 . S
C2042 H2050 0.930 . S
C2043 C2042 1.394 . S
C2043 C2044 1.383 . S
C2043 H2051 0.929 . S
C2044 C2043 1.383 . S
C2044 C2045 1.377 . S
C2045 H2029 0.930 . S
C2045 C2044 1.377 . S
C2045 C2046 1.379 . S
C2046 H2030 0.931 . S
C2046 C2040 1.383 . S
C2046 C2045 1.379 . S
H2047 C2041 0.959 . S
H2048 C2041 0.961 . S
H2049 C2041 0.960 . S
H2050 C2042 0.930 . S
H2051 C2043 0.929 . S
H2052 C2060 0.929 . S
H2053 C2062 0.930 . S
H2054 C2064 0.930 . S
H2055 C2067 0.929 . S
H2056 C2070 0.930 . S
H2057 C2072 0.960 . S
H2058 C2072 0.960 . S
H2059 C2072 0.960 . S
C2060 H2052 0.929 . S
C2060 C2061 1.377 . S
C2060 C2062 1.384 . S
C2061 C2060 1.377 . S
C2061 C2067 1.390 . S
C2062 H2053 0.930 . S
C2062 C2060 1.384 . S
C2062 C2063 1.372 . S
C2063 C2062 1.372 . S
C2063 C2064 1.400 . S
C2063 C2068 1.490 . S
C2064 H2054 0.930 . S
C2064 C2063 1.400 . S
C2064 C2067 1.386 . S
H2065 C2081 0.930 . S
H2066 C2082 0.931 . S
C2067 H2055 0.929 . S
C2067 C2061 1.390 . S
C2067 C2064 1.386 . S
C2068 C2063 1.490 . S
C2068 C2070 1.395 . S
C2068 C2071 1.403 . S
H2069 C2075 0.930 . S
C2070 H2056 0.930 . S
C2070 C2068 1.395 . S
C2070 C2073 1.403 . S
C2071 C2068 1.403 . S
C2071 C2072 1.524 . S
C2071 C2075 1.400 . S
C2072 H2057 0.960 . S
C2072 H2058 0.960 . S
C2072 H2059 0.960 . S
C2072 C2071 1.524 . S
C2073 C2070 1.403 . S
C2073 C2074 1.392 . S
C2073 C2077 1.495 . S
C2074 C2073 1.392 . S
C2074 C2075 1.385 . S
C2074 C2076 1.478 . S
C2075 H2069 0.930 . S
C2075 C2071 1.400 . S
C2075 C2074 1.385 . S
C2076 C2074 1.478 . S
C2076 C2078 1.381 . S
C2076 C2082 1.383 . S
C2077 C2073 1.495 . S
C2077 H2083 0.959 . S
C2077 H2084 0.961 . S
C2077 H2085 0.960 . S
C2078 C2076 1.381 . S
C2078 C2079 1.394 . S
C2078 H2086 0.930 . S
C2079 C2078 1.394 . S
C2079 C2080 1.383 . S
C2079 H2087 0.929 . S
C2080 C2079 1.383 . S
C2080 C2081 1.377 . S
C2081 H2065 0.930 . S
C2081 C2080 1.377 . S
C2081 C2082 1.379 . S
C2082 H2066 0.931 . S
C2082 C2076 1.383 . S
C2082 C2081 1.379 . S
H2083 C2077 0.959 . S
H2084 C2077 0.961 . S
H2085 C2077 0.960 . S
H2086 C2078 0.930 . S
H2087 C2079 0.929 . S
H2088 C2096 0.929 . S
H2089 C2098 0.930 . S
H2090 C2100 0.930 . S
H2091 C2103 0.929 . S
H2092 C2106 0.930 . S
H2093 C2108 0.960 . S
H2094 C2108 0.960 . S
H2095 C2108 0.960 . S
C2096 H2088 0.929 . S
C2096 C2097 1.377 . S
C2096 C2098 1.384 . S
C2097 C2096 1.377 . S
C2097 C2103 1.390 . S
C2098 H2089 0.930 . S
C2098 C2096 1.384 . S
C2098 C2099 1.372 . S
C2099 C2098 1.372 . S
C2099 C2100 1.400 . S
C2099 C2104 1.490 . S
C2100 H2090 0.930 . S
C2100 C2099 1.400 . S
C2100 C2103 1.386 . S
H2101 C2117 0.930 . S
H2102 C2118 0.931 . S
C2103 H2091 0.929 . S
C2103 C2097 1.390 . S
C2103 C2100 1.386 . S
C2104 C2099 1.490 . S
C2104 C2106 1.395 . S
C2104 C2107 1.403 . S
H2105 C2111 0.930 . S
C2106 H2092 0.930 . S
C2106 C2104 1.395 . S
C2106 C2109 1.403 . S
C2107 C2104 1.403 . S
C2107 C2108 1.524 . S
C2107 C2111 1.400 . S
C2108 H2093 0.960 . S
C2108 H2094 0.960 . S
C2108 H2095 0.960 . S
C2108 C2107 1.524 . S
C2109 C2106 1.403 . S
C2109 C2110 1.392 . S
C2109 C2113 1.495 . S
C2110 C2109 1.392 . S
C2110 C2111 1.385 . S
C2110 C2112 1.478 . S
C2111 H2105 0.930 . S
C2111 C2107 1.400 . S
C2111 C2110 1.385 . S
C2112 C2110 1.478 . S
C2112 C2114 1.381 . S
C2112 C2118 1.383 . S
C2113 C2109 1.495 . S
C2113 H2119 0.959 . S
C2113 H2120 0.961 . S
C2113 H2121 0.960 . S
C2114 C2112 1.381 . S
C2114 C2115 1.394 . S
C2114 H2122 0.930 . S
C2115 C2114 1.394 . S
C2115 C2116 1.383 . S
C2115 H2123 0.929 . S
C2116 C2115 1.383 . S
C2116 C2117 1.377 . S
C2117 H2101 0.930 . S
C2117 C2116 1.377 . S
C2117 C2118 1.379 . S
C2118 H2102 0.931 . S
C2118 C2112 1.383 . S
C2118 C2117 1.379 . S
H2119 C2113 0.959 . S
H2120 C2113 0.961 . S
H2121 C2113 0.960 . S
H2122 C2114 0.930 . S
H2123 C2115 0.929 . S
H2124 C2132 0.929 . S
H2125 C2134 0.930 . S
H2126 C2136 0.930 . S
H2127 C2139 0.929 . S
H2128 C2142 0.930 . S
H2129 C2144 0.960 . S
H2130 C2144 0.960 . S
H2131 C2144 0.960 . S
C2132 H2124 0.929 . S
C2132 C2133 1.377 . S
C2132 C2134 1.384 . S
C2133 C2132 1.377 . S
C2133 C2139 1.390 . S
C2134 H2125 0.930 . S
C2134 C2132 1.384 . S
C2134 C2135 1.372 . S
C2135 C2134 1.372 . S
C2135 C2136 1.400 . S
C2135 C2140 1.490 . S
C2136 H2126 0.930 . S
C2136 C2135 1.400 . S
C2136 C2139 1.386 . S
H2137 C2153 0.930 . S
H2138 C2154 0.931 . S
C2139 H2127 0.929 . S
C2139 C2133 1.390 . S
C2139 C2136 1.386 . S
C2140 C2135 1.490 . S
C2140 C2142 1.395 . S
C2140 C2143 1.403 . S
H2141 C2147 0.930 . S
C2142 H2128 0.930 . S
C2142 C2140 1.395 . S
C2142 C2145 1.403 . S
C2143 C2140 1.403 . S
C2143 C2144 1.524 . S
C2143 C2147 1.400 . S
C2144 H2129 0.960 . S
C2144 H2130 0.960 . S
C2144 H2131 0.960 . S
C2144 C2143 1.524 . S
C2145 C2142 1.403 . S
C2145 C2146 1.392 . S
C2145 C2149 1.495 . S
C2146 C2145 1.392 . S
C2146 C2147 1.385 . S
C2146 C2148 1.478 . S
C2147 H2141 0.930 . S
C2147 C2143 1.400 . S
C2147 C2146 1.385 . S
C2148 C2146 1.478 . S
C2148 C2150 1.381 . S
C2148 C2154 1.383 . S
C2149 C2145 1.495 . S
C2149 H2155 0.959 . S
C2149 H2156 0.961 . S
C2149 H2157 0.960 . S
C2150 C2148 1.381 . S
C2150 C2151 1.394 . S
C2150 H2158 0.930 . S
C2151 C2150 1.394 . S
C2151 C2152 1.383 . S
C2151 H2159 0.929 . S
C2152 C2151 1.383 . S
C2152 C2153 1.377 . S
C2153 H2137 0.930 . S
C2153 C2152 1.377 . S
C2153 C2154 1.379 . S
C2154 H2138 0.931 . S
C2154 C2148 1.383 . S
C2154 C2153 1.379 . S
H2155 C2149 0.959 . S
H2156 C2149 0.961 . S
H2157 C2149 0.960 . S
H2158 C2150 0.930 . S
H2159 C2151 0.929 . S
H2160 C2168 0.929 . S
H2161 C2170 0.930 . S
H2162 C2172 0.930 . S
H2163 C2175 0.929 . S
H2164 C2178 0.930 . S
H2165 C2180 0.960 . S
H2166 C2180 0.960 . S
H2167 C2180 0.960 . S
C2168 H2160 0.929 . S
C2168 C2169 1.377 . S
C2168 C2170 1.384 . S
C2169 C2168 1.377 . S
C2169 C2175 1.390 . S
C2170 H2161 0.930 . S
C2170 C2168 1.384 . S
C2170 C2171 1.372 . S
C2171 C2170 1.372 . S
C2171 C2172 1.400 . S
C2171 C2176 1.490 . S
C2172 H2162 0.930 . S
C2172 C2171 1.400 . S
C2172 C2175 1.386 . S
H2173 C2189 0.930 . S
H2174 C2190 0.931 . S
C2175 H2163 0.929 . S
C2175 C2169 1.390 . S
C2175 C2172 1.386 . S
C2176 C2171 1.490 . S
C2176 C2178 1.395 . S
C2176 C2179 1.403 . S
H2177 C2183 0.930 . S
C2178 H2164 0.930 . S
C2178 C2176 1.395 . S
C2178 C2181 1.403 . S
C2179 C2176 1.403 . S
C2179 C2180 1.524 . S
C2179 C2183 1.400 . S
C2180 H2165 0.960 . S
C2180 H2166 0.960 . S
C2180 H2167 0.960 . S
C2180 C2179 1.524 . S
C2181 C2178 1.403 . S
C2181 C2182 1.392 . S
C2181 C2185 1.495 . S
C2182 C2181 1.392 . S
C2182 C2183 1.385 . S
C2182 C2184 1.478 . S
C2183 H2177 0.930 . S
C2183 C2179 1.400 . S
C2183 C2182 1.385 . S
C2184 C2182 1.478 . S
C2184 C2186 1.381 . S
C2184 C2190 1.383 . S
C2185 C2181 1.495 . S
C2185 H2191 0.959 . S
C2185 H2192 0.961 . S
C2185 H2193 0.960 . S
C2186 C2184 1.381 . S
C2186 C2187 1.394 . S
C2186 H2194 0.930 . S
C2187 C2186 1.394 . S
C2187 C2188 1.383 . S
C2187 H2195 0.929 . S
C2188 C2187 1.383 . S
C2188 C2189 1.377 . S
C2189 H2173 0.930 . S
C2189 C2188 1.377 . S
C2189 C2190 1.379 . S
C2190 H2174 0.931 . S
C2190 C2184 1.383 . S
C2190 C2189 1.379 . S
H2191 C2185 0.959 . S
H2192 C2185 0.961 . S
H2193 C2185 0.960 . S
H2194 C2186 0.930 . S
H2195 C2187 0.929 . S
H2196 C2204 0.929 . S
H2197 C2206 0.930 . S
H2198 C2208 0.930 . S
H2199 C2211 0.929 . S
H2200 C2214 0.930 . S
H2201 C2216 0.960 . S
H2202 C2216 0.960 . S
H2203 C2216 0.960 . S
C2204 H2196 0.929 . S
C2204 C2205 1.377 . S
C2204 C2206 1.384 . S
C2205 C2204 1.377 . S
C2205 C2211 1.390 . S
C2206 H2197 0.930 . S
C2206 C2204 1.384 . S
C2206 C2207 1.372 . S
C2207 C2206 1.372 . S
C2207 C2208 1.400 . S
C2207 C2212 1.490 . S
C2208 H2198 0.930 . S
C2208 C2207 1.400 . S
C2208 C2211 1.386 . S
H2209 C2225 0.930 . S
H2210 C2226 0.931 . S
C2211 H2199 0.929 . S
C2211 C2205 1.390 . S
C2211 C2208 1.386 . S
C2212 C2207 1.490 . S
C2212 C2214 1.395 . S
C2212 C2215 1.403 . S
H2213 C2219 0.930 . S
C2214 H2200 0.930 . S
C2214 C2212 1.395 . S
C2214 C2217 1.403 . S
C2215 C2212 1.403 . S
C2215 C2216 1.524 . S
C2215 C2219 1.400 . S
C2216 H2201 0.960 . S
C2216 H2202 0.960 . S
C2216 H2203 0.960 . S
C2216 C2215 1.524 . S
C2217 C2214 1.403 . S
C2217 C2218 1.392 . S
C2217 C2221 1.495 . S
C2218 C2217 1.392 . S
C2218 C2219 1.385 . S
C2218 C2220 1.478 . S
C2219 H2213 0.930 . S
C2219 C2215 1.400 . S
C2219 C2218 1.385 . S
C2220 C2218 1.478 . S
C2220 C2222 1.381 . S
C2220 C2226 1.383 . S
C2221 C2217 1.495 . S
C2221 H2227 0.959 . S
C2221 H2228 0.961 . S
C2221 H2229 0.960 . S
C2222 C2220 1.381 . S
C2222 C2223 1.394 . S
C2222 H2230 0.930 . S
C2223 C2222 1.394 . S
C2223 C2224 1.383 . S
C2223 H2231 0.929 . S
C2224 C2223 1.383 . S
C2224 C2225 1.377 . S
C2225 H2209 0.930 . S
C2225 C2224 1.377 . S
C2225 C2226 1.379 . S
C2226 H2210 0.931 . S
C2226 C2220 1.383 . S
C2226 C2225 1.379 . S
H2227 C2221 0.959 . S
H2228 C2221 0.961 . S
H2229 C2221 0.960 . S
H2230 C2222 0.930 . S
H2231 C2223 0.929 . S
H2232 C2240 0.929 . S
H2233 C2242 0.930 . S
H2234 C2244 0.930 . S
H2235 C2247 0.929 . S
H2236 C2250 0.930 . S
H2237 C2252 0.960 . S
H2238 C2252 0.960 . S
H2239 C2252 0.960 . S
C2240 H2232 0.929 . S
C2240 C2241 1.377 . S
C2240 C2242 1.384 . S
C2241 C2240 1.377 . S
C2241 C2247 1.390 . S
C2242 H2233 0.930 . S
C2242 C2240 1.384 . S
C2242 C2243 1.372 . S
C2243 C2242 1.372 . S
C2243 C2244 1.400 . S
C2243 C2248 1.490 . S
C2244 H2234 0.930 . S
C2244 C2243 1.400 . S
C2244 C2247 1.386 . S
H2245 C2261 0.930 . S
H2246 C2262 0.931 . S
C2247 H2235 0.929 . S
C2247 C2241 1.390 . S
C2247 C2244 1.386 . S
C2248 C2243 1.490 . S
C2248 C2250 1.395 . S
C2248 C2251 1.403 . S
H2249 C2255 0.930 . S
C2250 H2236 0.930 . S
C2250 C2248 1.395 . S
C2250 C2253 1.403 . S
C2251 C2248 1.403 . S
C2251 C2252 1.524 . S
C2251 C2255 1.400 . S
C2252 H2237 0.960 . S
C2252 H2238 0.960 . S
C2252 H2239 0.960 . S
C2252 C2251 1.524 . S
C2253 C2250 1.403 . S
C2253 C2254 1.392 . S
C2253 C2257 1.495 . S
C2254 C2253 1.392 . S
C2254 C2255 1.385 . S
C2254 C2256 1.478 . S
C2255 H2249 0.930 . S
C2255 C2251 1.400 . S
C2255 C2254 1.385 . S
C2256 C2254 1.478 . S
C2256 C2258 1.381 . S
C2256 C2262 1.383 . S
C2257 C2253 1.495 . S
C2257 H2263 0.959 . S
C2257 H2264 0.961 . S
C2257 H2265 0.960 . S
C2258 C2256 1.381 . S
C2258 C2259 1.394 . S
C2258 H2266 0.930 . S
C2259 C2258 1.394 . S
C2259 C2260 1.383 . S
C2259 H2267 0.929 . S
C2260 C2259 1.383 . S
C2260 C2261 1.377 . S
C2261 H2245 0.930 . S
C2261 C2260 1.377 . S
C2261 C2262 1.379 . S
C2262 H2246 0.931 . S
C2262 C2256 1.383 . S
C2262 C2261 1.379 . S
H2263 C2257 0.959 . S
H2264 C2257 0.961 . S
H2265 C2257 0.960 . S
H2266 C2258 0.930 . S
H2267 C2259 0.929 . S
H2268 C2276 0.929 . S
H2269 C2278 0.930 . S
H2270 C2280 0.930 . S
H2271 C2283 0.929 . S
H2272 C2286 0.930 . S
H2273 C2288 0.960 . S
H2274 C2288 0.960 . S
H2275 C2288 0.960 . S
C2276 H2268 0.929 . S
C2276 C2277 1.377 . S
C2276 C2278 1.384 . S
C2277 C2276 1.377 . S
C2277 C2283 1.390 . S
C2278 H2269 0.930 . S
C2278 C2276 1.384 . S
C2278 C2279 1.372 . S
C2279 C2278 1.372 . S
C2279 C2280 1.400 . S
C2279 C2284 1.490 . S
C2280 H2270 0.930 . S
C2280 C2279 1.400 . S
C2280 C2283 1.386 . S
H2281 C2297 0.930 . S
H2282 C2298 0.931 . S
C2283 H2271 0.929 . S
C2283 C2277 1.390 . S
C2283 C2280 1.386 . S
C2284 C2279 1.490 . S
C2284 C2286 1.395 . S
C2284 C2287 1.403 . S
H2285 C2291 0.930 . S
C2286 H2272 0.930 . S
C2286 C2284 1.395 . S
C2286 C2289 1.403 . S
C2287 C2284 1.403 . S
C2287 C2288 1.524 . S
C2287 C2291 1.400 . S
C2288 H2273 0.960 . S
C2288 H2274 0.960 . S
C2288 H2275 0.960 . S
C2288 C2287 1.524 . S
C2289 C2286 1.403 . S
C2289 C2290 1.392 . S
C2289 C2293 1.495 . S
C2290 C2289 1.392 . S
C2290 C2291 1.385 . S
C2290 C2292 1.478 . S
C2291 H2285 0.930 . S
C2291 C2287 1.400 . S
C2291 C2290 1.385 . S
C2292 C2290 1.478 . S
C2292 C2294 1.381 . S
C2292 C2298 1.383 . S
C2293 C2289 1.495 . S
C2293 H2299 0.959 . S
C2293 H2300 0.961 . S
C2293 H2301 0.960 . S
C2294 C2292 1.381 . S
C2294 C2295 1.394 . S
C2294 H2302 0.930 . S
C2295 C2294 1.394 . S
C2295 C2296 1.383 . S
C2295 H2303 0.929 . S
C2296 C2295 1.383 . S
C2296 C2297 1.377 . S
C2297 H2281 0.930 . S
C2297 C2296 1.377 . S
C2297 C2298 1.379 . S
C2298 H2282 0.931 . S
C2298 C2292 1.383 . S
C2298 C2297 1.379 . S
H2299 C2293 0.959 . S
H2300 C2293 0.961 . S
H2301 C2293 0.960 . S
H2302 C2294 0.930 . S
H2303 C2295 0.929 . S
H2304 C2312 0.929 . S
H2305 C2314 0.930 . S
H2306 C2316 0.930 . S
H2307 C2319 0.929 . S
H2308 C2322 0.930 . S
H2309 C2324 0.960 . S
H2310 C2324 0.960 . S
H2311 C2324 0.960 . S
C2312 H2304 0.929 . S
C2312 C2313 1.377 . S
C2312 C2314 1.384 . S
C2313 C2312 1.377 . S
C2313 C2319 1.390 . S
C2314 H2305 0.930 . S
C2314 C2312 1.384 . S
C2314 C2315 1.372 . S
C2315 C2314 1.372 . S
C2315 C2316 1.400 . S
C2315 C2320 1.490 . S
C2316 H2306 0.930 . S
C2316 C2315 1.400 . S
C2316 C2319 1.386 . S
H2317 C2333 0.930 . S
H2318 C2334 0.931 . S
C2319 H2307 0.929 . S
C2319 C2313 1.390 . S
C2319 C2316 1.386 . S
C2320 C2315 1.490 . S
C2320 C2322 1.395 . S
C2320 C2323 1.403 . S
H2321 C2327 0.930 . S
C2322 H2308 0.930 . S
C2322 C2320 1.395 . S
C2322 C2325 1.403 . S
C2323 C2320 1.403 . S
C2323 C2324 1.524 . S
C2323 C2327 1.400 . S
C2324 H2309 0.960 . S
C2324 H2310 0.960 . S
C2324 H2311 0.960 . S
C2324 C2323 1.524 . S
C2325 C2322 1.403 . S
C2325 C2326 1.392 . S
C2325 C2329 1.495 . S
C2326 C2325 1.392 . S
C2326 C2327 1.385 . S
C2326 C2328 1.478 . S
C2327 H2321 0.930 . S
C2327 C2323 1.400 . S
C2327 C2326 1.385 . S
C2328 C2326 1.478 . S
C2328 C2330 1.381 . S
C2328 C2334 1.383 . S
C2329 C2325 1.495 . S
C2329 H2335 0.959 . S
C2329 H2336 0.961 . S
C2329 H2337 0.960 . S
C2330 C2328 1.381 . S
C2330 C2331 1.394 . S
C2330 H2338 0.930 . S
C2331 C2330 1.394 . S
C2331 C2332 1.383 . S
C2331 H2339 0.929 . S
C2332 C2331 1.383 . S
C2332 C2333 1.377 . S
C2333 H2317 0.930 . S
C2333 C2332 1.377 . S
C2333 C2334 1.379 . S
C2334 H2318 0.931 . S
C2334 C2328 1.383 . S
C2334 C2333 1.379 . S
H2335 C2329 0.959 . S
H2336 C2329 0.961 . S
H2337 C2329 0.960 . S
H2338 C2330 0.930 . S
H2339 C2331 0.929 . S
H2340 C2348 0.929 . S
H2341 C2350 0.930 . S
H2342 C2352 0.930 . S
H2343 C2355 0.929 . S
H2344 C2358 0.930 . S
H2345 C2360 0.960 . S
H2346 C2360 0.960 . S
H2347 C2360 0.960 . S
C2348 H2340 0.929 . S
C2348 C2349 1.377 . S
C2348 C2350 1.384 . S
C2349 C2348 1.377 . S
C2349 C2355 1.390 . S
C2350 H2341 0.930 . S
C2350 C2348 1.384 . S
C2350 C2351 1.372 . S
C2351 C2350 1.372 . S
C2351 C2352 1.400 . S
C2351 C2356 1.490 . S
C2352 H2342 0.930 . S
C2352 C2351 1.400 . S
C2352 C2355 1.386 . S
H2353 C2369 0.930 . S
H2354 C2370 0.931 . S
C2355 H2343 0.929 . S
C2355 C2349 1.390 . S
C2355 C2352 1.386 . S
C2356 C2351 1.490 . S
C2356 C2358 1.395 . S
C2356 C2359 1.403 . S
H2357 C2363 0.930 . S
C2358 H2344 0.930 . S
C2358 C2356 1.395 . S
C2358 C2361 1.403 . S
C2359 C2356 1.403 . S
C2359 C2360 1.524 . S
C2359 C2363 1.400 . S
C2360 H2345 0.960 . S
C2360 H2346 0.960 . S
C2360 H2347 0.960 . S
C2360 C2359 1.524 . S
C2361 C2358 1.403 . S
C2361 C2362 1.392 . S
C2361 C2365 1.495 . S
C2362 C2361 1.392 . S
C2362 C2363 1.385 . S
C2362 C2364 1.478 . S
C2363 H2357 0.930 . S
C2363 C2359 1.400 . S
C2363 C2362 1.385 . S
C2364 C2362 1.478 . S
C2364 C2366 1.381 . S
C2364 C2370 1.383 . S
C2365 C2361 1.495 . S
C2365 H2371 0.959 . S
C2365 H2372 0.961 . S
C2365 H2373 0.960 . S
C2366 C2364 1.381 . S
C2366 C2367 1.394 . S
C2366 H2374 0.930 . S
C2367 C2366 1.394 . S
C2367 C2368 1.383 . S
C2367 H2375 0.929 . S
C2368 C2367 1.383 . S
C2368 C2369 1.377 . S
C2369 H2353 0.930 . S
C2369 C2368 1.377 . S
C2369 C2370 1.379 . S
C2370 H2354 0.931 . S
C2370 C2364 1.383 . S
C2370 C2369 1.379 . S
H2371 C2365 0.959 . S
H2372 C2365 0.961 . S
H2373 C2365 0.960 . S
H2374 C2366 0.930 . S
H2375 C2367 0.929 . S
H2376 C2384 0.929 . S
H2377 C2386 0.930 . S
H2378 C2388 0.930 . S
H2379 C2391 0.929 . S
H2380 C2394 0.930 . S
H2381 C2396 0.960 . S
H2382 C2396 0.960 . S
H2383 C2396 0.960 . S
C2384 H2376 0.929 . S
C2384 C2385 1.377 . S
C2384 C2386 1.384 . S
C2385 C2384 1.377 . S
C2385 C2391 1.390 . S
C2386 H2377 0.930 . S
C2386 C2384 1.384 . S
C2386 C2387 1.372 . S
C2387 C2386 1.372 . S
C2387 C2388 1.400 . S
C2387 C2392 1.490 . S
C2388 H2378 0.930 . S
C2388 C2387 1.400 . S
C2388 C2391 1.386 . S
H2389 C2405 0.930 . S
H2390 C2406 0.931 . S
C2391 H2379 0.929 . S
C2391 C2385 1.390 . S
C2391 C2388 1.386 . S
C2392 C2387 1.490 . S
C2392 C2394 1.395 . S
C2392 C2395 1.403 . S
H2393 C2399 0.930 . S
C2394 H2380 0.930 . S
C2394 C2392 1.395 . S
C2394 C2397 1.403 . S
C2395 C2392 1.403 . S
C2395 C2396 1.524 . S
C2395 C2399 1.400 . S
C2396 H2381 0.960 . S
C2396 H2382 0.960 . S
C2396 H2383 0.960 . S
C2396 C2395 1.524 . S
C2397 C2394 1.403 . S
C2397 C2398 1.392 . S
C2397 C2401 1.495 . S
C2398 C2397 1.392 . S
C2398 C2399 1.385 . S
C2398 C2400 1.478 . S
C2399 H2393 0.930 . S
C2399 C2395 1.400 . S
C2399 C2398 1.385 . S
C2400 C2398 1.478 . S
C2400 C2402 1.381 . S
C2400 C2406 1.383 . S
C2401 C2397 1.495 . S
C2401 H2407 0.959 . S
C2401 H2408 0.961 . S
C2401 H2409 0.960 . S
C2402 C2400 1.381 . S
C2402 C2403 1.394 . S
C2402 H2410 0.930 . S
C2403 C2402 1.394 . S
C2403 C2404 1.383 . S
C2403 H2411 0.929 . S
C2404 C2403 1.383 . S
C2404 C2405 1.377 . S
C2405 H2389 0.930 . S
C2405 C2404 1.377 . S
C2405 C2406 1.379 . S
C2406 H2390 0.931 . S
C2406 C2400 1.383 . S
C2406 C2405 1.379 . S
H2407 C2401 0.959 . S
H2408 C2401 0.961 . S
H2409 C2401 0.960 . S
H2410 C2402 0.930 . S
H2411 C2403 0.929 . S
H2412 C2420 0.929 . S
H2413 C2422 0.930 . S
H2414 C2424 0.930 . S
H2415 C2427 0.929 . S
H2416 C2430 0.930 . S
H2417 C2432 0.960 . S
H2418 C2432 0.960 . S
H2419 C2432 0.960 . S
C2420 H2412 0.929 . S
C2420 C2421 1.377 . S
C2420 C2422 1.384 . S
C2421 C2420 1.377 . S
C2421 C2427 1.390 . S
C2422 H2413 0.930 . S
C2422 C2420 1.384 . S
C2422 C2423 1.372 . S
C2423 C2422 1.372 . S
C2423 C2424 1.400 . S
C2423 C2428 1.490 . S
C2424 H2414 0.930 . S
C2424 C2423 1.400 . S
C2424 C2427 1.386 . S
H2425 C2441 0.930 . S
H2426 C2442 0.931 . S
C2427 H2415 0.929 . S
C2427 C2421 1.390 . S
C2427 C2424 1.386 . S
C2428 C2423 1.490 . S
C2428 C2430 1.395 . S
C2428 C2431 1.403 . S
H2429 C2435 0.930 . S
C2430 H2416 0.930 . S
C2430 C2428 1.395 . S
C2430 C2433 1.403 . S
C2431 C2428 1.403 . S
C2431 C2432 1.524 . S
C2431 C2435 1.400 . S
C2432 H2417 0.960 . S
C2432 H2418 0.960 . S
C2432 H2419 0.960 . S
C2432 C2431 1.524 . S
C2433 C2430 1.403 . S
C2433 C2434 1.392 . S
C2433 C2437 1.495 . S
C2434 C2433 1.392 . S
C2434 C2435 1.385 . S
C2434 C2436 1.478 . S
C2435 H2429 0.930 . S
C2435 C2431 1.400 . S
C2435 C2434 1.385 . S
C2436 C2434 1.478 . S
C2436 C2438 1.381 . S
C2436 C2442 1.383 . S
C2437 C2433 1.495 . S
C2437 H2443 0.959 . S
C2437 H2444 0.961 . S
C2437 H2445 0.960 . S
C2438 C2436 1.381 . S
C2438 C2439 1.394 . S
C2438 H2446 0.930 . S
C2439 C2438 1.394 . S
C2439 C2440 1.383 . S
C2439 H2447 0.929 . S
C2440 C2439 1.383 . S
C2440 C2441 1.377 . S
C2441 H2425 0.930 . S
C2441 C2440 1.377 . S
C2441 C2442 1.379 . S
C2442 H2426 0.931 . S
C2442 C2436 1.383 . S
C2442 C2441 1.379 . S
H2443 C2437 0.959 . S
H2444 C2437 0.961 . S
H2445 C2437 0.960 . S
H2446 C2438 0.930 . S
H2447 C2439 0.929 . S
H2448 C2456 0.929 . S
H2449 C2458 0.930 . S
H2450 C2460 0.930 . S
H2451 C2463 0.929 . S
H2452 C2466 0.930 . S
H2453 C2468 0.960 . S
H2454 C2468 0.960 . S
H2455 C2468 0.960 . S
C2456 H2448 0.929 . S
C2456 C2457 1.377 . S
C2456 C2458 1.384 . S
C2457 C2456 1.377 . S
C2457 C2463 1.390 . S
C2458 H2449 0.930 . S
C2458 C2456 1.384 . S
C2458 C2459 1.372 . S
C2459 C2458 1.372 . S
C2459 C2460 1.400 . S
C2459 C2464 1.490 . S
C2460 H2450 0.930 . S
C2460 C2459 1.400 . S
C2460 C2463 1.386 . S
H2461 C2477 0.930 . S
H2462 C2478 0.931 . S
C2463 H2451 0.929 . S
C2463 C2457 1.390 . S
C2463 C2460 1.386 . S
C2464 C2459 1.490 . S
C2464 C2466 1.395 . S
C2464 C2467 1.403 . S
H2465 C2471 0.930 . S
C2466 H2452 0.930 . S
C2466 C2464 1.395 . S
C2466 C2469 1.403 . S
C2467 C2464 1.403 . S
C2467 C2468 1.524 . S
C2467 C2471 1.400 . S
C2468 H2453 0.960 . S
C2468 H2454 0.960 . S
C2468 H2455 0.960 . S
C2468 C2467 1.524 . S
C2469 C2466 1.403 . S
C2469 C2470 1.392 . S
C2469 C2473 1.495 . S
C2470 C2469 1.392 . S
C2470 C2471 1.385 . S
C2470 C2472 1.478 . S
C2471 H2465 0.930 . S
C2471 C2467 1.400 . S
C2471 C2470 1.385 . S
C2472 C2470 1.478 . S
C2472 C2474 1.381 . S
C2472 C2478 1.383 . S
C2473 C2469 1.495 . S
C2473 H2479 0.959 . S
C2473 H2480 0.961 . S
C2473 H2481 0.960 . S
C2474 C2472 1.381 . S
C2474 C2475 1.394 . S
C2474 H2482 0.930 . S
C2475 C2474 1.394 . S
C2475 C2476 1.383 . S
C2475 H2483 0.929 . S
C2476 C2475 1.383 . S
C2476 C2477 1.377 . S
C2477 H2461 0.930 . S
C2477 C2476 1.377 . S
C2477 C2478 1.379 . S
C2478 H2462 0.931 . S
C2478 C2472 1.383 . S
C2478 C2477 1.379 . S
H2479 C2473 0.959 . S
H2480 C2473 0.961 . S
H2481 C2473 0.960 . S
H2482 C2474 0.930 . S
H2483 C2475 0.929 . S
H2484 C2492 0.929 . S
H2485 C2494 0.930 . S
H2486 C2496 0.930 . S
H2487 C2499 0.929 . S
H2488 C2502 0.930 . S
H2489 C2504 0.960 . S
H2490 C2504 0.960 . S
H2491 C2504 0.960 . S
C2492 H2484 0.929 . S
C2492 C2493 1.377 . S
C2492 C2494 1.384 . S
C2493 C2492 1.377 . S
C2493 C2499 1.390 . S
C2494 H2485 0.930 . S
C2494 C2492 1.384 . S
C2494 C2495 1.372 . S
C2495 C2494 1.372 . S
C2495 C2496 1.400 . S
C2495 C2500 1.490 . S
C2496 H2486 0.930 . S
C2496 C2495 1.400 . S
C2496 C2499 1.386 . S
H2497 C2513 0.930 . S
H2498 C2514 0.931 . S
C2499 H2487 0.929 . S
C2499 C2493 1.390 . S
C2499 C2496 1.386 . S
C2500 C2495 1.490 . S
C2500 C2502 1.395 . S
C2500 C2503 1.403 . S
H2501 C2507 0.930 . S
C2502 H2488 0.930 . S
C2502 C2500 1.395 . S
C2502 C2505 1.403 . S
C2503 C2500 1.403 . S
C2503 C2504 1.524 . S
C2503 C2507 1.400 . S
C2504 H2489 0.960 . S
C2504 H2490 0.960 . S
C2504 H2491 0.960 . S
C2504 C2503 1.524 . S
C2505 C2502 1.403 . S
C2505 C2506 1.392 . S
C2505 C2509 1.495 . S
C2506 C2505 1.392 . S
C2506 C2507 1.385 . S
C2506 C2508 1.478 . S
C2507 H2501 0.930 . S
C2507 C2503 1.400 . S
C2507 C2506 1.385 . S
C2508 C2506 1.478 . S
C2508 C2510 1.381 . S
C2508 C2514 1.383 . S
C2509 C2505 1.495 . S
C2509 H2515 0.959 . S
C2509 H2516 0.961 . S
C2509 H2517 0.960 . S
C2510 C2508 1.381 . S
C2510 C2511 1.394 . S
C2510 H2518 0.930 . S
C2511 C2510 1.394 . S
C2511 C2512 1.383 . S
C2511 H2519 0.929 . S
C2512 C2511 1.383 . S
C2512 C2513 1.377 . S
C2513 H2497 0.930 . S
C2513 C2512 1.377 . S
C2513 C2514 1.379 . S
C2514 H2498 0.931 . S
C2514 C2508 1.383 . S
C2514 C2513 1.379 . S
H2515 C2509 0.959 . S
H2516 C2509 0.961 . S
H2517 C2509 0.960 . S
H2518 C2510 0.930 . S
H2519 C2511 0.929 . S
H2520 C2528 0.929 . S
H2521 C2530 0.930 . S
H2522 C2532 0.930 . S
H2523 C2535 0.929 . S
H2524 C2538 0.930 . S
H2525 C2540 0.960 . S
H2526 C2540 0.960 . S
H2527 C2540 0.960 . S
C2528 H2520 0.929 . S
C2528 C2529 1.377 . S
C2528 C2530 1.384 . S
C2529 C2528 1.377 . S
C2529 C2535 1.390 . S
C2530 H2521 0.930 . S
C2530 C2528 1.384 . S
C2530 C2531 1.372 . S
C2531 C2530 1.372 . S
C2531 C2532 1.400 . S
C2531 C2536 1.490 . S
C2532 H2522 0.930 . S
C2532 C2531 1.400 . S
C2532 C2535 1.386 . S
H2533 C2549 0.930 . S
H2534 C2550 0.931 . S
C2535 H2523 0.929 . S
C2535 C2529 1.390 . S
C2535 C2532 1.386 . S
C2536 C2531 1.490 . S
C2536 C2538 1.395 . S
C2536 C2539 1.403 . S
H2537 C2543 0.930 . S
C2538 H2524 0.930 . S
C2538 C2536 1.395 . S
C2538 C2541 1.403 . S
C2539 C2536 1.403 . S
C2539 C2540 1.524 . S
C2539 C2543 1.400 . S
C2540 H2525 0.960 . S
C2540 H2526 0.960 . S
C2540 H2527 0.960 . S
C2540 C2539 1.524 . S
C2541 C2538 1.403 . S
C2541 C2542 1.392 . S
C2541 C2545 1.495 . S
C2542 C2541 1.392 . S
C2542 C2543 1.385 . S
C2542 C2544 1.478 . S
C2543 H2537 0.930 . S
C2543 C2539 1.400 . S
C2543 C2542 1.385 . S
C2544 C2542 1.478 . S
C2544 C2546 1.381 . S
C2544 C2550 1.383 . S
C2545 C2541 1.495 . S
C2545 H2551 0.959 . S
C2545 H2552 0.961 . S
C2545 H2553 0.960 . S
C2546 C2544 1.381 . S
C2546 C2547 1.394 . S
C2546 H2554 0.930 . S
C2547 C2546 1.394 . S
C2547 C2548 1.383 . S
C2547 H2555 0.929 . S
C2548 C2547 1.383 . S
C2548 C2549 1.377 . S
C2549 H2533 0.930 . S
C2549 C2548 1.377 . S
C2549 C2550 1.379 . S
C2550 H2534 0.931 . S
C2550 C2544 1.383 . S
C2550 C2549 1.379 . S
H2551 C2545 0.959 . S
H2552 C2545 0.961 . S
H2553 C2545 0.960 . S
H2554 C2546 0.930 . S
H2555 C2547 0.929 . S
H2556 C2564 0.929 . S
H2557 C2566 0.930 . S
H2558 C2568 0.930 . S
H2559 C2571 0.929 . S
H2560 C2574 0.930 . S
H2561 C2576 0.960 . S
H2562 C2576 0.960 . S
H2563 C2576 0.960 . S
C2564 H2556 0.929 . S
C2564 C2565 1.377 . S
C2564 C2566 1.384 . S
C2565 C2564 1.377 . S
C2565 C2571 1.390 . S
C2566 H2557 0.930 . S
C2566 C2564 1.384 . S
C2566 C2567 1.372 . S
C2567 C2566 1.372 . S
C2567 C2568 1.400 . S
C2567 C2572 1.490 . S
C2568 H2558 0.930 . S
C2568 C2567 1.400 . S
C2568 C2571 1.386 . S
H2569 C2585 0.930 . S
H2570 C2586 0.931 . S
C2571 H2559 0.929 . S
C2571 C2565 1.390 . S
C2571 C2568 1.386 . S
C2572 C2567 1.490 . S
C2572 C2574 1.395 . S
C2572 C2575 1.403 . S
H2573 C2579 0.930 . S
C2574 H2560 0.930 . S
C2574 C2572 1.395 . S
C2574 C2577 1.403 . S
C2575 C2572 1.403 . S
C2575 C2576 1.524 . S
C2575 C2579 1.400 . S
C2576 H2561 0.960 . S
C2576 H2562 0.960 . S
C2576 H2563 0.960 . S
C2576 C2575 1.524 . S
C2577 C2574 1.403 . S
C2577 C2578 1.392 . S
C2577 C2581 1.495 . S
C2578 C2577 1.392 . S
C2578 C2579 1.385 . S
C2578 C2580 1.478 . S
C2579 H2573 0.930 . S
C2579 C2575 1.400 . S
C2579 C2578 1.385 . S
C2580 C2578 1.478 . S
C2580 C2582 1.381 . S
C2580 C2586 1.383 . S
C2581 C2577 1.495 . S
C2581 H2587 0.959 . S
C2581 H2588 0.961 . S
C2581 H2589 0.960 . S
C2582 C2580 1.381 . S
C2582 C2583 1.394 . S
C2582 H2590 0.930 . S
C2583 C2582 1.394 . S
C2583 C2584 1.383 . S
C2583 H2591 0.929 . S
C2584 C2583 1.383 . S
C2584 C2585 1.377 . S
C2585 H2569 0.930 . S
C2585 C2584 1.377 . S
C2585 C2586 1.379 . S
C2586 H2570 0.931 . S
C2586 C2580 1.383 . S
C2586 C2585 1.379 . S
H2587 C2581 0.959 . S
H2588 C2581 0.961 . S
H2589 C2581 0.960 . S
H2590 C2582 0.930 . S
H2591 C2583 0.929 . S
H2592 C2600 0.929 . S
H2593 C2602 0.930 . S
H2594 C2604 0.930 . S
H2595 C2607 0.929 . S
H2596 C2610 0.930 . S
H2597 C2612 0.960 . S
H2598 C2612 0.960 . S
H2599 C2612 0.960 . S
C2600 H2592 0.929 . S
C2600 C2601 1.377 . S
C2600 C2602 1.384 . S
C2601 C2600 1.377 . S
C2601 C2607 1.390 . S
C2602 H2593 0.930 . S
C2602 C2600 1.384 . S
C2602 C2603 1.372 . S
C2603 C2602 1.372 . S
C2603 C2604 1.400 . S
C2603 C2608 1.490 . S
C2604 H2594 0.930 . S
C2604 C2603 1.400 . S
C2604 C2607 1.386 . S
H2605 C2621 0.930 . S
H2606 C2622 0.931 . S
C2607 H2595 0.929 . S
C2607 C2601 1.390 . S
C2607 C2604 1.386 . S
C2608 C2603 1.490 . S
C2608 C2610 1.395 . S
C2608 C2611 1.403 . S
H2609 C2615 0.930 . S
C2610 H2596 0.930 . S
C2610 C2608 1.395 . S
C2610 C2613 1.403 . S
C2611 C2608 1.403 . S
C2611 C2612 1.524 . S
C2611 C2615 1.400 . S
C2612 H2597 0.960 . S
C2612 H2598 0.960 . S
C2612 H2599 0.960 . S
C2612 C2611 1.524 . S
C2613 C2610 1.403 . S
C2613 C2614 1.392 . S
C2613 C2617 1.495 . S
C2614 C2613 1.392 . S
C2614 C2615 1.385 . S
C2614 C2616 1.478 . S
C2615 H2609 0.930 . S
C2615 C2611 1.400 . S
C2615 C2614 1.385 . S
C2616 C2614 1.478 . S
C2616 C2618 1.381 . S
C2616 C2622 1.383 . S
C2617 C2613 1.495 . S
C2617 H2623 0.959 . S
C2617 H2624 0.961 . S
C2617 H2625 0.960 . S
C2618 C2616 1.381 . S
C2618 C2619 1.394 . S
C2618 H2626 0.930 . S
C2619 C2618 1.394 . S
C2619 C2620 1.383 . S
C2619 H2627 0.929 . S
C2620 C2619 1.383 . S
C2620 C2621 1.377 . S
C2621 H2605 0.930 . S
C2621 C2620 1.377 . S
C2621 C2622 1.379 . S
C2622 H2606 0.931 . S
C2622 C2616 1.383 . S
C2622 C2621 1.379 . S
H2623 C2617 0.959 . S
H2624 C2617 0.961 . S
H2625 C2617 0.960 . S
H2626 C2618 0.930 . S
H2627 C2619 0.929 . S
H2628 C2636 0.929 . S
H2629 C2638 0.930 . S
H2630 C2640 0.930 . S
H2631 C2643 0.929 . S
H2632 C2646 0.930 . S
H2633 C2648 0.960 . S
H2634 C2648 0.960 . S
H2635 C2648 0.960 . S
C2636 H2628 0.929 . S
C2636 C2637 1.377 . S
C2636 C2638 1.384 . S
C2637 C2636 1.377 . S
C2637 C2643 1.390 . S
C2638 H2629 0.930 . S
C2638 C2636 1.384 . S
C2638 C2639 1.372 . S
C2639 C2638 1.372 . S
C2639 C2640 1.400 . S
C2639 C2644 1.490 . S
C2640 H2630 0.930 . S
C2640 C2639 1.400 . S
C2640 C2643 1.386 . S
H2641 C2657 0.930 . S
H2642 C2658 0.931 . S
C2643 H2631 0.929 . S
C2643 C2637 1.390 . S
C2643 C2640 1.386 . S
C2644 C2639 1.490 . S
C2644 C2646 1.395 . S
C2644 C2647 1.403 . S
H2645 C2651 0.930 . S
C2646 H2632 0.930 . S
C2646 C2644 1.395 . S
C2646 C2649 1.403 . S
C2647 C2644 1.403 . S
C2647 C2648 1.524 . S
C2647 C2651 1.400 . S
C2648 H2633 0.960 . S
C2648 H2634 0.960 . S
C2648 H2635 0.960 . S
C2648 C2647 1.524 . S
C2649 C2646 1.403 . S
C2649 C2650 1.392 . S
C2649 C2653 1.495 . S
C2650 C2649 1.392 . S
C2650 C2651 1.385 . S
C2650 C2652 1.478 . S
C2651 H2645 0.930 . S
C2651 C2647 1.400 . S
C2651 C2650 1.385 . S
C2652 C2650 1.478 . S
C2652 C2654 1.381 . S
C2652 C2658 1.383 . S
C2653 C2649 1.495 . S
C2653 H2659 0.959 . S
C2653 H2660 0.961 . S
C2653 H2661 0.960 . S
C2654 C2652 1.381 . S
C2654 C2655 1.394 . S
C2654 H2662 0.930 . S
C2655 C2654 1.394 . S
C2655 C2656 1.383 . S
C2655 H2663 0.929 . S
C2656 C2655 1.383 . S
C2656 C2657 1.377 . S
C2657 H2641 0.930 . S
C2657 C2656 1.377 . S
C2657 C2658 1.379 . S
C2658 H2642 0.931 . S
C2658 C2652 1.383 . S
C2658 C2657 1.379 . S
H2659 C2653 0.959 . S
H2660 C2653 0.961 . S
H2661 C2653 0.960 . S
H2662 C2654 0.930 . S
H2663 C2655 0.929 . S
H2664 C2672 0.929 . S
H2665 C2674 0.930 . S
H2666 C2676 0.930 . S
H2667 C2679 0.929 . S
H2668 C2682 0.930 . S
H2669 C2684 0.960 . S
H2670 C2684 0.960 . S
H2671 C2684 0.960 . S
C2672 H2664 0.929 . S
C2672 C2673 1.377 . S
C2672 C2674 1.384 . S
C2673 C2672 1.377 . S
C2673 C2679 1.390 . S
C2674 H2665 0.930 . S
C2674 C2672 1.384 . S
C2674 C2675 1.372 . S
C2675 C2674 1.372 . S
C2675 C2676 1.400 . S
C2675 C2680 1.490 . S
C2676 H2666 0.930 . S
C2676 C2675 1.400 . S
C2676 C2679 1.386 . S
H2677 C2693 0.930 . S
H2678 C2694 0.931 . S
C2679 H2667 0.929 . S
C2679 C2673 1.390 . S
C2679 C2676 1.386 . S
C2680 C2675 1.490 . S
C2680 C2682 1.395 . S
C2680 C2683 1.403 . S
H2681 C2687 0.930 . S
C2682 H2668 0.930 . S
C2682 C2680 1.395 . S
C2682 C2685 1.403 . S
C2683 C2680 1.403 . S
C2683 C2684 1.524 . S
C2683 C2687 1.400 . S
C2684 H2669 0.960 . S
C2684 H2670 0.960 . S
C2684 H2671 0.960 . S
C2684 C2683 1.524 . S
C2685 C2682 1.403 . S
C2685 C2686 1.392 . S
C2685 C2689 1.495 . S
C2686 C2685 1.392 . S
C2686 C2687 1.385 . S
C2686 C2688 1.478 . S
C2687 H2681 0.930 . S
C2687 C2683 1.400 . S
C2687 C2686 1.385 . S
C2688 C2686 1.478 . S
C2688 C2690 1.381 . S
C2688 C2694 1.383 . S
C2689 C2685 1.495 . S
C2689 H2695 0.959 . S
C2689 H2696 0.961 . S
C2689 H2697 0.960 . S
C2690 C2688 1.381 . S
C2690 C2691 1.394 . S
C2690 H2698 0.930 . S
C2691 C2690 1.394 . S
C2691 C2692 1.383 . S
C2691 H2699 0.929 . S
C2692 C2691 1.383 . S
C2692 C2693 1.377 . S
C2693 H2677 0.930 . S
C2693 C2692 1.377 . S
C2693 C2694 1.379 . S
C2694 H2678 0.931 . S
C2694 C2688 1.383 . S
C2694 C2693 1.379 . S
H2695 C2689 0.959 . S
H2696 C2689 0.961 . S
H2697 C2689 0.960 . S
H2698 C2690 0.930 . S
H2699 C2691 0.929 . S
H2700 C2708 0.929 . S
H2701 C2710 0.930 . S
H2702 C2712 0.930 . S
H2703 C2715 0.929 . S
H2704 C2718 0.930 . S
H2705 C2720 0.960 . S
H2706 C2720 0.960 . S
H2707 C2720 0.960 . S
C2708 H2700 0.929 . S
C2708 C2709 1.377 . S
C2708 C2710 1.384 . S
C2709 C2708 1.377 . S
C2709 C2715 1.390 . S
C2710 H2701 0.930 . S
C2710 C2708 1.384 . S
C2710 C2711 1.372 . S
C2711 C2710 1.372 . S
C2711 C2712 1.400 . S
C2711 C2716 1.490 . S
C2712 H2702 0.930 . S
C2712 C2711 1.400 . S
C2712 C2715 1.386 . S
H2713 C2729 0.930 . S
H2714 C2730 0.931 . S
C2715 H2703 0.929 . S
C2715 C2709 1.390 . S
C2715 C2712 1.386 . S
C2716 C2711 1.490 . S
C2716 C2718 1.395 . S
C2716 C2719 1.403 . S
H2717 C2723 0.930 . S
C2718 H2704 0.930 . S
C2718 C2716 1.395 . S
C2718 C2721 1.403 . S
C2719 C2716 1.403 . S
C2719 C2720 1.524 . S
C2719 C2723 1.400 . S
C2720 H2705 0.960 . S
C2720 H2706 0.960 . S
C2720 H2707 0.960 . S
C2720 C2719 1.524 . S
C2721 C2718 1.403 . S
C2721 C2722 1.392 . S
C2721 C2725 1.495 . S
C2722 C2721 1.392 . S
C2722 C2723 1.385 . S
C2722 C2724 1.478 . S
C2723 H2717 0.930 . S
C2723 C2719 1.400 . S
C2723 C2722 1.385 . S
C2724 C2722 1.478 . S
C2724 C2726 1.381 . S
C2724 C2730 1.383 . S
C2725 C2721 1.495 . S
C2725 H2731 0.959 . S
C2725 H2732 0.961 . S
C2725 H2733 0.960 . S
C2726 C2724 1.381 . S
C2726 C2727 1.394 . S
C2726 H2734 0.930 . S
C2727 C2726 1.394 . S
C2727 C2728 1.383 . S
C2727 H2735 0.929 . S
C2728 C2727 1.383 . S
C2728 C2729 1.377 . S
C2729 H2713 0.930 . S
C2729 C2728 1.377 . S
C2729 C2730 1.379 . S
C2730 H2714 0.931 . S
C2730 C2724 1.383 . S
C2730 C2729 1.379 . S
H2731 C2725 0.959 . S
H2732 C2725 0.961 . S
H2733 C2725 0.960 . S
H2734 C2726 0.930 . S
H2735 C2727 0.929 . S
H2736 C2744 0.929 . S
H2737 C2746 0.930 . S
H2738 C2748 0.930 . S
H2739 C2751 0.929 . S
H2740 C2754 0.930 . S
H2741 C2756 0.960 . S
H2742 C2756 0.960 . S
H2743 C2756 0.960 . S
C2744 H2736 0.929 . S
C2744 C2745 1.377 . S
C2744 C2746 1.384 . S
C2745 C2744 1.377 . S
C2745 C2751 1.390 . S
C2746 H2737 0.930 . S
C2746 C2744 1.384 . S
C2746 C2747 1.372 . S
C2747 C2746 1.372 . S
C2747 C2748 1.400 . S
C2747 C2752 1.490 . S
C2748 H2738 0.930 . S
C2748 C2747 1.400 . S
C2748 C2751 1.386 . S
H2749 C2765 0.930 . S
H2750 C2766 0.931 . S
C2751 H2739 0.929 . S
C2751 C2745 1.390 . S
C2751 C2748 1.386 . S
C2752 C2747 1.490 . S
C2752 C2754 1.395 . S
C2752 C2755 1.403 . S
H2753 C2759 0.930 . S
C2754 H2740 0.930 . S
C2754 C2752 1.395 . S
C2754 C2757 1.403 . S
C2755 C2752 1.403 . S
C2755 C2756 1.524 . S
C2755 C2759 1.400 . S
C2756 H2741 0.960 . S
C2756 H2742 0.960 . S
C2756 H2743 0.960 . S
C2756 C2755 1.524 . S
C2757 C2754 1.403 . S
C2757 C2758 1.392 . S
C2757 C2761 1.495 . S
C2758 C2757 1.392 . S
C2758 C2759 1.385 . S
C2758 C2760 1.478 . S
C2759 H2753 0.930 . S
C2759 C2755 1.400 . S
C2759 C2758 1.385 . S
C2760 C2758 1.478 . S
C2760 C2762 1.381 . S
C2760 C2766 1.383 . S
C2761 C2757 1.495 . S
C2761 H2767 0.959 . S
C2761 H2768 0.961 . S
C2761 H2769 0.960 . S
C2762 C2760 1.381 . S
C2762 C2763 1.394 . S
C2762 H2770 0.930 . S
C2763 C2762 1.394 . S
C2763 C2764 1.383 . S
C2763 H2771 0.929 . S
C2764 C2763 1.383 . S
C2764 C2765 1.377 . S
C2765 H2749 0.930 . S
C2765 C2764 1.377 . S
C2765 C2766 1.379 . S
C2766 H2750 0.931 . S
C2766 C2760 1.383 . S
C2766 C2765 1.379 . S
H2767 C2761 0.959 . S
H2768 C2761 0.961 . S
H2769 C2761 0.960 . S
H2770 C2762 0.930 . S
H2771 C2763 0.929 . S
H2772 C2780 0.929 . S
H2773 C2782 0.930 . S
H2774 C2784 0.930 . S
H2775 C2787 0.929 . S
H2776 C2790 0.930 . S
H2777 C2792 0.960 . S
H2778 C2792 0.960 . S
H2779 C2792 0.960 . S
C2780 H2772 0.929 . S
C2780 C2781 1.377 . S
C2780 C2782 1.384 . S
C2781 C2780 1.377 . S
C2781 C2787 1.390 . S
C2782 H2773 0.930 . S
C2782 C2780 1.384 . S
C2782 C2783 1.372 . S
C2783 C2782 1.372 . S
C2783 C2784 1.400 . S
C2783 C2788 1.490 . S
C2784 H2774 0.930 . S
C2784 C2783 1.400 . S
C2784 C2787 1.386 . S
H2785 C2801 0.930 . S
H2786 C2802 0.931 . S
C2787 H2775 0.929 . S
C2787 C2781 1.390 . S
C2787 C2784 1.386 . S
C2788 C2783 1.490 . S
C2788 C2790 1.395 . S
C2788 C2791 1.403 . S
H2789 C2795 0.930 . S
C2790 H2776 0.930 . S
C2790 C2788 1.395 . S
C2790 C2793 1.403 . S
C2791 C2788 1.403 . S
C2791 C2792 1.524 . S
C2791 C2795 1.400 . S
C2792 H2777 0.960 . S
C2792 H2778 0.960 . S
C2792 H2779 0.960 . S
C2792 C2791 1.524 . S
C2793 C2790 1.403 . S
C2793 C2794 1.392 . S
C2793 C2797 1.495 . S
C2794 C2793 1.392 . S
C2794 C2795 1.385 . S
C2794 C2796 1.478 . S
C2795 H2789 0.930 . S
C2795 C2791 1.400 . S
C2795 C2794 1.385 . S
C2796 C2794 1.478 . S
C2796 C2798 1.381 . S
C2796 C2802 1.383 . S
C2797 C2793 1.495 . S
C2797 H2803 0.959 . S
C2797 H2804 0.961 . S
C2797 H2805 0.960 . S
C2798 C2796 1.381 . S
C2798 C2799 1.394 . S
C2798 H2806 0.930 . S
C2799 C2798 1.394 . S
C2799 C2800 1.383 . S
C2799 H2807 0.929 . S
C2800 C2799 1.383 . S
C2800 C2801 1.377 . S
C2801 H2785 0.930 . S
C2801 C2800 1.377 . S
C2801 C2802 1.379 . S
C2802 H2786 0.931 . S
C2802 C2796 1.383 . S
C2802 C2801 1.379 . S
H2803 C2797 0.959 . S
H2804 C2797 0.961 . S
H2805 C2797 0.960 . S
H2806 C2798 0.930 . S
H2807 C2799 0.929 . S
H2808 C2816 0.929 . S
H2809 C2818 0.930 . S
H2810 C2820 0.930 . S
H2811 C2823 0.929 . S
H2812 C2826 0.930 . S
H2813 C2828 0.960 . S
H2814 C2828 0.960 . S
H2815 C2828 0.960 . S
C2816 H2808 0.929 . S
C2816 C2817 1.377 . S
C2816 C2818 1.384 . S
C2817 C2816 1.377 . S
C2817 C2823 1.390 . S
C2818 H2809 0.930 . S
C2818 C2816 1.384 . S
C2818 C2819 1.372 . S
C2819 C2818 1.372 . S
C2819 C2820 1.400 . S
C2819 C2824 1.490 . S
C2820 H2810 0.930 . S
C2820 C2819 1.400 . S
C2820 C2823 1.386 . S
H2821 C2837 0.930 . S
H2822 C2838 0.931 . S
C2823 H2811 0.929 . S
C2823 C2817 1.390 . S
C2823 C2820 1.386 . S
C2824 C2819 1.490 . S
C2824 C2826 1.395 . S
C2824 C2827 1.403 . S
H2825 C2831 0.930 . S
C2826 H2812 0.930 . S
C2826 C2824 1.395 . S
C2826 C2829 1.403 . S
C2827 C2824 1.403 . S
C2827 C2828 1.524 . S
C2827 C2831 1.400 . S
C2828 H2813 0.960 . S
C2828 H2814 0.960 . S
C2828 H2815 0.960 . S
C2828 C2827 1.524 . S
C2829 C2826 1.403 . S
C2829 C2830 1.392 . S
C2829 C2833 1.495 . S
C2830 C2829 1.392 . S
C2830 C2831 1.385 . S
C2830 C2832 1.478 . S
C2831 H2825 0.930 . S
C2831 C2827 1.400 . S
C2831 C2830 1.385 . S
C2832 C2830 1.478 . S
C2832 C2834 1.381 . S
C2832 C2838 1.383 . S
C2833 C2829 1.495 . S
C2833 H2839 0.959 . S
C2833 H2840 0.961 . S
C2833 H2841 0.960 . S
C2834 C2832 1.381 . S
C2834 C2835 1.394 . S
C2834 H2842 0.930 . S
C2835 C2834 1.394 . S
C2835 C2836 1.383 . S
C2835 H2843 0.929 . S
C2836 C2835 1.383 . S
C2836 C2837 1.377 . S
C2837 H2821 0.930 . S
C2837 C2836 1.377 . S
C2837 C2838 1.379 . S
C2838 H2822 0.931 . S
C2838 C2832 1.383 . S
C2838 C2837 1.379 . S
H2839 C2833 0.959 . S
H2840 C2833 0.961 . S
H2841 C2833 0.960 . S
H2842 C2834 0.930 . S
H2843 C2835 0.929 . S
H2844 C2852 0.929 . S
H2845 C2854 0.930 . S
H2846 C2856 0.930 . S
H2847 C2859 0.929 . S
H2848 C2862 0.930 . S
H2849 C2864 0.960 . S
H2850 C2864 0.960 . S
H2851 C2864 0.960 . S
C2852 H2844 0.929 . S
C2852 C2853 1.377 . S
C2852 C2854 1.384 . S
C2853 C2852 1.377 . S
C2853 C2859 1.390 . S
C2854 H2845 0.930 . S
C2854 C2852 1.384 . S
C2854 C2855 1.372 . S
C2855 C2854 1.372 . S
C2855 C2856 1.400 . S
C2855 C2860 1.490 . S
C2856 H2846 0.930 . S
C2856 C2855 1.400 . S
C2856 C2859 1.386 . S
H2857 C2873 0.930 . S
H2858 C2874 0.931 . S
C2859 H2847 0.929 . S
C2859 C2853 1.390 . S
C2859 C2856 1.386 . S
C2860 C2855 1.490 . S
C2860 C2862 1.395 . S
C2860 C2863 1.403 . S
H2861 C2867 0.930 . S
C2862 H2848 0.930 . S
C2862 C2860 1.395 . S
C2862 C2865 1.403 . S
C2863 C2860 1.403 . S
C2863 C2864 1.524 . S
C2863 C2867 1.400 . S
C2864 H2849 0.960 . S
C2864 H2850 0.960 . S
C2864 H2851 0.960 . S
C2864 C2863 1.524 . S
C2865 C2862 1.403 . S
C2865 C2866 1.392 . S
C2865 C2869 1.495 . S
C2866 C2865 1.392 . S
C2866 C2867 1.385 . S
C2866 C2868 1.478 . S
C2867 H2861 0.930 . S
C2867 C2863 1.400 . S
C2867 C2866 1.385 . S
C2868 C2866 1.478 . S
C2868 C2870 1.381 . S
C2868 C2874 1.383 . S
C2869 C2865 1.495 . S
C2869 H2875 0.959 . S
C2869 H2876 0.961 . S
C2869 H2877 0.960 . S
C2870 C2868 1.381 . S
C2870 C2871 1.394 . S
C2870 H2878 0.930 . S
C2871 C2870 1.394 . S
C2871 C2872 1.383 . S
C2871 H2879 0.929 . S
C2872 C2871 1.383 . S
C2872 C2873 1.377 . S
C2873 H2857 0.930 . S
C2873 C2872 1.377 . S
C2873 C2874 1.379 . S
C2874 H2858 0.931 . S
C2874 C2868 1.383 . S
C2874 C2873 1.379 . S
H2875 C2869 0.959 . S
H2876 C2869 0.961 . S
H2877 C2869 0.960 . S
H2878 C2870 0.930 . S
H2879 C2871 0.929 . S
H2880 C2888 0.929 . S
H2881 C2890 0.930 . S
H2882 C2892 0.886 1_655 S
H2883 C2895 0.929 1_655 S
H2884 C2898 0.930 . S
H2885 C2900 0.960 . S
H2886 C2900 0.960 . S
H2887 C2900 0.960 . S
C2888 H2880 0.929 . S
C2888 C2889 1.377 . S
C2888 C2890 1.384 . S
C2889 C2888 1.377 . S
C2889 C2895 1.390 . S
C2890 H2881 0.930 . S
C2890 C2888 1.384 . S
C2890 C2891 1.372 . S
C2891 C2890 1.372 . S
C2891 C2892 1.400 . S
C2891 C2896 1.490 . S
C2892 H2882 0.886 1_455 S
C2892 C2891 1.400 . S
C2892 C2895 1.386 . S
H2893 C2909 0.930 . S
H2894 C2910 0.931 . S
C2895 H2883 0.929 1_455 S
C2895 C2889 1.390 . S
C2895 C2892 1.386 . S
C2896 C2891 1.490 . S
C2896 C2898 1.395 . S
C2896 C2899 1.403 . S
H2897 C2903 0.930 1_655 S
C2898 H2884 0.930 . S
C2898 C2896 1.395 . S
C2898 C2901 1.403 1_565 S
C2899 C2896 1.403 . S
C2899 C2900 1.524 1_455 S
C2899 C2903 1.400 1_565 S
C2900 H2885 0.960 . S
C2900 H2886 0.960 . S
C2900 H2887 0.960 . S
C2900 C2899 1.524 1_655 S
C2901 C2898 1.403 1_545 S
C2901 C2902 1.392 . S
C2901 C2905 1.495 . S
C2902 C2901 1.392 . S
C2902 C2903 1.385 . S
C2902 C2904 1.478 . S
C2903 H2897 0.930 1_455 S
C2903 C2899 1.400 1_545 S
C2903 C2902 1.385 . S
C2904 C2902 1.478 . S
C2904 C2906 1.381 . S
C2904 C2910 1.383 . S
C2905 C2901 1.495 . S
C2905 H2911 0.959 . S
C2905 H2912 0.961 . S
C2905 H2913 0.960 . S
C2906 C2904 1.381 . S
C2906 C2907 1.394 . S
C2906 H2914 0.930 . S
C2907 C2906 1.394 . S
C2907 C2908 1.383 . S
C2907 H2915 0.929 . S
C2908 C2907 1.383 . S
C2908 C2909 1.377 . S
C2909 H2893 0.930 . S
C2909 C2908 1.377 . S
C2909 C2910 1.379 . S
C2910 H2894 0.931 . S
C2910 C2904 1.383 . S
C2910 C2909 1.379 . S
H2911 C2905 0.959 . S
H2912 C2905 0.961 . S
H2913 C2905 0.960 . S
H2914 C2906 0.930 . S
H2915 C2907 0.929 . S
H2916 C2924 0.929 . S
H2917 C2926 0.930 . S
H2918 C2928 0.930 . S
H2919 C2931 0.929 . S
H2920 C2934 0.930 . S
H2921 C2936 0.960 . S
H2922 C2936 0.960 . S
H2923 C2936 0.960 . S
C2924 H2916 0.929 . S
C2924 C2925 1.377 . S
C2924 C2926 1.384 . S
C2925 C2924 1.377 . S
C2925 C2931 1.390 . S
C2926 H2917 0.930 . S
C2926 C2924 1.384 . S
C2926 C2927 1.372 . S
C2927 C2926 1.372 . S
C2927 C2928 1.400 . S
C2927 C2932 1.490 . S
C2928 H2918 0.930 . S
C2928 C2927 1.400 . S
C2928 C2931 1.386 . S
H2929 C2945 0.930 . S
H2930 C2946 0.931 . S
C2931 H2919 0.929 . S
C2931 C2925 1.390 . S
C2931 C2928 1.386 . S
C2932 C2927 1.490 . S
C2932 C2934 1.395 . S
C2932 C2935 1.403 . S
H2933 C2939 0.930 . S
C2934 H2920 0.930 . S
C2934 C2932 1.395 . S
C2934 C2937 1.403 . S
C2935 C2932 1.403 . S
C2935 C2936 1.524 . S
C2935 C2939 1.400 . S
C2936 H2921 0.960 . S
C2936 H2922 0.960 . S
C2936 H2923 0.960 . S
C2936 C2935 1.524 . S
C2937 C2934 1.403 . S
C2937 C2938 1.392 . S
C2937 C2941 1.495 . S
C2938 C2937 1.392 . S
C2938 C2939 1.385 . S
C2938 C2940 1.478 . S
C2939 H2933 0.930 . S
C2939 C2935 1.400 . S
C2939 C2938 1.385 . S
C2940 C2938 1.478 . S
C2940 C2942 1.381 . S
C2940 C2946 1.383 . S
C2941 C2937 1.495 . S
C2941 H2947 0.959 . S
C2941 H2948 0.961 . S
C2941 H2949 0.960 . S
C2942 C2940 1.381 . S
C2942 C2943 1.394 . S
C2942 H2950 0.930 . S
C2943 C2942 1.394 . S
C2943 C2944 1.383 . S
C2943 H2951 0.929 . S
C2944 C2943 1.383 . S
C2944 C2945 1.377 . S
C2945 H2929 0.930 . S
C2945 C2944 1.377 . S
C2945 C2946 1.379 . S
C2946 H2930 0.931 . S
C2946 C2940 1.383 . S
C2946 C2945 1.379 . S
H2947 C2941 0.959 . S
H2948 C2941 0.961 . S
H2949 C2941 0.960 . S
H2950 C2942 0.930 . S
H2951 C2943 0.929 . S
H2952 C2960 0.929 . S
H2953 C2962 0.930 . S
H2954 C2964 0.930 . S
H2955 C2967 0.929 . S
H2956 C2970 0.930 . S
H2957 C2972 0.960 . S
H2958 C2972 0.960 . S
H2959 C2972 0.960 . S
C2960 H2952 0.929 . S
C2960 C2961 1.377 . S
C2960 C2962 1.384 . S
C2961 C2960 1.377 . S
C2961 C2967 1.390 . S
C2962 H2953 0.930 . S
C2962 C2960 1.384 . S
C2962 C2963 1.372 . S
C2963 C2962 1.372 . S
C2963 C2964 1.400 . S
C2963 C2968 1.490 . S
C2964 H2954 0.930 . S
C2964 C2963 1.400 . S
C2964 C2967 1.386 . S
H2965 C2981 0.930 . S
H2966 C2982 0.931 . S
C2967 H2955 0.929 . S
C2967 C2961 1.390 . S
C2967 C2964 1.386 . S
C2968 C2963 1.490 . S
C2968 C2970 1.395 . S
C2968 C2971 1.403 . S
H2969 C2975 0.930 . S
C2970 H2956 0.930 . S
C2970 C2968 1.395 . S
C2970 C2973 1.403 1_565 S
C2971 C2968 1.403 . S
C2971 C2972 1.524 . S
C2971 C2975 1.400 1_565 S
C2972 H2957 0.960 . S
C2972 H2958 0.960 . S
C2972 H2959 0.960 . S
C2972 C2971 1.524 . S
C2973 C2970 1.403 1_545 S
C2973 C2974 1.392 . S
C2973 C2977 1.495 . S
C2974 C2973 1.392 . S
C2974 C2975 1.385 . S
C2974 C2976 1.478 . S
C2975 H2969 0.930 . S
C2975 C2971 1.400 1_545 S
C2975 C2974 1.385 . S
C2976 C2974 1.478 . S
C2976 C2978 1.381 . S
C2976 C2982 1.383 . S
C2977 C2973 1.495 . S
C2977 H2983 0.959 . S
C2977 H2984 0.961 . S
C2977 H2985 0.960 . S
C2978 C2976 1.381 . S
C2978 C2979 1.394 . S
C2978 H2986 0.930 . S
C2979 C2978 1.394 . S
C2979 C2980 1.383 . S
C2979 H2987 0.929 . S
C2980 C2979 1.383 . S
C2980 C2981 1.377 . S
C2981 H2965 0.930 . S
C2981 C2980 1.377 . S
C2981 C2982 1.379 . S
C2982 H2966 0.931 . S
C2982 C2976 1.383 . S
C2982 C2981 1.379 . S
H2983 C2977 0.959 . S
H2984 C2977 0.961 . S
H2985 C2977 0.960 . S
H2986 C2978 0.930 . S
H2987 C2979 0.929 . S
H2988 C2996 0.929 . S
H2989 C2998 0.930 . S
H2990 C3000 0.930 . S
H2991 C3003 0.929 . S
H2992 C3006 0.930 . S
H2993 C3008 0.960 . S
H2994 C3008 0.960 . S
H2995 C3008 0.960 . S
C2996 H2988 0.929 . S
C2996 C2997 1.377 1_554 S
C2996 C2998 1.384 . S
C2997 C2996 1.377 1_556 S
C2997 C3003 1.390 . S
C2998 H2989 0.930 . S
C2998 C2996 1.384 . S
C2998 C2999 1.361 1_554 S
C2999 C2998 1.361 1_556 S
C2999 C3000 1.414 . S
C2999 C3004 1.489 1_556 S
C3000 H2990 0.930 . S
C3000 C2999 1.414 . S
C3000 C3003 1.386 . S
H3001 C3017 0.930 . S
H3002 C3018 0.931 . S
C3003 H2991 0.929 . S
C3003 C2997 1.390 . S
C3003 C3000 1.386 . S
C3004 C2999 1.489 1_554 S
C3004 C3006 1.393 1_554 S
C3004 C3007 1.404 . S
H3005 C3011 0.930 . S
C3006 H2992 0.930 . S
C3006 C3004 1.393 1_556 S
C3006 C3009 1.403 . S
C3007 C3004 1.404 . S
C3007 C3008 1.524 . S
C3007 C3011 1.400 . S
C3008 H2993 0.960 . S
C3008 H2994 0.960 . S
C3008 H2995 0.960 . S
C3008 C3007 1.524 . S
C3009 C3006 1.403 . S
C3009 C3010 1.383 1_556 S
C3009 C3013 1.495 . S
C3010 C3009 1.383 1_554 S
C3010 C3011 1.395 . S
C3010 C3012 1.477 . S
C3011 H3005 0.930 . S
C3011 C3007 1.400 . S
C3011 C3010 1.395 . S
C3012 C3010 1.477 . S
C3012 C3014 1.416 . S
C3012 C3018 1.356 1_554 S
C3013 C3009 1.495 . S
C3013 H3019 0.959 . S
C3013 H3020 0.961 . S
C3013 H3021 0.960 . S
C3014 C3012 1.416 . S
C3014 C3015 1.394 . S
C3014 H3022 0.930 . S
C3015 C3014 1.394 . S
C3015 C3016 1.383 . S
C3015 H3023 0.929 . S
C3016 C3015 1.383 . S
C3016 C3017 1.377 1_554 S
C3017 H3001 0.930 . S
C3017 C3016 1.377 1_556 S
C3017 C3018 1.379 . S
C3018 H3002 0.931 . S
C3018 C3012 1.356 1_556 S
C3018 C3017 1.379 . S
H3019 C3013 0.959 . S
H3020 C3013 0.961 . S
H3021 C3013 0.960 . S
H3022 C3014 0.930 . S
H3023 C3015 0.929 . S
H3024 C3032 0.929 . S
H3025 C3034 0.930 . S
H3026 C3036 0.930 . S
H3027 C3039 0.929 . S
H3028 C3042 0.930 . S
H3029 C3044 0.960 . S
H3030 C3044 0.960 . S
H3031 C3044 0.960 . S
C3032 H3024 0.929 . S
C3032 C3033 1.377 . S
C3032 C3034 1.384 . S
C3033 C3032 1.377 . S
C3033 C3039 1.390 . S
C3034 H3025 0.930 . S
C3034 C3032 1.384 . S
C3034 C3035 1.372 . S
C3035 C3034 1.372 . S
C3035 C3036 1.400 . S
C3035 C3040 1.490 . S
C3036 H3026 0.930 . S
C3036 C3035 1.400 . S
C3036 C3039 1.386 . S
H3037 C3053 0.932 1_565 S
H3038 C3054 0.899 1_565 S
C3039 H3027 0.929 . S
C3039 C3033 1.390 . S
C3039 C3036 1.386 . S
C3040 C3035 1.490 . S
C3040 C3042 1.395 . S
C3040 C3043 1.403 . S
H3041 C3047 0.930 . S
C3042 H3028 0.930 . S
C3042 C3040 1.395 . S
C3042 C3045 1.403 1_556 S
C3043 C3040 1.403 . S
C3043 C3044 1.524 . S
C3043 C3047 1.400 1_556 S
C3044 H3029 0.960 . S
C3044 H3030 0.960 . S
C3044 H3031 0.960 . S
C3044 C3043 1.524 . S
C3045 C3042 1.403 1_554 S
C3045 C3046 1.392 . S
C3045 C3049 1.478 1_545 S
C3046 C3045 1.392 . S
C3046 C3047 1.385 . S
C3046 C3048 1.478 . S
C3047 H3041 0.930 . S
C3047 C3043 1.400 1_554 S
C3047 C3046 1.385 . S
C3048 C3046 1.478 . S
C3048 C3050 1.381 . S
C3048 C3054 1.383 . S
C3049 C3045 1.478 1_565 S
C3049 H3055 0.972 . S
C3049 H3056 0.992 . S
C3049 H3057 0.935 1_565 S
C3050 C3048 1.381 . S
C3050 C3051 1.394 . S
C3050 H3058 0.930 . S
C3051 C3050 1.394 . S
C3051 C3052 1.383 . S
C3051 H3059 0.929 . S
C3052 C3051 1.383 . S
C3052 C3053 1.377 . S
C3053 H3037 0.932 1_545 S
C3053 C3052 1.377 . S
C3053 C3054 1.379 . S
C3054 H3038 0.899 1_545 S
C3054 C3048 1.383 . S
C3054 C3053 1.379 . S
H3055 C3049 0.972 . S
H3056 C3049 0.992 . S
H3057 C3049 0.935 1_545 S
H3058 C3050 0.930 . S
H3059 C3051 0.929 . S
H3060 C3068 0.929 . S
H3061 C3070 0.930 . S
H3062 C3072 0.930 . S
H3063 C3075 0.929 . S
H3064 C3078 0.930 . S
H3065 C3080 0.960 . S
H3066 C3080 0.960 . S
H3067 C3080 0.960 . S
C3068 H3060 0.929 . S
C3068 C3069 1.377 . S
C3068 C3070 1.384 . S
C3069 C3068 1.377 . S
C3069 C3075 1.390 1_545 S
C3070 H3061 0.930 . S
C3070 C3068 1.384 . S
C3070 C3071 1.372 . S
C3071 C3070 1.372 . S
C3071 C3072 1.400 1_545 S
C3071 C3076 1.490 . S
C3072 H3062 0.930 . S
C3072 C3071 1.400 1_565 S
C3072 C3075 1.386 . S
H3073 C3089 0.930 . S
H3074 C3090 0.931 . S
C3075 H3063 0.929 . S
C3075 C3069 1.390 1_565 S
C3075 C3072 1.386 . S
C3076 C3071 1.490 . S
C3076 C3078 1.395 . S
C3076 C3079 1.403 1_545 S
H3077 C3083 0.930 . S
C3078 H3064 0.930 . S
C3078 C3076 1.395 . S
C3078 C3081 1.403 . S
C3079 C3076 1.403 1_565 S
C3079 C3080 1.524 . S
C3079 C3083 1.400 . S
C3080 H3065 0.960 . S
C3080 H3066 0.960 . S
C3080 H3067 0.960 . S
C3080 C3079 1.524 . S
C3081 C3078 1.403 . S
C3081 C3082 1.392 . S
C3081 C3085 1.495 . S
C3082 C3081 1.392 . S
C3082 C3083 1.385 1_545 S
C3082 C3084 1.478 1_545 S
C3083 H3077 0.930 . S
C3083 C3079 1.400 . S
C3083 C3082 1.385 1_565 S
C3084 C3082 1.478 1_565 S
C3084 C3086 1.381 1_565 S
C3084 C3090 1.382 . S
C3085 C3081 1.495 . S
C3085 H3091 0.959 . S
C3085 H3092 0.961 . S
C3085 H3093 0.960 . S
C3086 C3084 1.381 1_545 S
C3086 C3087 1.394 . S
C3086 H3094 0.930 . S
C3087 C3086 1.394 . S
C3087 C3088 1.383 1_545 S
C3087 H3095 0.929 . S
C3088 C3087 1.383 1_565 S
C3088 C3089 1.377 . S
C3089 H3073 0.930 . S
C3089 C3088 1.377 . S
C3089 C3090 1.379 . S
C3090 H3074 0.931 . S
C3090 C3084 1.382 . S
C3090 C3089 1.379 . S
H3091 C3085 0.959 . S
H3092 C3085 0.961 . S
H3093 C3085 0.960 . S
H3094 C3086 0.930 . S
H3095 C3087 0.929 . S
H3096 C3104 0.951 . S
H3097 C3106 0.925 1_545 S
H3098 C3108 0.930 . S
H3099 C3111 0.929 . S
H3100 C3114 0.985 . S
H3101 C3116 0.960 . S
H3102 C3116 0.960 . S
H3103 C3116 0.960 . S
C3104 H3096 0.951 . S
C3104 C3105 1.377 . S
C3104 C3106 1.384 . S
C3105 C3104 1.377 . S
C3105 C3111 1.390 . S
C3106 H3097 0.925 1_565 S
C3106 C3104 1.384 . S
C3106 C3107 1.372 . S
C3107 C3106 1.372 . S
C3107 C3108 1.400 . S
C3107 C3112 1.490 . S
C3108 H3098 0.930 . S
C3108 C3107 1.400 . S
C3108 C3111 1.386 . S
H3109 C3125 0.930 . S
H3110 C3126 0.931 . S
C3111 H3099 0.929 . S
C3111 C3105 1.390 . S
C3111 C3108 1.386 . S
C3112 C3107 1.490 . S
C3112 C3114 1.336 1_565 S
C3112 C3115 1.403 . S
H3113 C3119 0.930 . S
C3114 H3100 0.985 . S
C3114 C3112 1.336 1_545 S
C3114 C3117 1.411 . S
C3115 C3112 1.403 . S
C3115 C3116 1.524 . S
C3115 C3119 1.400 . S
C3116 H3101 0.960 . S
C3116 H3102 0.960 . S
C3116 H3103 0.960 . S
C3116 C3115 1.524 . S
C3117 C3114 1.411 . S
C3117 C3118 1.392 1_545 S
C3117 C3121 1.495 . S
C3118 C3117 1.392 1_565 S
C3118 C3119 1.385 . S
C3118 C3120 1.478 . S
C3119 H3113 0.930 . S
C3119 C3115 1.400 . S
C3119 C3118 1.385 . S
C3120 C3118 1.478 . S
C3120 C3122 1.381 . S
C3120 C3126 1.383 . S
C3121 C3117 1.495 . S
C3121 H3127 0.959 . S
C3121 H3128 0.961 . S
C3121 H3129 0.960 . S
C3122 C3120 1.381 . S
C3122 C3123 1.394 . S
C3122 H3130 0.930 1_565 S
C3123 C3122 1.394 . S
C3123 C3124 1.383 . S
C3123 H3131 0.946 . S
C3124 C3123 1.383 . S
C3124 C3125 1.377 . S
C3125 H3109 0.930 . S
C3125 C3124 1.377 . S
C3125 C3126 1.379 . S
C3126 H3110 0.931 . S
C3126 C3120 1.383 . S
C3126 C3125 1.379 . S
H3127 C3121 0.959 . S
H3128 C3121 0.961 . S
H3129 C3121 0.960 . S
H3130 C3122 0.930 1_545 S
H3131 C3123 0.946 . S
H3132 C3140 0.929 . S
H3133 C3142 0.930 . S
H3134 C3144 0.930 . S
H3135 C3147 0.929 . S
H3136 C3150 0.930 . S
H3137 C3152 0.960 . S
H3138 C3152 0.960 . S
H3139 C3152 0.960 . S
C3140 H3132 0.929 . S
C3140 C3141 1.377 . S
C3140 C3142 1.384 . S
C3141 C3140 1.377 . S
C3141 C3147 1.390 . S
C3142 H3133 0.930 . S
C3142 C3140 1.384 . S
C3142 C3143 1.372 . S
C3143 C3142 1.372 . S
C3143 C3144 1.400 . S
C3143 C3148 1.490 . S
C3144 H3134 0.930 . S
C3144 C3143 1.400 . S
C3144 C3147 1.386 . S
H3145 C3161 0.930 . S
H3146 C3162 0.931 . S
C3147 H3135 0.929 . S
C3147 C3141 1.390 . S
C3147 C3144 1.386 . S
C3148 C3143 1.490 . S
C3148 C3150 1.395 1_545 S
C3148 C3151 1.403 . S
H3149 C3155 0.930 . S
C3150 H3136 0.930 . S
C3150 C3148 1.395 1_565 S
C3150 C3153 1.403 . S
C3151 C3148 1.403 . S
C3151 C3152 1.524 . S
C3151 C3155 1.400 . S
C3152 H3137 0.960 . S
C3152 H3138 0.960 . S
C3152 H3139 0.960 . S
C3152 C3151 1.524 . S
C3153 C3150 1.403 . S
C3153 C3154 1.392 . S
C3153 C3157 1.495 . S
C3154 C3153 1.392 . S
C3154 C3155 1.385 1_565 S
C3154 C3156 1.478 . S
C3155 H3149 0.930 . S
C3155 C3151 1.400 . S
C3155 C3154 1.385 1_545 S
C3156 C3154 1.478 . S
C3156 C3158 1.381 . S
C3156 C3162 1.383 . S
C3157 C3153 1.495 . S
C3157 H3163 0.959 . S
C3157 H3164 0.961 . S
C3157 H3165 0.960 . S
C3158 C3156 1.381 . S
C3158 C3159 1.394 . S
C3158 H3166 0.930 . S
C3159 C3158 1.394 . S
C3159 C3160 1.383 . S
C3159 H3167 0.931 1_565 S
C3160 C3159 1.383 . S
C3160 C3161 1.377 . S
C3161 H3145 0.930 . S
C3161 C3160 1.377 . S
C3161 C3162 1.379 . S
C3162 H3146 0.931 . S
C3162 C3156 1.383 . S
C3162 C3161 1.379 . S
H3163 C3157 0.959 . S
H3164 C3157 0.961 . S
H3165 C3157 0.960 . S
H3166 C3158 0.930 . S
H3167 C3159 0.931 1_545 S
H3168 C3176 0.929 . S
H3169 C3178 0.930 . S
H3170 C3180 0.930 . S
H3171 C3183 0.929 . S
H3172 C3186 0.952 . S
H3173 C3188 0.960 . S
H3174 C3188 0.960 . S
H3175 C3188 0.960 . S
C3176 H3168 0.929 . S
C3176 C3177 1.377 . S
C3176 C3178 1.384 . S
C3177 C3176 1.377 . S
C3177 C3183 1.390 . S
C3178 H3169 0.930 . S
C3178 C3176 1.384 . S
C3178 C3179 1.372 . S
C3179 C3178 1.372 . S
C3179 C3180 1.400 . S
C3179 C3184 1.490 . S
C3180 H3170 0.930 . S
C3180 C3179 1.400 . S
C3180 C3183 1.386 . S
H3181 C3197 0.930 . S
H3182 C3198 0.931 . S
C3183 H3171 0.929 . S
C3183 C3177 1.390 . S
C3183 C3180 1.386 . S
C3184 C3179 1.490 . S
C3184 C3186 1.395 . S
C3184 C3187 1.403 . S
H3185 C3191 0.930 . S
C3186 H3172 0.952 . S
C3186 C3184 1.395 . S
C3186 C3189 1.403 1_655 S
C3187 C3184 1.403 . S
C3187 C3188 1.524 . S
C3187 C3191 1.400 1_655 S
C3188 H3173 0.960 . S
C3188 H3174 0.960 . S
C3188 H3175 0.960 . S
C3188 C3187 1.524 . S
C3189 C3186 1.403 1_455 S
C3189 C3190 1.392 . S
C3189 C3193 1.495 1_554 S
C3190 C3189 1.392 . S
C3190 C3191 1.385 . S
C3190 C3192 1.478 . S
C3191 H3185 0.930 . S
C3191 C3187 1.400 1_455 S
C3191 C3190 1.385 . S
C3192 C3190 1.478 . S
C3192 C3194 1.381 . S
C3192 C3198 1.383 . S
C3193 C3189 1.495 1_556 S
C3193 H3199 0.959 . S
C3193 H3200 0.961 . S
C3193 H3201 0.960 1_556 S
C3194 C3192 1.381 . S
C3194 C3195 1.394 . S
C3194 H3202 0.930 . S
C3195 C3194 1.394 . S
C3195 C3196 1.383 . S
C3195 H3203 0.929 . S
C3196 C3195 1.383 . S
C3196 C3197 1.377 . S
C3197 H3181 0.930 . S
C3197 C3196 1.377 . S
C3197 C3198 1.379 . S
C3198 H3182 0.931 . S
C3198 C3192 1.383 . S
C3198 C3197 1.379 . S
H3199 C3193 0.959 . S
H3200 C3193 0.961 . S
H3201 C3193 0.960 1_554 S
H3202 C3194 0.930 . S
H3203 C3195 0.929 . S
H3204 C3212 0.922 . S
H3205 C3214 0.946 . S
H3206 C3216 0.930 . S
H3207 C3219 0.929 . S
H3208 C3222 0.930 . S
H3209 C3224 0.960 . S
H3210 C3224 0.960 . S
H3211 C3224 0.960 . S
C3212 H3204 0.922 . S
C3212 C3213 1.384 1_554 S
C3212 C3214 1.384 . S
C3213 C3212 1.384 1_556 S
C3213 C3219 1.390 . S
C3214 H3205 0.946 . S
C3214 C3212 1.384 . S
C3214 C3215 1.356 1_554 S
C3215 C3214 1.356 1_556 S
C3215 C3216 1.400 . S
C3215 C3220 1.490 . S
C3216 H3206 0.930 . S
C3216 C3215 1.400 . S
C3216 C3219 1.386 . S
H3217 C3233 0.930 . S
H3218 C3234 0.931 . S
C3219 H3207 0.929 . S
C3219 C3213 1.390 . S
C3219 C3216 1.386 . S
C3220 C3215 1.490 . S
C3220 C3222 1.395 . S
C3220 C3223 1.403 . S
H3221 C3227 0.930 . S
C3222 H3208 0.930 . S
C3222 C3220 1.395 . S
C3222 C3225 1.403 . S
C3223 C3220 1.403 . S
C3223 C3224 1.524 . S
C3223 C3227 1.400 . S
C3224 H3209 0.960 . S
C3224 H3210 0.960 . S
C3224 H3211 0.960 . S
C3224 C3223 1.524 . S
C3225 C3222 1.403 . S
C3225 C3226 1.392 . S
C3225 C3229 1.495 . S
C3226 C3225 1.392 . S
C3226 C3227 1.385 . S
C3226 C3228 1.478 . S
C3227 H3221 0.930 . S
C3227 C3223 1.400 . S
C3227 C3226 1.385 . S
C3228 C3226 1.478 . S
C3228 C3230 1.327 1_556 S
C3228 C3234 1.383 . S
C3229 C3225 1.495 . S
C3229 H3235 0.959 . S
C3229 H3236 0.961 . S
C3229 H3237 0.960 1_556 S
C3230 C3228 1.327 1_554 S
C3230 C3231 1.394 . S
C3230 H3238 0.987 . S
C3231 C3230 1.394 . S
C3231 C3232 1.345 1_554 S
C3231 H3239 0.967 . S
C3232 C3231 1.345 1_556 S
C3232 C3233 1.377 . S
C3233 H3217 0.930 . S
C3233 C3232 1.377 . S
C3233 C3234 1.379 . S
C3234 H3218 0.931 . S
C3234 C3228 1.383 . S
C3234 C3233 1.379 . S
H3235 C3229 0.959 . S
H3236 C3229 0.961 . S
H3237 C3229 0.960 1_554 S
H3238 C3230 0.987 . S
H3239 C3231 0.967 . S
H3240 C3248 0.929 . S
H3241 C3250 0.930 . S
H3242 C3252 0.930 . S
H3243 C3255 0.929 . S
H3244 C3258 0.930 . S
H3245 C3260 0.960 . S
H3246 C3260 0.960 1_455 S
H3247 C3260 0.960 . S
C3248 H3240 0.929 . S
C3248 C3249 1.377 . S
C3248 C3250 1.384 . S
C3249 C3248 1.377 . S
C3249 C3255 1.390 1_455 S
C3250 H3241 0.930 . S
C3250 C3248 1.384 . S
C3250 C3251 1.372 . S
C3251 C3250 1.372 . S
C3251 C3252 1.400 1_455 S
C3251 C3256 1.490 . S
C3252 H3242 0.930 . S
C3252 C3251 1.400 1_655 S
C3252 C3255 1.386 . S
H3253 C3269 0.930 . S
H3254 C3270 0.931 . S
C3255 H3243 0.929 . S
C3255 C3249 1.390 1_655 S
C3255 C3252 1.386 . S
C3256 C3251 1.490 . S
C3256 C3258 1.395 . S
C3256 C3259 1.403 1_455 S
H3257 C3263 0.930 . S
C3258 H3244 0.930 . S
C3258 C3256 1.395 . S
C3258 C3261 1.403 . S
C3259 C3256 1.403 1_655 S
C3259 C3260 1.524 . S
C3259 C3263 1.400 . S
C3260 H3245 0.960 . S
C3260 H3246 0.960 1_655 S
C3260 H3247 0.960 . S
C3260 C3259 1.524 . S
C3261 C3258 1.403 . S
C3261 C3262 1.402 . S
C3261 C3265 1.495 . S
C3262 C3261 1.402 . S
C3262 C3263 1.379 1_455 S
C3262 C3264 1.473 1_455 S
C3263 H3257 0.930 . S
C3263 C3259 1.400 . S
C3263 C3262 1.379 1_655 S
C3264 C3262 1.473 1_655 S
C3264 C3266 1.333 1_655 S
C3264 C3270 1.436 . S
C3265 C3261 1.495 . S
C3265 H3271 0.959 . S
C3265 H3272 0.961 1_455 S
C3265 H3273 0.960 . S
C3266 C3264 1.333 1_455 S
C3266 C3267 1.394 . S
C3266 H3274 0.930 . S
C3267 C3266 1.394 . S
C3267 C3268 1.383 1_455 S
C3267 H3275 0.929 . S
C3268 C3267 1.383 1_655 S
C3268 C3269 1.377 . S
C3269 H3253 0.930 . S
C3269 C3268 1.377 . S
C3269 C3270 1.379 . S
C3270 H3254 0.931 . S
C3270 C3264 1.436 . S
C3270 C3269 1.379 . S
H3271 C3265 0.959 . S
H3272 C3265 0.961 1_655 S
H3273 C3265 0.960 . S
H3274 C3266 0.930 . S
H3275 C3267 0.929 . S
H3276 C3284 0.929 . S
H3277 C3286 0.930 . S
H3278 C3288 0.930 . S
H3279 C3291 0.929 . S
H3280 C3294 0.930 . S
H3281 C3296 0.960 . S
H3282 C3296 0.960 . S
H3283 C3296 0.960 . S
C3284 H3276 0.929 . S
C3284 C3285 1.377 . S
C3284 C3286 1.384 . S
C3285 C3284 1.377 . S
C3285 C3291 1.390 . S
C3286 H3277 0.930 . S
C3286 C3284 1.384 . S
C3286 C3287 1.372 . S
C3287 C3286 1.372 . S
C3287 C3288 1.400 . S
C3287 C3292 1.490 . S
C3288 H3278 0.930 . S
C3288 C3287 1.400 . S
C3288 C3291 1.386 . S
H3289 C3305 0.930 . S
H3290 C3306 0.931 . S
C3291 H3279 0.929 . S
C3291 C3285 1.390 . S
C3291 C3288 1.386 . S
C3292 C3287 1.490 . S
C3292 C3294 1.395 . S
C3292 C3295 1.403 . S
H3293 C3299 0.930 . S
C3294 H3280 0.930 . S
C3294 C3292 1.395 . S
C3294 C3297 1.403 1_455 S
C3295 C3292 1.403 . S
C3295 C3296 1.524 . S
C3295 C3299 1.400 1_455 S
C3296 H3281 0.960 . S
C3296 H3282 0.960 . S
C3296 H3283 0.960 . S
C3296 C3295 1.524 . S
C3297 C3294 1.403 1_655 S
C3297 C3298 1.392 . S
C3297 C3301 1.495 . S
C3298 C3297 1.392 . S
C3298 C3299 1.385 . S
C3298 C3300 1.478 . S
C3299 H3293 0.930 . S
C3299 C3295 1.400 1_655 S
C3299 C3298 1.385 . S
C3300 C3298 1.478 . S
C3300 C3302 1.381 . S
C3300 C3306 1.383 . S
C3301 C3297 1.495 . S
C3301 H3307 0.959 . S
C3301 H3308 0.961 . S
C3301 H3309 0.960 . S
C3302 C3300 1.381 . S
C3302 C3303 1.394 . S
C3302 H3310 0.930 . S
C3303 C3302 1.394 . S
C3303 C3304 1.383 . S
C3303 H3311 0.929 . S
C3304 C3303 1.383 . S
C3304 C3305 1.377 . S
C3305 H3289 0.930 . S
C3305 C3304 1.377 . S
C3305 C3306 1.379 . S
C3306 H3290 0.931 . S
C3306 C3300 1.383 . S
C3306 C3305 1.379 . S
H3307 C3301 0.959 . S
H3308 C3301 0.961 . S
H3309 C3301 0.960 . S
H3310 C3302 0.930 . S
H3311 C3303 0.929 . S
H3312 C3320 0.929 . S
H3313 C3322 0.930 . S
H3314 C3324 0.930 . S
H3315 C3327 0.929 . S
H3316 C3330 0.930 . S
H3317 C3332 0.960 . S
H3318 C3332 0.960 . S
H3319 C3332 0.960 . S
C3320 H3312 0.929 . S
C3320 C3321 1.377 . S
C3320 C3322 1.384 . S
C3321 C3320 1.377 . S
C3321 C3327 1.390 . S
C3322 H3313 0.930 . S
C3322 C3320 1.384 . S
C3322 C3323 1.372 . S
C3323 C3322 1.372 . S
C3323 C3324 1.400 . S
C3323 C3328 1.490 . S
C3324 H3314 0.930 . S
C3324 C3323 1.400 . S
C3324 C3327 1.386 . S
H3325 C3341 0.930 . S
H3326 C3342 0.931 . S
C3327 H3315 0.929 . S
C3327 C3321 1.390 . S
C3327 C3324 1.386 . S
C3328 C3323 1.490 . S
C3328 C3330 1.395 . S
C3328 C3331 1.403 . S
H3329 C3335 0.930 . S
C3330 H3316 0.930 . S
C3330 C3328 1.395 . S
C3330 C3333 1.403 . S
C3331 C3328 1.403 . S
C3331 C3332 1.524 . S
C3331 C3335 1.400 . S
C3332 H3317 0.960 . S
C3332 H3318 0.960 . S
C3332 H3319 0.960 . S
C3332 C3331 1.524 . S
C3333 C3330 1.403 . S
C3333 C3334 1.392 . S
C3333 C3337 1.495 . S
C3334 C3333 1.392 . S
C3334 C3335 1.385 . S
C3334 C3336 1.478 . S
C3335 H3329 0.930 . S
C3335 C3331 1.400 . S
C3335 C3334 1.385 . S
C3336 C3334 1.478 . S
C3336 C3338 1.381 . S
C3336 C3342 1.383 . S
C3337 C3333 1.495 . S
C3337 H3343 0.959 . S
C3337 H3344 0.961 . S
C3337 H3345 0.960 . S
C3338 C3336 1.381 . S
C3338 C3339 1.394 . S
C3338 H3346 0.930 . S
C3339 C3338 1.394 . S
C3339 C3340 1.383 . S
C3339 H3347 0.929 . S
C3340 C3339 1.383 . S
C3340 C3341 1.377 . S
C3341 H3325 0.930 . S
C3341 C3340 1.377 . S
C3341 C3342 1.379 . S
C3342 H3326 0.931 . S
C3342 C3336 1.383 . S
C3342 C3341 1.379 . S
H3343 C3337 0.959 . S
H3344 C3337 0.961 . S
H3345 C3337 0.960 . S
H3346 C3338 0.930 . S
H3347 C3339 0.929 . S
H3348 C3356 0.929 . S
H3349 C3358 0.930 . S
H3350 C3360 0.930 . S
H3351 C3363 0.929 . S
H3352 C3366 0.930 . S
H3353 C3368 0.960 . S
H3354 C3368 0.960 . S
H3355 C3368 0.960 . S
C3356 H3348 0.929 . S
C3356 C3357 1.377 . S
C3356 C3358 1.384 . S
C3357 C3356 1.377 . S
C3357 C3363 1.390 1_455 S
C3358 H3349 0.930 . S
C3358 C3356 1.384 . S
C3358 C3359 1.372 . S
C3359 C3358 1.372 . S
C3359 C3360 1.400 1_455 S
C3359 C3364 1.490 . S
C3360 H3350 0.930 . S
C3360 C3359 1.400 1_655 S
C3360 C3363 1.386 . S
H3361 C3377 0.930 . S
H3362 C3378 0.931 . S
C3363 H3351 0.929 . S
C3363 C3357 1.390 1_655 S
C3363 C3360 1.386 . S
C3364 C3359 1.490 . S
C3364 C3366 1.395 . S
C3364 C3367 1.403 1_455 S
H3365 C3371 0.930 . S
C3366 H3352 0.930 . S
C3366 C3364 1.395 . S
C3366 C3369 1.403 . S
C3367 C3364 1.403 1_655 S
C3367 C3368 1.524 . S
C3367 C3371 1.400 . S
C3368 H3353 0.960 . S
C3368 H3354 0.960 . S
C3368 H3355 0.960 . S
C3368 C3367 1.524 . S
C3369 C3366 1.403 . S
C3369 C3370 1.392 . S
C3369 C3373 1.495 . S
C3370 C3369 1.392 . S
C3370 C3371 1.385 1_455 S
C3370 C3372 1.478 . S
C3371 H3365 0.930 . S
C3371 C3367 1.400 . S
C3371 C3370 1.385 1_655 S
C3372 C3370 1.478 . S
C3372 C3374 1.381 . S
C3372 C3378 1.383 1_455 S
C3373 C3369 1.495 . S
C3373 H3379 0.959 . S
C3373 H3380 0.961 . S
C3373 H3381 0.960 . S
C3374 C3372 1.381 . S
C3374 C3375 1.394 . S
C3374 H3382 0.930 . S
C3375 C3374 1.394 . S
C3375 C3376 1.383 1_455 S
C3375 H3383 0.929 . S
C3376 C3375 1.383 1_655 S
C3376 C3377 1.377 . S
C3377 H3361 0.930 . S
C3377 C3376 1.377 . S
C3377 C3378 1.379 . S
C3378 H3362 0.931 . S
C3378 C3372 1.383 1_655 S
C3378 C3377 1.379 . S
H3379 C3373 0.959 . S
H3380 C3373 0.961 . S
H3381 C3373 0.960 . S
H3382 C3374 0.930 . S
H3383 C3375 0.929 . S
H3384 C3392 0.929 . S
H3385 C3394 0.930 . S
H3386 C3396 0.930 . S
H3387 C3399 0.929 . S
H3388 C3402 0.930 . S
H3389 C3404 0.960 . S
H3390 C3404 0.960 . S
H3391 C3404 0.960 . S
C3392 H3384 0.929 . S
C3392 C3393 1.377 . S
C3392 C3394 1.384 . S
C3393 C3392 1.377 . S
C3393 C3399 1.390 . S
C3394 H3385 0.930 . S
C3394 C3392 1.384 . S
C3394 C3395 1.372 . S
C3395 C3394 1.372 . S
C3395 C3396 1.400 . S
C3395 C3400 1.490 . S
C3396 H3386 0.930 . S
C3396 C3395 1.400 . S
C3396 C3399 1.386 . S
H3397 C3413 0.930 . S
H3398 C3414 0.931 . S
C3399 H3387 0.929 . S
C3399 C3393 1.390 . S
C3399 C3396 1.386 . S
C3400 C3395 1.490 . S
C3400 C3402 1.395 . S
C3400 C3403 1.403 . S
H3401 C3407 0.930 . S
C3402 H3388 0.930 . S
C3402 C3400 1.395 . S
C3402 C3405 1.403 . S
C3403 C3400 1.403 . S
C3403 C3404 1.524 . S
C3403 C3407 1.400 . S
C3404 H3389 0.960 . S
C3404 H3390 0.960 . S
C3404 H3391 0.960 . S
C3404 C3403 1.524 . S
C3405 C3402 1.403 . S
C3405 C3406 1.392 . S
C3405 C3409 1.495 . S
C3406 C3405 1.392 . S
C3406 C3407 1.385 . S
C3406 C3408 1.478 . S
C3407 H3401 0.930 . S
C3407 C3403 1.400 . S
C3407 C3406 1.385 . S
C3408 C3406 1.478 . S
C3408 C3410 1.381 . S
C3408 C3414 1.383 . S
C3409 C3405 1.495 . S
C3409 H3415 0.959 . S
C3409 H3416 0.961 . S
C3409 H3417 0.960 . S
C3410 C3408 1.381 . S
C3410 C3411 1.394 . S
C3410 H3418 0.930 . S
C3411 C3410 1.394 . S
C3411 C3412 1.383 . S
C3411 H3419 0.929 . S
C3412 C3411 1.383 . S
C3412 C3413 1.377 . S
C3413 H3397 0.930 . S
C3413 C3412 1.377 . S
C3413 C3414 1.379 . S
C3414 H3398 0.931 . S
C3414 C3408 1.383 . S
C3414 C3413 1.379 . S
H3415 C3409 0.959 . S
H3416 C3409 0.961 . S
H3417 C3409 0.960 . S
H3418 C3410 0.930 . S
H3419 C3411 0.929 . S
H3420 C3428 0.929 . S
H3421 C3430 0.930 . S
H3422 C3432 0.930 . S
H3423 C3435 0.929 . S
H3424 C3438 0.930 . S
H3425 C3440 0.960 . S
H3426 C3440 0.960 . S
H3427 C3440 0.960 . S
C3428 H3420 0.929 . S
C3428 C3429 1.377 . S
C3428 C3430 1.384 . S
C3429 C3428 1.377 . S
C3429 C3435 1.390 . S
C3430 H3421 0.930 . S
C3430 C3428 1.384 . S
C3430 C3431 1.372 . S
C3431 C3430 1.372 . S
C3431 C3432 1.400 . S
C3431 C3436 1.490 . S
C3432 H3422 0.930 . S
C3432 C3431 1.400 . S
C3432 C3435 1.386 . S
H3433 C3449 0.930 . S
H3434 C3450 0.931 . S
C3435 H3423 0.929 . S
C3435 C3429 1.390 . S
C3435 C3432 1.386 . S
C3436 C3431 1.490 . S
C3436 C3438 1.395 . S
C3436 C3439 1.403 . S
H3437 C3443 0.930 . S
C3438 H3424 0.930 . S
C3438 C3436 1.395 . S
C3438 C3441 1.403 . S
C3439 C3436 1.403 . S
C3439 C3440 1.524 . S
C3439 C3443 1.400 . S
C3440 H3425 0.960 . S
C3440 H3426 0.960 . S
C3440 H3427 0.960 . S
C3440 C3439 1.524 . S
C3441 C3438 1.403 . S
C3441 C3442 1.392 . S
C3441 C3445 1.495 . S
C3442 C3441 1.392 . S
C3442 C3443 1.385 . S
C3442 C3444 1.478 . S
C3443 H3437 0.930 . S
C3443 C3439 1.400 . S
C3443 C3442 1.385 . S
C3444 C3442 1.478 . S
C3444 C3446 1.381 . S
C3444 C3450 1.383 . S
C3445 C3441 1.495 . S
C3445 H3451 0.959 . S
C3445 H3452 0.961 . S
C3445 H3453 0.960 . S
C3446 C3444 1.381 . S
C3446 C3447 1.394 . S
C3446 H3454 0.930 . S
C3447 C3446 1.394 . S
C3447 C3448 1.383 . S
C3447 H3455 0.929 . S
C3448 C3447 1.383 . S
C3448 C3449 1.377 . S
C3449 H3433 0.930 . S
C3449 C3448 1.377 . S
C3449 C3450 1.379 . S
C3450 H3434 0.931 . S
C3450 C3444 1.383 . S
C3450 C3449 1.379 . S
H3451 C3445 0.959 . S
H3452 C3445 0.961 . S
H3453 C3445 0.960 . S
H3454 C3446 0.930 . S
H3455 C3447 0.929 . S
H3456 C3464 0.929 . S
H3457 C3466 0.930 . S
H3458 C3468 0.930 . S
H3459 C3471 0.929 . S
H3460 C3474 0.930 . S
H3461 C3476 0.960 . S
H3462 C3476 0.978 . S
H3463 C3476 0.960 . S
C3464 H3456 0.929 . S
C3464 C3465 1.377 . S
C3464 C3466 1.384 . S
C3465 C3464 1.377 . S
C3465 C3471 1.390 1_554 S
C3466 H3457 0.930 . S
C3466 C3464 1.384 . S
C3466 C3467 1.372 . S
C3467 C3466 1.372 . S
C3467 C3468 1.400 1_554 S
C3467 C3472 1.490 . S
C3468 H3458 0.930 . S
C3468 C3467 1.400 1_556 S
C3468 C3471 1.386 . S
H3469 C3485 0.930 . S
H3470 C3486 0.931 . S
C3471 H3459 0.929 . S
C3471 C3465 1.390 1_556 S
C3471 C3468 1.386 . S
C3472 C3467 1.490 . S
C3472 C3474 1.395 . S
C3472 C3475 1.403 1_554 S
H3473 C3479 0.930 . S
C3474 H3460 0.930 . S
C3474 C3472 1.395 . S
C3474 C3477 1.403 . S
C3475 C3472 1.403 1_556 S
C3475 C3476 1.524 . S
C3475 C3479 1.400 . S
C3476 H3461 0.960 . S
C3476 H3462 0.978 . S
C3476 H3463 0.960 . S
C3476 C3475 1.524 . S
C3477 C3474 1.403 . S
C3477 C3478 1.392 . S
C3477 C3481 1.495 . S
C3478 C3477 1.392 . S
C3478 C3479 1.385 1_554 S
C3478 C3480 1.481 . S
C3479 H3473 0.930 . S
C3479 C3475 1.400 . S
C3479 C3478 1.385 1_556 S
C3480 C3478 1.481 . S
C3480 C3482 1.412 . S
C3480 C3486 1.349 1_554 S
C3481 C3477 1.495 . S
C3481 H3487 0.959 . S
C3481 H3488 0.961 . S
C3481 H3489 0.960 . S
C3482 C3480 1.412 . S
C3482 C3483 1.394 . S
C3482 H3490 0.930 . S
C3483 C3482 1.394 . S
C3483 C3484 1.383 1_554 S
C3483 H3491 0.929 . S
C3484 C3483 1.383 1_556 S
C3484 C3485 1.377 . S
C3485 H3469 0.930 . S
C3485 C3484 1.377 . S
C3485 C3486 1.379 . S
C3486 H3470 0.931 . S
C3486 C3480 1.349 1_556 S
C3486 C3485 1.379 . S
H3487 C3481 0.959 . S
H3488 C3481 0.961 . S
H3489 C3481 0.960 . S
H3490 C3482 0.930 . S
H3491 C3483 0.929 . S
H3492 C3500 0.929 . S
H3493 C3502 0.930 . S
H3494 C3504 0.930 . S
H3495 C3507 0.929 . S
H3496 C3510 0.945 . S
H3497 C3512 0.960 . S
H3498 C3512 0.960 . S
H3499 C3512 0.960 . S
C3500 H3492 0.929 . S
C3500 C3501 1.377 . S
C3500 C3502 1.384 . S
C3501 C3500 1.377 . S
C3501 C3507 1.390 . S
C3502 H3493 0.930 . S
C3502 C3500 1.384 . S
C3502 C3503 1.372 . S
C3503 C3502 1.372 . S
C3503 C3504 1.400 . S
C3503 C3508 1.490 . S
C3504 H3494 0.930 . S
C3504 C3503 1.400 . S
C3504 C3507 1.386 . S
H3505 C3521 0.930 . S
H3506 C3522 0.953 . S
C3507 H3495 0.929 . S
C3507 C3501 1.390 . S
C3507 C3504 1.386 . S
C3508 C3503 1.490 . S
C3508 C3510 1.395 . S
C3508 C3511 1.403 . S
H3509 C3515 0.930 . S
C3510 H3496 0.945 . S
C3510 C3508 1.395 . S
C3510 C3513 1.403 . S
C3511 C3508 1.403 . S
C3511 C3512 1.524 . S
C3511 C3515 1.400 . S
C3512 H3497 0.960 . S
C3512 H3498 0.960 . S
C3512 H3499 0.960 . S
C3512 C3511 1.524 . S
C3513 C3510 1.403 . S
C3513 C3514 1.392 . S
C3513 C3517 1.495 1_655 S
C3514 C3513 1.392 . S
C3514 C3515 1.385 . S
C3514 C3516 1.478 . S
C3515 H3509 0.930 . S
C3515 C3511 1.400 . S
C3515 C3514 1.385 . S
C3516 C3514 1.478 . S
C3516 C3518 1.381 . S
C3516 C3522 1.383 . S
C3517 C3513 1.495 1_455 S
C3517 H3523 0.959 . S
C3517 H3524 0.961 . S
C3517 H3525 0.960 1_455 S
C3518 C3516 1.381 . S
C3518 C3519 1.394 . S
C3518 H3526 0.930 . S
C3519 C3518 1.394 . S
C3519 C3520 1.383 . S
C3519 H3527 0.929 . S
C3520 C3519 1.383 . S
C3520 C3521 1.377 . S
C3521 H3505 0.930 . S
C3521 C3520 1.377 . S
C3521 C3522 1.379 . S
C3522 H3506 0.953 . S
C3522 C3516 1.383 . S
C3522 C3521 1.379 . S
H3523 C3517 0.959 . S
H3524 C3517 0.961 . S
H3525 C3517 0.960 1_655 S
H3526 C3518 0.930 . S
H3527 C3519 0.929 . S
H3528 C3536 0.929 . S
H3529 C3538 0.930 . S
H3530 C3540 0.930 . S
H3531 C3543 0.929 . S
H3532 C3546 0.930 . S
H3533 C3548 0.960 . S
H3534 C3548 0.960 . S
H3535 C3548 0.960 . S
C3536 H3528 0.929 . S
C3536 C3537 1.377 . S
C3536 C3538 1.384 . S
C3537 C3536 1.377 . S
C3537 C3543 1.390 . S
C3538 H3529 0.930 . S
C3538 C3536 1.384 . S
C3538 C3539 1.372 . S
C3539 C3538 1.372 . S
C3539 C3540 1.400 . S
C3539 C3544 1.490 . S
C3540 H3530 0.930 . S
C3540 C3539 1.400 . S
C3540 C3543 1.386 . S
H3541 C3557 0.930 . S
H3542 C3558 0.931 . S
C3543 H3531 0.929 . S
C3543 C3537 1.390 . S
C3543 C3540 1.386 . S
C3544 C3539 1.490 . S
C3544 C3546 1.395 . S
C3544 C3547 1.403 . S
H3545 C3551 0.930 . S
C3546 H3532 0.930 . S
C3546 C3544 1.395 . S
C3546 C3549 1.403 . S
C3547 C3544 1.403 . S
C3547 C3548 1.524 . S
C3547 C3551 1.400 . S
C3548 H3533 0.960 . S
C3548 H3534 0.960 . S
C3548 H3535 0.960 . S
C3548 C3547 1.524 . S
C3549 C3546 1.403 . S
C3549 C3550 1.392 . S
C3549 C3553 1.495 . S
C3550 C3549 1.392 . S
C3550 C3551 1.385 . S
C3550 C3552 1.478 . S
C3551 H3545 0.930 . S
C3551 C3547 1.400 . S
C3551 C3550 1.385 . S
C3552 C3550 1.478 . S
C3552 C3554 1.381 . S
C3552 C3558 1.383 . S
C3553 C3549 1.495 . S
C3553 H3559 0.959 . S
C3553 H3560 0.961 . S
C3553 H3561 0.960 . S
C3554 C3552 1.381 . S
C3554 C3555 1.394 . S
C3554 H3562 0.930 . S
C3555 C3554 1.394 . S
C3555 C3556 1.383 . S
C3555 H3563 0.929 . S
C3556 C3555 1.383 . S
C3556 C3557 1.377 . S
C3557 H3541 0.930 . S
C3557 C3556 1.377 . S
C3557 C3558 1.379 . S
C3558 H3542 0.931 . S
C3558 C3552 1.383 . S
C3558 C3557 1.379 . S
H3559 C3553 0.959 . S
H3560 C3553 0.961 . S
H3561 C3553 0.960 . S
H3562 C3554 0.930 . S
H3563 C3555 0.929 . S
H3564 C3572 0.929 . S
H3565 C3574 0.930 . S
H3566 C3576 0.930 . S
H3567 C3579 0.929 . S
H3568 C3582 0.930 . S
H3569 C3584 0.960 . S
H3570 C3584 0.960 . S
H3571 C3584 0.960 . S
C3572 H3564 0.929 . S
C3572 C3573 1.377 . S
C3572 C3574 1.384 . S
C3573 C3572 1.377 . S
C3573 C3579 1.390 . S
C3574 H3565 0.930 . S
C3574 C3572 1.384 . S
C3574 C3575 1.372 . S
C3575 C3574 1.372 . S
C3575 C3576 1.400 . S
C3575 C3580 1.490 . S
C3576 H3566 0.930 . S
C3576 C3575 1.400 . S
C3576 C3579 1.386 . S
H3577 C3593 0.930 . S
H3578 C3594 0.931 . S
C3579 H3567 0.929 . S
C3579 C3573 1.390 . S
C3579 C3576 1.386 . S
C3580 C3575 1.490 . S
C3580 C3582 1.395 . S
C3580 C3583 1.403 . S
H3581 C3587 0.930 . S
C3582 H3568 0.930 . S
C3582 C3580 1.395 . S
C3582 C3585 1.403 . S
C3583 C3580 1.403 . S
C3583 C3584 1.524 . S
C3583 C3587 1.400 . S
C3584 H3569 0.960 . S
C3584 H3570 0.960 . S
C3584 H3571 0.960 . S
C3584 C3583 1.524 . S
C3585 C3582 1.403 . S
C3585 C3586 1.392 . S
C3585 C3589 1.495 . S
C3586 C3585 1.392 . S
C3586 C3587 1.385 . S
C3586 C3588 1.478 . S
C3587 H3581 0.930 . S
C3587 C3583 1.400 . S
C3587 C3586 1.385 . S
C3588 C3586 1.478 . S
C3588 C3590 1.381 . S
C3588 C3594 1.383 . S
C3589 C3585 1.495 . S
C3589 H3595 0.959 . S
C3589 H3596 0.961 . S
C3589 H3597 0.960 . S
C3590 C3588 1.381 . S
C3590 C3591 1.394 . S
C3590 H3598 0.930 . S
C3591 C3590 1.394 . S
C3591 C3592 1.383 . S
C3591 H3599 0.929 . S
C3592 C3591 1.383 . S
C3592 C3593 1.377 . S
C3593 H3577 0.930 . S
C3593 C3592 1.377 . S
C3593 C3594 1.379 . S
C3594 H3578 0.931 . S
C3594 C3588 1.383 . S
C3594 C3593 1.379 . S
H3595 C3589 0.959 . S
H3596 C3589 0.961 . S
H3597 C3589 0.960 . S
H3598 C3590 0.930 . S
H3599 C3591 0.929 . S
H3600 C3608 0.929 . S
H3601 C3610 0.930 . S
H3602 C3612 0.930 . S
H3603 C3615 0.929 . S
H3604 C3618 0.930 . S
H3605 C3620 0.960 . S
H3606 C3620 0.960 . S
H3607 C3620 0.960 . S
C3608 H3600 0.929 . S
C3608 C3609 1.377 . S
C3608 C3610 1.384 . S
C3609 C3608 1.377 . S
C3609 C3615 1.390 . S
C3610 H3601 0.930 . S
C3610 C3608 1.384 . S
C3610 C3611 1.372 . S
C3611 C3610 1.372 . S
C3611 C3612 1.400 . S
C3611 C3616 1.490 . S
C3612 H3602 0.930 . S
C3612 C3611 1.400 . S
C3612 C3615 1.386 . S
H3613 C3629 0.930 . S
H3614 C3630 0.931 . S
C3615 H3603 0.929 . S
C3615 C3609 1.390 . S
C3615 C3612 1.386 . S
C3616 C3611 1.490 . S
C3616 C3618 1.395 . S
C3616 C3619 1.403 . S
H3617 C3623 0.930 . S
C3618 H3604 0.930 . S
C3618 C3616 1.395 . S
C3618 C3621 1.403 . S
C3619 C3616 1.403 . S
C3619 C3620 1.524 . S
C3619 C3623 1.400 . S
C3620 H3605 0.960 . S
C3620 H3606 0.960 . S
C3620 H3607 0.960 . S
C3620 C3619 1.524 . S
C3621 C3618 1.403 . S
C3621 C3622 1.392 . S
C3621 C3625 1.495 . S
C3622 C3621 1.392 . S
C3622 C3623 1.385 . S
C3622 C3624 1.478 . S
C3623 H3617 0.930 . S
C3623 C3619 1.400 . S
C3623 C3622 1.385 . S
C3624 C3622 1.478 . S
C3624 C3626 1.381 . S
C3624 C3630 1.383 . S
C3625 C3621 1.495 . S
C3625 H3631 0.959 . S
C3625 H3632 0.961 . S
C3625 H3633 0.960 . S
C3626 C3624 1.381 . S
C3626 C3627 1.394 . S
C3626 H3634 0.930 . S
C3627 C3626 1.394 . S
C3627 C3628 1.383 . S
C3627 H3635 0.929 . S
C3628 C3627 1.383 . S
C3628 C3629 1.377 . S
C3629 H3613 0.930 . S
C3629 C3628 1.377 . S
C3629 C3630 1.379 . S
C3630 H3614 0.931 . S
C3630 C3624 1.383 . S
C3630 C3629 1.379 . S
H3631 C3625 0.959 . S
H3632 C3625 0.961 . S
H3633 C3625 0.960 . S
H3634 C3626 0.930 . S
H3635 C3627 0.929 . S
H3636 C3644 0.929 . S
H3637 C3646 0.930 . S
H3638 C3648 0.930 . S
H3639 C3651 0.929 . S
H3640 C3654 0.930 . S
H3641 C3656 0.960 . S
H3642 C3656 0.960 . S
H3643 C3656 0.960 . S
C3644 H3636 0.929 . S
C3644 C3645 1.377 . S
C3644 C3646 1.384 . S
C3645 C3644 1.377 . S
C3645 C3651 1.390 . S
C3646 H3637 0.930 . S
C3646 C3644 1.384 . S
C3646 C3647 1.372 . S
C3647 C3646 1.372 . S
C3647 C3648 1.400 . S
C3647 C3652 1.490 . S
C3648 H3638 0.930 . S
C3648 C3647 1.400 . S
C3648 C3651 1.386 . S
H3649 C3665 0.930 . S
H3650 C3666 0.931 . S
C3651 H3639 0.929 . S
C3651 C3645 1.390 . S
C3651 C3648 1.386 . S
C3652 C3647 1.490 . S
C3652 C3654 1.395 . S
C3652 C3655 1.403 . S
H3653 C3659 0.930 . S
C3654 H3640 0.930 . S
C3654 C3652 1.395 . S
C3654 C3657 1.403 1_554 S
C3655 C3652 1.403 . S
C3655 C3656 1.524 . S
C3655 C3659 1.400 1_554 S
C3656 H3641 0.960 . S
C3656 H3642 0.960 . S
C3656 H3643 0.960 . S
C3656 C3655 1.524 . S
C3657 C3654 1.403 1_556 S
C3657 C3658 1.392 . S
C3657 C3661 1.495 . S
C3658 C3657 1.392 . S
C3658 C3659 1.385 . S
C3658 C3660 1.478 . S
C3659 H3653 0.930 . S
C3659 C3655 1.400 1_556 S
C3659 C3658 1.385 . S
C3660 C3658 1.478 . S
C3660 C3662 1.381 . S
C3660 C3666 1.383 . S
C3661 C3657 1.495 . S
C3661 H3667 0.959 . S
C3661 H3668 0.961 . S
C3661 H3669 0.960 . S
C3662 C3660 1.381 . S
C3662 C3663 1.394 . S
C3662 H3670 0.930 . S
C3663 C3662 1.394 . S
C3663 C3664 1.383 . S
C3663 H3671 0.929 . S
C3664 C3663 1.383 . S
C3664 C3665 1.377 . S
C3665 H3649 0.930 . S
C3665 C3664 1.377 . S
C3665 C3666 1.379 . S
C3666 H3650 0.931 . S
C3666 C3660 1.383 . S
C3666 C3665 1.379 . S
H3667 C3661 0.959 . S
H3668 C3661 0.961 . S
H3669 C3661 0.960 . S
H3670 C3662 0.930 . S
H3671 C3663 0.929 . S
H3672 C3680 0.929 . S
H3673 C3682 0.930 . S
H3674 C3684 0.930 . S
H3675 C3687 0.929 . S
H3676 C3690 0.930 . S
H3677 C3692 0.960 . S
H3678 C3692 0.960 . S
H3679 C3692 0.960 . S
C3680 H3672 0.929 . S
C3680 C3681 1.377 . S
C3680 C3682 1.384 . S
C3681 C3680 1.377 . S
C3681 C3687 1.390 . S
C3682 H3673 0.930 . S
C3682 C3680 1.384 . S
C3682 C3683 1.372 . S
C3683 C3682 1.372 . S
C3683 C3684 1.400 . S
C3683 C3688 1.490 . S
C3684 H3674 0.930 . S
C3684 C3683 1.400 . S
C3684 C3687 1.386 . S
H3685 C3701 0.930 . S
H3686 C3702 0.931 . S
C3687 H3675 0.929 . S
C3687 C3681 1.390 . S
C3687 C3684 1.386 . S
C3688 C3683 1.490 . S
C3688 C3690 1.395 . S
C3688 C3691 1.403 . S
H3689 C3695 0.930 . S
C3690 H3676 0.930 . S
C3690 C3688 1.395 . S
C3690 C3693 1.403 . S
C3691 C3688 1.403 . S
C3691 C3692 1.524 . S
C3691 C3695 1.400 . S
C3692 H3677 0.960 . S
C3692 H3678 0.960 . S
C3692 H3679 0.960 . S
C3692 C3691 1.524 . S
C3693 C3690 1.403 . S
C3693 C3694 1.392 . S
C3693 C3697 1.495 . S
C3694 C3693 1.392 . S
C3694 C3695 1.385 . S
C3694 C3696 1.478 . S
C3695 H3689 0.930 . S
C3695 C3691 1.400 . S
C3695 C3694 1.385 . S
C3696 C3694 1.478 . S
C3696 C3698 1.381 . S
C3696 C3702 1.383 . S
C3697 C3693 1.495 . S
C3697 H3703 0.959 . S
C3697 H3704 0.961 . S
C3697 H3705 0.960 . S
C3698 C3696 1.381 . S
C3698 C3699 1.394 . S
C3698 H3706 0.930 . S
C3699 C3698 1.394 . S
C3699 C3700 1.383 . S
C3699 H3707 0.929 . S
C3700 C3699 1.383 . S
C3700 C3701 1.377 . S
C3701 H3685 0.930 . S
C3701 C3700 1.377 . S
C3701 C3702 1.379 . S
C3702 H3686 0.931 . S
C3702 C3696 1.383 . S
C3702 C3701 1.379 . S
H3703 C3697 0.959 . S
H3704 C3697 0.961 . S
H3705 C3697 0.960 . S
H3706 C3698 0.930 . S
H3707 C3699 0.929 . S
H3708 C3716 0.929 . S
H3709 C3718 0.930 . S
H3710 C3720 0.930 . S
H3711 C3723 0.929 . S
H3712 C3726 0.930 . S
H3713 C3728 0.960 . S
H3714 C3728 0.960 . S
H3715 C3728 0.960 . S
C3716 H3708 0.929 . S
C3716 C3717 1.377 . S
C3716 C3718 1.384 . S
C3717 C3716 1.377 . S
C3717 C3723 1.390 . S
C3718 H3709 0.930 . S
C3718 C3716 1.384 . S
C3718 C3719 1.372 . S
C3719 C3718 1.372 . S
C3719 C3720 1.400 . S
C3719 C3724 1.490 . S
C3720 H3710 0.930 . S
C3720 C3719 1.400 . S
C3720 C3723 1.386 . S
H3721 C3737 0.930 . S
H3722 C3738 0.931 . S
C3723 H3711 0.929 . S
C3723 C3717 1.390 . S
C3723 C3720 1.386 . S
C3724 C3719 1.490 . S
C3724 C3726 1.395 . S
C3724 C3727 1.403 . S
H3725 C3731 0.930 . S
C3726 H3712 0.930 . S
C3726 C3724 1.395 . S
C3726 C3729 1.403 . S
C3727 C3724 1.403 . S
C3727 C3728 1.524 . S
C3727 C3731 1.400 . S
C3728 H3713 0.960 . S
C3728 H3714 0.960 . S
C3728 H3715 0.960 . S
C3728 C3727 1.524 . S
C3729 C3726 1.403 . S
C3729 C3730 1.392 . S
C3729 C3733 1.495 . S
C3730 C3729 1.392 . S
C3730 C3731 1.385 . S
C3730 C3732 1.478 . S
C3731 H3725 0.930 . S
C3731 C3727 1.400 . S
C3731 C3730 1.385 . S
C3732 C3730 1.478 . S
C3732 C3734 1.381 . S
C3732 C3738 1.383 . S
C3733 C3729 1.495 . S
C3733 H3739 0.959 . S
C3733 H3740 0.961 . S
C3733 H3741 0.960 . S
C3734 C3732 1.381 . S
C3734 C3735 1.394 . S
C3734 H3742 0.930 . S
C3735 C3734 1.394 . S
C3735 C3736 1.383 . S
C3735 H3743 0.929 . S
C3736 C3735 1.383 . S
C3736 C3737 1.377 . S
C3737 H3721 0.930 . S
C3737 C3736 1.377 . S
C3737 C3738 1.379 . S
C3738 H3722 0.931 . S
C3738 C3732 1.383 . S
C3738 C3737 1.379 . S
H3739 C3733 0.959 . S
H3740 C3733 0.961 . S
H3741 C3733 0.960 . S
H3742 C3734 0.930 . S
H3743 C3735 0.929 . S
H3744 C3752 0.929 . S
H3745 C3754 0.930 . S
H3746 C3756 0.930 . S
H3747 C3759 0.929 . S
H3748 C3762 0.930 . S
H3749 C3764 0.960 . S
H3750 C3764 0.960 . S
H3751 C3764 0.960 . S
C3752 H3744 0.929 . S
C3752 C3753 1.377 . S
C3752 C3754 1.384 . S
C3753 C3752 1.377 . S
C3753 C3759 1.390 . S
C3754 H3745 0.930 . S
C3754 C3752 1.384 . S
C3754 C3755 1.372 . S
C3755 C3754 1.372 . S
C3755 C3756 1.400 . S
C3755 C3760 1.490 . S
C3756 H3746 0.930 . S
C3756 C3755 1.400 . S
C3756 C3759 1.386 . S
H3757 C3773 0.930 . S
H3758 C3774 0.931 . S
C3759 H3747 0.929 . S
C3759 C3753 1.390 . S
C3759 C3756 1.386 . S
C3760 C3755 1.490 . S
C3760 C3762 1.395 . S
C3760 C3763 1.403 . S
H3761 C3767 0.930 . S
C3762 H3748 0.930 . S
C3762 C3760 1.395 . S
C3762 C3765 1.403 . S
C3763 C3760 1.403 . S
C3763 C3764 1.524 . S
C3763 C3767 1.400 . S
C3764 H3749 0.960 . S
C3764 H3750 0.960 . S
C3764 H3751 0.960 . S
C3764 C3763 1.524 . S
C3765 C3762 1.403 . S
C3765 C3766 1.392 . S
C3765 C3769 1.495 . S
C3766 C3765 1.392 . S
C3766 C3767 1.385 . S
C3766 C3768 1.478 . S
C3767 H3761 0.930 . S
C3767 C3763 1.400 . S
C3767 C3766 1.385 . S
C3768 C3766 1.478 . S
C3768 C3770 1.381 . S
C3768 C3774 1.383 . S
C3769 C3765 1.495 . S
C3769 H3775 0.959 . S
C3769 H3776 0.961 . S
C3769 H3777 0.960 . S
C3770 C3768 1.381 . S
C3770 C3771 1.394 . S
C3770 H3778 0.930 . S
C3771 C3770 1.394 . S
C3771 C3772 1.383 . S
C3771 H3779 0.929 . S
C3772 C3771 1.383 . S
C3772 C3773 1.377 . S
C3773 H3757 0.930 . S
C3773 C3772 1.377 . S
C3773 C3774 1.379 . S
C3774 H3758 0.931 . S
C3774 C3768 1.383 . S
C3774 C3773 1.379 . S
H3775 C3769 0.959 . S
H3776 C3769 0.961 . S
H3777 C3769 0.960 . S
H3778 C3770 0.930 . S
H3779 C3771 0.929 . S
H3780 C3788 0.929 . S
H3781 C3790 0.930 . S
H3782 C3792 0.930 . S
H3783 C3795 0.929 . S
H3784 C3798 0.930 . S
H3785 C3800 0.960 . S
H3786 C3800 0.960 . S
H3787 C3800 0.960 . S
C3788 H3780 0.929 . S
C3788 C3789 1.377 . S
C3788 C3790 1.384 . S
C3789 C3788 1.377 . S
C3789 C3795 1.390 . S
C3790 H3781 0.930 . S
C3790 C3788 1.384 . S
C3790 C3791 1.372 . S
C3791 C3790 1.372 . S
C3791 C3792 1.400 . S
C3791 C3796 1.490 . S
C3792 H3782 0.930 . S
C3792 C3791 1.400 . S
C3792 C3795 1.386 . S
H3793 C3809 0.930 . S
H3794 C3810 0.931 . S
C3795 H3783 0.929 . S
C3795 C3789 1.390 . S
C3795 C3792 1.386 . S
C3796 C3791 1.490 . S
C3796 C3798 1.395 . S
C3796 C3799 1.403 . S
H3797 C3803 0.930 . S
C3798 H3784 0.930 . S
C3798 C3796 1.395 . S
C3798 C3801 1.403 . S
C3799 C3796 1.403 . S
C3799 C3800 1.524 . S
C3799 C3803 1.400 . S
C3800 H3785 0.960 . S
C3800 H3786 0.960 . S
C3800 H3787 0.960 . S
C3800 C3799 1.524 . S
C3801 C3798 1.403 . S
C3801 C3802 1.392 . S
C3801 C3805 1.495 . S
C3802 C3801 1.392 . S
C3802 C3803 1.385 . S
C3802 C3804 1.478 . S
C3803 H3797 0.930 . S
C3803 C3799 1.400 . S
C3803 C3802 1.385 . S
C3804 C3802 1.478 . S
C3804 C3806 1.381 . S
C3804 C3810 1.383 . S
C3805 C3801 1.495 . S
C3805 H3811 0.959 . S
C3805 H3812 0.961 . S
C3805 H3813 0.960 . S
C3806 C3804 1.381 . S
C3806 C3807 1.394 . S
C3806 H3814 0.930 . S
C3807 C3806 1.394 . S
C3807 C3808 1.383 . S
C3807 H3815 0.929 . S
C3808 C3807 1.383 . S
C3808 C3809 1.377 . S
C3809 H3793 0.930 . S
C3809 C3808 1.377 . S
C3809 C3810 1.379 . S
C3810 H3794 0.931 . S
C3810 C3804 1.383 . S
C3810 C3809 1.379 . S
H3811 C3805 0.959 . S
H3812 C3805 0.961 . S
H3813 C3805 0.960 . S
H3814 C3806 0.930 . S
H3815 C3807 0.929 . S
H3816 C3824 0.929 . S
H3817 C3826 0.930 . S
H3818 C3828 0.930 . S
H3819 C3831 0.929 . S
H3820 C3834 0.930 . S
H3821 C3836 0.960 . S
H3822 C3836 0.960 . S
H3823 C3836 0.960 . S
C3824 H3816 0.929 . S
C3824 C3825 1.377 . S
C3824 C3826 1.384 . S
C3825 C3824 1.377 . S
C3825 C3831 1.390 . S
C3826 H3817 0.930 . S
C3826 C3824 1.384 . S
C3826 C3827 1.372 . S
C3827 C3826 1.372 . S
C3827 C3828 1.400 . S
C3827 C3832 1.490 . S
C3828 H3818 0.930 . S
C3828 C3827 1.400 . S
C3828 C3831 1.386 . S
H3829 C3845 0.930 . S
H3830 C3846 0.931 . S
C3831 H3819 0.929 . S
C3831 C3825 1.390 . S
C3831 C3828 1.386 . S
C3832 C3827 1.490 . S
C3832 C3834 1.395 . S
C3832 C3835 1.403 . S
H3833 C3839 0.930 . S
C3834 H3820 0.930 . S
C3834 C3832 1.395 . S
C3834 C3837 1.403 . S
C3835 C3832 1.403 . S
C3835 C3836 1.524 . S
C3835 C3839 1.400 . S
C3836 H3821 0.960 . S
C3836 H3822 0.960 . S
C3836 H3823 0.960 . S
C3836 C3835 1.524 . S
C3837 C3834 1.403 . S
C3837 C3838 1.392 . S
C3837 C3841 1.495 . S
C3838 C3837 1.392 . S
C3838 C3839 1.385 . S
C3838 C3840 1.478 . S
C3839 H3833 0.930 . S
C3839 C3835 1.400 . S
C3839 C3838 1.385 . S
C3840 C3838 1.478 . S
C3840 C3842 1.381 . S
C3840 C3846 1.383 . S
C3841 C3837 1.495 . S
C3841 H3847 0.959 . S
C3841 H3848 0.961 . S
C3841 H3849 0.960 . S
C3842 C3840 1.381 . S
C3842 C3843 1.394 . S
C3842 H3850 0.930 . S
C3843 C3842 1.394 . S
C3843 C3844 1.383 . S
C3843 H3851 0.929 . S
C3844 C3843 1.383 . S
C3844 C3845 1.377 . S
C3845 H3829 0.930 . S
C3845 C3844 1.377 . S
C3845 C3846 1.379 . S
C3846 H3830 0.931 . S
C3846 C3840 1.383 . S
C3846 C3845 1.379 . S
H3847 C3841 0.959 . S
H3848 C3841 0.961 . S
H3849 C3841 0.960 . S
H3850 C3842 0.930 . S
H3851 C3843 0.929 . S
H3852 C3860 0.929 . S
H3853 C3862 0.930 . S
H3854 C3864 0.930 . S
H3855 C3867 0.929 . S
H3856 C3870 0.930 . S
H3857 C3872 0.960 . S
H3858 C3872 0.960 . S
H3859 C3872 0.960 . S
C3860 H3852 0.929 . S
C3860 C3861 1.377 . S
C3860 C3862 1.384 . S
C3861 C3860 1.377 . S
C3861 C3867 1.390 . S
C3862 H3853 0.930 . S
C3862 C3860 1.384 . S
C3862 C3863 1.372 . S
C3863 C3862 1.372 . S
C3863 C3864 1.400 . S
C3863 C3868 1.490 . S
C3864 H3854 0.930 . S
C3864 C3863 1.400 . S
C3864 C3867 1.386 . S
H3865 C3881 0.930 . S
H3866 C3882 0.931 . S
C3867 H3855 0.929 . S
C3867 C3861 1.390 . S
C3867 C3864 1.386 . S
C3868 C3863 1.490 . S
C3868 C3870 1.395 . S
C3868 C3871 1.403 . S
H3869 C3875 0.930 . S
C3870 H3856 0.930 . S
C3870 C3868 1.395 . S
C3870 C3873 1.403 . S
C3871 C3868 1.403 . S
C3871 C3872 1.524 . S
C3871 C3875 1.400 . S
C3872 H3857 0.960 . S
C3872 H3858 0.960 . S
C3872 H3859 0.960 . S
C3872 C3871 1.524 . S
C3873 C3870 1.403 . S
C3873 C3874 1.392 . S
C3873 C3877 1.495 . S
C3874 C3873 1.392 . S
C3874 C3875 1.385 . S
C3874 C3876 1.478 . S
C3875 H3869 0.930 . S
C3875 C3871 1.400 . S
C3875 C3874 1.385 . S
C3876 C3874 1.478 . S
C3876 C3878 1.381 . S
C3876 C3882 1.383 . S
C3877 C3873 1.495 . S
C3877 H3883 0.959 . S
C3877 H3884 0.961 . S
C3877 H3885 0.960 . S
C3878 C3876 1.381 . S
C3878 C3879 1.394 . S
C3878 H3886 0.930 . S
C3879 C3878 1.394 . S
C3879 C3880 1.383 . S
C3879 H3887 0.929 . S
C3880 C3879 1.383 . S
C3880 C3881 1.377 . S
C3881 H3865 0.930 . S
C3881 C3880 1.377 . S
C3881 C3882 1.379 . S
C3882 H3866 0.931 . S
C3882 C3876 1.383 . S
C3882 C3881 1.379 . S
H3883 C3877 0.959 . S
H3884 C3877 0.961 . S
H3885 C3877 0.960 . S
H3886 C3878 0.930 . S
H3887 C3879 0.929 . S
H3888 C3896 0.929 . S
H3889 C3898 0.930 . S
H3890 C3900 0.930 . S
H3891 C3903 0.929 . S
H3892 C3906 0.930 . S
H3893 C3908 0.960 . S
H3894 C3908 0.960 . S
H3895 C3908 0.960 . S
C3896 H3888 0.929 . S
C3896 C3897 1.377 . S
C3896 C3898 1.384 . S
C3897 C3896 1.377 . S
C3897 C3903 1.390 . S
C3898 H3889 0.930 . S
C3898 C3896 1.384 . S
C3898 C3899 1.372 . S
C3899 C3898 1.372 . S
C3899 C3900 1.400 . S
C3899 C3904 1.490 . S
C3900 H3890 0.930 . S
C3900 C3899 1.400 . S
C3900 C3903 1.386 . S
H3901 C3917 0.930 . S
H3902 C3918 0.931 . S
C3903 H3891 0.929 . S
C3903 C3897 1.390 . S
C3903 C3900 1.386 . S
C3904 C3899 1.490 . S
C3904 C3906 1.395 . S
C3904 C3907 1.403 . S
H3905 C3911 0.930 . S
C3906 H3892 0.930 . S
C3906 C3904 1.395 . S
C3906 C3909 1.403 . S
C3907 C3904 1.403 . S
C3907 C3908 1.524 . S
C3907 C3911 1.400 . S
C3908 H3893 0.960 . S
C3908 H3894 0.960 . S
C3908 H3895 0.960 . S
C3908 C3907 1.524 . S
C3909 C3906 1.403 . S
C3909 C3910 1.392 . S
C3909 C3913 1.495 . S
C3910 C3909 1.392 . S
C3910 C3911 1.385 . S
C3910 C3912 1.478 . S
C3911 H3905 0.930 . S
C3911 C3907 1.400 . S
C3911 C3910 1.385 . S
C3912 C3910 1.478 . S
C3912 C3914 1.381 . S
C3912 C3918 1.383 . S
C3913 C3909 1.495 . S
C3913 H3919 0.959 . S
C3913 H3920 0.961 . S
C3913 H3921 0.960 . S
C3914 C3912 1.381 . S
C3914 C3915 1.394 . S
C3914 H3922 0.930 . S
C3915 C3914 1.394 . S
C3915 C3916 1.383 . S
C3915 H3923 0.929 . S
C3916 C3915 1.383 . S
C3916 C3917 1.377 . S
C3917 H3901 0.930 . S
C3917 C3916 1.377 . S
C3917 C3918 1.379 . S
C3918 H3902 0.931 . S
C3918 C3912 1.383 . S
C3918 C3917 1.379 . S
H3919 C3913 0.959 . S
H3920 C3913 0.961 . S
H3921 C3913 0.960 . S
H3922 C3914 0.930 . S
H3923 C3915 0.929 . S
H3924 C3932 0.929 . S
H3925 C3934 0.930 . S
H3926 C3936 0.930 . S
H3927 C3939 0.929 . S
H3928 C3942 0.930 . S
H3929 C3944 0.960 . S
H3930 C3944 0.960 . S
H3931 C3944 0.960 . S
C3932 H3924 0.929 . S
C3932 C3933 1.377 . S
C3932 C3934 1.384 . S
C3933 C3932 1.377 . S
C3933 C3939 1.390 . S
C3934 H3925 0.930 . S
C3934 C3932 1.384 . S
C3934 C3935 1.372 . S
C3935 C3934 1.372 . S
C3935 C3936 1.400 . S
C3935 C3940 1.490 . S
C3936 H3926 0.930 . S
C3936 C3935 1.400 . S
C3936 C3939 1.386 . S
H3937 C3953 0.930 . S
H3938 C3954 0.931 . S
C3939 H3927 0.929 . S
C3939 C3933 1.390 . S
C3939 C3936 1.386 . S
C3940 C3935 1.490 . S
C3940 C3942 1.395 . S
C3940 C3943 1.403 . S
H3941 C3947 0.930 . S
C3942 H3928 0.930 . S
C3942 C3940 1.395 . S
C3942 C3945 1.403 . S
C3943 C3940 1.403 . S
C3943 C3944 1.524 . S
C3943 C3947 1.400 . S
C3944 H3929 0.960 . S
C3944 H3930 0.960 . S
C3944 H3931 0.960 . S
C3944 C3943 1.524 . S
C3945 C3942 1.403 . S
C3945 C3946 1.392 . S
C3945 C3949 1.495 . S
C3946 C3945 1.392 . S
C3946 C3947 1.385 . S
C3946 C3948 1.478 . S
C3947 H3941 0.930 . S
C3947 C3943 1.400 . S
C3947 C3946 1.385 . S
C3948 C3946 1.478 . S
C3948 C3950 1.381 . S
C3948 C3954 1.383 . S
C3949 C3945 1.495 . S
C3949 H3955 0.959 . S
C3949 H3956 0.961 . S
C3949 H3957 0.960 . S
C3950 C3948 1.381 . S
C3950 C3951 1.394 . S
C3950 H3958 0.930 . S
C3951 C3950 1.394 . S
C3951 C3952 1.383 . S
C3951 H3959 0.929 . S
C3952 C3951 1.383 . S
C3952 C3953 1.377 . S
C3953 H3937 0.930 . S
C3953 C3952 1.377 . S
C3953 C3954 1.379 . S
C3954 H3938 0.931 . S
C3954 C3948 1.383 . S
C3954 C3953 1.379 . S
H3955 C3949 0.959 . S
H3956 C3949 0.961 . S
H3957 C3949 0.960 . S
H3958 C3950 0.930 . S
H3959 C3951 0.929 . S
H3960 C3968 0.929 . S
H3961 C3970 0.930 . S
H3962 C3972 0.930 . S
H3963 C3975 0.929 . S
H3964 C3978 0.930 . S
H3965 C3980 0.960 . S
H3966 C3980 0.960 . S
H3967 C3980 0.960 . S
C3968 H3960 0.929 . S
C3968 C3969 1.377 . S
C3968 C3970 1.384 . S
C3969 C3968 1.377 . S
C3969 C3975 1.390 . S
C3970 H3961 0.930 . S
C3970 C3968 1.384 . S
C3970 C3971 1.372 . S
C3971 C3970 1.372 . S
C3971 C3972 1.400 . S
C3971 C3976 1.490 . S
C3972 H3962 0.930 . S
C3972 C3971 1.400 . S
C3972 C3975 1.386 . S
H3973 C3989 0.930 . S
H3974 C3990 0.931 . S
C3975 H3963 0.929 . S
C3975 C3969 1.390 . S
C3975 C3972 1.386 . S
C3976 C3971 1.490 . S
C3976 C3978 1.395 . S
C3976 C3979 1.403 . S
H3977 C3983 0.930 . S
C3978 H3964 0.930 . S
C3978 C3976 1.395 . S
C3978 C3981 1.403 . S
C3979 C3976 1.403 . S
C3979 C3980 1.524 . S
C3979 C3983 1.400 . S
C3980 H3965 0.960 . S
C3980 H3966 0.960 . S
C3980 H3967 0.960 . S
C3980 C3979 1.524 . S
C3981 C3978 1.403 . S
C3981 C3982 1.392 . S
C3981 C3985 1.495 . S
C3982 C3981 1.392 . S
C3982 C3983 1.385 . S
C3982 C3984 1.478 . S
C3983 H3977 0.930 . S
C3983 C3979 1.400 . S
C3983 C3982 1.385 . S
C3984 C3982 1.478 . S
C3984 C3986 1.381 . S
C3984 C3990 1.383 . S
C3985 C3981 1.495 . S
C3985 H3991 0.959 . S
C3985 H3992 0.961 . S
C3985 H3993 0.960 . S
C3986 C3984 1.381 . S
C3986 C3987 1.394 . S
C3986 H3994 0.930 . S
C3987 C3986 1.394 . S
C3987 C3988 1.383 . S
C3987 H3995 0.929 . S
C3988 C3987 1.383 . S
C3988 C3989 1.377 . S
C3989 H3973 0.930 . S
C3989 C3988 1.377 . S
C3989 C3990 1.379 . S
C3990 H3974 0.931 . S
C3990 C3984 1.383 . S
C3990 C3989 1.379 . S
H3991 C3985 0.959 . S
H3992 C3985 0.961 . S
H3993 C3985 0.960 . S
H3994 C3986 0.930 . S
H3995 C3987 0.929 . S
H3996 C4004 0.929 . S
H3997 C4006 0.930 . S
H3998 C4008 0.930 . S
H3999 C4011 0.929 . S
H4000 C4014 0.930 . S
H4001 C4016 0.960 . S
H4002 C4016 0.960 . S
H4003 C4016 0.960 . S
C4004 H3996 0.929 . S
C4004 C4005 1.377 . S
C4004 C4006 1.384 . S
C4005 C4004 1.377 . S
C4005 C4011 1.390 . S
C4006 H3997 0.930 . S
C4006 C4004 1.384 . S
C4006 C4007 1.372 . S
C4007 C4006 1.372 . S
C4007 C4008 1.400 . S
C4007 C4012 1.490 . S
C4008 H3998 0.930 . S
C4008 C4007 1.400 . S
C4008 C4011 1.386 . S
H4009 C4025 0.930 . S
H4010 C4026 0.931 . S
C4011 H3999 0.929 . S
C4011 C4005 1.390 . S
C4011 C4008 1.386 . S
C4012 C4007 1.490 . S
C4012 C4014 1.395 . S
C4012 C4015 1.403 . S
H4013 C4019 0.930 . S
C4014 H4000 0.930 . S
C4014 C4012 1.395 . S
C4014 C4017 1.403 . S
C4015 C4012 1.403 . S
C4015 C4016 1.524 . S
C4015 C4019 1.400 . S
C4016 H4001 0.960 . S
C4016 H4002 0.960 . S
C4016 H4003 0.960 . S
C4016 C4015 1.524 . S
C4017 C4014 1.403 . S
C4017 C4018 1.392 . S
C4017 C4021 1.495 . S
C4018 C4017 1.392 . S
C4018 C4019 1.385 . S
C4018 C4020 1.478 . S
C4019 H4013 0.930 . S
C4019 C4015 1.400 . S
C4019 C4018 1.385 . S
C4020 C4018 1.478 . S
C4020 C4022 1.381 . S
C4020 C4026 1.383 . S
C4021 C4017 1.495 . S
C4021 H4027 0.959 . S
C4021 H4028 0.961 . S
C4021 H4029 0.960 . S
C4022 C4020 1.381 . S
C4022 C4023 1.394 . S
C4022 H4030 0.930 . S
C4023 C4022 1.394 . S
C4023 C4024 1.383 . S
C4023 H4031 0.929 . S
C4024 C4023 1.383 . S
C4024 C4025 1.377 . S
C4025 H4009 0.930 . S
C4025 C4024 1.377 . S
C4025 C4026 1.379 . S
C4026 H4010 0.931 . S
C4026 C4020 1.383 . S
C4026 C4025 1.379 . S
H4027 C4021 0.959 . S
H4028 C4021 0.961 . S
H4029 C4021 0.960 . S
H4030 C4022 0.930 . S
H4031 C4023 0.929 . S
H4032 C4040 0.929 . S
H4033 C4042 0.930 . S
H4034 C4044 0.930 . S
H4035 C4047 0.929 . S
H4036 C4050 0.930 . S
H4037 C4052 0.960 . S
H4038 C4052 0.960 . S
H4039 C4052 0.960 . S
C4040 H4032 0.929 . S
C4040 C4041 1.377 . S
C4040 C4042 1.384 . S
C4041 C4040 1.377 . S
C4041 C4047 1.390 . S
C4042 H4033 0.930 . S
C4042 C4040 1.384 . S
C4042 C4043 1.372 . S
C4043 C4042 1.372 . S
C4043 C4044 1.400 . S
C4043 C4048 1.490 . S
C4044 H4034 0.930 . S
C4044 C4043 1.400 . S
C4044 C4047 1.386 . S
H4045 C4061 0.930 . S
H4046 C4062 0.931 . S
C4047 H4035 0.929 . S
C4047 C4041 1.390 . S
C4047 C4044 1.386 . S
C4048 C4043 1.490 . S
C4048 C4050 1.395 . S
C4048 C4051 1.403 . S
H4049 C4055 0.930 . S
C4050 H4036 0.930 . S
C4050 C4048 1.395 . S
C4050 C4053 1.403 . S
C4051 C4048 1.403 . S
C4051 C4052 1.524 . S
C4051 C4055 1.400 . S
C4052 H4037 0.960 . S
C4052 H4038 0.960 . S
C4052 H4039 0.960 . S
C4052 C4051 1.524 . S
C4053 C4050 1.403 . S
C4053 C4054 1.392 . S
C4053 C4057 1.495 . S
C4054 C4053 1.392 . S
C4054 C4055 1.385 . S
C4054 C4056 1.478 . S
C4055 H4049 0.930 . S
C4055 C4051 1.400 . S
C4055 C4054 1.385 . S
C4056 C4054 1.478 . S
C4056 C4058 1.381 . S
C4056 C4062 1.383 . S
C4057 C4053 1.495 . S
C4057 H4063 0.959 . S
C4057 H4064 0.961 . S
C4057 H4065 0.960 . S
C4058 C4056 1.381 . S
C4058 C4059 1.394 . S
C4058 H4066 0.930 . S
C4059 C4058 1.394 . S
C4059 C4060 1.383 . S
C4059 H4067 0.929 . S
C4060 C4059 1.383 . S
C4060 C4061 1.377 . S
C4061 H4045 0.930 . S
C4061 C4060 1.377 . S
C4061 C4062 1.379 . S
C4062 H4046 0.931 . S
C4062 C4056 1.383 . S
C4062 C4061 1.379 . S
H4063 C4057 0.959 . S
H4064 C4057 0.961 . S
H4065 C4057 0.960 . S
H4066 C4058 0.930 . S
H4067 C4059 0.929 . S
H4068 C4076 0.929 . S
H4069 C4078 0.930 . S
H4070 C4080 0.930 . S
H4071 C4083 0.929 . S
H4072 C4086 0.930 . S
H4073 C4088 0.960 . S
H4074 C4088 0.960 . S
H4075 C4088 0.960 . S
C4076 H4068 0.929 . S
C4076 C4077 1.377 . S
C4076 C4078 1.384 . S
C4077 C4076 1.377 . S
C4077 C4083 1.390 . S
C4078 H4069 0.930 . S
C4078 C4076 1.384 . S
C4078 C4079 1.372 . S
C4079 C4078 1.372 . S
C4079 C4080 1.400 . S
C4079 C4084 1.490 . S
C4080 H4070 0.930 . S
C4080 C4079 1.400 . S
C4080 C4083 1.386 . S
H4081 C4097 0.930 . S
H4082 C4098 0.931 . S
C4083 H4071 0.929 . S
C4083 C4077 1.390 . S
C4083 C4080 1.386 . S
C4084 C4079 1.490 . S
C4084 C4086 1.395 . S
C4084 C4087 1.403 . S
H4085 C4091 0.930 . S
C4086 H4072 0.930 . S
C4086 C4084 1.395 . S
C4086 C4089 1.403 . S
C4087 C4084 1.403 . S
C4087 C4088 1.524 . S
C4087 C4091 1.400 . S
C4088 H4073 0.960 . S
C4088 H4074 0.960 . S
C4088 H4075 0.960 . S
C4088 C4087 1.524 . S
C4089 C4086 1.403 . S
C4089 C4090 1.392 . S
C4089 C4093 1.495 . S
C4090 C4089 1.392 . S
C4090 C4091 1.385 . S
C4090 C4092 1.478 . S
C4091 H4085 0.930 . S
C4091 C4087 1.400 . S
C4091 C4090 1.385 . S
C4092 C4090 1.478 . S
C4092 C4094 1.381 . S
C4092 C4098 1.383 . S
C4093 C4089 1.495 . S
C4093 H4099 0.959 . S
C4093 H4100 0.961 . S
C4093 H4101 0.960 . S
C4094 C4092 1.381 . S
C4094 C4095 1.394 . S
C4094 H4102 0.930 . S
C4095 C4094 1.394 . S
C4095 C4096 1.383 . S
C4095 H4103 0.929 . S
C4096 C4095 1.383 . S
C4096 C4097 1.377 . S
C4097 H4081 0.930 . S
C4097 C4096 1.377 . S
C4097 C4098 1.379 . S
C4098 H4082 0.931 . S
C4098 C4092 1.383 . S
C4098 C4097 1.379 . S
H4099 C4093 0.959 . S
H4100 C4093 0.961 . S
H4101 C4093 0.960 . S
H4102 C4094 0.930 . S
H4103 C4095 0.929 . S
H4104 C4112 0.929 . S
H4105 C4114 0.930 . S
H4106 C4116 0.930 . S
H4107 C4119 0.929 . S
H4108 C4122 0.930 . S
H4109 C4124 0.960 . S
H4110 C4124 0.960 . S
H4111 C4124 0.960 . S
C4112 H4104 0.929 . S
C4112 C4113 1.377 . S
C4112 C4114 1.384 . S
C4113 C4112 1.377 . S
C4113 C4119 1.390 . S
C4114 H4105 0.930 . S
C4114 C4112 1.384 . S
C4114 C4115 1.372 . S
C4115 C4114 1.372 . S
C4115 C4116 1.400 . S
C4115 C4120 1.490 . S
C4116 H4106 0.930 . S
C4116 C4115 1.400 . S
C4116 C4119 1.386 . S
H4117 C4133 0.930 . S
H4118 C4134 0.931 . S
C4119 H4107 0.929 . S
C4119 C4113 1.390 . S
C4119 C4116 1.386 . S
C4120 C4115 1.490 . S
C4120 C4122 1.395 . S
C4120 C4123 1.403 . S
H4121 C4127 0.930 . S
C4122 H4108 0.930 . S
C4122 C4120 1.395 . S
C4122 C4125 1.403 . S
C4123 C4120 1.403 . S
C4123 C4124 1.524 . S
C4123 C4127 1.400 . S
C4124 H4109 0.960 . S
C4124 H4110 0.960 . S
C4124 H4111 0.960 . S
C4124 C4123 1.524 . S
C4125 C4122 1.403 . S
C4125 C4126 1.392 . S
C4125 C4129 1.495 . S
C4126 C4125 1.392 . S
C4126 C4127 1.385 . S
C4126 C4128 1.478 . S
C4127 H4121 0.930 . S
C4127 C4123 1.400 . S
C4127 C4126 1.385 . S
C4128 C4126 1.478 . S
C4128 C4130 1.381 . S
C4128 C4134 1.383 . S
C4129 C4125 1.495 . S
C4129 H4135 0.959 . S
C4129 H4136 0.961 . S
C4129 H4137 0.960 . S
C4130 C4128 1.381 . S
C4130 C4131 1.394 . S
C4130 H4138 0.930 . S
C4131 C4130 1.394 . S
C4131 C4132 1.383 . S
C4131 H4139 0.929 . S
C4132 C4131 1.383 . S
C4132 C4133 1.377 . S
C4133 H4117 0.930 . S
C4133 C4132 1.377 . S
C4133 C4134 1.379 . S
C4134 H4118 0.931 . S
C4134 C4128 1.383 . S
C4134 C4133 1.379 . S
H4135 C4129 0.959 . S
H4136 C4129 0.961 . S
H4137 C4129 0.960 . S
H4138 C4130 0.930 . S
H4139 C4131 0.929 . S
H4140 C4148 0.929 . S
H4141 C4150 0.930 . S
H4142 C4152 0.930 . S
H4143 C4155 0.929 . S
H4144 C4158 0.930 . S
H4145 C4160 0.960 . S
H4146 C4160 0.960 . S
H4147 C4160 0.960 . S
C4148 H4140 0.929 . S
C4148 C4149 1.377 . S
C4148 C4150 1.384 . S
C4149 C4148 1.377 . S
C4149 C4155 1.390 . S
C4150 H4141 0.930 . S
C4150 C4148 1.384 . S
C4150 C4151 1.372 . S
C4151 C4150 1.372 . S
C4151 C4152 1.400 . S
C4151 C4156 1.490 . S
C4152 H4142 0.930 . S
C4152 C4151 1.400 . S
C4152 C4155 1.386 . S
H4153 C4169 0.930 . S
H4154 C4170 0.931 . S
C4155 H4143 0.929 . S
C4155 C4149 1.390 . S
C4155 C4152 1.386 . S
C4156 C4151 1.490 . S
C4156 C4158 1.395 . S
C4156 C4159 1.403 . S
H4157 C4163 0.930 . S
C4158 H4144 0.930 . S
C4158 C4156 1.395 . S
C4158 C4161 1.403 . S
C4159 C4156 1.403 . S
C4159 C4160 1.524 . S
C4159 C4163 1.400 . S
C4160 H4145 0.960 . S
C4160 H4146 0.960 . S
C4160 H4147 0.960 . S
C4160 C4159 1.524 . S
C4161 C4158 1.403 . S
C4161 C4162 1.392 . S
C4161 C4165 1.495 . S
C4162 C4161 1.392 . S
C4162 C4163 1.385 . S
C4162 C4164 1.478 . S
C4163 H4157 0.930 . S
C4163 C4159 1.400 . S
C4163 C4162 1.385 . S
C4164 C4162 1.478 . S
C4164 C4166 1.381 . S
C4164 C4170 1.383 . S
C4165 C4161 1.495 . S
C4165 H4171 0.959 . S
C4165 H4172 0.961 . S
C4165 H4173 0.960 . S
C4166 C4164 1.381 . S
C4166 C4167 1.394 . S
C4166 H4174 0.930 . S
C4167 C4166 1.394 . S
C4167 C4168 1.383 . S
C4167 H4175 0.929 . S
C4168 C4167 1.383 . S
C4168 C4169 1.377 . S
C4169 H4153 0.930 . S
C4169 C4168 1.377 . S
C4169 C4170 1.379 . S
C4170 H4154 0.931 . S
C4170 C4164 1.383 . S
C4170 C4169 1.379 . S
H4171 C4165 0.959 . S
H4172 C4165 0.961 . S
H4173 C4165 0.960 . S
H4174 C4166 0.930 . S
H4175 C4167 0.929 . S
H4176 C4184 0.929 . S
H4177 C4186 0.930 . S
H4178 C4188 0.930 . S
H4179 C4191 0.929 . S
H4180 C4194 0.930 . S
H4181 C4196 0.960 . S
H4182 C4196 0.960 . S
H4183 C4196 0.960 . S
C4184 H4176 0.929 . S
C4184 C4185 1.377 . S
C4184 C4186 1.384 . S
C4185 C4184 1.377 . S
C4185 C4191 1.390 . S
C4186 H4177 0.930 . S
C4186 C4184 1.384 . S
C4186 C4187 1.372 . S
C4187 C4186 1.372 . S
C4187 C4188 1.400 . S
C4187 C4192 1.490 . S
C4188 H4178 0.930 . S
C4188 C4187 1.400 . S
C4188 C4191 1.386 . S
H4189 C4205 0.930 . S
H4190 C4206 0.931 . S
C4191 H4179 0.929 . S
C4191 C4185 1.390 . S
C4191 C4188 1.386 . S
C4192 C4187 1.490 . S
C4192 C4194 1.395 . S
C4192 C4195 1.403 . S
H4193 C4199 0.930 . S
C4194 H4180 0.930 . S
C4194 C4192 1.395 . S
C4194 C4197 1.403 . S
C4195 C4192 1.403 . S
C4195 C4196 1.524 . S
C4195 C4199 1.400 . S
C4196 H4181 0.960 . S
C4196 H4182 0.960 . S
C4196 H4183 0.960 . S
C4196 C4195 1.524 . S
C4197 C4194 1.403 . S
C4197 C4198 1.392 . S
C4197 C4201 1.495 . S
C4198 C4197 1.392 . S
C4198 C4199 1.385 . S
C4198 C4200 1.478 . S
C4199 H4193 0.930 . S
C4199 C4195 1.400 . S
C4199 C4198 1.385 . S
C4200 C4198 1.478 . S
C4200 C4202 1.381 . S
C4200 C4206 1.383 . S
C4201 C4197 1.495 . S
C4201 H4207 0.959 . S
C4201 H4208 0.961 . S
C4201 H4209 0.960 . S
C4202 C4200 1.381 . S
C4202 C4203 1.394 . S
C4202 H4210 0.930 . S
C4203 C4202 1.394 . S
C4203 C4204 1.383 . S
C4203 H4211 0.929 . S
C4204 C4203 1.383 . S
C4204 C4205 1.377 . S
C4205 H4189 0.930 . S
C4205 C4204 1.377 . S
C4205 C4206 1.379 . S
C4206 H4190 0.931 . S
C4206 C4200 1.383 . S
C4206 C4205 1.379 . S
H4207 C4201 0.959 . S
H4208 C4201 0.961 . S
H4209 C4201 0.960 . S
H4210 C4202 0.930 . S
H4211 C4203 0.929 . S
H4212 C4220 0.929 . S
H4213 C4222 0.930 . S
H4214 C4224 0.930 . S
H4215 C4227 0.929 . S
H4216 C4230 0.930 . S
H4217 C4232 0.960 . S
H4218 C4232 0.960 . S
H4219 C4232 0.960 . S
C4220 H4212 0.929 . S
C4220 C4221 1.377 . S
C4220 C4222 1.384 . S
C4221 C4220 1.377 . S
C4221 C4227 1.390 . S
C4222 H4213 0.930 . S
C4222 C4220 1.384 . S
C4222 C4223 1.372 . S
C4223 C4222 1.372 . S
C4223 C4224 1.400 . S
C4223 C4228 1.490 . S
C4224 H4214 0.930 . S
C4224 C4223 1.400 . S
C4224 C4227 1.386 . S
H4225 C4241 0.930 . S
H4226 C4242 0.931 . S
C4227 H4215 0.929 . S
C4227 C4221 1.390 . S
C4227 C4224 1.386 . S
C4228 C4223 1.490 . S
C4228 C4230 1.395 . S
C4228 C4231 1.403 . S
H4229 C4235 0.930 . S
C4230 H4216 0.930 . S
C4230 C4228 1.395 . S
C4230 C4233 1.403 . S
C4231 C4228 1.403 . S
C4231 C4232 1.524 . S
C4231 C4235 1.400 . S
C4232 H4217 0.960 . S
C4232 H4218 0.960 . S
C4232 H4219 0.960 . S
C4232 C4231 1.524 . S
C4233 C4230 1.403 . S
C4233 C4234 1.392 . S
C4233 C4237 1.495 . S
C4234 C4233 1.392 . S
C4234 C4235 1.385 . S
C4234 C4236 1.478 . S
C4235 H4229 0.930 . S
C4235 C4231 1.400 . S
C4235 C4234 1.385 . S
C4236 C4234 1.478 . S
C4236 C4238 1.381 . S
C4236 C4242 1.383 . S
C4237 C4233 1.495 . S
C4237 H4243 0.959 . S
C4237 H4244 0.961 . S
C4237 H4245 0.960 . S
C4238 C4236 1.381 . S
C4238 C4239 1.394 . S
C4238 H4246 0.930 . S
C4239 C4238 1.394 . S
C4239 C4240 1.383 . S
C4239 H4247 0.929 . S
C4240 C4239 1.383 . S
C4240 C4241 1.377 . S
C4241 H4225 0.930 . S
C4241 C4240 1.377 . S
C4241 C4242 1.379 . S
C4242 H4226 0.931 . S
C4242 C4236 1.383 . S
C4242 C4241 1.379 . S
H4243 C4237 0.959 . S
H4244 C4237 0.961 . S
H4245 C4237 0.960 . S
H4246 C4238 0.930 . S
H4247 C4239 0.929 . S
H4248 C4256 0.929 . S
H4249 C4258 0.930 . S
H4250 C4260 0.930 . S
H4251 C4263 0.929 . S
H4252 C4266 0.930 . S
H4253 C4268 0.960 . S
H4254 C4268 0.960 . S
H4255 C4268 0.960 . S
C4256 H4248 0.929 . S
C4256 C4257 1.377 . S
C4256 C4258 1.384 . S
C4257 C4256 1.377 . S
C4257 C4263 1.390 . S
C4258 H4249 0.930 . S
C4258 C4256 1.384 . S
C4258 C4259 1.372 . S
C4259 C4258 1.372 . S
C4259 C4260 1.400 . S
C4259 C4264 1.490 . S
C4260 H4250 0.930 . S
C4260 C4259 1.400 . S
C4260 C4263 1.386 . S
H4261 C4277 0.930 . S
H4262 C4278 0.931 . S
C4263 H4251 0.929 . S
C4263 C4257 1.390 . S
C4263 C4260 1.386 . S
C4264 C4259 1.490 . S
C4264 C4266 1.395 . S
C4264 C4267 1.403 . S
H4265 C4271 0.930 . S
C4266 H4252 0.930 . S
C4266 C4264 1.395 . S
C4266 C4269 1.403 . S
C4267 C4264 1.403 . S
C4267 C4268 1.524 . S
C4267 C4271 1.400 . S
C4268 H4253 0.960 . S
C4268 H4254 0.960 . S
C4268 H4255 0.960 . S
C4268 C4267 1.524 . S
C4269 C4266 1.403 . S
C4269 C4270 1.392 . S
C4269 C4273 1.495 . S
C4270 C4269 1.392 . S
C4270 C4271 1.385 . S
C4270 C4272 1.478 . S
C4271 H4265 0.930 . S
C4271 C4267 1.400 . S
C4271 C4270 1.385 . S
C4272 C4270 1.478 . S
C4272 C4274 1.381 . S
C4272 C4278 1.383 . S
C4273 C4269 1.495 . S
C4273 H4279 0.959 . S
C4273 H4280 0.961 . S
C4273 H4281 0.960 . S
C4274 C4272 1.381 . S
C4274 C4275 1.394 . S
C4274 H4282 0.930 . S
C4275 C4274 1.394 . S
C4275 C4276 1.383 . S
C4275 H4283 0.929 . S
C4276 C4275 1.383 . S
C4276 C4277 1.377 . S
C4277 H4261 0.930 . S
C4277 C4276 1.377 . S
C4277 C4278 1.379 . S
C4278 H4262 0.931 . S
C4278 C4272 1.383 . S
C4278 C4277 1.379 . S
H4279 C4273 0.959 . S
H4280 C4273 0.961 . S
H4281 C4273 0.960 . S
H4282 C4274 0.930 . S
H4283 C4275 0.929 . S
H4284 C4292 0.929 . S
H4285 C4294 0.930 . S
H4286 C4296 0.930 . S
H4287 C4299 0.929 . S
H4288 C4302 0.930 . S
H4289 C4304 0.960 . S
H4290 C4304 0.960 . S
H4291 C4304 0.960 . S
C4292 H4284 0.929 . S
C4292 C4293 1.377 . S
C4292 C4294 1.384 . S
C4293 C4292 1.377 . S
C4293 C4299 1.390 . S
C4294 H4285 0.930 . S
C4294 C4292 1.384 . S
C4294 C4295 1.372 . S
C4295 C4294 1.372 . S
C4295 C4296 1.400 . S
C4295 C4300 1.490 . S
C4296 H4286 0.930 . S
C4296 C4295 1.400 . S
C4296 C4299 1.386 . S
H4297 C4313 0.930 . S
H4298 C4314 0.931 . S
C4299 H4287 0.929 . S
C4299 C4293 1.390 . S
C4299 C4296 1.386 . S
C4300 C4295 1.490 . S
C4300 C4302 1.395 . S
C4300 C4303 1.403 . S
H4301 C4307 0.930 . S
C4302 H4288 0.930 . S
C4302 C4300 1.395 . S
C4302 C4305 1.403 . S
C4303 C4300 1.403 . S
C4303 C4304 1.524 . S
C4303 C4307 1.400 . S
C4304 H4289 0.960 . S
C4304 H4290 0.960 . S
C4304 H4291 0.960 . S
C4304 C4303 1.524 . S
C4305 C4302 1.403 . S
C4305 C4306 1.392 . S
C4305 C4309 1.495 . S
C4306 C4305 1.392 . S
C4306 C4307 1.385 . S
C4306 C4308 1.478 . S
C4307 H4301 0.930 . S
C4307 C4303 1.400 . S
C4307 C4306 1.385 . S
C4308 C4306 1.478 . S
C4308 C4310 1.381 . S
C4308 C4314 1.383 . S
C4309 C4305 1.495 . S
C4309 H4315 0.959 . S
C4309 H4316 0.961 . S
C4309 H4317 0.960 . S
C4310 C4308 1.381 . S
C4310 C4311 1.394 . S
C4310 H4318 0.930 . S
C4311 C4310 1.394 . S
C4311 C4312 1.383 . S
C4311 H4319 0.929 . S
C4312 C4311 1.383 . S
C4312 C4313 1.377 . S
C4313 H4297 0.930 . S
C4313 C4312 1.377 . S
C4313 C4314 1.379 . S
C4314 H4298 0.931 . S
C4314 C4308 1.383 . S
C4314 C4313 1.379 . S
H4315 C4309 0.959 . S
H4316 C4309 0.961 . S
H4317 C4309 0.960 . S
H4318 C4310 0.930 . S
H4319 C4311 0.929 . S
H4320 C4328 0.929 . S
H4321 C4330 0.930 . S
H4322 C4332 0.930 . S
H4323 C4335 0.929 . S
H4324 C4338 0.930 . S
H4325 C4340 0.960 . S
H4326 C4340 0.960 . S
H4327 C4340 0.960 . S
C4328 H4320 0.929 . S
C4328 C4329 1.377 . S
C4328 C4330 1.384 . S
C4329 C4328 1.377 . S
C4329 C4335 1.390 . S
C4330 H4321 0.930 . S
C4330 C4328 1.384 . S
C4330 C4331 1.372 . S
C4331 C4330 1.372 . S
C4331 C4332 1.400 . S
C4331 C4336 1.490 . S
C4332 H4322 0.930 . S
C4332 C4331 1.400 . S
C4332 C4335 1.386 . S
H4333 C4349 0.930 . S
H4334 C4350 0.931 . S
C4335 H4323 0.929 . S
C4335 C4329 1.390 . S
C4335 C4332 1.386 . S
C4336 C4331 1.490 . S
C4336 C4338 1.395 . S
C4336 C4339 1.403 . S
H4337 C4343 0.930 . S
C4338 H4324 0.930 . S
C4338 C4336 1.395 . S
C4338 C4341 1.403 . S
C4339 C4336 1.403 . S
C4339 C4340 1.524 . S
C4339 C4343 1.400 . S
C4340 H4325 0.960 . S
C4340 H4326 0.960 . S
C4340 H4327 0.960 . S
C4340 C4339 1.524 . S
C4341 C4338 1.403 . S
C4341 C4342 1.392 . S
C4341 C4345 1.495 . S
C4342 C4341 1.392 . S
C4342 C4343 1.385 . S
C4342 C4344 1.478 . S
C4343 H4337 0.930 . S
C4343 C4339 1.400 . S
C4343 C4342 1.385 . S
C4344 C4342 1.478 . S
C4344 C4346 1.381 . S
C4344 C4350 1.383 . S
C4345 C4341 1.495 . S
C4345 H4351 0.959 . S
C4345 H4352 0.961 . S
C4345 H4353 0.960 . S
C4346 C4344 1.381 . S
C4346 C4347 1.394 . S
C4346 H4354 0.930 . S
C4347 C4346 1.394 . S
C4347 C4348 1.383 . S
C4347 H4355 0.929 . S
C4348 C4347 1.383 . S
C4348 C4349 1.377 . S
C4349 H4333 0.930 . S
C4349 C4348 1.377 . S
C4349 C4350 1.379 . S
C4350 H4334 0.931 . S
C4350 C4344 1.383 . S
C4350 C4349 1.379 . S
H4351 C4345 0.959 . S
H4352 C4345 0.961 . S
H4353 C4345 0.960 . S
H4354 C4346 0.930 . S
H4355 C4347 0.929 . S
H4356 C4364 0.929 . S
H4357 C4366 0.930 . S
H4358 C4368 0.930 . S
H4359 C4371 0.929 . S
H4360 C4374 0.930 . S
H4361 C4376 0.960 . S
H4362 C4376 0.960 . S
H4363 C4376 0.960 . S
C4364 H4356 0.929 . S
C4364 C4365 1.377 . S
C4364 C4366 1.384 . S
C4365 C4364 1.377 . S
C4365 C4371 1.390 . S
C4366 H4357 0.930 . S
C4366 C4364 1.384 . S
C4366 C4367 1.372 . S
C4367 C4366 1.372 . S
C4367 C4368 1.400 . S
C4367 C4372 1.490 . S
C4368 H4358 0.930 . S
C4368 C4367 1.400 . S
C4368 C4371 1.386 . S
H4369 C4385 0.930 . S
H4370 C4386 0.931 . S
C4371 H4359 0.929 . S
C4371 C4365 1.390 . S
C4371 C4368 1.386 . S
C4372 C4367 1.490 . S
C4372 C4374 1.395 . S
C4372 C4375 1.403 . S
H4373 C4379 0.930 . S
C4374 H4360 0.930 . S
C4374 C4372 1.395 . S
C4374 C4377 1.403 . S
C4375 C4372 1.403 . S
C4375 C4376 1.524 . S
C4375 C4379 1.400 . S
C4376 H4361 0.960 . S
C4376 H4362 0.960 . S
C4376 H4363 0.960 . S
C4376 C4375 1.524 . S
C4377 C4374 1.403 . S
C4377 C4378 1.392 . S
C4377 C4381 1.495 . S
C4378 C4377 1.392 . S
C4378 C4379 1.385 . S
C4378 C4380 1.478 . S
C4379 H4373 0.930 . S
C4379 C4375 1.400 . S
C4379 C4378 1.385 . S
C4380 C4378 1.478 . S
C4380 C4382 1.381 . S
C4380 C4386 1.383 . S
C4381 C4377 1.495 . S
C4381 H4387 0.959 . S
C4381 H4388 0.961 . S
C4381 H4389 0.960 . S
C4382 C4380 1.381 . S
C4382 C4383 1.394 . S
C4382 H4390 0.930 . S
C4383 C4382 1.394 . S
C4383 C4384 1.383 . S
C4383 H4391 0.929 . S
C4384 C4383 1.383 . S
C4384 C4385 1.377 . S
C4385 H4369 0.930 . S
C4385 C4384 1.377 . S
C4385 C4386 1.379 . S
C4386 H4370 0.931 . S
C4386 C4380 1.383 . S
C4386 C4385 1.379 . S
H4387 C4381 0.959 . S
H4388 C4381 0.961 . S
H4389 C4381 0.960 . S
H4390 C4382 0.930 . S
H4391 C4383 0.929 . S
H4392 C4400 0.929 . S
H4393 C4402 0.930 . S
H4394 C4404 0.930 . S
H4395 C4407 0.929 . S
H4396 C4410 0.930 . S
H4397 C4412 0.960 . S
H4398 C4412 0.960 . S
H4399 C4412 0.960 . S
C4400 H4392 0.929 . S
C4400 C4401 1.377 . S
C4400 C4402 1.384 . S
C4401 C4400 1.377 . S
C4401 C4407 1.390 . S
C4402 H4393 0.930 . S
C4402 C4400 1.384 . S
C4402 C4403 1.372 . S
C4403 C4402 1.372 . S
C4403 C4404 1.400 . S
C4403 C4408 1.490 . S
C4404 H4394 0.930 . S
C4404 C4403 1.400 . S
C4404 C4407 1.386 . S
H4405 C4421 0.930 . S
H4406 C4422 0.931 . S
C4407 H4395 0.929 . S
C4407 C4401 1.390 . S
C4407 C4404 1.386 . S
C4408 C4403 1.490 . S
C4408 C4410 1.395 . S
C4408 C4411 1.403 . S
H4409 C4415 0.930 . S
C4410 H4396 0.930 . S
C4410 C4408 1.395 . S
C4410 C4413 1.403 . S
C4411 C4408 1.403 . S
C4411 C4412 1.524 . S
C4411 C4415 1.400 . S
C4412 H4397 0.960 . S
C4412 H4398 0.960 . S
C4412 H4399 0.960 . S
C4412 C4411 1.524 . S
C4413 C4410 1.403 . S
C4413 C4414 1.392 . S
C4413 C4417 1.495 . S
C4414 C4413 1.392 . S
C4414 C4415 1.385 . S
C4414 C4416 1.478 . S
C4415 H4409 0.930 . S
C4415 C4411 1.400 . S
C4415 C4414 1.385 . S
C4416 C4414 1.478 . S
C4416 C4418 1.381 . S
C4416 C4422 1.383 . S
C4417 C4413 1.495 . S
C4417 H4423 0.959 . S
C4417 H4424 0.961 . S
C4417 H4425 0.960 . S
C4418 C4416 1.381 . S
C4418 C4419 1.394 . S
C4418 H4426 0.930 . S
C4419 C4418 1.394 . S
C4419 C4420 1.383 . S
C4419 H4427 0.929 . S
C4420 C4419 1.383 . S
C4420 C4421 1.377 . S
C4421 H4405 0.930 . S
C4421 C4420 1.377 . S
C4421 C4422 1.379 . S
C4422 H4406 0.931 . S
C4422 C4416 1.383 . S
C4422 C4421 1.379 . S
H4423 C4417 0.959 . S
H4424 C4417 0.961 . S
H4425 C4417 0.960 . S
H4426 C4418 0.930 . S
H4427 C4419 0.929 . S
H4428 C4436 0.929 . S
H4429 C4438 0.930 . S
H4430 C4440 0.930 . S
H4431 C4443 0.929 . S
H4432 C4446 0.930 . S
H4433 C4448 0.960 . S
H4434 C4448 0.960 . S
H4435 C4448 0.960 . S
C4436 H4428 0.929 . S
C4436 C4437 1.377 . S
C4436 C4438 1.384 . S
C4437 C4436 1.377 . S
C4437 C4443 1.390 . S
C4438 H4429 0.930 . S
C4438 C4436 1.384 . S
C4438 C4439 1.372 . S
C4439 C4438 1.372 . S
C4439 C4440 1.400 . S
C4439 C4444 1.490 . S
C4440 H4430 0.930 . S
C4440 C4439 1.400 . S
C4440 C4443 1.386 . S
H4441 C4457 0.930 . S
H4442 C4458 0.931 . S
C4443 H4431 0.929 . S
C4443 C4437 1.390 . S
C4443 C4440 1.386 . S
C4444 C4439 1.490 . S
C4444 C4446 1.395 . S
C4444 C4447 1.403 . S
H4445 C4451 0.930 . S
C4446 H4432 0.930 . S
C4446 C4444 1.395 . S
C4446 C4449 1.403 . S
C4447 C4444 1.403 . S
C4447 C4448 1.524 . S
C4447 C4451 1.400 . S
C4448 H4433 0.960 . S
C4448 H4434 0.960 . S
C4448 H4435 0.960 . S
C4448 C4447 1.524 . S
C4449 C4446 1.403 . S
C4449 C4450 1.392 . S
C4449 C4453 1.495 . S
C4450 C4449 1.392 . S
C4450 C4451 1.385 . S
C4450 C4452 1.478 . S
C4451 H4445 0.930 . S
C4451 C4447 1.400 . S
C4451 C4450 1.385 . S
C4452 C4450 1.478 . S
C4452 C4454 1.381 . S
C4452 C4458 1.383 . S
C4453 C4449 1.495 . S
C4453 H4459 0.959 . S
C4453 H4460 0.961 . S
C4453 H4461 0.960 . S
C4454 C4452 1.381 . S
C4454 C4455 1.394 . S
C4454 H4462 0.930 . S
C4455 C4454 1.394 . S
C4455 C4456 1.383 . S
C4455 H4463 0.929 . S
C4456 C4455 1.383 . S
C4456 C4457 1.377 . S
C4457 H4441 0.930 . S
C4457 C4456 1.377 . S
C4457 C4458 1.379 . S
C4458 H4442 0.931 . S
C4458 C4452 1.383 . S
C4458 C4457 1.379 . S
H4459 C4453 0.959 . S
H4460 C4453 0.961 . S
H4461 C4453 0.960 . S
H4462 C4454 0.930 . S
H4463 C4455 0.929 . S
H4464 C4472 0.929 . S
H4465 C4474 0.930 . S
H4466 C4476 0.930 . S
H4467 C4479 0.929 . S
H4468 C4482 0.930 . S
H4469 C4484 0.960 . S
H4470 C4484 0.960 . S
H4471 C4484 0.960 . S
C4472 H4464 0.929 . S
C4472 C4473 1.377 . S
C4472 C4474 1.384 . S
C4473 C4472 1.377 . S
C4473 C4479 1.390 . S
C4474 H4465 0.930 . S
C4474 C4472 1.384 . S
C4474 C4475 1.372 . S
C4475 C4474 1.372 . S
C4475 C4476 1.400 . S
C4475 C4480 1.490 . S
C4476 H4466 0.930 . S
C4476 C4475 1.400 . S
C4476 C4479 1.386 . S
H4477 C4493 0.930 . S
H4478 C4494 0.931 . S
C4479 H4467 0.929 . S
C4479 C4473 1.390 . S
C4479 C4476 1.386 . S
C4480 C4475 1.490 . S
C4480 C4482 1.395 . S
C4480 C4483 1.403 . S
H4481 C4487 0.930 . S
C4482 H4468 0.930 . S
C4482 C4480 1.395 . S
C4482 C4485 1.403 . S
C4483 C4480 1.403 . S
C4483 C4484 1.524 . S
C4483 C4487 1.400 . S
C4484 H4469 0.960 . S
C4484 H4470 0.960 . S
C4484 H4471 0.960 . S
C4484 C4483 1.524 . S
C4485 C4482 1.403 . S
C4485 C4486 1.392 . S
C4485 C4489 1.495 . S
C4486 C4485 1.392 . S
C4486 C4487 1.385 . S
C4486 C4488 1.478 . S
C4487 H4481 0.930 . S
C4487 C4483 1.400 . S
C4487 C4486 1.385 . S
C4488 C4486 1.478 . S
C4488 C4490 1.381 . S
C4488 C4494 1.383 . S
C4489 C4485 1.495 . S
C4489 H4495 0.959 . S
C4489 H4496 0.961 . S
C4489 H4497 0.960 . S
C4490 C4488 1.381 . S
C4490 C4491 1.394 . S
C4490 H4498 0.930 . S
C4491 C4490 1.394 . S
C4491 C4492 1.383 . S
C4491 H4499 0.929 . S
C4492 C4491 1.383 . S
C4492 C4493 1.377 . S
C4493 H4477 0.930 . S
C4493 C4492 1.377 . S
C4493 C4494 1.379 . S
C4494 H4478 0.931 . S
C4494 C4488 1.383 . S
C4494 C4493 1.379 . S
H4495 C4489 0.959 . S
H4496 C4489 0.961 . S
H4497 C4489 0.960 . S
H4498 C4490 0.930 . S
H4499 C4491 0.929 . S
H4500 C4508 0.929 . S
H4501 C4510 0.930 . S
H4502 C4512 0.930 . S
H4503 C4515 0.929 . S
H4504 C4518 0.930 . S
H4505 C4520 0.960 . S
H4506 C4520 0.960 . S
H4507 C4520 0.960 . S
C4508 H4500 0.929 . S
C4508 C4509 1.377 . S
C4508 C4510 1.384 . S
C4509 C4508 1.377 . S
C4509 C4515 1.390 . S
C4510 H4501 0.930 . S
C4510 C4508 1.384 . S
C4510 C4511 1.372 . S
C4511 C4510 1.372 . S
C4511 C4512 1.400 . S
C4511 C4516 1.490 . S
C4512 H4502 0.930 . S
C4512 C4511 1.400 . S
C4512 C4515 1.386 . S
H4513 C4529 0.930 . S
H4514 C4530 0.931 . S
C4515 H4503 0.929 . S
C4515 C4509 1.390 . S
C4515 C4512 1.386 . S
C4516 C4511 1.490 . S
C4516 C4518 1.395 . S
C4516 C4519 1.403 . S
H4517 C4523 0.930 . S
C4518 H4504 0.930 . S
C4518 C4516 1.395 . S
C4518 C4521 1.403 . S
C4519 C4516 1.403 . S
C4519 C4520 1.524 . S
C4519 C4523 1.400 . S
C4520 H4505 0.960 . S
C4520 H4506 0.960 . S
C4520 H4507 0.960 . S
C4520 C4519 1.524 . S
C4521 C4518 1.403 . S
C4521 C4522 1.392 . S
C4521 C4525 1.495 . S
C4522 C4521 1.392 . S
C4522 C4523 1.385 . S
C4522 C4524 1.478 . S
C4523 H4517 0.930 . S
C4523 C4519 1.400 . S
C4523 C4522 1.385 . S
C4524 C4522 1.478 . S
C4524 C4526 1.381 . S
C4524 C4530 1.383 . S
C4525 C4521 1.495 . S
C4525 H4531 0.959 . S
C4525 H4532 0.961 . S
C4525 H4533 0.960 . S
C4526 C4524 1.381 . S
C4526 C4527 1.394 . S
C4526 H4534 0.930 . S
C4527 C4526 1.394 . S
C4527 C4528 1.383 . S
C4527 H4535 0.929 . S
C4528 C4527 1.383 . S
C4528 C4529 1.377 . S
C4529 H4513 0.930 . S
C4529 C4528 1.377 . S
C4529 C4530 1.379 . S
C4530 H4514 0.931 . S
C4530 C4524 1.383 . S
C4530 C4529 1.379 . S
H4531 C4525 0.959 . S
H4532 C4525 0.961 . S
H4533 C4525 0.960 . S
H4534 C4526 0.930 . S
H4535 C4527 0.929 . S
H4536 C4544 0.929 . S
H4537 C4546 0.930 . S
H4538 C4548 0.930 . S
H4539 C4551 0.929 . S
H4540 C4554 0.930 . S
H4541 C4556 0.960 . S
H4542 C4556 0.960 . S
H4543 C4556 0.960 . S
C4544 H4536 0.929 . S
C4544 C4545 1.377 . S
C4544 C4546 1.384 . S
C4545 C4544 1.377 . S
C4545 C4551 1.390 . S
C4546 H4537 0.930 . S
C4546 C4544 1.384 . S
C4546 C4547 1.372 . S
C4547 C4546 1.372 . S
C4547 C4548 1.400 . S
C4547 C4552 1.490 . S
C4548 H4538 0.930 . S
C4548 C4547 1.400 . S
C4548 C4551 1.386 . S
H4549 C4565 0.930 . S
H4550 C4566 0.931 . S
C4551 H4539 0.929 . S
C4551 C4545 1.390 . S
C4551 C4548 1.386 . S
C4552 C4547 1.490 . S
C4552 C4554 1.395 . S
C4552 C4555 1.403 . S
H4553 C4559 0.930 . S
C4554 H4540 0.930 . S
C4554 C4552 1.395 . S
C4554 C4557 1.403 . S
C4555 C4552 1.403 . S
C4555 C4556 1.524 . S
C4555 C4559 1.400 . S
C4556 H4541 0.960 . S
C4556 H4542 0.960 . S
C4556 H4543 0.960 . S
C4556 C4555 1.524 . S
C4557 C4554 1.403 . S
C4557 C4558 1.392 . S
C4557 C4561 1.495 . S
C4558 C4557 1.392 . S
C4558 C4559 1.385 . S
C4558 C4560 1.478 . S
C4559 H4553 0.930 . S
C4559 C4555 1.400 . S
C4559 C4558 1.385 . S
C4560 C4558 1.478 . S
C4560 C4562 1.381 . S
C4560 C4566 1.383 . S
C4561 C4557 1.495 . S
C4561 H4567 0.959 . S
C4561 H4568 0.961 . S
C4561 H4569 0.960 . S
C4562 C4560 1.381 . S
C4562 C4563 1.394 . S
C4562 H4570 0.930 . S
C4563 C4562 1.394 . S
C4563 C4564 1.383 . S
C4563 H4571 0.929 . S
C4564 C4563 1.383 . S
C4564 C4565 1.377 . S
C4565 H4549 0.930 . S
C4565 C4564 1.377 . S
C4565 C4566 1.379 . S
C4566 H4550 0.931 . S
C4566 C4560 1.383 . S
C4566 C4565 1.379 . S
H4567 C4561 0.959 . S
H4568 C4561 0.961 . S
H4569 C4561 0.960 . S
H4570 C4562 0.930 . S
H4571 C4563 0.929 . S
H4572 C4580 0.929 . S
H4573 C4582 0.930 . S
H4574 C4584 0.930 . S
H4575 C4587 0.929 . S
H4576 C4590 0.930 . S
H4577 C4592 0.960 . S
H4578 C4592 0.960 . S
H4579 C4592 0.960 . S
C4580 H4572 0.929 . S
C4580 C4581 1.377 . S
C4580 C4582 1.384 . S
C4581 C4580 1.377 . S
C4581 C4587 1.390 . S
C4582 H4573 0.930 . S
C4582 C4580 1.384 . S
C4582 C4583 1.372 . S
C4583 C4582 1.372 . S
C4583 C4584 1.400 . S
C4583 C4588 1.490 . S
C4584 H4574 0.930 . S
C4584 C4583 1.400 . S
C4584 C4587 1.386 . S
H4585 C4601 0.930 . S
H4586 C4602 0.931 . S
C4587 H4575 0.929 . S
C4587 C4581 1.390 . S
C4587 C4584 1.386 . S
C4588 C4583 1.490 . S
C4588 C4590 1.395 . S
C4588 C4591 1.403 . S
H4589 C4595 0.930 . S
C4590 H4576 0.930 . S
C4590 C4588 1.395 . S
C4590 C4593 1.403 . S
C4591 C4588 1.403 . S
C4591 C4592 1.524 . S
C4591 C4595 1.400 . S
C4592 H4577 0.960 . S
C4592 H4578 0.960 . S
C4592 H4579 0.960 . S
C4592 C4591 1.524 . S
C4593 C4590 1.403 . S
C4593 C4594 1.392 . S
C4593 C4597 1.495 . S
C4594 C4593 1.392 . S
C4594 C4595 1.385 . S
C4594 C4596 1.478 . S
C4595 H4589 0.930 . S
C4595 C4591 1.400 . S
C4595 C4594 1.385 . S
C4596 C4594 1.478 . S
C4596 C4598 1.381 . S
C4596 C4602 1.383 . S
C4597 C4593 1.495 . S
C4597 H4603 0.959 . S
C4597 H4604 0.961 . S
C4597 H4605 0.960 . S
C4598 C4596 1.381 . S
C4598 C4599 1.394 . S
C4598 H4606 0.930 . S
C4599 C4598 1.394 . S
C4599 C4600 1.383 . S
C4599 H4607 0.929 . S
C4600 C4599 1.383 . S
C4600 C4601 1.377 . S
C4601 H4585 0.930 . S
C4601 C4600 1.377 . S
C4601 C4602 1.379 . S
C4602 H4586 0.931 . S
C4602 C4596 1.383 . S
C4602 C4601 1.379 . S
H4603 C4597 0.959 . S
H4604 C4597 0.961 . S
H4605 C4597 0.960 . S
H4606 C4598 0.930 . S
H4607 C4599 0.929 . S
C2025 C56 2.079 . S
C2044 C644 2.077 . S
C2061 C140 2.119 . S
C2080 C392 2.107 . S
C2097 C231 2.117 . S
C2116 C483 2.129 . S
C2133 C308 2.158 . S
C2152 C567 2.097 . S
C2169 C63 2.060 . S
C2188 C728 2.115 . S
C2205 C812 2.149 . S
C2224 C147 2.121 . S
C2241 C896 2.138 . S
C2260 C224 2.126 . S
C2277 C315 2.082 . S
C2296 C980 2.106 . S
C2313 C399 2.078 . S
C2332 C819 2.052 . S
C2349 C903 2.086 . S
C2368 C476 2.123 . S
C2385 C560 2.157 . S
C2404 C987 2.110 . S
C2421 C651 2.075 . S
C2440 C735 2.092 . S
C2457 C1071 2.105 . S
C2476 C1820 2.143 . S
C2493 C1148 2.138 . S
C2512 C1904 2.144 . S
C2529 C1239 2.080 . S
C2548 C1988 2.108 . S
C2565 C1995 2.108 . S
C2584 C1316 2.162 . S
C2601 C1827 2.070 . S
C2620 C1407 2.086 . S
C2637 C1484 2.077 . S
C2656 C1652 2.060 . S
C2673 C1064 2.118 . S
C2692 C1400 2.123 . S
C2709 C1575 2.118 . S
C2728 C1155 2.133 . S
C2745 C1323 2.115 . S
C2764 C1232 2.142 . S
C2781 C1736 2.104 . S
C2800 C1491 2.077 . S
C2817 C1568 2.127 . S
C2836 C1911 2.071 . S
C2853 C1659 2.079 . S
C2872 C1743 2.067 . S
C2889 C403 3.317 . S
C2908 C67 3.299 . S
C2925 C494 3.456 . S
C2944 C151 3.354 . S
C2961 C242 3.465 . S
C2980 C578 3.456 . S
C2997 C319 3.327 . S
C3016 C655 3.336 . S
C3033 C998 3.486 . S
C3052 C739 3.365 . S
C3069 C746 3.479 . S
C3088 C823 3.363 . S
C3105 C830 3.447 . S
C3124 C907 3.343 . S
C3141 C991 3.282 . S
C3160 C914 3.377 . S
C3177 C1579 3.325 . S
C3196 C662 3.421 . S
C3213 C326 3.454 . S
C3232 C1082 3.457 . S
C3249 C74 3.439 . S
C3268 C1159 3.315 . S
C3285 C158 3.450 . S
C3304 C1250 3.460 . S
C3321 C1670 3.436 . S
C3340 C487 3.332 . S
C3357 C410 3.402 . S
C3376 C1327 3.283 . S
C3393 C571 3.294 . S
C3412 C1418 3.409 . S
C3429 C1411 3.320 . S
C3448 C1495 3.317 . S
C3465 C1586 3.452 . S
C3484 C1075 3.331 . S
C3501 C1166 3.468 . S
C3520 C1334 3.453 . S
C3537 C1663 3.321 . S
C3556 C1243 3.311 . S
C3573 C1747 3.376 . S
C3592 C2006 3.478 . S
C3609 C1754 3.483 . S
C3628 C1831 3.384 . S
C3645 C1915 3.335 . S
C3664 C1838 3.445 . S
C3681 C1999 3.284 . S
C3700 C1922 3.387 . S
C3717 C1502 3.442 . S
C3736 C235 3.337 . S
C3753 C58 1.108 . S
C3772 C814 1.177 . S
C3789 C142 1.103 . S
C3808 C898 1.158 . S
C3825 C237 1.237 . S
C3844 C982 1.110 . S
C3861 C730 1.113 . S
C3880 C310 1.157 . S
C3897 C394 1.124 . S
C3916 C741 1.253 . S
C3933 C825 1.215 . S
C3952 C489 1.261 . S
C3969 C909 1.233 . S
C3988 C573 1.257 . S
C4005 C646 1.121 . S
C4024 C993 1.233 . S
C4041 C657 1.227 . S
C4060 C1150 1.089 . S
C4077 C562 1.105 . S
C4096 C1077 1.259 . S
C4113 C405 1.256 . S
C4132 C1245 1.305 . S
C4149 C1570 1.121 . S
C4168 C69 1.235 . S
C4185 C1497 1.251 . S
C4204 C478 1.132 . S
C4221 C153 1.249 . S
C4240 C1318 1.125 . S
C4257 C321 1.259 . S
C4276 C1413 1.302 . S
C4293 C1822 1.133 . S
C4312 C1486 1.102 . S
C4329 C1906 1.105 . S
C4348 C1066 1.152 . S
C4365 C1990 1.136 . S
C4384 C1161 1.248 . S
C4401 C1738 1.111 . S
C4420 C1234 1.156 . S
C4437 C1749 1.212 . S
C4456 C1402 1.143 . S
C4473 C1581 1.210 . S
C4492 C1833 1.190 . S
C4509 C1917 1.247 . S
C4528 C1329 1.273 . S
C4545 C1654 1.136 . S
C4564 C2001 1.245 . S
C4581 C226 1.114 . S
C4600 C1665 1.255 . S
