# Generated by pormake.
# Topology gme, (4)-cn, num edge types: 1
# Building blocks:
#     Node 0, Type 0, BuildingBlock: GALJAG_clean_sbu_0, # of connection points: 4
#     Node 1, Type 0, BuildingBlock: GALJAG_clean_sbu_0, # of connection points: 4
#     Node 2, Type 0, BuildingBlock: GALJAG_clean_sbu_0, # of connection points: 4
#     Node 3, Type 0, BuildingBlock: GALJAG_clean_sbu_0, # of connection points: 4
#     Node 4, Type 0, BuildingBlock: GALJAG_clean_sbu_0, # of connection points: 4
#     Node 5, Type 0, BuildingBlock: GALJAG_clean_sbu_0, # of connection points: 4
#     Node 6, Type 0, BuildingBlock: GALJAG_clean_sbu_0, # of connection points: 4
#     Node 7, Type 0, BuildingBlock: GALJAG_clean_sbu_0, # of connection points: 4
#     Node 8, Type 0, BuildingBlock: GALJAG_clean_sbu_0, # of connection points: 4
#     Node 9, Type 0, BuildingBlock: GALJAG_clean_sbu_0, # of connection points: 4
#     Node 10, Type 0, BuildingBlock: GALJAG_clean_sbu_0, # of connection points: 4
#     Node 11, Type 0, BuildingBlock: GALJAG_clean_sbu_0, # of connection points: 4
#     Node 12, Type 0, BuildingBlock: GALJAG_clean_sbu_0, # of connection points: 4
#     Node 13, Type 0, BuildingBlock: GALJAG_clean_sbu_0, # of connection points: 4
#     Node 14, Type 0, BuildingBlock: GALJAG_clean_sbu_0, # of connection points: 4
#     Node 15, Type 0, BuildingBlock: GALJAG_clean_sbu_0, # of connection points: 4
#     Node 16, Type 0, BuildingBlock: GALJAG_clean_sbu_0, # of connection points: 4
#     Node 17, Type 0, BuildingBlock: GALJAG_clean_sbu_0, # of connection points: 4
#     Node 18, Type 0, BuildingBlock: GALJAG_clean_sbu_0, # of connection points: 4
#     Node 19, Type 0, BuildingBlock: GALJAG_clean_sbu_0, # of connection points: 4
#     Node 20, Type 0, BuildingBlock: GALJAG_clean_sbu_0, # of connection points: 4
#     Node 21, Type 0, BuildingBlock: GALJAG_clean_sbu_0, # of connection points: 4
#     Node 22, Type 0, BuildingBlock: GALJAG_clean_sbu_0, # of connection points: 4
#     Node 23, Type 0, BuildingBlock: GALJAG_clean_sbu_0, # of connection points: 4
#     Edge 24, Type (0, 0), BuildingBlock: TEMPAE_clean_linker_10, # of connection points: 2
#     Edge 25, Type (0, 0), BuildingBlock: TEMPAE_clean_linker_10, # of connection points: 2
#     Edge 26, Type (0, 0), BuildingBlock: TEMPAE_clean_linker_10, # of connection points: 2
#     Edge 27, Type (0, 0), BuildingBlock: TEMPAE_clean_linker_10, # of connection points: 2
#     Edge 28, Type (0, 0), BuildingBlock: TEMPAE_clean_linker_10, # of connection points: 2
#     Edge 29, Type (0, 0), BuildingBlock: TEMPAE_clean_linker_10, # of connection points: 2
#     Edge 30, Type (0, 0), BuildingBlock: TEMPAE_clean_linker_10, # of connection points: 2
#     Edge 31, Type (0, 0), BuildingBlock: TEMPAE_clean_linker_10, # of connection points: 2
#     Edge 32, Type (0, 0), BuildingBlock: TEMPAE_clean_linker_10, # of connection points: 2
#     Edge 33, Type (0, 0), BuildingBlock: TEMPAE_clean_linker_10, # of connection points: 2
#     Edge 34, Type (0, 0), BuildingBlock: TEMPAE_clean_linker_10, # of connection points: 2
#     Edge 35, Type (0, 0), BuildingBlock: TEMPAE_clean_linker_10, # of connection points: 2
#     Edge 36, Type (0, 0), BuildingBlock: TEMPAE_clean_linker_10, # of connection points: 2
#     Edge 37, Type (0, 0), BuildingBlock: TEMPAE_clean_linker_10, # of connection points: 2
#     Edge 38, Type (0, 0), BuildingBlock: TEMPAE_clean_linker_10, # of connection points: 2
#     Edge 39, Type (0, 0), BuildingBlock: TEMPAE_clean_linker_10, # of connection points: 2
#     Edge 40, Type (0, 0), BuildingBlock: TEMPAE_clean_linker_10, # of connection points: 2
#     Edge 41, Type (0, 0), BuildingBlock: TEMPAE_clean_linker_10, # of connection points: 2
#     Edge 42, Type (0, 0), BuildingBlock: TEMPAE_clean_linker_10, # of connection points: 2
#     Edge 43, Type (0, 0), BuildingBlock: TEMPAE_clean_linker_10, # of connection points: 2
#     Edge 44, Type (0, 0), BuildingBlock: TEMPAE_clean_linker_10, # of connection points: 2
#     Edge 45, Type (0, 0), BuildingBlock: TEMPAE_clean_linker_10, # of connection points: 2
#     Edge 46, Type (0, 0), BuildingBlock: TEMPAE_clean_linker_10, # of connection points: 2
#     Edge 47, Type (0, 0), BuildingBlock: TEMPAE_clean_linker_10, # of connection points: 2
#     Edge 48, Type (0, 0), BuildingBlock: TEMPAE_clean_linker_10, # of connection points: 2
#     Edge 49, Type (0, 0), BuildingBlock: TEMPAE_clean_linker_10, # of connection points: 2
#     Edge 50, Type (0, 0), BuildingBlock: TEMPAE_clean_linker_10, # of connection points: 2
#     Edge 51, Type (0, 0), BuildingBlock: TEMPAE_clean_linker_10, # of connection points: 2
#     Edge 52, Type (0, 0), BuildingBlock: TEMPAE_clean_linker_10, # of connection points: 2
#     Edge 53, Type (0, 0), BuildingBlock: TEMPAE_clean_linker_10, # of connection points: 2
#     Edge 54, Type (0, 0), BuildingBlock: TEMPAE_clean_linker_10, # of connection points: 2
#     Edge 55, Type (0, 0), BuildingBlock: TEMPAE_clean_linker_10, # of connection points: 2
#     Edge 56, Type (0, 0), BuildingBlock: TEMPAE_clean_linker_10, # of connection points: 2
#     Edge 57, Type (0, 0), BuildingBlock: TEMPAE_clean_linker_10, # of connection points: 2
#     Edge 58, Type (0, 0), BuildingBlock: TEMPAE_clean_linker_10, # of connection points: 2
#     Edge 59, Type (0, 0), BuildingBlock: TEMPAE_clean_linker_10, # of connection points: 2
#     Edge 60, Type (0, 0), BuildingBlock: TEMPAE_clean_linker_10, # of connection points: 2
#     Edge 61, Type (0, 0), BuildingBlock: TEMPAE_clean_linker_10, # of connection points: 2
#     Edge 62, Type (0, 0), BuildingBlock: TEMPAE_clean_linker_10, # of connection points: 2
#     Edge 63, Type (0, 0), BuildingBlock: TEMPAE_clean_linker_10, # of connection points: 2
#     Edge 64, Type (0, 0), BuildingBlock: TEMPAE_clean_linker_10, # of connection points: 2
#     Edge 65, Type (0, 0), BuildingBlock: TEMPAE_clean_linker_10, # of connection points: 2
#     Edge 66, Type (0, 0), BuildingBlock: TEMPAE_clean_linker_10, # of connection points: 2
#     Edge 67, Type (0, 0), BuildingBlock: TEMPAE_clean_linker_10, # of connection points: 2
#     Edge 68, Type (0, 0), BuildingBlock: TEMPAE_clean_linker_10, # of connection points: 2
#     Edge 69, Type (0, 0), BuildingBlock: TEMPAE_clean_linker_10, # of connection points: 2
#     Edge 70, Type (0, 0), BuildingBlock: TEMPAE_clean_linker_10, # of connection points: 2
#     Edge 71, Type (0, 0), BuildingBlock: TEMPAE_clean_linker_10, # of connection points: 2
# Relax obj value: 0.080
# Max RMSD: 0.062
# Mean RMSD: 0.062
data_MOF--net-gme--node1-GALJAG_clean_sbu_0--edge1-TEMPAE_clean_linker_10
_symmetry_space_group_name_H-M    P1
_symmetry_Int_Tables_number       1
_symmetry_cell_setting            triclinic
loop_
_symmetry_equiv_pos_as_xyz
'x, y, z'
_cell_length_a     58.521812
_cell_length_b     58.512972
_cell_length_c     56.256268
_cell_angle_alpha  90.004969
_cell_angle_beta   89.966608
_cell_angle_gamma 119.99214
loop_
_atom_site_label
_atom_site_type_symbol
_atom_site_fract_x
_atom_site_fract_y
_atom_site_fract_z
_atom_type_partial_charge
In0 In 0.40411 0.06807 0.12402 0.0
O1 O 0.37322 0.03958 0.15096 0.0
O2 O 0.40815 0.07288 0.16384 0.0
C3 C 0.37598 0.03762 0.08662 0.0
C4 C 0.40794 0.11575 0.11929 0.0
C5 C 0.45202 0.07177 0.12401 0.0
O6 O 0.39355 0.03503 0.09708 0.0
O7 O 0.37152 0.05464 0.09577 0.0
O8 O 0.4477 0.08822 0.11334 0.0
O9 O 0.43224 0.05357 0.13449 0.0
C10 C 0.38657 0.0525 0.16882 0.0
O11 O 0.42154 0.10888 0.10699 0.0
O12 O 0.39245 0.09859 0.13384 0.0
In13 In 0.32586 0.39846 0.60929 0.0
O14 O 0.29746 0.41255 0.59905 0.0
O15 O 0.28136 0.37346 0.61275 0.0
C16 C 0.37053 0.44598 0.6076 0.0
C17 C 0.32617 0.38517 0.65524 0.0
C18 C 0.32593 0.37342 0.56908 0.0
O19 O 0.34831 0.4435 0.61218 0.0
O20 O 0.37025 0.42457 0.60411 0.0
O21 O 0.32678 0.36456 0.58939 0.0
O22 O 0.32478 0.39435 0.5694 0.0
C23 C 0.27712 0.39129 0.60506 0.0
O24 O 0.33638 0.37806 0.63911 0.0
O25 O 0.31625 0.39867 0.64808 0.0
In26 In 0.92829 0.333 0.12585 0.0
O27 O 0.95682 0.3326 0.15396 0.0
O28 O 0.92473 0.33735 0.16517 0.0
C29 C 0.95121 0.33205 0.08461 0.0
C30 C 0.88301 0.28629 0.12395 0.0
C31 C 0.93165 0.38053 0.12428 0.0
O32 O 0.96066 0.33086 0.1045 0.0
O33 O 0.93041 0.33339 0.0858 0.0
O34 O 0.91046 0.35955 0.12898 0.0
O35 O 0.95125 0.37759 0.12023 0.0
C36 C 0.94461 0.33571 0.1711 0.0
O37 O 0.88471 0.30754 0.11692 0.0
O38 O 0.90423 0.28851 0.13175 0.0
In39 In 0.59409 0.93065 0.62208 0.0
O40 O 0.5779 0.88963 0.60568 0.0
O41 O 0.60696 0.90131 0.63275 0.0
C42 C 0.54592 0.92601 0.61911 0.0
C43 C 0.60823 0.94416 0.66783 0.0
C44 C 0.62336 0.96363 0.58637 0.0
O45 O 0.55162 0.9107 0.6081 0.0
O46 O 0.56444 0.94348 0.63135 0.0
O47 O 0.60728 0.96698 0.59861 0.0
O48 O 0.62586 0.94443 0.59293 0.0
C49 C 0.59184 0.88359 0.61844 0.0
O50 O 0.62397 0.95639 0.65094 0.0
O51 O 0.58604 0.92555 0.66142 0.0
In52 In 0.67392 0.61201 0.11579 0.0
O53 O 0.69125 0.6408 0.14688 0.0
O54 O 0.64976 0.61549 0.14605 0.0
C55 C 0.68056 0.63985 0.07537 0.0
C56 C 0.71629 0.60549 0.11899 0.0
C57 C 0.6296 0.56437 0.11381 0.0
O58 O 0.67163 0.64431 0.09413 0.0
O59 O 0.68659 0.62214 0.07739 0.0
O60 O 0.64816 0.56938 0.1281 0.0
O61 O 0.63338 0.58341 0.10063 0.0
C62 C 0.66945 0.63291 0.15725 0.0
O63 O 0.69585 0.58985 0.10753 0.0
O64 O 0.7152 0.62414 0.12913 0.0
In65 In 0.05125 0.65852 0.62661 0.0
O66 O 0.02012 0.64024 0.65594 0.0
O67 O 0.0458 0.68159 0.65666 0.0
C68 C 0.01915 0.65052 0.58915 0.0
C69 C 0.1 0.70118 0.62282 0.0
C70 C 0.0627 0.61923 0.62806 0.0
O71 O 0.03007 0.67193 0.60057 0.0
O72 O 0.02331 0.63295 0.59746 0.0
O73 O 0.06688 0.63343 0.60988 0.0
O74 O 0.05325 0.62519 0.64557 0.0
C75 C 0.02767 0.66161 0.66694 0.0
O76 O 0.09312 0.68533 0.64005 0.0
O77 O 0.08242 0.6953 0.60728 0.0
In78 In 0.92986 0.60232 0.37928 0.0
O79 O 0.943 0.63426 0.35045 0.0
O80 O 0.95896 0.60897 0.34922 0.0
C81 C 0.94887 0.62138 0.42293 0.0
C82 C 0.8836 0.60173 0.37732 0.0
C83 C 0.92306 0.55313 0.37983 0.0
O84 O 0.96333 0.62948 0.40461 0.0
O85 O 0.92526 0.604 0.41904 0.0
O86 O 0.90867 0.55905 0.36761 0.0
O87 O 0.9406 0.57191 0.39183 0.0
C88 C 0.9573 0.6274 0.3394 0.0
O89 O 0.88621 0.58288 0.36962 0.0
O90 O 0.90433 0.62083 0.38576 0.0
In91 In 0.33266 0.93565 0.88346 0.0
O92 O 0.30812 0.89321 0.89641 0.0
O93 O 0.29157 0.90639 0.86981 0.0
C94 C 0.37398 0.92723 0.88551 0.0
C95 C 0.33635 0.95907 0.84094 0.0
C96 C 0.33116 0.96198 0.92263 0.0
O97 O 0.35412 0.91375 0.87252 0.0
O98 O 0.37284 0.94472 0.89772 0.0
O99 O 0.34663 0.97351 0.9055 0.0
O100 O 0.31594 0.93768 0.91948 0.0
C101 C 0.28874 0.88773 0.88304 0.0
O102 O 0.3168 0.95191 0.85459 0.0
O103 O 0.3544 0.95574 0.84938 0.0
In104 In 0.40597 0.32187 0.37777 0.0
O105 O 0.4257 0.29719 0.38293 0.0
O106 O 0.3838 0.27753 0.38456 0.0
C107 C 0.45338 0.36633 0.37552 0.0
C108 C 0.38938 0.31824 0.33235 0.0
C109 C 0.38278 0.32858 0.41678 0.0
O110 O 0.44982 0.34591 0.38635 0.0
O111 O 0.43309 0.36421 0.36555 0.0
O112 O 0.36947 0.3158 0.39892 0.0
O113 O 0.40723 0.33795 0.41465 0.0
C114 C 0.40438 0.27571 0.38565 0.0
O115 O 0.38466 0.33085 0.34798 0.0
O116 O 0.40192 0.30734 0.3398 0.0
In117 In 0.06526 0.39411 0.88498 0.0
O118 O 0.10647 0.41007 0.86916 0.0
O119 O 0.09657 0.38553 0.89963 0.0
C120 C 0.06884 0.44199 0.88411 0.0
C121 C 0.03793 0.36713 0.84587 0.0
C122 C 0.04418 0.37375 0.92775 0.0
O123 O 0.08617 0.43793 0.87495 0.0
O124 O 0.04987 0.42202 0.89364 0.0
O125 O 0.03532 0.36056 0.90879 0.0
O126 O 0.06358 0.39667 0.92493 0.0
C127 C 0.11369 0.39895 0.88417 0.0
O128 O 0.05409 0.36233 0.85634 0.0
O129 O 0.03443 0.38433 0.85596 0.0
In130 In 0.66585 0.07401 0.38626 0.0
O131 O 0.691 0.11704 0.39678 0.0
O132 O 0.7099 0.09898 0.37872 0.0
C133 C 0.62051 0.07541 0.39038 0.0
C134 C 0.66488 0.0578 0.34101 0.0
C135 C 0.66684 0.0481 0.42576 0.0
O136 O 0.64233 0.09555 0.38555 0.0
O137 O 0.62161 0.05464 0.39345 0.0
O138 O 0.65386 0.03614 0.40748 0.0
O139 O 0.67964 0.07285 0.42385 0.0
C140 C 0.71208 0.11959 0.38816 0.0
O141 O 0.67075 0.04789 0.35827 0.0
O142 O 0.65946 0.07534 0.34676 0.0
In143 In 0.60598 0.67389 0.87529 0.0
O144 O 0.62517 0.66096 0.84633 0.0
O145 O 0.62002 0.69367 0.83943 0.0
C146 C 0.62951 0.67341 0.91631 0.0
C147 C 0.60071 0.71622 0.88382 0.0
C148 C 0.5607 0.62742 0.87111 0.0
O149 O 0.64256 0.6821 0.89728 0.0
O150 O 0.60521 0.66524 0.91438 0.0
O151 O 0.56316 0.64868 0.86304 0.0
O152 O 0.58115 0.62961 0.88075 0.0
C153 C 0.62767 0.67844 0.83173 0.0
O154 O 0.58121 0.69303 0.88373 0.0
O155 O 0.62273 0.71791 0.87988 0.0
In156 In 0.59203 0.92855 0.884 0.0
O157 O 0.60935 0.96079 0.85533 0.0
O158 O 0.61517 0.92804 0.8516 0.0
C159 C 0.61399 0.95694 0.92389 0.0
C160 C 0.58775 0.88078 0.88845 0.0
C161 C 0.5432 0.92224 0.87994 0.0
O162 O 0.62788 0.9561 0.90711 0.0
O163 O 0.58954 0.94409 0.92017 0.0
O164 O 0.5477 0.90638 0.89138 0.0
O165 O 0.56321 0.94096 0.87018 0.0
C166 C 0.61839 0.94923 0.84278 0.0
O167 O 0.57587 0.88594 0.87246 0.0
O168 O 0.60163 0.89967 0.90232 0.0
In169 In 0.66124 0.59262 0.37525 0.0
O170 O 0.66419 0.62375 0.34823 0.0
O171 O 0.65307 0.58534 0.33592 0.0
C172 C 0.6586 0.61867 0.41389 0.0
C173 C 0.709 0.59658 0.37741 0.0
C174 C 0.61992 0.543 0.37939 0.0
O175 O 0.64247 0.61208 0.39687 0.0
O176 O 0.67655 0.61301 0.41101 0.0
O177 O 0.64188 0.54789 0.37099 0.0
O178 O 0.61893 0.56305 0.38605 0.0
C179 C 0.65801 0.60827 0.33071 0.0
O180 O 0.68925 0.57908 0.38859 0.0
O181 O 0.70475 0.61237 0.36549 0.0
In182 In 0.07641 0.66405 0.88216 0.0
O183 O 0.12085 0.69009 0.8774 0.0
O184 O 0.09954 0.70836 0.88959 0.0
C185 C 0.07528 0.61738 0.88197 0.0
C186 C 0.05809 0.66542 0.83844 0.0
C187 C 0.05207 0.66063 0.92389 0.0
O188 O 0.09444 0.63824 0.89017 0.0
O189 O 0.05658 0.61999 0.87394 0.0
O190 O 0.04554 0.66733 0.90485 0.0
O191 O 0.0706 0.65569 0.92171 0.0
C192 C 0.12158 0.71107 0.88383 0.0
O193 O 0.0445 0.6621 0.85694 0.0
O194 O 0.08057 0.66819 0.84222 0.0
In195 In 0.39253 0.05241 0.38379 0.0
O196 O 0.40529 0.0933 0.36906 0.0
O197 O 0.38914 0.08448 0.4039 0.0
C198 C 0.44356 0.06455 0.38418 0.0
C199 C 0.36714 0.03022 0.34257 0.0
C200 C 0.36659 0.01885 0.42003 0.0
O201 O 0.43332 0.07065 0.40096 0.0
O202 O 0.4282 0.05277 0.36708 0.0
O203 O 0.35705 0.03091 0.409 0.0
O204 O 0.38832 0.02275 0.412 0.0
C205 C 0.3986 0.10112 0.38727 0.0
O206 O 0.38162 0.02313 0.35306 0.0
O207 O 0.36414 0.04726 0.35367 0.0
In208 In 0.33897 0.41354 0.87663 0.0
O209 O 0.31277 0.43184 0.88138 0.0
O210 O 0.29391 0.39056 0.8754 0.0
C211 C 0.38619 0.4581 0.87629 0.0
C212 C 0.33928 0.39975 0.83093 0.0
C213 C 0.34347 0.39201 0.91773 0.0
O214 O 0.36515 0.4578 0.88196 0.0
O215 O 0.38346 0.43587 0.87106 0.0
O216 O 0.34075 0.38075 0.89792 0.0
O217 O 0.34356 0.41353 0.91662 0.0
C218 C 0.29135 0.41045 0.87891 0.0
O219 O 0.33475 0.38371 0.84779 0.0
O220 O 0.34321 0.42211 0.83725 0.0
In221 In 0.92891 0.33882 0.38512 0.0
O222 O 0.93063 0.31583 0.3532 0.0
O223 O 0.96238 0.35487 0.35762 0.0
C224 C 0.95567 0.34702 0.4264 0.0
C225 C 0.88236 0.29349 0.38795 0.0
C226 C 0.92128 0.38036 0.37895 0.0
O227 O 0.9583 0.33456 0.40931 0.0
O228 O 0.94001 0.35542 0.42243 0.0
O229 O 0.90579 0.36034 0.39101 0.0
O230 O 0.94033 0.37921 0.36973 0.0
C231 C 0.95194 0.33428 0.34501 0.0
O232 O 0.88633 0.31182 0.37373 0.0
O233 O 0.90184 0.29814 0.4009 0.0
In234 In 0.06797 0.40394 0.62839 0.0
O235 O 0.112 0.4189 0.62969 0.0
O236 O 0.08667 0.37872 0.62016 0.0
C237 C 0.0687 0.45035 0.62869 0.0
C238 C 0.0522 0.38571 0.67303 0.0
C239 C 0.04476 0.38638 0.58588 0.0
O240 O 0.0894 0.44883 0.62701 0.0
O241 O 0.0476 0.42844 0.63029 0.0
O242 O 0.03364 0.37479 0.60504 0.0
O243 O 0.06728 0.40649 0.58839 0.0
C244 C 0.10995 0.39719 0.62368 0.0
O245 O 0.03841 0.37349 0.65515 0.0
O246 O 0.07334 0.40653 0.66815 0.0
In247 In 0.66732 0.06623 0.12536 0.0
O248 O 0.64683 0.0374 0.15618 0.0
O249 O 0.68847 0.05803 0.15558 0.0
C250 C 0.66681 0.04449 0.083 0.0
C251 C 0.71197 0.11341 0.12444 0.0
C252 C 0.62361 0.07079 0.12409 0.0
O253 O 0.66526 0.03277 0.10237 0.0
O254 O 0.66875 0.06682 0.08528 0.0
O255 O 0.64467 0.08774 0.13402 0.0
O256 O 0.62465 0.05166 0.11495 0.0
C257 C 0.66781 0.04233 0.16665 0.0
O258 O 0.69161 0.10974 0.13548 0.0
O259 O 0.70974 0.09334 0.11395 0.0
In260 In 0.58852 0.66391 0.61299 0.0
O261 O 0.621 0.67055 0.64005 0.0
O262 O 0.5832 0.66148 0.65274 0.0
C263 C 0.6142 0.66097 0.5741 0.0
C264 C 0.58769 0.70949 0.61269 0.0
C265 C 0.54205 0.61849 0.60872 0.0
O266 O 0.60999 0.6465 0.59208 0.0
O267 O 0.60608 0.67714 0.57603 0.0
O268 O 0.54703 0.639 0.59721 0.0
O269 O 0.56052 0.62092 0.6219 0.0
C270 C 0.60617 0.66641 0.65782 0.0
O271 O 0.56692 0.68728 0.61438 0.0
O272 O 0.60879 0.70866 0.61119 0.0
In273 In 0.93003 0.59741 0.12065 0.0
O274 O 0.88548 0.57784 0.12375 0.0
O275 O 0.90653 0.61834 0.11387 0.0
C276 C 0.93341 0.55316 0.12034 0.0
C277 C 0.94405 0.615 0.16555 0.0
C278 C 0.95488 0.6185 0.07922 0.0
O279 O 0.91413 0.55419 0.11155 0.0
O280 O 0.95105 0.57445 0.12936 0.0
O281 O 0.96355 0.63043 0.09878 0.0
O282 O 0.93389 0.59659 0.08082 0.0
C283 C 0.88449 0.59825 0.1184 0.0
O284 O 0.95879 0.62724 0.14809 0.0
O285 O 0.92279 0.59453 0.16009 0.0
In286 In 0.32225 0.91436 0.62262 0.0
O287 O 0.32354 0.94493 0.64943 0.0
O288 O 0.3229 0.91063 0.66258 0.0
C289 C 0.31968 0.93614 0.58118 0.0
C290 C 0.27513 0.86981 0.62095 0.0
C291 C 0.36873 0.91511 0.61929 0.0
O292 O 0.32708 0.94931 0.60026 0.0
O293 O 0.31334 0.91224 0.58326 0.0
O294 O 0.34783 0.89524 0.62642 0.0
O295 O 0.36627 0.93466 0.61388 0.0
C296 C 0.32347 0.93192 0.66739 0.0
O297 O 0.29645 0.87053 0.61567 0.0
O298 O 0.27755 0.89171 0.62704 0.0
In299 In 0.41939 0.33919 0.11126 0.0
O300 O 0.38789 0.33094 0.13998 0.0
O301 O 0.42758 0.34535 0.15063 0.0
C302 C 0.39708 0.3431 0.0706 0.0
C303 C 0.41866 0.29269 0.10918 0.0
C304 C 0.46304 0.38707 0.109 0.0
O305 O 0.3864 0.34104 0.09065 0.0
O306 O 0.4185 0.34289 0.07127 0.0
O307 O 0.46301 0.36615 0.10333 0.0
O308 O 0.44094 0.38381 0.11555 0.0
C309 C 0.40424 0.3379 0.1569 0.0
O310 O 0.43929 0.31422 0.11369 0.0
O311 O 0.39846 0.29462 0.10549 0.0
C312 C 0.36817 0.00922 0.30426 0.0
C313 C 0.35928 0.02365 0.31738 0.0
C314 C 0.3674 0.00898 0.27931 0.0
C315 C 0.35747 0.02346 0.26729 0.0
C316 C 0.34581 0.03557 0.28053 0.0
C317 C 0.34688 0.03554 0.30546 0.0
C318 C 0.3798 0.99557 0.26591 0.0
C319 C 0.3347 0.05094 0.26847 0.0
C320 C 0.39509 0.06009 0.21217 0.0
C321 C 0.37832 0.04467 0.19378 0.0
C322 C 0.38838 0.0533 0.23603 0.0
C323 C 0.36416 0.03047 0.24179 0.0
C324 C 0.34697 0.0148 0.22335 0.0
C325 C 0.35428 0.02208 0.19947 0.0
C326 C 0.40737 0.07061 0.25509 0.0
C327 C 0.32099 0.9904 0.22886 0.0
H328 H 0.37757 -0.00023 0.31336 0.0
H329 H 0.33971 0.0465 0.31551 0.0
H330 H 0.36793 0.98511 0.25004 0.0
H331 H 0.39969 0.01069 0.25964 0.0
H332 H 0.38198 0.98124 0.27726 0.0
H333 H 0.32198 0.0547 0.28064 0.0
H334 H 0.35118 0.07025 0.26245 0.0
H335 H 0.32304 0.04033 0.25255 0.0
H336 H 0.41371 0.07757 0.20793 0.0
H337 H 0.34125 0.0101 0.18531 0.0
H338 H 0.41344 0.0589 0.2662 0.0
H339 H 0.39757 0.07826 0.26695 0.0
H340 H 0.42539 0.08767 0.24757 0.0
H341 H 0.32445 0.97616 0.23901 0.0
H342 H 0.30968 0.98054 0.21252 0.0
H343 H 0.30877 0.99561 0.24023 0.0
C344 C 0.30803 0.38064 0.69589 0.0
C345 C 0.3265 0.37955 0.68079 0.0
C346 C 0.30996 0.37948 0.72061 0.0
C347 C 0.33118 0.3776 0.73054 0.0
C348 C 0.34897 0.37481 0.71535 0.0
C349 C 0.34632 0.37565 0.69053 0.0
C350 C 0.29029 0.38211 0.73609 0.0
C351 C 0.37186 0.3728 0.72525 0.0
C352 C 0.35227 0.41388 0.78914 0.0
C353 C 0.33973 0.39331 0.80561 0.0
C354 C 0.35106 0.40879 0.76472 0.0
C355 C 0.33657 0.38244 0.75647 0.0
C356 C 0.32486 0.36144 0.77307 0.0
C357 C 0.32674 0.36714 0.79755 0.0
C358 C 0.36418 0.43178 0.74769 0.0
C359 C 0.30914 0.33313 0.76496 0.0
H360 H 0.29245 0.3833 0.68837 0.0
H361 H 0.36061 0.37479 0.67886 0.0
H362 H 0.2828 0.36695 0.75032 0.0
H363 H 0.30011 0.40174 0.74483 0.0
H364 H 0.27323 0.38011 0.72573 0.0
H365 H 0.38118 0.36643 0.71154 0.0
H366 H 0.38699 0.39237 0.73212 0.0
H367 H 0.3654 0.35873 0.74034 0.0
H368 H 0.36267 0.43414 0.79533 0.0
H369 H 0.31707 0.35119 0.81028 0.0
H370 H 0.34888 0.43364 0.73763 0.0
H371 H 0.37638 0.42843 0.7346 0.0
H372 H 0.37693 0.45074 0.75701 0.0
H373 H 0.29025 0.32955 0.75709 0.0
H374 H 0.30462 0.31904 0.77987 0.0
H375 H 0.31995 0.32899 0.75097 0.0
C376 C 0.93785 0.34171 0.21365 0.0
C377 C 0.95209 0.3368 0.19635 0.0
C378 C 0.94313 0.34154 0.23786 0.0
C379 C 0.96327 0.33636 0.24509 0.0
C380 C 0.97832 0.33211 0.22774 0.0
C381 C 0.9725 0.33233 0.20346 0.0
C382 C 0.9266 0.34628 0.25571 0.0
C383 C 1e-05 0.32667 0.2348 0.0
C384 C 0.97944 0.35664 0.30924 0.0
C385 C 0.96091 0.33336 0.32064 0.0
C386 C 0.98275 0.35734 0.28446 0.0
C387 C 0.96715 0.33423 0.27096 0.0
C388 C 0.95075 0.31006 0.28276 0.0
C389 C 0.94779 0.30993 0.30749 0.0
C390 C 0.00079 0.38342 0.27261 0.0
C391 C 0.93401 0.28487 0.2691 0.0
H392 H 0.92216 0.34536 0.2083 0.0
H393 H 0.98359 0.32857 0.19013 0.0
H394 H 0.91551 0.32855 0.26706 0.0
H395 H 0.93949 0.36298 0.26754 0.0
H396 H 0.91224 0.35078 0.24707 0.0
H397 H 0.01208 0.32726 0.21931 0.0
H398 H 0.01315 0.34123 0.2482 0.0
H399 H 0.99125 0.30686 0.2431 0.0
H400 H 0.98986 0.37478 0.31935 0.0
H401 H 0.93373 0.29178 0.31629 0.0
H402 H 0.98884 0.3918 0.26551 0.0
H403 H 0.01143 0.38084 0.25745 0.0
H404 H 0.01545 0.39786 0.28529 0.0
H405 H 0.91701 0.28551 0.26108 0.0
H406 H 0.92623 0.2672 0.28075 0.0
H407 H 0.94544 0.2827 0.25442 0.0
C408 C 0.64025 0.96901 0.70078 0.0
C409 C 0.61476 0.95036 0.69327 0.0
C410 C 0.64627 0.97376 0.72517 0.0
C411 C 0.6263 0.95951 0.74225 0.0
C412 C 0.60044 0.94112 0.73463 0.0
C413 C 0.59504 0.9368 0.71031 0.0
C414 C 0.67402 0.99354 0.73266 0.0
C415 C 0.57847 0.92553 0.75218 0.0
C416 C 0.63554 0.94206 0.80462 0.0
C417 C 0.62749 0.95701 0.81802 0.0
C418 C 0.63792 0.94463 0.77983 0.0
C419 C 0.63206 0.96254 0.76819 0.0
C420 C 0.62664 0.97961 0.78186 0.0
C421 C 0.6244 0.97663 0.80668 0.0
C422 C 0.64401 0.9262 0.76598 0.0
C423 C 0.62061 0.99922 0.77019 0.0
H424 H 0.65555 0.97956 0.68766 0.0
H425 H 0.57525 0.92248 0.70466 0.0
H426 H 0.67381 0.00771 0.74564 0.0
H427 H 0.68313 0.98318 0.74165 0.0
H428 H 0.68661 0.00472 0.7173 0.0
H429 H 0.55931 0.91254 0.74329 0.0
H430 H 0.58355 0.91306 0.76333 0.0
H431 H 0.57597 0.93912 0.76425 0.0
H432 H 0.63829 0.92707 0.81332 0.0
H433 H 0.61839 0.98842 0.81696 0.0
H434 H 0.65805 0.93683 0.75133 0.0
H435 H 0.62557 0.91035 0.75789 0.0
H436 H 0.65246 0.91685 0.77749 0.0
H437 H 0.63424 0.0093 0.75513 0.0
H438 H 0.62201 0.01434 0.78298 0.0
H439 H 0.60025 0.98864 0.76295 0.0
C440 C 0.66069 0.64076 0.29996 0.0
C441 C 0.65818 0.6163 0.30576 0.0
C442 C 0.66181 0.64841 0.27604 0.0
C443 C 0.66093 0.63137 0.25771 0.0
C444 C 0.65822 0.60661 0.2636 0.0
C445 C 0.65666 0.59933 0.28748 0.0
C446 C 0.66416 0.67471 0.27039 0.0
C447 C 0.65749 0.5879 0.24467 0.0
C448 C 0.64293 0.62981 0.19315 0.0
C449 C 0.66765 0.6394 0.18233 0.0
C450 C 0.64061 0.62979 0.218 0.0
C451 C 0.66351 0.63916 0.23224 0.0
C452 C 0.68867 0.65126 0.2213 0.0
C453 C 0.69045 0.65142 0.19642 0.0
C454 C 0.61345 0.61734 0.22895 0.0
C455 C 0.7136 0.6614 0.23576 0.0
H456 H 0.66179 0.6539 0.31406 0.0
H457 H 0.65482 0.58043 0.29184 0.0
H458 H 0.68334 0.68771 0.26158 0.0
H459 H 0.64843 0.67201 0.25778 0.0
H460 H 0.66276 0.68483 0.28656 0.0
H461 H 0.65559 0.56951 0.2523 0.0
H462 H 0.64063 0.58244 0.23251 0.0
H463 H 0.67579 0.59771 0.23385 0.0
H464 H 0.62525 0.62079 0.18232 0.0
H465 H 0.70963 0.65902 0.18814 0.0
H466 H 0.61338 0.6286 0.24479 0.0
H467 H 0.60747 0.59702 0.23485 0.0
H468 H 0.59852 0.61619 0.21607 0.0
H469 H 0.71322 0.67275 0.25138 0.0
H470 H 0.7315 0.67414 0.22505 0.0
H471 H 0.71516 0.6444 0.24251 0.0
C472 C 0.03183 0.6866 0.70413 0.0
C473 C 0.02085 0.66238 0.69213 0.0
C474 C 0.03263 0.68759 0.72906 0.0
C475 C 0.02241 0.66382 0.74217 0.0
C476 C 0.00856 0.63932 0.73018 0.0
C477 C 0.00782 0.6389 0.70524 0.0
C478 C 0.04705 0.71414 0.74114 0.0
C479 C 0.99724 0.61349 0.74344 0.0
C480 C 0.06372 0.66565 0.79467 0.0
C481 C 0.04858 0.66537 0.81408 0.0
C482 C 0.05527 0.66511 0.77131 0.0
C483 C 0.03113 0.66455 0.76714 0.0
C484 C 0.01579 0.66452 0.78664 0.0
C485 C 0.02465 0.66479 0.80997 0.0
C486 C 0.07222 0.66499 0.75107 0.0
C487 C 0.99012 0.66422 0.78284 0.0
H488 H 0.04164 0.70484 0.69408 0.0
H489 H -0.00092 0.62009 0.69608 0.0
H490 H 0.0369 0.71419 0.75778 0.0
H491 H 0.06723 0.7185 0.74594 0.0
H492 H 0.04881 0.7302 0.72938 0.0
H493 H 0.98288 0.59665 0.73241 0.0
H494 H 0.01349 0.60986 0.74847 0.0
H495 H 0.98733 0.61408 0.76004 0.0
H496 H 0.08219 0.66602 0.79771 0.0
H497 H 0.01292 0.66463 0.82495 0.0
H498 H 0.07828 0.6825 0.73958 0.0
H499 H 0.06077 0.6472 0.73988 0.0
H500 H 0.09028 0.66515 0.75739 0.0
H501 H 0.99355 0.68143 0.77191 0.0
H502 H 0.98075 0.66472 0.79987 0.0
H503 H 0.97614 0.64623 0.77289 0.0
C504 C 0.97541 0.64453 0.19717 0.0
C505 C 0.95094 0.623 0.19067 0.0
C506 C 0.98197 0.65099 0.22129 0.0
C507 C 0.96365 0.63545 0.23913 0.0
C508 C 0.93877 0.61404 0.23253 0.0
C509 C 0.93275 0.60815 0.20847 0.0
C510 C 0.00861 0.67404 0.22767 0.0
C511 C 0.91855 0.59692 0.25092 0.0
C512 C 0.97801 0.62391 0.30185 0.0
C513 C 0.96644 0.63601 0.31477 0.0
C514 C 0.97996 0.62595 0.27699 0.0
C515 C 0.97017 0.6405 0.26486 0.0
C516 C 0.96141 0.65528 0.27807 0.0
C517 C 0.95959 0.65281 0.30292 0.0
C518 C 0.9897 0.61009 0.26365 0.0
C519 C 0.95125 0.67142 0.26588 0.0
H520 H 0.98953 0.65607 0.18346 0.0
H521 H 0.91375 0.59155 0.20361 0.0
H522 H 0.0064 0.68717 0.24054 0.0
H523 H 0.02072 0.66672 0.23639 0.0
H524 H 0.01943 0.68579 0.21181 0.0
H525 H 0.89999 0.58128 0.24277 0.0
H526 H 0.92674 0.58732 0.26239 0.0
H527 H 0.91369 0.60921 0.26256 0.0
H528 H 0.98366 0.61115 0.31092 0.0
H529 H 0.95093 0.66249 0.31284 0.0
H530 H 0.00239 0.6215 0.24848 0.0
H531 H 0.97255 0.59204 0.25635 0.0
H532 H 0.00099 0.60397 0.27535 0.0
H533 H 0.96378 0.68221 0.2504 0.0
H534 H 0.95048 0.68584 0.27822 0.0
H535 H 0.93101 0.65806 0.25918 0.0
C536 C 0.31257 0.96095 0.80471 0.0
C537 C 0.3361 0.96569 0.81559 0.0
C538 C 0.31031 0.9604 0.77981 0.0
C539 C 0.33211 0.96473 0.76559 0.0
C540 C 0.35666 0.97226 0.77654 0.0
C541 C 0.35834 0.97262 0.80142 0.0
C542 C 0.28388 0.95262 0.76887 0.0
C543 C 0.3805 0.97736 0.76208 0.0
C544 C 0.31931 0.92257 0.71072 0.0
C545 C 0.32418 0.94051 0.69225 0.0
C546 C 0.32106 0.93013 0.73455 0.0
C547 C 0.3281 0.95643 0.74019 0.0
C548 C 0.33245 0.97457 0.72165 0.0
C549 C 0.33035 0.96634 0.69781 0.0
C550 C 0.31597 0.91002 0.75372 0.0
C551 C 0.34006 0.00277 0.72697 0.0
H552 H 0.29533 0.95573 0.81557 0.0
H553 H 0.37669 0.97661 0.80972 0.0
H554 H 0.28625 0.96451 0.75274 0.0
H555 H 0.27411 0.9316 0.76341 0.0
H556 H 0.27071 0.95504 0.78159 0.0
H557 H 0.39893 0.98715 0.77275 0.0
H558 H 0.37782 0.95831 0.75542 0.0
H559 H 0.38283 0.98984 0.74641 0.0
H560 H 0.31429 0.9025 0.70656 0.0
H561 H 0.33414 0.98028 0.68356 0.0
H562 H 0.30049 0.90849 0.76608 0.0
H563 H 0.33418 0.91639 0.76429 0.0
H564 H 0.30959 0.89011 0.74633 0.0
H565 H 0.3264 0.00346 0.74025 0.0
H566 H 0.33998 0.01357 0.71076 0.0
H567 H 0.36014 0.01321 0.7348 0.0
C568 C 0.37759 0.33703 0.29751 0.0
C569 C 0.38332 0.31823 0.30683 0.0
C570 C 0.37636 0.33994 0.27279 0.0
C571 C 0.3808 0.32354 0.25718 0.0
C572 C 0.38455 0.30323 0.26662 0.0
C573 C 0.38589 0.30091 0.29131 0.0
C574 C 0.37221 0.36176 0.26344 0.0
C575 C 0.38909 0.28511 0.25066 0.0
C576 C 0.37097 0.32114 0.19008 0.0
C577 C 0.39711 0.3366 0.18229 0.0
C578 C 0.36498 0.31758 0.21453 0.0
C579 C 0.38563 0.32993 0.23139 0.0
C580 C 0.4118 0.34671 0.22349 0.0
C581 C 0.4172 0.34973 0.19909 0.0
C582 C 0.33685 0.2996 0.22228 0.0
C583 C 0.4344 0.36051 0.2408 0.0
H584 H 0.37553 0.35043 0.30945 0.0
H585 H 0.39001 0.28613 0.29844 0.0
H586 H 0.39124 0.37812 0.25677 0.0
H587 H 0.35816 0.35469 0.24833 0.0
H588 H 0.36468 0.36972 0.27742 0.0
H589 H 0.3884 0.26838 0.26062 0.0
H590 H 0.37409 0.27706 0.23633 0.0
H591 H 0.40873 0.29642 0.24207 0.0
H592 H 0.35538 0.31098 0.17713 0.0
H593 H 0.43741 0.36195 0.19315 0.0
H594 H 0.33132 0.30891 0.23665 0.0
H595 H 0.33487 0.28106 0.22955 0.0
H596 H 0.32272 0.29449 0.20732 0.0
H597 H 0.4298 0.37152 0.25422 0.0
H598 H 0.45318 0.37453 0.23181 0.0
H599 H 0.43739 0.34567 0.25046 0.0
C600 C 0.06124 0.3927 0.71629 0.0
C601 C 0.04467 0.37699 0.69791 0.0
C602 C 0.05495 0.38555 0.74012 0.0
C603 C 0.03144 0.36195 0.74589 0.0
C604 C 0.01462 0.34578 0.72746 0.0
C605 C 0.02142 0.35355 0.70359 0.0
C606 C 0.07351 0.40347 0.75915 0.0
C607 C 0.98947 0.32048 0.73298 0.0
C608 C 0.03827 0.344 0.80868 0.0
C609 C 0.02871 0.35814 0.82134 0.0
C610 C 0.03646 0.34225 0.78379 0.0
C611 C 0.02491 0.35502 0.7714 0.0
C612 C 0.01233 0.36641 0.78434 0.0
C613 C 0.01437 0.36781 0.80921 0.0
C614 C 0.0497 0.32947 0.77073 0.0
C615 C -0.00048 0.37997 0.77191 0.0
H616 H 0.07925 0.41084 0.71206 0.0
H617 H 0.00856 0.34133 0.68943 0.0
H618 H 0.063 0.41033 0.77102 0.0
H619 H 0.08048 0.39251 0.77026 0.0
H620 H 0.09101 0.42106 0.75161 0.0
H621 H 0.97924 0.30946 0.71664 0.0
H622 H 0.99376 0.30759 0.74435 0.0
H623 H 0.97588 0.32489 0.74312 0.0
H624 H 0.04908 0.33615 0.81798 0.0
H625 H 0.0066 0.37845 0.81892 0.0
H626 H 0.06938 0.34501 0.76442 0.0
H627 H 0.03806 0.31849 0.75493 0.0
H628 H 0.0525 0.31574 0.78239 0.0
H629 H 0.01507 0.39962 0.76554 0.0
H630 H 0.98617 0.3829 0.78398 0.0
H631 H 0.98811 0.36852 0.75619 0.0
C632 C 0.66865 0.02927 0.30954 0.0
C633 C 0.66506 0.05046 0.31587 0.0
C634 C 0.66912 0.02282 0.28549 0.0
C635 C 0.66625 0.03815 0.2675 0.0
C636 C 0.66256 0.05949 0.2739 0.0
C637 C 0.66187 0.06526 0.29794 0.0
C638 C 0.67275 -0.00026 0.27931 0.0
C639 C 0.65962 0.07653 0.25533 0.0
C640 C 0.69189 0.04746 0.20461 0.0
C641 C 0.6682 0.03502 0.19176 0.0
C642 C 0.69183 0.04658 0.22954 0.0
C643 C 0.66753 0.03268 0.24183 0.0
C644 C 0.64389 0.01766 0.22883 0.0
C645 C 0.64448 0.01914 0.2039 0.0
C646 C 0.7175 0.06289 0.24265 0.0
C647 C 0.61763 0.0021 0.24122 0.0
H648 H 0.67105 0.01774 0.32337 0.0
H649 H 0.65914 0.08169 0.30268 0.0
H650 H 0.65629 0.98562 0.26784 0.0
H651 H 0.69124 0.00669 0.26903 0.0
H652 H 0.67361 0.98914 0.29536 0.0
H653 H 0.65709 0.09249 0.26332 0.0
H654 H 0.67728 0.08568 0.24367 0.0
H655 H 0.64228 0.06424 0.24391 0.0
H656 H 0.71033 0.05963 0.19533 0.0
H657 H 0.62612 0.00922 0.19405 0.0
H658 H 0.71888 0.05197 0.25818 0.0
H659 H 0.71839 0.08113 0.24943 0.0
H660 H 0.73487 0.06867 0.23097 0.0
H661 H 0.61928 0.99152 0.25689 0.0
H662 H 0.60222 0.98755 0.22912 0.0
H663 H 0.61107 0.01583 0.24767 0.0
C664 C 0.59537 0.65895 0.70079 0.0
C665 C 0.61444 0.66722 0.68279 0.0
C666 C 0.60233 0.66069 0.72476 0.0
C667 C 0.62914 0.67106 0.73105 0.0
C668 C 0.64849 0.67864 0.71297 0.0
C669 C 0.64088 0.67661 0.68895 0.0
C670 C 0.58098 0.65222 0.74341 0.0
C671 C 0.67722 0.68968 0.71901 0.0
C672 C 0.6395 0.70052 0.79229 0.0
C673 C 0.63509 0.67903 0.80652 0.0
C674 C 0.64033 0.69918 0.76747 0.0
C675 C 0.63655 0.67571 0.75663 0.0
C676 C 0.63477 0.65498 0.77098 0.0
C677 C 0.63407 0.65688 0.79586 0.0
C678 C 0.64254 0.72188 0.7529 0.0
C679 C 0.63108 0.62979 0.76011 0.0
H680 H 0.57484 0.6514 0.69615 0.0
H681 H 0.65568 0.68293 0.67508 0.0
H682 H 0.5815 0.63761 0.75563 0.0
H683 H 0.58442 0.66952 0.75423 0.0
H684 H 0.56094 0.64332 0.7355 0.0
H685 H 0.68918 0.69122 0.7031 0.0
H686 H 0.68522 0.70964 0.72682 0.0
H687 H 0.67957 0.67717 0.7325 0.0
H688 H 0.64069 0.71786 0.80049 0.0
H689 H 0.63082 0.64027 0.80681 0.0
H690 H 0.6229 0.71642 0.74546 0.0
H691 H 0.65625 0.72627 0.73775 0.0
H692 H 0.64952 0.74007 0.7637 0.0
H693 H 0.61031 0.6175 0.7542 0.0
H694 H 0.63548 0.61814 0.77303 0.0
H695 H 0.64388 0.63401 0.74427 0.0
C696 C 0.39895 0.15053 0.13442 0.0
C697 C 0.40998 0.14184 0.11699 0.0
C698 C 0.40084 0.17532 0.13268 0.0
C699 C 0.41368 0.1916 0.11282 0.0
C700 C 0.42467 0.18283 0.09505 0.0
C701 C 0.42288 0.15811 0.09746 0.0
C702 C 0.38923 0.18416 0.15218 0.0
C703 C 0.43814 0.19949 0.07344 0.0
C704 C 0.39628 0.24468 0.09944 0.0
C705 C 0.41799 0.26713 0.10905 0.0
C706 C 0.39496 0.22007 0.09997 0.0
C707 C 0.41561 0.21784 0.11075 0.0
C708 C 0.43768 0.24051 0.1203 0.0
C709 C 0.43871 0.26496 0.11914 0.0
C710 C 0.37131 0.1964 0.08926 0.0
C711 C 0.45988 0.23883 0.13227 0.0
H712 H 0.38907 0.13805 0.14961 0.0
H713 H 0.43132 0.15137 0.0839 0.0
H714 H 0.40476 0.20303 0.15991 0.0
H715 H 0.37379 0.18781 0.14475 0.0
H716 H 0.38035 0.16935 0.16666 0.0
H717 H 0.44526 0.18962 0.06105 0.0
H718 H 0.42429 0.20392 0.06375 0.0
H719 H 0.45519 0.21863 0.07898 0.0
H720 H 0.38029 0.24633 0.09151 0.0
H721 H 0.45546 0.28229 0.12668 0.0
H722 H 0.36026 0.18166 0.10334 0.0
H723 H 0.37783 0.18674 0.07607 0.0
H724 H 0.35767 0.20174 0.08039 0.0
H725 H 0.45214 0.22544 0.14784 0.0
H726 H 0.47587 0.2584 0.13839 0.0
H727 H 0.46844 0.23036 0.11988 0.0
C728 C 0.13195 0.37433 0.60548 0.0
C729 C 0.13311 0.39391 0.6206 0.0
C730 C 0.15435 0.37195 0.60153 0.0
C731 C 0.17813 0.38912 0.61352 0.0
C732 C 0.17914 0.40847 0.62929 0.0
C733 C 0.15668 0.41087 0.63237 0.0
C734 C 0.15277 0.35153 0.58417 0.0
C735 C 0.20397 0.42671 0.64284 0.0
C736 C 0.23149 0.37103 0.62112 0.0
C737 C 0.25069 0.38848 0.60518 0.0
C738 C 0.20738 0.37049 0.62362 0.0
C739 C 0.20223 0.38734 0.60936 0.0
C740 C 0.22102 0.40396 0.59231 0.0
C741 C 0.24525 0.40461 0.59067 0.0
C742 C 0.18808 0.35296 0.64236 0.0
C743 C 0.21592 0.42169 0.57638 0.0
H744 H 0.11372 0.36134 0.59625 0.0
H745 H 0.15749 0.4259 0.64419 0.0
H746 H 0.16708 0.3614 0.5695 0.0
H747 H 0.15823 0.33804 0.59309 0.0
H748 H 0.13273 0.3396 0.57642 0.0
H749 H 0.20102 0.43969 0.65536 0.0
H750 H 0.21082 0.41503 0.65306 0.0
H751 H 0.21993 0.43932 0.63023 0.0
H752 H 0.2358 0.35869 0.63248 0.0
H753 H 0.26007 0.41799 0.57823 0.0
H754 H 0.16824 0.34052 0.6345 0.0
H755 H 0.18618 0.36535 0.65628 0.0
H756 H 0.19436 0.33989 0.65095 0.0
H757 H 0.19637 0.41026 0.56767 0.0
H758 H 0.23127 0.43124 0.56241 0.0
H759 H 0.21552 0.43736 0.58716 0.0
C760 C 0.85545 0.23929 0.13641 0.0
C761 C 0.85798 0.26094 0.12355 0.0
C762 C 0.83152 0.21531 0.13674 0.0
C763 C 0.8098 0.21287 0.12357 0.0
C764 C 0.81236 0.23459 0.11032 0.0
C765 C 0.83639 0.25847 0.11063 0.0
C766 C 0.82939 0.19266 0.15133 0.0
C767 C 0.78975 0.23256 0.09575 0.0
C768 C 0.75631 0.14364 0.10728 0.0
C769 C 0.73667 0.13905 0.12397 0.0
C770 C 0.78008 0.16776 0.10674 0.0
C771 C 0.78443 0.18751 0.12356 0.0
C772 C 0.76467 0.18296 0.14048 0.0
C773 C 0.74087 0.15881 0.14034 0.0
C774 C 0.80052 0.17209 0.08818 0.0
C775 C 0.76881 0.20345 0.1589 0.0
H776 H 0.87209 0.24122 0.14653 0.0
H777 H 0.83834 0.27517 0.10059 0.0
H778 H 0.81324 0.1863 0.16454 0.0
H779 H 0.82437 0.17549 0.13967 0.0
H780 H 0.84799 0.19794 0.16091 0.0
H781 H 0.79512 0.25116 0.08612 0.0
H782 H 0.78329 0.21636 0.08259 0.0
H783 H 0.77262 0.22766 0.10743 0.0
H784 H 0.75302 0.12842 0.09451 0.0
H785 H 0.72574 0.15523 0.15332 0.0
H786 H 0.81897 0.17555 0.09693 0.0
H787 H 0.80545 0.18994 0.07754 0.0
H788 H 0.79372 0.15501 0.07593 0.0
H789 H 0.78641 0.20818 0.16983 0.0
H790 H 0.75152 0.19676 0.17089 0.0
H791 H 0.77262 0.22198 0.15006 0.0
C792 C 0.56546 0.73559 0.62111 0.0
C793 C 0.58743 0.73458 0.61258 0.0
C794 C 0.56538 0.75954 0.62182 0.0
C795 C 0.58759 0.78284 0.61331 0.0
C796 C 0.60959 0.78178 0.60417 0.0
C797 C 0.60935 0.75769 0.60416 0.0
C798 C 0.54179 0.76001 0.63214 0.0
C799 C 0.63343 0.80611 0.59454 0.0
C800 C 0.57903 0.84125 0.59735 0.0
C801 C 0.59044 0.85773 0.61707 0.0
C802 C 0.57805 0.81682 0.59581 0.0
C803 C 0.58823 0.80853 0.61467 0.0
C804 C 0.59939 0.82495 0.63479 0.0
C805 C 0.60061 0.84949 0.63562 0.0
C806 C 0.56645 0.80004 0.57389 0.0
C807 C 0.61002 0.8166 0.65545 0.0
H808 H 0.54853 0.71775 0.62772 0.0
H809 H 0.6263 0.75691 0.59739 0.0
H810 H 0.54798 0.77338 0.64775 0.0
H811 H 0.53348 0.76787 0.61887 0.0
H812 H 0.52601 0.74012 0.6378 0.0
H813 H 0.6483 0.80166 0.58693 0.0
H814 H 0.62733 0.81533 0.58053 0.0
H815 H 0.64291 0.82088 0.60892 0.0
H816 H 0.57125 0.84765 0.58294 0.0
H817 H 0.60928 0.86212 0.65098 0.0
H818 H 0.54958 0.78053 0.57888 0.0
H819 H 0.58143 0.79645 0.56527 0.0
H820 H 0.55953 0.80941 0.56074 0.0
H821 H 0.59444 0.79734 0.6625 0.0
H822 H 0.61718 0.83126 0.67013 0.0
H823 H 0.62657 0.8139 0.64941 0.0
C824 C 0.74406 0.58816 0.10219 0.0
C825 C 0.74012 0.60299 0.11956 0.0
C826 C 0.76741 0.58697 0.10162 0.0
C827 C 0.78693 0.60047 0.11918 0.0
C828 C 0.78272 0.61493 0.13714 0.0
C829 C 0.75945 0.61627 0.13694 0.0
C830 C 0.77142 0.57173 0.08197 0.0
C831 C 0.80284 0.62908 0.15646 0.0
C832 C 0.83721 0.57869 0.12973 0.0
C833 C 0.8595 0.59865 0.11817 0.0
C834 C 0.81348 0.57912 0.13032 0.0
C835 C 0.81191 0.59971 0.11865 0.0
C836 C 0.83426 0.6197 0.10662 0.0
C837 C 0.85792 0.61908 0.10675 0.0
C838 C 0.79021 0.55775 0.1437 0.0
C839 C 0.83315 0.6417 0.09361 0.0
H840 H 0.72918 0.57804 0.08863 0.0
H841 H 0.75635 0.62765 0.15046 0.0
H842 H 0.78932 0.58513 0.07158 0.0
H843 H 0.77466 0.55611 0.08962 0.0
H844 H 0.75432 0.56238 0.06966 0.0
H845 H 0.79603 0.6385 0.16969 0.0
H846 H 0.80719 0.61503 0.16587 0.0
H847 H 0.8216 0.64456 0.14852 0.0
H848 H 0.83846 0.56296 0.13871 0.0
H849 H 0.87512 0.63446 0.09771 0.0
H850 H 0.77322 0.547 0.13151 0.0
H851 H 0.78394 0.5667 0.15782 0.0
H852 H 0.79478 0.54329 0.15205 0.0
H853 H 0.81711 0.63333 0.0802 0.0
H854 H 0.85201 0.65521 0.08449 0.0
H855 H 0.82856 0.65338 0.10628 0.0
C856 C 0.22654 0.84469 0.62826 0.0
C857 C 0.24942 0.84516 0.62017 0.0
C858 C 0.20213 0.82119 0.62814 0.0
C859 C 0.20061 0.79771 0.61959 0.0
C860 C 0.22359 0.79816 0.61109 0.0
C861 C 0.24776 0.82189 0.61155 0.0
C862 C 0.17802 0.82141 0.63745 0.0
C863 C 0.22269 0.77354 0.6017 0.0
C864 C 0.14362 0.73249 0.64075 0.0
C865 C 0.12613 0.72529 0.62153 0.0
C866 C 0.168 0.75599 0.64029 0.0
C867 C 0.17508 0.77253 0.62006 0.0
C868 C 0.15768 0.76516 0.60044 0.0
C869 C 0.13333 0.74162 0.60144 0.0
C870 C 0.18602 0.76328 0.66159 0.0
C871 C 0.1647 0.78223 0.57849 0.0
H872 H 0.22775 0.86264 0.63494 0.0
H873 H 0.2654 0.82219 0.60519 0.0
H874 H 0.16252 0.81419 0.62355 0.0
H875 H 0.16975 0.80782 0.65284 0.0
H876 H 0.18247 0.8414 0.64312 0.0
H877 H 0.2422 0.77741 0.59507 0.0
H878 H 0.21606 0.75843 0.61594 0.0
H879 H 0.20818 0.76503 0.587 0.0
H880 H 0.13809 0.71994 0.65634 0.0
H881 H 0.11986 0.73609 0.58653 0.0
H882 H 0.18966 0.78238 0.66903 0.0
H883 H 0.2054 0.76588 0.65617 0.0
H884 H 0.17766 0.74811 0.67584 0.0
H885 H 0.16747 0.80186 0.58322 0.0
H886 H 0.14927 0.77333 0.56453 0.0
H887 H 0.18364 0.7855 0.57099 0.0
C888 C 0.83687 0.58222 0.36384 0.0
C889 C 0.8582 0.60134 0.377 0.0
C890 C 0.8126 0.58161 0.3636 0.0
C891 C 0.80955 0.60032 0.37714 0.0
C892 C 0.83102 0.61961 0.39052 0.0
C893 C 0.85517 0.62001 0.39015 0.0
C894 C 0.79022 0.56098 0.34886 0.0
C895 C 0.82841 0.63967 0.40541 0.0
C896 C 0.75445 0.61394 0.3613 0.0
C897 C 0.73491 0.59804 0.37774 0.0
C898 C 0.77882 0.61478 0.36082 0.0
C899 C 0.78384 0.59964 0.37742 0.0
C900 C 0.76431 0.58384 0.39428 0.0
C901 C 0.73997 0.58307 0.39413 0.0
C902 C 0.79908 0.63164 0.34241 0.0
C903 C 0.76912 0.56773 0.41248 0.0
H904 H 0.83921 0.56782 0.35359 0.0
H905 H 0.8716 0.63475 0.40044 0.0
H906 H 0.77322 0.54827 0.36049 0.0
H907 H 0.78341 0.57064 0.33596 0.0
H908 H 0.796 0.54824 0.33891 0.0
H909 H 0.84695 0.65323 0.41494 0.0
H910 H 0.82287 0.65159 0.39399 0.0
H911 H 0.81242 0.62945 0.41869 0.0
H912 H 0.75054 0.62543 0.34853 0.0
H913 H 0.72492 0.57082 0.40691 0.0
H914 H 0.80416 0.61918 0.33124 0.0
H915 H 0.81749 0.64653 0.35126 0.0
H916 H 0.79199 0.64206 0.33065 0.0
H917 H 0.77305 0.55321 0.4034 0.0
H918 H 0.7521 0.55693 0.42469 0.0
H919 H 0.78686 0.58077 0.42318 0.0
C920 C 0.14695 0.75869 0.89508 0.0
C921 C 0.14622 0.73682 0.88413 0.0
C922 C 0.17022 0.78331 0.89529 0.0
C923 C 0.19311 0.78615 0.88398 0.0
C924 C 0.19244 0.76414 0.87284 0.0
C925 C 0.16903 0.73966 0.8732 0.0
C926 C 0.1703 0.80628 0.90762 0.0
C927 C 0.21638 0.7665 0.86034 0.0
C928 C 0.24553 0.85503 0.86523 0.0
C929 C 0.26446 0.86168 0.88314 0.0
C930 C 0.22228 0.8304 0.86519 0.0
C931 C 0.21775 0.81221 0.88368 0.0
C932 C 0.23677 0.81888 0.90187 0.0
C933 C 0.26002 0.8435 0.90128 0.0
C934 C 0.20261 0.82382 0.84532 0.0
C935 C 0.23246 0.8001 0.92203 0.0
H936 H 0.12937 0.75652 0.90362 0.0
H937 H 0.16849 0.72281 0.86461 0.0
H938 H 0.18582 0.81437 0.92152 0.0
H939 H 0.17507 0.82236 0.89467 0.0
H940 H 0.15101 0.80064 0.91603 0.0
H941 H 0.21253 0.74752 0.85239 0.0
H942 H 0.22278 0.78152 0.84603 0.0
H943 H 0.23302 0.77326 0.87303 0.0
H944 H 0.24897 0.86902 0.85113 0.0
H945 H 0.27458 0.84865 0.91521 0.0
H946 H 0.18338 0.81986 0.8527 0.0
H947 H 0.19918 0.80562 0.83608 0.0
H948 H 0.20932 0.83999 0.83206 0.0
H949 H 0.21399 0.79519 0.93163 0.0
H950 H 0.24904 0.80844 0.93494 0.0
H951 H 0.23012 0.78136 0.91492 0.0
C952 C 0.39656 0.13666 0.41013 0.0
C953 C 0.40069 0.12728 0.38855 0.0
C954 C 0.39762 0.16114 0.41132 0.0
C955 C 0.40255 0.17631 0.39037 0.0
C956 C 0.4069 0.16697 0.36858 0.0
C957 C 0.4061 0.14263 0.36798 0.0
C958 C 0.39328 0.17067 0.43492 0.0
C959 C 0.41194 0.18247 0.34582 0.0
C960 C 0.37974 0.2265 0.38617 0.0
C961 C 0.4036 0.25028 0.38861 0.0
C962 C 0.37903 0.2022 0.38717 0.0
C963 C 0.40271 0.20175 0.39102 0.0
C964 C 0.42671 0.22569 0.39431 0.0
C965 C 0.4269 0.24971 0.39289 0.0
C966 C 0.3531 0.17707 0.38334 0.0
C967 C 0.45228 0.22595 0.39879 0.0
H968 H 0.39247 0.12486 0.42609 0.0
H969 H 0.4092 0.13538 0.35125 0.0
H970 H 0.41027 0.19043 0.43909 0.0
H971 H 0.3755 0.1728 0.43398 0.0
H972 H 0.39068 0.15699 0.4497 0.0
H973 H 0.41502 0.17247 0.33038 0.0
H974 H 0.39498 0.18538 0.34191 0.0
H975 H 0.42961 0.20232 0.3478 0.0
H976 H 0.36169 0.22688 0.3828 0.0
H977 H 0.44537 0.26809 0.39492 0.0
H978 H 0.34894 0.16334 0.39843 0.0
H979 H 0.35427 0.167 0.36705 0.0
H980 H 0.33632 0.18077 0.38143 0.0
H981 H 0.45001 0.2129 0.414 0.0
H982 H 0.46887 0.2461 0.40262 0.0
H983 H 0.45752 0.21816 0.383 0.0
C984 C 0.24261 0.3859 0.87247 0.0
C985 C 0.26538 0.40887 0.87985 0.0
C986 C 0.21786 0.38428 0.87293 0.0
C987 C 0.21583 0.40602 0.8813 0.0
C988 C 0.23875 0.42919 0.88895 0.0
C989 C 0.26329 0.43041 0.88796 0.0
C990 C 0.19391 0.35937 0.86435 0.0
C991 C 0.23731 0.45264 0.89828 0.0
C992 C 0.15619 0.41159 0.86353 0.0
C993 C 0.13994 0.40114 0.88355 0.0
C994 C 0.18091 0.41319 0.8625 0.0
C995 C 0.18971 0.40449 0.88212 0.0
C996 C 0.17349 0.39421 0.9025 0.0
C997 C 0.1487 0.39247 0.90289 0.0
C998 C 0.19751 0.42395 0.84035 0.0
C999 C 0.18235 0.38506 0.92389 0.0
H1000 H 0.24416 0.36925 0.86608 0.0
H1001 H 0.28085 0.44818 0.89375 0.0
H1002 H 0.17923 0.35057 0.8789 0.0
H1003 H 0.18433 0.36406 0.84961 0.0
H1004 H 0.19891 0.34441 0.85801 0.0
H1005 H 0.25691 0.46904 0.90384 0.0
H1006 H 0.22921 0.46009 0.88441 0.0
H1007 H 0.22372 0.44662 0.91373 0.0
H1008 H 0.14941 0.4182 0.8485 0.0
H1009 H 0.13622 0.38447 0.91844 0.0
H1010 H 0.20167 0.40893 0.8327 0.0
H1011 H 0.21677 0.44147 0.84483 0.0
H1012 H 0.18771 0.42968 0.82657 0.0
H1013 H 0.1858 0.36873 0.91876 0.0
H1014 H 0.16764 0.37812 0.93853 0.0
H1015 H 0.20133 0.4014 0.93064 0.0
C1016 C 0.73912 0.16626 0.40171 0.0
C1017 C 0.73726 0.14484 0.3889 0.0
C1018 C 0.76274 0.19054 0.40225 0.0
C1019 C 0.78492 0.19349 0.38951 0.0
C1020 C 0.78319 0.17189 0.37663 0.0
C1021 C 0.75937 0.14775 0.37657 0.0
C1022 C 0.76392 0.21309 0.41632 0.0
C1023 C 0.80639 0.17437 0.36271 0.0
C1024 C 0.83757 0.26266 0.37181 0.0
C1025 C 0.85722 0.2682 0.38874 0.0
C1026 C 0.81393 0.23838 0.37184 0.0
C1027 C 0.80982 0.21932 0.38935 0.0
C1028 C 0.82948 0.22492 0.40665 0.0
C1029 C 0.85303 0.24929 0.40608 0.0
C1030 C 0.79347 0.23304 0.35301 0.0
C1031 C 0.82567 0.20514 0.42571 0.0
H1032 H 0.72209 0.16407 0.41133 0.0
H1033 H 0.75799 0.13124 0.3666 0.0
H1034 H 0.78004 0.22024 0.42962 0.0
H1035 H 0.76841 0.22985 0.40431 0.0
H1036 H 0.74512 0.20735 0.42574 0.0
H1037 H 0.80187 0.15563 0.35379 0.0
H1038 H 0.8124 0.18997 0.34899 0.0
H1039 H 0.82353 0.18039 0.37467 0.0
H1040 H 0.84077 0.2772 0.35832 0.0
H1041 H 0.86818 0.25352 0.41923 0.0
H1042 H 0.77461 0.22875 0.36148 0.0
H1043 H 0.7895 0.21535 0.34254 0.0
H1044 H 0.79974 0.24993 0.34063 0.0
H1045 H 0.80762 0.19994 0.43615 0.0
H1046 H 0.84272 0.21272 0.43808 0.0
H1047 H 0.82285 0.1867 0.41743 0.0
C1048 C 0.57441 0.73734 0.89573 0.0
C1049 C 0.59795 0.73973 0.88702 0.0
C1050 C 0.57133 0.75956 0.89784 0.0
C1051 C 0.5921 0.78455 0.89059 0.0
C1052 C 0.616 0.78706 0.88202 0.0
C1053 C 0.61871 0.76464 0.88055 0.0
C1054 C 0.54579 0.75627 0.9075 0.0
C1055 C 0.63846 0.81332 0.87379 0.0
C1056 C 0.57719 0.83758 0.87071 0.0
C1057 C 0.58677 0.85515 0.88992 0.0
C1058 C 0.57822 0.81416 0.87095 0.0
C1059 C 0.58867 0.80801 0.89106 0.0
C1060 C 0.59736 0.82516 0.91092 0.0
C1061 C 0.59654 0.8487 0.91002 0.0
C1062 C 0.5691 0.79654 0.8493 0.0
C1063 C 0.60819 0.819 0.93283 0.0
H1064 H 0.55838 0.71809 0.90087 0.0
H1065 H 0.6369 0.76652 0.87371 0.0
H1066 H 0.54983 0.77008 0.92252 0.0
H1067 H 0.53561 0.76123 0.89353 0.0
H1068 H 0.53225 0.73583 0.91375 0.0
H1069 H 0.65584 0.81194 0.86786 0.0
H1070 H 0.63181 0.82091 0.85882 0.0
H1071 H 0.64472 0.828 0.88837 0.0
H1072 H 0.56969 0.84257 0.85512 0.0
H1073 H 0.6038 0.86219 0.92496 0.0
H1074 H 0.55414 0.77612 0.8544 0.0
H1075 H 0.58603 0.79568 0.84138 0.0
H1076 H 0.56048 0.80359 0.83553 0.0
H1077 H 0.59425 0.79875 0.9392 0.0
H1078 H 0.61191 0.83315 0.9475 0.0
H1079 H 0.627 0.81969 0.92843 0.0
C1080 C 0.35427 -6e-05 0.95069 0.0
C1081 C 0.33297 0.97478 0.94578 0.0
C1082 C 0.35861 0.01038 0.9738 0.0
C1083 C 0.34113 0.99535 0.99235 0.0
C1084 C 0.31868 0.97066 0.98715 0.0
C1085 C 0.31492 0.96063 0.96393 0.0
C1086 C 0.38277 0.03683 0.97863 0.0
C1087 C 0.29942 0.95415 0.00634 0.0
C1088 C 0.3717 0.00709 0.05379 0.0
C1089 C 0.36424 0.02432 0.06381 0.0
C1090 C 0.36371 0.99701 0.03078 0.0
C1091 C 0.3478 0.00429 0.01746 0.0
C1092 C 0.33928 0.0208 0.02785 0.0
C1093 C 0.34764 0.03067 0.05093 0.0
C1094 C 0.37311 0.97934 0.0204 0.0
C1095 C 0.32213 0.02879 0.01428 0.0
H1096 H 0.36829 0.01096 0.93674 0.0
H1097 H 0.29832 0.94121 0.9602 0.0
H1098 H 0.37731 0.04974 0.98862 0.0
H1099 H 0.39679 0.03403 0.98983 0.0
H1100 H 0.39304 0.04707 0.96201 0.0
H1101 H 0.2814 0.93702 0.99893 0.0
H1102 H 0.30903 0.94663 0.01858 0.0
H1103 H 0.29351 0.96627 0.01705 0.0
H1104 H 0.38451 0.0021 0.06365 0.0
H1105 H 0.34185 0.04402 0.05858 0.0
H1106 H 0.38586 0.98906 0.00474 0.0
H1107 H 0.35606 0.96056 0.01418 0.0
H1108 H 0.38448 0.9747 0.03343 0.0
H1109 H 0.33331 0.04136 0.99896 0.0
H1110 H 0.31542 0.03992 0.02554 0.0
H1111 H 0.30456 0.01111 0.00703 0.0
C1112 C 0.34389 0.31785 0.44294 0.0
C1113 C 0.37114 0.33227 0.43875 0.0
C1114 C 0.33317 0.32116 0.46419 0.0
C1115 C 0.35012 0.33953 0.48136 0.0
C1116 C 0.37763 0.35408 0.47714 0.0
C1117 C 0.38779 0.35016 0.45597 0.0
C1118 C 0.30377 0.30515 0.46824 0.0
C1119 C 0.39638 0.37414 0.49482 0.0
C1120 C 0.32767 0.37352 0.52489 0.0
C1121 C 0.32822 0.36181 0.54648 0.0
C1122 C 0.33322 0.36534 0.50333 0.0
C1123 C 0.33936 0.34482 0.50332 0.0
C1124 C 0.33834 0.33179 0.52486 0.0
C1125 C 0.33285 0.34051 0.54627 0.0
C1126 C 0.3342 0.37985 0.4808 0.0
C1127 C 0.34449 0.30964 0.5255 0.0
H1128 H 0.331 0.30387 0.42973 0.0
H1129 H 0.40887 0.36138 0.45281 0.0
H1130 H 0.29959 0.29418 0.48525 0.0
H1131 H 0.29546 0.31847 0.46971 0.0
H1132 H 0.29345 0.29085 0.45365 0.0
H1133 H 0.41729 0.38352 0.48897 0.0
H1134 H 0.39126 0.38985 0.49745 0.0
H1135 H 0.39452 0.36462 0.51231 0.0
H1136 H 0.32388 0.38986 0.5249 0.0
H1137 H 0.33314 0.3313 0.5629 0.0
H1138 H 0.32285 0.3657 0.46645 0.0
H1139 H 0.35495 0.39164 0.47465 0.0
H1140 H 0.32625 0.39339 0.48341 0.0
H1141 H 0.33369 0.29514 0.5112 0.0
H1142 H 0.3393 0.29922 0.54287 0.0
H1143 H 0.36588 0.31772 0.5223 0.0
C1144 C 0.01201 0.33793 0.95473 0.0
C1145 C 0.03203 0.36414 0.95134 0.0
C1146 C -0.00078 0.32948 0.97682 0.0
C1147 C 0.00636 0.34784 0.99569 0.0
C1148 C 0.02714 0.37409 0.99252 0.0
C1149 C 0.03984 0.38184 0.97046 0.0
C1150 C 0.97748 0.30121 0.97971 0.0
C1151 C 0.03511 0.39441 0.01205 0.0
C1152 C 0.95546 0.34061 0.04111 0.0
C1153 C 0.9641 0.33356 0.06161 0.0
C1154 C 0.96853 0.34441 0.01937 0.0
C1155 C 0.99056 0.34063 0.01796 0.0
C1156 C 0.99867 0.33232 0.03833 0.0
C1157 C 0.98547 0.32912 0.06005 0.0
C1158 C 0.95948 0.35369 0.99818 0.0
C1159 C 0.02176 0.3276 0.03736 0.0
H1160 H 0.00606 0.32413 0.94004 0.0
H1161 H 0.05533 0.40213 0.96796 0.0
H1162 H 0.98036 0.29271 0.99631 0.0
H1163 H 0.95821 0.30044 0.9812 0.0
H1164 H 0.97655 0.2887 0.96446 0.0
H1165 H 0.05262 0.41358 0.00715 0.0
H1166 H 0.01849 0.39784 0.01605 0.0
H1167 H 0.03963 0.38714 0.02859 0.0
H1168 H 0.93893 0.34407 0.0422 0.0
H1169 H 0.99208 0.32348 0.07583 0.0
H1170 H 0.95569 0.34041 0.9828 0.0
H1171 H 0.97525 0.3737 0.99285 0.0
H1172 H 0.94126 0.35448 0.00196 0.0
H1173 H 0.01971 0.31479 0.02202 0.0
H1174 H 0.02362 0.31827 0.05388 0.0
H1175 H 0.04028 0.34664 0.03475 0.0
C1176 C 0.683 0.04843 0.46687 0.0
C1177 C 0.66518 0.03468 0.44848 0.0
C1178 C 0.67971 0.03727 0.48958 0.0
C1179 C 0.65779 0.01196 0.49408 0.0
C1180 C 0.64041 0.99752 0.47528 0.0
C1181 C 0.64446 0.00899 0.45263 0.0
C1182 C 0.69896 0.05307 0.50901 0.0
C1183 C 0.61667 0.97057 0.47941 0.0
C1184 C 0.65193 0.97327 0.55033 0.0
C1185 C 0.63522 0.97858 0.56425 0.0
C1186 C 0.66031 0.98476 0.52774 0.0
C1187 C 0.65149 0.00165 0.51883 0.0
C1188 C 0.63543 0.00782 0.53321 0.0
C1189 C 0.62764 0.99634 0.55579 0.0
C1190 C 0.67781 0.9781 0.51309 0.0
C1191 C 0.62552 0.02568 0.52436 0.0
H1192 H 0.69919 0.06824 0.46367 0.0
H1193 H 0.63061 0.99833 0.43847 0.0
H1194 H 0.68917 0.05954 0.52209 0.0
H1195 H 0.70541 0.04074 0.51868 0.0
H1196 H 0.71667 0.07083 0.50196 0.0
H1197 H 0.60621 0.96115 0.46261 0.0
H1198 H 0.62266 0.9574 0.48817 0.0
H1199 H 0.60264 0.97234 0.4915 0.0
H1200 H 0.65786 0.95956 0.55679 0.0
H1201 H 0.6147 0.00049 0.56643 0.0
H1202 H 0.69504 0.99638 0.50623 0.0
H1203 H 0.66669 0.96613 0.49747 0.0
H1204 H 0.68505 0.96681 0.52343 0.0
H1205 H 0.64233 0.04498 0.51881 0.0
H1206 H 0.61394 0.0292 0.53805 0.0
H1207 H 0.61283 0.01673 0.50852 0.0
C1208 C 0.68573 0.64124 0.03145 0.0
C1209 C 0.68074 0.65155 0.05205 0.0
C1210 C 0.68136 0.64832 0.00884 0.0
C1211 C 0.67225 0.66653 0.00679 0.0
C1212 C 0.6694 0.67874 0.02745 0.0
C1213 C 0.67343 0.67089 0.04993 0.0
C1214 C 0.68426 0.6345 0.98734 0.0
C1215 C 0.66035 0.69874 0.02592 0.0
C1216 C 0.66786 0.68888 0.94421 0.0
C1217 C 0.64108 0.67211 0.93918 0.0
C1218 C 0.67832 0.68794 0.96647 0.0
C1219 C 0.66167 0.66933 0.98365 0.0
C1220 C 0.63467 0.65222 0.97844 0.0
C1221 C 0.62468 0.65406 0.9564 0.0
C1222 C 0.70705 0.70685 0.97167 0.0
C1223 C 0.61634 0.63164 0.99601 0.0
H1224 H 0.69154 0.62638 0.03296 0.0
H1225 H 0.66982 0.6791 0.06581 0.0
H1226 H 0.66441 0.62035 0.98027 0.0
H1227 H 0.69527 0.64885 0.97301 0.0
H1228 H 0.6946 0.62344 0.99163 0.0
H1229 H 0.66368 0.70975 0.04284 0.0
H1230 H 0.67079 0.71304 0.01137 0.0
H1231 H 0.63895 0.6885 0.02183 0.0
H1232 H 0.68048 0.70301 0.93094 0.0
H1233 H 0.60397 0.64098 0.95248 0.0
H1234 H 0.71749 0.69574 0.97507 0.0
H1235 H 0.70889 0.7183 0.988 0.0
H1236 H 0.71707 0.72085 0.95679 0.0
H1237 H 0.62389 0.61816 0.00055 0.0
H1238 H 0.59595 0.61966 0.98902 0.0
H1239 H 0.61553 0.64127 0.01272 0.0
C1240 C 0.99709 0.62399 0.55308 0.0
C1241 C 0.00561 0.64725 0.56618 0.0
C1242 C 0.98735 0.62161 0.52993 0.0
C1243 C 0.98586 0.64291 0.51967 0.0
C1244 C 0.99349 0.66609 0.53311 0.0
C1245 C 0.00339 0.66803 0.55623 0.0
C1246 C 0.97942 0.59655 0.51618 0.0
C1247 C 0.99182 0.68904 0.52285 0.0
C1248 C 0.98584 0.64312 0.45218 0.0
C1249 C 0.95876 0.63002 0.44732 0.0
C1250 C 0.99507 0.64849 0.47571 0.0
C1251 C 0.97674 0.64084 0.49469 0.0
C1252 C 0.94946 0.62893 0.48974 0.0
C1253 C 0.94079 0.62351 0.46611 0.0
C1254 C 0.02432 0.66109 0.48031 0.0
C1255 C 0.92933 0.62081 0.50944 0.0
H1256 H 0.9988 0.60788 0.56065 0.0
H1257 H 0.01001 0.68607 0.56628 0.0
H1258 H 0.95867 0.58769 0.51013 0.0
H1259 H 0.99192 0.60112 0.50007 0.0
H1260 H 0.98137 0.58166 0.52689 0.0
H1261 H 0.99689 0.70493 0.53613 0.0
H1262 H 0.00553 0.69745 0.50756 0.0
H1263 H 0.97163 0.68228 0.51607 0.0
H1264 H -0.00023 0.64818 0.43769 0.0
H1265 H 0.91981 0.61359 0.4624 0.0
H1266 H 0.0285 0.64667 0.48927 0.0
H1267 H 0.031 0.67825 0.49238 0.0
H1268 H 0.03608 0.66778 0.46366 0.0
H1269 H 0.92857 0.60417 0.51955 0.0
H1270 H 0.90925 0.61451 0.50255 0.0
H1271 H 0.93504 0.63734 0.5221 0.0
C1272 C 0.65186 0.98202 0.95187 0.0
C1273 C 0.62494 0.97074 0.94662 0.0
C1274 C 0.66189 0.99422 0.97394 0.0
C1275 C 0.64455 0.99521 0.99097 0.0
C1276 C 0.61739 0.98389 0.98566 0.0
C1277 C 0.60794 0.97177 0.96359 0.0
C1278 C 0.69094 0.00605 0.97907 0.0
C1279 C 0.59827 0.9847 0.00324 0.0
C1280 C 0.65894 0.00645 0.057 0.0
C1281 C 0.66475 0.03265 0.05934 0.0
C1282 C 0.65387 0.99434 0.03455 0.0
C1283 C 0.6546 0.00884 0.0141 0.0
C1284 C 0.66192 0.03572 0.01629 0.0
C1285 C 0.66692 0.0473 0.03888 0.0
C1286 C 0.64632 0.96567 0.03287 0.0
C1287 C 0.6629 0.05187 0.99495 0.0
H1288 H 0.66503 0.98112 0.93883 0.0
H1289 H 0.5871 0.96306 0.95964 0.0
H1290 H 0.69994 0.02752 0.98247 0.0
H1291 H 0.69376 0.99706 0.99536 0.0
H1292 H 0.70168 0.00313 0.96416 0.0
H1293 H 0.5777 0.97467 0.99644 0.0
H1294 H 0.59864 0.97511 0.02013 0.0
H1295 H 0.60425 0.00549 0.00741 0.0
H1296 H 0.6574 0.9951 0.07277 0.0
H1297 H 0.67164 0.06766 0.04054 0.0
H1298 H 0.65753 0.96274 0.01844 0.0
H1299 H 0.62506 0.95362 0.02843 0.0
H1300 H 0.64992 0.95819 0.04979 0.0
H1301 H 0.67452 0.04977 0.9804 0.0
H1302 H 0.67168 0.07314 0.99928 0.0
H1303 H 0.64261 0.04451 0.98814 0.0
C1304 C 0.63045 0.62631 0.44238 0.0
C1305 C 0.65509 0.62935 0.43652 0.0
C1306 C 0.62574 0.63316 0.46502 0.0
C1307 C 0.64635 0.64383 0.48201 0.0
C1308 C 0.67164 0.6481 0.4758 0.0
C1309 C 0.67562 0.64051 0.45319 0.0
C1310 C 0.5984 0.62798 0.47106 0.0
C1311 C 0.69427 0.66003 0.49322 0.0
C1312 C 0.63476 0.67769 0.53438 0.0
C1313 C 0.62548 0.6578 0.55169 0.0
C1314 C 0.64284 0.6739 0.51194 0.0
C1315 C 0.64098 0.6494 0.50656 0.0
C1316 C 0.63238 0.62954 0.52425 0.0
C1317 C 0.62498 0.63411 0.54673 0.0
C1318 C 0.65252 0.69577 0.49377 0.0
C1319 C 0.62979 0.60302 0.5191 0.0
H1320 H 0.61448 0.61751 0.4296 0.0
H1321 H 0.69474 0.64296 0.44867 0.0
H1322 H 0.59012 0.61353 0.48585 0.0
H1323 H 0.59928 0.64641 0.4772 0.0
H1324 H 0.58471 0.62011 0.45568 0.0
H1325 H 0.71321 0.66418 0.48495 0.0
H1326 H 0.69661 0.67869 0.50057 0.0
H1327 H 0.69003 0.64635 0.50837 0.0
H1328 H 0.63531 0.69611 0.53824 0.0
H1329 H 0.61767 0.61865 0.56004 0.0
H1330 H 0.63807 0.68984 0.47903 0.0
H1331 H 0.67149 0.69946 0.48597 0.0
H1332 H 0.65535 0.71448 0.50151 0.0
H1333 H 0.61479 0.59284 0.50501 0.0
H1334 H 0.62387 0.59013 0.53506 0.0
H1335 H 0.64874 0.60559 0.51234 0.0
C1336 C 0.99172 0.65289 0.05439 0.0
C1337 C 0.96866 0.62826 0.05623 0.0
C1338 C 0.00565 0.66113 0.03279 0.0
C1339 C 0.9964 0.64417 0.01278 0.0
C1340 C 0.97271 0.61964 0.01443 0.0
C1341 C 0.95908 0.61207 0.03607 0.0
C1342 C 0.03065 0.68759 0.03157 0.0
C1343 C 0.96229 0.60085 0.99361 0.0
C1344 C 0.02057 0.66672 0.94971 0.0
C1345 C 0.03886 0.65808 0.94694 0.0
C1346 C 0.00738 0.66341 0.97144 0.0
C1347 C 0.01237 0.65085 0.99063 0.0
C1348 C 0.03124 0.64262 0.98803 0.0
C1349 C 0.04436 0.64649 0.96628 0.0
C1350 C 0.98764 0.67274 0.97367 0.0
C1351 C 0.03689 0.62883 0.00794 0.0
H1352 H -0.00089 0.66552 0.06989 0.0
H1353 H 0.94123 0.59302 0.03735 0.0
H1354 H 0.04784 0.68466 0.02925 0.0
H1355 H 0.03014 0.69892 0.01596 0.0
H1356 H 0.03375 0.69951 0.04787 0.0
H1357 H 0.9429 0.58311 0.99747 0.0
H1358 H 0.96012 0.61092 0.97779 0.0
H1359 H 0.97654 0.5943 0.9889 0.0
H1360 H 0.01642 0.67588 0.93485 0.0
H1361 H 0.0585 0.6398 0.96425 0.0
H1362 H 0.99177 0.68508 0.98982 0.0
H1363 H 0.9675 0.65549 0.97565 0.0
H1364 H 0.98786 0.68433 0.95795 0.0
H1365 H 0.04242 0.64098 0.02433 0.0
H1366 H 0.05303 0.6248 0.00343 0.0
H1367 H 0.01885 0.6098 0.01202 0.0
C1368 C 0.33469 0.97539 0.55465 0.0
C1369 C 0.32063 0.94796 0.55774 0.0
C1370 C 0.33903 0.98653 0.53182 0.0
C1371 C 0.32883 0.9698 0.51172 0.0
C1372 C 0.31313 0.9422 0.51492 0.0
C1373 C 0.30934 0.9316 0.53789 0.0
C1374 C 0.35595 0.01606 0.52913 0.0
C1375 C 0.3016 0.92373 0.494 0.0
C1376 C 0.33188 0.0015 0.45182 0.0
C1377 C 0.35516 0.00397 0.44226 0.0
C1378 C 0.32265 0.98989 0.47425 0.0
C1379 C 0.33721 0.98084 0.4874 0.0
C1380 C 0.36034 0.98271 0.47752 0.0
C1381 C 0.36893 0.99413 0.45504 0.0
C1382 C 0.29772 0.98789 0.48411 0.0
C1383 C 0.37646 0.97333 0.49097 0.0
H1384 H 0.34341 0.98809 0.56995 0.0
H1385 H 0.29822 0.91037 0.54022 0.0
H1386 H 0.37503 0.02086 0.5208 0.0
H1387 H 0.34624 0.02378 0.51724 0.0
H1388 H 0.36005 0.02646 0.54647 0.0
H1389 H 0.28709 0.90331 0.49962 0.0
H1390 H 0.29177 0.93086 0.48162 0.0
H1391 H 0.31766 0.92318 0.48401 0.0
H1392 H 0.3212 0.00913 0.44201 0.0
H1393 H 0.38697 0.99603 0.44778 0.0
H1394 H 0.30243 0.00043 0.50019 0.0
H1395 H 0.28375 0.96729 0.4896 0.0
H1396 H 0.28777 0.99422 0.47103 0.0
H1397 H 0.38362 0.98444 0.50789 0.0
H1398 H 0.39378 0.97591 0.48063 0.0
H1399 H 0.36405 0.95216 0.49559 0.0
C1400 C 0.40257 0.35581 0.02788 0.0
C1401 C 0.38634 0.34677 0.04804 0.0
C1402 C 0.39361 0.36101 0.00658 0.0
C1403 C 0.36755 0.35658 0.00523 0.0
C1404 C 0.35069 0.3465 0.02527 0.0
C1405 C 0.3604 0.34199 0.04658 0.0
C1406 C 0.4124 0.37223 0.98581 0.0
C1407 C 0.32263 0.34102 0.02434 0.0
C1408 C 0.35719 0.39872 0.96019 0.0
C1409 C 0.34771 0.38191 0.94043 0.0
C1410 C 0.36306 0.39045 0.98155 0.0
C1411 C 0.35887 0.36451 0.9834 0.0
C1412 C 0.34832 0.34706 0.9638 0.0
C1413 C 0.34313 0.35608 0.94241 0.0
C1414 C 0.37473 0.40986 0.00184 0.0
C1415 C 0.34309 0.31909 0.96528 0.0
H1416 H 0.42267 0.3596 0.02893 0.0
H1417 H 0.34774 0.33481 0.06208 0.0
H1418 H 0.4037 0.35977 0.96982 0.0
H1419 H 0.41586 0.39223 0.98149 0.0
H1420 H 0.43174 0.3737 0.98951 0.0
H1421 H 0.31133 0.33084 0.0406 0.0
H1422 H 0.32254 0.35984 0.02238 0.0
H1423 H 0.31233 0.32867 0.00863 0.0
H1424 H 0.36082 0.41875 0.95876 0.0
H1425 H 0.33562 0.34297 0.92722 0.0
H1426 H 0.39491 0.41362 0.00576 0.0
H1427 H 0.36277 0.40154 0.01816 0.0
H1428 H 0.3759 0.429 0.99781 0.0
H1429 H 0.36204 0.31922 0.96691 0.0
H1430 H 0.33247 0.30728 0.94939 0.0
H1431 H 0.33125 0.30921 0.98136 0.0
C1432 C 0.04562 0.39251 0.54202 0.0
C1433 C 0.03234 0.37785 0.56225 0.0
C1434 C 0.03371 0.38595 0.51957 0.0
C1435 C 0.00791 0.36412 0.51725 0.0
C1436 C 0.99474 0.34864 0.53745 0.0
C1437 C 0.00711 0.35574 0.55978 0.0
C1438 C 0.04838 0.40302 0.49849 0.0
C1439 C 0.96726 0.32512 0.53561 0.0
C1440 C 0.96692 0.36728 0.46665 0.0
C1441 C 0.96918 0.35115 0.44949 0.0
C1442 C 0.97922 0.3714 0.48883 0.0
C1443 C 0.99402 0.35892 0.49407 0.0
C1444 C 0.99623 0.34242 0.4769 0.0
C1445 C 0.98384 0.3388 0.45472 0.0
C1446 C 0.97659 0.38935 0.50657 0.0
C1447 C 0.01176 0.32872 0.48196 0.0
H1448 H 0.0652 0.40957 0.54379 0.0
H1449 H 0.99683 0.34427 0.57535 0.0
H1450 H 0.04891 0.39069 0.48377 0.0
H1451 H 0.0379 0.41314 0.49181 0.0
H1452 H 0.06895 0.41822 0.50299 0.0
H1453 H 0.96065 0.31383 0.55251 0.0
H1454 H 0.95316 0.33183 0.53085 0.0
H1455 H 0.9664 0.31169 0.52128 0.0
H1456 H 0.95561 0.37689 0.4627 0.0
H1457 H 0.98551 0.3262 0.44153 0.0
H1458 H 0.99637 0.40621 0.51088 0.0
H1459 H 0.96791 0.37853 0.52338 0.0
H1460 H 0.96404 0.39723 0.49984 0.0
H1461 H 0.03272 0.34357 0.48533 0.0
H1462 H 0.01086 0.31587 0.46702 0.0
H1463 H 0.0041 0.31649 0.49824 0.0
C1464 C 0.48273 0.05751 0.13974 0.0
C1465 C 0.47805 0.07344 0.12419 0.0
C1466 C 0.5071 0.05836 0.13992 0.0
C1467 C 0.52714 0.0753 0.12393 0.0
C1468 C 0.5226 0.09158 0.10829 0.0
C1469 C 0.49812 0.09058 0.10872 0.0
C1470 C 0.51129 0.04092 0.15706 0.0
C1471 C 0.5434 0.10964 0.0908 0.0
C1472 C 0.59729 0.09145 0.13744 0.0
C1473 C 0.59946 0.07283 0.1234 0.0
C1474 C 0.57396 0.09274 0.13758 0.0
C1475 C 0.5525 0.07521 0.1231 0.0
C1476 C 0.55485 0.05681 0.10847 0.0
C1477 C 0.57825 0.05573 0.10892 0.0
C1478 C 0.57206 0.11242 0.1536 0.0
C1479 C 0.53251 0.038 0.09259 0.0
H1480 H 0.46731 0.04434 0.15183 0.0
H1481 H 0.49453 0.10289 0.09665 0.0
H1482 H 0.51477 0.0266 0.14705 0.0
H1483 H 0.52908 0.05301 0.16806 0.0
H1484 H 0.49414 0.02977 0.16906 0.0
H1485 H 0.53699 0.12148 0.08023 0.0
H1486 H 0.56187 0.1233 0.10032 0.0
H1487 H 0.54813 0.09782 0.07841 0.0
H1488 H 0.61365 0.10467 0.14869 0.0
H1489 H 0.57991 0.04141 0.09792 0.0
H1490 H 0.55614 0.10184 0.16687 0.0
H1491 H 0.56679 0.12515 0.14307 0.0
H1492 H 0.5908 0.1252 0.16321 0.0
H1493 H 0.51517 0.02458 0.10358 0.0
H1494 H 0.53801 0.02584 0.0814 0.0
H1495 H 0.52634 0.04913 0.08079 0.0
C1496 C 0.49852 0.5892 0.58921 0.0
C1497 C 0.51647 0.5937 0.60757 0.0
C1498 C 0.47427 0.56548 0.58808 0.0
C1499 C 0.46773 0.54615 0.60599 0.0
C1500 C 0.48568 0.55082 0.62471 0.0
C1501 C 0.50993 0.57443 0.62514 0.0
C1502 C 0.4558 0.56097 0.56763 0.0
C1503 C 0.47926 0.53089 0.64435 0.0
C1504 C 0.39609 0.49421 0.61659 0.0
C1505 C 0.395 0.47184 0.6064 0.0
C1506 C 0.41957 0.51868 0.61631 0.0
C1507 C 0.44227 0.52084 0.60514 0.0
C1508 C 0.44101 0.49845 0.59423 0.0
C1509 C 0.41745 0.47413 0.59521 0.0
C1510 C 0.42029 0.54201 0.62853 0.0
C1511 C 0.46467 0.50008 0.5818 0.0
H1512 H 0.50359 0.60406 0.57557 0.0
H1513 H 0.52369 0.57793 0.63947 0.0
H1514 H 0.45187 0.54295 0.55773 0.0
H1515 H 0.43658 0.55763 0.57444 0.0
H1516 H 0.4639 0.57788 0.55507 0.0
H1517 H 0.49503 0.53793 0.65803 0.0
H1518 H 0.4605 0.52645 0.65315 0.0
H1519 H 0.47642 0.51213 0.63682 0.0
H1520 H 0.37875 0.49245 0.6253 0.0
H1521 H 0.41658 0.45689 0.58713 0.0
H1522 H 0.42696 0.55873 0.61593 0.0
H1523 H 0.43473 0.54876 0.64335 0.0
H1524 H 0.40074 0.53724 0.63578 0.0
H1525 H 0.47247 0.51613 0.56838 0.0
H1526 H 0.45991 0.48131 0.5728 0.0
H1527 H 0.48064 0.50492 0.59487 0.0
C1528 C 0.95346 0.42751 0.11112 0.0
C1529 C 0.93329 0.40648 0.12378 0.0
C1530 C 0.95469 0.45207 0.11003 0.0
C1531 C 0.93568 0.45573 0.1224 0.0
C1532 C 0.91563 0.43467 0.13564 0.0
C1533 C 0.91448 0.41017 0.13591 0.0
C1534 C 0.97598 0.47391 0.0953 0.0
C1535 C 0.89535 0.438 0.14949 0.0
C1536 C 0.95073 0.52525 0.13688 0.0
C1537 C 0.93495 0.5288 0.12027 0.0
C1538 C 0.95132 0.50159 0.13771 0.0
C1539 C 0.93629 0.48137 0.12111 0.0
C1540 C 0.92096 0.48523 0.10383 0.0
C1541 C 0.92021 0.5088 0.10382 0.0
C1542 C 0.96742 0.49793 0.15672 0.0
C1543 C 0.90515 0.46435 0.08551 0.0
H1544 H 0.96793 0.42459 0.10164 0.0
H1545 H 0.899 0.39394 0.14588 0.0
H1546 H 0.96686 0.48001 0.08121 0.0
H1547 H 0.98803 0.49146 0.10656 0.0
H1548 H 0.98926 0.46785 0.08676 0.0
H1549 H 0.88188 0.42005 0.15982 0.0
H1550 H 0.90534 0.45488 0.16194 0.0
H1551 H 0.88335 0.44252 0.13716 0.0
H1552 H 0.96204 0.5407 0.14968 0.0
H1553 H 0.90818 0.51165 0.09083 0.0
H1554 H 0.98178 0.49319 0.14851 0.0
H1555 H 0.95426 0.48104 0.16828 0.0
H1556 H 0.97836 0.51576 0.16801 0.0
H1557 H 0.91806 0.45859 0.07589 0.0
H1558 H 0.89569 0.47116 0.07234 0.0
H1559 H 0.88951 0.44641 0.09442 0.0
C1560 C 0.39774 0.89679 0.63004 0.0
C1561 C 0.39414 0.9156 0.61779 0.0
C1562 C 0.42214 0.89767 0.62961 0.0
C1563 C 0.4432 0.91752 0.61621 0.0
C1564 C 0.43941 0.93611 0.60325 0.0
C1565 C 0.41497 0.93509 0.60441 0.0
C1566 C 0.42558 0.87782 0.64401 0.0
C1567 C 0.46128 0.95728 0.58844 0.0
C1568 C 0.51321 0.93784 0.6343 0.0
C1569 C 0.51963 0.92368 0.61813 0.0
C1570 C 0.48835 0.93587 0.63392 0.0
C1571 C 0.46958 0.91964 0.61672 0.0
C1572 C 0.47601 0.90545 0.6002 0.0
C1573 C 0.50095 0.90748 0.60122 0.0
C1574 C 0.48211 0.95103 0.65204 0.0
C1575 C 0.45661 0.88826 0.5814 0.0
H1576 H 0.38167 0.88176 0.64047 0.0
H1577 H 0.41214 0.94953 0.59476 0.0
H1578 H 0.43235 0.86704 0.63241 0.0
H1579 H 0.44101 0.8882 0.65772 0.0
H1580 H 0.40705 0.86324 0.653 0.0
H1581 H 0.45461 0.96912 0.57822 0.0
H1582 H 0.47786 0.97077 0.60011 0.0
H1583 H 0.46906 0.94825 0.57581 0.0
H1584 H 0.52757 0.9503 0.64747 0.0
H1585 H 0.50591 0.8966 0.58865 0.0
H1586 H 0.46448 0.93723 0.66253 0.0
H1587 H 0.47736 0.96494 0.64292 0.0
H1588 H 0.49876 0.96242 0.66448 0.0
H1589 H 0.43843 0.8725 0.58991 0.0
H1590 H 0.46484 0.87891 0.56961 0.0
H1591 H 0.45076 0.90019 0.57033 0.0
C1592 C 0.58728 0.5325 0.09403 0.0
C1593 C 0.60526 0.53836 0.11268 0.0
C1594 C 0.56407 0.50789 0.0927 0.0
C1595 C 0.55858 0.48884 0.11063 0.0
C1596 C 0.57663 0.4947 0.12956 0.0
C1597 C 0.59986 0.51935 0.13027 0.0
C1598 C 0.54545 0.50224 0.07211 0.0
C1599 C 0.5713 0.475 0.14914 0.0
C1600 C 0.48745 0.43486 0.11971 0.0
C1601 C 0.48723 0.41323 0.10875 0.0
C1602 C 0.51055 0.4596 0.12045 0.0
C1603 C 0.53387 0.46283 0.10969 0.0
C1604 C 0.53363 0.44116 0.09825 0.0
C1605 C 0.51033 0.41655 0.09806 0.0
C1606 C 0.51011 0.48218 0.13303 0.0
C1607 C 0.55801 0.44395 0.08631 0.0
H1608 H 0.59144 0.54712 0.08035 0.0
H1609 H 0.61367 0.52385 0.14476 0.0
H1610 H 0.54244 0.48443 0.06242 0.0
H1611 H 0.52588 0.49803 0.07879 0.0
H1612 H 0.55287 0.51897 0.05939 0.0
H1613 H 0.58723 0.4827 0.16269 0.0
H1614 H 0.55239 0.46973 0.1581 0.0
H1615 H 0.56925 0.45657 0.14155 0.0
H1616 H 0.46965 0.43234 0.12808 0.0
H1617 H 0.51021 0.39988 0.0895 0.0
H1618 H 0.5159 0.49887 0.12056 0.0
H1619 H 0.52469 0.48945 0.14774 0.0
H1620 H 0.49037 0.4764 0.14048 0.0
H1621 H 0.56525 0.4598 0.07272 0.0
H1622 H 0.55434 0.42537 0.0776 0.0
H1623 H 0.57399 0.44977 0.09959 0.0
C1624 C 0.04556 0.47636 0.6265 0.0
C1625 C 0.06912 0.4758 0.62865 0.0
C1626 C 0.04566 0.50038 0.62622 0.0
C1627 C 0.06988 0.52436 0.62846 0.0
C1628 C 0.09373 0.5239 0.63075 0.0
C1629 C 0.09308 0.49959 0.63066 0.0
C1630 C 0.01985 0.5001 0.62349 0.0
C1631 C 0.11989 0.54905 0.63344 0.0
C1632 C 0.07123 0.58658 0.60715 0.0
C1633 C 0.06677 0.59628 0.62838 0.0
C1634 C 0.07277 0.56341 0.60696 0.0
C1635 C 0.07012 0.54987 0.62856 0.0
C1636 C 0.06655 0.56011 0.65015 0.0
C1637 C 0.06474 0.58313 0.64978 0.0
C1638 C 0.07637 0.55295 0.58356 0.0
C1639 C 0.064 0.54642 0.67358 0.0
H1640 H 0.02701 0.45801 0.62483 0.0
H1641 H 0.11134 0.49922 0.6324 0.0
H1642 H 0.01636 0.50937 0.63923 0.0
H1643 H 0.0207 0.51187 0.60771 0.0
H1644 H 0.00281 0.4798 0.62148 0.0
H1645 H 0.13663 0.54528 0.63516 0.0
H1646 H 0.12352 0.56205 0.61786 0.0
H1647 H 0.11947 0.55999 0.6494 0.0
H1648 H 0.07272 0.59666 0.59056 0.0
H1649 H 0.0614 0.59065 0.66625 0.0
H1650 H 0.05881 0.53342 0.57986 0.0
H1651 H 0.09367 0.55002 0.58445 0.0
H1652 H 0.07919 0.56638 0.56849 0.0
H1653 H 0.04589 0.52672 0.67351 0.0
H1654 H 0.06299 0.55785 0.68892 0.0
H1655 H 0.081 0.54324 0.67616 0.0
C1656 C 0.93562 0.52084 0.3949 0.0
C1657 C 0.92027 0.52659 0.3796 0.0
C1658 C 0.9341 0.49616 0.39435 0.0
C1659 C 0.91692 0.4768 0.37797 0.0
C1660 C 0.9011 0.48235 0.36267 0.0
C1661 C 0.9029 0.50719 0.36372 0.0
C1662 C 0.95116 0.49094 0.41107 0.0
C1663 C 0.88267 0.46224 0.34491 0.0
C1664 C 0.93528 0.42496 0.36222 0.0
C1665 C 0.91843 0.40401 0.37708 0.0
C1666 C 0.93431 0.44844 0.36169 0.0
C1667 C 0.9162 0.45107 0.37653 0.0
C1668 C 0.8986 0.42967 0.39103 0.0
C1669 C 0.89985 0.40632 0.39106 0.0
C1670 C 0.95324 0.47073 0.34581 0.0
C1671 C 0.87911 0.43178 0.40717 0.0
H1672 H 0.94902 0.53574 0.40726 0.0
H1673 H 0.89102 0.51157 0.35183 0.0
H1674 H 0.93873 0.47305 0.42185 0.0
H1675 H 0.96506 0.48712 0.40072 0.0
H1676 H 0.96277 0.50775 0.4233 0.0
H1677 H 0.8711 0.46933 0.3348 0.0
H1678 H 0.89414 0.4575 0.33213 0.0
H1679 H 0.86876 0.44363 0.35412 0.0
H1680 H 0.94959 0.42321 0.35129 0.0
H1681 H 0.88679 0.39017 0.40259 0.0
H1682 H 0.96725 0.4877 0.35686 0.0
H1683 H 0.94235 0.47762 0.33451 0.0
H1684 H 0.96475 0.46486 0.33412 0.0
H1685 H 0.8899 0.44698 0.42097 0.0
H1686 H 0.86564 0.4128 0.41615 0.0
H1687 H 0.8671 0.43817 0.39691 0.0
C1688 C 0.51282 0.93751 0.86532 0.0
C1689 C 0.51698 0.92015 0.87936 0.0
C1690 C 0.48866 0.93711 0.86592 0.0
C1691 C 0.46828 0.91904 0.88107 0.0
C1692 C 0.47216 0.90103 0.89487 0.0
C1693 C 0.49647 0.90174 0.89378 0.0
C1694 C 0.48517 0.95646 0.85077 0.0
C1695 C 0.45092 0.88156 0.9113 0.0
C1696 C 0.41851 0.93874 0.90078 0.0
C1697 C 0.39734 0.92381 0.88542 0.0
C1698 C 0.44149 0.93689 0.89991 0.0
C1699 C 0.44337 0.91982 0.88318 0.0
C1700 C 0.42184 0.9043 0.86795 0.0
C1701 C 0.39903 0.90643 0.8693 0.0
C1702 C 0.46397 0.95362 0.91657 0.0
C1703 C 0.42317 0.88596 0.84983 0.0
H1704 H 0.5286 0.95171 0.85408 0.0
H1705 H 0.49963 0.8883 0.9047 0.0
H1706 H 0.46728 0.94584 0.83956 0.0
H1707 H 0.48232 0.97019 0.86234 0.0
H1708 H 0.50242 0.96825 0.83903 0.0
H1709 H 0.45658 0.86804 0.91995 0.0
H1710 H 0.44684 0.89235 0.92535 0.0
H1711 H 0.43229 0.86959 0.90134 0.0
H1712 H 0.41726 0.95214 0.91332 0.0
H1713 H 0.38271 0.89487 0.85736 0.0
H1714 H 0.48153 0.96774 0.90618 0.0
H1715 H 0.4696 0.94099 0.92683 0.0
H1716 H 0.4589 0.96496 0.92927 0.0
H1717 H 0.4391 0.89753 0.83682 0.0
H1718 H 0.40432 0.87442 0.84001 0.0
H1719 H 0.4281 0.87202 0.85866 0.0
C1720 C 0.48351 0.41141 0.35957 0.0
C1721 C 0.47893 0.39118 0.37553 0.0
C1722 C 0.50725 0.43559 0.36009 0.0
C1723 C 0.52661 0.43975 0.3773 0.0
C1724 C 0.52217 0.41928 0.39333 0.0
C1725 C 0.49844 0.39512 0.39211 0.0
C1726 C 0.51147 0.45679 0.34243 0.0
C1727 C 0.54219 0.42315 0.41214 0.0
C1728 C 0.59654 0.49575 0.36689 0.0
C1729 C 0.59674 0.51617 0.38009 0.0
C1730 C 0.57391 0.47065 0.36598 0.0
C1731 C 0.55116 0.46581 0.37891 0.0
C1732 C 0.55156 0.48616 0.39285 0.0
C1733 C 0.5743 0.51118 0.39311 0.0
C1734 C 0.57409 0.44954 0.35068 0.0
C1735 C 0.52782 0.48162 0.4072 0.0
H1736 H 0.46849 0.40835 0.34666 0.0
H1737 H 0.49488 0.37955 0.40457 0.0
H1738 H 0.51325 0.47421 0.35196 0.0
H1739 H 0.53017 0.46341 0.33257 0.0
H1740 H 0.49506 0.44993 0.32942 0.0
H1741 H 0.53597 0.40507 0.42293 0.0
H1742 H 0.5615 0.42892 0.40379 0.0
H1743 H 0.54523 0.43944 0.42421 0.0
H1744 H 0.61384 0.4996 0.35671 0.0
H1745 H 0.57445 0.52691 0.40342 0.0
H1746 H 0.55901 0.4436 0.33649 0.0
H1747 H 0.56883 0.43171 0.36147 0.0
H1748 H 0.5936 0.45626 0.34224 0.0
H1749 H 0.51109 0.47705 0.39512 0.0
H1750 H 0.53185 0.49906 0.41813 0.0
H1751 H 0.52147 0.46439 0.41914 0.0
C1752 C 0.0877 0.48777 0.86808 0.0
C1753 C 0.07039 0.46796 0.88367 0.0
C1754 C 0.08882 0.5123 0.86719 0.0
C1755 C 0.07261 0.51723 0.88258 0.0
C1756 C 0.05533 0.49738 0.89856 0.0
C1757 C 0.05426 0.47289 0.89875 0.0
C1758 C 0.10716 0.53284 0.84965 0.0
C1759 C 0.03806 0.50204 0.91553 0.0
C1760 C 0.0925 0.5884 0.89604 0.0
C1761 C 0.07478 0.5919 0.8819 0.0
C1762 C 0.092 0.56417 0.89645 0.0
C1763 C 0.07366 0.54315 0.88203 0.0
C1764 C 0.05598 0.54672 0.86744 0.0
C1765 C 0.05658 0.571 0.86772 0.0
C1766 C 0.11084 0.56096 0.91257 0.0
C1767 C 0.03643 0.5249 0.85153 0.0
H1768 H 0.10009 0.48395 0.85631 0.0
H1769 H 0.04094 0.45764 0.9109 0.0
H1770 H 0.09574 0.53847 0.83766 0.0
H1771 H 0.12159 0.55094 0.85921 0.0
H1772 H 0.11816 0.52575 0.83867 0.0
H1773 H 0.02618 0.48476 0.92721 0.0
H1774 H 0.05043 0.51945 0.92686 0.0
H1775 H 0.02444 0.50642 0.90542 0.0
H1776 H 0.10652 0.6045 0.9071 0.0
H1777 H 0.04296 0.57372 0.85666 0.0
H1778 H 0.1234 0.55552 0.90197 0.0
H1779 H 0.09958 0.54469 0.92536 0.0
H1780 H 0.12383 0.57923 0.92271 0.0
H1781 H 0.04694 0.51821 0.83947 0.0
H1782 H 0.02473 0.53118 0.84061 0.0
H1783 H 0.02265 0.50766 0.86244 0.0
C1784 C 0.5721 0.05326 0.39823 0.0
C1785 C 0.59547 0.07579 0.39117 0.0
C1786 C 0.54792 0.05281 0.39781 0.0
C1787 C 0.54709 0.07538 0.38996 0.0
C1788 C 0.5707 0.09836 0.38322 0.0
C1789 C 0.59466 0.09833 0.38399 0.0
C1790 C 0.52317 0.028 0.40533 0.0
C1791 C 0.57056 0.12274 0.37463 0.0
C1792 C 0.48129 0.06262 0.36562 0.0
C1793 C 0.47082 0.06927 0.38509 0.0
C1794 C 0.50641 0.06517 0.36677 0.0
C1795 C 0.52132 0.07447 0.38796 0.0
C1796 C 0.51112 0.08183 0.40748 0.0
C1797 C 0.48598 0.0792 0.40578 0.0
C1798 C 0.5167 0.05731 0.34552 0.0
C1799 C 0.52643 0.09177 0.43037 0.0
H1800 H 0.57266 0.03583 0.40387 0.0
H1801 H 0.61269 0.11578 0.37848 0.0
H1802 H 0.51288 0.03259 0.41949 0.0
H1803 H 0.50944 0.01981 0.39004 0.0
H1804 H 0.52736 0.0126 0.41201 0.0
H1805 H 0.59075 0.13934 0.37098 0.0
H1806 H 0.55874 0.11815 0.3581 0.0
H1807 H 0.56111 0.12923 0.38806 0.0
H1808 H 0.46968 0.055 0.34955 0.0
H1809 H 0.47795 0.08436 0.42089 0.0
H1810 H 0.51924 0.04029 0.35021 0.0
H1811 H 0.53636 0.07377 0.34025 0.0
H1812 H 0.50325 0.05175 0.32998 0.0
H1813 H 0.52923 0.07606 0.43847 0.0
H1814 H 0.51629 0.09789 0.44345 0.0
H1815 H 0.54633 0.10882 0.42677 0.0
C1816 C 0.53144 0.58195 0.88641 0.0
C1817 C 0.53553 0.60219 0.87063 0.0
C1818 C 0.50718 0.55833 0.88722 0.0
C1819 C 0.48677 0.55465 0.87147 0.0
C1820 C 0.49103 0.57478 0.85507 0.0
C1821 C 0.5153 0.5985 0.85505 0.0
C1822 C 0.50322 0.53756 0.90528 0.0
C1823 C 0.46991 0.57131 0.83765 0.0
C1824 C 0.43225 0.48403 0.86104 0.0
C1825 C 0.4119 0.48268 0.87518 0.0
C1826 C 0.45659 0.50751 0.85928 0.0
C1827 C 0.46081 0.5299 0.87249 0.0
C1828 C 0.44039 0.5285 0.88703 0.0
C1829 C 0.41602 0.50497 0.88795 0.0
C1830 C 0.47769 0.50842 0.8432 0.0
C1831 C 0.44437 0.55176 0.90181 0.0
H1832 H 0.547 0.58485 0.89861 0.0
H1833 H 0.51849 0.6141 0.84277 0.0
H1834 H 0.4865 0.53358 0.91718 0.0
H1835 H 0.49808 0.51877 0.89619 0.0
H1836 H 0.52106 0.54357 0.91634 0.0
H1837 H 0.4768 0.58832 0.8253 0.0
H1838 H 0.46345 0.5531 0.82704 0.0
H1839 H 0.45238 0.56896 0.84739 0.0
H1840 H 0.42898 0.46685 0.85098 0.0
H1841 H 0.40031 0.50389 0.89898 0.0
H1842 H 0.49538 0.51268 0.85377 0.0
H1843 H 0.48387 0.52461 0.83006 0.0
H1844 H 0.47091 0.4896 0.83346 0.0
H1845 H 0.4613 0.55779 0.91405 0.0
H1846 H 0.42664 0.54729 0.9125 0.0
H1847 H 0.4492 0.56887 0.89014 0.0
loop_
_geom_bond_atom_site_label_1
_geom_bond_atom_site_label_2
_geom_bond_distance
_geom_bond_site_symmetry_2
_ccdc_geom_bond_type
In0 O1 2.294 . S
In0 O2 2.326 . S
In0 O6 2.266 . S
In0 O7 2.326 . S
In0 O8 2.266 . S
In0 O9 2.326 . S
In0 O11 2.294 . S
In0 O12 2.326 . S
O1 In0 2.294 . S
O1 C10 1.240 . S
O2 In0 2.326 . S
O2 C10 1.252 . S
C3 O6 1.252 . S
C3 O7 1.260 . S
C4 O11 1.240 . S
C4 O12 1.252 . S
C5 O8 1.252 . S
C5 O9 1.260 . S
O6 In0 2.266 . S
O6 C3 1.252 . S
O7 In0 2.326 . S
O7 C3 1.260 . S
O8 In0 2.266 . S
O8 C5 1.252 . S
O9 In0 2.326 . S
O9 C5 1.260 . S
C10 O1 1.240 . S
C10 O2 1.252 . S
O11 In0 2.294 . S
O11 C4 1.240 . S
O12 In0 2.326 . S
O12 C4 1.252 . S
In13 O14 2.294 . S
In13 O15 2.326 . S
In13 O19 2.266 . S
In13 O20 2.326 . S
In13 O21 2.266 . S
In13 O22 2.326 . S
In13 O24 2.294 . S
In13 O25 2.326 . S
O14 In13 2.294 . S
O14 C23 1.240 . S
O15 In13 2.326 . S
O15 C23 1.252 . S
C16 O19 1.252 . S
C16 O20 1.260 . S
C17 O24 1.240 . S
C17 O25 1.252 . S
C18 O21 1.252 . S
C18 O22 1.260 . S
O19 In13 2.266 . S
O19 C16 1.252 . S
O20 In13 2.326 . S
O20 C16 1.260 . S
O21 In13 2.266 . S
O21 C18 1.252 . S
O22 In13 2.326 . S
O22 C18 1.260 . S
C23 O14 1.240 . S
C23 O15 1.252 . S
O24 In13 2.294 . S
O24 C17 1.240 . S
O25 In13 2.326 . S
O25 C17 1.252 . S
In26 O27 2.294 . S
In26 O28 2.326 . S
In26 O32 2.266 . S
In26 O33 2.326 . S
In26 O34 2.266 . S
In26 O35 2.326 . S
In26 O37 2.294 . S
In26 O38 2.326 . S
O27 In26 2.294 . S
O27 C36 1.240 . S
O28 In26 2.326 . S
O28 C36 1.252 . S
C29 O32 1.252 . S
C29 O33 1.260 . S
C30 O37 1.240 . S
C30 O38 1.252 . S
C31 O34 1.252 . S
C31 O35 1.260 . S
O32 In26 2.266 . S
O32 C29 1.252 . S
O33 In26 2.326 . S
O33 C29 1.260 . S
O34 In26 2.266 . S
O34 C31 1.252 . S
O35 In26 2.326 . S
O35 C31 1.260 . S
C36 O27 1.240 . S
C36 O28 1.252 . S
O37 In26 2.294 . S
O37 C30 1.240 . S
O38 In26 2.326 . S
O38 C30 1.252 . S
In39 O40 2.294 . S
In39 O41 2.326 . S
In39 O45 2.266 . S
In39 O46 2.326 . S
In39 O47 2.266 . S
In39 O48 2.326 . S
In39 O50 2.294 . S
In39 O51 2.326 . S
O40 In39 2.294 . S
O40 C49 1.240 . S
O41 In39 2.326 . S
O41 C49 1.252 . S
C42 O45 1.252 . S
C42 O46 1.260 . S
C43 O50 1.240 . S
C43 O51 1.252 . S
C44 O47 1.252 . S
C44 O48 1.260 . S
O45 In39 2.266 . S
O45 C42 1.252 . S
O46 In39 2.326 . S
O46 C42 1.260 . S
O47 In39 2.266 . S
O47 C44 1.252 . S
O48 In39 2.326 . S
O48 C44 1.260 . S
C49 O40 1.240 . S
C49 O41 1.252 . S
O50 In39 2.294 . S
O50 C43 1.240 . S
O51 In39 2.326 . S
O51 C43 1.252 . S
In52 O53 2.294 . S
In52 O54 2.326 . S
In52 O58 2.266 . S
In52 O59 2.326 . S
In52 O60 2.266 . S
In52 O61 2.326 . S
In52 O63 2.294 . S
In52 O64 2.326 . S
O53 In52 2.294 . S
O53 C62 1.240 . S
O54 In52 2.326 . S
O54 C62 1.252 . S
C55 O58 1.252 . S
C55 O59 1.260 . S
C56 O63 1.240 . S
C56 O64 1.252 . S
C57 O60 1.252 . S
C57 O61 1.260 . S
O58 In52 2.266 . S
O58 C55 1.252 . S
O59 In52 2.326 . S
O59 C55 1.260 . S
O60 In52 2.266 . S
O60 C57 1.252 . S
O61 In52 2.326 . S
O61 C57 1.260 . S
C62 O53 1.240 . S
C62 O54 1.252 . S
O63 In52 2.294 . S
O63 C56 1.240 . S
O64 In52 2.326 . S
O64 C56 1.252 . S
In65 O66 2.294 . S
In65 O67 2.326 . S
In65 O71 2.266 . S
In65 O72 2.326 . S
In65 O73 2.266 . S
In65 O74 2.326 . S
In65 O76 2.294 . S
In65 O77 2.326 . S
O66 In65 2.294 . S
O66 C75 1.240 . S
O67 In65 2.326 . S
O67 C75 1.252 . S
C68 O71 1.252 . S
C68 O72 1.260 . S
C69 O76 1.240 . S
C69 O77 1.252 . S
C70 O73 1.252 . S
C70 O74 1.260 . S
O71 In65 2.266 . S
O71 C68 1.252 . S
O72 In65 2.326 . S
O72 C68 1.260 . S
O73 In65 2.266 . S
O73 C70 1.252 . S
O74 In65 2.326 . S
O74 C70 1.260 . S
C75 O66 1.240 . S
C75 O67 1.252 . S
O76 In65 2.294 . S
O76 C69 1.240 . S
O77 In65 2.326 . S
O77 C69 1.252 . S
In78 O79 2.294 . S
In78 O80 2.326 . S
In78 O84 2.266 . S
In78 O85 2.326 . S
In78 O86 2.266 . S
In78 O87 2.326 . S
In78 O89 2.294 . S
In78 O90 2.326 . S
O79 In78 2.294 . S
O79 C88 1.240 . S
O80 In78 2.326 . S
O80 C88 1.252 . S
C81 O84 1.252 . S
C81 O85 1.260 . S
C82 O89 1.240 . S
C82 O90 1.252 . S
C83 O86 1.252 . S
C83 O87 1.260 . S
O84 In78 2.266 . S
O84 C81 1.252 . S
O85 In78 2.326 . S
O85 C81 1.260 . S
O86 In78 2.266 . S
O86 C83 1.252 . S
O87 In78 2.326 . S
O87 C83 1.260 . S
C88 O79 1.240 . S
C88 O80 1.252 . S
O89 In78 2.294 . S
O89 C82 1.240 . S
O90 In78 2.326 . S
O90 C82 1.252 . S
In91 O92 2.294 . S
In91 O93 2.326 . S
In91 O97 2.266 . S
In91 O98 2.326 . S
In91 O99 2.266 . S
In91 O100 2.326 . S
In91 O102 2.294 . S
In91 O103 2.326 . S
O92 In91 2.294 . S
O92 C101 1.240 . S
O93 In91 2.326 . S
O93 C101 1.252 . S
C94 O97 1.252 . S
C94 O98 1.260 . S
C95 O102 1.240 . S
C95 O103 1.252 . S
C96 O99 1.252 . S
C96 O100 1.260 . S
O97 In91 2.266 . S
O97 C94 1.252 . S
O98 In91 2.326 . S
O98 C94 1.260 . S
O99 In91 2.266 . S
O99 C96 1.252 . S
O100 In91 2.326 . S
O100 C96 1.260 . S
C101 O92 1.240 . S
C101 O93 1.252 . S
O102 In91 2.294 . S
O102 C95 1.240 . S
O103 In91 2.326 . S
O103 C95 1.252 . S
In104 O105 2.294 . S
In104 O106 2.326 . S
In104 O110 2.266 . S
In104 O111 2.326 . S
In104 O112 2.266 . S
In104 O113 2.326 . S
In104 O115 2.294 . S
In104 O116 2.326 . S
O105 In104 2.294 . S
O105 C114 1.240 . S
O106 In104 2.326 . S
O106 C114 1.252 . S
C107 O110 1.252 . S
C107 O111 1.260 . S
C108 O115 1.240 . S
C108 O116 1.252 . S
C109 O112 1.252 . S
C109 O113 1.260 . S
O110 In104 2.266 . S
O110 C107 1.252 . S
O111 In104 2.326 . S
O111 C107 1.260 . S
O112 In104 2.266 . S
O112 C109 1.252 . S
O113 In104 2.326 . S
O113 C109 1.260 . S
C114 O105 1.240 . S
C114 O106 1.252 . S
O115 In104 2.294 . S
O115 C108 1.240 . S
O116 In104 2.326 . S
O116 C108 1.252 . S
In117 O118 2.294 . S
In117 O119 2.326 . S
In117 O123 2.266 . S
In117 O124 2.326 . S
In117 O125 2.266 . S
In117 O126 2.326 . S
In117 O128 2.294 . S
In117 O129 2.326 . S
O118 In117 2.294 . S
O118 C127 1.240 . S
O119 In117 2.326 . S
O119 C127 1.252 . S
C120 O123 1.252 . S
C120 O124 1.260 . S
C121 O128 1.240 . S
C121 O129 1.252 . S
C122 O125 1.252 . S
C122 O126 1.260 . S
O123 In117 2.266 . S
O123 C120 1.252 . S
O124 In117 2.326 . S
O124 C120 1.260 . S
O125 In117 2.266 . S
O125 C122 1.252 . S
O126 In117 2.326 . S
O126 C122 1.260 . S
C127 O118 1.240 . S
C127 O119 1.252 . S
O128 In117 2.294 . S
O128 C121 1.240 . S
O129 In117 2.326 . S
O129 C121 1.252 . S
In130 O131 2.294 . S
In130 O132 2.326 . S
In130 O136 2.266 . S
In130 O137 2.326 . S
In130 O138 2.266 . S
In130 O139 2.326 . S
In130 O141 2.294 . S
In130 O142 2.326 . S
O131 In130 2.294 . S
O131 C140 1.240 . S
O132 In130 2.326 . S
O132 C140 1.252 . S
C133 O136 1.252 . S
C133 O137 1.260 . S
C134 O141 1.240 . S
C134 O142 1.252 . S
C135 O138 1.252 . S
C135 O139 1.260 . S
O136 In130 2.266 . S
O136 C133 1.252 . S
O137 In130 2.326 . S
O137 C133 1.260 . S
O138 In130 2.266 . S
O138 C135 1.252 . S
O139 In130 2.326 . S
O139 C135 1.260 . S
C140 O131 1.240 . S
C140 O132 1.252 . S
O141 In130 2.294 . S
O141 C134 1.240 . S
O142 In130 2.326 . S
O142 C134 1.252 . S
In143 O144 2.294 . S
In143 O145 2.326 . S
In143 O149 2.266 . S
In143 O150 2.326 . S
In143 O151 2.266 . S
In143 O152 2.326 . S
In143 O154 2.294 . S
In143 O155 2.326 . S
O144 In143 2.294 . S
O144 C153 1.240 . S
O145 In143 2.326 . S
O145 C153 1.252 . S
C146 O149 1.252 . S
C146 O150 1.260 . S
C147 O154 1.240 . S
C147 O155 1.252 . S
C148 O151 1.252 . S
C148 O152 1.260 . S
O149 In143 2.266 . S
O149 C146 1.252 . S
O150 In143 2.326 . S
O150 C146 1.260 . S
O151 In143 2.266 . S
O151 C148 1.252 . S
O152 In143 2.326 . S
O152 C148 1.260 . S
C153 O144 1.240 . S
C153 O145 1.252 . S
O154 In143 2.294 . S
O154 C147 1.240 . S
O155 In143 2.326 . S
O155 C147 1.252 . S
In156 O157 2.294 . S
In156 O158 2.326 . S
In156 O162 2.266 . S
In156 O163 2.326 . S
In156 O164 2.266 . S
In156 O165 2.326 . S
In156 O167 2.294 . S
In156 O168 2.326 . S
O157 In156 2.294 . S
O157 C166 1.240 . S
O158 In156 2.326 . S
O158 C166 1.252 . S
C159 O162 1.252 . S
C159 O163 1.260 . S
C160 O167 1.240 . S
C160 O168 1.252 . S
C161 O164 1.252 . S
C161 O165 1.260 . S
O162 In156 2.266 . S
O162 C159 1.252 . S
O163 In156 2.326 . S
O163 C159 1.260 . S
O164 In156 2.266 . S
O164 C161 1.252 . S
O165 In156 2.326 . S
O165 C161 1.260 . S
C166 O157 1.240 . S
C166 O158 1.252 . S
O167 In156 2.294 . S
O167 C160 1.240 . S
O168 In156 2.326 . S
O168 C160 1.252 . S
In169 O170 2.294 . S
In169 O171 2.326 . S
In169 O175 2.266 . S
In169 O176 2.326 . S
In169 O177 2.266 . S
In169 O178 2.326 . S
In169 O180 2.294 . S
In169 O181 2.326 . S
O170 In169 2.294 . S
O170 C179 1.240 . S
O171 In169 2.326 . S
O171 C179 1.252 . S
C172 O175 1.252 . S
C172 O176 1.260 . S
C173 O180 1.240 . S
C173 O181 1.252 . S
C174 O177 1.252 . S
C174 O178 1.260 . S
O175 In169 2.266 . S
O175 C172 1.252 . S
O176 In169 2.326 . S
O176 C172 1.260 . S
O177 In169 2.266 . S
O177 C174 1.252 . S
O178 In169 2.326 . S
O178 C174 1.260 . S
C179 O170 1.240 . S
C179 O171 1.252 . S
O180 In169 2.294 . S
O180 C173 1.240 . S
O181 In169 2.326 . S
O181 C173 1.252 . S
In182 O183 2.294 . S
In182 O184 2.326 . S
In182 O188 2.266 . S
In182 O189 2.326 . S
In182 O190 2.266 . S
In182 O191 2.326 . S
In182 O193 2.294 . S
In182 O194 2.326 . S
O183 In182 2.294 . S
O183 C192 1.240 . S
O184 In182 2.326 . S
O184 C192 1.252 . S
C185 O188 1.252 . S
C185 O189 1.260 . S
C186 O193 1.240 . S
C186 O194 1.252 . S
C187 O190 1.252 . S
C187 O191 1.260 . S
O188 In182 2.266 . S
O188 C185 1.252 . S
O189 In182 2.326 . S
O189 C185 1.260 . S
O190 In182 2.266 . S
O190 C187 1.252 . S
O191 In182 2.326 . S
O191 C187 1.260 . S
C192 O183 1.240 . S
C192 O184 1.252 . S
O193 In182 2.294 . S
O193 C186 1.240 . S
O194 In182 2.326 . S
O194 C186 1.252 . S
In195 O196 2.294 . S
In195 O197 2.326 . S
In195 O201 2.266 . S
In195 O202 2.326 . S
In195 O203 2.266 . S
In195 O204 2.326 . S
In195 O206 2.294 . S
In195 O207 2.326 . S
O196 In195 2.294 . S
O196 C205 1.240 . S
O197 In195 2.326 . S
O197 C205 1.252 . S
C198 O201 1.252 . S
C198 O202 1.260 . S
C199 O206 1.240 . S
C199 O207 1.252 . S
C200 O203 1.252 . S
C200 O204 1.260 . S
O201 In195 2.266 . S
O201 C198 1.252 . S
O202 In195 2.326 . S
O202 C198 1.260 . S
O203 In195 2.266 . S
O203 C200 1.252 . S
O204 In195 2.326 . S
O204 C200 1.260 . S
C205 O196 1.240 . S
C205 O197 1.252 . S
O206 In195 2.294 . S
O206 C199 1.240 . S
O207 In195 2.326 . S
O207 C199 1.252 . S
In208 O209 2.294 . S
In208 O210 2.326 . S
In208 O214 2.266 . S
In208 O215 2.326 . S
In208 O216 2.266 . S
In208 O217 2.326 . S
In208 O219 2.294 . S
In208 O220 2.326 . S
O209 In208 2.294 . S
O209 C218 1.240 . S
O210 In208 2.326 . S
O210 C218 1.252 . S
C211 O214 1.252 . S
C211 O215 1.260 . S
C212 O219 1.240 . S
C212 O220 1.252 . S
C213 O216 1.252 . S
C213 O217 1.260 . S
O214 In208 2.266 . S
O214 C211 1.252 . S
O215 In208 2.326 . S
O215 C211 1.260 . S
O216 In208 2.266 . S
O216 C213 1.252 . S
O217 In208 2.326 . S
O217 C213 1.260 . S
C218 O209 1.240 . S
C218 O210 1.252 . S
O219 In208 2.294 . S
O219 C212 1.240 . S
O220 In208 2.326 . S
O220 C212 1.252 . S
In221 O222 2.294 . S
In221 O223 2.326 . S
In221 O227 2.266 . S
In221 O228 2.326 . S
In221 O229 2.266 . S
In221 O230 2.326 . S
In221 O232 2.294 . S
In221 O233 2.326 . S
O222 In221 2.294 . S
O222 C231 1.240 . S
O223 In221 2.326 . S
O223 C231 1.252 . S
C224 O227 1.252 . S
C224 O228 1.260 . S
C225 O232 1.240 . S
C225 O233 1.252 . S
C226 O229 1.252 . S
C226 O230 1.260 . S
O227 In221 2.266 . S
O227 C224 1.252 . S
O228 In221 2.326 . S
O228 C224 1.260 . S
O229 In221 2.266 . S
O229 C226 1.252 . S
O230 In221 2.326 . S
O230 C226 1.260 . S
C231 O222 1.240 . S
C231 O223 1.252 . S
O232 In221 2.294 . S
O232 C225 1.240 . S
O233 In221 2.326 . S
O233 C225 1.252 . S
In234 O235 2.294 . S
In234 O236 2.326 . S
In234 O240 2.266 . S
In234 O241 2.326 . S
In234 O242 2.266 . S
In234 O243 2.326 . S
In234 O245 2.294 . S
In234 O246 2.326 . S
O235 In234 2.294 . S
O235 C244 1.240 . S
O236 In234 2.326 . S
O236 C244 1.252 . S
C237 O240 1.252 . S
C237 O241 1.260 . S
C238 O245 1.240 . S
C238 O246 1.252 . S
C239 O242 1.252 . S
C239 O243 1.260 . S
O240 In234 2.266 . S
O240 C237 1.252 . S
O241 In234 2.326 . S
O241 C237 1.260 . S
O242 In234 2.266 . S
O242 C239 1.252 . S
O243 In234 2.326 . S
O243 C239 1.260 . S
C244 O235 1.240 . S
C244 O236 1.252 . S
O245 In234 2.294 . S
O245 C238 1.240 . S
O246 In234 2.326 . S
O246 C238 1.252 . S
In247 O248 2.294 . S
In247 O249 2.326 . S
In247 O253 2.266 . S
In247 O254 2.326 . S
In247 O255 2.266 . S
In247 O256 2.326 . S
In247 O258 2.294 . S
In247 O259 2.326 . S
O248 In247 2.294 . S
O248 C257 1.240 . S
O249 In247 2.326 . S
O249 C257 1.252 . S
C250 O253 1.252 . S
C250 O254 1.260 . S
C251 O258 1.240 . S
C251 O259 1.252 . S
C252 O255 1.252 . S
C252 O256 1.260 . S
O253 In247 2.266 . S
O253 C250 1.252 . S
O254 In247 2.326 . S
O254 C250 1.260 . S
O255 In247 2.266 . S
O255 C252 1.252 . S
O256 In247 2.326 . S
O256 C252 1.260 . S
C257 O248 1.240 . S
C257 O249 1.252 . S
O258 In247 2.294 . S
O258 C251 1.240 . S
O259 In247 2.326 . S
O259 C251 1.252 . S
In260 O261 2.294 . S
In260 O262 2.326 . S
In260 O266 2.266 . S
In260 O267 2.326 . S
In260 O268 2.266 . S
In260 O269 2.326 . S
In260 O271 2.294 . S
In260 O272 2.326 . S
O261 In260 2.294 . S
O261 C270 1.240 . S
O262 In260 2.326 . S
O262 C270 1.252 . S
C263 O266 1.252 . S
C263 O267 1.260 . S
C264 O271 1.240 . S
C264 O272 1.252 . S
C265 O268 1.252 . S
C265 O269 1.260 . S
O266 In260 2.266 . S
O266 C263 1.252 . S
O267 In260 2.326 . S
O267 C263 1.260 . S
O268 In260 2.266 . S
O268 C265 1.252 . S
O269 In260 2.326 . S
O269 C265 1.260 . S
C270 O261 1.240 . S
C270 O262 1.252 . S
O271 In260 2.294 . S
O271 C264 1.240 . S
O272 In260 2.326 . S
O272 C264 1.252 . S
In273 O274 2.294 . S
In273 O275 2.326 . S
In273 O279 2.266 . S
In273 O280 2.326 . S
In273 O281 2.266 . S
In273 O282 2.326 . S
In273 O284 2.294 . S
In273 O285 2.326 . S
O274 In273 2.294 . S
O274 C283 1.240 . S
O275 In273 2.326 . S
O275 C283 1.252 . S
C276 O279 1.252 . S
C276 O280 1.260 . S
C277 O284 1.240 . S
C277 O285 1.252 . S
C278 O281 1.252 . S
C278 O282 1.260 . S
O279 In273 2.266 . S
O279 C276 1.252 . S
O280 In273 2.326 . S
O280 C276 1.260 . S
O281 In273 2.266 . S
O281 C278 1.252 . S
O282 In273 2.326 . S
O282 C278 1.260 . S
C283 O274 1.240 . S
C283 O275 1.252 . S
O284 In273 2.294 . S
O284 C277 1.240 . S
O285 In273 2.326 . S
O285 C277 1.252 . S
In286 O287 2.294 . S
In286 O288 2.326 . S
In286 O292 2.266 . S
In286 O293 2.326 . S
In286 O294 2.266 . S
In286 O295 2.326 . S
In286 O297 2.294 . S
In286 O298 2.326 . S
O287 In286 2.294 . S
O287 C296 1.240 . S
O288 In286 2.326 . S
O288 C296 1.252 . S
C289 O292 1.252 . S
C289 O293 1.260 . S
C290 O297 1.240 . S
C290 O298 1.252 . S
C291 O294 1.252 . S
C291 O295 1.260 . S
O292 In286 2.266 . S
O292 C289 1.252 . S
O293 In286 2.326 . S
O293 C289 1.260 . S
O294 In286 2.266 . S
O294 C291 1.252 . S
O295 In286 2.326 . S
O295 C291 1.260 . S
C296 O287 1.240 . S
C296 O288 1.252 . S
O297 In286 2.294 . S
O297 C290 1.240 . S
O298 In286 2.326 . S
O298 C290 1.252 . S
In299 O300 2.294 . S
In299 O301 2.326 . S
In299 O305 2.266 . S
In299 O306 2.326 . S
In299 O307 2.266 . S
In299 O308 2.326 . S
In299 O310 2.294 . S
In299 O311 2.326 . S
O300 In299 2.294 . S
O300 C309 1.240 . S
O301 In299 2.326 . S
O301 C309 1.252 . S
C302 O305 1.252 . S
C302 O306 1.260 . S
C303 O310 1.240 . S
C303 O311 1.252 . S
C304 O307 1.252 . S
C304 O308 1.260 . S
O305 In299 2.266 . S
O305 C302 1.252 . S
O306 In299 2.326 . S
O306 C302 1.260 . S
O307 In299 2.266 . S
O307 C304 1.252 . S
O308 In299 2.326 . S
O308 C304 1.260 . S
C309 O300 1.240 . S
C309 O301 1.252 . S
O310 In299 2.294 . S
O310 C303 1.240 . S
O311 In299 2.326 . S
O311 C303 1.252 . S
C312 C313 1.391 . S
C312 C314 1.394 . S
C312 H328 0.931 . S
C313 C312 1.391 . S
C313 C317 1.376 . S
C314 C312 1.394 . S
C314 C315 1.369 . S
C314 C318 1.531 . S
C315 C314 1.369 . S
C315 C316 1.410 . S
C315 C323 1.503 . S
C316 C315 1.410 . S
C316 C317 1.392 . S
C316 C319 1.511 . S
C317 C313 1.376 . S
C317 C316 1.392 . S
C317 H329 0.929 . S
C318 C314 1.531 . S
C318 H330 0.960 . S
C318 H331 0.962 . S
C318 H332 0.960 . S
C319 C316 1.511 . S
C319 H333 0.961 . S
C319 H334 0.961 . S
C319 H335 0.961 . S
C320 C321 1.370 . S
C320 C322 1.363 . S
C320 H336 0.931 . S
C321 C320 1.370 . S
C321 C325 1.408 . S
C322 C320 1.363 . S
C322 C323 1.370 . S
C322 C326 1.524 . S
C323 C315 1.503 . S
C323 C322 1.370 . S
C323 C324 1.403 . S
C324 C323 1.403 . S
C324 C325 1.404 . S
C324 C327 1.539 . S
C325 C321 1.408 . S
C325 C324 1.404 . S
C325 H337 0.930 . S
C326 C322 1.524 . S
C326 H338 0.956 . S
C326 H339 0.961 . S
C326 H340 0.961 . S
C327 C324 1.539 . S
C327 H341 0.958 1_545 S
C327 H342 0.961 . S
C327 H343 0.960 . S
H328 C312 0.931 . S
H329 C317 0.929 . S
H330 C318 0.960 . S
H331 C318 0.962 . S
H332 C318 0.960 . S
H333 C319 0.961 . S
H334 C319 0.961 . S
H335 C319 0.961 . S
H336 C320 0.931 . S
H337 C325 0.930 . S
H338 C326 0.956 . S
H339 C326 0.961 . S
H340 C326 0.961 . S
H341 C327 0.958 1_565 S
H342 C327 0.961 . S
H343 C327 0.960 . S
C344 C345 1.391 . S
C344 C346 1.394 . S
C344 H360 0.931 . S
C345 C344 1.391 . S
C345 C349 1.376 . S
C346 C344 1.394 . S
C346 C347 1.369 . S
C346 C350 1.531 . S
C347 C346 1.369 . S
C347 C348 1.410 . S
C347 C355 1.503 . S
C348 C347 1.410 . S
C348 C349 1.392 . S
C348 C351 1.511 . S
C349 C345 1.376 . S
C349 C348 1.392 . S
C349 H361 0.929 . S
C350 C346 1.531 . S
C350 H362 0.960 . S
C350 H363 0.962 . S
C350 H364 0.960 . S
C351 C348 1.511 . S
C351 H365 0.961 . S
C351 H366 0.961 . S
C351 H367 0.961 . S
C352 C353 1.370 . S
C352 C354 1.363 . S
C352 H368 0.931 . S
C353 C352 1.370 . S
C353 C357 1.408 . S
C354 C352 1.363 . S
C354 C355 1.370 . S
C354 C358 1.524 . S
C355 C347 1.503 . S
C355 C354 1.370 . S
C355 C356 1.403 . S
C356 C355 1.403 . S
C356 C357 1.404 . S
C356 C359 1.539 . S
C357 C353 1.408 . S
C357 C356 1.404 . S
C357 H369 0.930 . S
C358 C354 1.524 . S
C358 H370 0.956 . S
C358 H371 0.961 . S
C358 H372 0.961 . S
C359 C356 1.539 . S
C359 H373 0.958 . S
C359 H374 0.961 . S
C359 H375 0.960 . S
H360 C344 0.931 . S
H361 C349 0.929 . S
H362 C350 0.960 . S
H363 C350 0.962 . S
H364 C350 0.960 . S
H365 C351 0.961 . S
H366 C351 0.961 . S
H367 C351 0.961 . S
H368 C352 0.931 . S
H369 C357 0.930 . S
H370 C358 0.956 . S
H371 C358 0.961 . S
H372 C358 0.961 . S
H373 C359 0.958 . S
H374 C359 0.961 . S
H375 C359 0.960 . S
C376 C377 1.391 . S
C376 C378 1.394 . S
C376 H392 0.931 . S
C377 C376 1.391 . S
C377 C381 1.376 . S
C378 C376 1.394 . S
C378 C379 1.369 . S
C378 C382 1.531 . S
C379 C378 1.369 . S
C379 C380 1.410 . S
C379 C387 1.503 . S
C380 C379 1.410 . S
C380 C381 1.392 . S
C380 C383 1.511 . S
C381 C377 1.376 . S
C381 C380 1.392 . S
C381 H393 0.929 . S
C382 C378 1.531 . S
C382 H394 0.960 . S
C382 H395 0.962 . S
C382 H396 0.960 . S
C383 C380 1.511 . S
C383 H397 0.961 1_655 S
C383 H398 0.961 . S
C383 H399 0.961 1_655 S
C384 C385 1.370 . S
C384 C386 1.363 . S
C384 H400 0.931 . S
C385 C384 1.370 . S
C385 C389 1.408 . S
C386 C384 1.363 . S
C386 C387 1.370 . S
C386 C390 1.524 . S
C387 C379 1.503 . S
C387 C386 1.370 . S
C387 C388 1.403 . S
C388 C387 1.403 . S
C388 C389 1.404 . S
C388 C391 1.539 . S
C389 C385 1.408 . S
C389 C388 1.404 . S
C389 H401 0.930 . S
C390 C386 1.524 . S
C390 H402 0.956 . S
C390 H403 0.961 . S
C390 H404 0.961 . S
C391 C388 1.539 . S
C391 H405 0.958 . S
C391 H406 0.961 . S
C391 H407 0.960 . S
H392 C376 0.931 . S
H393 C381 0.929 . S
H394 C382 0.960 . S
H395 C382 0.962 . S
H396 C382 0.960 . S
H397 C383 0.961 1_455 S
H398 C383 0.961 . S
H399 C383 0.961 1_455 S
H400 C384 0.931 . S
H401 C389 0.930 . S
H402 C390 0.956 . S
H403 C390 0.961 . S
H404 C390 0.961 . S
H405 C391 0.958 . S
H406 C391 0.961 . S
H407 C391 0.960 . S
C408 C409 1.391 . S
C408 C410 1.394 . S
C408 H424 0.931 . S
C409 C408 1.391 . S
C409 C413 1.376 . S
C410 C408 1.394 . S
C410 C411 1.369 . S
C410 C414 1.531 . S
C411 C410 1.369 . S
C411 C412 1.410 . S
C411 C419 1.503 . S
C412 C411 1.410 . S
C412 C413 1.392 . S
C412 C415 1.511 . S
C413 C409 1.376 . S
C413 C412 1.392 . S
C413 H425 0.929 . S
C414 C410 1.531 . S
C414 H426 0.960 . S
C414 H427 0.962 . S
C414 H428 0.960 . S
C415 C412 1.511 . S
C415 H429 0.961 . S
C415 H430 0.961 . S
C415 H431 0.961 . S
C416 C417 1.370 . S
C416 C418 1.363 . S
C416 H432 0.931 . S
C417 C416 1.370 . S
C417 C421 1.408 . S
C418 C416 1.363 . S
C418 C419 1.370 . S
C418 C422 1.524 . S
C419 C411 1.503 . S
C419 C418 1.370 . S
C419 C420 1.403 . S
C420 C419 1.403 . S
C420 C421 1.404 . S
C420 C423 1.539 . S
C421 C417 1.408 . S
C421 C420 1.404 . S
C421 H433 0.930 . S
C422 C418 1.524 . S
C422 H434 0.956 . S
C422 H435 0.961 . S
C422 H436 0.961 . S
C423 C420 1.539 . S
C423 H437 0.958 1_565 S
C423 H438 0.961 . S
C423 H439 0.960 . S
H424 C408 0.931 . S
H425 C413 0.929 . S
H426 C414 0.960 . S
H427 C414 0.962 . S
H428 C414 0.960 . S
H429 C415 0.961 . S
H430 C415 0.961 . S
H431 C415 0.961 . S
H432 C416 0.931 . S
H433 C421 0.930 . S
H434 C422 0.956 . S
H435 C422 0.961 . S
H436 C422 0.961 . S
H437 C423 0.958 1_545 S
H438 C423 0.961 . S
H439 C423 0.960 . S
C440 C441 1.391 . S
C440 C442 1.394 . S
C440 H456 0.931 . S
C441 C440 1.391 . S
C441 C445 1.376 . S
C442 C440 1.394 . S
C442 C443 1.369 . S
C442 C446 1.531 . S
C443 C442 1.369 . S
C443 C444 1.410 . S
C443 C451 1.503 . S
C444 C443 1.410 . S
C444 C445 1.392 . S
C444 C447 1.511 . S
C445 C441 1.376 . S
C445 C444 1.392 . S
C445 H457 0.929 . S
C446 C442 1.531 . S
C446 H458 0.960 . S
C446 H459 0.962 . S
C446 H460 0.960 . S
C447 C444 1.511 . S
C447 H461 0.961 . S
C447 H462 0.961 . S
C447 H463 0.961 . S
C448 C449 1.370 . S
C448 C450 1.363 . S
C448 H464 0.931 . S
C449 C448 1.370 . S
C449 C453 1.408 . S
C450 C448 1.363 . S
C450 C451 1.370 . S
C450 C454 1.524 . S
C451 C443 1.503 . S
C451 C450 1.370 . S
C451 C452 1.403 . S
C452 C451 1.403 . S
C452 C453 1.404 . S
C452 C455 1.539 . S
C453 C449 1.408 . S
C453 C452 1.404 . S
C453 H465 0.930 . S
C454 C450 1.524 . S
C454 H466 0.956 . S
C454 H467 0.961 . S
C454 H468 0.961 . S
C455 C452 1.539 . S
C455 H469 0.958 . S
C455 H470 0.961 . S
C455 H471 0.960 . S
H456 C440 0.931 . S
H457 C445 0.929 . S
H458 C446 0.960 . S
H459 C446 0.962 . S
H460 C446 0.960 . S
H461 C447 0.961 . S
H462 C447 0.961 . S
H463 C447 0.961 . S
H464 C448 0.931 . S
H465 C453 0.930 . S
H466 C454 0.956 . S
H467 C454 0.961 . S
H468 C454 0.961 . S
H469 C455 0.958 . S
H470 C455 0.961 . S
H471 C455 0.960 . S
C472 C473 1.391 . S
C472 C474 1.394 . S
C472 H488 0.931 . S
C473 C472 1.391 . S
C473 C477 1.376 . S
C474 C472 1.394 . S
C474 C475 1.369 . S
C474 C478 1.531 . S
C475 C474 1.369 . S
C475 C476 1.410 . S
C475 C483 1.503 . S
C476 C475 1.410 . S
C476 C477 1.392 . S
C476 C479 1.511 . S
C477 C473 1.376 . S
C477 C476 1.392 . S
C477 H489 0.929 . S
C478 C474 1.531 . S
C478 H490 0.960 . S
C478 H491 0.962 . S
C478 H492 0.960 . S
C479 C476 1.511 . S
C479 H493 0.961 . S
C479 H494 0.961 . S
C479 H495 0.961 1_455 S
C480 C481 1.370 . S
C480 C482 1.363 . S
C480 H496 0.931 . S
C481 C480 1.370 . S
C481 C485 1.408 . S
C482 C480 1.363 . S
C482 C483 1.370 . S
C482 C486 1.524 . S
C483 C475 1.503 . S
C483 C482 1.370 . S
C483 C484 1.403 . S
C484 C483 1.403 . S
C484 C485 1.404 . S
C484 C487 1.539 . S
C485 C481 1.408 . S
C485 C484 1.404 . S
C485 H497 0.930 . S
C486 C482 1.524 . S
C486 H498 0.956 . S
C486 H499 0.961 . S
C486 H500 0.961 . S
C487 C484 1.539 . S
C487 H501 0.958 . S
C487 H502 0.961 . S
C487 H503 0.960 . S
H488 C472 0.931 . S
H489 C477 0.929 . S
H490 C478 0.960 . S
H491 C478 0.962 . S
H492 C478 0.960 . S
H493 C479 0.961 . S
H494 C479 0.961 . S
H495 C479 0.961 1_655 S
H496 C480 0.931 . S
H497 C485 0.930 . S
H498 C486 0.956 . S
H499 C486 0.961 . S
H500 C486 0.961 . S
H501 C487 0.958 . S
H502 C487 0.961 . S
H503 C487 0.960 . S
C504 C505 1.391 . S
C504 C506 1.394 . S
C504 H520 0.931 . S
C505 C504 1.391 . S
C505 C509 1.376 . S
C506 C504 1.394 . S
C506 C507 1.369 . S
C506 C510 1.531 . S
C507 C506 1.369 . S
C507 C508 1.410 . S
C507 C515 1.503 . S
C508 C507 1.410 . S
C508 C509 1.392 . S
C508 C511 1.511 . S
C509 C505 1.376 . S
C509 C508 1.392 . S
C509 H521 0.929 . S
C510 C506 1.531 . S
C510 H522 0.960 . S
C510 H523 0.962 . S
C510 H524 0.960 1_655 S
C511 C508 1.511 . S
C511 H525 0.961 . S
C511 H526 0.961 . S
C511 H527 0.961 . S
C512 C513 1.370 . S
C512 C514 1.363 . S
C512 H528 0.931 . S
C513 C512 1.370 . S
C513 C517 1.408 . S
C514 C512 1.363 . S
C514 C515 1.370 . S
C514 C518 1.524 . S
C515 C507 1.503 . S
C515 C514 1.370 . S
C515 C516 1.403 . S
C516 C515 1.403 . S
C516 C517 1.404 . S
C516 C519 1.539 . S
C517 C513 1.408 . S
C517 C516 1.404 . S
C517 H529 0.930 . S
C518 C514 1.524 . S
C518 H530 0.956 . S
C518 H531 0.961 . S
C518 H532 0.961 . S
C519 C516 1.539 . S
C519 H533 0.958 . S
C519 H534 0.961 . S
C519 H535 0.960 . S
H520 C504 0.931 . S
H521 C509 0.929 . S
H522 C510 0.960 . S
H523 C510 0.962 . S
H524 C510 0.960 1_455 S
H525 C511 0.961 . S
H526 C511 0.961 . S
H527 C511 0.961 . S
H528 C512 0.931 . S
H529 C517 0.930 . S
H530 C518 0.956 . S
H531 C518 0.961 . S
H532 C518 0.961 . S
H533 C519 0.958 . S
H534 C519 0.961 . S
H535 C519 0.960 . S
C536 C537 1.391 . S
C536 C538 1.394 . S
C536 H552 0.931 . S
C537 C536 1.391 . S
C537 C541 1.376 . S
C538 C536 1.394 . S
C538 C539 1.369 . S
C538 C542 1.531 . S
C539 C538 1.369 . S
C539 C540 1.410 . S
C539 C547 1.503 . S
C540 C539 1.410 . S
C540 C541 1.392 . S
C540 C543 1.511 . S
C541 C537 1.376 . S
C541 C540 1.392 . S
C541 H553 0.929 . S
C542 C538 1.531 . S
C542 H554 0.960 . S
C542 H555 0.962 . S
C542 H556 0.960 . S
C543 C540 1.511 . S
C543 H557 0.961 . S
C543 H558 0.961 . S
C543 H559 0.961 . S
C544 C545 1.370 . S
C544 C546 1.363 . S
C544 H560 0.931 . S
C545 C544 1.370 . S
C545 C549 1.408 . S
C546 C544 1.363 . S
C546 C547 1.370 . S
C546 C550 1.524 . S
C547 C539 1.503 . S
C547 C546 1.370 . S
C547 C548 1.403 . S
C548 C547 1.403 . S
C548 C549 1.404 . S
C548 C551 1.539 . S
C549 C545 1.408 . S
C549 C548 1.404 . S
C549 H561 0.930 . S
C550 C546 1.524 . S
C550 H562 0.956 . S
C550 H563 0.961 . S
C550 H564 0.961 . S
C551 C548 1.539 . S
C551 H565 0.958 1_565 S
C551 H566 0.961 . S
C551 H567 0.960 . S
H552 C536 0.931 . S
H553 C541 0.929 . S
H554 C542 0.960 . S
H555 C542 0.962 . S
H556 C542 0.960 . S
H557 C543 0.961 . S
H558 C543 0.961 . S
H559 C543 0.961 . S
H560 C544 0.931 . S
H561 C549 0.930 . S
H562 C550 0.956 . S
H563 C550 0.961 . S
H564 C550 0.961 . S
H565 C551 0.958 1_545 S
H566 C551 0.961 . S
H567 C551 0.960 . S
C568 C569 1.391 . S
C568 C570 1.394 . S
C568 H584 0.931 . S
C569 C568 1.391 . S
C569 C573 1.376 . S
C570 C568 1.394 . S
C570 C571 1.369 . S
C570 C574 1.531 . S
C571 C570 1.369 . S
C571 C572 1.410 . S
C571 C579 1.503 . S
C572 C571 1.410 . S
C572 C573 1.392 . S
C572 C575 1.511 . S
C573 C569 1.376 . S
C573 C572 1.392 . S
C573 H585 0.929 . S
C574 C570 1.531 . S
C574 H586 0.960 . S
C574 H587 0.962 . S
C574 H588 0.960 . S
C575 C572 1.511 . S
C575 H589 0.961 . S
C575 H590 0.961 . S
C575 H591 0.961 . S
C576 C577 1.370 . S
C576 C578 1.363 . S
C576 H592 0.931 . S
C577 C576 1.370 . S
C577 C581 1.408 . S
C578 C576 1.363 . S
C578 C579 1.370 . S
C578 C582 1.524 . S
C579 C571 1.503 . S
C579 C578 1.370 . S
C579 C580 1.403 . S
C580 C579 1.403 . S
C580 C581 1.404 . S
C580 C583 1.539 . S
C581 C577 1.408 . S
C581 C580 1.404 . S
C581 H593 0.930 . S
C582 C578 1.524 . S
C582 H594 0.956 . S
C582 H595 0.961 . S
C582 H596 0.961 . S
C583 C580 1.539 . S
C583 H597 0.958 . S
C583 H598 0.961 . S
C583 H599 0.960 . S
H584 C568 0.931 . S
H585 C573 0.929 . S
H586 C574 0.960 . S
H587 C574 0.962 . S
H588 C574 0.960 . S
H589 C575 0.961 . S
H590 C575 0.961 . S
H591 C575 0.961 . S
H592 C576 0.931 . S
H593 C581 0.930 . S
H594 C582 0.956 . S
H595 C582 0.961 . S
H596 C582 0.961 . S
H597 C583 0.958 . S
H598 C583 0.961 . S
H599 C583 0.960 . S
C600 C601 1.391 . S
C600 C602 1.394 . S
C600 H616 0.931 . S
C601 C600 1.391 . S
C601 C605 1.376 . S
C602 C600 1.394 . S
C602 C603 1.369 . S
C602 C606 1.531 . S
C603 C602 1.369 . S
C603 C604 1.410 . S
C603 C611 1.503 . S
C604 C603 1.410 . S
C604 C605 1.392 . S
C604 C607 1.511 . S
C605 C601 1.376 . S
C605 C604 1.392 . S
C605 H617 0.929 . S
C606 C602 1.531 . S
C606 H618 0.960 . S
C606 H619 0.962 . S
C606 H620 0.960 . S
C607 C604 1.511 . S
C607 H621 0.961 1_455 S
C607 H622 0.961 . S
C607 H623 0.961 1_455 S
C608 C609 1.370 . S
C608 C610 1.363 . S
C608 H624 0.931 . S
C609 C608 1.370 . S
C609 C613 1.408 . S
C610 C608 1.363 . S
C610 C611 1.370 . S
C610 C614 1.524 . S
C611 C603 1.503 . S
C611 C610 1.370 . S
C611 C612 1.403 . S
C612 C611 1.403 . S
C612 C613 1.404 . S
C612 C615 1.539 . S
C613 C609 1.408 . S
C613 C612 1.404 . S
C613 H625 0.930 . S
C614 C610 1.524 . S
C614 H626 0.956 . S
C614 H627 0.961 . S
C614 H628 0.961 . S
C615 C612 1.539 . S
C615 H629 0.958 . S
C615 H630 0.961 . S
C615 H631 0.960 . S
H616 C600 0.931 . S
H617 C605 0.929 . S
H618 C606 0.960 . S
H619 C606 0.962 . S
H620 C606 0.960 . S
H621 C607 0.961 1_655 S
H622 C607 0.961 . S
H623 C607 0.961 1_655 S
H624 C608 0.931 . S
H625 C613 0.930 . S
H626 C614 0.956 . S
H627 C614 0.961 . S
H628 C614 0.961 . S
H629 C615 0.958 . S
H630 C615 0.961 . S
H631 C615 0.960 . S
C632 C633 1.391 . S
C632 C634 1.394 . S
C632 H648 0.931 . S
C633 C632 1.391 . S
C633 C637 1.376 . S
C634 C632 1.394 . S
C634 C635 1.369 . S
C634 C638 1.531 . S
C635 C634 1.369 . S
C635 C636 1.410 . S
C635 C643 1.503 . S
C636 C635 1.410 . S
C636 C637 1.392 . S
C636 C639 1.511 . S
C637 C633 1.376 . S
C637 C636 1.392 . S
C637 H649 0.929 . S
C638 C634 1.531 . S
C638 H650 0.960 . S
C638 H651 0.962 . S
C638 H652 0.960 . S
C639 C636 1.511 . S
C639 H653 0.961 . S
C639 H654 0.961 . S
C639 H655 0.961 . S
C640 C641 1.370 . S
C640 C642 1.363 . S
C640 H656 0.931 . S
C641 C640 1.370 . S
C641 C645 1.408 . S
C642 C640 1.363 . S
C642 C643 1.370 . S
C642 C646 1.524 . S
C643 C635 1.503 . S
C643 C642 1.370 . S
C643 C644 1.403 . S
C644 C643 1.403 . S
C644 C645 1.404 . S
C644 C647 1.539 . S
C645 C641 1.408 . S
C645 C644 1.404 . S
C645 H657 0.930 . S
C646 C642 1.524 . S
C646 H658 0.956 . S
C646 H659 0.961 . S
C646 H660 0.961 . S
C647 C644 1.539 . S
C647 H661 0.958 1_545 S
C647 H662 0.961 . S
C647 H663 0.960 . S
H648 C632 0.931 . S
H649 C637 0.929 . S
H650 C638 0.960 . S
H651 C638 0.962 . S
H652 C638 0.960 . S
H653 C639 0.961 . S
H654 C639 0.961 . S
H655 C639 0.961 . S
H656 C640 0.931 . S
H657 C645 0.930 . S
H658 C646 0.956 . S
H659 C646 0.961 . S
H660 C646 0.961 . S
H661 C647 0.958 1_565 S
H662 C647 0.961 . S
H663 C647 0.960 . S
C664 C665 1.391 . S
C664 C666 1.394 . S
C664 H680 0.931 . S
C665 C664 1.391 . S
C665 C669 1.376 . S
C666 C664 1.394 . S
C666 C667 1.369 . S
C666 C670 1.531 . S
C667 C666 1.369 . S
C667 C668 1.410 . S
C667 C675 1.503 . S
C668 C667 1.410 . S
C668 C669 1.392 . S
C668 C671 1.511 . S
C669 C665 1.376 . S
C669 C668 1.392 . S
C669 H681 0.929 . S
C670 C666 1.531 . S
C670 H682 0.960 . S
C670 H683 0.962 . S
C670 H684 0.960 . S
C671 C668 1.511 . S
C671 H685 0.961 . S
C671 H686 0.961 . S
C671 H687 0.961 . S
C672 C673 1.370 . S
C672 C674 1.363 . S
C672 H688 0.931 . S
C673 C672 1.370 . S
C673 C677 1.408 . S
C674 C672 1.363 . S
C674 C675 1.370 . S
C674 C678 1.524 . S
C675 C667 1.503 . S
C675 C674 1.370 . S
C675 C676 1.403 . S
C676 C675 1.403 . S
C676 C677 1.404 . S
C676 C679 1.539 . S
C677 C673 1.408 . S
C677 C676 1.404 . S
C677 H689 0.930 . S
C678 C674 1.524 . S
C678 H690 0.956 . S
C678 H691 0.961 . S
C678 H692 0.961 . S
C679 C676 1.539 . S
C679 H693 0.958 . S
C679 H694 0.961 . S
C679 H695 0.960 . S
H680 C664 0.931 . S
H681 C669 0.929 . S
H682 C670 0.960 . S
H683 C670 0.962 . S
H684 C670 0.960 . S
H685 C671 0.961 . S
H686 C671 0.961 . S
H687 C671 0.961 . S
H688 C672 0.931 . S
H689 C677 0.930 . S
H690 C678 0.956 . S
H691 C678 0.961 . S
H692 C678 0.961 . S
H693 C679 0.958 . S
H694 C679 0.961 . S
H695 C679 0.960 . S
C696 C697 1.391 . S
C696 C698 1.394 . S
C696 H712 0.931 . S
C697 C696 1.391 . S
C697 C701 1.376 . S
C698 C696 1.394 . S
C698 C699 1.369 . S
C698 C702 1.531 . S
C699 C698 1.369 . S
C699 C700 1.410 . S
C699 C707 1.503 . S
C700 C699 1.410 . S
C700 C701 1.392 . S
C700 C703 1.511 . S
C701 C697 1.376 . S
C701 C700 1.392 . S
C701 H713 0.929 . S
C702 C698 1.531 . S
C702 H714 0.960 . S
C702 H715 0.962 . S
C702 H716 0.960 . S
C703 C700 1.511 . S
C703 H717 0.961 . S
C703 H718 0.961 . S
C703 H719 0.961 . S
C704 C705 1.370 . S
C704 C706 1.363 . S
C704 H720 0.931 . S
C705 C704 1.370 . S
C705 C709 1.408 . S
C706 C704 1.363 . S
C706 C707 1.370 . S
C706 C710 1.524 . S
C707 C699 1.503 . S
C707 C706 1.370 . S
C707 C708 1.403 . S
C708 C707 1.403 . S
C708 C709 1.404 . S
C708 C711 1.539 . S
C709 C705 1.408 . S
C709 C708 1.404 . S
C709 H721 0.930 . S
C710 C706 1.524 . S
C710 H722 0.956 . S
C710 H723 0.961 . S
C710 H724 0.961 . S
C711 C708 1.539 . S
C711 H725 0.958 . S
C711 H726 0.961 . S
C711 H727 0.960 . S
H712 C696 0.931 . S
H713 C701 0.929 . S
H714 C702 0.960 . S
H715 C702 0.962 . S
H716 C702 0.960 . S
H717 C703 0.961 . S
H718 C703 0.961 . S
H719 C703 0.961 . S
H720 C704 0.931 . S
H721 C709 0.930 . S
H722 C710 0.956 . S
H723 C710 0.961 . S
H724 C710 0.961 . S
H725 C711 0.958 . S
H726 C711 0.961 . S
H727 C711 0.960 . S
C728 C729 1.391 . S
C728 C730 1.394 . S
C728 H744 0.931 . S
C729 C728 1.391 . S
C729 C733 1.376 . S
C730 C728 1.394 . S
C730 C731 1.369 . S
C730 C734 1.531 . S
C731 C730 1.369 . S
C731 C732 1.410 . S
C731 C739 1.503 . S
C732 C731 1.410 . S
C732 C733 1.392 . S
C732 C735 1.511 . S
C733 C729 1.376 . S
C733 C732 1.392 . S
C733 H745 0.929 . S
C734 C730 1.531 . S
C734 H746 0.960 . S
C734 H747 0.962 . S
C734 H748 0.960 . S
C735 C732 1.511 . S
C735 H749 0.961 . S
C735 H750 0.961 . S
C735 H751 0.961 . S
C736 C737 1.370 . S
C736 C738 1.363 . S
C736 H752 0.931 . S
C737 C736 1.370 . S
C737 C741 1.408 . S
C738 C736 1.363 . S
C738 C739 1.370 . S
C738 C742 1.524 . S
C739 C731 1.503 . S
C739 C738 1.370 . S
C739 C740 1.403 . S
C740 C739 1.403 . S
C740 C741 1.404 . S
C740 C743 1.539 . S
C741 C737 1.408 . S
C741 C740 1.404 . S
C741 H753 0.930 . S
C742 C738 1.524 . S
C742 H754 0.956 . S
C742 H755 0.961 . S
C742 H756 0.961 . S
C743 C740 1.539 . S
C743 H757 0.958 . S
C743 H758 0.961 . S
C743 H759 0.960 . S
H744 C728 0.931 . S
H745 C733 0.929 . S
H746 C734 0.960 . S
H747 C734 0.962 . S
H748 C734 0.960 . S
H749 C735 0.961 . S
H750 C735 0.961 . S
H751 C735 0.961 . S
H752 C736 0.931 . S
H753 C741 0.930 . S
H754 C742 0.956 . S
H755 C742 0.961 . S
H756 C742 0.961 . S
H757 C743 0.958 . S
H758 C743 0.961 . S
H759 C743 0.960 . S
C760 C761 1.391 . S
C760 C762 1.394 . S
C760 H776 0.931 . S
C761 C760 1.391 . S
C761 C765 1.376 . S
C762 C760 1.394 . S
C762 C763 1.369 . S
C762 C766 1.531 . S
C763 C762 1.369 . S
C763 C764 1.410 . S
C763 C771 1.503 . S
C764 C763 1.410 . S
C764 C765 1.392 . S
C764 C767 1.511 . S
C765 C761 1.376 . S
C765 C764 1.392 . S
C765 H777 0.929 . S
C766 C762 1.531 . S
C766 H778 0.960 . S
C766 H779 0.962 . S
C766 H780 0.960 . S
C767 C764 1.511 . S
C767 H781 0.961 . S
C767 H782 0.961 . S
C767 H783 0.961 . S
C768 C769 1.370 . S
C768 C770 1.363 . S
C768 H784 0.931 . S
C769 C768 1.370 . S
C769 C773 1.408 . S
C770 C768 1.363 . S
C770 C771 1.370 . S
C770 C774 1.524 . S
C771 C763 1.503 . S
C771 C770 1.370 . S
C771 C772 1.403 . S
C772 C771 1.403 . S
C772 C773 1.404 . S
C772 C775 1.539 . S
C773 C769 1.408 . S
C773 C772 1.404 . S
C773 H785 0.930 . S
C774 C770 1.524 . S
C774 H786 0.956 . S
C774 H787 0.961 . S
C774 H788 0.961 . S
C775 C772 1.539 . S
C775 H789 0.958 . S
C775 H790 0.961 . S
C775 H791 0.960 . S
H776 C760 0.931 . S
H777 C765 0.929 . S
H778 C766 0.960 . S
H779 C766 0.962 . S
H780 C766 0.960 . S
H781 C767 0.961 . S
H782 C767 0.961 . S
H783 C767 0.961 . S
H784 C768 0.931 . S
H785 C773 0.930 . S
H786 C774 0.956 . S
H787 C774 0.961 . S
H788 C774 0.961 . S
H789 C775 0.958 . S
H790 C775 0.961 . S
H791 C775 0.960 . S
C792 C793 1.391 . S
C792 C794 1.394 . S
C792 H808 0.931 . S
C793 C792 1.391 . S
C793 C797 1.376 . S
C794 C792 1.394 . S
C794 C795 1.369 . S
C794 C798 1.531 . S
C795 C794 1.369 . S
C795 C796 1.410 . S
C795 C803 1.503 . S
C796 C795 1.410 . S
C796 C797 1.392 . S
C796 C799 1.511 . S
C797 C793 1.376 . S
C797 C796 1.392 . S
C797 H809 0.929 . S
C798 C794 1.531 . S
C798 H810 0.960 . S
C798 H811 0.962 . S
C798 H812 0.960 . S
C799 C796 1.511 . S
C799 H813 0.961 . S
C799 H814 0.961 . S
C799 H815 0.961 . S
C800 C801 1.370 . S
C800 C802 1.363 . S
C800 H816 0.931 . S
C801 C800 1.370 . S
C801 C805 1.408 . S
C802 C800 1.363 . S
C802 C803 1.370 . S
C802 C806 1.524 . S
C803 C795 1.503 . S
C803 C802 1.370 . S
C803 C804 1.403 . S
C804 C803 1.403 . S
C804 C805 1.404 . S
C804 C807 1.539 . S
C805 C801 1.408 . S
C805 C804 1.404 . S
C805 H817 0.930 . S
C806 C802 1.524 . S
C806 H818 0.956 . S
C806 H819 0.961 . S
C806 H820 0.961 . S
C807 C804 1.539 . S
C807 H821 0.958 . S
C807 H822 0.961 . S
C807 H823 0.960 . S
H808 C792 0.931 . S
H809 C797 0.929 . S
H810 C798 0.960 . S
H811 C798 0.962 . S
H812 C798 0.960 . S
H813 C799 0.961 . S
H814 C799 0.961 . S
H815 C799 0.961 . S
H816 C800 0.931 . S
H817 C805 0.930 . S
H818 C806 0.956 . S
H819 C806 0.961 . S
H820 C806 0.961 . S
H821 C807 0.958 . S
H822 C807 0.961 . S
H823 C807 0.960 . S
C824 C825 1.391 . S
C824 C826 1.394 . S
C824 H840 0.931 . S
C825 C824 1.391 . S
C825 C829 1.376 . S
C826 C824 1.394 . S
C826 C827 1.369 . S
C826 C830 1.531 . S
C827 C826 1.369 . S
C827 C828 1.410 . S
C827 C835 1.503 . S
C828 C827 1.410 . S
C828 C829 1.392 . S
C828 C831 1.511 . S
C829 C825 1.376 . S
C829 C828 1.392 . S
C829 H841 0.929 . S
C830 C826 1.531 . S
C830 H842 0.960 . S
C830 H843 0.962 . S
C830 H844 0.960 . S
C831 C828 1.511 . S
C831 H845 0.961 . S
C831 H846 0.961 . S
C831 H847 0.961 . S
C832 C833 1.370 . S
C832 C834 1.363 . S
C832 H848 0.931 . S
C833 C832 1.370 . S
C833 C837 1.408 . S
C834 C832 1.363 . S
C834 C835 1.370 . S
C834 C838 1.524 . S
C835 C827 1.503 . S
C835 C834 1.370 . S
C835 C836 1.403 . S
C836 C835 1.403 . S
C836 C837 1.404 . S
C836 C839 1.539 . S
C837 C833 1.408 . S
C837 C836 1.404 . S
C837 H849 0.930 . S
C838 C834 1.524 . S
C838 H850 0.956 . S
C838 H851 0.961 . S
C838 H852 0.961 . S
C839 C836 1.539 . S
C839 H853 0.958 . S
C839 H854 0.961 . S
C839 H855 0.960 . S
H840 C824 0.931 . S
H841 C829 0.929 . S
H842 C830 0.960 . S
H843 C830 0.962 . S
H844 C830 0.960 . S
H845 C831 0.961 . S
H846 C831 0.961 . S
H847 C831 0.961 . S
H848 C832 0.931 . S
H849 C837 0.930 . S
H850 C838 0.956 . S
H851 C838 0.961 . S
H852 C838 0.961 . S
H853 C839 0.958 . S
H854 C839 0.961 . S
H855 C839 0.960 . S
C856 C857 1.391 . S
C856 C858 1.394 . S
C856 H872 0.931 . S
C857 C856 1.391 . S
C857 C861 1.376 . S
C858 C856 1.394 . S
C858 C859 1.369 . S
C858 C862 1.531 . S
C859 C858 1.369 . S
C859 C860 1.410 . S
C859 C867 1.503 . S
C860 C859 1.410 . S
C860 C861 1.392 . S
C860 C863 1.511 . S
C861 C857 1.376 . S
C861 C860 1.392 . S
C861 H873 0.929 . S
C862 C858 1.531 . S
C862 H874 0.960 . S
C862 H875 0.962 . S
C862 H876 0.960 . S
C863 C860 1.511 . S
C863 H877 0.961 . S
C863 H878 0.961 . S
C863 H879 0.961 . S
C864 C865 1.370 . S
C864 C866 1.363 . S
C864 H880 0.931 . S
C865 C864 1.370 . S
C865 C869 1.408 . S
C866 C864 1.363 . S
C866 C867 1.370 . S
C866 C870 1.524 . S
C867 C859 1.503 . S
C867 C866 1.370 . S
C867 C868 1.403 . S
C868 C867 1.403 . S
C868 C869 1.404 . S
C868 C871 1.539 . S
C869 C865 1.408 . S
C869 C868 1.404 . S
C869 H881 0.930 . S
C870 C866 1.524 . S
C870 H882 0.956 . S
C870 H883 0.961 . S
C870 H884 0.961 . S
C871 C868 1.539 . S
C871 H885 0.958 . S
C871 H886 0.961 . S
C871 H887 0.960 . S
H872 C856 0.931 . S
H873 C861 0.929 . S
H874 C862 0.960 . S
H875 C862 0.962 . S
H876 C862 0.960 . S
H877 C863 0.961 . S
H878 C863 0.961 . S
H879 C863 0.961 . S
H880 C864 0.931 . S
H881 C869 0.930 . S
H882 C870 0.956 . S
H883 C870 0.961 . S
H884 C870 0.961 . S
H885 C871 0.958 . S
H886 C871 0.961 . S
H887 C871 0.960 . S
C888 C889 1.391 . S
C888 C890 1.394 . S
C888 H904 0.931 . S
C889 C888 1.391 . S
C889 C893 1.376 . S
C890 C888 1.394 . S
C890 C891 1.369 . S
C890 C894 1.531 . S
C891 C890 1.369 . S
C891 C892 1.410 . S
C891 C899 1.503 . S
C892 C891 1.410 . S
C892 C893 1.392 . S
C892 C895 1.511 . S
C893 C889 1.376 . S
C893 C892 1.392 . S
C893 H905 0.929 . S
C894 C890 1.531 . S
C894 H906 0.960 . S
C894 H907 0.962 . S
C894 H908 0.960 . S
C895 C892 1.511 . S
C895 H909 0.961 . S
C895 H910 0.961 . S
C895 H911 0.961 . S
C896 C897 1.370 . S
C896 C898 1.363 . S
C896 H912 0.931 . S
C897 C896 1.370 . S
C897 C901 1.408 . S
C898 C896 1.363 . S
C898 C899 1.370 . S
C898 C902 1.524 . S
C899 C891 1.503 . S
C899 C898 1.370 . S
C899 C900 1.403 . S
C900 C899 1.403 . S
C900 C901 1.404 . S
C900 C903 1.539 . S
C901 C897 1.408 . S
C901 C900 1.404 . S
C901 H913 0.930 . S
C902 C898 1.524 . S
C902 H914 0.956 . S
C902 H915 0.961 . S
C902 H916 0.961 . S
C903 C900 1.539 . S
C903 H917 0.958 . S
C903 H918 0.961 . S
C903 H919 0.960 . S
H904 C888 0.931 . S
H905 C893 0.929 . S
H906 C894 0.960 . S
H907 C894 0.962 . S
H908 C894 0.960 . S
H909 C895 0.961 . S
H910 C895 0.961 . S
H911 C895 0.961 . S
H912 C896 0.931 . S
H913 C901 0.930 . S
H914 C902 0.956 . S
H915 C902 0.961 . S
H916 C902 0.961 . S
H917 C903 0.958 . S
H918 C903 0.961 . S
H919 C903 0.960 . S
C920 C921 1.391 . S
C920 C922 1.394 . S
C920 H936 0.931 . S
C921 C920 1.391 . S
C921 C925 1.376 . S
C922 C920 1.394 . S
C922 C923 1.369 . S
C922 C926 1.531 . S
C923 C922 1.369 . S
C923 C924 1.410 . S
C923 C931 1.503 . S
C924 C923 1.410 . S
C924 C925 1.392 . S
C924 C927 1.511 . S
C925 C921 1.376 . S
C925 C924 1.392 . S
C925 H937 0.929 . S
C926 C922 1.531 . S
C926 H938 0.960 . S
C926 H939 0.962 . S
C926 H940 0.960 . S
C927 C924 1.511 . S
C927 H941 0.961 . S
C927 H942 0.961 . S
C927 H943 0.961 . S
C928 C929 1.370 . S
C928 C930 1.363 . S
C928 H944 0.931 . S
C929 C928 1.370 . S
C929 C933 1.408 . S
C930 C928 1.363 . S
C930 C931 1.370 . S
C930 C934 1.524 . S
C931 C923 1.503 . S
C931 C930 1.370 . S
C931 C932 1.403 . S
C932 C931 1.403 . S
C932 C933 1.404 . S
C932 C935 1.539 . S
C933 C929 1.408 . S
C933 C932 1.404 . S
C933 H945 0.930 . S
C934 C930 1.524 . S
C934 H946 0.956 . S
C934 H947 0.961 . S
C934 H948 0.961 . S
C935 C932 1.539 . S
C935 H949 0.958 . S
C935 H950 0.961 . S
C935 H951 0.960 . S
H936 C920 0.931 . S
H937 C925 0.929 . S
H938 C926 0.960 . S
H939 C926 0.962 . S
H940 C926 0.960 . S
H941 C927 0.961 . S
H942 C927 0.961 . S
H943 C927 0.961 . S
H944 C928 0.931 . S
H945 C933 0.930 . S
H946 C934 0.956 . S
H947 C934 0.961 . S
H948 C934 0.961 . S
H949 C935 0.958 . S
H950 C935 0.961 . S
H951 C935 0.960 . S
C952 C953 1.391 . S
C952 C954 1.394 . S
C952 H968 0.931 . S
C953 C952 1.391 . S
C953 C957 1.376 . S
C954 C952 1.394 . S
C954 C955 1.369 . S
C954 C958 1.531 . S
C955 C954 1.369 . S
C955 C956 1.410 . S
C955 C963 1.503 . S
C956 C955 1.410 . S
C956 C957 1.392 . S
C956 C959 1.511 . S
C957 C953 1.376 . S
C957 C956 1.392 . S
C957 H969 0.929 . S
C958 C954 1.531 . S
C958 H970 0.960 . S
C958 H971 0.962 . S
C958 H972 0.960 . S
C959 C956 1.511 . S
C959 H973 0.961 . S
C959 H974 0.961 . S
C959 H975 0.961 . S
C960 C961 1.370 . S
C960 C962 1.363 . S
C960 H976 0.931 . S
C961 C960 1.370 . S
C961 C965 1.408 . S
C962 C960 1.363 . S
C962 C963 1.370 . S
C962 C966 1.524 . S
C963 C955 1.503 . S
C963 C962 1.370 . S
C963 C964 1.403 . S
C964 C963 1.403 . S
C964 C965 1.404 . S
C964 C967 1.539 . S
C965 C961 1.408 . S
C965 C964 1.404 . S
C965 H977 0.930 . S
C966 C962 1.524 . S
C966 H978 0.956 . S
C966 H979 0.961 . S
C966 H980 0.961 . S
C967 C964 1.539 . S
C967 H981 0.958 . S
C967 H982 0.961 . S
C967 H983 0.960 . S
H968 C952 0.931 . S
H969 C957 0.929 . S
H970 C958 0.960 . S
H971 C958 0.962 . S
H972 C958 0.960 . S
H973 C959 0.961 . S
H974 C959 0.961 . S
H975 C959 0.961 . S
H976 C960 0.931 . S
H977 C965 0.930 . S
H978 C966 0.956 . S
H979 C966 0.961 . S
H980 C966 0.961 . S
H981 C967 0.958 . S
H982 C967 0.961 . S
H983 C967 0.960 . S
C984 C985 1.391 . S
C984 C986 1.394 . S
C984 H1000 0.931 . S
C985 C984 1.391 . S
C985 C989 1.376 . S
C986 C984 1.394 . S
C986 C987 1.369 . S
C986 C990 1.531 . S
C987 C986 1.369 . S
C987 C988 1.410 . S
C987 C995 1.503 . S
C988 C987 1.410 . S
C988 C989 1.392 . S
C988 C991 1.511 . S
C989 C985 1.376 . S
C989 C988 1.392 . S
C989 H1001 0.929 . S
C990 C986 1.531 . S
C990 H1002 0.960 . S
C990 H1003 0.962 . S
C990 H1004 0.960 . S
C991 C988 1.511 . S
C991 H1005 0.961 . S
C991 H1006 0.961 . S
C991 H1007 0.961 . S
C992 C993 1.370 . S
C992 C994 1.363 . S
C992 H1008 0.931 . S
C993 C992 1.370 . S
C993 C997 1.408 . S
C994 C992 1.363 . S
C994 C995 1.370 . S
C994 C998 1.524 . S
C995 C987 1.503 . S
C995 C994 1.370 . S
C995 C996 1.403 . S
C996 C995 1.403 . S
C996 C997 1.404 . S
C996 C999 1.539 . S
C997 C993 1.408 . S
C997 C996 1.404 . S
C997 H1009 0.930 . S
C998 C994 1.524 . S
C998 H1010 0.956 . S
C998 H1011 0.961 . S
C998 H1012 0.961 . S
C999 C996 1.539 . S
C999 H1013 0.958 . S
C999 H1014 0.961 . S
C999 H1015 0.960 . S
H1000 C984 0.931 . S
H1001 C989 0.929 . S
H1002 C990 0.960 . S
H1003 C990 0.962 . S
H1004 C990 0.960 . S
H1005 C991 0.961 . S
H1006 C991 0.961 . S
H1007 C991 0.961 . S
H1008 C992 0.931 . S
H1009 C997 0.930 . S
H1010 C998 0.956 . S
H1011 C998 0.961 . S
H1012 C998 0.961 . S
H1013 C999 0.958 . S
H1014 C999 0.961 . S
H1015 C999 0.960 . S
C1016 C1017 1.391 . S
C1016 C1018 1.394 . S
C1016 H1032 0.931 . S
C1017 C1016 1.391 . S
C1017 C1021 1.376 . S
C1018 C1016 1.394 . S
C1018 C1019 1.369 . S
C1018 C1022 1.531 . S
C1019 C1018 1.369 . S
C1019 C1020 1.410 . S
C1019 C1027 1.503 . S
C1020 C1019 1.410 . S
C1020 C1021 1.392 . S
C1020 C1023 1.511 . S
C1021 C1017 1.376 . S
C1021 C1020 1.392 . S
C1021 H1033 0.929 . S
C1022 C1018 1.531 . S
C1022 H1034 0.960 . S
C1022 H1035 0.962 . S
C1022 H1036 0.960 . S
C1023 C1020 1.511 . S
C1023 H1037 0.961 . S
C1023 H1038 0.961 . S
C1023 H1039 0.961 . S
C1024 C1025 1.370 . S
C1024 C1026 1.363 . S
C1024 H1040 0.931 . S
C1025 C1024 1.370 . S
C1025 C1029 1.408 . S
C1026 C1024 1.363 . S
C1026 C1027 1.370 . S
C1026 C1030 1.524 . S
C1027 C1019 1.503 . S
C1027 C1026 1.370 . S
C1027 C1028 1.403 . S
C1028 C1027 1.403 . S
C1028 C1029 1.404 . S
C1028 C1031 1.539 . S
C1029 C1025 1.408 . S
C1029 C1028 1.404 . S
C1029 H1041 0.930 . S
C1030 C1026 1.524 . S
C1030 H1042 0.956 . S
C1030 H1043 0.961 . S
C1030 H1044 0.961 . S
C1031 C1028 1.539 . S
C1031 H1045 0.958 . S
C1031 H1046 0.961 . S
C1031 H1047 0.960 . S
H1032 C1016 0.931 . S
H1033 C1021 0.929 . S
H1034 C1022 0.960 . S
H1035 C1022 0.962 . S
H1036 C1022 0.960 . S
H1037 C1023 0.961 . S
H1038 C1023 0.961 . S
H1039 C1023 0.961 . S
H1040 C1024 0.931 . S
H1041 C1029 0.930 . S
H1042 C1030 0.956 . S
H1043 C1030 0.961 . S
H1044 C1030 0.961 . S
H1045 C1031 0.958 . S
H1046 C1031 0.961 . S
H1047 C1031 0.960 . S
C1048 C1049 1.391 . S
C1048 C1050 1.394 . S
C1048 H1064 0.931 . S
C1049 C1048 1.391 . S
C1049 C1053 1.376 . S
C1050 C1048 1.394 . S
C1050 C1051 1.369 . S
C1050 C1054 1.531 . S
C1051 C1050 1.369 . S
C1051 C1052 1.410 . S
C1051 C1059 1.503 . S
C1052 C1051 1.410 . S
C1052 C1053 1.392 . S
C1052 C1055 1.511 . S
C1053 C1049 1.376 . S
C1053 C1052 1.392 . S
C1053 H1065 0.929 . S
C1054 C1050 1.531 . S
C1054 H1066 0.960 . S
C1054 H1067 0.962 . S
C1054 H1068 0.960 . S
C1055 C1052 1.511 . S
C1055 H1069 0.961 . S
C1055 H1070 0.961 . S
C1055 H1071 0.961 . S
C1056 C1057 1.370 . S
C1056 C1058 1.363 . S
C1056 H1072 0.931 . S
C1057 C1056 1.370 . S
C1057 C1061 1.408 . S
C1058 C1056 1.363 . S
C1058 C1059 1.370 . S
C1058 C1062 1.524 . S
C1059 C1051 1.503 . S
C1059 C1058 1.370 . S
C1059 C1060 1.403 . S
C1060 C1059 1.403 . S
C1060 C1061 1.404 . S
C1060 C1063 1.539 . S
C1061 C1057 1.408 . S
C1061 C1060 1.404 . S
C1061 H1073 0.930 . S
C1062 C1058 1.524 . S
C1062 H1074 0.956 . S
C1062 H1075 0.961 . S
C1062 H1076 0.961 . S
C1063 C1060 1.539 . S
C1063 H1077 0.958 . S
C1063 H1078 0.961 . S
C1063 H1079 0.960 . S
H1064 C1048 0.931 . S
H1065 C1053 0.929 . S
H1066 C1054 0.960 . S
H1067 C1054 0.962 . S
H1068 C1054 0.960 . S
H1069 C1055 0.961 . S
H1070 C1055 0.961 . S
H1071 C1055 0.961 . S
H1072 C1056 0.931 . S
H1073 C1061 0.930 . S
H1074 C1062 0.956 . S
H1075 C1062 0.961 . S
H1076 C1062 0.961 . S
H1077 C1063 0.958 . S
H1078 C1063 0.961 . S
H1079 C1063 0.960 . S
C1080 C1081 1.376 1_545 S
C1080 C1082 1.403 . S
C1080 H1096 0.937 . S
C1081 C1080 1.376 1_565 S
C1081 C1085 1.376 . S
C1082 C1080 1.403 . S
C1082 C1083 1.369 1_545 S
C1082 C1086 1.531 . S
C1083 C1082 1.369 1_565 S
C1083 C1084 1.410 . S
C1083 C1091 1.503 1_566 S
C1084 C1083 1.410 . S
C1084 C1085 1.392 . S
C1084 C1087 1.511 1_556 S
C1085 C1081 1.376 . S
C1085 C1084 1.392 . S
C1085 H1097 0.929 . S
C1086 C1082 1.531 . S
C1086 H1098 0.960 . S
C1086 H1099 0.962 . S
C1086 H1100 0.960 . S
C1087 C1084 1.511 1_554 S
C1087 H1101 0.961 1_554 S
C1087 H1102 0.961 . S
C1087 H1103 0.961 . S
C1088 C1089 1.370 . S
C1088 C1090 1.363 . S
C1088 H1104 0.931 . S
C1089 C1088 1.370 . S
C1089 C1093 1.408 . S
C1090 C1088 1.363 . S
C1090 C1091 1.370 . S
C1090 C1094 1.524 1_545 S
C1091 C1083 1.503 1_544 S
C1091 C1090 1.370 . S
C1091 C1092 1.403 . S
C1092 C1091 1.403 . S
C1092 C1093 1.404 . S
C1092 C1095 1.539 . S
C1093 C1089 1.408 . S
C1093 C1092 1.404 . S
C1093 H1105 0.930 . S
C1094 C1090 1.524 1_565 S
C1094 H1106 0.956 . S
C1094 H1107 0.961 . S
C1094 H1108 0.961 . S
C1095 C1092 1.539 . S
C1095 H1109 0.958 1_554 S
C1095 H1110 0.961 . S
C1095 H1111 0.960 1_554 S
H1096 C1080 0.937 . S
H1097 C1085 0.929 . S
H1098 C1086 0.960 . S
H1099 C1086 0.962 . S
H1100 C1086 0.960 . S
H1101 C1087 0.961 1_556 S
H1102 C1087 0.961 . S
H1103 C1087 0.961 . S
H1104 C1088 0.931 . S
H1105 C1093 0.930 . S
H1106 C1094 0.956 . S
H1107 C1094 0.961 . S
H1108 C1094 0.961 . S
H1109 C1095 0.958 1_556 S
H1110 C1095 0.961 . S
H1111 C1095 0.960 1_556 S
C1112 C1113 1.391 . S
C1112 C1114 1.394 . S
C1112 H1128 0.931 . S
C1113 C1112 1.391 . S
C1113 C1117 1.376 . S
C1114 C1112 1.394 . S
C1114 C1115 1.369 . S
C1114 C1118 1.531 . S
C1115 C1114 1.369 . S
C1115 C1116 1.410 . S
C1115 C1123 1.503 . S
C1116 C1115 1.410 . S
C1116 C1117 1.392 . S
C1116 C1119 1.511 . S
C1117 C1113 1.376 . S
C1117 C1116 1.392 . S
C1117 H1129 0.929 . S
C1118 C1114 1.531 . S
C1118 H1130 0.960 . S
C1118 H1131 0.962 . S
C1118 H1132 0.960 . S
C1119 C1116 1.511 . S
C1119 H1133 0.961 . S
C1119 H1134 0.961 . S
C1119 H1135 0.961 . S
C1120 C1121 1.370 . S
C1120 C1122 1.363 . S
C1120 H1136 0.931 . S
C1121 C1120 1.370 . S
C1121 C1125 1.408 . S
C1122 C1120 1.363 . S
C1122 C1123 1.370 . S
C1122 C1126 1.524 . S
C1123 C1115 1.503 . S
C1123 C1122 1.370 . S
C1123 C1124 1.403 . S
C1124 C1123 1.403 . S
C1124 C1125 1.404 . S
C1124 C1127 1.539 . S
C1125 C1121 1.408 . S
C1125 C1124 1.404 . S
C1125 H1137 0.930 . S
C1126 C1122 1.524 . S
C1126 H1138 0.956 . S
C1126 H1139 0.961 . S
C1126 H1140 0.961 . S
C1127 C1124 1.539 . S
C1127 H1141 0.958 . S
C1127 H1142 0.961 . S
C1127 H1143 0.960 . S
H1128 C1112 0.931 . S
H1129 C1117 0.929 . S
H1130 C1118 0.960 . S
H1131 C1118 0.962 . S
H1132 C1118 0.960 . S
H1133 C1119 0.961 . S
H1134 C1119 0.961 . S
H1135 C1119 0.961 . S
H1136 C1120 0.931 . S
H1137 C1125 0.930 . S
H1138 C1126 0.956 . S
H1139 C1126 0.961 . S
H1140 C1126 0.961 . S
H1141 C1127 0.958 . S
H1142 C1127 0.961 . S
H1143 C1127 0.960 . S
C1144 C1145 1.391 . S
C1144 C1146 1.394 1_455 S
C1144 H1160 0.931 1_455 S
C1145 C1144 1.391 . S
C1145 C1149 1.376 . S
C1146 C1144 1.394 1_655 S
C1146 C1147 1.369 1_655 S
C1146 C1150 1.531 . S
C1147 C1146 1.369 1_455 S
C1147 C1148 1.410 . S
C1147 C1155 1.503 1_456 S
C1148 C1147 1.410 . S
C1148 C1149 1.392 . S
C1148 C1151 1.511 1_556 S
C1149 C1145 1.376 . S
C1149 C1148 1.392 . S
C1149 H1161 0.929 . S
C1150 C1146 1.531 . S
C1150 H1162 0.960 . S
C1150 H1163 0.962 . S
C1150 H1164 0.960 . S
C1151 C1148 1.511 1_554 S
C1151 H1165 0.961 1_554 S
C1151 H1166 0.961 . S
C1151 H1167 0.961 . S
C1152 C1153 1.370 . S
C1152 C1154 1.363 . S
C1152 H1168 0.931 . S
C1153 C1152 1.370 . S
C1153 C1157 1.408 . S
C1154 C1152 1.363 . S
C1154 C1155 1.370 . S
C1154 C1158 1.524 . S
C1155 C1147 1.503 1_654 S
C1155 C1154 1.370 . S
C1155 C1156 1.401 1_655 S
C1156 C1155 1.401 1_455 S
C1156 C1157 1.403 1_455 S
C1156 C1159 1.542 . S
C1157 C1153 1.408 . S
C1157 C1156 1.403 1_655 S
C1157 H1169 0.930 . S
C1158 C1154 1.524 . S
C1158 H1170 0.956 1_554 S
C1158 H1171 0.961 1_554 S
C1158 H1172 0.961 . S
C1159 C1156 1.542 . S
C1159 H1173 0.958 . S
C1159 H1174 0.961 . S
C1159 H1175 0.960 . S
H1160 C1144 0.931 1_655 S
H1161 C1149 0.929 . S
H1162 C1150 0.960 . S
H1163 C1150 0.962 . S
H1164 C1150 0.960 . S
H1165 C1151 0.961 1_556 S
H1166 C1151 0.961 . S
H1167 C1151 0.961 . S
H1168 C1152 0.931 . S
H1169 C1157 0.930 . S
H1170 C1158 0.956 1_556 S
H1171 C1158 0.961 1_556 S
H1172 C1158 0.961 . S
H1173 C1159 0.958 . S
H1174 C1159 0.961 . S
H1175 C1159 0.960 . S
C1176 C1177 1.391 . S
C1176 C1178 1.394 . S
C1176 H1192 0.931 . S
C1177 C1176 1.391 . S
C1177 C1181 1.376 . S
C1178 C1176 1.394 . S
C1178 C1179 1.369 . S
C1178 C1182 1.531 . S
C1179 C1178 1.369 . S
C1179 C1180 1.410 . S
C1179 C1187 1.503 1_545 S
C1180 C1179 1.410 . S
C1180 C1181 1.392 . S
C1180 C1183 1.511 1_545 S
C1181 C1177 1.376 . S
C1181 C1180 1.392 . S
C1181 H1193 0.929 . S
C1182 C1178 1.531 . S
C1182 H1194 0.960 . S
C1182 H1195 0.962 . S
C1182 H1196 0.960 . S
C1183 C1180 1.511 1_565 S
C1183 H1197 0.961 . S
C1183 H1198 0.961 . S
C1183 H1199 0.961 . S
C1184 C1185 1.370 . S
C1184 C1186 1.363 . S
C1184 H1200 0.931 . S
C1185 C1184 1.370 . S
C1185 C1189 1.408 . S
C1186 C1184 1.363 . S
C1186 C1187 1.370 . S
C1186 C1190 1.524 . S
C1187 C1179 1.503 1_565 S
C1187 C1186 1.370 . S
C1187 C1188 1.403 1_565 S
C1188 C1187 1.403 1_545 S
C1188 C1189 1.404 1_545 S
C1188 C1191 1.539 . S
C1189 C1185 1.408 . S
C1189 C1188 1.404 1_565 S
C1189 H1201 0.930 1_565 S
C1190 C1186 1.524 . S
C1190 H1202 0.956 . S
C1190 H1203 0.961 . S
C1190 H1204 0.961 . S
C1191 C1188 1.539 . S
C1191 H1205 0.958 . S
C1191 H1206 0.961 . S
C1191 H1207 0.960 . S
H1192 C1176 0.931 . S
H1193 C1181 0.929 . S
H1194 C1182 0.960 . S
H1195 C1182 0.962 . S
H1196 C1182 0.960 . S
H1197 C1183 0.961 . S
H1198 C1183 0.961 . S
H1199 C1183 0.961 . S
H1200 C1184 0.931 . S
H1201 C1189 0.930 1_545 S
H1202 C1190 0.956 . S
H1203 C1190 0.961 . S
H1204 C1190 0.961 . S
H1205 C1191 0.958 . S
H1206 C1191 0.961 . S
H1207 C1191 0.960 . S
C1208 C1209 1.391 . S
C1208 C1210 1.394 . S
C1208 H1224 0.931 . S
C1209 C1208 1.391 . S
C1209 C1213 1.376 . S
C1210 C1208 1.394 . S
C1210 C1211 1.369 . S
C1210 C1214 1.531 1_554 S
C1211 C1210 1.369 . S
C1211 C1212 1.410 . S
C1211 C1219 1.503 1_554 S
C1212 C1211 1.410 . S
C1212 C1213 1.392 . S
C1212 C1215 1.511 . S
C1213 C1209 1.376 . S
C1213 C1212 1.392 . S
C1213 H1225 0.929 . S
C1214 C1210 1.531 1_556 S
C1214 H1226 0.960 . S
C1214 H1227 0.962 . S
C1214 H1228 0.959 1_556 S
C1215 C1212 1.511 . S
C1215 H1229 0.961 . S
C1215 H1230 0.961 . S
C1215 H1231 0.961 . S
C1216 C1217 1.370 . S
C1216 C1218 1.363 . S
C1216 H1232 0.931 . S
C1217 C1216 1.370 . S
C1217 C1221 1.408 . S
C1218 C1216 1.363 . S
C1218 C1219 1.370 . S
C1218 C1222 1.524 . S
C1219 C1211 1.503 1_556 S
C1219 C1218 1.370 . S
C1219 C1220 1.403 . S
C1220 C1219 1.403 . S
C1220 C1221 1.404 . S
C1220 C1223 1.539 . S
C1221 C1217 1.408 . S
C1221 C1220 1.404 . S
C1221 H1233 0.930 . S
C1222 C1218 1.524 . S
C1222 H1234 0.956 . S
C1222 H1235 0.961 1_556 S
C1222 H1236 0.961 . S
C1223 C1220 1.539 . S
C1223 H1237 0.958 . S
C1223 H1238 0.961 . S
C1223 H1239 0.960 1_556 S
H1224 C1208 0.931 . S
H1225 C1213 0.929 . S
H1226 C1214 0.960 . S
H1227 C1214 0.962 . S
H1228 C1214 0.959 1_554 S
H1229 C1215 0.961 . S
H1230 C1215 0.961 . S
H1231 C1215 0.961 . S
H1232 C1216 0.931 . S
H1233 C1221 0.930 . S
H1234 C1222 0.956 . S
H1235 C1222 0.961 1_554 S
H1236 C1222 0.961 . S
H1237 C1223 0.958 . S
H1238 C1223 0.961 . S
H1239 C1223 0.960 1_554 S
C1240 C1241 1.391 . S
C1240 C1242 1.394 . S
C1240 H1256 0.931 . S
C1241 C1240 1.391 . S
C1241 C1245 1.376 . S
C1242 C1240 1.394 . S
C1242 C1243 1.392 . S
C1242 C1246 1.531 . S
C1243 C1242 1.392 . S
C1243 C1244 1.395 1_455 S
C1243 C1251 1.496 1_455 S
C1244 C1243 1.395 1_655 S
C1244 C1245 1.392 1_655 S
C1244 C1247 1.511 . S
C1245 C1241 1.376 . S
C1245 C1244 1.392 1_455 S
C1245 H1257 0.929 . S
C1246 C1242 1.531 . S
C1246 H1258 0.960 . S
C1246 H1259 0.962 . S
C1246 H1260 0.960 . S
C1247 C1244 1.511 . S
C1247 H1261 0.961 . S
C1247 H1262 0.961 . S
C1247 H1263 0.961 . S
C1248 C1249 1.370 . S
C1248 C1250 1.363 1_655 S
C1248 H1264 0.931 1_655 S
C1249 C1248 1.370 . S
C1249 C1253 1.408 . S
C1250 C1248 1.363 1_455 S
C1250 C1251 1.370 1_455 S
C1250 C1254 1.524 . S
C1251 C1243 1.496 1_655 S
C1251 C1250 1.370 1_655 S
C1251 C1252 1.403 . S
C1252 C1251 1.403 . S
C1252 C1253 1.404 . S
C1252 C1255 1.539 . S
C1253 C1249 1.408 . S
C1253 C1252 1.404 . S
C1253 H1265 0.930 . S
C1254 C1250 1.524 . S
C1254 H1266 0.956 . S
C1254 H1267 0.961 . S
C1254 H1268 0.961 . S
C1255 C1252 1.539 . S
C1255 H1269 0.958 . S
C1255 H1270 0.961 . S
C1255 H1271 0.960 . S
H1256 C1240 0.931 . S
H1257 C1245 0.929 . S
H1258 C1246 0.960 . S
H1259 C1246 0.962 . S
H1260 C1246 0.960 . S
H1261 C1247 0.961 . S
H1262 C1247 0.961 . S
H1263 C1247 0.961 . S
H1264 C1248 0.931 1_455 S
H1265 C1253 0.930 . S
H1266 C1254 0.956 . S
H1267 C1254 0.961 . S
H1268 C1254 0.961 . S
H1269 C1255 0.958 . S
H1270 C1255 0.961 . S
H1271 C1255 0.960 . S
C1272 C1273 1.391 . S
C1272 C1274 1.394 1_565 S
C1272 H1288 0.931 1_565 S
C1273 C1272 1.391 . S
C1273 C1277 1.376 . S
C1274 C1272 1.394 1_545 S
C1274 C1275 1.373 1_545 S
C1274 C1278 1.531 . S
C1275 C1274 1.373 1_565 S
C1275 C1276 1.416 . S
C1275 C1283 1.496 1_566 S
C1276 C1275 1.416 . S
C1276 C1277 1.392 . S
C1276 C1279 1.511 . S
C1277 C1273 1.376 . S
C1277 C1276 1.392 . S
C1277 H1289 0.929 . S
C1278 C1274 1.531 . S
C1278 H1290 0.960 . S
C1278 H1291 0.962 . S
C1278 H1292 0.960 . S
C1279 C1276 1.511 . S
C1279 H1293 0.961 . S
C1279 H1294 0.961 1_556 S
C1279 H1295 0.961 . S
C1280 C1281 1.370 . S
C1280 C1282 1.363 1_545 S
C1280 H1296 0.931 1_545 S
C1281 C1280 1.370 . S
C1281 C1285 1.408 . S
C1282 C1280 1.363 1_565 S
C1282 C1283 1.370 1_565 S
C1282 C1286 1.524 . S
C1283 C1275 1.496 1_544 S
C1283 C1282 1.370 1_545 S
C1283 C1284 1.403 . S
C1284 C1283 1.403 . S
C1284 C1285 1.404 . S
C1284 C1287 1.529 1_554 S
C1285 C1281 1.408 . S
C1285 C1284 1.404 . S
C1285 H1297 0.930 . S
C1286 C1282 1.524 . S
C1286 H1298 0.956 . S
C1286 H1299 0.961 . S
C1286 H1300 0.961 . S
C1287 C1284 1.529 1_556 S
C1287 H1301 0.965 . S
C1287 H1302 0.953 1_556 S
C1287 H1303 0.971 . S
H1288 C1272 0.931 1_545 S
H1289 C1277 0.929 . S
H1290 C1278 0.960 . S
H1291 C1278 0.962 . S
H1292 C1278 0.960 . S
H1293 C1279 0.961 . S
H1294 C1279 0.961 1_554 S
H1295 C1279 0.961 . S
H1296 C1280 0.931 1_565 S
H1297 C1285 0.930 . S
H1298 C1286 0.956 . S
H1299 C1286 0.961 . S
H1300 C1286 0.961 . S
H1301 C1287 0.965 . S
H1302 C1287 0.953 1_554 S
H1303 C1287 0.971 . S
C1304 C1305 1.391 . S
C1304 C1306 1.394 . S
C1304 H1320 0.931 . S
C1305 C1304 1.391 . S
C1305 C1309 1.376 . S
C1306 C1304 1.394 . S
C1306 C1307 1.369 . S
C1306 C1310 1.531 . S
C1307 C1306 1.369 . S
C1307 C1308 1.410 . S
C1307 C1315 1.503 . S
C1308 C1307 1.410 . S
C1308 C1309 1.392 . S
C1308 C1311 1.511 . S
C1309 C1305 1.376 . S
C1309 C1308 1.392 . S
C1309 H1321 0.929 . S
C1310 C1306 1.531 . S
C1310 H1322 0.960 . S
C1310 H1323 0.962 . S
C1310 H1324 0.960 . S
C1311 C1308 1.511 . S
C1311 H1325 0.961 . S
C1311 H1326 0.961 . S
C1311 H1327 0.961 . S
C1312 C1313 1.370 . S
C1312 C1314 1.363 . S
C1312 H1328 0.931 . S
C1313 C1312 1.370 . S
C1313 C1317 1.408 . S
C1314 C1312 1.363 . S
C1314 C1315 1.370 . S
C1314 C1318 1.524 . S
C1315 C1307 1.503 . S
C1315 C1314 1.370 . S
C1315 C1316 1.403 . S
C1316 C1315 1.403 . S
C1316 C1317 1.404 . S
C1316 C1319 1.539 . S
C1317 C1313 1.408 . S
C1317 C1316 1.404 . S
C1317 H1329 0.930 . S
C1318 C1314 1.524 . S
C1318 H1330 0.956 . S
C1318 H1331 0.961 . S
C1318 H1332 0.961 . S
C1319 C1316 1.539 . S
C1319 H1333 0.958 . S
C1319 H1334 0.961 . S
C1319 H1335 0.960 . S
H1320 C1304 0.931 . S
H1321 C1309 0.929 . S
H1322 C1310 0.960 . S
H1323 C1310 0.962 . S
H1324 C1310 0.960 . S
H1325 C1311 0.961 . S
H1326 C1311 0.961 . S
H1327 C1311 0.961 . S
H1328 C1312 0.931 . S
H1329 C1317 0.930 . S
H1330 C1318 0.956 . S
H1331 C1318 0.961 . S
H1332 C1318 0.961 . S
H1333 C1319 0.958 . S
H1334 C1319 0.961 . S
H1335 C1319 0.960 . S
C1336 C1337 1.364 1_455 S
C1336 C1338 1.404 . S
C1336 H1352 0.948 . S
C1337 C1336 1.364 1_655 S
C1337 C1341 1.376 . S
C1338 C1336 1.404 . S
C1338 C1339 1.369 1_455 S
C1338 C1342 1.531 . S
C1339 C1338 1.369 1_655 S
C1339 C1340 1.410 . S
C1339 C1347 1.503 1_654 S
C1340 C1339 1.410 . S
C1340 C1341 1.392 . S
C1340 C1343 1.511 1_554 S
C1341 C1337 1.376 . S
C1341 C1340 1.392 . S
C1341 H1353 0.929 . S
C1342 C1338 1.531 . S
C1342 H1354 0.960 . S
C1342 H1355 0.962 . S
C1342 H1356 0.960 . S
C1343 C1340 1.511 1_556 S
C1343 H1357 0.964 . S
C1343 H1358 0.961 . S
C1343 H1359 0.961 . S
C1344 C1345 1.370 . S
C1344 C1346 1.363 . S
C1344 H1360 0.931 . S
C1345 C1344 1.370 . S
C1345 C1349 1.408 . S
C1346 C1344 1.363 . S
C1346 C1347 1.370 . S
C1346 C1350 1.524 . S
C1347 C1339 1.503 1_456 S
C1347 C1346 1.370 . S
C1347 C1348 1.403 . S
C1348 C1347 1.403 . S
C1348 C1349 1.404 . S
C1348 C1351 1.539 1_455 S
C1349 C1345 1.408 . S
C1349 C1348 1.404 . S
C1349 H1361 0.930 . S
C1350 C1346 1.524 . S
C1350 H1362 0.956 1_556 S
C1350 H1363 0.961 1_455 S
C1350 H1364 0.961 . S
C1351 C1348 1.539 1_655 S
C1351 H1365 0.958 1_655 S
C1351 H1366 0.961 . S
C1351 H1367 0.960 . S
H1352 C1336 0.948 . S
H1353 C1341 0.929 . S
H1354 C1342 0.960 . S
H1355 C1342 0.962 . S
H1356 C1342 0.960 . S
H1357 C1343 0.964 . S
H1358 C1343 0.961 . S
H1359 C1343 0.961 . S
H1360 C1344 0.931 . S
H1361 C1349 0.930 . S
H1362 C1350 0.956 1_554 S
H1363 C1350 0.961 1_655 S
H1364 C1350 0.961 . S
H1365 C1351 0.958 1_455 S
H1366 C1351 0.961 . S
H1367 C1351 0.960 . S
C1368 C1369 1.391 1_545 S
C1368 C1370 1.394 . S
C1368 H1384 0.931 . S
C1369 C1368 1.391 1_565 S
C1369 C1373 1.376 . S
C1370 C1368 1.394 . S
C1370 C1371 1.369 1_545 S
C1370 C1374 1.531 . S
C1371 C1370 1.369 1_565 S
C1371 C1372 1.410 . S
C1371 C1379 1.503 1_565 S
C1372 C1371 1.410 . S
C1372 C1373 1.392 . S
C1372 C1375 1.511 . S
C1373 C1369 1.376 . S
C1373 C1372 1.392 . S
C1373 H1385 0.929 . S
C1374 C1370 1.531 . S
C1374 H1386 0.960 . S
C1374 H1387 0.962 . S
C1374 H1388 0.960 . S
C1375 C1372 1.511 . S
C1375 H1389 0.961 . S
C1375 H1390 0.961 . S
C1375 H1391 0.961 . S
C1376 C1377 1.370 . S
C1376 C1378 1.363 . S
C1376 H1392 0.931 . S
C1377 C1376 1.370 . S
C1377 C1381 1.408 . S
C1378 C1376 1.363 . S
C1378 C1379 1.370 . S
C1378 C1382 1.524 . S
C1379 C1371 1.503 1_545 S
C1379 C1378 1.370 . S
C1379 C1380 1.403 . S
C1380 C1379 1.403 . S
C1380 C1381 1.404 . S
C1380 C1383 1.539 . S
C1381 C1377 1.408 . S
C1381 C1380 1.404 . S
C1381 H1393 0.930 . S
C1382 C1378 1.524 . S
C1382 H1394 0.956 . S
C1382 H1395 0.961 1_545 S
C1382 H1396 0.961 . S
C1383 C1380 1.539 . S
C1383 H1397 0.958 . S
C1383 H1398 0.961 1_545 S
C1383 H1399 0.960 1_545 S
H1384 C1368 0.931 . S
H1385 C1373 0.929 . S
H1386 C1374 0.960 . S
H1387 C1374 0.962 . S
H1388 C1374 0.960 . S
H1389 C1375 0.961 . S
H1390 C1375 0.961 . S
H1391 C1375 0.961 . S
H1392 C1376 0.931 . S
H1393 C1381 0.930 . S
H1394 C1382 0.956 . S
H1395 C1382 0.961 1_565 S
H1396 C1382 0.961 . S
H1397 C1383 0.958 . S
H1398 C1383 0.961 1_565 S
H1399 C1383 0.960 1_565 S
C1400 C1401 1.391 . S
C1400 C1402 1.394 . S
C1400 H1416 0.931 . S
C1401 C1400 1.391 . S
C1401 C1405 1.376 . S
C1402 C1400 1.394 . S
C1402 C1403 1.369 . S
C1402 C1406 1.531 1_554 S
C1403 C1402 1.369 . S
C1403 C1404 1.410 . S
C1403 C1411 1.503 1_554 S
C1404 C1403 1.410 . S
C1404 C1405 1.392 . S
C1404 C1407 1.511 . S
C1405 C1401 1.376 . S
C1405 C1404 1.392 . S
C1405 H1417 0.929 . S
C1406 C1402 1.531 1_556 S
C1406 H1418 0.960 . S
C1406 H1419 0.962 . S
C1406 H1420 0.973 . S
C1407 C1404 1.511 . S
C1407 H1421 0.961 . S
C1407 H1422 0.961 . S
C1407 H1423 0.961 . S
C1408 C1409 1.370 . S
C1408 C1410 1.363 . S
C1408 H1424 0.931 . S
C1409 C1408 1.370 . S
C1409 C1413 1.408 . S
C1410 C1408 1.363 . S
C1410 C1411 1.370 . S
C1410 C1414 1.524 . S
C1411 C1403 1.503 1_556 S
C1411 C1410 1.370 . S
C1411 C1412 1.403 . S
C1412 C1411 1.403 . S
C1412 C1413 1.404 . S
C1412 C1415 1.539 . S
C1413 C1409 1.408 . S
C1413 C1412 1.404 . S
C1413 H1425 0.930 . S
C1414 C1410 1.524 . S
C1414 H1426 0.956 . S
C1414 H1427 0.961 1_556 S
C1414 H1428 0.961 . S
C1415 C1412 1.539 . S
C1415 H1429 0.958 . S
C1415 H1430 0.961 . S
C1415 H1431 0.960 . S
H1416 C1400 0.931 . S
H1417 C1405 0.929 . S
H1418 C1406 0.960 . S
H1419 C1406 0.962 . S
H1420 C1406 0.973 . S
H1421 C1407 0.961 . S
H1422 C1407 0.961 . S
H1423 C1407 0.961 . S
H1424 C1408 0.931 . S
H1425 C1413 0.930 . S
H1426 C1414 0.956 . S
H1427 C1414 0.961 1_554 S
H1428 C1414 0.961 . S
H1429 C1415 0.958 . S
H1430 C1415 0.961 . S
H1431 C1415 0.960 . S
C1432 C1433 1.391 . S
C1432 C1434 1.394 . S
C1432 H1448 0.931 . S
C1433 C1432 1.391 . S
C1433 C1437 1.376 1_455 S
C1434 C1432 1.394 . S
C1434 C1435 1.369 . S
C1434 C1438 1.531 . S
C1435 C1434 1.369 . S
C1435 C1436 1.410 1_455 S
C1435 C1443 1.503 1_455 S
C1436 C1435 1.410 1_655 S
C1436 C1437 1.392 . S
C1436 C1439 1.511 . S
C1437 C1433 1.376 1_655 S
C1437 C1436 1.392 . S
C1437 H1449 0.929 . S
C1438 C1434 1.531 . S
C1438 H1450 0.960 . S
C1438 H1451 0.962 . S
C1438 H1452 0.960 . S
C1439 C1436 1.511 . S
C1439 H1453 0.961 . S
C1439 H1454 0.961 . S
C1439 H1455 0.961 . S
C1440 C1441 1.370 . S
C1440 C1442 1.363 . S
C1440 H1456 0.931 . S
C1441 C1440 1.370 . S
C1441 C1445 1.408 . S
C1442 C1440 1.363 . S
C1442 C1443 1.370 . S
C1442 C1446 1.524 1_655 S
C1443 C1435 1.503 1_655 S
C1443 C1442 1.370 . S
C1443 C1444 1.403 . S
C1444 C1443 1.403 . S
C1444 C1445 1.404 . S
C1444 C1447 1.539 . S
C1445 C1441 1.408 . S
C1445 C1444 1.404 . S
C1445 H1457 0.930 . S
C1446 C1442 1.524 1_455 S
C1446 H1458 0.956 . S
C1446 H1459 0.961 1_455 S
C1446 H1460 0.961 . S
C1447 C1444 1.539 . S
C1447 H1461 0.958 . S
C1447 H1462 0.961 . S
C1447 H1463 0.960 . S
H1448 C1432 0.931 . S
H1449 C1437 0.929 . S
H1450 C1438 0.960 . S
H1451 C1438 0.962 . S
H1452 C1438 0.960 . S
H1453 C1439 0.961 . S
H1454 C1439 0.961 . S
H1455 C1439 0.961 . S
H1456 C1440 0.931 . S
H1457 C1445 0.930 . S
H1458 C1446 0.956 . S
H1459 C1446 0.961 1_655 S
H1460 C1446 0.961 . S
H1461 C1447 0.958 . S
H1462 C1447 0.961 . S
H1463 C1447 0.960 . S
C1464 C1465 1.391 . S
C1464 C1466 1.394 . S
C1464 H1480 0.931 . S
C1465 C1464 1.391 . S
C1465 C1469 1.376 . S
C1466 C1464 1.394 . S
C1466 C1467 1.369 . S
C1466 C1470 1.531 . S
C1467 C1466 1.369 . S
C1467 C1468 1.410 . S
C1467 C1475 1.503 . S
C1468 C1467 1.410 . S
C1468 C1469 1.392 . S
C1468 C1471 1.511 . S
C1469 C1465 1.376 . S
C1469 C1468 1.392 . S
C1469 H1481 0.929 . S
C1470 C1466 1.531 . S
C1470 H1482 0.960 . S
C1470 H1483 0.962 . S
C1470 H1484 0.960 . S
C1471 C1468 1.511 . S
C1471 H1485 0.961 . S
C1471 H1486 0.961 . S
C1471 H1487 0.961 . S
C1472 C1473 1.370 . S
C1472 C1474 1.363 . S
C1472 H1488 0.931 . S
C1473 C1472 1.370 . S
C1473 C1477 1.408 . S
C1474 C1472 1.363 . S
C1474 C1475 1.370 . S
C1474 C1478 1.524 . S
C1475 C1467 1.503 . S
C1475 C1474 1.370 . S
C1475 C1476 1.403 . S
C1476 C1475 1.403 . S
C1476 C1477 1.404 . S
C1476 C1479 1.539 . S
C1477 C1473 1.408 . S
C1477 C1476 1.404 . S
C1477 H1489 0.930 . S
C1478 C1474 1.524 . S
C1478 H1490 0.956 . S
C1478 H1491 0.961 . S
C1478 H1492 0.961 . S
C1479 C1476 1.539 . S
C1479 H1493 0.958 1_545 S
C1479 H1494 0.961 1_545 S
C1479 H1495 0.960 . S
H1480 C1464 0.931 . S
H1481 C1469 0.929 . S
H1482 C1470 0.960 . S
H1483 C1470 0.962 . S
H1484 C1470 0.960 . S
H1485 C1471 0.961 . S
H1486 C1471 0.961 . S
H1487 C1471 0.961 . S
H1488 C1472 0.931 . S
H1489 C1477 0.930 . S
H1490 C1478 0.956 . S
H1491 C1478 0.961 . S
H1492 C1478 0.961 . S
H1493 C1479 0.958 1_565 S
H1494 C1479 0.961 1_565 S
H1495 C1479 0.960 . S
C1496 C1497 1.391 . S
C1496 C1498 1.394 . S
C1496 H1512 0.931 . S
C1497 C1496 1.391 . S
C1497 C1501 1.376 . S
C1498 C1496 1.394 . S
C1498 C1499 1.369 . S
C1498 C1502 1.531 . S
C1499 C1498 1.369 . S
C1499 C1500 1.410 . S
C1499 C1507 1.503 . S
C1500 C1499 1.410 . S
C1500 C1501 1.392 . S
C1500 C1503 1.511 . S
C1501 C1497 1.376 . S
C1501 C1500 1.392 . S
C1501 H1513 0.929 . S
C1502 C1498 1.531 . S
C1502 H1514 0.960 . S
C1502 H1515 0.962 . S
C1502 H1516 0.960 . S
C1503 C1500 1.511 . S
C1503 H1517 0.961 . S
C1503 H1518 0.961 . S
C1503 H1519 0.961 . S
C1504 C1505 1.370 . S
C1504 C1506 1.363 . S
C1504 H1520 0.931 . S
C1505 C1504 1.370 . S
C1505 C1509 1.408 . S
C1506 C1504 1.363 . S
C1506 C1507 1.370 . S
C1506 C1510 1.524 . S
C1507 C1499 1.503 . S
C1507 C1506 1.370 . S
C1507 C1508 1.403 . S
C1508 C1507 1.403 . S
C1508 C1509 1.404 . S
C1508 C1511 1.539 . S
C1509 C1505 1.408 . S
C1509 C1508 1.404 . S
C1509 H1521 0.930 . S
C1510 C1506 1.524 . S
C1510 H1522 0.956 . S
C1510 H1523 0.961 . S
C1510 H1524 0.961 . S
C1511 C1508 1.539 . S
C1511 H1525 0.958 . S
C1511 H1526 0.961 . S
C1511 H1527 0.960 . S
H1512 C1496 0.931 . S
H1513 C1501 0.929 . S
H1514 C1502 0.960 . S
H1515 C1502 0.962 . S
H1516 C1502 0.960 . S
H1517 C1503 0.961 . S
H1518 C1503 0.961 . S
H1519 C1503 0.961 . S
H1520 C1504 0.931 . S
H1521 C1509 0.930 . S
H1522 C1510 0.956 . S
H1523 C1510 0.961 . S
H1524 C1510 0.961 . S
H1525 C1511 0.958 . S
H1526 C1511 0.961 . S
H1527 C1511 0.960 . S
C1528 C1529 1.391 . S
C1528 C1530 1.394 . S
C1528 H1544 0.931 . S
C1529 C1528 1.391 . S
C1529 C1533 1.376 . S
C1530 C1528 1.394 . S
C1530 C1531 1.369 . S
C1530 C1534 1.531 . S
C1531 C1530 1.369 . S
C1531 C1532 1.410 . S
C1531 C1539 1.503 . S
C1532 C1531 1.410 . S
C1532 C1533 1.392 . S
C1532 C1535 1.511 . S
C1533 C1529 1.376 . S
C1533 C1532 1.392 . S
C1533 H1545 0.929 . S
C1534 C1530 1.531 . S
C1534 H1546 0.960 . S
C1534 H1547 0.962 . S
C1534 H1548 0.960 . S
C1535 C1532 1.511 . S
C1535 H1549 0.961 . S
C1535 H1550 0.961 . S
C1535 H1551 0.961 . S
C1536 C1537 1.370 . S
C1536 C1538 1.363 . S
C1536 H1552 0.931 . S
C1537 C1536 1.370 . S
C1537 C1541 1.408 . S
C1538 C1536 1.363 . S
C1538 C1539 1.370 . S
C1538 C1542 1.524 . S
C1539 C1531 1.503 . S
C1539 C1538 1.370 . S
C1539 C1540 1.403 . S
C1540 C1539 1.403 . S
C1540 C1541 1.404 . S
C1540 C1543 1.539 . S
C1541 C1537 1.408 . S
C1541 C1540 1.404 . S
C1541 H1553 0.930 . S
C1542 C1538 1.524 . S
C1542 H1554 0.956 . S
C1542 H1555 0.961 . S
C1542 H1556 0.961 . S
C1543 C1540 1.539 . S
C1543 H1557 0.958 . S
C1543 H1558 0.961 . S
C1543 H1559 0.960 . S
H1544 C1528 0.931 . S
H1545 C1533 0.929 . S
H1546 C1534 0.960 . S
H1547 C1534 0.962 . S
H1548 C1534 0.960 . S
H1549 C1535 0.961 . S
H1550 C1535 0.961 . S
H1551 C1535 0.961 . S
H1552 C1536 0.931 . S
H1553 C1541 0.930 . S
H1554 C1542 0.956 . S
H1555 C1542 0.961 . S
H1556 C1542 0.961 . S
H1557 C1543 0.958 . S
H1558 C1543 0.961 . S
H1559 C1543 0.960 . S
C1560 C1561 1.391 . S
C1560 C1562 1.394 . S
C1560 H1576 0.931 . S
C1561 C1560 1.391 . S
C1561 C1565 1.376 . S
C1562 C1560 1.394 . S
C1562 C1563 1.369 . S
C1562 C1566 1.531 . S
C1563 C1562 1.369 . S
C1563 C1564 1.410 . S
C1563 C1571 1.503 . S
C1564 C1563 1.410 . S
C1564 C1565 1.392 . S
C1564 C1567 1.511 . S
C1565 C1561 1.376 . S
C1565 C1564 1.392 . S
C1565 H1577 0.929 . S
C1566 C1562 1.531 . S
C1566 H1578 0.960 . S
C1566 H1579 0.962 . S
C1566 H1580 0.960 . S
C1567 C1564 1.511 . S
C1567 H1581 0.961 . S
C1567 H1582 0.961 . S
C1567 H1583 0.961 . S
C1568 C1569 1.370 . S
C1568 C1570 1.363 . S
C1568 H1584 0.931 . S
C1569 C1568 1.370 . S
C1569 C1573 1.408 . S
C1570 C1568 1.363 . S
C1570 C1571 1.370 . S
C1570 C1574 1.524 . S
C1571 C1563 1.503 . S
C1571 C1570 1.370 . S
C1571 C1572 1.403 . S
C1572 C1571 1.403 . S
C1572 C1573 1.404 . S
C1572 C1575 1.539 . S
C1573 C1569 1.408 . S
C1573 C1572 1.404 . S
C1573 H1585 0.930 . S
C1574 C1570 1.524 . S
C1574 H1586 0.956 . S
C1574 H1587 0.961 . S
C1574 H1588 0.961 . S
C1575 C1572 1.539 . S
C1575 H1589 0.958 . S
C1575 H1590 0.961 . S
C1575 H1591 0.960 . S
H1576 C1560 0.931 . S
H1577 C1565 0.929 . S
H1578 C1566 0.960 . S
H1579 C1566 0.962 . S
H1580 C1566 0.960 . S
H1581 C1567 0.961 . S
H1582 C1567 0.961 . S
H1583 C1567 0.961 . S
H1584 C1568 0.931 . S
H1585 C1573 0.930 . S
H1586 C1574 0.956 . S
H1587 C1574 0.961 . S
H1588 C1574 0.961 . S
H1589 C1575 0.958 . S
H1590 C1575 0.961 . S
H1591 C1575 0.960 . S
C1592 C1593 1.391 . S
C1592 C1594 1.394 . S
C1592 H1608 0.931 . S
C1593 C1592 1.391 . S
C1593 C1597 1.376 . S
C1594 C1592 1.394 . S
C1594 C1595 1.369 . S
C1594 C1598 1.531 . S
C1595 C1594 1.369 . S
C1595 C1596 1.410 . S
C1595 C1603 1.503 . S
C1596 C1595 1.410 . S
C1596 C1597 1.392 . S
C1596 C1599 1.511 . S
C1597 C1593 1.376 . S
C1597 C1596 1.392 . S
C1597 H1609 0.929 . S
C1598 C1594 1.531 . S
C1598 H1610 0.960 . S
C1598 H1611 0.962 . S
C1598 H1612 0.960 . S
C1599 C1596 1.511 . S
C1599 H1613 0.961 . S
C1599 H1614 0.961 . S
C1599 H1615 0.961 . S
C1600 C1601 1.370 . S
C1600 C1602 1.363 . S
C1600 H1616 0.931 . S
C1601 C1600 1.370 . S
C1601 C1605 1.408 . S
C1602 C1600 1.363 . S
C1602 C1603 1.370 . S
C1602 C1606 1.524 . S
C1603 C1595 1.503 . S
C1603 C1602 1.370 . S
C1603 C1604 1.403 . S
C1604 C1603 1.403 . S
C1604 C1605 1.404 . S
C1604 C1607 1.539 . S
C1605 C1601 1.408 . S
C1605 C1604 1.404 . S
C1605 H1617 0.930 . S
C1606 C1602 1.524 . S
C1606 H1618 0.956 . S
C1606 H1619 0.961 . S
C1606 H1620 0.961 . S
C1607 C1604 1.539 . S
C1607 H1621 0.958 . S
C1607 H1622 0.961 . S
C1607 H1623 0.960 . S
H1608 C1592 0.931 . S
H1609 C1597 0.929 . S
H1610 C1598 0.960 . S
H1611 C1598 0.962 . S
H1612 C1598 0.960 . S
H1613 C1599 0.961 . S
H1614 C1599 0.961 . S
H1615 C1599 0.961 . S
H1616 C1600 0.931 . S
H1617 C1605 0.930 . S
H1618 C1606 0.956 . S
H1619 C1606 0.961 . S
H1620 C1606 0.961 . S
H1621 C1607 0.958 . S
H1622 C1607 0.961 . S
H1623 C1607 0.960 . S
C1624 C1625 1.391 . S
C1624 C1626 1.394 . S
C1624 H1640 0.931 . S
C1625 C1624 1.391 . S
C1625 C1629 1.376 . S
C1626 C1624 1.394 . S
C1626 C1627 1.369 . S
C1626 C1630 1.531 . S
C1627 C1626 1.369 . S
C1627 C1628 1.410 . S
C1627 C1635 1.503 . S
C1628 C1627 1.410 . S
C1628 C1629 1.392 . S
C1628 C1631 1.511 . S
C1629 C1625 1.376 . S
C1629 C1628 1.392 . S
C1629 H1641 0.929 . S
C1630 C1626 1.531 . S
C1630 H1642 0.960 . S
C1630 H1643 0.962 . S
C1630 H1644 0.960 1_455 S
C1631 C1628 1.511 . S
C1631 H1645 0.961 . S
C1631 H1646 0.961 . S
C1631 H1647 0.961 . S
C1632 C1633 1.370 . S
C1632 C1634 1.363 . S
C1632 H1648 0.931 . S
C1633 C1632 1.370 . S
C1633 C1637 1.408 . S
C1634 C1632 1.363 . S
C1634 C1635 1.370 . S
C1634 C1638 1.524 . S
C1635 C1627 1.503 . S
C1635 C1634 1.370 . S
C1635 C1636 1.403 . S
C1636 C1635 1.403 . S
C1636 C1637 1.404 . S
C1636 C1639 1.539 . S
C1637 C1633 1.408 . S
C1637 C1636 1.404 . S
C1637 H1649 0.930 . S
C1638 C1634 1.524 . S
C1638 H1650 0.956 . S
C1638 H1651 0.961 . S
C1638 H1652 0.961 . S
C1639 C1636 1.539 . S
C1639 H1653 0.958 . S
C1639 H1654 0.961 . S
C1639 H1655 0.960 . S
H1640 C1624 0.931 . S
H1641 C1629 0.929 . S
H1642 C1630 0.960 . S
H1643 C1630 0.962 . S
H1644 C1630 0.960 1_655 S
H1645 C1631 0.961 . S
H1646 C1631 0.961 . S
H1647 C1631 0.961 . S
H1648 C1632 0.931 . S
H1649 C1637 0.930 . S
H1650 C1638 0.956 . S
H1651 C1638 0.961 . S
H1652 C1638 0.961 . S
H1653 C1639 0.958 . S
H1654 C1639 0.961 . S
H1655 C1639 0.960 . S
C1656 C1657 1.391 . S
C1656 C1658 1.394 . S
C1656 H1672 0.931 . S
C1657 C1656 1.391 . S
C1657 C1661 1.376 . S
C1658 C1656 1.394 . S
C1658 C1659 1.369 . S
C1658 C1662 1.531 . S
C1659 C1658 1.369 . S
C1659 C1660 1.410 . S
C1659 C1667 1.503 . S
C1660 C1659 1.410 . S
C1660 C1661 1.392 . S
C1660 C1663 1.511 . S
C1661 C1657 1.376 . S
C1661 C1660 1.392 . S
C1661 H1673 0.929 . S
C1662 C1658 1.531 . S
C1662 H1674 0.960 . S
C1662 H1675 0.962 . S
C1662 H1676 0.960 . S
C1663 C1660 1.511 . S
C1663 H1677 0.961 . S
C1663 H1678 0.961 . S
C1663 H1679 0.961 . S
C1664 C1665 1.370 . S
C1664 C1666 1.363 . S
C1664 H1680 0.931 . S
C1665 C1664 1.370 . S
C1665 C1669 1.408 . S
C1666 C1664 1.363 . S
C1666 C1667 1.370 . S
C1666 C1670 1.524 . S
C1667 C1659 1.503 . S
C1667 C1666 1.370 . S
C1667 C1668 1.403 . S
C1668 C1667 1.403 . S
C1668 C1669 1.404 . S
C1668 C1671 1.539 . S
C1669 C1665 1.408 . S
C1669 C1668 1.404 . S
C1669 H1681 0.930 . S
C1670 C1666 1.524 . S
C1670 H1682 0.956 . S
C1670 H1683 0.961 . S
C1670 H1684 0.961 . S
C1671 C1668 1.539 . S
C1671 H1685 0.958 . S
C1671 H1686 0.961 . S
C1671 H1687 0.960 . S
H1672 C1656 0.931 . S
H1673 C1661 0.929 . S
H1674 C1662 0.960 . S
H1675 C1662 0.962 . S
H1676 C1662 0.960 . S
H1677 C1663 0.961 . S
H1678 C1663 0.961 . S
H1679 C1663 0.961 . S
H1680 C1664 0.931 . S
H1681 C1669 0.930 . S
H1682 C1670 0.956 . S
H1683 C1670 0.961 . S
H1684 C1670 0.961 . S
H1685 C1671 0.958 . S
H1686 C1671 0.961 . S
H1687 C1671 0.960 . S
C1688 C1689 1.391 . S
C1688 C1690 1.394 . S
C1688 H1704 0.931 . S
C1689 C1688 1.391 . S
C1689 C1693 1.376 . S
C1690 C1688 1.394 . S
C1690 C1691 1.369 . S
C1690 C1694 1.531 . S
C1691 C1690 1.369 . S
C1691 C1692 1.410 . S
C1691 C1699 1.503 . S
C1692 C1691 1.410 . S
C1692 C1693 1.392 . S
C1692 C1695 1.511 . S
C1693 C1689 1.376 . S
C1693 C1692 1.392 . S
C1693 H1705 0.929 . S
C1694 C1690 1.531 . S
C1694 H1706 0.960 . S
C1694 H1707 0.962 . S
C1694 H1708 0.960 . S
C1695 C1692 1.511 . S
C1695 H1709 0.961 . S
C1695 H1710 0.961 . S
C1695 H1711 0.961 . S
C1696 C1697 1.370 . S
C1696 C1698 1.363 . S
C1696 H1712 0.931 . S
C1697 C1696 1.370 . S
C1697 C1701 1.408 . S
C1698 C1696 1.363 . S
C1698 C1699 1.370 . S
C1698 C1702 1.524 . S
C1699 C1691 1.503 . S
C1699 C1698 1.370 . S
C1699 C1700 1.403 . S
C1700 C1699 1.403 . S
C1700 C1701 1.404 . S
C1700 C1703 1.539 . S
C1701 C1697 1.408 . S
C1701 C1700 1.404 . S
C1701 H1713 0.930 . S
C1702 C1698 1.524 . S
C1702 H1714 0.956 . S
C1702 H1715 0.961 . S
C1702 H1716 0.961 . S
C1703 C1700 1.539 . S
C1703 H1717 0.958 . S
C1703 H1718 0.961 . S
C1703 H1719 0.960 . S
H1704 C1688 0.931 . S
H1705 C1693 0.929 . S
H1706 C1694 0.960 . S
H1707 C1694 0.962 . S
H1708 C1694 0.960 . S
H1709 C1695 0.961 . S
H1710 C1695 0.961 . S
H1711 C1695 0.961 . S
H1712 C1696 0.931 . S
H1713 C1701 0.930 . S
H1714 C1702 0.956 . S
H1715 C1702 0.961 . S
H1716 C1702 0.961 . S
H1717 C1703 0.958 . S
H1718 C1703 0.961 . S
H1719 C1703 0.960 . S
C1720 C1721 1.391 . S
C1720 C1722 1.394 . S
C1720 H1736 0.931 . S
C1721 C1720 1.391 . S
C1721 C1725 1.376 . S
C1722 C1720 1.394 . S
C1722 C1723 1.369 . S
C1722 C1726 1.531 . S
C1723 C1722 1.369 . S
C1723 C1724 1.410 . S
C1723 C1731 1.503 . S
C1724 C1723 1.410 . S
C1724 C1725 1.392 . S
C1724 C1727 1.511 . S
C1725 C1721 1.376 . S
C1725 C1724 1.392 . S
C1725 H1737 0.929 . S
C1726 C1722 1.531 . S
C1726 H1738 0.960 . S
C1726 H1739 0.962 . S
C1726 H1740 0.960 . S
C1727 C1724 1.511 . S
C1727 H1741 0.961 . S
C1727 H1742 0.961 . S
C1727 H1743 0.961 . S
C1728 C1729 1.370 . S
C1728 C1730 1.363 . S
C1728 H1744 0.931 . S
C1729 C1728 1.370 . S
C1729 C1733 1.408 . S
C1730 C1728 1.363 . S
C1730 C1731 1.370 . S
C1730 C1734 1.524 . S
C1731 C1723 1.503 . S
C1731 C1730 1.370 . S
C1731 C1732 1.403 . S
C1732 C1731 1.403 . S
C1732 C1733 1.404 . S
C1732 C1735 1.539 . S
C1733 C1729 1.408 . S
C1733 C1732 1.404 . S
C1733 H1745 0.930 . S
C1734 C1730 1.524 . S
C1734 H1746 0.956 . S
C1734 H1747 0.961 . S
C1734 H1748 0.961 . S
C1735 C1732 1.539 . S
C1735 H1749 0.958 . S
C1735 H1750 0.961 . S
C1735 H1751 0.960 . S
H1736 C1720 0.931 . S
H1737 C1725 0.929 . S
H1738 C1726 0.960 . S
H1739 C1726 0.962 . S
H1740 C1726 0.960 . S
H1741 C1727 0.961 . S
H1742 C1727 0.961 . S
H1743 C1727 0.961 . S
H1744 C1728 0.931 . S
H1745 C1733 0.930 . S
H1746 C1734 0.956 . S
H1747 C1734 0.961 . S
H1748 C1734 0.961 . S
H1749 C1735 0.958 . S
H1750 C1735 0.961 . S
H1751 C1735 0.960 . S
C1752 C1753 1.391 . S
C1752 C1754 1.394 . S
C1752 H1768 0.931 . S
C1753 C1752 1.391 . S
C1753 C1757 1.376 . S
C1754 C1752 1.394 . S
C1754 C1755 1.369 . S
C1754 C1758 1.531 . S
C1755 C1754 1.369 . S
C1755 C1756 1.410 . S
C1755 C1763 1.503 . S
C1756 C1755 1.410 . S
C1756 C1757 1.392 . S
C1756 C1759 1.511 . S
C1757 C1753 1.376 . S
C1757 C1756 1.392 . S
C1757 H1769 0.929 . S
C1758 C1754 1.531 . S
C1758 H1770 0.960 . S
C1758 H1771 0.962 . S
C1758 H1772 0.960 . S
C1759 C1756 1.511 . S
C1759 H1773 0.961 1_455 S
C1759 H1774 0.961 . S
C1759 H1775 0.961 1_455 S
C1760 C1761 1.370 . S
C1760 C1762 1.363 . S
C1760 H1776 0.931 . S
C1761 C1760 1.370 . S
C1761 C1765 1.408 . S
C1762 C1760 1.363 . S
C1762 C1763 1.370 . S
C1762 C1766 1.524 . S
C1763 C1755 1.503 . S
C1763 C1762 1.370 . S
C1763 C1764 1.403 . S
C1764 C1763 1.403 . S
C1764 C1765 1.404 . S
C1764 C1767 1.539 . S
C1765 C1761 1.408 . S
C1765 C1764 1.404 . S
C1765 H1777 0.930 . S
C1766 C1762 1.524 . S
C1766 H1778 0.956 . S
C1766 H1779 0.961 . S
C1766 H1780 0.961 . S
C1767 C1764 1.539 . S
C1767 H1781 0.958 . S
C1767 H1782 0.961 . S
C1767 H1783 0.960 . S
H1768 C1752 0.931 . S
H1769 C1757 0.929 . S
H1770 C1758 0.960 . S
H1771 C1758 0.962 . S
H1772 C1758 0.960 . S
H1773 C1759 0.961 1_655 S
H1774 C1759 0.961 . S
H1775 C1759 0.961 1_655 S
H1776 C1760 0.931 . S
H1777 C1765 0.930 . S
H1778 C1766 0.956 . S
H1779 C1766 0.961 . S
H1780 C1766 0.961 . S
H1781 C1767 0.958 . S
H1782 C1767 0.961 . S
H1783 C1767 0.960 . S
C1784 C1785 1.391 . S
C1784 C1786 1.394 . S
C1784 H1800 0.931 . S
C1785 C1784 1.391 . S
C1785 C1789 1.376 . S
C1786 C1784 1.394 . S
C1786 C1787 1.369 . S
C1786 C1790 1.531 . S
C1787 C1786 1.369 . S
C1787 C1788 1.410 . S
C1787 C1795 1.503 . S
C1788 C1787 1.410 . S
C1788 C1789 1.392 . S
C1788 C1791 1.511 . S
C1789 C1785 1.376 . S
C1789 C1788 1.392 . S
C1789 H1801 0.929 . S
C1790 C1786 1.531 . S
C1790 H1802 0.960 . S
C1790 H1803 0.962 . S
C1790 H1804 0.960 . S
C1791 C1788 1.511 . S
C1791 H1805 0.961 . S
C1791 H1806 0.961 . S
C1791 H1807 0.961 . S
C1792 C1793 1.370 . S
C1792 C1794 1.363 . S
C1792 H1808 0.931 . S
C1793 C1792 1.370 . S
C1793 C1797 1.408 . S
C1794 C1792 1.363 . S
C1794 C1795 1.370 . S
C1794 C1798 1.524 . S
C1795 C1787 1.503 . S
C1795 C1794 1.370 . S
C1795 C1796 1.403 . S
C1796 C1795 1.403 . S
C1796 C1797 1.404 . S
C1796 C1799 1.539 . S
C1797 C1793 1.408 . S
C1797 C1796 1.404 . S
C1797 H1809 0.930 . S
C1798 C1794 1.524 . S
C1798 H1810 0.956 . S
C1798 H1811 0.961 . S
C1798 H1812 0.961 . S
C1799 C1796 1.539 . S
C1799 H1813 0.958 . S
C1799 H1814 0.961 . S
C1799 H1815 0.960 . S
H1800 C1784 0.931 . S
H1801 C1789 0.929 . S
H1802 C1790 0.960 . S
H1803 C1790 0.962 . S
H1804 C1790 0.960 . S
H1805 C1791 0.961 . S
H1806 C1791 0.961 . S
H1807 C1791 0.961 . S
H1808 C1792 0.931 . S
H1809 C1797 0.930 . S
H1810 C1798 0.956 . S
H1811 C1798 0.961 . S
H1812 C1798 0.961 . S
H1813 C1799 0.958 . S
H1814 C1799 0.961 . S
H1815 C1799 0.960 . S
C1816 C1817 1.391 . S
C1816 C1818 1.394 . S
C1816 H1832 0.931 . S
C1817 C1816 1.391 . S
C1817 C1821 1.376 . S
C1818 C1816 1.394 . S
C1818 C1819 1.369 . S
C1818 C1822 1.531 . S
C1819 C1818 1.369 . S
C1819 C1820 1.410 . S
C1819 C1827 1.503 . S
C1820 C1819 1.410 . S
C1820 C1821 1.392 . S
C1820 C1823 1.511 . S
C1821 C1817 1.376 . S
C1821 C1820 1.392 . S
C1821 H1833 0.929 . S
C1822 C1818 1.531 . S
C1822 H1834 0.960 . S
C1822 H1835 0.962 . S
C1822 H1836 0.960 . S
C1823 C1820 1.511 . S
C1823 H1837 0.961 . S
C1823 H1838 0.961 . S
C1823 H1839 0.961 . S
C1824 C1825 1.370 . S
C1824 C1826 1.363 . S
C1824 H1840 0.931 . S
C1825 C1824 1.370 . S
C1825 C1829 1.408 . S
C1826 C1824 1.363 . S
C1826 C1827 1.370 . S
C1826 C1830 1.524 . S
C1827 C1819 1.503 . S
C1827 C1826 1.370 . S
C1827 C1828 1.403 . S
C1828 C1827 1.403 . S
C1828 C1829 1.404 . S
C1828 C1831 1.539 . S
C1829 C1825 1.408 . S
C1829 C1828 1.404 . S
C1829 H1841 0.930 . S
C1830 C1826 1.524 . S
C1830 H1842 0.956 . S
C1830 H1843 0.961 . S
C1830 H1844 0.961 . S
C1831 C1828 1.539 . S
C1831 H1845 0.958 . S
C1831 H1846 0.961 . S
C1831 H1847 0.960 . S
H1832 C1816 0.931 . S
H1833 C1821 0.929 . S
H1834 C1822 0.960 . S
H1835 C1822 0.962 . S
H1836 C1822 0.960 . S
H1837 C1823 0.961 . S
H1838 C1823 0.961 . S
H1839 C1823 0.961 . S
H1840 C1824 0.931 . S
H1841 C1829 0.930 . S
H1842 C1830 0.956 . S
H1843 C1830 0.961 . S
H1844 C1830 0.961 . S
H1845 C1831 0.958 . S
H1846 C1831 0.961 . S
H1847 C1831 0.960 . S
C313 C199 1.404 . S
C321 C10 1.399 . S
C345 C17 1.397 . S
C353 C212 1.397 . S
C377 C36 1.403 . S
C385 C231 1.399 . S
C409 C43 1.390 . S
C417 C166 1.392 . S
C441 C179 1.402 . S
C449 C62 1.397 . S
C473 C75 1.404 . S
C481 C186 1.399 . S
C505 C277 1.402 . S
C513 C88 1.397 . S
C537 C95 1.393 . S
C545 C296 1.394 . S
C569 C108 1.377 . S
C577 C309 1.388 . S
C601 C238 1.382 . S
C609 C121 1.391 . S
C633 C134 1.390 . S
C641 C257 1.392 . S
C665 C270 1.392 . S
C673 C153 1.395 . S
C697 C4 1.673 . S
C705 C303 1.683 . S
C729 C244 1.677 . S
C737 C23 1.684 . S
C761 C30 1.675 . S
C769 C251 1.683 . S
C793 C264 1.685 . S
C801 C49 1.688 . S
C825 C56 1.691 . S
C833 C283 1.690 . S
C857 C290 1.685 . S
C865 C69 1.687 . S
C889 C82 1.681 . S
C897 C173 1.686 . S
C921 C192 1.675 . S
C929 C101 1.683 . S
C953 C205 1.673 . S
C961 C114 1.683 . S
C985 C218 1.688 . S
C993 C127 1.688 . S
C1017 C140 1.688 . S
C1025 C225 1.689 . S
C1049 C147 1.691 . S
C1057 C160 1.690 . S
C1081 C96 1.296 . S
C1089 C3 1.285 . S
C1113 C109 1.269 . S
C1121 C18 1.289 . S
C1145 C122 1.282 . S
C1153 C29 1.290 . S
C1177 C135 1.261 . S
C1185 C44 1.284 . S
C1209 C55 1.270 . S
C1217 C146 1.277 . S
C1241 C68 1.288 . S
C1249 C81 1.275 . S
C1273 C159 1.285 . S
C1281 C250 1.275 . S
C1305 C172 1.261 . S
C1313 C263 1.286 . S
C1337 C278 1.266 . S
C1345 C187 1.280 . S
C1369 C289 1.268 . S
C1377 C200 1.279 . S
C1401 C302 1.286 . S
C1409 C213 1.288 . S
C1433 C239 1.293 . S
C1441 C224 1.284 . S
C1465 C5 1.732 . S
C1473 C252 1.734 . S
C1497 C265 1.733 . S
C1505 C16 1.734 . S
C1529 C31 1.730 . S
C1537 C276 1.732 . S
C1561 C291 1.726 . S
C1569 C42 1.731 . S
C1593 C57 1.732 . S
C1601 C304 1.733 . S
C1625 C237 1.721 . S
C1633 C70 1.728 . S
C1657 C83 1.728 . S
C1665 C226 1.731 . S
C1689 C161 1.720 . S
C1697 C94 1.728 . S
C1721 C107 1.731 . S
C1729 C174 1.733 . S
C1753 C120 1.723 . S
C1761 C185 1.730 . S
C1785 C133 1.726 . S
C1793 C198 1.730 . S
C1817 C148 1.728 . S
C1825 C211 1.731 . S
