# Generated by pormake.
# Topology wne, (6)-cn, num edge types: 1
# Building blocks:
#     Node 0, Type 0, BuildingBlock: FUNLAD_clean_sbu_0, # of connection points: 6
#     Node 1, Type 0, BuildingBlock: FUNLAD_clean_sbu_0, # of connection points: 6
#     Node 2, Type 0, BuildingBlock: FUNLAD_clean_sbu_0, # of connection points: 6
#     Node 3, Type 0, BuildingBlock: FUNLAD_clean_sbu_0, # of connection points: 6
#     Node 4, Type 0, BuildingBlock: FUNLAD_clean_sbu_0, # of connection points: 6
#     Node 5, Type 0, BuildingBlock: FUNLAD_clean_sbu_0, # of connection points: 6
#     Node 6, Type 0, BuildingBlock: FUNLAD_clean_sbu_0, # of connection points: 6
#     Node 7, Type 0, BuildingBlock: FUNLAD_clean_sbu_0, # of connection points: 6
#     Node 8, Type 0, BuildingBlock: FUNLAD_clean_sbu_0, # of connection points: 6
#     Node 9, Type 0, BuildingBlock: FUNLAD_clean_sbu_0, # of connection points: 6
#     Node 10, Type 0, BuildingBlock: FUNLAD_clean_sbu_0, # of connection points: 6
#     Node 11, Type 0, BuildingBlock: FUNLAD_clean_sbu_0, # of connection points: 6
#     Node 12, Type 0, BuildingBlock: FUNLAD_clean_sbu_0, # of connection points: 6
#     Node 13, Type 0, BuildingBlock: FUNLAD_clean_sbu_0, # of connection points: 6
#     Node 14, Type 0, BuildingBlock: FUNLAD_clean_sbu_0, # of connection points: 6
#     Node 15, Type 0, BuildingBlock: FUNLAD_clean_sbu_0, # of connection points: 6
#     Node 16, Type 0, BuildingBlock: FUNLAD_clean_sbu_0, # of connection points: 6
#     Node 17, Type 0, BuildingBlock: FUNLAD_clean_sbu_0, # of connection points: 6
#     Node 18, Type 0, BuildingBlock: FUNLAD_clean_sbu_0, # of connection points: 6
#     Node 19, Type 0, BuildingBlock: FUNLAD_clean_sbu_0, # of connection points: 6
#     Node 20, Type 0, BuildingBlock: FUNLAD_clean_sbu_0, # of connection points: 6
#     Node 21, Type 0, BuildingBlock: FUNLAD_clean_sbu_0, # of connection points: 6
#     Node 22, Type 0, BuildingBlock: FUNLAD_clean_sbu_0, # of connection points: 6
#     Node 23, Type 0, BuildingBlock: FUNLAD_clean_sbu_0, # of connection points: 6
#     Node 24, Type 0, BuildingBlock: FUNLAD_clean_sbu_0, # of connection points: 6
#     Node 25, Type 0, BuildingBlock: FUNLAD_clean_sbu_0, # of connection points: 6
#     Node 26, Type 0, BuildingBlock: FUNLAD_clean_sbu_0, # of connection points: 6
#     Node 27, Type 0, BuildingBlock: FUNLAD_clean_sbu_0, # of connection points: 6
#     Node 28, Type 0, BuildingBlock: FUNLAD_clean_sbu_0, # of connection points: 6
#     Node 29, Type 0, BuildingBlock: FUNLAD_clean_sbu_0, # of connection points: 6
#     Node 30, Type 0, BuildingBlock: FUNLAD_clean_sbu_0, # of connection points: 6
#     Node 31, Type 0, BuildingBlock: FUNLAD_clean_sbu_0, # of connection points: 6
#     Node 32, Type 0, BuildingBlock: FUNLAD_clean_sbu_0, # of connection points: 6
#     Node 33, Type 0, BuildingBlock: FUNLAD_clean_sbu_0, # of connection points: 6
#     Node 34, Type 0, BuildingBlock: FUNLAD_clean_sbu_0, # of connection points: 6
#     Node 35, Type 0, BuildingBlock: FUNLAD_clean_sbu_0, # of connection points: 6
#     Edge 36, Type (0, 0), BuildingBlock: OJICUG_clean_linker_0, # of connection points: 2
#     Edge 37, Type (0, 0), BuildingBlock: OJICUG_clean_linker_0, # of connection points: 2
#     Edge 38, Type (0, 0), BuildingBlock: OJICUG_clean_linker_0, # of connection points: 2
#     Edge 39, Type (0, 0), BuildingBlock: OJICUG_clean_linker_0, # of connection points: 2
#     Edge 40, Type (0, 0), BuildingBlock: OJICUG_clean_linker_0, # of connection points: 2
#     Edge 41, Type (0, 0), BuildingBlock: OJICUG_clean_linker_0, # of connection points: 2
#     Edge 42, Type (0, 0), BuildingBlock: OJICUG_clean_linker_0, # of connection points: 2
#     Edge 43, Type (0, 0), BuildingBlock: OJICUG_clean_linker_0, # of connection points: 2
#     Edge 44, Type (0, 0), BuildingBlock: OJICUG_clean_linker_0, # of connection points: 2
#     Edge 45, Type (0, 0), BuildingBlock: OJICUG_clean_linker_0, # of connection points: 2
#     Edge 46, Type (0, 0), BuildingBlock: OJICUG_clean_linker_0, # of connection points: 2
#     Edge 47, Type (0, 0), BuildingBlock: OJICUG_clean_linker_0, # of connection points: 2
#     Edge 48, Type (0, 0), BuildingBlock: OJICUG_clean_linker_0, # of connection points: 2
#     Edge 49, Type (0, 0), BuildingBlock: OJICUG_clean_linker_0, # of connection points: 2
#     Edge 50, Type (0, 0), BuildingBlock: OJICUG_clean_linker_0, # of connection points: 2
#     Edge 51, Type (0, 0), BuildingBlock: OJICUG_clean_linker_0, # of connection points: 2
#     Edge 52, Type (0, 0), BuildingBlock: OJICUG_clean_linker_0, # of connection points: 2
#     Edge 53, Type (0, 0), BuildingBlock: OJICUG_clean_linker_0, # of connection points: 2
#     Edge 54, Type (0, 0), BuildingBlock: OJICUG_clean_linker_0, # of connection points: 2
#     Edge 55, Type (0, 0), BuildingBlock: OJICUG_clean_linker_0, # of connection points: 2
#     Edge 56, Type (0, 0), BuildingBlock: OJICUG_clean_linker_0, # of connection points: 2
#     Edge 57, Type (0, 0), BuildingBlock: OJICUG_clean_linker_0, # of connection points: 2
#     Edge 58, Type (0, 0), BuildingBlock: OJICUG_clean_linker_0, # of connection points: 2
#     Edge 59, Type (0, 0), BuildingBlock: OJICUG_clean_linker_0, # of connection points: 2
#     Edge 60, Type (0, 0), BuildingBlock: OJICUG_clean_linker_0, # of connection points: 2
#     Edge 61, Type (0, 0), BuildingBlock: OJICUG_clean_linker_0, # of connection points: 2
#     Edge 62, Type (0, 0), BuildingBlock: OJICUG_clean_linker_0, # of connection points: 2
#     Edge 63, Type (0, 0), BuildingBlock: OJICUG_clean_linker_0, # of connection points: 2
#     Edge 64, Type (0, 0), BuildingBlock: OJICUG_clean_linker_0, # of connection points: 2
#     Edge 65, Type (0, 0), BuildingBlock: OJICUG_clean_linker_0, # of connection points: 2
#     Edge 66, Type (0, 0), BuildingBlock: OJICUG_clean_linker_0, # of connection points: 2
#     Edge 67, Type (0, 0), BuildingBlock: OJICUG_clean_linker_0, # of connection points: 2
#     Edge 68, Type (0, 0), BuildingBlock: OJICUG_clean_linker_0, # of connection points: 2
#     Edge 69, Type (0, 0), BuildingBlock: OJICUG_clean_linker_0, # of connection points: 2
#     Edge 70, Type (0, 0), BuildingBlock: OJICUG_clean_linker_0, # of connection points: 2
#     Edge 71, Type (0, 0), BuildingBlock: OJICUG_clean_linker_0, # of connection points: 2
#     Edge 72, Type (0, 0), BuildingBlock: OJICUG_clean_linker_0, # of connection points: 2
#     Edge 73, Type (0, 0), BuildingBlock: OJICUG_clean_linker_0, # of connection points: 2
#     Edge 74, Type (0, 0), BuildingBlock: OJICUG_clean_linker_0, # of connection points: 2
#     Edge 75, Type (0, 0), BuildingBlock: OJICUG_clean_linker_0, # of connection points: 2
#     Edge 76, Type (0, 0), BuildingBlock: OJICUG_clean_linker_0, # of connection points: 2
#     Edge 77, Type (0, 0), BuildingBlock: OJICUG_clean_linker_0, # of connection points: 2
#     Edge 78, Type (0, 0), BuildingBlock: OJICUG_clean_linker_0, # of connection points: 2
#     Edge 79, Type (0, 0), BuildingBlock: OJICUG_clean_linker_0, # of connection points: 2
#     Edge 80, Type (0, 0), BuildingBlock: OJICUG_clean_linker_0, # of connection points: 2
#     Edge 81, Type (0, 0), BuildingBlock: OJICUG_clean_linker_0, # of connection points: 2
#     Edge 82, Type (0, 0), BuildingBlock: OJICUG_clean_linker_0, # of connection points: 2
#     Edge 83, Type (0, 0), BuildingBlock: OJICUG_clean_linker_0, # of connection points: 2
#     Edge 84, Type (0, 0), BuildingBlock: OJICUG_clean_linker_0, # of connection points: 2
#     Edge 85, Type (0, 0), BuildingBlock: OJICUG_clean_linker_0, # of connection points: 2
#     Edge 86, Type (0, 0), BuildingBlock: OJICUG_clean_linker_0, # of connection points: 2
#     Edge 87, Type (0, 0), BuildingBlock: OJICUG_clean_linker_0, # of connection points: 2
#     Edge 88, Type (0, 0), BuildingBlock: OJICUG_clean_linker_0, # of connection points: 2
#     Edge 89, Type (0, 0), BuildingBlock: OJICUG_clean_linker_0, # of connection points: 2
#     Edge 90, Type (0, 0), BuildingBlock: OJICUG_clean_linker_0, # of connection points: 2
#     Edge 91, Type (0, 0), BuildingBlock: OJICUG_clean_linker_0, # of connection points: 2
#     Edge 92, Type (0, 0), BuildingBlock: OJICUG_clean_linker_0, # of connection points: 2
#     Edge 93, Type (0, 0), BuildingBlock: OJICUG_clean_linker_0, # of connection points: 2
#     Edge 94, Type (0, 0), BuildingBlock: OJICUG_clean_linker_0, # of connection points: 2
#     Edge 95, Type (0, 0), BuildingBlock: OJICUG_clean_linker_0, # of connection points: 2
#     Edge 96, Type (0, 0), BuildingBlock: OJICUG_clean_linker_0, # of connection points: 2
#     Edge 97, Type (0, 0), BuildingBlock: OJICUG_clean_linker_0, # of connection points: 2
#     Edge 98, Type (0, 0), BuildingBlock: OJICUG_clean_linker_0, # of connection points: 2
#     Edge 99, Type (0, 0), BuildingBlock: OJICUG_clean_linker_0, # of connection points: 2
#     Edge 100, Type (0, 0), BuildingBlock: OJICUG_clean_linker_0, # of connection points: 2
#     Edge 101, Type (0, 0), BuildingBlock: OJICUG_clean_linker_0, # of connection points: 2
#     Edge 102, Type (0, 0), BuildingBlock: OJICUG_clean_linker_0, # of connection points: 2
#     Edge 103, Type (0, 0), BuildingBlock: OJICUG_clean_linker_0, # of connection points: 2
#     Edge 104, Type (0, 0), BuildingBlock: OJICUG_clean_linker_0, # of connection points: 2
#     Edge 105, Type (0, 0), BuildingBlock: OJICUG_clean_linker_0, # of connection points: 2
#     Edge 106, Type (0, 0), BuildingBlock: OJICUG_clean_linker_0, # of connection points: 2
#     Edge 107, Type (0, 0), BuildingBlock: OJICUG_clean_linker_0, # of connection points: 2
#     Edge 108, Type (0, 0), BuildingBlock: OJICUG_clean_linker_0, # of connection points: 2
#     Edge 109, Type (0, 0), BuildingBlock: OJICUG_clean_linker_0, # of connection points: 2
#     Edge 110, Type (0, 0), BuildingBlock: OJICUG_clean_linker_0, # of connection points: 2
#     Edge 111, Type (0, 0), BuildingBlock: OJICUG_clean_linker_0, # of connection points: 2
#     Edge 112, Type (0, 0), BuildingBlock: OJICUG_clean_linker_0, # of connection points: 2
#     Edge 113, Type (0, 0), BuildingBlock: OJICUG_clean_linker_0, # of connection points: 2
#     Edge 114, Type (0, 0), BuildingBlock: OJICUG_clean_linker_0, # of connection points: 2
#     Edge 115, Type (0, 0), BuildingBlock: OJICUG_clean_linker_0, # of connection points: 2
#     Edge 116, Type (0, 0), BuildingBlock: OJICUG_clean_linker_0, # of connection points: 2
#     Edge 117, Type (0, 0), BuildingBlock: OJICUG_clean_linker_0, # of connection points: 2
#     Edge 118, Type (0, 0), BuildingBlock: OJICUG_clean_linker_0, # of connection points: 2
#     Edge 119, Type (0, 0), BuildingBlock: OJICUG_clean_linker_0, # of connection points: 2
#     Edge 120, Type (0, 0), BuildingBlock: OJICUG_clean_linker_0, # of connection points: 2
#     Edge 121, Type (0, 0), BuildingBlock: OJICUG_clean_linker_0, # of connection points: 2
#     Edge 122, Type (0, 0), BuildingBlock: OJICUG_clean_linker_0, # of connection points: 2
#     Edge 123, Type (0, 0), BuildingBlock: OJICUG_clean_linker_0, # of connection points: 2
#     Edge 124, Type (0, 0), BuildingBlock: OJICUG_clean_linker_0, # of connection points: 2
#     Edge 125, Type (0, 0), BuildingBlock: OJICUG_clean_linker_0, # of connection points: 2
#     Edge 126, Type (0, 0), BuildingBlock: OJICUG_clean_linker_0, # of connection points: 2
#     Edge 127, Type (0, 0), BuildingBlock: OJICUG_clean_linker_0, # of connection points: 2
#     Edge 128, Type (0, 0), BuildingBlock: OJICUG_clean_linker_0, # of connection points: 2
#     Edge 129, Type (0, 0), BuildingBlock: OJICUG_clean_linker_0, # of connection points: 2
#     Edge 130, Type (0, 0), BuildingBlock: OJICUG_clean_linker_0, # of connection points: 2
#     Edge 131, Type (0, 0), BuildingBlock: OJICUG_clean_linker_0, # of connection points: 2
#     Edge 132, Type (0, 0), BuildingBlock: OJICUG_clean_linker_0, # of connection points: 2
#     Edge 133, Type (0, 0), BuildingBlock: OJICUG_clean_linker_0, # of connection points: 2
#     Edge 134, Type (0, 0), BuildingBlock: OJICUG_clean_linker_0, # of connection points: 2
#     Edge 135, Type (0, 0), BuildingBlock: OJICUG_clean_linker_0, # of connection points: 2
#     Edge 136, Type (0, 0), BuildingBlock: OJICUG_clean_linker_0, # of connection points: 2
#     Edge 137, Type (0, 0), BuildingBlock: OJICUG_clean_linker_0, # of connection points: 2
#     Edge 138, Type (0, 0), BuildingBlock: OJICUG_clean_linker_0, # of connection points: 2
#     Edge 139, Type (0, 0), BuildingBlock: OJICUG_clean_linker_0, # of connection points: 2
#     Edge 140, Type (0, 0), BuildingBlock: OJICUG_clean_linker_0, # of connection points: 2
#     Edge 141, Type (0, 0), BuildingBlock: OJICUG_clean_linker_0, # of connection points: 2
#     Edge 142, Type (0, 0), BuildingBlock: OJICUG_clean_linker_0, # of connection points: 2
#     Edge 143, Type (0, 0), BuildingBlock: OJICUG_clean_linker_0, # of connection points: 2
# Relax obj value: 0.453
# Max RMSD: 0.207
# Mean RMSD: 0.205
data_MOF--net-wne--node1-FUNLAD_clean_sbu_0--edge1-OJICUG_clean_linker_0
_symmetry_space_group_name_H-M    P1
_symmetry_Int_Tables_number       1
_symmetry_cell_setting            triclinic
loop_
_symmetry_equiv_pos_as_xyz
'x, y, z'
_cell_length_a     49.962187
_cell_length_b     49.934921
_cell_length_c     36.358597
_cell_angle_alpha  90.101943
_cell_angle_beta   89.994429
_cell_angle_gamma 120.02511
loop_
_atom_site_label
_atom_site_type_symbol
_atom_site_fract_x
_atom_site_fract_y
_atom_site_fract_z
_atom_type_partial_charge
C0 C 0.25511 0.20372 0.09655 0.0
N1 N 0.33186 0.27109 0.15047 0.0
C2 C 0.32523 0.25405 0.18168 0.0
C3 C 0.34719 0.24831 0.19703 0.0
C4 C 0.37546 0.25888 0.1788 0.0
C5 C 0.3834 0.28009 0.14998 0.0
C6 C 0.36101 0.28628 0.13637 0.0
Zn7 Zn 0.29623 0.26697 0.12023 0.0
C8 C 0.3113 0.27036 0.03981 0.0
N9 N 0.22362 0.26071 0.05417 0.0
C10 C 0.19586 0.23476 0.06001 0.0
C11 C 0.22697 0.28167 0.02814 0.0
C12 C 0.20158 0.27703 1.00707 0.0
C13 C 0.17258 0.25025 1.01238 0.0
C14 C 0.17016 0.22884 0.03904 0.0
Zn15 Zn 0.26001 0.26591 0.08499 0.0
O16 O 0.27704 0.21875 0.11902 0.0
C17 C 0.24411 0.25807 0.16667 0.0
O18 O 0.24331 0.21765 0.07982 0.0
H19 H 0.24929 0.30209 0.02386 0.0
H20 H 0.30199 0.24201 0.19247 0.0
H21 H 0.19355 0.21843 0.08098 0.0
O22 O 0.2718 0.26381 0.16793 0.0
O23 O 0.23239 0.25776 0.13539 0.0
H24 H 0.36601 0.30054 0.11216 0.0
O25 O 0.27996 0.31594 0.08878 0.0
O26 O 0.31629 0.31431 0.12076 0.0
O27 O 0.28671 0.27179 0.03583 0.0
O28 O 0.32013 0.26883 0.07199 0.0
C29 C 0.30579 0.32999 0.10568 0.0
H30 H 0.34015 0.2317 0.21925 0.0
H31 H 0.4051 0.28867 0.13546 0.0
H32 H 0.2046 0.29459 0.98743 0.0
H33 H 0.14862 0.20761 0.04384 0.0
C34 C 0.83025 0.06704 0.0914 0.0
N35 N 0.76343 0.07061 0.15307 0.0
C36 C 0.76634 0.06709 0.18974 0.0
C37 C 0.78954 0.09167 0.20962 0.0
C38 C 0.80744 0.11978 0.19148 0.0
C39 C 0.79789 0.12456 0.15708 0.0
C40 C 0.77534 0.09922 0.13801 0.0
Zn41 Zn 0.76646 0.0393 0.11979 0.0
C42 C 0.75754 0.04708 0.04146 0.0
N43 N 0.77906 0.97625 0.05455 0.0
C44 C 0.8052 0.97479 0.06039 0.0
C45 C 0.75786 0.95803 0.02897 0.0
C46 C 0.76231 0.93677 1.00866 0.0
C47 C 0.789 0.93453 1.01454 0.0
C48 C 0.81079 0.95431 0.04041 0.0
Zn49 Zn 0.77324 1.00647 0.08652 0.0
O50 O 0.81124 0.07252 0.10785 0.0
C51 C 0.78912 1.00282 0.16373 0.0
O52 O 0.82167 0.03958 0.08108 0.0
H53 H 0.73726 0.9596 0.02477 0.0
H54 H 0.7552 0.04421 0.2017 0.0
H55 H 0.82172 0.98929 0.08101 0.0
O56 O 0.7838 0.0251 0.16491 0.0
O57 O 0.78303 0.98715 0.13426 0.0
H58 H 0.7723 0.10189 0.10913 0.0
O59 O 0.72297 0.97505 0.09097 0.0
O60 O 0.72157 1.0071 0.13131 0.0
O61 O 0.76607 0.02702 0.03938 0.0
O62 O 0.75189 0.05438 0.07287 0.0
C63 C 0.70752 0.98236 0.11272 0.0
H64 H 0.79597 0.08762 0.23662 0.0
H65 H 0.81092 0.14647 0.14291 0.0
H66 H 0.74459 0.92167 0.98942 0.0
H67 H 0.8319 0.95384 0.04552 0.0
C68 C 0.97299 0.77719 0.09106 0.0
N69 N 0.96599 0.70265 0.14823 0.0
C70 C 0.95488 0.70926 0.17894 0.0
C71 C 0.92725 0.68703 0.19418 0.0
C72 C 0.9102 0.65845 0.1763 0.0
C73 C 0.92401 0.65066 0.14794 0.0
C74 C 0.95265 0.67329 0.13464 0.0
Zn75 Zn 0.99728 0.73851 0.1175 0.0
C76 C 0.98878 0.72281 0.03729 0.0
N77 N 0.06297 0.81253 0.05237 0.0
C78 C 0.06398 0.83993 0.0582 0.0
C79 C 0.0813 0.80979 0.02679 0.0
C80 C 0.10208 0.83553 1.0063 0.0
C81 C 0.10357 0.86418 1.01182 0.0
C82 C 0.08378 0.86594 0.03784 0.0
Zn83 Zn 0.03225 0.77603 0.083 0.0
O84 O 0.96564 0.75386 0.11121 0.0
C85 C 0.03709 0.79428 0.16274 0.0
O86 O 0.99991 0.79162 0.07724 0.0
H87 H 0.08003 0.78773 0.02255 0.0
H88 H 0.96533 0.73254 0.18946 0.0
H89 H 0.04943 0.84177 0.07885 0.0
O90 O 1.01502 0.76661 0.16465 0.0
O91 O 0.05095 0.80423 0.1322 0.0
H92 H 0.96245 0.66812 0.11105 0.0
O93 O 0.06316 0.75696 0.08745 0.0
O94 O 0.02755 0.722 0.12327 0.0
O95 O 1.01243 0.7496 0.03445 0.0
O96 O 0.97875 0.71181 0.06898 0.0
C97 C 0.05324 0.73253 0.10687 0.0
H98 H 0.9172 0.69397 0.216 0.0
H99 H 0.91138 0.62873 0.13368 0.0
H100 H 0.11727 0.83309 0.98707 0.0
H101 H 0.08362 0.88726 0.04271 0.0
C102 C 0.24072 0.26774 0.4319 0.0
N103 N 0.15892 0.20639 0.37698 0.0
C104 C 0.17803 0.19583 0.36602 0.0
C105 C 0.18669 0.19796 0.32907 0.0
C106 C 0.17541 0.21086 0.30319 0.0
C107 C 0.15163 0.21635 0.31429 0.0
C108 C 0.14339 0.21354 0.35158 0.0
Zn109 Zn 0.17164 0.23222 0.42521 0.0
C110 C 0.18367 0.20197 0.49122 0.0
N111 N 0.20543 0.29416 0.5173 0.0
C112 C 0.23111 0.32221 0.51168 0.0
C113 C 0.196 0.28323 0.55193 0.0
C114 C 0.21366 0.29988 0.58243 0.0
C115 C 0.24169 0.32781 0.57732 0.0
C116 C 0.24973 0.33928 0.54125 0.0
Zn117 Zn 0.18746 0.26491 0.47276 0.0
O118 O 0.21989 0.24812 0.41073 0.0
C119 C 0.18154 0.29711 0.40254 0.0
O120 O 0.23286 0.27937 0.45769 0.0
H121 H 0.1757 0.26076 0.55586 0.0
H122 H 0.19022 0.1902 0.38639 0.0
H123 H 0.23846 0.33041 0.48396 0.0
O124 O 0.17301 0.26975 0.39179 0.0
O125 O 0.1881 0.30288 0.43685 0.0
H126 H 0.12817 0.2218 0.36066 0.0
O127 O 0.14034 0.24809 0.49042 0.0
O128 O 0.12224 0.21555 0.44391 0.0
O129 O 0.18921 0.22779 0.50522 0.0
O130 O 0.17365 0.19612 0.45806 0.0
C131 C 0.11715 0.2264 0.47362 0.0
H132 H 0.20436 0.19244 0.32155 0.0
H133 H 0.14199 0.226 0.29534 0.0
H134 H 0.20582 0.29036 0.60961 0.0
H135 H 0.27111 0.36039 0.53543 0.0
C136 C 0.76121 0.97732 0.43976 0.0
N137 N 0.81902 0.96094 0.3739 0.0
C138 C 0.79521 0.95838 0.3527 0.0
C139 C 0.7986 0.9653 0.31578 0.0
C140 C 0.82712 0.97621 0.29908 0.0
C141 C 0.85219 0.97962 0.32056 0.0
C142 C 0.84748 0.97143 0.3584 0.0
Zn143 Zn 0.80055 0.94683 0.42745 0.0
C144 C 0.83194 0.98987 0.49071 0.0
N145 N 0.74164 0.91623 0.52211 0.0
C146 C 0.71199 0.90983 0.51745 0.0
C147 C 0.75487 0.92253 0.55607 0.0
C148 C 0.7389 0.92485 0.58647 0.0
C149 C 0.70925 0.92122 0.58176 0.0
C150 C 0.6955 0.9125 0.54678 0.0
Zn151 Zn 0.76823 0.92837 0.47533 0.0
O152 O 0.78217 0.97825 0.41933 0.0
C153 C 0.73541 0.88855 0.40797 0.0
O154 O 0.74951 0.95648 0.46389 0.0
H155 H 0.77858 0.92788 0.5592 0.0
H156 H 0.77269 0.95105 0.364 0.0
H157 H 0.70202 0.90555 0.4902 0.0
O158 O 0.76255 0.90786 0.3976 0.0
O159 O 0.72939 0.88934 0.44207 0.0
H160 H 0.86647 0.97383 0.37511 0.0
O161 O 0.78882 0.90054 0.48943 0.0
O162 O 0.8204 0.91587 0.44179 0.0
O163 O 0.80649 0.96912 0.5051 0.0
O164 O 0.8375 0.98605 0.45726 0.0
C165 C 0.81049 0.89978 0.47159 0.0
H166 H 0.7789 0.96293 0.30042 0.0
H167 H 0.87487 0.98858 0.30845 0.0
H168 H 0.75025 0.93069 0.613 0.0
H169 H 0.67302 0.90981 0.54118 0.0
C170 C 0.06 0.78997 0.44216 0.0
N171 N 0.07683 0.8639 0.37476 0.0
C172 C 0.07893 0.84209 0.35412 0.0
C173 C 0.07325 0.83905 0.31685 0.0
C174 C 0.06419 0.85784 0.29926 0.0
C175 C 0.06116 0.88 0.32022 0.0
C176 C 0.06807 0.88295 0.3584 0.0
Zn177 Zn 0.09016 0.85997 0.42876 0.0
C178 C 0.04653 0.84886 0.49038 0.0
N179 N 0.11994 0.83312 0.52544 0.0
C180 C 0.1287 0.81135 0.52385 0.0
C181 C 0.11082 0.83977 0.55781 0.0
C182 C 0.10735 0.82223 0.58927 0.0
C183 C 0.11388 0.79788 0.58777 0.0
C184 C 0.12614 0.79366 0.55483 0.0
Zn185 Zn 0.10843 0.84629 0.47697 0.0
O186 O 0.05887 0.80994 0.42177 0.0
C187 C 0.14877 0.85312 0.41061 0.0
O188 O 0.08104 0.7992 0.46617 0.0
H189 H 0.10383 0.85705 0.55864 0.0
H190 H 0.08541 0.82646 0.36609 0.0
H191 H 0.13541 0.80596 0.49784 0.0
O192 O 0.12906 0.86034 0.40004 0.0
O193 O 0.14819 0.84666 0.44484 0.0
H194 H 0.06627 0.90014 0.37466 0.0
O195 O 0.1357 0.89494 0.49041 0.0
O196 O 0.12098 0.9109 0.442 0.0
O197 O 0.0669 0.84374 0.50503 0.0
O198 O 0.05081 0.85843 0.45705 0.0
C199 C 0.13676 0.91727 0.47208 0.0
H200 H 0.07527 0.82134 0.30187 0.0
H201 H 0.05359 0.89462 0.30738 0.0
H202 H 0.09776 0.82657 0.61373 0.0
H203 H 0.13252 0.77597 0.55239 0.0
C204 C 0.73772 0.70436 0.92357 0.0
N205 N 0.81985 0.77034 0.98083 0.0
C206 C 0.81589 0.74794 1.00505 0.0
C207 C 0.84094 0.75111 0.02566 0.0
C208 C 0.87017 0.77784 0.02174 0.0
C209 C 0.87328 0.8006 0.9967 0.0
C210 C 0.84792 0.79615 0.97613 0.0
Zn211 Zn 0.78394 0.76828 0.95214 0.0
C212 C 0.80119 0.78443 0.87248 0.0
N213 N 0.71021 0.76758 0.89122 0.0
C214 C 0.71836 0.78241 0.85826 0.0
C215 C 0.68932 0.76999 0.91303 0.0
C216 C 0.68438 0.79481 0.90843 0.0
C217 C 0.69926 0.81543 0.87943 0.0
C218 C 0.71354 0.80713 0.85199 0.0
Zn219 Zn 0.74566 0.76648 0.9192 0.0
O220 O 0.76198 0.71815 0.9436 0.0
C221 C 0.73147 0.75608 0.99981 0.0
O222 O 0.72757 0.72016 0.90775 0.0
H223 H 0.67982 0.75572 0.93708 0.0
H224 H 0.79331 0.72768 1.00844 0.0
H225 H 0.73224 0.77819 0.83895 0.0
O226 O 0.75885 0.76077 1.00179 0.0
O227 O 0.71979 0.75483 0.96853 0.0
H228 H 0.85069 0.81365 0.9566 0.0
O229 O 0.76297 0.81312 0.93128 0.0
O230 O 0.80226 0.81645 0.9618 0.0
O231 O 0.77387 0.77994 0.87172 0.0
O232 O 0.811 0.77864 0.902 0.0
C233 C 0.78721 0.82899 0.95009 0.0
H234 H 0.83744 0.7326 0.04403 0.0
H235 H 0.89505 0.82184 0.99304 0.0
H236 H 0.67177 0.79936 0.92939 0.0
H237 H 0.72331 0.82117 0.82764 0.0
C238 C 0.33309 0.04594 0.92967 0.0
N239 N 0.26466 0.05947 0.98431 0.0
C240 C 0.2864 0.07772 1.00939 0.0
C241 C 0.28226 0.09875 0.03065 0.0
C242 C 0.2552 0.10061 0.02657 0.0
C243 C 0.23308 0.08113 1.00068 0.0
C244 C 0.23849 0.06106 0.97947 0.0
Zn245 Zn 0.26873 0.02686 0.95474 0.0
C246 C 0.25526 0.02953 0.8738 0.0
N247 N 0.27345 0.95733 0.89297 0.0
C248 C 0.28891 0.94421 0.90868 0.0
C249 C 0.25314 0.9432 0.86498 0.0
C250 C 0.24432 0.91298 0.8556 0.0
C251 C 0.25559 0.89713 0.87638 0.0
C252 C 0.27954 0.91333 0.90151 0.0
Zn253 Zn 0.27079 0.99109 0.92082 0.0
O254 O 0.31899 0.05656 0.9488 0.0
C255 C 0.27829 0.98456 1.00189 0.0
O256 O 0.31754 0.01991 0.91399 0.0
H257 H 0.24082 0.95367 0.853 0.0
H258 H 0.30695 0.07595 1.01297 0.0
H259 H 0.3058 0.95627 0.93004 0.0
O260 O 0.27539 1.00835 1.00446 0.0
O261 O 0.27869 0.97398 0.97036 0.0
H262 H 0.22149 0.04647 0.95933 0.0
O263 O 0.22374 0.96104 0.92793 0.0
O264 O 0.2205 0.99566 0.96166 0.0
O265 O 0.26082 1.00738 0.87251 0.0
O266 O 0.25911 0.04393 0.90408 0.0
C267 C 0.20779 0.96875 0.94761 0.0
H268 H 0.30035 0.11365 0.04961 0.0
H269 H 0.21162 0.08114 0.9968 0.0
H270 H 0.22552 0.90082 0.83622 0.0
H271 H 0.28857 0.90154 0.91792 0.0
C272 C 0.9912 0.29711 0.92796 0.0
N273 N 0.98063 0.21801 0.98474 0.0
C274 C 0.96931 0.22461 1.01525 0.0
C275 C 0.94839 0.20082 0.03788 0.0
C276 C 0.93838 0.16986 0.02846 0.0
C277 C 0.95112 0.16388 0.99725 0.0
C278 C 0.97254 0.18842 0.97594 0.0
Zn279 Zn 1.01125 0.25257 0.95204 0.0
C280 C 1.00435 0.23269 0.87336 0.0
N281 N 0.07651 0.3237 0.88443 0.0
C282 C 0.08885 0.35363 0.89569 0.0
C283 C 0.08779 0.31608 0.85471 0.0
C284 C 0.11469 0.33826 0.83804 0.0
C285 C 0.13088 0.36791 0.85362 0.0
C286 C 0.11678 0.37634 0.88095 0.0
Zn287 Zn 0.04571 0.28929 0.91673 0.0
O288 O 0.98172 0.27339 0.94855 0.0
C289 C 0.05668 0.30673 0.99565 0.0
O290 O 1.01608 0.30647 0.91014 0.0
H291 H 0.078 0.2923 0.84614 0.0
H292 H 0.97635 0.24835 0.02195 0.0
H293 H 0.07884 0.35939 0.91856 0.0
O294 O 0.03347 0.2798 0.99917 0.0
O295 O 0.06561 0.31766 0.96371 0.0
H296 H 0.98236 0.18372 0.95201 0.0
O297 O 0.07664 0.27307 0.92397 0.0
O298 O 0.04181 0.23475 0.95698 0.0
O299 O 0.02707 0.25995 0.87086 0.0
O300 O 0.99032 0.22371 0.90394 0.0
C301 C 0.06889 0.24927 0.94347 0.0
H302 H 0.93981 0.20668 0.06215 0.0
H303 H 0.94391 0.14051 0.9885 0.0
H304 H 0.12508 0.33086 0.81713 0.0
H305 H 0.12882 0.39907 0.89351 0.0
C306 C 0.92505 0.803 0.56329 0.0
N307 N 0.84052 0.73375 0.51203 0.0
C308 C 0.84819 0.74705 0.47818 0.0
C309 C 0.8307 0.73102 0.44726 0.0
C310 C 0.80463 0.70126 0.4513 0.0
C311 C 0.79883 0.6875 0.4863 0.0
C312 C 0.81727 0.70402 0.51616 0.0
Zn313 Zn 0.85447 0.76023 0.5591 0.0
C314 C 0.86167 0.72736 0.62639 0.0
N315 N 0.87182 0.8106 0.66101 0.0
C316 C 0.88953 0.83924 0.6763 0.0
C317 C 0.85082 0.78676 0.68234 0.0
C318 C 0.84734 0.79034 0.71928 0.0
C319 C 0.86471 0.81905 0.73578 0.0
C320 C 0.88605 0.84413 0.7141 0.0
Zn321 Zn 0.86767 0.79213 0.60747 0.0
O322 O 0.90283 0.78127 0.54523 0.0
C323 C 0.85609 0.82376 0.54445 0.0
O324 O 0.91861 0.81262 0.59321 0.0
H325 H 0.8358 0.76413 0.6711 0.0
H326 H 0.86656 0.77081 0.47546 0.0
H327 H 0.90589 0.85825 0.65944 0.0
O328 O 0.8517 0.79853 0.52958 0.0
O329 O 0.86515 0.82898 0.57803 0.0
H330 H 0.81108 0.69396 0.54331 0.0
O331 O 0.81768 0.77305 0.61548 0.0
O332 O 0.80765 0.74102 0.57025 0.0
O333 O 0.86902 0.75434 0.63705 0.0
O334 O 0.85504 0.72145 0.59219 0.0
C335 C 0.79802 0.75218 0.59454 0.0
H336 H 0.83688 0.74244 0.42081 0.0
H337 H 0.77899 0.66494 0.49145 0.0
H338 H 0.83021 0.77064 0.73479 0.0
H339 H 0.89955 0.86696 0.72604 0.0
C340 C 0.23224 0.12841 0.56357 0.0
N341 N 0.30226 0.11488 0.51146 0.0
C342 C 0.28872 0.10865 0.47769 0.0
C343 C 0.30478 0.10734 0.44677 0.0
C344 C 0.33482 0.11176 0.45076 0.0
C345 C 0.3488 0.12039 0.48565 0.0
C346 C 0.33223 0.12218 0.51548 0.0
Zn347 Zn 0.27614 0.10183 0.55866 0.0
C348 C 0.30868 0.14176 0.62603 0.0
N349 N 0.22665 0.0683 0.66058 0.0
C350 C 0.19865 0.05916 0.67666 0.0
C351 C 0.25051 0.07061 0.68144 0.0
C352 C 0.2476 0.06472 0.71866 0.0
C353 C 0.21958 0.05534 0.73598 0.0
C354 C 0.19445 0.05211 0.71479 0.0
Zn355 Zn 0.24447 0.08245 0.6069 0.0
O356 O 0.25395 0.12825 0.54515 0.0
C357 C 0.21295 0.03928 0.54416 0.0
O358 O 0.22325 0.11245 0.59355 0.0
H359 H 0.27284 0.07759 0.66976 0.0
H360 H 0.26477 0.10262 0.47506 0.0
H361 H 0.17972 0.05728 0.66026 0.0
O362 O 0.23811 0.06019 0.52931 0.0
O363 O 0.20772 0.04314 0.57771 0.0
H364 H 0.3425 0.12652 0.54257 0.0
O365 O 0.26436 0.05189 0.61379 0.0
O366 O 0.29672 0.07523 0.56939 0.0
O367 O 0.28202 0.12145 0.6366 0.0
O368 O 0.31452 0.14168 0.59171 0.0
C369 C 0.28588 0.05412 0.59323 0.0
H370 H 0.29319 0.10162 0.42039 0.0
H371 H 0.37157 0.12368 0.49081 0.0
H372 H 0.26733 0.06697 0.73384 0.0
H373 H 0.17214 0.04434 0.72742 0.0
C374 C 0.906 0.11115 0.56526 0.0
N375 N 0.92149 0.19557 0.51463 0.0
C376 C 0.92993 0.1893 0.4816 0.0
C377 C 0.93184 0.20665 0.45057 0.0
C378 C 0.9246 0.23045 0.45337 0.0
C379 C 0.91343 0.23452 0.48716 0.0
C380 C 0.91227 0.21693 0.51759 0.0
Zn381 Zn 0.9337 0.18203 0.56194 0.0
C382 C 0.89321 0.17431 0.62857 0.0
N383 N 0.96545 0.16348 0.66305 0.0
C384 C 0.97391 0.14401 0.67888 0.0
C385 C 0.96328 0.18498 0.6842 0.0
C386 C 0.96845 0.18721 0.72152 0.0
C387 C 0.9771 0.16792 0.73864 0.0
C388 C 0.98037 0.14618 0.71713 0.0
Zn389 Zn 0.95215 0.16821 0.60957 0.0
O390 O 0.9067 0.13354 0.5475 0.0
C391 C 0.99588 0.18043 0.5476 0.0
O392 O 0.92174 0.11735 0.59536 0.0
H393 H 0.95694 0.20086 0.67266 0.0
H394 H 0.93739 0.17242 0.47979 0.0
H395 H 0.9757 0.12703 0.66219 0.0
O396 O 0.97527 0.18527 0.5331 0.0
O397 O 0.9917 0.17059 0.58081 0.0
H398 H 0.90619 0.22206 0.54416 0.0
O399 O 0.98341 0.21829 0.61735 0.0
O400 O 0.96101 0.22908 0.57331 0.0
O401 O 0.91295 0.16711 0.63908 0.0
O402 O 0.89394 0.18101 0.59445 0.0
C403 C 0.98222 0.23829 0.59708 0.0
H404 H 0.94074 0.20261 0.4253 0.0
H405 H 0.90678 0.25195 0.49055 0.0
H406 H 0.96635 0.2047 0.73694 0.0
H407 H 0.98771 0.13124 0.72962 0.0
C408 C 0.92329 0.53547 0.41577 0.0
N409 N 1.00042 0.59912 0.47277 0.0
C410 C 1.0205 0.59582 0.45045 0.0
C411 C 0.02596 0.57148 0.45628 0.0
C412 C 1.01234 0.5523 0.48676 0.0
C413 C 0.99912 0.56182 0.51422 0.0
C414 C 0.99387 0.58611 0.5068 0.0
Zn415 Zn 0.96364 0.59834 0.44591 0.0
C416 C 0.97657 0.60874 0.36495 0.0
N417 N 0.887 0.59107 0.38656 0.0
C418 C 0.85933 0.56577 0.3949 0.0
C419 C 0.88938 0.61116 0.35985 0.0
C420 C 0.86309 0.60605 0.34035 0.0
C421 C 0.83423 0.57992 0.34834 0.0
C422 C 0.83267 0.55966 0.37598 0.0
Zn423 Zn 0.9244 0.59512 0.41392 0.0
O424 O 0.94803 0.55216 0.43338 0.0
C425 C 0.90875 0.57912 0.49413 0.0
O426 O 0.907 0.54699 0.40521 0.0
H427 H 0.91166 0.631 0.35355 0.0
H428 H 0.02876 0.6087 0.42525 0.0
H429 H 0.85791 0.54992 0.41603 0.0
O430 O 0.93606 0.58359 0.49403 0.0
O431 O 0.89852 0.58507 0.46509 0.0
H432 H 0.98066 0.59118 0.52621 0.0
O433 O 0.94547 0.64539 0.42149 0.0
O434 O 0.97995 0.64407 0.45792 0.0
O435 O 0.94863 0.60242 0.36338 0.0
O436 O 0.98894 0.61126 0.3961 0.0
C437 C 0.96946 0.65948 0.44194 0.0
H438 H 0.0377 0.56593 0.43517 0.0
H439 H 0.9903 0.54885 0.53948 0.0
H440 H 0.86531 0.62259 0.31963 0.0
H441 H 0.81109 0.53905 0.38278 0.0
C442 C 0.49356 0.39863 0.4239 0.0
N443 N 0.42074 0.39838 0.47819 0.0
C444 C 0.43111 0.40292 0.51356 0.0
C445 C 0.44707 0.43274 0.52773 0.0
C446 C 0.45117 0.45736 0.50537 0.0
C447 C 0.43264 0.45074 0.47394 0.0
C448 C 0.41736 0.42058 0.46059 0.0
Zn449 Zn 0.42799 0.36822 0.44639 0.0
C450 C 0.42388 0.37764 0.36626 0.0
N451 N 0.44683 0.30865 0.38186 0.0
C452 C 0.47286 0.3074 0.38939 0.0
C453 C 0.42716 0.29126 0.35458 0.0
C454 C 0.43291 0.27087 0.33434 0.0
C455 C 0.45929 0.26859 0.3421 0.0
C456 C 0.47966 0.28763 0.36962 0.0
Zn457 Zn 0.43795 0.33715 0.41305 0.0
O458 O 0.47338 0.40293 0.43955 0.0
C459 C 0.44917 0.33179 0.49231 0.0
O460 O 0.48594 0.37185 0.41169 0.0
H461 H 0.4067 0.29276 0.34897 0.0
H462 H 0.4311 0.38462 0.52919 0.0
H463 H 0.48822 0.32146 0.41117 0.0
O464 O 0.44205 0.35285 0.49324 0.0
O465 O 0.44627 0.31773 0.46211 0.0
H466 H 0.40655 0.41637 0.43395 0.0
O467 O 0.38787 0.30387 0.41372 0.0
O468 O 0.38264 0.33456 0.45281 0.0
O469 O 0.43263 0.35778 0.36459 0.0
O470 O 0.41689 0.38406 0.39732 0.0
C471 C 0.3706 0.3099 0.43393 0.0
H472 H 0.4598 0.43655 0.55313 0.0
H473 H 0.43365 0.4691 0.4571 0.0
H474 H 0.41626 0.25631 0.31377 0.0
H475 H 0.50046 0.28699 0.37623 0.0
C476 C 0.64026 0.11134 0.42608 0.0
N477 N 0.6352 0.038 0.48411 0.0
C478 C 0.62379 0.04473 0.51443 0.0
C479 C 0.59727 0.02186 0.53107 0.0
C480 C 0.58152 0.9924 0.51491 0.0
C481 C 0.59598 0.98489 0.48703 0.0
C482 C 0.62349 1.00832 0.47221 0.0
Zn483 Zn 0.66519 0.07332 0.45211 0.0
C484 C 0.65527 0.05629 0.37241 0.0
N485 N 0.72955 0.14618 0.38469 0.0
C486 C 0.73068 0.17378 0.38916 0.0
C487 C 0.74738 0.14251 0.35923 0.0
C488 C 0.76793 0.1675 0.33761 0.0
C489 C 0.76969 0.19638 0.3418 0.0
C490 C 0.75026 0.19908 0.3676 0.0
Zn491 Zn 0.69958 0.11047 0.41687 0.0
O492 O 0.63318 0.08811 0.44627 0.0
C493 C 0.70545 0.13012 0.49593 0.0
O494 O 0.667 0.12575 0.41173 0.0
H495 H 0.74596 0.1203 0.356 0.0
H496 H 0.63311 0.06832 0.52355 0.0
H497 H 0.71646 0.17633 0.40967 0.0
O498 O 0.68353 0.1024 0.49846 0.0
O499 O 0.71909 0.13968 0.46517 0.0
H500 H 0.6336 1.00327 0.44883 0.0
O501 O 0.73084 0.09183 0.42096 0.0
O502 O 0.69584 0.05737 0.45772 0.0
O503 O 0.67884 0.08308 0.36919 0.0
O504 O 0.64569 0.04546 0.40431 0.0
C505 C 0.72132 0.06776 0.44092 0.0
H506 H 0.58671 0.02862 0.55247 0.0
H507 H 0.58438 0.96231 0.47405 0.0
H508 H 0.78281 0.16434 0.31861 0.0
H509 H 0.75029 0.22059 0.37146 0.0
C510 C 0.91171 0.6099 0.77444 0.0
N511 N 0.83854 0.55197 0.70663 0.0
C512 C 0.86022 0.57579 0.68584 0.0
C513 C 0.86419 0.57245 0.64895 0.0
C514 C 0.84644 0.54406 0.63189 0.0
C515 C 0.82426 0.51904 0.65296 0.0
C516 C 0.82045 0.52363 0.69076 0.0
Zn517 Zn 0.84206 0.57024 0.76024 0.0
C518 C 0.85312 0.53864 0.82363 0.0
N519 N 0.86845 0.62875 0.85541 0.0
C520 C 0.89175 0.65846 0.85126 0.0
C521 C 0.86057 0.61555 0.88929 0.0
C522 C 0.87793 0.63165 0.92025 0.0
C523 C 0.90412 0.66133 0.91619 0.0
C524 C 0.91009 0.67502 0.88114 0.0
Zn525 Zn 0.85498 0.60224 0.80845 0.0
O526 O 0.89217 0.58901 0.75341 0.0
C527 C 0.84838 0.63509 0.74078 0.0
O528 O 0.90198 0.62145 0.7981 0.0
H529 H 0.84216 0.59181 0.89203 0.0
H530 H 0.87526 0.59827 0.69743 0.0
H531 H 0.8981 0.66844 0.82409 0.0
O532 O 0.84125 0.60815 0.73018 0.0
O533 O 0.85464 0.64097 0.77505 0.0
H534 H 0.80343 0.50467 0.70713 0.0
O535 O 0.80649 0.58122 0.82172 0.0
O536 O 0.7909 0.54995 0.7737 0.0
O537 O 0.85754 0.56395 0.83832 0.0
O538 O 0.84408 0.5333 0.79004 0.0
C539 C 0.78432 0.55959 0.80351 0.0
H540 H 0.88181 0.59214 0.63387 0.0
H541 H 0.81033 0.49647 0.64054 0.0
H542 H 0.87157 0.62032 0.94673 0.0
H543 H 0.93002 0.6975 0.87594 0.0
C544 C 0.42386 0.30902 0.77329 0.0
N545 N 0.48178 0.29384 0.7055 0.0
C546 C 0.45738 0.29119 0.68541 0.0
C547 C 0.45959 0.29749 0.64829 0.0
C548 C 0.48741 0.30766 0.63016 0.0
C549 C 0.51304 0.31105 0.65046 0.0
C550 C 0.50959 0.30363 0.68856 0.0
Zn551 Zn 0.46477 0.27994 0.75991 0.0
C552 C 0.49655 0.32368 0.82215 0.0
N553 N 0.4069 0.24881 0.8557 0.0
C554 C 0.37615 0.23884 0.85264 0.0
C555 C 0.42147 0.25778 0.8888 0.0
C556 C 0.40564 0.25931 0.91975 0.0
C557 C 0.37436 0.25122 0.91681 0.0
C558 C 0.35937 0.23965 0.88295 0.0
Zn559 Zn 0.43266 0.26125 0.80808 0.0
O560 O 0.44531 0.31066 0.7531 0.0
C561 C 0.40001 0.2208 0.74132 0.0
O562 O 0.41229 0.28794 0.79717 0.0
H563 H 0.44595 0.26591 0.89074 0.0
H564 H 0.43521 0.28391 0.69769 0.0
H565 H 0.36501 0.23239 0.82606 0.0
O566 O 0.42687 0.2407 0.73081 0.0
O567 O 0.39402 0.22132 0.7755 0.0
H568 H 0.52902 0.30592 0.70427 0.0
O569 O 0.45463 0.23462 0.82183 0.0
O570 O 0.48554 0.24958 0.77358 0.0
O571 O 0.47112 0.30308 0.83677 0.0
O572 O 0.50197 0.31953 0.78876 0.0
C573 C 0.47619 0.23388 0.80375 0.0
H574 H 0.43946 0.29499 0.63385 0.0
H575 H 0.53522 0.31938 0.63723 0.0
H576 H 0.4184 0.26854 0.94508 0.0
H577 H 0.33516 0.23239 0.87942 0.0
C578 C 0.7235 0.12468 0.77349 0.0
N579 N 0.74308 0.19982 0.70718 0.0
C580 C 0.74523 0.17811 0.68636 0.0
C581 C 0.7401 0.17553 0.649 0.0
C582 C 0.73146 0.19462 0.6314 0.0
C583 C 0.7283 0.21666 0.65249 0.0
C584 C 0.73472 0.21918 0.69082 0.0
Zn585 Zn 0.75578 0.1948 0.76126 0.0
C586 C 0.71232 0.18385 0.82369 0.0
N587 N 0.78436 0.16564 0.8571 0.0
C588 C 0.78963 0.14156 0.85341 0.0
C589 C 0.77905 0.174 0.89077 0.0
C590 C 0.7769 0.15658 0.92199 0.0
C591 C 0.77966 0.12994 0.91848 0.0
C592 C 0.78707 0.12322 0.88359 0.0
Zn593 Zn 0.7731 0.1802 0.80962 0.0
O594 O 0.72368 0.14509 0.75273 0.0
C595 C 0.8136 0.18685 0.74301 0.0
O596 O 0.74396 0.13322 0.79814 0.0
H597 H 0.77454 0.19298 0.89314 0.0
H598 H 0.75133 0.16216 0.6982 0.0
H599 H 0.7932 0.13481 0.82639 0.0
O600 O 0.79474 0.19518 0.73241 0.0
O601 O 0.81214 0.17952 0.77702 0.0
H602 H 0.73285 0.2363 0.70716 0.0
O603 O 0.80163 0.22872 0.82379 0.0
O604 O 0.7871 0.24542 0.77589 0.0
O605 O 0.73266 0.17876 0.8385 0.0
O606 O 0.71651 0.19319 0.79021 0.0
C607 C 0.8029 0.25137 0.80591 0.0
H608 H 0.74216 0.15786 0.63395 0.0
H609 H 0.72101 0.2315 0.63965 0.0
H610 H 0.77203 0.16338 0.9483 0.0
H611 H 0.78899 0.10286 0.87883 0.0
C612 C 0.40608 0.03628 0.25787 0.0
N613 N 0.48657 0.10303 0.31663 0.0
C614 C 0.48248 0.08113 0.34169 0.0
C615 C 0.50746 0.08476 0.36288 0.0
C616 C 0.53667 0.11149 0.35866 0.0
C617 C 0.53976 0.1339 0.33316 0.0
C618 C 0.5146 0.1289 0.31193 0.0
Zn619 Zn 0.45164 0.10029 0.28524 0.0
C620 C 0.4718 0.11633 0.2073 0.0
N621 N 0.38068 0.0993 0.21882 0.0
C622 C 0.36179 0.10711 0.23707 0.0
C623 C 0.38959 0.10915 0.18369 0.0
C624 C 0.38892 0.13514 0.17116 0.0
C625 C 0.37642 0.14867 0.19415 0.0
C626 C 0.35957 0.13232 0.22522 0.0
Zn627 Zn 0.4142 0.09877 0.25119 0.0
O628 O 0.42986 0.0501 0.27862 0.0
C629 C 0.39713 0.08911 0.33021 0.0
O630 O 0.39674 0.05217 0.24061 0.0
H631 H 0.40177 0.1004 0.16765 0.0
H632 H 0.45996 0.06077 0.34501 0.0
H633 H 0.35223 0.09731 0.26353 0.0
O634 O 0.42452 0.09386 0.33308 0.0
O635 O 0.38572 0.08712 0.29849 0.0
H636 H 0.51761 0.14594 0.29159 0.0
O637 O 0.43094 0.14569 0.26228 0.0
O638 O 0.46995 0.14859 0.29296 0.0
O639 O 0.44481 0.11256 0.20597 0.0
O640 O 0.48067 0.10962 0.23687 0.0
C641 C 0.45542 0.16147 0.28075 0.0
H642 H 0.50398 0.06653 0.38171 0.0
H643 H 0.56146 0.15517 0.32932 0.0
H644 H 0.40083 0.14614 0.14593 0.0
H645 H 0.34759 0.1408 0.24226 0.0
C646 C 1.00088 0.37378 0.25936 0.0
N647 N 0.93317 0.3883 0.31276 0.0
C648 C 0.95446 0.40689 0.33804 0.0
C649 C 0.95031 0.42876 0.35739 0.0
C650 C 0.92379 0.43118 0.35094 0.0
C651 C 0.9021 0.4113 0.32504 0.0
C652 C 0.90742 0.39026 0.30597 0.0
Zn653 Zn 0.93739 0.35562 0.28405 0.0
C654 C 0.92364 0.35915 0.20251 0.0
N655 N 0.9398 0.286 0.22073 0.0
C656 C 0.95435 0.27238 0.23745 0.0
C657 C 0.91981 0.27204 0.19241 0.0
C658 C 0.90999 0.24139 0.18408 0.0
C659 C 0.91987 0.2251 0.20633 0.0
C660 C 0.94388 0.24112 0.23143 0.0
Zn661 Zn 0.93724 0.31987 0.24827 0.0
O662 O 0.98723 0.3853 0.27768 0.0
C663 C 0.94423 0.31191 0.33 0.0
O664 O 0.98479 0.34773 0.24386 0.0
H665 H 0.90832 0.28304 0.17958 0.0
H666 H 0.97472 0.40488 0.34302 0.0
H667 H 0.97105 0.28434 0.25902 0.0
O668 O 0.94503 0.3376 0.33386 0.0
O669 O 0.94213 0.30113 0.29792 0.0
H670 H 0.89078 0.37538 0.28567 0.0
O671 O 0.88962 0.29089 0.25321 0.0
O672 O 0.8893 0.32446 0.29165 0.0
O673 O 0.92968 0.33741 0.19969 0.0
O674 O 0.92708 0.37235 0.23357 0.0
C675 C 0.87505 0.29844 0.27546 0.0
H676 H 0.96799 0.44395 0.37663 0.0
H677 H 0.8811 0.41188 0.31949 0.0
H678 H 0.89121 0.22938 0.16463 0.0
H679 H 0.95186 0.229 0.24893 0.0
C680 C 0.65897 0.6325 0.25772 0.0
N681 N 0.64203 0.5512 0.31699 0.0
C682 C 0.63152 0.55808 0.34805 0.0
C683 C 0.61056 0.5344 0.37096 0.0
C684 C 0.5998 0.50329 0.3614 0.0
C685 C 0.61111 0.49709 0.32904 0.0
C686 C 0.63255 0.5214 0.30755 0.0
Zn687 Zn 0.67511 0.58492 0.28497 0.0
C688 C 0.67036 0.5652 0.20692 0.0
N689 N 0.74687 0.65467 0.21971 0.0
C690 C 0.77381 0.67243 0.23816 0.0
C691 C 0.74736 0.64588 0.18434 0.0
C692 C 0.77353 0.64577 0.17128 0.0
C693 C 0.7996 0.65726 0.1941 0.0
C694 C 0.80076 0.67388 0.22577 0.0
Zn695 Zn 0.7115 0.62231 0.25169 0.0
O696 O 0.64889 0.60902 0.27896 0.0
C697 C 0.71978 0.6394 0.33028 0.0
O698 O 0.68377 0.64101 0.23981 0.0
H699 H 0.72634 0.63445 0.16835 0.0
H700 H 0.63968 0.58195 0.35534 0.0
H701 H 0.77401 0.68163 0.26505 0.0
O702 O 0.69747 0.61179 0.33285 0.0
O703 O 0.72855 0.65128 0.29868 0.0
H704 H 0.64174 0.51633 0.28332 0.0
O705 O 0.73997 0.60411 0.26445 0.0
O706 O 0.70259 0.56387 0.29224 0.0
O707 O 0.69455 0.59153 0.20652 0.0
O708 O 0.6541 0.55668 0.23602 0.0
C709 C 0.73051 0.57893 0.28162 0.0
H710 H 0.60304 0.54053 0.39591 0.0
H711 H 0.60318 0.47369 0.31981 0.0
H712 H 0.77215 0.63406 0.14566 0.0
H713 H 0.82131 0.6851 0.24278 0.0
C714 C 0.59095 0.13771 0.89693 0.0
N715 N 0.5064 0.06846 0.84633 0.0
C716 C 0.51488 0.08156 0.81245 0.0
C717 C 0.49815 0.06534 0.78123 0.0
C718 C 0.47201 0.0356 0.78498 0.0
C719 C 0.46526 0.02209 0.82015 0.0
C720 C 0.48298 0.0388 0.85034 0.0
Zn721 Zn 0.52023 0.095 0.8932 0.0
C722 C 0.52751 0.06226 0.96045 0.0
N723 N 0.5387 0.14563 0.99488 0.0
C724 C 0.55822 0.17356 1.01087 0.0
C725 C 0.51714 0.12202 1.016 0.0
C726 C 0.51481 0.12505 0.05333 0.0
C727 C 0.53415 0.15297 0.0706 0.0
C728 C 0.55604 0.1779 0.04916 0.0
Zn729 Zn 0.53391 0.12726 0.94117 0.0
O730 O 0.5686 0.11598 0.87904 0.0
C731 C 0.52222 0.1587 0.87796 0.0
O732 O 0.58471 0.1474 0.92691 0.0
H733 H 0.50129 0.09975 1.00448 0.0
H734 H 0.5334 0.10526 0.80985 0.0
H735 H 0.5753 0.1923 0.9943 0.0
O736 O 0.51745 0.13319 0.86349 0.0
O737 O 0.53162 0.16426 0.91144 0.0
H738 H 0.47623 0.02889 0.8775 0.0
O739 O 0.48399 0.10863 0.94918 0.0
O740 O 0.47328 0.07579 0.9047 0.0
O741 O 0.53488 0.08928 0.97101 0.0
O742 O 0.52086 0.0563 0.92628 0.0
C743 C 0.464 0.08739 0.92888 0.0
H744 H 0.50501 0.07655 0.7547 0.0
H745 H 0.4453 0.99957 0.82504 0.0
H746 H 0.49729 0.10549 0.06868 0.0
H747 H 0.57111 0.20015 0.06174 0.0
C748 C 0.89948 0.46344 0.89687 0.0
N749 N 0.96854 0.44769 0.84626 0.0
C750 C 0.95522 0.44136 0.81237 0.0
C751 C 0.97127 0.43937 0.78186 0.0
C752 C 1.00106 0.44331 0.78646 0.0
C753 C 1.01488 0.4521 0.82138 0.0
C754 C 0.99833 0.45449 0.85078 0.0
Zn755 Zn 0.94224 0.43543 0.89309 0.0
C756 C 0.97534 0.47602 0.95987 0.0
N757 N 0.89239 0.40336 0.99485 0.0
C758 C 0.86382 0.39202 1.01037 0.0
C759 C 0.91659 0.40686 1.01602 0.0
C760 C 0.91352 0.40034 0.05301 0.0
C761 C 0.8849 0.38849 0.0697 0.0
C762 C 0.8594 0.3839 0.04821 0.0
Zn763 Zn 0.91044 0.41718 0.94125 0.0
O764 O 0.92121 0.46285 0.87899 0.0
C765 C 0.87873 0.3734 0.87865 0.0
O766 O 0.88981 0.44745 0.92677 0.0
H767 H 0.93911 0.41445 1.0046 0.0
H768 H 0.93142 0.43574 0.80937 0.0
H769 H 0.84451 0.38872 0.99361 0.0
O770 O 0.90388 0.39421 0.86373 0.0
O771 O 0.87356 0.37744 0.91217 0.0
H772 H 1.00838 0.45883 0.87799 0.0
O773 O 0.92963 0.38633 0.94973 0.0
O774 O 0.9615 0.40776 0.90442 0.0
O775 O 0.94827 0.45679 0.9705 0.0
O776 O 0.98119 0.47486 0.92581 0.0
C777 C 0.95046 0.38728 0.92901 0.0
H778 H 0.95986 0.4335 0.75536 0.0
H779 H 0.03747 0.45504 0.82687 0.0
H780 H 0.93352 0.40339 0.06831 0.0
H781 H 0.83661 0.37401 0.0603 0.0
C782 C 0.5727 0.4454 0.89518 0.0
N783 N 0.5882 0.52887 0.84207 0.0
C784 C 0.59708 0.52244 0.8094 0.0
C785 C 0.59912 0.53941 0.77791 0.0
C786 C 0.5915 0.56298 0.77982 0.0
C787 C 0.57963 0.56699 0.81317 0.0
C788 C 0.57846 0.54987 0.8441 0.0
Zn789 Zn 0.60057 0.51622 0.89017 0.0
C790 C 0.56086 0.50983 0.9571 0.0
N791 N 0.63292 0.49939 0.99243 0.0
C792 C 0.64034 0.47943 1.00906 0.0
C793 C 0.63152 0.52165 1.01297 0.0
C794 C 0.63662 0.52426 0.0504 0.0
C795 C 0.64409 0.50439 0.06832 0.0
C796 C 0.64649 0.48181 0.04744 0.0
Zn797 Zn 0.61939 0.50318 0.93836 0.0
O798 O 0.57362 0.46762 0.87681 0.0
C799 C 0.66272 0.51415 0.87627 0.0
O800 O 0.58849 0.45195 0.9253 0.0
H801 H 0.62553 0.53761 1.00091 0.0
H802 H 0.60484 0.50576 0.80825 0.0
H803 H 0.64135 0.46172 0.99296 0.0
O804 O 0.64222 0.51911 0.86165 0.0
O805 O 0.65856 0.50468 0.90966 0.0
H806 H 0.57195 0.55511 0.87034 0.0
O807 O 0.6506 0.55345 0.94472 0.0
O808 O 0.62747 0.56333 0.90066 0.0
O809 O 0.58086 0.50303 0.96767 0.0
O810 O 0.56091 0.5156 0.92273 0.0
C811 C 0.64877 0.57308 0.92436 0.0
H812 H 0.60847 0.53533 0.75305 0.0
H813 H 0.57254 0.58413 0.8159 0.0
H814 H 0.63503 0.54224 0.06534 0.0
H815 H 0.65275 0.46627 0.06053 0.0
C816 C 0.59819 0.87259 0.75445 0.0
N817 N 0.66988 0.94371 0.81072 0.0
C818 C 0.6902 0.93679 0.79457 0.0
C819 C 0.70901 0.93023 0.81613 0.0
C820 C 0.70549 0.92924 0.85447 0.0
C821 C 0.68848 0.94167 0.87034 0.0
C822 C 0.67068 0.94902 0.84754 0.0
Zn823 Zn 0.63302 0.937 0.78084 0.0
C824 C 0.64714 0.9452 0.70137 0.0
N825 N 0.55512 0.92102 0.71884 0.0
C826 C 0.52771 0.89509 0.72625 0.0
C827 C 0.55759 0.94083 0.69173 0.0
C828 C 0.5316 0.93513 0.67125 0.0
C829 C 0.50288 0.90867 0.6786 0.0
C830 C 0.50125 0.88837 0.7063 0.0
Zn831 Zn 0.59265 0.92877 0.74896 0.0
O832 O 0.62312 0.89239 0.76966 0.0
C833 C 0.57639 0.91426 0.82803 0.0
O834 O 0.57862 0.88047 0.7448 0.0
H835 H 0.57966 0.96122 0.68622 0.0
H836 H 0.68931 0.93255 0.76536 0.0
H837 H 0.52627 0.87957 0.74784 0.0
O838 O 0.60416 0.91994 0.82821 0.0
O839 O 0.56575 0.91943 0.79877 0.0
H840 H 0.65495 0.95547 0.85966 0.0
O841 O 0.61007 0.97908 0.75222 0.0
O842 O 0.64418 0.98151 0.79198 0.0
O843 O 0.6183 0.93542 0.70005 0.0
O844 O 0.66062 0.95188 0.73239 0.0
C845 C 0.63277 0.99501 0.77389 0.0
H846 H 0.72195 0.92091 0.80269 0.0
H847 H 0.68564 0.94159 0.89988 0.0
H848 H 0.53388 0.95174 0.65059 0.0
H849 H 0.47974 0.86755 0.71266 0.0
C850 C 0.16473 0.73319 0.75805 0.0
N851 N 0.10071 0.7376 0.82417 0.0
C852 C 0.11152 0.76604 0.80899 0.0
C853 C 0.13499 0.79174 0.82656 0.0
C854 C 0.14653 0.78767 0.85991 0.0
C855 C 0.12995 0.75969 0.87878 0.0
C856 C 0.10587 0.73467 0.86038 0.0
Zn857 Zn 0.10198 0.70599 0.78918 0.0
C858 C 0.09125 0.71534 0.71106 0.0
N859 N 0.11098 0.64268 0.71895 0.0
C860 C 0.1377 0.6418 0.72142 0.0
C861 C 0.08785 0.62332 0.69595 0.0
C862 C 0.09082 0.60137 0.67515 0.0
C863 C 0.11808 0.59967 0.6776 0.0
C864 C 0.14192 0.6208 0.70058 0.0
Zn865 Zn 0.10676 0.67317 0.75254 0.0
O866 O 0.14704 0.73837 0.77782 0.0
C867 C 0.12395 0.66784 0.82966 0.0
O868 O 0.1549 0.70628 0.74484 0.0
H869 H 0.0668 0.62441 0.69436 0.0
H870 H 0.10646 0.76849 0.78081 0.0
H871 H 0.15573 0.65706 0.74015 0.0
O872 O 0.1181 0.68965 0.83276 0.0
O873 O 0.1184 0.65357 0.79913 0.0
H874 H 0.09542 0.71204 0.87291 0.0
O875 O 0.05691 0.64208 0.75941 0.0
O876 O 0.05641 0.67449 0.79998 0.0
O877 O 0.09752 0.6938 0.70646 0.0
O878 O 0.08861 0.72316 0.74357 0.0
C879 C 0.0419 0.64978 0.78136 0.0
H880 H 0.14671 0.81358 0.81201 0.0
H881 H 0.13774 0.7562 0.90521 0.0
H882 H 0.07152 0.5853 0.65834 0.0
H883 H 0.16359 0.62094 0.70297 0.0
C884 C 0.30965 0.4506 0.75145 0.0
N885 N 0.29539 0.37477 0.81224 0.0
C886 C 0.29457 0.38348 0.84755 0.0
C887 C 0.26809 0.38307 0.86027 0.0
C888 C 0.2421 0.37097 0.83726 0.0
C889 C 0.24135 0.35413 0.80598 0.0
C890 C 0.26864 0.35621 0.79388 0.0
Zn891 Zn 0.32991 0.40815 0.78039 0.0
C892 C 0.32216 0.3913 0.7015 0.0
N893 N 0.39832 0.48049 0.71538 0.0
C894 C 0.40854 0.51014 0.72626 0.0
C895 C 0.40684 0.47421 0.68243 0.0
C896 C 0.42616 0.49826 0.65892 0.0
C897 C 0.43788 0.52925 0.66994 0.0
C898 C 0.42884 0.53483 0.70438 0.0
Zn899 Zn 0.36597 0.44593 0.74735 0.0
O900 O 0.30039 0.42522 0.76813 0.0
C901 C 0.37024 0.46531 0.82556 0.0
O902 O 0.33757 0.46604 0.74091 0.0
H903 H 0.39819 0.45053 0.67393 0.0
H904 H 0.31553 0.39534 0.86362 0.0
H905 H 0.40072 0.5149 0.75183 0.0
O906 O 0.3462 0.43885 0.8259 0.0
O907 O 0.38656 0.4739 0.79653 0.0
H908 H 0.26877 0.34686 0.76719 0.0
O909 O 0.39325 0.42283 0.75273 0.0
O910 O 0.35864 0.39068 0.79198 0.0
O911 O 0.344 0.41913 0.69924 0.0
O912 O 0.31341 0.37925 0.73304 0.0
C913 C 0.38352 0.3995 0.77416 0.0
H914 H 0.26918 0.3949 0.88568 0.0
H915 H 0.22085 0.34233 0.78896 0.0
H916 H 0.43157 0.49237 0.63238 0.0
H917 H 0.4375 0.55799 0.71492 0.0
C918 C 0.57795 0.9442 0.10709 0.0
N919 N 0.50459 0.88677 0.03977 0.0
C920 C 0.52575 0.91079 0.01877 0.0
C921 C 0.53001 0.90737 0.98199 0.0
C922 C 0.51324 0.87867 0.9653 0.0
C923 C 0.49159 0.85346 0.98658 0.0
C924 C 0.48738 0.85814 0.02423 0.0
Zn925 Zn 0.50822 0.90498 0.09348 0.0
C926 C 0.51969 0.87332 0.15661 0.0
N927 N 0.53539 0.9632 0.18926 0.0
C928 C 0.55906 0.99276 0.1854 0.0
C929 C 0.52718 0.94986 0.22306 0.0
C930 C 0.54445 0.96566 0.25423 0.0
C931 C 0.57091 0.99521 0.25052 0.0
C932 C 0.57733 1.00901 0.2155 0.0
Zn933 Zn 0.52162 0.93687 0.14199 0.0
O934 O 0.55814 0.92379 0.08585 0.0
C935 C 0.51464 0.96996 0.07465 0.0
O936 O 0.56863 0.95568 0.13137 0.0
H937 H 0.50851 0.92623 0.22559 0.0
H938 H 0.54045 0.93342 0.03021 0.0
H939 H 0.56567 1.00285 0.1583 0.0
O940 O 0.50698 0.9429 0.06396 0.0
O941 O 0.52152 0.97587 0.1088 0.0
H942 H 0.47093 0.83897 0.04081 0.0
O943 O 0.473 0.91594 0.15537 0.0
O944 O 0.45721 0.88456 0.10741 0.0
O945 O 0.52398 0.8985 0.17151 0.0
O946 O 0.51067 0.8681 0.123 0.0
C947 C 0.45074 0.89425 0.13726 0.0
H948 H 0.54727 0.92721 0.96679 0.0
H949 H 0.47847 0.83065 0.97447 0.0
H950 H 0.53774 0.95422 0.28063 0.0
H951 H 0.59748 0.03138 0.21051 0.0
C952 C 0.09416 0.6427 0.10538 0.0
N953 N 0.15224 0.62586 0.04006 0.0
C954 C 0.12861 0.62339 0.01857 0.0
C955 C 0.13205 0.62951 0.98142 0.0
C956 C 0.16046 0.63956 0.96477 0.0
C957 C 0.18539 0.64305 0.98661 0.0
C958 C 0.1806 0.63558 0.02464 0.0
Zn959 Zn 0.13354 0.61219 0.09366 0.0
C960 C 0.16489 0.65561 0.15689 0.0
N961 N 0.07405 0.58179 0.18792 0.0
C962 C 0.04437 0.57504 0.18237 0.0
C963 C 0.08665 0.58819 0.2222 0.0
C964 C 0.06995 0.59021 0.25201 0.0
C965 C 0.04025 0.58627 0.24634 0.0
C966 C 0.02719 0.57745 0.21107 0.0
Zn967 Zn 0.10127 0.59387 0.14163 0.0
O968 O 0.11521 0.64374 0.08497 0.0
C969 C 0.06851 0.55386 0.07424 0.0
O970 O 0.08261 0.62189 0.12955 0.0
H971 H 0.11038 0.59381 0.22605 0.0
H972 H 0.10617 0.61654 0.02976 0.0
H973 H 0.03487 0.57069 0.15488 0.0
O974 O 0.09559 0.5732 0.06374 0.0
O975 O 0.06261 0.5547 0.10835 0.0
H976 H 0.19945 0.63785 0.04155 0.0
O977 O 0.12179 0.56603 0.15646 0.0
O978 O 0.15328 0.58107 0.10876 0.0
O979 O 0.13947 0.63489 0.17143 0.0
O980 O 0.17043 0.65155 0.1235 0.0
C981 C 0.14344 0.56514 0.13871 0.0
H982 H 0.11249 0.6272 0.96582 0.0
H983 H 0.20802 0.65144 0.97458 0.0
H984 H 0.08081 0.59609 0.27883 0.0
H985 H 1.0047 0.57449 0.20475 0.0
C986 C 0.39534 0.4608 0.10412 0.0
N987 N 0.4109 0.53468 0.03828 0.0
C988 C 0.41338 0.51323 1.0173 0.0
C989 C 0.40751 0.51019 0.98006 0.0
C990 C 0.39782 0.52857 0.96274 0.0
C991 C 0.3943 0.5503 0.98403 0.0
C992 C 0.40144 0.55329 0.0222 0.0
Zn993 Zn 0.42467 0.53043 0.09225 0.0
C994 C 0.38141 0.51834 0.15525 0.0
N995 N 0.45558 0.50247 0.18729 0.0
C996 C 0.46212 0.47926 0.18292 0.0
C997 C 0.4489 0.5093 0.22111 0.0
C998 C 0.44631 0.49096 0.25157 0.0
C999 C 0.45003 0.46495 0.24713 0.0
C1000 C 0.45916 0.46004 0.21232 0.0
Zn1001 Zn 0.4436 0.51696 0.14016 0.0
O1002 O 0.39358 0.4806 0.08417 0.0
C1003 C 0.48345 0.52427 0.07292 0.0
O1004 O 0.41637 0.47029 0.12807 0.0
H1005 H 0.44344 0.5276 0.22405 0.0
H1006 H 0.42026 0.49779 0.02891 0.0
H1007 H 0.46675 0.47367 0.15579 0.0
O1008 O 0.46368 0.5315 0.0626 0.0
O1009 O 0.48309 0.51785 0.1071 0.0
H1010 H 0.39924 0.57015 0.03865 0.0
O1011 O 0.47075 0.56538 0.15467 0.0
O1012 O 0.45543 0.58134 0.10674 0.0
O1013 O 0.40226 0.51373 0.16955 0.0
O1014 O 0.38525 0.52794 0.12189 0.0
C1015 C 0.47139 0.58769 0.13671 0.0
H1016 H 0.40989 0.49276 0.96489 0.0
H1017 H 0.38623 0.5646 0.97145 0.0
H1018 H 0.44019 0.49647 0.27794 0.0
H1019 H 0.46198 0.4403 0.20686 0.0
C1020 C 0.07373 0.36841 0.59361 0.0
N1021 N 0.15358 0.43984 0.64803 0.0
C1022 C 0.15128 0.41977 0.67472 0.0
C1023 C 0.17746 0.4252 0.69461 0.0
C1024 C 0.20617 0.45168 0.68712 0.0
C1025 C 0.20761 0.47214 0.65978 0.0
C1026 C 0.18102 0.46564 0.64036 0.0
Zn1027 Zn 0.11606 0.43352 0.61899 0.0
C1028 C 0.13231 0.44862 0.53921 0.0
N1029 N 0.04024 0.42346 0.55774 0.0
C1030 C 0.03832 0.41722 0.52107 0.0
C1031 C 1.02102 0.43167 0.57426 0.0
C1032 C 1.00213 0.43837 0.55309 0.0
C1033 C 1.0045 0.43821 0.51465 0.0
C1034 C 1.02044 0.42471 0.4986 0.0
Zn1035 Zn 0.07686 0.42871 0.58681 0.0
O1036 O 0.09723 0.38331 0.6145 0.0
C1037 C 0.06276 0.41943 0.66675 0.0
O1038 O 0.06317 0.38314 0.57637 0.0
H1039 H 0.02282 0.43666 0.60333 0.0
H1040 H 0.12917 0.39949 0.68043 0.0
H1041 H 0.05317 0.40975 0.5087 0.0
O1042 O 0.09103 0.42682 0.66842 0.0
O1043 O 0.04993 0.41531 0.63555 0.0
H1044 H 0.18237 0.48136 0.61908 0.0
O1045 O 0.08945 0.47461 0.59744 0.0
O1046 O 0.13149 0.4817 0.62492 0.0
O1047 O 0.10493 0.44402 0.53901 0.0
O1048 O 0.1425 0.44292 0.5685 0.0
C1049 C 0.11434 0.49228 0.61433 0.0
H1050 H 0.17532 0.40847 0.71501 0.0
H1051 H 0.22906 0.493 0.65336 0.0
H1052 H 0.99007 0.4486 0.56664 0.0
H1053 H 0.02243 0.42395 0.46899 0.0
C1054 C 0.66744 0.71139 0.59002 0.0
N1055 N 0.59819 0.72099 0.64855 0.0
C1056 C 0.61611 0.73229 0.6791 0.0
C1057 C 0.6134 0.75337 0.70183 0.0
C1058 C 0.59268 0.76367 0.69248 0.0
C1059 C 0.57402 0.75095 0.66116 0.0
C1060 C 0.57686 0.7293 0.63986 0.0
Zn1061 Zn 0.60208 0.69048 0.61487 0.0
C1062 C 0.58978 0.699 0.53632 0.0
N1063 N 0.60766 0.62504 0.54323 0.0
C1064 C 0.60919 0.60126 0.55945 0.0
C1065 C 0.59498 0.6213 0.50909 0.0
C1066 C 0.57582 0.59173 0.49542 0.0
C1067 C 0.57073 0.56633 0.51686 0.0
C1068 C 0.59031 0.5712 0.5468 0.0
Zn1069 Zn 0.60616 0.65743 0.57745 0.0
O1070 O 0.65252 0.72007 0.61081 0.0
C1071 C 0.612 0.64517 0.65687 0.0
O1072 O 0.65271 0.68676 0.57132 0.0
H1073 H 0.59593 0.64043 0.49436 0.0
H1074 H 0.63267 0.72511 0.68577 0.0
H1075 H 0.62169 0.60459 0.58477 0.0
O1076 O 0.60806 0.66816 0.66157 0.0
O1077 O 0.61407 0.63713 0.62438 0.0
H1078 H 0.56228 0.71952 0.61595 0.0
O1079 O 0.55975 0.62734 0.58409 0.0
O1080 O 0.55325 0.65918 0.61948 0.0
O1081 O 0.59548 0.67712 0.53284 0.0
O1082 O 0.59369 0.71189 0.56755 0.0
C1083 C 0.54224 0.63296 0.60376 0.0
H1084 H 0.62776 0.76174 0.72616 0.0
H1085 H 0.55802 0.75828 0.65226 0.0
H1086 H 0.56201 0.58903 0.47125 0.0
H1087 H 0.58822 0.552 0.56288 0.0
C1088 C 0.32933 0.96578 0.58977 0.0
N1089 N 0.31283 0.88459 0.64839 0.0
C1090 C 0.30152 0.89138 0.67879 0.0
C1091 C 0.28031 0.86763 0.70133 0.0
C1092 C 0.27018 0.83661 0.69202 0.0
C1093 C 0.2825 0.83048 0.66057 0.0
C1094 C 0.30411 0.85487 0.63938 0.0
Zn1095 Zn 0.34568 0.91831 0.61671 0.0
C1096 C 0.34086 0.89833 0.539 0.0
N1097 N 0.41736 0.98805 0.55133 0.0
C1098 C 0.44404 1.00604 0.57013 0.0
C1099 C 0.4184 0.97828 0.51664 0.0
C1100 C 0.44437 0.97693 0.5055 0.0
C1101 C 0.46994 0.98855 0.52917 0.0
C1102 C 0.47086 1.0063 0.55963 0.0
Zn1103 Zn 0.38207 0.95559 0.58342 0.0
O1104 O 0.31925 0.94213 0.6107 0.0
C1105 C 0.39014 0.9727 0.66202 0.0
O1106 O 0.35421 0.97449 0.5719 0.0
H1107 H 0.39774 0.96698 0.49998 0.0
H1108 H 0.30916 0.91521 0.68572 0.0
H1109 H 0.44394 0.01645 0.59609 0.0
O1110 O 0.36774 0.94515 0.66458 0.0
O1111 O 0.39923 0.98446 0.63043 0.0
H1112 H 0.31396 0.84994 0.61566 0.0
O1113 O 0.41065 0.93715 0.59591 0.0
O1114 O 0.3731 0.89731 0.624 0.0
O1115 O 0.3649 0.92477 0.53824 0.0
O1116 O 0.32475 0.88996 0.56817 0.0
C1117 C 0.40095 0.91195 0.61318 0.0
H1118 H 0.27193 0.87358 0.7257 0.0
H1119 H 0.27512 0.80707 0.65178 0.0
H1120 H 0.44318 0.96442 0.48063 0.0
H1121 H 0.49113 0.01785 0.57704 0.0
C1122 C 0.25981 0.46993 0.22932 0.0
N1123 N 0.17641 0.40043 0.17741 0.0
C1124 C 0.18449 0.41412 0.14381 0.0
C1125 C 0.16766 0.39823 0.1125 0.0
C1126 C 0.14187 0.36824 0.11598 0.0
C1127 C 0.13572 0.35411 0.15076 0.0
C1128 C 0.15352 0.3705 0.18099 0.0
Zn1129 Zn 0.18931 0.42613 0.22473 0.0
C1130 C 0.19688 0.39241 0.29112 0.0
N1131 N 0.20516 0.47486 0.3277 0.0
C1132 C 0.22116 0.50378 0.34284 0.0
C1133 C 0.18499 0.4505 0.34903 0.0
C1134 C 0.18074 0.45386 0.38584 0.0
C1135 C 0.19628 0.48285 0.40213 0.0
C1136 C 0.21675 0.5084 0.38043 0.0
Zn1137 Zn 0.20177 0.45706 0.27385 0.0
O1138 O 0.23783 0.44811 0.21112 0.0
C1139 C 0.18948 0.48906 0.21125 0.0
O1140 O 0.25304 0.47899 0.25947 0.0
H1141 H 0.17087 0.42771 0.33773 0.0
H1142 H 0.20261 0.43803 0.14158 0.0
H1143 H 0.23664 0.52323 0.32592 0.0
O1144 O 0.18591 0.46433 0.19581 0.0
O1145 O 0.19811 0.49378 0.24502 0.0
H1146 H 0.14705 0.36013 0.20797 0.0
O1147 O 0.15165 0.43659 0.28211 0.0
O1148 O 0.14219 0.40589 0.23559 0.0
O1149 O 0.20413 0.41918 0.30263 0.0
O1150 O 0.19032 0.38719 0.25685 0.0
C1151 C 0.13219 0.41595 0.26076 0.0
H1152 H 0.17406 0.40991 0.08622 0.0
H1153 H 0.11602 0.33136 0.15547 0.0
H1154 H 0.16422 0.43376 0.4013 0.0
H1155 H 0.22877 0.53143 0.39217 0.0
C1156 C 0.5673 0.79908 0.22932 0.0
N1157 N 0.63689 0.78416 0.17883 0.0
C1158 C 0.62378 0.778 0.14483 0.0
C1159 C 0.64005 0.77621 0.11444 0.0
C1160 C 0.6698 0.78008 0.11927 0.0
C1161 C 0.68343 0.7888 0.1543 0.0
C1162 C 0.66669 0.79106 0.18357 0.0
Zn1163 Zn 0.61027 0.77143 0.2254 0.0
C1164 C 0.64291 0.8111 0.2928 0.0
N1165 N 0.55971 0.73869 0.32652 0.0
C1166 C 0.53175 0.73019 0.34234 0.0
C1167 C 0.58327 0.74068 0.34767 0.0
C1168 C 0.5802 0.73525 0.38494 0.0
C1169 C 0.55223 0.72654 0.40203 0.0
C1170 C 0.52732 0.72347 0.38053 0.0
Zn1171 Zn 0.57808 0.75247 0.27309 0.0
O1172 O 0.58901 0.79859 0.21131 0.0
C1173 C 0.54669 0.70943 0.21005 0.0
O1174 O 0.5578 0.78311 0.25922 0.0
H1175 H 0.60553 0.74708 0.33622 0.0
H1176 H 0.59999 0.77233 0.14165 0.0
H1177 H 0.51305 0.72856 0.32569 0.0
O1178 O 0.57215 0.73018 0.1956 0.0
O1179 O 0.54114 0.71334 0.24346 0.0
H1180 H 0.67659 0.79533 0.21086 0.0
O1181 O 0.59689 0.72114 0.28062 0.0
O1182 O 0.62988 0.74407 0.23668 0.0
O1183 O 0.61599 0.79127 0.30322 0.0
O1184 O 0.6488 0.81081 0.25858 0.0
C1185 C 0.61836 0.7229 0.2604 0.0
H1186 H 0.6288 0.77046 0.08785 0.0
H1187 H 0.70599 0.79172 0.16 0.0
H1188 H 0.59971 0.73723 0.40033 0.0
H1189 H 0.50502 0.71611 0.39298 0.0
C1190 C 0.23942 0.77771 0.23001 0.0
N1191 N 0.2536 0.86243 0.1804 0.0
C1192 C 0.25919 0.8554 0.14614 0.0
C1193 C 0.26026 0.87325 0.11589 0.0
C1194 C 0.25631 0.89909 0.12108 0.0
C1195 C 0.24826 0.90412 0.15644 0.0
C1196 C 0.24667 0.88528 0.18558 0.0
Zn1197 Zn 0.26688 0.84845 0.2266 0.0
C1198 C 0.22756 0.84092 0.29472 0.0
N1199 N 0.30064 0.83074 0.32708 0.0
C1200 C 0.30911 0.81117 0.34262 0.0
C1201 C 0.29901 0.85246 0.34844 0.0
C1202 C 0.30486 0.85489 0.38564 0.0
C1203 C 0.31346 0.83546 0.40247 0.0
C1204 C 0.3161 0.81343 0.38076 0.0
Zn1205 Zn 0.28629 0.83527 0.27393 0.0
O1206 O 0.23979 0.79993 0.21217 0.0
C1207 C 0.32895 0.84727 0.21039 0.0
O1208 O 0.25555 0.78422 0.25985 0.0
H1209 H 0.29245 0.86827 0.33724 0.0
H1210 H 0.26489 0.83732 0.14259 0.0
H1211 H 0.31041 0.79396 0.32582 0.0
O1212 O 0.3081 0.85196 0.19621 0.0
O1213 O 0.32517 0.83761 0.24369 0.0
H1214 H 0.24282 0.89096 0.21304 0.0
O1215 O 0.31769 0.8855 0.28145 0.0
O1216 O 0.29419 0.8955 0.23815 0.0
O1217 O 0.24772 0.83418 0.3048 0.0
O1218 O 0.22754 0.84712 0.26054 0.0
C1219 C 0.31572 0.90521 0.26149 0.0
H1220 H 0.26547 0.86759 0.08909 0.0
H1221 H 0.24531 0.9237 0.16244 0.0
H1222 H 0.3031 0.8725 0.40123 0.0
H1223 H 0.32328 0.79828 0.39302 0.0
C1224 C 0.23418 0.16206 0.04925 0.0
C1225 C 0.24879 0.17308 0.08339 0.0
H1226 H 0.22592 0.13186 1.00398 0.0
C1227 C 0.26236 0.15768 0.10081 0.0
H1228 H 0.22372 0.17352 0.03488 0.0
C1229 C 0.26311 0.13311 0.08326 0.0
C1230 C 0.25074 0.12374 0.04768 0.0
H1231 H 0.27374 0.16559 0.1272 0.0
H1232 H 0.27427 0.12216 0.09718 0.0
C1233 C 0.23544 0.13797 0.03145 0.0
C1234 C 0.91079 0.11496 0.05218 0.0
C1235 C 0.91273 0.14403 0.04885 0.0
H1236 H 0.8829 0.06738 0.0683 0.0
C1237 C 0.88843 0.14763 0.06244 0.0
H1238 H 0.92933 0.11147 0.04255 0.0
C1239 C 0.86249 0.12277 0.07775 0.0
C1240 C 0.85988 0.09346 0.07962 0.0
H1241 H 0.88853 0.16926 0.05964 0.0
H1242 H 0.84376 0.12632 0.08651 0.0
C1243 C 0.88439 0.08976 0.06714 0.0
C1244 C 0.89449 0.76906 0.07776 0.0
C1245 C 0.89756 0.78148 0.04227 0.0
H1246 H 0.91629 0.75836 0.12153 0.0
C1247 C 0.92697 0.79632 0.02571 0.0
H1248 H 0.87244 0.75819 0.09182 0.0
C1249 C 0.95224 0.79741 0.04333 0.0
C1250 C 0.94861 0.78305 0.07755 0.0
H1251 H 0.93033 0.80576 0.99822 0.0
H1252 H 0.97411 0.80758 0.02886 0.0
C1253 C 0.91971 0.76959 0.09508 0.0
C1254 C 0.02873 0.19147 0.48876 0.0
C1255 C 0.02612 0.18972 0.5276 0.0
H1256 H 0.05861 0.2032 0.44111 0.0
C1257 C 0.05362 0.19935 0.54766 0.0
H1258 H 1.00832 0.18457 0.47212 0.0
C1259 C 0.08251 0.21102 0.52993 0.0
C1260 C 0.08529 0.21277 0.49121 0.0
H1261 H 0.05304 0.19886 0.57744 0.0
H1262 H 0.10295 0.21871 0.54682 0.0
C1263 C 0.0577 0.20223 0.47086 0.0
C1264 C 0.83373 0.86362 0.4679 0.0
C1265 C 0.82492 0.88201 0.48844 0.0
H1266 H 0.84973 0.83053 0.46889 0.0
C1267 C 0.82819 0.88201 0.52704 0.0
H1268 H 0.83142 0.86262 0.43825 0.0
C1269 C 0.8395 0.8644 0.54452 0.0
C1270 C 0.8473 0.84511 0.52439 0.0
H1271 H 0.82177 0.89572 0.54409 0.0
H1272 H 0.84108 0.86512 0.57425 0.0
C1273 C 0.84424 0.8451 0.48561 0.0
C1274 C 0.15433 0.95319 0.52713 0.0
C1275 C 0.15455 0.9496 0.48861 0.0
H1276 H 0.17115 0.98332 0.57412 0.0
C1277 C 0.17322 0.97657 0.46792 0.0
H1278 H 0.14039 0.93322 0.54426 0.0
C1279 C 0.19182 1.00572 0.48546 0.0
C1280 C 0.19162 1.00907 0.52418 0.0
H1281 H 0.17437 0.97497 0.43832 0.0
H1282 H 0.2066 0.02562 0.46868 0.0
C1283 C 0.17204 0.98221 0.54442 0.0
C1284 C 0.80602 0.89494 1.01447 0.0
C1285 C 0.79319 0.9105 0.99557 0.0
H1286 H 0.81494 0.85723 1.01434 0.0
C1287 C 0.78275 0.90155 0.95931 0.0
H1288 H 0.81396 0.90087 0.04259 0.0
C1289 C 0.7831 0.87628 0.9434 0.0
C1290 C 0.79414 0.85969 0.96315 0.0
H1291 H 0.77345 0.91343 0.94358 0.0
H1292 H 0.77355 0.86883 0.91618 0.0
C1293 C 0.8067 0.86991 0.99829 0.0
C1294 C 0.16605 0.94707 0.99438 0.0
C1295 C 0.17703 0.94457 0.95981 0.0
H1296 H 0.13522 0.9235 0.03853 0.0
C1297 C 0.16135 0.91649 0.94044 0.0
H1298 H 0.17794 0.96832 1.01014 0.0
C1299 C 0.13636 0.89073 0.95645 0.0
C1300 C 0.12692 0.89246 0.99239 0.0
H1301 H 0.16934 0.914 0.91362 0.0
H1302 H 0.12518 0.86924 0.94114 0.0
C1303 C 0.14146 0.92122 1.01067 0.0
C1304 C 0.14716 0.25674 0.95579 0.0
C1305 C 0.14471 0.24548 0.99183 0.0
H1306 H 0.12473 0.26636 0.91176 0.0
C1307 C 0.11554 0.23113 1.00902 0.0
H1308 H 0.16897 0.26716 0.94122 0.0
C1309 C 0.09 0.22964 0.99154 0.0
C1310 C 0.09313 0.2431 0.95682 0.0
H1311 H 0.11262 0.22255 0.0369 0.0
H1312 H 0.0684 0.22008 1.00652 0.0
C1313 C 0.1217 0.25584 0.93861 0.0
C1314 C 0.98956 0.83327 0.49048 0.0
C1315 C 1.01648 0.84029 0.51046 0.0
H1316 H 0.94059 0.816 0.49109 0.0
C1317 C 1.01333 0.83649 0.54916 0.0
H1318 H 0.99052 0.83543 0.46081 0.0
C1319 C 0.98433 0.82593 0.56695 0.0
C1320 C 0.95727 0.81782 0.54653 0.0
H1321 H 0.03327 0.84137 0.56575 0.0
H1322 H 0.98291 0.82294 0.59651 0.0
C1323 C 0.96065 0.82191 0.50801 0.0
C1324 C 0.21151 0.1437 0.50876 0.0
C1325 C 0.21664 0.1452 0.54713 0.0
H1326 H 0.19656 0.15894 0.46183 0.0
C1327 C 0.20883 0.16439 0.5676 0.0
H1328 H 0.21717 0.12937 0.49179 0.0
C1329 C 0.19756 0.18229 0.54996 0.0
C1330 C 0.19272 0.18086 0.5114 0.0
H1331 H 0.21263 0.16657 0.59703 0.0
H1332 H 0.19301 0.19761 0.56654 0.0
C1333 C 0.19945 0.16071 0.49142 0.0
C1334 C 0.87031 0.05168 0.5681 0.0
C1335 C 0.88885 0.07904 0.548 0.0
H1336 H 0.83754 1.00252 0.56631 0.0
C1337 C 0.88959 0.07601 0.50941 0.0
H1338 H 0.86878 0.05282 0.59771 0.0
C1339 C 0.87248 0.04715 0.49152 0.0
C1340 C 0.853 0.0199 0.51119 0.0
H1341 H 0.90345 0.09629 0.49272 0.0
H1342 H 0.87368 0.04645 0.46181 0.0
C1343 C 0.8523 0.02272 0.54995 0.0
C1344 C 0.92868 0.48893 0.42221 0.0
C1345 C 0.91709 0.50508 0.40257 0.0
H1346 H 0.93921 0.4524 0.42189 0.0
C1347 C 0.90479 0.4949 0.36733 0.0
H1348 H 0.93811 0.4964 0.44948 0.0
C1349 C 0.90615 0.47031 0.35097 0.0
C1350 C 0.91937 0.4551 0.36983 0.0
H1351 H 0.8962 0.50733 0.35136 0.0
H1352 H 0.89836 0.46442 0.3228 0.0
C1353 C 0.92964 0.46404 0.40616 0.0
C1354 C 0.57348 0.44817 0.38427 0.0
C1355 C 0.57546 0.47737 0.38334 0.0
H1356 H 0.54583 0.40004 0.39773 0.0
C1357 C 0.55227 0.48079 0.40085 0.0
H1358 H 0.59139 0.44478 0.37225 0.0
C1359 C 0.52689 0.45541 0.41659 0.0
C1360 C 0.52362 0.42581 0.41458 0.0
H1361 H 0.55255 0.5026 0.40056 0.0
H1362 H 0.50878 0.45871 0.42811 0.0
C1363 C 0.54758 0.42254 0.39929 0.0
C1364 C 0.59345 0.13001 0.36174 0.0
C1365 C 0.56425 0.11531 0.37886 0.0
H1366 H 0.64061 0.14134 0.364 0.0
C1367 C 0.56162 0.10313 0.41439 0.0
H1368 H 0.59649 0.13917 0.33415 0.0
C1369 C 0.58707 0.10378 0.43125 0.0
C1370 C 0.61573 0.11713 0.41315 0.0
H1371 H 0.53974 0.09232 0.42882 0.0
H1372 H 0.58401 0.09272 0.45774 0.0
C1373 C 0.61894 0.13127 0.3789 0.0
C1374 C 0.74853 0.54059 0.85861 0.0
C1375 C 0.75202 0.54484 0.82012 0.0
H1376 H 0.7186 0.52708 0.90576 0.0
C1377 C 0.72503 0.53707 0.79969 0.0
H1378 H 0.76851 0.54625 0.87557 0.0
C1379 C 0.69603 0.52665 0.81745 0.0
C1380 C 0.69277 0.52268 0.85613 0.0
H1381 H 0.72654 0.54021 0.77015 0.0
H1382 H 0.67616 0.52201 0.80084 0.0
C1383 C 0.71961 0.52939 0.8761 0.0
C1384 C 0.50969 0.17906 0.81875 0.0
C1385 C 0.51354 0.17999 0.85748 0.0
H1386 H 0.4961 0.19558 0.7711 0.0
C1387 C 0.50655 0.20009 0.87715 0.0
H1388 H 0.51454 0.16386 0.80236 0.0
C1389 C 0.49521 0.21755 0.85932 0.0
C1390 C 0.49108 0.21657 0.82077 0.0
H1391 H 0.50875 0.20155 0.90682 0.0
H1392 H 0.48936 0.23185 0.87606 0.0
C1393 C 0.49913 0.19739 0.80066 0.0
C1394 C 0.82127 0.28691 0.8615 0.0
C1395 C 0.82086 0.28359 0.82286 0.0
H1396 H 0.83836 0.31686 0.90869 0.0
C1397 C 0.83871 0.31084 0.80226 0.0
H1398 H 0.80794 0.26675 0.87859 0.0
C1399 C 0.85713 0.33997 0.81993 0.0
C1400 C 0.85749 0.34309 0.85872 0.0
H1401 H 0.83933 0.3095 0.77258 0.0
H1402 H 0.87128 0.36009 0.80314 0.0
C1403 C 0.83875 0.31594 0.87894 0.0
C1404 C 0.47449 0.20218 0.32889 0.0
C1405 C 0.46342 0.19263 0.29305 0.0
H1406 H 0.48105 0.2332 0.37287 0.0
C1407 C 0.45514 0.21068 0.27164 0.0
H1408 H 0.48076 0.18845 0.34606 0.0
C1409 C 0.45559 0.23661 0.28681 0.0
C1410 C 0.46405 0.24469 0.3238 0.0
H1411 H 0.44708 0.20393 0.24367 0.0
H1412 H 0.44822 0.24963 0.27001 0.0
C1413 C 0.4746 0.22786 0.34423 0.0
C1414 C 0.80258 0.22123 0.2859 0.0
C1415 C 0.79318 0.22402 0.32149 0.0
H1416 H 0.83582 0.24298 0.24292 0.0
C1417 C 0.8081 0.25318 0.33879 0.0
H1418 H 0.79111 0.19939 0.2713 0.0
C1419 C 0.83305 0.27835 0.32202 0.0
C1420 C 0.84406 0.27479 0.28793 0.0
H1421 H 0.8019 0.2563 0.36634 0.0
H1422 H 0.84511 0.29992 0.33713 0.0
C1423 C 0.82793 0.24633 0.26938 0.0
C1424 C 0.78054 0.58014 0.27493 0.0
C1425 C 0.75358 0.5714 0.29533 0.0
H1426 H 0.82714 0.5891 0.27549 0.0
C1427 C 0.75195 0.56182 0.33187 0.0
H1428 H 0.78205 0.58733 0.24656 0.0
C1429 C 0.77785 0.56352 0.34871 0.0
C1430 C 0.8057 0.57444 0.32912 0.0
H1431 H 0.73156 0.55548 0.34834 0.0
H1432 H 0.77652 0.55806 0.3777 0.0
C1433 C 0.80636 0.58152 0.29162 0.0
C1434 C 0.6793 0.17195 0.88252 0.0
C1435 C 0.68229 0.17529 0.84376 0.0
H1436 H 0.64904 0.15867 0.92998 0.0
C1437 C 0.65519 0.16762 0.82378 0.0
H1438 H 0.69937 0.17732 0.89911 0.0
C1439 C 0.62629 0.1561 0.84139 0.0
C1440 C 0.6231 0.15249 0.87997 0.0
H1441 H 0.65603 0.16938 0.79407 0.0
H1442 H 0.60611 0.14972 0.82448 0.0
C1443 C 0.65031 0.16124 0.90037 0.0
C1444 C 0.86962 0.49794 0.82385 0.0
C1445 C 0.86197 0.5174 0.84384 0.0
H1446 H 0.88744 0.46669 0.82446 0.0
C1447 C 0.86535 0.51777 0.8826 0.0
H1448 H 0.86782 0.49695 0.79413 0.0
C1449 C 0.87604 0.49944 0.90042 0.0
C1450 C 0.88473 0.4809 0.87999 0.0
H1451 H 0.85999 0.53249 0.89922 0.0
H1452 H 0.87863 0.50073 0.93004 0.0
C1453 C 0.88111 0.48052 0.84141 0.0
C1454 C 0.5358 0.3861 0.89888 0.0
C1455 C 0.55513 0.41307 0.87851 0.0
H1456 H 0.50191 0.33722 0.89759 0.0
C1457 C 0.55599 0.40953 0.84003 0.0
H1458 H 0.5341 0.38764 0.92841 0.0
C1459 C 0.53826 0.3806 0.82247 0.0
C1460 C 0.51801 0.35377 0.84237 0.0
H1461 H 0.57041 0.42949 0.82312 0.0
H1462 H 0.53964 0.37955 0.79282 0.0
C1463 C 0.51721 0.35707 0.88105 0.0
C1464 C 0.62088 0.83891 0.74427 0.0
C1465 C 0.59472 0.8425 0.74375 0.0
H1466 H 0.64116 0.8123 0.7276 0.0
C1467 C 0.56683 0.8185 0.7297 0.0
H1468 H 0.64286 0.85704 0.75475 0.0
C1469 C 0.56555 0.79195 0.71499 0.0
C1470 C 0.59236 0.7893 0.71322 0.0
H1471 H 0.54625 0.82055 0.72925 0.0
H1472 H 0.54372 0.77392 0.70419 0.0
C1473 C 0.61983 0.8129 0.72885 0.0
C1474 C 0.21822 0.75654 0.73186 0.0
C1475 C 0.19378 0.75981 0.74542 0.0
H1476 H 0.26257 0.7788 0.70591 0.0
C1477 C 0.19574 0.78885 0.74385 0.0
H1478 H 0.21717 0.73435 0.73279 0.0
C1479 C 0.22104 0.81392 0.72779 0.0
C1480 C 0.24528 0.81073 0.71315 0.0
H1481 H 0.17691 0.79195 0.75338 0.0
H1482 H 0.22068 0.83534 0.72528 0.0
C1483 C 0.244 0.78194 0.71625 0.0
C1484 C 0.26261 0.46832 0.68643 0.0
C1485 C 0.23473 0.45693 0.70609 0.0
H1486 H 0.30878 0.47605 0.68606 0.0
C1487 C 0.23395 0.44866 0.74318 0.0
H1488 H 0.26405 0.47467 0.65775 0.0
C1489 C 0.25961 0.44923 0.75922 0.0
C1490 C 0.28654 0.45839 0.73861 0.0
H1491 H 0.21317 0.44069 0.75942 0.0
H1492 H 0.25799 0.44116 0.78721 0.0
C1493 C 0.28837 0.46925 0.70267 0.0
C1494 C 0.36226 0.86033 0.15139 0.0
C1495 C 0.3591 0.85641 0.19008 0.0
H1496 H 0.39273 0.87412 0.10404 0.0
C1497 C 0.38613 0.86369 0.21001 0.0
H1498 H 0.34226 0.85527 0.13482 0.0
C1499 C 0.41508 0.87529 0.1925 0.0
C1500 C 0.41846 0.87941 0.154 0.0
H1501 H 0.38521 0.86146 0.23968 0.0
H1502 H 0.43516 0.8813 0.20944 0.0
C1503 C 0.39132 0.87114 0.13359 0.0
C1504 C 0.16762 0.52971 0.13501 0.0
C1505 C 0.15778 0.54724 0.15565 0.0
H1506 H 0.18456 0.49736 0.13573 0.0
C1507 C 0.16013 0.54635 0.19434 0.0
H1508 H 0.16609 0.5294 0.1053 0.0
C1509 C 0.17155 0.52877 0.21175 0.0
C1510 C 0.18042 0.51037 0.19146 0.0
H1511 H 0.15295 0.55937 0.21151 0.0
H1512 H 0.17243 0.52883 0.24152 0.0
C1513 C 0.17823 0.51121 0.15262 0.0
C1514 C 0.50578 0.65227 0.20972 0.0
C1515 C 0.52548 0.67929 0.18978 0.0
H1516 H 0.47431 0.60322 0.20904 0.0
C1517 C 0.52602 0.67615 0.15106 0.0
H1518 H 0.50465 0.6532 0.23941 0.0
C1519 C 0.50765 0.64709 0.13321 0.0
C1520 C 0.48888 0.61995 0.15359 0.0
H1521 H 0.54091 0.69616 0.13449 0.0
H1522 H 0.50909 0.64568 0.10362 0.0
C1523 C 0.48832 0.62331 0.19213 0.0
C1524 C 0.13668 0.56128 0.67511 0.0
C1525 C 0.12086 0.57479 0.65837 0.0
H1526 H 0.14774 0.52508 0.67368 0.0
C1527 C 0.10625 0.56303 0.62432 0.0
H1528 H 0.14779 0.5692 0.7016 0.0
C1529 C 0.10572 0.53718 0.60871 0.0
C1530 C 0.1203 0.52294 0.62646 0.0
H1531 H 0.0945 0.57324 0.6101 0.0
H1532 H 0.093 0.52771 0.58337 0.0
C1533 C 0.13667 0.53585 0.65913 0.0
C1534 C 0.49056 0.61104 0.63469 0.0
C1535 C 0.51175 0.60681 0.61386 0.0
H1536 H 0.44931 0.5897 0.66677 0.0
C1537 C 0.50584 0.57662 0.60716 0.0
H1538 H 0.49432 0.63404 0.63988 0.0
C1539 C 0.48121 0.55141 0.62404 0.0
C1540 C 0.46099 0.55553 0.64715 0.0
H1541 H 0.5217 0.57253 0.59113 0.0
H1542 H 0.47952 0.52911 0.62059 0.0
C1543 C 0.46506 0.58554 0.65062 0.0
C1544 C 0.47552 0.91158 0.62208 0.0
C1545 C 0.47448 0.90352 0.6593 0.0
H1546 H 0.45217 0.9197 0.57774 0.0
C1547 C 0.44666 0.89289 0.67884 0.0
H1548 H 0.49626 0.91894 0.60595 0.0
C1549 C 0.42132 0.89268 0.6624 0.0
C1550 C 0.42352 0.9035 0.62634 0.0
H1551 H 0.44503 0.88667 0.7076 0.0
H1552 H 0.40099 0.88651 0.67891 0.0
C1553 C 0.45029 0.91174 0.60582 0.0
C1554 C 0.31934 0.49381 0.23249 0.0
C1555 C 0.29207 0.4855 0.21239 0.0
H1556 H 0.36844 0.50996 0.23077 0.0
C1557 C 0.29527 0.48999 0.17391 0.0
H1558 H 0.31809 0.49051 0.262 0.0
C1559 C 0.32416 0.50191 0.15611 0.0
C1560 C 0.35132 0.50915 0.17574 0.0
H1561 H 0.27506 0.48393 0.15719 0.0
H1562 H 0.32494 0.50433 0.12648 0.0
C1563 C 0.34834 0.50496 0.21442 0.0
C1564 C 0.5487 0.816 0.17396 0.0
C1565 C 0.55229 0.8163 0.21254 0.0
H1566 H 0.5351 0.83227 0.12679 0.0
C1567 C 0.54318 0.83444 0.23309 0.0
H1568 H 0.55532 0.80244 0.15692 0.0
C1569 C 0.53212 0.8525 0.21539 0.0
C1570 C 0.52879 0.85223 0.17664 0.0
H1571 H 0.5457 0.83563 0.26272 0.0
H1572 H 0.52646 0.86695 0.2321 0.0
C1573 C 0.53685 0.83314 0.1565 0.0
C1574 C 0.22248 0.74204 0.17455 0.0
C1575 C 0.22211 0.74541 0.21312 0.0
H1576 H 0.20623 0.71207 0.12731 0.0
C1577 C 0.20376 0.71819 0.23356 0.0
H1578 H 0.23616 0.76218 0.15758 0.0
C1579 C 0.18562 0.68904 0.21578 0.0
C1580 C 0.18599 0.68588 0.17703 0.0
H1581 H 0.20248 0.71957 0.26318 0.0
H1582 H 0.17104 0.66897 0.23242 0.0
C1583 C 0.20526 0.713 0.15702 0.0
C1584 C 0.38704 0.22148 0.14972 0.0
C1585 C 0.38927 0.23906 0.18106 0.0
H1586 H 0.37974 0.17814 0.12936 0.0
C1587 C 0.39331 0.22939 0.21567 0.0
H1588 H 0.38359 0.22835 0.12268 0.0
C1589 C 0.39038 0.20037 0.21953 0.0
C1590 C 0.38389 0.18091 0.18877 0.0
H1591 H 0.39507 0.24263 0.24012 0.0
H1592 H 0.39149 0.19253 0.24694 0.0
C1593 C 0.38419 0.19243 0.15358 0.0
C1594 C 0.8632 0.14613 0.17807 0.0
C1595 C 0.8394 0.14086 0.20276 0.0
H1596 H 0.90917 0.17805 0.16022 0.0
C1597 C 0.84617 0.15864 0.23473 0.0
H1598 H 0.85836 0.13181 0.15384 0.0
C1599 C 0.87565 0.18424 0.23922 0.0
C1600 C 0.89798 0.19225 0.21139 0.0
H1601 H 0.8281 0.15458 0.25421 0.0
H1602 H 0.87964 0.19999 0.26184 0.0
C1603 C 0.89235 0.17203 0.18205 0.0
C1604 C 0.8349 0.64933 0.15227 0.0
C1605 C 0.82386 0.6492 0.18774 0.0
H1606 H 0.87135 0.65042 0.12059 0.0
C1607 C 0.83682 0.64206 0.21791 0.0
H1608 H 0.82508 0.65428 0.12846 0.0
C1609 C 0.86283 0.63913 0.21334 0.0
C1610 C 0.8765 0.64384 0.17861 0.0
H1611 H 0.82808 0.64071 0.24549 0.0
H1612 H 0.87443 0.6371 0.23747 0.0
C1613 C 0.86104 0.64646 0.1477 0.0
C1614 C 0.20036 0.3753 0.35689 0.0
C1615 C 0.19394 0.36786 0.31897 0.0
H1616 H 0.20164 0.36005 0.41218 0.0
C1617 C 0.18304 0.33666 0.30937 0.0
H1618 H 0.20855 0.39877 0.36612 0.0
C1619 C 0.17884 0.31416 0.33629 0.0
C1620 C 0.1852 0.32162 0.37422 0.0
H1621 H 0.17745 0.32945 0.28097 0.0
H1622 H 0.17053 0.29065 0.32714 0.0
C1623 C 0.19617 0.35283 0.38376 0.0
C1624 C 0.6584 0.82977 0.35952 0.0
C1625 C 0.66673 0.83183 0.32179 0.0
H1626 H 0.67237 0.84498 0.41559 0.0
C1627 C 0.69805 0.85236 0.3134 0.0
H1628 H 0.63475 0.81423 0.36779 0.0
C1629 C 0.71985 0.86995 0.34126 0.0
C1630 C 0.71154 0.86789 0.37899 0.0
H1631 H 0.70588 0.85476 0.2852 0.0
H1632 H 0.74351 0.88547 0.33298 0.0
C1633 C 0.6802 0.84738 0.38738 0.0
C1634 C 0.209 0.83713 0.36166 0.0
C1635 C 0.20662 0.84335 0.32399 0.0
H1636 H 0.19371 0.83521 0.41784 0.0
C1637 C 0.18539 0.85331 0.31587 0.0
H1638 H 0.22506 0.82961 0.36974 0.0
C1639 C 0.16745 0.85676 0.34389 0.0
C1640 C 0.16979 0.85053 0.38157 0.0
H1641 H 0.18268 0.85866 0.28775 0.0
H1642 H 0.15144 0.86431 0.33575 0.0
C1643 C 0.19101 0.84055 0.38971 0.0
C1644 C 0.67901 0.85136 0.8921 0.0
C1645 C 0.70295 0.84665 0.87985 0.0
H1646 H 0.66183 0.88262 0.89529 0.0
C1647 C 0.73102 0.87224 0.86847 0.0
H1648 H 0.65721 0.83222 0.90136 0.0
C1649 C 0.73407 0.90142 0.86607 0.0
C1650 C 0.70875 0.90525 0.87395 0.0
H1651 H 0.75032 0.86956 0.85994 0.0
H1652 H 0.75499 0.92019 0.85433 0.0
C1653 C 0.68194 0.8805 0.88933 0.0
C1654 C 0.18525 0.82607 0.90368 0.0
C1655 C 0.17842 0.81026 0.87014 0.0
H1656 H 0.21766 0.86687 0.93263 0.0
C1657 C 0.20178 0.81866 0.84366 0.0
H1658 H 0.1676 0.8196 0.92456 0.0
C1659 C 0.23015 0.84548 0.84806 0.0
C1660 C 0.23549 0.86369 0.8794 0.0
H1661 H 0.19706 0.80595 0.8181 0.0
H1662 H 0.24638 0.85375 0.82537 0.0
C1663 C 0.21395 0.85273 0.90841 0.0
C1664 C 0.18041 0.38205 0.8823 0.0
C1665 C 0.16457 0.38349 0.85108 0.0
H1666 H 0.21673 0.3752 0.90237 0.0
C1667 C 0.17804 0.38749 0.81634 0.0
H1668 H 0.17022 0.37868 0.90943 0.0
C1669 C 0.2043 0.38493 0.81225 0.0
C1670 C 0.21756 0.37873 0.8429 0.0
H1671 H 0.16613 0.3886 0.79198 0.0
H1672 H 0.21303 0.38585 0.78475 0.0
C1673 C 0.20668 0.37939 0.87822 0.0
C1674 C 0.84864 0.67233 0.64652 0.0
C1675 C 0.85894 0.70356 0.65514 0.0
H1676 H 0.83717 0.62703 0.66573 0.0
C1677 C 0.8652 0.71183 0.69291 0.0
H1678 H 0.84324 0.66452 0.61828 0.0
C1679 C 0.86148 0.6901 0.72059 0.0
C1680 C 0.85118 0.65888 0.71197 0.0
H1681 H 0.87296 0.7354 0.70139 0.0
H1682 H 0.86686 0.69792 0.74883 0.0
C1683 C 0.84493 0.65061 0.67419 0.0
C1684 C 0.32378 0.16052 0.69274 0.0
C1685 C 0.33222 0.16287 0.65501 0.0
H1686 H 0.33737 0.17586 0.74885 0.0
C1687 C 0.36337 0.1841 0.64668 0.0
H1688 H 0.30024 0.14446 0.70097 0.0
C1689 C 0.38488 0.20207 0.67461 0.0
C1690 C 0.37644 0.19973 0.71233 0.0
H1691 H 0.37129 0.18676 0.61849 0.0
H1692 H 0.40842 0.21812 0.66637 0.0
C1693 C 0.34529 0.17852 0.72066 0.0
C1694 C 0.87344 0.1698 0.69501 0.0
C1695 C 0.87196 0.17674 0.65738 0.0
H1696 H 0.85727 0.1674 0.75083 0.0
C1697 C 0.85138 0.18746 0.64895 0.0
H1698 H 0.88897 0.16169 0.70333 0.0
C1699 C 0.83323 0.19098 0.67664 0.0
C1700 C 0.83471 0.18406 0.71428 0.0
H1701 H 0.84936 0.19338 0.62084 0.0
H1702 H 0.81776 0.19915 0.66829 0.0
C1703 C 0.85525 0.17328 0.72271 0.0
C1704 C 0.03159 0.51548 0.47504 0.0
C1705 C 1.00822 0.52097 0.48754 0.0
H1706 H 0.04785 0.48347 0.4722 0.0
C1707 C 0.98013 0.49597 0.49993 0.0
H1708 H 0.05333 0.53418 0.46495 0.0
C1709 C 0.97657 0.46663 0.50301 0.0
C1710 C 1.00138 0.46206 0.49474 0.0
H1711 H 0.96123 0.49928 0.50852 0.0
H1712 H 0.95571 0.44834 0.51548 0.0
C1713 C 0.02813 0.48618 0.47845 0.0
C1714 C 0.52786 0.52564 0.4792 0.0
C1715 C 0.54096 0.53729 0.51373 0.0
H1716 H 0.48884 0.49187 0.4495 0.0
C1717 C 0.52334 0.52384 0.54562 0.0
H1718 H 0.54088 0.53561 0.45421 0.0
C1719 C 0.49318 0.49924 0.54302 0.0
C1720 C 0.48018 0.48728 0.50849 0.0
H1721 H 0.53255 0.53278 0.57268 0.0
H1722 H 0.48023 0.48927 0.56805 0.0
C1723 C 0.49778 0.50094 0.47659 0.0
C1724 C 0.53414 0.97263 0.55203 0.0
C1725 C 0.54773 0.97616 0.51742 0.0
H1726 H 0.49902 0.97469 0.5829 0.0
C1727 C 0.53162 0.97648 0.48585 0.0
H1728 H 0.54614 0.9722 0.57666 0.0
C1729 C 0.50516 0.97889 0.48934 0.0
C1730 C 0.49429 0.98035 0.5244 0.0
H1731 H 0.54175 0.97933 0.45876 0.0
H1732 H 0.49504 0.98241 0.46479 0.0
C1733 C 0.50771 0.975 0.55553 0.0
C1734 C 0.51076 0.9855 1.00822 0.0
C1735 C 0.51735 0.99381 0.04595 0.0
H1736 H 0.50873 0.99937 0.9524 0.0
C1737 C 0.52786 0.02508 0.05457 0.0
H1738 H 0.50282 0.9619 0.99974 0.0
C1739 C 0.53145 0.04681 0.02694 0.0
C1740 C 0.52487 0.03849 0.98921 0.0
H1741 H 0.5335 0.03293 0.08277 0.0
H1742 H 0.53938 0.07042 0.0354 0.0
C1743 C 0.51437 1.00722 0.9806 0.0
C1744 C 0.99116 0.49535 0.0263 0.0
C1745 C 0.99937 0.4969 0.98859 0.0
H1746 H 1.00537 0.51101 0.08217 0.0
C1747 C 0.03076 0.51698 0.98003 0.0
H1748 H 0.96746 0.48017 0.03471 0.0
C1749 C 0.05273 0.53466 1.00772 0.0
C1750 C 0.04451 0.53309 0.04543 0.0
H1751 H 0.03852 0.51897 0.95184 0.0
H1752 H 0.07643 0.54985 0.99933 0.0
C1753 C 1.01312 0.51301 0.05398 0.0
C1754 C 0.50167 0.52727 1.00601 0.0
C1755 C 0.50413 0.52129 0.04375 0.0
H1756 H 0.5165 0.52841 0.94979 0.0
C1757 C 0.52504 0.51094 0.05195 0.0
H1758 H 0.48584 0.53504 0.99785 0.0
C1759 C 0.54262 0.50692 0.02393 0.0
C1760 C 0.54016 0.51288 0.98619 0.0
H1761 H 0.52777 0.50574 0.08013 0.0
H1762 H 0.55844 0.49914 0.03211 0.0
C1763 C 0.51924 0.52322 0.97797 0.0
C1764 C 0.3211 0.27087 0.97163 0.0
C1765 C 0.32807 0.26708 1.00798 0.0
H1766 H 0.33063 0.26958 0.91446 0.0
C1767 C 0.35024 0.25801 1.01406 0.0
H1768 H 0.30412 0.27777 0.96601 0.0
C1769 C 0.36482 0.2525 0.98465 0.0
C1770 C 0.35802 0.25629 0.94819 0.0
H1771 H 0.35595 0.25443 0.04168 0.0
H1772 H 0.38111 0.24479 0.99063 0.0
C1773 C 0.33607 0.26575 0.94208 0.0
C1774 C 0.78139 0.0695 0.98082 0.0
C1775 C 0.76047 0.06605 1.00876 0.0
H1776 H 0.80531 0.09329 0.93235 0.0
C1777 C 0.74585 0.0838 1.00707 0.0
H1778 H 0.79374 0.05681 0.98177 0.0
C1779 C 0.7519 0.1044 0.97786 0.0
C1780 C 0.77338 0.10836 0.95015 0.0
H1781 H 0.72984 0.08187 0.0284 0.0
H1782 H 0.73951 0.11701 0.97702 0.0
C1783 C 0.78806 0.09059 0.9523 0.0
C1784 C 0.94434 0.70963 0.94891 0.0
C1785 C 0.92626 0.6771 0.94731 0.0
H1786 H 0.979 0.74934 0.97776 0.0
C1787 C 0.93057 0.6598 0.97494 0.0
H1788 H 0.94143 0.72403 0.92899 0.0
C1789 C 0.95165 0.67457 1.00362 0.0
C1790 C 0.96969 0.70693 1.00475 0.0
H1791 H 0.91787 0.63478 0.97449 0.0
H1792 H 0.95378 0.66068 0.02503 0.0
C1793 C 0.96607 0.72429 0.97693 0.0
C1794 C 0.28259 0.37644 0.60886 0.0
C1795 C 0.2631 0.34406 0.60889 0.0
H1796 H 0.31699 0.4165 0.63742 0.0
C1797 C 0.26487 0.32728 0.63906 0.0
H1798 H 0.28172 0.39043 0.5867 0.0
C1799 C 0.28475 0.34246 0.66863 0.0
C1800 C 0.30396 0.37475 0.66848 0.0
H1801 H 0.251 0.30232 0.63992 0.0
H1802 H 0.28494 0.32892 0.69178 0.0
C1803 C 0.30295 0.39151 0.63804 0.0
C1804 C 0.64607 0.92011 0.64167 0.0
C1805 C 0.6632 0.94223 0.66876 0.0
H1806 H 0.64672 0.89474 0.59484 0.0
C1807 C 0.69561 0.9577 0.667 0.0
H1808 H 0.62104 0.90715 0.64276 0.0
C1809 C 0.71055 0.95109 0.63878 0.0
C1810 C 0.69343 0.92824 0.61216 0.0
H1811 H 0.70943 0.97466 0.68771 0.0
H1812 H 0.73555 0.96404 0.63791 0.0
C1813 C 0.66093 0.91292 0.61409 0.0
C1814 C 0.10807 0.78633 0.65597 0.0
C1815 C 0.10645 0.77613 0.61948 0.0
H1816 H 0.10368 0.77503 0.71315 0.0
C1817 C 0.0971 0.7447 0.61356 0.0
H1818 H 0.11553 0.81029 0.66199 0.0
C1819 C 0.09082 0.7245 0.64319 0.0
C1820 C 0.09301 0.73497 0.67952 0.0
H1821 H 0.09462 0.73554 0.58599 0.0
H1822 H 0.0847 0.70078 0.63765 0.0
C1823 C 0.10116 0.76598 0.6855 0.0
C1824 C 0.66849 0.7503 0.06233 0.0
C1825 C 0.68568 0.77301 0.08905 0.0
H1826 H 0.66953 0.72694 1.01322 0.0
C1827 C 0.71821 0.788 0.08738 0.0
H1828 H 0.64348 0.73753 0.063 0.0
C1829 C 0.733 0.78063 0.05987 0.0
C1830 C 0.71573 0.75876 0.0327 0.0
H1831 H 0.73247 0.80607 0.10671 0.0
H1832 H 0.75804 0.79337 0.0587 0.0
C1833 C 0.68336 0.74364 0.03417 0.0
C1834 C 0.29069 0.94844 0.03517 0.0
C1835 C 0.27577 0.9659 0.03449 0.0
H1836 H 0.29731 0.91476 0.06331 0.0
C1837 C 0.2546 0.96159 0.06238 0.0
H1838 H 0.30688 0.95112 1.01368 0.0
C1839 C 0.24779 0.93956 0.0899 0.0
C1840 C 0.26265 0.92185 0.09083 0.0
H1841 H 0.24206 0.9741 0.06185 0.0
H1842 H 0.23027 0.93601 0.10988 0.0
C1843 C 0.28461 0.92706 0.06329 0.0
C1844 C 0.10286 0.32005 0.08241 0.0
C1845 C 0.12014 0.35258 0.0846 0.0
H1846 H 0.06854 0.2803 0.05342 0.0
C1847 C 0.11519 0.36988 0.05756 0.0
H1848 H 0.10639 0.30571 0.10182 0.0
C1849 C 0.09399 0.35508 0.02901 0.0
C1850 C 0.07652 0.32271 0.02755 0.0
H1851 H 0.12737 0.39489 0.05851 0.0
H1852 H 0.09117 0.36894 1.00814 0.0
C1853 C 0.08101 0.30535 0.05461 0.0
C1854 C 0.76486 0.65289 0.41832 0.0
C1855 C 0.78249 0.68543 0.42019 0.0
H1856 H 0.7306 0.61307 0.3893 0.0
C1857 C 0.77774 0.70264 0.39283 0.0
H1858 H 0.76812 0.63858 0.43805 0.0
C1859 C 0.75665 0.68778 0.36416 0.0
C1860 C 0.73907 0.65538 0.36273 0.0
H1861 H 0.79011 0.72766 0.39351 0.0
H1862 H 0.75414 0.70164 0.34302 0.0
C1863 C 0.74317 0.63812 0.39029 0.0
C1864 C 0.33367 0.08322 0.39252 0.0
C1865 C 0.35075 0.10547 0.41978 0.0
H1866 H 0.33491 0.0605 0.34285 0.0
C1867 C 0.38329 0.1207 0.41794 0.0
H1868 H 0.30867 0.07031 0.39316 0.0
C1869 C 0.39818 0.11378 0.39011 0.0
C1870 C 0.38104 0.09214 0.36265 0.0
H1871 H 0.39752 0.13853 0.43753 0.0
H1872 H 0.42322 0.12652 0.38911 0.0
C1873 C 0.34865 0.07703 0.36398 0.0
C1874 C 0.94032 0.2834 0.42779 0.0
C1875 C 0.93013 0.25177 0.42189 0.0
H1876 H 0.95296 0.32738 0.40353 0.0
C1877 C 0.92603 0.24085 0.38554 0.0
H1878 H 0.94444 0.2929 0.45535 0.0
C1879 C 0.93183 0.2608 0.356 0.0
C1880 C 0.94144 0.29222 0.36188 0.0
H1881 H 0.91776 0.21668 0.37972 0.0
H1882 H 0.92787 0.25123 0.32845 0.0
C1883 C 0.94566 0.30334 0.39811 0.0
C1884 C 0.99121 0.57782 0.27724 0.0
C1885 C 0.02378 0.59319 0.27603 0.0
H1886 H 0.95085 0.57163 0.30545 0.0
C1887 C 0.04046 0.616 0.30283 0.0
H1888 H 0.97734 0.55973 0.25774 0.0
C1889 C 0.02508 0.6223 0.33072 0.0
C1890 C 0.99266 0.60663 0.33196 0.0
H1891 H 0.06546 0.62907 0.30248 0.0
H1892 H 0.03858 0.63907 0.35177 0.0
C1893 C 0.97588 0.58475 0.30456 0.0
C1894 C 0.45005 0.4023 0.30722 0.0
C1895 C 0.42781 0.39743 0.33402 0.0
H1896 H 0.47586 0.42828 0.26069 0.0
C1897 C 0.41279 0.41481 0.33217 0.0
H1898 H 0.46267 0.3899 0.30839 0.0
C1899 C 0.41982 0.43652 0.30405 0.0
C1900 C 0.44269 0.44203 0.27758 0.0
H1901 H 0.39575 0.41178 0.35265 0.0
H1902 H 0.40711 0.4488 0.30308 0.0
C1903 C 0.45766 0.42451 0.27974 0.0
C1904 C 0.61731 1.008 0.33905 0.0
C1905 C 0.63584 0.04033 0.34002 0.0
H1906 H 0.58336 0.96835 0.30979 0.0
C1907 C 0.63277 0.05777 0.31183 0.0
H1908 H 0.61899 0.99403 0.36069 0.0
C1909 C 0.61124 0.04328 0.28359 0.0
C1910 C 0.59276 1.01078 0.28202 0.0
H1911 H 0.64609 0.08282 0.31246 0.0
H1912 H 0.60884 0.05782 0.2634 0.0
C1913 C 0.5964 0.99337 0.31011 0.0
C1914 C 0.42627 0.02135 0.69585 0.0
C1915 C 0.40885 0.98894 0.69469 0.0
H1916 H 0.45887 0.06149 0.72551 0.0
C1917 C 0.41238 0.97192 0.72304 0.0
H1918 H 0.42418 0.03501 0.67413 0.0
C1919 C 0.43334 0.98695 0.75164 0.0
C1920 C 0.45075 0.01951 0.75327 0.0
H1921 H 0.39989 0.94686 0.7223 0.0
H1922 H 0.43619 0.97284 0.77206 0.0
C1923 C 0.44663 0.03647 0.72506 0.0
C1924 C 1.01455 0.40677 0.70137 0.0
C1925 C 0.04694 0.42229 0.69953 0.0
H1926 H 0.97468 0.40035 0.73058 0.0
C1927 C 0.06418 0.44448 0.72645 0.0
H1928 H 1.00072 0.38978 0.68069 0.0
C1929 C 0.04937 0.45172 0.75403 0.0
C1930 C 1.01686 0.43634 0.75607 0.0
H1931 H 0.0892 0.45749 0.72513 0.0
H1932 H 0.0636 0.46999 0.77318 0.0
C1933 C 0.99968 0.41338 0.7296 0.0
C1934 C 0.61249 0.63582 0.72462 0.0
C1935 C 0.60959 0.62521 0.68827 0.0
H1936 H 0.61002 0.62502 0.78178 0.0
C1937 C 0.60119 0.59415 0.68213 0.0
H1938 H 0.61888 0.65961 0.73025 0.0
C1939 C 0.59506 0.57396 0.71163 0.0
C1940 C 0.59763 0.58438 0.74815 0.0
H1941 H 0.59821 0.58506 0.65442 0.0
H1942 H 0.58763 0.55 0.70566 0.0
C1943 C 0.60689 0.61576 0.75418 0.0
C1944 C 0.22454 0.2392 0.2673 0.0
C1945 C 0.19205 0.2233 0.26755 0.0
H1946 H 0.26602 0.26312 0.23608 0.0
C1947 C 0.17649 0.22122 0.23437 0.0
H1948 H 0.23746 0.24233 0.29242 0.0
C1949 C 0.19315 0.23358 0.2015 0.0
C1950 C 0.22568 0.24856 0.20133 0.0
H1951 H 0.15148 0.20945 0.23365 0.0
H1952 H 0.18057 0.23064 0.17615 0.0
C1953 C 0.24102 0.25159 0.23486 0.0
C1954 C 0.82023 0.02071 0.2218 0.0
C1955 C 0.8043 0.99714 0.19562 0.0
H1956 H 0.84218 0.03294 0.27465 0.0
C1957 C 0.8031 0.96865 0.20062 0.0
H1958 H 0.82218 0.04318 0.21849 0.0
C1959 C 0.81494 0.96296 0.23288 0.0
C1960 C 0.82885 0.98587 0.26027 0.0
H1961 H 0.79133 0.95016 0.18078 0.0
H1962 H 0.81083 0.93982 0.23789 0.0
C1963 C 0.83251 0.01519 0.25359 0.0
C1964 C 1.01983 0.80888 0.22005 0.0
C1965 C 0.04368 0.81511 0.19489 0.0
H1966 H 1.00743 0.81945 0.27227 0.0
C1967 C 0.07306 0.84094 0.20114 0.0
H1968 H 0.99671 0.78958 0.21564 0.0
C1969 C 0.07909 0.85823 0.23375 0.0
C1970 C 0.05563 0.85054 0.26006 0.0
H1971 H 0.09178 0.84655 0.18206 0.0
H1972 H 0.10263 0.87597 0.23983 0.0
C1973 C 0.02568 0.82651 0.25206 0.0
C1974 C 0.86555 0.80708 0.80209 0.0
C1975 C 0.85684 0.82106 0.77458 0.0
H1976 H 0.85486 0.78443 0.85472 0.0
C1977 C 0.83175 0.8256 0.78133 0.0
H1978 H 0.88414 0.80231 0.79703 0.0
C1979 C 0.81427 0.81429 0.81351 0.0
C1980 C 0.82164 0.7984 0.83997 0.0
H1981 H 0.8239 0.83535 0.76018 0.0
H1982 H 0.79423 0.81702 0.817 0.0
C1983 C 0.84834 0.79619 0.83471 0.0
C1984 C 0.22424 1.01169 0.81584 0.0
C1985 C 0.24126 0.03572 0.84114 0.0
H1986 H 0.20195 0.99884 0.76322 0.0
C1987 C 0.24442 0.06489 0.83457 0.0
H1988 H 0.22073 0.98872 0.82044 0.0
C1989 C 0.23337 0.07056 0.80162 0.0
C1990 C 0.21818 0.04694 0.77525 0.0
H1991 H 0.25708 0.08375 0.85372 0.0
H1992 H 0.23887 0.09398 0.7954 0.0
C1993 C 0.21268 0.01719 0.78346 0.0
C1994 C 0.96159 0.16802 0.80361 0.0
C1995 C 0.98525 0.17453 0.77798 0.0
H1996 H 0.94889 0.18136 0.85413 0.0
C1997 C 1.0155 0.19759 0.78645 0.0
H1998 H 0.93786 0.151 0.79713 0.0
C1999 C 1.0215 0.2158 0.81796 0.0
C2000 C 0.99748 0.21103 0.84211 0.0
H2001 H 0.03396 0.2037 0.76678 0.0
H2002 H 0.0449 0.23448 0.82264 0.0
C2003 C 0.96773 0.18588 0.83572 0.0
C2004 C 0.87985 0.53855 0.58599 0.0
C2005 C 0.85434 0.54236 0.593 0.0
H2006 H 0.91728 0.5477 0.54984 0.0
C2007 C 0.84495 0.5558 0.56557 0.0
H2008 H 0.88824 0.52926 0.60708 0.0
C2009 C 0.86179 0.56676 0.5327 0.0
C2010 C 0.88881 0.56516 0.52707 0.0
H2011 H 0.82604 0.56005 0.57081 0.0
H2012 H 0.85468 0.57804 0.51272 0.0
C2013 C 0.89695 0.54991 0.55354 0.0
C2014 C 0.46319 0.29838 0.53104 0.0
C2015 C 0.46359 0.32643 0.52528 0.0
H2016 H 0.47153 0.27052 0.56933 0.0
C2017 C 0.47836 0.35014 0.5516 0.0
H2018 H 0.4523 0.27979 0.51116 0.0
C2019 C 0.49054 0.34531 0.58393 0.0
C2020 C 0.48798 0.31652 0.59112 0.0
H2021 H 0.47968 0.37229 0.54777 0.0
H2022 H 0.49955 0.36323 0.60481 0.0
C2023 C 0.47485 0.29332 0.56393 0.0
C2024 C 0.68774 0.1458 0.55199 0.0
C2025 C 0.71186 0.15147 0.52751 0.0
H2026 H 0.67485 0.15706 0.60345 0.0
C2027 C 0.74127 0.17717 0.53394 0.0
H2028 H 0.66459 0.12662 0.54737 0.0
C2029 C 0.74705 0.1948 0.56624 0.0
C2030 C 0.72332 0.18758 0.59203 0.0
H2031 H 0.7602 0.18236 0.51536 0.0
H2032 H 0.7706 0.21235 0.57262 0.0
C2033 C 0.69335 0.16378 0.58365 0.0
C2034 C 0.51792 0.12643 0.16831 0.0
C2035 C 0.49289 0.13104 0.17551 0.0
H2036 H 0.55195 0.13105 0.12873 0.0
C2037 C 0.4874 0.14979 0.15132 0.0
H2038 H 0.52294 0.1124 0.18659 0.0
C2039 C 0.5048 0.16152 0.11919 0.0
C2040 C 0.52785 0.15446 0.11012 0.0
H2041 H 0.46871 0.15439 0.15644 0.0
H2042 H 0.49814 0.1735 0.09964 0.0
C2043 C 0.53499 0.13771 0.13562 0.0
C2044 C 0.91017 0.39447 0.16737 0.0
C2045 C 0.90891 0.36586 0.17107 0.0
H2046 H 0.90208 0.42401 0.13173 0.0
C2047 C 0.89247 0.34273 0.14458 0.0
H2048 H 0.9222 0.41256 0.18761 0.0
C2049 C 0.87969 0.34878 0.11369 0.0
C2050 C 0.88346 0.37826 0.10816 0.0
H2051 H 0.89031 0.32011 0.14708 0.0
H2052 H 0.86956 0.33135 0.09232 0.0
C2053 C 0.89792 0.40075 0.13591 0.0
C2054 C 0.63331 0.52074 0.16624 0.0
C2055 C 0.66342 0.54448 0.17452 0.0
H2056 H 0.60348 0.48826 0.12543 0.0
C2057 C 0.68764 0.5492 0.15068 0.0
H2058 H 0.61423 0.51636 0.18416 0.0
C2059 C 0.68167 0.53233 0.11798 0.0
C2060 C 0.6513 0.51055 0.10803 0.0
H2061 H 0.71125 0.56691 0.15655 0.0
H2062 H 0.70048 0.53838 0.09885 0.0
C2063 C 0.62725 0.50422 0.13301 0.0
C2064 C 0.52855 0.90008 0.86576 0.0
C2065 C 0.55649 0.90007 0.86096 0.0
H2066 H 0.49185 0.89202 0.90304 0.0
C2067 C 0.56555 0.88621 0.88824 0.0
H2068 H 0.52073 0.91027 0.84516 0.0
C2069 C 0.54835 0.87467 0.92059 0.0
C2070 C 0.5218 0.87692 0.92671 0.0
H2071 H 0.58664 0.88527 0.88524 0.0
H2072 H 0.55735 0.86651 0.94228 0.0
C2073 C 0.51159 0.88896 0.89852 0.0
C2074 C 0.1683 0.67876 0.9183 0.0
C2075 C 0.16243 0.64874 0.92568 0.0
H2076 H 0.16013 0.70799 0.8827 0.0
C2077 C 0.14702 0.62564 0.89878 0.0
H2078 H 0.17921 0.69675 0.93893 0.0
C2079 C 0.13582 0.63196 0.86638 0.0
C2080 C 0.13913 0.66131 0.86085 0.0
H2081 H 0.14126 0.60204 0.90432 0.0
H2082 H 0.12274 0.61339 0.84703 0.0
C2083 C 0.15661 0.68492 0.88645 0.0
C2084 C 0.41285 0.52859 0.89731 0.0
C2085 C 0.38934 0.52136 0.92342 0.0
H2086 H 0.42546 0.51666 0.84575 0.0
C2087 C 0.35921 0.49789 0.91507 0.0
H2088 H 0.43652 0.54587 0.90364 0.0
C2089 C 0.35314 0.48041 0.88284 0.0
C2090 C 0.37701 0.48615 0.85786 0.0
H2091 H 0.34088 0.49113 0.93511 0.0
H2092 H 0.32984 0.46153 0.87821 0.0
C2093 C 0.40667 0.5114 0.86459 0.0
C2094 C 0.17989 0.46146 0.50168 0.0
C2095 C 0.15234 0.46225 0.50624 0.0
H2096 H 0.21646 0.46859 0.4647 0.0
C2097 C 0.14381 0.47637 0.47869 0.0
H2098 H 0.18731 0.45105 0.52247 0.0
C2099 C 0.16116 0.48746 0.44636 0.0
C2100 C 0.18734 0.48453 0.44057 0.0
H2101 H 0.12302 0.47789 0.48149 0.0
H2102 H 0.15257 0.4959 0.42452 0.0
C2103 C 0.197 0.47215 0.46897 0.0
C2104 C 0.54374 0.68794 0.44934 0.0
C2105 C 0.55058 0.71815 0.4413 0.0
H2106 H 0.55157 0.6586 0.48508 0.0
C2107 C 0.56736 0.74169 0.46731 0.0
H2108 H 0.53169 0.66959 0.42939 0.0
C2109 C 0.57903 0.7355 0.49939 0.0
C2110 C 0.57482 0.70586 0.50533 0.0
H2111 H 0.57381 0.7654 0.46118 0.0
H2112 H 0.59309 0.75427 0.51809 0.0
C2113 C 0.55594 0.68192 0.48078 0.0
C2114 C 0.35802 0.88219 0.48276 0.0
C2115 C 0.33401 0.87715 0.50714 0.0
H2116 H 0.37038 0.87091 0.43094 0.0
C2117 C 0.30417 0.85232 0.50021 0.0
H2118 H 0.38146 0.90069 0.48767 0.0
C2119 C 0.29797 0.83501 0.46761 0.0
C2120 C 0.32162 0.84176 0.44189 0.0
H2121 H 0.2853 0.8476 0.51867 0.0
H2122 H 0.27421 0.81821 0.46094 0.0
C2123 C 0.35192 0.86457 0.45067 0.0
C2124 C 0.35005 0.37704 0.13199 0.0
C2125 C 0.32577 0.36411 0.10632 0.0
H2126 H 0.39091 0.41675 0.15072 0.0
C2127 C 0.32398 0.38348 0.07956 0.0
H2128 H 0.35218 0.36294 0.15314 0.0
C2129 C 0.3467 0.41506 0.07813 0.0
C2130 C 0.37151 0.42751 0.10331 0.0
H2131 H 0.30571 0.37409 0.05916 0.0
H2132 H 0.34501 0.42959 0.05726 0.0
C2133 C 0.37258 0.40806 0.13039 0.0
C2134 C 0.62801 0.96475 0.14007 0.0
C2135 C 0.61063 0.95143 0.10801 0.0
H2136 H 0.67143 0.98311 0.16729 0.0
C2137 C 0.62441 0.94393 0.07896 0.0
H2138 H 0.61802 0.97004 0.16348 0.0
C2139 C 0.65562 0.95158 0.08122 0.0
C2140 C 0.67325 0.96638 0.11278 0.0
H2141 H 0.61141 0.93312 0.05417 0.0
H2142 H 0.66633 0.94746 0.05764 0.0
C2143 C 0.65865 0.97185 0.14251 0.0
C2144 C 0.08709 0.71318 0.07911 0.0
C2145 C 0.06835 0.7134 0.10792 0.0
H2146 H 0.10985 0.69028 0.05515 0.0
C2147 C 0.05951 0.69112 0.13581 0.0
H2148 H 0.09396 0.72981 0.05696 0.0
C2149 C 0.06773 0.66835 0.13428 0.0
C2150 C 0.08548 0.66717 0.10501 0.0
H2151 H 0.04519 0.69057 0.15852 0.0
H2152 H 0.05993 0.6515 0.15629 0.0
C2153 C 0.09574 0.69028 0.07777 0.0
C2154 C 0.31948 0.28058 0.40052 0.0
C2155 C 0.33641 0.29141 0.43352 0.0
H2156 H 0.27544 0.26456 0.37364 0.0
C2157 C 0.3208 0.29117 0.46565 0.0
H2158 H 0.33109 0.28099 0.37518 0.0
C2159 C 0.28977 0.28279 0.46457 0.0
C2160 C 0.27311 0.27406 0.43135 0.0
H2161 H 0.33314 0.29932 0.49148 0.0
H2162 H 0.279 0.28396 0.48995 0.0
C2163 C 0.28784 0.2717 0.3995 0.0
C2164 C 0.7627 0.02459 0.41155 0.0
C2165 C 0.75294 1.00205 0.43943 0.0
H2166 H 0.76071 0.06383 0.39011 0.0
C2167 C 0.73615 1.00408 0.46924 0.0
H2168 H 0.77609 0.02393 0.38851 0.0
C2169 C 0.72827 0.0271 0.47065 0.0
C2170 C 0.73649 0.04873 0.44209 0.0
H2171 H 0.72883 0.9877 0.49173 0.0
H2172 H 0.71462 0.0272 0.49376 0.0
C2173 C 0.75437 0.04772 0.41277 0.0
C2174 C 0.03366 0.73781 0.47099 0.0
C2175 C 0.03531 0.7569 0.44172 0.0
H2176 H 1.01081 0.69285 0.49477 0.0
C2177 C 1.01237 0.74436 0.41419 0.0
H2178 H 0.05037 0.7467 0.4932 0.0
C2179 C 0.98923 0.71291 0.41516 0.0
C2180 C 0.98857 0.69371 0.44387 0.0
H2181 H 1.01272 0.75861 0.39157 0.0
H2182 H 0.97282 0.70339 0.39271 0.0
C2183 C 1.01062 0.70686 0.47214 0.0
C2184 C 0.69705 0.61916 0.95048 0.0
C2185 C 0.67269 0.60645 0.92472 0.0
H2186 H 0.73736 0.66031 0.9702 0.0
C2187 C 0.67209 0.62575 0.89703 0.0
H2188 H 0.69843 0.60482 0.97185 0.0
C2189 C 0.69451 0.65693 0.89559 0.0
C2190 C 0.71823 0.67012 0.92198 0.0
H2191 H 0.65413 0.61682 0.87623 0.0
H2192 H 0.69265 0.67098 0.87418 0.0
C2193 C 0.71961 0.6508 0.94919 0.0
C2194 C 0.38025 0.05095 0.90055 0.0
C2195 C 0.3673 0.06082 0.92801 0.0
H2196 H 0.42002 0.05084 0.8799 0.0
C2197 C 0.38676 0.08066 0.95582 0.0
H2198 H 0.36608 0.03575 0.8786 0.0
C2199 C 0.41835 0.08948 0.95662 0.0
C2200 C 0.43077 0.07835 0.92978 0.0
H2201 H 0.3774 0.08835 0.97762 0.0
H2202 H 0.43285 0.1045 0.97846 0.0
C2203 C 0.41132 0.0594 0.90152 0.0
C2204 C 0.97764 0.36208 0.90078 0.0
C2205 C 0.95949 0.36306 0.9297 0.0
H2206 H 1.0004 0.33998 0.87687 0.0
C2207 C 0.94905 0.33987 0.95688 0.0
H2208 H 0.98566 0.37904 0.87889 0.0
C2209 C 0.95771 0.31697 0.95569 0.0
C2210 C 0.97667 0.31681 0.92711 0.0
H2211 H 0.93465 0.33971 0.97924 0.0
H2212 H 0.95052 0.30018 0.97769 0.0
C2213 C 0.98589 0.33932 0.89941 0.0
C2214 C 0.74676 0.72718 0.56375 0.0
C2215 C 0.7649 0.74352 0.59424 0.0
H2216 H 0.70267 0.70585 0.53786 0.0
C2217 C 0.75139 0.75253 0.6221 0.0
H2218 H 0.75638 0.72044 0.54125 0.0
C2219 C 0.71989 0.74393 0.62011 0.0
C2220 C 0.70168 0.72655 0.59003 0.0
H2221 H 0.76492 0.76558 0.64566 0.0
H2222 H 0.70957 0.74975 0.64269 0.0
C2223 C 0.71584 0.71906 0.56157 0.0
C2224 C 0.32697 1.01103 0.56479 0.0
C2225 C 0.31533 0.98603 0.58941 0.0
H2226 H 0.32751 0.05197 0.5473 0.0
C2227 C 0.29346 0.98334 0.61581 0.0
H2228 H 0.34387 1.01404 0.54412 0.0
C2229 C 0.28395 1.00555 0.61775 0.0
C2230 C 0.2963 0.03091 0.59348 0.0
H2231 H 0.28428 0.96457 0.63549 0.0
H2232 H 0.26711 1.00295 0.63828 0.0
C2233 C 0.31774 0.0331 0.56687 0.0
C2234 C 0.03337 0.32024 0.56406 0.0
C2235 C 0.05483 0.33411 0.5928 0.0
H2236 H 0.9937 0.28008 0.54348 0.0
C2237 C 0.05329 0.31568 0.62292 0.0
H2238 H 0.03384 0.33361 0.54037 0.0
C2239 C 0.02981 0.28435 0.62474 0.0
C2240 C 1.00735 0.27121 0.59674 0.0
H2241 H 0.0692 0.32578 0.64575 0.0
H2242 H 0.02876 0.27071 0.6484 0.0
C2243 C 1.00995 0.28948 0.56611 0.0
C2244 C 0.96229 0.63353 0.80689 0.0
C2245 C 0.94465 0.61796 0.77573 0.0
H2246 H 1.00599 0.6541 0.83381 0.0
C2247 C 0.95844 0.60913 0.74806 0.0
H2248 H 0.95237 0.64003 0.82929 0.0
C2249 C 0.9898 0.61736 0.75074 0.0
C2250 C 1.00762 0.63417 0.78136 0.0
H2251 H 0.9453 0.59664 0.72401 0.0
H2252 H 1.00039 0.61189 0.72816 0.0
C2253 C 0.99311 0.64128 0.80976 0.0
C2254 C 0.39579 0.33355 0.80105 0.0
C2255 C 0.41471 0.33314 0.77272 0.0
H2256 H 0.37246 0.35531 0.82447 0.0
C2257 C 0.42591 0.35686 0.74619 0.0
H2258 H 0.38718 0.31614 0.82244 0.0
C2259 C 0.41733 0.37977 0.7474 0.0
C2260 C 0.39765 0.37945 0.77535 0.0
H2261 H 0.4409 0.35745 0.7243 0.0
H2262 H 0.42522 0.39703 0.72587 0.0
C2263 C 0.38756 0.35636 0.80244 0.0
C2264 C 0.67812 0.07864 0.74252 0.0
C2265 C 0.69766 0.09213 0.77315 0.0
H2266 H 0.64133 0.03674 0.7186 0.0
C2267 C 0.6917 0.07445 0.80527 0.0
H2268 H 0.68181 0.09188 0.71759 0.0
C2269 C 0.66817 0.0437 0.80625 0.0
C2270 C 0.65005 0.02931 0.77499 0.0
H2271 H 0.70559 0.08425 0.82979 0.0
H2272 H 0.66529 0.03058 0.83113 0.0
C2273 C 0.65459 0.04729 0.74332 0.0
C2274 C 0.3619 0.98871 0.23132 0.0
C2275 C 0.38603 1.00202 0.2572 0.0
H2276 H 0.32096 0.94867 0.21302 0.0
C2277 C 0.38739 0.9829 0.28473 0.0
H2278 H 0.35998 1.00255 0.20968 0.0
C2279 C 0.36454 0.95137 0.28672 0.0
C2280 C 0.33984 0.93856 0.26141 0.0
H2281 H 0.40544 0.99249 0.30537 0.0
H2282 H 0.36599 0.93718 0.30824 0.0
C2283 C 0.33918 0.95766 0.2335 0.0
C2284 C 0.05456 0.40938 0.28504 0.0
C2285 C 0.03505 0.38777 0.25859 0.0
H2286 H 0.10074 0.43507 0.30711 0.0
C2287 C 0.04795 0.37598 0.23342 0.0
H2288 H 0.04527 0.4186 0.30512 0.0
C2289 C 0.0791 0.38475 0.23503 0.0
C2290 C 0.09868 0.40586 0.26171 0.0
H2291 H 0.03376 0.35929 0.21265 0.0
H2292 H 0.0878 0.37485 0.21506 0.0
C2293 C 0.08618 0.41842 0.28654 0.0
C2294 C 0.64803 0.69982 0.23326 0.0
C2295 C 0.6278 0.69897 0.2607 0.0
H2296 H 0.6725 0.67916 0.21004 0.0
C2297 C 0.61567 0.67427 0.28592 0.0
H2298 H 0.6575 0.71809 0.2129 0.0
C2299 C 0.62442 0.65148 0.2842 0.0
C2300 C 0.64524 0.65294 0.25705 0.0
H2301 H 0.5997 0.67271 0.30709 0.0
H2302 H 0.61561 0.63333 0.30467 0.0
C2303 C 0.65645 0.67716 0.23136 0.0
loop_
_geom_bond_atom_site_label_1
_geom_bond_atom_site_label_2
_geom_bond_distance
_geom_bond_site_symmetry_2
_ccdc_geom_bond_type
C0 O16 1.251 . S
C0 O18 1.254 . S
N1 C2 1.333 . S
N1 C6 1.307 . S
N1 Zn7 2.020 . S
C2 N1 1.333 . S
C2 C3 1.379 . S
C2 H20 0.952 . S
C3 C2 1.379 . S
C3 C4 1.390 . S
C3 H30 0.949 . S
C4 C3 1.390 . S
C4 C5 1.357 . S
C5 C4 1.357 . S
C5 C6 1.370 . S
C5 H31 0.950 . S
C6 N1 1.307 . S
C6 C5 1.370 . S
C6 H24 0.948 . S
Zn7 N1 2.020 . S
Zn7 O16 2.039 . S
Zn7 O22 2.034 . S
Zn7 O26 2.025 . S
Zn7 O28 2.024 . S
C8 O27 1.246 . S
C8 O28 1.249 . S
N9 C10 1.307 . S
N9 C11 1.333 . S
N9 Zn15 2.020 . S
C10 N9 1.307 . S
C10 C14 1.370 . S
C10 H21 0.948 . S
C11 N9 1.333 . S
C11 C12 1.379 1_554 S
C11 H19 0.952 . S
C12 C11 1.379 1_556 S
C12 C13 1.390 . S
C12 H32 0.949 . S
C13 C12 1.390 . S
C13 C14 1.357 1_556 S
C14 C10 1.370 . S
C14 C13 1.357 1_554 S
C14 H33 0.950 . S
Zn15 N9 2.020 . S
Zn15 O18 2.025 . S
Zn15 O23 2.024 . S
Zn15 O25 2.039 . S
Zn15 O27 2.034 . S
O16 C0 1.251 . S
O16 Zn7 2.039 . S
C17 O22 1.246 . S
C17 O23 1.249 . S
O18 C0 1.254 . S
O18 Zn15 2.025 . S
H19 C11 0.952 . S
H20 C2 0.952 . S
H21 C10 0.948 . S
O22 Zn7 2.034 . S
O22 C17 1.246 . S
O23 Zn15 2.024 . S
O23 C17 1.249 . S
H24 C6 0.948 . S
O25 Zn15 2.039 . S
O25 C29 1.251 . S
O26 Zn7 2.025 . S
O26 C29 1.254 . S
O27 C8 1.246 . S
O27 Zn15 2.034 . S
O28 Zn7 2.024 . S
O28 C8 1.249 . S
C29 O25 1.251 . S
C29 O26 1.254 . S
H30 C3 0.949 . S
H31 C5 0.950 . S
H32 C12 0.949 . S
H33 C14 0.950 . S
C34 O50 1.251 . S
C34 O52 1.254 . S
N35 C36 1.333 . S
N35 C40 1.307 . S
N35 Zn41 2.020 . S
C36 N35 1.333 . S
C36 C37 1.379 . S
C36 H54 0.952 . S
C37 C36 1.379 . S
C37 C38 1.390 . S
C37 H64 0.949 . S
C38 C37 1.390 . S
C38 C39 1.357 . S
C39 C38 1.357 . S
C39 C40 1.370 . S
C39 H65 0.950 . S
C40 N35 1.307 . S
C40 C39 1.370 . S
C40 H58 0.948 . S
Zn41 N35 2.020 . S
Zn41 O50 2.039 . S
Zn41 O56 2.034 . S
Zn41 O60 2.025 . S
Zn41 O62 2.024 . S
C42 O61 1.246 . S
C42 O62 1.249 . S
N43 C44 1.307 . S
N43 C45 1.333 . S
N43 Zn49 2.020 . S
C44 N43 1.307 . S
C44 C48 1.370 . S
C44 H55 0.948 . S
C45 N43 1.333 . S
C45 C46 1.379 1_554 S
C45 H53 0.952 . S
C46 C45 1.379 1_556 S
C46 C47 1.390 . S
C46 H66 0.949 . S
C47 C46 1.390 . S
C47 C48 1.357 1_556 S
C48 C44 1.370 . S
C48 C47 1.357 1_554 S
C48 H67 0.950 . S
Zn49 N43 2.020 . S
Zn49 O52 2.025 1_565 S
Zn49 O57 2.024 . S
Zn49 O59 2.039 . S
Zn49 O61 2.034 1_565 S
O50 C34 1.251 . S
O50 Zn41 2.039 . S
C51 O56 1.246 1_565 S
C51 O57 1.249 . S
O52 C34 1.254 . S
O52 Zn49 2.025 1_545 S
H53 C45 0.952 . S
H54 C36 0.952 . S
H55 C44 0.948 . S
O56 Zn41 2.034 . S
O56 C51 1.246 1_545 S
O57 Zn49 2.024 . S
O57 C51 1.249 . S
H58 C40 0.948 . S
O59 Zn49 2.039 . S
O59 C63 1.251 . S
O60 Zn41 2.025 . S
O60 C63 1.254 1_545 S
O61 C42 1.246 . S
O61 Zn49 2.034 1_545 S
O62 Zn41 2.024 . S
O62 C42 1.249 . S
C63 O59 1.251 . S
C63 O60 1.254 1_565 S
H64 C37 0.949 . S
H65 C39 0.950 . S
H66 C46 0.949 . S
H67 C48 0.950 . S
C68 O84 1.251 . S
C68 O86 1.254 . S
N69 C70 1.333 . S
N69 C74 1.307 . S
N69 Zn75 2.020 . S
C70 N69 1.333 . S
C70 C71 1.379 . S
C70 H88 0.952 . S
C71 C70 1.379 . S
C71 C72 1.390 . S
C71 H98 0.949 . S
C72 C71 1.390 . S
C72 C73 1.357 . S
C73 C72 1.357 . S
C73 C74 1.370 . S
C73 H99 0.950 . S
C74 N69 1.307 . S
C74 C73 1.370 . S
C74 H92 0.948 . S
Zn75 N69 2.020 . S
Zn75 O84 2.039 . S
Zn75 O90 2.034 . S
Zn75 O94 2.025 . S
Zn75 O96 2.024 . S
C76 O95 1.246 . S
C76 O96 1.249 . S
N77 C78 1.307 . S
N77 C79 1.333 . S
N77 Zn83 2.020 . S
C78 N77 1.307 . S
C78 C82 1.370 . S
C78 H89 0.948 . S
C79 N77 1.333 . S
C79 C80 1.379 1_554 S
C79 H87 0.952 . S
C80 C79 1.379 1_556 S
C80 C81 1.390 . S
C80 H100 0.949 . S
C81 C80 1.390 . S
C81 C82 1.357 1_556 S
C82 C78 1.370 . S
C82 C81 1.357 1_554 S
C82 H101 0.950 . S
Zn83 N77 2.020 . S
Zn83 O86 2.025 1_455 S
Zn83 O91 2.024 . S
Zn83 O93 2.039 . S
Zn83 O95 2.034 1_455 S
O84 C68 1.251 . S
O84 Zn75 2.039 . S
C85 O90 1.246 1_455 S
C85 O91 1.249 . S
O86 C68 1.254 . S
O86 Zn83 2.025 1_655 S
H87 C79 0.952 . S
H88 C70 0.952 . S
H89 C78 0.948 . S
O90 Zn75 2.034 . S
O90 C85 1.246 1_655 S
O91 Zn83 2.024 . S
O91 C85 1.249 . S
H92 C74 0.948 . S
O93 Zn83 2.039 . S
O93 C97 1.251 . S
O94 Zn75 2.025 . S
O94 C97 1.254 1_655 S
O95 C76 1.246 . S
O95 Zn83 2.034 1_655 S
O96 Zn75 2.024 . S
O96 C76 1.249 . S
C97 O93 1.251 . S
C97 O94 1.254 1_455 S
H98 C71 0.949 . S
H99 C73 0.950 . S
H100 C80 0.949 . S
H101 C82 0.950 . S
C102 O118 1.251 . S
C102 O120 1.254 . S
N103 C104 1.333 . S
N103 C108 1.307 . S
N103 Zn109 2.020 . S
C104 N103 1.333 . S
C104 C105 1.379 . S
C104 H122 0.952 . S
C105 C104 1.379 . S
C105 C106 1.390 . S
C105 H132 0.949 . S
C106 C105 1.390 . S
C106 C107 1.357 . S
C107 C106 1.357 . S
C107 C108 1.370 . S
C107 H133 0.950 . S
C108 N103 1.307 . S
C108 C107 1.370 . S
C108 H126 0.948 . S
Zn109 N103 2.020 . S
Zn109 O118 2.039 . S
Zn109 O124 2.034 . S
Zn109 O128 2.025 . S
Zn109 O130 2.024 . S
C110 O129 1.246 . S
C110 O130 1.249 . S
N111 C112 1.307 . S
N111 C113 1.333 . S
N111 Zn117 2.020 . S
C112 N111 1.307 . S
C112 C116 1.370 . S
C112 H123 0.948 . S
C113 N111 1.333 . S
C113 C114 1.379 . S
C113 H121 0.952 . S
C114 C113 1.379 . S
C114 C115 1.390 . S
C114 H134 0.949 . S
C115 C114 1.390 . S
C115 C116 1.357 . S
C116 C112 1.370 . S
C116 C115 1.357 . S
C116 H135 0.950 . S
Zn117 N111 2.020 . S
Zn117 O120 2.025 . S
Zn117 O125 2.024 . S
Zn117 O127 2.039 . S
Zn117 O129 2.034 . S
O118 C102 1.251 . S
O118 Zn109 2.039 . S
C119 O124 1.246 . S
C119 O125 1.249 . S
O120 C102 1.254 . S
O120 Zn117 2.025 . S
H121 C113 0.952 . S
H122 C104 0.952 . S
H123 C112 0.948 . S
O124 Zn109 2.034 . S
O124 C119 1.246 . S
O125 Zn117 2.024 . S
O125 C119 1.249 . S
H126 C108 0.948 . S
O127 Zn117 2.039 . S
O127 C131 1.251 . S
O128 Zn109 2.025 . S
O128 C131 1.254 . S
O129 C110 1.246 . S
O129 Zn117 2.034 . S
O130 Zn109 2.024 . S
O130 C110 1.249 . S
C131 O127 1.251 . S
C131 O128 1.254 . S
H132 C105 0.949 . S
H133 C107 0.950 . S
H134 C114 0.949 . S
H135 C116 0.950 . S
C136 O152 1.251 . S
C136 O154 1.254 . S
N137 C138 1.333 . S
N137 C142 1.307 . S
N137 Zn143 2.020 . S
C138 N137 1.333 . S
C138 C139 1.379 . S
C138 H156 0.952 . S
C139 C138 1.379 . S
C139 C140 1.390 . S
C139 H166 0.949 . S
C140 C139 1.390 . S
C140 C141 1.357 . S
C141 C140 1.357 . S
C141 C142 1.370 . S
C141 H167 0.950 . S
C142 N137 1.307 . S
C142 C141 1.370 . S
C142 H160 0.948 . S
Zn143 N137 2.020 . S
Zn143 O152 2.039 . S
Zn143 O158 2.034 . S
Zn143 O162 2.025 . S
Zn143 O164 2.024 . S
C144 O163 1.246 . S
C144 O164 1.249 . S
N145 C146 1.307 . S
N145 C147 1.333 . S
N145 Zn151 2.020 . S
C146 N145 1.307 . S
C146 C150 1.370 . S
C146 H157 0.948 . S
C147 N145 1.333 . S
C147 C148 1.379 . S
C147 H155 0.952 . S
C148 C147 1.379 . S
C148 C149 1.390 . S
C148 H168 0.949 . S
C149 C148 1.390 . S
C149 C150 1.357 . S
C150 C146 1.370 . S
C150 C149 1.357 . S
C150 H169 0.950 . S
Zn151 N145 2.020 . S
Zn151 O154 2.025 . S
Zn151 O159 2.024 . S
Zn151 O161 2.039 . S
Zn151 O163 2.034 . S
O152 C136 1.251 . S
O152 Zn143 2.039 . S
C153 O158 1.246 . S
C153 O159 1.249 . S
O154 C136 1.254 . S
O154 Zn151 2.025 . S
H155 C147 0.952 . S
H156 C138 0.952 . S
H157 C146 0.948 . S
O158 Zn143 2.034 . S
O158 C153 1.246 . S
O159 Zn151 2.024 . S
O159 C153 1.249 . S
H160 C142 0.948 . S
O161 Zn151 2.039 . S
O161 C165 1.251 . S
O162 Zn143 2.025 . S
O162 C165 1.254 . S
O163 C144 1.246 . S
O163 Zn151 2.034 . S
O164 Zn143 2.024 . S
O164 C144 1.249 . S
C165 O161 1.251 . S
C165 O162 1.254 . S
H166 C139 0.949 . S
H167 C141 0.950 . S
H168 C148 0.949 . S
H169 C150 0.950 . S
C170 O186 1.251 . S
C170 O188 1.254 . S
N171 C172 1.333 . S
N171 C176 1.307 . S
N171 Zn177 2.020 . S
C172 N171 1.333 . S
C172 C173 1.379 . S
C172 H190 0.952 . S
C173 C172 1.379 . S
C173 C174 1.390 . S
C173 H200 0.949 . S
C174 C173 1.390 . S
C174 C175 1.357 . S
C175 C174 1.357 . S
C175 C176 1.370 . S
C175 H201 0.950 . S
C176 N171 1.307 . S
C176 C175 1.370 . S
C176 H194 0.948 . S
Zn177 N171 2.020 . S
Zn177 O186 2.039 . S
Zn177 O192 2.034 . S
Zn177 O196 2.025 . S
Zn177 O198 2.024 . S
C178 O197 1.246 . S
C178 O198 1.249 . S
N179 C180 1.307 . S
N179 C181 1.333 . S
N179 Zn185 2.020 . S
C180 N179 1.307 . S
C180 C184 1.370 . S
C180 H191 0.948 . S
C181 N179 1.333 . S
C181 C182 1.379 . S
C181 H189 0.952 . S
C182 C181 1.379 . S
C182 C183 1.390 . S
C182 H202 0.949 . S
C183 C182 1.390 . S
C183 C184 1.357 . S
C184 C180 1.370 . S
C184 C183 1.357 . S
C184 H203 0.950 . S
Zn185 N179 2.020 . S
Zn185 O188 2.025 . S
Zn185 O193 2.024 . S
Zn185 O195 2.039 . S
Zn185 O197 2.034 . S
O186 C170 1.251 . S
O186 Zn177 2.039 . S
C187 O192 1.246 . S
C187 O193 1.249 . S
O188 C170 1.254 . S
O188 Zn185 2.025 . S
H189 C181 0.952 . S
H190 C172 0.952 . S
H191 C180 0.948 . S
O192 Zn177 2.034 . S
O192 C187 1.246 . S
O193 Zn185 2.024 . S
O193 C187 1.249 . S
H194 C176 0.948 . S
O195 Zn185 2.039 . S
O195 C199 1.251 . S
O196 Zn177 2.025 . S
O196 C199 1.254 . S
O197 C178 1.246 . S
O197 Zn185 2.034 . S
O198 Zn177 2.024 . S
O198 C178 1.249 . S
C199 O195 1.251 . S
C199 O196 1.254 . S
H200 C173 0.949 . S
H201 C175 0.950 . S
H202 C182 0.949 . S
H203 C184 0.950 . S
C204 O220 1.251 . S
C204 O222 1.254 . S
N205 C206 1.333 . S
N205 C210 1.307 . S
N205 Zn211 2.020 . S
C206 N205 1.333 . S
C206 C207 1.379 1_556 S
C206 H224 0.952 . S
C207 C206 1.379 1_554 S
C207 C208 1.390 . S
C207 H234 0.949 . S
C208 C207 1.390 . S
C208 C209 1.357 1_554 S
C209 C208 1.357 1_556 S
C209 C210 1.370 . S
C209 H235 0.950 . S
C210 N205 1.307 . S
C210 C209 1.370 . S
C210 H228 0.948 . S
Zn211 N205 2.020 . S
Zn211 O220 2.039 . S
Zn211 O226 2.034 . S
Zn211 O230 2.025 . S
Zn211 O232 2.024 . S
C212 O231 1.246 . S
C212 O232 1.249 . S
N213 C214 1.307 . S
N213 C215 1.333 . S
N213 Zn219 2.020 . S
C214 N213 1.307 . S
C214 C218 1.370 . S
C214 H225 0.948 . S
C215 N213 1.333 . S
C215 C216 1.379 . S
C215 H223 0.952 . S
C216 C215 1.379 . S
C216 C217 1.390 . S
C216 H236 0.949 . S
C217 C216 1.390 . S
C217 C218 1.357 . S
C218 C214 1.370 . S
C218 C217 1.357 . S
C218 H237 0.950 . S
Zn219 N213 2.020 . S
Zn219 O222 2.025 . S
Zn219 O227 2.024 . S
Zn219 O229 2.039 . S
Zn219 O231 2.034 . S
O220 C204 1.251 . S
O220 Zn211 2.039 . S
C221 O226 1.246 . S
C221 O227 1.249 . S
O222 C204 1.254 . S
O222 Zn219 2.025 . S
H223 C215 0.952 . S
H224 C206 0.952 . S
H225 C214 0.948 . S
O226 Zn211 2.034 . S
O226 C221 1.246 . S
O227 Zn219 2.024 . S
O227 C221 1.249 . S
H228 C210 0.948 . S
O229 Zn219 2.039 . S
O229 C233 1.251 . S
O230 Zn211 2.025 . S
O230 C233 1.254 . S
O231 C212 1.246 . S
O231 Zn219 2.034 . S
O232 Zn211 2.024 . S
O232 C212 1.249 . S
C233 O229 1.251 . S
C233 O230 1.254 . S
H234 C207 0.949 . S
H235 C209 0.950 . S
H236 C216 0.949 . S
H237 C218 0.950 . S
C238 O254 1.251 . S
C238 O256 1.254 1_545 S
N239 C240 1.333 . S
N239 C244 1.307 . S
N239 Zn245 2.020 . S
C240 N239 1.333 . S
C240 C241 1.379 1_556 S
C240 H258 0.952 . S
C241 C240 1.379 1_554 S
C241 C242 1.390 . S
C241 H268 0.949 . S
C242 C241 1.390 . S
C242 C243 1.357 1_554 S
C243 C242 1.357 1_556 S
C243 C244 1.370 . S
C243 H269 0.950 . S
C244 N239 1.307 . S
C244 C243 1.370 . S
C244 H262 0.948 . S
Zn245 N239 2.020 . S
Zn245 O254 2.039 . S
Zn245 O260 2.034 1_545 S
Zn245 O264 2.025 1_545 S
Zn245 O266 2.024 . S
C246 O265 1.246 1_545 S
C246 O266 1.249 . S
N247 C248 1.307 . S
N247 C249 1.333 . S
N247 Zn253 2.020 . S
C248 N247 1.307 . S
C248 C252 1.370 . S
C248 H259 0.948 . S
C249 N247 1.333 . S
C249 C250 1.379 . S
C249 H257 0.952 . S
C250 C249 1.379 . S
C250 C251 1.390 . S
C250 H270 0.949 . S
C251 C250 1.390 . S
C251 C252 1.357 . S
C252 C248 1.370 . S
C252 C251 1.357 . S
C252 H271 0.950 . S
Zn253 N247 2.020 . S
Zn253 O256 2.025 . S
Zn253 O261 2.024 . S
Zn253 O263 2.039 . S
Zn253 O265 2.034 . S
O254 C238 1.251 . S
O254 Zn245 2.039 . S
C255 O260 1.246 . S
C255 O261 1.249 . S
O256 C238 1.254 1_565 S
O256 Zn253 2.025 . S
H257 C249 0.952 . S
H258 C240 0.952 . S
H259 C248 0.948 . S
O260 Zn245 2.034 1_565 S
O260 C255 1.246 . S
O261 Zn253 2.024 . S
O261 C255 1.249 . S
H262 C244 0.948 . S
O263 Zn253 2.039 . S
O263 C267 1.251 . S
O264 Zn245 2.025 1_565 S
O264 C267 1.254 . S
O265 C246 1.246 1_565 S
O265 Zn253 2.034 . S
O266 Zn245 2.024 . S
O266 C246 1.249 . S
C267 O263 1.251 . S
C267 O264 1.254 . S
H268 C241 0.949 . S
H269 C243 0.950 . S
H270 C250 0.949 . S
H271 C252 0.950 . S
C272 O288 1.251 . S
C272 O290 1.254 1_655 S
N273 C274 1.333 . S
N273 C278 1.307 . S
N273 Zn279 2.020 . S
C274 N273 1.333 . S
C274 C275 1.379 1_556 S
C274 H292 0.952 . S
C275 C274 1.379 1_554 S
C275 C276 1.390 . S
C275 H302 0.949 . S
C276 C275 1.390 . S
C276 C277 1.357 1_554 S
C277 C276 1.357 1_556 S
C277 C278 1.370 . S
C277 H303 0.950 . S
C278 N273 1.307 . S
C278 C277 1.370 . S
C278 H296 0.948 . S
Zn279 N273 2.020 . S
Zn279 O288 2.039 . S
Zn279 O294 2.034 1_655 S
Zn279 O298 2.025 1_655 S
Zn279 O300 2.024 . S
C280 O299 1.246 1_655 S
C280 O300 1.249 . S
N281 C282 1.307 . S
N281 C283 1.333 . S
N281 Zn287 2.020 . S
C282 N281 1.307 . S
C282 C286 1.370 . S
C282 H293 0.948 . S
C283 N281 1.333 . S
C283 C284 1.379 . S
C283 H291 0.952 . S
C284 C283 1.379 . S
C284 C285 1.390 . S
C284 H304 0.949 . S
C285 C284 1.390 . S
C285 C286 1.357 . S
C286 C282 1.370 . S
C286 C285 1.357 . S
C286 H305 0.950 . S
Zn287 N281 2.020 . S
Zn287 O290 2.025 . S
Zn287 O295 2.024 . S
Zn287 O297 2.039 . S
Zn287 O299 2.034 . S
O288 C272 1.251 . S
O288 Zn279 2.039 . S
C289 O294 1.246 . S
C289 O295 1.249 . S
O290 C272 1.254 1_455 S
O290 Zn287 2.025 . S
H291 C283 0.952 . S
H292 C274 0.952 . S
H293 C282 0.948 . S
O294 Zn279 2.034 1_455 S
O294 C289 1.246 . S
O295 Zn287 2.024 . S
O295 C289 1.249 . S
H296 C278 0.948 . S
O297 Zn287 2.039 . S
O297 C301 1.251 . S
O298 Zn279 2.025 1_455 S
O298 C301 1.254 . S
O299 C280 1.246 1_455 S
O299 Zn287 2.034 . S
O300 Zn279 2.024 . S
O300 C280 1.249 . S
C301 O297 1.251 . S
C301 O298 1.254 . S
H302 C275 0.949 . S
H303 C277 0.950 . S
H304 C284 0.949 . S
H305 C286 0.950 . S
C306 O322 1.251 . S
C306 O324 1.254 . S
N307 C308 1.333 . S
N307 C312 1.307 . S
N307 Zn313 2.020 . S
C308 N307 1.333 . S
C308 C309 1.379 . S
C308 H326 0.952 . S
C309 C308 1.379 . S
C309 C310 1.390 . S
C309 H336 0.949 . S
C310 C309 1.390 . S
C310 C311 1.357 . S
C311 C310 1.357 . S
C311 C312 1.370 . S
C311 H337 0.950 . S
C312 N307 1.307 . S
C312 C311 1.370 . S
C312 H330 0.948 . S
Zn313 N307 2.020 . S
Zn313 O322 2.039 . S
Zn313 O328 2.034 . S
Zn313 O332 2.025 . S
Zn313 O334 2.024 . S
C314 O333 1.246 . S
C314 O334 1.249 . S
N315 C316 1.307 . S
N315 C317 1.333 . S
N315 Zn321 2.020 . S
C316 N315 1.307 . S
C316 C320 1.370 . S
C316 H327 0.948 . S
C317 N315 1.333 . S
C317 C318 1.379 . S
C317 H325 0.952 . S
C318 C317 1.379 . S
C318 C319 1.390 . S
C318 H338 0.949 . S
C319 C318 1.390 . S
C319 C320 1.357 . S
C320 C316 1.370 . S
C320 C319 1.357 . S
C320 H339 0.950 . S
Zn321 N315 2.020 . S
Zn321 O324 2.025 . S
Zn321 O329 2.024 . S
Zn321 O331 2.039 . S
Zn321 O333 2.034 . S
O322 C306 1.251 . S
O322 Zn313 2.039 . S
C323 O328 1.246 . S
C323 O329 1.249 . S
O324 C306 1.254 . S
O324 Zn321 2.025 . S
H325 C317 0.952 . S
H326 C308 0.952 . S
H327 C316 0.948 . S
O328 Zn313 2.034 . S
O328 C323 1.246 . S
O329 Zn321 2.024 . S
O329 C323 1.249 . S
H330 C312 0.948 . S
O331 Zn321 2.039 . S
O331 C335 1.251 . S
O332 Zn313 2.025 . S
O332 C335 1.254 . S
O333 C314 1.246 . S
O333 Zn321 2.034 . S
O334 Zn313 2.024 . S
O334 C314 1.249 . S
C335 O331 1.251 . S
C335 O332 1.254 . S
H336 C309 0.949 . S
H337 C311 0.950 . S
H338 C318 0.949 . S
H339 C320 0.950 . S
C340 O356 1.251 . S
C340 O358 1.254 . S
N341 C342 1.333 . S
N341 C346 1.307 . S
N341 Zn347 2.020 . S
C342 N341 1.333 . S
C342 C343 1.379 . S
C342 H360 0.952 . S
C343 C342 1.379 . S
C343 C344 1.390 . S
C343 H370 0.949 . S
C344 C343 1.390 . S
C344 C345 1.357 . S
C345 C344 1.357 . S
C345 C346 1.370 . S
C345 H371 0.950 . S
C346 N341 1.307 . S
C346 C345 1.370 . S
C346 H364 0.948 . S
Zn347 N341 2.020 . S
Zn347 O356 2.039 . S
Zn347 O362 2.034 . S
Zn347 O366 2.025 . S
Zn347 O368 2.024 . S
C348 O367 1.246 . S
C348 O368 1.249 . S
N349 C350 1.307 . S
N349 C351 1.333 . S
N349 Zn355 2.020 . S
C350 N349 1.307 . S
C350 C354 1.370 . S
C350 H361 0.948 . S
C351 N349 1.333 . S
C351 C352 1.379 . S
C351 H359 0.952 . S
C352 C351 1.379 . S
C352 C353 1.390 . S
C352 H372 0.949 . S
C353 C352 1.390 . S
C353 C354 1.357 . S
C354 C350 1.370 . S
C354 C353 1.357 . S
C354 H373 0.950 . S
Zn355 N349 2.020 . S
Zn355 O358 2.025 . S
Zn355 O363 2.024 . S
Zn355 O365 2.039 . S
Zn355 O367 2.034 . S
O356 C340 1.251 . S
O356 Zn347 2.039 . S
C357 O362 1.246 . S
C357 O363 1.249 . S
O358 C340 1.254 . S
O358 Zn355 2.025 . S
H359 C351 0.952 . S
H360 C342 0.952 . S
H361 C350 0.948 . S
O362 Zn347 2.034 . S
O362 C357 1.246 . S
O363 Zn355 2.024 . S
O363 C357 1.249 . S
H364 C346 0.948 . S
O365 Zn355 2.039 . S
O365 C369 1.251 . S
O366 Zn347 2.025 . S
O366 C369 1.254 . S
O367 C348 1.246 . S
O367 Zn355 2.034 . S
O368 Zn347 2.024 . S
O368 C348 1.249 . S
C369 O365 1.251 . S
C369 O366 1.254 . S
H370 C343 0.949 . S
H371 C345 0.950 . S
H372 C352 0.949 . S
H373 C354 0.950 . S
C374 O390 1.251 . S
C374 O392 1.254 . S
N375 C376 1.333 . S
N375 C380 1.307 . S
N375 Zn381 2.020 . S
C376 N375 1.333 . S
C376 C377 1.379 . S
C376 H394 0.952 . S
C377 C376 1.379 . S
C377 C378 1.390 . S
C377 H404 0.949 . S
C378 C377 1.390 . S
C378 C379 1.357 . S
C379 C378 1.357 . S
C379 C380 1.370 . S
C379 H405 0.950 . S
C380 N375 1.307 . S
C380 C379 1.370 . S
C380 H398 0.948 . S
Zn381 N375 2.020 . S
Zn381 O390 2.039 . S
Zn381 O396 2.034 . S
Zn381 O400 2.025 . S
Zn381 O402 2.024 . S
C382 O401 1.246 . S
C382 O402 1.249 . S
N383 C384 1.307 . S
N383 C385 1.333 . S
N383 Zn389 2.020 . S
C384 N383 1.307 . S
C384 C388 1.370 . S
C384 H395 0.948 . S
C385 N383 1.333 . S
C385 C386 1.379 . S
C385 H393 0.952 . S
C386 C385 1.379 . S
C386 C387 1.390 . S
C386 H406 0.949 . S
C387 C386 1.390 . S
C387 C388 1.357 . S
C388 C384 1.370 . S
C388 C387 1.357 . S
C388 H407 0.950 . S
Zn389 N383 2.020 . S
Zn389 O392 2.025 . S
Zn389 O397 2.024 . S
Zn389 O399 2.039 . S
Zn389 O401 2.034 . S
O390 C374 1.251 . S
O390 Zn381 2.039 . S
C391 O396 1.246 . S
C391 O397 1.249 . S
O392 C374 1.254 . S
O392 Zn389 2.025 . S
H393 C385 0.952 . S
H394 C376 0.952 . S
H395 C384 0.948 . S
O396 Zn381 2.034 . S
O396 C391 1.246 . S
O397 Zn389 2.024 . S
O397 C391 1.249 . S
H398 C380 0.948 . S
O399 Zn389 2.039 . S
O399 C403 1.251 . S
O400 Zn381 2.025 . S
O400 C403 1.254 . S
O401 C382 1.246 . S
O401 Zn389 2.034 . S
O402 Zn381 2.024 . S
O402 C382 1.249 . S
C403 O399 1.251 . S
C403 O400 1.254 . S
H404 C377 0.949 . S
H405 C379 0.950 . S
H406 C386 0.949 . S
H407 C388 0.950 . S
C408 O424 1.251 . S
C408 O426 1.254 . S
N409 C410 1.333 . S
N409 C414 1.307 . S
N409 Zn415 2.020 . S
C410 N409 1.333 . S
C410 C411 1.379 . S
C410 H428 0.952 . S
C411 C410 1.379 . S
C411 C412 1.390 1_655 S
C411 H438 0.949 . S
C412 C411 1.390 1_455 S
C412 C413 1.357 . S
C413 C412 1.357 . S
C413 C414 1.370 1_455 S
C413 H439 0.950 . S
C414 N409 1.307 . S
C414 C413 1.370 1_655 S
C414 H432 0.948 . S
Zn415 N409 2.020 . S
Zn415 O424 2.039 . S
Zn415 O430 2.034 . S
Zn415 O434 2.025 . S
Zn415 O436 2.024 . S
C416 O435 1.246 . S
C416 O436 1.249 . S
N417 C418 1.307 . S
N417 C419 1.333 . S
N417 Zn423 2.020 . S
C418 N417 1.307 . S
C418 C422 1.370 . S
C418 H429 0.948 . S
C419 N417 1.333 . S
C419 C420 1.379 . S
C419 H427 0.952 . S
C420 C419 1.379 . S
C420 C421 1.390 . S
C420 H440 0.949 . S
C421 C420 1.390 . S
C421 C422 1.357 . S
C422 C418 1.370 . S
C422 C421 1.357 . S
C422 H441 0.950 . S
Zn423 N417 2.020 . S
Zn423 O426 2.025 . S
Zn423 O431 2.024 . S
Zn423 O433 2.039 . S
Zn423 O435 2.034 . S
O424 C408 1.251 . S
O424 Zn415 2.039 . S
C425 O430 1.246 . S
C425 O431 1.249 . S
O426 C408 1.254 . S
O426 Zn423 2.025 . S
H427 C419 0.952 . S
H428 C410 0.952 . S
H429 C418 0.948 . S
O430 Zn415 2.034 . S
O430 C425 1.246 . S
O431 Zn423 2.024 . S
O431 C425 1.249 . S
H432 C414 0.948 . S
O433 Zn423 2.039 . S
O433 C437 1.251 . S
O434 Zn415 2.025 . S
O434 C437 1.254 . S
O435 C416 1.246 . S
O435 Zn423 2.034 . S
O436 Zn415 2.024 . S
O436 C416 1.249 . S
C437 O433 1.251 . S
C437 O434 1.254 . S
H438 C411 0.949 . S
H439 C413 0.950 . S
H440 C420 0.949 . S
H441 C422 0.950 . S
C442 O458 1.251 . S
C442 O460 1.254 . S
N443 C444 1.333 . S
N443 C448 1.307 . S
N443 Zn449 2.020 . S
C444 N443 1.333 . S
C444 C445 1.379 . S
C444 H462 0.952 . S
C445 C444 1.379 . S
C445 C446 1.390 . S
C445 H472 0.949 . S
C446 C445 1.390 . S
C446 C447 1.357 . S
C447 C446 1.357 . S
C447 C448 1.370 . S
C447 H473 0.950 . S
C448 N443 1.307 . S
C448 C447 1.370 . S
C448 H466 0.948 . S
Zn449 N443 2.020 . S
Zn449 O458 2.039 . S
Zn449 O464 2.034 . S
Zn449 O468 2.025 . S
Zn449 O470 2.024 . S
C450 O469 1.246 . S
C450 O470 1.249 . S
N451 C452 1.307 . S
N451 C453 1.333 . S
N451 Zn457 2.020 . S
C452 N451 1.307 . S
C452 C456 1.370 . S
C452 H463 0.948 . S
C453 N451 1.333 . S
C453 C454 1.379 . S
C453 H461 0.952 . S
C454 C453 1.379 . S
C454 C455 1.390 . S
C454 H474 0.949 . S
C455 C454 1.390 . S
C455 C456 1.357 . S
C456 C452 1.370 . S
C456 C455 1.357 . S
C456 H475 0.950 . S
Zn457 N451 2.020 . S
Zn457 O460 2.025 . S
Zn457 O465 2.024 . S
Zn457 O467 2.039 . S
Zn457 O469 2.034 . S
O458 C442 1.251 . S
O458 Zn449 2.039 . S
C459 O464 1.246 . S
C459 O465 1.249 . S
O460 C442 1.254 . S
O460 Zn457 2.025 . S
H461 C453 0.952 . S
H462 C444 0.952 . S
H463 C452 0.948 . S
O464 Zn449 2.034 . S
O464 C459 1.246 . S
O465 Zn457 2.024 . S
O465 C459 1.249 . S
H466 C448 0.948 . S
O467 Zn457 2.039 . S
O467 C471 1.251 . S
O468 Zn449 2.025 . S
O468 C471 1.254 . S
O469 C450 1.246 . S
O469 Zn457 2.034 . S
O470 Zn449 2.024 . S
O470 C450 1.249 . S
C471 O467 1.251 . S
C471 O468 1.254 . S
H472 C445 0.949 . S
H473 C447 0.950 . S
H474 C454 0.949 . S
H475 C456 0.950 . S
C476 O492 1.251 . S
C476 O494 1.254 . S
N477 C478 1.333 . S
N477 C482 1.307 . S
N477 Zn483 2.020 . S
C478 N477 1.333 . S
C478 C479 1.379 . S
C478 H496 0.952 . S
C479 C478 1.379 . S
C479 C480 1.390 1_545 S
C479 H506 0.949 . S
C480 C479 1.390 1_565 S
C480 C481 1.357 . S
C481 C480 1.357 . S
C481 C482 1.370 1_565 S
C481 H507 0.950 . S
C482 N477 1.307 . S
C482 C481 1.370 1_545 S
C482 H500 0.948 . S
Zn483 N477 2.020 . S
Zn483 O492 2.039 . S
Zn483 O498 2.034 . S
Zn483 O502 2.025 . S
Zn483 O504 2.024 . S
C484 O503 1.246 . S
C484 O504 1.249 . S
N485 C486 1.307 . S
N485 C487 1.333 . S
N485 Zn491 2.020 . S
C486 N485 1.307 . S
C486 C490 1.370 . S
C486 H497 0.948 . S
C487 N485 1.333 . S
C487 C488 1.379 . S
C487 H495 0.952 . S
C488 C487 1.379 . S
C488 C489 1.390 . S
C488 H508 0.949 . S
C489 C488 1.390 . S
C489 C490 1.357 . S
C490 C486 1.370 . S
C490 C489 1.357 . S
C490 H509 0.950 . S
Zn491 N485 2.020 . S
Zn491 O494 2.025 . S
Zn491 O499 2.024 . S
Zn491 O501 2.039 . S
Zn491 O503 2.034 . S
O492 C476 1.251 . S
O492 Zn483 2.039 . S
C493 O498 1.246 . S
C493 O499 1.249 . S
O494 C476 1.254 . S
O494 Zn491 2.025 . S
H495 C487 0.952 . S
H496 C478 0.952 . S
H497 C486 0.948 . S
O498 Zn483 2.034 . S
O498 C493 1.246 . S
O499 Zn491 2.024 . S
O499 C493 1.249 . S
H500 C482 0.948 . S
O501 Zn491 2.039 . S
O501 C505 1.251 . S
O502 Zn483 2.025 . S
O502 C505 1.254 . S
O503 C484 1.246 . S
O503 Zn491 2.034 . S
O504 Zn483 2.024 . S
O504 C484 1.249 . S
C505 O501 1.251 . S
C505 O502 1.254 . S
H506 C479 0.949 . S
H507 C481 0.950 . S
H508 C488 0.949 . S
H509 C490 0.950 . S
C510 O526 1.251 . S
C510 O528 1.254 . S
N511 C512 1.333 . S
N511 C516 1.307 . S
N511 Zn517 2.020 . S
C512 N511 1.333 . S
C512 C513 1.379 . S
C512 H530 0.952 . S
C513 C512 1.379 . S
C513 C514 1.390 . S
C513 H540 0.949 . S
C514 C513 1.390 . S
C514 C515 1.357 . S
C515 C514 1.357 . S
C515 C516 1.370 . S
C515 H541 0.950 . S
C516 N511 1.307 . S
C516 C515 1.370 . S
C516 H534 0.948 . S
Zn517 N511 2.020 . S
Zn517 O526 2.039 . S
Zn517 O532 2.034 . S
Zn517 O536 2.025 . S
Zn517 O538 2.024 . S
C518 O537 1.246 . S
C518 O538 1.249 . S
N519 C520 1.307 . S
N519 C521 1.333 . S
N519 Zn525 2.020 . S
C520 N519 1.307 . S
C520 C524 1.370 . S
C520 H531 0.948 . S
C521 N519 1.333 . S
C521 C522 1.379 . S
C521 H529 0.952 . S
C522 C521 1.379 . S
C522 C523 1.390 . S
C522 H542 0.949 . S
C523 C522 1.390 . S
C523 C524 1.357 . S
C524 C520 1.370 . S
C524 C523 1.357 . S
C524 H543 0.950 . S
Zn525 N519 2.020 . S
Zn525 O528 2.025 . S
Zn525 O533 2.024 . S
Zn525 O535 2.039 . S
Zn525 O537 2.034 . S
O526 C510 1.251 . S
O526 Zn517 2.039 . S
C527 O532 1.246 . S
C527 O533 1.249 . S
O528 C510 1.254 . S
O528 Zn525 2.025 . S
H529 C521 0.952 . S
H530 C512 0.952 . S
H531 C520 0.948 . S
O532 Zn517 2.034 . S
O532 C527 1.246 . S
O533 Zn525 2.024 . S
O533 C527 1.249 . S
H534 C516 0.948 . S
O535 Zn525 2.039 . S
O535 C539 1.251 . S
O536 Zn517 2.025 . S
O536 C539 1.254 . S
O537 C518 1.246 . S
O537 Zn525 2.034 . S
O538 Zn517 2.024 . S
O538 C518 1.249 . S
C539 O535 1.251 . S
C539 O536 1.254 . S
H540 C513 0.949 . S
H541 C515 0.950 . S
H542 C522 0.949 . S
H543 C524 0.950 . S
C544 O560 1.251 . S
C544 O562 1.254 . S
N545 C546 1.333 . S
N545 C550 1.307 . S
N545 Zn551 2.020 . S
C546 N545 1.333 . S
C546 C547 1.379 . S
C546 H564 0.952 . S
C547 C546 1.379 . S
C547 C548 1.390 . S
C547 H574 0.949 . S
C548 C547 1.390 . S
C548 C549 1.357 . S
C549 C548 1.357 . S
C549 C550 1.370 . S
C549 H575 0.950 . S
C550 N545 1.307 . S
C550 C549 1.370 . S
C550 H568 0.948 . S
Zn551 N545 2.020 . S
Zn551 O560 2.039 . S
Zn551 O566 2.034 . S
Zn551 O570 2.025 . S
Zn551 O572 2.024 . S
C552 O571 1.246 . S
C552 O572 1.249 . S
N553 C554 1.307 . S
N553 C555 1.333 . S
N553 Zn559 2.020 . S
C554 N553 1.307 . S
C554 C558 1.370 . S
C554 H565 0.948 . S
C555 N553 1.333 . S
C555 C556 1.379 . S
C555 H563 0.952 . S
C556 C555 1.379 . S
C556 C557 1.390 . S
C556 H576 0.949 . S
C557 C556 1.390 . S
C557 C558 1.357 . S
C558 C554 1.370 . S
C558 C557 1.357 . S
C558 H577 0.950 . S
Zn559 N553 2.020 . S
Zn559 O562 2.025 . S
Zn559 O567 2.024 . S
Zn559 O569 2.039 . S
Zn559 O571 2.034 . S
O560 C544 1.251 . S
O560 Zn551 2.039 . S
C561 O566 1.246 . S
C561 O567 1.249 . S
O562 C544 1.254 . S
O562 Zn559 2.025 . S
H563 C555 0.952 . S
H564 C546 0.952 . S
H565 C554 0.948 . S
O566 Zn551 2.034 . S
O566 C561 1.246 . S
O567 Zn559 2.024 . S
O567 C561 1.249 . S
H568 C550 0.948 . S
O569 Zn559 2.039 . S
O569 C573 1.251 . S
O570 Zn551 2.025 . S
O570 C573 1.254 . S
O571 C552 1.246 . S
O571 Zn559 2.034 . S
O572 Zn551 2.024 . S
O572 C552 1.249 . S
C573 O569 1.251 . S
C573 O570 1.254 . S
H574 C547 0.949 . S
H575 C549 0.950 . S
H576 C556 0.949 . S
H577 C558 0.950 . S
C578 O594 1.251 . S
C578 O596 1.254 . S
N579 C580 1.333 . S
N579 C584 1.307 . S
N579 Zn585 2.020 . S
C580 N579 1.333 . S
C580 C581 1.379 . S
C580 H598 0.952 . S
C581 C580 1.379 . S
C581 C582 1.390 . S
C581 H608 0.949 . S
C582 C581 1.390 . S
C582 C583 1.357 . S
C583 C582 1.357 . S
C583 C584 1.370 . S
C583 H609 0.950 . S
C584 N579 1.307 . S
C584 C583 1.370 . S
C584 H602 0.948 . S
Zn585 N579 2.020 . S
Zn585 O594 2.039 . S
Zn585 O600 2.034 . S
Zn585 O604 2.025 . S
Zn585 O606 2.024 . S
C586 O605 1.246 . S
C586 O606 1.249 . S
N587 C588 1.307 . S
N587 C589 1.333 . S
N587 Zn593 2.020 . S
C588 N587 1.307 . S
C588 C592 1.370 . S
C588 H599 0.948 . S
C589 N587 1.333 . S
C589 C590 1.379 . S
C589 H597 0.952 . S
C590 C589 1.379 . S
C590 C591 1.390 . S
C590 H610 0.949 . S
C591 C590 1.390 . S
C591 C592 1.357 . S
C592 C588 1.370 . S
C592 C591 1.357 . S
C592 H611 0.950 . S
Zn593 N587 2.020 . S
Zn593 O596 2.025 . S
Zn593 O601 2.024 . S
Zn593 O603 2.039 . S
Zn593 O605 2.034 . S
O594 C578 1.251 . S
O594 Zn585 2.039 . S
C595 O600 1.246 . S
C595 O601 1.249 . S
O596 C578 1.254 . S
O596 Zn593 2.025 . S
H597 C589 0.952 . S
H598 C580 0.952 . S
H599 C588 0.948 . S
O600 Zn585 2.034 . S
O600 C595 1.246 . S
O601 Zn593 2.024 . S
O601 C595 1.249 . S
H602 C584 0.948 . S
O603 Zn593 2.039 . S
O603 C607 1.251 . S
O604 Zn585 2.025 . S
O604 C607 1.254 . S
O605 C586 1.246 . S
O605 Zn593 2.034 . S
O606 Zn585 2.024 . S
O606 C586 1.249 . S
C607 O603 1.251 . S
C607 O604 1.254 . S
H608 C581 0.949 . S
H609 C583 0.950 . S
H610 C590 0.949 . S
H611 C592 0.950 . S
C612 O628 1.251 . S
C612 O630 1.254 . S
N613 C614 1.333 . S
N613 C618 1.307 . S
N613 Zn619 2.020 . S
C614 N613 1.333 . S
C614 C615 1.379 . S
C614 H632 0.952 . S
C615 C614 1.379 . S
C615 C616 1.390 . S
C615 H642 0.949 . S
C616 C615 1.390 . S
C616 C617 1.357 . S
C617 C616 1.357 . S
C617 C618 1.370 . S
C617 H643 0.950 . S
C618 N613 1.307 . S
C618 C617 1.370 . S
C618 H636 0.948 . S
Zn619 N613 2.020 . S
Zn619 O628 2.039 . S
Zn619 O634 2.034 . S
Zn619 O638 2.025 . S
Zn619 O640 2.024 . S
C620 O639 1.246 . S
C620 O640 1.249 . S
N621 C622 1.307 . S
N621 C623 1.333 . S
N621 Zn627 2.020 . S
C622 N621 1.307 . S
C622 C626 1.370 . S
C622 H633 0.948 . S
C623 N621 1.333 . S
C623 C624 1.379 . S
C623 H631 0.952 . S
C624 C623 1.379 . S
C624 C625 1.390 . S
C624 H644 0.949 . S
C625 C624 1.390 . S
C625 C626 1.357 . S
C626 C622 1.370 . S
C626 C625 1.357 . S
C626 H645 0.950 . S
Zn627 N621 2.020 . S
Zn627 O630 2.025 . S
Zn627 O635 2.024 . S
Zn627 O637 2.039 . S
Zn627 O639 2.034 . S
O628 C612 1.251 . S
O628 Zn619 2.039 . S
C629 O634 1.246 . S
C629 O635 1.249 . S
O630 C612 1.254 . S
O630 Zn627 2.025 . S
H631 C623 0.952 . S
H632 C614 0.952 . S
H633 C622 0.948 . S
O634 Zn619 2.034 . S
O634 C629 1.246 . S
O635 Zn627 2.024 . S
O635 C629 1.249 . S
H636 C618 0.948 . S
O637 Zn627 2.039 . S
O637 C641 1.251 . S
O638 Zn619 2.025 . S
O638 C641 1.254 . S
O639 C620 1.246 . S
O639 Zn627 2.034 . S
O640 Zn619 2.024 . S
O640 C620 1.249 . S
C641 O637 1.251 . S
C641 O638 1.254 . S
H642 C615 0.949 . S
H643 C617 0.950 . S
H644 C624 0.949 . S
H645 C626 0.950 . S
C646 O662 1.251 . S
C646 O664 1.254 . S
N647 C648 1.333 . S
N647 C652 1.307 . S
N647 Zn653 2.020 . S
C648 N647 1.333 . S
C648 C649 1.379 . S
C648 H666 0.952 . S
C649 C648 1.379 . S
C649 C650 1.390 . S
C649 H676 0.949 . S
C650 C649 1.390 . S
C650 C651 1.357 . S
C651 C650 1.357 . S
C651 C652 1.370 . S
C651 H677 0.950 . S
C652 N647 1.307 . S
C652 C651 1.370 . S
C652 H670 0.948 . S
Zn653 N647 2.020 . S
Zn653 O662 2.039 . S
Zn653 O668 2.034 . S
Zn653 O672 2.025 . S
Zn653 O674 2.024 . S
C654 O673 1.246 . S
C654 O674 1.249 . S
N655 C656 1.307 . S
N655 C657 1.333 . S
N655 Zn661 2.020 . S
C656 N655 1.307 . S
C656 C660 1.370 . S
C656 H667 0.948 . S
C657 N655 1.333 . S
C657 C658 1.379 . S
C657 H665 0.952 . S
C658 C657 1.379 . S
C658 C659 1.390 . S
C658 H678 0.949 . S
C659 C658 1.390 . S
C659 C660 1.357 . S
C660 C656 1.370 . S
C660 C659 1.357 . S
C660 H679 0.950 . S
Zn661 N655 2.020 . S
Zn661 O664 2.025 . S
Zn661 O669 2.024 . S
Zn661 O671 2.039 . S
Zn661 O673 2.034 . S
O662 C646 1.251 . S
O662 Zn653 2.039 . S
C663 O668 1.246 . S
C663 O669 1.249 . S
O664 C646 1.254 . S
O664 Zn661 2.025 . S
H665 C657 0.952 . S
H666 C648 0.952 . S
H667 C656 0.948 . S
O668 Zn653 2.034 . S
O668 C663 1.246 . S
O669 Zn661 2.024 . S
O669 C663 1.249 . S
H670 C652 0.948 . S
O671 Zn661 2.039 . S
O671 C675 1.251 . S
O672 Zn653 2.025 . S
O672 C675 1.254 . S
O673 C654 1.246 . S
O673 Zn661 2.034 . S
O674 Zn653 2.024 . S
O674 C654 1.249 . S
C675 O671 1.251 . S
C675 O672 1.254 . S
H676 C649 0.949 . S
H677 C651 0.950 . S
H678 C658 0.949 . S
H679 C660 0.950 . S
C680 O696 1.251 . S
C680 O698 1.254 . S
N681 C682 1.333 . S
N681 C686 1.307 . S
N681 Zn687 2.020 . S
C682 N681 1.333 . S
C682 C683 1.379 . S
C682 H700 0.952 . S
C683 C682 1.379 . S
C683 C684 1.390 . S
C683 H710 0.949 . S
C684 C683 1.390 . S
C684 C685 1.357 . S
C685 C684 1.357 . S
C685 C686 1.370 . S
C685 H711 0.950 . S
C686 N681 1.307 . S
C686 C685 1.370 . S
C686 H704 0.948 . S
Zn687 N681 2.020 . S
Zn687 O696 2.039 . S
Zn687 O702 2.034 . S
Zn687 O706 2.025 . S
Zn687 O708 2.024 . S
C688 O707 1.246 . S
C688 O708 1.249 . S
N689 C690 1.307 . S
N689 C691 1.333 . S
N689 Zn695 2.020 . S
C690 N689 1.307 . S
C690 C694 1.370 . S
C690 H701 0.948 . S
C691 N689 1.333 . S
C691 C692 1.379 . S
C691 H699 0.952 . S
C692 C691 1.379 . S
C692 C693 1.390 . S
C692 H712 0.949 . S
C693 C692 1.390 . S
C693 C694 1.357 . S
C694 C690 1.370 . S
C694 C693 1.357 . S
C694 H713 0.950 . S
Zn695 N689 2.020 . S
Zn695 O698 2.025 . S
Zn695 O703 2.024 . S
Zn695 O705 2.039 . S
Zn695 O707 2.034 . S
O696 C680 1.251 . S
O696 Zn687 2.039 . S
C697 O702 1.246 . S
C697 O703 1.249 . S
O698 C680 1.254 . S
O698 Zn695 2.025 . S
H699 C691 0.952 . S
H700 C682 0.952 . S
H701 C690 0.948 . S
O702 Zn687 2.034 . S
O702 C697 1.246 . S
O703 Zn695 2.024 . S
O703 C697 1.249 . S
H704 C686 0.948 . S
O705 Zn695 2.039 . S
O705 C709 1.251 . S
O706 Zn687 2.025 . S
O706 C709 1.254 . S
O707 C688 1.246 . S
O707 Zn695 2.034 . S
O708 Zn687 2.024 . S
O708 C688 1.249 . S
C709 O705 1.251 . S
C709 O706 1.254 . S
H710 C683 0.949 . S
H711 C685 0.950 . S
H712 C692 0.949 . S
H713 C694 0.950 . S
C714 O730 1.251 . S
C714 O732 1.254 . S
N715 C716 1.333 . S
N715 C720 1.307 . S
N715 Zn721 2.020 . S
C716 N715 1.333 . S
C716 C717 1.379 . S
C716 H734 0.952 . S
C717 C716 1.379 . S
C717 C718 1.390 . S
C717 H744 0.949 . S
C718 C717 1.390 . S
C718 C719 1.357 . S
C719 C718 1.357 . S
C719 C720 1.370 . S
C719 H745 0.950 1_545 S
C720 N715 1.307 . S
C720 C719 1.370 . S
C720 H738 0.948 . S
Zn721 N715 2.020 . S
Zn721 O730 2.039 . S
Zn721 O736 2.034 . S
Zn721 O740 2.025 . S
Zn721 O742 2.024 . S
C722 O741 1.246 . S
C722 O742 1.249 . S
N723 C724 1.307 . S
N723 C725 1.333 1_556 S
N723 Zn729 2.020 . S
C724 N723 1.307 . S
C724 C728 1.370 1_556 S
C724 H735 0.948 . S
C725 N723 1.333 1_554 S
C725 C726 1.379 . S
C725 H733 0.952 . S
C726 C725 1.379 . S
C726 C727 1.390 . S
C726 H746 0.949 . S
C727 C726 1.390 . S
C727 C728 1.357 . S
C728 C724 1.370 1_554 S
C728 C727 1.357 . S
C728 H747 0.950 . S
Zn729 N723 2.020 . S
Zn729 O732 2.025 . S
Zn729 O737 2.024 . S
Zn729 O739 2.039 . S
Zn729 O741 2.034 . S
O730 C714 1.251 . S
O730 Zn721 2.039 . S
C731 O736 1.246 . S
C731 O737 1.249 . S
O732 C714 1.254 . S
O732 Zn729 2.025 . S
H733 C725 0.952 . S
H734 C716 0.952 . S
H735 C724 0.948 . S
O736 Zn721 2.034 . S
O736 C731 1.246 . S
O737 Zn729 2.024 . S
O737 C731 1.249 . S
H738 C720 0.948 . S
O739 Zn729 2.039 . S
O739 C743 1.251 . S
O740 Zn721 2.025 . S
O740 C743 1.254 . S
O741 C722 1.246 . S
O741 Zn729 2.034 . S
O742 Zn721 2.024 . S
O742 C722 1.249 . S
C743 O739 1.251 . S
C743 O740 1.254 . S
H744 C717 0.949 . S
H745 C719 0.950 1_565 S
H746 C726 0.949 . S
H747 C728 0.950 . S
C748 O764 1.251 . S
C748 O766 1.254 . S
N749 C750 1.333 . S
N749 C754 1.307 . S
N749 Zn755 2.020 . S
C750 N749 1.333 . S
C750 C751 1.379 . S
C750 H768 0.952 . S
C751 C750 1.379 . S
C751 C752 1.390 . S
C751 H778 0.949 . S
C752 C751 1.390 . S
C752 C753 1.357 . S
C753 C752 1.357 . S
C753 C754 1.370 . S
C753 H779 0.950 1_655 S
C754 N749 1.307 . S
C754 C753 1.370 . S
C754 H772 0.948 . S
Zn755 N749 2.020 . S
Zn755 O764 2.039 . S
Zn755 O770 2.034 . S
Zn755 O774 2.025 . S
Zn755 O776 2.024 . S
C756 O775 1.246 . S
C756 O776 1.249 . S
N757 C758 1.307 . S
N757 C759 1.333 1_556 S
N757 Zn763 2.020 . S
C758 N757 1.307 . S
C758 C762 1.370 1_556 S
C758 H769 0.948 . S
C759 N757 1.333 1_554 S
C759 C760 1.379 . S
C759 H767 0.952 . S
C760 C759 1.379 . S
C760 C761 1.390 . S
C760 H780 0.949 . S
C761 C760 1.390 . S
C761 C762 1.357 . S
C762 C758 1.370 1_554 S
C762 C761 1.357 . S
C762 H781 0.950 . S
Zn763 N757 2.020 . S
Zn763 O766 2.025 . S
Zn763 O771 2.024 . S
Zn763 O773 2.039 . S
Zn763 O775 2.034 . S
O764 C748 1.251 . S
O764 Zn755 2.039 . S
C765 O770 1.246 . S
C765 O771 1.249 . S
O766 C748 1.254 . S
O766 Zn763 2.025 . S
H767 C759 0.952 . S
H768 C750 0.952 . S
H769 C758 0.948 . S
O770 Zn755 2.034 . S
O770 C765 1.246 . S
O771 Zn763 2.024 . S
O771 C765 1.249 . S
H772 C754 0.948 . S
O773 Zn763 2.039 . S
O773 C777 1.251 . S
O774 Zn755 2.025 . S
O774 C777 1.254 . S
O775 C756 1.246 . S
O775 Zn763 2.034 . S
O776 Zn755 2.024 . S
O776 C756 1.249 . S
C777 O773 1.251 . S
C777 O774 1.254 . S
H778 C751 0.949 . S
H779 C753 0.950 1_455 S
H780 C760 0.949 . S
H781 C762 0.950 . S
C782 O798 1.251 . S
C782 O800 1.254 . S
N783 C784 1.333 . S
N783 C788 1.307 . S
N783 Zn789 2.020 . S
C784 N783 1.333 . S
C784 C785 1.379 . S
C784 H802 0.952 . S
C785 C784 1.379 . S
C785 C786 1.390 . S
C785 H812 0.949 . S
C786 C785 1.390 . S
C786 C787 1.357 . S
C787 C786 1.357 . S
C787 C788 1.370 . S
C787 H813 0.950 . S
C788 N783 1.307 . S
C788 C787 1.370 . S
C788 H806 0.948 . S
Zn789 N783 2.020 . S
Zn789 O798 2.039 . S
Zn789 O804 2.034 . S
Zn789 O808 2.025 . S
Zn789 O810 2.024 . S
C790 O809 1.246 . S
C790 O810 1.249 . S
N791 C792 1.307 . S
N791 C793 1.333 1_556 S
N791 Zn797 2.020 . S
C792 N791 1.307 . S
C792 C796 1.370 1_556 S
C792 H803 0.948 . S
C793 N791 1.333 1_554 S
C793 C794 1.379 . S
C793 H801 0.952 . S
C794 C793 1.379 . S
C794 C795 1.390 . S
C794 H814 0.949 . S
C795 C794 1.390 . S
C795 C796 1.357 . S
C796 C792 1.370 1_554 S
C796 C795 1.357 . S
C796 H815 0.950 . S
Zn797 N791 2.020 . S
Zn797 O800 2.025 . S
Zn797 O805 2.024 . S
Zn797 O807 2.039 . S
Zn797 O809 2.034 . S
O798 C782 1.251 . S
O798 Zn789 2.039 . S
C799 O804 1.246 . S
C799 O805 1.249 . S
O800 C782 1.254 . S
O800 Zn797 2.025 . S
H801 C793 0.952 . S
H802 C784 0.952 . S
H803 C792 0.948 . S
O804 Zn789 2.034 . S
O804 C799 1.246 . S
O805 Zn797 2.024 . S
O805 C799 1.249 . S
H806 C788 0.948 . S
O807 Zn797 2.039 . S
O807 C811 1.251 . S
O808 Zn789 2.025 . S
O808 C811 1.254 . S
O809 C790 1.246 . S
O809 Zn797 2.034 . S
O810 Zn789 2.024 . S
O810 C790 1.249 . S
C811 O807 1.251 . S
C811 O808 1.254 . S
H812 C785 0.949 . S
H813 C787 0.950 . S
H814 C794 0.949 . S
H815 C796 0.950 . S
C816 O832 1.251 . S
C816 O834 1.254 . S
N817 C818 1.333 . S
N817 C822 1.307 . S
N817 Zn823 2.020 . S
C818 N817 1.333 . S
C818 C819 1.379 . S
C818 H836 0.952 . S
C819 C818 1.379 . S
C819 C820 1.390 . S
C819 H846 0.949 . S
C820 C819 1.390 . S
C820 C821 1.357 . S
C821 C820 1.357 . S
C821 C822 1.370 . S
C821 H847 0.950 . S
C822 N817 1.307 . S
C822 C821 1.370 . S
C822 H840 0.948 . S
Zn823 N817 2.020 . S
Zn823 O832 2.039 . S
Zn823 O838 2.034 . S
Zn823 O842 2.025 . S
Zn823 O844 2.024 . S
C824 O843 1.246 . S
C824 O844 1.249 . S
N825 C826 1.307 . S
N825 C827 1.333 . S
N825 Zn831 2.020 . S
C826 N825 1.307 . S
C826 C830 1.370 . S
C826 H837 0.948 . S
C827 N825 1.333 . S
C827 C828 1.379 . S
C827 H835 0.952 . S
C828 C827 1.379 . S
C828 C829 1.390 . S
C828 H848 0.949 . S
C829 C828 1.390 . S
C829 C830 1.357 . S
C830 C826 1.370 . S
C830 C829 1.357 . S
C830 H849 0.950 . S
Zn831 N825 2.020 . S
Zn831 O834 2.025 . S
Zn831 O839 2.024 . S
Zn831 O841 2.039 . S
Zn831 O843 2.034 . S
O832 C816 1.251 . S
O832 Zn823 2.039 . S
C833 O838 1.246 . S
C833 O839 1.249 . S
O834 C816 1.254 . S
O834 Zn831 2.025 . S
H835 C827 0.952 . S
H836 C818 0.952 . S
H837 C826 0.948 . S
O838 Zn823 2.034 . S
O838 C833 1.246 . S
O839 Zn831 2.024 . S
O839 C833 1.249 . S
H840 C822 0.948 . S
O841 Zn831 2.039 . S
O841 C845 1.251 . S
O842 Zn823 2.025 . S
O842 C845 1.254 . S
O843 C824 1.246 . S
O843 Zn831 2.034 . S
O844 Zn823 2.024 . S
O844 C824 1.249 . S
C845 O841 1.251 . S
C845 O842 1.254 . S
H846 C819 0.949 . S
H847 C821 0.950 . S
H848 C828 0.949 . S
H849 C830 0.950 . S
C850 O866 1.251 . S
C850 O868 1.254 . S
N851 C852 1.333 . S
N851 C856 1.307 . S
N851 Zn857 2.020 . S
C852 N851 1.333 . S
C852 C853 1.379 . S
C852 H870 0.952 . S
C853 C852 1.379 . S
C853 C854 1.390 . S
C853 H880 0.949 . S
C854 C853 1.390 . S
C854 C855 1.357 . S
C855 C854 1.357 . S
C855 C856 1.370 . S
C855 H881 0.950 . S
C856 N851 1.307 . S
C856 C855 1.370 . S
C856 H874 0.948 . S
Zn857 N851 2.020 . S
Zn857 O866 2.039 . S
Zn857 O872 2.034 . S
Zn857 O876 2.025 . S
Zn857 O878 2.024 . S
C858 O877 1.246 . S
C858 O878 1.249 . S
N859 C860 1.307 . S
N859 C861 1.333 . S
N859 Zn865 2.020 . S
C860 N859 1.307 . S
C860 C864 1.370 . S
C860 H871 0.948 . S
C861 N859 1.333 . S
C861 C862 1.379 . S
C861 H869 0.952 . S
C862 C861 1.379 . S
C862 C863 1.390 . S
C862 H882 0.949 . S
C863 C862 1.390 . S
C863 C864 1.357 . S
C864 C860 1.370 . S
C864 C863 1.357 . S
C864 H883 0.950 . S
Zn865 N859 2.020 . S
Zn865 O868 2.025 . S
Zn865 O873 2.024 . S
Zn865 O875 2.039 . S
Zn865 O877 2.034 . S
O866 C850 1.251 . S
O866 Zn857 2.039 . S
C867 O872 1.246 . S
C867 O873 1.249 . S
O868 C850 1.254 . S
O868 Zn865 2.025 . S
H869 C861 0.952 . S
H870 C852 0.952 . S
H871 C860 0.948 . S
O872 Zn857 2.034 . S
O872 C867 1.246 . S
O873 Zn865 2.024 . S
O873 C867 1.249 . S
H874 C856 0.948 . S
O875 Zn865 2.039 . S
O875 C879 1.251 . S
O876 Zn857 2.025 . S
O876 C879 1.254 . S
O877 C858 1.246 . S
O877 Zn865 2.034 . S
O878 Zn857 2.024 . S
O878 C858 1.249 . S
C879 O875 1.251 . S
C879 O876 1.254 . S
H880 C853 0.949 . S
H881 C855 0.950 . S
H882 C862 0.949 . S
H883 C864 0.950 . S
C884 O900 1.251 . S
C884 O902 1.254 . S
N885 C886 1.333 . S
N885 C890 1.307 . S
N885 Zn891 2.020 . S
C886 N885 1.333 . S
C886 C887 1.379 . S
C886 H904 0.952 . S
C887 C886 1.379 . S
C887 C888 1.390 . S
C887 H914 0.949 . S
C888 C887 1.390 . S
C888 C889 1.357 . S
C889 C888 1.357 . S
C889 C890 1.370 . S
C889 H915 0.950 . S
C890 N885 1.307 . S
C890 C889 1.370 . S
C890 H908 0.948 . S
Zn891 N885 2.020 . S
Zn891 O900 2.039 . S
Zn891 O906 2.034 . S
Zn891 O910 2.025 . S
Zn891 O912 2.024 . S
C892 O911 1.246 . S
C892 O912 1.249 . S
N893 C894 1.307 . S
N893 C895 1.333 . S
N893 Zn899 2.020 . S
C894 N893 1.307 . S
C894 C898 1.370 . S
C894 H905 0.948 . S
C895 N893 1.333 . S
C895 C896 1.379 . S
C895 H903 0.952 . S
C896 C895 1.379 . S
C896 C897 1.390 . S
C896 H916 0.949 . S
C897 C896 1.390 . S
C897 C898 1.357 . S
C898 C894 1.370 . S
C898 C897 1.357 . S
C898 H917 0.950 . S
Zn899 N893 2.020 . S
Zn899 O902 2.025 . S
Zn899 O907 2.024 . S
Zn899 O909 2.039 . S
Zn899 O911 2.034 . S
O900 C884 1.251 . S
O900 Zn891 2.039 . S
C901 O906 1.246 . S
C901 O907 1.249 . S
O902 C884 1.254 . S
O902 Zn899 2.025 . S
H903 C895 0.952 . S
H904 C886 0.952 . S
H905 C894 0.948 . S
O906 Zn891 2.034 . S
O906 C901 1.246 . S
O907 Zn899 2.024 . S
O907 C901 1.249 . S
H908 C890 0.948 . S
O909 Zn899 2.039 . S
O909 C913 1.251 . S
O910 Zn891 2.025 . S
O910 C913 1.254 . S
O911 C892 1.246 . S
O911 Zn899 2.034 . S
O912 Zn891 2.024 . S
O912 C892 1.249 . S
C913 O909 1.251 . S
C913 O910 1.254 . S
H914 C887 0.949 . S
H915 C889 0.950 . S
H916 C896 0.949 . S
H917 C898 0.950 . S
C918 O934 1.251 . S
C918 O936 1.254 . S
N919 C920 1.333 1_554 S
N919 C924 1.307 . S
N919 Zn925 2.020 . S
C920 N919 1.333 1_556 S
C920 C921 1.379 . S
C920 H938 0.952 . S
C921 C920 1.379 . S
C921 C922 1.390 . S
C921 H948 0.949 . S
C922 C921 1.390 . S
C922 C923 1.357 . S
C923 C922 1.357 . S
C923 C924 1.370 1_556 S
C923 H949 0.950 . S
C924 N919 1.307 . S
C924 C923 1.370 1_554 S
C924 H942 0.948 . S
Zn925 N919 2.020 . S
Zn925 O934 2.039 . S
Zn925 O940 2.034 . S
Zn925 O944 2.025 . S
Zn925 O946 2.024 . S
C926 O945 1.246 . S
C926 O946 1.249 . S
N927 C928 1.307 . S
N927 C929 1.333 . S
N927 Zn933 2.020 . S
C928 N927 1.307 . S
C928 C932 1.370 . S
C928 H939 0.948 . S
C929 N927 1.333 . S
C929 C930 1.379 . S
C929 H937 0.952 . S
C930 C929 1.379 . S
C930 C931 1.390 . S
C930 H950 0.949 . S
C931 C930 1.390 . S
C931 C932 1.357 . S
C932 C928 1.370 . S
C932 C931 1.357 . S
C932 H951 0.950 1_565 S
Zn933 N927 2.020 . S
Zn933 O936 2.025 . S
Zn933 O941 2.024 . S
Zn933 O943 2.039 . S
Zn933 O945 2.034 . S
O934 C918 1.251 . S
O934 Zn925 2.039 . S
C935 O940 1.246 . S
C935 O941 1.249 . S
O936 C918 1.254 . S
O936 Zn933 2.025 . S
H937 C929 0.952 . S
H938 C920 0.952 . S
H939 C928 0.948 . S
O940 Zn925 2.034 . S
O940 C935 1.246 . S
O941 Zn933 2.024 . S
O941 C935 1.249 . S
H942 C924 0.948 . S
O943 Zn933 2.039 . S
O943 C947 1.251 . S
O944 Zn925 2.025 . S
O944 C947 1.254 . S
O945 C926 1.246 . S
O945 Zn933 2.034 . S
O946 Zn925 2.024 . S
O946 C926 1.249 . S
C947 O943 1.251 . S
C947 O944 1.254 . S
H948 C921 0.949 . S
H949 C923 0.950 . S
H950 C930 0.949 . S
H951 C932 0.950 1_545 S
C952 O968 1.251 . S
C952 O970 1.254 . S
N953 C954 1.333 1_554 S
N953 C958 1.307 . S
N953 Zn959 2.020 . S
C954 N953 1.333 1_556 S
C954 C955 1.379 . S
C954 H972 0.952 . S
C955 C954 1.379 . S
C955 C956 1.390 . S
C955 H982 0.949 . S
C956 C955 1.390 . S
C956 C957 1.357 . S
C957 C956 1.357 . S
C957 C958 1.370 1_556 S
C957 H983 0.950 . S
C958 N953 1.307 . S
C958 C957 1.370 1_554 S
C958 H976 0.948 . S
Zn959 N953 2.020 . S
Zn959 O968 2.039 . S
Zn959 O974 2.034 . S
Zn959 O978 2.025 . S
Zn959 O980 2.024 . S
C960 O979 1.246 . S
C960 O980 1.249 . S
N961 C962 1.307 . S
N961 C963 1.333 . S
N961 Zn967 2.020 . S
C962 N961 1.307 . S
C962 C966 1.370 . S
C962 H973 0.948 . S
C963 N961 1.333 . S
C963 C964 1.379 . S
C963 H971 0.952 . S
C964 C963 1.379 . S
C964 C965 1.390 . S
C964 H984 0.949 . S
C965 C964 1.390 . S
C965 C966 1.357 . S
C966 C962 1.370 . S
C966 C965 1.357 . S
C966 H985 0.950 1_455 S
Zn967 N961 2.020 . S
Zn967 O970 2.025 . S
Zn967 O975 2.024 . S
Zn967 O977 2.039 . S
Zn967 O979 2.034 . S
O968 C952 1.251 . S
O968 Zn959 2.039 . S
C969 O974 1.246 . S
C969 O975 1.249 . S
O970 C952 1.254 . S
O970 Zn967 2.025 . S
H971 C963 0.952 . S
H972 C954 0.952 . S
H973 C962 0.948 . S
O974 Zn959 2.034 . S
O974 C969 1.246 . S
O975 Zn967 2.024 . S
O975 C969 1.249 . S
H976 C958 0.948 . S
O977 Zn967 2.039 . S
O977 C981 1.251 . S
O978 Zn959 2.025 . S
O978 C981 1.254 . S
O979 C960 1.246 . S
O979 Zn967 2.034 . S
O980 Zn959 2.024 . S
O980 C960 1.249 . S
C981 O977 1.251 . S
C981 O978 1.254 . S
H982 C955 0.949 . S
H983 C957 0.950 . S
H984 C964 0.949 . S
H985 C966 0.950 1_655 S
C986 O1002 1.251 . S
C986 O1004 1.254 . S
N987 C988 1.333 1_554 S
N987 C992 1.307 . S
N987 Zn993 2.020 . S
C988 N987 1.333 1_556 S
C988 C989 1.379 . S
C988 H1006 0.952 . S
C989 C988 1.379 . S
C989 C990 1.390 . S
C989 H1016 0.949 . S
C990 C989 1.390 . S
C990 C991 1.357 . S
C991 C990 1.357 . S
C991 C992 1.370 1_556 S
C991 H1017 0.950 . S
C992 N987 1.307 . S
C992 C991 1.370 1_554 S
C992 H1010 0.948 . S
Zn993 N987 2.020 . S
Zn993 O1002 2.039 . S
Zn993 O1008 2.034 . S
Zn993 O1012 2.025 . S
Zn993 O1014 2.024 . S
C994 O1013 1.246 . S
C994 O1014 1.249 . S
N995 C996 1.307 . S
N995 C997 1.333 . S
N995 Zn1001 2.020 . S
C996 N995 1.307 . S
C996 C1000 1.370 . S
C996 H1007 0.948 . S
C997 N995 1.333 . S
C997 C998 1.379 . S
C997 H1005 0.952 . S
C998 C997 1.379 . S
C998 C999 1.390 . S
C998 H1018 0.949 . S
C999 C998 1.390 . S
C999 C1000 1.357 . S
C1000 C996 1.370 . S
C1000 C999 1.357 . S
C1000 H1019 0.950 . S
Zn1001 N995 2.020 . S
Zn1001 O1004 2.025 . S
Zn1001 O1009 2.024 . S
Zn1001 O1011 2.039 . S
Zn1001 O1013 2.034 . S
O1002 C986 1.251 . S
O1002 Zn993 2.039 . S
C1003 O1008 1.246 . S
C1003 O1009 1.249 . S
O1004 C986 1.254 . S
O1004 Zn1001 2.025 . S
H1005 C997 0.952 . S
H1006 C988 0.952 . S
H1007 C996 0.948 . S
O1008 Zn993 2.034 . S
O1008 C1003 1.246 . S
O1009 Zn1001 2.024 . S
O1009 C1003 1.249 . S
H1010 C992 0.948 . S
O1011 Zn1001 2.039 . S
O1011 C1015 1.251 . S
O1012 Zn993 2.025 . S
O1012 C1015 1.254 . S
O1013 C994 1.246 . S
O1013 Zn1001 2.034 . S
O1014 Zn993 2.024 . S
O1014 C994 1.249 . S
C1015 O1011 1.251 . S
C1015 O1012 1.254 . S
H1016 C989 0.949 . S
H1017 C991 0.950 . S
H1018 C998 0.949 . S
H1019 C1000 0.950 . S
C1020 O1036 1.251 . S
C1020 O1038 1.254 . S
N1021 C1022 1.333 . S
N1021 C1026 1.307 . S
N1021 Zn1027 2.020 . S
C1022 N1021 1.333 . S
C1022 C1023 1.379 . S
C1022 H1040 0.952 . S
C1023 C1022 1.379 . S
C1023 C1024 1.390 . S
C1023 H1050 0.949 . S
C1024 C1023 1.390 . S
C1024 C1025 1.357 . S
C1025 C1024 1.357 . S
C1025 C1026 1.370 . S
C1025 H1051 0.950 . S
C1026 N1021 1.307 . S
C1026 C1025 1.370 . S
C1026 H1044 0.948 . S
Zn1027 N1021 2.020 . S
Zn1027 O1036 2.039 . S
Zn1027 O1042 2.034 . S
Zn1027 O1046 2.025 . S
Zn1027 O1048 2.024 . S
C1028 O1047 1.246 . S
C1028 O1048 1.249 . S
N1029 C1030 1.307 . S
N1029 C1031 1.333 . S
N1029 Zn1035 2.020 . S
C1030 N1029 1.307 . S
C1030 C1034 1.370 1_455 S
C1030 H1041 0.948 . S
C1031 N1029 1.333 . S
C1031 C1032 1.379 . S
C1031 H1039 0.952 . S
C1032 C1031 1.379 . S
C1032 C1033 1.390 1_455 S
C1032 H1052 0.949 . S
C1033 C1032 1.390 1_655 S
C1033 C1034 1.357 . S
C1034 C1030 1.370 1_655 S
C1034 C1033 1.357 . S
C1034 H1053 0.950 . S
Zn1035 N1029 2.020 . S
Zn1035 O1038 2.025 . S
Zn1035 O1043 2.024 . S
Zn1035 O1045 2.039 . S
Zn1035 O1047 2.034 . S
O1036 C1020 1.251 . S
O1036 Zn1027 2.039 . S
C1037 O1042 1.246 . S
C1037 O1043 1.249 . S
O1038 C1020 1.254 . S
O1038 Zn1035 2.025 . S
H1039 C1031 0.952 . S
H1040 C1022 0.952 . S
H1041 C1030 0.948 . S
O1042 Zn1027 2.034 . S
O1042 C1037 1.246 . S
O1043 Zn1035 2.024 . S
O1043 C1037 1.249 . S
H1044 C1026 0.948 . S
O1045 Zn1035 2.039 . S
O1045 C1049 1.251 . S
O1046 Zn1027 2.025 . S
O1046 C1049 1.254 . S
O1047 C1028 1.246 . S
O1047 Zn1035 2.034 . S
O1048 Zn1027 2.024 . S
O1048 C1028 1.249 . S
C1049 O1045 1.251 . S
C1049 O1046 1.254 . S
H1050 C1023 0.949 . S
H1051 C1025 0.950 . S
H1052 C1032 0.949 . S
H1053 C1034 0.950 . S
C1054 O1070 1.251 . S
C1054 O1072 1.254 . S
N1055 C1056 1.333 . S
N1055 C1060 1.307 . S
N1055 Zn1061 2.020 . S
C1056 N1055 1.333 . S
C1056 C1057 1.379 . S
C1056 H1074 0.952 . S
C1057 C1056 1.379 . S
C1057 C1058 1.390 . S
C1057 H1084 0.949 . S
C1058 C1057 1.390 . S
C1058 C1059 1.357 . S
C1059 C1058 1.357 . S
C1059 C1060 1.370 . S
C1059 H1085 0.950 . S
C1060 N1055 1.307 . S
C1060 C1059 1.370 . S
C1060 H1078 0.948 . S
Zn1061 N1055 2.020 . S
Zn1061 O1070 2.039 . S
Zn1061 O1076 2.034 . S
Zn1061 O1080 2.025 . S
Zn1061 O1082 2.024 . S
C1062 O1081 1.246 . S
C1062 O1082 1.249 . S
N1063 C1064 1.307 . S
N1063 C1065 1.333 . S
N1063 Zn1069 2.020 . S
C1064 N1063 1.307 . S
C1064 C1068 1.370 . S
C1064 H1075 0.948 . S
C1065 N1063 1.333 . S
C1065 C1066 1.379 . S
C1065 H1073 0.952 . S
C1066 C1065 1.379 . S
C1066 C1067 1.390 . S
C1066 H1086 0.949 . S
C1067 C1066 1.390 . S
C1067 C1068 1.357 . S
C1068 C1064 1.370 . S
C1068 C1067 1.357 . S
C1068 H1087 0.950 . S
Zn1069 N1063 2.020 . S
Zn1069 O1072 2.025 . S
Zn1069 O1077 2.024 . S
Zn1069 O1079 2.039 . S
Zn1069 O1081 2.034 . S
O1070 C1054 1.251 . S
O1070 Zn1061 2.039 . S
C1071 O1076 1.246 . S
C1071 O1077 1.249 . S
O1072 C1054 1.254 . S
O1072 Zn1069 2.025 . S
H1073 C1065 0.952 . S
H1074 C1056 0.952 . S
H1075 C1064 0.948 . S
O1076 Zn1061 2.034 . S
O1076 C1071 1.246 . S
O1077 Zn1069 2.024 . S
O1077 C1071 1.249 . S
H1078 C1060 0.948 . S
O1079 Zn1069 2.039 . S
O1079 C1083 1.251 . S
O1080 Zn1061 2.025 . S
O1080 C1083 1.254 . S
O1081 C1062 1.246 . S
O1081 Zn1069 2.034 . S
O1082 Zn1061 2.024 . S
O1082 C1062 1.249 . S
C1083 O1079 1.251 . S
C1083 O1080 1.254 . S
H1084 C1057 0.949 . S
H1085 C1059 0.950 . S
H1086 C1066 0.949 . S
H1087 C1068 0.950 . S
C1088 O1104 1.251 . S
C1088 O1106 1.254 . S
N1089 C1090 1.333 . S
N1089 C1094 1.307 . S
N1089 Zn1095 2.020 . S
C1090 N1089 1.333 . S
C1090 C1091 1.379 . S
C1090 H1108 0.952 . S
C1091 C1090 1.379 . S
C1091 C1092 1.390 . S
C1091 H1118 0.949 . S
C1092 C1091 1.390 . S
C1092 C1093 1.357 . S
C1093 C1092 1.357 . S
C1093 C1094 1.370 . S
C1093 H1119 0.950 . S
C1094 N1089 1.307 . S
C1094 C1093 1.370 . S
C1094 H1112 0.948 . S
Zn1095 N1089 2.020 . S
Zn1095 O1104 2.039 . S
Zn1095 O1110 2.034 . S
Zn1095 O1114 2.025 . S
Zn1095 O1116 2.024 . S
C1096 O1115 1.246 . S
C1096 O1116 1.249 . S
N1097 C1098 1.307 . S
N1097 C1099 1.333 . S
N1097 Zn1103 2.020 . S
C1098 N1097 1.307 . S
C1098 C1102 1.370 1_565 S
C1098 H1109 0.948 . S
C1099 N1097 1.333 . S
C1099 C1100 1.379 . S
C1099 H1107 0.952 . S
C1100 C1099 1.379 . S
C1100 C1101 1.390 1_565 S
C1100 H1120 0.949 . S
C1101 C1100 1.390 1_545 S
C1101 C1102 1.357 . S
C1102 C1098 1.370 1_545 S
C1102 C1101 1.357 . S
C1102 H1121 0.950 . S
Zn1103 N1097 2.020 . S
Zn1103 O1106 2.025 . S
Zn1103 O1111 2.024 . S
Zn1103 O1113 2.039 . S
Zn1103 O1115 2.034 . S
O1104 C1088 1.251 . S
O1104 Zn1095 2.039 . S
C1105 O1110 1.246 . S
C1105 O1111 1.249 . S
O1106 C1088 1.254 . S
O1106 Zn1103 2.025 . S
H1107 C1099 0.952 . S
H1108 C1090 0.952 . S
H1109 C1098 0.948 . S
O1110 Zn1095 2.034 . S
O1110 C1105 1.246 . S
O1111 Zn1103 2.024 . S
O1111 C1105 1.249 . S
H1112 C1094 0.948 . S
O1113 Zn1103 2.039 . S
O1113 C1117 1.251 . S
O1114 Zn1095 2.025 . S
O1114 C1117 1.254 . S
O1115 C1096 1.246 . S
O1115 Zn1103 2.034 . S
O1116 Zn1095 2.024 . S
O1116 C1096 1.249 . S
C1117 O1113 1.251 . S
C1117 O1114 1.254 . S
H1118 C1091 0.949 . S
H1119 C1093 0.950 . S
H1120 C1100 0.949 . S
H1121 C1102 0.950 . S
C1122 O1138 1.251 . S
C1122 O1140 1.254 . S
N1123 C1124 1.333 . S
N1123 C1128 1.307 . S
N1123 Zn1129 2.020 . S
C1124 N1123 1.333 . S
C1124 C1125 1.379 . S
C1124 H1142 0.952 . S
C1125 C1124 1.379 . S
C1125 C1126 1.390 . S
C1125 H1152 0.949 . S
C1126 C1125 1.390 . S
C1126 C1127 1.357 . S
C1127 C1126 1.357 . S
C1127 C1128 1.370 . S
C1127 H1153 0.950 . S
C1128 N1123 1.307 . S
C1128 C1127 1.370 . S
C1128 H1146 0.948 . S
Zn1129 N1123 2.020 . S
Zn1129 O1138 2.039 . S
Zn1129 O1144 2.034 . S
Zn1129 O1148 2.025 . S
Zn1129 O1150 2.024 . S
C1130 O1149 1.246 . S
C1130 O1150 1.249 . S
N1131 C1132 1.307 . S
N1131 C1133 1.333 . S
N1131 Zn1137 2.020 . S
C1132 N1131 1.307 . S
C1132 C1136 1.370 . S
C1132 H1143 0.948 . S
C1133 N1131 1.333 . S
C1133 C1134 1.379 . S
C1133 H1141 0.952 . S
C1134 C1133 1.379 . S
C1134 C1135 1.390 . S
C1134 H1154 0.949 . S
C1135 C1134 1.390 . S
C1135 C1136 1.357 . S
C1136 C1132 1.370 . S
C1136 C1135 1.357 . S
C1136 H1155 0.950 . S
Zn1137 N1131 2.020 . S
Zn1137 O1140 2.025 . S
Zn1137 O1145 2.024 . S
Zn1137 O1147 2.039 . S
Zn1137 O1149 2.034 . S
O1138 C1122 1.251 . S
O1138 Zn1129 2.039 . S
C1139 O1144 1.246 . S
C1139 O1145 1.249 . S
O1140 C1122 1.254 . S
O1140 Zn1137 2.025 . S
H1141 C1133 0.952 . S
H1142 C1124 0.952 . S
H1143 C1132 0.948 . S
O1144 Zn1129 2.034 . S
O1144 C1139 1.246 . S
O1145 Zn1137 2.024 . S
O1145 C1139 1.249 . S
H1146 C1128 0.948 . S
O1147 Zn1137 2.039 . S
O1147 C1151 1.251 . S
O1148 Zn1129 2.025 . S
O1148 C1151 1.254 . S
O1149 C1130 1.246 . S
O1149 Zn1137 2.034 . S
O1150 Zn1129 2.024 . S
O1150 C1130 1.249 . S
C1151 O1147 1.251 . S
C1151 O1148 1.254 . S
H1152 C1125 0.949 . S
H1153 C1127 0.950 . S
H1154 C1134 0.949 . S
H1155 C1136 0.950 . S
C1156 O1172 1.251 . S
C1156 O1174 1.254 . S
N1157 C1158 1.333 . S
N1157 C1162 1.307 . S
N1157 Zn1163 2.020 . S
C1158 N1157 1.333 . S
C1158 C1159 1.379 . S
C1158 H1176 0.952 . S
C1159 C1158 1.379 . S
C1159 C1160 1.390 . S
C1159 H1186 0.949 . S
C1160 C1159 1.390 . S
C1160 C1161 1.357 . S
C1161 C1160 1.357 . S
C1161 C1162 1.370 . S
C1161 H1187 0.950 . S
C1162 N1157 1.307 . S
C1162 C1161 1.370 . S
C1162 H1180 0.948 . S
Zn1163 N1157 2.020 . S
Zn1163 O1172 2.039 . S
Zn1163 O1178 2.034 . S
Zn1163 O1182 2.025 . S
Zn1163 O1184 2.024 . S
C1164 O1183 1.246 . S
C1164 O1184 1.249 . S
N1165 C1166 1.307 . S
N1165 C1167 1.333 . S
N1165 Zn1171 2.020 . S
C1166 N1165 1.307 . S
C1166 C1170 1.370 . S
C1166 H1177 0.948 . S
C1167 N1165 1.333 . S
C1167 C1168 1.379 . S
C1167 H1175 0.952 . S
C1168 C1167 1.379 . S
C1168 C1169 1.390 . S
C1168 H1188 0.949 . S
C1169 C1168 1.390 . S
C1169 C1170 1.357 . S
C1170 C1166 1.370 . S
C1170 C1169 1.357 . S
C1170 H1189 0.950 . S
Zn1171 N1165 2.020 . S
Zn1171 O1174 2.025 . S
Zn1171 O1179 2.024 . S
Zn1171 O1181 2.039 . S
Zn1171 O1183 2.034 . S
O1172 C1156 1.251 . S
O1172 Zn1163 2.039 . S
C1173 O1178 1.246 . S
C1173 O1179 1.249 . S
O1174 C1156 1.254 . S
O1174 Zn1171 2.025 . S
H1175 C1167 0.952 . S
H1176 C1158 0.952 . S
H1177 C1166 0.948 . S
O1178 Zn1163 2.034 . S
O1178 C1173 1.246 . S
O1179 Zn1171 2.024 . S
O1179 C1173 1.249 . S
H1180 C1162 0.948 . S
O1181 Zn1171 2.039 . S
O1181 C1185 1.251 . S
O1182 Zn1163 2.025 . S
O1182 C1185 1.254 . S
O1183 C1164 1.246 . S
O1183 Zn1171 2.034 . S
O1184 Zn1163 2.024 . S
O1184 C1164 1.249 . S
C1185 O1181 1.251 . S
C1185 O1182 1.254 . S
H1186 C1159 0.949 . S
H1187 C1161 0.950 . S
H1188 C1168 0.949 . S
H1189 C1170 0.950 . S
C1190 O1206 1.251 . S
C1190 O1208 1.254 . S
N1191 C1192 1.333 . S
N1191 C1196 1.307 . S
N1191 Zn1197 2.020 . S
C1192 N1191 1.333 . S
C1192 C1193 1.379 . S
C1192 H1210 0.952 . S
C1193 C1192 1.379 . S
C1193 C1194 1.390 . S
C1193 H1220 0.949 . S
C1194 C1193 1.390 . S
C1194 C1195 1.357 . S
C1195 C1194 1.357 . S
C1195 C1196 1.370 . S
C1195 H1221 0.950 . S
C1196 N1191 1.307 . S
C1196 C1195 1.370 . S
C1196 H1214 0.948 . S
Zn1197 N1191 2.020 . S
Zn1197 O1206 2.039 . S
Zn1197 O1212 2.034 . S
Zn1197 O1216 2.025 . S
Zn1197 O1218 2.024 . S
C1198 O1217 1.246 . S
C1198 O1218 1.249 . S
N1199 C1200 1.307 . S
N1199 C1201 1.333 . S
N1199 Zn1205 2.020 . S
C1200 N1199 1.307 . S
C1200 C1204 1.370 . S
C1200 H1211 0.948 . S
C1201 N1199 1.333 . S
C1201 C1202 1.379 . S
C1201 H1209 0.952 . S
C1202 C1201 1.379 . S
C1202 C1203 1.390 . S
C1202 H1222 0.949 . S
C1203 C1202 1.390 . S
C1203 C1204 1.357 . S
C1204 C1200 1.370 . S
C1204 C1203 1.357 . S
C1204 H1223 0.950 . S
Zn1205 N1199 2.020 . S
Zn1205 O1208 2.025 . S
Zn1205 O1213 2.024 . S
Zn1205 O1215 2.039 . S
Zn1205 O1217 2.034 . S
O1206 C1190 1.251 . S
O1206 Zn1197 2.039 . S
C1207 O1212 1.246 . S
C1207 O1213 1.249 . S
O1208 C1190 1.254 . S
O1208 Zn1205 2.025 . S
H1209 C1201 0.952 . S
H1210 C1192 0.952 . S
H1211 C1200 0.948 . S
O1212 Zn1197 2.034 . S
O1212 C1207 1.246 . S
O1213 Zn1205 2.024 . S
O1213 C1207 1.249 . S
H1214 C1196 0.948 . S
O1215 Zn1205 2.039 . S
O1215 C1219 1.251 . S
O1216 Zn1197 2.025 . S
O1216 C1219 1.254 . S
O1217 C1198 1.246 . S
O1217 Zn1205 2.034 . S
O1218 Zn1197 2.024 . S
O1218 C1198 1.249 . S
C1219 O1215 1.251 . S
C1219 O1216 1.254 . S
H1220 C1193 0.949 . S
H1221 C1195 0.950 . S
H1222 C1202 0.949 . S
H1223 C1204 0.950 . S
C1224 C1225 1.387 . S
C1224 H1228 0.950 1_554 S
C1224 C1233 1.383 1_554 S
C1225 C1224 1.387 . S
C1225 C1227 1.387 . S
H1226 C1233 0.969 . S
C1227 C1225 1.387 . S
C1227 C1229 1.390 . S
C1227 H1231 0.950 . S
H1228 C1224 0.950 1_556 S
C1229 C1227 1.390 . S
C1229 C1230 1.387 . S
C1229 H1232 0.950 . S
C1230 C1229 1.387 . S
C1230 C1233 1.376 1_554 S
H1231 C1227 0.950 . S
H1232 C1229 0.950 . S
C1233 C1224 1.383 1_556 S
C1233 H1226 0.969 . S
C1233 C1230 1.376 1_556 S
C1234 C1235 1.387 . S
C1234 H1238 0.950 . S
C1234 C1243 1.390 . S
C1235 C1234 1.387 . S
C1235 C1237 1.387 . S
H1236 C1243 0.950 . S
C1237 C1235 1.387 . S
C1237 C1239 1.390 . S
C1237 H1241 0.950 . S
H1238 C1234 0.950 . S
C1239 C1237 1.390 . S
C1239 C1240 1.387 . S
C1239 H1242 0.950 . S
C1240 C1239 1.387 . S
C1240 C1243 1.387 . S
H1241 C1237 0.950 . S
H1242 C1239 0.950 . S
C1243 C1234 1.390 . S
C1243 H1236 0.950 . S
C1243 C1240 1.387 . S
C1244 C1245 1.387 . S
C1244 H1248 0.950 . S
C1244 C1253 1.390 . S
C1245 C1244 1.387 . S
C1245 C1247 1.387 . S
H1246 C1253 0.950 . S
C1247 C1245 1.387 . S
C1247 C1249 1.390 . S
C1247 H1251 0.950 1_554 S
H1248 C1244 0.950 . S
C1249 C1247 1.390 . S
C1249 C1250 1.387 . S
C1249 H1252 0.950 . S
C1250 C1249 1.387 . S
C1250 C1253 1.387 . S
H1251 C1247 0.950 1_556 S
H1252 C1249 0.950 . S
C1253 C1244 1.390 . S
C1253 H1246 0.950 . S
C1253 C1250 1.387 . S
C1254 C1255 1.387 . S
C1254 H1258 0.950 . S
C1254 C1263 1.390 . S
C1255 C1254 1.387 . S
C1255 C1257 1.387 . S
H1256 C1263 0.950 . S
C1257 C1255 1.387 . S
C1257 C1259 1.390 . S
C1257 H1261 0.950 . S
H1258 C1254 0.950 . S
C1259 C1257 1.390 . S
C1259 C1260 1.387 . S
C1259 H1262 0.950 . S
C1260 C1259 1.387 . S
C1260 C1263 1.387 . S
H1261 C1257 0.950 . S
H1262 C1259 0.950 . S
C1263 C1254 1.390 . S
C1263 H1256 0.950 . S
C1263 C1260 1.387 . S
C1264 C1265 1.387 . S
C1264 H1268 0.950 . S
C1264 C1273 1.390 . S
C1265 C1264 1.387 . S
C1265 C1267 1.387 . S
H1266 C1273 0.950 . S
C1267 C1265 1.387 . S
C1267 C1269 1.390 . S
C1267 H1271 0.950 . S
H1268 C1264 0.950 . S
C1269 C1267 1.390 . S
C1269 C1270 1.387 . S
C1269 H1272 0.950 . S
C1270 C1269 1.387 . S
C1270 C1273 1.387 . S
H1271 C1267 0.950 . S
H1272 C1269 0.950 . S
C1273 C1264 1.390 . S
C1273 H1266 0.950 . S
C1273 C1270 1.387 . S
C1274 C1275 1.387 . S
C1274 H1278 0.950 . S
C1274 C1283 1.390 . S
C1275 C1274 1.387 . S
C1275 C1277 1.387 . S
H1276 C1283 0.950 . S
C1277 C1275 1.387 . S
C1277 C1279 1.390 . S
C1277 H1281 0.950 . S
H1278 C1274 0.950 . S
C1279 C1277 1.390 . S
C1279 C1280 1.387 . S
C1279 H1282 0.950 . S
C1280 C1279 1.387 . S
C1280 C1283 1.387 . S
H1281 C1277 0.950 . S
H1282 C1279 0.950 . S
C1283 C1274 1.390 . S
C1283 H1276 0.950 . S
C1283 C1280 1.387 . S
C1284 C1285 1.387 . S
C1284 H1288 0.950 1_556 S
C1284 C1293 1.390 . S
C1285 C1284 1.387 . S
C1285 C1287 1.387 . S
H1286 C1293 0.950 . S
C1287 C1285 1.387 . S
C1287 C1289 1.390 . S
C1287 H1291 0.950 . S
H1288 C1284 0.950 1_554 S
C1289 C1287 1.390 . S
C1289 C1290 1.387 . S
C1289 H1292 0.950 . S
C1290 C1289 1.387 . S
C1290 C1293 1.387 . S
H1291 C1287 0.950 . S
H1292 C1289 0.950 . S
C1293 C1284 1.390 . S
C1293 H1286 0.950 . S
C1293 C1290 1.387 . S
C1294 C1295 1.387 . S
C1294 H1298 0.950 . S
C1294 C1303 1.390 . S
C1295 C1294 1.387 . S
C1295 C1297 1.387 . S
H1296 C1303 0.950 1_554 S
C1297 C1295 1.387 . S
C1297 C1299 1.390 . S
C1297 H1301 0.950 . S
H1298 C1294 0.950 . S
C1299 C1297 1.390 . S
C1299 C1300 1.387 . S
C1299 H1302 0.950 . S
C1300 C1299 1.387 . S
C1300 C1303 1.387 . S
H1301 C1297 0.950 . S
H1302 C1299 0.950 . S
C1303 C1294 1.390 . S
C1303 H1296 0.950 1_556 S
C1303 C1300 1.387 . S
C1304 C1305 1.387 . S
C1304 H1308 0.950 . S
C1304 C1313 1.390 . S
C1305 C1304 1.387 . S
C1305 C1307 1.387 1_556 S
H1306 C1313 0.950 . S
C1307 C1305 1.387 1_554 S
C1307 C1309 1.390 1_554 S
C1307 H1311 0.950 . S
H1308 C1304 0.950 . S
C1309 C1307 1.390 1_556 S
C1309 C1310 1.387 . S
C1309 H1312 0.950 1_556 S
C1310 C1309 1.387 . S
C1310 C1313 1.387 . S
H1311 C1307 0.950 . S
H1312 C1309 0.950 1_554 S
C1313 C1304 1.390 . S
C1313 H1306 0.950 . S
C1313 C1310 1.387 . S
C1314 C1315 1.387 . S
C1314 H1318 0.950 . S
C1314 C1323 1.390 . S
C1315 C1314 1.387 . S
C1315 C1317 1.387 . S
H1316 C1323 0.950 . S
C1317 C1315 1.387 . S
C1317 C1319 1.390 . S
C1317 H1321 0.950 . S
H1318 C1314 0.950 . S
C1319 C1317 1.390 . S
C1319 C1320 1.387 . S
C1319 H1322 0.950 . S
C1320 C1319 1.387 . S
C1320 C1323 1.387 . S
H1321 C1317 0.950 . S
H1322 C1319 0.950 . S
C1323 C1314 1.390 . S
C1323 H1316 0.950 . S
C1323 C1320 1.387 . S
C1324 C1325 1.387 . S
C1324 H1328 0.950 . S
C1324 C1333 1.390 . S
C1325 C1324 1.387 . S
C1325 C1327 1.387 . S
H1326 C1333 0.950 . S
C1327 C1325 1.387 . S
C1327 C1329 1.390 . S
C1327 H1331 0.950 . S
H1328 C1324 0.950 . S
C1329 C1327 1.390 . S
C1329 C1330 1.387 . S
C1329 H1332 0.950 . S
C1330 C1329 1.387 . S
C1330 C1333 1.387 . S
H1331 C1327 0.950 . S
H1332 C1329 0.950 . S
C1333 C1324 1.390 . S
C1333 H1326 0.950 . S
C1333 C1330 1.387 . S
C1334 C1335 1.387 . S
C1334 H1338 0.950 . S
C1334 C1343 1.390 . S
C1335 C1334 1.387 . S
C1335 C1337 1.387 . S
H1336 C1343 0.950 . S
C1337 C1335 1.387 . S
C1337 C1339 1.390 . S
C1337 H1341 0.950 . S
H1338 C1334 0.950 . S
C1339 C1337 1.390 . S
C1339 C1340 1.387 . S
C1339 H1342 0.950 . S
C1340 C1339 1.387 . S
C1340 C1343 1.387 . S
H1341 C1337 0.950 . S
H1342 C1339 0.950 . S
C1343 C1334 1.390 . S
C1343 H1336 0.950 . S
C1343 C1340 1.387 . S
C1344 C1345 1.387 . S
C1344 H1348 0.950 . S
C1344 C1353 1.390 . S
C1345 C1344 1.387 . S
C1345 C1347 1.387 . S
H1346 C1353 0.950 . S
C1347 C1345 1.387 . S
C1347 C1349 1.390 . S
C1347 H1351 0.950 . S
H1348 C1344 0.950 . S
C1349 C1347 1.390 . S
C1349 C1350 1.387 . S
C1349 H1352 0.950 . S
C1350 C1349 1.387 . S
C1350 C1353 1.387 . S
H1351 C1347 0.950 . S
H1352 C1349 0.950 . S
C1353 C1344 1.390 . S
C1353 H1346 0.950 . S
C1353 C1350 1.387 . S
C1354 C1355 1.387 . S
C1354 H1358 0.950 . S
C1354 C1363 1.390 . S
C1355 C1354 1.387 . S
C1355 C1357 1.387 . S
H1356 C1363 0.950 . S
C1357 C1355 1.387 . S
C1357 C1359 1.390 . S
C1357 H1361 0.950 . S
H1358 C1354 0.950 . S
C1359 C1357 1.390 . S
C1359 C1360 1.387 . S
C1359 H1362 0.950 . S
C1360 C1359 1.387 . S
C1360 C1363 1.387 . S
H1361 C1357 0.950 . S
H1362 C1359 0.950 . S
C1363 C1354 1.390 . S
C1363 H1356 0.950 . S
C1363 C1360 1.387 . S
C1364 C1365 1.387 . S
C1364 H1368 0.950 . S
C1364 C1373 1.390 . S
C1365 C1364 1.387 . S
C1365 C1367 1.387 . S
H1366 C1373 0.950 . S
C1367 C1365 1.387 . S
C1367 C1369 1.390 . S
C1367 H1371 0.950 . S
H1368 C1364 0.950 . S
C1369 C1367 1.390 . S
C1369 C1370 1.387 . S
C1369 H1372 0.950 . S
C1370 C1369 1.387 . S
C1370 C1373 1.387 . S
H1371 C1367 0.950 . S
H1372 C1369 0.950 . S
C1373 C1364 1.390 . S
C1373 H1366 0.950 . S
C1373 C1370 1.387 . S
C1374 C1375 1.387 . S
C1374 H1378 0.950 . S
C1374 C1383 1.390 . S
C1375 C1374 1.387 . S
C1375 C1377 1.387 . S
H1376 C1383 0.950 . S
C1377 C1375 1.387 . S
C1377 C1379 1.390 . S
C1377 H1381 0.950 . S
H1378 C1374 0.950 . S
C1379 C1377 1.390 . S
C1379 C1380 1.387 . S
C1379 H1382 0.950 . S
C1380 C1379 1.387 . S
C1380 C1383 1.387 . S
H1381 C1377 0.950 . S
H1382 C1379 0.950 . S
C1383 C1374 1.390 . S
C1383 H1376 0.950 . S
C1383 C1380 1.387 . S
C1384 C1385 1.387 . S
C1384 H1388 0.950 . S
C1384 C1393 1.390 . S
C1385 C1384 1.387 . S
C1385 C1387 1.387 . S
H1386 C1393 0.950 . S
C1387 C1385 1.387 . S
C1387 C1389 1.390 . S
C1387 H1391 0.950 . S
H1388 C1384 0.950 . S
C1389 C1387 1.390 . S
C1389 C1390 1.387 . S
C1389 H1392 0.950 . S
C1390 C1389 1.387 . S
C1390 C1393 1.387 . S
H1391 C1387 0.950 . S
H1392 C1389 0.950 . S
C1393 C1384 1.390 . S
C1393 H1386 0.950 . S
C1393 C1390 1.387 . S
C1394 C1395 1.387 . S
C1394 H1398 0.950 . S
C1394 C1403 1.390 . S
C1395 C1394 1.387 . S
C1395 C1397 1.387 . S
H1396 C1403 0.950 . S
C1397 C1395 1.387 . S
C1397 C1399 1.390 . S
C1397 H1401 0.950 . S
H1398 C1394 0.950 . S
C1399 C1397 1.390 . S
C1399 C1400 1.387 . S
C1399 H1402 0.950 . S
C1400 C1399 1.387 . S
C1400 C1403 1.387 . S
H1401 C1397 0.950 . S
H1402 C1399 0.950 . S
C1403 C1394 1.390 . S
C1403 H1396 0.950 . S
C1403 C1400 1.387 . S
C1404 C1405 1.387 . S
C1404 H1408 0.950 . S
C1404 C1413 1.390 . S
C1405 C1404 1.387 . S
C1405 C1407 1.387 . S
H1406 C1413 0.950 . S
C1407 C1405 1.387 . S
C1407 C1409 1.390 . S
C1407 H1411 0.950 . S
H1408 C1404 0.950 . S
C1409 C1407 1.390 . S
C1409 C1410 1.387 . S
C1409 H1412 0.950 . S
C1410 C1409 1.387 . S
C1410 C1413 1.387 . S
H1411 C1407 0.950 . S
H1412 C1409 0.950 . S
C1413 C1404 1.390 . S
C1413 H1406 0.950 . S
C1413 C1410 1.387 . S
C1414 C1415 1.387 . S
C1414 H1418 0.950 . S
C1414 C1423 1.390 . S
C1415 C1414 1.387 . S
C1415 C1417 1.387 . S
H1416 C1423 0.950 . S
C1417 C1415 1.387 . S
C1417 C1419 1.390 . S
C1417 H1421 0.950 . S
H1418 C1414 0.950 . S
C1419 C1417 1.390 . S
C1419 C1420 1.387 . S
C1419 H1422 0.950 . S
C1420 C1419 1.387 . S
C1420 C1423 1.387 . S
H1421 C1417 0.950 . S
H1422 C1419 0.950 . S
C1423 C1414 1.390 . S
C1423 H1416 0.950 . S
C1423 C1420 1.387 . S
C1424 C1425 1.387 . S
C1424 H1428 0.950 . S
C1424 C1433 1.390 . S
C1425 C1424 1.387 . S
C1425 C1427 1.387 . S
H1426 C1433 0.950 . S
C1427 C1425 1.387 . S
C1427 C1429 1.390 . S
C1427 H1431 0.950 . S
H1428 C1424 0.950 . S
C1429 C1427 1.390 . S
C1429 C1430 1.387 . S
C1429 H1432 0.950 . S
C1430 C1429 1.387 . S
C1430 C1433 1.387 . S
H1431 C1427 0.950 . S
H1432 C1429 0.950 . S
C1433 C1424 1.390 . S
C1433 H1426 0.950 . S
C1433 C1430 1.387 . S
C1434 C1435 1.387 . S
C1434 H1438 0.950 . S
C1434 C1443 1.390 . S
C1435 C1434 1.387 . S
C1435 C1437 1.387 . S
H1436 C1443 0.950 . S
C1437 C1435 1.387 . S
C1437 C1439 1.390 . S
C1437 H1441 0.950 . S
H1438 C1434 0.950 . S
C1439 C1437 1.390 . S
C1439 C1440 1.387 . S
C1439 H1442 0.950 . S
C1440 C1439 1.387 . S
C1440 C1443 1.387 . S
H1441 C1437 0.950 . S
H1442 C1439 0.950 . S
C1443 C1434 1.390 . S
C1443 H1436 0.950 . S
C1443 C1440 1.387 . S
C1444 C1445 1.387 . S
C1444 H1448 0.950 . S
C1444 C1453 1.390 . S
C1445 C1444 1.387 . S
C1445 C1447 1.387 . S
H1446 C1453 0.950 . S
C1447 C1445 1.387 . S
C1447 C1449 1.390 . S
C1447 H1451 0.950 . S
H1448 C1444 0.950 . S
C1449 C1447 1.390 . S
C1449 C1450 1.387 . S
C1449 H1452 0.950 . S
C1450 C1449 1.387 . S
C1450 C1453 1.387 . S
H1451 C1447 0.950 . S
H1452 C1449 0.950 . S
C1453 C1444 1.390 . S
C1453 H1446 0.950 . S
C1453 C1450 1.387 . S
C1454 C1455 1.387 . S
C1454 H1458 0.950 . S
C1454 C1463 1.390 . S
C1455 C1454 1.387 . S
C1455 C1457 1.387 . S
H1456 C1463 0.950 . S
C1457 C1455 1.387 . S
C1457 C1459 1.390 . S
C1457 H1461 0.950 . S
H1458 C1454 0.950 . S
C1459 C1457 1.390 . S
C1459 C1460 1.387 . S
C1459 H1462 0.950 . S
C1460 C1459 1.387 . S
C1460 C1463 1.387 . S
H1461 C1457 0.950 . S
H1462 C1459 0.950 . S
C1463 C1454 1.390 . S
C1463 H1456 0.950 . S
C1463 C1460 1.387 . S
C1464 C1465 1.387 . S
C1464 H1468 0.950 . S
C1464 C1473 1.390 . S
C1465 C1464 1.387 . S
C1465 C1467 1.387 . S
H1466 C1473 0.950 . S
C1467 C1465 1.387 . S
C1467 C1469 1.390 . S
C1467 H1471 0.950 . S
H1468 C1464 0.950 . S
C1469 C1467 1.390 . S
C1469 C1470 1.387 . S
C1469 H1472 0.950 . S
C1470 C1469 1.387 . S
C1470 C1473 1.387 . S
H1471 C1467 0.950 . S
H1472 C1469 0.950 . S
C1473 C1464 1.390 . S
C1473 H1466 0.950 . S
C1473 C1470 1.387 . S
C1474 C1475 1.387 . S
C1474 H1478 0.950 . S
C1474 C1483 1.390 . S
C1475 C1474 1.387 . S
C1475 C1477 1.387 . S
H1476 C1483 0.950 . S
C1477 C1475 1.387 . S
C1477 C1479 1.390 . S
C1477 H1481 0.950 . S
H1478 C1474 0.950 . S
C1479 C1477 1.390 . S
C1479 C1480 1.387 . S
C1479 H1482 0.950 . S
C1480 C1479 1.387 . S
C1480 C1483 1.387 . S
H1481 C1477 0.950 . S
H1482 C1479 0.950 . S
C1483 C1474 1.390 . S
C1483 H1476 0.950 . S
C1483 C1480 1.387 . S
C1484 C1485 1.387 . S
C1484 H1488 0.950 . S
C1484 C1493 1.390 . S
C1485 C1484 1.387 . S
C1485 C1487 1.387 . S
H1486 C1493 0.950 . S
C1487 C1485 1.387 . S
C1487 C1489 1.390 . S
C1487 H1491 0.950 . S
H1488 C1484 0.950 . S
C1489 C1487 1.390 . S
C1489 C1490 1.387 . S
C1489 H1492 0.950 . S
C1490 C1489 1.387 . S
C1490 C1493 1.387 . S
H1491 C1487 0.950 . S
H1492 C1489 0.950 . S
C1493 C1484 1.390 . S
C1493 H1486 0.950 . S
C1493 C1490 1.387 . S
C1494 C1495 1.387 . S
C1494 H1498 0.950 . S
C1494 C1503 1.390 . S
C1495 C1494 1.387 . S
C1495 C1497 1.387 . S
H1496 C1503 0.950 . S
C1497 C1495 1.387 . S
C1497 C1499 1.390 . S
C1497 H1501 0.950 . S
H1498 C1494 0.950 . S
C1499 C1497 1.390 . S
C1499 C1500 1.387 . S
C1499 H1502 0.950 . S
C1500 C1499 1.387 . S
C1500 C1503 1.387 . S
H1501 C1497 0.950 . S
H1502 C1499 0.950 . S
C1503 C1494 1.390 . S
C1503 H1496 0.950 . S
C1503 C1500 1.387 . S
C1504 C1505 1.387 . S
C1504 H1508 0.950 . S
C1504 C1513 1.390 . S
C1505 C1504 1.387 . S
C1505 C1507 1.387 . S
H1506 C1513 0.950 . S
C1507 C1505 1.387 . S
C1507 C1509 1.390 . S
C1507 H1511 0.950 . S
H1508 C1504 0.950 . S
C1509 C1507 1.390 . S
C1509 C1510 1.387 . S
C1509 H1512 0.950 . S
C1510 C1509 1.387 . S
C1510 C1513 1.387 . S
H1511 C1507 0.950 . S
H1512 C1509 0.950 . S
C1513 C1504 1.390 . S
C1513 H1506 0.950 . S
C1513 C1510 1.387 . S
C1514 C1515 1.387 . S
C1514 H1518 0.950 . S
C1514 C1523 1.390 . S
C1515 C1514 1.387 . S
C1515 C1517 1.387 . S
H1516 C1523 0.950 . S
C1517 C1515 1.387 . S
C1517 C1519 1.390 . S
C1517 H1521 0.950 . S
H1518 C1514 0.950 . S
C1519 C1517 1.390 . S
C1519 C1520 1.387 . S
C1519 H1522 0.950 . S
C1520 C1519 1.387 . S
C1520 C1523 1.387 . S
H1521 C1517 0.950 . S
H1522 C1519 0.950 . S
C1523 C1514 1.390 . S
C1523 H1516 0.950 . S
C1523 C1520 1.387 . S
C1524 C1525 1.387 . S
C1524 H1528 0.950 . S
C1524 C1533 1.390 . S
C1525 C1524 1.387 . S
C1525 C1527 1.387 . S
H1526 C1533 0.950 . S
C1527 C1525 1.387 . S
C1527 C1529 1.390 . S
C1527 H1531 0.950 . S
H1528 C1524 0.950 . S
C1529 C1527 1.390 . S
C1529 C1530 1.387 . S
C1529 H1532 0.950 . S
C1530 C1529 1.387 . S
C1530 C1533 1.387 . S
H1531 C1527 0.950 . S
H1532 C1529 0.950 . S
C1533 C1524 1.390 . S
C1533 H1526 0.950 . S
C1533 C1530 1.387 . S
C1534 C1535 1.387 . S
C1534 H1538 0.950 . S
C1534 C1543 1.390 . S
C1535 C1534 1.387 . S
C1535 C1537 1.387 . S
H1536 C1543 0.950 . S
C1537 C1535 1.387 . S
C1537 C1539 1.390 . S
C1537 H1541 0.950 . S
H1538 C1534 0.950 . S
C1539 C1537 1.390 . S
C1539 C1540 1.387 . S
C1539 H1542 0.950 . S
C1540 C1539 1.387 . S
C1540 C1543 1.387 . S
H1541 C1537 0.950 . S
H1542 C1539 0.950 . S
C1543 C1534 1.390 . S
C1543 H1536 0.950 . S
C1543 C1540 1.387 . S
C1544 C1545 1.387 . S
C1544 H1548 0.950 . S
C1544 C1553 1.390 . S
C1545 C1544 1.387 . S
C1545 C1547 1.387 . S
H1546 C1553 0.950 . S
C1547 C1545 1.387 . S
C1547 C1549 1.390 . S
C1547 H1551 0.950 . S
H1548 C1544 0.950 . S
C1549 C1547 1.390 . S
C1549 C1550 1.387 . S
C1549 H1552 0.950 . S
C1550 C1549 1.387 . S
C1550 C1553 1.387 . S
H1551 C1547 0.950 . S
H1552 C1549 0.950 . S
C1553 C1544 1.390 . S
C1553 H1546 0.950 . S
C1553 C1550 1.387 . S
C1554 C1555 1.387 . S
C1554 H1558 0.950 . S
C1554 C1563 1.390 . S
C1555 C1554 1.387 . S
C1555 C1557 1.387 . S
H1556 C1563 0.950 . S
C1557 C1555 1.387 . S
C1557 C1559 1.390 . S
C1557 H1561 0.950 . S
H1558 C1554 0.950 . S
C1559 C1557 1.390 . S
C1559 C1560 1.387 . S
C1559 H1562 0.950 . S
C1560 C1559 1.387 . S
C1560 C1563 1.387 . S
H1561 C1557 0.950 . S
H1562 C1559 0.950 . S
C1563 C1554 1.390 . S
C1563 H1556 0.950 . S
C1563 C1560 1.387 . S
C1564 C1565 1.387 . S
C1564 H1568 0.950 . S
C1564 C1573 1.390 . S
C1565 C1564 1.387 . S
C1565 C1567 1.387 . S
H1566 C1573 0.950 . S
C1567 C1565 1.387 . S
C1567 C1569 1.390 . S
C1567 H1571 0.950 . S
H1568 C1564 0.950 . S
C1569 C1567 1.390 . S
C1569 C1570 1.387 . S
C1569 H1572 0.950 . S
C1570 C1569 1.387 . S
C1570 C1573 1.387 . S
H1571 C1567 0.950 . S
H1572 C1569 0.950 . S
C1573 C1564 1.390 . S
C1573 H1566 0.950 . S
C1573 C1570 1.387 . S
C1574 C1575 1.387 . S
C1574 H1578 0.950 . S
C1574 C1583 1.390 . S
C1575 C1574 1.387 . S
C1575 C1577 1.387 . S
H1576 C1583 0.950 . S
C1577 C1575 1.387 . S
C1577 C1579 1.390 . S
C1577 H1581 0.950 . S
H1578 C1574 0.950 . S
C1579 C1577 1.390 . S
C1579 C1580 1.387 . S
C1579 H1582 0.950 . S
C1580 C1579 1.387 . S
C1580 C1583 1.387 . S
H1581 C1577 0.950 . S
H1582 C1579 0.950 . S
C1583 C1574 1.390 . S
C1583 H1576 0.950 . S
C1583 C1580 1.387 . S
C1584 C1585 1.387 . S
C1584 H1588 0.950 . S
C1584 C1593 1.390 . S
C1585 C1584 1.387 . S
C1585 C1587 1.387 . S
H1586 C1593 0.950 . S
C1587 C1585 1.387 . S
C1587 C1589 1.390 . S
C1587 H1591 0.950 . S
H1588 C1584 0.950 . S
C1589 C1587 1.390 . S
C1589 C1590 1.387 . S
C1589 H1592 0.950 . S
C1590 C1589 1.387 . S
C1590 C1593 1.387 . S
H1591 C1587 0.950 . S
H1592 C1589 0.950 . S
C1593 C1584 1.390 . S
C1593 H1586 0.950 . S
C1593 C1590 1.387 . S
C1594 C1595 1.387 . S
C1594 H1598 0.950 . S
C1594 C1603 1.390 . S
C1595 C1594 1.387 . S
C1595 C1597 1.387 . S
H1596 C1603 0.950 . S
C1597 C1595 1.387 . S
C1597 C1599 1.390 . S
C1597 H1601 0.950 . S
H1598 C1594 0.950 . S
C1599 C1597 1.390 . S
C1599 C1600 1.387 . S
C1599 H1602 0.950 . S
C1600 C1599 1.387 . S
C1600 C1603 1.387 . S
H1601 C1597 0.950 . S
H1602 C1599 0.950 . S
C1603 C1594 1.390 . S
C1603 H1596 0.950 . S
C1603 C1600 1.387 . S
C1604 C1605 1.387 . S
C1604 H1608 0.950 . S
C1604 C1613 1.390 . S
C1605 C1604 1.387 . S
C1605 C1607 1.387 . S
H1606 C1613 0.950 . S
C1607 C1605 1.387 . S
C1607 C1609 1.390 . S
C1607 H1611 0.950 . S
H1608 C1604 0.950 . S
C1609 C1607 1.390 . S
C1609 C1610 1.387 . S
C1609 H1612 0.950 . S
C1610 C1609 1.387 . S
C1610 C1613 1.387 . S
H1611 C1607 0.950 . S
H1612 C1609 0.950 . S
C1613 C1604 1.390 . S
C1613 H1606 0.950 . S
C1613 C1610 1.387 . S
C1614 C1615 1.387 . S
C1614 H1618 0.950 . S
C1614 C1623 1.390 . S
C1615 C1614 1.387 . S
C1615 C1617 1.387 . S
H1616 C1623 0.950 . S
C1617 C1615 1.387 . S
C1617 C1619 1.390 . S
C1617 H1621 0.950 . S
H1618 C1614 0.950 . S
C1619 C1617 1.390 . S
C1619 C1620 1.387 . S
C1619 H1622 0.950 . S
C1620 C1619 1.387 . S
C1620 C1623 1.387 . S
H1621 C1617 0.950 . S
H1622 C1619 0.950 . S
C1623 C1614 1.390 . S
C1623 H1616 0.950 . S
C1623 C1620 1.387 . S
C1624 C1625 1.387 . S
C1624 H1628 0.950 . S
C1624 C1633 1.390 . S
C1625 C1624 1.387 . S
C1625 C1627 1.387 . S
H1626 C1633 0.950 . S
C1627 C1625 1.387 . S
C1627 C1629 1.390 . S
C1627 H1631 0.950 . S
H1628 C1624 0.950 . S
C1629 C1627 1.390 . S
C1629 C1630 1.387 . S
C1629 H1632 0.950 . S
C1630 C1629 1.387 . S
C1630 C1633 1.387 . S
H1631 C1627 0.950 . S
H1632 C1629 0.950 . S
C1633 C1624 1.390 . S
C1633 H1626 0.950 . S
C1633 C1630 1.387 . S
C1634 C1635 1.387 . S
C1634 H1638 0.950 . S
C1634 C1643 1.390 . S
C1635 C1634 1.387 . S
C1635 C1637 1.387 . S
H1636 C1643 0.950 . S
C1637 C1635 1.387 . S
C1637 C1639 1.390 . S
C1637 H1641 0.950 . S
H1638 C1634 0.950 . S
C1639 C1637 1.390 . S
C1639 C1640 1.387 . S
C1639 H1642 0.950 . S
C1640 C1639 1.387 . S
C1640 C1643 1.387 . S
H1641 C1637 0.950 . S
H1642 C1639 0.950 . S
C1643 C1634 1.390 . S
C1643 H1636 0.950 . S
C1643 C1640 1.387 . S
C1644 C1645 1.387 . S
C1644 H1648 0.950 . S
C1644 C1653 1.390 . S
C1645 C1644 1.387 . S
C1645 C1647 1.387 . S
H1646 C1653 0.950 . S
C1647 C1645 1.387 . S
C1647 C1649 1.390 . S
C1647 H1651 0.950 . S
H1648 C1644 0.950 . S
C1649 C1647 1.390 . S
C1649 C1650 1.387 . S
C1649 H1652 0.950 . S
C1650 C1649 1.387 . S
C1650 C1653 1.387 . S
H1651 C1647 0.950 . S
H1652 C1649 0.950 . S
C1653 C1644 1.390 . S
C1653 H1646 0.950 . S
C1653 C1650 1.387 . S
C1654 C1655 1.387 . S
C1654 H1658 0.950 . S
C1654 C1663 1.390 . S
C1655 C1654 1.387 . S
C1655 C1657 1.387 . S
H1656 C1663 0.950 . S
C1657 C1655 1.387 . S
C1657 C1659 1.390 . S
C1657 H1661 0.950 . S
H1658 C1654 0.950 . S
C1659 C1657 1.390 . S
C1659 C1660 1.387 . S
C1659 H1662 0.950 . S
C1660 C1659 1.387 . S
C1660 C1663 1.387 . S
H1661 C1657 0.950 . S
H1662 C1659 0.950 . S
C1663 C1654 1.390 . S
C1663 H1656 0.950 . S
C1663 C1660 1.387 . S
C1664 C1665 1.387 . S
C1664 H1668 0.950 . S
C1664 C1673 1.390 . S
C1665 C1664 1.387 . S
C1665 C1667 1.387 . S
H1666 C1673 0.950 . S
C1667 C1665 1.387 . S
C1667 C1669 1.390 . S
C1667 H1671 0.950 . S
H1668 C1664 0.950 . S
C1669 C1667 1.390 . S
C1669 C1670 1.387 . S
C1669 H1672 0.950 . S
C1670 C1669 1.387 . S
C1670 C1673 1.387 . S
H1671 C1667 0.950 . S
H1672 C1669 0.950 . S
C1673 C1664 1.390 . S
C1673 H1666 0.950 . S
C1673 C1670 1.387 . S
C1674 C1675 1.387 . S
C1674 H1678 0.950 . S
C1674 C1683 1.390 . S
C1675 C1674 1.387 . S
C1675 C1677 1.387 . S
H1676 C1683 0.950 . S
C1677 C1675 1.387 . S
C1677 C1679 1.390 . S
C1677 H1681 0.950 . S
H1678 C1674 0.950 . S
C1679 C1677 1.390 . S
C1679 C1680 1.387 . S
C1679 H1682 0.950 . S
C1680 C1679 1.387 . S
C1680 C1683 1.387 . S
H1681 C1677 0.950 . S
H1682 C1679 0.950 . S
C1683 C1674 1.390 . S
C1683 H1676 0.950 . S
C1683 C1680 1.387 . S
C1684 C1685 1.387 . S
C1684 H1688 0.950 . S
C1684 C1693 1.390 . S
C1685 C1684 1.387 . S
C1685 C1687 1.387 . S
H1686 C1693 0.950 . S
C1687 C1685 1.387 . S
C1687 C1689 1.390 . S
C1687 H1691 0.950 . S
H1688 C1684 0.950 . S
C1689 C1687 1.390 . S
C1689 C1690 1.387 . S
C1689 H1692 0.950 . S
C1690 C1689 1.387 . S
C1690 C1693 1.387 . S
H1691 C1687 0.950 . S
H1692 C1689 0.950 . S
C1693 C1684 1.390 . S
C1693 H1686 0.950 . S
C1693 C1690 1.387 . S
C1694 C1695 1.387 . S
C1694 H1698 0.950 . S
C1694 C1703 1.390 . S
C1695 C1694 1.387 . S
C1695 C1697 1.387 . S
H1696 C1703 0.950 . S
C1697 C1695 1.387 . S
C1697 C1699 1.390 . S
C1697 H1701 0.950 . S
H1698 C1694 0.950 . S
C1699 C1697 1.390 . S
C1699 C1700 1.387 . S
C1699 H1702 0.950 . S
C1700 C1699 1.387 . S
C1700 C1703 1.387 . S
H1701 C1697 0.950 . S
H1702 C1699 0.950 . S
C1703 C1694 1.390 . S
C1703 H1696 0.950 . S
C1703 C1700 1.387 . S
C1704 C1705 1.387 . S
C1704 H1708 0.950 . S
C1704 C1713 1.390 . S
C1705 C1704 1.387 . S
C1705 C1707 1.387 1_455 S
H1706 C1713 0.950 . S
C1707 C1705 1.387 1_655 S
C1707 C1709 1.390 . S
C1707 H1711 0.950 . S
H1708 C1704 0.950 . S
C1709 C1707 1.390 . S
C1709 C1710 1.387 . S
C1709 H1712 0.950 . S
C1710 C1709 1.387 . S
C1710 C1713 1.387 1_655 S
H1711 C1707 0.950 . S
H1712 C1709 0.950 . S
C1713 C1704 1.390 . S
C1713 H1706 0.950 . S
C1713 C1710 1.387 1_455 S
C1714 C1715 1.387 . S
C1714 H1718 0.950 . S
C1714 C1723 1.390 . S
C1715 C1714 1.387 . S
C1715 C1717 1.387 . S
H1716 C1723 0.950 . S
C1717 C1715 1.387 . S
C1717 C1719 1.390 . S
C1717 H1721 0.950 . S
H1718 C1714 0.950 . S
C1719 C1717 1.390 . S
C1719 C1720 1.387 . S
C1719 H1722 0.950 . S
C1720 C1719 1.387 . S
C1720 C1723 1.387 . S
H1721 C1717 0.950 . S
H1722 C1719 0.950 . S
C1723 C1714 1.390 . S
C1723 H1716 0.950 . S
C1723 C1720 1.387 . S
C1724 C1725 1.387 . S
C1724 H1728 0.950 . S
C1724 C1733 1.390 . S
C1725 C1724 1.387 . S
C1725 C1727 1.387 1_565 S
H1726 C1733 0.950 . S
C1727 C1725 1.387 1_545 S
C1727 C1729 1.390 . S
C1727 H1731 0.950 . S
H1728 C1724 0.950 . S
C1729 C1727 1.390 . S
C1729 C1730 1.387 . S
C1729 H1732 0.950 . S
C1730 C1729 1.387 . S
C1730 C1733 1.387 1_545 S
H1731 C1727 0.950 . S
H1732 C1729 0.950 . S
C1733 C1724 1.390 . S
C1733 H1726 0.950 . S
C1733 C1730 1.387 1_565 S
C1734 C1735 1.387 1_556 S
C1734 H1738 0.950 . S
C1734 C1743 1.390 . S
C1735 C1734 1.387 1_554 S
C1735 C1737 1.387 1_565 S
H1736 C1743 0.950 . S
C1737 C1735 1.387 1_545 S
C1737 C1739 1.390 . S
C1737 H1741 0.950 . S
H1738 C1734 0.950 . S
C1739 C1737 1.390 . S
C1739 C1740 1.387 1_554 S
C1739 H1742 0.950 . S
C1740 C1739 1.387 1_556 S
C1740 C1743 1.387 1_545 S
H1741 C1737 0.950 . S
H1742 C1739 0.950 . S
C1743 C1734 1.390 . S
C1743 H1736 0.950 . S
C1743 C1740 1.387 1_565 S
C1744 C1745 1.389 . S
C1744 H1748 0.950 . S
C1744 C1753 1.388 1_556 S
C1745 C1744 1.389 . S
C1745 C1747 1.387 1_655 S
H1746 C1753 0.950 . S
C1747 C1745 1.387 1_455 S
C1747 C1749 1.388 1_556 S
C1747 H1751 0.950 . S
H1748 C1744 0.950 . S
C1749 C1747 1.388 1_554 S
C1749 C1750 1.389 . S
C1749 H1752 0.950 . S
C1750 C1749 1.389 . S
C1750 C1753 1.387 1_455 S
H1751 C1747 0.950 . S
H1752 C1749 0.950 . S
C1753 C1744 1.388 1_554 S
C1753 H1746 0.950 . S
C1753 C1750 1.387 1_655 S
C1754 C1755 1.366 1_556 S
C1754 H1758 0.951 . S
C1754 C1763 1.412 . S
C1755 C1754 1.366 1_554 S
C1755 C1757 1.387 . S
H1756 C1763 0.950 . S
C1757 C1755 1.387 . S
C1757 C1759 1.412 . S
C1757 H1761 0.950 . S
H1758 C1754 0.951 . S
C1759 C1757 1.412 . S
C1759 C1760 1.366 1_554 S
C1759 H1762 0.951 . S
C1760 C1759 1.366 1_556 S
C1760 C1763 1.387 . S
H1761 C1757 0.950 . S
H1762 C1759 0.951 . S
C1763 C1754 1.412 . S
C1763 H1756 0.950 . S
C1763 C1760 1.387 . S
C1764 C1765 1.387 . S
C1764 H1768 0.950 . S
C1764 C1773 1.390 . S
C1765 C1764 1.387 . S
C1765 C1767 1.387 . S
H1766 C1773 0.950 . S
C1767 C1765 1.387 . S
C1767 C1769 1.390 . S
C1767 H1771 0.950 . S
H1768 C1764 0.950 . S
C1769 C1767 1.390 . S
C1769 C1770 1.387 . S
C1769 H1772 0.950 . S
C1770 C1769 1.387 . S
C1770 C1773 1.387 . S
H1771 C1767 0.950 . S
H1772 C1769 0.950 . S
C1773 C1764 1.390 . S
C1773 H1766 0.950 . S
C1773 C1770 1.387 . S
C1774 C1775 1.387 . S
C1774 H1778 0.950 . S
C1774 C1783 1.390 . S
C1775 C1774 1.387 . S
C1775 C1777 1.387 . S
H1776 C1783 0.950 . S
C1777 C1775 1.387 . S
C1777 C1779 1.390 . S
C1777 H1781 0.950 1_556 S
H1778 C1774 0.950 . S
C1779 C1777 1.390 . S
C1779 C1780 1.387 . S
C1779 H1782 0.950 . S
C1780 C1779 1.387 . S
C1780 C1783 1.387 . S
H1781 C1777 0.950 1_554 S
H1782 C1779 0.950 . S
C1783 C1774 1.390 . S
C1783 H1776 0.950 . S
C1783 C1780 1.387 . S
C1784 C1785 1.387 . S
C1784 H1788 0.950 . S
C1784 C1793 1.390 . S
C1785 C1784 1.387 . S
C1785 C1787 1.387 . S
H1786 C1793 0.950 . S
C1787 C1785 1.387 . S
C1787 C1789 1.390 . S
C1787 H1791 0.950 . S
H1788 C1784 0.950 . S
C1789 C1787 1.390 . S
C1789 C1790 1.387 . S
C1789 H1792 0.950 1_556 S
C1790 C1789 1.387 . S
C1790 C1793 1.387 . S
H1791 C1787 0.950 . S
H1792 C1789 0.950 1_554 S
C1793 C1784 1.390 . S
C1793 H1786 0.950 . S
C1793 C1790 1.387 . S
C1794 C1795 1.387 . S
C1794 H1798 0.950 . S
C1794 C1803 1.390 . S
C1795 C1794 1.387 . S
C1795 C1797 1.387 . S
H1796 C1803 0.950 . S
C1797 C1795 1.387 . S
C1797 C1799 1.390 . S
C1797 H1801 0.950 . S
H1798 C1794 0.950 . S
C1799 C1797 1.390 . S
C1799 C1800 1.387 . S
C1799 H1802 0.950 . S
C1800 C1799 1.387 . S
C1800 C1803 1.387 . S
H1801 C1797 0.950 . S
H1802 C1799 0.950 . S
C1803 C1794 1.390 . S
C1803 H1796 0.950 . S
C1803 C1800 1.387 . S
C1804 C1805 1.387 . S
C1804 H1808 0.950 . S
C1804 C1813 1.390 . S
C1805 C1804 1.387 . S
C1805 C1807 1.387 . S
H1806 C1813 0.950 . S
C1807 C1805 1.387 . S
C1807 C1809 1.390 . S
C1807 H1811 0.950 . S
H1808 C1804 0.950 . S
C1809 C1807 1.390 . S
C1809 C1810 1.387 . S
C1809 H1812 0.950 . S
C1810 C1809 1.387 . S
C1810 C1813 1.387 . S
H1811 C1807 0.950 . S
H1812 C1809 0.950 . S
C1813 C1804 1.390 . S
C1813 H1806 0.950 . S
C1813 C1810 1.387 . S
C1814 C1815 1.387 . S
C1814 H1818 0.950 . S
C1814 C1823 1.390 . S
C1815 C1814 1.387 . S
C1815 C1817 1.387 . S
H1816 C1823 0.950 . S
C1817 C1815 1.387 . S
C1817 C1819 1.390 . S
C1817 H1821 0.950 . S
H1818 C1814 0.950 . S
C1819 C1817 1.390 . S
C1819 C1820 1.387 . S
C1819 H1822 0.950 . S
C1820 C1819 1.387 . S
C1820 C1823 1.387 . S
H1821 C1817 0.950 . S
H1822 C1819 0.950 . S
C1823 C1814 1.390 . S
C1823 H1816 0.950 . S
C1823 C1820 1.387 . S
C1824 C1825 1.387 . S
C1824 H1828 0.950 . S
C1824 C1833 1.390 . S
C1825 C1824 1.387 . S
C1825 C1827 1.387 . S
H1826 C1833 0.950 . S
C1827 C1825 1.387 . S
C1827 C1829 1.390 . S
C1827 H1831 0.950 . S
H1828 C1824 0.950 . S
C1829 C1827 1.390 . S
C1829 C1830 1.387 . S
C1829 H1832 0.950 . S
C1830 C1829 1.387 . S
C1830 C1833 1.387 . S
H1831 C1827 0.950 . S
H1832 C1829 0.950 . S
C1833 C1824 1.390 . S
C1833 H1826 0.950 . S
C1833 C1830 1.387 . S
C1834 C1835 1.387 . S
C1834 H1838 0.950 1_554 S
C1834 C1843 1.390 . S
C1835 C1834 1.387 . S
C1835 C1837 1.387 . S
H1836 C1843 0.950 . S
C1837 C1835 1.387 . S
C1837 C1839 1.390 . S
C1837 H1841 0.950 . S
H1838 C1834 0.950 1_556 S
C1839 C1837 1.390 . S
C1839 C1840 1.387 . S
C1839 H1842 0.950 . S
C1840 C1839 1.387 . S
C1840 C1843 1.387 . S
H1841 C1837 0.950 . S
H1842 C1839 0.950 . S
C1843 C1834 1.390 . S
C1843 H1836 0.950 . S
C1843 C1840 1.387 . S
C1844 C1845 1.387 . S
C1844 H1848 0.950 . S
C1844 C1853 1.390 . S
C1845 C1844 1.387 . S
C1845 C1847 1.387 . S
H1846 C1853 0.950 . S
C1847 C1845 1.387 . S
C1847 C1849 1.390 . S
C1847 H1851 0.950 . S
H1848 C1844 0.950 . S
C1849 C1847 1.390 . S
C1849 C1850 1.387 . S
C1849 H1852 0.950 1_554 S
C1850 C1849 1.387 . S
C1850 C1853 1.387 . S
H1851 C1847 0.950 . S
H1852 C1849 0.950 1_556 S
C1853 C1844 1.390 . S
C1853 H1846 0.950 . S
C1853 C1850 1.387 . S
C1854 C1855 1.387 . S
C1854 H1858 0.950 . S
C1854 C1863 1.390 . S
C1855 C1854 1.387 . S
C1855 C1857 1.387 . S
H1856 C1863 0.950 . S
C1857 C1855 1.387 . S
C1857 C1859 1.390 . S
C1857 H1861 0.950 . S
H1858 C1854 0.950 . S
C1859 C1857 1.390 . S
C1859 C1860 1.387 . S
C1859 H1862 0.950 . S
C1860 C1859 1.387 . S
C1860 C1863 1.387 . S
H1861 C1857 0.950 . S
H1862 C1859 0.950 . S
C1863 C1854 1.390 . S
C1863 H1856 0.950 . S
C1863 C1860 1.387 . S
C1864 C1865 1.387 . S
C1864 H1868 0.950 . S
C1864 C1873 1.390 . S
C1865 C1864 1.387 . S
C1865 C1867 1.387 . S
H1866 C1873 0.950 . S
C1867 C1865 1.387 . S
C1867 C1869 1.390 . S
C1867 H1871 0.950 . S
H1868 C1864 0.950 . S
C1869 C1867 1.390 . S
C1869 C1870 1.387 . S
C1869 H1872 0.950 . S
C1870 C1869 1.387 . S
C1870 C1873 1.387 . S
H1871 C1867 0.950 . S
H1872 C1869 0.950 . S
C1873 C1864 1.390 . S
C1873 H1866 0.950 . S
C1873 C1870 1.387 . S
C1874 C1875 1.387 . S
C1874 H1878 0.950 . S
C1874 C1883 1.390 . S
C1875 C1874 1.387 . S
C1875 C1877 1.387 . S
H1876 C1883 0.950 . S
C1877 C1875 1.387 . S
C1877 C1879 1.390 . S
C1877 H1881 0.950 . S
H1878 C1874 0.950 . S
C1879 C1877 1.390 . S
C1879 C1880 1.387 . S
C1879 H1882 0.950 . S
C1880 C1879 1.387 . S
C1880 C1883 1.387 . S
H1881 C1877 0.950 . S
H1882 C1879 0.950 . S
C1883 C1874 1.390 . S
C1883 H1876 0.950 . S
C1883 C1880 1.387 . S
C1884 C1885 1.389 1_655 S
C1884 H1888 0.950 . S
C1884 C1893 1.390 . S
C1885 C1884 1.389 1_455 S
C1885 C1887 1.408 . S
H1886 C1893 0.950 . S
C1887 C1885 1.408 . S
C1887 C1889 1.355 1_455 S
C1887 H1891 0.967 . S
H1888 C1884 0.950 . S
C1889 C1887 1.355 1_655 S
C1889 C1890 1.387 . S
C1889 H1892 0.950 . S
C1890 C1889 1.387 . S
C1890 C1893 1.387 . S
H1891 C1887 0.967 . S
H1892 C1889 0.950 . S
C1893 C1884 1.390 . S
C1893 H1886 0.950 . S
C1893 C1890 1.387 . S
C1894 C1895 1.387 . S
C1894 H1898 0.950 . S
C1894 C1903 1.390 . S
C1895 C1894 1.387 . S
C1895 C1897 1.387 . S
H1896 C1903 0.950 . S
C1897 C1895 1.387 . S
C1897 C1899 1.390 . S
C1897 H1901 0.950 . S
H1898 C1894 0.950 . S
C1899 C1897 1.390 . S
C1899 C1900 1.387 . S
C1899 H1902 0.950 . S
C1900 C1899 1.387 . S
C1900 C1903 1.387 . S
H1901 C1897 0.950 . S
H1902 C1899 0.950 . S
C1903 C1894 1.390 . S
C1903 H1896 0.950 . S
C1903 C1900 1.387 . S
C1904 C1905 1.387 . S
C1904 H1908 0.950 . S
C1904 C1913 1.379 1_545 S
C1905 C1904 1.387 . S
C1905 C1907 1.387 . S
H1906 C1913 0.963 . S
C1907 C1905 1.387 . S
C1907 C1909 1.390 . S
C1907 H1911 0.950 . S
H1908 C1904 0.950 . S
C1909 C1907 1.390 . S
C1909 C1910 1.389 1_545 S
C1909 H1912 0.950 . S
C1910 C1909 1.389 1_565 S
C1910 C1913 1.386 . S
H1911 C1907 0.950 . S
H1912 C1909 0.950 . S
C1913 C1904 1.379 1_565 S
C1913 H1906 0.963 . S
C1913 C1910 1.386 . S
C1914 C1915 1.387 . S
C1914 H1918 0.950 . S
C1914 C1923 1.397 . S
C1915 C1914 1.387 . S
C1915 C1917 1.387 . S
H1916 C1923 0.943 1_545 S
C1917 C1915 1.387 . S
C1917 C1919 1.390 . S
C1917 H1921 0.950 . S
H1918 C1914 0.950 . S
C1919 C1917 1.390 . S
C1919 C1920 1.386 1_565 S
C1919 H1922 0.950 . S
C1920 C1919 1.386 1_545 S
C1920 C1923 1.388 1_545 S
H1921 C1917 0.950 . S
H1922 C1919 0.950 . S
C1923 C1914 1.397 . S
C1923 H1916 0.943 1_565 S
C1923 C1920 1.388 1_565 S
C1924 C1925 1.387 . S
C1924 H1928 0.950 . S
C1924 C1933 1.390 1_455 S
C1925 C1924 1.387 . S
C1925 C1927 1.387 . S
H1926 C1933 0.950 . S
C1927 C1925 1.387 . S
C1927 C1929 1.390 . S
C1927 H1931 0.950 . S
H1928 C1924 0.950 . S
C1929 C1927 1.390 . S
C1929 C1930 1.389 1_455 S
C1929 H1932 0.950 . S
C1930 C1929 1.389 1_655 S
C1930 C1933 1.389 . S
H1931 C1927 0.950 . S
H1932 C1929 0.950 . S
C1933 C1924 1.390 1_655 S
C1933 H1926 0.950 . S
C1933 C1930 1.389 . S
C1934 C1935 1.387 . S
C1934 H1938 0.950 . S
C1934 C1943 1.390 . S
C1935 C1934 1.387 . S
C1935 C1937 1.387 . S
H1936 C1943 0.950 . S
C1937 C1935 1.387 . S
C1937 C1939 1.390 . S
C1937 H1941 0.950 . S
H1938 C1934 0.950 . S
C1939 C1937 1.390 . S
C1939 C1940 1.387 . S
C1939 H1942 0.950 . S
C1940 C1939 1.387 . S
C1940 C1943 1.387 . S
H1941 C1937 0.950 . S
H1942 C1939 0.950 . S
C1943 C1934 1.390 . S
C1943 H1936 0.950 . S
C1943 C1940 1.387 . S
C1944 C1945 1.387 . S
C1944 H1948 0.950 . S
C1944 C1953 1.390 . S
C1945 C1944 1.387 . S
C1945 C1947 1.387 . S
H1946 C1953 0.950 . S
C1947 C1945 1.387 . S
C1947 C1949 1.390 . S
C1947 H1951 0.950 . S
H1948 C1944 0.950 . S
C1949 C1947 1.390 . S
C1949 C1950 1.387 . S
C1949 H1952 0.950 . S
C1950 C1949 1.387 . S
C1950 C1953 1.387 . S
H1951 C1947 0.950 . S
H1952 C1949 0.950 . S
C1953 C1944 1.390 . S
C1953 H1946 0.950 . S
C1953 C1950 1.387 . S
C1954 C1955 1.387 1_545 S
C1954 H1958 0.950 . S
C1954 C1963 1.390 . S
C1955 C1954 1.387 1_565 S
C1955 C1957 1.387 . S
H1956 C1963 0.950 . S
C1957 C1955 1.387 . S
C1957 C1959 1.390 . S
C1957 H1961 0.950 . S
H1958 C1954 0.950 . S
C1959 C1957 1.390 . S
C1959 C1960 1.387 . S
C1959 H1962 0.950 . S
C1960 C1959 1.387 . S
C1960 C1963 1.387 1_565 S
H1961 C1957 0.950 . S
H1962 C1959 0.950 . S
C1963 C1954 1.390 . S
C1963 H1956 0.950 . S
C1963 C1960 1.387 1_545 S
C1964 C1965 1.387 1_655 S
C1964 H1968 0.950 . S
C1964 C1973 1.390 . S
C1965 C1964 1.387 1_455 S
C1965 C1967 1.387 . S
H1966 C1973 0.950 . S
C1967 C1965 1.387 . S
C1967 C1969 1.390 . S
C1967 H1971 0.950 . S
H1968 C1964 0.950 . S
C1969 C1967 1.390 . S
C1969 C1970 1.387 . S
C1969 H1972 0.950 . S
C1970 C1969 1.387 . S
C1970 C1973 1.387 1_455 S
H1971 C1967 0.950 . S
H1972 C1969 0.950 . S
C1973 C1964 1.390 . S
C1973 H1966 0.950 . S
C1973 C1970 1.387 1_655 S
C1974 C1975 1.387 . S
C1974 H1978 0.950 . S
C1974 C1983 1.390 . S
C1975 C1974 1.387 . S
C1975 C1977 1.387 . S
H1976 C1983 0.950 . S
C1977 C1975 1.387 . S
C1977 C1979 1.390 . S
C1977 H1981 0.950 . S
H1978 C1974 0.950 . S
C1979 C1977 1.390 . S
C1979 C1980 1.387 . S
C1979 H1982 0.950 . S
C1980 C1979 1.387 . S
C1980 C1983 1.387 . S
H1981 C1977 0.950 . S
H1982 C1979 0.950 . S
C1983 C1974 1.390 . S
C1983 H1976 0.950 . S
C1983 C1980 1.387 . S
C1984 C1985 1.387 1_565 S
C1984 H1988 0.950 . S
C1984 C1993 1.390 . S
C1985 C1984 1.387 1_545 S
C1985 C1987 1.387 . S
H1986 C1993 0.950 . S
C1987 C1985 1.387 . S
C1987 C1989 1.390 . S
C1987 H1991 0.950 . S
H1988 C1984 0.950 . S
C1989 C1987 1.390 . S
C1989 C1990 1.387 . S
C1989 H1992 0.950 . S
C1990 C1989 1.387 . S
C1990 C1993 1.387 1_545 S
H1991 C1987 0.950 . S
H1992 C1989 0.950 . S
C1993 C1984 1.390 . S
C1993 H1986 0.950 . S
C1993 C1990 1.387 1_565 S
C1994 C1995 1.387 . S
C1994 H1998 0.950 . S
C1994 C2003 1.390 . S
C1995 C1994 1.387 . S
C1995 C1997 1.387 1_655 S
H1996 C2003 0.950 . S
C1997 C1995 1.387 1_455 S
C1997 C1999 1.390 . S
C1997 H2001 0.950 . S
H1998 C1994 0.950 . S
C1999 C1997 1.390 . S
C1999 C2000 1.387 1_455 S
C1999 H2002 0.950 . S
C2000 C1999 1.387 1_655 S
C2000 C2003 1.387 . S
H2001 C1997 0.950 . S
H2002 C1999 0.950 . S
C2003 C1994 1.390 . S
C2003 H1996 0.950 . S
C2003 C2000 1.387 . S
C2004 C2005 1.387 . S
C2004 H2008 0.950 . S
C2004 C2013 1.390 . S
C2005 C2004 1.387 . S
C2005 C2007 1.387 . S
H2006 C2013 0.950 . S
C2007 C2005 1.387 . S
C2007 C2009 1.390 . S
C2007 H2011 0.950 . S
H2008 C2004 0.950 . S
C2009 C2007 1.390 . S
C2009 C2010 1.387 . S
C2009 H2012 0.950 . S
C2010 C2009 1.387 . S
C2010 C2013 1.387 . S
H2011 C2007 0.950 . S
H2012 C2009 0.950 . S
C2013 C2004 1.390 . S
C2013 H2006 0.950 . S
C2013 C2010 1.387 . S
C2014 C2015 1.387 . S
C2014 H2018 0.950 . S
C2014 C2023 1.390 . S
C2015 C2014 1.387 . S
C2015 C2017 1.387 . S
H2016 C2023 0.950 . S
C2017 C2015 1.387 . S
C2017 C2019 1.390 . S
C2017 H2021 0.950 . S
H2018 C2014 0.950 . S
C2019 C2017 1.390 . S
C2019 C2020 1.387 . S
C2019 H2022 0.950 . S
C2020 C2019 1.387 . S
C2020 C2023 1.387 . S
H2021 C2017 0.950 . S
H2022 C2019 0.950 . S
C2023 C2014 1.390 . S
C2023 H2016 0.950 . S
C2023 C2020 1.387 . S
C2024 C2025 1.387 . S
C2024 H2028 0.950 . S
C2024 C2033 1.390 . S
C2025 C2024 1.387 . S
C2025 C2027 1.387 . S
H2026 C2033 0.950 . S
C2027 C2025 1.387 . S
C2027 C2029 1.390 . S
C2027 H2031 0.950 . S
H2028 C2024 0.950 . S
C2029 C2027 1.390 . S
C2029 C2030 1.387 . S
C2029 H2032 0.950 . S
C2030 C2029 1.387 . S
C2030 C2033 1.387 . S
H2031 C2027 0.950 . S
H2032 C2029 0.950 . S
C2033 C2024 1.390 . S
C2033 H2026 0.950 . S
C2033 C2030 1.387 . S
C2034 C2035 1.387 . S
C2034 H2038 0.950 . S
C2034 C2043 1.390 . S
C2035 C2034 1.387 . S
C2035 C2037 1.387 . S
H2036 C2043 0.950 . S
C2037 C2035 1.387 . S
C2037 C2039 1.390 . S
C2037 H2041 0.950 . S
H2038 C2034 0.950 . S
C2039 C2037 1.390 . S
C2039 C2040 1.387 . S
C2039 H2042 0.950 . S
C2040 C2039 1.387 . S
C2040 C2043 1.387 . S
H2041 C2037 0.950 . S
H2042 C2039 0.950 . S
C2043 C2034 1.390 . S
C2043 H2036 0.950 . S
C2043 C2040 1.387 . S
C2044 C2045 1.387 . S
C2044 H2048 0.950 . S
C2044 C2053 1.390 . S
C2045 C2044 1.387 . S
C2045 C2047 1.387 . S
H2046 C2053 0.950 . S
C2047 C2045 1.387 . S
C2047 C2049 1.390 . S
C2047 H2051 0.950 . S
H2048 C2044 0.950 . S
C2049 C2047 1.390 . S
C2049 C2050 1.387 . S
C2049 H2052 0.950 . S
C2050 C2049 1.387 . S
C2050 C2053 1.387 . S
H2051 C2047 0.950 . S
H2052 C2049 0.950 . S
C2053 C2044 1.390 . S
C2053 H2046 0.950 . S
C2053 C2050 1.387 . S
C2054 C2055 1.387 . S
C2054 H2058 0.950 . S
C2054 C2063 1.390 . S
C2055 C2054 1.387 . S
C2055 C2057 1.387 . S
H2056 C2063 0.950 . S
C2057 C2055 1.387 . S
C2057 C2059 1.390 . S
C2057 H2061 0.950 . S
H2058 C2054 0.950 . S
C2059 C2057 1.390 . S
C2059 C2060 1.387 . S
C2059 H2062 0.950 . S
C2060 C2059 1.387 . S
C2060 C2063 1.387 . S
H2061 C2057 0.950 . S
H2062 C2059 0.950 . S
C2063 C2054 1.390 . S
C2063 H2056 0.950 . S
C2063 C2060 1.387 . S
C2064 C2065 1.387 . S
C2064 H2068 0.950 . S
C2064 C2073 1.390 . S
C2065 C2064 1.387 . S
C2065 C2067 1.387 . S
H2066 C2073 0.950 . S
C2067 C2065 1.387 . S
C2067 C2069 1.390 . S
C2067 H2071 0.950 . S
H2068 C2064 0.950 . S
C2069 C2067 1.390 . S
C2069 C2070 1.387 . S
C2069 H2072 0.950 . S
C2070 C2069 1.387 . S
C2070 C2073 1.387 . S
H2071 C2067 0.950 . S
H2072 C2069 0.950 . S
C2073 C2064 1.390 . S
C2073 H2066 0.950 . S
C2073 C2070 1.387 . S
C2074 C2075 1.387 . S
C2074 H2078 0.950 . S
C2074 C2083 1.390 . S
C2075 C2074 1.387 . S
C2075 C2077 1.387 . S
H2076 C2083 0.950 . S
C2077 C2075 1.387 . S
C2077 C2079 1.390 . S
C2077 H2081 0.950 . S
H2078 C2074 0.950 . S
C2079 C2077 1.390 . S
C2079 C2080 1.387 . S
C2079 H2082 0.950 . S
C2080 C2079 1.387 . S
C2080 C2083 1.387 . S
H2081 C2077 0.950 . S
H2082 C2079 0.950 . S
C2083 C2074 1.390 . S
C2083 H2076 0.950 . S
C2083 C2080 1.387 . S
C2084 C2085 1.387 . S
C2084 H2088 0.950 . S
C2084 C2093 1.390 . S
C2085 C2084 1.387 . S
C2085 C2087 1.387 . S
H2086 C2093 0.950 . S
C2087 C2085 1.387 . S
C2087 C2089 1.390 . S
C2087 H2091 0.950 . S
H2088 C2084 0.950 . S
C2089 C2087 1.390 . S
C2089 C2090 1.387 . S
C2089 H2092 0.950 . S
C2090 C2089 1.387 . S
C2090 C2093 1.387 . S
H2091 C2087 0.950 . S
H2092 C2089 0.950 . S
C2093 C2084 1.390 . S
C2093 H2086 0.950 . S
C2093 C2090 1.387 . S
C2094 C2095 1.387 . S
C2094 H2098 0.950 . S
C2094 C2103 1.390 . S
C2095 C2094 1.387 . S
C2095 C2097 1.387 . S
H2096 C2103 0.950 . S
C2097 C2095 1.387 . S
C2097 C2099 1.390 . S
C2097 H2101 0.950 . S
H2098 C2094 0.950 . S
C2099 C2097 1.390 . S
C2099 C2100 1.387 . S
C2099 H2102 0.950 . S
C2100 C2099 1.387 . S
C2100 C2103 1.387 . S
H2101 C2097 0.950 . S
H2102 C2099 0.950 . S
C2103 C2094 1.390 . S
C2103 H2096 0.950 . S
C2103 C2100 1.387 . S
C2104 C2105 1.387 . S
C2104 H2108 0.950 . S
C2104 C2113 1.390 . S
C2105 C2104 1.387 . S
C2105 C2107 1.387 . S
H2106 C2113 0.950 . S
C2107 C2105 1.387 . S
C2107 C2109 1.390 . S
C2107 H2111 0.950 . S
H2108 C2104 0.950 . S
C2109 C2107 1.390 . S
C2109 C2110 1.387 . S
C2109 H2112 0.950 . S
C2110 C2109 1.387 . S
C2110 C2113 1.387 . S
H2111 C2107 0.950 . S
H2112 C2109 0.950 . S
C2113 C2104 1.390 . S
C2113 H2106 0.950 . S
C2113 C2110 1.387 . S
C2114 C2115 1.387 . S
C2114 H2118 0.950 . S
C2114 C2123 1.390 . S
C2115 C2114 1.387 . S
C2115 C2117 1.387 . S
H2116 C2123 0.950 . S
C2117 C2115 1.387 . S
C2117 C2119 1.390 . S
C2117 H2121 0.950 . S
H2118 C2114 0.950 . S
C2119 C2117 1.390 . S
C2119 C2120 1.387 . S
C2119 H2122 0.950 . S
C2120 C2119 1.387 . S
C2120 C2123 1.387 . S
H2121 C2117 0.950 . S
H2122 C2119 0.950 . S
C2123 C2114 1.390 . S
C2123 H2116 0.950 . S
C2123 C2120 1.387 . S
C2124 C2125 1.387 . S
C2124 H2128 0.950 . S
C2124 C2133 1.390 . S
C2125 C2124 1.387 . S
C2125 C2127 1.387 . S
H2126 C2133 0.950 . S
C2127 C2125 1.387 . S
C2127 C2129 1.390 . S
C2127 H2131 0.950 . S
H2128 C2124 0.950 . S
C2129 C2127 1.390 . S
C2129 C2130 1.387 . S
C2129 H2132 0.950 . S
C2130 C2129 1.387 . S
C2130 C2133 1.387 . S
H2131 C2127 0.950 . S
H2132 C2129 0.950 . S
C2133 C2124 1.390 . S
C2133 H2126 0.950 . S
C2133 C2130 1.387 . S
C2134 C2135 1.387 . S
C2134 H2138 0.950 . S
C2134 C2143 1.390 . S
C2135 C2134 1.387 . S
C2135 C2137 1.387 . S
H2136 C2143 0.950 . S
C2137 C2135 1.387 . S
C2137 C2139 1.390 . S
C2137 H2141 0.950 . S
H2138 C2134 0.950 . S
C2139 C2137 1.390 . S
C2139 C2140 1.387 . S
C2139 H2142 0.950 . S
C2140 C2139 1.387 . S
C2140 C2143 1.387 . S
H2141 C2137 0.950 . S
H2142 C2139 0.950 . S
C2143 C2134 1.390 . S
C2143 H2136 0.950 . S
C2143 C2140 1.387 . S
C2144 C2145 1.387 . S
C2144 H2148 0.950 . S
C2144 C2153 1.390 . S
C2145 C2144 1.387 . S
C2145 C2147 1.387 . S
H2146 C2153 0.950 . S
C2147 C2145 1.387 . S
C2147 C2149 1.390 . S
C2147 H2151 0.950 . S
H2148 C2144 0.950 . S
C2149 C2147 1.390 . S
C2149 C2150 1.387 . S
C2149 H2152 0.950 . S
C2150 C2149 1.387 . S
C2150 C2153 1.387 . S
H2151 C2147 0.950 . S
H2152 C2149 0.950 . S
C2153 C2144 1.390 . S
C2153 H2146 0.950 . S
C2153 C2150 1.387 . S
C2154 C2155 1.387 . S
C2154 H2158 0.950 . S
C2154 C2163 1.390 . S
C2155 C2154 1.387 . S
C2155 C2157 1.387 . S
H2156 C2163 0.950 . S
C2157 C2155 1.387 . S
C2157 C2159 1.390 . S
C2157 H2161 0.950 . S
H2158 C2154 0.950 . S
C2159 C2157 1.390 . S
C2159 C2160 1.387 . S
C2159 H2162 0.950 . S
C2160 C2159 1.387 . S
C2160 C2163 1.387 . S
H2161 C2157 0.950 . S
H2162 C2159 0.950 . S
C2163 C2154 1.390 . S
C2163 H2156 0.950 . S
C2163 C2160 1.387 . S
C2164 C2165 1.387 . S
C2164 H2168 0.950 . S
C2164 C2173 1.390 . S
C2165 C2164 1.387 . S
C2165 C2167 1.387 . S
H2166 C2173 0.950 . S
C2167 C2165 1.387 . S
C2167 C2169 1.390 . S
C2167 H2171 0.950 . S
H2168 C2164 0.950 . S
C2169 C2167 1.390 . S
C2169 C2170 1.387 . S
C2169 H2172 0.950 . S
C2170 C2169 1.387 . S
C2170 C2173 1.387 . S
H2171 C2167 0.950 . S
H2172 C2169 0.950 . S
C2173 C2164 1.390 . S
C2173 H2166 0.950 . S
C2173 C2170 1.387 . S
C2174 C2175 1.387 . S
C2174 H2178 0.950 . S
C2174 C2183 1.390 . S
C2175 C2174 1.387 . S
C2175 C2177 1.387 . S
H2176 C2183 0.950 . S
C2177 C2175 1.387 . S
C2177 C2179 1.390 . S
C2177 H2181 0.950 . S
H2178 C2174 0.950 . S
C2179 C2177 1.390 . S
C2179 C2180 1.387 . S
C2179 H2182 0.950 . S
C2180 C2179 1.387 . S
C2180 C2183 1.387 . S
H2181 C2177 0.950 . S
H2182 C2179 0.950 . S
C2183 C2174 1.390 . S
C2183 H2176 0.950 . S
C2183 C2180 1.387 . S
C2184 C2185 1.387 . S
C2184 H2188 0.950 . S
C2184 C2193 1.390 . S
C2185 C2184 1.387 . S
C2185 C2187 1.387 . S
H2186 C2193 0.950 . S
C2187 C2185 1.387 . S
C2187 C2189 1.390 . S
C2187 H2191 0.950 . S
H2188 C2184 0.950 . S
C2189 C2187 1.390 . S
C2189 C2190 1.387 . S
C2189 H2192 0.950 . S
C2190 C2189 1.387 . S
C2190 C2193 1.387 . S
H2191 C2187 0.950 . S
H2192 C2189 0.950 . S
C2193 C2184 1.390 . S
C2193 H2186 0.950 . S
C2193 C2190 1.387 . S
C2194 C2195 1.387 . S
C2194 H2198 0.950 . S
C2194 C2203 1.390 . S
C2195 C2194 1.387 . S
C2195 C2197 1.387 . S
H2196 C2203 0.950 . S
C2197 C2195 1.387 . S
C2197 C2199 1.390 . S
C2197 H2201 0.950 . S
H2198 C2194 0.950 . S
C2199 C2197 1.390 . S
C2199 C2200 1.387 . S
C2199 H2202 0.950 . S
C2200 C2199 1.387 . S
C2200 C2203 1.387 . S
H2201 C2197 0.950 . S
H2202 C2199 0.950 . S
C2203 C2194 1.390 . S
C2203 H2196 0.950 . S
C2203 C2200 1.387 . S
C2204 C2205 1.387 . S
C2204 H2208 0.950 . S
C2204 C2213 1.390 . S
C2205 C2204 1.387 . S
C2205 C2207 1.387 . S
H2206 C2213 0.950 . S
C2207 C2205 1.387 . S
C2207 C2209 1.390 . S
C2207 H2211 0.950 . S
H2208 C2204 0.950 . S
C2209 C2207 1.390 . S
C2209 C2210 1.387 . S
C2209 H2212 0.950 . S
C2210 C2209 1.387 . S
C2210 C2213 1.387 . S
H2211 C2207 0.950 . S
H2212 C2209 0.950 . S
C2213 C2204 1.390 . S
C2213 H2206 0.950 . S
C2213 C2210 1.387 . S
C2214 C2215 1.387 . S
C2214 H2218 0.950 . S
C2214 C2223 1.390 . S
C2215 C2214 1.387 . S
C2215 C2217 1.387 . S
H2216 C2223 0.950 . S
C2217 C2215 1.387 . S
C2217 C2219 1.390 . S
C2217 H2221 0.950 . S
H2218 C2214 0.950 . S
C2219 C2217 1.390 . S
C2219 C2220 1.387 . S
C2219 H2222 0.950 . S
C2220 C2219 1.387 . S
C2220 C2223 1.387 . S
H2221 C2217 0.950 . S
H2222 C2219 0.950 . S
C2223 C2214 1.390 . S
C2223 H2216 0.950 . S
C2223 C2220 1.387 . S
C2224 C2225 1.387 . S
C2224 H2228 0.950 . S
C2224 C2233 1.390 . S
C2225 C2224 1.387 . S
C2225 C2227 1.387 . S
H2226 C2233 0.950 1_545 S
C2227 C2225 1.387 . S
C2227 C2229 1.390 . S
C2227 H2231 0.950 . S
H2228 C2224 0.950 . S
C2229 C2227 1.390 . S
C2229 C2230 1.387 . S
C2229 H2232 0.950 . S
C2230 C2229 1.387 . S
C2230 C2233 1.387 . S
H2231 C2227 0.950 . S
H2232 C2229 0.950 . S
C2233 C2224 1.390 . S
C2233 H2226 0.950 1_565 S
C2233 C2230 1.387 . S
C2234 C2235 1.387 . S
C2234 H2238 0.950 . S
C2234 C2243 1.390 . S
C2235 C2234 1.387 . S
C2235 C2237 1.387 . S
H2236 C2243 0.950 1_655 S
C2237 C2235 1.387 . S
C2237 C2239 1.390 . S
C2237 H2241 0.950 . S
H2238 C2234 0.950 . S
C2239 C2237 1.390 . S
C2239 C2240 1.387 . S
C2239 H2242 0.950 . S
C2240 C2239 1.387 . S
C2240 C2243 1.387 . S
H2241 C2237 0.950 . S
H2242 C2239 0.950 . S
C2243 C2234 1.390 . S
C2243 H2236 0.950 1_455 S
C2243 C2240 1.387 . S
C2244 C2245 1.387 . S
C2244 H2248 0.950 . S
C2244 C2253 1.390 . S
C2245 C2244 1.387 . S
C2245 C2247 1.387 . S
H2246 C2253 0.950 1_455 S
C2247 C2245 1.387 . S
C2247 C2249 1.402 . S
C2247 H2251 0.950 . S
H2248 C2244 0.950 . S
C2249 C2247 1.402 . S
C2249 C2250 1.382 1_655 S
C2249 H2252 0.943 1_655 S
C2250 C2249 1.382 1_455 S
C2250 C2253 1.387 1_455 S
H2251 C2247 0.950 . S
H2252 C2249 0.943 1_455 S
C2253 C2244 1.390 . S
C2253 H2246 0.950 1_655 S
C2253 C2250 1.387 1_655 S
C2254 C2255 1.387 . S
C2254 H2258 0.950 . S
C2254 C2263 1.390 . S
C2255 C2254 1.387 . S
C2255 C2257 1.387 . S
H2256 C2263 0.950 . S
C2257 C2255 1.387 . S
C2257 C2259 1.390 . S
C2257 H2261 0.950 . S
H2258 C2254 0.950 . S
C2259 C2257 1.390 . S
C2259 C2260 1.387 . S
C2259 H2262 0.950 . S
C2260 C2259 1.387 . S
C2260 C2263 1.387 . S
H2261 C2257 0.950 . S
H2262 C2259 0.950 . S
C2263 C2254 1.390 . S
C2263 H2256 0.950 . S
C2263 C2260 1.387 . S
C2264 C2265 1.387 . S
C2264 H2268 0.950 . S
C2264 C2273 1.393 . S
C2265 C2264 1.387 . S
C2265 C2267 1.387 . S
H2266 C2273 0.948 1_565 S
C2267 C2265 1.387 . S
C2267 C2269 1.390 . S
C2267 H2271 0.950 . S
H2268 C2264 0.950 . S
C2269 C2267 1.390 . S
C2269 C2270 1.387 1_545 S
C2269 H2272 0.950 1_545 S
C2270 C2269 1.387 1_565 S
C2270 C2273 1.386 1_565 S
H2271 C2267 0.950 . S
H2272 C2269 0.950 1_565 S
C2273 C2264 1.393 . S
C2273 H2266 0.948 1_545 S
C2273 C2270 1.386 1_545 S
C2274 C2275 1.387 1_565 S
C2274 H2278 0.950 1_565 S
C2274 C2283 1.390 . S
C2275 C2274 1.387 1_545 S
C2275 C2277 1.388 . S
H2276 C2283 0.950 . S
C2277 C2275 1.388 . S
C2277 C2279 1.388 1_545 S
C2277 H2281 0.951 . S
H2278 C2274 0.950 1_545 S
C2279 C2277 1.388 1_565 S
C2279 C2280 1.387 . S
C2279 H2282 0.950 . S
C2280 C2279 1.387 . S
C2280 C2283 1.387 . S
H2281 C2277 0.951 . S
H2282 C2279 0.950 . S
C2283 C2274 1.390 . S
C2283 H2276 0.950 . S
C2283 C2280 1.387 . S
C2284 C2285 1.387 . S
C2284 H2288 0.950 . S
C2284 C2293 1.390 1_655 S
C2285 C2284 1.387 . S
C2285 C2287 1.387 1_655 S
H2286 C2293 0.950 . S
C2287 C2285 1.387 1_455 S
C2287 C2289 1.390 . S
C2287 H2291 0.950 1_455 S
H2288 C2284 0.950 . S
C2289 C2287 1.390 . S
C2289 C2290 1.387 . S
C2289 H2292 0.950 . S
C2290 C2289 1.387 . S
C2290 C2293 1.387 . S
H2291 C2287 0.950 1_655 S
H2292 C2289 0.950 . S
C2293 C2284 1.390 1_455 S
C2293 H2286 0.950 . S
C2293 C2290 1.387 . S
C2294 C2295 1.387 . S
C2294 H2298 0.950 . S
C2294 C2303 1.390 . S
C2295 C2294 1.387 . S
C2295 C2297 1.387 . S
H2296 C2303 0.950 . S
C2297 C2295 1.387 . S
C2297 C2299 1.390 . S
C2297 H2301 0.950 . S
H2298 C2294 0.950 . S
C2299 C2297 1.390 . S
C2299 C2300 1.387 . S
C2299 H2302 0.950 . S
C2300 C2299 1.387 . S
C2300 C2303 1.387 . S
H2301 C2297 0.950 . S
H2302 C2299 0.950 . S
C2303 C2294 1.390 . S
C2303 H2296 0.950 . S
C2303 C2300 1.387 . S
C1225 C0 0.902 . S
C1230 C242 0.933 . S
C1235 C276 0.930 . S
C1240 C34 0.899 . S
C1245 C208 0.928 . S
C1250 C68 0.896 . S
C1255 C391 2.361 1_455 S
C1260 C131 2.333 . S
C1265 C165 2.332 . S
C1270 C323 2.361 . S
C1275 C199 2.333 . S
C1280 C357 2.361 1_565 S
C1285 C47 0.927 . S
C1290 C233 0.896 . S
C1295 C267 0.896 . S
C1300 C81 0.928 . S
C1305 C13 0.933 . S
C1310 C301 0.903 . S
C1315 C178 2.361 1_655 S
C1320 C306 2.333 . S
C1325 C340 2.332 . S
C1330 C110 2.361 . S
C1335 C374 2.333 . S
C1340 C144 2.361 1_545 S
C1345 C408 0.896 . S
C1350 C650 0.927 . S
C1355 C684 0.930 . S
C1360 C442 0.899 . S
C1365 C616 0.932 . S
C1370 C476 0.902 . S
C1375 C539 2.333 . S
C1380 C799 2.361 . S
C1385 C731 2.361 . S
C1390 C573 2.333 . S
C1395 C607 2.334 . S
C1400 C765 2.361 . S
C1405 C641 0.897 . S
C1410 C455 0.928 . S
C1415 C489 0.932 . S
C1420 C675 0.900 . S
C1425 C709 0.903 . S
C1430 C421 0.933 . S
C1435 C586 2.361 . S
C1440 C714 2.332 . S
C1445 C518 2.361 . S
C1450 C748 2.332 . S
C1455 C782 2.334 . S
C1460 C552 2.361 . S
C1465 C816 0.897 . S
C1470 C1058 0.929 . S
C1475 C850 0.899 . S
C1480 C1092 0.930 . S
C1485 C1024 0.932 . S
C1490 C884 0.902 . S
C1495 C1207 2.361 . S
C1500 C947 2.333 . S
C1505 C981 2.333 . S
C1510 C1139 2.361 . S
C1515 C1173 2.361 . S
C1520 C1015 2.333 . S
C1525 C863 0.927 . S
C1530 C1049 0.895 . S
C1535 C1083 0.898 . S
C1540 C897 0.930 . S
C1545 C829 0.933 . S
C1550 C1117 0.903 . S
C1555 C1122 2.332 . S
C1560 C994 2.361 . S
C1565 C1156 2.333 . S
C1570 C926 2.361 . S
C1575 C1190 2.333 . S
C1580 C960 2.361 . S
C1585 C4 0.989 . S
C1590 C625 0.989 . S
C1595 C38 0.987 . S
C1600 C659 0.987 . S
C1605 C693 0.989 . S
C1610 C72 0.989 . S
C1615 C1130 2.506 . S
C1620 C119 2.506 . S
C1625 C1164 2.506 . S
C1630 C153 2.506 . S
C1635 C1198 2.506 . S
C1640 C187 2.506 . S
C1645 C217 0.990 . S
C1650 C820 0.990 . S
C1655 C854 0.990 . S
C1660 C251 0.990 . S
C1665 C285 0.991 . S
C1670 C888 0.991 . S
C1675 C314 2.505 . S
C1680 C527 2.505 . S
C1685 C348 2.506 . S
C1690 C561 2.506 . S
C1695 C382 2.506 . S
C1700 C595 2.506 . S
C1705 C412 0.988 . S
C1710 C1033 0.988 . S
C1715 C1067 0.987 . S
C1720 C446 0.987 . S
C1725 C480 0.992 . S
C1730 C1101 0.992 . S
C1735 C935 2.505 . S
C1740 C722 2.505 . S
C1745 C756 2.506 . S
C1750 C969 2.506 . S
C1755 C1003 2.505 . S
C1760 C790 2.505 . S
C1765 C8 1.648 1_556 S
C1770 C557 1.610 . S
C1775 C42 1.646 1_556 S
C1780 C591 1.607 . S
C1785 C523 1.607 . S
C1790 C76 1.646 1_556 S
C1795 C115 1.606 . S
C1800 C892 1.645 . S
C1805 C824 1.644 . S
C1810 C149 1.606 . S
C1815 C183 1.608 . S
C1820 C858 1.645 . S
C1825 C1160 1.606 . S
C1830 C221 1.645 1_554 S
C1835 C255 1.645 1_554 S
C1840 C1194 1.606 . S
C1845 C1126 1.610 . S
C1850 C289 1.647 1_554 S
C1855 C310 1.608 . S
C1860 C697 1.646 . S
C1865 C344 1.606 . S
C1870 C629 1.645 . S
C1875 C378 1.608 . S
C1880 C663 1.646 . S
C1885 C965 1.604 . S
C1890 C416 1.645 . S
C1895 C450 1.646 . S
C1900 C999 1.606 . S
C1905 C484 1.646 . S
C1910 C931 1.607 . S
C1915 C1105 1.646 . S
C1920 C718 1.608 . S
C1925 C1037 1.645 . S
C1930 C752 1.604 . S
C1935 C1071 1.645 . S
C1940 C786 1.608 . S
C1945 C106 1.759 . S
C1950 C17 1.876 . S
C1955 C51 1.876 . S
C1960 C140 1.758 . S
C1965 C85 1.876 . S
C1970 C174 1.758 . S
C1975 C319 1.760 . S
C1980 C212 1.877 . S
C1985 C246 1.877 . S
C1990 C353 1.762 . S
C1995 C387 1.759 . S
C2000 C280 1.877 . S
C2005 C514 1.758 . S
C2010 C425 1.876 . S
C2015 C459 1.877 . S
C2020 C548 1.762 . S
C2025 C493 1.876 . S
C2030 C582 1.758 . S
C2035 C620 1.876 . S
C2040 C727 1.759 . S
C2045 C654 1.876 . S
C2050 C761 1.758 . S
C2055 C688 1.876 . S
C2060 C795 1.758 . S
C2065 C833 1.877 . S
C2070 C922 1.761 . S
C2075 C956 1.758 . S
C2080 C867 1.876 . S
C2085 C990 1.760 . S
C2090 C901 1.876 . S
C2095 C1028 1.876 . S
C2100 C1135 1.758 . S
C2105 C1169 1.762 . S
C2110 C1062 1.877 . S
C2115 C1096 1.877 . S
C2120 C1203 1.761 . S
C2125 C29 1.946 . S
C2130 C986 1.968 . S
C2135 C918 1.968 . S
C2140 C63 1.946 . S
C2145 C97 1.945 . S
C2150 C952 1.968 . S
C2155 C471 1.945 . S
C2160 C102 1.967 . S
C2165 C136 1.967 1_545 S
C2170 C505 1.944 . S
C2175 C170 1.968 1_655 S
C2180 C437 1.946 . S
C2185 C811 1.968 . S
C2190 C204 1.946 . S
C2195 C238 1.945 . S
C2200 C743 1.968 . S
C2205 C777 1.968 . S
C2210 C272 1.945 . S
C2215 C335 1.968 . S
C2220 C1054 1.945 . S
C2225 C1088 1.944 . S
C2230 C369 1.967 1_565 S
C2235 C1020 1.944 . S
C2240 C403 1.967 1_455 S
C2245 C510 1.968 . S
C2250 C879 1.946 . S
C2255 C544 1.968 . S
C2260 C913 1.946 . S
C2265 C578 1.968 . S
C2270 C845 1.945 . S
C2275 C612 1.945 . S
C2280 C1219 1.968 . S
C2285 C646 1.946 . S
C2290 C1151 1.968 . S
C2295 C1185 1.968 . S
C2300 C680 1.945 . S
